drugbank_target|Q9HCC0 Methylcrotonoyl-CoA carboxylase beta chain, mitochondrial (DB00121)
 OpenBabel12092119233D

  0  0  0     0  0            999 V3000
M  V30 BEGIN CTAB
M  V30 COUNTS 8628 8718 0 0 0
M  V30 BEGIN ATOM
M  V30 1 H -0.908 1.98254 -0.117106 0
M  V30 2 N 0 1.576 0 0
M  V30 3 C 0.933 2.03868 1.02534 0
M  V30 4 C 1.911 0.928543 1.3348 0
M  V30 5 O 3.095 1.19667 1.45644 0
M  V30 6 C 0.222 2.43627 2.35294 0
M  V30 7 C -0.732 3.65373 2.2001 0
M  V30 8 S 0.101 5.13292 1.52614 0
M  V30 9 C 1.257 5.56322 2.86805 0
M  V30 10 H 1.49 2.90518 0.631377 0
M  V30 11 H -0.977 1.52953 0.210867 0
M  V30 12 H 0.981 2.67203 3.11629 0
M  V30 13 H -0.358 1.57376 2.7183 0
M  V30 14 H -1.165 3.90944 3.18086 0
M  V30 15 H -1.563 3.418 1.51819 0
M  V30 16 H 0.729 5.58782 3.83104 0
M  V30 17 H 1.672 6.56266 2.65933 0
M  V30 18 H 2.08 4.83886 2.90714 0
M  V30 19 N 1.4781 -0.272755 1.55222 0
M  V30 20 C 2.7241 -1.00172 1.77023 0
M  V30 21 C 3.0791 -1.83928 0.564633 0
M  V30 22 O 2.3721 -1.86416 -0.442674 0
M  V30 23 C 2.5661 -1.91642 3.01675 0
M  V30 24 C 2.3951 -1.16888 4.34243 0
M  V30 25 C 1.1651 -0.884464 4.97499 0
M  V30 26 C 3.3631 -0.55919 5.11251 0
M  V30 27 N 1.3451 -0.11015 6.13801 0
M  V30 28 C 2.7161 0.0809469 6.19947 0
M  V30 29 C 4.7711 -0.467058 4.95705 0
M  V30 30 C 3.4741 0.804335 7.14789 0
M  V30 31 C 5.5001 0.242739 5.90902 0
M  V30 32 C 4.8621 0.871613 6.98987 0
M  V30 33 H 0.9611 -0.348529 0.700037 0
M  V30 34 H 3.5451 -0.277365 1.92714 0
M  V30 35 H 1.7161 -2.61303 2.87359 0
M  V30 36 H 3.4481 -2.57901 3.1188 0
M  V30 37 H 0.2031 -1.18979 4.58411 0
M  V30 38 H 0.6271 0.264344 6.76484 0
M  V30 39 H 5.2691 -0.93894 4.12242 0
M  V30 40 H 2.9871 1.2879 7.97771 0
M  V30 41 H 6.5731 0.314347 5.8095 0
M  V30 42 H 5.4531 1.4121 7.71381 0
M  V30 43 N 2.9562 -1.48159 -0.537278 0
M  V30 44 C 3.9192 -1.61665 -1.62472 0
M  V30 45 C 4.9192 -0.490395 -1.5314 0
M  V30 46 O 6.1092 -0.755998 -1.5694 0
M  V30 47 C 3.2412 -1.57997 -3.02076 0
M  V30 48 H 4.4342 -2.58621 -1.51839 0
M  V30 49 H 1.9872 -1.36647 -0.758771 0
M  V30 50 H 2.7222 -0.624913 -3.18222 0
M  V30 51 H 2.5072 -2.39755 -3.10258 0
M  V30 52 H 3.9972 -1.70627 -3.81151 0
M  V30 53 N 4.4343 0.785586 -1.36625 0
M  V30 54 C 5.6803 1.54591 -1.31261 0
M  V30 55 C 6.0133 1.93906 0.106823 0
M  V30 56 O 5.2883 1.63007 1.06108 0
M  V30 57 C 5.5713 2.82038 -2.23889 0
M  V30 58 C 5.4243 2.49066 -3.74548 0
M  V30 59 C 6.7433 3.83887 -2.15217 0
M  V30 60 H 3.8623 0.560846 -0.478143 0
M  V30 61 H 6.5043 0.902278 -1.67209 0
M  V30 62 H 4.6543 3.36961 -1.93363 0
M  V30 63 H 6.3263 2.00164 -4.15611 0
M  V30 64 H 4.5693 1.81954 -3.93796 0
M  V30 65 H 5.2403 3.40109 -4.34776 0
M  V30 66 H 7.7163 3.38421 -2.42096 0
M  V30 67 H 6.5923 4.70806 -2.82193 0
M  V30 68 H 6.8533 4.27131 -1.14068 0
M  V30 69 N 5.9124 1.20967 1.01018 0
M  V30 70 C 6.8424 0.988272 2.11555 0
M  V30 71 C 7.8234 -0.0849778 1.69888 0
M  V30 72 O 9.0084 0.0738202 1.9406 0
M  V30 73 C 6.1384 0.546528 3.42973 0
M  V30 74 C 5.0924 1.56375 3.9841 0
M  V30 75 C 4.4184 0.97842 5.25672 0
M  V30 76 C 5.7184 2.94922 4.31066 0
M  V30 77 H 7.4124 1.91276 2.30334 0
M  V30 78 H 4.9584 0.921073 1.1069 0
M  V30 79 H 6.9114 0.378839 4.19694 0
M  V30 80 H 5.6354 -0.413598 3.23971 0
M  V30 81 H 4.2944 1.71891 3.23804 0
M  V30 82 H 3.9424 0.0101688 5.02999 0
M  V30 83 H 3.6424 1.65784 5.63728 0
M  V30 84 H 5.1664 0.821939 6.05043 0
M  V30 85 H 6.5804 2.8288 4.9865 0
M  V30 86 H 4.9774 3.5983 4.80253 0
M  V30 87 H 6.0474 3.4616 3.39561 0
M  V30 88 N 7.3905 -1.2043 1.01659 0
M  V30 89 C 8.8065 -1.41852 0.731442 0
M  V30 90 C 9.0065 -1.89358 -0.688898 0
M  V30 91 O 8.0625 -2.06247 -1.45666 0
M  V30 92 C 9.3755 -2.44019 1.75714 0
M  V30 93 C 10.9235 -2.57785 1.77527 0
M  V30 94 C 11.3985 -3.63194 2.79023 0
M  V30 95 N 12.8895 -3.70678 2.77763 0
M  V30 96 C 13.6245 -4.51897 3.52954 0
M  V30 97 N 13.1205 -5.36921 4.37821 0
M  V30 98 N 14.9135 -4.4643 3.41551 0
M  V30 99 H 7.0645 -0.879093 1.93354 0
M  V30 100 H 9.3275 -0.448425 0.835236 0
M  V30 101 H 9.0335 -2.1611 2.77469 0
M  V30 102 H 8.9075 -3.43007 1.56927 0
M  V30 103 H 11.2945 -2.85023 0.764569 0
M  V30 104 H 11.3755 -1.58992 2.00387 0
M  V30 105 H 11.0195 -3.36699 3.80258 0
M  V30 106 H 10.9495 -4.61609 2.53425 0
M  V30 107 H 13.4405 -3.09944 2.16201 0
M  V30 108 H 13.7535 -5.95981 4.91962 0
M  V30 109 H 12.0985 -5.36424 4.41899 0
M  V30 110 H 15.2895 -3.79042 2.74672 0
M  V30 111 H 15.4625 -5.09491 4.00404 0
M  V30 112 N 8.8686 -0.792821 -1.36206 0
M  V30 113 C 9.7986 -0.207853 -2.32573 0
M  V30 114 C 10.7796 0.659055 -1.56813 0
M  V30 115 O 11.9646 0.592176 -1.84951 0
M  V30 116 C 9.0946 0.655449 -3.41059 0
M  V30 117 C 8.0486 -0.111842 -4.27854 0
M  V30 118 C 7.3746 0.872274 -5.27537 0
M  V30 119 C 8.6746 -1.30299 -5.05786 0
M  V30 120 H 10.3686 -1.01294 -2.81744 0
M  V30 121 H 7.9146 -0.48854 -1.3546 0
M  V30 122 H 9.8676 1.07464 -4.07467 0
M  V30 123 H 8.5916 1.49328 -2.90463 0
M  V30 124 H 7.2506 -0.512053 -3.63006 0
M  V30 125 H 6.8986 1.70523 -4.73214 0
M  V30 126 H 6.5986 0.363291 -5.86476 0
M  V30 127 H 8.1226 1.28996 -5.96818 0
M  V30 128 H 9.5366 -0.959379 -5.65216 0
M  V30 129 H 7.9336 -1.7455 -5.74154 0
M  V30 130 H 9.0036 -2.09663 -4.37229 0
M  V30 131 N 10.3467 1.47872 -0.545128 0
M  V30 132 C 11.3097 2.28337 0.198717 0
M  V30 133 C 12.3097 1.36255 0.853888 0
M  V30 134 O 13.4997 1.59003 0.711606 0
M  V30 135 C 10.6317 3.15585 1.28915 0
M  V30 136 H 11.8247 2.95567 -0.507941 0
M  V30 137 H 9.3777 1.53362 -0.301616 0
M  V30 138 H 10.1127 2.53019 2.02859 0
M  V30 139 H 9.8977 3.83337 0.824309 0
M  V30 140 H 11.3877 3.76243 1.81194 0
M  V30 141 N 11.8248 0.280983 1.55075 0
M  V30 142 C 12.7548 -0.597469 2.25727 0
M  V30 143 C 13.7358 -1.15417 1.24952 0
M  V30 144 O 14.9208 -1.18722 1.53684 0
M  V30 145 C 12.0508 -1.7789 2.98283 0
M  V30 146 C 11.0048 -1.35347 4.06036 0
M  V30 147 C 10.3308 -2.61846 4.66198 0
M  V30 148 C 11.6308 -0.499354 5.19907 0
M  V30 149 H 13.3248 -0.00824265 2.99399 0
M  V30 150 H 10.8708 -0.0025244 1.44 0
M  V30 151 H 12.8238 -2.39937 3.46422 0
M  V30 152 H 11.5478 -2.39405 2.22155 0
M  V30 153 H 10.2068 -0.756156 3.58717 0
M  V30 154 H 9.8548 -3.21632 3.86732 0
M  V30 155 H 9.5548 -2.3409 5.38958 0
M  V30 156 H 11.0788 -3.24732 5.1709 0
M  V30 157 H 12.4928 -1.02498 5.64063 0
M  V30 158 H 10.8898 -0.316424 5.99265 0
M  V30 159 H 11.9598 0.480459 4.82514 0
M  V30 160 N 13.3029 -1.57598 0.00835791 0
M  V30 161 C 14.7189 -1.55764 -0.347822 0
M  V30 162 C 14.9189 -1.01186 -1.74252 0
M  V30 163 O 13.9749 -0.649371 -2.44007 0
M  V30 164 C 15.2879 -2.99927 -0.215407 0
M  V30 165 C 16.8359 -3.11656 -0.289725 0
M  V30 166 C 17.3109 -4.57621 -0.18634 0
M  V30 167 N 18.8019 -4.62557 -0.243978 0
M  V30 168 C 19.5369 -5.73094 -0.18745 0
M  V30 169 N 19.0329 -6.92753 -0.0810331 0
M  V30 170 N 20.8259 -5.61588 -0.239925 0
M  V30 171 H 12.9769 -1.91411 0.92062 0
M  V30 172 H 15.2399 -0.879562 0.353659 0
M  V30 173 H 14.9459 -3.43729 0.744512 0
M  V30 174 H 14.8199 -3.63865 -0.994097 0
M  V30 175 H 17.2069 -2.67779 -1.24009 0
M  V30 176 H 17.2879 -2.5048 0.51898 0
M  V30 177 H 16.9319 -5.02174 0.760519 0
M  V30 178 H 16.8619 -5.16752 -1.01364 0
M  V30 179 H 19.3529 -3.76481 -0.327217 0
M  V30 180 H 19.6659 -7.72787 -0.0440241 0
M  V30 181 H 18.0109 -6.94984 -0.0465419 0
M  V30 182 H 21.2019 -4.66996 -0.321317 0
M  V30 183 H 21.3749 -6.47714 -0.192407 0
M  V30 184 N 14.781 0.264519 -1.55364 0
M  V30 185 C 16.192 0.834936 -1.6699 0
M  V30 186 C 16.543 1.86718 -0.602552 0
M  V30 187 O 15.668 2.14899 0.254425 0
M  V30 188 C 16.263 1.5212 -3.02729 0
M  V30 189 C 14.822 2.03954 -3.16354 0
M  V30 190 C 13.969 0.884498 -2.62815 0
M  V30 191 H 16.92 0.0406869 -1.58648 0
M  V30 192 H 16.941 2.38853 -2.96191 0
M  V30 193 H 16.453 0.769668 -3.80392 0
M  V30 194 H 14.554 2.82041 -2.43482 0
M  V30 195 H 14.667 2.24902 -4.23032 0
M  V30 196 H 13.031 1.2802 -2.20188 0
M  V30 197 H 13.814 0.14634 -3.42988 0
M  V30 198 N 16.2591 1.48442 0.529413 0
M  V30 199 C 17.4991 1.58086 1.29569 0
M  V30 200 C 17.8631 0.249302 1.90375 0
M  V30 201 O 19.0641 0.220738 2.67892 0
M  V30 202 C 17.3351 2.68793 2.35552 0
M  V30 203 S 18.8941 2.98207 3.21898 0
M  V30 204 H 15.7121 0.557922 0.440732 0
M  V30 205 H 18.3141 1.85966 0.603059 0
M  V30 206 H 17.0181 3.64102 1.89363 0
M  V30 207 H 16.5491 2.42817 3.09522 0
M  V30 208 H 18.5641 2.37548 4.35644 0
M  V30 209 N 17.7372 -0.778329 1.37039 0
M  V30 210 C 18.7002 -1.87301 1.32102 0
M  V30 211 C 19.7002 -1.59198 0.226405 0
M  V30 212 O 20.8902 -1.67403 0.481861 0
M  V30 213 C 18.0222 -3.24309 1.05055 0
M  V30 214 H 19.2152 -1.93093 2.29467 0
M  V30 215 H 16.7682 -0.977358 1.21973 0
M  V30 216 H 17.5032 -3.24196 0.0819373 0
M  V30 217 H 17.2882 -3.46098 1.84279 0
M  V30 218 H 18.7782 -4.04382 1.04234 0
M  V30 219 N 19.2153 -1.21501 -1.00376 0
M  V30 220 C 20.6313 -0.972629 -1.26539 0
M  V30 221 C 20.8313 0.340257 -1.98606 0
M  V30 222 O 19.8873 1.06561 -2.28913 0
M  V30 223 C 21.2003 -2.16404 -2.08781 0
M  V30 224 C 22.7483 -2.20643 -2.22004 0
M  V30 225 C 23.2233 -3.39306 -3.07629 0
M  V30 226 N 24.7143 -3.39401 -3.15217 0
M  V30 227 C 25.4493 -4.27867 -3.81729 0
M  V30 228 N 24.9453 -5.26533 -4.5026 0
M  V30 229 N 26.7383 -4.15672 -3.78382 0
M  V30 230 H 18.8893 -2.05929 -0.520281 0
M  V30 231 H 21.1523 -0.901803 -0.292328 0
M  V30 232 H 20.8583 -3.11554 -1.63178 0
M  V30 233 H 20.7323 -2.15567 -3.09533 0
M  V30 234 H 23.1193 -1.26048 -2.66825 0
M  V30 235 H 23.2003 -2.25523 -1.20718 0
M  V30 236 H 22.8443 -4.34195 -2.63509 0
M  V30 237 H 22.7743 -3.31665 -4.09031 0
M  V30 238 H 25.2653 -2.67997 -2.66432 0
M  V30 239 H 25.5783 -5.90337 -4.98721 0
M  V30 240 H 23.9233 -5.30457 -4.49044 0
M  V30 241 H 27.1143 -3.3785 -3.23998 0
M  V30 242 H 27.2873 -4.84825 -4.2994 0
M  V30 243 N 20.6934 1.19889 -1.02296 0
M  V30 244 C 21.6564 2.21116 -0.603351 0
M  V30 245 C 22.6564 1.5738 0.329884 0
M  V30 246 O 23.8464 1.73802 0.117702 0
M  V30 247 C 20.9784 3.40696 0.117992 0
M  V30 248 H 22.1714 2.59754 -1.49893 0
M  V30 249 H 19.7244 1.33463 -0.813468 0
M  V30 250 H 20.4594 3.07569 1.0282 0
M  V30 251 H 20.2444 3.88188 -0.552511 0
M  V30 252 H 21.7344 4.15692 0.398696 0
M  V30 253 N 22.1715 0.800033 1.35784 0
M  V30 254 C 23.3965 0.388511 2.03729 0
M  V30 255 C 23.8215 -0.990481 1.5991 0
M  V30 256 O 23.1795 -1.64013 0.772612 0
M  V30 257 C 23.2275 0.4726 3.5749 0
M  V30 258 O 22.3315 -0.51646 4.09153 0
M  V30 259 H 21.6725 0.163271 0.643614 0
M  V30 260 H 24.2025 1.0841 1.73518 0
M  V30 261 H 24.2125 0.34003 4.06581 0
M  V30 262 H 22.8875 1.47848 3.88734 0
M  V30 263 H 21.4645 -0.344673 3.71304 0
M  V30 264 N 23.6496 -1.47581 0.552962 0
M  V30 265 C 25.0606 -1.86324 0.118463 0
M  V30 266 C 25.4116 -1.46006 -1.3106 0
M  V30 267 O 24.5366 -0.861182 -1.98526 0
M  V30 268 C 25.1316 -3.3816 0.20821 0
M  V30 269 C 23.6906 -3.7601 -0.171226 0
M  V30 270 C 22.8376 -2.71634 0.557686 0
M  V30 271 H 25.7886 -1.39159 0.762928 0
M  V30 272 H 25.8096 -3.76141 -0.574278 0
M  V30 273 H 25.3216 -3.67473 1.24841 0
M  V30 274 H 23.4226 -3.52313 -1.21269 0
M  V30 275 H 23.5356 -4.78745 0.184379 0
M  V30 276 H 21.8996 -2.547 0.00125792 0
M  V30 277 H 22.6826 -3.0379 1.59896 0
M  V30 278 N 25.1277 -0.289203 -1.54924 0
M  V30 279 C 26.0907 0.579144 -2.21762 0
M  V30 280 C 27.0907 1.07047 -1.1999 0
M  V30 281 O 28.2807 0.968384 -1.44803 0
M  V30 282 C 25.4127 1.80055 -2.8947 0
M  V30 283 H 26.6057 -0.00464908 -2.999 0
M  V30 284 H 24.1587 -0.0399306 -1.56249 0
M  V30 285 H 24.8937 2.42449 -2.15381 0
M  V30 286 H 24.6787 1.45602 -3.64064 0
M  V30 287 H 26.1687 2.41773 -3.40493 0
M  V30 288 N 26.6058 1.57591 -0.0167156 0
M  V30 289 C 27.8538 1.90906 0.663285 0
M  V30 290 C 28.1748 0.892509 1.73376 0
M  V30 291 O 27.4448 -0.0677623 1.95783 0
M  V30 292 H 26.0248 0.704637 0.247983 0
M  V30 293 H 28.6868 1.94803 -0.0615909 0
M  V30 294 H 27.7828 2.9116 1.12393 0
M  V30 295 N 28.0839 -0.256276 1.55502 0
M  V30 296 C 29.4949 -0.826068 1.67431 0
M  V30 297 C 29.8459 -1.86396 0.612446 0
M  V30 298 O 28.9709 -2.15031 -0.243025 0
M  V30 299 C 29.5659 -1.50512 3.03532 0
M  V30 300 C 28.1249 -2.02273 3.17431 0
M  V30 301 C 27.2719 -0.870548 2.63281 0
M  V30 302 H 30.2229 -0.0322728 1.58667 0
M  V30 303 H 30.2439 -2.37279 2.97454 0
M  V30 304 H 29.7559 -0.749484 3.80794 0
M  V30 305 H 27.8569 -2.80746 2.44974 0
M  V30 306 H 27.9699 -2.22655 4.24219 0
M  V30 307 H 26.3339 -1.26851 2.20864 0
M  V30 308 H 27.1169 -0.128149 3.43061 0
M  V30 309 N 29.562 -1.4872 -0.521534 0
M  V30 310 C 30.978 -1.35028 -0.850855 0
M  V30 311 C 31.178 -0.367712 -1.98116 0
M  V30 312 O 30.234 0.208037 -2.51642 0
M  V30 313 C 31.547 -2.75263 -1.21041 0
M  V30 314 C 33.095 -2.83813 -1.31981 0
M  V30 315 C 33.57 -4.24769 -1.71276 0
M  V30 316 N 35.061 -4.27482 -1.78363 0
M  V30 317 C 35.796 -5.33494 -2.1017 0
M  V30 318 N 35.292 -6.49775 -2.40343 0
M  V30 319 N 37.085 -5.20894 -2.11248 0
M  V30 320 H 29.236 -2.11214 0.22413 0
M  V30 321 H 31.499 -0.947252 0.0376439 0
M  V30 322 H 31.205 -3.48765 -0.453415 0
M  V30 323 H 31.079 -3.09327 -2.15863 0
M  V30 324 H 33.466 -2.10561 -2.06756 0
M  V30 325 H 33.547 -2.53358 -0.352596 0
M  V30 326 H 33.191 -4.9854 -0.970588 0
M  V30 327 H 33.121 -4.52673 -2.69062 0
M  V30 328 H 35.612 -3.43611 -1.57288 0
M  V30 329 H 35.925 -7.26402 -2.63743 0
M  V30 330 H 34.27 -6.53035 -2.37844 0
M  V30 331 H 37.461 -4.29065 -1.87139 0
M  V30 332 H 37.634 -6.03612 -2.35704 0
M  V30 333 N 31.0401 0.771051 -1.3745 0
M  V30 334 C 32.0031 1.86598 -1.33093 0
M  V30 335 C 33.0031 1.59076 -0.234845 0
M  V30 336 O 34.1931 1.67145 -0.490732 0
M  V30 337 C 31.3251 3.23747 -1.06773 0
M  V30 338 H 32.5181 1.91873 -2.30488 0
M  V30 339 H 30.0711 0.970876 -1.2249 0
M  V30 340 H 30.8061 3.24148 -0.099129 0
M  V30 341 H 30.5911 3.45115 -1.86112 0
M  V30 342 H 32.0811 4.03824 -1.06377 0
M  V30 343 N 32.5182 1.22032 0.997298 0
M  V30 344 C 33.7482 1.06686 1.76923 0
M  V30 345 C 34.1562 -0.385838 1.85224 0
M  V30 346 O 33.4992 -1.27929 1.31833 0
M  V30 347 C 33.5612 1.59802 3.22031 0
M  V30 348 C 33.2252 3.08362 3.37286 0
M  V30 349 C 34.2222 4.05835 3.24952 0
M  V30 350 C 31.9072 3.47727 3.6248 0
M  V30 351 C 33.9012 5.4066 3.37588 0
M  V30 352 C 31.5882 4.82701 3.74757 0
M  V30 353 C 32.5862 5.78977 3.62319 0
M  V30 354 O 32.2742 7.11502 3.74193 0
M  V30 355 H 32.0062 0.374767 0.562606 0
M  V30 356 H 34.5602 1.61991 1.26286 0
M  V30 357 H 32.7902 0.989003 3.73839 0
M  V30 358 H 34.4792 1.40184 3.80924 0
M  V30 359 H 35.2452 3.76766 3.05405 0
M  V30 360 H 31.1242 2.73317 3.7124 0
M  V30 361 H 34.6682 6.15788 3.27796 0
M  V30 362 H 30.5652 5.11453 3.9381 0
M  V30 363 H 31.3332 7.19019 3.91093 0
M  V30 364 N 33.9963 -1.19345 1.0293 0
M  V30 365 C 34.9463 -2.20472 0.58104 0
M  V30 366 C 35.9303 -1.56578 -0.370442 0
M  V30 367 O 37.1223 -1.75963 -0.191344 0
M  V30 368 C 34.2513 -3.43236 -0.066306 0
M  V30 369 C 33.3373 -4.14274 0.907642 0
M  V30 370 N 33.7283 -4.61492 2.07023 0
M  V30 371 C 32.0263 -4.39966 0.731177 0
M  V30 372 C 32.7273 -5.1605 2.68454 0
M  V30 373 N 31.7033 -5.06875 1.96414 0
M  V30 374 H 35.5053 -2.54659 1.46717 0
M  V30 375 H 33.0193 -1.35423 0.896345 0
M  V30 376 H 35.0163 -4.14927 -0.405068 0
M  V30 377 H 33.6763 -3.10549 -0.948118 0
M  V30 378 H 34.6873 -4.56304 2.44963 0
M  V30 379 H 31.3643 -4.17377 -0.101507 0
M  V30 380 H 32.7543 -5.6287 3.66915 0
M  V30 381 N 35.4744 -0.807222 -1.35358 0
M  V30 382 C 36.7224 -0.387122 -1.98358 0
M  V30 383 C 37.0434 1.04942 -1.64354 0
M  V30 384 O 36.3134 1.72615 -0.926339 0
M  V30 385 H 34.8934 -0.140154 -0.733734 0
M  V30 386 H 37.5554 -1.0332 -1.6526 0
M  V30 387 H 36.6514 -0.493352 -3.08176 0
M  V30 388 N 36.9525 1.47285 -0.560781 0
M  V30 389 C 38.2295 1.9558 0.0277798 0
M  V30 390 C 38.6095 1.5034 1.48192 0
M  V30 391 O 37.9575 0.743882 2.16052 0
M  V30 392 C 38.1675 3.48789 -0.121418 0
M  V30 393 C 39.5155 4.24594 0.0220912 0
M  V30 394 O 40.5395 3.56166 -0.0491439 0
M  V30 395 O 39.3985 5.46217 0.175958 0
M  V30 396 H 36.4925 0.824663 0.0621342 0
M  V30 397 H 39.0385 1.5767 -0.627556 0
M  V30 398 H 37.8105 3.74533 -1.13316 0
M  V30 399 H 37.4335 3.93473 0.571366 0
M  V30 400 N 38.4306 0.297415 1.54768 0
M  V30 401 C 39.6556 -0.318435 2.04941 0
M  V30 402 C 40.0806 -1.4701 1.17345 0
M  V30 403 O 39.4386 -1.80436 0.176758 0
M  V30 404 C 39.4866 -0.755749 3.52592 0
M  V30 405 O 38.5906 -1.86088 3.68028 0
M  V30 406 H 37.9316 -0.062421 0.661059 0
M  V30 407 H 40.4616 0.438215 1.99852 0
M  V30 408 H 40.4716 -1.04552 3.94376 0
M  V30 409 H 39.1466 0.0867233 4.1581 0
M  V30 410 H 37.7236 -1.57193 3.38149 0
M  V30 411 N 39.9087 -1.5758 0.0250728 0
M  V30 412 C 41.1547 -1.91917 -0.655413 0
M  V30 413 C 41.4877 -0.901433 -1.72011 0
M  V30 414 O 40.7627 0.0764069 -1.9435 0
M  V30 415 C 41.0457 -3.36751 -1.27558 0
M  V30 416 C 40.8987 -4.49258 -0.220719 0
M  V30 417 C 42.2177 -3.81469 -2.19475 0
M  V30 418 H 39.3367 -0.697925 -0.23679 0
M  V30 419 H 41.9787 -1.89825 0.0815036 0
M  V30 420 H 40.1287 -3.38664 -1.90365 0
M  V30 421 H 41.8007 -4.59478 0.409601 0
M  V30 422 H 40.0437 -4.31415 0.454264 0
M  V30 423 H 40.7147 -5.47618 -0.694175 0
M  V30 424 H 43.1907 -3.81266 -1.66659 0
M  V30 425 H 42.0667 -4.83512 -2.59822 0
M  V30 426 H 42.3277 -3.16744 -3.08424 0
M  V30 427 N 41.3868 0.248026 -1.55636 0
M  V30 428 C 42.3498 1.29044 -1.89421 0
M  V30 429 C 43.3498 1.41134 -0.770581 0
M  V30 430 O 44.5398 1.39854 -1.03858 0
M  V30 431 C 41.6718 2.66831 -2.12165 0
M  V30 432 H 42.8648 1.00305 -2.82629 0
M  V30 433 H 40.4178 0.487265 -1.48511 0
M  V30 434 H 41.1528 3.00711 -1.21422 0
M  V30 435 H 40.9378 2.59438 -2.93997 0
M  V30 436 H 42.4278 3.42103 -2.3949 0
M  V30 437 N 42.8649 1.48995 0.513639 0
M  V30 438 C 44.0899 1.61792 1.29762 0
M  V30 439 C 44.5149 0.284475 1.85936 0
M  V30 440 O 43.8729 -0.746185 1.65232 0
M  V30 441 C 43.9209 2.67993 2.41272 0
M  V30 442 O 43.0249 2.26287 3.44772 0
M  V30 443 H 42.3659 0.541963 0.38363 0
M  V30 444 H 44.8959 1.95097 0.616307 0
M  V30 445 H 44.9059 2.89772 2.87221 0
M  V30 446 H 43.5809 3.64791 1.9975 0
M  V30 447 H 42.1579 2.14788 3.04829 0
M  V30 448 N 44.343 -0.763751 1.37857 0
M  V30 449 C 45.273 -1.89103 1.36975 0
M  V30 450 C 46.254 -1.68439 0.237152 0
M  V30 451 O 47.439 -1.8918 0.438713 0
M  V30 452 C 44.569 -3.26496 1.18395 0
M  V30 453 C 43.523 -3.61741 2.28751 0
M  V30 454 C 42.849 -4.97762 1.95286 0
M  V30 455 C 44.149 -3.67665 3.70972 0
M  V30 456 H 45.843 -1.90099 2.31307 0
M  V30 457 H 43.389 -0.91319 1.11341 0
M  V30 458 H 45.342 -4.05003 1.16406 0
M  V30 459 H 44.066 -3.25955 0.205215 0
M  V30 460 H 42.725 -2.85547 2.29909 0
M  V30 461 H 42.373 -4.93769 0.959221 0
M  V30 462 H 42.073 -5.22313 2.69189 0
M  V30 463 H 43.597 -5.7866 1.94898 0
M  V30 464 H 45.011 -4.36307 3.719 0
M  V30 465 H 43.408 -4.03718 4.43995 0
M  V30 466 H 44.478 -2.68134 4.0402 0
M  V30 467 N 45.8211 -1.22559 -0.990812 0
M  V30 468 C 47.0691 -1.04933 -1.72724 0
M  V30 469 C 47.3901 0.416158 -1.90508 0
M  V30 470 O 46.6601 1.29918 -1.46622 0
M  V30 471 H 45.2401 -0.385296 -0.639965 0
M  V30 472 H 47.9021 -1.54105 -1.19322 0
M  V30 473 H 46.9981 -1.52886 -2.72089 0
M  V30 474 N 47.2992 1.18797 -1.03562 0
M  V30 475 C 48.5272 1.92599 -0.755869 0
M  V30 476 C 48.9422 1.75886 0.686271 0
M  V30 477 O 48.2992 1.08517 1.46732 0
M  V30 478 C 48.3502 3.44159 -1.10619 0
M  V30 479 O 48.0712 3.60341 -2.4917 0
M  V30 480 C 49.5722 4.3507 -0.850214 0
M  V30 481 H 46.7922 0.611587 -0.276048 0
M  V30 482 H 49.3362 1.50742 -1.38192 0
M  V30 483 H 47.4912 3.83823 -0.525194 0
M  V30 484 H 47.9052 4.54128 -2.62427 0
M  V30 485 H 49.3792 5.39989 -1.14523 0
M  V30 486 H 49.8562 4.38673 0.215176 0
M  V30 487 H 50.4622 4.01097 -1.41426 0
M  V30 488 N 48.7773 0.814389 1.34928 0
M  V30 489 C 49.7093 0.187834 2.28429 0
M  V30 490 C 50.7223 -0.617374 1.5064 0
M  V30 491 O 51.9113 -0.448454 1.72775 0
M  V30 492 C 49.0113 -0.755962 3.30361 0
M  V30 493 C 48.1843 0.00456686 4.374 0
M  V30 494 C 47.2433 -0.858876 5.19143 0
M  V30 495 O 46.2693 -0.306968 5.68372 0
M  V30 496 N 47.4713 -2.17988 5.38016 0
M  V30 497 H 50.2363 0.991105 2.82838 0
M  V30 498 H 47.7973 0.670561 1.4736 0
M  V30 499 H 49.7893 -1.338 3.81942 0
M  V30 500 H 48.3593 -1.46001 2.7641 0
M  V30 501 H 47.5793 0.767865 3.86649 0
M  V30 502 H 48.8673 0.528422 5.06049 0
M  V30 503 H 48.2653 -2.65212 4.99679 0
M  V30 504 H 46.8223 -2.71098 5.92747 0
M  V30 505 N 50.2554 -1.46986 0.568584 0
M  V30 506 C 51.6664 -1.86188 0.138219 0
M  V30 507 C 52.0174 -1.47388 -1.29504 0
M  V30 508 O 51.1424 -0.88219 -1.97602 0
M  V30 509 C 51.7374 -3.3792 0.244065 0
M  V30 510 C 50.2964 -3.76171 -0.131335 0
M  V30 511 C 49.4434 -2.71027 0.586465 0
M  V30 512 H 52.3944 -1.38342 0.777645 0
M  V30 513 H 52.4154 -3.76729 -0.534351 0
M  V30 514 H 51.9274 -3.66128 1.28731 0
M  V30 515 H 50.0284 -3.5358 -1.17526 0
M  V30 516 H 50.1414 -4.78523 0.235146 0
M  V30 517 H 48.5054 -2.54684 0.0282722 0
M  V30 518 H 49.2884 -3.02077 1.63109 0
M  V30 519 N 51.7335 -0.305618 -1.54608 0
M  V30 520 C 53.0105 0.355652 -1.92339 0
M  V30 521 C 53.3905 1.71324 -1.23335 0
M  V30 522 O 52.7385 2.25473 -0.370702 0
M  V30 523 C 52.9485 0.46572 -3.45879 0
M  V30 524 C 54.2965 0.734426 -4.182 0
M  V30 525 O 55.3205 0.54935 -3.51938 0
M  V30 526 O 54.1795 1.09024 -5.35515 0
M  V30 527 H 51.2735 0.199666 -0.802535 0
M  V30 528 H 53.8195 -0.354017 -1.65966 0
M  V30 529 H 52.5915 -0.488461 -3.88239 0
M  V30 530 H 52.2145 1.22367 -3.78301 0
M  V30 531 N 53.2116 1.57565 -0.0334293 0
M  V30 532 C 54.1416 2.13511 0.945265 0
M  V30 533 C 55.1226 1.05231 1.33643 0
M  V30 534 O 56.3076 1.33084 1.41429 0
M  V30 535 C 53.4376 2.6657 2.22616 0
M  V30 536 C 52.3916 3.79676 1.97561 0
M  V30 537 C 51.7176 4.1918 3.31952 0
M  V30 538 C 53.0176 5.0557 1.31135 0
M  V30 539 H 54.7116 2.95538 0.479325 0
M  V30 540 H 52.2576 1.42166 0.229115 0
M  V30 541 H 54.2106 3.04344 2.91466 0
M  V30 542 H 52.9346 1.8171 2.71384 0
M  V30 543 H 51.5936 3.42347 1.31127 0
M  V30 544 H 51.2416 3.31296 3.78487 0
M  V30 545 H 50.9416 4.95402 3.15992 0
M  V30 546 H 52.4656 4.59541 4.02063 0
M  V30 547 H 53.8796 5.40903 1.89992 0
M  V30 548 H 52.2766 5.86818 1.25559 0
M  V30 549 H 53.3466 4.84062 0.284894 0
M  V30 550 N 54.6897 -0.239769 1.55765 0
M  V30 551 C 55.9377 -0.964892 1.77579 0
M  V30 552 C 56.2587 -1.85582 0.598699 0
M  V30 553 O 55.5287 -1.92075 -0.385226 0
M  V30 554 H 54.1087 -0.359265 0.654933 0
M  V30 555 H 56.7707 -0.256001 1.93211 0
M  V30 556 H 55.8667 -1.58243 2.69009 0
M  V30 557 N 56.1678 -1.49265 -0.50573 0
M  V30 558 C 57.3928 -1.62478 -1.28902 0
M  V30 559 C 57.8178 -0.294332 -1.85783 0
M  V30 560 O 57.1758 0.737412 -1.65626 0
M  V30 561 C 57.2238 -2.69268 -2.39848 0
M  V30 562 O 56.3278 -2.28113 -3.43567 0
M  V30 563 H 55.6688 -0.54399 -0.380751 0
M  V30 564 H 58.1988 -1.95421 -0.605952 0
M  V30 565 H 58.2088 -2.91291 -2.85681 0
M  V30 566 H 56.8838 -3.65846 -1.97812 0
M  V30 567 H 55.4608 -2.16401 -3.03685 0
M  V30 568 N 57.6459 0.756429 -1.3826 0
M  V30 569 C 58.6089 1.85176 -1.35065 0
M  V30 570 C 59.6089 1.58818 -0.251703 0
M  V30 571 O 60.7989 1.66615 -0.508433 0
M  V30 572 C 57.9309 3.22596 -1.10201 0
M  V30 573 H 59.1239 1.89417 -2.3251 0
M  V30 574 H 56.6769 0.95783 -1.23512 0
M  V30 575 H 57.4119 3.24025 -0.133504 0
M  V30 576 H 57.1969 3.43122 -1.89762 0
M  V30 577 H 58.6869 4.02673 -1.10654 0
M  V30 578 N 59.124 1.23083 0.984299 0
M  V30 579 C 60.054 1.03292 2.09411 0
M  V30 580 C 61.035 -0.048923 1.7003 0
M  V30 581 O 62.22 0.114967 1.93859 0
M  V30 582 C 59.35 0.619155 3.41736 0
M  V30 583 C 58.304 1.64791 3.95004 0
M  V30 584 C 57.63 1.0897 5.23478 0
M  V30 585 C 58.93 3.03999 4.24714 0
M  V30 586 H 60.624 1.96119 2.26225 0
M  V30 587 H 58.17 0.944344 1.08711 0
M  V30 588 H 60.123 0.467777 4.18796 0
M  V30 589 H 58.847 -0.344786 3.24775 0
M  V30 590 H 57.506 1.78721 3.20085 0
M  V30 591 H 57.154 0.11686 5.02864 0
M  V30 592 H 56.854 1.77704 5.60085 0
M  V30 593 H 58.378 0.950093 6.03163 0
M  V30 594 H 59.792 2.93393 4.92538 0
M  V30 595 H 58.189 3.69936 4.72512 0
M  V30 596 H 59.259 3.53285 3.32142 0
M  V30 597 N 60.6021 -1.18246 1.0419 0
M  V30 598 C 61.8321 -1.91916 0.764961 0
M  V30 599 C 62.2401 -1.76485 -0.681898 0
M  V30 600 O 61.5831 -1.09275 -1.47664 0
M  V30 601 C 61.6451 -3.4373 1.05309 0
M  V30 602 C 61.3091 -3.8294 2.4941 0
M  V30 603 C 62.3061 -3.86621 3.47592 0
M  V30 604 C 59.9911 -4.142 2.84155 0
M  V30 605 C 61.9851 -4.21013 4.78568 0
M  V30 606 C 59.6721 -4.48262 4.15337 0
M  V30 607 C 60.6701 -4.51645 5.12353 0
M  V30 608 O 60.3581 -4.84911 6.41183 0
M  V30 609 H 60.0901 -0.61606 0.278292 0
M  V30 610 H 62.6441 -1.50947 1.39299 0
M  V30 611 H 60.8741 -3.84946 0.367933 0
M  V30 612 H 62.5631 -3.9865 0.763752 0
M  V30 613 H 63.3291 -3.62607 3.22089 0
M  V30 614 H 59.2081 -4.10743 2.09311 0
M  V30 615 H 62.7521 -4.23568 5.54289 0
M  V30 616 H 58.6491 -4.71737 4.40607 0
M  V30 617 H 59.4171 -5.02809 6.45852 0
M  V30 618 N 62.0802 -0.821533 -1.34494 0
M  V30 619 C 63.0122 -0.199946 -2.28326 0
M  V30 620 C 64.0252 0.609377 -1.50965 0
M  V30 621 O 65.2142 0.439285 -1.7301 0
M  V30 622 C 62.3142 0.738431 -3.30757 0
M  V30 623 C 61.4872 -0.0277632 -4.37391 0
M  V30 624 C 60.5462 0.831332 -5.19591 0
M  V30 625 O 59.5722 0.276822 -5.68526 0
M  V30 626 N 60.7742 2.15132 -5.39165 0
M  V30 627 H 63.5392 -1.00609 -2.82308 0
M  V30 628 H 61.1002 -0.678366 -1.47003 0
M  V30 629 H 63.0922 1.31773 -3.82646 0
M  V30 630 H 61.6622 1.44533 -2.7718 0
M  V30 631 H 60.8822 -0.788359 -3.86236 0
M  V30 632 H 62.1702 -0.555251 -5.05761 0
M  V30 633 H 61.5682 2.62559 -5.01078 0
M  V30 634 H 60.1252 2.6795 -5.94177 0
M  V30 635 N 63.5583 1.46682 -0.576371 0
M  V30 636 C 64.4683 2.34032 0.163141 0
M  V30 637 C 65.4843 1.49367 0.892501 0
M  V30 638 O 66.6603 1.82252 0.857106 0
M  V30 639 C 63.7253 3.26435 1.16795 0
M  V30 640 C 62.7863 4.26998 0.443944 0
M  V30 641 C 62.0193 5.14986 1.40088 0
M  V30 642 O 62.2423 5.05785 2.637 0
M  V30 643 O 61.1763 5.94906 0.914917 0
M  V30 644 H 65.0023 2.98607 -0.55388 0
M  V30 645 H 62.5873 1.45554 -0.336821 0
M  V30 646 H 64.4693 3.83459 1.74748 0
M  V30 647 H 63.1443 2.64465 1.86655 0
M  V30 648 H 62.0513 3.7368 -0.177271 0
M  V30 649 H 63.3843 4.91736 -0.213566 0
M  V30 650 N 65.0364 0.313813 1.54444 0
M  V30 651 C 65.9844 -0.572171 2.25453 0
M  V30 652 C 66.9784 -1.12657 1.2651 0
M  V30 653 O 68.1844 -1.07573 1.44319 0
M  V30 654 H 64.5594 -0.203146 0.724041 0
M  V30 655 H 66.5304 0.0491145 2.9836 0
M  V30 656 C 65.2794 -1.72626 3.0182 0
M  V30 657 H 64.6024 -1.30891 3.77767 0
M  V30 658 H 66.0424 -2.32199 3.54767 0
M  V30 659 C 64.5014 -2.63806 2.09542 0
M  V30 660 O 65.0314 -3.65256 1.67185 0
M  V30 661 N 63.2374 -2.31824 1.75232 0
M  V30 662 H 62.7844 -1.49368 2.09873 0
M  V30 663 H 62.7424 -2.93095 1.13767 0
M  V30 664 N 66.5145 -1.57545 0.0417849 0
M  V30 665 C 67.7445 -1.96339 -0.642995 0
M  V30 666 C 68.1525 -0.917536 -1.65463 0
M  V30 667 O 67.4955 0.107747 -1.83384 0
M  V30 668 C 67.5575 -3.31333 -1.39494 0
M  V30 669 C 67.2215 -4.53796 -0.540204 0
M  V30 670 C 68.2185 -5.19553 0.189806 0
M  V30 671 C 65.9035 -5.0006 -0.473886 0
M  V30 672 C 67.8975 -6.29904 0.974674 0
M  V30 673 C 65.5845 -6.10289 0.314677 0
M  V30 674 C 66.5825 -6.75072 1.03765 0
M  V30 675 O 66.2705 -7.83183 1.81327 0
M  V30 676 H 66.0025 -0.651241 -0.181277 0
M  V30 677 H 68.5565 -2.05148 0.101665 0
M  V30 678 H 66.7865 -3.19052 -2.18502 0
M  V30 679 H 68.4755 -3.54942 -1.96904 0
M  V30 680 H 69.2415 -4.84774 0.147981 0
M  V30 681 H 65.1205 -4.49433 -1.0262 0
M  V30 682 H 68.6645 -6.80401 1.5395 0
M  V30 683 H 64.5615 -6.44506 0.358174 0
M  V30 684 H 65.3295 -7.99913 1.73438 0
M  V30 685 N 67.9926 0.231505 -1.5589 0
M  V30 686 C 68.9396 1.28682 -1.91598 0
M  V30 687 C 69.9096 1.47071 -0.771974 0
M  V30 688 O 71.0946 1.60802 -1.027 0
M  V30 689 C 68.2346 2.6342 -2.22944 0
M  V30 690 C 67.3476 2.52912 -3.50228 0
M  V30 691 C 66.4826 3.80106 -3.7107 0
M  V30 692 C 65.5216 3.64279 -4.91902 0
M  V30 693 N 64.6586 4.834 -5.09184 0
M  V30 694 H 69.4986 0.975305 -2.81588 0
M  V30 695 H 67.0356 0.470299 -1.39379 0
M  V30 696 H 68.9936 3.41869 -2.39126 0
M  V30 697 H 67.6236 2.92687 -1.36139 0
M  V30 698 H 66.6756 1.6595 -3.42294 0
M  V30 699 H 67.9876 2.37133 -4.38827 0
M  V30 700 H 67.1416 4.66999 -3.87295 0
M  V30 701 H 65.8806 3.98799 -2.80733 0
M  V30 702 H 64.8856 2.7577 -4.75637 0
M  V30 703 H 66.1106 3.47067 -5.83714 0
M  V30 704 H 64.0566 5.02425 -4.21788 0
M  V30 705 H 63.9736 4.70311 -5.91898 0
M  V30 706 H 65.2416 5.71747 -5.29835 0
M  V30 707 N 69.4707 1.49531 0.497807 0
M  V30 708 C 70.4027 1.62559 1.61578 0
M  V30 709 C 71.4157 0.508134 1.54667 0
M  V30 710 O 72.6047 0.780309 1.60541 0
M  V30 711 C 69.7047 1.56925 3.00379 0
M  V30 712 C 68.8777 2.84257 3.3244 0
M  V30 713 C 67.9367 2.71632 4.50669 0
M  V30 714 O 66.9627 3.4557 4.52294 0
M  V30 715 N 68.1647 1.83391 5.5077 0
M  V30 716 H 70.9297 2.58981 1.50828 0
M  V30 717 H 68.4907 1.4666 0.685743 0
M  V30 718 H 70.4827 1.46129 3.77397 0
M  V30 719 H 69.0527 0.683483 3.05037 0
M  V30 720 H 68.2727 3.09381 2.44289 0
M  V30 721 H 69.5607 3.68666 3.5066 0
M  V30 722 H 68.9587 1.22583 5.52259 0
M  V30 723 H 67.5157 1.78515 6.26878 0
M  V30 724 N 70.9488 -0.749086 1.3866 0
M  V30 725 C 71.8818 -1.87111 1.30631 0
M  V30 726 C 72.8598 -1.61572 0.18251 0
M  V30 727 O 74.0438 -1.85019 0.360592 0
M  V30 728 C 71.1708 -3.22815 1.02511 0
M  V30 729 C 70.2168 -3.67234 2.1689 0
M  V30 730 S 71.0498 -3.78245 3.79066 0
M  V30 731 C 72.2058 -5.16761 3.53142 0
M  V30 732 H 72.4388 -1.93636 2.25594 0
M  V30 733 H 69.9718 -0.912525 1.24549 0
M  V30 734 H 71.9298 -4.01181 0.869701 0
M  V30 735 H 70.5908 -3.13964 0.0925884 0
M  V30 736 H 69.7838 -4.65677 1.92771 0
M  V30 737 H 69.3858 -2.96034 2.28561 0
M  V30 738 H 71.6778 -6.02656 3.09534 0
M  V30 739 H 72.6208 -5.45902 4.50995 0
M  V30 740 H 73.0288 -4.85771 2.87554 0
M  V30 741 N 72.4269 -1.23603 -0.977757 0
M  V30 742 C 73.3739 -1.01954 -2.07061 0
M  V30 743 C 74.3439 0.0638697 -1.65977 0
M  V30 744 O 75.5289 -0.0887624 -1.90593 0
M  V30 745 C 72.6689 -0.619658 -3.39491 0
M  V30 746 C 71.7819 -1.77547 -3.93829 0
M  V30 747 C 70.9169 -1.32212 -5.14484 0
M  V30 748 C 69.9559 -2.44852 -5.60994 0
M  V30 749 N 69.0929 -2.00456 -6.72876 0
M  V30 750 H 73.9329 -1.95495 -2.24913 0
M  V30 751 H 71.4699 -0.973861 -1.10247 0
M  V30 752 H 73.4279 -0.368898 -4.15566 0
M  V30 753 H 72.0579 0.278752 -3.21594 0
M  V30 754 H 71.1099 -2.14016 -3.14486 0
M  V30 755 H 72.4219 -2.62219 -4.24314 0
M  V30 756 H 71.5759 -1.02965 -5.97899 0
M  V30 757 H 70.3149 -0.445808 -4.85658 0
M  V30 758 H 69.3199 -2.74871 -4.76157 0
M  V30 759 H 70.5449 -3.33024 -5.91837 0
M  V30 760 H 68.4909 -1.15208 -6.45804 0
M  V30 761 H 68.4079 -2.78687 -7.02759 0
M  V30 762 H 69.6759 -1.7432 -7.59758 0
M  V30 763 N 73.905 1.17692 -1.04816 0
M  V30 764 C 74.868 2.19787 -0.650117 0
M  V30 765 C 75.868 1.58044 0.296427 0
M  V30 766 O 77.058 1.74012 0.0808097 0
M  V30 767 C 74.19 3.40869 0.0456987 0
M  V30 768 H 75.383 2.56516 -1.5537 0
M  V30 769 H 72.936 1.31708 -0.841594 0
M  V30 770 H 73.671 3.09681 0.962726 0
M  V30 771 H 73.456 3.86928 -0.634727 0
M  V30 772 H 74.946 4.16445 0.310432 0
M  V30 773 N 75.3831 0.828654 1.34056 0
M  V30 774 C 76.3131 0.269443 2.3194 0
M  V30 775 C 77.2941 -0.617247 1.58506 0
M  V30 776 O 78.4791 -0.542931 1.86456 0
M  V30 777 C 75.6091 -0.564793 3.42677 0
M  V30 778 C 74.5631 0.225241 4.27407 0
M  V30 779 C 73.8891 -0.7321 5.29664 0
M  V30 780 C 75.1891 1.43663 5.02154 0
M  V30 781 H 76.8831 1.08728 2.7896 0
M  V30 782 H 74.4291 0.524283 1.34117 0
M  V30 783 H 76.3821 -0.966233 4.10173 0
M  V30 784 H 75.1061 -1.41574 2.9432 0
M  V30 785 H 73.7651 0.608117 3.61521 0
M  V30 786 H 73.4131 -1.57916 4.77568 0
M  V30 787 H 73.1131 -0.20767 5.87233 0
M  V30 788 H 74.6371 -1.13128 6.00029 0
M  V30 789 H 76.0511 1.1089 5.62473 0
M  V30 790 H 74.4481 1.89711 5.69324 0
M  V30 791 H 75.5181 2.21181 4.31517 0
M  V30 792 N 76.8612 -1.46375 0.584142 0
M  V30 793 C 78.1072 -2.02678 0.0703716 0
M  V30 794 C 78.4402 -1.4545 -1.28678 0
M  V30 795 O 77.7152 -0.62014 -1.84349 0
M  V30 796 C 77.9982 -3.60099 0.00614674 0
M  V30 797 C 77.8512 -4.27709 1.3923 0
M  V30 798 C 79.1702 -4.34598 -0.693742 0
M  V30 799 H 76.2892 -0.736504 0.027047 0
M  V30 800 H 78.9312 -1.74501 0.751615 0
M  V30 801 H 77.0812 -3.84236 -0.574009 0
M  V30 802 H 78.7532 -4.14832 2.01773 0
M  V30 803 H 76.9962 -3.87016 1.95962 0
M  V30 804 H 77.6672 -5.36478 1.29982 0
M  V30 805 H 80.1432 -4.15615 -0.200869 0
M  V30 806 H 79.0192 -5.44318 -0.707714 0
M  V30 807 H 79.2802 -4.05759 -1.75533 0
M  V30 808 N 78.3393 -0.321999 -1.54275 0
M  V30 809 C 79.2873 0.560206 -2.25753 0
M  V30 810 C 80.2813 1.11984 -1.27106 0
M  V30 811 O 81.4873 1.06806 -1.44888 0
M  V30 812 H 77.8623 0.199304 -0.725108 0
M  V30 813 H 79.8333 -0.0649365 -2.98329 0
M  V30 814 C 78.5823 1.71023 -3.02731 0
M  V30 815 H 77.9053 1.28885 -3.78456 0
M  V30 816 H 79.3453 2.30314 -3.55993 0
M  V30 817 C 77.8043 2.62692 -2.10938 0
M  V30 818 O 78.3343 3.64364 -1.6912 0
M  V30 819 N 76.5403 2.30891 -1.76459 0
M  V30 820 H 76.0873 1.48253 -2.10663 0
M  V30 821 H 76.0453 2.92487 -1.1532 0
M  V30 822 N 79.8174 1.5752 -0.0501392 0
M  V30 823 C 80.7494 2.08413 0.95376 0
M  V30 824 C 81.7624 1.01175 1.27544 0
M  V30 825 O 82.9514 1.28744 1.23641 0
M  V30 826 C 80.0514 2.51138 2.27559 0
M  V30 827 C 79.2244 3.817 2.13598 0
M  V30 828 C 78.2834 4.10749 3.28895 0
M  V30 829 O 77.3094 4.80685 3.04845 0
M  V30 830 N 78.5114 3.62579 4.5334 0
M  V30 831 H 81.2764 2.95165 0.519383 0
M  V30 832 H 78.8374 1.61327 0.136127 0
M  V30 833 H 80.8294 2.67648 3.03557 0
M  V30 834 H 79.3994 1.6964 2.62567 0
M  V30 835 H 78.6194 3.74782 1.22197 0
M  V30 836 H 79.9074 4.67201 2.01496 0
M  V30 837 H 79.3054 3.06039 4.75769 0
M  V30 838 H 77.8624 3.84329 5.26436 0
M  V30 839 N 81.2955 -0.223234 1.56011 0
M  V30 840 C 82.2255 -1.27988 1.95298 0
M  V30 841 C 83.2065 -1.48976 0.820979 0
M  V30 842 O 84.3915 -1.61188 1.08315 0
M  V30 843 C 81.5215 -2.63 2.26822 0
M  V30 844 C 80.4755 -2.56671 3.42497 0
M  V30 845 C 79.8015 -3.95697 3.59622 0
M  V30 846 C 81.1015 -2.11601 4.77517 0
M  V30 847 H 82.7955 -0.953525 2.8381 0
M  V30 848 H 80.3415 -0.457244 1.36548 0
M  V30 849 H 82.2945 -3.37077 2.52898 0
M  V30 850 H 81.0185 -2.9732 1.35161 0
M  V30 851 H 79.6775 -1.85051 3.16467 0
M  V30 852 H 79.3255 -4.27322 2.6534 0
M  V30 853 H 79.0255 -3.92345 4.37424 0
M  V30 854 H 80.5495 -4.71438 3.88044 0
M  V30 855 H 81.9635 -2.7542 5.02809 0
M  V30 856 H 80.3605 -2.19311 5.5859 0
M  V30 857 H 81.4305 -1.06824 4.72987 0
M  V30 858 N 82.7736 -1.49793 -0.48987 0
M  V30 859 C 83.7236 -1.63673 -1.5873 0
M  V30 860 C 84.7076 -0.491956 -1.53195 0
M  V30 861 O 85.8996 -0.745461 -1.60536 0
M  V30 862 C 83.0286 -1.71689 -2.97284 0
M  V30 863 C 82.1146 -2.91781 -3.07774 0
M  V30 864 N 82.5056 -4.15714 -2.88124 0
M  V30 865 C 80.8036 -2.89949 -3.38889 0
M  V30 866 C 81.5046 -4.965 -3.03088 0
M  V30 867 N 80.4806 -4.30083 -3.3246 0
M  V30 868 H 84.2826 -2.57204 -1.42208 0
M  V30 869 H 81.7966 -1.46719 -0.69623 0
M  V30 870 H 83.7936 -1.79732 -3.76168 0
M  V30 871 H 82.4536 -0.793024 -3.14867 0
M  V30 872 H 83.4646 -4.45515 -2.64077 0
M  V30 873 H 80.1416 -2.06987 -3.62578 0
M  V30 874 H 81.5316 -6.04991 -2.92294 0
M  V30 875 N 84.2517 0.741722 -1.39055 0
M  V30 876 C 85.1617 1.88621 -1.39496 0
M  V30 877 C 86.1777 1.71557 -0.290578 0
M  V30 878 O 87.3537 1.94275 -0.530954 0
M  V30 879 C 84.4187 3.24134 -1.23037 0
M  V30 880 C 83.4797 3.5364 -2.43387 0
M  V30 881 C 82.7127 4.82687 -2.27703 0
M  V30 882 O 82.9357 5.55922 -1.27696 0
M  V30 883 O 81.8697 5.1194 -3.16545 0
M  V30 884 H 85.6957 1.91203 -2.35956 0
M  V30 885 H 83.2807 0.888625 -1.20099 0
M  V30 886 H 85.1627 4.0513 -1.15964 0
M  V30 887 H 83.8377 3.22337 -0.296691 0
M  V30 888 H 82.7447 2.72758 -2.56035 0
M  V30 889 H 84.0777 3.60209 -3.35425 0
M  V30 890 N 85.7298 1.2412 0.971189 0
M  V30 891 C 87.1458 1.00584 1.23916 0
M  V30 892 C 87.3458 -0.287481 1.99439 0
M  V30 893 O 86.4018 -1.00454 2.31658 0
M  V30 894 C 87.7148 2.21864 2.0297 0
M  V30 895 C 89.2628 2.26452 2.16076 0
M  V30 896 C 89.7378 3.47343 2.98524 0
M  V30 897 N 91.2288 3.47639 3.06107 0
M  V30 898 C 91.9638 4.37837 3.70251 0
M  V30 899 N 91.4598 5.38286 4.36142 0
M  V30 900 N 93.2528 4.25558 3.67228 0
M  V30 901 H 85.4038 2.07236 0.465499 0
M  V30 902 H 87.6668 0.909236 0.268315 0
M  V30 903 H 87.3728 3.15771 1.54861 0
M  V30 904 H 87.2468 2.23698 3.03709 0
M  V30 905 H 89.6338 1.33078 2.6339 0
M  V30 906 H 89.7148 2.28645 1.14696 0
M  V30 907 H 89.3588 4.41029 2.51905 0
M  V30 908 H 89.2888 3.42393 4.00093 0
M  V30 909 H 91.7798 2.74966 2.59233 0
M  V30 910 H 92.0928 6.03352 4.82894 0
M  V30 911 H 90.4378 5.42176 4.34822 0
M  V30 912 H 93.6288 3.46322 3.14927 0
M  V30 913 H 93.8018 4.96054 4.16935 0
M  V30 914 N 87.2079 -1.17134 1.05439 0
M  V30 915 C 88.4539 -1.87733 0.767077 0
M  V30 916 C 88.7869 -1.8098 -0.704253 0
M  V30 917 O 88.0619 -1.21951 -1.5152 0
M  V30 918 C 88.3449 -3.37659 1.25133 0
M  V30 919 C 88.1979 -3.53149 2.78578 0
M  V30 920 C 89.5169 -4.31768 0.852324 0
M  V30 921 H 86.6359 -0.681687 0.280129 0
M  V30 922 H 89.2779 -1.37732 1.30881 0
M  V30 923 H 87.4279 -3.80373 0.790469 0
M  V30 924 H 89.0999 -3.19434 3.32806 0
M  V30 925 H 87.3429 -2.95345 3.17732 0
M  V30 926 H 88.0139 -4.58403 3.07523 0
M  V30 927 H 90.4899 -3.96909 1.24911 0
M  V30 928 H 89.3659 -5.35199 1.21873 0
M  V30 929 H 89.6269 -4.41429 -0.243485 0
M  V30 930 N 88.686 -0.835752 -1.33615 0
M  V30 931 C 89.596 -0.269088 -2.33052 0
M  V30 932 C 90.612 0.603251 -1.63208 0
M  V30 933 O 91.788 0.508112 -1.94885 0
M  V30 934 C 88.853 0.549091 -3.42324 0
M  V30 935 C 87.914 -0.347156 -4.27894 0
M  V30 936 C 87.147 0.43207 -5.31948 0
M  V30 937 O 87.37 1.66409 -5.45586 0
M  V30 938 O 86.304 -0.192298 -6.01593 0
M  V30 939 H 90.13 -1.09243 -2.83372 0
M  V30 940 H 87.715 -0.598198 -1.36901 0
M  V30 941 H 89.597 1.01414 -4.09015 0
M  V30 942 H 88.272 1.34955 -2.94226 0
M  V30 943 H 87.179 -0.859979 -3.64081 0
M  V30 944 H 88.512 -1.1123 -4.79467 0
M  V30 945 N 90.1641 1.46063 -0.591896 0
M  V30 946 C 91.1141 2.27458 0.157172 0
M  V30 947 C 92.0981 1.3641 0.853301 0
M  V30 948 O 93.2901 1.60517 0.74588 0
M  V30 949 C 90.4191 3.22956 1.16423 0
M  V30 950 C 89.5051 4.2149 0.469742 0
M  V30 951 N 89.8961 5.03519 -0.479839 0
M  V30 952 C 88.1941 4.40161 0.719319 0
M  V30 953 C 88.8951 5.74904 -0.886591 0
M  V30 954 N 87.8711 5.43097 -0.233731 0
M  V30 955 H 91.6731 2.88272 -0.572392 0
M  V30 956 H 89.1871 1.57024 -0.414375 0
M  V30 957 H 91.1841 3.79986 1.71513 0
M  V30 958 H 89.8441 2.63701 1.89451 0
M  V30 959 H 90.8551 5.1078 -0.855823 0
M  V30 960 H 87.5321 3.92046 1.43548 0
M  V30 961 H 88.9221 6.50844 -1.66888 0
M  V30 962 N 91.6422 0.330177 1.54103 0
M  V30 963 C 92.8912 -0.271336 1.99867 0
M  V30 964 C 93.2042 -1.52723 1.22209 0
M  V30 965 O 94.4102 -2.20515 1.58383 0
M  V30 966 C 92.8662 -0.534032 3.55916 0
M  V30 967 C 92.4742 0.705193 4.42415 0
M  V30 968 C 94.2182 -1.09514 4.1013 0
M  V30 969 C 92.1252 0.414035 5.89949 0
M  V30 970 H 91.0552 -0.105166 0.74663 0
M  V30 971 H 93.7062 0.443429 1.78062 0
M  V30 972 H 92.0882 -1.30915 3.73734 0
M  V30 973 H 93.2622 1.4804 4.36372 0
M  V30 974 H 91.5772 1.18698 3.99124 0
M  V30 975 H 94.1742 -1.3277 5.17954 0
M  V30 976 H 94.5172 -2.04656 3.62521 0
M  V30 977 H 95.0502 -0.381038 3.95971 0
M  V30 978 H 91.7892 1.33481 6.41766 0
M  V30 979 H 91.3092 -0.323336 5.98928 0
M  V30 980 H 92.9882 0.0263105 6.46995 0
M  V30 981 N 93.1203 -1.57491 0.0584922 0
M  V30 982 C 94.0673 -2.11958 -0.913376 0
M  V30 983 C 95.0373 -1.02875 -1.30407 0
M  V30 984 O 96.2223 -1.30464 -1.39226 0
M  V30 985 C 93.3623 -2.67497 -2.18035 0
M  V30 986 C 92.4753 -3.90691 -1.84349 0
M  V30 987 C 91.6103 -4.3452 -3.05559 0
M  V30 988 C 90.6493 -5.50395 -2.67827 0
M  V30 989 N 89.7863 -5.89244 -3.81754 0
M  V30 990 H 94.6263 -2.94704 -0.442017 0
M  V30 991 H 92.1633 -1.45643 -0.206545 0
M  V30 992 H 94.1213 -2.978 -2.92183 0
M  V30 993 H 92.7513 -1.87537 -2.62735 0
M  V30 994 H 91.8033 -3.66934 -1.00319 0
M  V30 995 H 93.1153 -4.7489 -1.5258 0
M  V30 996 H 92.2693 -4.66414 -3.87998 0
M  V30 997 H 91.0083 -3.49147 -3.40511 0
M  V30 998 H 90.0133 -5.18165 -1.83806 0
M  V30 999 H 91.2383 -6.3749 -2.34059 0
M  V30 1000 H 89.1843 -5.06823 -4.16493 0
M  V30 1001 H 89.1013 -6.68151 -3.53708 0
M  V30 1002 H 90.3693 -6.25756 -4.64811 0
M  V30 1003 N 94.5984 0.214957 -1.56127 0
M  V30 1004 C 95.5284 1.2695 -1.95974 0
M  V30 1005 C 96.5094 1.48539 -0.828868 0
M  V30 1006 O 97.6944 1.60611 -1.09168 0
M  V30 1007 C 94.8244 2.61794 -2.28214 0
M  V30 1008 C 93.7784 2.54851 -3.43853 0
M  V30 1009 C 93.1044 3.93785 -3.61715 0
M  V30 1010 C 94.4044 2.09065 -4.78632 0
M  V30 1011 H 96.0984 0.93846 -2.84312 0
M  V30 1012 H 93.6444 0.449996 -1.36788 0
M  V30 1013 H 95.5974 3.35731 -2.54682 0
M  V30 1014 H 94.3214 2.96599 -1.36736 0
M  V30 1015 H 92.9804 1.8337 -3.17444 0
M  V30 1016 H 92.6284 4.25908 -2.67602 0
M  V30 1017 H 92.3284 3.90019 -4.39498 0
M  V30 1018 H 93.8524 4.69374 -3.90539 0
M  V30 1019 H 95.2664 2.7275 -5.04262 0
M  V30 1020 H 93.6634 2.16346 -5.59745 0
M  V30 1021 H 94.7334 1.04315 -4.73547 0
M  V30 1022 N 96.0765 1.50051 0.48192 0
M  V30 1023 C 97.3245 1.60181 1.23234 0
M  V30 1024 C 97.6455 0.299176 1.92691 0
M  V30 1025 O 96.9155 -0.682708 1.83619 0
M  V30 1026 H 95.4955 0.590232 0.457859 0
M  V30 1027 H 98.1575 1.86775 0.556881 0
M  V30 1028 H 97.2535 2.40753 1.98607 0
M  V30 1029 N 97.5546 -0.734337 1.39446 0
M  V30 1030 C 98.8026 -1.49096 1.36436 0
M  V30 1031 C 99.1236 -1.94961 -0.0388255 0
M  V30 1032 O 98.3936 -1.69033 -0.990191 0
M  V30 1033 H 96.9736 -0.5531 0.502085 0
M  V30 1034 H 99.6356 -0.871725 1.74319 0
M  V30 1035 H 98.7316 -2.37276 2.02747 0
M  V30 1036 N 99.0327 -1.24633 -0.964593 0
M  V30 1037 C 100.281 -1.08573 -1.70459 0
M  V30 1038 C 100.602 0.375655 -1.91347 0
M  V30 1039 O 99.8717 1.26779 -1.49345 0
M  V30 1040 H 98.4517 -0.398784 -0.631649 0
M  V30 1041 H 101.114 -1.56601 -1.16026 0
M  V30 1042 H 100.21 -1.58623 -2.68785 0
M  V30 1043 N 100.511 1.16574 -1.06058 0
M  V30 1044 C 101.421 2.2452 -0.680282 0
M  V30 1045 C 102.437 1.71348 0.302604 0
M  V30 1046 O 103.613 2.00822 0.152513 0
M  V30 1047 C 100.678 3.46629 -0.0700315 0
M  V30 1048 C 99.7388 4.14849 -1.10448 0
M  V30 1049 C 98.9718 5.31129 -0.523256 0
M  V30 1050 O 99.1948 5.66514 0.664709 0
M  V30 1051 O 98.1288 5.88526 -1.26179 0
M  V30 1052 H 101.955 2.59355 -1.58015 0
M  V30 1053 H 99.5398 1.24043 -0.832694 0
M  V30 1054 H 101.422 4.20543 0.268667 0
M  V30 1055 H 100.097 3.13573 0.803353 0
M  V30 1056 H 99.0038 3.42916 -1.49532 0
M  V30 1057 H 100.337 4.51954 -1.94931 0
M  V30 1058 N 101.989 0.842826 1.3317 0
M  V30 1059 C 102.936 0.276885 2.29133 0
M  V30 1060 C 103.906 -0.609527 1.54512 0
M  V30 1061 O 105.091 -0.546955 1.82792 0
M  V30 1062 C 102.231 -0.538707 3.40869 0
M  V30 1063 C 101.344 0.372169 4.30394 0
M  V30 1064 C 100.479 -0.454908 5.29249 0
M  V30 1065 C 99.5179 0.45411 6.10413 0
M  V30 1066 N 98.6549 -0.335075 7.013 0
M  V30 1067 H 103.495 1.10052 2.76934 0
M  V30 1068 H 101.032 0.554161 1.36262 0
M  V30 1069 H 102.99 -1.02709 4.0436 0
M  V30 1070 H 101.62 -1.32727 2.9425 0
M  V30 1071 H 100.672 0.97888 3.6759 0
M  V30 1072 H 101.984 1.0703 4.87182 0
M  V30 1073 H 101.138 -1.00695 5.98285 0
M  V30 1074 H 99.8769 -1.18646 4.73048 0
M  V30 1075 H 98.8819 1.01813 5.40291 0
M  V30 1076 H 100.107 1.18409 6.68697 0
M  V30 1077 H 98.0529 -1.04994 6.47543 0
M  V30 1078 H 97.9699 0.304262 7.55387 0
M  V30 1079 H 99.2379 -0.869224 7.74638 0
M  V30 1080 N 103.467 -1.45747 0.599634 0
M  V30 1081 C 104.43 -2.28917 -0.113835 0
M  V30 1082 C 105.43 -1.3933 -0.802729 0
M  V30 1083 O 106.62 -1.61534 -0.652103 0
M  V30 1084 C 103.752 -3.20152 -1.17114 0
M  V30 1085 H 104.945 -2.93478 0.617289 0
M  V30 1086 H 102.498 -1.52137 0.358327 0
M  V30 1087 H 103.233 -2.60374 -1.93329 0
M  V30 1088 H 103.018 -3.86133 -0.681468 0
M  V30 1089 H 104.508 -3.82708 -1.67105 0
M  V30 1090 N 104.945 -0.338344 -1.53925 0
M  V30 1091 C 106.361 0.0137736 -1.59594 0
M  V30 1092 C 106.561 1.49186 -1.35447 0
M  V30 1093 O 105.617 2.24987 -1.14616 0
M  V30 1094 C 106.93 -0.41773 -2.97784 0
M  V30 1095 C 108.478 -0.369633 -3.1081 0
M  V30 1096 C 108.953 -0.776524 -4.51369 0
M  V30 1097 N 110.444 -0.730506 -4.57403 0
M  V30 1098 C 111.179 -1.01736 -5.64303 0
M  V30 1099 N 110.675 -1.3721 -6.79077 0
M  V30 1100 N 112.468 -0.941942 -5.54151 0
M  V30 1101 H 104.619 -1.3012 -1.67876 0
M  V30 1102 H 106.882 -0.530082 -0.78595 0
M  V30 1103 H 106.588 -1.44811 -3.20504 0
M  V30 1104 H 106.462 0.209729 -3.76616 0
M  V30 1105 H 108.849 0.651568 -2.87817 0
M  V30 1106 H 108.93 -1.03223 -2.34049 0
M  V30 1107 H 108.574 -1.79571 -4.75096 0
M  V30 1108 H 108.504 -0.0914649 -5.26521 0
M  V30 1109 H 110.995 -0.468783 -3.74981 0
M  V30 1110 H 111.308 -1.57597 -7.5656 0
M  V30 1111 H 109.653 -1.4105 -6.80536 0
M  V30 1112 H 112.844 -0.664184 -4.63364 0
M  V30 1113 H 113.017 -1.16884 -6.37371 0
M  V30 1114 N 106.423 1.57458 -0.0668435 0
M  V30 1115 C 107.386 2.11323 0.887422 0
M  V30 1116 C 108.386 1.03618 1.22964 0
M  V30 1117 O 109.576 1.29626 1.16373 0
M  V30 1118 C 106.708 2.61048 2.19242 0
M  V30 1119 H 107.901 2.96942 0.420194 0
M  V30 1120 H 105.454 1.55239 0.181793 0
M  V30 1121 H 106.189 1.78868 2.70512 0
M  V30 1122 H 105.974 3.39769 1.95702 0
M  V30 1123 H 107.464 3.02814 2.87565 0
M  V30 1124 N 107.901 -0.206675 1.56239 0
M  V30 1125 C 108.831 -1.25909 1.96645 0
M  V30 1126 C 109.812 -1.48097 0.836734 0
M  V30 1127 O 110.997 -1.6003 1.10019 0
M  V30 1128 C 108.127 -2.6058 2.29599 0
M  V30 1129 C 107.081 -2.53024 3.452 0
M  V30 1130 C 106.407 -3.91861 3.63798 0
M  V30 1131 C 107.707 -2.06524 4.79734 0
M  V30 1132 H 109.401 -0.923369 2.84806 0
M  V30 1133 H 106.947 -0.442735 1.37025 0
M  V30 1134 H 108.9 -3.34375 2.56459 0
M  V30 1135 H 107.624 -2.95869 1.38307 0
M  V30 1136 H 106.283 -1.81684 3.18412 0
M  V30 1137 H 105.931 -4.24483 2.69857 0
M  V30 1138 H 105.631 -3.87683 4.4156 0
M  V30 1139 H 107.155 -4.67296 3.93022 0
M  V30 1140 H 108.569 -2.70072 5.05702 0
M  V30 1141 H 106.966 -2.13374 5.60885 0
M  V30 1142 H 108.036 -1.01802 4.74093 0
M  V30 1143 N 109.379 -1.50304 -0.473955 0
M  V30 1144 C 110.329 -1.65347 -1.56985 0
M  V30 1145 C 111.313 -0.508176 -1.52664 0
M  V30 1146 O 112.505 -0.762446 -1.59737 0
M  V30 1147 C 109.634 -1.74832 -2.95447 0
M  V30 1148 C 108.72 -2.95028 -3.04662 0
M  V30 1149 N 109.111 -4.18747 -2.83698 0
M  V30 1150 C 107.409 -2.93527 -3.35795 0
M  V30 1151 C 108.11 -4.99687 -2.97805 0
M  V30 1152 N 107.086 -4.33585 -3.2788 0
M  V30 1153 H 110.888 -2.58698 -1.39472 0
M  V30 1154 H 108.402 -1.47449 -0.680629 0
M  V30 1155 H 110.399 -1.83712 -3.7424 0
M  V30 1156 H 109.059 -0.826376 -3.14008 0
M  V30 1157 H 110.07 -4.48291 -2.59337 0
M  V30 1158 H 106.747 -2.10821 -3.60362 0
M  V30 1159 H 108.137 -6.08057 -2.85861 0
M  V30 1160 N 110.857 0.726932 -1.39834 0
M  V30 1161 C 112.106 1.48214 -1.36805 0
M  V30 1162 C 112.419 1.95576 0.0305291 0
M  V30 1163 O 113.625 2.7088 0.183417 0
M  V30 1164 C 112.081 2.67854 -2.40379 0
M  V30 1165 C 111.689 2.27408 -3.85992 0
M  V30 1166 C 113.433 3.45641 -2.46439 0
M  V30 1167 C 111.34 3.43819 -4.81189 0
M  V30 1168 H 110.27 0.556606 -0.508631 0
M  V30 1169 H 112.921 0.792216 -1.65518 0
M  V30 1170 H 111.303 3.3896 -2.04749 0
M  V30 1171 H 112.477 1.63795 -4.30706 0
M  V30 1172 H 110.792 1.62692 -3.83302 0
M  V30 1173 H 113.389 4.32244 -3.14753 0
M  V30 1174 H 113.732 3.88669 -1.49139 0
M  V30 1175 H 114.265 2.8157 -2.81004 0
M  V30 1176 H 111.004 3.05834 -5.79781 0
M  V30 1177 H 110.524 4.06385 -4.41148 0
M  V30 1178 H 112.203 4.10043 -5.00474 0
M  V30 1179 N 112.336 1.25143 0.95797 0
M  V30 1180 C 113.561 1.12521 1.74223 0
M  V30 1181 C 113.986 -0.317402 1.85403 0
M  V30 1182 O 113.344 -1.2299 1.33204 0
M  V30 1183 C 113.392 1.78062 3.1357 0
M  V30 1184 O 112.496 1.058 3.98598 0
M  V30 1185 H 111.837 0.39304 0.535178 0
M  V30 1186 H 114.367 1.65641 1.201 0
M  V30 1187 H 114.377 1.84213 3.64046 0
M  V30 1188 H 113.052 2.83021 3.04749 0
M  V30 1189 H 111.629 1.07506 3.57067 0
M  V30 1190 N 113.814 -1.1601 1.06675 0
M  V30 1191 C 115.23 -1.38622 0.790948 0
M  V30 1192 C 115.43 -1.92109 -0.607965 0
M  V30 1193 O 114.486 -2.12239 -1.36787 0
M  V30 1194 C 115.799 -2.36347 1.85905 0
M  V30 1195 C 117.347 -2.50023 1.88301 0
M  V30 1196 C 117.822 -3.51033 2.94176 0
M  V30 1197 N 119.313 -3.58563 2.93235 0
M  V30 1198 C 120.048 -4.36521 3.71803 0
M  V30 1199 N 119.544 -5.17869 4.602 0
M  V30 1200 N 121.337 -4.31541 3.60178 0
M  V30 1201 H 113.488 -0.796294 1.96908 0
M  V30 1202 H 115.751 -0.412597 0.853503 0
M  V30 1203 H 115.457 -2.04147 2.86386 0
M  V30 1204 H 115.331 -3.36042 1.71334 0
M  V30 1205 H 117.718 -2.81524 0.884769 0
M  V30 1206 H 117.799 -1.5035 2.06951 0
M  V30 1207 H 117.443 -3.20268 3.94196 0
M  V30 1208 H 117.373 -4.50445 2.72776 0
M  V30 1209 H 119.864 -3.00496 2.29152 0
M  V30 1210 H 120.177 -5.74578 5.16797 0
M  V30 1211 H 118.522 -5.17199 4.64253 0
M  V30 1212 H 121.713 -3.67051 2.90502 0
M  V30 1213 H 121.886 -4.9205 4.21653 0
M  V30 1214 N 115.292 -0.849877 -1.32721 0
M  V30 1215 C 116.54 -0.450032 -1.97026 0
M  V30 1216 C 116.861 0.996604 -1.67609 0
M  V30 1217 O 116.131 1.6958 -0.980786 0
M  V30 1218 H 114.711 -0.163426 -0.728904 0
M  V30 1219 H 117.373 -1.08526 -1.6189 0
M  V30 1220 H 116.469 -0.591146 -3.0645 0
M  V30 1221 N 116.77 1.45427 -0.607355 0
M  V30 1222 C 117.717 2.3053 0.111625 0
M  V30 1223 C 118.687 1.4209 0.860216 0
M  V30 1224 O 119.872 1.71019 0.845998 0
M  V30 1225 C 117.012 3.26992 1.10319 0
M  V30 1226 C 116.125 4.30535 0.355493 0
M  V30 1227 C 115.26 5.14105 1.33676 0
M  V30 1228 C 114.299 6.09376 0.576862 0
M  V30 1229 N 113.436 6.85727 1.5074 0
M  V30 1230 H 118.276 2.91477 -0.620093 0
M  V30 1231 H 115.813 1.43631 -0.317594 0
M  V30 1232 H 117.771 3.81385 1.6912 0
M  V30 1233 H 116.401 2.67799 1.80232 0
M  V30 1234 H 115.453 3.78805 -0.348023 0
M  V30 1235 H 116.765 4.98235 -0.237423 0
M  V30 1236 H 115.919 5.72897 1.99684 0
M  V30 1237 H 114.658 4.46423 1.9636 0
M  V30 1238 H 113.663 5.49715 -0.0968519 0
M  V30 1239 H 114.888 6.79085 -0.0449341 0
M  V30 1240 H 112.834 6.20735 2.12189 0
M  V30 1241 H 112.751 7.49778 0.967913 0
M  V30 1242 H 114.019 7.4906 2.15706 0
M  V30 1243 N 118.248 0.346503 1.53744 0
M  V30 1244 C 119.178 -0.501193 2.28058 0
M  V30 1245 C 120.159 -1.10014 1.29734 0
M  V30 1246 O 121.344 -1.12097 1.58581 0
M  V30 1247 C 118.474 -1.65078 3.05559 0
M  V30 1248 C 117.428 -1.18003 4.11411 0
M  V30 1249 C 116.754 -2.41837 4.76884 0
M  V30 1250 C 118.054 -0.278394 5.21558 0
M  V30 1251 H 119.748 0.11875 2.99164 0
M  V30 1252 H 117.294 0.0585531 1.43881 0
M  V30 1253 H 119.247 -2.25028 3.56287 0
M  V30 1254 H 117.971 -2.29767 2.32109 0
M  V30 1255 H 116.63 -0.603331 3.61601 0
M  V30 1256 H 116.278 -3.0494 4.00026 0
M  V30 1257 H 115.978 -2.1102 5.48402 0
M  V30 1258 H 117.502 -3.02508 5.30397 0
M  V30 1259 H 118.916 -0.784823 5.67903 0
M  V30 1260 H 117.313 -0.0619707 6.00068 0
M  V30 1261 H 118.383 0.684677 4.80042 0
M  V30 1262 N 119.726 -1.57421 0.075193 0
M  V30 1263 C 120.656 -2.15942 -0.888324 0
M  V30 1264 C 121.637 -1.08737 -1.30806 0
M  V30 1265 O 122.822 -1.36787 -1.37851 0
M  V30 1266 C 119.952 -2.72379 -2.1547 0
M  V30 1267 C 118.906 -3.8478 -1.87425 0
M  V30 1268 C 118.232 -4.27834 -3.20721 0
M  V30 1269 C 119.532 -5.08869 -1.17684 0
M  V30 1270 H 121.226 -2.96705 -0.400799 0
M  V30 1271 H 118.772 -1.42723 -0.191342 0
M  V30 1272 H 120.725 -3.11965 -2.83295 0
M  V30 1273 H 119.449 -1.88841 -2.6647 0
M  V30 1274 H 118.108 -3.45703 -1.22004 0
M  V30 1275 H 117.756 -3.41214 -3.6957 0
M  V30 1276 H 117.456 -5.03605 -3.02746 0
M  V30 1277 H 118.98 -4.70039 -3.89738 0
M  V30 1278 H 120.394 -5.4575 -1.75584 0
M  V30 1279 H 118.791 -5.8994 -1.09956 0
M  V30 1280 H 119.861 -4.84648 -0.156453 0
M  V30 1281 N 121.204 0.198386 -1.56346 0
M  V30 1282 C 122.615 0.763358 -1.70381 0
M  V30 1283 C 122.966 1.83995 -0.681203 0
M  V30 1284 O 122.091 2.15785 0.16305 0
M  V30 1285 C 122.686 1.39143 -3.08909 0
M  V30 1286 C 121.245 1.90352 -3.2472 0
M  V30 1287 C 120.392 0.772233 -2.6633 0
M  V30 1288 H 123.343 -0.0266377 -1.58678 0
M  V30 1289 H 123.364 2.26076 -3.06055 0
M  V30 1290 H 122.876 0.607638 -3.83314 0
M  V30 1291 H 120.977 2.71461 -2.55225 0
M  V30 1292 H 121.09 2.06757 -4.3219 0
M  V30 1293 H 119.454 1.18566 -2.2542 0
M  V30 1294 H 120.237 0.00073556 -3.433 0
M  V30 1295 N 122.682 1.50554 0.465978 0
M  V30 1296 C 124.098 1.38093 0.800154 0
M  V30 1297 C 124.298 0.440988 1.96615 0
M  V30 1298 O 123.354 -0.114499 2.5224 0
M  V30 1299 C 124.667 2.79565 1.10742 0
M  V30 1300 C 126.215 2.88516 1.21357 0
M  V30 1301 C 126.69 4.30833 1.55393 0
M  V30 1302 N 128.181 4.33807 1.62375 0
M  V30 1303 C 128.916 5.40927 1.90225 0
M  V30 1304 N 128.412 6.58247 2.16062 0
M  V30 1305 N 130.205 5.28376 1.9177 0
M  V30 1306 H 122.356 2.10237 -0.302366 0
M  V30 1307 H 124.619 0.945203 -0.0727746 0
M  V30 1308 H 124.325 3.50208 0.323661 0
M  V30 1309 H 124.199 3.17125 2.04234 0
M  V30 1310 H 126.586 2.1809 1.98799 0
M  V30 1311 H 126.667 2.54492 0.258321 0
M  V30 1312 H 126.311 5.01799 0.784889 0
M  V30 1313 H 126.241 4.62347 2.52076 0
M  V30 1314 H 128.732 3.49212 1.44427 0
M  V30 1315 H 129.045 7.3569 2.36601 0
M  V30 1316 H 127.39 6.61413 2.13444 0
M  V30 1317 H 130.581 4.35715 1.71085 0
M  V30 1318 H 130.754 6.11944 2.13139 0
M  V30 1319 N 124.16 -0.719506 1.40217 0
M  V30 1320 C 125.07 -1.86378 1.42479 0
M  V30 1321 C 126.086 -1.71073 0.317834 0
M  V30 1322 O 127.262 -1.93406 0.561794 0
M  V30 1323 C 124.327 -3.22136 1.28178 0
M  V30 1324 C 123.388 -3.49723 2.48982 0
M  V30 1325 C 122.621 -4.79004 2.35353 0
M  V30 1326 O 122.844 -5.53821 1.36524 0
M  V30 1327 O 121.778 -5.06839 3.2465 0
M  V30 1328 H 125.604 -1.87425 2.38968 0
M  V30 1329 H 123.189 -0.869405 1.21498 0
M  V30 1330 H 125.071 -4.03234 1.22395 0
M  V30 1331 H 123.746 -3.21825 0.347934 0
M  V30 1332 H 122.653 -2.6865 2.60342 0
M  V30 1333 H 123.986 -3.54828 3.41113 0
M  V30 1334 N 125.638 -1.25649 -0.95132 0
M  V30 1335 C 127.054 -1.02542 -1.223 0
M  V30 1336 C 127.254 0.255715 -1.99871 0
M  V30 1337 O 126.31 0.967558 -2.33226 0
M  V30 1338 C 127.623 -2.25065 -1.99415 0
M  V30 1339 C 129.171 -2.29861 -2.12446 0
M  V30 1340 C 129.646 -3.52048 -2.92961 0
M  V30 1341 N 131.137 -3.52465 -3.00538 0
M  V30 1342 C 131.872 -4.43672 -3.63239 0
M  V30 1343 N 131.368 -5.45157 -4.27523 0
M  V30 1344 N 133.161 -4.31346 -3.60412 0
M  V30 1345 H 125.312 -2.07951 -0.432471 0
M  V30 1346 H 127.575 -0.91339 -0.253816 0
M  V30 1347 H 127.281 -3.18194 -1.49817 0
M  V30 1348 H 127.155 -2.28502 -3.00111 0
M  V30 1349 H 129.542 -1.37252 -2.61239 0
M  V30 1350 H 129.623 -2.3044 -1.11044 0
M  V30 1351 H 129.267 -4.44981 -2.44856 0
M  V30 1352 H 129.197 -3.48715 -3.94596 0
M  V30 1353 H 131.688 -2.79056 -2.54826 0
M  V30 1354 H 132.001 -6.10958 -4.73234 0
M  V30 1355 H 130.346 -5.49025 -4.26141 0
M  V30 1356 H 133.537 -3.51288 -3.09377 0
M  V30 1357 H 133.71 -5.02624 -4.0899 0
M  V30 1358 N 127.117 1.15442 -1.07289 0
M  V30 1359 C 128.366 1.85557 -0.790669 0
M  V30 1360 C 128.679 1.83186 0.685739 0
M  V30 1361 O 129.885 2.48977 1.0827 0
M  V30 1362 C 128.341 3.33038 -1.36433 0
M  V30 1363 C 127.949 3.43856 -2.8717 0
M  V30 1364 C 129.693 4.0834 -1.1601 0
M  V30 1365 C 127.6 4.85482 -3.3773 0
M  V30 1366 H 126.53 0.695122 -0.292098 0
M  V30 1367 H 129.181 1.30219 -1.29287 0
M  V30 1368 H 127.563 3.88043 -0.789864 0
M  V30 1369 H 128.737 2.98961 -3.50655 0
M  V30 1370 H 127.052 2.81998 -3.06376 0
M  V30 1371 H 129.649 5.12859 -1.51262 0
M  V30 1372 H 129.992 4.16182 -0.0991007 0
M  V30 1373 H 130.525 3.59603 -1.70089 0
M  V30 1374 H 127.264 4.82823 -4.43353 0
M  V30 1375 H 126.784 5.30961 -2.78999 0
M  V30 1376 H 128.463 5.54335 -3.33648 0
M  V30 1377 N 128.595 0.856903 1.32268 0
M  V30 1378 C 129.872 0.382583 1.91822 0
M  V30 1379 C 130.252 -1.13407 1.78051 0
M  V30 1380 O 129.6 -1.95673 1.18001 0
M  V30 1381 C 129.81 0.849446 3.38505 0
M  V30 1382 C 131.158 0.867936 4.15634 0
M  V30 1383 O 132.182 0.794232 3.47232 0
M  V30 1384 O 131.041 0.972286 5.37781 0
M  V30 1385 H 128.135 0.112014 0.819379 0
M  V30 1386 H 130.681 0.943952 1.41024 0
M  V30 1387 H 129.453 1.89267 3.42482 0
M  V30 1388 H 129.076 0.265652 3.96712 0
M  V30 1389 N 130.073 -1.45103 0.615059 0
M  V30 1390 C 131.021 -2.32331 -0.111791 0
M  V30 1391 C 132.015 -1.46409 -0.852102 0
M  V30 1392 O 133.221 -1.62849 -0.766821 0
M  V30 1393 H 129.596 -0.749993 -0.0549072 0
M  V30 1394 H 131.567 -2.91407 0.642225 0
M  V30 1395 C 130.316 -3.3015 -1.09071 0
M  V30 1396 H 129.639 -3.96265 -0.530485 0
M  V30 1397 H 131.079 -3.93898 -1.56908 0
M  V30 1398 C 129.538 -2.57875 -2.168 0
M  V30 1399 O 130.068 -2.36567 -3.24652 0
M  V30 1400 N 128.274 -2.17884 -1.92289 0
M  V30 1401 H 127.821 -2.35413 -1.04587 0
M  V30 1402 H 127.779 -1.6985 -2.64572 0
M  V30 1403 N 131.551 -0.354651 -1.53558 0
M  V30 1404 C 132.481 0.489091 -2.2832 0
M  V30 1405 C 133.462 1.09324 -1.30316 0
M  V30 1406 O 134.647 1.11255 -1.59173 0
M  V30 1407 C 131.777 1.63456 -3.0643 0
M  V30 1408 C 130.731 1.1582 -4.12031 0
M  V30 1409 C 130.057 2.39305 -4.7816 0
M  V30 1410 C 131.357 0.250731 -5.21698 0
M  V30 1411 H 133.051 -0.134614 -2.99097 0
M  V30 1412 H 130.597 -0.0661826 -1.43848 0
M  V30 1413 H 132.55 2.23136 -3.57475 0
M  V30 1414 H 131.274 2.28533 -2.33325 0
M  V30 1415 H 129.933 0.584146 -3.61916 0
M  V30 1416 H 129.581 3.02814 -4.01637 0
M  V30 1417 H 129.281 2.08109 -5.49513 0
M  V30 1418 H 130.805 2.99691 -5.31994 0
M  V30 1419 H 132.219 0.754695 -5.68311 0
M  V30 1420 H 130.616 0.0301468 -6.00092 0
M  V30 1421 H 131.686 -0.710125 -4.79672 0
M  V30 1422 N 133.029 1.57378 -0.0835403 0
M  V30 1423 C 134.278 1.93106 0.582498 0
M  V30 1424 C 134.591 0.96651 1.70053 0
M  V30 1425 O 135.797 1.21705 2.42693 0
M  V30 1426 C 134.253 3.43076 1.08751 0
M  V30 1427 C 133.861 4.48 -0.000146404 0
M  V30 1428 C 135.605 3.87785 1.72694 0
M  V30 1429 C 133.512 5.89113 0.519568 0
M  V30 1430 H 132.442 0.720775 0.221358 0
M  V30 1431 H 135.093 1.82821 -0.157675 0
M  V30 1432 H 133.475 3.48474 1.88101 0
M  V30 1433 H 134.649 4.54233 -0.775199 0
M  V30 1434 H 132.964 4.1283 -0.54406 0
M  V30 1435 H 135.561 4.90604 2.1263 0
M  V30 1436 H 135.904 3.25796 2.59158 0
M  V30 1437 H 136.437 3.8504 0.999457 0
M  V30 1438 H 133.176 6.54775 -0.308186 0
M  V30 1439 H 132.696 5.86376 1.26188 0
M  V30 1440 H 134.375 6.39346 0.992237 0
M  V30 1441 N 134.507 -0.190092 1.56449 0
M  V30 1442 C 135.784 -0.935886 1.71757 0
M  V30 1443 C 136.164 -2.01173 0.639726 0
M  V30 1444 O 135.512 -2.25827 -0.348502 0
M  V30 1445 C 135.722 -1.51775 3.1427 0
M  V30 1446 C 137.07 -1.99794 3.74656 0
M  V30 1447 O 138.094 -1.61607 3.1743 0
M  V30 1448 O 136.953 -2.70079 4.751 0
M  V30 1449 H 134.047 -0.439229 0.700719 0
M  V30 1450 H 136.593 -0.179395 1.68749 0
M  V30 1451 H 135.365 -0.742505 3.84191 0
M  V30 1452 H 134.988 -2.33894 3.21527 0
M  V30 1453 N 135.985 -1.50799 -0.457987 0
M  V30 1454 C 137.396 -1.55152 -1.0385 0
M  V30 1455 C 137.747 -0.362719 -1.92818 0
M  V30 1456 O 136.872 0.522915 -2.09987 0
M  V30 1457 C 137.467 -2.81173 -1.89017 0
M  V30 1458 C 136.026 -2.88164 -2.42154 0
M  V30 1459 C 135.173 -2.49591 -1.20829 0
M  V30 1460 H 138.124 -1.56874 -0.240068 0
M  V30 1461 H 138.145 -2.63769 -2.74238 0
M  V30 1462 H 137.657 -3.67677 -1.24238 0
M  V30 1463 H 135.758 -2.06042 -3.10447 0
M  V30 1464 H 135.871 -3.91356 -2.76364 0
M  V30 1465 H 134.235 -2.02322 -1.54719 0
M  V30 1466 H 135.018 -3.38418 -0.576927 0
M  V30 1467 N 137.463 0.71206 -1.40597 0
M  V30 1468 C 138.711 1.46907 -1.38791 0
M  V30 1469 C 139.032 1.94998 0.00780391 0
M  V30 1470 O 138.302 1.70587 0.963174 0
M  V30 1471 H 136.882 0.545043 -0.51082 0
M  V30 1472 H 139.544 0.843882 -1.75683 0
M  V30 1473 H 138.64 2.34021 -2.06496 0
M  V30 1474 N 138.941 1.26152 0.944643 0
M  V30 1475 C 140.166 1.14363 1.7302 0
M  V30 1476 C 140.591 -0.29772 1.85729 0
M  V30 1477 O 139.949 -1.2157 1.34501 0
M  V30 1478 C 139.997 1.81378 3.11664 0
M  V30 1479 O 139.101 1.10022 3.97453 0
M  V30 1480 H 138.442 0.398694 0.53098 0
M  V30 1481 H 140.972 1.66906 1.18337 0
M  V30 1482 H 140.982 1.88064 3.62072 0
M  V30 1483 H 139.657 2.86237 3.0173 0
M  V30 1484 H 138.234 1.11287 3.55907 0
M  V30 1485 N 140.419 -1.14872 1.07899 0
M  V30 1486 C 141.83 -1.67367 0.827363 0
M  V30 1487 C 142.181 -1.85236 -0.646693 0
M  V30 1488 O 141.306 -1.55974 -1.50004 0
M  V30 1489 C 141.901 -3.04016 1.49532 0
M  V30 1490 C 140.46 -3.53566 1.29106 0
M  V30 1491 C 139.607 -2.29161 1.56143 0
M  V30 1492 H 142.558 -0.990083 1.24028 0
M  V30 1493 H 142.579 -3.69219 0.919643 0
M  V30 1494 H 142.091 -2.90978 2.56814 0
M  V30 1495 H 140.192 -3.71835 0.238713 0
M  V30 1496 H 140.305 -4.34661 2.01511 0
M  V30 1497 H 138.669 -2.34978 0.982717 0
M  V30 1498 H 139.452 -2.18705 2.64619 0
M  V30 1499 N 141.898 -0.863906 -1.31812 0
M  V30 1500 C 143.145 -0.471836 -1.96926 0
M  V30 1501 C 143.473 0.974578 -1.68322 0
M  V30 1502 O 142.728 1.7003 -0.968933 0
M  V30 1503 C 143.027 -0.668547 -3.51091 0
M  V30 1504 C 142.693 -2.08683 -3.99703 0
M  V30 1505 C 141.355 -2.47471 -4.12688 0
M  V30 1506 C 143.707 -3.01207 -4.25351 0
M  V30 1507 C 141.035 -3.78037 -4.4867 0
M  V30 1508 C 143.387 -4.31282 -4.62794 0
M  V30 1509 C 142.051 -4.69992 -4.73987 0
M  V30 1510 H 141.321 -0.172657 -0.720604 0
M  V30 1511 H 143.968 -1.09573 -1.57054 0
M  V30 1512 H 142.273 0.0385252 -3.91781 0
M  V30 1513 H 143.97 -0.345102 -3.99512 0
M  V30 1514 H 140.56 -1.77566 -3.90087 0
M  V30 1515 H 144.744 -2.72469 -4.14819 0
M  V30 1516 H 140 -4.078 -4.55532 0
M  V30 1517 H 144.174 -5.03031 -4.81594 0
M  V30 1518 H 141.801 -5.71207 -5.01624 0
M  V30 1519 N 143.376 1.44774 -0.622745 0
M  V30 1520 C 144.306 2.33382 0.0741861 0
M  V30 1521 C 145.287 1.47719 0.843387 0
M  V30 1522 O 146.472 1.76458 0.810934 0
M  V30 1523 C 143.602 3.30663 1.06204 0
M  V30 1524 C 142.556 4.26079 0.405037 0
M  V30 1525 C 141.882 5.13165 1.5022 0
M  V30 1526 C 143.182 5.1781 -0.683414 0
M  V30 1527 H 144.876 2.91905 -0.665713 0
M  V30 1528 H 142.422 1.40363 -0.321587 0
M  V30 1529 H 144.375 3.9153 1.55827 0
M  V30 1530 H 143.099 2.70331 1.83272 0
M  V30 1531 H 141.758 3.66532 -0.0704683 0
M  V30 1532 H 141.406 4.49191 2.26355 0
M  V30 1533 H 141.106 5.77812 1.06803 0
M  V30 1534 H 142.63 5.76902 2.00041 0
M  V30 1535 H 144.044 5.72661 -0.270631 0
M  V30 1536 H 142.441 5.91015 -1.04023 0
M  V30 1537 H 143.511 4.59326 -1.55395 0
M  V30 1538 N 144.854 0.36279 1.53368 0
M  V30 1539 C 145.764 -0.492994 2.29362 0
M  V30 1540 C 146.78 -1.09507 1.35219 0
M  V30 1541 O 147.956 -1.10662 1.68273 0
M  V30 1542 C 145.021 -1.61855 3.066 0
M  V30 1543 C 144.082 -1.04429 4.16405 0
M  V30 1544 C 143.315 -2.11621 4.89951 0
M  V30 1545 O 143.538 -3.32684 4.63333 0
M  V30 1546 O 142.472 -1.74835 5.75948 0
M  V30 1547 H 146.298 0.125331 3.03441 0
M  V30 1548 H 143.883 0.127253 1.48857 0
M  V30 1549 H 145.765 -2.27302 3.54841 0
M  V30 1550 H 144.44 -2.22233 2.3536 0
M  V30 1551 H 143.347 -0.353819 3.72423 0
M  V30 1552 H 144.68 -0.485113 4.89804 0
M  V30 1553 N 146.332 -1.57332 0.0918853 0
M  V30 1554 C 147.262 -2.16872 -0.865371 0
M  V30 1555 C 148.243 -1.10118 -1.29646 0
M  V30 1556 O 149.428 -1.38242 -1.36392 0
M  V30 1557 C 146.558 -2.74649 -2.12569 0
M  V30 1558 C 145.512 -3.86747 -1.83333 0
M  V30 1559 C 144.838 -4.31212 -3.16166 0
M  V30 1560 C 146.138 -5.10089 -1.1228 0
M  V30 1561 H 147.832 -2.97114 -0.369307 0
M  V30 1562 H 145.378 -1.42918 -0.176194 0
M  V30 1563 H 147.331 -3.14952 -2.7997 0
M  V30 1564 H 146.055 -1.91657 -2.64452 0
M  V30 1565 H 144.714 -3.46978 -1.18331 0
M  V30 1566 H 144.362 -3.45115 -3.6593 0
M  V30 1567 H 144.062 -5.06788 -2.97388 0
M  V30 1568 H 145.586 -4.74146 -3.84731 0
M  V30 1569 H 147 -5.47582 -1.69785 0
M  V30 1570 H 145.397 -5.91073 -1.03693 0
M  V30 1571 H 146.467 -4.84786 -0.105041 0
M  V30 1572 N 147.81 0.181792 -1.56548 0
M  V30 1573 C 149.035 0.920019 -1.85877 0
M  V30 1574 C 149.46 1.75494 -0.677021 0
M  V30 1575 O 148.818 1.77399 0.374056 0
M  V30 1576 C 148.866 1.78112 -3.13542 0
M  V30 1577 O 147.97 2.88152 -2.95029 0
M  V30 1578 H 147.311 0.258334 -0.611686 0
M  V30 1579 H 149.841 0.183092 -2.03779 0
M  V30 1580 H 149.851 2.18314 -3.44678 0
M  V30 1581 H 148.526 1.16777 -3.99169 0
M  V30 1582 H 147.103 2.51609 -2.75222 0
M  V30 1583 N 149.288 1.51039 0.449983 0
M  V30 1584 C 150.22 1.67617 1.56324 0
M  V30 1585 C 151.233 0.557083 1.52972 0
M  V30 1586 O 152.422 0.830989 1.57977 0
M  V30 1587 C 149.522 1.66402 2.95235 0
M  V30 1588 C 148.695 2.9469 3.23229 0
M  V30 1589 C 147.754 2.85832 4.41799 0
M  V30 1590 O 146.78 3.59785 4.41071 0
M  V30 1591 N 147.982 2.00821 5.44657 0
M  V30 1592 H 150.747 2.63648 1.42512 0
M  V30 1593 H 148.308 1.48767 0.638737 0
M  V30 1594 H 150.3 1.58062 3.72557 0
M  V30 1595 H 148.87 0.780182 3.02708 0
M  V30 1596 H 148.09 3.16996 2.34323 0
M  V30 1597 H 149.378 3.79636 3.38754 0
M  V30 1598 H 148.776 1.40091 5.48079 0
M  V30 1599 H 147.333 1.98368 6.20881 0
M  V30 1600 N 150.766 -0.704594 1.40972 0
M  V30 1601 C 152.013 -1.46458 1.39844 0
M  V30 1602 C 152.341 -1.94499 0.00447594 0
M  V30 1603 O 151.596 -1.69275 -0.982057 0
M  V30 1604 C 151.895 -2.698 2.34399 0
M  V30 1605 C 151.561 -2.40464 3.81429 0
M  V30 1606 C 150.223 -2.32174 4.21484 0
M  V30 1607 C 152.575 -2.16086 4.74296 0
M  V30 1608 C 149.903 -1.97589 5.52427 0
M  V30 1609 C 152.255 -1.83011 6.05549 0
M  V30 1610 C 150.919 -1.7321 6.44635 0
M  V30 1611 H 150.189 -0.535927 0.511725 0
M  V30 1612 H 152.836 -0.806124 1.73706 0
M  V30 1613 H 151.141 -3.40536 1.93759 0
M  V30 1614 H 152.838 -3.27919 2.30804 0
M  V30 1615 H 149.428 -2.47808 3.49699 0
M  V30 1616 H 153.612 -2.2144 4.4416 0
M  V30 1617 H 148.868 -1.88547 5.81601 0
M  V30 1618 H 153.042 -1.63164 6.77016 0
M  V30 1619 H 150.669 -1.46179 7.46013 0
M  V30 1620 N 152.244 -1.26651 -0.937939 0
M  V30 1621 C 153.207 -1.08546 -2.01867 0
M  V30 1622 C 154.207 -0.0327327 -1.60767 0
M  V30 1623 O 155.397 -0.276427 -1.71993 0
M  V30 1624 C 152.529 -0.651711 -3.34613 0
M  V30 1625 H 153.722 -2.04502 -2.1936 0
M  V30 1626 H 151.275 -1.09294 -1.11734 0
M  V30 1627 H 152.01 0.309696 -3.22818 0
M  V30 1628 H 151.795 -1.41189 -3.65798 0
M  V30 1629 H 153.285 -0.546973 -4.14002 0
M  V30 1630 N 153.722 1.14298 -1.08507 0
M  V30 1631 C 154.97 1.84993 -0.813763 0
M  V30 1632 C 155.291 1.83405 0.662393 0
M  V30 1633 O 154.561 1.28319 1.48024 0
M  V30 1634 H 153.141 0.684966 -0.298045 0
M  V30 1635 H 155.803 1.385 -1.37126 0
M  V30 1636 H 154.899 2.89788 -1.15884 0
M  V30 1637 N 155.201 0.870884 1.31352 0
M  V30 1638 C 156.431 0.496049 2.00557 0
M  V30 1639 C 156.839 -0.916241 1.65534 0
M  V30 1640 O 156.182 -1.61188 0.881134 0
M  V30 1641 C 156.244 0.574418 3.54881 0
M  V30 1642 C 155.908 1.94849 4.1338 0
M  V30 1643 C 156.905 2.91611 4.30417 0
M  V30 1644 C 154.59 2.25005 4.49086 0
M  V30 1645 C 156.584 4.16672 4.82352 0
M  V30 1646 C 154.271 3.50315 5.00722 0
M  V30 1647 C 155.269 4.45964 5.17306 0
M  V30 1648 O 154.957 5.69052 5.67833 0
M  V30 1649 H 154.689 0.191664 0.64826 0
M  V30 1650 H 157.243 1.17409 1.68536 0
M  V30 1651 H 155.473 -0.160549 3.86367 0
M  V30 1652 H 157.162 0.212879 4.05341 0
M  V30 1653 H 157.928 2.69622 4.03149 0
M  V30 1654 H 153.807 1.51332 4.35453 0
M  V30 1655 H 157.351 4.91336 4.95211 0
M  V30 1656 H 153.248 3.72147 5.27424 0
M  V30 1657 H 154.016 5.71236 5.86201 0
M  V30 1658 N 156.679 -1.44442 0.630414 0
M  V30 1659 C 157.611 -2.2892 -0.113347 0
M  V30 1660 C 158.624 -1.41243 -0.80959 0
M  V30 1661 O 159.813 -1.65402 -0.671156 0
M  V30 1662 C 156.913 -3.17594 -1.18266 0
M  V30 1663 C 156.086 -4.33682 -0.569073 0
M  V30 1664 C 155.145 -5.03397 -1.53226 0
M  V30 1665 O 154.171 -5.59438 -1.04967 0
M  V30 1666 N 155.373 -5.04783 -2.86661 0
M  V30 1667 H 158.138 -2.93392 0.611636 0
M  V30 1668 H 155.699 -1.54881 0.471523 0
M  V30 1669 H 157.691 -3.61097 -1.82732 0
M  V30 1670 H 156.261 -2.54876 -1.80988 0
M  V30 1671 H 155.481 -3.9338 0.254187 0
M  V30 1672 H 156.769 -5.08608 -0.139767 0
M  V30 1673 H 156.167 -4.60584 -3.28449 0
M  V30 1674 H 154.724 -5.52077 -3.46489 0
M  V30 1675 N 158.157 -0.370918 -1.53173 0
M  V30 1676 C 159.087 0.464847 -2.28826 0
M  V30 1677 C 160.068 1.07936 -1.31468 0
M  V30 1678 O 161.253 1.0956 -1.60344 0
M  V30 1679 C 158.383 1.60196 -3.08147 0
M  V30 1680 C 157.337 1.11443 -4.13237 0
M  V30 1681 C 156.663 2.3422 -4.80672 0
M  V30 1682 C 157.963 0.195384 -5.21934 0
M  V30 1683 H 159.657 -0.166329 -2.98938 0
M  V30 1684 H 157.203 -0.0814359 -1.4377 0
M  V30 1685 H 159.156 2.19332 -3.59822 0
M  V30 1686 H 157.88 2.26045 -2.35735 0
M  V30 1687 H 156.539 0.545727 -3.62515 0
M  V30 1688 H 156.187 2.98537 -4.04827 0
M  V30 1689 H 155.887 2.02269 -5.51689 0
M  V30 1690 H 157.411 2.94032 -5.35143 0
M  V30 1691 H 158.825 0.694375 -5.69079 0
M  V30 1692 H 157.222 -0.0335027 -6.00091 0
M  V30 1693 H 158.292 -0.760961 -4.78892 0
M  V30 1694 N 159.635 1.57281 -0.100228 0
M  V30 1695 C 160.865 1.98591 0.569681 0
M  V30 1696 C 161.273 0.978315 1.61943 0
M  V30 1697 O 160.616 -0.0396108 1.83657 0
M  V30 1698 C 160.678 3.36282 1.271 0
M  V30 1699 C 160.342 4.55488 0.371409 0
M  V30 1700 C 161.339 5.18491 -0.382504 0
M  V30 1701 C 159.024 5.01474 0.287965 0
M  V30 1702 C 161.018 6.25852 -1.20779 0
M  V30 1703 C 158.705 6.08701 -0.540965 0
M  V30 1704 C 159.703 6.70755 -1.28749 0
M  V30 1705 O 159.391 7.75914 -2.10269 0
M  V30 1706 H 159.123 0.65752 0.156982 0
M  V30 1707 H 161.677 2.0463 -0.177734 0
M  V30 1708 H 159.907 3.26941 2.0651 0
M  V30 1709 H 161.596 3.62005 1.83595 0
M  V30 1710 H 162.362 4.83891 -0.3278 0
M  V30 1711 H 158.241 4.52932 0.858689 0
M  V30 1712 H 161.785 6.74218 -1.79096 0
M  V30 1713 H 157.682 6.42732 -0.597131 0
M  V30 1714 H 158.45 7.92925 -2.03007 0
M  V30 1715 N 161.113 -0.173488 1.56642 0
M  V30 1716 C 162.39 -0.917617 1.7274 0
M  V30 1717 C 162.77 -2.00484 0.661027 0
M  V30 1718 O 162.118 -2.26184 -0.32453 0
M  V30 1719 C 162.328 -1.48433 3.15862 0
M  V30 1720 C 163.676 -1.95809 3.76754 0
M  V30 1721 O 164.7 -1.58231 3.19126 0
M  V30 1722 O 163.559 -2.65024 4.77938 0
M  V30 1723 H 160.653 -0.431772 0.705338 0
M  V30 1724 H 163.199 -0.161487 1.6893 0
M  V30 1725 H 161.971 -0.701715 3.84957 0
M  V30 1726 H 161.594 -2.30471 3.23989 0
M  V30 1727 N 162.591 -1.51276 -0.441967 0
M  V30 1728 C 163.539 -1.72823 -1.55676 0
M  V30 1729 C 164.533 -0.59445 -1.58627 0
M  V30 1730 O 165.739 -0.775715 -1.62427 0
M  V30 1731 H 162.114 -0.545983 -0.517113 0
M  V30 1732 H 164.085 -2.6628 -1.34675 0
M  V30 1733 C 162.834 -1.86619 -2.93375 0
M  V30 1734 H 162.157 -2.73264 -2.91834 0
M  V30 1735 H 163.597 -2.05709 -3.70756 0
M  V30 1736 C 162.056 -0.624842 -3.31055 0
M  V30 1737 O 162.586 0.222636 -4.01083 0
M  V30 1738 N 160.792 -0.470288 -2.86769 0
M  V30 1739 H 160.339 -1.161 -2.29953 0
M  V30 1740 H 160.297 0.359051 -3.12343 0
M  V30 1741 N 164.069 0.697108 -1.41344 0
M  V30 1742 C 164.979 1.84088 -1.45427 0
M  V30 1743 C 165.995 1.70545 -0.34501 0
M  V30 1744 O 167.171 1.92488 -0.592492 0
M  V30 1745 C 164.236 3.20056 -1.33286 0
M  V30 1746 C 163.297 3.45718 -2.54514 0
M  V30 1747 C 162.53 4.75199 -2.42944 0
M  V30 1748 O 162.753 5.51579 -1.45318 0
M  V30 1749 O 161.687 5.0161 -3.32672 0
M  V30 1750 H 165.513 1.836 -2.41919 0
M  V30 1751 H 163.098 0.849966 -1.22866 0
M  V30 1752 H 164.98 4.01236 -1.28794 0
M  V30 1753 H 163.655 3.2123 -0.39909 0
M  V30 1754 H 162.562 2.64474 -2.64583 0
M  V30 1755 H 163.895 3.49356 -3.46715 0
M  V30 1756 N 165.547 1.27147 0.931209 0
M  V30 1757 C 166.457 1.11372 2.06478 0
M  V30 1758 C 167.473 0.044645 1.73943 0
M  V30 1759 O 168.649 0.250417 1.99837 0
M  V30 1760 C 165.714 0.758838 3.38294 0
M  V30 1761 C 164.775 1.90841 3.84549 0
M  V30 1762 C 164.008 1.57036 5.10074 0
M  V30 1763 O 164.231 0.476645 5.68405 0
M  V30 1764 O 163.165 2.40839 5.51616 0
M  V30 1765 H 166.991 2.06493 2.22698 0
M  V30 1766 H 164.576 1.06301 1.04978 0
M  V30 1767 H 166.458 0.574098 4.17471 0
M  V30 1768 H 165.133 -0.162879 3.2329 0
M  V30 1769 H 164.04 2.14819 3.06274 0
M  V30 1770 H 165.373 2.81021 4.04089 0
M  V30 1771 N 167.025 -1.13721 1.09112 0
M  V30 1772 C 168.271 -1.85198 0.826414 0
M  V30 1773 C 168.604 -1.83129 -0.646319 0
M  V30 1774 O 167.879 -1.2671 -1.47563 0
M  V30 1775 C 168.162 -3.33507 1.35812 0
M  V30 1776 C 168.015 -3.44108 2.89672 0
M  V30 1777 C 169.334 -4.28838 0.989256 0
M  V30 1778 H 166.453 -0.67243 0.301675 0
M  V30 1779 H 169.095 -1.33499 1.35197 0
M  V30 1780 H 167.245 -3.77666 0.911082 0
M  V30 1781 H 168.917 -3.08684 3.428 0
M  V30 1782 H 167.16 -2.85087 3.26967 0
M  V30 1783 H 167.831 -4.48388 3.21951 0
M  V30 1784 H 170.307 -3.92734 1.37475 0
M  V30 1785 H 169.183 -5.31051 1.38838 0
M  V30 1786 H 169.444 -4.4198 -0.102924 0
M  V30 1787 N 168.503 -0.877838 -1.30888 0
M  V30 1788 C 169.914 -0.544193 -1.78593 0
M  V30 1789 C 170.265 0.939301 -1.72254 0
M  V30 1790 O 169.39 1.7337 -1.29505 0
M  V30 1791 C 169.985 -0.98105 -3.24285 0
M  V30 1792 C 168.544 -0.698935 -3.69854 0
M  V30 1793 C 167.691 -1.168 -2.51502 0
M  V30 1794 H 170.642 -1.06278 -1.17859 0
M  V30 1795 H 170.663 -0.307009 -3.79259 0
M  V30 1796 H 170.175 -2.06079 -3.28866 0
M  V30 1797 H 168.276 0.369112 -3.70767 0
M  V30 1798 H 168.389 -1.28148 -4.61644 0
M  V30 1799 H 166.753 -0.587535 -2.47831 0
M  V30 1800 H 167.536 -2.25533 -2.58824 0
M  V30 1801 N 169.982 1.44106 -0.638065 0
M  V30 1802 C 171.23 2.01579 -0.145043 0
M  V30 1803 C 171.551 1.50496 1.24 0
M  V30 1804 O 170.821 0.711374 1.82527 0
M  V30 1805 H 169.401 0.745282 -0.05063 0
M  V30 1806 H 172.063 1.76516 -0.826327 0
M  V30 1807 H 171.159 3.11877 -0.118039 0
M  V30 1808 N 171.46 0.379036 1.52974 0
M  V30 1809 C 172.708 -0.206014 2.01047 0
M  V30 1810 C 173.029 -1.48175 1.26765 0
M  V30 1811 O 172.299 -1.92085 0.384743 0
M  V30 1812 H 170.879 -0.0791184 0.742798 0
M  V30 1813 H 173.541 0.508366 1.88153 0
M  V30 1814 H 172.637 -0.423501 3.09213 0
M  V30 1815 N 172.938 -1.57226 0.108567 0
M  V30 1816 C 174.186 -1.94448 -0.550853 0
M  V30 1817 C 174.507 -0.992074 -1.67878 0
M  V30 1818 O 173.777 -0.0465 -1.95845 0
M  V30 1819 H 172.357 -0.717897 -0.206479 0
M  V30 1820 H 175.019 -1.94112 0.175062 0
M  V30 1821 H 174.115 -2.97218 -0.952259 0
M  V30 1822 N 174.416 0.165178 -1.56732 0
M  V30 1823 C 175.665 0.879143 -1.81532 0
M  V30 1824 C 175.978 1.83144 -0.686842 0
M  V30 1825 O 177.184 2.58823 -0.819944 0
M  V30 1826 C 175.64 1.61388 -3.21686 0
M  V30 1827 C 175.248 0.704904 -4.4242 0
M  V30 1828 C 176.992 2.3157 -3.55774 0
M  V30 1829 C 174.899 1.44022 -5.73595 0
M  V30 1830 H 173.829 0.332033 -0.676957 0
M  V30 1831 H 176.48 0.132008 -1.83025 0
M  V30 1832 H 174.862 2.40599 -3.14529 0
M  V30 1833 H 176.036 -0.0506815 -4.60772 0
M  V30 1834 H 174.351 0.112419 -4.16248 0
M  V30 1835 H 176.948 2.8719 -4.51028 0
M  V30 1836 H 177.291 3.07201 -2.8095 0
M  V30 1837 H 177.824 1.59297 -3.64513 0
M  V30 1838 H 174.563 0.72612 -6.51466 0
M  V30 1839 H 174.083 2.16898 -5.5921 0
M  V30 1840 H 175.762 1.98606 -6.15764 0
M  V30 1841 N 175.894 1.51508 0.433938 0
M  V30 1842 C 177.143 1.63578 1.18005 0
M  V30 1843 C 177.456 0.359514 1.92268 0
M  V30 1844 O 178.662 0.359632 2.69108 0
M  V30 1845 C 177.118 2.88901 2.14626 0
M  V30 1846 C 176.726 4.23544 1.45995 0
M  V30 1847 C 178.47 3.10328 2.89649 0
M  V30 1848 C 176.377 5.40014 2.4112 0
M  V30 1849 H 175.307 0.609277 0.444182 0
M  V30 1850 H 177.958 1.77978 0.446773 0
M  V30 1851 H 176.34 2.68142 2.91403 0
M  V30 1852 H 177.514 4.54696 0.747532 0
M  V30 1853 H 175.829 4.08021 0.831115 0
M  V30 1854 H 178.426 3.94518 3.60915 0
M  V30 1855 H 178.769 2.23544 3.51189 0
M  V30 1856 H 179.302 3.31443 2.19978 0
M  V30 1857 H 176.041 6.29068 1.84264 0
M  V30 1858 H 175.561 5.13233 3.10406 0
M  V30 1859 H 177.24 5.72099 3.02177 0
M  V30 1860 N 177.372 -0.689602 1.41712 0
M  V30 1861 C 178.6 -1.47827 1.44758 0
M  V30 1862 C 179.015 -1.88721 0.0545703 0
M  V30 1863 O 178.372 -1.57176 -0.927463 0
M  V30 1864 C 178.423 -2.73698 2.3616 0
M  V30 1865 O 178.144 -2.34524 3.7004 0
M  V30 1866 C 179.645 -3.67389 2.48072 0
M  V30 1867 H 176.865 -0.455357 0.49284 0
M  V30 1868 H 179.409 -0.848574 1.86063 0
M  V30 1869 H 177.564 -3.32891 1.98148 0
M  V30 1870 H 177.978 -3.15701 4.18847 0
M  V30 1871 H 179.452 -4.52475 3.16181 0
M  V30 1872 H 179.929 -4.12284 1.51388 0
M  V30 1873 H 180.535 -3.14097 2.86746 0
M  V30 1874 N 178.85 -1.27639 -0.924453 0
M  V30 1875 C 180.098 -1.13941 -1.66918 0
M  V30 1876 C 180.419 0.314589 -1.92446 0
M  V30 1877 O 179.689 1.21964 -1.53303 0
M  V30 1878 H 178.269 -0.418678 -0.618642 0
M  V30 1879 H 180.931 -1.60213 -1.10985 0
M  V30 1880 H 180.027 -1.67094 -2.63602 0
M  V30 1881 N 180.328 1.1314 -1.09713 0
M  V30 1882 C 181.577 1.83838 -0.829851 0
M  V30 1883 C 181.89 1.84599 0.646728 0
M  V30 1884 O 183.096 2.51218 1.02965 0
M  V30 1885 C 181.552 3.30069 -1.43466 0
M  V30 1886 C 181.16 3.37688 -2.94399 0
M  V30 1887 C 182.904 4.05788 -1.24645 0
M  V30 1888 C 180.811 4.78209 -3.47952 0
M  V30 1889 H 179.741 0.68877 -0.306777 0
M  V30 1890 H 182.392 1.27448 -1.3202 0
M  V30 1891 H 180.774 3.8628 -0.871996 0
M  V30 1892 H 181.948 2.91456 -3.56918 0
M  V30 1893 H 180.263 2.75436 -3.12289 0
M  V30 1894 H 182.86 5.09535 -1.62107 0
M  V30 1895 H 183.203 4.15878 -0.187357 0
M  V30 1896 H 183.736 3.55915 -1.77678 0
M  V30 1897 H 180.475 4.73311 -4.53495 0
M  V30 1898 H 179.995 5.24924 -2.90198 0
M  V30 1899 H 181.674 5.47133 -3.45332 0
M  V30 1900 N 181.806 0.884767 1.30421 0
M  V30 1901 C 183.054 0.502112 1.95763 0
M  V30 1902 C 183.375 -0.951815 1.70192 0
M  V30 1903 O 182.645 -1.6692 1.0254 0
M  V30 1904 H 181.225 0.182694 0.724315 0
M  V30 1905 H 183.887 1.1278 1.58955 0
M  V30 1906 H 182.983 0.672188 3.04775 0
M  V30 1907 N 183.284 -1.43765 0.645699 0
M  V30 1908 C 184.7 -1.56509 0.312591 0
M  V30 1909 C 184.9 -1.6307 -1.18365 0
M  V30 1910 O 183.956 -1.58167 -1.96824 0
M  V30 1911 C 185.269 -2.82968 1.01733 0
M  V30 1912 C 186.817 -2.96701 0.996865 0
M  V30 1913 C 187.292 -4.25982 1.68236 0
M  V30 1914 N 188.783 -4.32829 1.64964 0
M  V30 1915 C 189.518 -5.31613 2.14885 0
M  V30 1916 N 189.014 -6.36718 2.73061 0
M  V30 1917 N 190.807 -5.23217 2.05428 0
M  V30 1918 H 182.958 -1.3775 1.61675 0
M  V30 1919 H 185.221 -0.661067 0.679481 0
M  V30 1920 H 184.927 -2.84156 2.0724 0
M  V30 1921 H 184.801 -3.72957 0.564177 0
M  V30 1922 H 187.188 -2.95058 -0.0497719 0
M  V30 1923 H 187.269 -2.08022 1.48865 0
M  V30 1924 H 186.913 -4.28386 2.72852 0
M  V30 1925 H 186.843 -5.13545 1.16529 0
M  V30 1926 H 189.334 -3.57493 1.22503 0
M  V30 1927 H 189.647 -7.08401 3.08848 0
M  V30 1928 H 187.992 -6.37362 2.77118 0
M  V30 1929 H 191.183 -4.40019 1.59689 0
M  V30 1930 H 191.356 -6.00045 2.44643 0
M  V30 1931 N 184.763 -0.387143 -1.52771 0
M  V30 1932 C 186.009 0.196025 -2.0185 0
M  V30 1933 C 186.342 1.46641 -1.27319 0
M  V30 1934 O 185.617 1.90889 -0.373032 0
M  V30 1935 C 185.9 0.466136 -3.5707 0
M  V30 1936 C 185.753 -0.819385 -4.42274 0
M  V30 1937 C 187.072 1.25768 -4.21747 0
M  V30 1938 H 184.191 0.0697708 -0.73369 0
M  V30 1939 H 186.833 -0.516286 -1.82851 0
M  V30 1940 H 184.983 1.07293 -3.7339 0
M  V30 1941 H 186.655 -1.4563 -4.37709 0
M  V30 1942 H 184.898 -1.43517 -4.09372 0
M  V30 1943 H 185.569 -0.585065 -5.48891 0
M  V30 1944 H 188.045 0.744167 -4.09391 0
M  V30 1945 H 186.921 1.41541 -5.30337 0
M  V30 1946 H 187.182 2.27228 -3.79236 0
M  V30 1947 N 186.241 1.57166 -0.116904 0
M  V30 1948 C 187.466 1.999 0.55271 0
M  V30 1949 C 187.891 0.996039 1.59564 0
M  V30 1950 O 187.249 -0.032556 1.81271 0
M  V30 1951 C 187.297 3.4152 1.15742 0
M  V30 1952 O 186.401 3.44106 2.27299 0
M  V30 1953 H 185.742 0.649447 0.138258 0
M  V30 1954 H 188.272 2.03573 -0.204759 0
M  V30 1955 H 188.282 3.79684 1.49346 0
M  V30 1956 H 186.957 4.14034 0.393493 0
M  V30 1957 H 185.534 3.17759 1.9515 0
M  V30 1958 N 187.719 -0.156864 1.56817 0
M  V30 1959 C 188.967 -0.869404 1.82444 0
M  V30 1960 C 189.288 -1.82147 0.69623 0
M  V30 1961 O 188.558 -1.93847 -0.28287 0
M  V30 1962 H 187.138 -0.324043 0.673056 0
M  V30 1963 H 189.8 -0.153224 1.94297 0
M  V30 1964 H 188.896 -1.43761 2.77019 0
M  V30 1965 N 189.197 -1.51736 -0.425897 0
M  V30 1966 C 190.443 -1.65214 -1.1761 0
M  V30 1967 C 190.776 -0.372778 -1.90589 0
M  V30 1968 O 190.051 0.628139 -1.84078 0
M  V30 1969 C 190.334 -2.86312 -2.18398 0
M  V30 1970 C 190.187 -4.24254 -1.49426 0
M  V30 1971 C 191.506 -3.02925 -3.19256 0
M  V30 1972 H 188.625 -0.601263 -0.426206 0
M  V30 1973 H 191.267 -1.8425 -0.463882 0
M  V30 1974 H 189.417 -2.70213 -2.79137 0
M  V30 1975 H 191.089 -4.52046 -0.919362 0
M  V30 1976 H 189.332 -4.26426 -0.796432 0
M  V30 1977 H 190.003 -5.05001 -2.22885 0
M  V30 1978 H 192.479 -3.1781 -2.68581 0
M  V30 1979 H 191.355 -3.89199 -3.8706 0
M  V30 1980 H 191.616 -2.15497 -3.86023 0
M  V30 1981 N 190.675 0.682077 -1.42076 0
M  V30 1982 C 191.585 1.82535 -1.47371 0
M  V30 1983 C 192.601 1.7017 -0.363079 0
M  V30 1984 O 193.777 1.91848 -0.612875 0
M  V30 1985 C 190.842 3.18624 -1.36674 0
M  V30 1986 C 189.903 3.42999 -2.58167 0
M  V30 1987 C 189.136 4.72595 -2.4797 0
M  V30 1988 O 189.359 5.50006 -1.5116 0
M  V30 1989 O 188.293 4.98054 -3.37974 0
M  V30 1990 H 192.119 1.81023 -2.43853 0
M  V30 1991 H 189.704 0.836887 -1.2376 0
M  V30 1992 H 191.586 3.99847 -1.33043 0
M  V30 1993 H 190.261 3.20789 -0.433138 0
M  V30 1994 H 189.168 2.61653 -2.67373 0
M  V30 1995 H 190.501 3.45659 -3.50401 0
M  V30 1996 N 192.153 1.28127 0.917671 0
M  V30 1997 C 193.393 1.163 1.68088 0
M  V30 1998 C 193.757 -0.284515 1.8988 0
M  V30 1999 O 194.958 -0.525413 2.63615 0
M  V30 2000 C 193.229 1.93546 3.00457 0
M  V30 2001 S 194.788 1.98048 3.91564 0
M  V30 2002 H 191.606 0.415005 0.577315 0
M  V30 2003 H 194.208 1.62173 1.09179 0
M  V30 2004 H 192.912 2.97888 2.82295 0
M  V30 2005 H 192.443 1.48207 3.64415 0
M  V30 2006 H 194.458 1.08415 4.84211 0
M  V30 2007 N 193.631 -1.12557 1.10312 0
M  V30 2008 C 194.564 -2.1737 0.694674 0
M  V30 2009 C 195.542 -1.59745 -0.303373 0
M  V30 2010 O 196.726 -1.87408 -0.202578 0
M  V30 2011 C 193.853 -3.38691 0.0248052 0
M  V30 2012 C 192.899 -4.14943 0.986121 0
M  V30 2013 S 193.732 -4.73413 2.50281 0
M  V30 2014 C 194.888 -5.9807 1.84562 0
M  V30 2015 H 195.121 -2.5168 1.58255 0
M  V30 2016 H 192.654 -1.23998 0.919992 0
M  V30 2017 H 194.612 -4.08959 -0.355361 0
M  V30 2018 H 193.273 -3.02664 -0.839851 0
M  V30 2019 H 192.466 -5.01854 0.464651 0
M  V30 2020 H 192.068 -3.50377 1.30813 0
M  V30 2021 H 194.36 -6.67232 1.17507 0
M  V30 2022 H 195.303 -6.54841 2.69423 0
M  V30 2023 H 195.711 -5.49073 1.31069 0
M  V30 2024 N 195.109 -0.891671 -1.2995 0
M  V30 2025 C 196.358 -0.509521 -1.95158 0
M  V30 2026 C 196.671 0.947388 -1.71125 0
M  V30 2027 O 197.877 1.43669 -2.30372 0
M  V30 2028 C 196.333 -0.860315 -3.49466 0
M  V30 2029 C 195.941 -2.33545 -3.8231 0
M  V30 2030 C 197.685 -0.547687 -4.20952 0
M  V30 2031 C 195.592 -2.62752 -5.29826 0
M  V30 2032 H 194.522 -0.18682 -0.730489 0
M  V30 2033 H 197.173 -1.08756 -1.47798 0
M  V30 2034 H 195.555 -0.211285 -3.95436 0
M  V30 2035 H 196.729 -3.02936 -3.47227 0
M  V30 2036 H 195.044 -2.61629 -3.23944 0
M  V30 2037 H 197.641 -0.742854 -5.29515 0
M  V30 2038 H 197.984 0.51332 -4.13123 0
M  V30 2039 H 198.517 -1.1542 -3.80688 0
M  V30 2040 H 195.256 -3.6762 -5.42712 0
M  V30 2041 H 194.776 -1.97977 -5.66185 0
M  V30 2042 H 196.455 -2.48601 -5.97333 0
M  V30 2043 N 196.587 1.43421 -0.653314 0
M  V30 2044 C 197.836 2.01032 -0.164076 0
M  V30 2045 C 198.149 1.52147 1.22926 0
M  V30 2046 O 199.355 2.02031 1.81371 0
M  V30 2047 C 197.811 3.59082 -0.24252 0
M  V30 2048 C 197.419 4.1696 -1.63855 0
M  V30 2049 C 199.163 4.24079 0.18911 0
M  V30 2050 C 197.07 5.67304 -1.67092 0
M  V30 2051 H 196 0.751798 -0.0575769 0
M  V30 2052 H 198.651 1.6439 -0.815362 0
M  V30 2053 H 197.033 3.93125 0.476276 0
M  V30 2054 H 198.207 3.94416 -2.38271 0
M  V30 2055 H 196.522 3.64335 -2.01616 0
M  V30 2056 H 199.119 5.34381 0.184775 0
M  V30 2057 H 199.462 3.98005 1.22056 0
M  V30 2058 H 199.995 3.94918 -0.477938 0
M  V30 2059 H 196.734 5.98145 -2.68146 0
M  V30 2060 H 196.254 5.91904 -0.970014 0
M  V30 2061 H 197.933 6.31344 -1.4147 0
M  V30 2062 N 198.065 0.39524 1.52563 0
M  V30 2063 C 199.028 -0.425001 2.25225 0
M  V30 2064 C 200.028 -0.985266 1.27079 0
M  V30 2065 O 201.218 -0.866332 1.5113 0
M  V30 2066 C 198.35 -1.59686 3.01186 0
M  V30 2067 H 199.543 0.211233 2.99155 0
M  V30 2068 H 197.096 0.147472 1.55603 0
M  V30 2069 H 197.831 -2.27035 2.31572 0
M  V30 2070 H 197.616 -1.20176 3.73229 0
M  V30 2071 H 199.106 -2.17743 3.5634 0
M  V30 2072 N 199.544 -1.57102 0.125237 0
M  V30 2073 C 200.492 -2.16905 -0.839927 0
M  V30 2074 C 201.486 -1.11998 -1.27094 0
M  V30 2075 O 202.692 -1.3029 -1.24195 0
M  V30 2076 H 199.067 -0.694252 -0.288995 0
M  V30 2077 H 201.038 -2.96774 -0.311115 0
M  V30 2078 C 199.787 -2.78795 -2.07771 0
M  V30 2079 H 199.11 -3.59221 -1.755 0
M  V30 2080 H 200.55 -3.2417 -2.73295 0
M  V30 2081 C 199.009 -1.76193 -2.87155 0
M  V30 2082 O 199.539 -1.21909 -3.82755 0
M  V30 2083 N 197.745 -1.45991 -2.51267 0
M  V30 2084 H 197.292 -1.90325 -1.73592 0
M  V30 2085 H 197.25 -0.775844 -3.04677 0
M  V30 2086 N 201.022 0.148545 -1.56898 0
M  V30 2087 C 202.299 0.890019 -1.74178 0
M  V30 2088 C 202.679 1.99407 -0.692839 0
M  V30 2089 O 202.027 2.26671 0.288505 0
M  V30 2090 C 202.237 1.43389 -3.18183 0
M  V30 2091 C 203.585 1.89791 -3.79822 0
M  V30 2092 O 204.609 1.53134 -3.21603 0
M  V30 2093 O 203.468 2.57387 -4.82093 0
M  V30 2094 H 200.562 0.420496 -0.712118 0
M  V30 2095 H 203.108 0.134591 -1.69165 0
M  V30 2096 H 201.88 0.640383 -3.86024 0
M  V30 2097 H 201.503 2.25287 -3.27615 0
M  V30 2098 N 202.5 1.5196 0.417844 0
M  V30 2099 C 203.463 1.74065 1.49111 0
M  V30 2100 C 204.463 0.610537 1.48758 0
M  V30 2101 O 205.653 0.87832 1.50437 0
M  V30 2102 C 202.785 1.81502 2.88565 0
M  V30 2103 H 203.978 2.69869 1.30807 0
M  V30 2104 H 201.531 1.42244 0.647785 0
M  V30 2105 H 202.266 0.875813 3.1225 0
M  V30 2106 H 202.051 2.63651 2.90225 0
M  V30 2107 H 203.541 2.00376 3.66387 0
M  V30 2108 N 203.978 -0.674533 1.42435 0
M  V30 2109 C 205.206 -1.46283 1.46317 0
M  V30 2110 C 205.621 -1.88653 0.0745836 0
M  V30 2111 O 204.978 -1.58151 -0.91074 0
M  V30 2112 C 205.029 -2.71178 2.3905 0
M  V30 2113 O 204.75 -2.30586 3.72507 0
M  V30 2114 C 206.251 -3.64738 2.51955 0
M  V30 2115 H 203.471 -0.450104 0.497642 0
M  V30 2116 H 206.015 -0.828792 1.86953 0
M  V30 2117 H 204.17 -3.3077 2.01667 0
M  V30 2118 H 204.584 -3.11241 4.22172 0
M  V30 2119 H 206.058 -4.49096 3.20962 0
M  V30 2120 H 206.535 -4.10656 1.55752 0
M  V30 2121 H 207.141 -3.11038 2.90061 0
M  V30 2122 N 205.456 -1.28612 -0.910864 0
M  V30 2123 C 206.702 -1.16106 -1.66274 0
M  V30 2124 C 207.035 0.289113 -1.92036 0
M  V30 2125 O 206.31 1.21 -1.52281 0
M  V30 2126 C 206.593 -1.96309 -3.01885 0
M  V30 2127 C 206.446 -3.49405 -2.8326 0
M  V30 2128 C 207.765 -1.78076 -4.02463 0
M  V30 2129 H 204.884 -0.423152 -0.603417 0
M  V30 2130 H 207.526 -1.57961 -1.05586 0
M  V30 2131 H 205.676 -1.60742 -3.53687 0
M  V30 2132 H 207.348 -3.94894 -2.38446 0
M  V30 2133 H 205.591 -3.74893 -2.18261 0
M  V30 2134 H 206.262 -4.00784 -3.79574 0
M  V30 2135 H 208.738 -2.0912 -3.59733 0
M  V30 2136 H 207.614 -2.36561 -4.95308 0
M  V30 2137 H 207.875 -0.733008 -4.35981 0
M  V30 2138 N 206.934 1.1197 -1.10907 0
M  V30 2139 C 207.881 2.17846 -0.762345 0
M  V30 2140 C 208.851 1.63995 0.263599 0
M  V30 2141 O 210.036 1.90273 0.141773 0
M  V30 2142 C 207.176 3.44487 -0.205651 0
M  V30 2143 C 206.289 4.12369 -1.28748 0
M  V30 2144 C 205.424 5.26674 -0.691919 0
M  V30 2145 C 204.463 5.86431 -1.75399 0
M  V30 2146 N 203.6 6.92142 -1.17833 0
M  V30 2147 H 208.44 2.46851 -1.6694 0
M  V30 2148 H 205.977 1.21188 -0.833776 0
M  V30 2149 H 207.935 4.16981 0.135037 0
M  V30 2150 H 206.565 3.15884 0.664613 0
M  V30 2151 H 205.617 3.38003 -1.74522 0
M  V30 2152 H 206.929 4.52844 -2.09125 0
M  V30 2153 H 206.083 6.05953 -0.300963 0
M  V30 2154 H 204.822 4.8749 0.143232 0
M  V30 2155 H 203.827 5.05835 -2.15432 0
M  V30 2156 H 205.052 6.27685 -2.59208 0
M  V30 2157 H 202.998 6.54985 -0.364725 0
M  V30 2158 H 202.915 7.31242 -1.91887 0
M  V30 2159 H 204.183 7.75237 -0.81408 0
M  V30 2160 N 208.412 0.89855 1.29475 0
M  V30 2161 C 209.66 0.522847 1.9522 0
M  V30 2162 C 209.981 -0.93371 1.71192 0
M  V30 2163 O 209.251 -1.65823 1.04305 0
M  V30 2164 H 207.831 0.190366 0.722336 0
M  V30 2165 H 210.493 1.14459 1.5775 0
M  V30 2166 H 209.589 0.704476 3.04045 0
M  V30 2167 N 209.89 -1.43072 0.660911 0
M  V30 2168 C 211.138 -2.01323 0.177094 0
M  V30 2169 C 211.459 -1.5245 -1.2159 0
M  V30 2170 O 210.729 -0.740322 -1.81373 0
M  V30 2171 H 209.309 -0.744382 0.0624804 0
M  V30 2172 H 211.971 -1.75179 0.854305 0
M  V30 2173 H 211.067 -3.11649 0.167641 0
M  V30 2174 N 211.368 -0.403325 -1.52352 0
M  V30 2175 C 212.331 0.413051 -2.25447 0
M  V30 2176 C 213.331 0.978513 -1.276 0
M  V30 2177 O 214.521 0.858305 -1.51587 0
M  V30 2178 C 211.653 1.58087 -3.02029 0
M  V30 2179 H 212.846 -0.227094 -2.99039 0
M  V30 2180 H 210.399 -0.155722 -1.55522 0
M  V30 2181 H 211.134 2.25804 -2.32772 0
M  V30 2182 H 210.919 1.18195 -3.73861 0
M  V30 2183 H 212.409 2.1585 -3.57489 0
M  V30 2184 N 212.846 1.57033 -0.133567 0
M  V30 2185 C 214.076 1.99754 0.527429 0
M  V30 2186 C 214.484 1.01245 1.59832 0
M  V30 2187 O 213.827 -0.000645496 1.837 0
M  V30 2188 C 213.889 3.38903 1.19939 0
M  V30 2189 C 213.553 4.56174 0.274709 0
M  V30 2190 C 214.55 5.17563 -0.492398 0
M  V30 2191 C 212.235 5.01972 0.18153 0
M  V30 2192 C 214.229 6.2315 -1.34027 0
M  V30 2193 C 211.916 6.07416 -0.669958 0
M  V30 2194 C 212.914 6.67874 -1.42947 0
M  V30 2195 O 212.602 7.71279 -2.2668 0
M  V30 2196 H 212.334 0.660702 0.142999 0
M  V30 2197 H 214.888 2.04207 -0.221099 0
M  V30 2198 H 213.118 3.31248 1.99528 0
M  V30 2199 H 214.807 3.65818 1.75875 0
M  V30 2200 H 215.573 4.83087 -0.430367 0
M  V30 2201 H 211.452 4.54652 0.762422 0
M  V30 2202 H 214.996 6.70268 -1.93357 0
M  V30 2203 H 210.893 6.41321 -0.73333 0
M  V30 2204 H 211.661 7.88441 -2.1978 0
M  V30 2205 N 214.325 -0.140222 1.56975 0
M  V30 2206 C 215.555 -0.865181 1.87612 0
M  V30 2207 C 215.963 -1.74942 0.72055 0
M  V30 2208 O 215.306 -1.80917 -0.318561 0
M  V30 2209 C 215.368 -1.76782 3.13031 0
M  V30 2210 C 215.032 -1.06005 4.44536 0
M  V30 2211 C 216.029 -0.410768 5.18275 0
M  V30 2212 C 213.714 -1.04754 4.91255 0
M  V30 2213 C 215.708 0.241572 6.36942 0
M  V30 2214 C 213.395 -0.391394 6.09845 0
M  V30 2215 C 214.393 0.252029 6.82535 0
M  V30 2216 O 214.081 0.897757 7.98871 0
M  V30 2217 H 213.813 -0.255188 0.625983 0
M  V30 2218 H 216.367 -0.135653 2.04952 0
M  V30 2219 H 214.597 -2.53846 2.91718 0
M  V30 2220 H 216.286 -2.36533 3.29859 0
M  V30 2221 H 217.052 -0.412195 4.83245 0
M  V30 2222 H 212.931 -1.53777 4.34596 0
M  V30 2223 H 216.475 0.744375 6.93617 0
M  V30 2224 H 212.372 -0.387656 6.44335 0
M  V30 2225 H 213.14 0.800102 8.1458 0
M  V30 2226 N 215.803 -1.52179 -0.40978 0
M  V30 2227 C 217.214 -1.58377 -0.988615 0
M  V30 2228 C 217.565 -0.423879 -1.91566 0
M  V30 2229 O 216.69 0.455844 -2.11544 0
M  V30 2230 C 217.285 -2.87044 -1.79976 0
M  V30 2231 C 215.844 -2.95722 -2.32863 0
M  V30 2232 C 214.991 -2.53309 -1.12828 0
M  V30 2233 H 217.942 -1.57558 -0.190039 0
M  V30 2234 H 217.963 -2.7236 -2.65707 0
M  V30 2235 H 217.475 -3.71444 -1.12478 0
M  V30 2236 H 215.576 -2.15814 -3.03735 0
M  V30 2237 H 215.689 -3.99951 -2.63773 0
M  V30 2238 H 214.053 -2.07142 -1.48204 0
M  V30 2239 H 214.836 -3.40082 -0.46897 0
M  V30 2240 N 217.281 0.66697 -1.42791 0
M  V30 2241 C 218.527 1.4291 -1.43891 0
M  V30 2242 C 218.86 1.94114 -0.0578972 0
M  V30 2243 O 218.135 1.71414 0.91911 0
M  V30 2244 C 218.418 2.62049 -2.46987 0
M  V30 2245 C 218.271 2.16426 -3.94309 0
M  V30 2246 C 219.59 3.64266 -2.46978 0
M  V30 2247 H 216.709 0.518306 -0.523954 0
M  V30 2248 H 219.351 0.757321 -1.74255 0
M  V30 2249 H 217.501 3.19361 -2.21225 0
M  V30 2250 H 219.173 1.64221 -4.31079 0
M  V30 2251 H 217.416 1.47925 -4.078 0
M  V30 2252 H 218.087 3.02038 -4.62036 0
M  V30 2253 H 220.563 3.16686 -2.69906 0
M  V30 2254 H 219.439 4.45196 -3.21079 0
M  V30 2255 H 219.7 4.15927 -1.49857 0
M  V30 2256 N 218.759 1.29093 0.90403 0
M  V30 2257 C 219.987 1.19689 1.68766 0
M  V30 2258 C 220.402 -0.243113 1.87228 0
M  V30 2259 O 219.759 -1.16326 1.40621 0
M  V30 2260 C 219.81 1.90144 3.07453 0
M  V30 2261 O 219.531 3.2852 2.89838 0
M  V30 2262 C 221.032 1.87162 4.01852 0
M  V30 2263 H 218.252 0.415035 0.527244 0
M  V30 2264 H 220.796 1.7039 1.13082 0
M  V30 2265 H 218.951 1.43289 3.59926 0
M  V30 2266 H 219.365 3.63944 3.77684 0
M  V30 2267 H 220.839 2.41032 4.96596 0
M  V30 2268 H 221.316 0.84617 4.30972 0
M  V30 2269 H 221.922 2.33741 3.5531 0
M  V30 2270 N 220.237 -1.11381 1.11499 0
M  V30 2271 C 221.483 -1.83403 0.865512 0
M  V30 2272 C 221.816 -1.84459 -0.607329 0
M  V30 2273 O 221.091 -1.29811 -1.44842 0
M  V30 2274 C 221.374 -3.30552 1.42855 0
M  V30 2275 C 221.227 -3.37886 2.96906 0
M  V30 2276 C 222.546 -4.26643 1.08 0
M  V30 2277 H 219.665 -0.665879 0.31587 0
M  V30 2278 H 222.307 -1.30601 1.37998 0
M  V30 2279 H 220.457 -3.75648 0.990985 0
M  V30 2280 H 222.129 -3.01343 3.49271 0
M  V30 2281 H 220.372 -2.78088 3.32941 0
M  V30 2282 H 221.043 -4.41458 3.31389 0
M  V30 2283 H 223.519 -3.89729 1.45775 0
M  V30 2284 H 222.395 -5.27986 1.50072 0
M  V30 2285 H 222.656 -4.42099 -0.00915037 0
M  V30 2286 N 221.715 -0.905404 -1.28997 0
M  V30 2287 C 222.662 -0.385892 -2.27551 0
M  V30 2288 C 223.632 0.535113 -1.57244 0
M  V30 2289 O 224.817 0.459119 -1.85194 0
M  V30 2290 C 221.957 0.375461 -3.43051 0
M  V30 2291 C 221.07 -0.577092 -4.28128 0
M  V30 2292 C 220.205 0.201879 -5.30816 0
M  V30 2293 C 219.244 -0.744829 -6.07551 0
M  V30 2294 N 218.381 9.42587e-05 -7.021 0
M  V30 2295 H 223.221 -1.23139 -2.71368 0
M  V30 2296 H 220.758 -0.618542 -1.33463 0
M  V30 2297 H 222.716 0.832992 -4.088 0
M  V30 2298 H 221.346 1.18537 -3.00248 0
M  V30 2299 H 220.398 -1.15315 -3.62501 0
M  V30 2300 H 221.71 -1.30152 -4.8152 0
M  V30 2301 H 220.864 0.720351 -6.02408 0
M  V30 2302 H 219.603 0.959413 -4.7817 0
M  V30 2303 H 218.608 -1.27475 -5.34818 0
M  V30 2304 H 219.833 -1.50178 -6.62286 0
M  V30 2305 H 217.779 0.739791 -6.51815 0
M  V30 2306 H 217.696 -0.664321 -7.53076 0
M  V30 2307 H 218.964 0.498644 -7.77903 0
M  V30 2308 N 223.193 1.4272 -0.668489 0
M  V30 2309 C 224.14 2.30796 0.0137489 0
M  V30 2310 C 225.11 1.4561 0.799177 0
M  V30 2311 O 226.295 1.74453 0.772702 0
M  V30 2312 C 223.435 3.31377 0.963507 0
M  V30 2313 C 222.548 4.31655 0.172569 0
M  V30 2314 C 221.683 5.19312 1.1175 0
M  V30 2315 C 220.722 6.11274 0.317886 0
M  V30 2316 N 219.859 6.91504 1.2152 0
M  V30 2317 H 224.699 2.88585 -0.743161 0
M  V30 2318 H 222.236 1.42154 -0.378226 0
M  V30 2319 H 224.194 3.88214 1.52792 0
M  V30 2320 H 222.824 2.75202 1.68712 0
M  V30 2321 H 221.876 3.76988 -0.508374 0
M  V30 2322 H 223.188 4.96779 -0.448527 0
M  V30 2323 H 222.342 5.80851 1.75206 0
M  V30 2324 H 221.081 4.5435 1.77249 0
M  V30 2325 H 220.086 5.48809 -0.329918 0
M  V30 2326 H 221.311 6.78283 -0.332917 0
M  V30 2327 H 219.257 6.29176 1.85671 0
M  V30 2328 H 219.174 7.53209 0.649036 0
M  V30 2329 H 220.442 7.57535 1.83742 0
M  V30 2330 N 224.671 0.411399 1.52136 0
M  V30 2331 C 225.603 -0.448386 2.24771 0
M  V30 2332 C 226.616 -1.00828 1.27818 0
M  V30 2333 O 227.805 -0.906841 1.53749 0
M  V30 2334 C 224.905 -1.63636 2.96777 0
M  V30 2335 C 224.078 -1.19995 4.20618 0
M  V30 2336 C 223.137 -2.25509 4.75428 0
M  V30 2337 O 222.163 -1.86007 5.3795 0
M  V30 2338 N 223.365 -3.577 4.57199 0
M  V30 2339 H 226.13 0.174025 2.99194 0
M  V30 2340 H 223.691 0.238897 1.60128 0
M  V30 2341 H 225.683 -2.33793 3.30338 0
M  V30 2342 H 224.253 -2.16465 2.25526 0
M  V30 2343 H 223.473 -0.326421 3.92846 0
M  V30 2344 H 224.761 -0.885365 5.01038 0
M  V30 2345 H 224.159 -3.92543 4.07341 0
M  V30 2346 H 222.716 -4.23827 4.95191 0
M  V30 2347 N 226.149 -1.5696 0.141893 0
M  V30 2348 C 227.079 -2.19516 -0.795936 0
M  V30 2349 C 228.06 -1.14187 -1.26077 0
M  V30 2350 O 229.245 -1.42511 -1.31925 0
M  V30 2351 C 226.375 -2.81272 -2.03723 0
M  V30 2352 C 225.329 -3.92384 -1.70936 0
M  V30 2353 C 224.655 -4.41052 -3.02287 0
M  V30 2354 C 225.955 -5.13403 -0.959954 0
M  V30 2355 H 227.649 -2.98138 -0.274596 0
M  V30 2356 H 225.195 -1.43406 -0.130636 0
M  V30 2357 H 227.148 -3.237 -2.69808 0
M  V30 2358 H 225.872 -1.99973 -2.58221 0
M  V30 2359 H 224.531 -3.50566 -1.07232 0
M  V30 2360 H 224.179 -3.56582 -3.54765 0
M  V30 2361 H 223.879 -5.15993 -2.81114 0
M  V30 2362 H 225.403 -4.86146 -3.69451 0
M  V30 2363 H 226.817 -5.52706 -1.52279 0
M  V30 2364 H 225.214 -5.94073 -0.848357 0
M  V30 2365 H 226.284 -4.84875 0.0492434 0
M  V30 2366 N 227.627 0.131896 -1.57047 0
M  V30 2367 C 229.043 0.485031 -1.52051 0
M  V30 2368 C 229.243 1.82563 -0.85281 0
M  V30 2369 O 228.299 2.48817 -0.429694 0
M  V30 2370 C 229.612 0.481409 -2.96821 0
M  V30 2371 C 231.16 0.565868 -3.07842 0
M  V30 2372 C 231.635 0.592762 -4.54148 0
M  V30 2373 N 233.126 0.654564 -4.58552 0
M  V30 2374 C 233.861 0.696608 -5.69153 0
M  V30 2375 N 233.357 0.697078 -6.89284 0
M  V30 2376 N 235.15 0.738639 -5.57226 0
M  V30 2377 H 227.301 -0.746664 -1.98843 0
M  V30 2378 H 229.564 -0.273999 -0.90754 0
M  V30 2379 H 229.27 -0.435731 -3.4899 0
M  V30 2380 H 229.144 1.3139 -3.53577 0
M  V30 2381 H 231.531 1.47343 -2.55684 0
M  V30 2382 H 231.612 -0.29406 -2.54104 0
M  V30 2383 H 231.256 -0.310701 -5.06949 0
M  V30 2384 H 231.186 1.46939 -5.05684 0
M  V30 2385 H 233.677 0.660887 -3.72076 0
M  V30 2386 H 233.99 0.731426 -7.69331 0
M  V30 2387 H 232.335 0.66471 -6.91814 0
M  V30 2388 H 235.526 0.735545 -4.62285 0
M  V30 2389 H 235.699 0.767938 -6.43434 0
M  V30 2390 N 229.106 1.52395 0.401703 0
M  V30 2391 C 230.069 1.75636 1.47257 0
M  V30 2392 C 231.069 0.62628 1.48103 0
M  V30 2393 O 232.259 0.894227 1.49497 0
M  V30 2394 C 229.391 1.84553 2.86624 0
M  V30 2395 H 230.584 2.71241 1.27938 0
M  V30 2396 H 228.137 1.42923 0.632662 0
M  V30 2397 H 228.872 0.908882 3.11303 0
M  V30 2398 H 228.657 2.66715 2.87412 0
M  V30 2399 H 230.147 2.04251 3.64241 0
M  V30 2400 N 230.584 -0.659388 1.43143 0
M  V30 2401 C 231.516 -1.7849 1.43784 0
M  V30 2402 C 232.529 -1.5932 0.334787 0
M  V30 2403 O 233.718 -1.68155 0.598842 0
M  V30 2404 C 230.818 -3.15828 1.22906 0
M  V30 2405 C 229.991 -3.61711 2.45934 0
M  V30 2406 C 229.05 -4.77831 2.20371 0
M  V30 2407 O 228.076 -4.87586 2.93681 0
M  V30 2408 N 229.278 -5.67611 1.21647 0
M  V30 2409 H 232.043 -1.7842 2.40803 0
M  V30 2410 H 229.604 -0.84302 1.3822 0
M  V30 2411 H 231.596 -3.91189 1.03697 0
M  V30 2412 H 230.166 -3.10707 0.343542 0
M  V30 2413 H 229.386 -2.76861 2.80609 0
M  V30 2414 H 230.674 -3.89112 3.27825 0
M  V30 2415 H 230.072 -5.62397 0.610449 0
M  V30 2416 H 228.629 -6.42719 1.08423 0
M  V30 2417 N 232.062 -1.29571 -0.897171 0
M  V30 2418 C 232.972 -1.16808 -2.03453 0
M  V30 2419 C 233.988 -0.0907471 -1.73763 0
M  V30 2420 O 235.164 -0.303312 -1.99103 0
M  V30 2421 C 232.229 -0.848264 -3.36163 0
M  V30 2422 C 231.29 -2.0097 -3.79354 0
M  V30 2423 C 230.523 -1.70505 -5.05731 0
M  V30 2424 O 230.746 -0.62718 -5.66941 0
M  V30 2425 O 229.68 -2.5538 -5.45036 0
M  V30 2426 H 233.506 -2.12325 -2.17144 0
M  V30 2427 H 231.091 -1.09047 -1.02123 0
M  V30 2428 H 232.973 -0.684581 -4.15802 0
M  V30 2429 H 231.648 0.0771071 -3.23608 0
M  V30 2430 H 230.555 -2.22863 -3.00471 0
M  V30 2431 H 231.888 -2.91636 -3.96496 0
M  V30 2432 N 233.54 1.10788 -1.12088 0
M  V30 2433 C 234.789 1.82036 -0.868659 0
M  V30 2434 C 235.102 1.85929 0.607426 0
M  V30 2435 O 236.308 2.53346 0.97613 0
M  V30 2436 C 234.764 3.26951 -1.50435 0
M  V30 2437 C 234.372 3.31367 -3.01496 0
M  V30 2438 C 236.116 4.03053 -1.33225 0
M  V30 2439 C 234.023 4.7072 -3.58017 0
M  V30 2440 H 232.953 0.682108 -0.321318 0
M  V30 2441 H 235.604 1.24618 -1.34694 0
M  V30 2442 H 233.986 3.84343 -0.953735 0
M  V30 2443 H 235.16 2.83819 -3.6302 0
M  V30 2444 H 233.475 2.6875 -3.18061 0
M  V30 2445 H 236.072 5.05981 -1.72878 0
M  V30 2446 H 236.415 4.15387 -0.275529 0
M  V30 2447 H 236.948 3.52066 -1.85188 0
M  V30 2448 H 233.687 4.63585 -4.63432 0
M  V30 2449 H 233.207 5.1865 -3.01268 0
M  V30 2450 H 234.886 5.39685 -3.56859 0
M  V30 2451 N 235.018 0.912232 1.28515 0
M  V30 2452 C 235.981 0.404223 2.25607 0
M  V30 2453 C 236.981 -0.468602 1.53821 0
M  V30 2454 O 238.171 -0.271873 1.72065 0
M  V30 2455 C 235.303 -0.420653 3.38295 0
M  V30 2456 H 236.496 1.26188 2.7206 0
M  V30 2457 H 234.049 0.691495 1.40171 0
M  V30 2458 H 234.784 -1.29777 2.97201 0
M  V30 2459 H 234.569 0.204935 3.91564 0
M  V30 2460 H 236.059 -0.766971 4.10496 0
M  V30 2461 N 236.496 -1.42363 0.676048 0
M  V30 2462 C 237.429 -2.28141 -0.0516916 0
M  V30 2463 C 238.407 -1.41135 -0.807439 0
M  V30 2464 O 239.591 -1.70573 -0.802305 0
M  V30 2465 C 236.718 -3.21007 -1.08039 0
M  V30 2466 C 235.764 -4.24426 -0.420076 0
M  V30 2467 S 236.597 -5.29134 0.823246 0
M  V30 2468 C 237.753 -6.25566 -0.204344 0
M  V30 2469 H 237.986 -2.89515 0.675884 0
M  V30 2470 H 235.519 -1.47211 0.465635 0
M  V30 2471 H 237.477 -3.75048 -1.66881 0
M  V30 2472 H 236.138 -2.58766 -1.78042 0
M  V30 2473 H 235.331 -4.89596 -1.19633 0
M  V30 2474 H 234.933 -3.7388 0.0947845 0
M  V30 2475 H 237.225 -6.69098 -1.06369 0
M  V30 2476 H 238.168 -7.06895 0.412915 0
M  V30 2477 H 238.576 -5.61811 -0.55038 0
M  V30 2478 N 237.974 -0.419461 -1.51915 0
M  V30 2479 C 238.906 0.43646 -2.25006 0
M  V30 2480 C 239.919 1.00149 -1.28351 0
M  V30 2481 O 241.108 0.898674 -1.54227 0
M  V30 2482 C 238.208 1.6206 -2.9764 0
M  V30 2483 C 237.381 1.17763 -4.21249 0
M  V30 2484 C 236.44 2.22985 -4.76617 0
M  V30 2485 O 235.466 1.83151 -5.38929 0
M  V30 2486 N 236.668 3.55271 -4.59089 0
M  V30 2487 H 239.433 -0.18989 -2.99098 0
M  V30 2488 H 236.994 -0.247386 -1.59999 0
M  V30 2489 H 238.986 2.32038 -3.31573 0
M  V30 2490 H 237.556 2.15266 -2.2667 0
M  V30 2491 H 236.776 0.305582 -3.93014 0
M  V30 2492 H 238.064 0.858781 -5.015 0
M  V30 2493 H 237.462 3.90377 -4.09417 0
M  V30 2494 H 236.019 4.21195 -4.97432 0
M  V30 2495 N 239.452 1.56882 -0.150215 0
M  V30 2496 C 240.4 2.18214 0.805313 0
M  V30 2497 C 241.394 1.14006 1.25296 0
M  V30 2498 O 242.6 1.3225 1.22107 0
M  V30 2499 H 238.975 0.698762 0.277913 0
M  V30 2500 H 240.946 2.97231 0.263862 0
M  V30 2501 C 239.695 2.82065 2.03309 0
M  V30 2502 H 239.018 3.61968 1.69763 0
M  V30 2503 H 240.458 3.28477 2.68103 0
M  V30 2504 C 238.917 1.80739 2.84315 0
M  V30 2505 O 239.447 1.27983 3.80767 0
M  V30 2506 N 237.653 1.4997 2.48913 0
M  V30 2507 H 237.2 1.93062 1.70542 0
M  V30 2508 H 237.158 0.824217 3.03404 0
M  V30 2509 N 240.93 -0.123565 1.57115 0
M  V30 2510 C 242.346 -0.476961 1.52306 0
M  V30 2511 C 242.546 -1.82109 0.86248 0
M  V30 2512 O 241.602 -2.48586 0.442884 0
M  V30 2513 C 242.915 -0.465661 2.97073 0
M  V30 2514 C 244.463 -0.549534 3.08138 0
M  V30 2515 C 244.938 -0.568669 4.54456 0
M  V30 2516 N 246.429 -0.630237 4.58892 0
M  V30 2517 C 247.164 -0.666415 5.69514 0
M  V30 2518 N 246.66 -0.660514 6.89644 0
M  V30 2519 N 248.453 -0.709077 5.5761 0
M  V30 2520 H 240.604 0.757198 1.98445 0
M  V30 2521 H 242.867 0.278808 0.906074 0
M  V30 2522 H 242.573 0.454232 3.48754 0
M  V30 2523 H 242.447 -1.29513 3.54269 0
M  V30 2524 H 244.834 -1.45985 2.56461 0
M  V30 2525 H 244.915 0.307532 2.53945 0
M  V30 2526 H 244.559 0.337581 5.06777 0
M  V30 2527 H 244.489 -1.44256 5.06456 0
M  V30 2528 H 246.98 -0.641146 3.72421 0
M  V30 2529 H 247.293 -0.690616 7.69708 0
M  V30 2530 H 245.638 -0.628012 6.92157 0
M  V30 2531 H 248.829 -0.711019 4.62668 0
M  V30 2532 H 249.002 -0.733804 6.43832 0
M  V30 2533 N 242.408 -1.52605 -0.393616 0
M  V30 2534 C 243.338 -1.80022 -1.48709 0
M  V30 2535 C 244.319 -0.651995 -1.57108 0
M  V30 2536 O 245.504 -0.89913 -1.72132 0
M  V30 2537 C 242.634 -1.96492 -2.86371 0
M  V30 2538 C 241.588 -3.12161 -2.92813 0
M  V30 2539 C 240.914 -3.13877 -4.3288 0
M  V30 2540 C 242.214 -4.51322 -2.6288 0
M  V30 2541 H 243.908 -2.71589 -1.26015 0
M  V30 2542 H 241.454 -1.30684 -0.604778 0
M  V30 2543 H 243.407 -2.14255 -3.62867 0
M  V30 2544 H 242.131 -1.01611 -3.10391 0
M  V30 2545 H 240.79 -2.94173 -2.18764 0
M  V30 2546 H 240.438 -2.16687 -4.53933 0
M  V30 2547 H 240.138 -3.91576 -4.38112 0
M  V30 2548 H 241.662 -3.33789 -5.1129 0
M  V30 2549 H 243.076 -4.69435 -3.29096 0
M  V30 2550 H 241.473 -5.31053 -2.79468 0
M  V30 2551 H 242.543 -4.58353 -1.58242 0
M  V30 2552 N 243.887 0.651787 -1.4349 0
M  V30 2553 C 245.298 1.233 -1.40193 0
M  V30 2554 C 245.649 1.9591 -0.106727 0
M  V30 2555 O 244.774 2.01316 0.793773 0
M  V30 2556 C 245.369 2.24257 -2.53957 0
M  V30 2557 C 243.928 2.77852 -2.5392 0
M  V30 2558 C 243.075 1.52517 -2.3159 0
M  V30 2559 H 246.026 0.443717 -1.52371 0
M  V30 2560 H 246.047 3.0646 -2.25528 0
M  V30 2561 H 245.559 1.71382 -3.4821 0
M  V30 2562 H 243.66 3.34786 -1.63551 0
M  V30 2563 H 243.773 3.25299 -3.51735 0
M  V30 2564 H 242.137 1.79915 -1.80285 0
M  V30 2565 H 242.92 1.01574 -3.27929 0
M  V30 2566 N 245.365 1.30045 0.890287 0
M  V30 2567 C 246.605 1.19839 1.65584 0
M  V30 2568 C 246.969 -0.244175 1.90441 0
M  V30 2569 O 248.17 -0.469378 2.6467 0
M  V30 2570 C 246.441 1.99876 2.96284 0
M  V30 2571 S 248 2.06309 3.87275 0
M  V30 2572 H 244.818 0.427157 0.568382 0
M  V30 2573 H 247.42 1.64453 1.05715 0
M  V30 2574 H 246.124 3.03809 2.75913 0
M  V30 2575 H 245.655 1.55903 3.61189 0
M  V30 2576 H 247.67 1.18661 4.81803 0
M  V30 2577 N 246.843 -1.10192 1.12674 0
M  V30 2578 C 248.092 -1.81573 0.8783 0
M  V30 2579 C 248.405 -1.86249 -0.597557 0
M  V30 2580 O 249.611 -2.5386 -0.962681 0
M  V30 2581 C 248.067 -3.26149 1.52167 0
M  V30 2582 C 247.675 -3.29763 3.03249 0
M  V30 2583 C 249.419 -4.0234 1.3536 0
M  V30 2584 C 247.326 -4.68815 3.60508 0
M  V30 2585 H 246.256 -0.680394 0.324931 0
M  V30 2586 H 248.907 -1.23902 1.35353 0
M  V30 2587 H 247.289 -3.83832 0.974104 0
M  V30 2588 H 248.463 -2.8189 3.6452 0
M  V30 2589 H 246.778 -2.67059 3.19481 0
M  V30 2590 H 249.375 -5.05058 1.75559 0
M  V30 2591 H 249.718 -4.15235 0.297554 0
M  V30 2592 H 250.251 -3.51079 1.87052 0
M  V30 2593 H 246.99 -4.61121 4.65884 0
M  V30 2594 H 246.51 -5.17045 3.04014 0
M  V30 2595 H 248.189 -5.37785 3.59717 0
M  V30 2596 N 248.321 -0.919034 -1.28029 0
M  V30 2597 C 249.551 -0.570143 -1.98577 0
M  V30 2598 C 249.959 0.854172 -1.68821 0
M  V30 2599 O 249.302 1.57807 -0.940351 0
M  V30 2600 C 249.364 -0.705734 -3.52505 0
M  V30 2601 C 249.028 -2.10057 -4.05863 0
M  V30 2602 C 250.025 -3.07385 -4.19298 0
M  V30 2603 C 247.71 -2.41517 -4.40426 0
M  V30 2604 C 249.704 -4.34287 -4.66555 0
M  V30 2605 C 247.391 -3.68657 -4.87376 0
M  V30 2606 C 248.389 -4.64856 -5.00398 0
M  V30 2607 O 248.077 -5.89735 -5.46322 0
M  V30 2608 H 247.809 -0.215592 -0.6407 0
M  V30 2609 H 250.363 -1.23583 -1.64062 0
M  V30 2610 H 248.593 0.0170414 -3.86696 0
M  V30 2611 H 250.282 -0.363172 -4.04272 0
M  V30 2612 H 251.048 -2.84398 -3.92865 0
M  V30 2613 H 246.927 -1.67389 -4.29537 0
M  V30 2614 H 250.471 -5.09377 -4.76635 0
M  V30 2615 H 246.368 -3.91466 -5.13249 0
M  V30 2616 H 247.136 -5.92599 -5.64596 0
M  V30 2617 N 249.799 1.42003 -0.683588 0
M  V30 2618 C 250.729 2.33487 -0.024866 0
M  V30 2619 C 251.71 1.51163 0.779975 0
M  V30 2620 O 252.895 1.79739 0.735362 0
M  V30 2621 C 250.025 3.3487 0.920836 0
M  V30 2622 C 248.979 4.27414 0.223958 0
M  V30 2623 C 248.305 5.19074 1.2832 0
M  V30 2624 C 249.605 5.14445 -0.90242 0
M  V30 2625 H 251.299 2.88819 -0.788921 0
M  V30 2626 H 248.845 1.38873 -0.38083 0
M  V30 2627 H 250.798 3.97787 1.39081 0
M  V30 2628 H 249.522 2.77861 1.71642 0
M  V30 2629 H 248.181 3.65904 -0.225864 0
M  V30 2630 H 247.829 4.58387 2.071 0
M  V30 2631 H 247.529 5.81822 0.821995 0
M  V30 2632 H 249.053 5.84867 1.75392 0
M  V30 2633 H 250.467 5.70998 -0.513272 0
M  V30 2634 H 248.864 5.86072 -1.28997 0
M  V30 2635 H 249.934 4.52322 -1.74737 0
M  V30 2636 N 251.277 0.427512 1.51691 0
M  V30 2637 C 252.523 -0.142439 2.02299 0
M  V30 2638 C 252.856 -1.43214 1.31162 0
M  V30 2639 O 252.131 -1.89833 0.423511 0
M  V30 2640 C 252.414 -0.371301 3.58181 0
M  V30 2641 C 252.267 0.936358 4.39946 0
M  V30 2642 C 253.586 -1.14542 4.24933 0
M  V30 2643 H 250.705 -0.0502937 0.735282 0
M  V30 2644 H 253.347 0.564584 1.81418 0
M  V30 2645 H 251.497 -0.973559 3.76104 0
M  V30 2646 H 253.169 1.57184 4.33694 0
M  V30 2647 H 251.412 1.5432 4.05423 0
M  V30 2648 H 252.083 0.730388 5.47147 0
M  V30 2649 H 254.559 -0.635362 4.11221 0
M  V30 2650 H 253.435 -1.27431 5.33903 0
M  V30 2651 H 253.696 -2.17093 3.85127 0
M  V30 2652 N 252.755 -1.56801 0.158532 0
M  V30 2653 C 254.032 -1.88131 -0.535357 0
M  V30 2654 C 254.412 -1.06638 -1.82186 0
M  V30 2655 O 253.76 -0.156533 -2.27963 0
M  V30 2656 C 253.97 -3.39949 -0.789653 0
M  V30 2657 C 255.318 -4.09416 -1.12533 0
M  V30 2658 O 256.342 -3.45194 -0.878622 0
M  V30 2659 O 255.201 -5.22855 -1.59014 0
M  V30 2660 H 252.295 -0.780143 -0.27442 0
M  V30 2661 H 254.841 -1.68564 0.19601 0
M  V30 2662 H 253.613 -3.91115 0.120353 0
M  V30 2663 H 253.236 -3.65084 -1.57479 0
M  V30 2664 N 254.233 0.115231 -1.57178 0
M  V30 2665 C 255.458 0.840354 -1.89612 0
M  V30 2666 C 255.883 1.72464 -0.750845 0
M  V30 2667 O 255.241 1.78826 0.298478 0
M  V30 2668 C 255.289 1.64654 -3.20814 0
M  V30 2669 O 254.393 2.7538 -3.06985 0
M  V30 2670 H 253.734 0.232158 -0.622092 0
M  V30 2671 H 256.264 0.0964977 -2.04372 0
M  V30 2672 H 256.274 2.03499 -3.53627 0
M  V30 2673 H 254.949 0.997416 -4.03763 0
M  V30 2674 H 253.526 2.3971 -2.85646 0
M  V30 2675 N 255.711 1.52812 0.385517 0
M  V30 2676 C 256.959 1.67694 1.12797 0
M  V30 2677 C 257.28 0.421115 1.90399 0
M  V30 2678 O 256.55 -0.564551 1.87589 0
M  V30 2679 H 255.13 0.618155 0.419396 0
M  V30 2680 H 257.792 1.89938 0.436972 0
M  V30 2681 H 256.888 2.52896 1.82894 0
M  V30 2682 N 257.189 -0.644168 1.43834 0
M  V30 2683 C 258.437 -1.40117 1.45642 0
M  V30 2684 C 258.758 -1.94814 0.0852413 0
M  V30 2685 O 258.028 -1.74988 -0.880688 0
M  V30 2686 H 256.608 -0.52005 0.536243 0
M  V30 2687 H 259.27 -0.7591 1.7951 0
M  V30 2688 H 258.366 -2.23902 2.17427 0
M  V30 2689 N 258.668 -1.30515 -0.883378 0
M  V30 2690 C 259.631 -1.1701 -1.97082 0
M  V30 2691 C 260.631 -0.10089 -1.60483 0
M  V30 2692 O 261.821 -0.349127 -1.70666 0
M  V30 2693 C 258.953 -0.793045 -3.31547 0
M  V30 2694 H 260.146 -2.13622 -2.10489 0
M  V30 2695 H 257.699 -1.13935 -1.06998 0
M  V30 2696 H 258.434 0.172499 -3.23841 0
M  V30 2697 H 258.219 -1.56576 -3.5948 0
M  V30 2698 H 259.709 -0.722073 -4.1131 0
M  V30 2699 N 260.146 1.09593 -1.13257 0
M  V30 2700 C 261.376 1.85231 -0.915049 0
M  V30 2701 C 261.784 1.81345 0.539498 0
M  V30 2702 O 261.127 1.20664 1.38513 0
M  V30 2703 C 261.189 3.34275 -1.3229 0
M  V30 2704 C 260.853 3.6191 -2.79052 0
M  V30 2705 C 261.85 3.57777 -3.77216 0
M  V30 2706 C 259.535 3.90309 -3.16171 0
M  V30 2707 C 261.529 3.81652 -5.1051 0
M  V30 2708 C 259.216 4.13839 -4.49644 0
M  V30 2709 C 260.214 4.09502 -5.46623 0
M  V30 2710 O 259.902 4.32426 -6.77689 0
M  V30 2711 H 259.634 0.591997 -0.326367 0
M  V30 2712 H 262.188 1.394 -1.50854 0
M  V30 2713 H 260.418 3.80805 -0.672667 0
M  V30 2714 H 262.107 3.9132 -1.07812 0
M  V30 2715 H 262.873 3.35865 -3.49885 0
M  V30 2716 H 258.752 3.92811 -2.41289 0
M  V30 2717 H 262.296 3.78182 -5.86195 0
M  V30 2718 H 258.193 4.35232 -4.767 0
M  V30 2719 H 258.961 4.49896 -6.83766 0
M  V30 2720 N 261.624 0.925811 1.2754 0
M  V30 2721 C 262.554 0.440748 2.29303 0
M  V30 2722 C 263.535 -0.497971 1.62648 0
M  V30 2723 O 264.72 -0.403126 1.8997 0
M  V30 2724 C 261.85 -0.309048 3.45922 0
M  V30 2725 C 260.804 0.54166 4.24559 0
M  V30 2726 C 260.13 -0.337191 5.33636 0
M  V30 2727 C 261.43 1.80516 4.90114 0
M  V30 2728 H 263.124 1.29121 2.70126 0
M  V30 2729 H 260.67 0.622323 1.29858 0
M  V30 2730 H 262.623 -0.659315 4.1621 0
M  V30 2731 H 261.347 -1.19352 3.04011 0
M  V30 2732 H 260.006 0.874609 3.56014 0
M  V30 2733 H 259.654 -1.22056 4.87966 0
M  V30 2734 H 259.354 0.228497 5.87156 0
M  V30 2735 H 260.878 -0.683072 6.06767 0
M  V30 2736 H 262.292 1.52307 5.52698 0
M  V30 2737 H 260.689 2.3142 5.53683 0
M  V30 2738 H 261.759 2.52581 4.13921 0
M  V30 2739 N 263.102 -1.41638 0.69111 0
M  V30 2740 C 264.513 -1.84346 0.295517 0
M  V30 2741 C 264.864 -1.57833 -1.16547 0
M  V30 2742 O 263.989 -1.04648 -1.89414 0
M  V30 2743 C 264.584 -3.34636 0.529575 0
M  V30 2744 C 263.143 -3.7593 0.187944 0
M  V30 2745 C 262.29 -2.65082 0.814052 0
M  V30 2746 H 265.241 -1.31253 0.892092 0
M  V30 2747 H 265.262 -3.79903 -0.213148 0
M  V30 2748 H 264.774 -3.53901 1.59297 0
M  V30 2749 H 262.875 -3.62268 -0.871367 0
M  V30 2750 H 262.988 -4.74808 0.63985 0
M  V30 2751 H 261.352 -2.53528 0.244017 0
M  V30 2752 H 262.135 -2.87167 1.88123 0
M  V30 2753 N 264.58 -0.43555 -1.51462 0
M  V30 2754 C 265.996 -0.0877501 -1.59359 0
M  V30 2755 C 266.196 1.4027 -1.4466 0
M  V30 2756 O 265.252 2.17243 -1.28693 0
M  V30 2757 C 266.565 -0.606264 -2.94525 0
M  V30 2758 C 268.113 -0.566548 -3.0783 0
M  V30 2759 C 268.588 -1.06201 -4.45517 0
M  V30 2760 N 270.079 -1.01992 -4.51832 0
M  V30 2761 C 270.814 -1.37417 -5.5669 0
M  V30 2762 N 270.31 -1.80119 -6.68976 0
M  V30 2763 N 272.103 -1.29245 -5.47039 0
M  V30 2764 H 264.254 -1.40533 -1.59261 0
M  V30 2765 H 266.517 -0.578992 -0.750648 0
M  V30 2766 H 266.223 -1.64901 -3.10645 0
M  V30 2767 H 266.097 -0.0302097 -3.77188 0
M  V30 2768 H 268.484 0.467208 -2.91378 0
M  V30 2769 H 268.565 -1.17898 -2.2701 0
M  V30 2770 H 268.209 -2.09422 -4.62715 0
M  V30 2771 H 268.139 -0.426127 -5.24873 0
M  V30 2772 H 270.63 -0.706308 -3.71241 0
M  V30 2773 H 270.943 -2.05392 -7.45006 0
M  V30 2774 H 269.288 -1.84044 -6.70189 0
M  V30 2775 H 272.479 -0.957522 -4.58202 0
M  V30 2776 H 272.652 -1.57182 -6.28648 0
M  V30 2777 N 266.058 1.56714 -0.166846 0
M  V30 2778 C 266.99 2.14914 0.796537 0
M  V30 2779 C 268.003 1.10357 1.19688 0
M  V30 2780 O 269.192 1.37561 1.13751 0
M  V30 2781 C 266.292 2.67326 2.08303 0
M  V30 2782 C 265.465 3.96493 1.84696 0
M  V30 2783 C 264.524 4.34014 2.97521 0
M  V30 2784 O 263.55 5.01973 2.6835 0
M  V30 2785 N 264.752 3.95208 4.25196 0
M  V30 2786 H 267.517 2.98205 0.299006 0
M  V30 2787 H 265.078 1.61892 0.0160839 0
M  V30 2788 H 267.07 2.89428 2.82867 0
M  V30 2789 H 265.64 1.88649 2.4926 0
M  V30 2790 H 264.86 3.82814 0.940602 0
M  V30 2791 H 266.148 4.8086 1.66285 0
M  V30 2792 H 265.546 3.40487 4.51758 0
M  V30 2793 H 264.103 4.2232 4.96477 0
M  V30 2794 N 267.536 -0.106894 1.57237 0
M  V30 2795 C 268.499 -1.11466 2.0027 0
M  V30 2796 C 269.499 -1.33623 0.894519 0
M  V30 2797 O 270.689 -1.29935 1.16028 0
M  V30 2798 C 267.821 -2.46646 2.35327 0
M  V30 2799 H 269.014 -0.744516 2.90512 0
M  V30 2800 H 266.567 -0.351576 1.52295 0
M  V30 2801 H 267.302 -2.88558 1.48003 0
M  V30 2802 H 267.087 -2.31915 3.16161 0
M  V30 2803 H 268.577 -3.19151 2.69318 0
M  V30 2804 N 269.014 -1.53014 -0.377408 0
M  V30 2805 C 270.291 -1.59215 -1.13622 0
M  V30 2806 C 270.671 -0.392407 -2.07421 0
M  V30 2807 O 270.019 0.618342 -2.19975 0
M  V30 2808 C 270.229 -2.93669 -1.88573 0
M  V30 2809 C 271.577 -3.47822 -2.43526 0
M  V30 2810 O 272.601 -2.9562 -1.98715 0
M  V30 2811 O 271.46 -4.39055 -3.25412 0
M  V30 2812 H 268.554 -0.642625 -0.52054 0
M  V30 2813 H 271.1 -1.65353 -0.381625 0
M  V30 2814 H 269.872 -3.7243 -1.20048 0
M  V30 2815 H 269.495 -2.90968 -2.70968 0
M  V30 2816 N 270.492 0.636531 -1.44174 0
M  V30 2817 C 271.738 1.39826 -1.4689 0
M  V30 2818 C 272.071 1.93947 -0.0990585 0
M  V30 2819 O 271.346 1.73325 0.882544 0
M  V30 2820 C 271.629 2.56751 -2.5249 0
M  V30 2821 C 271.482 2.08014 -3.98811 0
M  V30 2822 C 272.801 3.58946 -2.54649 0
M  V30 2823 H 269.92 0.507075 -0.53483 0
M  V30 2824 H 272.562 0.720188 -1.75822 0
M  V30 2825 H 270.712 3.14597 -2.2795 0
M  V30 2826 H 272.384 1.5504 -4.34466 0
M  V30 2827 H 270.627 1.39242 -4.10846 0
M  V30 2828 H 271.298 2.92169 -4.68339 0
M  V30 2829 H 273.774 3.1089 -2.76563 0
M  V30 2830 H 272.65 4.38286 -3.3045 0
M  V30 2831 H 272.911 4.12655 -1.58646 0
M  V30 2832 N 271.97 1.30982 0.876444 0
M  V30 2833 C 273.217 1.20296 1.62896 0
M  V30 2834 C 273.545 -0.240395 1.93009 0
M  V30 2835 O 272.8 -1.18733 1.55567 0
M  V30 2836 C 273.099 1.98572 2.9716 0
M  V30 2837 C 272.765 3.48125 2.86566 0
M  V30 2838 C 271.427 3.88905 2.83383 0
M  V30 2839 C 273.779 4.43322 2.74071 0
M  V30 2840 C 271.107 5.2316 2.65556 0
M  V30 2841 C 273.459 5.77695 2.57781 0
M  V30 2842 C 272.123 6.17704 2.52979 0
M  V30 2843 H 271.393 0.440193 0.59608 0
M  V30 2844 H 274.04 1.62177 1.01837 0
M  V30 2845 H 272.345 1.49352 3.62217 0
M  V30 2846 H 274.042 1.8769 3.54364 0
M  V30 2847 H 270.632 3.15723 2.89856 0
M  V30 2848 H 274.816 4.12752 2.75589 0
M  V30 2849 H 270.072 5.53241 2.60259 0
M  V30 2850 H 274.246 6.51091 2.47089 0
M  V30 2851 H 271.873 7.21678 2.38924 0
M  V30 2852 N 273.449 -1.08991 1.13837 0
M  V30 2853 C 274.86 -1.62746 0.914917 0
M  V30 2854 C 275.211 -1.88403 -0.547594 0
M  V30 2855 O 274.336 -1.63706 -1.41525 0
M  V30 2856 C 274.931 -2.95662 1.65437 0
M  V30 2857 C 273.49 -3.46225 1.47666 0
M  V30 2858 C 272.637 -2.20562 1.6807 0
M  V30 2859 H 275.588 -0.922946 1.29102 0
M  V30 2860 H 275.609 -3.63825 1.11407 0
M  V30 2861 H 275.121 -2.76956 2.71877 0
M  V30 2862 H 273.222 -3.70046 0.435478 0
M  V30 2863 H 273.335 -4.23368 2.24268 0
M  V30 2864 H 271.699 -2.29439 1.10589 0
M  V30 2865 H 272.482 -2.0437 2.7584 0
M  V30 2866 N 274.927 -0.932562 -1.27047 0
M  V30 2867 C 276.204 -0.49377 -1.89265 0
M  V30 2868 C 276.584 1.02833 -1.8436 0
M  V30 2869 O 275.932 1.88461 -1.29209 0
M  V30 2870 C 276.142 -1.04536 -3.32976 0
M  V30 2871 C 277.49 -1.10879 -4.09867 0
M  V30 2872 O 278.514 -0.995327 -3.42011 0
M  V30 2873 O 277.373 -1.28417 -5.31198 0
M  V30 2874 H 274.467 -0.159596 -0.811454 0
M  V30 2875 H 277.013 -1.02457 -1.3528 0
M  V30 2876 H 275.785 -2.08913 -3.30864 0
M  V30 2877 H 275.408 -0.496494 -3.94488 0
M  V30 2878 N 276.405 1.4127 -0.698611 0
M  V30 2879 C 277.821 1.55241 -0.370462 0
M  V30 2880 C 278.021 1.67351 1.12231 0
M  V30 2881 O 277.077 1.65363 1.90818 0
M  V30 2882 C 278.39 2.78997 -1.12165 0
M  V30 2883 C 279.938 2.92797 -1.1063 0
M  V30 2884 C 280.413 4.19445 -1.8393 0
M  V30 2885 N 281.904 4.26409 -1.80914 0
M  V30 2886 C 282.639 5.23271 -2.34467 0
M  V30 2887 N 282.135 6.26145 -2.96504 0
M  V30 2888 N 283.928 5.15232 -2.24706 0
M  V30 2889 H 276.079 1.31654 -1.66676 0
M  V30 2890 H 278.342 0.635393 -0.703548 0
M  V30 2891 H 278.048 2.76268 -2.17644 0
M  V30 2892 H 277.922 3.70606 -0.702209 0
M  V30 2893 H 280.309 2.95039 -0.0597713 0
M  V30 2894 H 280.39 2.02353 -1.56483 0
M  V30 2895 H 280.034 4.17964 -2.88563 0
M  V30 2896 H 279.964 5.08866 -1.35509 0
M  V30 2897 H 282.455 3.527 -1.35687 0
M  V30 2898 H 282.768 6.96451 -3.34927 0
M  V30 2899 H 281.113 6.26638 -3.00583 0
M  V30 2900 H 284.304 4.33789 -1.7591 0
M  V30 2901 H 284.477 5.90552 -2.66745 0
M  V30 2902 N 277.883 0.443576 1.51229 0
M  V30 2903 C 279.16 -0.181038 1.9476 0
M  V30 2904 C 279.54 -1.59523 1.38259 0
M  V30 2905 O 278.888 -2.2122 0.572198 0
M  V30 2906 C 279.098 -0.152422 3.48667 0
M  V30 2907 C 280.446 -0.354923 4.23114 0
M  V30 2908 O 281.47 -0.230257 3.55455 0
M  V30 2909 O 280.329 -0.603674 5.43156 0
M  V30 2910 H 277.423 -0.1266 0.817252 0
M  V30 2911 H 279.969 0.502004 1.62105 0
M  V30 2912 H 278.741 0.836022 3.82265 0
M  V30 2913 H 278.364 -0.878107 3.87782 0
M  V30 2914 N 279.361 -1.56624 0.175154 0
M  V30 2915 C 280.311 -2.14747 -0.766004 0
M  V30 2916 C 281.295 -1.08275 -1.19018 0
M  V30 2917 O 282.487 -1.34388 -1.15191 0
M  V30 2918 C 279.616 -2.79478 -1.99366 0
M  V30 2919 C 278.702 -3.93114 -1.5913 0
M  V30 2920 N 279.093 -4.97752 -0.89872 0
M  V30 2921 C 277.391 -4.04345 -1.88204 0
M  V30 2922 C 278.092 -5.77473 -0.700012 0
M  V30 2923 N 277.068 -5.29207 -1.24263 0
M  V30 2924 H 280.87 -2.93015 -0.22793 0
M  V30 2925 H 278.384 -1.6238 -0.0253843 0
M  V30 2926 H 280.381 -3.19498 -2.67818 0
M  V30 2927 H 279.041 -2.02692 -2.53665 0
M  V30 2928 H 280.052 -5.14903 -0.556347 0
M  V30 2929 H 276.729 -3.38667 -2.44153 0
M  V30 2930 H 278.119 -6.71728 -0.152047 0
M  V30 2931 N 280.839 0.0985539 -1.57292 0
M  V30 2932 C 282.086 0.802678 -1.85912 0
M  V30 2933 C 282.414 1.78901 -0.763186 0
M  V30 2934 O 281.669 1.94178 0.243559 0
M  V30 2935 C 281.968 1.56927 -3.21105 0
M  V30 2936 C 281.634 0.725376 -4.45027 0
M  V30 2937 C 280.296 0.492726 -4.78671 0
M  V30 2938 C 282.648 0.138493 -5.21016 0
M  V30 2939 C 279.976 -0.336727 -5.85733 0
M  V30 2940 C 282.328 -0.678264 -6.28953 0
M  V30 2941 C 280.992 -0.921039 -6.61115 0
M  V30 2942 H 280.262 0.293721 -0.680301 0
M  V30 2943 H 282.909 0.0642841 -1.91392 0
M  V30 2944 H 281.214 2.37914 -3.11294 0
M  V30 2945 H 282.911 2.11841 -3.40477 0
M  V30 2946 H 279.501 0.916815 -4.18679 0
M  V30 2947 H 283.685 0.305404 -4.95359 0
M  V30 2948 H 278.941 -0.533836 -6.09065 0
M  V30 2949 H 283.115 -1.1399 -6.87007 0
M  V30 2950 H 280.742 -1.56556 -7.43905 0
M  V30 2951 N 282.317 1.53212 0.369288 0
M  V30 2952 C 283.565 1.68881 1.11012 0
M  V30 2953 C 283.886 0.441285 1.89941 0
M  V30 2954 O 283.156 -0.544623 1.88177 0
M  V30 2955 H 281.736 0.622569 0.412816 0
M  V30 2956 H 284.398 1.90391 0.416802 0
M  V30 2957 H 283.494 2.54822 1.80201 0
M  V30 2958 N 283.795 -0.628877 1.44509 0
M  V30 2959 C 285.211 -0.947305 1.28446 0
M  V30 2960 C 285.411 -2.00275 0.221872 0
M  V30 2961 O 284.467 -2.49447 -0.391471 0
M  V30 2962 C 285.78 -1.40843 2.65676 0
M  V30 2963 C 287.328 -1.52379 2.73404 0
M  V30 2964 C 287.803 -2.01875 4.11109 0
M  V30 2965 N 289.294 -2.09142 4.13296 0
M  V30 2966 C 290.029 -2.48615 5.16699 0
M  V30 2967 N 289.525 -2.87209 6.30462 0
M  V30 2968 N 291.318 -2.48768 5.04054 0
M  V30 2969 H 283.469 0.0690977 2.12288 0
M  V30 2970 H 285.732 -0.0317164 0.947469 0
M  V30 2971 H 285.438 -0.707206 3.44516 0
M  V30 2972 H 285.312 -2.37902 2.92716 0
M  V30 2973 H 287.699 -2.21598 1.9488 0
M  V30 2974 H 287.78 -0.536898 2.50102 0
M  V30 2975 H 287.424 -1.3325 4.90109 0
M  V30 2976 H 287.354 -3.0144 4.31789 0
M  V30 2977 H 289.845 -1.81991 3.31191 0
M  V30 2978 H 290.158 -3.16149 7.05174 0
M  V30 2979 H 288.503 -2.84955 6.33897 0
M  V30 2980 H 291.694 -2.18009 4.14234 0
M  V30 2981 H 291.867 -2.79207 5.84763 0
M  V30 2982 N 285.273 -1.31445 -0.869486 0
M  V30 2983 C 286.501 -1.24122 -1.65534 0
M  V30 2984 C 286.916 0.193387 -1.87807 0
M  V30 2985 O 286.273 1.12557 -1.43656 0
M  V30 2986 C 286.324 -1.98229 -3.02304 0
M  V30 2987 O 286.045 -3.3609 -2.81026 0
M  V30 2988 C 287.546 -1.97751 -3.96749 0
M  V30 2989 H 284.766 -0.428868 -0.516055 0
M  V30 2990 H 287.31 -1.73328 -1.08525 0
M  V30 2991 H 285.465 -1.52782 -3.56001 0
M  V30 2992 H 285.879 -3.7383 -3.67902 0
M  V30 2993 H 287.353 -2.54114 -4.90031 0
M  V30 2994 H 287.83 -0.960137 -4.28577 0
M  V30 2995 H 288.436 -2.43079 -3.48988 0
M  V30 2996 N 286.751 1.08385 -1.14413 0
M  V30 2997 C 287.998 1.80776 -0.912482 0
M  V30 2998 C 288.326 1.86236 0.560934 0
M  V30 2999 O 287.581 1.33431 1.43159 0
M  V30 3000 C 287.88 3.26273 -1.45879 0
M  V30 3001 C 287.546 3.4093 -2.95089 0
M  V30 3002 C 286.208 3.44638 -3.35824 0
M  V30 3003 C 288.56 3.44591 -3.91033 0
M  V30 3004 C 285.888 3.49597 -4.71167 0
M  V30 3005 C 288.24 3.51086 -5.26233 0
M  V30 3006 C 286.904 3.53067 -5.6648 0
M  V30 3007 H 286.174 0.661507 -0.333901 0
M  V30 3008 H 288.821 1.27613 -1.42784 0
M  V30 3009 H 287.126 3.82146 -0.864376 0
M  V30 3010 H 288.823 3.80839 -1.2555 0
M  V30 3011 H 285.413 3.38736 -2.62594 0
M  V30 3012 H 289.597 3.40957 -3.60641 0
M  V30 3013 H 284.853 3.49424 -5.0171 0
M  V30 3014 H 289.027 3.52864 -6.00383 0
M  V30 3015 H 286.654 3.56662 -6.71339 0
M  V30 3016 N 288.23 0.939286 1.26551 0
M  V30 3017 C 289.46 0.601663 1.97645 0
M  V30 3018 C 289.868 -0.827206 1.70159 0
M  V30 3019 O 289.211 -1.56291 0.965338 0
M  V30 3020 C 289.273 0.761725 3.51337 0
M  V30 3021 C 288.937 2.16487 4.0247 0
M  V30 3022 C 289.934 3.14016 4.14355 0
M  V30 3023 C 287.619 2.48494 4.36527 0
M  V30 3024 C 289.613 4.41654 4.59587 0
M  V30 3025 C 287.3 3.76364 4.81449 0
M  V30 3026 C 288.298 4.72758 4.92939 0
M  V30 3027 O 287.986 5.98352 5.36871 0
M  V30 3028 H 287.718 0.225758 0.637189 0
M  V30 3029 H 290.272 1.26178 1.62075 0
M  V30 3030 H 288.502 0.0444808 3.86674 0
M  V30 3031 H 290.191 0.427442 4.03643 0
M  V30 3032 H 290.957 2.90613 3.8829 0
M  V30 3033 H 286.836 1.74202 4.26819 0
M  V30 3034 H 290.38 5.16896 4.68471 0
M  V30 3035 H 286.277 3.99582 5.06956 0
M  V30 3036 H 287.045 6.01507 5.55096 0
M  V30 3037 N 289.708 -1.40897 0.706093 0
M  V30 3038 C 290.656 -2.32572 0.0361893 0
M  V30 3039 C 291.65 -1.51532 -0.757266 0
M  V30 3040 O 292.856 -1.67396 -0.661703 0
M  V30 3041 H 289.231 -0.751966 -0.00709935 0
M  V30 3042 H 291.202 -2.86733 0.826249 0
M  V30 3043 C 289.951 -3.36418 -0.87854 0
M  V30 3044 H 289.274 -3.98836 -0.277401 0
M  V30 3045 H 290.714 -4.0308 -1.3154 0
M  V30 3046 C 289.173 -2.71141 -1.99961 0
M  V30 3047 O 289.703 -2.56735 -3.0895 0
M  V30 3048 N 287.909 -2.29671 -1.78043 0
M  V30 3049 H 287.456 -2.41588 -0.894042 0
M  V30 3050 H 287.414 -1.86332 -2.53235 0
M  V30 3051 N 291.186 -0.45159 -1.50991 0
M  V30 3052 C 292.118 0.388634 -2.25881 0
M  V30 3053 C 293.131 0.974041 -1.30446 0
M  V30 3054 O 294.32 0.865758 -1.56099 0
M  V30 3055 C 291.42 1.5571 -3.01011 0
M  V30 3056 C 290.593 1.08801 -4.23652 0
M  V30 3057 C 289.652 2.12825 -4.8124 0
M  V30 3058 O 288.678 1.71678 -5.42693 0
M  V30 3059 N 289.88 3.45453 -4.66522 0
M  V30 3060 H 292.645 -0.25329 -2.98628 0
M  V30 3061 H 290.206 -0.281268 -1.59438 0
M  V30 3062 H 292.198 2.24952 -3.3642 0
M  V30 3063 H 290.768 2.10409 -2.31186 0
M  V30 3064 H 289.988 0.22215 -3.93574 0
M  V30 3065 H 291.276 0.752213 -5.03209 0
M  V30 3066 H 290.674 3.81605 -4.17605 0
M  V30 3067 H 289.231 4.10549 -5.06254 0
M  V30 3068 N 292.664 1.56529 -0.183458 0
M  V30 3069 C 293.627 2.17324 0.728223 0
M  V30 3070 C 294.627 1.12453 1.14939 0
M  V30 3071 O 295.817 1.37902 1.06437 0
M  V30 3072 C 292.949 2.76591 1.99274 0
M  V30 3073 H 294.142 2.99241 0.198772 0
M  V30 3074 H 291.695 1.5616 0.0661391 0
M  V30 3075 H 292.43 1.98441 2.56499 0
M  V30 3076 H 292.215 3.5335 1.69959 0
M  V30 3077 H 293.705 3.23311 2.6431 0
M  V30 3078 N 294.142 -0.090211 1.57342 0
M  V30 3079 C 295.391 -0.791531 1.8552 0
M  V30 3080 C 295.704 -1.79659 0.773441 0
M  V30 3081 O 296.91 -2.54616 0.942497 0
M  V30 3082 C 295.366 -1.45856 3.2902 0
M  V30 3083 C 294.974 -0.493017 4.45279 0
M  V30 3084 C 296.718 -2.14332 3.66418 0
M  V30 3085 C 294.625 -1.16491 5.79814 0
M  V30 3086 H 293.555 -0.299356 0.692027 0
M  V30 3087 H 296.206 -0.0445343 1.83446 0
M  V30 3088 H 294.588 -2.25318 3.2565 0
M  V30 3089 H 295.762 0.270464 4.60006 0
M  V30 3090 H 294.077 0.0863061 4.16311 0
M  V30 3091 H 296.674 -2.65344 4.64216 0
M  V30 3092 H 297.017 -2.93447 2.95287 0
M  V30 3093 H 297.55 -1.41724 3.71698 0
M  V30 3094 H 294.289 -0.41447 6.54188 0
M  V30 3095 H 293.809 -1.8997 5.68921 0
M  V30 3096 H 295.488 -1.69001 6.24538 0
M  V30 3097 N 295.62 -1.53406 -0.361157 0
M  V30 3098 C 296.553 -1.74946 -1.46524 0
M  V30 3099 C 297.531 -0.59795 -1.51206 0
M  V30 3100 O 298.715 -0.831062 -1.69191 0
M  V30 3101 C 295.842 -1.83224 -2.84863 0
M  V30 3102 C 294.888 -3.05233 -2.97885 0
M  V30 3103 S 295.721 -4.6466 -2.66179 0
M  V30 3104 C 296.877 -4.75793 -4.06659 0
M  V30 3105 H 297.11 -2.68319 -1.28033 0
M  V30 3106 H 294.643 -1.44051 -0.555764 0
M  V30 3107 H 296.601 -1.88679 -3.64569 0
M  V30 3108 H 295.262 -0.908948 -3.00661 0
M  V30 3109 H 294.455 -3.07648 -3.9921 0
M  V30 3110 H 294.057 -2.97913 -2.26106 0
M  V30 3111 H 296.349 -4.5612 -5.0096 0
M  V30 3112 H 297.292 -5.7786 -4.09247 0
M  V30 3113 H 297.7 -4.04389 -3.93865 0
M  V30 3114 N 297.098 0.621204 -1.44841 0
M  V30 3115 C 298.323 1.41244 -1.51871 0
M  V30 3116 C 298.748 1.87519 -0.147764 0
M  V30 3117 O 298.106 1.59334 0.865 0
M  V30 3118 C 298.154 2.60221 -2.49634 0
M  V30 3119 O 297.258 3.60395 -2.00473 0
M  V30 3120 H 296.599 0.42223 -0.512463 0
M  V30 3121 H 299.129 0.757305 -1.90069 0
M  V30 3122 H 299.139 3.0764 -2.67996 0
M  V30 3123 H 297.814 2.25887 -3.4921 0
M  V30 3124 H 296.391 3.19717 -1.91925 0
M  V30 3125 N 298.576 1.31904 0.862503 0
M  V30 3126 C 299.801 1.25135 1.65397 0
M  V30 3127 C 300.226 -0.179 1.87246 0
M  V30 3128 O 299.584 -1.1277 1.4196 0
M  V30 3129 C 299.632 2.00832 2.99498 0
M  V30 3130 O 298.736 1.35075 3.89652 0
M  V30 3131 H 298.077 0.431655 0.504549 0
M  V30 3132 H 300.607 1.74094 1.07483 0
M  V30 3133 H 300.617 2.10709 3.49379 0
M  V30 3134 H 299.292 3.04847 2.82916 0
M  V30 3135 H 297.869 1.33696 3.48109 0
M  V30 3136 N 300.054 -1.07777 1.14986 0
M  V30 3137 C 301.001 -2.14867 0.842672 0
M  V30 3138 C 301.971 -1.6486 -0.202552 0
M  V30 3139 O 303.156 -1.90668 -0.0710568 0
M  V30 3140 C 300.296 -3.43486 0.333363 0
M  V30 3141 C 299.409 -4.07306 1.43965 0
M  V30 3142 C 298.544 -5.23744 0.886914 0
M  V30 3143 C 297.583 -5.79517 1.97043 0
M  V30 3144 N 296.72 -6.87291 1.4344 0
M  V30 3145 H 301.56 -2.40485 1.75986 0
M  V30 3146 H 299.097 -1.1801 0.878179 0
M  V30 3147 H 301.055 -4.17195 0.0198163 0
M  V30 3148 H 299.685 -3.18133 -0.546916 0
M  V30 3149 H 298.737 -3.31293 1.86946 0
M  V30 3150 H 300.049 -4.44771 2.25788 0
M  V30 3151 H 299.203 -6.04419 0.525651 0
M  V30 3152 H 297.942 -4.87685 0.0377957 0
M  V30 3153 H 296.947 -4.97491 2.34057 0
M  V30 3154 H 298.172 -6.17632 2.82325 0
M  V30 3155 H 296.118 -6.5318 0.607567 0
M  V30 3156 H 296.035 -7.23617 2.18895 0
M  V30 3157 H 297.303 -7.71682 1.10124 0
M  V30 3158 N 301.532 -0.945985 -1.26051 0
M  V30 3159 C 302.48 -0.450259 -2.282 0
M  V30 3160 C 303.474 0.47497 -1.62605 0
M  V30 3161 O 304.68 0.352653 -1.76512 0
M  V30 3162 H 301.055 -0.127081 -0.741184 0
M  V30 3163 H 303.026 -1.32422 -2.67408 0
M  V30 3164 C 301.775 0.26467 -3.46691 0
M  V30 3165 H 301.098 -0.438123 -3.97392 0
M  V30 3166 H 302.538 0.575678 -4.20074 0
M  V30 3167 C 300.997 1.48416 -3.02447 0
M  V30 3168 O 301.527 2.58227 -3.07704 0
M  V30 3169 N 299.733 1.34243 -2.57735 0
M  V30 3170 H 299.28 0.448994 -2.53657 0
M  V30 3171 H 299.238 2.15957 -2.28495 0
M  V30 3172 N 303.011 1.40521 -0.713556 0
M  V30 3173 C 304.26 2.00155 -0.249192 0
M  V30 3174 C 304.573 1.57224 1.16362 0
M  V30 3175 O 305.779 2.09542 1.72639 0
M  V30 3176 C 304.235 3.5773 -0.3946 0
M  V30 3177 C 303.843 4.09635 -1.81392 0
M  V30 3178 C 305.587 4.24499 0.00907364 0
M  V30 3179 C 303.494 5.59707 -1.91003 0
M  V30 3180 H 302.424 0.74868 -0.0894114 0
M  V30 3181 H 305.075 1.60784 -0.884352 0
M  V30 3182 H 303.457 3.94792 0.30911 0
M  V30 3183 H 304.631 3.83955 -2.54785 0
M  V30 3184 H 302.946 3.55456 -2.16888 0
M  V30 3185 H 305.543 5.34683 -0.0420404 0
M  V30 3186 H 305.886 4.02824 1.05065 0
M  V30 3187 H 306.419 3.92536 -0.645007 0
M  V30 3188 H 303.158 5.86234 -2.93275 0
M  V30 3189 H 302.678 5.87258 -1.22019 0
M  V30 3190 H 304.357 6.24776 -1.6812 0
M  V30 3191 N 304.489 0.459591 1.5075 0
M  V30 3192 C 305.452 -0.329093 2.26825 0
M  V30 3193 C 306.452 -0.930481 1.31144 0
M  V30 3194 O 307.642 -0.801453 1.54669 0
M  V30 3195 C 304.774 -1.46768 3.07688 0
M  V30 3196 H 305.967 0.337924 2.9799 0
M  V30 3197 H 303.52 0.213336 1.54837 0
M  V30 3198 H 304.255 -2.17009 2.40993 0
M  V30 3199 H 304.04 -1.04238 3.77991 0
M  V30 3200 H 305.53 -2.02433 3.65254 0
M  V30 3201 N 305.967 -1.56429 0.191757 0
M  V30 3202 C 306.899 -2.16154 -0.762245 0
M  V30 3203 C 307.912 -1.12247 -1.17917 0
M  V30 3204 O 309.101 -1.39353 -1.11548 0
M  V30 3205 C 306.201 -2.70606 -2.04024 0
M  V30 3206 C 305.374 -3.99381 -1.78364 0
M  V30 3207 C 304.433 -4.38692 -2.90578 0
M  V30 3208 O 303.459 -5.06179 -2.6033 0
M  V30 3209 N 304.661 -4.01922 -4.18854 0
M  V30 3210 H 307.426 -2.98643 -0.251526 0
M  V30 3211 H 304.987 -1.61897 0.00967373 0
M  V30 3212 H 306.979 -2.93891 -2.78227 0
M  V30 3213 H 305.549 -1.9259 -2.46227 0
M  V30 3214 H 304.769 -3.84262 -0.879581 0
M  V30 3215 H 306.057 -4.83445 -1.58614 0
M  V30 3216 H 305.455 -3.47631 -4.46283 0
M  V30 3217 H 304.012 -4.30165 -4.89695 0
M  V30 3218 N 307.445 0.0818655 -1.57387 0
M  V30 3219 C 308.694 0.781681 -1.85937 0
M  V30 3220 C 309.007 1.79246 -0.782957 0
M  V30 3221 O 310.213 2.54112 -0.955987 0
M  V30 3222 C 308.669 1.44109 -3.29789 0
M  V30 3223 C 308.277 0.469396 -4.45534 0
M  V30 3224 C 310.021 2.12386 -3.67549 0
M  V30 3225 C 307.928 1.13415 -5.80423 0
M  V30 3226 H 306.858 0.295682 -0.693605 0
M  V30 3227 H 309.509 0.0348051 -1.83467 0
M  V30 3228 H 307.891 2.23588 -3.2684 0
M  V30 3229 H 309.065 -0.294856 -4.59856 0
M  V30 3230 H 307.38 -0.108383 -4.16259 0
M  V30 3231 H 309.977 2.62878 -4.65617 0
M  V30 3232 H 310.32 2.91877 -2.96839 0
M  V30 3233 H 310.853 1.39751 -3.72444 0
M  V30 3234 H 307.592 0.379771 -6.54399 0
M  V30 3235 H 307.112 1.8695 -5.69921 0
M  V30 3236 H 308.791 1.65686 -6.25426 0
M  V30 3237 N 308.923 1.53595 0.353017 0
M  V30 3238 C 309.886 1.80232 1.41594 0
M  V30 3239 C 310.886 0.673081 1.46035 0
M  V30 3240 O 312.076 0.941335 1.46576 0
M  V30 3241 C 309.208 1.93578 2.80607 0
M  V30 3242 H 310.401 2.75174 1.19244 0
M  V30 3243 H 307.954 1.44864 0.586872 0
M  V30 3244 H 308.689 1.00746 3.08254 0
M  V30 3245 H 308.474 2.75724 2.78781 0
M  V30 3246 H 309.964 2.15735 3.57558 0
M  V30 3247 N 310.401 -0.613514 1.45168 0
M  V30 3248 C 311.647 -1.37471 1.49096 0
M  V30 3249 C 311.98 -1.93765 0.129901 0
M  V30 3250 O 311.255 -1.74707 -0.854858 0
M  V30 3251 C 311.538 -2.52701 2.56542 0
M  V30 3252 C 311.391 -2.01643 4.0207 0
M  V30 3253 C 312.71 -3.54849 2.60327 0
M  V30 3254 H 309.829 -0.498502 0.54283 0
M  V30 3255 H 312.471 -0.692125 1.76945 0
M  V30 3256 H 310.621 -3.10931 2.32926 0
M  V30 3257 H 312.293 -1.48108 4.36877 0
M  V30 3258 H 310.536 -1.32688 4.13009 0
M  V30 3259 H 311.207 -2.84681 4.72928 0
M  V30 3260 H 313.683 -3.0645 2.81474 0
M  V30 3261 H 312.559 -4.32973 3.37381 0
M  V30 3262 H 312.82 -4.10079 1.6519 0
M  V30 3263 N 311.879 -1.3236 -0.855495 0
M  V30 3264 C 313.125 -1.23054 -1.612 0
M  V30 3265 C 313.458 0.207404 -1.93089 0
M  V30 3266 O 312.733 1.14432 -1.57275 0
M  V30 3267 C 313.016 -2.08937 -2.93287 0
M  V30 3268 C 312.869 -3.61105 -2.68185 0
M  V30 3269 C 314.188 -1.94986 -3.94549 0
M  V30 3270 H 311.307 -0.448364 -0.584926 0
M  V30 3271 H 313.949 -1.62297 -0.987917 0
M  V30 3272 H 312.099 -1.75599 -3.46551 0
M  V30 3273 H 313.771 -4.04652 -2.21483 0
M  V30 3274 H 312.014 -3.83813 -2.02164 0
M  V30 3275 H 312.685 -4.16522 -3.62234 0
M  V30 3276 H 315.161 -2.24189 -3.5054 0
M  V30 3277 H 314.037 -2.57356 -4.84829 0
M  V30 3278 H 314.298 -0.917263 -4.3248 0
M  V30 3279 N 313.357 1.07166 -1.15556 0
M  V30 3280 C 314.29 2.13808 -0.797593 0
M  V30 3281 C 315.268 1.6101 0.226812 0
M  V30 3282 O 316.452 1.88161 0.112932 0
M  V30 3283 C 313.579 3.38187 -0.186371 0
M  V30 3284 C 312.625 4.09766 -1.18297 0
M  V30 3285 S 313.458 4.60932 -2.72584 0
M  V30 3286 C 314.614 5.88583 -2.12886 0
M  V30 3287 H 314.847 2.43843 -1.70083 0
M  V30 3288 H 312.38 1.19467 -0.978106 0
M  V30 3289 H 314.338 4.10189 0.159837 0
M  V30 3290 H 312.999 3.06326 0.694489 0
M  V30 3291 H 312.192 4.99065 -0.703562 0
M  V30 3292 H 311.794 3.43736 -1.47381 0
M  V30 3293 H 314.086 6.60866 -1.49208 0
M  V30 3294 H 315.029 6.41241 -3.0036 0
M  V30 3295 H 315.437 5.42194 -1.57116 0
M  V30 3296 N 314.835 0.952656 1.25548 0
M  V30 3297 C 316.083 0.605176 1.92826 0
M  V30 3298 C 316.404 -0.860261 1.74999 0
M  V30 3299 O 315.674 -1.6125 1.11244 0
M  V30 3300 H 314.254 0.220832 0.713612 0
M  V30 3301 H 316.916 1.21047 1.52754 0
M  V30 3302 H 316.012 0.832798 3.00784 0
M  V30 3303 N 316.313 -1.40141 0.720998 0
M  V30 3304 C 317.538 -2.05618 0.271258 0
M  V30 3305 C 317.963 -1.53978 -1.08039 0
M  V30 3306 O 317.321 -0.677463 -1.68167 0
M  V30 3307 C 317.369 -3.59609 0.267197 0
M  V30 3308 O 316.473 -4.05526 -0.749814 0
M  V30 3309 H 315.814 -0.651904 0.126162 0
M  V30 3310 H 318.344 -1.79439 0.982997 0
M  V30 3311 H 318.354 -4.0786 0.106744 0
M  V30 3312 H 317.029 -3.96559 1.25354 0
M  V30 3313 H 315.606 -3.68722 -0.556644 0
M  V30 3314 N 317.792 -0.46758 -1.50504 0
M  V30 3315 C 319.032 0.0874114 -2.04213 0
M  V30 3316 C 319.396 1.37301 -1.34211 0
M  V30 3317 O 320.597 2.01015 -1.78456 0
M  V30 3318 C 318.868 0.270571 -3.56374 0
M  V30 3319 S 320.427 0.784623 -4.31728 0
M  V30 3320 H 317.245 0.0176153 -0.710782 0
M  V30 3321 H 319.847 -0.633915 -1.84937 0
M  V30 3322 H 318.551 -0.670942 -4.04878 0
M  V30 3323 H 318.082 1.01811 -3.79997 0
M  V30 3324 H 320.097 2.05849 -4.51487 0
M  V30 3325 N 319.27 1.56325 -0.20005 0
M  V30 3326 C 320.498 2.02105 0.442874 0
M  V30 3327 C 320.913 1.08014 1.5485 0
M  V30 3328 O 320.27 0.0858797 1.82298 0
M  V30 3329 C 320.321 3.47549 0.994583 0
M  V30 3330 O 320.042 4.38049 -0.0669322 0
M  V30 3331 C 321.543 4.0887 1.7129 0
M  V30 3332 H 318.763 0.661807 0.110691 0
M  V30 3333 H 321.307 2.02134 -0.310207 0
M  V30 3334 H 319.462 3.48204 1.69803 0
M  V30 3335 H 319.876 5.23368 0.344462 0
M  V30 3336 H 321.35 5.12475 2.05118 0
M  V30 3337 H 321.827 3.52615 2.61838 0
M  V30 3338 H 322.433 4.12002 1.05518 0
M  V30 3339 N 320.748 -0.0735177 1.57428 0
M  V30 3340 C 321.711 -1.07192 2.02589 0
M  V30 3341 C 322.711 -1.31695 0.922661 0
M  V30 3342 O 323.901 -1.27445 1.18758 0
M  V30 3343 C 321.033 -2.41599 2.40506 0
M  V30 3344 H 322.226 -0.682727 2.92025 0
M  V30 3345 H 319.779 -0.319193 1.53006 0
M  V30 3346 H 320.514 -2.85354 1.5409 0
M  V30 3347 H 320.299 -2.25156 3.21009 0
M  V30 3348 H 321.789 -3.13367 2.76027 0
M  V30 3349 N 322.226 -1.5378 -0.344866 0
M  V30 3350 C 323.474 -1.70625 -1.08311 0
M  V30 3351 C 323.795 -0.471447 -1.89215 0
M  V30 3352 O 323.065 0.514616 -1.8902 0
M  V30 3353 H 321.645 -0.629058 -0.402859 0
M  V30 3354 H 324.307 -1.9103 -0.386459 0
M  V30 3355 H 323.403 -2.57656 -1.76124 0
M  V30 3356 N 323.704 0.605807 -1.45491 0
M  V30 3357 C 324.952 1.36207 -1.49305 0
M  V30 3358 C 325.273 1.94519 -0.136863 0
M  V30 3359 O 324.543 1.77261 0.833983 0
M  V30 3360 H 323.123 0.50565 -0.549843 0
M  V30 3361 H 325.785 0.711239 -1.81459 0
M  V30 3362 H 324.881 2.18058 -2.23287 0
M  V30 3363 N 325.182 1.32811 0.848464 0
M  V30 3364 C 326.145 1.22194 1.9391 0
M  V30 3365 C 327.145 0.143404 1.60159 0
M  V30 3366 O 328.335 0.394253 1.6968 0
M  V30 3367 C 325.467 0.88067 3.29328 0
M  V30 3368 H 326.66 2.19127 2.04752 0
M  V30 3369 H 324.213 1.16731 1.0394 0
M  V30 3370 H 324.948 -0.0865776 3.24184 0
M  V30 3371 H 324.733 1.66052 3.55203 0
M  V30 3372 H 326.223 0.830871 4.09251 0
M  V30 3373 N 326.66 -1.06551 1.16123 0
M  V30 3374 C 327.89 -1.8274 0.963838 0
M  V30 3375 C 328.298 -1.82712 -0.491228 0
M  V30 3376 O 327.641 -1.24294 -1.35265 0
M  V30 3377 C 327.703 -3.3065 1.41106 0
M  V30 3378 C 327.367 -3.54384 2.88549 0
M  V30 3379 C 328.364 -3.4765 3.86569 0
M  V30 3380 C 326.049 -3.81789 3.26408 0
M  V30 3381 C 328.043 -3.67982 5.2045 0
M  V30 3382 C 325.73 -4.01772 4.60459 0
M  V30 3383 C 326.728 -3.94866 5.57288 0
M  V30 3384 O 326.416 -4.14306 6.88916 0
M  V30 3385 H 326.148 -0.583136 0.341948 0
M  V30 3386 H 328.702 -1.35351 1.54497 0
M  V30 3387 H 326.932 -3.78887 0.773394 0
M  V30 3388 H 328.621 -3.88324 1.1815 0
M  V30 3389 H 329.387 -3.2647 3.58667 0
M  V30 3390 H 325.266 -3.86276 2.51619 0
M  V30 3391 H 328.81 -3.62507 5.96015 0
M  V30 3392 H 324.707 -4.2244 4.88072 0
M  V30 3393 H 325.475 -4.31609 6.95454 0
M  V30 3394 N 328.138 -0.959301 -1.25041 0
M  V30 3395 C 329.384 -0.617525 -1.9317 0
M  V30 3396 C 329.717 0.843981 -1.74902 0
M  V30 3397 O 328.992 1.60615 -1.09696 0
M  V30 3398 C 329.275 -0.982736 -3.46431 0
M  V30 3399 C 329.128 -2.50032 -3.73904 0
M  V30 3400 C 330.447 -0.511176 -4.37121 0
M  V30 3401 H 327.566 -0.22582 -0.701552 0
M  V30 3402 H 330.208 -1.19679 -1.4757 0
M  V30 3403 H 328.358 -0.489806 -3.854 0
M  V30 3404 H 330.03 -3.06737 -3.44544 0
M  V30 3405 H 328.273 -2.93598 -3.19348 0
M  V30 3406 H 328.944 -2.70635 -4.81103 0
M  V30 3407 H 331.42 -0.934075 -4.0548 0
M  V30 3408 H 330.296 -0.795361 -5.43107 0
M  V30 3409 H 330.557 0.588834 -4.38161 0
M  V30 3410 N 329.616 1.39756 -0.72842 0
M  V30 3411 C 331.027 1.83498 -0.344289 0
M  V30 3412 C 331.378 1.60868 1.12321 0
M  V30 3413 O 330.503 1.09634 1.86573 0
M  V30 3414 C 331.098 3.33114 -0.618112 0
M  V30 3415 C 329.657 3.753 -0.287549 0
M  V30 3416 C 328.804 2.62831 -0.884048 0
M  V30 3417 H 331.755 1.28842 -0.926578 0
M  V30 3418 H 331.776 3.80334 0.112349 0
M  V30 3419 H 331.288 3.49553 -1.68625 0
M  V30 3420 H 329.389 3.64451 0.775012 0
M  V30 3421 H 329.502 4.72945 -0.765512 0
M  V30 3422 H 327.866 2.52792 -0.311149 0
M  V30 3423 H 328.649 2.82078 -1.95671 0
M  V30 3424 N 331.094 0.475555 1.50254 0
M  V30 3425 C 332.057 -0.305016 2.27161 0
M  V30 3426 C 333.057 -0.916519 1.32123 0
M  V30 3427 O 334.247 -0.785003 1.5551 0
M  V30 3428 C 331.379 -1.43496 3.09227 0
M  V30 3429 H 332.572 0.369511 2.97615 0
M  V30 3430 H 330.125 0.229747 1.54602 0
M  V30 3431 H 330.86 -2.14441 2.43281 0
M  V30 3432 H 330.645 -1.00223 3.79075 0
M  V30 3433 H 332.135 -1.98548 3.67381 0
M  V30 3434 N 332.573 -1.56217 0.208337 0
M  V30 3435 C 333.506 -2.15633 -0.746842 0
M  V30 3436 C 334.484 -1.09685 -1.20034 0
M  V30 3437 O 335.668 -1.3787 -1.28547 0
M  V30 3438 C 332.795 -2.72594 -2.01023 0
M  V30 3439 C 331.841 -3.91251 -1.69779 0
M  V30 3440 S 332.674 -5.28962 -0.834209 0
M  V30 3441 C 333.83 -5.89353 -2.10745 0
M  V30 3442 H 334.063 -2.96315 -0.241789 0
M  V30 3443 H 331.596 -1.54398 -0.00682183 0
M  V30 3444 H 333.554 -3.06053 -2.73572 0
M  V30 3445 H 332.215 -1.91929 -2.48641 0
M  V30 3446 H 331.408 -4.29562 -2.63614 0
M  V30 3447 H 331.01 -3.58869 -1.05303 0
M  V30 3448 H 333.302 -6.04522 -3.05875 0
M  V30 3449 H 334.245 -6.85661 -1.76845 0
M  V30 3450 H 334.653 -5.1807 -2.24196 0
M  V30 3451 N 334.051 0.0651679 -1.57465 0
M  V30 3452 C 335.014 1.06117 -2.03155 0
M  V30 3453 C 336.014 1.31204 -0.929632 0
M  V30 3454 O 337.204 1.26813 -1.19432 0
M  V30 3455 C 334.336 2.4032 -2.41783 0
M  V30 3456 H 335.529 0.667231 -2.92383 0
M  V30 3457 H 333.082 0.311075 -1.53173 0
M  V30 3458 H 333.817 2.84532 -1.55601 0
M  V30 3459 H 333.602 2.23451 -3.22199 0
M  V30 3460 H 335.092 3.11898 -2.77685 0
M  V30 3461 N 335.529 1.53961 0.336706 0
M  V30 3462 C 336.806 1.62171 1.09361 0
M  V30 3463 C 337.186 0.447263 2.06307 0
M  V30 3464 O 336.534 -0.559802 2.21537 0
M  V30 3465 C 336.744 2.98565 1.80721 0
M  V30 3466 C 338.092 3.54157 2.34218 0
M  V30 3467 O 339.116 3.00784 1.90807 0
M  V30 3468 O 337.975 4.47528 3.13657 0
M  V30 3469 H 335.069 0.6562 0.503319 0
M  V30 3470 H 337.615 1.66307 0.33765 0
M  V30 3471 H 336.387 3.75482 1.10132 0
M  V30 3472 H 336.01 2.9805 2.63158 0
M  V30 3473 N 337.007 -0.598083 1.45811 0
M  V30 3474 C 337.917 -1.73632 1.57763 0
M  V30 3475 C 338.933 -1.67763 0.461676 0
M  V30 3476 O 340.109 -1.87949 0.723685 0
M  V30 3477 C 337.174 -3.10114 1.55018 0
M  V30 3478 C 336.235 -3.27364 2.77726 0
M  V30 3479 C 335.468 -4.57334 2.75102 0
M  V30 3480 O 335.691 -5.40258 1.8297 0
M  V30 3481 O 334.625 -4.77502 3.66437 0
M  V30 3482 H 338.451 -1.66498 2.53992 0
M  V30 3483 H 336.036 -0.763308 1.28429 0
M  V30 3484 H 337.918 -3.9141 1.56129 0
M  V30 3485 H 336.593 -3.17718 0.619431 0
M  V30 3486 H 335.5 -2.45619 2.82174 0
M  V30 3487 H 336.833 -3.24641 3.69958 0
M  V30 3488 N 338.485 -1.33259 -0.841409 0
M  V30 3489 C 339.433 -1.23279 -1.97244 0
M  V30 3490 C 340.427 -0.134706 -1.68864 0
M  V30 3491 O 341.633 -0.298501 -1.77508 0
M  V30 3492 H 338.008 -0.382497 -0.647457 0
M  V30 3493 H 339.979 -2.18906 -2.02787 0
M  V30 3494 C 338.728 -0.986268 -3.33419 0
M  V30 3495 H 338.051 -1.82347 -3.55794 0
M  V30 3496 H 339.491 -0.956728 -4.13065 0
M  V30 3497 C 337.95 0.310842 -3.35463 0
M  V30 3498 O 338.48 1.31838 -3.79449 0
M  V30 3499 N 336.686 0.337485 -2.88634 0
M  V30 3500 H 336.233 -0.482967 -2.53032 0
M  V30 3501 H 336.191 1.20518 -2.90384 0
M  V30 3502 N 339.963 1.05934 -1.16686 0
M  V30 3503 C 341.212 1.78188 -0.945085 0
M  V30 3504 C 341.525 1.88338 0.528021 0
M  V30 3505 O 342.731 2.57258 0.867799 0
M  V30 3506 C 341.187 3.20277 -1.64167 0
M  V30 3507 C 340.795 3.18281 -3.15279 0
M  V30 3508 C 342.539 3.97039 -1.502 0
M  V30 3509 C 340.446 4.55112 -3.7766 0
M  V30 3510 H 339.376 0.667866 -0.349959 0
M  V30 3511 H 342.027 1.18794 -1.39858 0
M  V30 3512 H 340.409 3.79952 -1.11589 0
M  V30 3513 H 341.583 2.68167 -3.74731 0
M  V30 3514 H 339.898 2.55018 -3.29173 0
M  V30 3515 H 342.495 4.98194 -1.94183 0
M  V30 3516 H 342.838 4.13845 -0.451461 0
M  V30 3517 H 343.371 3.43894 -1.99954 0
M  V30 3518 H 340.11 4.43512 -4.82677 0
M  V30 3519 H 339.63 5.05406 -3.22994 0
M  V30 3520 H 341.309 5.24064 -3.79428 0
M  V30 3521 N 341.441 0.965919 1.2453 0
M  V30 3522 C 342.69 0.622437 1.91856 0
M  V30 3523 C 343.003 -0.846006 1.76358 0
M  V30 3524 O 344.209 -1.29993 2.38357 0
M  V30 3525 C 342.665 1.0626 3.43856 0
M  V30 3526 C 342.273 2.55437 3.68043 0
M  V30 3527 C 344.017 0.792183 4.17043 0
M  V30 3528 C 341.924 2.93196 5.13605 0
M  V30 3529 H 340.854 0.229092 0.718354 0
M  V30 3530 H 343.505 1.17189 1.41206 0
M  V30 3531 H 341.887 0.441476 3.93531 0
M  V30 3532 H 343.061 3.22665 3.28974 0
M  V30 3533 H 341.376 2.8007 3.08139 0
M  V30 3534 H 343.973 1.05031 5.24283 0
M  V30 3535 H 344.316 -0.271584 4.15413 0
M  V30 3536 H 344.849 1.37419 3.73311 0
M  V30 3537 H 341.588 3.98636 5.20355 0
M  V30 3538 H 341.108 2.30651 5.53679 0
M  V30 3539 H 342.787 2.83004 5.81823 0
M  V30 3540 N 342.919 -1.39368 0.735821 0
M  V30 3541 C 344.165 -2.00794 0.284544 0
M  V30 3542 C 344.498 -1.58255 -1.12557 0
M  V30 3543 O 343.773 -0.811819 -1.76748 0
M  V30 3544 C 344.056 -3.58011 0.387337 0
M  V30 3545 C 343.909 -4.10566 1.83728 0
M  V30 3546 C 345.228 -4.395 -0.22975 0
M  V30 3547 H 342.347 -0.729501 0.104866 0
M  V30 3548 H 344.989 -1.65564 0.93213 0
M  V30 3549 H 343.139 -3.88154 -0.164006 0
M  V30 3550 H 344.811 -3.91139 2.44556 0
M  V30 3551 H 343.054 -3.64095 2.35833 0
M  V30 3552 H 343.725 -5.19702 1.86047 0
M  V30 3553 H 346.201 -4.15406 0.240257 0
M  V30 3554 H 345.077 -5.48752 -0.127485 0
M  V30 3555 H 345.338 -4.22062 -1.3159 0
M  V30 3556 N 344.397 -0.483516 -1.5 0
M  V30 3557 C 345.813 -0.138404 -1.58999 0
M  V30 3558 C 346.013 1.35597 -1.4905 0
M  V30 3559 O 345.069 2.13039 -1.35539 0
M  V30 3560 C 346.382 -0.699658 -2.92447 0
M  V30 3561 C 347.93 -0.664195 -3.05872 0
M  V30 3562 C 348.405 -1.20321 -4.41913 0
M  V30 3563 N 349.896 -1.16315 -4.48358 0
M  V30 3564 C 350.631 -1.55058 -5.52037 0
M  V30 3565 N 350.127 -2.01311 -6.62907 0
M  V30 3566 N 351.92 -1.46584 -5.42651 0
M  V30 3567 H 344.071 -1.45529 -1.5471 0
M  V30 3568 H 346.334 -0.60258 -0.731848 0
M  V30 3569 H 346.04 -1.747 -3.05242 0
M  V30 3570 H 345.914 -0.150194 -3.76901 0
M  V30 3571 H 348.301 0.374272 -2.92717 0
M  V30 3572 H 348.382 -1.25061 -2.23144 0
M  V30 3573 H 348.026 -2.24037 -4.55818 0
M  V30 3574 H 347.956 -0.592896 -5.23252 0
M  V30 3575 H 350.447 -0.824058 -3.68806 0
M  V30 3576 H 350.76 -2.2899 -7.38095 0
M  V30 3577 H 349.105 -2.05273 -6.63994 0
M  V30 3578 H 352.296 -1.10281 -4.54924 0
M  V30 3579 H 352.469 -1.77103 -6.23329 0
M  V30 3580 N 345.875 1.56104 -0.216619 0
M  V30 3581 C 346.822 2.2007 0.695531 0
M  V30 3582 C 347.792 1.15471 1.19397 0
M  V30 3583 O 348.977 1.43807 1.25396 0
M  V30 3584 C 346.117 2.88073 1.90021 0
M  V30 3585 C 345.23 4.07253 1.44113 0
M  V30 3586 C 344.365 4.63052 2.603 0
M  V30 3587 C 343.404 5.74545 2.11103 0
M  V30 3588 N 342.541 6.24656 3.20545 0
M  V30 3589 H 347.381 2.97655 0.143327 0
M  V30 3590 H 344.918 1.46982 0.0589934 0
M  V30 3591 H 346.876 3.25681 2.60745 0
M  V30 3592 H 345.506 2.13015 2.42538 0
M  V30 3593 H 344.558 3.75164 0.628999 0
M  V30 3594 H 345.87 4.8783 1.04036 0
M  V30 3595 H 345.024 5.03078 3.39113 0
M  V30 3596 H 343.763 3.81628 3.03663 0
M  V30 3597 H 342.768 5.34027 1.3075 0
M  V30 3598 H 343.993 6.57801 1.68746 0
M  V30 3599 H 341.939 5.46148 3.63399 0
M  V30 3600 H 341.856 7.00343 2.84704 0
M  V30 3601 H 343.124 6.69338 3.99508 0
M  V30 3602 N 347.353 -0.0568162 1.57498 0
M  V30 3603 C 348.285 -1.09292 2.01464 0
M  V30 3604 C 349.298 -1.34112 0.922913 0
M  V30 3605 O 350.487 -1.32089 1.20062 0
M  V30 3606 C 347.587 -2.44068 2.35125 0
M  V30 3607 C 346.76 -2.38995 3.66333 0
M  V30 3608 C 345.819 -3.55997 3.87495 0
M  V30 3609 O 344.845 -3.36746 4.58901 0
M  V30 3610 N 346.047 -4.76888 3.30996 0
M  V30 3611 H 348.812 -0.718386 2.90963 0
M  V30 3612 H 346.373 -0.245235 1.60032 0
M  V30 3613 H 348.365 -3.21011 2.46443 0
M  V30 3614 H 346.935 -2.73468 1.5144 0
M  V30 3615 H 346.155 -1.47336 3.65631 0
M  V30 3616 H 347.443 -2.3272 4.52458 0
M  V30 3617 H 346.841 -4.95431 2.73065 0
M  V30 3618 H 345.398 -5.51291 3.47738 0
M  V30 3619 N 348.832 -1.54138 -0.328536 0
M  V30 3620 C 350.08 -1.71765 -1.06496 0
M  V30 3621 C 350.401 -0.49149 -1.88704 0
M  V30 3622 O 349.671 0.494539 -1.89555 0
M  V30 3623 H 348.251 -0.633295 -0.396164 0
M  V30 3624 H 350.913 -1.91429 -0.366176 0
M  V30 3625 H 350.009 -2.5951 -1.73381 0
M  V30 3626 N 350.31 0.590341 -1.46126 0
M  V30 3627 C 351.538 1.37504 -1.54597 0
M  V30 3628 C 351.953 1.87897 -0.184447 0
M  V30 3629 O 351.31 1.63192 0.816984 0
M  V30 3630 C 351.361 2.56779 -2.54454 0
M  V30 3631 O 351.082 2.08476 -3.85317 0
M  V30 3632 C 352.583 3.49427 -2.72792 0
M  V30 3633 H 349.803 0.420325 -0.523037 0
M  V30 3634 H 352.347 0.718383 -1.91467 0
M  V30 3635 H 350.502 3.1845 -2.20609 0
M  V30 3636 H 350.916 2.86097 -4.396 0
M  V30 3637 H 352.39 4.29619 -3.466 0
M  V30 3638 H 352.867 4.00876 -1.79429 0
M  V30 3639 H 353.473 2.93598 -3.07702 0
M  V30 3640 N 351.788 1.33704 0.83433 0
M  V30 3641 C 353.037 1.24763 1.58484 0
M  V30 3642 C 353.35 -0.183775 1.94735 0
M  V30 3643 O 354.556 -0.395234 2.68608 0
M  V30 3644 C 353.012 2.18638 2.85876 0
M  V30 3645 C 352.62 3.66974 2.56971 0
M  V30 3646 C 354.364 2.18581 3.63899 0
M  V30 3647 C 352.271 4.5275 3.80488 0
M  V30 3648 H 351.201 0.463425 0.594772 0
M  V30 3649 H 353.852 1.58797 0.919551 0
M  V30 3650 H 352.234 1.77542 3.5397 0
M  V30 3651 H 353.408 4.16538 1.9706 0
M  V30 3652 H 351.723 3.69366 1.92244 0
M  V30 3653 H 354.32 2.79894 4.55591 0
M  V30 3654 H 354.663 1.18207 3.99165 0
M  V30 3655 H 355.196 2.58062 3.02735 0
M  V30 3656 H 351.935 5.54017 3.5035 0
M  V30 3657 H 351.455 4.07927 4.39722 0
M  V30 3658 H 353.134 4.66784 4.4802 0
M  V30 3659 N 353.266 -1.05314 1.17247 0
M  V30 3660 C 354.513 -1.78293 0.960091 0
M  V30 3661 C 354.841 -1.87658 -0.51136 0
M  V30 3662 O 354.096 -1.3718 -1.39571 0
M  V30 3663 C 354.395 -3.2229 1.54479 0
M  V30 3664 C 354.061 -3.32987 3.04024 0
M  V30 3665 C 352.723 -3.35613 3.44844 0
M  V30 3666 C 355.075 -3.34102 4.00031 0
M  V30 3667 C 352.403 -3.36982 4.8027 0
M  V30 3668 C 354.755 -3.3701 5.35357 0
M  V30 3669 C 353.419 -3.37923 5.75642 0
M  V30 3670 H 352.689 -0.652422 0.351322 0
M  V30 3671 H 355.336 -1.23782 1.46117 0
M  V30 3672 H 353.641 -3.7972 0.965391 0
M  V30 3673 H 355.338 -3.77376 1.35603 0
M  V30 3674 H 351.928 -3.31655 2.71483 0
M  V30 3675 H 356.112 -3.31276 3.69554 0
M  V30 3676 H 351.368 -3.35999 5.10798 0
M  V30 3677 H 355.542 -3.36822 6.09528 0
M  V30 3678 H 353.169 -3.38738 6.80559 0
M  V30 3679 N 354.744 -0.972509 -1.24016 0
M  V30 3680 C 355.674 -0.525548 -2.27509 0
M  V30 3681 C 356.655 0.437262 -1.64384 0
M  V30 3682 O 357.84 0.332343 -1.91335 0
M  V30 3683 C 354.97 0.180448 -3.46831 0
M  V30 3684 C 353.924 -0.698859 -4.22256 0
M  V30 3685 C 353.25 0.138903 -5.3452 0
M  V30 3686 C 354.55 -1.98582 -4.83076 0
M  V30 3687 H 356.244 -1.39058 -2.65148 0
M  V30 3688 H 353.79 -0.67009 -1.27459 0
M  V30 3689 H 355.743 0.504387 -4.18371 0
M  V30 3690 H 354.467 1.07987 -3.08231 0
M  V30 3691 H 353.126 -1.00614 -3.52523 0
M  V30 3692 H 352.774 1.03862 -4.9216 0
M  V30 3693 H 352.474 -0.446259 -5.85903 0
M  V30 3694 H 353.998 0.457404 -6.08884 0
M  V30 3695 H 355.412 -1.72715 -5.46665 0
M  V30 3696 H 353.809 -2.5181 -5.44713 0
M  V30 3697 H 354.879 -2.67769 -4.04262 0
M  V30 3698 N 356.222 1.38976 -0.743202 0
M  V30 3699 C 357.185 2.28901 -0.117014 0
M  V30 3700 C 358.185 1.46698 0.658503 0
M  V30 3701 O 359.375 1.67274 0.486305 0
M  V30 3702 C 356.507 3.30309 0.84315 0
M  V30 3703 H 357.7 2.8578 -0.909373 0
M  V30 3704 H 355.253 1.47761 -0.509547 0
M  V30 3705 H 355.988 2.785 1.66157 0
M  V30 3706 H 355.773 3.91029 0.289594 0
M  V30 3707 H 357.263 3.97577 1.2776 0
M  V30 3708 N 357.7 0.491464 1.49741 0
M  V30 3709 C 358.948 -0.0563141 2.02022 0
M  V30 3710 C 359.269 -1.38363 1.37407 0
M  V30 3711 O 358.539 -1.88702 0.526166 0
M  V30 3712 H 357.119 -0.0238014 0.746621 0
M  V30 3713 H 359.781 0.646533 1.83864 0
M  V30 3714 H 358.877 -0.192967 3.11503 0
M  V30 3715 N 359.178 -1.55987 0.224894 0
M  V30 3716 C 360.589 -1.84553 -0.282345 0
M  V30 3717 C 360.94 -1.14634 -1.59227 0
M  V30 3718 O 360.065 -0.417155 -2.12341 0
M  V30 3719 C 360.66 -3.348 -0.519062 0
M  V30 3720 C 359.219 -3.63671 -0.970604 0
M  V30 3721 C 358.366 -2.77277 -0.0355261 0
M  V30 3722 H 361.317 -1.52245 0.448006 0
M  V30 3723 H 361.338 -3.55187 -1.36463 0
M  V30 3724 H 360.85 -3.8566 0.43449 0
M  V30 3725 H 358.951 -3.1827 -1.9374 0
M  V30 3726 H 359.064 -4.71631 -0.842698 0
M  V30 3727 H 357.428 -2.48846 -0.542927 0
M  V30 3728 H 358.211 -3.30937 0.913003 0
M  V30 3729 N 360.656 0.0484629 -1.57525 0
M  V30 3730 C 362.067 0.597486 -1.76881 0
M  V30 3731 C 362.418 1.76664 -0.853475 0
M  V30 3732 O 361.543 2.16357 -0.0433656 0
M  V30 3733 C 362.138 1.09066 -3.20765 0
M  V30 3734 C 360.697 1.58535 -3.41385 0
M  V30 3735 C 359.844 0.514868 -2.72478 0
M  V30 3736 H 362.795 -0.177758 -1.57701 0
M  V30 3737 H 362.816 1.95875 -3.2621 0
M  V30 3738 H 362.328 0.239521 -3.8736 0
M  V30 3739 H 360.429 2.45898 -2.79937 0
M  V30 3740 H 360.542 1.64622 -4.49929 0
M  V30 3741 H 358.906 0.965407 -2.35695 0
M  V30 3742 H 359.689 -0.32648 -3.41744 0
M  V30 3743 N 362.134 1.5431 0.320358 0
M  V30 3744 C 363.064 1.86912 1.3995 0
M  V30 3745 C 364.045 0.726211 1.53819 0
M  V30 3746 O 365.23 0.980233 1.67646 0
M  V30 3747 C 362.36 2.09932 2.7667 0
M  V30 3748 C 361.314 3.25776 2.77586 0
M  V30 3749 C 360.64 3.34173 4.17412 0
M  V30 3750 C 361.94 4.6335 2.41048 0
M  V30 3751 H 363.634 2.77292 1.12914 0
M  V30 3752 H 361.18 1.33421 0.541738 0
M  V30 3753 H 363.133 2.31324 3.52232 0
M  V30 3754 H 361.857 1.16304 3.0519 0
M  V30 3755 H 360.516 3.04276 2.04479 0
M  V30 3756 H 360.164 2.38098 4.43078 0
M  V30 3757 H 359.864 4.12033 4.18931 0
M  V30 3758 H 361.388 3.57803 4.94782 0
M  V30 3759 H 362.802 4.84602 3.06324 0
M  V30 3760 H 361.199 5.43782 2.53813 0
M  V30 3761 H 362.269 4.65381 1.36193 0
M  V30 3762 N 363.613 -0.582584 1.46437 0
M  V30 3763 C 364.859 -1.34278 1.51978 0
M  V30 3764 C 365.192 -1.93446 0.170973 0
M  V30 3765 O 364.467 -1.76481 -0.817608 0
M  V30 3766 C 364.75 -2.47203 2.61845 0
M  V30 3767 C 364.603 -1.93069 4.06257 0
M  V30 3768 C 365.922 -3.49247 2.67795 0
M  V30 3769 H 363.041 -0.486876 0.553282 0
M  V30 3770 H 365.683 -0.654437 1.78374 0
M  V30 3771 H 363.833 -3.0592 2.39469 0
M  V30 3772 H 365.505 -1.38808 4.3992 0
M  V30 3773 H 363.748 -1.23898 4.1573 0
M  V30 3774 H 364.419 -2.74586 4.7886 0
M  V30 3775 H 366.895 -3.00411 2.8791 0
M  V30 3776 H 365.771 -4.25719 3.46489 0
M  V30 3777 H 366.032 -4.06482 1.73852 0
M  V30 3778 N 365.091 -1.34144 -0.827227 0
M  V30 3779 C 366.038 -1.25364 -1.93785 0
M  V30 3780 C 367.008 -0.129774 -1.65592 0
M  V30 3781 O 368.193 -0.310024 -1.88264 0
M  V30 3782 C 365.333 -1.01064 -3.2997 0
M  V30 3783 C 364.446 -2.22185 -3.70484 0
M  V30 3784 C 363.581 -1.91203 -4.95595 0
M  V30 3785 C 362.62 -3.08491 -5.28677 0
M  V30 3786 N 361.757 -2.77421 -6.44967 0
M  V30 3787 H 366.597 -2.20347 -2.00627 0
M  V30 3788 H 364.134 -1.09558 -0.981608 0
M  V30 3789 H 366.092 -0.850139 -4.08446 0
M  V30 3790 H 364.722 -0.0975026 -3.22653 0
M  V30 3791 H 363.774 -2.4917 -2.87434 0
M  V30 3792 H 365.086 -3.0983 -3.90905 0
M  V30 3793 H 364.24 -1.71864 -5.81848 0
M  V30 3794 H 362.979 -1.00812 -4.77167 0
M  V30 3795 H 361.984 -3.28431 -4.40923 0
M  V30 3796 H 363.209 -3.99655 -5.49047 0
M  V30 3797 H 361.155 -1.89601 -6.28003 0
M  V30 3798 H 361.072 -3.58598 -6.6554 0
M  V30 3799 H 362.34 -2.61577 -7.34301 0
M  V30 3800 N 366.569 1.04691 -1.17803 0
M  V30 3801 C 367.532 2.10724 -0.901545 0
M  V30 3802 C 368.532 1.6042 0.110437 0
M  V30 3803 O 369.722 1.7377 -0.122303 0
M  V30 3804 C 366.854 3.39084 -0.351409 0
M  V30 3805 H 368.047 2.36686 -1.84174 0
M  V30 3806 H 365.6 1.21015 -0.98919 0
M  V30 3807 H 366.335 3.18782 0.59569 0
M  V30 3808 H 366.12 3.76909 -1.08083 0
M  V30 3809 H 367.61 4.17227 -0.176451 0
M  V30 3810 N 368.047 0.979072 1.23499 0
M  V30 3811 C 369.01 0.523244 2.23147 0
M  V30 3812 C 370.01 -0.386406 1.56088 0
M  V30 3813 O 371.2 -0.180283 1.73265 0
M  V30 3814 C 368.332 -0.240739 3.40049 0
M  V30 3815 H 369.525 1.40432 2.64989 0
M  V30 3816 H 367.078 0.764824 1.36309 0
M  V30 3817 H 367.813 -1.13841 3.03662 0
M  V30 3818 H 367.598 0.412207 3.89927 0
M  V30 3819 H 369.088 -0.548297 4.13985 0
M  V30 3820 N 369.525 -1.3858 0.750561 0
M  V30 3821 C 370.753 -2.04471 0.316098 0
M  V30 3822 C 371.168 -1.56606 -1.05452 0
M  V30 3823 O 370.525 -0.737784 -1.66922 0
M  V30 3824 C 370.576 -3.60025 0.326275 0
M  V30 3825 O 370.297 -4.06133 1.6428 0
M  V30 3826 C 371.798 -4.43131 -0.122429 0
M  V30 3827 H 369.018 -0.65717 0.135528 0
M  V30 3828 H 371.562 -1.77329 1.01857 0
M  V30 3829 H 369.717 -3.86014 -0.327431 0
M  V30 3830 H 370.131 -5.00547 1.56693 0
M  V30 3831 H 371.605 -5.51963 -0.0641473 0
M  V30 3832 H 372.082 -4.23333 -1.16988 0
M  V30 3833 H 372.688 -4.22323 0.50229 0
M  V30 3834 N 371.003 -0.499398 -1.49478 0
M  V30 3835 C 372.251 0.0455996 -2.02049 0
M  V30 3836 C 372.572 1.37633 -1.38138 0
M  V30 3837 O 371.842 1.8842 -0.536166 0
M  V30 3838 H 370.422 0.0198416 -0.746736 0
M  V30 3839 H 373.084 -0.656274 -1.83519 0
M  V30 3840 H 372.18 0.176445 -3.11601 0
M  V30 3841 N 372.481 1.55866 -0.233164 0
M  V30 3842 C 373.391 2.24431 0.683217 0
M  V30 3843 C 374.407 1.2558 1.2044 0
M  V30 3844 O 375.583 1.58422 1.24356 0
M  V30 3845 C 372.648 2.91979 1.86947 0
M  V30 3846 C 371.709 4.06204 1.38912 0
M  V30 3847 C 370.942 4.70522 2.51883 0
M  V30 3848 O 371.165 4.33865 3.70293 0
M  V30 3849 O 370.099 5.59296 2.22423 0
M  V30 3850 H 373.925 3.03426 0.129059 0
M  V30 3851 H 371.51 1.494 -0.0022283 0
M  V30 3852 H 373.392 3.34573 2.56201 0
M  V30 3853 H 372.067 2.15935 2.41151 0
M  V30 3854 H 370.974 3.68155 0.664259 0
M  V30 3855 H 372.307 4.84025 0.893328 0
M  V30 3856 N 373.959 -0.0401083 1.57549 0
M  V30 3857 C 374.869 -1.06133 2.0922 0
M  V30 3858 C 375.885 -1.40356 1.0284 0
M  V30 3859 O 377.061 -1.49897 1.34509 0
M  V30 3860 C 374.126 -2.34658 2.55218 0
M  V30 3861 C 373.187 -2.07117 3.76033 0
M  V30 3862 C 372.42 -3.29514 4.19829 0
M  V30 3863 O 372.643 -4.39794 3.63232 0
M  V30 3864 O 371.577 -3.15863 5.12362 0
M  V30 3865 H 375.403 -0.652244 2.96613 0
M  V30 3866 H 372.988 -0.256368 1.47184 0
M  V30 3867 H 374.87 -3.10239 2.85184 0
M  V30 3868 H 373.545 -2.74883 1.70941 0
M  V30 3869 H 372.452 -1.29139 3.51104 0
M  V30 3870 H 373.785 -1.71754 4.61261 0
M  V30 3871 N 375.437 -1.54477 -0.31217 0
M  V30 3872 C 376.683 -1.73483 -1.0503 0
M  V30 3873 C 377.016 -0.513125 -1.87298 0
M  V30 3874 O 376.291 0.489864 -1.8823 0
M  V30 3875 C 376.574 -3.01723 -1.96558 0
M  V30 3876 C 376.427 -4.3417 -1.17545 0
M  V30 3877 C 377.746 -3.25772 -2.95907 0
M  V30 3878 H 374.865 -0.631222 -0.380432 0
M  V30 3879 H 377.507 -1.87184 -0.325932 0
M  V30 3880 H 375.657 -2.90174 -2.58324 0
M  V30 3881 H 377.329 -4.5762 -0.581513 0
M  V30 3882 H 375.572 -4.31159 -0.477925 0
M  V30 3883 H 376.243 -5.20143 -1.84811 0
M  V30 3884 H 378.719 -3.36857 -2.44267 0
M  V30 3885 H 377.595 -4.16838 -3.57123 0
M  V30 3886 H 377.856 -2.43537 -3.68974 0
M  V30 3887 N 376.915 0.57481 -1.46744 0
M  V30 3888 C 378.14 1.36341 -1.56288 0
M  V30 3889 C 378.565 1.86954 -0.207347 0
M  V30 3890 O 377.923 1.62006 0.813871 0
M  V30 3891 C 377.971 2.52147 -2.57787 0
M  V30 3892 O 377.075 3.53834 -2.11838 0
M  V30 3893 H 376.416 0.405713 -0.525636 0
M  V30 3894 H 378.946 0.696453 -1.92382 0
M  V30 3895 H 378.956 2.98958 -2.77648 0
M  V30 3896 H 377.631 2.14663 -3.5622 0
M  V30 3897 H 376.208 3.1345 -2.01999 0
M  V30 3898 N 378.394 1.34581 0.820102 0
M  V30 3899 C 379.357 1.2628 1.91275 0
M  V30 3900 C 380.357 0.177344 1.59819 0
M  V30 3901 O 381.547 0.430156 1.68806 0
M  V30 3902 C 378.679 0.950327 3.27386 0
M  V30 3903 H 379.872 2.23421 2.00057 0
M  V30 3904 H 377.425 1.1891 1.0144 0
M  V30 3905 H 378.16 -0.0177938 3.24295 0
M  V30 3906 H 377.945 1.73549 3.51601 0
M  V30 3907 H 379.435 0.917492 4.07396 0
M  V30 3908 N 379.872 -1.04064 1.18357 0
M  V30 3909 C 380.782 -2.15569 0.925596 0
M  V30 3910 C 381.798 -1.7365 -0.110295 0
M  V30 3911 O 382.974 -2.01273 0.0716218 0
M  V30 3912 C 380.039 -3.43704 0.454836 0
M  V30 3913 C 379.1 -4.00004 1.55869 0
M  V30 3914 C 378.333 -5.22023 1.1103 0
M  V30 3915 O 378.556 -5.70392 -0.0309756 0
M  V30 3916 O 377.49 -5.70856 1.90805 0
M  V30 3917 H 381.316 -2.40187 1.8586 0
M  V30 3918 H 378.901 -1.1402 0.965394 0
M  V30 3919 H 380.783 -4.20923 0.200382 0
M  V30 3920 H 379.458 -3.20559 -0.449876 0
M  V30 3921 H 378.365 -3.24172 1.86716 0
M  V30 3922 H 379.698 -4.2749 2.43953 0
M  V30 3923 N 381.35 -0.985608 -1.22978 0
M  V30 3924 C 382.627 -0.573599 -1.87001 0
M  V30 3925 C 383.007 0.949213 -1.88555 0
M  V30 3926 O 382.355 1.82811 -1.37086 0
M  V30 3927 C 382.565 -1.18564 -3.28243 0
M  V30 3928 C 383.913 -1.28163 -4.04796 0
M  V30 3929 O 384.937 -1.13949 -3.37482 0
M  V30 3930 O 383.796 -1.50832 -5.25273 0
M  V30 3931 H 380.89 -0.193868 -0.803955 0
M  V30 3932 H 383.436 -1.08102 -1.30813 0
M  V30 3933 H 382.208 -2.22758 -3.21706 0
M  V30 3934 H 381.831 -0.663363 -3.92027 0
M  V30 3935 N 382.828 1.3818 -0.7579 0
M  V30 3936 C 383.758 2.33027 -0.148597 0
M  V30 3937 C 384.739 1.55085 0.69875 0
M  V30 3938 O 385.924 1.83384 0.639053 0
M  V30 3939 C 383.054 3.3928 0.742034 0
M  V30 3940 C 382.008 4.28 -0.00291946 0
M  V30 3941 C 381.334 5.25146 1.00625 0
M  V30 3942 C 382.634 5.08938 -1.17385 0
M  V30 3943 H 384.328 2.84231 -0.940909 0
M  V30 3944 H 381.874 1.36659 -0.453908 0
M  V30 3945 H 383.827 4.046 1.17799 0
M  V30 3946 H 382.551 2.86569 1.56671 0
M  V30 3947 H 381.21 3.64192 -0.419504 0
M  V30 3948 H 380.858 4.68721 1.8251 0
M  V30 3949 H 380.558 5.85361 0.512428 0
M  V30 3950 H 382.082 5.93342 1.44143 0
M  V30 3951 H 383.496 5.67474 -0.815224 0
M  V30 3952 H 381.893 5.7841 -1.59882 0
M  V30 3953 H 382.963 4.42424 -1.98468 0
M  V30 3954 N 384.306 0.507319 1.49211 0
M  V30 3955 C 385.554 -0.0348839 2.0207 0
M  V30 3956 C 385.875 -1.36898 1.38866 0
M  V30 3957 O 385.145 -1.88133 0.546151 0
M  V30 3958 H 383.725 -0.0158812 0.746831 0
M  V30 3959 H 386.387 0.665998 1.83168 0
M  V30 3960 H 385.483 -0.159917 3.1169 0
M  V30 3961 N 385.784 -1.5574 0.241426 0
M  V30 3962 C 387.032 -1.98417 -0.384075 0
M  V30 3963 C 387.353 -1.13078 -1.58866 0
M  V30 3964 O 386.623 -0.212312 -1.94746 0
M  V30 3965 H 385.203 -0.732813 -0.144894 0
M  V30 3966 H 387.865 -1.9193 0.338943 0
M  V30 3967 H 386.961 -3.04219 -0.696939 0
M  V30 3968 N 387.262 0.0317525 -1.57568 0
M  V30 3969 C 388.225 1.01783 -2.0536 0
M  V30 3970 C 389.225 1.29203 -0.957253 0
M  V30 3971 O 390.415 1.24251 -1.22095 0
M  V30 3972 C 387.547 2.35137 -2.46827 0
M  V30 3973 H 388.74 0.605062 -2.93733 0
M  V30 3974 H 386.293 0.278514 -1.53799 0
M  V30 3975 H 387.028 2.81168 -1.61602 0
M  V30 3976 H 386.813 2.16566 -3.26866 0
M  V30 3977 H 388.303 3.05938 -2.84239 0
M  V30 3978 N 388.74 1.54641 0.303973 0
M  V30 3979 C 390.017 1.64455 1.05896 0
M  V30 3980 C 390.397 0.490923 2.05312 0
M  V30 3981 O 389.745 -0.512685 2.22674 0
M  V30 3982 C 389.955 3.02331 1.74347 0
M  V30 3983 C 391.303 3.59045 2.26653 0
M  V30 3984 O 392.327 3.04764 1.84384 0
M  V30 3985 O 391.186 4.54081 3.04093 0
M  V30 3986 H 388.28 0.666729 0.489287 0
M  V30 3987 H 390.826 1.66986 0.302298 0
M  V30 3988 H 389.598 3.77734 1.02142 0
M  V30 3989 H 389.221 3.03565 2.56777 0
M  V30 3990 N 390.218 -0.567019 1.47046 0
M  V30 3991 C 391.148 -1.68482 1.61667 0
M  V30 3992 C 392.129 -1.6358 0.466418 0
M  V30 3993 O 393.314 -1.81354 0.694574 0
M  V30 3994 C 390.444 -3.07124 1.62148 0
M  V30 3995 C 389.398 -3.26867 2.76301 0
M  V30 3996 C 388.724 -4.66196 2.61849 0
M  V30 3997 C 390.024 -3.13186 4.17986 0
M  V30 3998 H 391.718 -1.56502 2.5524 0
M  V30 3999 H 389.264 -0.751486 1.22836 0
M  V30 4000 H 391.217 -3.8516 1.70968 0
M  V30 4001 H 389.941 -3.2004 0.651287 0
M  V30 4002 H 388.6 -2.51237 2.66975 0
M  V30 4003 H 388.248 -4.75898 1.62879 0
M  V30 4004 H 387.948 -4.80356 3.38425 0
M  V30 4005 H 389.472 -5.46379 2.72584 0
M  V30 4006 H 390.886 -3.81049 4.2834 0
M  V30 4007 H 389.283 -3.3886 4.95272 0
M  V30 4008 H 390.353 -2.10057 4.3704 0
M  V30 4009 N 391.696 -1.35014 -0.812953 0
M  V30 4010 C 392.646 -1.23959 -1.91359 0
M  V30 4011 C 393.63 -0.136306 -1.60322 0
M  V30 4012 O 394.822 -0.366925 -1.73155 0
M  V30 4013 C 391.951 -1.00736 -3.28188 0
M  V30 4014 C 391.037 -2.15426 -3.65311 0
M  V30 4015 N 391.428 -3.40612 -3.73921 0
M  V30 4016 C 389.726 -2.06672 -3.95225 0
M  V30 4017 C 390.427 -4.15994 -4.06601 0
M  V30 4018 N 389.403 -3.44685 -4.20349 0
M  V30 4019 H 393.205 -2.18815 -1.96208 0
M  V30 4020 H 390.719 -1.27395 -1.00718 0
M  V30 4021 H 392.716 -0.909052 -4.06868 0
M  V30 4022 H 391.376 -0.067586 -3.2463 0
M  V30 4023 H 392.387 -3.75043 -3.5716 0
M  V30 4024 H 389.064 -1.20511 -3.99729 0
M  V30 4025 H 390.454 -5.24145 -4.20382 0
M  V30 4026 N 393.175 1.03435 -1.18907 0
M  V30 4027 C 394.415 1.78302 -0.999391 0
M  V30 4028 C 394.779 1.86353 0.462219 0
M  V30 4029 O 395.98 2.57489 0.771543 0
M  V30 4030 C 394.251 3.17362 -1.64365 0
M  V30 4031 S 395.81 4.08488 -1.6026 0
M  V30 4032 H 392.628 0.613861 -0.358742 0
M  V30 4033 H 395.23 1.23979 -1.51161 0
M  V30 4034 H 393.934 3.09116 -2.69955 0
M  V30 4035 H 393.465 3.76762 -1.13199 0
M  V30 4036 H 395.48 4.92274 -0.622932 0
M  V30 4037 N 394.653 0.992116 1.22453 0
M  V30 4038 C 396.069 0.702713 1.43297 0
M  V30 4039 C 396.269 -0.726909 1.87932 0
M  V30 4040 O 395.325 -1.49792 2.0327 0
M  V30 4041 C 396.638 1.70762 2.47509 0
M  V30 4042 C 398.186 1.72298 2.61309 0
M  V30 4043 C 398.661 2.71649 3.68742 0
M  V30 4044 N 400.152 2.70239 3.76199 0
M  V30 4045 C 400.887 3.43778 4.58917 0
M  V30 4046 N 400.383 4.26914 5.45633 0
M  V30 4047 N 402.176 3.32487 4.5322 0
M  V30 4048 H 394.327 1.91543 0.917871 0
M  V30 4049 H 396.59 0.826031 0.465162 0
M  V30 4050 H 396.296 2.73059 2.21657 0
M  V30 4051 H 396.17 1.49985 3.46099 0
M  V30 4052 H 398.557 0.706989 2.86506 0
M  V30 4053 H 398.638 1.97143 1.62997 0
M  V30 4054 H 398.282 3.73397 3.44292 0
M  V30 4055 H 398.212 2.44074 4.66622 0
M  V30 4056 H 400.703 2.09912 3.14237 0
M  V30 4057 H 401.016 4.79855 6.05771 0
M  V30 4058 H 399.361 4.31002 5.45218 0
M  V30 4059 H 402.552 2.6698 3.84499 0
M  V30 4060 H 402.725 3.90058 5.17454 0
M  V30 4061 N 396.131 -1.37776 0.765217 0
M  V30 4062 C 397.078 -2.30342 0.145274 0
M  V30 4063 C 398.048 -1.5077 -0.696971 0
M  V30 4064 O 399.233 -1.79362 -0.650689 0
M  V30 4065 C 396.373 -3.37227 -0.732939 0
M  V30 4066 C 395.486 -4.31819 0.125199 0
M  V30 4067 C 394.621 -5.25777 -0.757107 0
M  V30 4068 C 393.66 -6.12012 0.103963 0
M  V30 4069 N 392.797 -6.98232 -0.735953 0
M  V30 4070 H 397.637 -2.8278 0.940195 0
M  V30 4071 H 395.174 -1.39211 0.475255 0
M  V30 4072 H 397.132 -3.97818 -1.25686 0
M  V30 4073 H 395.762 -2.86171 -1.49353 0
M  V30 4074 H 394.814 -3.7259 0.766865 0
M  V30 4075 H 396.126 -4.92509 0.789683 0
M  V30 4076 H 395.28 -5.91541 -1.34776 0
M  V30 4077 H 394.019 -4.65481 -1.45529 0
M  V30 4078 H 393.024 -5.45233 0.707197 0
M  V30 4079 H 394.249 -6.74379 0.799381 0
M  V30 4080 H 392.195 -6.40472 -1.41887 0
M  V30 4081 H 392.112 -7.55891 -0.128624 0
M  V30 4082 H 393.38 -7.68393 -1.31121 0
M  V30 4083 N 397.609 -0.515225 -1.4894 0
M  V30 4084 C 398.834 0.022727 -2.07388 0
M  V30 4085 C 399.259 1.2876 -1.37122 0
M  V30 4086 O 398.617 1.76067 -0.432431 0
M  V30 4087 C 398.665 0.244869 -3.59768 0
M  V30 4088 O 397.769 1.31667 -3.90817 0
M  V30 4089 H 397.11 -0.0325506 -0.663202 0
M  V30 4090 H 399.64 -0.718918 -1.91553 0
M  V30 4091 H 399.65 0.47205 -4.0526 0
M  V30 4092 H 398.325 -0.679194 -4.10317 0
M  V30 4093 H 396.902 1.07331 -3.5712 0
M  V30 4094 N 399.087 1.5561 -0.249682 0
M  V30 4095 C 400.335 1.98618 0.373548 0
M  V30 4096 C 400.656 1.13919 1.58264 0
M  V30 4097 O 399.926 0.222637 1.94631 0
M  V30 4098 H 398.506 0.733571 0.141006 0
M  V30 4099 H 401.168 1.91748 -0.349117 0
M  V30 4100 H 400.264 3.04584 0.680796 0
M  V30 4101 N 400.565 -0.0233959 1.57583 0
M  V30 4102 C 401.811 -0.714119 1.89811 0
M  V30 4103 C 402.144 -1.74702 0.848113 0
M  V30 4104 O 401.419 -1.94023 -0.136135 0
M  V30 4105 C 401.702 -1.37853 3.32669 0
M  V30 4106 C 401.555 -0.358764 4.48367 0
M  V30 4107 C 402.874 -2.31101 3.7454 0
M  V30 4108 H 399.993 -0.25814 0.690314 0
M  V30 4109 H 402.635 0.0230927 1.89986 0
M  V30 4110 H 400.785 -2.00689 3.3265 0
M  V30 4111 H 402.457 0.268115 4.6052 0
M  V30 4112 H 400.7 0.321387 4.32608 0
M  V30 4113 H 401.371 -0.862242 5.45224 0
M  V30 4114 H 403.847 -1.78304 3.75961 0
M  V30 4115 H 402.723 -2.74567 4.75294 0
M  V30 4116 H 402.984 -3.18018 3.0711 0
M  V30 4117 N 402.043 -1.548 -0.295768 0
M  V30 4118 C 403.268 -1.78653 -1.05346 0
M  V30 4119 C 403.693 -0.546894 -1.79974 0
M  V30 4120 O 403.051 0.502763 -1.7419 0
M  V30 4121 C 403.099 -2.99679 -2.00561 0
M  V30 4122 O 402.203 -2.7317 -3.08953 0
M  V30 4123 H 401.544 -0.59116 -0.302367 0
M  V30 4124 H 404.074 -2.01895 -0.331598 0
M  V30 4125 H 404.084 -3.27793 -2.42932 0
M  V30 4126 H 402.759 -3.89562 -1.4565 0
M  V30 4127 H 401.336 -2.56089 -2.71059 0
M  V30 4128 N 403.521 0.559213 -1.47345 0
M  V30 4129 C 404.798 1.31997 -1.44348 0
M  V30 4130 C 405.178 2.1064 -0.139358 0
M  V30 4131 O 404.526 2.1091 0.879153 0
M  V30 4132 C 404.736 2.22618 -2.68779 0
M  V30 4133 C 406.084 2.83701 -3.1591 0
M  V30 4134 O 407.108 2.32921 -2.69493 0
M  V30 4135 O 405.967 3.75993 -3.966 0
M  V30 4136 H 403.061 0.594251 -0.575147 0
M  V30 4137 H 405.607 0.578282 -1.59543 0
M  V30 4138 H 404.379 1.64093 -3.55231 0
M  V30 4139 H 404.002 3.04085 -2.5616 0
M  V30 4140 N 404.999 1.35443 0.805782 0
M  V30 4141 C 405.949 1.24972 1.90699 0
M  V30 4142 C 406.933 0.144806 1.60247 0
M  V30 4143 O 408.125 0.376102 1.72958 0
M  V30 4144 C 405.254 1.02475 3.27649 0
M  V30 4145 C 404.34 2.17361 3.64164 0
M  V30 4146 N 404.731 3.42591 3.72109 0
M  V30 4147 C 403.029 2.08765 3.94123 0
M  V30 4148 C 403.73 4.18144 4.04389 0
M  V30 4149 N 402.706 3.4691 4.18515 0
M  V30 4150 H 406.508 2.19852 1.95044 0
M  V30 4151 H 404.022 1.27928 1.00041 0
M  V30 4152 H 406.019 0.930617 4.06381 0
M  V30 4153 H 404.679 0.0848009 3.24589 0
M  V30 4154 H 405.69 3.76932 3.55166 0
M  V30 4155 H 402.367 1.22629 3.99084 0
M  V30 4156 H 403.757 5.26367 4.17597 0
M  V30 4157 N 406.477 -1.02803 1.19454 0
M  V30 4158 C 407.723 -1.76598 1.0092 0
M  V30 4159 C 408.078 -1.86939 -0.455142 0
M  V30 4160 O 407.371 -1.37575 -1.33355 0
M  V30 4161 C 407.565 -3.18941 1.6128 0
M  V30 4162 C 407.394 -3.22476 3.13431 0
M  V30 4163 C 406.164 -3.30375 3.82336 0
M  V30 4164 C 408.362 -3.09451 4.10785 0
M  V30 4165 N 406.344 -3.23292 5.21877 0
M  V30 4166 C 407.715 -3.10012 5.36929 0
M  V30 4167 C 409.77 -2.93585 4.02135 0
M  V30 4168 C 408.473 -2.96334 6.55423 0
M  V30 4169 C 410.499 -2.81256 5.20239 0
M  V30 4170 C 409.861 -2.82472 6.45282 0
M  V30 4171 H 405.96 -0.657447 0.423424 0
M  V30 4172 H 408.544 -1.22369 1.5144 0
M  V30 4173 H 406.715 -3.71489 1.1336 0
M  V30 4174 H 408.447 -3.81102 1.36173 0
M  V30 4175 H 405.202 -3.3663 3.33132 0
M  V30 4176 H 405.626 -3.23156 5.94894 0
M  V30 4177 H 410.268 -2.91466 3.0628 0
M  V30 4178 H 407.986 -2.97203 7.51463 0
M  V30 4179 H 411.572 -2.70014 5.15348 0
M  V30 4180 H 410.452 -2.73036 7.35133 0
M  V30 4181 N 407.956 -0.998596 -1.21925 0
M  V30 4182 C 408.919 -0.558679 -2.22287 0
M  V30 4183 C 409.919 0.361525 -1.56683 0
M  V30 4184 O 411.109 0.152695 -1.73529 0
M  V30 4185 C 408.241 0.18661 -3.40389 0
M  V30 4186 H 409.434 -1.4463 -2.62721 0
M  V30 4187 H 406.987 -0.786413 -1.35075 0
M  V30 4188 H 407.722 1.08996 -3.05435 0
M  V30 4189 H 407.507 -0.474188 -3.89222 0
M  V30 4190 H 408.997 0.482367 -4.14805 0
M  V30 4191 N 409.434 1.37368 -0.772513 0
M  V30 4192 C 410.364 2.32856 -0.173304 0
M  V30 4193 C 411.345 1.55818 0.682262 0
M  V30 4194 O 412.53 1.84052 0.619566 0
M  V30 4195 C 409.66 3.40048 0.706007 0
M  V30 4196 C 408.614 4.27973 -0.0483144 0
M  V30 4197 C 407.94 5.26184 0.950491 0
M  V30 4198 C 409.24 5.07665 -1.22776 0
M  V30 4199 H 410.934 2.83217 -0.971002 0
M  V30 4200 H 408.48 1.3617 -0.468377 0
M  V30 4201 H 410.433 4.05827 1.13501 0
M  V30 4202 H 409.157 2.88214 1.53623 0
M  V30 4203 H 407.816 3.63726 -0.458107 0
M  V30 4204 H 407.464 4.7063 1.77529 0
M  V30 4205 H 407.164 5.85872 0.450314 0
M  V30 4206 H 408.688 5.94838 1.37842 0
M  V30 4207 H 410.102 5.66578 -0.875366 0
M  V30 4208 H 408.499 5.76681 -1.66007 0
M  V30 4209 H 409.569 4.40294 -2.03149 0
M  V30 4210 N 410.912 0.523116 1.48665 0
M  V30 4211 C 412.189 -0.0775449 1.95446 0
M  V30 4212 C 412.569 -1.5197 1.4652 0
M  V30 4213 O 411.917 -2.17876 0.688657 0
M  V30 4214 C 412.127 0.0326135 3.48985 0
M  V30 4215 C 413.475 -0.130141 4.24401 0
M  V30 4216 O 414.499 -0.0415142 3.56176 0
M  V30 4217 O 413.358 -0.31491 5.45592 0
M  V30 4218 H 410.452 -0.0831012 0.822814 0
M  V30 4219 H 412.998 0.587227 1.59216 0
M  V30 4220 H 411.77 1.03748 3.77296 0
M  V30 4221 H 411.393 -0.671317 3.91892 0
M  V30 4222 N 412.39 -1.55475 0.257931 0
M  V30 4223 C 413.667 -1.91155 -0.414629 0
M  V30 4224 C 414.047 -1.18008 -1.75035 0
M  V30 4225 O 413.395 -0.301193 -2.26506 0
M  V30 4226 C 413.605 -3.44283 -0.571859 0
M  V30 4227 C 414.953 -4.15744 -0.862678 0
M  V30 4228 O 415.977 -3.50083 -0.657314 0
M  V30 4229 O 414.836 -5.31909 -1.2544 0
M  V30 4230 H 411.93 -0.796016 -0.22425 0
M  V30 4231 H 414.476 -1.66976 0.302814 0
M  V30 4232 H 413.248 -3.89558 0.368844 0
M  V30 4233 H 412.871 -3.7436 -1.33943 0
M  V30 4234 N 413.868 0.0150385 -1.57593 0
M  V30 4235 C 414.818 1.01943 -2.0394 0
M  V30 4236 C 415.802 1.31209 -0.931286 0
M  V30 4237 O 416.994 1.30559 -1.19513 0
M  V30 4238 C 414.123 2.31621 -2.53391 0
M  V30 4239 C 413.209 2.05384 -3.7105 0
M  V30 4240 N 413.6 1.49253 -4.83278 0
M  V30 4241 C 411.898 2.35601 -3.78693 0
M  V30 4242 C 412.599 1.39143 -5.64813 0
M  V30 4243 N 411.575 1.87187 -5.10355 0
M  V30 4244 H 415.377 0.57969 -2.88126 0
M  V30 4245 H 412.891 0.221056 -1.60888 0
M  V30 4246 H 414.888 3.044 -2.84862 0
M  V30 4247 H 413.548 2.76261 -1.70616 0
M  V30 4248 H 414.559 1.17334 -5.04433 0
M  V30 4249 H 411.236 2.8322 -3.06746 0
M  V30 4250 H 412.626 0.961153 -6.6499 0
M  V30 4251 N 415.346 1.54954 0.287554 0
M  V30 4252 C 416.296 1.8322 1.357 0
M  V30 4253 C 417.28 0.690152 1.45347 0
M  V30 4254 O 418.472 0.951137 1.49273 0
M  V30 4255 C 415.601 2.09481 2.71979 0
M  V30 4256 C 414.687 3.29906 2.66502 0
M  V30 4257 N 415.078 4.50154 2.30641 0
M  V30 4258 C 413.376 3.32203 2.97585 0
M  V30 4259 C 414.077 5.32209 2.34794 0
M  V30 4260 N 413.053 4.70258 2.72688 0
M  V30 4261 H 416.855 2.73746 1.0696 0
M  V30 4262 H 414.369 1.54635 0.496167 0
M  V30 4263 H 416.366 2.27882 3.49107 0
M  V30 4264 H 415.026 1.2023 3.0162 0
M  V30 4265 H 416.037 4.76515 2.02865 0
M  V30 4266 H 412.714 2.53101 3.32034 0
M  V30 4267 H 414.104 6.38321 2.09753 0
M  V30 4268 N 416.824 -0.551391 1.4764 0
M  V30 4269 C 417.787 -1.64007 1.60107 0
M  V30 4270 C 418.787 -1.53601 0.47576 0
M  V30 4271 O 419.977 -1.57655 0.740988 0
M  V30 4272 C 417.109 -3.03569 1.55108 0
M  V30 4273 H 418.302 -1.543 2.57161 0
M  V30 4274 H 415.855 -0.771776 1.35917 0
M  V30 4275 H 416.59 -3.18804 0.594519 0
M  V30 4276 H 416.375 -3.12532 2.36783 0
M  V30 4277 H 417.865 -3.82762 1.66982 0
M  V30 4278 N 418.302 -1.35869 -0.798587 0
M  V30 4279 C 419.232 -1.32118 -1.92528 0
M  V30 4280 C 420.213 -0.194209 -1.68988 0
M  V30 4281 O 421.398 -0.390426 -1.90235 0
M  V30 4282 C 418.528 -1.10047 -3.29404 0
M  V30 4283 C 417.482 -2.19471 -3.67446 0
M  V30 4284 C 416.808 -1.82555 -5.02571 0
M  V30 4285 C 418.108 -3.61495 -3.76987 0
M  V30 4286 H 419.802 -2.26394 -1.95924 0
M  V30 4287 H 417.348 -1.08981 -0.94123 0
M  V30 4288 H 419.301 -1.06061 -4.07835 0
M  V30 4289 H 418.025 -0.122195 -3.26371 0
M  V30 4290 H 416.684 -2.22568 -2.91306 0
M  V30 4291 H 416.332 -0.833249 -4.9605 0
M  V30 4292 H 416.032 -2.5581 -5.28995 0
M  V30 4293 H 417.556 -1.80108 -5.83432 0
M  V30 4294 H 418.97 -3.60676 -4.4563 0
M  V30 4295 H 417.367 -4.33577 -4.14887 0
M  V30 4296 H 418.437 -3.97065 -2.78329 0
M  V30 4297 N 419.78 1.02168 -1.19998 0
M  V30 4298 C 420.73 2.08969 -0.911921 0
M  V30 4299 C 421.714 1.60404 0.12621 0
M  V30 4300 O 422.906 1.76817 -0.0804706 0
M  V30 4301 C 420.035 3.402 -0.460277 0
M  V30 4302 C 419.121 3.9548 -1.53155 0
M  V30 4303 N 419.512 4.24332 -2.75275 0
M  V30 4304 C 417.81 4.23572 -1.39653 0
M  V30 4305 C 418.511 4.68834 -3.44339 0
M  V30 4306 N 417.487 4.70804 -2.71744 0
M  V30 4307 H 421.289 2.29178 -1.83997 0
M  V30 4308 H 418.803 1.20094 -1.09322 0
M  V30 4309 H 420.8 4.16235 -0.235337 0
M  V30 4310 H 419.46 3.21408 0.4612 0
M  V30 4311 H 420.471 4.13393 -3.11973 0
M  V30 4312 H 417.148 4.14005 -0.539067 0
M  V30 4313 H 418.538 5.00019 -4.4881 0
M  V30 4314 N 421.258 1.00505 1.21394 0
M  V30 4315 C 422.188 0.585684 2.26035 0
M  V30 4316 C 423.169 -0.393525 1.65485 0
M  V30 4317 O 424.354 -0.281497 1.92149 0
M  V30 4318 C 421.484 -0.0884283 3.47187 0
M  V30 4319 C 420.438 0.810567 4.20254 0
M  V30 4320 C 419.764 0.00286382 5.347 0
M  V30 4321 C 421.064 2.1132 4.77641 0
M  V30 4322 H 422.758 1.46039 2.61368 0
M  V30 4323 H 420.304 0.703648 1.25638 0
M  V30 4324 H 422.257 -0.393286 4.19561 0
M  V30 4325 H 420.981 -0.997766 3.10986 0
M  V30 4326 H 419.64 1.09925 3.49731 0
M  V30 4327 H 419.288 -0.907765 4.94741 0
M  V30 4328 H 418.988 0.601444 5.84514 0
M  V30 4329 H 420.512 -0.295808 6.09883 0
M  V30 4330 H 421.926 1.87148 5.41893 0
M  V30 4331 H 420.323 2.66164 5.37845 0
M  V30 4332 H 421.393 2.78393 3.9702 0
M  V30 4333 N 422.737 -1.36956 0.779787 0
M  V30 4334 C 423.965 -2.03755 0.359398 0
M  V30 4335 C 424.38 -1.58807 -1.02106 0
M  V30 4336 O 423.737 -0.773024 -1.6532 0
M  V30 4337 C 423.788 -3.59251 0.402568 0
M  V30 4338 O 423.509 -4.02557 1.72858 0
M  V30 4339 C 425.01 -4.43291 -0.0284068 0
M  V30 4340 H 422.23 -0.654148 0.149437 0
M  V30 4341 H 424.774 -1.75128 1.05595 0
M  V30 4342 H 422.929 -3.86621 -0.245478 0
M  V30 4343 H 423.343 -4.97111 1.67275 0
M  V30 4344 H 424.817 -5.51975 0.0529466 0
M  V30 4345 H 425.294 -4.25719 -1.07982 0
M  V30 4346 H 425.9 -4.21163 0.591758 0
M  V30 4347 N 424.215 -0.530993 -1.48385 0
M  V30 4348 C 425.631 -0.188919 -1.58478 0
M  V30 4349 C 425.831 1.30786 -1.53288 0
M  V30 4350 O 424.887 2.08619 -1.42248 0
M  V30 4351 C 426.2 -0.792343 -2.90073 0
M  V30 4352 C 427.748 -0.76117 -3.03604 0
M  V30 4353 C 428.223 -1.34319 -4.37861 0
M  V30 4354 N 429.714 -1.3052 -4.44431 0
M  V30 4355 C 430.449 -1.72543 -5.46824 0
M  V30 4356 N 429.945 -2.22299 -6.56167 0
M  V30 4357 N 431.738 -1.63773 -5.37712 0
M  V30 4358 H 423.889 -1.50377 -1.50002 0
M  V30 4359 H 426.152 -0.625559 -0.712306 0
M  V30 4360 H 425.858 -1.84323 -2.99529 0
M  V30 4361 H 425.732 -0.270026 -3.76232 0
M  V30 4362 H 428.119 0.280957 -2.93759 0
M  V30 4363 H 428.2 -1.32097 -2.19053 0
M  V30 4364 H 427.844 -2.38425 -4.4846 0
M  V30 4365 H 427.774 -0.759064 -5.21101 0
M  V30 4366 H 430.265 -0.940973 -3.65997 0
M  V30 4367 H 430.578 -2.52356 -7.30436 0
M  V30 4368 H 428.923 -2.26293 -6.57127 0
M  V30 4369 H 432.114 -1.24698 -4.51185 0
M  V30 4370 H 432.287 -1.96844 -6.17379 0
M  V30 4371 N 425.693 1.55336 -0.266172 0
M  V30 4372 C 426.64 2.22172 0.625165 0
M  V30 4373 C 427.61 1.19211 1.15663 0
M  V30 4374 O 428.795 1.47723 1.20758 0
M  V30 4375 C 425.935 2.93972 1.8076 0
M  V30 4376 C 425.048 4.11632 1.31084 0
M  V30 4377 C 424.183 4.71099 2.45436 0
M  V30 4378 C 423.222 5.8097 1.92718 0
M  V30 4379 N 422.359 6.34538 3.00509 0
M  V30 4380 H 427.199 2.9796 0.0485582 0
M  V30 4381 H 424.736 1.47095 0.0122024 0
M  V30 4382 H 426.694 3.33811 2.50251 0
M  V30 4383 H 425.324 2.20623 2.35638 0
M  V30 4384 H 424.376 3.76975 0.509326 0
M  V30 4385 H 425.688 4.90893 0.884633 0
M  V30 4386 H 424.842 5.13612 3.22936 0
M  V30 4387 H 423.581 3.91096 2.91368 0
M  V30 4388 H 422.586 5.37916 1.13695 0
M  V30 4389 H 423.811 6.62836 1.47733 0
M  V30 4390 H 421.757 5.57433 3.45839 0
M  V30 4391 H 421.674 7.09046 2.62279 0
M  V30 4392 H 422.942 6.81709 3.78011 0
M  V30 4393 N 427.171 -0.0066808 1.57599 0
M  V30 4394 C 428.417 -0.693947 1.90558 0
M  V30 4395 C 428.75 -1.73792 0.866594 0
M  V30 4396 O 428.025 -1.94156 -0.115548 0
M  V30 4397 C 428.308 -1.34317 3.34112 0
M  V30 4398 C 428.161 -0.311189 4.48722 0
M  V30 4399 C 429.48 -2.27116 3.7697 0
M  V30 4400 H 426.599 -0.250803 0.693013 0
M  V30 4401 H 429.241 0.043242 1.89951 0
M  V30 4402 H 427.391 -1.9715 3.3476 0
M  V30 4403 H 429.063 0.316944 4.6021 0
M  V30 4404 H 427.306 0.367253 4.32243 0
M  V30 4405 H 427.977 -0.804366 5.46108 0
M  V30 4406 H 430.453 -1.74306 3.77831 0
M  V30 4407 H 429.329 -2.69511 4.78179 0
M  V30 4408 H 429.59 -3.14743 3.10466 0
M  V30 4409 N 428.649 -1.55105 -0.279332 0
M  V30 4410 C 429.895 -1.75672 -1.01327 0
M  V30 4411 C 430.228 -0.552739 -1.86168 0
M  V30 4412 O 429.503 0.449827 -1.89227 0
M  V30 4413 C 429.786 -3.05825 -1.90114 0
M  V30 4414 C 429.639 -4.36565 -1.08309 0
M  V30 4415 C 430.958 -3.31975 -2.8893 0
M  V30 4416 H 428.077 -0.639149 -0.366957 0
M  V30 4417 H 430.719 -1.87833 -0.286154 0
M  V30 4418 H 428.869 -2.95588 -2.52111 0
M  V30 4419 H 430.541 -4.58751 -0.484314 0
M  V30 4420 H 428.784 -4.32076 -0.386362 0
M  V30 4421 H 429.455 -5.23946 -1.73737 0
M  V30 4422 H 431.931 -3.41963 -2.37067 0
M  V30 4423 H 430.807 -4.2432 -3.48201 0
M  V30 4424 H 431.068 -2.51309 -3.63725 0
M  V30 4425 N 430.127 0.543554 -1.4793 0
M  V30 4426 C 431.543 0.870806 -1.3375 0
M  V30 4427 C 431.743 1.9864 -0.338261 0
M  V30 4428 O 430.799 2.51305 0.245371 0
M  V30 4429 C 432.112 1.25114 -2.73435 0
M  V30 4430 C 433.66 1.3618 -2.81823 0
M  V30 4431 C 434.135 1.77563 -4.22179 0
M  V30 4432 N 435.626 1.8469 -4.24787 0
M  V30 4433 C 436.361 2.18067 -5.30315 0
M  V30 4434 N 435.857 2.49963 -6.46135 0
M  V30 4435 N 437.65 2.18958 -5.17701 0
M  V30 4436 H 429.801 -0.19275 -2.11524 0
M  V30 4437 H 432.064 -0.0235777 -0.947707 0
M  V30 4438 H 431.77 0.50514 -3.48053 0
M  V30 4439 H 431.644 2.20431 -3.06088 0
M  V30 4440 H 434.031 2.09859 -2.07468 0
M  V30 4441 H 434.112 0.390169 -2.52807 0
M  V30 4442 H 433.756 1.04449 -4.97044 0
M  V30 4443 H 433.686 2.75753 -4.48629 0
M  V30 4444 H 436.177 1.62372 -3.41239 0
M  V30 4445 H 436.49 2.74497 -7.22406 0
M  V30 4446 H 434.835 2.47513 -6.49432 0
M  V30 4447 H 438.026 1.93488 -4.2624 0
M  V30 4448 H 438.199 2.44639 -6.00047 0
M  V30 4449 N 431.605 1.3629 0.791371 0
M  V30 4450 C 432.553 1.30514 1.92533 0
M  V30 4451 C 433.547 0.197285 1.68247 0
M  V30 4452 O 434.753 0.364176 1.76278 0
M  V30 4453 H 431.128 0.406263 0.632815 0
M  V30 4454 H 433.099 2.26282 1.94523 0
M  V30 4455 C 431.848 1.10933 3.29529 0
M  V30 4456 H 431.171 1.95427 3.48781 0
M  V30 4457 H 432.611 1.10937 4.0923 0
M  V30 4458 C 431.07 -0.186123 3.36385 0
M  V30 4459 O 431.6 -1.17664 3.84081 0
M  V30 4460 N 429.806 -0.230128 2.89687 0
M  V30 4461 H 429.353 0.576545 2.51065 0
M  V30 4462 H 429.311 -1.09658 2.94657 0
M  V30 4463 N 433.083 -1.0153 1.20538 0
M  V30 4464 C 434.013 -2.11972 0.979295 0
M  V30 4465 C 434.994 -1.6985 -0.0921787 0
M  V30 4466 O 436.179 -1.94089 0.0655932 0
M  V30 4467 C 433.309 -3.43201 0.531984 0
M  V30 4468 C 432.263 -3.9907 1.54685 0
M  V30 4469 C 431.589 -5.26082 0.956127 0
M  V30 4470 C 432.889 -4.32313 2.93092 0
M  V30 4471 H 434.583 -2.31143 1.90298 0
M  V30 4472 H 432.129 -1.11079 0.916372 0
M  V30 4473 H 434.082 -4.1985 0.361044 0
M  V30 4474 H 432.806 -3.23792 -0.427327 0
M  V30 4475 H 431.465 -3.2453 1.70517 0
M  V30 4476 H 431.113 -5.02999 -0.0111538 0
M  V30 4477 H 430.813 -5.64426 1.63393 0
M  V30 4478 H 432.337 -6.05386 0.796284 0
M  V30 4479 H 433.751 -4.99845 2.80763 0
M  V30 4480 H 432.148 -4.81774 3.57791 0
M  V30 4481 H 433.218 -3.41025 3.44717 0
M  V30 4482 N 434.561 -1.01147 -1.20859 0
M  V30 4483 C 435.509 -0.57059 -2.25493 0
M  V30 4484 C 436.503 0.388109 -1.64894 0
M  V30 4485 O 437.709 0.258592 -1.78133 0
M  V30 4486 H 434.084 -0.166191 -0.733406 0
M  V30 4487 H 436.055 -1.46411 -2.60012 0
M  V30 4488 C 434.804 0.0805241 -3.47607 0
M  V30 4489 H 434.127 -0.648156 -3.94511 0
M  V30 4490 H 435.567 0.352197 -4.22535 0
M  V30 4491 C 434.026 1.32175 -3.09889 0
M  V30 4492 O 434.556 2.41553 -3.20959 0
M  V30 4493 N 432.762 1.20392 -2.64488 0
M  V30 4494 H 432.309 0.313905 -2.5568 0
M  V30 4495 H 432.267 2.03541 -2.39621 0
M  V30 4496 N 436.039 1.36541 -0.78704 0
M  V30 4497 C 437.269 2.03266 -0.369662 0
M  V30 4498 C 437.677 1.59481 1.01796 0
M  V30 4499 O 437.02 0.778612 1.66383 0
M  V30 4500 C 437.082 3.57779 -0.351371 0
M  V30 4501 C 436.746 4.24756 -1.68617 0
M  V30 4502 C 437.743 4.47811 -2.64124 0
M  V30 4503 C 435.428 4.62277 -1.96481 0
M  V30 4504 C 437.422 5.07464 -3.85693 0
M  V30 4505 C 435.109 5.21649 -3.18317 0
M  V30 4506 C 436.107 5.44182 -4.12741 0
M  V30 4507 O 435.795 6.02307 -5.32429 0
M  V30 4508 H 435.527 0.658977 -0.150751 0
M  V30 4509 H 438.081 1.75548 -1.0664 0
M  V30 4510 H 436.311 3.84606 0.401847 0
M  V30 4511 H 438 4.05879 0.0410147 0
M  V30 4512 H 438.766 4.19221 -2.43883 0
M  V30 4513 H 434.645 4.44065 -1.23805 0
M  V30 4514 H 438.189 5.24968 -4.59407 0
M  V30 4515 H 434.086 5.49664 -3.38437 0
M  V30 4516 H 434.854 6.20775 -5.33461 0
M  V30 4517 N 437.518 0.538854 1.48102 0
M  V30 4518 C 438.45 -0.256278 2.27763 0
M  V30 4519 C 439.463 -0.89633 1.35904 0
M  V30 4520 O 440.652 -0.773275 1.60881 0
M  V30 4521 C 437.752 -1.37896 3.09577 0
M  V30 4522 C 436.925 -0.839159 4.29275 0
M  V30 4523 C 435.984 -1.84405 4.9283 0
M  V30 4524 O 435.01 -1.39746 5.51779 0
M  V30 4525 N 436.212 -3.17666 4.85869 0
M  V30 4526 H 438.977 0.426968 2.96643 0
M  V30 4527 H 436.538 0.373747 1.57527 0
M  V30 4528 H 438.53 -2.04955 3.48963 0
M  V30 4529 H 437.1 -1.96572 2.4306 0
M  V30 4530 H 436.32 0.00769287 3.94199 0
M  V30 4531 H 437.608 -0.457548 5.06739 0
M  V30 4532 H 437.006 -3.56609 4.39143 0
M  V30 4533 H 435.563 -3.80334 5.29329 0
M  V30 4534 N 438.996 -1.55193 0.274407 0
M  V30 4535 C 439.943 -2.225 -0.613374 0
M  V30 4536 C 440.913 -1.19823 -1.15029 0
M  V30 4537 O 442.098 -1.48362 -1.19973 0
M  V30 4538 C 439.238 -2.94927 -1.79199 0
M  V30 4539 C 438.351 -4.12322 -1.28899 0
M  V30 4540 C 437.486 -4.72394 -2.42934 0
M  V30 4541 C 436.525 -5.81984 -1.89634 0
M  V30 4542 N 435.662 -6.36123 -2.9714 0
M  V30 4543 H 440.502 -2.97982 -0.032756 0
M  V30 4544 H 438.039 -1.47099 -0.00440146 0
M  V30 4545 H 439.997 -3.35134 -2.48478 0
M  V30 4546 H 438.627 -2.2187 -2.34465 0
M  V30 4547 H 437.679 -3.7724 -0.489327 0
M  V30 4548 H 438.991 -4.91355 -0.858587 0
M  V30 4549 H 438.145 -5.15317 -3.20208 0
M  V30 4550 H 436.884 -3.92636 -2.8929 0
M  V30 4551 H 435.889 -5.38511 -1.1084 0
M  V30 4552 H 437.114 -6.6361 -1.44215 0
M  V30 4553 H 435.06 -5.59259 -3.42878 0
M  V30 4554 H 434.977 -7.10427 -2.58515 0
M  V30 4555 H 436.245 -6.83704 -3.74391 0
M  V30 4556 N 440.474 -0.00167713 -1.576 0
M  V30 4557 C 441.421 0.989195 -2.08527 0
M  V30 4558 C 442.391 1.34031 -0.981065 0
M  V30 4559 O 443.576 1.43839 -1.2536 0
M  V30 4560 C 440.716 2.27537 -2.59463 0
M  V30 4561 C 439.829 1.98314 -3.83791 0
M  V30 4562 C 438.964 3.21025 -4.23222 0
M  V30 4563 C 438.003 2.87495 -5.40382 0
M  V30 4564 N 437.14 4.02749 -5.75098 0
M  V30 4565 H 441.98 0.547973 -2.92919 0
M  V30 4566 H 439.517 0.258917 -1.44803 0
M  V30 4567 H 441.475 3.02729 -2.87073 0
M  V30 4568 H 440.105 2.69325 -1.77943 0
M  V30 4569 H 439.157 1.13482 -3.63078 0
M  V30 4570 H 440.469 1.69601 -4.69081 0
M  V30 4571 H 439.623 4.04561 -4.52123 0
M  V30 4572 H 438.362 3.52877 -3.36644 0
M  V30 4573 H 437.367 2.02367 -5.11202 0
M  V30 4574 H 438.592 2.56889 -6.28637 0
M  V30 4575 H 436.538 4.34494 -4.91478 0
M  V30 4576 H 436.455 3.77566 -6.54966 0
M  V30 4577 H 437.723 4.87068 -6.08592 0
M  V30 4578 N 441.952 1.55251 0.271103 0
M  V30 4579 C 442.882 1.9127 1.33933 0
M  V30 4580 C 443.863 0.77478 1.5143 0
M  V30 4581 O 445.048 1.03307 1.64442 0
M  V30 4582 C 442.178 2.18627 2.69851 0
M  V30 4583 C 441.132 3.34442 2.67081 0
M  V30 4584 C 440.458 3.47284 4.06569 0
M  V30 4585 C 441.758 4.70784 2.26185 0
M  V30 4586 H 443.452 2.80744 1.04035 0
M  V30 4587 H 440.998 1.35077 0.499017 0
M  V30 4588 H 442.951 2.42413 3.44694 0
M  V30 4589 H 441.675 1.25955 3.01335 0
M  V30 4590 H 440.334 3.10627 1.94695 0
M  V30 4591 H 439.982 2.52074 4.35279 0
M  V30 4592 H 439.682 4.25152 4.0561 0
M  V30 4593 H 441.206 3.73363 4.83148 0
M  V30 4594 H 442.62 4.94102 2.90751 0
M  V30 4595 H 441.017 5.51582 2.36384 0
M  V30 4596 H 442.087 4.69478 1.21319 0
M  V30 4597 N 443.43 -0.535701 1.48216 0
M  V30 4598 C 444.707 -1.29683 1.46429 0
M  V30 4599 C 445.087 -2.10391 0.172852 0
M  V30 4600 O 444.435 -2.12282 -0.845488 0
M  V30 4601 C 444.645 -2.18313 2.72287 0
M  V30 4602 C 445.993 -2.78639 3.20383 0
M  V30 4603 O 447.017 -2.28604 2.73164 0
M  V30 4604 O 445.876 -3.69636 4.02531 0
M  V30 4605 H 442.97 -0.585026 0.584529 0
M  V30 4606 H 445.516 -0.552827 1.60443 0
M  V30 4607 H 444.288 -1.58421 3.57797 0
M  V30 4608 H 443.911 -2.99971 2.60966 0
M  V30 4609 N 444.908 -1.36708 -0.784132 0
M  V30 4610 C 446.154 -1.31426 -1.54451 0
M  V30 4611 C 446.487 0.10476 -1.93917 0
M  V30 4612 O 445.762 1.05934 -1.6312 0
M  V30 4613 C 446.045 -2.24189 -2.818 0
M  V30 4614 C 445.898 -3.74813 -2.48667 0
M  V30 4615 C 447.217 -2.15626 -3.83658 0
M  V30 4616 H 444.336 -0.478739 -0.560337 0
M  V30 4617 H 446.978 -1.67305 -0.900498 0
M  V30 4618 H 445.128 -1.93722 -3.36755 0
M  V30 4619 H 446.8 -4.15823 -1.99722 0
M  V30 4620 H 445.043 -3.93989 -1.81535 0
M  V30 4621 H 445.714 -4.35138 -3.39646 0
M  V30 4622 H 448.19 -2.42456 -3.38163 0
M  V30 4623 H 447.066 -2.82694 -4.70506 0
M  V30 4624 H 447.327 -1.14522 -4.27009 0
M  V30 4625 N 446.386 1.0089 -1.21074 0
M  V30 4626 C 447.614 1.78191 -1.05145 0
M  V30 4627 C 448.029 1.84537 0.398952 0
M  V30 4628 O 447.386 1.30393 1.27687 0
M  V30 4629 C 447.437 3.22288 -1.63746 0
M  V30 4630 O 447.158 3.16315 -3.03111 0
M  V30 4631 C 448.659 4.16106 -1.52875 0
M  V30 4632 H 445.879 0.560129 -0.369454 0
M  V30 4633 H 448.423 1.26945 -1.60328 0
M  V30 4634 H 446.578 3.70655 -1.12664 0
M  V30 4635 H 446.992 4.06817 -3.31059 0
M  V30 4636 H 448.466 5.15026 -1.98626 0
M  V30 4637 H 448.943 4.36541 -0.482521 0
M  V30 4638 H 449.549 3.73625 -2.03185 0
M  V30 4639 N 447.864 1.01787 1.20321 0
M  V30 4640 C 449.113 0.703249 1.89043 0
M  V30 4641 C 449.426 -0.770445 1.79787 0
M  V30 4642 O 450.632 -1.19767 2.43656 0
M  V30 4643 C 449.088 1.20749 3.3904 0
M  V30 4644 C 448.696 2.70817 3.56878 0
M  V30 4645 C 450.44 0.968352 4.13308 0
M  V30 4646 C 448.347 3.14716 5.00708 0
M  V30 4647 H 447.277 0.259354 0.707991 0
M  V30 4648 H 449.928 1.23072 1.36108 0
M  V30 4649 H 448.31 0.607989 3.91305 0
M  V30 4650 H 449.484 3.36327 3.14993 0
M  V30 4651 H 447.799 2.92888 2.95983 0
M  V30 4652 H 450.396 1.27173 5.19356 0
M  V30 4653 H 450.739 -0.095149 4.16191 0
M  V30 4654 H 451.272 1.53129 3.67146 0
M  V30 4655 H 448.011 4.20347 5.02979 0
M  V30 4656 H 447.531 2.53927 5.43398 0
M  V30 4657 H 449.21 3.07426 5.69296 0
M  V30 4658 N 449.342 -1.36122 0.79427 0
M  V30 4659 C 450.252 -2.33769 0.197296 0
M  V30 4660 C 451.268 -1.61276 -0.653153 0
M  V30 4661 O 452.444 -1.9323 -0.5678 0
M  V30 4662 C 449.509 -3.40474 -0.654098 0
M  V30 4663 C 448.57 -4.28759 0.215411 0
M  V30 4664 C 447.803 -5.30368 -0.595443 0
M  V30 4665 O 448.026 -5.40211 -1.83107 0
M  V30 4666 O 446.96 -6.019 0.00721351 0
M  V30 4667 H 450.786 -2.86597 1.00478 0
M  V30 4668 H 448.371 -1.38676 0.555818 0
M  V30 4669 H 450.253 -4.05703 -1.13944 0
M  V30 4670 H 448.928 -2.89937 -1.43938 0
M  V30 4671 H 447.835 -3.66554 0.747615 0
M  V30 4672 H 449.168 -4.82661 0.964332 0
M  V30 4673 N 450.82 -0.546701 -1.47814 0
M  V30 4674 C 452.231 -0.110564 -1.86372 0
M  V30 4675 C 452.582 1.31678 -1.45449 0
M  V30 4676 O 451.707 1.98889 -0.852758 0
M  V30 4677 C 452.302 -0.193873 -3.38245 0
M  V30 4678 C 450.861 0.187164 -3.75934 0
M  V30 4679 C 450.008 -0.546166 -2.71868 0
M  V30 4680 H 452.959 -0.757022 -1.39481 0
M  V30 4681 H 452.98 0.590218 -3.75895 0
M  V30 4682 H 452.492 -1.23282 -3.67999 0
M  V30 4683 H 450.593 1.22762 -3.51796 0
M  V30 4684 H 450.706 -0.164083 -4.78819 0
M  V30 4685 H 449.07 0.00953904 -2.54698 0
M  V30 4686 H 449.853 -1.58606 -3.04465 0
M  V30 4687 N 452.299 1.55045 -0.282633 0
M  V30 4688 C 453.524 2.04628 0.337977 0
M  V30 4689 C 453.949 1.15937 1.48123 0
M  V30 4690 O 453.307 0.159532 1.80597 0
M  V30 4691 C 453.355 3.51854 0.78936 0
M  V30 4692 O 452.459 3.66236 1.89592 0
M  V30 4693 H 451.8 0.660434 0.0687261 0
M  V30 4694 H 454.33 2.00261 -0.419124 0
M  V30 4695 H 454.34 3.93361 1.08311 0
M  V30 4696 H 453.015 4.15873 -0.0470419 0
M  V30 4697 H 451.592 3.36633 1.60413 0
M  V30 4698 N 453.777 0.010035 1.57597 0
M  V30 4699 C 454.687 -0.994226 2.12491 0
M  V30 4700 C 455.703 -1.37013 1.07254 0
M  V30 4701 O 456.879 -1.45542 1.3921 0
M  V30 4702 C 453.944 -2.2642 2.62555 0
M  V30 4703 C 453.005 -1.95049 3.82432 0
M  V30 4704 C 452.238 -3.15991 4.30099 0
M  V30 4705 O 452.461 -4.28015 3.7704 0
M  V30 4706 O 451.395 -2.99403 5.22151 0
M  V30 4707 H 455.221 -0.557549 2.98538 0
M  V30 4708 H 452.806 -0.209413 1.47925 0
M  V30 4709 H 454.688 -3.01009 2.9491 0
M  V30 4710 H 453.363 -2.69306 1.796 0
M  V30 4711 H 452.27 -1.17904 3.55034 0
M  V30 4712 H 453.603 -1.56992 4.66491 0
M  V30 4713 N 455.255 -1.55392 -0.262866 0
M  V30 4714 C 456.165 -1.92077 -1.34698 0
M  V30 4715 C 457.181 -0.819227 -1.53508 0
M  V30 4716 O 458.357 -1.11921 -1.67439 0
M  V30 4717 C 455.422 -2.19407 -2.68443 0
M  V30 4718 C 454.483 -3.42905 -2.58292 0
M  V30 4719 C 453.716 -3.68921 -3.85659 0
M  V30 4720 O 453.939 -2.97275 -4.8681 0
M  V30 4721 O 452.873 -4.62455 -3.85252 0
M  V30 4722 H 456.699 -2.84384 -1.06581 0
M  V30 4723 H 454.284 -1.42069 -0.462264 0
M  V30 4724 H 456.166 -2.38365 -3.47506 0
M  V30 4725 H 454.841 -1.30282 -2.96325 0
M  V30 4726 H 453.748 -3.29272 -1.7757 0
M  V30 4727 H 455.081 -4.32282 -2.35358 0
M  V30 4728 N 456.733 0.527833 -1.48498 0
M  V30 4729 C 458.144 1.10975 -1.50138 0
M  V30 4730 C 458.495 1.943 -0.272378 0
M  V30 4731 O 457.62 2.07319 0.620301 0
M  V30 4732 C 458.215 2.01927 -2.72049 0
M  V30 4733 C 456.774 2.55332 -2.76554 0
M  V30 4734 C 455.921 1.32341 -2.43683 0
M  V30 4735 H 458.872 0.312986 -1.55583 0
M  V30 4736 H 458.893 2.86244 -2.50689 0
M  V30 4737 H 458.405 1.41254 -3.61481 0
M  V30 4738 H 456.506 3.19721 -1.91336 0
M  V30 4739 H 456.619 2.94319 -3.78038 0
M  V30 4740 H 454.983 1.63989 -1.94884 0
M  V30 4741 H 455.766 0.734165 -3.35358 0
M  V30 4742 N 458.211 1.37122 0.776871 0
M  V30 4743 C 459.141 1.35164 1.90402 0
M  V30 4744 C 460.122 0.221069 1.68657 0
M  V30 4745 O 461.307 0.420642 1.8959 0
M  V30 4746 C 458.437 1.15274 3.27611 0
M  V30 4747 C 457.391 2.25289 3.63908 0
M  V30 4748 C 456.717 1.90527 4.99603 0
M  V30 4749 C 458.017 3.67446 3.71188 0
M  V30 4750 H 459.711 2.29482 1.92297 0
M  V30 4751 H 457.257 1.10465 0.923773 0
M  V30 4752 H 459.21 1.12536 4.06096 0
M  V30 4753 H 457.934 0.174102 3.26136 0
M  V30 4754 H 456.593 2.27174 2.87728 0
M  V30 4755 H 456.241 0.91206 4.94662 0
M  V30 4756 H 455.941 2.64193 5.24858 0
M  V30 4757 H 457.465 1.89367 5.80493 0
M  V30 4758 H 458.879 3.67719 4.39836 0
M  V30 4759 H 457.276 4.40123 4.07936 0
M  V30 4760 H 458.346 4.01443 2.71977 0
M  V30 4761 N 459.689 -1.00246 1.21608 0
M  V30 4762 C 460.936 -1.74061 1.03485 0
M  V30 4763 C 461.264 -1.89658 -0.431308 0
M  V30 4764 O 460.519 -1.42976 -1.33627 0
M  V30 4765 C 460.818 -3.15448 1.68009 0
M  V30 4766 C 460.484 -3.19792 3.17874 0
M  V30 4767 C 459.146 -3.20685 3.58768 0
M  V30 4768 C 461.498 -3.16835 4.13842 0
M  V30 4769 C 458.826 -3.16309 4.94131 0
M  V30 4770 C 461.178 -3.14001 5.49169 0
M  V30 4771 C 459.842 -3.13204 5.89457 0
M  V30 4772 H 459.112 -0.636934 0.378677 0
M  V30 4773 H 461.759 -1.17473 1.51236 0
M  V30 4774 H 460.064 -3.75284 1.12557 0
M  V30 4775 H 461.761 -3.71285 1.51487 0
M  V30 4776 H 458.351 -3.19842 2.85305 0
M  V30 4777 H 462.535 -3.15303 3.83272 0
M  V30 4778 H 457.791 -3.14032 5.24589 0
M  V30 4779 H 461.965 -3.10667 6.23265 0
M  V30 4780 H 459.592 -3.09568 6.94314 0
M  V30 4781 N 461.167 -1.02423 -1.1978 0
M  V30 4782 C 462.578 -0.748389 -1.71044 0
M  V30 4783 C 462.929 0.732398 -1.82017 0
M  V30 4784 O 462.054 1.57116 -1.48807 0
M  V30 4785 C 462.649 -1.35187 -3.1066 0
M  V30 4786 C 461.208 -1.12472 -3.59203 0
M  V30 4787 C 460.355 -1.45283 -2.36195 0
M  V30 4788 H 463.306 -1.19275 -1.04686 0
M  V30 4789 H 463.327 -0.746408 -3.73107 0
M  V30 4790 H 462.839 -2.4296 -3.02642 0
M  V30 4791 H 460.94 -0.0649983 -3.72543 0
M  V30 4792 H 461.053 -1.81016 -4.43588 0
M  V30 4793 H 459.417 -0.872034 -2.39307 0
M  V30 4794 H 460.2 -2.54129 -2.30811 0
M  V30 4795 N 462.645 1.35699 -0.801477 0
M  V30 4796 C 463.608 2.28199 -0.213994 0
M  V30 4797 C 464.608 1.49359 0.595691 0
M  V30 4798 O 465.798 1.69186 0.414921 0
M  V30 4799 C 462.93 3.33587 0.702297 0
M  V30 4800 H 464.123 2.81666 -1.02976 0
M  V30 4801 H 461.676 1.45467 -0.571759 0
M  V30 4802 H 462.411 2.85297 1.54195 0
M  V30 4803 H 462.196 3.91906 0.123484 0
M  V30 4804 H 463.686 4.02638 1.10783 0
M  V30 4805 N 464.123 0.554532 1.47522 0
M  V30 4806 C 465.4 -0.0360704 1.95567 0
M  V30 4807 C 465.78 -1.48828 1.49711 0
M  V30 4808 O 465.128 -2.16366 0.734717 0
M  V30 4809 C 465.338 0.106631 3.48837 0
M  V30 4810 C 466.686 -0.0400899 4.24581 0
M  V30 4811 O 467.71 0.0340453 3.56184 0
M  V30 4812 O 466.569 -0.199111 5.46137 0
M  V30 4813 H 463.663 -0.0656294 0.824392 0
M  V30 4814 H 466.209 0.620867 1.57935 0
M  V30 4815 H 464.981 1.11727 3.7501 0
M  V30 4816 H 464.604 -0.58804 3.93227 0
M  V30 4817 N 465.601 -1.54893 0.290851 0
M  V30 4818 C 466.511 -2.26812 -0.59945 0
M  V30 4819 C 467.527 -1.29963 -1.15696 0
M  V30 4820 O 468.703 -1.62928 -1.18391 0
M  V30 4821 C 465.768 -2.98716 -1.75982 0
M  V30 4822 C 464.829 -4.1108 -1.2374 0
M  V30 4823 C 464.062 -4.79546 -2.34246 0
M  V30 4824 O 464.285 -4.47309 -3.53936 0
M  V30 4825 O 463.219 -5.67165 -2.01512 0
M  V30 4826 H 467.045 -3.03696 -0.0163561 0
M  V30 4827 H 464.63 -1.49289 0.0576755 0
M  V30 4828 H 466.512 -3.43851 -2.43607 0
M  V30 4829 H 465.187 -2.24737 -2.3297 0
M  V30 4830 H 464.094 -3.70367 -0.527163 0
M  V30 4831 H 465.427 -4.87007 -0.71307 0
M  V30 4832 N 467.08 -0.0183926 -1.57589 0
M  V30 4833 C 468.01 0.965596 -2.12599 0
M  V30 4834 C 468.991 1.34641 -1.0395 0
M  V30 4835 O 470.176 1.42693 -1.31729 0
M  V30 4836 C 467.306 2.25149 -2.64434 0
M  V30 4837 C 466.26 2.01175 -3.77773 0
M  V30 4838 C 465.586 3.35937 -4.15994 0
M  V30 4839 C 466.886 1.35953 -5.04296 0
M  V30 4840 H 468.58 0.507504 -2.95067 0
M  V30 4841 H 466.126 0.242671 -1.41941 0
M  V30 4842 H 468.079 2.94357 -3.01549 0
M  V30 4843 H 466.803 2.73105 -1.79112 0
M  V30 4844 H 465.462 1.34388 -3.4108 0
M  V30 4845 H 465.11 3.81631 -3.27669 0
M  V30 4846 H 464.81 3.20705 -4.92364 0
M  V30 4847 H 466.334 4.0643 -4.55683 0
M  V30 4848 H 467.748 1.95144 -5.39065 0
M  V30 4849 H 466.145 1.31152 -5.85593 0
M  V30 4850 H 467.215 0.331071 -4.83768 0
M  V30 4851 N 468.558 1.5553 0.254621 0
M  V30 4852 C 469.788 1.80784 1.00004 0
M  V30 4853 C 470.196 0.59071 1.79742 0
M  V30 4854 O 469.539 -0.449988 1.78103 0
M  V30 4855 C 469.601 2.99268 1.99196 0
M  V30 4856 C 469.265 4.35595 1.38224 0
M  V30 4857 C 470.262 5.13884 0.788611 0
M  V30 4858 C 467.947 4.82281 1.40393 0
M  V30 4859 C 469.941 6.37004 0.224783 0
M  V30 4860 C 467.628 6.05351 0.836243 0
M  V30 4861 C 468.626 6.82551 0.24769 0
M  V30 4862 O 468.314 8.03297 -0.311249 0
M  V30 4863 H 468.046 0.60565 0.300274 0
M  V30 4864 H 470.6 2.03411 0.285143 0
M  V30 4865 H 468.83 2.72377 2.74496 0
M  V30 4866 H 470.519 3.11682 2.60018 0
M  V30 4867 H 471.285 4.78938 0.764423 0
M  V30 4868 H 467.164 4.22189 1.85142 0
M  V30 4869 H 470.708 6.97203 -0.235235 0
M  V30 4870 H 466.605 6.39776 0.857733 0
M  V30 4871 H 467.373 8.1825 -0.20237 0
M  V30 4872 N 470.036 -0.519951 1.48776 0
M  V30 4873 C 471.284 -1.2727 1.56993 0
M  V30 4874 C 471.605 -1.9339 0.25004 0
M  V30 4875 O 470.875 -1.81822 -0.729216 0
M  V30 4876 H 469.455 -0.472732 0.578389 0
M  V30 4877 H 472.117 -0.604234 1.85297 0
M  V30 4878 H 471.213 -2.04669 2.3562 0
M  V30 4879 N 471.514 -1.37532 -0.769588 0
M  V30 4880 C 472.763 -1.32183 -1.5235 0
M  V30 4881 C 473.076 0.0906555 -1.9539 0
M  V30 4882 O 474.282 0.266628 -2.70188 0
M  V30 4883 C 472.738 -2.32029 -2.75119 0
M  V30 4884 C 472.346 -3.78816 -2.3917 0
M  V30 4885 C 474.09 -2.35694 -3.53056 0
M  V30 4886 C 471.997 -4.70388 -3.58453 0
M  V30 4887 H 470.927 -0.491275 -0.571984 0
M  V30 4888 H 473.578 -1.63004 -0.842739 0
M  V30 4889 H 471.96 -1.94229 -3.45096 0
M  V30 4890 H 473.134 -4.25466 -1.76962 0
M  V30 4891 H 471.449 -3.78117 -1.74402 0
M  V30 4892 H 474.046 -3.01312 -4.41718 0
M  V30 4893 H 474.389 -1.37117 -3.93071 0
M  V30 4894 H 474.922 -2.72212 -2.90078 0
M  V30 4895 H 471.661 -5.70102 -3.23518 0
M  V30 4896 H 471.181 -4.28442 -4.19758 0
M  V30 4897 H 472.86 -4.87628 -4.25239 0
M  V30 4898 N 472.992 0.995999 -1.22138 0
M  V30 4899 C 474.238 1.73767 -1.04561 0
M  V30 4900 C 474.571 1.89633 0.418698 0
M  V30 4901 O 473.846 1.43723 1.3105 0
M  V30 4902 C 474.129 3.14505 -1.75382 0
M  V30 4903 C 473.982 3.06306 -3.29388 0
M  V30 4904 C 475.301 4.13615 -1.50369 0
M  V30 4905 H 472.42 0.630728 -0.38125 0
M  V30 4906 H 475.062 1.16057 -1.50435 0
M  V30 4907 H 473.212 3.63775 -1.36383 0
M  V30 4908 H 474.884 2.64681 -3.77812 0
M  V30 4909 H 473.127 2.43186 -3.59226 0
M  V30 4910 H 473.798 4.05884 -3.74116 0
M  V30 4911 H 476.274 3.73089 -1.84239 0
M  V30 4912 H 475.15 5.10212 -2.02421 0
M  V30 4913 H 475.411 4.39949 -0.435611 0
M  V30 4914 N 474.47 1.03057 1.19235 0
M  V30 4915 C 475.718 0.726581 1.88587 0
M  V30 4916 C 476.039 -0.747227 1.80115 0
M  V30 4917 O 475.309 -1.53849 1.21274 0
M  V30 4918 H 473.889 0.265768 0.698124 0
M  V30 4919 H 476.551 1.30516 1.44746 0
M  V30 4920 H 475.647 1.0224 2.94879 0
M  V30 4921 N 475.948 -1.35272 0.808662 0
M  V30 4922 C 476.911 -2.28082 0.226093 0
M  V30 4923 C 477.911 -1.49673 -0.587762 0
M  V30 4924 O 479.101 -1.69404 -0.405943 0
M  V30 4925 C 476.233 -3.33955 -0.684596 0
M  V30 4926 H 477.426 -2.81116 1.04469 0
M  V30 4927 H 474.979 -1.45162 0.579466 0
M  V30 4928 H 475.714 -2.86111 -1.5268 0
M  V30 4929 H 475.499 -3.91965 -0.102699 0
M  V30 4930 H 476.989 -4.03219 -1.08646 0
M  V30 4931 N 477.426 -0.562348 -1.47226 0
M  V30 4932 C 478.374 0.195476 -2.31777 0
M  V30 4933 C 479.368 0.90433 -1.43242 0
M  V30 4934 O 480.574 0.825031 -1.59979 0
M  V30 4935 H 476.949 0.0819095 -0.747526 0
M  V30 4936 H 478.92 -0.536753 -2.93533 0
M  V30 4937 C 477.669 1.20902 -3.26003 0
M  V30 4938 H 476.992 0.672997 -3.94095 0
M  V30 4939 H 478.432 1.71006 -3.87986 0
M  V30 4940 C 476.891 2.25955 -2.49891 0
M  V30 4941 O 477.421 3.32969 -2.2471 0
M  V30 4942 N 475.627 2.00019 -2.1081 0
M  V30 4943 H 475.174 1.13006 -2.31489 0
M  V30 4944 H 475.132 2.70523 -1.60201 0
M  V30 4945 N 478.904 1.54736 -0.299062 0
M  V30 4946 C 479.834 2.26409 0.571085 0
M  V30 4947 C 480.815 1.2629 1.13951 0
M  V30 4948 O 482 1.55059 1.16921 0
M  V30 4949 C 479.13 3.00338 1.74396 0
M  V30 4950 C 478.084 4.07588 1.30599 0
M  V30 4951 C 477.41 4.69222 2.56387 0
M  V30 4952 C 478.71 5.20455 0.438645 0
M  V30 4953 H 480.404 2.99388 -0.0266991 0
M  V30 4954 H 477.95 1.43993 -0.0142812 0
M  V30 4955 H 479.903 3.49198 2.35878 0
M  V30 4956 H 478.627 2.24934 2.36796 0
M  V30 4957 H 477.286 3.59575 0.71424 0
M  V30 4958 H 476.934 3.9046 3.17097 0
M  V30 4959 H 476.634 5.41653 2.27784 0
M  V30 4960 H 478.158 5.20844 3.18675 0
M  V30 4961 H 479.572 5.65221 0.959085 0
M  V30 4962 H 477.969 5.99594 0.246466 0
M  V30 4963 H 479.039 4.8192 -0.536738 0
M  V30 4964 N 480.382 0.0267497 1.57577 0
M  V30 4965 C 481.329 -0.955894 2.10075 0
M  V30 4966 C 482.299 -1.32453 1.00226 0
M  V30 4967 O 483.484 -1.41826 1.27632 0
M  V30 4968 C 480.624 -2.2338 2.6305 0
M  V30 4969 C 479.737 -1.92183 3.86898 0
M  V30 4970 C 478.872 -3.14251 4.28275 0
M  V30 4971 C 477.911 -2.78862 5.44888 0
M  V30 4972 N 477.048 -3.93548 5.81433 0
M  V30 4973 H 481.888 -0.501303 2.93753 0
M  V30 4974 H 479.425 -0.235847 1.45197 0
M  V30 4975 H 481.383 -2.98124 2.91853 0
M  V30 4976 H 480.013 -2.6646 1.82205 0
M  V30 4977 H 479.065 -1.07692 3.64838 0
M  V30 4978 H 480.377 -1.62117 4.7172 0
M  V30 4979 H 479.531 -3.97317 4.58502 0
M  V30 4980 H 478.27 -3.47476 3.42215 0
M  V30 4981 H 477.275 -1.94208 5.14357 0
M  V30 4982 H 478.5 -2.46855 6.32645 0
M  V30 4983 H 476.446 -4.2662 4.98328 0
M  V30 4984 H 476.363 -3.67098 6.6089 0
M  V30 4985 H 477.631 -4.77325 6.16264 0
M  V30 4986 N 481.861 -1.55662 -0.24637 0
M  V30 4987 C 483.277 -1.48098 -0.594907 0
M  V30 4988 C 483.477 -0.717044 -1.8831 0
M  V30 4989 O 482.533 -0.246618 -2.51293 0
M  V30 4990 C 483.846 -2.92507 -0.697146 0
M  V30 4991 C 485.394 -3.02881 -0.789436 0
M  V30 4992 C 485.869 -4.48598 -0.923232 0
M  V30 4993 N 487.36 -4.52538 -0.988088 0
M  V30 4994 C 488.095 -5.62536 -1.11089 0
M  V30 4995 N 487.591 -6.82342 -1.19919 0
M  V30 4996 N 489.384 -5.50334 -1.14408 0
M  V30 4997 H 481.535 -2.0377 0.599278 0
M  V30 4998 H 483.798 -0.925145 0.20691 0
M  V30 4999 H 483.504 -3.51242 0.179396 0
M  V30 5000 H 483.378 -3.43024 -1.5689 0
M  V30 5001 H 485.765 -2.44226 -1.65643 0
M  V30 5002 H 485.846 -2.55574 0.107482 0
M  V30 5003 H 485.49 -5.07864 -0.0607927 0
M  V30 5004 H 485.42 -4.93587 -1.8352 0
M  V30 5005 H 487.911 -3.66248 -0.931167 0
M  V30 5006 H 488.224 -7.61924 -1.29197 0
M  V30 5007 H 486.569 -6.85102 -1.16876 0
M  V30 5008 H 489.76 -4.5567 -1.07158 0
M  V30 5009 H 489.933 -6.36096 -1.23634 0
M  V30 5010 N 483.339 0.512053 -1.4905 0
M  V30 5011 C 484.564 1.2959 -1.6193 0
M  V30 5012 C 484.989 1.85906 -0.286454 0
M  V30 5013 O 484.347 1.65312 0.744426 0
M  V30 5014 C 484.395 2.40987 -2.68249 0
M  V30 5015 O 483.499 3.44531 -2.26654 0
M  V30 5016 H 482.84 0.383053 -0.542371 0
M  V30 5017 H 485.37 0.614231 -1.95162 0
M  V30 5018 H 485.38 2.86913 -2.90078 0
M  V30 5019 H 484.055 1.99361 -3.65004 0
M  V30 5020 H 482.632 3.046 -2.15112 0
M  V30 5021 N 484.817 1.37938 0.762283 0
M  V30 5022 C 486.064 1.33668 1.52115 0
M  V30 5023 C 486.392 -0.0759538 1.94352 0
M  V30 5024 O 485.647 -1.05121 1.6507 0
M  V30 5025 C 485.946 2.23042 2.79261 0
M  V30 5026 C 485.612 3.71159 2.56031 0
M  V30 5027 C 484.274 4.11523 2.49404 0
M  V30 5028 C 486.626 4.64955 2.35513 0
M  V30 5029 C 483.954 5.43784 2.20263 0
M  V30 5030 C 486.306 5.97464 2.07894 0
M  V30 5031 C 484.97 6.36922 1.99718 0
M  V30 5032 H 484.24 0.489127 0.556629 0
M  V30 5033 H 486.887 1.70224 0.877262 0
M  V30 5034 H 485.192 1.79512 3.48256 0
M  V30 5035 H 486.889 2.17047 3.37182 0
M  V30 5036 H 483.479 3.39153 2.62056 0
M  V30 5037 H 487.663 4.34623 2.39617 0
M  V30 5038 H 482.919 5.73307 2.12435 0
M  V30 5039 H 487.093 6.6969 1.91019 0
M  V30 5040 H 484.72 7.39331 1.76902 0
M  V30 5041 N 486.295 -0.989507 1.22664 0
M  V30 5042 C 487.572 -1.70326 0.961688 0
M  V30 5043 C 487.952 -2.04537 -0.522279 0
M  V30 5044 O 487.3 -1.73136 -1.49118 0
M  V30 5045 C 487.51 -2.95135 1.86269 0
M  V30 5046 C 488.858 -3.67842 2.12078 0
M  V30 5047 O 489.882 -3.0515 1.83745 0
M  V30 5048 O 488.741 -4.80644 2.60083 0
M  V30 5049 H 485.835 -0.743589 0.361946 0
M  V30 5050 H 488.381 -1.04555 1.33665 0
M  V30 5051 H 487.153 -2.66382 2.8663 0
M  V30 5052 H 486.776 -3.68645 1.48952 0
M  V30 5053 N 487.773 -1.03688 -1.18687 0
M  V30 5054 C 489.019 -0.739123 -1.88851 0
M  V30 5055 C 489.352 0.731042 -1.79915 0
M  V30 5056 O 488.627 1.53313 -1.19688 0
M  V30 5057 C 488.91 -1.20106 -3.3948 0
M  V30 5058 C 488.763 -2.73304 -3.57246 0
M  V30 5059 C 490.082 -0.788134 -4.32986 0
M  V30 5060 H 487.201 -0.269978 -0.68577 0
M  V30 5061 H 489.843 -1.28822 -1.3966 0
M  V30 5062 H 487.993 -0.733915 -3.81505 0
M  V30 5063 H 489.665 -3.28027 -3.24339 0
M  V30 5064 H 487.908 -3.13313 -3.00029 0
M  V30 5065 H 488.579 -3.00684 -4.62918 0
M  V30 5066 H 491.055 -1.19005 -3.98719 0
M  V30 5067 H 489.931 -1.13915 -5.36949 0
M  V30 5068 H 490.192 0.308988 -4.41019 0
M  V30 5069 N 489.251 1.34841 -0.815825 0
M  V30 5070 C 490.667 1.51543 -0.500697 0
M  V30 5071 C 490.867 1.76261 0.976444 0
M  V30 5072 O 489.923 1.8094 1.76117 0
M  V30 5073 C 491.236 2.68487 -1.35407 0
M  V30 5074 C 492.784 2.82368 -1.35046 0
M  V30 5075 C 493.259 4.02347 -2.18816 0
M  V30 5076 N 494.75 4.09542 -2.16402 0
M  V30 5077 C 495.485 5.01517 -2.77971 0
M  V30 5078 N 494.981 5.98763 -3.48503 0
M  V30 5079 N 496.774 4.94334 -2.67563 0
M  V30 5080 H 488.925 1.17055 -1.77234 0
M  V30 5081 H 491.188 0.573481 -0.754866 0
M  V30 5082 H 490.894 2.56829 -2.40274 0
M  V30 5083 H 490.768 3.63321 -1.01377 0
M  V30 5084 H 493.155 2.93471 -0.309604 0
M  V30 5085 H 493.236 1.88363 -1.73069 0
M  V30 5086 H 492.88 3.92004 -3.22948 0
M  V30 5087 H 492.81 4.95551 -1.78148 0
M  V30 5088 H 495.301 3.39932 -1.65091 0
M  V30 5089 H 495.614 6.6556 -3.92747 0
M  V30 5090 H 493.959 5.98909 -3.52609 0
M  V30 5091 H 497.15 4.1732 -2.12041 0
M  V30 5092 H 497.323 5.6582 -3.15834 0
M  V30 5093 N 490.729 0.570148 1.46925 0
M  V30 5094 C 491.639 -0.173061 2.33961 0
M  V30 5095 C 492.655 -0.898825 1.48987 0
M  V30 5096 O 493.831 -0.864825 1.81887 0
M  V30 5097 C 490.896 -1.18177 3.25937 0
M  V30 5098 C 489.957 -0.462041 4.26806 0
M  V30 5099 C 489.19 -1.4227 5.14388 0
M  V30 5100 O 489.413 -2.65842 5.04662 0
M  V30 5101 O 488.347 -0.940127 5.94513 0
M  V30 5102 H 492.173 0.541216 2.98839 0
M  V30 5103 H 489.758 0.330647 1.45695 0
M  V30 5104 H 491.64 -1.76372 3.82715 0
M  V30 5105 H 490.315 -1.87774 2.63671 0
M  V30 5106 H 489.222 0.161429 3.73752 0
M  V30 5107 H 490.555 0.192719 4.91823 0
M  V30 5108 N 492.207 -1.54576 0.307264 0
M  V30 5109 C 493.453 -2.0056 -0.300612 0
M  V30 5110 C 493.786 -1.1953 -1.53057 0
M  V30 5111 O 493.061 -0.27337 -1.92569 0
M  V30 5112 C 493.344 -3.54167 -0.650987 0
M  V30 5113 C 493.197 -4.45933 0.588539 0
M  V30 5114 C 494.516 -4.14645 -1.47506 0
M  V30 5115 H 491.635 -0.729075 -0.107788 0
M  V30 5116 H 494.277 -1.85286 0.420606 0
M  V30 5117 H 492.427 -3.67313 -1.26544 0
M  V30 5118 H 494.099 -4.44683 1.22697 0
M  V30 5119 H 492.342 -4.16274 1.22058 0
M  V30 5120 H 493.013 -5.51189 0.299153 0
M  V30 5121 H 495.489 -4.04973 -0.955821 0
M  V30 5122 H 494.365 -5.22269 -1.68899 0
M  V30 5123 H 494.626 -3.66921 -2.4662 0
M  V30 5124 N 493.685 -0.035106 -1.57561 0
M  V30 5125 C 494.934 0.641604 -1.91223 0
M  V30 5126 C 495.247 1.72944 -0.913761 0
M  V30 5127 O 496.453 2.46321 -1.14185 0
M  V30 5128 C 494.909 1.19249 -3.3957 0
M  V30 5129 C 494.517 0.137616 -4.47789 0
M  V30 5130 C 496.261 1.84537 -3.82291 0
M  V30 5131 C 494.168 0.700478 -5.87237 0
M  V30 5132 H 493.098 0.243417 -0.713627 0
M  V30 5133 H 495.749 -0.101382 -1.8322 0
M  V30 5134 H 494.131 1.98728 -3.42525 0
M  V30 5135 H 495.305 -0.635153 -4.56402 0
M  V30 5136 H 493.62 -0.416855 -4.14308 0
M  V30 5137 H 496.217 2.27616 -4.83834 0
M  V30 5138 H 496.56 2.69054 -3.17672 0
M  V30 5139 H 497.093 1.11739 -3.81784 0
M  V30 5140 H 493.832 -0.106693 -6.55413 0
M  V30 5141 H 493.352 1.4416 -5.82218 0
M  V30 5142 H 495.031 1.18837 -6.35993 0
M  V30 5143 N 495.163 1.55791 0.238111 0
M  V30 5144 C 496.126 1.90239 1.27835 0
M  V30 5145 C 497.126 0.779552 1.4064 0
M  V30 5146 O 498.316 1.04747 1.3919 0
M  V30 5147 C 495.448 2.13859 2.65475 0
M  V30 5148 H 496.641 2.83262 0.985034 0
M  V30 5149 H 494.194 1.48818 0.477799 0
M  V30 5150 H 494.929 1.23334 2.99932 0
M  V30 5151 H 494.714 2.95643 2.57561 0
M  V30 5152 H 496.204 2.41664 3.40571 0
M  V30 5153 N 496.642 -0.504142 1.49319 0
M  V30 5154 C 498.058 -0.835039 1.36012 0
M  V30 5155 C 498.258 -1.97674 0.390808 0
M  V30 5156 O 497.314 -2.51867 -0.178655 0
M  V30 5157 C 498.627 -1.17821 2.76656 0
M  V30 5158 C 500.175 -1.2866 2.85334 0
M  V30 5159 C 500.65 -1.66307 4.26739 0
M  V30 5160 N 502.141 -1.73362 4.29534 0
M  V30 5161 C 502.876 -2.0393 5.35911 0
M  V30 5162 N 502.372 -2.32744 6.52535 0
M  V30 5163 N 504.165 -2.05155 5.23324 0
M  V30 5164 H 496.316 0.248764 2.10938 0
M  V30 5165 H 498.579 0.0486962 0.946748 0
M  V30 5166 H 498.285 -0.412682 3.4927 0
M  V30 5167 H 498.159 -2.12239 3.11825 0
M  V30 5168 H 500.546 -2.04285 2.1296 0
M  V30 5169 H 500.627 -0.323004 2.53752 0
M  V30 5170 H 500.271 -0.91234 4.99639 0
M  V30 5171 H 500.201 -2.63761 4.55782 0
M  V30 5172 H 502.692 -1.53268 3.45424 0
M  V30 5173 H 503.005 -2.55248 7.2943 0
M  V30 5174 H 501.35 -2.30207 6.55767 0
M  V30 5175 H 504.541 -1.82119 4.3122 0
M  V30 5176 H 504.714 -2.28644 6.06322 0
M  V30 5177 N 498.12 -1.38341 -0.754957 0
M  V30 5178 C 499.369 -1.33791 -1.5094 0
M  V30 5179 C 499.682 0.0699267 -1.95475 0
M  V30 5180 O 500.888 0.237956 -2.70455 0
M  V30 5181 C 499.344 -2.34934 -2.72643 0
M  V30 5182 C 498.952 -3.81332 -2.35138 0
M  V30 5183 C 500.696 -2.39425 -3.50536 0
M  V30 5184 C 498.603 -4.74164 -3.53444 0
M  V30 5185 H 497.533 -0.497314 -0.566741 0
M  V30 5186 H 500.184 -1.63888 -0.825403 0
M  V30 5187 H 498.566 -1.97878 -3.43017 0
M  V30 5188 H 499.74 -4.27319 -1.7244 0
M  V30 5189 H 498.055 -3.79946 -1.70382 0
M  V30 5190 H 500.652 -3.0598 -4.38498 0
M  V30 5191 H 500.995 -1.41278 -3.91594 0
M  V30 5192 H 501.528 -2.75274 -2.87174 0
M  V30 5193 H 498.267 -5.73501 -3.17453 0
M  V30 5194 H 497.787 -4.3287 -4.15191 0
M  V30 5195 H 499.466 -4.92111 -4.20043 0
M  V30 5196 N 499.598 0.982988 -1.23187 0
M  V30 5197 C 500.844 1.72648 -1.06398 0
M  V30 5198 C 501.177 1.90066 0.398561 0
M  V30 5199 O 500.452 1.45105 1.29518 0
M  V30 5200 C 500.735 3.12627 -1.78707 0
M  V30 5201 C 500.588 3.02795 -3.32618 0
M  V30 5202 C 501.907 4.11997 -1.54747 0
M  V30 5203 H 499.026 0.626649 -0.387918 0
M  V30 5204 H 501.668 1.14455 -1.51658 0
M  V30 5205 H 499.818 3.62308 -1.40234 0
M  V30 5206 H 501.49 2.60659 -3.80598 0
M  V30 5207 H 499.733 2.39362 -3.61785 0
M  V30 5208 H 500.404 4.01893 -3.78399 0
M  V30 5209 H 502.88 3.71114 -1.88186 0
M  V30 5210 H 501.756 5.08037 -2.07821 0
M  V30 5211 H 502.017 4.39462 -0.482249 0
M  V30 5212 N 501.076 1.04316 1.18135 0
M  V30 5213 C 502.353 0.662166 1.84051 0
M  V30 5214 C 502.733 -0.858169 1.9287 0
M  V30 5215 O 502.081 -1.76062 1.45652 0
M  V30 5216 C 502.291 1.3409 3.22212 0
M  V30 5217 C 503.639 1.4733 3.9822 0
M  V30 5218 O 504.663 1.29921 3.31661 0
M  V30 5219 O 503.522 1.75722 5.17479 0
M  V30 5220 H 500.616 0.232005 0.79379 0
M  V30 5221 H 503.162 1.1422 1.25506 0
M  V30 5222 H 501.934 2.37853 3.10711 0
M  V30 5223 H 501.557 0.849649 3.88416 0
M  V30 5224 N 502.554 -1.34406 0.822964 0
M  V30 5225 C 503.802 -1.97892 0.410245 0
M  V30 5226 C 504.123 -1.65567 -1.03017 0
M  V30 5227 O 503.393 -0.94642 -1.71522 0
M  V30 5228 H 501.973 -0.732049 0.148707 0
M  V30 5229 H 504.635 -1.64043 1.05242 0
M  V30 5230 H 503.731 -3.07579 0.529284 0
M  V30 5231 N 504.032 -0.577932 -1.46621 0
M  V30 5232 C 505.257 -0.0652536 -2.07297 0
M  V30 5233 C 505.682 1.22828 -1.4246 0
M  V30 5234 O 505.04 1.74075 -0.506718 0
M  V30 5235 C 505.088 0.0920589 -3.60482 0
M  V30 5236 O 504.192 1.14972 -3.96049 0
M  V30 5237 H 503.533 -0.06065 -0.661224 0
M  V30 5238 H 506.063 -0.799515 -1.88332 0
M  V30 5239 H 506.073 0.299741 -4.06897 0
M  V30 5240 H 504.748 -0.852612 -4.07067 0
M  V30 5241 H 503.325 0.920879 -3.61351 0
M  V30 5242 N 505.51 1.54411 -0.315457 0
M  V30 5243 C 506.926 1.59556 0.037464 0
M  V30 5244 C 507.126 1.33217 1.5118 0
M  V30 5245 O 506.182 1.11264 2.26664 0
M  V30 5246 C 507.495 2.98372 -0.373477 0
M  V30 5247 C 509.043 3.11324 -0.323452 0
M  V30 5248 C 509.518 4.52472 -0.709433 0
M  V30 5249 N 511.009 4.58437 -0.662524 0
M  V30 5250 C 511.744 5.65751 -0.933474 0
M  V30 5251 N 511.24 6.81039 -1.27114 0
M  V30 5252 N 513.033 5.55489 -0.859573 0
M  V30 5253 H 505.184 1.6979 -1.27614 0
M  V30 5254 H 507.447 0.793732 -0.518356 0
M  V30 5255 H 507.153 3.22618 -1.40037 0
M  V30 5256 H 507.027 3.76264 0.265615 0
M  V30 5257 H 509.414 2.86818 0.694223 0
M  V30 5258 H 509.495 2.35555 -0.997367 0
M  V30 5259 H 509.139 4.7771 -1.72498 0
M  V30 5260 H 509.069 5.26598 -0.0132923 0
M  V30 5261 H 511.56 3.75636 -0.413065 0
M  V30 5262 H 511.873 7.58816 -1.46348 0
M  V30 5263 H 510.218 6.82555 -1.30932 0
M  V30 5264 H 513.409 4.64299 -0.595324 0
M  V30 5265 H 513.582 6.39036 -1.0741 0
M  V30 5266 N 506.988 0.0434614 1.5754 0
M  V30 5267 C 508.235 -0.632035 1.92384 0
M  V30 5268 C 508.563 -1.71304 0.921157 0
M  V30 5269 O 507.818 -1.95583 -0.067744 0
M  V30 5270 C 508.117 -1.2738 3.3393 0
M  V30 5271 C 507.783 -0.321757 4.49751 0
M  V30 5272 C 506.445 -0.0597611 4.81163 0
M  V30 5273 C 508.797 0.331158 5.20147 0
M  V30 5274 C 506.125 0.862715 5.80322 0
M  V30 5275 C 508.477 1.24178 6.20292 0
M  V30 5276 C 507.141 1.51252 6.50138 0
M  V30 5277 H 506.411 -0.231278 0.703983 0
M  V30 5278 H 509.058 0.108294 1.91194 0
M  V30 5279 H 507.363 -2.08921 3.3145 0
M  V30 5280 H 509.06 -1.80326 3.58167 0
M  V30 5281 H 505.65 -0.53614 4.25233 0
M  V30 5282 H 509.834 0.141826 4.96097 0
M  V30 5283 H 505.09 1.08003 6.01785 0
M  V30 5284 H 509.264 1.75381 6.73954 0
M  V30 5285 H 506.891 2.22897 7.26788 0
M  V30 5286 N 508.466 -1.55915 -0.229846 0
M  V30 5287 C 509.694 -1.82617 -0.972562 0
M  V30 5288 C 510.109 -0.621488 -1.78278 0
M  V30 5289 O 509.466 0.409956 -1.77836 0
M  V30 5290 C 509.517 -3.0774 -1.89679 0
M  V30 5291 O 509.238 -4.23559 -1.11934 0
M  V30 5292 C 510.739 -3.47368 -2.75409 0
M  V30 5293 H 507.959 -0.60727 -0.285419 0
M  V30 5294 H 510.503 -2.02996 -0.247579 0
M  V30 5295 H 508.658 -2.89361 -2.57583 0
M  V30 5296 H 509.072 -4.94586 -1.74599 0
M  V30 5297 H 510.546 -4.37977 -3.35977 0
M  V30 5298 H 511.023 -2.68737 -3.47386 0
M  V30 5299 H 511.629 -3.68158 -2.12931 0
M  V30 5300 N 509.944 0.496216 -1.49584 0
M  V30 5301 C 510.854 1.62352 -1.69349 0
M  V30 5302 C 511.87 1.64184 -0.576147 0
M  V30 5303 O 513.046 1.82517 -0.85144 0
M  V30 5304 C 510.111 2.98698 -1.76013 0
M  V30 5305 C 509.172 3.07454 -2.99617 0
M  V30 5306 C 508.405 4.37296 -3.05953 0
M  V30 5307 O 508.628 5.2637 -2.19752 0
M  V30 5308 O 507.562 4.51124 -3.9846 0
M  V30 5309 H 511.388 1.48606 -2.64859 0
M  V30 5310 H 508.973 0.673022 -1.33382 0
M  V30 5311 H 510.855 3.79725 -1.82721 0
M  V30 5312 H 509.53 3.12696 -0.836828 0
M  V30 5313 H 508.437 2.25597 -2.98424 0
M  V30 5314 H 509.77 2.98385 -3.91443 0
M  V30 5315 N 511.423 1.38739 0.74761 0
M  V30 5316 C 512.67 1.35274 1.50689 0
M  V30 5317 C 512.998 -0.0553359 1.94421 0
M  V30 5318 O 512.253 -1.03365 1.66175 0
M  V30 5319 C 512.552 2.25992 2.7688 0
M  V30 5320 C 512.218 3.73854 2.5208 0
M  V30 5321 C 510.88 4.14145 2.45025 0
M  V30 5322 C 513.232 4.67427 2.30568 0
M  V30 5323 C 510.56 5.4609 2.14483 0
M  V30 5324 C 512.912 5.99635 2.01545 0
M  V30 5325 C 511.576 6.39004 1.92951 0
M  V30 5326 H 510.846 0.495003 0.55141 0
M  V30 5327 H 513.493 1.71145 0.859158 0
M  V30 5328 H 511.798 1.83196 3.46333 0
M  V30 5329 H 513.495 2.20611 3.34861 0
M  V30 5330 H 510.085 3.41913 2.58444 0
M  V30 5331 H 514.269 4.3714 2.34994 0
M  V30 5332 H 509.525 5.75528 2.06342 0
M  V30 5333 H 513.699 6.71678 1.83906 0
M  V30 5334 H 511.326 7.41165 1.6905 0
M  V30 5335 N 512.901 -0.976442 1.23707 0
M  V30 5336 C 513.848 -2.06952 1.02174 0
M  V30 5337 C 514.818 -1.65984 -0.0621034 0
M  V30 5338 O 516.003 -1.90584 0.0907906 0
M  V30 5339 C 513.143 -3.39425 0.62327 0
M  V30 5340 C 512.256 -3.9364 1.77966 0
M  V30 5341 C 511.391 -5.14343 1.3276 0
M  V30 5342 C 510.43 -5.60733 2.45449 0
M  V30 5343 N 509.567 -6.72662 2.01172 0
M  V30 5344 H 514.407 -2.24704 1.95734 0
M  V30 5345 H 511.944 -1.10143 0.975034 0
M  V30 5346 H 513.902 -4.15526 0.37332 0
M  V30 5347 H 512.532 -3.21624 -0.275329 0
M  V30 5348 H 511.584 -3.14258 2.14351 0
M  V30 5349 H 512.896 -4.24035 2.62671 0
M  V30 5350 H 512.05 -5.97789 1.03601 0
M  V30 5351 H 510.789 -4.8561 0.450975 0
M  V30 5352 H 509.794 -4.75865 2.75378 0
M  V30 5353 H 511.019 -5.91483 3.33654 0
M  V30 5354 H 508.965 -6.45681 1.15895 0
M  V30 5355 H 508.882 -7.02462 2.79434 0
M  V30 5356 H 510.15 -7.59572 1.75129 0
M  V30 5357 N 514.379 -1.04941 -1.1758 0
M  V30 5358 C 515.342 -0.652456 -2.19717 0
M  V30 5359 C 516.342 0.294745 -1.58076 0
M  V30 5360 O 517.532 0.0789579 -1.74021 0
M  V30 5361 C 514.664 0.0420712 -3.40874 0
M  V30 5362 H 515.857 -1.55642 -2.5635 0
M  V30 5363 H 513.41 -0.842995 -1.31618 0
M  V30 5364 H 514.145 0.95943 -3.09783 0
M  V30 5365 H 513.93 -0.638844 -3.86861 0
M  V30 5366 H 515.42 0.306 -4.16477 0
M  V30 5367 N 515.857 1.33968 -0.830081 0
M  V30 5368 C 517.104 1.98063 -0.421566 0
M  V30 5369 C 517.432 1.65787 1.0171 0
M  V30 5370 O 516.687 0.925348 1.72441 0
M  V30 5371 C 516.986 3.52679 -0.57898 0
M  V30 5372 C 516.652 4.04884 -1.98443 0
M  V30 5373 C 515.314 4.18852 -2.36888 0
M  V30 5374 C 517.666 4.32879 -2.90285 0
M  V30 5375 C 514.994 4.58145 -3.66497 0
M  V30 5376 C 517.346 4.7362 -4.19364 0
M  V30 5377 C 516.01 4.85794 -4.57778 0
M  V30 5378 H 515.28 0.724765 -0.154262 0
M  V30 5379 H 517.927 1.59792 -1.05541 0
M  V30 5380 H 516.232 3.91556 0.138219 0
M  V30 5381 H 517.929 4.00261 -0.243317 0
M  V30 5382 H 514.519 3.9448 -1.67581 0
M  V30 5383 H 518.703 4.21619 -2.61823 0
M  V30 5384 H 513.959 4.65762 -3.96075 0
M  V30 5385 H 518.133 4.9424 -4.90612 0
M  V30 5386 H 515.76 5.15998 -5.58256 0
M  V30 5387 N 517.335 0.585699 1.46312 0
M  V30 5388 C 518.565 0.0780166 2.06453 0
M  V30 5389 C 518.973 -1.2336 1.43454 0
M  V30 5390 O 518.316 -1.75734 0.535086 0
M  V30 5391 C 518.378 -0.158951 3.59148 0
M  V30 5392 C 518.042 1.06752 4.44357 0
M  V30 5393 C 519.039 1.98031 4.80708 0
M  V30 5394 C 516.724 1.2902 4.85447 0
M  V30 5395 C 518.718 3.09924 5.5698 0
M  V30 5396 C 516.405 2.41218 5.61478 0
M  V30 5397 C 517.403 3.31499 5.97158 0
M  V30 5398 O 517.091 4.41747 6.71651 0
M  V30 5399 H 516.823 0.0558894 0.673686 0
M  V30 5400 H 519.377 0.806994 1.88883 0
M  V30 5401 H 517.607 -0.942575 3.75037 0
M  V30 5402 H 519.296 -0.615513 4.01206 0
M  V30 5403 H 520.062 1.82043 4.49539 0
M  V30 5404 H 515.941 0.596567 4.57124 0
M  V30 5405 H 519.485 3.80415 5.84748 0
M  V30 5406 H 515.382 2.57167 5.9206 0
M  V30 5407 H 516.15 4.40152 6.90079 0
M  V30 5408 N 518.813 -1.54241 0.323641 0
M  V30 5409 C 520.061 -2.00174 -0.278359 0
M  V30 5410 C 520.382 -1.2134 -1.52648 0
M  V30 5411 O 519.652 -0.315244 -1.93347 0
M  V30 5412 H 518.232 -0.739463 -0.105845 0
M  V30 5413 H 520.894 -1.89864 0.440204 0
M  V30 5414 H 519.99 -3.07486 -0.5347 0
M  V30 5415 N 520.291 -0.0518155 -1.57515 0
M  V30 5416 C 521.568 0.661727 -1.84067 0
M  V30 5417 C 521.948 1.88999 -0.940351 0
M  V30 5418 O 521.296 2.285 -0.00155404 0
M  V30 5419 C 521.506 1.01841 -3.3381 0
M  V30 5420 C 522.854 1.40043 -4.00841 0
M  V30 5421 O 523.878 1.11073 -3.38439 0
M  V30 5422 O 522.737 1.94111 -5.10865 0
M  V30 5423 H 519.831 0.326702 -0.759733 0
M  V30 5424 H 522.377 -0.0812277 -1.69505 0
M  V30 5425 H 521.149 0.145202 -3.91031 0
M  V30 5426 H 520.772 1.81879 -3.53562 0
M  V30 5427 N 521.769 1.56035 0.221574 0
M  V30 5428 C 522.997 1.8313 0.962864 0
M  V30 5429 C 523.412 0.630934 1.77946 0
M  V30 5430 O 522.769 -0.400519 1.78051 0
M  V30 5431 C 522.82 3.08742 1.88045 0
M  V30 5432 O 522.541 4.24147 1.09686 0
M  V30 5433 C 524.042 3.48824 2.73563 0
M  V30 5434 H 521.262 0.608775 0.282194 0
M  V30 5435 H 523.806 2.03124 0.23681 0
M  V30 5436 H 521.961 2.90723 2.56045 0
M  V30 5437 H 522.375 4.95505 1.71974 0
M  V30 5438 H 523.849 4.39752 3.3365 0
M  V30 5439 H 524.326 2.70575 3.45956 0
M  V30 5440 H 524.932 3.69282 2.10976 0
M  V30 5441 N 523.247 -0.488276 1.49845 0
M  V30 5442 C 524.177 -1.59675 1.70371 0
M  V30 5443 C 525.158 -1.60878 0.552473 0
M  V30 5444 O 526.343 -1.77417 0.78973 0
M  V30 5445 C 523.473 -2.98098 1.782 0
M  V30 5446 C 522.427 -3.11761 2.93239 0
M  V30 5447 C 521.753 -4.51661 2.86193 0
M  V30 5448 C 523.053 -2.90589 4.33999 0
M  V30 5449 H 524.747 -1.42752 2.63177 0
M  V30 5450 H 522.293 -0.685317 1.26647 0
M  V30 5451 H 524.246 -3.75555 1.91144 0
M  V30 5452 H 522.97 -3.16138 0.820018 0
M  V30 5453 H 521.629 -2.36732 2.79917 0
M  V30 5454 H 521.277 -4.66595 1.87877 0
M  V30 5455 H 520.977 -4.61742 3.63412 0
M  V30 5456 H 522.501 -5.31162 3.01163 0
M  V30 5457 H 523.915 -3.57807 4.47936 0
M  V30 5458 H 522.312 -3.1213 5.12538 0
M  V30 5459 H 523.382 -1.86595 4.4756 0
M  V30 5460 N 524.725 -1.39134 -0.740242 0
M  V30 5461 C 525.971 -1.36273 -1.50192 0
M  V30 5462 C 526.304 0.0430136 -1.94152 0
M  V30 5463 O 525.579 1.00691 -1.66408 0
M  V30 5464 C 525.862 -2.33041 -2.74525 0
M  V30 5465 C 525.715 -3.82535 -2.36617 0
M  V30 5466 C 527.034 -2.27723 -3.76604 0
M  V30 5467 H 524.153 -0.496323 -0.544823 0
M  V30 5468 H 526.795 -1.70085 -0.846815 0
M  V30 5469 H 524.945 -2.04337 -3.30422 0
M  V30 5470 H 526.617 -4.21967 -1.86391 0
M  V30 5471 H 524.86 -3.99565 -1.68909 0
M  V30 5472 H 525.531 -4.45723 -3.2563 0
M  V30 5473 H 528.007 -2.53091 -3.30279 0
M  V30 5474 H 526.883 -2.97519 -4.61274 0
M  V30 5475 H 527.144 -1.28049 -4.2315 0
M  V30 5476 N 526.204 0.969867 -1.24223 0
M  V30 5477 C 527.432 1.74756 -1.10761 0
M  V30 5478 C 527.847 1.85713 0.340041 0
M  V30 5479 O 527.204 1.34389 1.23474 0
M  V30 5480 C 527.255 3.16915 -1.73917 0
M  V30 5481 O 526.976 3.06511 -3.13021 0
M  V30 5482 C 528.477 4.11032 -1.66036 0
M  V30 5483 H 525.697 0.548092 -0.387087 0
M  V30 5484 H 528.241 1.2178 -1.64286 0
M  V30 5485 H 526.396 3.66884 -1.244 0
M  V30 5486 H 526.81 3.96079 -3.43834 0
M  V30 5487 H 528.284 5.08446 -2.14911 0
M  V30 5488 H 528.761 4.34785 -0.621159 0
M  V30 5489 H 529.367 3.66972 -2.14969 0
M  V30 5490 N 527.682 1.05563 1.17022 0
M  V30 5491 C 528.93 0.76642 1.87004 0
M  V30 5492 C 529.251 -0.708854 1.8166 0
M  V30 5493 O 528.521 -1.51242 1.2451 0
M  V30 5494 H 527.101 0.280516 0.692329 0
M  V30 5495 H 529.763 1.33557 1.41945 0
M  V30 5496 H 528.859 1.08472 2.92644 0
M  V30 5497 N 529.16 -1.33526 0.837174 0
M  V30 5498 C 530.407 -1.97837 0.432064 0
M  V30 5499 C 530.735 -1.66324 -1.00829 0
M  V30 5500 O 529.99 -0.93448 -1.71948 0
M  V30 5501 C 530.289 -3.52367 0.597675 0
M  V30 5502 C 529.955 -4.03826 2.00587 0
M  V30 5503 C 528.617 -4.1759 2.39106 0
M  V30 5504 C 530.969 -4.31333 2.92576 0
M  V30 5505 C 528.297 -4.56195 3.68921 0
M  V30 5506 C 530.649 -4.7139 4.2187 0
M  V30 5507 C 529.313 -4.8336 4.60347 0
M  V30 5508 H 528.583 -0.723937 0.158104 0
M  V30 5509 H 531.23 -1.5923 1.06387 0
M  V30 5510 H 529.535 -3.91624 -0.117452 0
M  V30 5511 H 531.232 -4.00126 0.26454 0
M  V30 5512 H 527.822 -3.93586 1.69671 0
M  V30 5513 H 532.006 -4.20224 2.64056 0
M  V30 5514 H 527.262 -4.63655 3.9854 0
M  V30 5515 H 531.436 -4.91631 4.93226 0
M  V30 5516 H 529.063 -5.1303 5.60985 0
M  V30 5517 N 530.638 -0.59345 -1.46 0
M  V30 5518 C 531.601 0.123538 -2.28867 0
M  V30 5519 C 532.601 0.808628 -1.38989 0
M  V30 5520 O 533.791 0.658945 -1.61256 0
M  V30 5521 C 530.923 1.1847 -3.19653 0
M  V30 5522 H 532.116 -0.604843 -2.93737 0
M  V30 5523 H 529.669 -0.351875 -1.52288 0
M  V30 5524 H 530.404 1.94431 -2.59552 0
M  V30 5525 H 530.189 0.69783 -3.8584 0
M  V30 5526 H 531.679 1.68726 -3.81997 0
M  V30 5527 N 532.116 1.54067 -0.331816 0
M  V30 5528 C 533.532 1.59587 0.0205388 0
M  V30 5529 C 533.732 1.34813 1.49759 0
M  V30 5530 O 532.788 1.13661 2.25471 0
M  V30 5531 C 534.101 2.97959 -0.405103 0
M  V30 5532 C 535.649 3.10964 -0.356454 0
M  V30 5533 C 536.124 4.51694 -0.757384 0
M  V30 5534 N 537.615 4.57709 -0.71111 0
M  V30 5535 C 538.35 5.64729 -0.993427 0
M  V30 5536 N 537.846 6.79652 -1.3433 0
M  V30 5537 N 539.639 5.54546 -0.918442 0
M  V30 5538 H 531.79 1.68426 -1.29407 0
M  V30 5539 H 534.053 0.78819 -0.526745 0
M  V30 5540 H 533.759 3.21115 -1.43451 0
M  V30 5541 H 533.633 3.76524 0.225692 0
M  V30 5542 H 536.02 2.87538 0.663763 0
M  V30 5543 H 536.101 2.34484 -1.02229 0
M  V30 5544 H 535.745 4.75853 -1.77555 0
M  V30 5545 H 535.675 5.26555 -0.0691444 0
M  V30 5546 H 538.166 3.75176 -0.452883 0
M  V30 5547 H 538.479 7.57221 -1.54388 0
M  V30 5548 H 536.824 6.81128 -1.38164 0
M  V30 5549 H 540.015 4.63641 -0.644536 0
M  V30 5550 H 540.188 6.37861 -1.14181 0
M  V30 5551 N 533.594 0.0601682 1.57485 0
M  V30 5552 C 534.843 -0.611101 1.9222 0
M  V30 5553 C 535.156 -1.71469 0.941159 0
M  V30 5554 O 536.362 -2.44473 1.18089 0
M  V30 5555 C 534.818 -1.13832 3.41424 0
M  V30 5556 C 534.426 -0.0663596 4.47951 0
M  V30 5557 C 536.17 -1.78432 3.85178 0
M  V30 5558 C 534.077 -0.606965 5.88277 0
M  V30 5559 H 533.007 -0.232033 0.71741 0
M  V30 5560 H 535.658 0.130518 1.83035 0
M  V30 5561 H 534.04 -1.93254 3.45643 0
M  V30 5562 H 535.214 0.707682 4.55333 0
M  V30 5563 H 533.529 0.482715 4.13593 0
M  V30 5564 H 536.126 -2.1989 4.87394 0
M  V30 5565 H 536.469 -2.63966 3.21913 0
M  V30 5566 H 537.002 -1.05651 3.83514 0
M  V30 5567 H 533.741 0.21095 6.5516 0
M  V30 5568 H 533.261 -1.34879 5.84438 0
M  V30 5569 H 534.94 -1.08704 6.37803 0
M  V30 5570 N 535.072 -1.5615 -0.213296 0
M  V30 5571 C 536.319 -1.79546 -0.936462 0
M  V30 5572 C 536.647 -0.630337 -1.84003 0
M  V30 5573 O 535.902 0.384883 -1.91878 0
M  V30 5574 C 536.201 -3.08772 -1.79985 0
M  V30 5575 C 535.867 -4.38532 -1.04882 0
M  V30 5576 C 534.529 -4.73787 -0.841393 0
M  V30 5577 C 536.881 -5.18609 -0.51907 0
M  V30 5578 C 534.209 -5.86627 -0.0924403 0
M  V30 5579 C 536.561 -6.32229 0.216581 0
M  V30 5580 C 535.225 -6.6608 0.435191 0
M  V30 5581 H 534.495 -0.657004 -0.342676 0
M  V30 5582 H 537.142 -1.9041 -0.204051 0
M  V30 5583 H 535.447 -2.93065 -2.60038 0
M  V30 5584 H 537.144 -3.24077 -2.36168 0
M  V30 5585 H 533.734 -4.10855 -1.22048 0
M  V30 5586 H 537.918 -4.91801 -0.666775 0
M  V30 5587 H 533.174 -6.11338 0.087081 0
M  V30 5588 H 537.348 -6.93503 0.634538 0
M  V30 5589 H 534.975 -7.5336 1.01746 0
M  V30 5590 N 536.55 0.480323 -1.50102 0
M  V30 5591 C 537.798 1.23063 -1.60312 0
M  V30 5592 C 538.119 1.92659 -0.301226 0
M  V30 5593 O 537.389 1.83691 0.680753 0
M  V30 5594 H 535.969 0.457231 -0.590719 0
M  V30 5595 H 538.631 0.554893 -1.86834 0
M  V30 5596 H 537.727 1.9835 -2.40964 0
M  V30 5597 N 538.028 1.39524 0.732853 0
M  V30 5598 C 539.258 1.3994 1.51988 0
M  V30 5599 C 539.666 -0.00727973 1.89199 0
M  V30 5600 O 539.009 -0.989521 1.54771 0
M  V30 5601 C 539.071 2.21026 2.83527 0
M  V30 5602 C 538.735 3.69633 2.68738 0
M  V30 5603 C 539.732 4.62665 2.37143 0
M  V30 5604 C 537.417 4.13244 2.85542 0
M  V30 5605 C 539.411 5.97291 2.22536 0
M  V30 5606 C 537.098 5.47945 2.70554 0
M  V30 5607 C 538.096 6.39783 2.39097 0
M  V30 5608 O 537.784 7.72002 2.24204 0
M  V30 5609 H 537.516 0.479795 0.476206 0
M  V30 5610 H 540.07 1.8399 0.913054 0
M  V30 5611 H 538.3 1.71728 3.46477 0
M  V30 5612 H 539.989 2.13594 3.45156 0
M  V30 5613 H 540.755 4.30272 2.2381 0
M  V30 5614 H 536.634 3.42094 3.09019 0
M  V30 5615 H 540.178 6.68939 1.97905 0
M  V30 5616 H 536.075 5.79928 2.83466 0
M  V30 5617 H 536.843 7.8275 2.39258 0
M  V30 5618 N 539.506 -0.963266 1.24736 0
M  V30 5619 C 540.917 -1.52145 1.08207 0
M  V30 5620 C 541.268 -1.93142 -0.345061 0
M  V30 5621 O 540.393 -1.77769 -1.23399 0
M  V30 5622 C 540.988 -2.76486 1.95808 0
M  V30 5623 C 539.547 -3.28646 1.8349 0
M  V30 5624 C 538.694 -2.01529 1.90476 0
M  V30 5625 H 541.645 -0.781083 1.38148 0
M  V30 5626 H 541.666 -3.49986 1.49297 0
M  V30 5627 H 541.178 -2.46617 2.99669 0
M  V30 5628 H 539.279 -3.63357 0.824787 0
M  V30 5629 H 539.392 -3.97246 2.67829 0
M  V30 5630 H 537.756 -2.16442 1.34258 0
M  V30 5631 H 538.539 -1.7402 2.95926 0
M  V30 5632 N 540.985 -1.06182 -1.16461 0
M  V30 5633 C 542.231 -0.779015 -1.87241 0
M  V30 5634 C 542.564 0.692715 -1.81425 0
M  V30 5635 O 541.839 1.5074 -1.22913 0
M  V30 5636 C 542.122 -1.2728 -3.36856 0
M  V30 5637 C 541.975 -2.80821 -3.51368 0
M  V30 5638 C 543.294 -0.879799 -4.31216 0
M  V30 5639 H 540.413 -0.284464 -0.679889 0
M  V30 5640 H 543.055 -1.31755 -1.36896 0
M  V30 5641 H 541.205 -0.814673 -3.79862 0
M  V30 5642 H 542.877 -3.34833 -3.17308 0
M  V30 5643 H 541.12 -3.19606 -2.93316 0
M  V30 5644 H 541.791 -3.10435 -4.56436 0
M  V30 5645 H 544.267 -1.27436 -3.96105 0
M  V30 5646 H 543.143 -1.25278 -5.34412 0
M  V30 5647 H 543.404 0.215372 -4.41575 0
M  V30 5648 N 542.463 1.3308 -0.844243 0
M  V30 5649 C 543.711 1.97215 -0.441676 0
M  V30 5650 C 544.032 1.67185 1.0037 0
M  V30 5651 O 543.302 0.973588 1.69994 0
M  V30 5652 H 541.882 0.72959 -0.160335 0
M  V30 5653 H 544.544 1.62348 -1.07838 0
M  V30 5654 H 543.64 3.06698 -0.57815 0
M  V30 5655 N 543.941 0.601185 1.45683 0
M  V30 5656 C 545.19 0.0914953 2.01492 0
M  V30 5657 C 545.503 -1.28331 1.47616 0
M  V30 5658 O 546.709 -1.88537 1.95362 0
M  V30 5659 C 545.165 0.11291 3.59723 0
M  V30 5660 C 544.773 1.48717 4.22596 0
M  V30 5661 C 546.517 -0.341871 4.23121 0
M  V30 5662 C 544.424 1.46531 5.7296 0
M  V30 5663 H 543.354 0.0304365 0.753385 0
M  V30 5664 H 546.005 0.755568 1.67223 0
M  V30 5665 H 544.387 -0.617692 3.91153 0
M  V30 5666 H 545.561 2.23897 4.02749 0
M  V30 5667 H 543.876 1.88351 3.71366 0
M  V30 5668 H 546.473 -0.377304 5.33367 0
M  V30 5669 H 546.816 -1.36325 3.93346 0
M  V30 5670 H 547.349 0.335256 3.96385 0
M  V30 5671 H 544.088 2.46408 6.07423 0
M  V30 5672 H 543.608 0.755997 5.95017 0
M  V30 5673 H 545.287 1.18618 6.36034 0
M  V30 5674 N 545.419 -1.53889 0.339982 0
M  V30 5675 C 546.665 -2.01152 -0.258003 0
M  V30 5676 C 546.998 -1.22749 -1.50487 0
M  V30 5677 O 546.273 -0.314156 -1.91946 0
M  V30 5678 C 546.556 -3.55468 -0.575717 0
M  V30 5679 C 546.409 -4.44584 0.682996 0
M  V30 5680 C 547.728 -4.1768 -1.38677 0
M  V30 5681 H 544.847 -0.731198 -0.0922992 0
M  V30 5682 H 547.489 -1.84352 0.459814 0
M  V30 5683 H 545.639 -3.69914 -1.18725 0
M  V30 5684 H 547.311 -4.41981 1.32102 0
M  V30 5685 H 545.554 -4.13592 1.3086 0
M  V30 5686 H 546.225 -5.5043 0.416001 0
M  V30 5687 H 548.701 -4.0691 -0.869705 0
M  V30 5688 H 547.577 -5.25734 -1.57783 0
M  V30 5689 H 547.838 -3.72069 -2.38782 0
M  V30 5690 N 546.897 -0.0685191 -1.57451 0
M  V30 5691 C 548.145 0.60016 -1.92983 0
M  V30 5692 C 548.466 1.70348 -0.949028 0
M  V30 5693 O 547.736 1.959 0.00335647 0
M  V30 5694 H 546.316 0.224682 -0.712409 0
M  V30 5695 H 548.978 -0.125605 -1.94495 0
M  V30 5696 H 548.074 1.02759 -2.94698 0
M  V30 5697 N 548.375 1.56261 0.205012 0
M  V30 5698 C 549.323 1.94631 1.27364 0
M  V30 5699 C 550.317 0.830434 1.47649 0
M  V30 5700 O 551.523 1.01538 1.48627 0
M  V30 5701 H 547.898 0.618755 0.427371 0
M  V30 5702 H 549.869 2.83768 0.922941 0
M  V30 5703 C 548.618 2.29358 2.61324 0
M  V30 5704 H 547.941 3.14744 2.46528 0
M  V30 5705 H 549.381 2.60076 3.34868 0
M  V30 5706 C 547.84 1.12461 3.17575 0
M  V30 5707 O 548.37 0.394407 3.99759 0
M  V30 5708 N 546.576 0.904036 2.7618 0
M  V30 5709 H 546.123 1.49956 2.09454 0
M  V30 5710 H 546.081 0.123662 3.14157 0
M  V30 5711 N 549.853 -0.472356 1.50355 0
M  V30 5712 C 550.801 -1.59126 1.69651 0
M  V30 5713 C 551.795 -1.59793 0.56237 0
M  V30 5714 O 553.001 -1.63957 0.742832 0
M  V30 5715 H 549.376 -0.528008 0.535454 0
M  V30 5716 H 551.347 -1.40013 2.63513 0
M  V30 5717 C 550.096 -2.97075 1.8067 0
M  V30 5718 H 549.419 -2.9728 2.67329 0
M  V30 5719 H 550.859 -3.74825 1.98197 0
M  V30 5720 C 549.318 -3.32247 0.558016 0
M  V30 5721 O 549.848 -4.00553 -0.303399 0
M  V30 5722 N 548.054 -2.87659 0.412415 0
M  V30 5723 H 547.601 -2.32246 1.11443 0
M  V30 5724 H 547.559 -3.11556 -0.421908 0
M  V30 5725 N 551.331 -1.39911 -0.725443 0
M  V30 5726 C 552.579 -1.37382 -1.48224 0
M  V30 5727 C 552.9 0.0264107 -1.94982 0
M  V30 5728 O 552.17 0.979408 -1.6966 0
M  V30 5729 H 550.75 -0.505596 -0.549892 0
M  V30 5730 H 553.412 -1.7487 -0.860608 0
M  V30 5731 H 552.508 -2.04254 -2.3598 0
M  V30 5732 N 552.809 0.956637 -1.25245 0
M  V30 5733 C 554.055 1.70352 -1.10036 0
M  V30 5734 C 554.388 1.90869 0.358156 0
M  V30 5735 O 553.663 1.47819 1.26411 0
M  V30 5736 C 553.946 3.08766 -1.85298 0
M  V30 5737 C 553.799 2.95672 -3.38966 0
M  V30 5738 C 555.118 4.08622 -1.63451 0
M  V30 5739 H 552.237 0.618279 -0.401123 0
M  V30 5740 H 554.879 1.11212 -1.54051 0
M  V30 5741 H 553.029 3.59252 -1.47887 0
M  V30 5742 H 554.701 2.52527 -3.86041 0
M  V30 5743 H 552.944 2.31634 -3.6678 0
M  V30 5744 H 553.615 3.93776 -3.86839 0
M  V30 5745 H 556.091 3.67038 -1.96015 0
M  V30 5746 H 554.967 5.03514 -2.18551 0
M  V30 5747 H 555.228 4.3834 -0.575357 0
M  V30 5748 N 554.287 1.06798 1.15896 0
M  V30 5749 C 555.217 0.704677 2.22613 0
M  V30 5750 C 556.198 -0.305252 1.67339 0
M  V30 5751 O 557.383 -0.179247 1.93371 0
M  V30 5752 C 554.513 0.0957325 3.47168 0
M  V30 5753 C 553.467 1.0322 4.15367 0
M  V30 5754 C 552.793 0.286293 5.33933 0
M  V30 5755 C 554.093 2.36341 4.65768 0
M  V30 5756 H 555.787 1.59688 2.53259 0
M  V30 5757 H 553.333 0.769257 1.21731 0
M  V30 5758 H 555.286 -0.170333 4.21056 0
M  V30 5759 H 554.01 -0.831516 3.15838 0
M  V30 5760 H 552.669 1.28309 3.43413 0
M  V30 5761 H 552.317 -0.644237 4.98857 0
M  V30 5762 H 552.017 0.910436 5.80504 0
M  V30 5763 H 553.541 0.0278938 6.10594 0
M  V30 5764 H 554.955 2.1561 5.31211 0
M  V30 5765 H 553.352 2.94299 5.2298 0
M  V30 5766 H 554.422 2.99047 3.81705 0
M  V30 5767 N 555.766 -1.3263 0.851289 0
M  V30 5768 C 557.013 -1.97368 0.453023 0
M  V30 5769 C 557.341 -1.67384 -0.990596 0
M  V30 5770 O 556.596 -0.952665 -1.70947 0
M  V30 5771 C 556.895 -3.51713 0.635015 0
M  V30 5772 C 556.561 -4.01676 2.04859 0
M  V30 5773 C 555.223 -4.15031 2.43522 0
M  V30 5774 C 557.575 -4.28206 2.97135 0
M  V30 5775 C 554.903 -4.52257 3.73739 0
M  V30 5776 C 557.255 -4.66889 4.26846 0
M  V30 5777 C 555.919 -4.7845 4.65448 0
M  V30 5778 H 555.189 -0.722219 0.165773 0
M  V30 5779 H 557.836 -1.58092 1.0807 0
M  V30 5780 H 556.141 -3.91726 -0.0759081 0
M  V30 5781 H 557.838 -3.99823 0.306964 0
M  V30 5782 H 554.428 -3.91764 1.73836 0
M  V30 5783 H 558.612 -4.174 2.68498 0
M  V30 5784 H 553.868 -4.59402 4.03435 0
M  V30 5785 H 558.042 -4.86372 4.98413 0
M  V30 5786 H 555.669 -5.07052 5.66395 0
M  V30 5787 N 557.244 -0.608902 -1.45362 0
M  V30 5788 C 558.469 -0.10921 -2.07112 0
M  V30 5789 C 558.894 1.19779 -1.45033 0
M  V30 5790 O 558.252 1.72961 -0.543527 0
M  V30 5791 C 558.3 0.0155745 -3.60597 0
M  V30 5792 O 557.404 1.06546 -3.98399 0
M  V30 5793 H 556.745 -0.0746619 -0.659789 0
M  V30 5794 H 559.275 -0.839283 -1.86594 0
M  V30 5795 H 559.285 0.213364 -4.07442 0
M  V30 5796 H 557.96 -0.938765 -4.05167 0
M  V30 5797 H 556.537 0.844024 -3.63223 0
M  V30 5798 N 558.722 1.53707 -0.348139 0
M  V30 5799 C 559.632 2.28881 0.514857 0
M  V30 5800 C 560.648 1.34168 1.10793 0
M  V30 5801 O 561.824 1.6721 1.12262 0
M  V30 5802 C 558.889 3.05042 1.64774 0
M  V30 5803 C 557.95 4.15389 1.08398 0
M  V30 5804 C 557.183 4.87909 2.16287 0
M  V30 5805 O 557.406 4.60137 3.3709 0
M  V30 5806 O 556.34 5.74254 1.80323 0
M  V30 5807 H 560.166 3.03547 -0.0963699 0
M  V30 5808 H 557.751 1.48972 -0.113043 0
M  V30 5809 H 559.633 3.52656 2.30677 0
M  V30 5810 H 558.308 2.33228 2.24469 0
M  V30 5811 H 557.215 3.72068 0.389341 0
M  V30 5812 H 558.548 4.89318 0.531829 0
M  V30 5813 N 560.2 0.0768682 1.57412 0
M  V30 5814 C 561.425 -0.603404 1.98428 0
M  V30 5815 C 561.85 -1.62047 0.955108 0
M  V30 5816 O 561.208 -1.81129 -0.0786778 0
M  V30 5817 C 561.256 -1.24396 3.38464 0
M  V30 5818 O 560.36 -2.35982 3.3821 0
M  V30 5819 H 559.701 -0.154741 0.645718 0
M  V30 5820 H 562.231 0.152885 2.04028 0
M  V30 5821 H 562.241 -1.5896 3.7576 0
M  V30 5822 H 560.916 -0.498735 4.12899 0
M  V30 5823 H 559.493 -2.03173 3.1269 0
M  V30 5824 N 561.678 -1.56367 -0.196722 0
M  V30 5825 C 562.641 -1.93561 -1.22746 0
M  V30 5826 C 563.641 -0.816566 -1.38524 0
M  V30 5827 O 564.831 -1.084 -1.36363 0
M  V30 5828 C 561.963 -2.20823 -2.59712 0
M  V30 5829 H 563.156 -2.85774 -0.909586 0
M  V30 5830 H 560.709 -1.50032 -0.438174 0
M  V30 5831 H 561.444 -1.31243 -2.96557 0
M  V30 5832 H 561.229 -3.02368 -2.49632 0
M  V30 5833 H 562.719 -2.50608 -3.34044 0
M  V30 5834 N 563.156 0.464375 -1.50603 0
M  V30 5835 C 564.103 1.56152 -1.69956 0
M  V30 5836 C 565.073 1.57046 -0.54091 0
M  V30 5837 O 566.258 1.74473 -0.772258 0
M  V30 5838 C 563.398 2.94079 -1.80586 0
M  V30 5839 C 562.511 3.02923 -3.07996 0
M  V30 5840 C 561.646 4.31806 -3.09382 0
M  V30 5841 C 560.685 4.34417 -4.31218 0
M  V30 5842 N 559.822 5.54782 -4.30304 0
M  V30 5843 H 564.662 1.38955 -2.6362 0
M  V30 5844 H 562.199 0.675482 -1.30674 0
M  V30 5845 H 564.157 3.74073 -1.8473 0
M  V30 5846 H 562.787 3.09896 -0.903556 0
M  V30 5847 H 561.839 2.1576 -3.13292 0
M  V30 5848 H 563.151 3.00712 -3.97962 0
M  V30 5849 H 562.305 5.20153 -3.12292 0
M  V30 5850 H 561.044 4.36636 -2.17257 0
M  V30 5851 H 560.049 3.44467 -4.28512 0
M  V30 5852 H 561.274 4.31273 -5.24576 0
M  V30 5853 H 559.22 5.60384 -3.41037 0
M  V30 5854 H 559.137 5.54339 -5.14047 0
M  V30 5855 H 560.405 6.45235 -4.3737 0
M  V30 5856 N 564.634 1.40294 0.718013 0
M  V30 5857 C 565.581 1.40367 1.8321 0
M  V30 5858 C 566.551 0.260952 1.64037 0
M  V30 5859 O 567.736 0.458648 1.85205 0
M  V30 5860 C 564.876 1.26965 3.20895 0
M  V30 5861 C 563.989 2.50922 3.51656 0
M  V30 5862 C 563.124 2.29981 4.78834 0
M  V30 5863 C 562.163 3.49527 5.02491 0
M  V30 5864 N 561.3 3.27796 6.20882 0
M  V30 5865 H 566.14 2.35593 1.82482 0
M  V30 5866 H 563.677 1.17012 0.891444 0
M  V30 5867 H 565.635 1.17202 4.00399 0
M  V30 5868 H 564.265 0.353591 3.20858 0
M  V30 5869 H 563.317 2.71223 2.66725 0
M  V30 5870 H 564.629 3.39913 3.65048 0
M  V30 5871 H 563.783 2.17558 5.66351 0
M  V30 5872 H 562.522 1.38411 4.67647 0
M  V30 5873 H 561.527 3.6243 4.1343 0
M  V30 5874 H 562.752 4.42021 5.15553 0
M  V30 5875 H 560.698 2.38906 6.1095 0
M  V30 5876 H 560.615 4.10351 6.34939 0
M  V30 5877 H 561.883 3.19101 7.11193 0
M  V30 5878 N 566.112 -0.949982 1.2575 0
M  V30 5879 C 567.36 -1.6918 1.10555 0
M  V30 5880 C 567.681 -1.91773 -0.353298 0
M  V30 5881 O 566.951 -1.50814 -1.25027 0
M  V30 5882 H 565.531 -0.626952 0.406129 0
M  V30 5883 H 568.193 -1.1419 1.57945 0
M  V30 5884 H 567.289 -2.66915 1.61749 0
M  V30 5885 N 567.59 -1.07411 -1.15328 0
M  V30 5886 C 568.818 -0.818782 -1.90009 0
M  V30 5887 C 569.233 0.628072 -1.78047 0
M  V30 5888 O 568.59 1.43085 -1.13282 0
M  V30 5889 C 568.641 -1.21874 -3.40337 0
M  V30 5890 O 568.362 -2.60883 -3.51954 0
M  V30 5891 C 569.863 -0.992796 -4.3204 0
M  V30 5892 H 567.083 -0.296007 -0.60218 0
M  V30 5893 H 569.627 -1.43073 -1.46117 0
M  V30 5894 H 567.782 -0.651103 -3.81889 0
M  V30 5895 H 568.196 -2.77216 -4.45255 0
M  V30 5896 H 569.67 -1.32215 -5.35932 0
M  V30 5897 H 570.147 0.0708331 -4.39143 0
M  V30 5898 H 570.753 -1.54537 -3.9623 0
M  V30 5899 N 569.068 1.32177 -0.85831 0
M  V30 5900 C 570.018 2.26307 -0.277307 0
M  V30 5901 C 571.002 1.50123 0.578946 0
M  V30 5902 O 572.194 1.71754 0.427731 0
M  V30 5903 C 569.323 3.39181 0.530232 0
M  V30 5904 C 568.409 4.22746 -0.338613 0
M  V30 5905 N 568.8 4.85265 -1.4266 0
M  V30 5906 C 567.098 4.45813 -0.129 0
M  V30 5907 C 567.799 5.47634 -1.96142 0
M  V30 5908 N 566.775 5.28794 -1.26007 0
M  V30 5909 H 570.577 2.72173 -1.10902 0
M  V30 5910 H 568.091 1.46308 -0.704816 0
M  V30 5911 H 570.088 4.05628 0.962904 0
M  V30 5912 H 568.748 2.9486 1.35969 0
M  V30 5913 H 569.759 4.85259 -1.80953 0
M  V30 5914 H 566.436 4.12163 0.665451 0
M  V30 5915 H 567.826 6.0735 -2.8736 0
M  V30 5916 N 570.547 0.616602 1.45037 0
M  V30 5917 C 571.794 0.115331 2.02171 0
M  V30 5918 C 572.122 -1.25748 1.48383 0
M  V30 5919 O 571.377 -1.84511 0.652229 0
M  V30 5920 C 571.676 0.0356829 3.57382 0
M  V30 5921 C 571.342 1.34535 4.30362 0
M  V30 5922 C 570.004 1.70408 4.50016 0
M  V30 5923 C 572.356 2.21049 4.72003 0
M  V30 5924 C 569.684 2.92529 5.0857 0
M  V30 5925 C 572.036 3.42427 5.31908 0
M  V30 5926 C 570.7 3.78541 5.49784 0
M  V30 5927 H 569.97 0.0422024 0.739797 0
M  V30 5928 H 572.617 0.80002 1.73988 0
M  V30 5929 H 570.922 -0.732314 3.84895 0
M  V30 5930 H 572.619 -0.368463 3.99304 0
M  V30 5931 H 569.209 1.05615 4.15383 0
M  V30 5932 H 573.393 1.94632 4.56544 0
M  V30 5933 H 568.649 3.20605 5.20598 0
M  V30 5934 H 572.823 4.09709 5.63127 0
M  V30 5935 H 570.45 4.73255 5.94923 0
M  V30 5936 N 572.025 -1.5352 0.356285 0
M  V30 5937 C 573.271 -2.01414 -0.236653 0
M  V30 5938 C 573.604 -1.24339 -1.49176 0
M  V30 5939 O 572.879 -0.334496 -1.91602 0
M  V30 5940 C 573.162 -3.56059 -0.537982 0
M  V30 5941 C 573.015 -4.43835 0.730112 0
M  V30 5942 C 574.334 -4.19127 -1.34239 0
M  V30 5943 H 571.453 -0.732135 -0.0845386 0
M  V30 5944 H 574.095 -1.83854 0.479341 0
M  V30 5945 H 572.245 -3.71153 -1.14795 0
M  V30 5946 H 573.917 -4.40555 1.36782 0
M  V30 5947 H 572.16 -4.1218 1.3524 0
M  V30 5948 H 572.831 -5.49958 0.474358 0
M  V30 5949 H 575.307 -4.07809 -0.826498 0
M  V30 5950 H 574.183 -5.27378 -1.52198 0
M  V30 5951 H 574.444 -3.74581 -2.34822 0
M  V30 5952 N 573.503 -0.0852151 -1.57369 0
M  V30 5953 C 574.435 0.907099 -2.10486 0
M  V30 5954 C 575.448 1.25259 -1.03991 0
M  V30 5955 O 576.637 1.20743 -1.31467 0
M  V30 5956 C 573.737 2.21908 -2.56145 0
M  V30 5957 C 572.91 2.05042 -3.86363 0
M  V30 5958 C 571.969 3.19664 -4.17973 0
M  V30 5959 O 570.995 2.94062 -4.87356 0
M  V30 5960 N 572.197 4.45151 -3.72587 0
M  V30 5961 H 574.962 0.453505 -2.96249 0
M  V30 5962 H 572.523 0.100157 -1.6159 0
M  V30 5963 H 574.515 2.97519 -2.74343 0
M  V30 5964 H 573.085 2.58723 -1.75446 0
M  V30 5965 H 572.305 1.13819 -3.77411 0
M  V30 5966 H 573.593 1.91039 -4.71574 0
M  V30 5967 H 572.991 4.68834 -3.16561 0
M  V30 5968 H 571.548 5.17744 -3.9596 0
M  V30 5969 N 574.981 1.5647 0.188427 0
M  V30 5970 C 575.911 1.98101 1.23606 0
M  V30 5971 C 576.892 0.853961 1.47111 0
M  V30 5972 O 578.077 1.11879 1.58735 0
M  V30 5973 C 575.207 2.32624 2.57882 0
M  V30 5974 C 574.161 3.48129 2.48978 0
M  V30 5975 C 573.487 3.68347 3.87588 0
M  V30 5976 C 574.787 4.82112 2.00911 0
M  V30 5977 H 576.481 2.85864 0.890068 0
M  V30 5978 H 574.027 1.37532 0.426714 0
M  V30 5979 H 575.98 2.60343 3.3136 0
M  V30 5980 H 574.704 1.41751 2.94235 0
M  V30 5981 H 573.363 3.20511 1.77956 0
M  V30 5982 H 573.011 2.74793 4.21305 0
M  V30 5983 H 572.711 4.46055 3.82503 0
M  V30 5984 H 574.235 3.98449 4.62678 0
M  V30 5985 H 575.649 5.08819 2.64151 0
M  V30 5986 H 574.046 5.63337 2.06814 0
M  V30 5987 H 575.116 4.75249 0.96262 0
M  V30 5988 N 576.459 -0.456382 1.50847 0
M  V30 5989 C 577.699 -1.21704 1.64218 0
M  V30 5990 C 578.063 -1.88932 0.341859 0
M  V30 5991 O 579.264 -2.66497 0.351137 0
M  V30 5992 C 577.535 -2.22162 2.79962 0
M  V30 5993 S 579.094 -3.0697 3.13552 0
M  V30 5994 H 575.912 -0.412995 0.578754 0
M  V30 5995 H 578.514 -0.511637 1.88686 0
M  V30 5996 H 577.218 -1.71379 3.72904 0
M  V30 5997 H 576.749 -2.9731 2.57624 0
M  V30 5998 H 578.764 -4.23539 2.58513 0
M  V30 5999 N 577.937 -1.40673 -0.710563 0
M  V30 6000 C 579.177 -1.40677 -1.48288 0
M  V30 6001 C 579.541 -0.0097193 -1.91998 0
M  V30 6002 O 580.742 0.115381 -2.68552 0
M  V30 6003 C 579.013 -2.37289 -2.67262 0
M  V30 6004 S 580.572 -2.55694 -3.56603 0
M  V30 6005 H 577.39 -0.498545 -0.506926 0
M  V30 6006 H 579.992 -1.76984 -0.830472 0
M  V30 6007 H 578.696 -3.37617 -2.3333 0
M  V30 6008 H 578.227 -2.02282 -3.3741 0
M  V30 6009 H 580.242 -1.81311 -4.61888 0
M  V30 6010 N 579.415 0.9433 -1.26252 0
M  V30 6011 C 580.347 2.04542 -1.03417 0
M  V30 6012 C 581.36 1.62799 0.0046911 0
M  V30 6013 O 582.549 1.76944 -0.235146 0
M  V30 6014 C 579.649 3.34511 -0.543671 0
M  V30 6015 C 578.822 4.05033 -1.65128 0
M  V30 6016 C 577.881 5.13273 -1.1592 0
M  V30 6017 O 576.907 5.38095 -1.85586 0
M  V30 6018 N 578.109 5.805 -0.00649279 0
M  V30 6019 H 580.874 2.24699 -1.98319 0
M  V30 6020 H 578.435 1.11264 -1.1761 0
M  V30 6021 H 580.427 4.04212 -0.198703 0
M  V30 6022 H 578.997 3.11042 0.311711 0
M  V30 6023 H 578.217 3.29275 -2.16729 0
M  V30 6024 H 579.505 4.48903 -2.39508 0
M  V30 6025 H 578.903 5.62767 0.575347 0
M  V30 6026 H 577.46 6.51201 0.279416 0
M  V30 6027 N 580.893 1.08022 1.14757 0
M  V30 6028 C 582.309 0.807072 1.3769 0
M  V30 6029 C 582.509 -0.585504 1.92806 0
M  V30 6030 O 581.565 -1.34301 2.13821 0
M  V30 6031 C 582.878 1.88651 2.34161 0
M  V30 6032 C 584.426 1.91206 2.47809 0
M  V30 6033 C 584.901 2.98253 3.47576 0
M  V30 6034 N 586.392 2.974 3.55117 0
M  V30 6035 C 587.127 3.76872 4.32152 0
M  V30 6036 N 586.623 4.66212 5.12463 0
M  V30 6037 N 588.416 3.6519 4.27309 0
M  V30 6038 H 580.567 1.97824 0.77326 0
M  V30 6039 H 582.83 0.85826 0.402608 0
M  V30 6040 H 582.536 2.88749 2.00791 0
M  V30 6041 H 582.41 1.75244 3.3402 0
M  V30 6042 H 584.797 0.917564 2.80472 0
M  V30 6043 H 584.878 2.08691 1.47925 0
M  V30 6044 H 584.522 3.97907 3.15646 0
M  V30 6045 H 584.452 2.78014 4.47231 0
M  V30 6046 H 586.943 2.32643 2.97801 0
M  V30 6047 H 587.256 5.23468 5.68508 0
M  V30 6048 H 585.601 4.70257 5.11745 0
M  V30 6049 H 588.792 2.94765 3.63636 0
M  V30 6050 H 588.965 4.27366 4.87095 0
M  V30 6051 N 582.371 -1.3172 0.865308 0
M  V30 6052 C 583.319 -2.30569 0.306674 0
M  V30 6053 C 584.313 -1.59317 -0.575724 0
M  V30 6054 O 585.519 -1.73961 -0.462343 0
M  V30 6055 H 581.894 -0.747681 0.0804834 0
M  V30 6056 H 583.865 -2.75165 1.15441 0
M  V30 6057 C 582.614 -3.44358 -0.480952 0
M  V30 6058 H 581.937 -3.99354 0.18876 0
M  V30 6059 H 583.377 -4.15652 -0.837241 0
M  V30 6060 C 581.836 -2.92574 -1.67039 0
M  V30 6061 O 582.366 -2.90954 -2.76964 0
M  V30 6062 N 580.572 -2.48835 -1.50097 0
M  V30 6063 H 580.119 -2.50353 -0.606738 0
M  V30 6064 H 580.077 -2.14543 -2.29823 0
M  V30 6065 N 583.85 -0.624285 -1.44708 0
M  V30 6066 C 585.099 -0.123539 -2.01321 0
M  V30 6067 C 585.412 1.25966 -1.49639 0
M  V30 6068 O 586.618 1.85405 -1.98336 0
M  V30 6069 C 585.074 -0.170124 -3.59498 0
M  V30 6070 C 584.682 -1.55421 -4.20176 0
M  V30 6071 C 586.426 0.274513 -4.23611 0
M  V30 6072 C 584.332 -1.55628 -5.70556 0
M  V30 6073 H 583.263 -0.0424183 -0.752806 0
M  V30 6074 H 585.913 -0.782076 -1.65999 0
M  V30 6075 H 584.296 0.555385 -3.92086 0
M  V30 6076 H 585.47 -2.30276 -3.99136 0
M  V30 6077 H 583.784 -1.94235 -3.68323 0
M  V30 6078 H 586.382 0.292402 -5.339 0
M  V30 6079 H 586.725 1.3005 -3.95465 0
M  V30 6080 H 587.258 -0.398275 -3.95801 0
M  V30 6081 H 583.997 -2.56041 -6.03426 0
M  V30 6082 H 583.517 -0.850563 -5.93739 0
M  V30 6083 H 585.196 -1.28721 -6.34066 0
M  V30 6084 N 585.328 1.53329 -0.364422 0
M  V30 6085 C 586.739 1.86345 0.115039 0
M  V30 6086 C 587.09 1.28505 1.4826 0
M  V30 6087 O 586.215 0.606639 2.07723 0
M  V30 6088 C 586.81 3.38114 0.215522 0
M  V30 6089 C 585.369 3.70932 0.639237 0
M  V30 6090 C 584.516 2.76471 -0.214261 0
M  V30 6091 H 587.467 1.47593 -0.583258 0
M  V30 6092 H 587.488 3.66031 1.0393 0
M  V30 6093 H 587 3.80182 -0.779948 0
M  V30 6094 H 585.101 3.3442 1.64298 0
M  V30 6095 H 585.214 4.77302 0.41465 0
M  V30 6096 H 583.578 2.52724 0.316678 0
M  V30 6097 H 584.361 3.21373 -1.20725 0
M  V30 6098 N 586.806 0.0935595 1.57322 0
M  V30 6099 C 587.736 -0.863062 2.16964 0
M  V30 6100 C 588.717 -1.29528 1.10256 0
M  V30 6101 O 589.902 -1.36245 1.38387 0
M  V30 6102 C 587.032 -2.12276 2.74875 0
M  V30 6103 C 585.986 -1.82921 3.86942 0
M  V30 6104 C 585.312 -3.15707 4.31548 0
M  V30 6105 C 586.612 -1.11737 5.10208 0
M  V30 6106 H 588.306 -0.366145 2.97153 0
M  V30 6107 H 585.852 -0.174673 1.42937 0
M  V30 6108 H 587.805 -2.79634 3.1525 0
M  V30 6109 H 586.529 -2.64248 1.91938 0
M  V30 6110 H 585.188 -1.17961 3.47103 0
M  V30 6111 H 584.836 -3.65563 3.45504 0
M  V30 6112 H 584.536 -2.96849 5.07104 0
M  V30 6113 H 586.06 -3.84226 4.74555 0
M  V30 6114 H 587.474 -1.69203 5.47762 0
M  V30 6115 H 585.871 -1.03064 5.91183 0
M  V30 6116 H 586.941 -0.0998818 4.84797 0
M  V30 6117 N 588.284 -1.56567 -0.180126 0
M  V30 6118 C 589.214 -1.98753 -1.22553 0
M  V30 6119 C 590.195 -0.86175 -1.46656 0
M  V30 6120 O 591.38 -1.12719 -1.58139 0
M  V30 6121 C 588.51 -2.33988 -2.56645 0
M  V30 6122 C 587.464 -3.49445 -2.47128 0
M  V30 6123 C 586.79 -3.70397 -3.8563 0
M  V30 6124 C 588.09 -4.83171 -1.98352 0
M  V30 6125 H 589.784 -2.86332 -0.874896 0
M  V30 6126 H 587.33 -1.37757 -0.419414 0
M  V30 6127 H 589.283 -2.62097 -3.29974 0
M  V30 6128 H 588.007 -1.43309 -2.93479 0
M  V30 6129 H 586.666 -3.2145 -1.76254 0
M  V30 6130 H 586.314 -2.77023 -4.19842 0
M  V30 6131 H 586.014 -4.48077 -3.80132 0
M  V30 6132 H 587.538 -4.00897 -4.60558 0
M  V30 6133 H 588.952 -5.10213 -2.61449 0
M  V30 6134 H 587.349 -5.64425 -2.03823 0
M  V30 6135 H 588.419 -4.75753 -0.937402 0
M  V30 6136 N 589.762 0.448376 -1.51087 0
M  V30 6137 C 591.009 1.19872 -1.63209 0
M  V30 6138 C 591.337 1.91451 -0.343062 0
M  V30 6139 O 590.592 1.83789 0.672321 0
M  V30 6140 C 590.891 2.24866 -2.77795 0
M  V30 6141 C 590.557 1.70378 -4.17471 0
M  V30 6142 C 589.219 1.55241 -4.55471 0
M  V30 6143 C 591.571 1.30203 -5.04675 0
M  V30 6144 C 588.899 0.983844 -5.78392 0
M  V30 6145 C 591.251 0.747798 -6.28165 0
M  V30 6146 C 589.915 0.583233 -6.64947 0
M  V30 6147 H 589.185 0.438642 -0.597222 0
M  V30 6148 H 591.832 0.49136 -1.85089 0
M  V30 6149 H 590.137 3.01598 -2.50092 0
M  V30 6150 H 591.834 2.82723 -2.84374 0
M  V30 6151 H 588.424 1.83134 -3.87505 0
M  V30 6152 H 592.608 1.40723 -4.75932 0
M  V30 6153 H 587.864 0.844007 -6.05546 0
M  V30 6154 H 592.038 0.427927 -6.95084 0
M  V30 6155 H 589.665 0.140532 -7.6007 0
M  V30 6156 N 591.24 1.41047 0.703093 0
M  V30 6157 C 592.17 1.45067 1.82969 0
M  V30 6158 C 593.151 0.31016 1.67248 0
M  V30 6159 O 594.336 0.520548 1.87093 0
M  V30 6160 C 591.466 1.32478 3.2104 0
M  V30 6161 C 590.42 2.44262 3.51454 0
M  V30 6162 C 589.746 2.16742 4.88801 0
M  V30 6163 C 591.046 3.86606 3.51189 0
M  V30 6164 H 592.74 2.39353 1.79863 0
M  V30 6165 H 590.286 1.15206 0.863919 0
M  V30 6166 H 592.239 1.33904 3.99559 0
M  V30 6167 H 590.963 0.346735 3.24754 0
M  V30 6168 H 589.622 2.42107 2.75282 0
M  V30 6169 H 589.27 1.17299 4.89132 0
M  V30 6170 H 588.97 2.91643 5.10116 0
M  V30 6171 H 590.494 2.19872 5.69639 0
M  V30 6172 H 591.908 3.90517 4.19725 0
M  V30 6173 H 590.305 4.61128 3.84033 0
M  V30 6174 H 591.375 4.15296 2.50315 0
M  V30 6175 N 592.718 -0.936591 1.26751 0
M  V30 6176 C 593.65 -2.03991 1.045 0
M  V30 6177 C 594.663 -1.628 0.00394261 0
M  V30 6178 O 595.852 -1.76817 0.244526 0
M  V30 6179 C 592.952 -3.34218 0.561403 0
M  V30 6180 C 592.125 -4.04151 1.67274 0
M  V30 6181 C 591.184 -5.12651 1.1864 0
M  V30 6182 O 590.21 -5.37104 1.88437 0
M  V30 6183 N 591.412 -5.80488 0.037278 0
M  V30 6184 H 594.177 -2.23644 1.99508 0
M  V30 6185 H 591.738 -1.10638 1.18198 0
M  V30 6186 H 593.73 -4.04101 0.220136 0
M  V30 6187 H 592.3 -3.11203 -0.295211 0
M  V30 6188 H 591.52 -3.28121 2.18472 0
M  V30 6189 H 592.808 -4.47626 2.41885 0
M  V30 6190 H 592.206 -5.63064 -0.545494 0
M  V30 6191 H 590.763 -6.5134 -0.244877 0
M  V30 6192 N 594.196 -1.08629 -1.14182 0
M  V30 6193 C 595.144 -0.71284 -2.21408 0
M  V30 6194 C 596.138 0.282457 -1.67029 0
M  V30 6195 O 597.344 0.144783 -1.79417 0
M  V30 6196 H 593.719 -0.212497 -0.721352 0
M  V30 6197 H 595.69 -1.6265 -2.50175 0
M  V30 6198 C 594.439 -0.140704 -3.47415 0
M  V30 6199 H 593.762 -0.897739 -3.8959 0
M  V30 6200 H 595.202 0.0827677 -4.23919 0
M  V30 6201 C 593.661 1.122 -3.17668 0
M  V30 6202 O 594.191 2.20652 -3.35672 0
M  V30 6203 N 592.397 1.03328 -2.71609 0
M  V30 6204 H 591.944 0.150666 -2.57159 0
M  V30 6205 H 591.902 1.8789 -2.52081 0
M  V30 6206 N 595.674 1.31259 -0.872281 0
M  V30 6207 C 596.923 1.95893 -0.480493 0
M  V30 6208 C 597.236 1.697 0.972688 0
M  V30 6209 O 598.442 2.28214 1.47073 0
M  V30 6210 C 596.898 3.50705 -0.808342 0
M  V30 6211 C 596.506 3.85735 -2.27844 0
M  V30 6212 C 598.25 4.21719 -0.485136 0
M  V30 6213 C 596.157 5.33668 -2.54858 0
M  V30 6214 H 595.087 0.733182 -0.175955 0
M  V30 6215 H 597.738 1.49396 -1.0655 0
M  V30 6216 H 596.12 3.95706 -0.152558 0
M  V30 6217 H 597.294 3.51686 -2.97748 0
M  V30 6218 H 595.609 3.27792 -2.56791 0
M  V30 6219 H 598.206 5.30559 -0.664166 0
M  V30 6220 H 598.549 4.12316 0.574592 0
M  V30 6221 H 599.082 3.82359 -1.09756 0
M  V30 6222 H 595.821 5.48109 -3.59523 0
M  V30 6223 H 595.341 5.69061 -1.8955 0
M  V30 6224 H 597.02 6.00958 -2.39706 0
M  V30 6225 N 597.152 0.631951 1.44375 0
M  V30 6226 C 598.38 0.143867 2.06399 0
M  V30 6227 C 598.795 -1.18188 1.47231 0
M  V30 6228 O 598.152 -1.72511 0.595498 0
M  V30 6229 C 598.203 0.0238253 3.61492 0
M  V30 6230 O 597.924 1.29715 4.18456 0
M  V30 6231 C 599.425 -0.492856 4.40552 0
M  V30 6232 H 596.645 0.0800542 0.666207 0
M  V30 6233 H 599.189 0.866586 1.85231 0
M  V30 6234 H 597.344 -0.649338 3.81919 0
M  V30 6235 H 597.758 1.14252 5.11905 0
M  V30 6236 H 599.232 -0.525861 5.49489 0
M  V30 6237 H 599.709 -1.52006 4.12057 0
M  V30 6238 H 600.315 0.147085 4.25046 0
M  V30 6239 N 598.631 -1.53133 0.372548 0
M  V30 6240 C 599.879 -2.00958 -0.214534 0
M  V30 6241 C 600.2 -1.26135 -1.48711 0
M  V30 6242 O 599.47 -0.376597 -1.92246 0
M  V30 6243 H 598.05 -0.742456 -0.0822664 0
M  V30 6244 H 600.712 -1.88367 0.500385 0
M  V30 6245 H 599.808 -3.09031 -0.436605 0
M  V30 6246 N 600.109 -0.101901 -1.5727 0
M  V30 6247 C 601.356 0.560197 -1.94597 0
M  V30 6248 C 601.684 1.67767 -0.984101 0
M  V30 6249 O 600.939 1.95699 -0.00489193 0
M  V30 6250 C 601.238 1.14898 -3.38427 0
M  V30 6251 C 600.904 0.154613 -4.50635 0
M  V30 6252 C 599.566 -0.118861 -4.81053 0
M  V30 6253 C 601.918 -0.523979 -5.18559 0
M  V30 6254 C 599.246 -1.0775 -5.76721 0
M  V30 6255 C 601.598 -1.47114 -6.15256 0
M  V30 6256 C 600.262 -1.75278 -6.44076 0
M  V30 6257 H 599.532 0.204991 -0.712081 0
M  V30 6258 H 602.179 -0.17918 -1.9066 0
M  V30 6259 H 600.484 1.96476 -3.38976 0
M  V30 6260 H 602.181 1.66909 -3.64613 0
M  V30 6261 H 598.771 0.377948 -4.2693 0
M  V30 6262 H 602.955 -0.325851 -4.95229 0
M  V30 6263 H 598.211 -1.30263 -5.97362 0
M  V30 6264 H 602.385 -2.00274 -6.66981 0
M  V30 6265 H 600.012 -2.49717 -7.18015 0
M  V30 6266 N 601.587 1.56661 0.17182 0
M  V30 6267 C 602.52 1.91474 1.24149 0
M  V30 6268 C 603.498 0.777485 1.42807 0
M  V30 6269 O 604.682 1.03075 1.57822 0
M  V30 6270 C 601.809 2.16523 2.60453 0
M  V30 6271 C 600.855 3.39209 2.58533 0
M  V30 6272 S 601.688 4.93594 2.07665 0
M  V30 6273 C 602.844 5.21737 3.45747 0
M  V30 6274 H 603.077 2.81903 0.944346 0
M  V30 6275 H 600.61 1.49743 0.376364 0
M  V30 6276 H 602.568 2.31635 3.38903 0
M  V30 6277 H 601.229 1.26802 2.87368 0
M  V30 6278 H 600.422 3.53935 3.58812 0
M  V30 6279 H 600.024 3.2321 1.88178 0
M  V30 6280 H 602.316 5.13684 4.41741 0
M  V30 6281 H 603.259 6.23361 3.35896 0
M  V30 6282 H 603.667 4.49307 3.41736 0
M  V30 6283 N 603.065 -0.440357 1.51323 0
M  V30 6284 C 604.311 -1.19181 1.64085 0
M  V30 6285 C 604.644 -1.90936 0.354575 0
M  V30 6286 O 603.919 -1.8347 -0.645675 0
M  V30 6287 C 604.202 -2.2112 2.84215 0
M  V30 6288 C 604.055 -1.53468 4.22809 0
M  V30 6289 C 605.374 -3.22133 2.99864 0
M  V30 6290 H 602.493 -0.431924 0.597169 0
M  V30 6291 H 605.135 -0.481443 1.83799 0
M  V30 6292 H 603.285 -2.81703 2.67537 0
M  V30 6293 H 604.957 -0.962455 4.51148 0
M  V30 6294 H 603.2 -0.837086 4.25647 0
M  V30 6295 H 603.871 -2.27694 5.02852 0
M  V30 6296 H 606.347 -2.71601 3.15233 0
M  V30 6297 H 605.223 -3.90756 3.85488 0
M  V30 6298 H 605.484 -3.88061 2.11804 0
M  V30 6299 N 604.543 -1.41418 -0.695603 0
M  V30 6300 C 605.791 -1.40496 -1.45277 0
M  V30 6301 C 606.112 -0.0149538 -1.94994 0
M  V30 6302 O 605.382 0.9432 -1.71699 0
M  V30 6303 H 603.962 -0.517147 -0.539044 0
M  V30 6304 H 606.624 -1.76656 -0.823321 0
M  V30 6305 H 605.72 -2.09214 -2.31595 0
M  V30 6306 N 606.021 0.929856 -1.27246 0
M  V30 6307 C 607.437 1.20542 -1.04603 0
M  V30 6308 C 607.637 2.00276 0.221754 0
M  V30 6309 O 606.693 2.34835 0.927833 0
M  V30 6310 C 608.006 1.95566 -2.28417 0
M  V30 6311 C 609.554 2.08513 -2.33433 0
M  V30 6312 C 610.029 2.86943 -3.5697 0
M  V30 6313 N 611.52 2.94512 -3.57515 0
M  V30 6314 C 612.255 3.55656 -4.49774 0
M  V30 6315 N 611.751 4.18209 -5.52334 0
M  V30 6316 N 613.544 3.53038 -4.37402 0
M  V30 6317 H 605.695 0.397113 -2.08655 0
M  V30 6318 H 607.958 0.238277 -0.917566 0
M  V30 6319 H 607.664 1.44395 -3.20691 0
M  V30 6320 H 607.538 2.9619 -2.33563 0
M  V30 6321 H 609.925 2.58872 -1.41666 0
M  V30 6322 H 610.006 1.07117 -2.32292 0
M  V30 6323 H 609.65 2.37268 -4.49072 0
M  V30 6324 H 609.58 3.8862 -3.55362 0
M  V30 6325 H 612.071 2.50053 -2.83341 0
M  V30 6326 H 612.384 4.62796 -6.18902 0
M  V30 6327 H 610.729 4.16761 -5.56179 0
M  V30 6328 H 613.92 3.0337 -3.56489 0
M  V30 6329 H 614.093 4.004 -5.09493 0
M  V30 6330 N 607.499 1.09233 1.13605 0
M  V30 6331 C 608.409 0.741939 2.22559 0
M  V30 6332 C 609.425 -0.255236 1.72118 0
M  V30 6333 O 610.601 -0.0970747 2.01166 0
M  V30 6334 C 607.666 0.165595 3.46304 0
M  V30 6335 C 606.727 1.21846 4.11645 0
M  V30 6336 C 605.96 0.669526 5.29484 0
M  V30 6337 O 606.183 -0.508228 5.68131 0
M  V30 6338 O 605.117 1.42361 5.84822 0
M  V30 6339 H 608.943 1.65107 2.54899 0
M  V30 6340 H 606.528 0.866584 1.21699 0
M  V30 6341 H 608.41 -0.152592 4.21124 0
M  V30 6342 H 607.085 -0.716573 3.15669 0
M  V30 6343 H 605.992 1.58931 3.38662 0
M  V30 6344 H 607.325 2.07321 4.46407 0
M  V30 6345 N 608.977 -1.30795 0.87923 0
M  V30 6346 C 610.207 -2.00237 0.50881 0
M  V30 6347 C 610.615 -1.66115 -0.905682 0
M  V30 6348 O 609.958 -0.89138 -1.60624 0
M  V30 6349 C 610.02 -3.54508 0.597003 0
M  V30 6350 C 609.684 -4.12131 1.97477 0
M  V30 6351 C 610.681 -4.28552 2.94346 0
M  V30 6352 C 608.366 -4.47644 2.2786 0
M  V30 6353 C 610.36 -4.79689 4.19735 0
M  V30 6354 C 608.047 -4.98481 3.53496 0
M  V30 6355 C 609.045 -5.14456 4.49248 0
M  V30 6356 O 608.733 -5.64199 5.72656 0
M  V30 6357 H 608.465 -0.647026 0.195788 0
M  V30 6358 H 611.019 -1.67785 1.1848 0
M  V30 6359 H 609.249 -3.86461 -0.135945 0
M  V30 6360 H 610.938 -4.05198 0.238684 0
M  V30 6361 H 611.704 -4.01424 2.72183 0
M  V30 6362 H 607.583 -4.34481 1.54102 0
M  V30 6363 H 611.127 -4.92073 4.9448 0
M  V30 6364 H 607.024 -5.25044 3.75498 0
M  V30 6365 H 607.792 -5.82551 5.74957 0
M  V30 6366 N 610.455 -0.639598 -1.44038 0
M  V30 6367 C 611.365 0.0612377 -2.3452 0
M  V30 6368 C 612.381 0.826717 -1.53106 0
M  V30 6369 O 613.557 0.777059 -1.85806 0
M  V30 6370 C 610.622 1.02492 -3.31204 0
M  V30 6371 C 609.683 0.25788 -4.28525 0
M  V30 6372 C 608.916 1.17566 -5.2059 0
M  V30 6373 O 609.139 2.41461 -5.16771 0
M  V30 6374 O 608.073 0.655407 -5.98321 0
M  V30 6375 H 611.899 -0.68318 -2.95916 0
M  V30 6376 H 609.484 -0.399784 -1.43952 0
M  V30 6377 H 611.366 1.57911 -3.90694 0
M  V30 6378 H 610.041 1.7498 -2.7233 0
M  V30 6379 H 608.948 -0.339566 -3.72556 0
M  V30 6380 H 610.281 -0.427154 -4.90343 0
M  V30 6381 N 611.933 1.52934 -0.380664 0
M  V30 6382 C 612.896 2.24809 0.446473 0
M  V30 6383 C 613.896 1.26133 0.997347 0
M  V30 6384 O 615.086 1.50297 0.880714 0
M  V30 6385 C 612.218 2.99649 1.62553 0
M  V30 6386 H 613.411 2.99343 -0.182677 0
M  V30 6387 H 610.964 1.55736 -0.132618 0
M  V30 6388 H 611.699 2.29395 2.29235 0
M  V30 6389 H 611.484 3.72066 1.23732 0
M  V30 6390 H 612.974 3.54246 2.21133 0
M  V30 6391 N 613.412 0.11024 1.57214 0
M  V30 6392 C 614.322 -0.857077 2.18383 0
M  V30 6393 C 615.338 -1.29915 1.1575 0
M  V30 6394 O 616.514 -1.36394 1.48184 0
M  V30 6395 C 613.579 -2.09264 2.76423 0
M  V30 6396 C 612.64 -1.70333 3.94063 0
M  V30 6397 C 611.873 -2.87999 4.49324 0
M  V30 6398 O 612.096 -4.0317 4.03497 0
M  V30 6399 O 611.03 -2.6559 5.40135 0
M  V30 6400 H 614.856 -0.366561 3.0148 0
M  V30 6401 H 612.441 -0.114914 1.48957 0
M  V30 6402 H 614.323 -2.81644 3.13456 0
M  V30 6403 H 612.998 -2.57339 1.96363 0
M  V30 6404 H 611.905 -0.950864 3.61814 0
M  V30 6405 H 613.238 -1.27007 4.75531 0
M  V30 6406 N 614.89 -1.56749 -0.16351 0
M  V30 6407 C 616.138 -1.82074 -0.87713 0
M  V30 6408 C 616.459 -0.688503 -1.82441 0
M  V30 6409 O 615.729 0.291085 -1.93725 0
M  V30 6410 H 614.309 -0.671677 -0.326893 0
M  V30 6411 H 616.971 -1.9423 -0.161459 0
M  V30 6412 H 616.067 -2.76407 -1.44934 0
M  V30 6413 N 616.368 0.432326 -1.51554 0
M  V30 6414 C 617.617 1.17831 -1.63703 0
M  V30 6415 C 617.93 1.92229 -0.36156 0
M  V30 6416 O 619.136 2.69069 -0.362495 0
M  V30 6417 C 617.592 2.14318 -2.89129 0
M  V30 6418 C 617.2 1.45544 -4.23699 0
M  V30 6419 C 618.944 2.89319 -3.10636 0
M  V30 6420 C 616.851 2.40545 -5.4027 0
M  V30 6421 H 615.781 0.443533 -0.60975 0
M  V30 6422 H 618.432 0.444878 -1.78026 0
M  V30 6423 H 616.814 2.91117 -2.68452 0
M  V30 6424 H 617.988 0.742693 -4.54775 0
M  V30 6425 H 616.303 0.826772 -4.0811 0
M  V30 6426 H 618.9 3.60495 -3.94902 0
M  V30 6427 H 619.243 3.50951 -2.23918 0
M  V30 6428 H 619.776 2.19625 -3.31677 0
M  V30 6429 H 616.515 1.83594 -6.29264 0
M  V30 6430 H 616.035 3.09859 -5.13563 0
M  V30 6431 H 617.714 3.01569 -5.72421 0
M  V30 6432 N 617.846 1.41785 0.688094 0
M  V30 6433 C 618.809 1.43936 1.78368 0
M  V30 6434 C 619.809 0.328866 1.57401 0
M  V30 6435 O 620.999 0.589093 1.63937 0
M  V30 6436 C 618.131 1.25804 3.16838 0
M  V30 6437 H 619.324 2.41472 1.77852 0
M  V30 6438 H 616.877 1.28037 0.896448 0
M  V30 6439 H 617.612 0.291386 3.22988 0
M  V30 6440 H 617.397 2.06272 3.33458 0
M  V30 6441 H 618.887 1.30162 3.96797 0
M  V30 6442 N 619.324 -0.923095 1.27737 0
M  V30 6443 C 620.271 -2.02432 1.1086 0
M  V30 6444 C 621.241 -1.66098 0.00835195 0
M  V30 6445 O 622.426 -1.90027 0.171542 0
M  V30 6446 C 619.566 -3.36476 0.766671 0
M  V30 6447 C 618.679 -3.85737 1.94501 0
M  V30 6448 C 617.814 -5.08249 1.54455 0
M  V30 6449 C 616.853 -5.49818 2.6901 0
M  V30 6450 N 615.99 -6.63524 2.29521 0
M  V30 6451 H 620.83 -2.16201 2.05089 0
M  V30 6452 H 618.367 -1.05909 1.02087 0
M  V30 6453 H 620.325 -4.13569 0.549223 0
M  V30 6454 H 618.955 -3.22502 -0.13867 0
M  V30 6455 H 618.007 -3.04883 2.27487 0
M  V30 6456 H 619.319 -4.12513 2.80419 0
M  V30 6457 H 618.473 -5.92857 1.28862 0
M  V30 6458 H 617.212 -4.83261 0.656534 0
M  V30 6459 H 616.217 -4.63757 2.95313 0
M  V30 6460 H 617.442 -5.76799 3.5844 0
M  V30 6461 H 615.388 -6.40185 1.43177 0
M  V30 6462 H 615.305 -6.89978 3.08977 0
M  V30 6463 H 616.573 -7.51461 2.07187 0
M  V30 6464 N 620.802 -1.09834 -1.13024 0
M  V30 6465 C 622.079 -0.749225 -1.80682 0
M  V30 6466 C 622.459 0.765171 -1.96744 0
M  V30 6467 O 621.807 1.68912 -1.53886 0
M  V30 6468 C 622.017 -1.49311 -3.15448 0
M  V30 6469 C 623.365 -1.66162 -3.90737 0
M  V30 6470 O 624.389 -1.45597 -3.25085 0
M  V30 6471 O 623.248 -2.00211 -5.08505 0
M  V30 6472 H 620.342 -0.269614 -0.781817 0
M  V30 6473 H 622.888 -1.20078 -1.19914 0
M  V30 6474 H 621.66 -2.52407 -2.99009 0
M  V30 6475 H 621.283 -1.034 -3.8392 0
M  V30 6476 N 622.28 1.30327 -0.886154 0
M  V30 6477 C 623.528 1.9571 -0.504195 0
M  V30 6478 C 623.849 1.70294 0.950003 0
M  V30 6479 O 623.119 1.02718 1.66811 0
M  V30 6480 H 621.699 0.72412 -0.183465 0
M  V30 6481 H 624.361 1.58835 -1.12949 0
M  V30 6482 H 623.457 3.04704 -0.675431 0
M  V30 6483 N 623.758 0.647228 1.43697 0
M  V30 6484 C 624.721 -0.0385101 2.29168 0
M  V30 6485 C 625.721 -0.756487 1.41894 0
M  V30 6486 O 626.911 -0.598641 1.63591 0
M  V30 6487 C 624.043 -1.06524 3.23829 0
M  V30 6488 H 625.236 0.713445 2.9129 0
M  V30 6489 H 622.789 0.408153 1.50877 0
M  V30 6490 H 623.524 -1.84664 2.66589 0
M  V30 6491 H 623.309 -0.554147 3.88164 0
M  V30 6492 H 624.799 -1.54432 3.87996 0
M  V30 6493 N 625.236 -1.5273 0.388769 0
M  V30 6494 C 626.183 -2.26437 -0.446639 0
M  V30 6495 C 627.153 -1.28025 -1.05824 0
M  V30 6496 O 628.338 -1.56852 -1.08637 0
M  V30 6497 C 625.478 -3.07407 -1.56828 0
M  V30 6498 C 624.591 -4.20747 -0.979589 0
M  V30 6499 C 623.726 -4.89113 -2.07224 0
M  V30 6500 C 622.765 -5.94447 -1.45942 0
M  V30 6501 N 621.902 -6.56411 -2.49135 0
M  V30 6502 H 626.742 -2.97404 0.18837 0
M  V30 6503 H 624.279 -1.46727 0.104725 0
M  V30 6504 H 626.237 -3.52642 -2.22934 0
M  V30 6505 H 624.867 -2.3865 -2.17361 0
M  V30 6506 H 623.919 -3.7983 -0.208151 0
M  V30 6507 H 625.231 -4.9637 -0.491747 0
M  V30 6508 H 624.385 -5.3765 -2.81101 0
M  V30 6509 H 623.124 -4.13013 -2.59368 0
M  V30 6510 H 622.129 -5.4525 -0.705894 0
M  V30 6511 H 623.354 -6.7248 -0.945932 0
M  V30 6512 H 621.3 -5.83152 -3.00449 0
M  V30 6513 H 621.217 -7.27645 -2.05105 0
M  V30 6514 H 622.485 -7.09592 -3.22644 0
M  V30 6515 N 626.714 -0.118576 -1.57153 0
M  V30 6516 C 627.647 0.869046 -2.11004 0
M  V30 6517 C 628.625 1.26115 -1.02634 0
M  V30 6518 O 629.809 1.36228 -1.30285 0
M  V30 6519 C 626.936 2.16297 -2.6064 0
M  V30 6520 C 625.982 1.91896 -3.80891 0
M  V30 6521 S 626.815 1.13562 -5.2332 0
M  V30 6522 C 627.971 2.44135 -5.76324 0
M  V30 6523 H 628.204 0.411005 -2.94445 0
M  V30 6524 H 625.737 0.0951891 -1.54106 0
M  V30 6525 H 627.695 2.90642 -2.89892 0
M  V30 6526 H 626.356 2.59219 -1.77382 0
M  V30 6527 H 625.549 2.8777 -4.13768 0
M  V30 6528 H 625.151 1.25672 -3.52253 0
M  V30 6529 H 627.443 3.39976 -5.86022 0
M  V30 6530 H 628.386 2.15803 -6.74414 0
M  V30 6531 H 628.794 2.53483 -5.04387 0
M  V30 6532 N 628.193 1.56834 0.155195 0
M  V30 6533 C 629.439 1.83169 0.870467 0
M  V30 6534 C 629.772 0.698929 1.81187 0
M  V30 6535 O 629.047 -0.298035 1.92203 0
M  V30 6536 C 629.33 3.19965 1.65211 0
M  V30 6537 C 629.183 4.43792 0.732744 0
M  V30 6538 C 630.502 3.53885 2.61636 0
M  V30 6539 H 627.621 0.666288 0.315006 0
M  V30 6540 H 630.263 1.89513 0.135988 0
M  V30 6541 H 628.413 3.14687 2.27825 0
M  V30 6542 H 630.085 4.61148 0.118236 0
M  V30 6543 H 628.328 4.3378 0.0417906 0
M  V30 6544 H 628.999 5.36095 1.31552 0
M  V30 6545 H 631.475 3.5972 2.09143 0
M  V30 6546 H 630.351 4.50648 3.13381 0
M  V30 6547 H 630.612 2.79418 3.42605 0
M  V30 6548 N 629.671 -0.424282 1.51781 0
M  V30 6549 C 630.634 -1.49848 1.73431 0
M  V30 6550 C 631.634 -1.49016 0.604225 0
M  V30 6551 O 632.824 -1.50808 0.871935 0
M  V30 6552 C 629.956 -2.89332 1.80277 0
M  V30 6553 H 631.149 -1.3195 2.69312 0
M  V30 6554 H 628.702 -0.653809 1.41968 0
M  V30 6555 H 629.437 -3.12618 0.862568 0
M  V30 6556 H 629.222 -2.9134 2.62419 0
M  V30 6557 H 630.712 -3.67233 1.98821 0
M  V30 6558 N 631.149 -1.42148 -0.680565 0
M  V30 6559 C 632.112 -1.4488 -1.77602 0
M  V30 6560 C 633.112 -0.337209 -1.57224 0
M  V30 6561 O 634.302 -0.597778 -1.63622 0
M  V30 6562 C 631.434 -1.27483 -3.16166 0
M  V30 6563 H 632.627 -2.42412 -1.76568 0
M  V30 6564 H 630.18 -1.28511 -0.889645 0
M  V30 6565 H 630.915 -0.30851 -3.22829 0
M  V30 6566 H 630.7 -2.08037 -3.3236 0
M  V30 6567 H 632.19 -1.32265 -3.96101 0
M  V30 6568 N 632.627 0.916307 -1.28225 0
M  V30 6569 C 633.873 1.66765 -1.154 0
M  V30 6570 C 634.206 1.91912 0.297251 0
M  V30 6571 O 633.481 1.51766 1.21644 0
M  V30 6572 C 633.764 3.02715 -1.95028 0
M  V30 6573 C 633.617 2.84738 -3.48201 0
M  V30 6574 C 634.936 4.03215 -1.76369 0
M  V30 6575 H 632.055 0.605205 -0.42059 0
M  V30 6576 H 634.697 1.06255 -1.57512 0
M  V30 6577 H 632.847 3.54365 -1.59242 0
M  V30 6578 H 634.519 2.40118 -3.9388 0
M  V30 6579 H 632.762 2.19848 -3.73964 0
M  V30 6580 H 633.433 3.8127 -3.99171 0
M  V30 6581 H 635.909 3.60617 -2.07593 0
M  V30 6582 H 634.785 4.96306 -2.34459 0
M  V30 6583 H 635.046 4.36288 -0.71452 0
M  V30 6584 N 634.105 1.10431 1.1244 0
M  V30 6585 C 635.068 0.756542 2.16354 0
M  V30 6586 C 636.068 -0.21899 1.59302 0
M  V30 6587 O 637.258 0.00415969 1.742 0
M  V30 6588 C 634.39 0.120612 3.40687 0
M  V30 6589 H 635.583 1.67696 2.48632 0
M  V30 6590 H 633.136 0.904832 1.27446 0
M  V30 6591 H 633.871 -0.810536 3.14008 0
M  V30 6592 H 633.656 0.822693 3.83372 0
M  V30 6593 H 635.146 -0.106945 4.17463 0
M  V30 6594 N 635.583 -1.29855 0.893053 0
M  V30 6595 C 636.823 -1.97612 0.522399 0
M  V30 6596 C 637.187 -1.68903 -0.913 0
M  V30 6597 O 638.388 -2.30059 -1.39019 0
M  V30 6598 C 636.659 -3.48356 0.79893 0
M  V30 6599 S 638.218 -4.35568 0.531588 0
M  V30 6600 H 635.036 -0.684005 0.194058 0
M  V30 6601 H 637.638 -1.57803 1.15406 0
M  V30 6602 H 636.342 -3.66743 1.84196 0
M  V30 6603 H 635.873 -3.93094 0.155133 0
M  V30 6604 H 637.888 -4.92232 -0.626295 0
M  V30 6605 N 637.061 -0.65484 -1.43351 0
M  V30 6606 C 638.024 0.0263562 -2.29185 0
M  V30 6607 C 639.024 0.748951 -1.42293 0
M  V30 6608 O 640.214 0.589957 -1.63906 0
M  V30 6609 C 637.346 1.04806 -3.2439 0
M  V30 6610 H 638.539 -0.728883 -2.90908 0
M  V30 6611 H 636.092 -0.416149 -1.50658 0
M  V30 6612 H 636.827 1.83247 -2.67565 0
M  V30 6613 H 636.612 0.533554 -3.88453 0
M  V30 6614 H 638.102 1.52372 -3.88809 0
M  V30 6615 N 638.539 1.52521 -0.396863 0
M  V30 6616 C 639.471 2.24333 0.469814 0
M  V30 6617 C 640.484 1.2685 1.02043 0
M  V30 6618 O 641.673 1.52876 0.92147 0
M  V30 6619 C 638.773 2.95202 1.66461 0
M  V30 6620 C 637.946 4.19454 1.24003 0
M  V30 6621 C 637.005 4.73255 2.30036 0
M  V30 6622 O 636.031 5.36151 1.91131 0
M  V30 6623 N 637.233 4.53765 3.62047 0
M  V30 6624 H 639.998 2.99347 -0.145468 0
M  V30 6625 H 637.559 1.60348 -0.223606 0
M  V30 6626 H 639.551 3.28092 2.36934 0
M  V30 6627 H 638.121 2.2345 2.18607 0
M  V30 6628 H 637.341 3.92517 0.363892 0
M  V30 6629 H 638.629 5.0017 0.933135 0
M  V30 6630 H 638.027 4.03576 3.96412 0
M  V30 6631 H 636.584 4.91124 4.28533 0
M  V30 6632 N 640.017 0.126909 1.57088 0
M  V30 6633 C 641.263 -0.529952 1.95753 0
M  V30 6634 C 641.596 -1.65823 1.01077 0
M  V30 6635 O 640.871 -1.94437 0.0494162 0
M  V30 6636 C 641.154 -1.05517 3.44294 0
M  V30 6637 C 641.007 0.0702253 4.49745 0
M  V30 6638 C 642.326 -1.9435 3.94862 0
M  V30 6639 H 639.445 -0.191168 0.711775 0
M  V30 6640 H 642.087 0.204071 1.88901 0
M  V30 6641 H 640.237 -1.68069 3.50264 0
M  V30 6642 H 641.909 0.705834 4.55868 0
M  V30 6643 H 640.152 0.732259 4.27575 0
M  V30 6644 H 640.823 -0.338642 5.5096 0
M  V30 6645 H 643.299 -1.41658 3.91244 0
M  V30 6646 H 642.175 -2.28015 4.993 0
M  V30 6647 H 642.436 -2.87299 3.36024 0
M  V30 6648 N 641.495 -1.56914 -0.146875 0
M  V30 6649 C 642.906 -1.72799 -0.706928 0
M  V30 6650 C 643.257 -0.741329 -1.81656 0
M  V30 6651 O 642.382 0.0920162 -2.16204 0
M  V30 6652 C 642.977 -3.13317 -1.28911 0
M  V30 6653 C 641.536 -3.30803 -1.79573 0
M  V30 6654 C 640.683 -2.68725 -0.684252 0
M  V30 6655 H 643.634 -1.58504 0.0787931 0
M  V30 6656 H 643.655 -3.13323 -2.15891 0
M  V30 6657 H 643.167 -3.85104 -0.481284 0
M  V30 6658 H 641.268 -2.64012 -2.62923 0
M  V30 6659 H 641.381 -4.38754 -1.92436 0
M  V30 6660 H 639.745 -2.29196 -1.11091 0
M  V30 6661 H 640.528 -3.43117 0.112134 0
M  V30 6662 N 642.974 0.416227 -1.52004 0
M  V30 6663 C 643.921 1.50666 -1.74838 0
M  V30 6664 C 644.891 1.55245 -0.590599 0
M  V30 6665 O 646.076 1.71928 -0.827374 0
M  V30 6666 C 643.216 2.88185 -1.89851 0
M  V30 6667 C 642.329 2.92971 -3.17478 0
M  V30 6668 C 641.464 4.21745 -3.22962 0
M  V30 6669 C 640.503 4.20478 -4.4482 0
M  V30 6670 N 639.64 5.40811 -4.47736 0
M  V30 6671 H 644.48 1.30498 -2.67907 0
M  V30 6672 H 642.017 0.633568 -1.32757 0
M  V30 6673 H 643.975 3.68007 -1.96537 0
M  V30 6674 H 642.605 3.06865 -1.00169 0
M  V30 6675 H 641.657 2.05684 -3.19997 0
M  V30 6676 H 642.969 2.87899 -4.07328 0
M  V30 6677 H 642.123 5.09954 -3.28682 0
M  V30 6678 H 640.862 4.29503 -2.31038 0
M  V30 6679 H 639.867 3.30659 -4.39254 0
M  V30 6680 H 641.092 4.14366 -5.38031 0
M  V30 6681 H 639.038 5.4925 -3.58692 0
M  V30 6682 H 638.955 5.37705 -5.31422 0
M  V30 6683 H 640.223 6.30993 -4.57676 0
M  V30 6684 N 644.452 1.42507 0.673017 0
M  V30 6685 C 645.701 1.42364 1.42883 0
M  V30 6686 C 646.014 0.0441598 1.9555 0
M  V30 6687 O 647.22 -0.0798679 2.71382 0
M  V30 6688 C 645.676 2.5043 2.58482 0
M  V30 6689 C 645.284 3.94392 2.12506 0
M  V30 6690 C 647.028 2.59455 3.35981 0
M  V30 6691 C 644.935 4.93964 3.25198 0
M  V30 6692 H 643.865 0.52951 0.536782 0
M  V30 6693 H 646.516 1.68422 0.728448 0
M  V30 6694 H 644.898 2.1754 3.30896 0
M  V30 6695 H 646.072 4.36645 1.47233 0
M  V30 6696 H 644.387 3.89233 1.4794 0
M  V30 6697 H 646.984 3.31025 4.19912 0
M  V30 6698 H 647.327 1.63869 3.82691 0
M  V30 6699 H 647.86 2.91549 2.70637 0
M  V30 6700 H 644.599 5.91034 2.83477 0
M  V30 6701 H 644.119 4.56341 3.89247 0
M  V30 6702 H 645.798 5.15763 3.90637 0
M  V30 6703 N 645.93 -0.909495 1.28709 0
M  V30 6704 C 647.158 -1.69272 1.18973 0
M  V30 6705 C 647.573 -1.87123 -0.251048 0
M  V30 6706 O 646.93 -1.40127 -1.16922 0
M  V30 6707 C 646.981 -3.08257 1.88839 0
M  V30 6708 O 646.702 -2.91228 3.27289 0
M  V30 6709 C 648.203 -4.02642 1.85457 0
M  V30 6710 H 645.423 -0.528999 0.412797 0
M  V30 6711 H 647.967 -1.13803 1.69909 0
M  V30 6712 H 646.122 -3.6053 1.41762 0
M  V30 6713 H 646.536 -3.79223 3.6234 0
M  V30 6714 H 648.01 -4.97613 2.38925 0
M  V30 6715 H 648.487 -4.31327 0.827893 0
M  V30 6716 H 649.093 -3.56298 2.32233 0
M  V30 6717 N 647.408 -1.11026 -1.11852 0
M  V30 6718 C 648.338 -0.786812 -2.19844 0
M  V30 6719 C 649.319 0.242935 -1.68356 0
M  V30 6720 O 650.504 0.107355 -1.93903 0
M  V30 6721 C 647.634 -0.224516 -3.46574 0
M  V30 6722 C 646.588 -1.18564 -4.1125 0
M  V30 6723 C 645.914 -0.484261 -5.32503 0
M  V30 6724 C 647.214 -2.53465 -4.56676 0
M  V30 6725 H 648.908 -1.68978 -2.47158 0
M  V30 6726 H 646.454 -0.813906 -1.18792 0
M  V30 6727 H 648.407 0.0139435 -4.21398 0
M  V30 6728 H 647.131 0.713722 -3.18706 0
M  V30 6729 H 645.79 -1.40966 -3.38414 0
M  V30 6730 H 645.438 0.458646 -5.00905 0
M  V30 6731 H 645.138 -1.12526 -5.76725 0
M  V30 6732 H 646.662 -0.254492 -6.10069 0
M  V30 6733 H 648.076 -2.35177 -5.22843 0
M  V30 6734 H 646.473 -3.13507 -5.11697 0
M  V30 6735 H 647.543 -3.13008 -3.70343 0
M  V30 6736 N 648.886 1.2938 -0.899927 0
M  V30 6737 C 650.135 1.9483 -0.521937 0
M  V30 6738 C 650.448 1.71725 0.936473 0
M  V30 6739 O 651.654 2.31282 1.42199 0
M  V30 6740 C 650.11 3.48911 -0.88255 0
M  V30 6741 C 649.718 3.80815 -2.35974 0
M  V30 6742 C 651.462 4.20595 -0.57448 0
M  V30 6743 C 649.369 5.28142 -2.66121 0
M  V30 6744 H 648.299 0.729285 -0.191468 0
M  V30 6745 H 650.95 1.47103 -1.09695 0
M  V30 6746 H 649.332 3.95293 -0.236459 0
M  V30 6747 H 650.506 3.45291 -3.05141 0
M  V30 6748 H 648.821 3.22271 -2.63686 0
M  V30 6749 H 651.418 5.29031 -0.776556 0
M  V30 6750 H 651.761 4.13442 0.487005 0
M  V30 6751 H 652.294 3.79945 -1.17842 0
M  V30 6752 H 649.033 5.4036 -3.71068 0
M  V30 6753 H 648.553 5.64913 -2.01578 0
M  V30 6754 H 650.232 5.95738 -2.52399 0
M  V30 6755 N 650.364 0.662433 1.43002 0
M  V30 6756 C 651.613 0.176873 2.00923 0
M  V30 6757 C 651.926 -1.21954 1.52927 0
M  V30 6758 O 653.132 -1.80081 2.03182 0
M  V30 6759 C 651.588 0.265379 3.5892 0
M  V30 6760 C 651.196 1.66507 4.15908 0
M  V30 6761 C 652.94 -0.162103 4.2419 0
M  V30 6762 C 650.847 1.707 5.66229 0
M  V30 6763 H 649.777 0.0623627 0.751417 0
M  V30 6764 H 652.428 0.825813 1.63868 0
M  V30 6765 H 650.81 -0.451235 3.93421 0
M  V30 6766 H 651.984 2.40777 3.92891 0
M  V30 6767 H 650.299 2.03932 3.63044 0
M  V30 6768 H 652.896 -0.150745 5.34487 0
M  V30 6769 H 653.239 -1.19519 3.98774 0
M  V30 6770 H 653.772 0.503075 3.94606 0
M  V30 6771 H 650.511 2.7195 5.96426 0
M  V30 6772 H 650.031 1.00768 5.91275 0
M  V30 6773 H 651.71 1.45487 6.3043 0
M  V30 6774 N 651.842 -1.52309 0.404946 0
M  V30 6775 C 653.09 -2.01368 -0.17186 0
M  V30 6776 C 653.411 -1.29261 -1.46002 0
M  V30 6777 O 652.681 -0.41729 -1.91404 0
M  V30 6778 H 651.261 -0.744034 -0.0664993 0
M  V30 6779 H 653.923 -1.87263 0.540228 0
M  V30 6780 H 653.019 -3.09888 -0.370957 0
M  V30 6781 N 653.32 -0.135238 -1.57019 0
M  V30 6782 C 654.568 0.51777 -1.95355 0
M  V30 6783 C 654.889 1.6617 -1.02042 0
M  V30 6784 O 654.159 1.95738 -0.0797343 0
M  V30 6785 H 652.739 0.194264 -0.721298 0
M  V30 6786 H 655.401 -0.207983 -1.93787 0
M  V30 6787 H 654.497 0.901675 -2.98791 0
M  V30 6788 N 654.798 1.5699 0.138552 0
M  V30 6789 C 656.023 1.88344 0.86841 0
M  V30 6790 C 656.448 0.725159 1.7356 0
M  V30 6791 O 655.806 -0.324992 1.78363 0
M  V30 6792 C 655.854 3.18334 1.69398 0
M  V30 6793 O 654.958 3.02863 2.79907 0
M  V30 6794 H 654.299 0.618577 0.241367 0
M  V30 6795 H 656.829 2.04207 0.126826 0
M  V30 6796 H 656.839 3.50567 2.08726 0
M  V30 6797 H 655.514 4.02238 1.05725 0
M  V30 6798 H 654.091 2.82056 2.43924 0
M  V30 6799 N 656.276 -0.40816 1.52223 0
M  V30 6800 C 657.506 -1.17501 1.69932 0
M  V30 6801 C 657.914 -1.84729 0.408874 0
M  V30 6802 O 657.257 -1.7274 -0.625025 0
M  V30 6803 C 657.319 -2.27994 2.77955 0
M  V30 6804 C 656.983 -1.80894 4.19674 0
M  V30 6805 C 657.98 -1.29618 5.03483 0
M  V30 6806 C 655.665 -1.87698 4.65913 0
M  V30 6807 C 657.659 -0.857695 6.31603 0
M  V30 6808 C 655.346 -1.43461 5.94022 0
M  V30 6809 C 656.344 -0.925822 6.76696 0
M  V30 6810 O 656.032 -0.489841 8.02406 0
M  V30 6811 H 655.764 -0.359065 0.572755 0
M  V30 6812 H 658.318 -0.486188 1.99563 0
M  V30 6813 H 656.548 -3.00243 2.43703 0
M  V30 6814 H 658.237 -2.89749 2.84254 0
M  V30 6815 H 659.003 -1.23733 4.68951 0
M  V30 6816 H 654.882 -2.26244 4.01665 0
M  V30 6817 H 658.426 -0.459879 6.96083 0
M  V30 6818 H 654.323 -1.49026 6.28062 0
M  V30 6819 H 655.091 -0.613062 8.16201 0
M  V30 6820 N 657.755 -1.42862 -0.66545 0
M  V30 6821 C 659.003 -1.43546 -1.42264 0
M  V30 6822 C 659.324 -0.0563116 -1.94919 0
M  V30 6823 O 658.594 0.906568 -1.73661 0
M  V30 6824 H 657.174 -0.528464 -0.527953 0
M  V30 6825 H 659.836 -1.78363 -0.785665 0
M  V30 6826 H 658.932 -2.14079 -2.27105 0
M  V30 6827 N 659.233 0.902656 -1.29189 0
M  V30 6828 C 660.196 1.98797 -1.14071 0
M  V30 6829 C 661.196 1.60615 -0.0770549 0
M  V30 6830 O 662.386 1.71165 -0.323753 0
M  V30 6831 C 659.518 3.32688 -0.743739 0
M  V30 6832 H 660.711 2.13637 -2.10473 0
M  V30 6833 H 658.264 1.08678 -1.12334 0
M  V30 6834 H 658.999 3.23549 0.220554 0
M  V30 6835 H 658.784 3.61765 -1.51223 0
M  V30 6836 H 660.274 4.12337 -0.660935 0
M  V30 6837 N 660.711 1.11618 1.11262 0
M  V30 6838 C 661.959 0.864469 1.82678 0
M  V30 6839 C 662.28 -0.611564 1.85162 0
M  V30 6840 O 661.55 -1.44429 1.32352 0
M  V30 6841 H 660.13 0.316821 0.676486 0
M  V30 6842 H 662.792 1.40894 1.34666 0
M  V30 6843 H 661.888 1.23832 2.86482 0
M  V30 6844 N 662.189 -1.289 0.906776 0
M  V30 6845 C 663.137 -2.29477 0.379873 0
M  V30 6846 C 664.131 -1.61068 -0.524747 0
M  V30 6847 O 665.337 -1.75344 -0.406765 0
M  V30 6848 H 661.712 -0.744742 0.10423 0
M  V30 6849 H 663.683 -2.71353 1.24137 0
M  V30 6850 C 662.432 -3.45713 -0.371154 0
M  V30 6851 H 661.755 -3.98551 0.315716 0
M  V30 6852 H 663.195 -4.18105 -0.704581 0
M  V30 6853 C 661.654 -2.9774 -1.57646 0
M  V30 6854 O 662.184 -2.99618 -2.67567 0
M  V30 6855 N 660.39 -2.53485 -1.42105 0
M  V30 6856 H 659.937 -2.52156 -0.526783 0
M  V30 6857 H 659.895 -2.21747 -2.22881 0
M  V30 6858 N 663.667 -0.670007 -1.42649 0
M  V30 6859 C 664.897 -0.198252 -2.05647 0
M  V30 6860 C 665.305 1.14786 -1.50402 0
M  V30 6861 O 664.648 1.72316 -0.636634 0
M  V30 6862 C 664.71 -0.0507132 -3.59464 0
M  V30 6863 C 664.374 -1.32478 -4.37377 0
M  V30 6864 C 665.371 -2.2572 -4.68344 0
M  V30 6865 C 663.056 -1.57104 -4.77099 0
M  V30 6866 C 665.05 -3.4187 -5.37963 0
M  V30 6867 C 662.737 -2.73543 -5.46459 0
M  V30 6868 C 663.735 -3.65751 -5.76815 0
M  V30 6869 O 663.423 -4.80154 -6.44753 0
M  V30 6870 H 663.155 -0.0950721 -0.669281 0
M  V30 6871 H 665.709 -0.915745 -1.83857 0
M  V30 6872 H 663.939 0.722314 -3.79894 0
M  V30 6873 H 665.628 0.380552 -4.04112 0
M  V30 6874 H 666.394 -2.07943 -4.38161 0
M  V30 6875 H 662.273 -0.862069 -4.52868 0
M  V30 6876 H 665.817 -4.13861 -5.61574 0
M  V30 6877 H 661.714 -2.91248 -5.7606 0
M  V30 6878 H 662.482 -4.79637 -6.63243 0
M  V30 6879 N 665.145 1.52092 -0.413018 0
M  V30 6880 C 666.393 2.01456 0.161178 0
M  V30 6881 C 666.714 1.30034 1.45314 0
M  V30 6882 O 665.984 0.427435 1.9118 0
M  V30 6883 H 664.564 0.744376 0.0625526 0
M  V30 6884 H 667.226 1.86974 -0.550151 0
M  V30 6885 H 666.322 3.1008 0.354517 0
M  V30 6886 N 666.623 0.143563 1.56945 0
M  V30 6887 C 667.556 -0.835367 2.1236 0
M  V30 6888 C 668.534 -1.24466 1.04627 0
M  V30 6889 O 669.718 -1.34138 1.32436 0
M  V30 6890 C 666.845 -2.12123 2.64048 0
M  V30 6891 C 665.891 -1.85812 3.83896 0
M  V30 6892 S 666.724 -1.05222 5.25061 0
M  V30 6893 C 667.88 -2.34935 5.80135 0
M  V30 6894 H 668.113 -0.364109 2.95062 0
M  V30 6895 H 665.646 -0.0706601 1.54238 0
M  V30 6896 H 667.604 -2.85993 2.94479 0
M  V30 6897 H 666.265 -2.56364 1.81483 0
M  V30 6898 H 665.458 -2.81151 4.18294 0
M  V30 6899 H 665.06 -1.20052 3.54208 0
M  V30 6900 H 667.352 -3.3061 5.91357 0
M  V30 6901 H 668.295 -2.05046 6.77762 0
M  V30 6902 H 668.703 -2.45426 5.08356 0
M  V30 6903 N 668.101 -1.57061 -0.130224 0
M  V30 6904 C 669.341 -1.86071 -0.845993 0
M  V30 6905 C 669.705 -0.73009 -1.77577 0
M  V30 6906 O 670.906 -0.901663 -2.53226 0
M  V30 6907 C 669.177 -3.20293 -1.58579 0
M  V30 6908 S 670.736 -3.70905 -2.34467 0
M  V30 6909 H 667.554 -0.652434 -0.282579 0
M  V30 6910 H 670.156 -1.95218 -0.10498 0
M  V30 6911 H 668.86 -4.00533 -0.894509 0
M  V30 6912 H 668.391 -3.14195 -2.36739 0
M  V30 6913 H 670.406 -3.41509 -3.59981 0
M  V30 6914 N 669.579 0.400081 -1.52437 0
M  V30 6915 C 670.827 1.14392 -1.6661 0
M  V30 6916 C 671.148 1.90792 -0.402927 0
M  V30 6917 O 670.418 1.87042 0.582425 0
M  V30 6918 H 668.998 0.425275 -0.614125 0
M  V30 6919 H 671.66 0.455076 -1.89513 0
M  V30 6920 H 670.756 1.85298 -2.51139 0
M  V30 6921 N 671.057 1.43213 0.657864 0
M  V30 6922 C 672.473 1.26511 0.972992 0
M  V30 6923 C 672.673 0.181477 2.00681 0
M  V30 6924 O 671.729 -0.441649 2.48608 0
M  V30 6925 C 673.042 2.62784 1.46168 0
M  V30 6926 C 674.59 2.70278 1.57857 0
M  V30 6927 C 675.065 4.06958 2.10117 0
M  V30 6928 N 676.556 4.08999 2.17426 0
M  V30 6929 C 677.291 5.11585 2.58975 0
M  V30 6930 N 676.787 6.24548 2.99853 0
M  V30 6931 N 678.58 4.9894 2.58873 0
M  V30 6932 H 670.731 2.12384 -0.0263129 0
M  V30 6933 H 672.994 0.946638 0.0507992 0
M  V30 6934 H 672.7 3.43022 0.776474 0
M  V30 6935 H 672.574 2.87863 2.43751 0
M  V30 6936 H 674.961 1.90376 2.25479 0
M  V30 6937 H 675.042 2.4897 0.587179 0
M  V30 6938 H 674.686 4.87325 1.43098 0
M  V30 6939 H 674.616 4.25628 3.10078 0
M  V30 6940 H 677.107 3.27457 1.88627 0
M  V30 6941 H 677.42 6.98661 3.30292 0
M  V30 6942 H 675.765 6.28027 2.97669 0
M  V30 6943 H 678.956 4.09757 2.26311 0
M  V30 6944 H 679.129 5.79019 2.90932 0
M  V30 6945 N 672.536 -0.895792 1.29666 0
M  V30 6946 C 673.499 -1.98189 1.15124 0
M  V30 6947 C 674.499 -1.60572 0.0855717 0
M  V30 6948 O 675.689 -1.70991 0.332826 0
M  V30 6949 C 672.821 -3.32289 0.761372 0
M  V30 6950 H 674.014 -2.12518 2.11603 0
M  V30 6951 H 671.567 -1.0808 1.12908 0
M  V30 6952 H 672.302 -3.23662 -0.203393 0
M  V30 6953 H 672.087 -3.60958 1.53139 0
M  V30 6954 H 673.577 -4.1198 0.682792 0
M  V30 6955 N 674.014 -1.12206 -1.10668 0
M  V30 6956 C 675.244 -0.897332 -1.86095 0
M  V30 6957 C 675.652 0.556778 -1.80822 0
M  V30 6958 O 674.995 1.39658 -1.19337 0
M  V30 6959 C 675.057 -1.29095 -3.35522 0
M  V30 6960 C 674.721 -2.75586 -3.64556 0
M  V30 6961 C 675.718 -3.73785 -3.6136 0
M  V30 6962 C 673.403 -3.12432 -3.93309 0
M  V30 6963 C 675.397 -5.06845 -3.86506 0
M  V30 6964 C 673.084 -4.45675 -4.18111 0
M  V30 6965 C 674.082 -5.42691 -4.147 0
M  V30 6966 O 673.77 -6.73532 -4.38873 0
M  V30 6967 H 673.502 -0.320704 -0.595084 0
M  V30 6968 H 676.056 -1.49517 -1.40833 0
M  V30 6969 H 674.286 -0.636299 -3.81429 0
M  V30 6970 H 675.975 -1.04073 -3.92331 0
M  V30 6971 H 676.741 -3.46664 -3.39189 0
M  V30 6972 H 672.62 -2.3753 -3.95096 0
M  V30 6973 H 676.164 -5.82559 -3.83758 0
M  V30 6974 H 672.061 -4.72526 -4.39761 0
M  V30 6975 H 672.829 -6.79442 -4.564 0
M  V30 6976 N 675.492 1.28418 -0.913599 0
M  V30 6977 C 676.717 1.99643 -0.561899 0
M  V30 6978 C 677.142 1.67819 0.849608 0
M  V30 6979 O 676.5 0.910503 1.56779 0
M  V30 6980 C 676.548 3.52116 -0.777622 0
M  V30 6981 O 675.652 4.12076 0.163457 0
M  V30 6982 H 674.993 0.627229 -0.217898 0
M  V30 6983 H 677.523 1.63575 -1.229 0
M  V30 6984 H 677.533 4.02163 -0.687666 0
M  V30 6985 H 676.208 3.74613 -1.8066 0
M  V30 6986 H 674.785 3.72892 0.0247827 0
M  V30 6987 N 676.97 0.677563 1.42291 0
M  V30 6988 C 678.381 0.277912 1.8462 0
M  V30 6989 C 678.732 -1.18048 1.56714 0
M  V30 6990 O 677.857 -1.90404 1.02836 0
M  V30 6991 C 678.452 0.497619 3.35126 0
M  V30 6992 C 677.011 0.152063 3.76093 0
M  V30 6993 C 676.158 0.78872 2.65847 0
M  V30 6994 H 679.109 0.879527 1.32098 0
M  V30 6995 H 679.13 -0.24939 3.79682 0
M  V30 6996 H 678.642 1.55913 3.55405 0
M  V30 6997 H 676.743 -0.905896 3.6142 0
M  V30 6998 H 676.856 0.594514 4.75397 0
M  V30 6999 H 675.22 0.219813 2.5375 0
M  V30 7000 H 676.003 1.85374 2.88949 0
M  V30 7001 N 678.448 -1.51871 0.421078 0
M  V30 7002 C 679.864 -1.59435 0.0725398 0
M  V30 7003 C 680.064 -1.43315 -1.41644 0
M  V30 7004 O 679.12 -1.26614 -2.18461 0
M  V30 7005 C 680.433 -2.9509 0.578132 0
M  V30 7006 C 681.981 -3.08356 0.537149 0
M  V30 7007 C 682.456 -4.4651 1.01945 0
M  V30 7008 N 683.947 -4.52784 0.976758 0
M  V30 7009 C 684.682 -5.57976 1.32099 0
M  V30 7010 N 684.178 -6.70664 1.73727 0
M  V30 7011 N 685.971 -5.48248 1.2402 0
M  V30 7012 H 678.122 -1.60595 1.39007 0
M  V30 7013 H 680.385 -0.756138 0.571803 0
M  V30 7014 H 680.091 -3.12205 1.61929 0
M  V30 7015 H 679.965 -3.772 -0.00578374 0
M  V30 7016 H 682.352 -2.90919 -0.494991 0
M  V30 7017 H 682.433 -2.28125 1.15727 0
M  V30 7018 H 682.077 -4.64692 2.04997 0
M  V30 7019 H 682.007 -5.25256 0.376023 0
M  V30 7020 H 684.498 -3.71898 0.670851 0
M  V30 7021 H 684.811 -7.46932 1.98274 0
M  V30 7022 H 683.156 -6.71914 1.77641 0
M  V30 7023 H 686.347 -4.59095 0.913756 0
M  V30 7024 H 686.52 -6.30119 1.51176 0
M  V30 7025 N 679.926 -0.151884 -1.56866 0
M  V30 7026 C 681.173 0.498004 -1.96281 0
M  V30 7027 C 681.501 1.64551 -1.03698 0
M  V30 7028 O 680.756 1.95585 -0.0671497 0
M  V30 7029 C 681.055 1.04074 -3.41911 0
M  V30 7030 C 680.721 0.0111688 -4.50899 0
M  V30 7031 C 679.383 -0.271844 -4.80432 0
M  V30 7032 C 681.735 -0.68869 -5.1663 0
M  V30 7033 C 679.063 -1.26044 -5.73001 0
M  V30 7034 C 681.415 -1.66613 -6.10264 0
M  V30 7035 C 680.079 -1.9568 -6.38174 0
M  V30 7036 H 679.349 0.182233 -0.718242 0
M  V30 7037 H 681.996 -0.239746 -1.89993 0
M  V30 7038 H 680.301 1.85592 -3.45055 0
M  V30 7039 H 681.998 1.55224 -3.69738 0
M  V30 7040 H 678.588 0.241932 -4.27917 0
M  V30 7041 H 682.772 -0.48324 -4.93942 0
M  V30 7042 H 678.028 -1.49202 -5.92915 0
M  V30 7043 H 682.202 -2.21392 -6.60272 0
M  V30 7044 H 679.829 -2.72434 -7.09707 0
M  V30 7045 N 681.404 1.57128 0.121893 0
M  V30 7046 C 682.334 2.03165 1.15092 0
M  V30 7047 C 683.315 0.915587 1.43356 0
M  V30 7048 O 684.5 1.1851 1.53847 0
M  V30 7049 C 681.63 2.43352 2.47784 0
M  V30 7050 C 680.584 3.58376 2.33989 0
M  V30 7051 C 679.91 3.84454 3.71617 0
M  V30 7052 C 681.21 4.90199 1.80283 0
M  V30 7053 H 682.904 2.89382 0.768023 0
M  V30 7054 H 680.45 1.39218 0.367998 0
M  V30 7055 H 682.403 2.74163 3.20019 0
M  V30 7056 H 681.127 1.54103 2.87958 0
M  V30 7057 H 679.786 3.2777 1.64202 0
M  V30 7058 H 679.434 2.92414 4.09271 0
M  V30 7059 H 679.134 4.61877 3.6324 0
M  V30 7060 H 680.658 4.17714 4.45362 0
M  V30 7061 H 682.072 5.19565 2.42333 0
M  V30 7062 H 680.469 5.71601 1.82735 0
M  V30 7063 H 681.539 4.78904 0.760184 0
M  V30 7064 N 682.882 -0.391992 1.52647 0
M  V30 7065 C 684.112 -1.15692 1.71169 0
M  V30 7066 C 684.52 -1.84285 0.428444 0
M  V30 7067 O 683.863 -1.73393 -0.606669 0
M  V30 7068 C 683.925 -2.25033 2.80357 0
M  V30 7069 C 683.589 -1.76433 4.21569 0
M  V30 7070 C 684.586 -1.2427 5.0483 0
M  V30 7071 C 682.271 -1.82746 4.67877 0
M  V30 7072 C 684.265 -0.790657 6.32477 0
M  V30 7073 C 681.952 -1.37153 5.9551 0
M  V30 7074 C 682.95 -0.853997 6.7764 0
M  V30 7075 O 682.638 -0.404708 8.02881 0
M  V30 7076 H 682.37 -0.35297 0.576531 0
M  V30 7077 H 684.924 -0.464994 2.00067 0
M  V30 7078 H 683.154 -2.97641 2.46874 0
M  V30 7079 H 684.843 -2.86718 2.87311 0
M  V30 7080 H 685.609 -1.18752 4.70237 0
M  V30 7081 H 681.488 -2.21971 4.04042 0
M  V30 7082 H 685.032 -0.386024 6.96531 0
M  V30 7083 H 680.929 -1.42356 6.29607 0
M  V30 7084 H 681.697 -0.526459 8.16805 0
M  V30 7085 N 684.36 -1.4356 -0.65026 0
M  V30 7086 C 685.609 -1.44619 -1.406 0
M  V30 7087 C 685.922 -0.0752645 -1.95455 0
M  V30 7088 O 687.128 0.0366832 -2.71475 0
M  V30 7089 C 685.584 -2.54511 -2.54465 0
M  V30 7090 C 685.192 -3.97723 -2.06204 0
M  V30 7091 C 686.936 -2.64768 -3.31811 0
M  V30 7092 C 684.843 -4.99075 -3.17298 0
M  V30 7093 H 683.773 -0.537983 -0.52829 0
M  V30 7094 H 686.424 -1.69559 -0.701561 0
M  V30 7095 H 684.806 -2.22777 -3.27393 0
M  V30 7096 H 685.98 -4.38932 -1.40267 0
M  V30 7097 H 684.295 -3.91538 -1.41729 0
M  V30 7098 H 686.892 -3.37664 -4.14593 0
M  V30 7099 H 687.235 -1.69936 -3.80036 0
M  V30 7100 H 687.768 -2.95817 -2.65964 0
M  V30 7101 H 684.507 -5.95469 -2.74038 0
M  V30 7102 H 684.027 -4.62476 -3.81937 0
M  V30 7103 H 685.706 -5.21913 -3.82382 0
M  V30 7104 N 685.838 0.888903 -1.30139 0
M  V30 7105 C 687.084 1.64288 -1.19922 0
M  V30 7106 C 687.439 1.90839 0.244561 0
M  V30 7107 O 686.732 1.51544 1.17239 0
M  V30 7108 C 686.926 2.99041 -1.95728 0
M  V30 7109 C 686.755 2.85644 -3.47329 0
M  V30 7110 C 685.525 2.85836 -4.16685 0
M  V30 7111 C 687.723 2.6188 -4.42632 0
M  V30 7112 N 685.705 2.63289 -5.54574 0
M  V30 7113 C 687.076 2.48418 -5.68057 0
M  V30 7114 C 689.131 2.47073 -4.32272 0
M  V30 7115 C 687.834 2.21655 -6.84296 0
M  V30 7116 C 689.86 2.21695 -5.48275 0
M  V30 7117 C 689.222 2.09007 -6.72678 0
M  V30 7118 H 685.321 0.606315 -0.493868 0
M  V30 7119 H 687.905 1.0478 -1.64102 0
M  V30 7120 H 686.076 3.56589 -1.53945 0
M  V30 7121 H 687.808 3.63607 -1.77685 0
M  V30 7122 H 684.563 2.97521 -3.68481 0
M  V30 7123 H 684.987 2.55039 -6.27124 0
M  V30 7124 H 689.629 2.55621 -3.36776 0
M  V30 7125 H 687.347 2.11845 -7.79838 0
M  V30 7126 H 690.933 2.11067 -5.42164 0
M  V30 7127 H 689.813 1.89643 -7.60924 0
M  V30 7128 N 687.317 1.12792 1.10072 0
M  V30 7129 C 688.728 0.899346 1.63611 0
M  V30 7130 C 689.079 -0.565547 1.87872 0
M  V30 7131 O 688.204 -1.43081 1.62348 0
M  V30 7132 C 688.799 1.62608 2.97227 0
M  V30 7133 C 687.358 1.44356 3.47618 0
M  V30 7134 C 686.505 1.65958 2.22156 0
M  V30 7135 H 689.456 1.28216 0.935223 0
M  V30 7136 H 689.477 1.0793 3.64872 0
M  V30 7137 H 688.989 2.69221 2.79538 0
M  V30 7138 H 687.09 0.400148 3.70445 0
M  V30 7139 H 687.203 2.20218 4.25489 0
M  V30 7140 H 685.567 1.08395 2.30484 0
M  V30 7141 H 686.35 2.73877 2.06993 0
M  V30 7142 N 688.795 -1.27931 0.920396 0
M  V30 7143 C 689.743 -2.29061 0.404191 0
M  V30 7144 C 690.737 -1.61615 -0.507634 0
M  V30 7145 O 691.943 -1.75765 -0.388144 0
M  V30 7146 H 688.318 -0.743594 0.112123 0
M  V30 7147 H 690.289 -2.70021 1.27008 0
M  V30 7148 C 689.038 -3.46088 -0.334466 0
M  V30 7149 H 688.361 -3.98194 0.35797 0
M  V30 7150 H 689.801 -4.18829 -0.660196 0
M  V30 7151 C 688.26 -2.99396 -1.54479 0
M  V30 7152 O 688.79 -3.02439 -2.64374 0
M  V30 7153 N 686.996 -2.54978 -1.39408 0
M  V30 7154 H 686.543 -2.52701 -0.500009 0
M  V30 7155 H 686.501 -2.24098 -2.20516 0
M  V30 7156 N 690.273 -0.685099 -1.4193 0
M  V30 7157 C 691.236 -0.0222632 -2.29189 0
M  V30 7158 C 692.236 0.7186 -1.4385 0
M  V30 7159 O 693.426 0.555058 -1.6512 0
M  V30 7160 C 690.558 0.979013 -3.2654 0
M  V30 7161 H 691.751 -0.790424 -2.89296 0
M  V30 7162 H 689.304 -0.448012 -1.49742 0
M  V30 7163 H 690.039 1.77531 -2.71392 0
M  V30 7164 H 689.824 0.451037 -3.89497 0
M  V30 7165 H 691.314 1.44091 -3.91954 0
M  V30 7166 N 691.751 1.51645 -0.429126 0
M  V30 7167 C 693.167 1.59394 -0.080994 0
M  V30 7168 C 693.367 1.44064 1.40882 0
M  V30 7169 O 692.423 1.27771 2.17786 0
M  V30 7170 C 693.736 2.94779 -0.593773 0
M  V30 7171 C 695.284 3.08067 -0.553494 0
M  V30 7172 C 695.759 4.45963 -1.04311 0
M  V30 7173 N 697.25 4.5226 -1.00076 0
M  V30 7174 C 697.985 5.57268 -1.35056 0
M  V30 7175 N 697.481 6.69734 -1.77282 0
M  V30 7176 N 699.274 5.47582 -1.26925 0
M  V30 7177 H 691.425 1.59856 -1.39857 0
M  V30 7178 H 693.688 0.753095 -0.575805 0
M  V30 7179 H 693.394 3.11342 -1.63583 0
M  V30 7180 H 693.268 3.77197 -0.0142202 0
M  V30 7181 H 695.655 2.91177 0.479556 0
M  V30 7182 H 695.736 2.27508 -1.16935 0
M  V30 7183 H 695.38 4.63598 -2.07459 0
M  V30 7184 H 695.31 5.25049 -0.403873 0
M  V30 7185 H 697.801 3.71537 -0.690564 0
M  V30 7186 H 698.114 7.4587 -2.02232 0
M  V30 7187 H 696.459 6.70963 -1.81202 0
M  V30 7188 H 699.65 4.58604 -0.93809 0
M  V30 7189 H 699.823 6.29308 -1.54516 0
M  V30 7190 N 693.229 0.160201 1.56784 0
M  V30 7191 C 694.478 -0.487619 1.95717 0
M  V30 7192 C 694.791 -1.65136 1.0483 0
M  V30 7193 O 695.997 -2.36468 1.33398 0
M  V30 7194 C 694.453 -0.91888 3.47972 0
M  V30 7195 C 694.061 0.218655 4.47466 0
M  V30 7196 C 695.805 -1.53575 3.95746 0
M  V30 7197 C 693.712 -0.231614 5.90946 0
M  V30 7198 H 692.642 -0.185939 0.730714 0
M  V30 7199 H 695.293 0.246657 1.81835 0
M  V30 7200 H 693.675 -1.70881 3.57234 0
M  V30 7201 H 694.849 0.995825 4.49911 0
M  V30 7202 H 693.164 0.744767 4.09685 0
M  V30 7203 H 695.761 -1.88448 5.00391 0
M  V30 7204 H 696.104 -2.42959 3.38048 0
M  V30 7205 H 696.637 -0.810467 3.89456 0
M  V30 7206 H 693.376 0.62718 6.52493 0
M  V30 7207 H 692.896 -0.974379 5.91833 0
M  V30 7208 H 694.575 -0.67922 6.43425 0
M  V30 7209 N 694.707 -1.5719 -0.113559 0
M  V30 7210 C 695.932 -1.89702 -0.838336 0
M  V30 7211 C 696.357 -0.752679 -1.72384 0
M  V30 7212 O 695.715 0.296575 -1.78858 0
M  V30 7213 C 695.763 -3.20989 -1.64312 0
M  V30 7214 O 694.867 -3.07278 -2.75053 0
M  V30 7215 H 694.208 -0.622339 -0.231496 0
M  V30 7216 H 696.738 -2.04382 -0.0943228 0
M  V30 7217 H 696.748 -3.53843 -2.03123 0
M  V30 7218 H 695.423 -4.03869 -0.993119 0
M  V30 7219 H 694 -2.85901 -2.39406 0
M  V30 7220 N 696.185 0.383891 -1.52853 0
M  V30 7221 C 697.431 1.13009 -1.68395 0
M  V30 7222 C 697.764 1.89488 -0.425195 0
M  V30 7223 O 697.039 1.8574 0.577136 0
M  V30 7224 C 697.322 2.10419 -2.92226 0
M  V30 7225 C 697.175 1.3767 -4.28214 0
M  V30 7226 C 698.494 3.10781 -3.11614 0
M  V30 7227 H 695.613 0.409463 -0.612788 0
M  V30 7228 H 698.255 0.412895 -1.85459 0
M  V30 7229 H 696.405 2.71579 -2.77808 0
M  V30 7230 H 698.077 0.794352 -4.54409 0
M  V30 7231 H 696.32 0.678533 -4.2846 0
M  V30 7232 H 696.991 2.08874 -5.10956 0
M  V30 7233 H 699.467 2.59715 -3.25096 0
M  V30 7234 H 698.343 3.76179 -3.99725 0
M  V30 7235 H 698.604 3.79933 -2.2606 0
M  V30 7236 N 697.663 1.43903 0.642637 0
M  V30 7237 C 698.596 1.44339 1.76753 0
M  V30 7238 C 699.574 0.303558 1.59741 0
M  V30 7239 O 700.758 0.498775 1.81781 0
M  V30 7240 C 697.885 1.26508 3.14187 0
M  V30 7241 C 696.931 2.43905 3.49875 0
M  V30 7242 S 697.764 4.0645 3.48653 0
M  V30 7243 C 698.92 3.91021 4.88726 0
M  V30 7244 H 699.153 2.39523 1.76113 0
M  V30 7245 H 696.686 1.31061 0.81623 0
M  V30 7246 H 698.644 1.16908 3.93501 0
M  V30 7247 H 697.305 0.328548 3.12377 0
M  V30 7248 H 696.498 2.27262 4.49853 0
M  V30 7249 H 696.1 2.50186 2.77998 0
M  V30 7250 H 698.392 3.54 5.77659 0
M  V30 7251 H 699.335 4.9079 5.10423 0
M  V30 7252 H 699.743 3.23287 4.62759 0
M  V30 7253 N 699.141 -0.881989 1.30609 0
M  V30 7254 C 700.389 -1.63082 1.19368 0
M  V30 7255 C 700.71 -1.93376 -0.251147 0
M  V30 7256 O 699.98 -1.5723 -1.16857 0
M  V30 7257 H 698.56 -0.604542 0.438791 0
M  V30 7258 H 701.222 -1.05658 1.63776 0
M  V30 7259 H 700.318 -2.57966 1.7567 0
M  V30 7260 N 700.619 -1.13374 -1.09472 0
M  V30 7261 C 701.867 -0.893422 -1.8128 0
M  V30 7262 C 702.188 0.582029 -1.86111 0
M  V30 7263 O 701.458 1.42305 -1.34633 0
M  V30 7264 H 700.038 -0.327543 -0.67136 0
M  V30 7265 H 702.7 -1.43018 -1.32408 0
M  V30 7266 H 701.796 -1.28374 -2.84476 0
M  V30 7267 N 702.098 1.27442 -0.927168 0
M  V30 7268 C 703.008 2.30599 -0.431448 0
M  V30 7269 C 704.024 1.67028 0.48761 0
M  V30 7270 O 705.2 1.97962 0.370546 0
M  V30 7271 C 702.265 3.45327 0.308292 0
M  V30 7272 C 701.326 4.24418 -0.645615 0
M  V30 7273 C 700.559 5.33667 0.0589164 0
M  V30 7274 O 700.782 5.5589 1.27838 0
M  V30 7275 O 699.716 5.98774 -0.612638 0
M  V30 7276 H 703.542 2.75036 -1.28797 0
M  V30 7277 H 701.127 1.32382 -0.692495 0
M  V30 7278 H 703.009 4.15107 0.725555 0
M  V30 7279 H 701.684 3.02945 1.14043 0
M  V30 7280 H 700.591 3.57174 -1.11255 0
M  V30 7281 H 701.924 4.70512 -1.44496 0
M  V30 7282 N 703.576 0.692616 1.41565 0
M  V30 7283 C 704.508 -0.0137132 2.29196 0
M  V30 7284 C 705.521 -0.747417 1.44629 0
M  V30 7285 O 706.71 -0.598611 1.68163 0
M  V30 7286 C 703.81 -1.04347 3.22436 0
M  V30 7287 C 702.983 -0.379985 4.35746 0
M  V30 7288 C 702.042 -1.31195 5.09583 0
M  V30 7289 O 701.068 -0.805455 5.63472 0
M  V30 7290 N 702.27 -2.64443 5.16769 0
M  V30 7291 H 705.035 0.738614 2.90456 0
M  V30 7292 H 702.596 0.538415 1.52685 0
M  V30 7293 H 704.588 -1.6686 3.687 0
M  V30 7294 H 703.158 -1.69736 2.62504 0
M  V30 7295 H 702.378 0.424975 3.91903 0
M  V30 7296 H 703.666 0.0814904 5.08735 0
M  V30 7297 H 703.064 -3.08114 4.74428 0
M  V30 7298 H 701.621 -3.22159 5.66619 0
M  V30 7299 N 705.054 -1.51416 0.437162 0
M  V30 7300 C 706.017 -2.26312 -0.362729 0
M  V30 7301 C 707.017 -1.29748 -0.949847 0
M  V30 7302 O 708.207 -1.53462 -0.824325 0
M  V30 7303 C 705.339 -3.05475 -1.5132 0
M  V30 7304 H 706.532 -2.98459 0.29365 0
M  V30 7305 H 704.085 -1.55137 0.190327 0
M  V30 7306 H 704.82 -2.37744 -2.20563 0
M  V30 7307 H 704.605 -3.76401 -1.09838 0
M  V30 7308 H 706.095 -3.62209 -2.07833 0
M  V30 7309 N 706.532 -0.168513 -1.56696 0
M  V30 7310 C 707.495 0.748928 -2.16619 0
M  V30 7311 C 708.495 1.16007 -1.11351 0
M  V30 7312 O 709.685 1.07748 -1.3688 0
M  V30 7313 C 706.817 2.01904 -2.74677 0
M  V30 7314 H 708.01 0.227317 -2.99037 0
M  V30 7315 H 705.563 0.0810372 -1.5609 0
M  V30 7316 H 706.298 2.58381 -1.95985 0
M  V30 7317 H 706.083 1.73323 -3.51712 0
M  V30 7318 H 707.573 2.67383 -3.20774 0
M  V30 7319 N 708.01 1.57248 0.105221 0
M  V30 7320 C 708.958 2.02337 1.14728 0
M  V30 7321 C 709.952 0.922652 1.42069 0
M  V30 7322 O 711.158 1.10785 1.41869 0
M  V30 7323 H 707.533 0.644682 0.387155 0
M  V30 7324 H 709.504 2.89063 0.740607 0
M  V30 7325 C 708.253 2.45513 2.46209 0
M  V30 7326 H 707.576 3.29785 2.26013 0
M  V30 7327 H 709.016 2.80846 3.1765 0
M  V30 7328 C 707.475 1.3243 3.09781 0
M  V30 7329 O 708.005 0.647841 3.96442 0
M  V30 7330 N 706.211 1.07785 2.69872 0
M  V30 7331 H 705.758 1.62973 1.99493 0
M  V30 7332 H 705.716 0.323204 3.12734 0
M  V30 7333 N 709.488 -0.375779 1.53054 0
M  V30 7334 C 710.734 -1.12114 1.68992 0
M  V30 7335 C 711.067 -1.8926 0.435238 0
M  V30 7336 O 710.342 -1.86044 -0.567278 0
M  V30 7337 C 710.625 -2.08867 2.93337 0
M  V30 7338 C 710.478 -1.35397 4.28938 0
M  V30 7339 C 711.797 -3.09124 3.13257 0
M  V30 7340 H 708.916 -0.406207 0.614951 0
M  V30 7341 H 711.558 -0.403054 1.85676 0
M  V30 7342 H 709.708 -2.70102 2.79244 0
M  V30 7343 H 711.38 -0.770242 4.54824 0
M  V30 7344 H 709.623 -0.655801 4.28814 0
M  V30 7345 H 710.294 -2.06161 5.12056 0
M  V30 7346 H 712.77 -2.57987 3.26469 0
M  V30 7347 H 711.646 -3.74054 4.01715 0
M  V30 7348 H 711.907 -3.78729 2.28072 0
M  V30 7349 N 710.966 -1.44241 -0.634997 0
M  V30 7350 C 711.896 -1.53632 -1.7584 0
M  V30 7351 C 712.877 -0.389603 -1.65578 0
M  V30 7352 O 714.062 -0.609219 -1.84397 0
M  V30 7353 C 711.192 -1.47644 -3.14354 0
M  V30 7354 C 710.146 -2.60752 -3.394 0
M  V30 7355 C 709.472 -2.39817 -4.77904 0
M  V30 7356 C 710.772 -4.02921 -3.32343 0
M  V30 7357 H 712.466 -2.47662 -1.68238 0
M  V30 7358 H 710.012 -1.19197 -0.807969 0
M  V30 7359 H 711.965 -1.52815 -3.92716 0
M  V30 7360 H 710.689 -0.501284 -3.2273 0
M  V30 7361 H 709.348 -2.54965 -2.63417 0
M  V30 7362 H 708.996 -1.40502 -4.82978 0
M  V30 7363 H 708.696 -3.15649 -4.9562 0
M  V30 7364 H 710.22 -2.46799 -5.585 0
M  V30 7365 H 711.634 -4.10098 -4.00615 0
M  V30 7366 H 710.031 -4.78925 -3.61595 0
M  V30 7367 H 711.101 -4.26766 -2.30215 0
M  V30 7368 N 712.444 0.87505 -1.31075 0
M  V30 7369 C 713.407 1.96333 -1.18263 0
M  V30 7370 C 714.407 1.60416 -0.111106 0
M  V30 7371 O 715.597 1.7044 -0.359987 0
M  V30 7372 C 712.729 3.31036 -0.81414 0
M  V30 7373 H 713.922 2.09125 -2.14958 0
M  V30 7374 H 711.475 1.06271 -1.14614 0
M  V30 7375 H 712.21 3.23944 0.151875 0
M  V30 7376 H 711.995 3.58476 -1.58862 0
M  V30 7377 H 713.485 4.10842 -0.748249 0
M  V30 7378 N 713.922 1.13953 1.08869 0
M  V30 7379 C 715.15 0.92817 1.84912 0
M  V30 7380 C 715.565 -0.523197 1.81406 0
M  V30 7381 O 714.922 -1.36237 1.21432 0
M  V30 7382 C 714.973 1.41509 3.32652 0
M  V30 7383 O 714.694 2.80959 3.36145 0
M  V30 7384 C 716.195 1.243 4.25517 0
M  V30 7385 H 713.415 0.330612 0.583898 0
M  V30 7386 H 715.959 1.51349 1.37527 0
M  V30 7387 H 714.114 0.872648 3.77444 0
M  V30 7388 H 714.528 3.02704 4.28335 0
M  V30 7389 H 716.002 1.63237 5.27312 0
M  V30 7390 H 716.479 0.18532 4.38809 0
M  V30 7391 H 717.085 1.77375 3.86546 0
M  V30 7392 N 715.4 -1.26948 0.933913 0
M  V30 7393 C 716.649 -1.93378 0.573409 0
M  V30 7394 C 716.962 -1.74148 -0.890614 0
M  V30 7395 O 718.168 -2.34971 -1.36017 0
M  V30 7396 C 716.624 -3.46449 0.974747 0
M  V30 7397 C 716.232 -3.74425 2.45988 0
M  V30 7398 C 717.976 -4.18924 0.685791 0
M  V30 7399 C 715.883 -5.209 2.8003 0
M  V30 7400 H 714.813 -0.723952 0.210736 0
M  V30 7401 H 717.464 -1.44143 1.13557 0
M  V30 7402 H 715.846 -3.94528 0.341181 0
M  V30 7403 H 717.02 -3.37079 3.14188 0
M  V30 7404 H 715.335 -3.15167 2.72138 0
M  V30 7405 H 717.932 -5.26786 0.916546 0
M  V30 7406 H 718.275 -4.14587 -0.377217 0
M  V30 7407 H 718.808 -3.76687 1.27874 0
M  V30 7408 H 715.547 -5.30332 3.85264 0
M  V30 7409 H 715.067 -5.59369 2.16485 0
M  V30 7410 H 716.746 -5.88837 2.68105 0
M  V30 7411 N 716.879 -0.700114 -1.41195 0
M  V30 7412 C 718.107 -0.242179 -2.05478 0
M  V30 7413 C 718.522 1.11029 -1.52702 0
M  V30 7414 O 717.879 1.69473 -0.677127 0
M  V30 7415 C 717.93 -0.196271 -3.60967 0
M  V30 7416 O 717.651 -1.49532 -4.11791 0
M  V30 7417 C 719.152 0.282102 -4.42401 0
M  V30 7418 H 716.372 -0.111749 -0.661629 0
M  V30 7419 H 718.916 -0.953975 -1.80885 0
M  V30 7420 H 717.071 0.46638 -3.84582 0
M  V30 7421 H 717.485 -1.38545 -5.05871 0
M  V30 7422 H 718.959 0.263093 -5.51373 0
M  V30 7423 H 719.436 1.32174 -4.1884 0
M  V30 7424 H 720.042 -0.349712 -4.2386 0
M  V30 7425 N 718.357 1.51182 -0.445186 0
M  V30 7426 C 719.304 2.27939 0.362291 0
M  V30 7427 C 720.274 1.31864 1.01 0
M  V30 7428 O 721.459 1.60776 1.02741 0
M  V30 7429 C 718.599 3.13016 1.45311 0
M  V30 7430 C 717.712 4.24093 0.822757 0
M  V30 7431 C 716.847 4.96467 1.88928 0
M  V30 7432 C 715.886 5.99454 1.23778 0
M  V30 7433 N 715.023 6.65206 2.24602 0
M  V30 7434 H 719.863 2.965 -0.29862 0
M  V30 7435 H 717.4 1.46237 -0.15911 0
M  V30 7436 H 719.358 3.60673 2.09692 0
M  V30 7437 H 717.988 2.46553 2.08354 0
M  V30 7438 H 717.04 3.80341 0.0670364 0
M  V30 7439 H 718.352 4.97853 0.307184 0
M  V30 7440 H 717.506 5.47712 2.60953 0
M  V30 7441 H 716.245 4.22355 2.4386 0
M  V30 7442 H 715.25 5.47494 0.503042 0
M  V30 7443 H 716.475 6.75527 0.695694 0
M  V30 7444 H 714.421 5.93901 2.78599 0
M  V30 7445 H 714.338 7.34756 1.77958 0
M  V30 7446 H 715.606 7.21078 2.96085 0
M  V30 7447 N 719.835 0.176821 1.56605 0
M  V30 7448 C 721.112 -0.513365 1.88743 0
M  V30 7449 C 721.492 -1.80929 1.08757 0
M  V30 7450 O 720.84 -2.27765 0.183127 0
M  V30 7451 C 721.05 -0.749925 3.40848 0
M  V30 7452 C 722.398 -1.07747 4.10701 0
M  V30 7453 O 723.422 -0.838277 3.46196 0
M  V30 7454 O 722.281 -1.52901 5.24675 0
M  V30 7455 H 719.375 -0.265296 0.783292 0
M  V30 7456 H 721.921 0.215669 1.68324 0
M  V30 7457 H 720.693 0.16599 3.90948 0
M  V30 7458 H 720.316 -1.53208 3.66897 0
M  V30 7459 N 721.313 -1.57302 -0.09688 0
M  V30 7460 C 722.245 -1.98618 -1.14384 0
M  V30 7461 C 723.258 -0.888483 -1.36418 0
M  V30 7462 O 724.447 -1.16661 -1.35101 0
M  V30 7463 C 721.547 -2.28838 -2.49973 0
M  V30 7464 C 720.72 -3.60132 -2.48241 0
M  V30 7465 C 719.779 -3.7831 -3.65743 0
M  V30 7466 O 718.805 -4.50183 -3.48316 0
M  V30 7467 N 720.007 -3.18752 -4.85157 0
M  V30 7468 H 722.772 -2.8904 -0.792202 0
M  V30 7469 H 720.333 -1.59356 -0.285883 0
M  V30 7470 H 722.325 -2.38193 -3.27179 0
M  V30 7471 H 720.895 -1.44431 -2.77233 0
M  V30 7472 H 720.115 -3.61763 -1.56593 0
M  V30 7473 H 721.403 -4.46389 -2.4416 0
M  V30 7474 H 720.801 -2.60368 -5.0222 0
M  V30 7475 H 719.358 -3.33595 -5.59962 0
M  V30 7476 N 722.791 0.367657 -1.53252 0
M  V30 7477 C 724.207 0.709191 -1.42978 0
M  V30 7478 C 724.407 1.93352 -0.567193 0
M  V30 7479 O 723.463 2.52453 -0.0488349 0
M  V30 7480 C 724.776 0.924338 -2.86141 0
M  V30 7481 C 726.324 1.02448 -2.95759 0
M  V30 7482 C 726.799 1.27211 -4.39979 0
M  V30 7483 N 728.29 1.33986 -4.43398 0
M  V30 7484 C 729.025 1.54852 -5.52095 0
M  V30 7485 N 728.521 1.73049 -6.7084 0
M  V30 7486 N 730.314 1.57205 -5.39669 0
M  V30 7487 H 722.465 -0.437669 -2.07842 0
M  V30 7488 H 724.728 -0.133737 -0.938519 0
M  V30 7489 H 724.434 0.0965455 -3.51567 0
M  V30 7490 H 724.308 1.83302 -3.29667 0
M  V30 7491 H 726.695 1.84282 -2.30487 0
M  V30 7492 H 726.776 0.0932301 -2.5563 0
M  V30 7493 H 726.42 0.458792 -5.05824 0
M  V30 7494 H 726.35 2.21654 -4.77679 0
M  V30 7495 H 728.841 1.21545 -3.5782 0
M  V30 7496 H 729.154 1.88538 -7.49449 0
M  V30 7497 H 727.499 1.70231 -6.7383 0
M  V30 7498 H 730.69 1.42555 -4.45865 0
M  V30 7499 H 730.863 1.73126 -6.24445 0
M  V30 7500 N 724.269 1.44576 0.627338 0
M  V30 7501 C 725.232 1.51372 1.72102 0
M  V30 7502 C 726.232 0.395329 1.55865 0
M  V30 7503 O 727.422 0.658094 1.61291 0
M  V30 7504 C 724.554 1.39129 3.11217 0
M  V30 7505 H 725.747 2.48798 1.6745 0
M  V30 7506 H 723.3 1.31724 0.841336 0
M  V30 7507 H 724.035 0.428114 3.21462 0
M  V30 7508 H 723.82 2.20229 3.24409 0
M  V30 7509 H 725.31 1.46874 3.90919 0
M  V30 7510 N 725.747 -0.868086 1.31537 0
M  V30 7511 C 727.163 -1.15414 1.10235 0
M  V30 7512 C 727.363 -2.01106 -0.125947 0
M  V30 7513 O 726.419 -2.38994 -0.814734 0
M  V30 7514 C 727.732 -1.84445 2.37488 0
M  V30 7515 C 729.28 -1.97139 2.43116 0
M  V30 7516 C 729.755 -2.69585 3.70254 0
M  V30 7517 N 731.246 -2.77119 3.71159 0
M  V30 7518 C 731.981 -3.33791 4.6623 0
M  V30 7519 N 731.477 -3.9138 5.71659 0
M  V30 7520 N 733.27 -3.31767 4.53747 0
M  V30 7521 H 725.421 -0.297109 2.10312 0
M  V30 7522 H 727.684 -0.194227 0.92789 0
M  V30 7523 H 727.39 -1.2893 3.27215 0
M  V30 7524 H 727.264 -2.84709 2.47428 0
M  V30 7525 H 729.651 -2.51818 1.53856 0
M  V30 7526 H 729.732 -0.95912 2.37138 0
M  V30 7527 H 729.376 -2.15572 4.59881 0
M  V30 7528 H 729.306 -3.71223 3.73499 0
M  V30 7529 H 731.797 -2.3625 2.94948 0
M  V30 7530 H 732.11 -4.3274 6.40278 0
M  V30 7531 H 730.455 -3.8975 5.7543 0
M  V30 7532 H 733.646 -2.86016 3.70557 0
M  V30 7533 H 733.819 -3.75636 5.28017 0
M  V30 7534 N 727.225 -1.14528 -1.08264 0
M  V30 7535 C 728.135 -0.84728 -2.18765 0
M  V30 7536 C 729.151 0.172826 -1.7314 0
M  V30 7537 O 730.327 0.000985336 -2.014 0
M  V30 7538 C 727.392 -0.330633 -3.4512 0
M  V30 7539 C 726.453 -1.41348 -4.05363 0
M  V30 7540 C 725.686 -0.921387 -5.25686 0
M  V30 7541 O 725.909 0.236587 -5.69909 0
M  V30 7542 O 724.843 -1.70101 -5.77364 0
M  V30 7543 H 728.669 -1.7708 -2.46731 0
M  V30 7544 H 726.254 -0.923661 -1.17426 0
M  V30 7545 H 728.136 -0.0485053 -4.21372 0
M  V30 7546 H 726.811 0.565147 -3.18728 0
M  V30 7547 H 725.718 -1.74908 -3.30693 0
M  V30 7548 H 727.051 -2.28383 -4.36007 0
M  V30 7549 N 728.703 1.26451 -0.940633 0
M  V30 7550 C 729.951 1.93395 -0.586748 0
M  V30 7551 C 730.272 1.7417 0.876921 0
M  V30 7552 O 729.542 1.097 1.62304 0
M  V30 7553 H 728.122 0.715687 -0.214012 0
M  V30 7554 H 730.784 1.53902 -1.19584 0
M  V30 7555 H 729.88 3.01565 -0.804059 0
M  V30 7556 N 730.181 0.707592 1.40822 0
M  V30 7557 C 731.128 0.0499029 2.30746 0
M  V30 7558 C 732.098 -0.758718 1.47759 0
M  V30 7559 O 733.283 -0.724299 1.76518 0
M  V30 7560 C 730.423 -0.871756 3.33908 0
M  V30 7561 C 729.536 -0.0534655 4.31967 0
M  V30 7562 C 728.671 -0.973869 5.22197 0
M  V30 7563 C 727.71 -0.149194 6.11918 0
M  V30 7564 N 726.847 -1.02404 6.94592 0
M  V30 7565 H 731.687 0.822461 2.86426 0
M  V30 7566 H 729.224 0.417285 1.41057 0
M  V30 7567 H 731.182 -1.42028 3.9228 0
M  V30 7568 H 729.812 -1.61058 2.7975 0
M  V30 7569 H 728.864 0.612142 3.75442 0
M  V30 7570 H 730.176 0.585354 4.95353 0
M  V30 7571 H 729.33 -1.59121 5.85462 0
M  V30 7572 H 728.069 -1.64652 4.59065 0
M  V30 7573 H 727.074 0.481137 5.47691 0
M  V30 7574 H 728.299 0.519841 6.77107 0
M  V30 7575 H 726.245 -1.6825 6.34057 0
M  V30 7576 H 726.162 -0.441076 7.54712 0
M  V30 7577 H 727.43 -1.62782 7.62314 0
M  V30 7578 N 731.66 -1.50943 0.453197 0
M  V30 7579 C 732.592 -2.25922 -0.38623 0
M  V30 7580 C 733.605 -1.3055 -0.972652 0
M  V30 7581 O 734.794 -1.56191 -0.864097 0
M  V30 7582 C 731.894 -3.01176 -1.5539 0
M  V30 7583 C 731.067 -4.23768 -1.0835 0
M  V30 7584 C 730.126 -4.81466 -2.12313 0
M  V30 7585 O 729.152 -5.42875 -1.71101 0
M  V30 7586 N 730.354 -4.66889 -3.44956 0
M  V30 7587 H 733.119 -2.98601 0.256468 0
M  V30 7588 H 730.68 -1.59408 0.282965 0
M  V30 7589 H 732.672 -3.36659 -2.24594 0
M  V30 7590 H 731.242 -2.31409 -2.10163 0
M  V30 7591 H 730.462 -3.93597 -0.217961 0
M  V30 7592 H 731.75 -5.03289 -0.746857 0
M  V30 7593 H 731.148 -4.18011 -3.81161 0
M  V30 7594 H 729.705 -5.06691 -4.1001 0
M  V30 7595 N 733.138 -0.185124 -1.56509 0
M  V30 7596 C 734.385 0.456258 -1.97293 0
M  V30 7597 C 734.713 1.62314 -1.07165 0
M  V30 7598 O 733.968 1.95398 -0.108621 0
M  V30 7599 C 734.267 0.967977 -3.44042 0
M  V30 7600 C 733.933 -0.084476 -4.50821 0
M  V30 7601 C 732.595 -0.373689 -4.79747 0
M  V30 7602 C 734.947 -0.79812 -5.15053 0
M  V30 7603 C 732.275 -1.3817 -5.70198 0
M  V30 7604 C 734.627 -1.79521 -6.06593 0
M  V30 7605 C 733.291 -2.09172 -6.3388 0
M  V30 7606 H 732.561 0.166957 -0.721946 0
M  V30 7607 H 735.208 -0.279992 -1.89442 0
M  V30 7608 H 733.513 1.78231 -3.48914 0
M  V30 7609 H 735.21 1.47347 -3.72948 0
M  V30 7610 H 731.8 0.15111 -4.28334 0
M  V30 7611 H 735.984 -0.587903 -4.92806 0
M  V30 7612 H 731.24 -1.61745 -5.89617 0
M  V30 7613 H 735.414 -2.35347 -6.55427 0
M  V30 7614 H 733.041 -2.87427 -7.03768 0
M  V30 7615 N 734.616 1.57351 0.0885366 0
M  V30 7616 C 735.841 1.91011 0.80805 0
M  V30 7617 C 736.266 0.780009 1.71165 0
M  V30 7618 O 735.624 -0.268083 1.79307 0
M  V30 7619 C 735.672 3.23562 1.59185 0
M  V30 7620 O 734.776 3.11615 2.7013 0
M  V30 7621 H 734.117 0.625943 0.221565 0
M  V30 7622 H 736.647 2.04507 0.0617954 0
M  V30 7623 H 736.657 3.5703 1.97468 0
M  V30 7624 H 735.332 4.05398 0.928741 0
M  V30 7625 H 733.909 2.89673 2.34827 0
M  V30 7626 N 736.094 -0.359525 1.53444 0
M  V30 7627 C 737.319 -1.12644 1.74144 0
M  V30 7628 C 737.744 -1.82082 0.472007 0
M  V30 7629 O 737.102 -1.71962 -0.57436 0
M  V30 7630 C 737.15 -2.12781 2.9113 0
M  V30 7631 O 736.254 -3.19984 2.60162 0
M  V30 7632 H 735.595 -0.326553 0.578152 0
M  V30 7633 H 738.125 -0.414798 2.00351 0
M  V30 7634 H 738.135 -2.56278 3.17467 0
M  V30 7635 H 736.81 -1.61634 3.83207 0
M  V30 7636 H 735.387 -2.81417 2.44661 0
M  V30 7637 N 737.572 -1.44907 -0.619662 0
M  V30 7638 C 738.535 -1.52282 -1.71297 0
M  V30 7639 C 739.535 -0.40359 -1.55653 0
M  V30 7640 O 740.725 -0.666638 -1.6094 0
M  V30 7641 C 737.857 -1.40778 -3.10474 0
M  V30 7642 H 739.05 -2.49683 -1.66128 0
M  V30 7643 H 736.603 -1.32168 -0.834339 0
M  V30 7644 H 737.338 -0.445156 -3.2123 0
M  V30 7645 H 737.123 -2.21947 -3.23237 0
M  V30 7646 H 738.613 -1.48946 -3.90135 0
M  V30 7647 N 739.05 0.861098 -1.31996 0
M  V30 7648 C 740.327 1.59788 -1.12814 0
M  V30 7649 C 740.707 2.08753 0.313882 0
M  V30 7650 O 740.055 1.87258 1.30946 0
M  V30 7651 C 740.265 2.74901 -2.15012 0
M  V30 7652 C 741.613 3.44643 -2.48004 0
M  V30 7653 O 742.637 2.85119 -2.13508 0
M  V30 7654 O 741.496 4.52044 -3.07113 0
M  V30 7655 H 738.59 0.703408 -0.434909 0
M  V30 7656 H 741.136 0.905788 -1.43505 0
M  V30 7657 H 739.908 2.36198 -3.11971 0
M  V30 7658 H 739.531 3.51792 -1.85279 0
M  V30 7659 N 740.528 1.15101 1.07655 0
M  V30 7660 C 741.438 0.858869 2.18313 0
M  V30 7661 C 742.454 -0.163641 1.73229 0
M  V30 7662 O 743.63 0.00969541 2.01398 0
M  V30 7663 C 740.695 0.34893 3.4494 0
M  V30 7664 C 739.756 1.43495 4.04608 0
M  V30 7665 C 738.989 0.949253 5.2519 0
M  V30 7666 O 739.212 -0.20636 5.70027 0
M  V30 7667 O 738.146 1.73161 5.76454 0
M  V30 7668 H 741.972 1.78386 2.45788 0
M  V30 7669 H 739.557 0.929876 1.16934 0
M  V30 7670 H 741.439 0.070851 4.2134 0
M  V30 7671 H 740.114 -0.548237 3.19024 0
M  V30 7672 H 739.021 1.7666 3.29761 0
M  V30 7673 H 740.354 2.30692 4.3479 0
M  V30 7674 N 742.006 -1.2595 0.947325 0
M  V30 7675 C 742.969 -2.24407 0.466285 0
M  V30 7676 C 743.969 -1.55054 -0.426005 0
M  V30 7677 O 745.159 -1.7275 -0.224319 0
M  V30 7678 C 742.291 -3.39326 -0.327201 0
M  V30 7679 H 743.484 -2.68477 1.33642 0
M  V30 7680 H 741.037 -1.38211 0.729887 0
M  V30 7681 H 741.772 -3.00667 -1.21532 0
M  V30 7682 H 741.557 -3.9085 0.312839 0
M  V30 7683 H 743.047 -4.12455 -0.653477 0
M  V30 7684 N 743.484 -0.715051 -1.40445 0
M  V30 7685 C 744.447 -0.0708726 -2.2909 0
M  V30 7686 C 745.447 0.687926 -1.45342 0
M  V30 7687 O 746.637 0.519908 -1.66261 0
M  V30 7688 C 743.769 0.909528 -3.28543 0
M  V30 7689 H 744.962 -0.851611 -2.87555 0
M  V30 7690 H 742.515 -0.479674 -1.48758 0
M  V30 7691 H 743.25 1.71734 -2.75096 0
M  V30 7692 H 743.035 0.368318 -3.90366 0
M  V30 7693 H 744.525 1.35744 -3.94922 0
M  V30 7694 N 744.962 1.50701 -0.461195 0
M  V30 7695 C 745.892 2.31182 0.328184 0
M  V30 7696 C 746.873 1.37644 0.999408 0
M  V30 7697 O 748.058 1.66565 0.99848 0
M  V30 7698 C 745.188 3.17113 1.41621 0
M  V30 7699 C 744.142 4.19124 0.867148 0
M  V30 7700 C 743.468 4.93728 2.05272 0
M  V30 7701 C 744.768 5.22174 -0.114808 0
M  V30 7702 H 746.462 2.97423 -0.343501 0
M  V30 7703 H 744.008 1.43033 -0.166641 0
M  V30 7704 H 745.961 3.72208 1.97584 0
M  V30 7705 H 744.685 2.48739 2.11652 0
M  V30 7706 H 743.344 3.65116 0.329557 0
M  V30 7707 H 742.992 4.21835 2.73978 0
M  V30 7708 H 742.692 5.62724 1.69161 0
M  V30 7709 H 744.216 5.51654 2.61744 0
M  V30 7710 H 745.63 5.72198 0.355316 0
M  V30 7711 H 744.027 5.98833 -0.389689 0
M  V30 7712 H 745.097 4.7353 -1.04391 0
M  V30 7713 N 746.441 0.193421 1.56409 0
M  V30 7714 C 747.388 -0.728124 2.19014 0
M  V30 7715 C 748.358 -1.21098 1.13686 0
M  V30 7716 O 749.543 -1.27517 1.4193 0
M  V30 7717 C 746.683 -1.94277 2.8522 0
M  V30 7718 C 745.796 -1.50143 4.05069 0
M  V30 7719 C 744.931 -2.67145 4.59137 0
M  V30 7720 C 743.97 -2.19609 5.71348 0
M  V30 7721 N 743.107 -3.29782 6.19829 0
M  V30 7722 H 747.947 -0.187499 2.9741 0
M  V30 7723 H 745.484 -0.0808064 1.46878 0
M  V30 7724 H 747.442 -2.65551 3.21774 0
M  V30 7725 H 746.072 -2.45673 2.09391 0
M  V30 7726 H 745.124 -0.684624 3.74189 0
M  V30 7727 H 746.436 -1.11266 4.86232 0
M  V30 7728 H 745.59 -3.46544 4.97988 0
M  V30 7729 H 744.329 -3.09295 3.77078 0
M  V30 7730 H 743.334 -1.38664 5.32027 0
M  V30 7731 H 744.559 -1.78492 6.55223 0
M  V30 7732 H 742.505 -3.71466 5.40693 0
M  V30 7733 H 742.422 -2.95069 6.96039 0
M  V30 7734 H 743.69 -4.094 6.63334 0
M  V30 7735 N 747.919 -1.57396 -0.0801906 0
M  V30 7736 C 748.829 -2.06451 -1.11423 0
M  V30 7737 C 749.845 -0.992352 -1.42928 0
M  V30 7738 O 751.021 -1.30651 -1.53272 0
M  V30 7739 C 748.086 -2.49164 -2.41077 0
M  V30 7740 C 747.147 -3.70641 -2.16619 0
M  V30 7741 C 746.38 -4.11307 -3.40092 0
M  V30 7742 O 746.603 -3.51922 -4.48895 0
M  V30 7743 O 745.537 -5.04157 -3.288 0
M  V30 7744 H 749.363 -2.94857 -0.727519 0
M  V30 7745 H 746.948 -1.46484 -0.293743 0
M  V30 7746 H 748.83 -2.77196 -3.17396 0
M  V30 7747 H 747.505 -1.6389 -2.79145 0
M  V30 7748 H 746.412 -3.47703 -1.38033 0
M  V30 7749 H 747.745 -4.5674 -1.83437 0
M  V30 7750 N 749.397 0.351382 -1.53633 0
M  V30 7751 C 750.808 0.927429 -1.62036 0
M  V30 7752 C 751.159 1.89809 -0.496706 0
M  V30 7753 O 750.284 2.1313 0.374749 0
M  V30 7754 C 750.879 1.68886 -2.93706 0
M  V30 7755 C 749.438 2.21404 -3.04397 0
M  V30 7756 C 748.585 1.03075 -2.57431 0
M  V30 7757 H 751.536 0.129748 -1.58169 0
M  V30 7758 H 751.557 2.55116 -2.82305 0
M  V30 7759 H 751.069 0.982149 -3.75467 0
M  V30 7760 H 749.17 2.95274 -2.27253 0
M  V30 7761 H 749.283 2.48312 -4.09729 0
M  V30 7762 H 747.647 1.40188 -2.12649 0
M  V30 7763 H 748.43 0.338793 -3.41624 0
M  V30 7764 N 750.875 1.45233 0.611969 0
M  V30 7765 C 752.124 1.48296 1.36716 0
M  V30 7766 C 752.437 0.12706 1.95187 0
M  V30 7767 O 753.643 0.0353066 2.71477 0
M  V30 7768 C 752.099 2.61168 2.47627 0
M  V30 7769 C 751.707 4.03051 1.95587 0
M  V30 7770 C 753.451 2.73472 3.24674 0
M  V30 7771 C 751.358 5.07312 3.03954 0
M  V30 7772 H 750.288 0.5518 0.513841 0
M  V30 7773 H 752.939 1.7136 0.656359 0
M  V30 7774 H 751.321 2.31379 3.21372 0
M  V30 7775 H 752.495 4.42497 1.2858 0
M  V30 7776 H 750.81 3.95158 1.31298 0
M  V30 7777 H 753.407 3.48537 4.05494 0
M  V30 7778 H 753.75 1.79953 3.75397 0
M  V30 7779 H 754.283 3.02765 2.58028 0
M  V30 7780 H 751.022 6.02525 2.58154 0
M  V30 7781 H 750.542 4.7244 3.69541 0
M  V30 7782 H 752.221 5.31867 3.6841 0
M  V30 7783 N 752.353 -0.854086 1.3245 0
M  V30 7784 C 753.602 -1.60318 1.22397 0
M  V30 7785 C 753.915 -1.9444 -0.212664 0
M  V30 7786 O 755.121 -2.67991 -0.435066 0
M  V30 7787 C 753.577 -2.8909 2.1437 0
M  V30 7788 C 753.185 -2.62391 3.63119 0
M  V30 7789 C 754.929 -3.67104 2.13155 0
M  V30 7790 C 752.836 -3.87167 4.47052 0
M  V30 7791 H 751.766 -0.601586 0.454544 0
M  V30 7792 H 754.417 -0.943023 1.57415 0
M  V30 7793 H 752.799 -3.56567 1.72268 0
M  V30 7794 H 753.973 -2.03222 4.13567 0
M  V30 7795 H 752.288 -1.97706 3.66471 0
M  V30 7796 H 754.885 -4.59696 2.731 0
M  V30 7797 H 755.228 -4.00876 1.12268 0
M  V30 7798 H 755.761 -3.06533 2.5354 0
M  V30 7799 H 752.5 -3.58536 5.48755 0
M  V30 7800 H 752.02 -4.45729 4.01355 0
M  V30 7801 H 753.699 -4.549 4.60081 0
M  V30 7802 N 753.831 -1.1567 -1.07043 0
M  V30 7803 C 754.778 -0.856336 -2.14326 0
M  V30 7804 C 755.748 0.192051 -1.64986 0
M  V30 7805 O 756.933 0.0589148 -1.90709 0
M  V30 7806 C 754.073 -0.355227 -3.43267 0
M  V30 7807 C 753.186 -1.46555 -4.06381 0
M  V30 7808 C 752.321 -0.920245 -5.23168 0
M  V30 7809 C 751.36 -2.00729 -5.78251 0
M  V30 7810 N 750.497 -1.47813 -6.86364 0
M  V30 7811 H 755.337 -1.77514 -2.39359 0
M  V30 7812 H 752.874 -0.885676 -1.17449 0
M  V30 7813 H 754.832 -0.0463804 -4.17174 0
M  V30 7814 H 753.462 0.526649 -3.18475 0
M  V30 7815 H 752.514 -1.89052 -3.30096 0
M  V30 7816 H 753.826 -2.28616 -4.43324 0
M  V30 7817 H 752.98 -0.564127 -6.04072 0
M  V30 7818 H 751.719 -0.0688477 -4.87651 0
M  V30 7819 H 750.724 -2.3722 -4.95991 0
M  V30 7820 H 751.949 -2.86252 -6.15822 0
M  V30 7821 H 749.895 -0.649145 -6.5278 0
M  V30 7822 H 749.812 -2.23498 -7.22208 0
M  V30 7823 H 751.08 -1.15036 -7.70965 0
M  V30 7824 N 755.309 1.25446 -0.953992 0
M  V30 7825 C 756.256 2.25912 -0.472485 0
M  V30 7826 C 757.226 1.59173 0.47469 0
M  V30 7827 O 758.411 1.86812 0.388082 0
M  V30 7828 C 755.551 3.44235 0.244218 0
M  V30 7829 C 754.664 4.25613 -0.740121 0
M  V30 7830 C 753.799 5.312 -0.000922267 0
M  V30 7831 C 752.838 6.04265 -0.976236 0
M  V30 7832 N 751.975 7.01589 -0.267952 0
M  V30 7833 H 756.815 2.66469 -1.3341 0
M  V30 7834 H 754.352 1.31005 -0.669045 0
M  V30 7835 H 756.31 4.11682 0.676314 0
M  V30 7836 H 754.94 3.04554 1.06988 0
M  V30 7837 H 753.992 3.57834 -1.2907 0
M  V30 7838 H 755.304 4.762 -1.48441 0
M  V30 7839 H 754.458 6.04719 0.48984 0
M  V30 7840 H 753.197 4.81484 0.776159 0
M  V30 7841 H 752.202 5.29561 -1.478 0
M  V30 7842 H 753.427 6.5607 -1.75354 0
M  V30 7843 H 751.373 6.54164 0.490403 0
M  V30 7844 H 751.29 7.4999 -0.951344 0
M  V30 7845 H 752.558 7.7924 0.201294 0
M  V30 7846 N 756.787 0.722489 1.40064 0
M  V30 7847 C 758.034 0.264979 2.00759 0
M  V30 7848 C 758.362 -1.14395 1.57302 0
M  V30 7849 O 757.617 -1.79165 0.787298 0
M  V30 7850 C 757.916 0.300682 3.56133 0
M  V30 7851 C 757.582 1.66087 4.19197 0
M  V30 7852 C 756.244 2.03319 4.36136 0
M  V30 7853 C 758.596 2.55452 4.54306 0
M  V30 7854 C 755.924 3.29448 4.8547 0
M  V30 7855 C 758.276 3.8094 5.05042 0
M  V30 7856 C 756.94 4.1828 5.2019 0
M  V30 7857 H 756.21 0.0969625 0.734629 0
M  V30 7858 H 758.857 0.926877 1.67575 0
M  V30 7859 H 757.162 -0.44479 3.89267 0
M  V30 7860 H 758.859 -0.0712542 4.00937 0
M  V30 7861 H 755.449 1.36137 4.06405 0
M  V30 7862 H 759.633 2.27961 4.40849 0
M  V30 7863 H 754.889 3.58338 4.95382 0
M  V30 7864 H 759.063 4.50351 5.31184 0
M  V30 7865 H 756.69 5.16081 5.58179 0
M  V30 7866 N 758.265 -1.50454 0.469181 0
M  V30 7867 C 759.175 -2.32248 -0.331349 0
M  V30 7868 C 760.191 -1.42548 -0.997807 0
M  V30 7869 O 761.367 -1.75602 -0.9862 0
M  V30 7870 C 758.432 -3.17171 -1.40012 0
M  V30 7871 C 757.493 -4.2269 -0.750463 0
M  V30 7872 C 756.726 -5.03554 -1.76831 0
M  V30 7873 O 756.949 -4.85469 -2.99459 0
M  V30 7874 O 755.883 -5.86767 -1.3412 0
M  V30 7875 H 759.709 -3.01821 0.337279 0
M  V30 7876 H 757.294 -1.47602 0.231066 0
M  V30 7877 H 759.176 -3.69871 -2.01924 0
M  V30 7878 H 757.851 -2.50328 -2.05226 0
M  V30 7879 H 756.758 -3.73986 -0.0924446 0
M  V30 7880 H 758.091 -4.91997 -0.14131 0
M  V30 7881 N 759.743 -0.201713 -1.56304 0
M  V30 7882 C 760.653 0.728296 -2.23009 0
M  V30 7883 C 761.669 1.22945 -1.23128 0
M  V30 7884 O 762.845 1.27523 -1.55884 0
M  V30 7885 C 759.91 1.92792 -2.88153 0
M  V30 7886 C 758.971 1.47068 -4.03323 0
M  V30 7887 C 758.204 2.61312 -4.65351 0
M  V30 7888 O 758.427 3.7896 -4.26317 0
M  V30 7889 O 757.361 2.33646 -5.54701 0
M  V30 7890 H 761.187 0.190166 -3.03104 0
M  V30 7891 H 758.772 0.0278725 -1.49374 0
M  V30 7892 H 760.654 2.6289 -3.29343 0
M  V30 7893 H 759.329 2.45452 -2.11033 0
M  V30 7894 H 758.236 0.738299 -3.66742 0
M  V30 7895 H 759.569 0.990666 -4.82127 0
M  V30 7896 N 761.222 1.57436 0.0718424 0
M  V30 7897 C 762.132 2.07039 1.10326 0
M  V30 7898 C 763.148 0.999918 1.424 0
M  V30 7899 O 764.324 1.31462 1.52577 0
M  V30 7900 C 761.389 2.50439 2.39752 0
M  V30 7901 C 760.45 3.71784 2.14651 0
M  V30 7902 C 759.683 4.13104 3.37906 0
M  V30 7903 O 759.906 3.54298 4.47023 0
M  V30 7904 O 758.84 5.05894 3.26121 0
M  V30 7905 H 762.666 2.95239 0.711872 0
M  V30 7906 H 760.251 1.46638 0.28597 0
M  V30 7907 H 762.133 2.78876 3.15921 0
M  V30 7908 H 760.808 1.65368 2.78271 0
M  V30 7909 H 759.715 3.48431 1.36187 0
M  V30 7910 H 761.048 4.57707 1.81012 0
M  V30 7911 N 762.7 -0.34323 1.53817 0
M  V30 7912 C 763.948 -1.0813 1.70741 0
M  V30 7913 C 764.269 -1.89165 0.473461 0
M  V30 7914 O 763.539 -1.89075 -0.512605 0
M  V30 7915 H 762.119 -0.40219 0.629486 0
M  V30 7916 H 764.781 -0.384426 1.91071 0
M  V30 7917 H 763.877 -1.7585 2.57843 0
M  V30 7918 N 764.178 -1.45556 -0.604258 0
M  V30 7919 C 765.126 -1.5482 -1.7359 0
M  V30 7920 C 766.12 -0.417966 -1.64163 0
M  V30 7921 O 767.326 -0.594007 -1.69916 0
M  V30 7922 H 763.701 -0.486352 -0.573556 0
M  V30 7923 H 765.672 -2.5001 -1.62903 0
M  V30 7924 C 764.421 -1.53521 -3.11972 0
M  V30 7925 H 763.744 -2.39818 -3.19886 0
M  V30 7926 H 765.184 -1.64061 -3.90973 0
M  V30 7927 C 763.643 -0.260191 -3.35894 0
M  V30 7928 O 764.173 0.658582 -3.96265 0
M  V30 7929 N 762.379 -0.154839 -2.90187 0
M  V30 7930 H 761.926 -0.903378 -2.4124 0
M  V30 7931 H 761.884 0.697437 -3.06567 0
M  V30 7932 N 765.656 0.84705 -1.32902 0
M  V30 7933 C 767.067 1.41785 -1.21466 0
M  V30 7934 C 767.418 1.95464 0.169767 0
M  V30 7935 O 766.543 1.88157 1.06892 0
M  V30 7936 C 767.138 2.57734 -2.19906 0
M  V30 7937 C 765.697 3.10791 -2.12334 0
M  V30 7938 C 764.844 1.83562 -2.07847 0
M  V30 7939 H 767.795 0.653532 -1.44619 0
M  V30 7940 H 767.816 3.35123 -1.80202 0
M  V30 7941 H 767.328 2.18635 -3.20656 0
M  V30 7942 H 765.429 3.54455 -1.14858 0
M  V30 7943 H 765.542 3.71519 -3.02506 0
M  V30 7944 H 763.906 2.03475 -1.53199 0
M  V30 7945 H 764.689 1.4667 -3.10392 0
M  V30 7946 N 767.134 1.16236 1.06428 0
M  V30 7947 C 768.364 0.965782 1.82637 0
M  V30 7948 C 768.772 -0.489284 1.82764 0
M  V30 7949 O 768.115 -1.35133 1.24438 0
M  V30 7950 C 768.177 1.41458 3.30499 0
M  V30 7951 C 767.841 2.88926 3.54077 0
M  V30 7952 C 768.838 3.86939 3.47238 0
M  V30 7953 C 766.523 3.26814 3.81442 0
M  V30 7954 C 768.517 5.20841 3.67428 0
M  V30 7955 C 766.204 4.60886 4.01282 0
M  V30 7956 C 767.202 5.57708 3.94272 0
M  V30 7957 O 766.89 6.89357 4.13573 0
M  V30 7958 H 766.622 0.342569 0.582772 0
M  V30 7959 H 769.176 1.54641 1.35187 0
M  V30 7960 H 767.406 0.777426 3.78805 0
M  V30 7961 H 769.095 1.18563 3.88198 0
M  V30 7962 H 769.861 3.59014 3.26089 0
M  V30 7963 H 765.74 2.5203 3.86008 0
M  V30 7964 H 769.284 5.96401 3.61873 0
M  V30 7965 H 765.181 4.88522 4.21921 0
M  V30 7966 H 765.949 6.95913 4.30869 0
M  V30 7967 N 768.612 -1.24939 0.960631 0
M  V30 7968 C 769.842 -1.96595 0.635123 0
M  V30 7969 C 770.25 -1.71538 -0.798206 0
M  V30 7970 O 769.593 -0.991727 -1.5463 0
M  V30 7971 C 769.655 -3.49994 0.821248 0
M  V30 7972 C 769.319 -3.98738 2.23287 0
M  V30 7973 C 770.316 -4.08965 3.21004 0
M  V30 7974 C 768.001 -4.32247 2.55867 0
M  V30 7975 C 769.995 -4.52025 4.49391 0
M  V30 7976 C 767.682 -4.74991 3.84482 0
M  V30 7977 C 768.68 -4.84844 4.81056 0
M  V30 7978 O 768.368 -5.26638 6.07378 0
M  V30 7979 H 768.1 -0.633265 0.23654 0
M  V30 7980 H 770.654 -1.5991 1.28911 0
M  V30 7981 H 768.884 -3.86543 0.110105 0
M  V30 7982 H 770.573 -4.02859 0.495892 0
M  V30 7983 H 771.339 -3.83302 2.97161 0
M  V30 7984 H 767.218 -4.23801 1.81421 0
M  V30 7985 H 770.762 -4.5963 5.24773 0
M  V30 7986 H 766.659 -5.00101 4.08129 0
M  V30 7987 H 767.427 -5.44807 6.10842 0
M  V30 7988 N 770.09 -0.729906 -1.39679 0
M  V30 7989 C 771.315 -0.284345 -2.05442 0
M  V30 7990 C 771.74 1.07056 -1.54663 0
M  V30 7991 O 771.098 1.67732 -0.688157 0
M  V30 7992 C 771.146 -0.290089 -3.59431 0
M  V30 7993 O 770.25 0.723978 -4.05995 0
M  V30 7994 H 769.591 -0.130311 -0.651088 0
M  V30 7995 H 772.121 -0.994403 -1.78809 0
M  V30 7996 H 772.131 -0.132712 -4.07784 0
M  V30 7997 H 770.806 -1.27877 -3.95753 0
M  V30 7998 H 769.383 0.533154 -3.69069 0
M  V30 7999 N 771.568 1.50203 -0.477153 0
M  V30 8000 C 772.793 2.07263 0.0754986 0
M  V30 8001 C 773.218 1.33801 1.32208 0
M  V30 8002 O 772.576 0.387482 1.77111 0
M  V30 8003 C 772.624 3.59028 0.336348 0
M  V30 8004 O 771.728 3.87339 1.4157 0
M  V30 8005 H 771.069 0.663815 -0.015662 0
M  V30 8006 H 773.599 1.93321 -0.669936 0
M  V30 8007 H 773.609 4.03927 0.575034 0
M  V30 8008 H 772.284 4.11912 -0.574551 0
M  V30 8009 H 770.861 3.54272 1.16385 0
M  V30 8010 N 773.046 0.209999 1.56195 0
M  V30 8011 C 774.009 -0.691232 2.18528 0
M  V30 8012 C 775.009 -1.13013 1.14388 0
M  V30 8013 O 776.199 -1.04081 1.39688 0
M  V30 8014 C 773.331 -1.94551 2.79934 0
M  V30 8015 H 774.524 -0.147953 2.99535 0
M  V30 8016 H 772.077 -0.0396243 1.5625 0
M  V30 8017 H 772.812 -2.53094 2.02766 0
M  V30 8018 H 772.597 -1.63938 3.56184 0
M  V30 8019 H 774.087 -2.58785 3.2775 0
M  V30 8020 N 774.524 -1.57472 -0.0634922 0
M  V30 8021 C 775.94 -1.54016 -0.418466 0
M  V30 8022 C 776.14 -0.931376 -1.78683 0
M  V30 8023 O 775.196 -0.537465 -2.46714 0
M  V30 8024 C 776.509 -2.98634 -0.351906 0
M  V30 8025 C 778.057 -3.10012 -0.431494 0
M  V30 8026 C 778.532 -4.56296 -0.394754 0
M  V30 8027 N 780.023 -4.60964 -0.454583 0
M  V30 8028 C 780.758 -5.71643 -0.448501 0
M  V30 8029 N 780.254 -6.91663 -0.396742 0
M  V30 8030 N 782.047 -5.5991 -0.495677 0
M  V30 8031 H 774.198 -1.95409 0.832408 0
M  V30 8032 H 776.461 -0.894769 0.313197 0
M  V30 8033 H 776.167 -3.46766 0.587048 0
M  V30 8034 H 776.041 -3.58955 -1.15893 0
M  V30 8035 H 778.428 -2.61848 -1.36087 0
M  V30 8036 H 778.509 -2.52585 0.404258 0
M  V30 8037 H 778.153 -5.05119 0.530811 0
M  V30 8038 H 778.083 -5.11594 -1.24815 0
M  V30 8039 H 780.574 -3.74598 -0.498496 0
M  V30 8040 H 780.887 -7.71783 -0.396256 0
M  V30 8041 H 779.232 -6.9405 -0.363304 0
M  V30 8042 H 782.423 -4.65046 -0.533864 0
M  V30 8043 H 782.596 -6.46164 -0.487469 0
M  V30 8044 N 776.003 0.335068 -1.53997 0
M  V30 8045 C 777.249 1.07594 -1.71905 0
M  V30 8046 C 777.582 1.88039 -0.485264 0
M  V30 8047 O 776.857 1.87482 0.517752 0
M  V30 8048 C 777.14 2.01016 -2.98772 0
M  V30 8049 C 776.993 1.23977 -4.32377 0
M  V30 8050 C 778.312 3.0071 -3.21343 0
M  V30 8051 H 775.431 0.38976 -0.625505 0
M  V30 8052 H 778.073 0.353684 -1.86679 0
M  V30 8053 H 776.223 2.62603 -2.86307 0
M  V30 8054 H 777.895 0.649383 -4.56706 0
M  V30 8055 H 776.138 0.541878 -4.30402 0
M  V30 8056 H 776.809 1.92512 -5.17342 0
M  V30 8057 H 779.285 2.4924 -3.33194 0
M  V30 8058 H 778.161 3.63272 -4.11491 0
M  V30 8059 H 778.422 3.72549 -2.38033 0
M  V30 8060 N 777.481 1.45874 0.596531 0
M  V30 8061 C 778.727 1.51679 1.35518 0
M  V30 8062 C 779.082 0.160681 1.91728 0
M  V30 8063 O 778.375 -0.828886 1.72743 0
M  V30 8064 C 778.569 2.54034 2.51399 0
M  V30 8065 C 778.398 3.99465 2.06538 0
M  V30 8066 C 777.168 4.67321 1.92196 0
M  V30 8067 C 779.366 4.87674 1.63336 0
M  V30 8068 N 777.348 5.97427 1.41261 0
M  V30 8069 C 778.719 6.07495 1.23895 0
M  V30 8070 C 780.774 4.74442 1.51028 0
M  V30 8071 C 779.477 7.15548 0.733739 0
M  V30 8072 C 781.503 5.82553 1.0191 0
M  V30 8073 C 780.865 7.01537 0.634403 0
M  V30 8074 H 776.964 0.609933 0.489393 0
M  V30 8075 H 779.548 1.82411 0.680746 0
M  V30 8076 H 777.719 2.25235 3.16424 0
M  V30 8077 H 779.451 2.49918 3.18313 0
M  V30 8078 H 776.206 4.22635 2.1372 0
M  V30 8079 H 776.63 6.66638 1.17995 0
M  V30 8080 H 781.272 3.82855 1.79393 0
M  V30 8081 H 778.99 8.06914 0.437656 0
M  V30 8082 H 782.576 5.74352 0.927977 0
M  V30 8083 H 781.456 7.83768 0.26019 0
M  V30 8084 N 778.959 -0.83999 1.33349 0
M  V30 8085 C 780.236 -1.57973 1.15342 0
M  V30 8086 C 780.616 -2.09226 -0.280632 0
M  V30 8087 O 779.964 -1.89317 -1.2795 0
M  V30 8088 C 780.174 -2.71446 2.19359 0
M  V30 8089 C 781.522 -3.40654 2.53456 0
M  V30 8090 O 782.546 -2.81686 2.18017 0
M  V30 8091 O 781.405 -4.47101 3.14266 0
M  V30 8092 H 778.499 -0.6964 0.446044 0
M  V30 8093 H 781.045 -0.882843 1.44927 0
M  V30 8094 H 779.817 -2.31205 3.1569 0
M  V30 8095 H 779.44 -3.488 1.90852 0
M  V30 8096 N 780.437 -1.16799 -1.0581 0
M  V30 8097 C 781.714 -0.862616 -1.75551 0
M  V30 8098 C 782.094 0.6385 -2.01212 0
M  V30 8099 O 781.442 1.58784 -1.64317 0
M  V30 8100 C 781.652 -1.6907 -3.05314 0
M  V30 8101 C 783 -1.90675 -3.79379 0
M  V30 8102 O 784.024 -1.65976 -3.15167 0
M  V30 8103 O 782.883 -2.32145 -4.94743 0
M  V30 8104 H 779.977 -0.318789 -0.763088 0
M  V30 8105 H 782.523 -1.27461 -1.12034 0
M  V30 8106 H 781.295 -2.70912 -2.82352 0
M  V30 8107 H 780.918 -1.27606 -3.76567 0
M  V30 8108 N 781.915 1.24427 -0.967243 0
M  V30 8109 C 783.163 1.92107 -0.627638 0
M  V30 8110 C 783.484 1.75991 0.83978 0
M  V30 8111 O 782.754 1.13118 1.59941 0
M  V30 8112 H 781.334 0.710986 -0.229145 0
M  V30 8113 H 783.996 1.51331 -1.22821 0
M  V30 8114 H 783.092 2.99791 -0.867844 0
M  V30 8115 N 783.393 0.737304 1.3929 0
M  V30 8116 C 784.642 0.283129 1.99703 0
M  V30 8117 C 784.955 -1.13677 1.59176 0
M  V30 8118 O 786.161 -1.69058 2.12442 0
M  V30 8119 C 784.617 0.455262 3.57009 0
M  V30 8120 C 784.225 1.88319 4.06497 0
M  V30 8121 C 785.969 0.0629786 4.24453 0
M  V30 8122 C 783.876 2.00475 5.56385 0
M  V30 8123 H 782.806 0.102106 0.747054 0
M  V30 8124 H 785.457 0.911515 1.5926 0
M  V30 8125 H 783.839 -0.242057 3.9526 0
M  V30 8126 H 785.013 2.61265 3.79575 0
M  V30 8127 H 783.328 2.2289 3.51723 0
M  V30 8128 H 785.925 0.132787 5.34535 0
M  V30 8129 H 786.268 -0.982128 4.04549 0
M  V30 8130 H 786.801 0.71154 3.91385 0
M  V30 8131 H 783.54 3.03182 5.81172 0
M  V30 8132 H 783.06 1.31969 5.85102 0
M  V30 8133 H 784.739 1.787 6.21832 0
M  V30 8134 N 784.871 -1.49948 0.485112 0
M  V30 8135 C 786.12 -2.01589 -0.066765 0
M  V30 8136 C 786.433 -1.371 -1.39509 0
M  V30 8137 O 787.639 -1.79978 -2.03274 0
M  V30 8138 C 786.095 -3.59501 -0.169476 0
M  V30 8139 C 785.703 -4.32955 1.15126 0
M  V30 8140 C 787.447 -4.19138 -0.672564 0
M  V30 8141 C 785.354 -5.82684 1.01158 0
M  V30 8142 H 784.284 -0.753453 -0.0287259 0
M  V30 8143 H 786.935 -1.72632 0.622132 0
M  V30 8144 H 785.317 -3.85106 -0.922471 0
M  V30 8145 H 786.491 -4.19064 1.9163 0
M  V30 8146 H 784.806 -3.84991 1.58654 0
M  V30 8147 H 787.403 -5.28767 -0.794325 0
M  V30 8148 H 787.746 -3.81447 -1.66745 0
M  V30 8149 H 788.279 -3.97793 0.0234415 0
M  V30 8150 H 785.018 -6.24873 1.98025 0
M  V30 8151 H 784.538 -5.99112 0.287151 0
M  V30 8152 H 786.217 -6.43376 0.683847 0
M  V30 8153 N 786.349 -0.21828 -1.56081 0
M  V30 8154 C 787.626 0.463143 -1.90038 0
M  V30 8155 C 788.006 1.77982 -1.13515 0
M  V30 8156 O 787.354 2.27199 -0.24345 0
M  V30 8157 C 787.564 0.659292 -3.42716 0
M  V30 8158 C 788.912 0.968203 -4.13414 0
M  V30 8159 O 789.936 0.746195 -3.48296 0
M  V30 8160 O 788.795 1.38936 -5.28544 0
M  V30 8161 H 785.889 0.244435 -0.790051 0
M  V30 8162 H 788.435 -0.260221 -1.67693 0
M  V30 8163 H 787.207 -0.269584 -3.9037 0
M  V30 8164 H 786.83 1.43426 -3.7083 0
M  V30 8165 N 787.827 1.57504 0.0551401 0
M  V30 8166 C 789.238 1.76626 0.604979 0
M  V30 8167 C 789.589 0.845978 1.77024 0
M  V30 8168 O 788.714 0.0341936 2.16373 0
M  V30 8169 C 789.309 3.203 1.10425 0
M  V30 8170 C 787.868 3.4071 1.59981 0
M  V30 8171 C 787.015 2.72258 0.526414 0
M  V30 8172 H 789.966 1.57775 -0.171072 0
M  V30 8173 H 789.987 3.25377 1.97256 0
M  V30 8174 H 789.499 3.87255 0.255939 0
M  V30 8175 H 787.6 2.78892 2.47083 0
M  V30 8176 H 787.713 4.49227 1.66528 0
M  V30 8177 H 786.077 2.35283 0.97539 0
M  V30 8178 H 786.86 3.41879 -0.311991 0
M  V30 8179 N 789.305 -0.326896 1.54172 0
M  V30 8180 C 790.268 -1.38515 1.8261 0
M  V30 8181 C 791.268 -1.44872 0.697771 0
M  V30 8182 O 792.458 -1.44957 0.966078 0
M  V30 8183 C 789.59 -2.77281 1.98313 0
M  V30 8184 H 790.783 -1.14556 2.77159 0
M  V30 8185 H 788.336 -0.562199 1.45839 0
M  V30 8186 H 789.071 -3.065 1.05964 0
M  V30 8187 H 788.856 -2.74061 2.80416 0
M  V30 8188 H 790.346 -3.53845 2.21773 0
M  V30 8189 N 790.784 -1.46188 -0.588786 0
M  V30 8190 C 792.061 -1.41659 -1.34878 0
M  V30 8191 C 792.441 -0.0968913 -2.10878 0
M  V30 8192 O 791.789 0.921468 -2.09096 0
M  V30 8193 C 791.999 -2.6424 -2.27988 0
M  V30 8194 C 793.347 -3.1013 -2.90008 0
M  V30 8195 O 794.371 -2.64745 -2.38303 0
M  V30 8196 O 793.23 -3.88944 -3.83908 0
M  V30 8197 H 790.324 -0.563058 -0.605718 0
M  V30 8198 H 792.87 -1.58346 -0.610309 0
M  V30 8199 H 791.642 -3.51853 -1.71217 0
M  V30 8200 H 791.265 -2.49982 -3.09184 0
M  V30 8201 N 792.262 0.832906 -1.33792 0
M  V30 8202 C 793.49 1.62048 -1.28639 0
M  V30 8203 C 793.905 1.88269 0.141522 0
M  V30 8204 O 793.262 1.46706 1.08553 0
M  V30 8205 C 793.313 2.96722 -2.0649 0
M  V30 8206 O 793.034 2.7165 -3.43712 0
M  V30 8207 C 794.535 3.91144 -2.08617 0
M  V30 8208 H 791.755 0.504032 -0.442937 0
M  V30 8209 H 794.299 1.03704 -1.76255 0
M  V30 8210 H 792.454 3.51652 -1.62541 0
M  V30 8211 H 792.868 3.57453 -3.83833 0
M  V30 8212 H 794.342 4.82837 -2.67531 0
M  V30 8213 H 794.819 4.25766 -1.07796 0
M  V30 8214 H 795.425 3.42152 -2.52611 0
M  V30 8215 N 793.74 1.17359 1.05189 0
M  V30 8216 C 795.156 0.920861 1.30355 0
M  V30 8217 C 795.356 -0.419993 1.97074 0
M  V30 8218 O 794.412 -1.15696 2.24434 0
M  V30 8219 C 795.725 2.07818 2.1733 0
M  V30 8220 C 797.273 2.1152 2.30712 0
M  V30 8221 C 797.748 3.26637 3.21048 0
M  V30 8222 N 799.239 3.26426 3.28634 0
M  V30 8223 C 799.974 4.12141 3.98657 0
M  V30 8224 N 799.47 5.07966 4.71107 0
M  V30 8225 N 801.263 4.00091 3.94821 0
M  V30 8226 H 793.414 2.03666 0.602821 0
M  V30 8227 H 795.677 0.889294 0.328421 0
M  V30 8228 H 795.383 3.04727 1.75597 0
M  V30 8229 H 795.257 2.02922 3.17966 0
M  V30 8230 H 797.644 1.15196 2.71687 0
M  V30 8231 H 797.725 2.20477 1.29706 0
M  V30 8232 H 797.369 4.23227 2.80788 0
M  V30 8233 H 797.299 3.14917 4.2206 0
M  V30 8234 H 799.79 2.57045 2.77013 0
M  V30 8235 H 800.103 5.69766 5.22099 0
M  V30 8236 H 798.448 5.11936 4.7005 0
M  V30 8237 H 801.639 3.24523 3.37346 0
M  V30 8238 H 801.812 4.6711 4.49123 0
M  V30 8239 N 795.218 -1.23913 0.973828 0
M  V30 8240 C 796.148 -2.27453 0.527969 0
M  V30 8241 C 797.129 -1.6443 -0.435513 0
M  V30 8242 O 798.314 -1.9137 -0.330306 0
M  V30 8243 C 795.444 -3.4685 -0.176757 0
M  V30 8244 C 794.398 -4.22181 0.703352 0
M  V30 8245 C 793.724 -5.34534 -0.133215 0
M  V30 8246 C 795.024 -4.82865 1.99096 0
M  V30 8247 H 796.718 -2.65 1.3934 0
M  V30 8248 H 794.264 -1.27388 0.671446 0
M  V30 8249 H 796.217 -4.18424 -0.499934 0
M  V30 8250 H 794.941 -3.08346 -1.07659 0
M  V30 8251 H 793.6 -3.52416 1.00989 0
M  V30 8252 H 793.248 -4.92271 -1.03338 0
M  V30 8253 H 792.948 -5.85855 0.452494 0
M  V30 8254 H 794.472 -6.08933 -0.450924 0
M  V30 8255 H 795.886 -5.46481 1.73297 0
M  V30 8256 H 794.283 -5.44444 2.52389 0
M  V30 8257 H 795.353 -4.03977 2.68199 0
M  V30 8258 N 796.696 -0.74468 -1.38897 0
M  V30 8259 C 797.942 -0.297324 -2.00609 0
M  V30 8260 C 798.275 1.11547 -1.58968 0
M  V30 8261 O 797.55 1.76227 -0.823057 0
M  V30 8262 C 797.833 -0.410125 -3.57757 0
M  V30 8263 C 797.686 -1.86338 -4.09387 0
M  V30 8264 C 799.005 0.20176 -4.39637 0
M  V30 8265 H 796.124 -0.109509 -0.728819 0
M  V30 8266 H 798.766 -0.942653 -1.64967 0
M  V30 8267 H 796.916 0.139287 -3.8825 0
M  V30 8268 H 798.588 -2.47042 -3.89574 0
M  V30 8269 H 796.831 -2.38146 -3.62586 0
M  V30 8270 H 797.502 -1.89352 -5.18507 0
M  V30 8271 H 799.978 -0.266703 -4.15244 0
M  V30 8272 H 798.854 0.0925415 -5.48822 0
M  V30 8273 H 799.115 1.289 -4.22891 0
M  V30 8274 N 798.174 1.49689 -0.493057 0
M  V30 8275 C 799.104 2.31826 0.279073 0
M  V30 8276 C 800.085 1.39733 0.969987 0
M  V30 8277 O 801.27 1.68646 0.962925 0
M  V30 8278 C 798.4 3.20046 1.34862 0
M  V30 8279 C 797.354 4.20869 0.77805 0
M  V30 8280 C 796.68 4.97971 1.94753 0
M  V30 8281 C 797.98 5.21813 -0.225543 0
M  V30 8282 H 799.674 2.96627 -0.406512 0
M  V30 8283 H 797.22 1.42647 -0.196943 0
M  V30 8284 H 799.173 3.76315 1.89645 0
M  V30 8285 H 797.897 2.53172 2.06328 0
M  V30 8286 H 796.556 3.65733 0.252036 0
M  V30 8287 H 796.204 4.27552 2.64969 0
M  V30 8288 H 795.904 5.66186 1.57187 0
M  V30 8289 H 797.428 5.57082 2.49984 0
M  V30 8290 H 798.842 5.72823 0.233864 0
M  V30 8291 H 797.239 5.97872 -0.516622 0
M  V30 8292 H 798.309 4.71209 -1.14412 0
M  V30 8293 N 799.652 0.226554 1.55963 0
M  V30 8294 C 800.9 -0.402991 1.98041 0
M  V30 8295 C 801.221 -1.59938 1.11557 0
M  V30 8296 O 800.491 -1.9494 0.193719 0
M  V30 8297 H 799.071 -0.15188 0.731397 0
M  V30 8298 H 801.733 0.320613 1.92245 0
M  V30 8299 H 800.829 -0.725937 3.0354 0
M  V30 8300 N 801.13 -1.57531 -0.0467866 0
M  V30 8301 C 802.06 -2.08425 -1.05268 0
M  V30 8302 C 803.041 -0.982941 -1.38825 0
M  V30 8303 O 804.226 -1.25716 -1.48018 0
M  V30 8304 C 801.356 -2.54897 -2.35891 0
M  V30 8305 C 800.31 -3.69132 -2.16623 0
M  V30 8306 C 799.636 -4.01747 -3.52851 0
M  V30 8307 C 800.936 -4.98243 -1.56689 0
M  V30 8308 H 802.63 -2.92716 -0.62908 0
M  V30 8309 H 800.176 -1.40816 -0.301156 0
M  V30 8310 H 802.129 -2.8912 -3.06574 0
M  V30 8311 H 800.853 -1.67666 -2.80278 0
M  V30 8312 H 799.512 -3.35231 -1.48377 0
M  V30 8313 H 799.16 -3.11608 -3.94853 0
M  V30 8314 H 798.86 -4.78681 -3.4079 0
M  V30 8315 H 800.384 -4.38487 -4.24925 0
M  V30 8316 H 801.798 -5.30535 -2.17268 0
M  V30 8317 H 800.195 -5.79669 -1.55255 0
M  V30 8318 H 801.265 -4.81986 -0.530827 0
M  V30 8319 N 802.608 0.318715 -1.54344 0
M  V30 8320 C 803.833 1.07987 -1.77069 0
M  V30 8321 C 804.258 1.80766 -0.520117 0
M  V30 8322 O 803.616 1.73424 0.528566 0
M  V30 8323 C 803.664 2.04987 -2.96669 0
M  V30 8324 O 802.768 3.12974 -2.68554 0
M  V30 8325 H 802.109 0.311109 -0.586606 0
M  V30 8326 H 804.639 0.361533 -2.0138 0
M  V30 8327 H 804.649 2.47771 -3.2415 0
M  V30 8328 H 803.324 1.51417 -3.87357 0
M  V30 8329 H 801.901 2.74831 -2.52037 0
M  V30 8330 N 804.086 1.46499 0.581025 0
M  V30 8331 C 805.333 1.51896 1.33918 0
M  V30 8332 C 805.661 0.171361 1.93744 0
M  V30 8333 O 804.916 -0.833178 1.77078 0
M  V30 8334 C 805.215 2.56686 2.48691 0
M  V30 8335 C 804.881 4.00656 2.06847 0
M  V30 8336 C 803.543 4.39852 1.9515 0
M  V30 8337 C 805.895 4.91089 1.74589 0
M  V30 8338 C 803.223 5.67345 1.49456 0
M  V30 8339 C 805.575 6.1902 1.30373 0
M  V30 8340 C 804.239 6.57121 1.17255 0
M  V30 8341 H 803.509 0.555826 0.490039 0
M  V30 8342 H 806.156 1.79983 0.654092 0
M  V30 8343 H 804.461 2.22266 3.22653 0
M  V30 8344 H 806.158 2.58091 3.06904 0
M  V30 8345 H 802.748 3.69674 2.16886 0
M  V30 8346 H 806.932 4.61523 1.8251 0
M  V30 8347 H 802.188 5.95635 1.37944 0
M  V30 8348 H 806.362 6.8852 1.04467 0
M  V30 8349 H 803.989 7.55805 0.816236 0
M  V30 8350 N 805.565 -0.825799 1.34232 0
M  V30 8351 C 806.79 -1.61883 1.29648 0
M  V30 8352 C 807.215 -1.87669 -0.127295 0
M  V30 8353 O 806.573 -1.45016 -1.08813 0
M  V30 8354 C 806.621 -2.93846 2.09014 0
M  V30 8355 O 805.725 -3.85778 1.4577 0
M  V30 8356 H 805.066 -0.492454 0.445405 0
M  V30 8357 H 807.596 -1.02641 1.76992 0
M  V30 8358 H 807.606 -3.43435 2.20264 0
M  V30 8359 H 806.281 -2.74401 3.12533 0
M  V30 8360 H 804.858 -3.4429 1.43245 0
M  V30 8361 N 807.043 -1.17915 -1.04565 0
M  V30 8362 C 808.006 -0.903787 -2.10628 0
M  V30 8363 C 809.006 0.10873 -1.60432 0
M  V30 8364 O 810.196 -0.124152 -1.73757 0
M  V30 8365 C 807.328 -0.355017 -3.39046 0
M  V30 8366 H 808.521 -1.84425 -2.3649 0
M  V30 8367 H 806.074 -0.990477 -1.2091 0
M  V30 8368 H 806.809 0.592297 -3.18845 0
M  V30 8369 H 806.594 -1.08484 -3.76794 0
M  V30 8370 H 808.084 -0.180891 -4.17208 0
M  V30 8371 N 808.521 1.23394 -0.980386 0
M  V30 8372 C 809.484 2.23092 -0.525619 0
M  V30 8373 C 810.484 1.56129 0.384745 0
M  V30 8374 O 811.674 1.73284 0.178439 0
M  V30 8375 C 808.806 3.40074 0.23712 0
M  V30 8376 H 809.999 2.64839 -1.40714 0
M  V30 8377 H 807.552 1.36227 -0.766275 0
M  V30 8378 H 808.287 3.03783 1.13518 0
M  V30 8379 H 808.072 3.89883 -0.416356 0
M  V30 8380 H 809.562 4.14043 0.543892 0
M  V30 8381 N 809.999 0.752036 1.385 0
M  V30 8382 C 810.929 0.138718 2.33088 0
M  V30 8383 C 811.91 -0.705318 1.54788 0
M  V30 8384 O 813.095 -0.646821 1.83112 0
M  V30 8385 C 810.225 -0.75641 3.38963 0
M  V30 8386 C 809.179 -0.0152239 4.27997 0
M  V30 8387 C 808.505 -1.0285 5.24715 0
M  V30 8388 C 809.805 1.15226 5.09431 0
M  V30 8389 H 811.499 0.928852 2.84627 0
M  V30 8390 H 809.045 0.448111 1.3685 0
M  V30 8391 H 810.998 -1.19513 4.04097 0
M  V30 8392 H 809.722 -1.57885 2.85902 0
M  V30 8393 H 808.381 0.404061 3.64366 0
M  V30 8394 H 808.029 -1.84496 4.67943 0
M  V30 8395 H 807.729 -0.537238 5.85139 0
M  V30 8396 H 809.253 -1.46657 5.92726 0
M  V30 8397 H 810.667 0.791161 5.67815 0
M  V30 8398 H 809.064 1.57428 5.79082 0
M  V30 8399 H 810.134 1.9659 4.43261 0
M  V30 8400 N 811.477 -1.49425 0.500989 0
M  V30 8401 C 812.425 -2.30771 -0.291149 0
M  V30 8402 C 813.419 -1.3938 -0.962787 0
M  V30 8403 O 814.625 -1.56431 -0.890477 0
M  V30 8404 H 811 -0.743499 -0.11275 0
M  V30 8405 H 812.971 -2.95501 0.414917 0
M  V30 8406 C 811.72 -3.20725 -1.34279 0
M  V30 8407 H 811.043 -3.90975 -0.83538 0
M  V30 8408 H 812.483 -3.80583 -1.86903 0
M  V30 8409 C 810.942 -2.40334 -2.36095 0
M  V30 8410 O 811.472 -2.10749 -3.41976 0
M  V30 8411 N 809.678 -2.02359 -2.08565 0
M  V30 8412 H 809.225 -2.26619 -1.22482 0
M  V30 8413 H 809.183 -1.48878 -2.76916 0
M  V30 8414 N 812.955 -0.234822 -1.55841 0
M  V30 8415 C 813.918 0.656378 -2.196 0
M  V30 8416 C 814.918 1.11179 -1.16171 0
M  V30 8417 O 816.108 1.01845 -1.41326 0
M  V30 8418 C 813.24 1.90072 -2.82993 0
M  V30 8419 H 814.433 0.100281 -2.99732 0
M  V30 8420 H 811.986 0.0147613 -1.56293 0
M  V30 8421 H 812.721 2.49836 -2.06767 0
M  V30 8422 H 812.506 1.5825 -3.58747 0
M  V30 8423 H 813.996 2.53538 -3.31826 0
M  V30 8424 N 814.433 1.57553 0.0384317 0
M  V30 8425 C 815.844 1.77258 0.586211 0
M  V30 8426 C 816.195 0.864706 1.76117 0
M  V30 8427 O 815.32 0.057141 2.16325 0
M  V30 8428 C 815.915 3.21453 1.07021 0
M  V30 8429 C 814.474 3.42387 1.56358 0
M  V30 8430 C 813.621 2.72801 0.497508 0
M  V30 8431 H 816.572 1.57585 -0.187796 0
M  V30 8432 H 816.593 3.27451 1.93794 0
M  V30 8433 H 816.105 3.87505 0.214851 0
M  V30 8434 H 814.206 2.81497 2.44111 0
M  V30 8435 H 814.319 4.50968 1.61754 0
M  V30 8436 H 812.683 2.36305 0.95038 0
M  V30 8437 H 813.466 3.41529 -0.348234 0
M  V30 8438 N 815.911 -0.310526 1.54511 0
M  V30 8439 C 817.16 -1.0445 1.72549 0
M  V30 8440 C 817.473 -1.88748 0.513172 0
M  V30 8441 O 818.679 -2.65338 0.575165 0
M  V30 8442 C 817.135 -1.90665 3.05246 0
M  V30 8443 C 816.743 -1.11415 4.33925 0
M  V30 8444 C 818.487 -2.63719 3.32645 0
M  V30 8445 C 816.394 -1.96852 5.57677 0
M  V30 8446 H 815.324 -0.393676 0.643067 0
M  V30 8447 H 817.975 -0.302003 1.80998 0
M  V30 8448 H 816.357 -2.68864 2.90737 0
M  V30 8449 H 817.531 -0.378956 4.59239 0
M  V30 8450 H 815.846 -0.499853 4.13389 0
M  V30 8451 H 818.443 -3.27974 4.223 0
M  V30 8452 H 818.786 -3.32047 2.51098 0
M  V30 8453 H 819.319 -1.92574 3.48081 0
M  V30 8454 H 816.058 -1.33009 6.41864 0
M  V30 8455 H 815.578 -2.68069 5.36562 0
M  V30 8456 H 817.257 -2.55127 5.94575 0
M  V30 8457 N 817.389 -1.46805 -0.573248 0
M  V30 8458 C 818.299 -1.60687 -1.70929 0
M  V30 8459 C 819.315 -0.490084 -1.66956 0
M  V30 8460 O 820.491 -0.755482 -1.86693 0
M  V30 8461 C 817.556 -1.60259 -3.07438 0
M  V30 8462 C 816.617 -2.83242 -3.22603 0
M  V30 8463 C 815.85 -2.82825 -4.52599 0
M  V30 8464 O 816.073 -1.92113 -5.37074 0
M  V30 8465 O 815.007 -3.74489 -4.71213 0
M  V30 8466 H 818.833 -2.56782 -1.62163 0
M  V30 8467 H 816.418 -1.29706 -0.741399 0
M  V30 8468 H 818.3 -1.6275 -3.88704 0
M  V30 8469 H 816.975 -0.673268 -3.16621 0
M  V30 8470 H 815.882 -2.86302 -2.40794 0
M  V30 8471 H 817.215 -3.75415 -3.18315 0
M  V30 8472 N 818.867 0.818669 -1.34668 0
M  V30 8473 C 819.814 1.92983 -1.26595 0
M  V30 8474 C 820.784 1.65506 -0.140315 0
M  V30 8475 O 821.969 1.88063 -0.322005 0
M  V30 8476 C 819.109 3.2932 -1.03163 0
M  V30 8477 C 818.222 3.69061 -2.24539 0
M  V30 8478 C 817.357 4.94368 -1.94355 0
M  V30 8479 C 816.396 5.26702 -3.11851 0
M  V30 8480 N 815.533 6.43187 -2.81522 0
M  V30 8481 H 820.373 1.99219 -2.2162 0
M  V30 8482 H 817.91 0.974612 -1.1018 0
M  V30 8483 H 819.868 4.07897 -0.87613 0
M  V30 8484 H 818.498 3.22584 -0.118045 0
M  V30 8485 H 817.55 2.85842 -2.50995 0
M  V30 8486 H 818.862 3.88924 -3.12313 0
M  V30 8487 H 818.016 5.80742 -1.75566 0
M  V30 8488 H 816.755 4.76515 -1.03848 0
M  V30 8489 H 815.76 4.38823 -3.31231 0
M  V30 8490 H 816.985 5.46492 -4.03142 0
M  V30 8491 H 814.931 6.26783 -1.93596 0
M  V30 8492 H 814.848 6.63243 -3.62829 0
M  V30 8493 H 816.116 7.32621 -2.66247 0
M  V30 8494 N 820.346 1.18468 1.03938 0
M  V30 8495 C 821.574 1.00576 1.80809 0
M  V30 8496 C 821.989 -0.445786 1.83462 0
M  V30 8497 O 821.346 -1.30964 1.27101 0
M  V30 8498 C 821.397 1.55491 3.26351 0
M  V30 8499 O 821.118 2.94963 3.23926 0
M  V30 8500 C 822.619 1.42236 4.19862 0
M  V30 8501 H 819.839 0.35508 0.56935 0
M  V30 8502 H 822.383 1.57046 1.30984 0
M  V30 8503 H 820.538 1.03195 3.73403 0
M  V30 8504 H 820.952 3.20598 4.15111 0
M  V30 8505 H 822.426 1.85455 5.19914 0
M  V30 8506 H 822.903 0.371267 4.37628 0
M  V30 8507 H 823.509 1.9361 3.78675 0
M  V30 8508 N 821.824 -1.22873 0.986916 0
M  V30 8509 C 823.101 -1.86939 0.575589 0
M  V30 8510 C 823.481 -1.88656 -0.947205 0
M  V30 8511 O 822.829 -1.3728 -1.82665 0
M  V30 8512 C 823.039 -3.28117 1.18914 0
M  V30 8513 C 824.387 -4.04659 1.28593 0
M  V30 8514 O 825.411 -3.3736 1.14308 0
M  V30 8515 O 824.27 -5.25112 1.51391 0
M  V30 8516 H 821.364 -0.803748 0.194724 0
M  V30 8517 H 823.91 -1.30698 1.08241 0
M  V30 8518 H 822.682 -3.21468 2.231 0
M  V30 8519 H 822.305 -3.91956 0.667535 0
M  V30 8520 N 823.302 -0.75937 -1.38099 0
M  V30 8521 C 824.549 -0.318113 -1.99986 0
M  V30 8522 C 824.877 1.10184 -1.6028 0
M  V30 8523 O 824.132 1.77015 -0.834524 0
M  V30 8524 C 824.431 -0.394999 -3.55211 0
M  V30 8525 C 824.097 -1.77143 -4.14646 0
M  V30 8526 C 822.759 -2.14811 -4.30592 0
M  V30 8527 C 825.111 -2.67407 -4.47373 0
M  V30 8528 C 822.439 -3.42203 -4.76565 0
M  V30 8529 C 824.791 -3.94196 -4.94765 0
M  V30 8530 C 823.455 -4.31925 -5.08918 0
M  V30 8531 H 822.725 -0.116406 -0.7318 0
M  V30 8532 H 825.372 -0.97098 -1.65058 0
M  V30 8533 H 823.677 0.341426 -3.9031 0
M  V30 8534 H 825.374 -0.0350722 -4.00985 0
M  V30 8535 H 821.964 -1.46864 -4.02652 0
M  V30 8536 H 826.148 -2.39569 -4.3465 0
M  V30 8537 H 821.404 -3.71346 -4.85708 0
M  V30 8538 H 825.578 -4.64276 -5.19057 0
M  V30 8539 H 823.205 -5.30699 -5.443 0
M  V30 8540 N 824.78 1.49157 -0.508906 0
M  V30 8541 C 826.028 2.02073 0.0327335 0
M  V30 8542 C 826.349 1.39012 1.3675 0
M  V30 8543 O 825.619 0.548153 1.88075 0
M  V30 8544 H 824.199 0.746848 0.0150864 0
M  V30 8545 H 826.861 1.83097 -0.667946 0
M  V30 8546 H 825.957 3.11707 0.1566 0
M  V30 8547 N 826.258 0.243083 1.55714 0
M  V30 8548 C 827.507 -0.383188 1.98027 0
M  V30 8549 C 827.82 -1.59347 1.13436 0
M  V30 8550 O 829.026 -2.29065 1.45745 0
M  V30 8551 C 827.482 -0.733135 3.52354 0
M  V30 8552 C 827.09 0.455539 4.45678 0
M  V30 8553 C 828.834 -1.32381 4.03331 0
M  V30 8554 C 826.741 0.0819591 5.91343 0
M  V30 8555 H 825.671 -0.146944 0.739543 0
M  V30 8556 H 828.322 0.342697 1.80272 0
M  V30 8557 H 826.704 -1.51704 3.65789 0
M  V30 8558 H 827.878 1.23291 4.44 0
M  V30 8559 H 826.193 0.960886 4.05162 0
M  V30 8560 H 828.79 -1.61658 5.09677 0
M  V30 8561 H 829.133 -2.24698 3.50452 0
M  V30 8562 H 829.666 -0.602885 3.93205 0
M  V30 8563 H 826.405 0.972171 6.48251 0
M  V30 8564 H 825.925 -0.659291 5.96166 0
M  V30 8565 H 827.604 -0.3372 6.46121 0
M  V30 8566 N 827.736 -1.57571 -0.0300757 0
M  V30 8567 C 828.983 -1.89226 -0.721091 0
M  V30 8568 C 829.311 -0.840244 -1.75414 0
M  V30 8569 O 828.566 0.158906 -1.95054 0
M  V30 8570 C 828.865 -3.27624 -1.42818 0
M  V30 8571 C 828.531 -4.4776 -0.531208 0
M  V30 8572 C 827.193 -4.8036 -0.28415 0
M  V30 8573 C 829.545 -5.21125 0.0881582 0
M  V30 8574 C 826.873 -5.83715 0.591065 0
M  V30 8575 C 829.225 -6.2541 0.95107 0
M  V30 8576 C 827.889 -6.56486 1.2076 0
M  V30 8577 H 827.159 -0.692428 -0.263866 0
M  V30 8578 H 829.806 -1.91491 0.0189874 0
M  V30 8579 H 828.111 -3.21343 -2.24155 0
M  V30 8580 H 829.808 -3.49365 -1.96838 0
M  V30 8581 H 826.398 -4.2227 -0.73392 0
M  V30 8582 H 830.582 -4.96219 -0.0897496 0
M  V30 8583 H 825.838 -6.06168 0.798132 0
M  V30 8584 H 830.012 -6.81402 1.43751 0
M  V30 8585 H 827.639 -7.36395 1.88751 0
M  V30 8586 N 829.214 0.302327 -1.54673 0
M  V30 8587 C 830.63 0.647911 -1.45857 0
M  V30 8588 C 830.83 1.90773 -0.64869 0
M  V30 8589 O 829.886 2.52018 -0.155865 0
M  V30 8590 C 831.199 0.802144 -2.89804 0
M  V30 8591 C 832.747 0.898114 -2.99838 0
M  V30 8592 C 833.222 1.08436 -4.44978 0
M  V30 8593 N 834.713 1.15059 -4.48682 0
M  V30 8594 C 835.448 1.31296 -5.58166 0
M  V30 8595 N 834.944 1.4444 -6.77576 0
M  V30 8596 N 836.737 1.34174 -5.45851 0
M  V30 8597 H 828.888 -0.525428 -2.05798 0
M  V30 8598 H 831.151 -0.173423 -0.932002 0
M  V30 8599 H 830.857 -0.0526531 -3.51661 0
M  V30 8600 H 830.731 1.69155 -3.37145 0
M  V30 8601 H 833.118 1.7434 -2.38096 0
M  V30 8602 H 833.199 -0.0152752 -2.55795 0
M  V30 8603 H 832.843 0.243843 -5.07314 0
M  V30 8604 H 832.773 2.01195 -4.8665 0
M  V30 8605 H 835.264 1.0626 -3.62653 0
M  V30 8606 H 835.577 1.56582 -7.56771 0
M  V30 8607 H 833.922 1.41499 -6.80443 0
M  V30 8608 H 837.113 1.23516 -4.5151 0
M  V30 8609 H 837.286 1.46485 -6.31226 0
M  V30 8610 N 830.692 1.47107 0.565454 0
M  V30 8611 C 831.625 1.53505 1.68853 0
M  V30 8612 C 832.603 0.387806 1.57908 0
M  V30 8613 O 833.787 0.594433 1.78882 0
M  V30 8614 C 830.914 1.42985 3.07039 0
M  V30 8615 C 829.96 2.62109 3.36454 0
M  V30 8616 S 830.793 4.2436 3.26617 0
M  V30 8617 C 831.949 4.16378 4.67312 0
M  V30 8618 H 832.182 2.48522 1.63169 0
M  V30 8619 H 829.715 1.35204 0.745609 0
M  V30 8620 H 831.673 1.37602 3.8675 0
M  V30 8621 H 830.334 0.493671 3.10196 0
M  V30 8622 H 829.527 2.50788 4.37174 0
M  V30 8623 H 829.129 2.64571 2.64345 0
M  V30 8624 H 831.421 3.84123 5.58082 0
M  V30 8625 H 832.364 5.17156 4.83689 0
M  V30 8626 H 832.772 3.47363 4.44971 0
M  V30 8627 O 832.209 -0.709987 1.45057 0
M  V30 8628 H 832.9 -1.36112 1.37816 0
M  V30 END ATOM
M  V30 BEGIN BOND
M  V30 END BOND
M  V30 END CTAB
M  END
$$$$
