drugbank_target|P09148 Galactose-1-phosphate uridylyltransferase (DB01861; DB03435; DB03685)
 OpenBabel12092119543D

  0  0  0     0  0            999 V3000
M  V30 BEGIN CTAB
M  V30 COUNTS 5477 5563 0 0 0
M  V30 BEGIN ATOM
M  V30 1 H -0.908 1.98254 -0.117106 0
M  V30 2 N 0 1.576 0 0
M  V30 3 C 0.933 2.03868 1.02534 0
M  V30 4 C 1.911 0.928543 1.3348 0
M  V30 5 O 3.095 1.19667 1.45644 0
M  V30 6 C 0.222 2.43627 2.35294 0
M  V30 7 C -0.732 3.65373 2.2001 0
M  V30 8 S 0.101 5.13292 1.52614 0
M  V30 9 C 1.257 5.56322 2.86805 0
M  V30 10 H 1.49 2.90518 0.631377 0
M  V30 11 H -0.977 1.52953 0.210867 0
M  V30 12 H 0.981 2.67203 3.11629 0
M  V30 13 H -0.358 1.57376 2.7183 0
M  V30 14 H -1.165 3.90944 3.18086 0
M  V30 15 H -1.563 3.418 1.51819 0
M  V30 16 H 0.729 5.58782 3.83104 0
M  V30 17 H 1.672 6.56266 2.65933 0
M  V30 18 H 2.08 4.83886 2.90714 0
M  V30 19 N 1.4781 -0.272755 1.55222 0
M  V30 20 C 2.7061 -1.02255 1.79865 0
M  V30 21 C 3.1211 -1.79924 0.572088 0
M  V30 22 O 2.4781 -1.76638 -0.458842 0
M  V30 23 C 2.5291 -1.98094 3.02392 0
M  V30 24 O 2.2501 -1.23572 4.20311 0
M  V30 25 C 3.7511 -2.84884 3.39641 0
M  V30 26 H 0.9711 -0.302057 0.599168 0
M  V30 27 H 3.5151 -0.303465 2.02236 0
M  V30 28 H 1.6701 -2.65465 2.82147 0
M  V30 29 H 2.0841 -1.88172 4.89583 0
M  V30 30 H 3.5581 -3.47927 4.28545 0
M  V30 31 H 4.0351 -3.54665 2.59055 0
M  V30 32 H 4.6411 -2.23003 3.62146 0
M  V30 33 N 2.9562 -1.48159 -0.537278 0
M  V30 34 C 3.8882 -1.58218 -1.65831 0
M  V30 35 C 4.9012 -0.466948 -1.5596 0
M  V30 36 O 6.0902 -0.73747 -1.62553 0
M  V30 37 C 3.1902 -1.48906 -3.04434 0
M  V30 38 C 2.3632 -2.75343 -3.3986 0
M  V30 39 C 1.4222 -2.59588 -4.57712 0
M  V30 40 O 0.4482 -3.33457 -4.61297 0
M  V30 41 N 1.6502 -1.68724 -5.55439 0
M  V30 42 H 4.4152 -2.54891 -1.57641 0
M  V30 43 H 1.9762 -1.4479 -0.724386 0
M  V30 44 H 3.9682 -1.36072 -3.81139 0
M  V30 45 H 2.5382 -0.602368 -3.06741 0
M  V30 46 H 1.7582 -3.02795 -2.52406 0
M  V30 47 H 3.0462 -3.5924 -3.60311 0
M  V30 48 H 2.4442 -1.07898 -5.55315 0
M  V30 49 H 1.0012 -1.61832 -6.3139 0
M  V30 50 N 4.4343 0.785586 -1.36625 0
M  V30 51 C 5.6813 1.54362 -1.31067 0
M  V30 52 C 6.0093 1.94195 0.10893 0
M  V30 53 O 5.2643 1.63262 1.07908 0
M  V30 54 C 5.5633 2.83007 -2.1827 0
M  V30 55 C 5.2293 2.62294 -3.6676 0
M  V30 56 C 3.8913 2.56353 -4.0723 0
M  V30 57 C 6.2433 2.43371 -4.6089 0
M  V30 58 C 3.5713 2.29461 -5.39967 0
M  V30 59 C 5.9233 2.18005 -5.93849 0
M  V30 60 C 4.5873 2.105 -6.3344 0
M  V30 61 H 3.8573 0.564851 -0.479609 0
M  V30 62 H 6.5043 0.906028 -1.68711 0
M  V30 63 H 4.8093 3.51253 -1.73576 0
M  V30 64 H 6.5063 3.40817 -2.11292 0
M  V30 65 H 3.0963 2.67774 -3.34656 0
M  V30 66 H 7.2803 2.46959 -4.30494 0
M  V30 67 H 2.5363 2.22135 -5.69619 0
M  V30 68 H 6.7103 2.02359 -6.66351 0
M  V30 69 H 4.3373 1.89425 -7.36222 0
M  V30 70 N 5.9124 1.20967 1.01018 0
M  V30 71 C 6.8604 0.961223 2.1181 0
M  V30 72 C 7.8544 -0.0897034 1.69162 0
M  V30 73 O 9.0604 0.0612271 1.79896 0
M  V30 74 H 5.4354 0.29355 0.692338 0
M  V30 75 H 7.4064 1.90178 2.29946 0
M  V30 76 C 6.1554 0.536854 3.4353 0
M  V30 77 H 5.4784 1.33713 3.76777 0
M  V30 78 H 6.9184 0.402286 4.22087 0
M  V30 79 C 5.3774 -0.751574 3.2841 0
M  V30 80 O 5.9074 -1.80841 3.58691 0
M  V30 81 N 4.1134 -0.716079 2.81639 0
M  V30 82 H 3.6604 0.144236 2.57196 0
M  V30 83 H 3.6184 -1.57847 2.71904 0
M  V30 84 N 7.3905 -1.2043 1.01659 0
M  V30 85 C 8.8015 -1.71517 0.737482 0
M  V30 86 C 9.1525 -1.81547 -0.743973 0
M  V30 87 O 8.2775 -1.47803 -1.58061 0
M  V30 88 C 8.8725 -3.11515 1.33206 0
M  V30 89 C 7.4315 -3.59912 1.10183 0
M  V30 90 C 6.5785 -2.37116 1.43776 0
M  V30 91 H 9.5295 -1.05444 1.18606 0
M  V30 92 H 9.5505 -3.73575 0.722636 0
M  V30 93 H 9.0625 -3.04182 2.41028 0
M  V30 94 H 7.1635 -3.72577 0.0412756 0
M  V30 95 H 7.2765 -4.44731 1.78188 0
M  V30 96 H 5.6405 -2.39857 0.856778 0
M  V30 97 H 6.4235 -2.32424 2.52654 0
M  V30 98 N 8.8686 -0.792821 -1.36206 0
M  V30 99 C 10.1146 -0.36733 -1.99446 0
M  V30 100 C 10.4476 1.05917 -1.62774 0
M  V30 101 O 9.7226 1.7324 -0.88421 0
M  V30 102 C 10.0056 -0.535044 -3.56103 0
M  V30 103 C 9.8586 -2.00548 -4.02617 0
M  V30 104 C 11.1776 0.0478191 -4.40074 0
M  V30 105 H 8.2966 -0.134941 -0.724541 0
M  V30 106 H 10.9386 -0.999794 -1.61568 0
M  V30 107 H 9.0886 0.00336329 -3.885 0
M  V30 108 H 10.7606 -2.60521 -3.80692 0
M  V30 109 H 9.0036 -2.50686 -3.54032 0
M  V30 110 H 9.6746 -2.07377 -5.11565 0
M  V30 111 H 12.1506 -0.411822 -4.14057 0
M  V30 112 H 11.0266 -0.0995336 -5.4881 0
M  V30 113 H 11.2876 1.14025 -4.27142 0
M  V30 114 N 10.3467 1.47872 -0.545128 0
M  V30 115 C 11.6237 1.9554 0.0485222 0
M  V30 116 C 12.0037 1.4876 1.49779 0
M  V30 117 O 11.3517 0.720925 2.16829 0
M  V30 118 C 11.5617 3.48898 -0.084417 0
M  V30 119 C 12.9097 4.24547 0.0671239 0
M  V30 120 O 13.9337 3.56198 -0.0113649 0
M  V30 121 O 12.7927 5.45999 0.233882 0
M  V30 122 H 9.8867 0.823957 0.0708773 0
M  V30 123 H 12.4327 1.58327 -0.610798 0
M  V30 124 H 11.2047 3.75714 -1.09337 0
M  V30 125 H 10.8277 3.92845 0.613066 0
M  V30 126 N 11.8248 0.280983 1.55075 0
M  V30 127 C 12.7748 -0.618585 2.19448 0
M  V30 128 C 13.7588 -1.11401 1.16098 0
M  V30 129 O 14.9508 -1.0581 1.41891 0
M  V30 130 C 12.0798 -1.79951 2.92357 0
M  V30 131 C 11.1658 -1.321 4.03002 0
M  V30 132 N 11.5568 -0.559044 5.02701 0
M  V30 133 C 9.8548 -1.60346 4.16179 0
M  V30 134 C 10.5558 -0.306722 5.80891 0
M  V30 135 N 9.5318 -0.880825 5.36416 0
M  V30 136 H 13.3338 -0.0286638 2.93886 0
M  V30 137 H 10.8478 0.0848104 1.62178 0
M  V30 138 H 12.8448 -2.45531 3.36927 0
M  V30 139 H 11.5048 -2.39333 2.19431 0
M  V30 140 H 12.5158 -0.205827 5.17491 0
M  V30 141 H 9.1928 -2.20621 3.54447 0
M  V30 142 H 10.5828 0.30391 6.71212 0
M  V30 143 N 13.3029 -1.57598 0.00835791 0
M  V30 144 C 14.7139 -1.7892 -0.53333 0
M  V30 145 C 15.0649 -0.916609 -1.73473 0
M  V30 146 O 14.1899 -0.121336 -2.1606 0
M  V30 147 C 14.7849 -3.24488 -0.974313 0
M  V30 148 C 13.3439 -3.46878 -1.46125 0
M  V30 149 C 12.4909 -2.74157 -0.416302 0
M  V30 150 H 15.4419 -1.56958 0.234495 0
M  V30 151 H 15.4629 -3.3306 -1.83988 0
M  V30 152 H 14.9749 -3.87972 -0.099718 0
M  V30 153 H 13.0759 -2.8862 -2.35646 0
M  V30 154 H 13.1889 -4.55572 -1.48295 0
M  V30 155 H 11.5529 -2.39022 -0.87981 0
M  V30 156 H 12.3359 -3.40345 0.44947 0
M  V30 157 N 14.781 0.264519 -1.55364 0
M  V30 158 C 15.731 1.32966 -1.85214 0
M  V30 159 C 16.715 1.44306 -0.711653 0
M  V30 160 O 17.907 1.47844 -0.973192 0
M  V30 161 C 15.036 2.68839 -2.13495 0
M  V30 162 C 14.122 2.61575 -3.33825 0
M  V30 163 N 14.513 2.23933 -4.53528 0
M  V30 164 C 12.811 2.92621 -3.36584 0
M  V30 165 C 13.512 2.26868 -5.35636 0
M  V30 166 N 12.488 2.65677 -4.74254 0
M  V30 167 H 16.29 1.02884 -2.75304 0
M  V30 168 H 13.804 0.473157 -1.55354 0
M  V30 169 H 15.801 3.45685 -2.33039 0
M  V30 170 H 14.461 2.99802 -1.24694 0
M  V30 171 H 15.472 1.95769 -4.79474 0
M  V30 172 H 12.149 3.2824 -2.58002 0
M  V30 173 H 13.539 2.00254 -6.41364 0
M  V30 174 N 16.2591 1.48442 0.529413 0
M  V30 175 C 17.6751 1.34575 0.858004 0
M  V30 176 C 17.8751 0.3572 1.98309 0
M  V30 177 O 16.9311 -0.221379 2.51528 0
M  V30 178 C 18.2441 2.74617 1.22499 0
M  V30 179 C 19.7921 2.83109 1.33484 0
M  V30 180 C 20.2671 4.23854 1.73526 0
M  V30 181 N 21.7581 4.2653 1.80628 0
M  V30 182 C 22.4931 5.32372 2.12997 0
M  V30 183 N 21.9891 6.48491 2.43786 0
M  V30 184 N 23.7821 5.19766 2.14008 0
M  V30 185 H 15.9331 2.1133 -0.212925 0
M  V30 186 H 18.1961 0.947439 -0.0326199 0
M  V30 187 H 17.9021 3.4852 0.471905 0
M  V30 188 H 17.7761 3.08177 2.17501 0
M  V30 189 H 20.1631 2.09462 2.0787 0
M  V30 190 H 20.2441 2.53168 0.366027 0
M  V30 191 H 19.8881 4.98018 0.997013 0
M  V30 192 H 19.8181 4.5124 2.71459 0
M  V30 193 H 22.3091 3.42772 1.59108 0
M  V30 194 H 22.6221 7.24993 2.67592 0
M  V30 195 H 20.9671 6.51765 2.41304 0
M  V30 196 H 24.1581 4.28066 1.89412 0
M  V30 197 H 24.3311 6.02354 2.38902 0
M  V30 198 N 17.7372 -0.778329 1.37039 0
M  V30 199 C 19.1532 -1.07796 1.17695 0
M  V30 200 C 19.3532 -2.01498 0.00860115 0
M  V30 201 O 18.4092 -2.43901 -0.653352 0
M  V30 202 C 19.7222 -1.68178 2.49272 0
M  V30 203 C 21.2702 -1.80467 2.55735 0
M  V30 204 C 21.7452 -2.44263 3.87427 0
M  V30 205 N 23.2362 -2.51721 3.88833 0
M  V30 206 C 23.9712 -3.01919 4.87476 0
M  V30 207 N 23.4672 -3.5234 5.96513 0
M  V30 208 N 25.2602 -3.00733 4.74885 0
M  V30 209 H 17.4112 -0.156032 2.11826 0
M  V30 210 H 19.6742 -0.131844 0.938787 0
M  V30 211 H 19.3802 -1.06796 3.35093 0
M  V30 212 H 19.2542 -2.67554 2.65885 0
M  V30 213 H 21.6412 -2.40984 1.70325 0
M  V30 214 H 21.7222 -0.798656 2.43013 0
M  V30 215 H 21.3662 -1.84388 4.73248 0
M  V30 216 H 21.2962 -3.45458 3.9745 0
M  V30 217 H 23.7872 -2.1603 3.10063 0
M  V30 218 H 24.1002 -3.89027 6.67741 0
M  V30 219 H 22.4452 -3.50462 6.00168 0
M  V30 220 H 25.6362 -2.60638 3.88826 0
M  V30 221 H 25.8092 -3.39545 5.51918 0
M  V30 222 N 19.2153 -1.21501 -1.00376 0
M  V30 223 C 20.4453 -1.05746 -1.77486 0
M  V30 224 C 20.8533 0.395655 -1.85017 0
M  V30 225 O 20.1963 1.28626 -1.31152 0
M  V30 226 C 20.2583 -1.58092 -3.22873 0
M  V30 227 C 19.9223 -3.06568 -3.38917 0
M  V30 228 C 20.9193 -4.04106 -3.271 0
M  V30 229 C 18.6043 -3.45799 -3.64319 0
M  V30 230 C 20.5983 -5.38862 -3.40451 0
M  V30 231 C 18.2853 -4.80707 -3.77311 0
M  V30 232 C 19.2833 -5.77047 -3.65384 0
M  V30 233 O 18.9713 -7.09507 -3.77961 0
M  V30 234 H 18.7033 -0.371778 -0.564586 0
M  V30 235 H 21.2573 -1.61319 -1.27143 0
M  V30 236 H 19.4873 -0.969163 -3.74358 0
M  V30 237 H 21.1763 -1.38162 -3.81662 0
M  V30 238 H 21.9423 -3.75141 -3.07399 0
M  V30 239 H 17.8213 -2.71344 -3.72684 0
M  V30 240 H 21.3653 -6.14041 -3.31058 0
M  V30 241 H 17.2623 -5.09357 -3.96517 0
M  V30 242 H 18.0303 -7.16935 -3.94901 0
M  V30 243 N 20.6934 1.19889 -1.02296 0
M  V30 244 C 21.6414 2.24938 -0.592081 0
M  V30 245 C 22.6354 1.65257 0.372357 0
M  V30 246 O 23.8414 1.78371 0.241583 0
M  V30 247 H 20.2164 0.731787 -0.173182 0
M  V30 248 H 22.1874 2.58603 -1.48885 0
M  V30 249 C 20.9364 3.47668 0.047351 0
M  V30 250 H 20.2594 3.93875 -0.685772 0
M  V30 251 H 21.6994 4.22852 0.311862 0
M  V30 252 C 20.1584 3.11136 1.29212 0
M  V30 253 O 20.6884 3.2325 2.38479 0
M  V30 254 N 18.8944 2.65625 1.17863 0
M  V30 255 H 18.4414 2.55968 0.289493 0
M  V30 256 H 18.3994 2.41553 2.01245 0
M  V30 257 N 22.1715 0.800033 1.35784 0
M  V30 258 C 23.5825 0.439142 1.81462 0
M  V30 259 C 23.9335 -1.03813 1.66485 0
M  V30 260 O 23.0585 -1.80626 1.19177 0
M  V30 261 C 23.6535 0.790314 3.29453 0
M  V30 262 C 22.2125 0.482111 3.733 0
M  V30 263 C 21.3595 1.01938 2.57883 0
M  V30 264 H 24.3105 0.992254 1.23855 0
M  V30 265 H 24.3315 0.0853677 3.80404 0
M  V30 266 H 23.8435 1.86554 3.40322 0
M  V30 267 H 21.9445 -0.584652 3.67984 0
M  V30 268 H 22.0575 1.01015 4.6833 0
M  V30 269 H 20.4215 0.442043 2.50835 0
M  V30 270 H 21.2045 2.10059 2.71533 0
M  V30 271 N 23.6496 -1.47581 0.552962 0
M  V30 272 C 24.5796 -2.32762 -0.185451 0
M  V30 273 C 25.5606 -1.43527 -0.912905 0
M  V30 274 O 26.7456 -1.72388 -0.894201 0
M  V30 275 C 23.8756 -3.25219 -1.21859 0
M  V30 276 C 22.8296 -4.23661 -0.607864 0
M  V30 277 C 22.1556 -5.05413 -1.74533 0
M  V30 278 C 23.4556 -5.20481 0.435582 0
M  V30 279 H 25.1496 -2.94749 0.525684 0
M  V30 280 H 22.6956 -1.41738 0.254251 0
M  V30 281 H 24.6486 -3.8365 -1.7433 0
M  V30 282 H 23.3726 -2.61279 -1.95961 0
M  V30 283 H 22.0316 -3.66451 -0.104489 0
M  V30 284 H 21.6796 -4.3788 -2.47529 0
M  V30 285 H 21.3796 -5.72059 -1.34249 0
M  V30 286 H 22.9036 -5.66701 -2.27338 0
M  V30 287 H 24.3176 -5.733 -0.00290157 0
M  V30 288 H 22.7146 -5.95305 0.757067 0
M  V30 289 H 23.7846 -4.66217 1.33303 0
M  V30 290 N 25.1277 -0.289203 -1.54924 0
M  V30 291 C 26.3557 0.326463 -2.04308 0
M  V30 292 C 26.7707 1.48413 -1.16701 0
M  V30 293 O 26.1277 1.81507 -0.190087 0
M  V30 294 C 26.1787 0.794014 -3.52672 0
M  V30 295 O 25.8997 -0.317564 -4.36948 0
M  V30 296 C 27.4007 1.47605 -4.18004 0
M  V30 297 H 24.6207 0.0726272 -0.667058 0
M  V30 298 H 27.1647 -0.425401 -2.00026 0
M  V30 299 H 25.3197 1.49593 -3.57352 0
M  V30 300 H 25.7337 0.0443186 -5.24481 0
M  V30 301 H 27.2077 1.75447 -5.23376 0
M  V30 302 H 27.6847 2.41224 -3.67025 0
M  V30 303 H 28.2907 0.81762 -4.17367 0
M  V30 304 N 26.6058 1.57591 -0.0167156 0
M  V30 305 C 27.8538 1.90906 0.663285 0
M  V30 306 C 28.1748 0.892509 1.73376 0
M  V30 307 O 27.4448 -0.0677623 1.95783 0
M  V30 308 H 26.0248 0.704637 0.247983 0
M  V30 309 H 28.6868 1.94803 -0.0615909 0
M  V30 310 H 27.7828 2.9116 1.12393 0
M  V30 311 N 28.0839 -0.256276 1.55502 0
M  V30 312 C 29.0159 -1.33981 1.85962 0
M  V30 313 C 30.0289 -1.44743 0.745212 0
M  V30 314 O 31.2179 -1.4626 1.02324 0
M  V30 315 C 28.3179 -2.7194 2.02242 0
M  V30 316 C 27.4909 -2.83562 3.33033 0
M  V30 317 C 26.5499 -4.02304 3.39172 0
M  V30 318 O 25.5759 -3.92273 4.12444 0
M  V30 319 N 26.7779 -5.15045 2.67784 0
M  V30 320 H 29.5429 -1.08191 2.7949 0
M  V30 321 H 27.1039 -0.446388 1.55624 0
M  V30 322 H 29.0959 -3.49697 2.03701 0
M  V30 323 H 27.6659 -2.90479 1.15502 0
M  V30 324 H 26.8859 -1.92555 3.43971 0
M  V30 325 H 28.1739 -2.88271 4.19258 0
M  V30 326 H 27.5719 -5.26085 2.07968 0
M  V30 327 H 26.1289 -5.90972 2.74947 0
M  V30 328 N 29.562 -1.4872 -0.521534 0
M  V30 329 C 30.808 -1.58378 -1.27624 0
M  V30 330 C 31.163 -0.258028 -1.90662 0
M  V30 331 O 30.456 0.739917 -1.76736 0
M  V30 332 C 30.65 -2.66497 -2.38148 0
M  V30 333 C 30.479 -4.09456 -1.85945 0
M  V30 334 C 29.249 -4.76495 -1.68168 0
M  V30 335 C 31.447 -4.95353 -1.3831 0
M  V30 336 N 29.429 -6.0384 -1.1068 0
M  V30 337 C 30.8 -6.13012 -0.928238 0
M  V30 338 C 32.855 -4.81512 -1.26692 0
M  V30 339 C 31.558 -7.18354 -0.368701 0
M  V30 340 C 33.584 -5.86984 -0.721368 0
M  V30 341 C 32.946 -7.03857 -0.276623 0
M  V30 342 H 29.045 -0.634045 -0.457724 0
M  V30 343 H 31.629 -1.85639 -0.587049 0
M  V30 344 H 29.8 -2.41043 -3.04553 0
M  V30 345 H 31.532 -2.65791 -3.05184 0
M  V30 346 H 28.287 -4.32962 -1.91939 0
M  V30 347 H 28.711 -6.71778 -0.839217 0
M  V30 348 H 33.353 -3.91487 -1.5968 0
M  V30 349 H 31.071 -8.08096 -0.0265122 0
M  V30 350 H 34.657 -5.78329 -0.634531 0
M  V30 351 H 33.537 -7.84077 0.138947 0
M  V30 352 N 31.0401 0.771051 -1.3745 0
M  V30 353 C 32.2891 1.52491 -1.3202 0
M  V30 354 C 32.6021 1.9538 0.0927347 0
M  V30 355 O 33.8081 2.70159 0.269503 0
M  V30 356 C 32.2641 2.75366 -2.31736 0
M  V30 357 C 31.8721 2.39573 -3.78562 0
M  V30 358 C 33.6161 3.53307 -2.35318 0
M  V30 359 C 31.5231 3.58954 -4.70007 0
M  V30 360 H 30.4531 0.572506 -0.490666 0
M  V30 361 H 33.1041 0.844474 -1.62914 0
M  V30 362 H 31.4861 3.45303 -1.93861 0
M  V30 363 H 32.6601 1.77415 -4.25277 0
M  V30 364 H 30.9751 1.74805 -3.77932 0
M  V30 365 H 33.5721 4.42039 -3.00842 0
M  V30 366 H 33.9151 3.93217 -1.36698 0
M  V30 367 H 34.4481 2.90367 -2.71904 0
M  V30 368 H 31.1871 3.24125 -5.69757 0
M  V30 369 H 30.7071 4.20214 -4.27996 0
M  V30 370 H 32.3861 4.25758 -4.87175 0
M  V30 371 N 32.5182 1.22032 0.997298 0
M  V30 372 C 33.4482 1.01065 2.10495 0
M  V30 373 C 34.4292 -0.0669542 1.69968 0
M  V30 374 O 35.6142 0.0943987 1.9397 0
M  V30 375 C 32.7442 0.582874 3.42374 0
M  V30 376 C 31.6982 1.60592 3.96729 0
M  V30 377 C 31.0242 1.03412 5.24605 0
M  V30 378 C 32.3242 2.99478 4.27914 0
M  V30 379 H 34.0182 1.93708 2.28292 0
M  V30 380 H 31.5642 0.932761 1.09707 0
M  V30 381 H 33.5172 0.423332 4.19268 0
M  V30 382 H 32.2412 -0.379213 3.24391 0
M  V30 383 H 30.9002 1.75316 3.21963 0
M  V30 384 H 30.5482 0.063518 5.0296 0
M  V30 385 H 30.2482 1.71754 5.61938 0
M  V30 386 H 31.7722 0.886066 6.04137 0
M  V30 387 H 33.1862 2.88153 4.95622 0
M  V30 388 H 31.5832 3.64903 4.76409 0
M  V30 389 H 32.6532 3.49742 3.3587 0
M  V30 390 N 33.9963 -1.19345 1.0293 0
M  V30 391 C 35.2423 -1.89318 0.727083 0
M  V30 392 C 35.5753 -1.79446 -0.742483 0
M  V30 393 O 34.8503 -1.1871 -1.54072 0
M  V30 394 C 35.1333 -3.40238 1.17942 0
M  V30 395 C 34.9863 -3.58979 2.71024 0
M  V30 396 C 36.3053 -4.33479 0.760548 0
M  V30 397 H 33.4243 -0.687475 0.265606 0
M  V30 398 H 36.0663 -1.40477 1.2793 0
M  V30 399 H 34.2163 -3.81964 0.709608 0
M  V30 400 H 35.8883 -3.26421 3.25955 0
M  V30 401 H 34.1313 -3.02018 3.11396 0
M  V30 402 H 34.8023 -4.64823 2.9773 0
M  V30 403 H 37.2783 -3.99469 1.16464 0
M  V30 404 H 36.1543 -5.37664 1.10493 0
M  V30 405 H 36.4153 -4.40813 -0.337063 0
M  V30 406 N 35.4744 -0.807222 -1.35358 0
M  V30 407 C 36.6994 -0.399309 -2.0352 0
M  V30 408 C 37.1244 0.981986 -1.60433 0
M  V30 409 O 36.4824 1.63601 -0.781299 0
M  V30 410 C 36.5304 -0.491552 -3.57234 0
M  V30 411 O 35.6344 0.494754 -4.09421 0
M  V30 412 H 34.9754 -0.166682 -0.642739 0
M  V30 413 H 37.5054 -1.09328 -1.72941 0
M  V30 414 H 37.5154 -0.361588 -4.06395 0
M  V30 415 H 36.1904 -1.49907 -3.87944 0
M  V30 416 H 34.7674 0.324977 -3.71481 0
M  V30 417 N 36.9525 1.47285 -0.560781 0
M  V30 418 C 38.3635 1.86258 -0.128343 0
M  V30 419 C 38.7145 1.46699 1.30284 0
M  V30 420 O 37.8395 0.871698 1.98067 0
M  V30 421 C 38.4345 3.38044 -0.22614 0
M  V30 422 C 36.9935 3.76096 0.151283 0
M  V30 423 C 36.1405 2.71335 -0.572084 0
M  V30 424 H 39.0915 1.38752 -0.770297 0
M  V30 425 H 39.1125 3.76441 0.554322 0
M  V30 426 H 38.6245 3.66806 -1.26788 0
M  V30 427 H 36.7255 3.52951 1.19399 0
M  V30 428 H 36.8385 4.78641 -0.209765 0
M  V30 429 H 35.2025 2.54696 -0.0147653 0
M  V30 430 H 35.9855 3.02938 -1.61504 0
M  V30 431 N 38.4306 0.297415 1.54768 0
M  V30 432 C 39.3806 -0.595275 2.20092 0
M  V30 433 C 40.3646 -1.10163 1.17273 0
M  V30 434 O 41.5566 -1.043 1.43006 0
M  V30 435 C 38.6856 -1.7684 2.94249 0
M  V30 436 C 37.7716 -1.27818 4.0438 0
M  V30 437 N 38.1626 -0.505695 5.03266 0
M  V30 438 C 36.4606 -1.55923 4.17857 0
M  V30 439 C 37.1616 -0.245094 5.81183 0
M  V30 440 N 36.1376 -0.823881 5.3732 0
M  V30 441 H 39.9396 0.00250837 2.939 0
M  V30 442 H 37.4536 0.102007 1.62079 0
M  V30 443 H 39.4506 -2.41944 3.39513 0
M  V30 444 H 38.1106 -2.36992 2.21957 0
M  V30 445 H 39.1216 -0.150928 5.1768 0
M  V30 446 H 35.7986 -2.16849 3.56767 0
M  V30 447 H 37.1886 0.375084 6.70852 0
M  V30 448 N 39.9087 -1.5758 0.0250728 0
M  V30 449 C 41.3247 -1.56124 -0.331282 0
M  V30 450 C 41.5247 -1.03029 -1.73169 0
M  V30 451 O 40.5807 -0.675215 -2.43305 0
M  V30 452 C 41.8937 -3.00139 -0.183584 0
M  V30 453 C 43.4417 -3.11946 -0.256654 0
M  V30 454 C 43.9167 -4.57793 -0.137792 0
M  V30 455 N 45.4077 -4.6279 -0.194904 0
M  V30 456 C 46.1427 -5.7326 -0.126655 0
M  V30 457 N 45.6387 -6.928 -0.00755288 0
M  V30 458 N 47.4317 -5.61811 -0.180348 0
M  V30 459 H 39.5827 -1.90424 0.94087 0
M  V30 460 H 41.8457 -0.875761 0.362968 0
M  V30 461 H 41.5517 -3.4292 0.780927 0
M  V30 462 H 41.4257 -3.64899 -0.955448 0
M  V30 463 H 43.8127 -2.69079 -1.21162 0
M  V30 464 H 43.8937 -2.49915 0.545517 0
M  V30 465 H 43.5377 -5.01339 0.813739 0
M  V30 466 H 43.4677 -5.17798 -0.958775 0
M  V30 467 H 45.9587 -3.76807 -0.287267 0
M  V30 468 H 46.2717 -7.72791 0.0379428 0
M  V30 469 H 44.6167 -6.94995 0.0271731 0
M  V30 470 H 47.8077 -4.6731 -0.271767 0
M  V30 471 H 47.9807 -6.47882 -0.123697 0
M  V30 472 N 41.3868 0.248026 -1.55636 0
M  V30 473 C 42.3498 1.29044 -1.89421 0
M  V30 474 C 43.3498 1.41134 -0.770581 0
M  V30 475 O 44.5398 1.39854 -1.03858 0
M  V30 476 C 41.6718 2.66831 -2.12165 0
M  V30 477 H 42.8648 1.00305 -2.82629 0
M  V30 478 H 40.4178 0.487265 -1.48511 0
M  V30 479 H 41.1528 3.00711 -1.21422 0
M  V30 480 H 40.9378 2.59438 -2.93997 0
M  V30 481 H 42.4278 3.42103 -2.3949 0
M  V30 482 N 42.8649 1.48995 0.513639 0
M  V30 483 C 43.8119 1.6473 1.61656 0
M  V30 484 C 44.7819 0.488984 1.58739 0
M  V30 485 O 45.9669 0.714478 1.76918 0
M  V30 486 C 43.1069 1.7082 2.99858 0
M  V30 487 C 42.2199 2.9787 3.12885 0
M  V30 488 C 41.3549 2.95017 4.41744 0
M  V30 489 C 40.3939 4.16702 4.48359 0
M  V30 490 N 39.5309 4.11832 5.68629 0
M  V30 491 H 44.3709 2.58909 1.47547 0
M  V30 492 H 41.9079 1.28382 0.71808 0
M  V30 493 H 43.8659 1.72331 3.79944 0
M  V30 494 H 42.4959 0.801181 3.12699 0
M  V30 495 H 41.5479 3.06029 2.25944 0
M  V30 496 H 42.8599 3.8786 3.13633 0
M  V30 497 H 42.0139 2.95021 5.30139 0
M  V30 498 H 40.7529 2.02784 4.43542 0
M  V30 499 H 39.7579 4.16955 3.58369 0
M  V30 500 H 40.9829 5.10113 4.48287 0
M  V30 501 H 38.9289 3.22428 5.71293 0
M  V30 502 H 38.8459 4.95543 5.7094 0
M  V30 503 H 40.1139 4.1592 6.59266 0
M  V30 504 N 44.343 -0.763751 1.37857 0
M  V30 505 C 45.759 -1.06542 1.18832 0
M  V30 506 C 45.959 -2.01478 0.0299722 0
M  V30 507 O 45.015 -2.4458 -0.627447 0
M  V30 508 C 46.328 -1.65525 2.51042 0
M  V30 509 C 47.876 -1.77745 2.57635 0
M  V30 510 C 48.351 -2.4014 3.89996 0
M  V30 511 N 49.842 -2.47582 3.91481 0
M  V30 512 C 50.577 -2.96732 4.9065 0
M  V30 513 N 50.073 -3.45993 6.00217 0
M  V30 514 N 51.866 -2.95679 4.78048 0
M  V30 515 H 44.017 -0.133556 2.1198 0
M  V30 516 H 46.28 -0.121879 0.940133 0
M  V30 517 H 45.986 -1.03236 3.36207 0
M  V30 518 H 45.86 -2.64719 2.68707 0
M  V30 519 H 48.247 -2.39164 1.72872 0
M  V30 520 H 48.328 -0.772836 2.43846 0
M  V30 521 H 47.972 -1.79358 4.75177 0
M  V30 522 H 47.902 -3.41223 4.01092 0
M  V30 523 H 50.393 -2.1273 3.12337 0
M  V30 524 H 50.706 -3.81922 6.7183 0
M  V30 525 H 49.051 -3.44077 6.03851 0
M  V30 526 H 52.242 -2.56499 3.91568 0
M  V30 527 H 52.415 -3.33672 5.55488 0
M  V30 528 N 45.8211 -1.22559 -0.990812 0
M  V30 529 C 47.2321 -1.04791 -1.54518 0
M  V30 530 C 47.5831 0.387998 -1.92325 0
M  V30 531 O 46.7081 1.27328 -1.74976 0
M  V30 532 C 47.3031 -1.896 -2.80779 0
M  V30 533 C 45.8621 -1.76124 -3.32652 0
M  V30 534 C 45.0091 -1.8594 -2.05722 0
M  V30 535 H 47.9601 -1.36374 -0.811662 0
M  V30 536 H 47.9811 -1.41464 -3.53225 0
M  V30 537 H 47.4931 -2.94101 -2.53231 0
M  V30 538 H 45.5941 -0.743643 -3.65104 0
M  V30 539 H 45.7071 -2.58913 -4.03114 0
M  V30 540 H 44.0711 -1.29403 -2.19379 0
M  V30 541 H 44.8541 -2.91976 -1.80568 0
M  V30 542 N 47.2992 1.18797 -1.03562 0
M  V30 543 C 48.5452 1.89192 -0.746867 0
M  V30 544 C 48.9002 1.78531 0.717245 0
M  V30 545 O 48.1932 1.17137 1.51622 0
M  V30 546 C 48.3872 3.38692 -1.14117 0
M  V30 547 C 48.2162 3.63902 -2.64207 0
M  V30 548 C 46.9862 3.81553 -3.31279 0
M  V30 549 C 49.1842 3.64903 -3.62423 0
M  V30 550 N 47.1662 3.94455 -4.70402 0
M  V30 551 C 48.5372 3.83458 -4.87196 0
M  V30 552 C 50.5922 3.47965 -3.56125 0
M  V30 553 C 49.2952 3.86829 -6.06429 0
M  V30 554 C 51.3212 3.52616 -4.7478 0
M  V30 555 C 50.6832 3.71663 -5.9837 0
M  V30 556 H 46.7822 0.711141 -0.325273 0
M  V30 557 H 49.3662 1.42727 -1.32428 0
M  V30 558 H 47.5372 3.83864 -0.591889 0
M  V30 559 H 49.2692 3.96634 -0.803966 0
M  V30 560 H 46.0242 3.80723 -2.81686 0
M  V30 561 H 46.4482 4.0474 -5.42692 0
M  V30 562 H 51.0902 3.32189 -2.61553 0
M  V30 563 H 48.8082 4.01395 -7.01362 0
M  V30 564 H 52.3942 3.40791 -4.71543 0
M  V30 565 H 51.2742 3.75145 -6.88648 0
M  V30 566 N 48.7773 0.814389 1.34928 0
M  V30 567 C 49.7093 0.187834 2.28429 0
M  V30 568 C 50.7223 -0.617374 1.5064 0
M  V30 569 O 51.9113 -0.448454 1.72775 0
M  V30 570 C 49.0113 -0.755962 3.30361 0
M  V30 571 C 48.1843 0.00456686 4.374 0
M  V30 572 C 47.2433 -0.858876 5.19143 0
M  V30 573 O 46.2693 -0.306968 5.68372 0
M  V30 574 N 47.4713 -2.17988 5.38016 0
M  V30 575 H 50.2363 0.991105 2.82838 0
M  V30 576 H 47.7973 0.670561 1.4736 0
M  V30 577 H 49.7893 -1.338 3.81942 0
M  V30 578 H 48.3593 -1.46001 2.7641 0
M  V30 579 H 47.5793 0.767865 3.86649 0
M  V30 580 H 48.8673 0.528422 5.06049 0
M  V30 581 H 48.2653 -2.65212 4.99679 0
M  V30 582 H 46.8223 -2.71098 5.92747 0
M  V30 583 N 50.2554 -1.46986 0.568584 0
M  V30 584 C 51.5034 -2.02041 0.0487022 0
M  V30 585 C 51.8244 -1.44408 -1.31039 0
M  V30 586 O 51.0944 -0.623477 -1.85714 0
M  V30 587 H 49.6744 -0.746849 0.015014 0
M  V30 588 H 52.3364 -1.80257 0.741168 0
M  V30 589 H 51.4324 -3.12085 -0.0308961 0
M  V30 590 N 51.7335 -0.305618 -1.54608 0
M  V30 591 C 52.6965 0.555591 -2.22364 0
M  V30 592 C 53.6965 1.05768 -1.21119 0
M  V30 593 O 54.8865 0.952972 -1.45822 0
M  V30 594 C 52.0185 1.76974 -2.91364 0
M  V30 595 H 53.2115 -0.0364572 -2.99878 0
M  V30 596 H 50.7645 -0.0565007 -1.56198 0
M  V30 597 H 51.4995 2.40151 -2.17941 0
M  V30 598 H 51.2845 1.41732 -3.65588 0
M  V30 599 H 52.7745 2.38148 -3.43038 0
M  V30 600 N 53.2116 1.57565 -0.0334293 0
M  V30 601 C 54.1436 2.0739 0.975811 0
M  V30 602 C 55.1566 0.998166 1.2861 0
M  V30 603 O 56.3456 1.27426 1.25 0
M  V30 604 C 53.4456 2.4871 2.30209 0
M  V30 605 C 52.6186 3.79413 2.17634 0
M  V30 606 C 51.6776 4.07237 3.33233 0
M  V30 607 O 50.7036 4.77425 3.09927 0
M  V30 608 N 51.9056 3.5775 4.5716 0
M  V30 609 H 54.6706 2.94598 0.55066 0
M  V30 610 H 52.2316 1.61173 0.15323 0
M  V30 611 H 54.2236 2.64413 3.06378 0
M  V30 612 H 52.7936 1.66845 2.64351 0
M  V30 613 H 52.0136 3.73465 1.26165 0
M  V30 614 H 53.3016 4.65038 2.0644 0
M  V30 615 H 52.6996 3.00976 4.78989 0
M  V30 616 H 51.2566 3.78724 5.30482 0
M  V30 617 N 54.6897 -0.239769 1.55765 0
M  V30 618 C 55.5997 -1.31831 1.94056 0
M  V30 619 C 56.6157 -1.52275 0.841925 0
M  V30 620 O 57.7917 -1.65759 1.14394 0
M  V30 621 C 54.8567 -2.65156 2.23368 0
M  V30 622 C 53.9177 -2.53173 3.46701 0
M  V30 623 C 53.1507 -3.8014 3.74606 0
M  V30 624 O 53.3737 -4.82343 3.04469 0
M  V30 625 O 52.3077 -3.78344 4.68123 0
M  V30 626 H 56.1337 -1.02347 2.85935 0
M  V30 627 H 53.7187 -0.441123 1.42739 0
M  V30 628 H 55.6007 -3.43929 2.43497 0
M  V30 629 H 54.2757 -2.94358 1.34666 0
M  V30 630 H 53.1827 -1.72662 3.31871 0
M  V30 631 H 54.5157 -2.28915 4.35728 0
M  V30 632 N 56.1678 -1.49265 -0.50573 0
M  V30 633 C 57.3958 -1.62215 -1.28429 0
M  V30 634 C 57.8108 -0.291697 -1.86533 0
M  V30 635 O 57.1678 0.722233 -1.67601 0
M  V30 636 C 57.2188 -2.68735 -2.41793 0
M  V30 637 O 56.9398 -3.96619 -1.86078 0
M  V30 638 C 58.4408 -2.92346 -3.3324 0
M  V30 639 H 55.6608 -0.546239 -0.389697 0
M  V30 640 H 58.2048 -1.95265 -0.607609 0
M  V30 641 H 56.3598 -2.38476 -3.053 0
M  V30 642 H 56.7738 -4.55256 -2.60465 0
M  V30 643 H 58.2478 -3.70623 -4.09075 0
M  V30 644 H 58.7248 -2.02081 -3.89948 0
M  V30 645 H 59.3308 -3.24003 -2.75503 0
M  V30 646 N 57.6459 0.756429 -1.3826 0
M  V30 647 C 59.0569 1.33359 -1.30661 0
M  V30 648 C 59.4079 1.96161 0.0388875 0
M  V30 649 O 58.5329 1.94874 0.940918 0
M  V30 650 C 59.1279 2.42477 -2.36622 0
M  V30 651 C 57.6869 2.95922 -2.3261 0
M  V30 652 C 56.8339 1.69275 -2.19639 0
M  V30 653 H 59.7849 0.55552 -1.4866 0
M  V30 654 H 59.8059 3.22345 -2.02174 0
M  V30 655 H 59.3179 1.96739 -3.34538 0
M  V30 656 H 57.4189 3.45996 -1.38267 0
M  V30 657 H 57.5319 3.50494 -3.26636 0
M  V30 658 H 55.8959 1.92793 -1.66442 0
M  V30 659 H 56.6789 1.25619 -3.19491 0
M  V30 660 N 59.124 1.23083 0.984299 0
M  V30 661 C 60.087 1.00979 2.05757 0
M  V30 662 C 61.087 -0.0269573 1.60777 0
M  V30 663 O 62.277 0.212403 1.729 0
M  V30 664 C 59.409 0.527072 3.36801 0
M  V30 665 H 60.602 1.9622 2.26799 0
M  V30 666 H 58.155 1.05072 1.15714 0
M  V30 667 H 58.89 -0.429294 3.21446 0
M  V30 668 H 58.675 1.27515 3.70786 0
M  V30 669 H 60.165 0.392942 4.15747 0
M  V30 670 N 60.6021 -1.18246 1.0419 0
M  V30 671 C 61.5491 -2.2192 0.634037 0
M  V30 672 C 62.5191 -1.62179 -0.358765 0
M  V30 673 O 63.7041 -1.89122 -0.252466 0
M  V30 674 C 60.8441 -3.451 0.00445535 0
M  V30 675 C 59.9571 -4.19174 1.04487 0
M  V30 676 C 59.0921 -5.29813 0.383676 0
M  V30 677 C 58.1311 -5.9566 1.4091 0
M  V30 678 N 57.2681 -6.97834 0.772784 0
M  V30 679 H 62.1081 -2.56164 1.52263 0
M  V30 680 H 59.6451 -1.25843 0.761701 0
M  V30 681 H 61.6031 -4.15485 -0.377919 0
M  V30 682 H 60.2331 -3.11472 -0.847652 0
M  V30 683 H 59.2851 -3.47604 1.54518 0
M  V30 684 H 60.5971 -4.64267 1.82368 0
M  V30 685 H 59.7511 -6.06677 -0.0528366 0
M  V30 686 H 58.4901 -4.85825 -0.427208 0
M  V30 687 H 57.4951 -5.17535 1.85574 0
M  V30 688 H 58.7201 -6.4173 2.22171 0
M  V30 689 H 56.6661 -6.55998 -0.0177708 0
M  V30 690 H 56.5831 -7.41186 1.48928 0
M  V30 691 H 57.8511 -7.78665 0.36071 0
M  V30 692 N 62.0802 -0.821533 -1.34494 0
M  V30 693 C 63.0122 -0.199946 -2.28326 0
M  V30 694 C 64.0252 0.609377 -1.50965 0
M  V30 695 O 65.2142 0.439285 -1.7301 0
M  V30 696 C 62.3142 0.738431 -3.30757 0
M  V30 697 C 61.4872 -0.0277632 -4.37391 0
M  V30 698 C 60.5462 0.831332 -5.19591 0
M  V30 699 O 59.5722 0.276822 -5.68526 0
M  V30 700 N 60.7742 2.15132 -5.39165 0
M  V30 701 H 63.5392 -1.00609 -2.82308 0
M  V30 702 H 61.1002 -0.678366 -1.47003 0
M  V30 703 H 63.0922 1.31773 -3.82646 0
M  V30 704 H 61.6622 1.44533 -2.7718 0
M  V30 705 H 60.8822 -0.788359 -3.86236 0
M  V30 706 H 62.1702 -0.555251 -5.05761 0
M  V30 707 H 61.5682 2.62559 -5.01078 0
M  V30 708 H 60.1252 2.6795 -5.94177 0
M  V30 709 N 63.5583 1.46682 -0.576371 0
M  V30 710 C 64.8043 2.02712 -0.0596221 0
M  V30 711 C 65.1373 1.44765 1.29448 0
M  V30 712 O 64.4123 0.610355 1.84675 0
M  V30 713 C 64.6953 3.60098 0.0129503 0
M  V30 714 C 64.5483 4.28441 -1.3696 0
M  V30 715 C 65.8673 4.34224 0.71678 0
M  V30 716 H 62.9863 0.736637 -0.0231407 0
M  V30 717 H 65.6283 1.74898 -0.742351 0
M  V30 718 H 63.7783 3.83926 0.594378 0
M  V30 719 H 65.4503 4.15896 -1.9957 0
M  V30 720 H 63.6933 3.8805 -1.93907 0
M  V30 721 H 64.3643 5.3716 -1.27135 0
M  V30 722 H 66.8403 4.15503 0.222908 0
M  V30 723 H 65.7163 5.43936 0.73657 0
M  V30 724 H 65.9773 4.04823 1.77682 0
M  V30 725 N 65.0364 0.313813 1.54444 0
M  V30 726 C 65.9664 -0.549454 2.26943 0
M  V30 727 C 66.9474 -1.12741 1.27372 0
M  V30 728 O 68.1324 -1.15436 1.56167 0
M  V30 729 C 65.2624 -1.71523 3.01989 0
M  V30 730 C 64.2164 -1.26703 4.08816 0
M  V30 731 C 63.5424 -2.51898 4.71647 0
M  V30 732 C 64.8424 -0.388962 5.2085 0
M  V30 733 H 66.5364 0.0552661 2.99349 0
M  V30 734 H 64.0824 0.0280207 1.43973 0
M  V30 735 H 66.0354 -2.32535 3.51433 0
M  V30 736 H 64.7594 -2.34639 2.27183 0
M  V30 737 H 63.4184 -0.679896 3.6024 0
M  V30 738 H 63.0664 -3.13356 3.93468 0
M  V30 739 H 62.7664 -2.22605 5.43802 0
M  V30 740 H 64.2904 -3.1369 5.23861 0
M  V30 741 H 65.7044 -0.905107 5.6611 0
M  V30 742 H 64.1014 -0.18924 5.99802 0
M  V30 743 H 65.1714 0.582699 4.81386 0
M  V30 744 N 66.5145 -1.57545 0.0417849 0
M  V30 745 C 67.9255 -1.80011 -0.495259 0
M  V30 746 C 68.2765 -0.953199 -1.71489 0
M  V30 747 O 67.4015 -0.167138 -2.15754 0
M  V30 748 C 67.9965 -3.26482 -0.905265 0
M  V30 749 C 66.5555 -3.499 -1.38734 0
M  V30 750 C 65.7025 -2.74979 -0.358056 0
M  V30 751 H 68.6535 -1.56425 0.267736 0
M  V30 752 H 68.6745 -3.36887 -1.76882 0
M  V30 753 H 68.1865 -3.88096 -0.017401 0
M  V30 754 H 66.2875 -2.93553 -2.29471 0
M  V30 755 H 66.4005 -4.58615 -1.38598 0
M  V30 756 H 64.7645 -2.40834 -0.828912 0
M  V30 757 H 65.5475 -3.39315 0.521561 0
M  V30 758 N 67.9926 0.231505 -1.5589 0
M  V30 759 C 68.9556 1.27028 -1.90779 0
M  V30 760 C 69.9556 1.40308 -0.785507 0
M  V30 761 O 71.1456 1.38744 -1.05336 0
M  V30 762 C 68.2776 2.64566 -2.14983 0
M  V30 763 H 69.4706 0.973017 -2.83677 0
M  V30 764 H 67.0236 0.471486 -1.49019 0
M  V30 765 H 67.7586 2.99406 -1.24604 0
M  V30 766 H 67.5436 2.56305 -2.96732 0
M  V30 767 H 69.0336 3.39543 -2.43105 0
M  V30 768 N 69.4707 1.49531 0.497807 0
M  V30 769 C 70.4207 1.62829 1.59596 0
M  V30 770 C 71.4047 0.483824 1.53453 0
M  V30 771 O 72.5967 0.736937 1.60929 0
M  V30 772 C 69.7257 1.7011 2.98191 0
M  V30 773 C 68.8117 2.90144 3.09317 0
M  V30 774 N 69.2027 4.1418 2.90324 0
M  V30 775 C 67.5007 2.88148 3.40422 0
M  V30 776 C 68.2017 4.94886 3.05717 0
M  V30 777 N 67.1777 4.28314 3.34736 0
M  V30 778 H 70.9797 2.56446 1.4357 0
M  V30 779 H 68.4937 1.46347 0.704001 0
M  V30 780 H 70.4907 1.77735 3.77115 0
M  V30 781 H 69.1507 0.776315 3.15283 0
M  V30 782 H 70.1617 4.44109 2.66436 0
M  V30 783 H 66.8387 2.05061 3.63671 0
M  V30 784 H 68.2287 6.03432 2.95499 0
M  V30 785 N 70.9488 -0.749086 1.3866 0
M  V30 786 C 72.2258 -1.4992 1.25632 0
M  V30 787 C 72.6058 -2.10633 -0.140317 0
M  V30 788 O 71.9538 -1.97437 -1.15025 0
M  V30 789 C 72.1638 -2.56195 2.36992 0
M  V30 790 C 73.5118 -3.22972 2.75634 0
M  V30 791 O 74.5358 -2.66502 2.36337 0
M  V30 792 O 73.3948 -4.25122 3.43415 0
M  V30 793 H 70.4888 -0.665067 0.491544 0
M  V30 794 H 73.0348 -0.784113 1.50498 0
M  V30 795 H 71.8068 -2.09612 3.30422 0
M  V30 796 H 71.4298 -3.35279 2.13714 0
M  V30 797 N 72.4269 -1.23603 -0.977757 0
M  V30 798 C 73.8379 -1.06424 -1.53398 0
M  V30 799 C 74.1889 0.367578 -1.92726 0
M  V30 800 O 73.3139 1.25465 -1.76316 0
M  V30 801 C 73.9089 -1.92568 -2.78753 0
M  V30 802 C 72.4679 -1.79642 -3.30765 0
M  V30 803 C 71.6149 -1.88111 -2.03739 0
M  V30 804 H 74.5659 -1.37227 -0.797152 0
M  V30 805 H 74.5869 -1.45203 -3.51705 0
M  V30 806 H 74.0989 -2.96771 -2.50098 0
M  V30 807 H 72.1999 -0.782325 -3.64294 0
M  V30 808 H 72.3129 -2.63174 -4.00345 0
M  V30 809 H 70.6769 -1.31723 -2.17994 0
M  V30 810 H 71.4599 -2.93875 -1.77461 0
M  V30 811 N 73.905 1.17692 -1.04816 0
M  V30 812 C 75.182 1.83768 -0.669963 0
M  V30 813 C 75.562 1.93232 0.849986 0
M  V30 814 O 74.91 1.46397 1.75443 0
M  V30 815 C 75.12 3.21641 -1.35455 0
M  V30 816 C 76.468 3.97592 -1.49017 0
M  V30 817 O 77.492 3.31107 -1.31326 0
M  V30 818 O 76.351 5.16729 -1.77914 0
M  V30 819 H 73.445 0.792799 -0.235368 0
M  V30 820 H 75.991 1.25021 -1.14751 0
M  V30 821 H 74.763 3.097 -2.39168 0
M  V30 822 H 74.386 3.88052 -0.866107 0
M  V30 823 N 75.3831 0.828654 1.34056 0
M  V30 824 C 76.6231 0.425394 1.99924 0
M  V30 825 C 76.9871 -0.994294 1.64249 0
M  V30 826 O 78.1881 -1.50074 2.23005 0
M  V30 827 C 76.4591 0.628071 3.51838 0
M  V30 828 S 78.0181 0.318511 4.37642 0
M  V30 829 H 74.8361 0.160465 0.692656 0
M  V30 830 H 77.4381 1.07572 1.63244 0
M  V30 831 H 76.1421 1.66089 3.7529 0
M  V30 832 H 75.6731 -0.0367799 3.93383 0
M  V30 833 H 77.6881 -0.865632 4.88591 0
M  V30 834 N 76.8612 -1.46375 0.584142 0
M  V30 835 C 78.1082 -2.02378 0.0702675 0
M  V30 836 C 78.4362 -1.45545 -1.29023 0
M  V30 837 O 77.6912 -0.610967 -1.85918 0
M  V30 838 C 77.9902 -3.57373 -0.0439342 0
M  V30 839 C 77.6562 -4.33252 1.24915 0
M  V30 840 C 76.3182 -4.53701 1.60341 0
M  V30 841 C 78.6702 -4.7681 2.1048 0
M  V30 842 C 75.9982 -5.1496 2.81128 0
M  V30 843 C 78.3502 -5.39404 3.30494 0
M  V30 844 C 77.0142 -5.5808 3.66201 0
M  V30 845 H 76.2842 -0.740554 0.0257127 0
M  V30 846 H 78.9312 -1.75727 0.761065 0
M  V30 847 H 77.2362 -3.83169 -0.817869 0
M  V30 848 H 78.9332 -3.98384 -0.457318 0
M  V30 849 H 75.5232 -4.17633 0.963364 0
M  V30 850 H 79.7072 -4.60766 1.84414 0
M  V30 851 H 74.9632 -5.27611 3.08928 0
M  V30 852 H 79.1372 -5.72114 3.97063 0
M  V30 853 H 76.7642 -6.05318 4.59885 0
M  V30 854 N 78.3393 -0.321999 -1.54275 0
M  V30 855 C 79.2693 0.537411 -2.27231 0
M  V30 856 C 80.2503 1.12064 -1.27968 0
M  V30 857 O 81.4353 1.14606 -1.56777 0
M  V30 858 C 78.5653 1.69919 -3.02894 0
M  V30 859 C 77.5193 1.24534 -4.09482 0
M  V30 860 C 76.8453 2.49394 -4.72977 0
M  V30 861 C 78.1453 0.361335 -5.21049 0
M  V30 862 H 79.8393 -0.0711406 -2.99315 0
M  V30 863 H 77.3853 -0.0356555 -1.43956 0
M  V30 864 H 79.3383 2.30668 -3.52662 0
M  V30 865 H 78.0623 2.33431 -2.28424 0
M  V30 866 H 76.7213 0.660782 -3.60596 0
M  V30 867 H 76.3693 3.11265 -3.95124 0
M  V30 868 H 76.0693 2.19718 -5.44975 0
M  V30 869 H 77.5933 3.10908 -5.25517 0
M  V30 870 H 79.0073 0.875072 -5.66582 0
M  V30 871 H 77.4043 0.157428 -5.99893 0
M  V30 872 H 78.4743 -0.60822 -4.8107 0
M  V30 873 N 79.8174 1.5752 -0.0501392 0
M  V30 874 C 81.0574 1.94521 0.627783 0
M  V30 875 C 81.4214 0.928265 1.68069 0
M  V30 876 O 82.6224 1.18517 2.41261 0
M  V30 877 C 80.8934 3.36319 1.20932 0
M  V30 878 S 82.4524 3.95272 1.90539 0
M  V30 879 H 79.2704 0.680456 0.206158 0
M  V30 880 H 81.8724 1.95139 -0.118829 0
M  V30 881 H 80.5764 4.08132 0.430865 0
M  V30 882 H 80.1074 3.39193 1.99277 0
M  V30 883 H 82.1224 3.80415 3.18589 0
M  V30 884 N 81.2955 -0.223234 1.56011 0
M  V30 885 C 82.2585 -1.26014 1.9145 0
M  V30 886 C 83.2585 -1.3989 0.792937 0
M  V30 887 O 84.4485 -1.38184 1.0607 0
M  V30 888 C 81.5805 -2.63422 2.16383 0
M  V30 889 H 82.7735 -0.95796 2.84189 0
M  V30 890 H 80.3265 -0.463576 1.49267 0
M  V30 891 H 81.0615 -2.98741 1.2619 0
M  V30 892 H 80.8465 -2.54728 2.98088 0
M  V30 893 H 82.3365 -3.38249 2.44903 0
M  V30 894 N 82.7736 -1.49793 -0.48987 0
M  V30 895 C 84.0216 -1.59525 -1.24081 0
M  V30 896 C 84.3426 -0.288953 -1.92847 0
M  V30 897 O 83.6126 0.692436 -1.83254 0
M  V30 898 H 82.1926 -0.587796 -0.460983 0
M  V30 899 H 84.8546 -1.86477 -0.566778 0
M  V30 900 H 83.9506 -2.39696 -1.99881 0
M  V30 901 N 84.2517 0.741722 -1.39055 0
M  V30 902 C 85.1997 1.87702 -1.3737 0
M  V30 903 C 86.1937 1.67427 -0.257812 0
M  V30 904 O 87.3997 1.7485 -0.427489 0
M  V30 905 H 83.7747 0.617757 -0.428812 0
M  V30 906 H 85.7457 1.86239 -2.33147 0
M  V30 907 C 84.4947 3.25315 -1.22741 0
M  V30 908 H 83.8177 3.41509 -2.07873 0
M  V30 909 H 85.2577 4.04964 -1.25618 0
M  V30 910 C 83.7167 3.36838 0.0647316 0
M  V30 911 O 84.2467 3.88073 1.03741 0
M  V30 912 N 82.4527 2.90329 0.125544 0
M  V30 913 H 81.9997 2.48823 -0.666682 0
M  V30 914 H 81.9577 2.98418 0.989639 0
M  V30 915 N 85.7298 1.2412 0.971189 0
M  V30 916 C 86.9758 1.08041 1.71625 0
M  V30 917 C 87.3088 -0.380407 1.90438 0
M  V30 918 O 86.5838 -1.28127 1.46334 0
M  V30 919 C 86.8668 1.81682 3.10908 0
M  V30 920 C 86.7198 3.35493 2.99608 0
M  V30 921 C 88.0388 1.58671 4.10501 0
M  V30 922 H 85.1578 0.39388 0.622919 0
M  V30 923 H 87.7998 1.52743 1.13003 0
M  V30 924 H 85.9498 1.43684 3.60953 0
M  V30 925 H 87.6218 3.83068 2.57015 0
M  V30 926 H 85.8648 3.64052 2.35899 0
M  V30 927 H 86.5358 3.82217 3.98264 0
M  V30 928 H 89.0118 1.91719 3.69301 0
M  V30 929 H 87.8878 2.1266 5.06031 0
M  V30 930 H 88.1488 0.524161 4.38982 0
M  V30 931 N 87.2079 -1.17134 1.05439 0
M  V30 932 C 88.6239 -1.39454 0.776201 0
M  V30 933 C 88.8239 -1.91454 -0.628307 0
M  V30 934 O 87.8799 -2.10777 -1.39031 0
M  V30 935 C 89.1929 -2.38305 1.83388 0
M  V30 936 C 90.7409 -2.52006 1.85639 0
M  V30 937 C 91.2159 -3.54133 2.90437 0
M  V30 938 N 92.7069 -3.61653 2.89415 0
M  V30 939 C 93.4419 -4.4044 3.67152 0
M  V30 940 N 92.9379 -5.22721 4.54681 0
M  V30 941 N 94.7309 -4.35337 3.55581 0
M  V30 942 H 86.8819 -0.817134 1.96053 0
M  V30 943 H 89.1449 -0.421626 0.849079 0
M  V30 944 H 88.8509 -2.07173 2.84204 0
M  V30 945 H 88.7249 -3.37841 1.67761 0
M  V30 946 H 91.1119 -2.82447 0.85486 0
M  V30 947 H 91.1929 -1.52537 2.05344 0
M  V30 948 H 90.8369 -3.24431 3.90777 0
M  V30 949 H 90.7669 -4.53313 2.67983 0
M  V30 950 H 93.2579 -3.02909 2.25952 0
M  V30 951 H 93.5709 -5.80027 5.10674 0
M  V30 952 H 91.9159 -5.22093 4.58741 0
M  V30 953 H 95.1069 -3.70112 2.86592 0
M  V30 954 H 95.2799 -4.96494 4.1641 0
M  V30 955 N 88.686 -0.835752 -1.33615 0
M  V30 956 C 89.932 -0.430596 -1.98176 0
M  V30 957 C 90.265 1.00684 -1.66061 0
M  V30 958 O 89.54 1.70339 -0.938877 0
M  V30 959 C 89.823 -0.648065 -3.5422 0
M  V30 960 C 89.676 -2.13255 -3.96033 0
M  V30 961 C 90.995 -0.0922113 -4.40003 0
M  V30 962 H 88.114 -0.157924 -0.719881 0
M  V30 963 H 90.756 -1.05069 -1.58305 0
M  V30 964 H 88.906 -0.120237 -3.88314 0
M  V30 965 H 90.578 -2.725 -3.72211 0
M  V30 966 H 88.821 -2.61823 -3.45878 0
M  V30 967 H 89.492 -2.23547 -5.04708 0
M  V30 968 H 91.968 -0.543343 -4.12537 0
M  V30 969 H 90.844 -0.274083 -5.48215 0
M  V30 970 H 91.105 1.00378 -4.30554 0
M  V30 971 N 90.1641 1.46063 -0.591896 0
M  V30 972 C 91.3921 2.06717 -0.0868936 0
M  V30 973 C 91.8071 1.43916 1.22203 0
M  V30 974 O 91.1641 0.547698 1.74088 0
M  V30 975 C 91.2151 3.6142 0.0758725 0
M  V30 976 O 90.9361 4.21874 -1.18126 0
M  V30 977 C 92.4371 4.39025 0.61416 0
M  V30 978 H 89.6571 0.668162 -0.0616518 0
M  V30 979 H 92.2011 1.8755 -0.815175 0
M  V30 980 H 90.3561 3.79983 0.754413 0
M  V30 981 H 90.7701 5.14861 -1.00092 0
M  V30 982 H 92.2441 5.4783 0.677193 0
M  V30 983 H 92.7211 4.07708 1.63312 0
M  V30 984 H 93.3271 4.2529 -0.0298142 0
M  V30 985 N 91.6422 0.330177 1.54103 0
M  V30 986 C 92.8902 -0.269871 2.0029 0
M  V30 987 C 93.2112 -1.52133 1.21986 0
M  V30 988 O 92.4812 -1.93212 0.323438 0
M  V30 989 H 91.0612 -0.10271 0.739905 0
M  V30 990 H 93.7232 0.448249 1.89675 0
M  V30 991 H 92.8192 -0.52166 3.07709 0
M  V30 992 N 93.1203 -1.57491 0.0584922 0
M  V30 993 C 94.3973 -1.84346 -0.653918 0
M  V30 994 C 94.7773 -0.948355 -1.88599 0
M  V30 995 O 94.1253 -0.0112403 -2.28497 0
M  V30 996 C 94.3353 -3.34239 -1.00425 0
M  V30 997 C 95.6833 -4.01431 -1.38342 0
M  V30 998 O 96.7073 -3.38907 -1.09637 0
M  V30 999 O 95.5663 -5.11683 -1.91943 0
M  V30 1000 H 92.6603 -0.761112 -0.323478 0
M  V30 1001 H 95.2063 -1.6947 0.0884125 0
M  V30 1002 H 93.9783 -3.91089 -0.128625 0
M  V30 1003 H 93.6013 -3.54329 -1.80378 0
M  V30 1004 N 94.5984 0.214957 -1.56127 0
M  V30 1005 C 95.5454 1.26642 -1.92952 0
M  V30 1006 C 96.5154 1.46244 -0.78753 0
M  V30 1007 O 97.7004 1.59704 -1.04399 0
M  V30 1008 C 94.8404 2.6104 -2.25726 0
M  V30 1009 C 93.9534 2.49183 -3.52891 0
M  V30 1010 C 93.0884 3.76149 -3.7508 0
M  V30 1011 C 92.1274 3.59041 -4.95738 0
M  V30 1012 N 91.2644 4.77972 -5.14283 0
M  V30 1013 H 96.1044 0.945384 -2.82607 0
M  V30 1014 H 93.6414 0.455489 -1.3987 0
M  V30 1015 H 95.5994 3.39313 -2.42739 0
M  V30 1016 H 94.2294 2.91227 -1.39236 0
M  V30 1017 H 93.2814 1.6231 -3.44034 0
M  V30 1018 H 94.5934 2.32466 -4.41318 0
M  V30 1019 H 93.7474 4.62865 -3.92226 0
M  V30 1020 H 92.4864 3.95799 -2.84947 0
M  V30 1021 H 91.4914 2.7071 -4.78535 0
M  V30 1022 H 92.7164 3.40856 -5.87362 0
M  V30 1023 H 90.6624 4.97923 -4.27093 0
M  V30 1024 H 90.5794 4.64006 -5.96853 0
M  V30 1025 H 91.8474 5.66096 -5.35869 0
M  V30 1026 N 96.0765 1.50051 0.48192 0
M  V30 1027 C 97.0245 1.68635 1.60203 0
M  V30 1028 C 98.0185 0.552184 1.60148 0
M  V30 1029 O 99.2245 0.732377 1.64427 0
M  V30 1030 H 95.5995 0.532081 0.531407 0
M  V30 1031 H 97.5705 2.62616 1.41688 0
M  V30 1032 C 96.3195 1.78775 2.9822 0
M  V30 1033 H 95.6425 2.6543 2.98976 0
M  V30 1034 H 97.0825 1.95806 3.7608 0
M  V30 1035 C 95.5415 0.536849 3.32595 0
M  V30 1036 O 96.0715 -0.328897 4.00351 0
M  V30 1037 N 94.2775 0.394091 2.87915 0
M  V30 1038 H 93.8245 1.09962 2.32951 0
M  V30 1039 H 93.7825 -0.441737 3.11281 0
M  V30 1040 N 97.5546 -0.734337 1.39446 0
M  V30 1041 C 98.9656 -1.31264 1.32766 0
M  V30 1042 C 99.3166 -1.96198 -0.00767497 0
M  V30 1043 O 98.4416 -1.96346 -0.909796 0
M  V30 1044 C 99.0366 -2.38682 2.4045 0
M  V30 1045 C 97.5956 -2.92184 2.37288 0
M  V30 1046 C 96.7426 -1.6576 2.22304 0
M  V30 1047 H 99.6936 -0.531799 1.49525 0
M  V30 1048 H 99.7146 -3.19087 2.07276 0
M  V30 1049 H 99.2266 -1.91392 3.37625 0
M  V30 1050 H 97.3276 -3.43752 1.43754 0
M  V30 1051 H 97.4406 -3.45253 3.3217 0
M  V30 1052 H 95.8046 -1.9012 1.69489 0
M  V30 1053 H 96.5876 -1.20521 3.21449 0
M  V30 1054 N 99.0327 -1.24633 -0.964593 0
M  V30 1055 C 100.31 -0.995809 -1.68354 0
M  V30 1056 C 100.69 0.480964 -2.05548 0
M  V30 1057 O 100.038 1.45599 -1.76105 0
M  V30 1058 C 100.248 -1.92177 -2.91323 0
M  V30 1059 C 101.596 -2.19446 -3.63495 0
M  V30 1060 O 102.62 -1.89855 -3.01386 0
M  V30 1061 O 101.479 -2.69714 -4.75307 0
M  V30 1062 H 98.5727 -0.376854 -0.736146 0
M  V30 1063 H 101.119 -1.35745 -1.0184 0
M  V30 1064 H 99.8907 -2.91938 -2.60553 0
M  V30 1065 H 99.5137 -1.56349 -3.65569 0
M  V30 1066 N 100.511 1.16574 -1.06058 0
M  V30 1067 C 101.741 1.90675 -0.795397 0
M  V30 1068 C 102.149 1.77547 0.653735 0
M  V30 1069 O 101.492 1.11611 1.45907 0
M  V30 1070 C 101.554 3.42011 -1.10764 0
M  V30 1071 C 101.218 3.78924 -2.55471 0
M  V30 1072 C 102.215 3.81042 -3.53699 0
M  V30 1073 C 99.8998 4.09626 -2.90708 0
M  V30 1074 C 101.894 4.13346 -4.85205 0
M  V30 1075 C 99.5808 4.41597 -4.22416 0
M  V30 1076 C 100.579 4.43436 -5.19474 0
M  V30 1077 O 100.267 4.74649 -6.48817 0
M  V30 1078 H 99.9988 0.611554 -0.288058 0
M  V30 1079 H 102.553 1.48711 -1.41683 0
M  V30 1080 H 100.783 3.84312 -0.429128 0
M  V30 1081 H 102.472 3.97384 -0.827077 0
M  V30 1082 H 103.238 3.57437 -3.27817 0
M  V30 1083 H 99.1168 4.07361 -2.15819 0
M  V30 1084 H 102.661 4.14696 -5.60957 0
M  V30 1085 H 98.5578 4.64667 -4.48056 0
M  V30 1086 H 99.3258 4.9247 -6.5377 0
M  V30 1087 N 101.989 0.842826 1.3317 0
M  V30 1088 C 103.217 0.454055 2.01856 0
M  V30 1089 C 103.632 -0.94587 1.63397 0
M  V30 1090 O 102.989 -1.61534 0.849302 0
M  V30 1091 C 103.04 0.569715 3.56982 0
M  V30 1092 O 102.761 1.91448 3.94055 0
M  V30 1093 C 104.262 0.178412 4.42941 0
M  V30 1094 H 101.482 0.17979 0.646465 0
M  V30 1095 H 104.026 1.1365 1.70012 0
M  V30 1096 H 102.181 -0.0648587 3.87346 0
M  V30 1097 H 102.595 1.90282 4.88767 0
M  V30 1098 H 104.069 0.310376 5.51127 0
M  V30 1099 H 104.546 -0.880056 4.30293 0
M  V30 1100 H 105.152 0.787579 4.17944 0
M  V30 1101 N 103.467 -1.45747 0.599634 0
M  V30 1102 C 104.715 -2.01893 0.0915472 0
M  V30 1103 C 105.036 -1.47155 -1.27946 0
M  V30 1104 O 104.306 -0.66273 -1.84349 0
M  V30 1105 H 102.886 -0.746363 0.0308524 0
M  V30 1106 H 105.548 -1.78645 0.779237 0
M  V30 1107 H 104.644 -3.1208 0.0353086 0
M  V30 1108 N 104.945 -0.338344 -1.53925 0
M  V30 1109 C 106.173 0.261298 -2.05243 0
M  V30 1110 C 106.588 1.44625 -1.21363 0
M  V30 1111 O 105.945 1.80811 -0.247736 0
M  V30 1112 C 105.996 0.681412 -3.5502 0
M  V30 1113 O 105.717 -0.456414 -4.35716 0
M  V30 1114 C 107.218 1.34232 -4.22489 0
M  V30 1115 H 104.438 0.0513685 -0.669031 0
M  V30 1116 H 106.982 -0.488822 -1.98572 0
M  V30 1117 H 105.137 1.38148 -3.61931 0
M  V30 1118 H 105.551 -0.122564 -5.24357 0
M  V30 1119 H 107.025 1.58708 -5.28693 0
M  V30 1120 H 107.502 2.29426 -3.74514 0
M  V30 1121 H 108.108 0.684424 -4.19757 0
M  V30 1122 N 106.423 1.57458 -0.0668435 0
M  V30 1123 C 107.653 1.97337 0.611677 0
M  V30 1124 C 108.061 0.943744 1.63982 0
M  V30 1125 O 107.404 -0.0785584 1.83532 0
M  V30 1126 C 107.466 3.33511 1.34205 0
M  V30 1127 C 107.13 4.54598 0.467941 0
M  V30 1128 C 108.127 5.19186 -0.272439 0
M  V30 1129 C 105.812 5.0075 0.39427 0
M  V30 1130 C 107.806 6.28274 -1.07476 0
M  V30 1131 C 105.493 6.09711 -0.411729 0
M  V30 1132 C 106.491 6.73335 -1.14492 0
M  V30 1133 O 106.179 7.80199 -1.93763 0
M  V30 1134 H 105.911 0.654042 0.170893 0
M  V30 1135 H 108.465 2.04961 -0.134289 0
M  V30 1136 H 106.695 3.22487 2.13398 0
M  V30 1137 H 108.384 3.58029 1.91233 0
M  V30 1138 H 109.15 4.84477 -0.225086 0
M  V30 1139 H 105.029 4.51009 0.954569 0
M  V30 1140 H 108.573 6.77866 -1.64755 0
M  V30 1141 H 104.47 6.43854 -0.460664 0
M  V30 1142 H 105.238 7.97053 -1.86142 0
M  V30 1143 N 107.901 -0.206675 1.56239 0
M  V30 1144 C 109.147 -0.930218 1.80208 0
M  V30 1145 C 109.48 -1.83387 0.638981 0
M  V30 1146 O 108.755 -1.91119 -0.361066 0
M  V30 1147 C 109.038 -1.75641 3.1436 0
M  V30 1148 C 108.891 -0.878257 4.41142 0
M  V30 1149 C 110.21 -2.73129 3.45092 0
M  V30 1150 H 107.329 -0.336742 0.655571 0
M  V30 1151 H 109.971 -0.198222 1.88963 0
M  V30 1152 H 108.121 -2.38048 3.07027 0
M  V30 1153 H 109.793 -0.269787 4.6051 0
M  V30 1154 H 108.036 -0.184385 4.33408 0
M  V30 1155 H 108.707 -1.49106 5.3148 0
M  V30 1156 H 111.183 -2.20856 3.52649 0
M  V30 1157 H 110.059 -3.28028 4.40101 0
M  V30 1158 H 110.32 -3.51606 2.68003 0
M  V30 1159 N 109.379 -1.50304 -0.473955 0
M  V30 1160 C 110.626 -1.6115 -1.22625 0
M  V30 1161 C 110.954 -0.310517 -1.92005 0
M  V30 1162 O 110.209 0.703419 -1.82621 0
M  V30 1163 C 110.508 -2.73938 -2.29549 0
M  V30 1164 C 110.174 -4.14519 -1.7744 0
M  V30 1165 C 108.836 -4.5277 -1.62949 0
M  V30 1166 C 111.188 -5.02392 -1.3875 0
M  V30 1167 C 108.516 -5.76639 -1.08187 0
M  V30 1168 C 110.868 -6.26805 -0.854309 0
M  V30 1169 C 109.532 -6.63861 -0.696011 0
M  V30 1170 H 108.802 -0.589691 -0.448715 0
M  V30 1171 H 111.449 -1.84228 -0.522705 0
M  V30 1172 H 109.754 -2.44937 -3.05799 0
M  V30 1173 H 111.451 -2.79534 -2.87509 0
M  V30 1174 H 108.041 -3.8434 -1.89685 0
M  V30 1175 H 112.225 -4.73474 -1.4878 0
M  V30 1176 H 107.481 -6.04027 -0.946666 0
M  V30 1177 H 111.655 -6.94258 -0.545843 0
M  V30 1178 H 109.282 -7.59722 -0.26952 0
M  V30 1179 N 110.857 0.726932 -1.39834 0
M  V30 1180 C 112.085 1.51613 -1.40787 0
M  V30 1181 C 112.5 1.88799 -0.00451505 0
M  V30 1182 O 111.857 1.54662 0.968809 0
M  V30 1183 C 111.908 2.79863 -2.28821 0
M  V30 1184 O 111.629 2.44253 -3.63692 0
M  V30 1185 C 113.13 3.73837 -2.38245 0
M  V30 1186 H 110.35 0.468264 -0.480593 0
M  V30 1187 H 112.894 0.897607 -1.83748 0
M  V30 1188 H 111.049 3.38027 -1.89252 0
M  V30 1189 H 111.463 3.26695 -4.1033 0
M  V30 1190 H 112.937 4.60699 -3.04073 0
M  V30 1191 H 113.414 4.16153 -1.40403 0
M  V30 1192 H 114.02 3.21589 -2.78317 0
M  V30 1193 N 112.336 1.25143 0.95797 0
M  V30 1194 C 113.284 1.05019 2.07542 0
M  V30 1195 C 114.278 -0.0178751 1.69391 0
M  V30 1196 O 115.484 0.137472 1.79474 0
M  V30 1197 H 111.859 0.32265 0.679265 0
M  V30 1198 H 113.83 1.99759 2.21673 0
M  V30 1199 C 112.579 0.682074 3.40944 0
M  V30 1200 H 111.902 1.49573 3.70767 0
M  V30 1201 H 113.342 0.580945 4.20001 0
M  V30 1202 C 111.801 -0.611608 3.31302 0
M  V30 1203 O 112.331 -1.65465 3.66038 0
M  V30 1204 N 110.537 -0.595982 2.84423 0
M  V30 1205 H 110.084 0.253192 2.56353 0
M  V30 1206 H 110.042 -1.46173 2.78354 0
M  V30 1207 N 113.814 -1.1601 1.06675 0
M  V30 1208 C 115.091 -1.82679 0.699114 0
M  V30 1209 C 115.471 -1.94559 -0.819137 0
M  V30 1210 O 114.819 -1.49169 -1.73092 0
M  V30 1211 C 115.029 -3.19445 1.40555 0
M  V30 1212 C 116.377 -3.95171 1.55323 0
M  V30 1213 O 117.401 -3.28976 1.36577 0
M  V30 1214 O 116.26 -5.13833 1.86112 0
M  V30 1215 H 113.354 -0.788954 0.247951 0
M  V30 1216 H 115.9 -1.23179 1.16726 0
M  V30 1217 H 114.672 -3.05856 2.44065 0
M  V30 1218 H 114.295 -3.86625 0.927733 0
M  V30 1219 N 115.292 -0.849877 -1.32721 0
M  V30 1220 C 116.539 -0.450923 -1.97416 0
M  V30 1221 C 116.867 0.992376 -1.67279 0
M  V30 1222 O 116.122 1.71048 -0.950845 0
M  V30 1223 C 116.421 -0.631272 -3.51781 0
M  V30 1224 C 116.087 -2.04432 -4.01894 0
M  V30 1225 C 114.749 -2.4308 -4.1529 0
M  V30 1226 C 117.101 -2.96679 -4.28522 0
M  V30 1227 C 114.429 -3.73257 -4.52654 0
M  V30 1228 C 116.781 -4.26349 -4.67343 0
M  V30 1229 C 115.445 -4.64939 -4.78945 0
M  V30 1230 H 114.715 -0.165004 -0.722395 0
M  V30 1231 H 117.362 -1.07901 -1.58207 0
M  V30 1232 H 115.667 0.0800767 -3.91718 0
M  V30 1233 H 117.364 -0.302709 -3.99856 0
M  V30 1234 H 113.954 -1.73419 -3.91949 0
M  V30 1235 H 118.138 -2.68054 -4.17685 0
M  V30 1236 H 113.394 -4.02946 -4.59831 0
M  V30 1237 H 117.568 -4.97895 -4.86902 0
M  V30 1238 H 115.195 -5.65855 -5.07654 0
M  V30 1239 N 116.77 1.45427 -0.607355 0
M  V30 1240 C 117.733 2.28974 0.101693 0
M  V30 1241 C 118.733 1.39754 0.795329 0
M  V30 1242 O 119.923 1.61878 0.643527 0
M  V30 1243 C 117.055 3.20768 1.15414 0
M  V30 1244 H 118.248 2.93147 -0.632844 0
M  V30 1245 H 115.801 1.51945 -0.366391 0
M  V30 1246 H 116.536 2.61395 1.91945 0
M  V30 1247 H 116.321 3.86489 0.66098 0
M  V30 1248 H 117.811 3.83589 1.65073 0
M  V30 1249 N 118.248 0.346503 1.53744 0
M  V30 1250 C 119.211 -0.496439 2.23759 0
M  V30 1251 C 120.211 -1.0252 1.2388 0
M  V30 1252 O 121.401 -0.913974 1.48297 0
M  V30 1253 C 118.533 -1.69187 2.95954 0
M  V30 1254 H 119.726 0.115952 2.99676 0
M  V30 1255 H 117.279 0.0978939 1.55993 0
M  V30 1256 H 118.014 -2.34288 2.24231 0
M  V30 1257 H 117.799 -1.31989 3.69217 0
M  V30 1258 H 119.289 -2.28969 3.49232 0
M  V30 1259 N 119.726 -1.57421 0.075193 0
M  V30 1260 C 120.656 -2.15942 -0.888324 0
M  V30 1261 C 121.637 -1.08737 -1.30806 0
M  V30 1262 O 122.822 -1.36787 -1.37851 0
M  V30 1263 C 119.952 -2.72379 -2.1547 0
M  V30 1264 C 118.906 -3.8478 -1.87425 0
M  V30 1265 C 118.232 -4.27834 -3.20721 0
M  V30 1266 C 119.532 -5.08869 -1.17684 0
M  V30 1267 H 121.226 -2.96705 -0.400799 0
M  V30 1268 H 118.772 -1.42723 -0.191342 0
M  V30 1269 H 120.725 -3.11965 -2.83295 0
M  V30 1270 H 119.449 -1.88841 -2.6647 0
M  V30 1271 H 118.108 -3.45703 -1.22004 0
M  V30 1272 H 117.756 -3.41214 -3.6957 0
M  V30 1273 H 117.456 -5.03605 -3.02746 0
M  V30 1274 H 118.98 -4.70039 -3.89738 0
M  V30 1275 H 120.394 -5.4575 -1.75584 0
M  V30 1276 H 118.791 -5.8994 -1.09956 0
M  V30 1277 H 119.861 -4.84648 -0.156453 0
M  V30 1278 N 121.204 0.198386 -1.56346 0
M  V30 1279 C 122.137 1.27381 -1.89339 0
M  V30 1280 C 123.115 1.44106 -0.753134 0
M  V30 1281 O 124.299 1.59549 -1.00381 0
M  V30 1282 C 121.426 2.6409 -2.12071 0
M  V30 1283 C 120.472 2.64253 -3.34772 0
M  V30 1284 S 121.305 2.16013 -4.89999 0
M  V30 1285 C 122.461 3.54553 -5.15794 0
M  V30 1286 H 122.694 0.992058 -2.8026 0
M  V30 1287 H 120.227 0.401726 -1.49082 0
M  V30 1288 H 122.185 3.42786 -2.2585 0
M  V30 1289 H 120.846 2.89478 -1.21906 0
M  V30 1290 H 120.039 3.64768 -3.47794 0
M  V30 1291 H 119.641 1.93637 -3.1997 0
M  V30 1292 H 121.933 4.50396 -5.06112 0
M  V30 1293 H 122.876 3.46428 -6.1757 0
M  V30 1294 H 123.284 3.49313 -4.43442 0
M  V30 1295 N 122.682 1.50554 0.465978 0
M  V30 1296 C 123.907 1.65838 1.24549 0
M  V30 1297 C 124.332 0.343486 1.84937 0
M  V30 1298 O 123.69 -0.69324 1.67523 0
M  V30 1299 C 123.738 2.75533 2.32624 0
M  V30 1300 O 122.842 2.37142 3.37398 0
M  V30 1301 H 122.183 0.553893 0.366194 0
M  V30 1302 H 124.713 1.96959 0.553927 0
M  V30 1303 H 124.723 2.98763 2.77857 0
M  V30 1304 H 123.398 3.70962 1.88043 0
M  V30 1305 H 121.975 2.24377 2.97841 0
M  V30 1306 N 124.16 -0.719506 1.40217 0
M  V30 1307 C 125.437 -1.47221 1.28784 0
M  V30 1308 C 125.817 -2.10883 -0.0956067 0
M  V30 1309 O 125.165 -1.99833 -1.10811 0
M  V30 1310 C 125.375 -2.5111 2.42373 0
M  V30 1311 C 126.723 -3.17053 2.82423 0
M  V30 1312 O 127.747 -2.61429 2.41937 0
M  V30 1313 O 126.606 -4.17742 3.52355 0
M  V30 1314 H 123.7 -0.654491 0.50554 0
M  V30 1315 H 126.246 -0.752014 1.52128 0
M  V30 1316 H 125.018 -2.02556 3.34793 0
M  V30 1317 H 124.641 -3.3067 2.20778 0
M  V30 1318 N 125.638 -1.25649 -0.95132 0
M  V30 1319 C 126.866 -1.13343 -1.73092 0
M  V30 1320 C 127.281 0.312434 -1.86197 0
M  V30 1321 O 126.638 1.21465 -1.36207 0
M  V30 1322 C 126.689 -1.78602 -3.14299 0
M  V30 1323 O 126.41 -3.17537 -3.01831 0
M  V30 1324 C 127.911 -1.72119 -4.08522 0
M  V30 1325 H 125.131 -0.395181 -0.542285 0
M  V30 1326 H 127.675 -1.66076 -1.19328 0
M  V30 1327 H 125.83 -1.29832 -3.64996 0
M  V30 1328 H 126.244 -3.49676 -3.90931 0
M  V30 1329 H 127.718 -2.22435 -5.052 0
M  V30 1330 H 128.195 -0.685635 -4.33815 0
M  V30 1331 H 128.801 -2.20393 -3.63741 0
M  V30 1332 N 127.117 1.15442 -1.07289 0
M  V30 1333 C 128.528 1.67803 -0.818475 0
M  V30 1334 C 128.879 1.8489 0.656507 0
M  V30 1335 O 128.004 1.55176 1.50829 0
M  V30 1336 C 128.599 3.04805 -1.47917 0
M  V30 1337 C 127.158 3.54245 -1.27229 0
M  V30 1338 C 126.305 2.29986 -1.54925 0
M  V30 1339 H 129.256 0.996646 -1.23502 0
M  V30 1340 H 129.277 3.69702 -0.90005 0
M  V30 1341 H 128.789 2.92336 -2.55267 0
M  V30 1342 H 126.89 3.71956 -0.21899 0
M  V30 1343 H 127.003 4.35723 -1.99203 0
M  V30 1344 H 125.367 2.35496 -0.970242 0
M  V30 1345 H 126.15 2.20105 -2.63455 0
M  V30 1346 N 128.595 0.856903 1.32268 0
M  V30 1347 C 129.872 0.382583 1.91822 0
M  V30 1348 C 130.252 -1.13407 1.78051 0
M  V30 1349 O 129.6 -1.95673 1.18001 0
M  V30 1350 C 129.81 0.849446 3.38505 0
M  V30 1351 C 131.158 0.867936 4.15634 0
M  V30 1352 O 132.182 0.794232 3.47232 0
M  V30 1353 O 131.041 0.972286 5.37781 0
M  V30 1354 H 128.135 0.112014 0.819379 0
M  V30 1355 H 130.681 0.943952 1.41024 0
M  V30 1356 H 129.453 1.89267 3.42482 0
M  V30 1357 H 129.076 0.265652 3.96712 0
M  V30 1358 N 130.073 -1.45103 0.615059 0
M  V30 1359 C 131.036 -2.29025 -0.0895485 0
M  V30 1360 C 132.036 -1.40174 -0.787906 0
M  V30 1361 O 133.226 -1.62217 -0.634933 0
M  V30 1362 C 130.358 -3.21376 -1.13711 0
M  V30 1363 H 131.551 -2.92807 0.648382 0
M  V30 1364 H 129.104 -1.51749 0.374444 0
M  V30 1365 H 129.839 -2.6241 -1.90556 0
M  V30 1366 H 129.624 -3.86834 -0.640475 0
M  V30 1367 H 131.114 -3.84459 -1.63036 0
M  V30 1368 N 131.551 -0.354651 -1.53558 0
M  V30 1369 C 132.962 0.126902 -1.86268 0
M  V30 1370 C 133.313 1.49075 -1.27558 0
M  V30 1371 O 132.438 2.08105 -0.5934 0
M  V30 1372 C 133.033 0.237046 -3.3797 0
M  V30 1373 C 131.592 0.662842 -3.70518 0
M  V30 1374 C 130.739 -0.196652 -2.76602 0
M  V30 1375 H 133.69 -0.573849 -1.47962 0
M  V30 1376 H 133.711 1.06259 -3.65362 0
M  V30 1377 H 133.223 -0.755725 -3.80671 0
M  V30 1378 H 131.324 1.66424 -3.33367 0
M  V30 1379 H 131.437 0.445034 -4.77029 0
M  V30 1380 H 129.801 0.332763 -2.52517 0
M  V30 1381 H 130.584 -1.18676 -3.22135 0
M  V30 1382 N 133.029 1.57378 -0.0835403 0
M  V30 1383 C 133.939 2.16897 0.894021 0
M  V30 1384 C 134.955 1.13528 1.31861 0
M  V30 1385 O 136.131 1.45848 1.3889 0
M  V30 1386 C 133.196 2.72831 2.13925 0
M  V30 1387 C 132.257 3.91115 1.76997 0
M  V30 1388 C 131.49 4.44371 2.95584 0
M  V30 1389 O 131.713 3.96596 4.09961 0
M  V30 1390 O 130.647 5.35549 2.74719 0
M  V30 1391 H 134.473 3.00814 0.417679 0
M  V30 1392 H 132.058 1.48741 0.140181 0
M  V30 1393 H 133.94 3.0863 2.86924 0
M  V30 1394 H 132.615 1.91967 2.60635 0
M  V30 1395 H 131.522 3.60148 1.01214 0
M  V30 1396 H 132.855 4.73307 1.3506 0
M  V30 1397 N 134.507 -0.190092 1.56449 0
M  V30 1398 C 135.732 -0.929864 1.85387 0
M  V30 1399 C 136.157 -1.7585 0.667704 0
M  V30 1400 O 135.515 -1.77198 -0.383459 0
M  V30 1401 C 135.563 -1.79773 3.12593 0
M  V30 1402 O 134.667 -2.89713 2.93496 0
M  V30 1403 H 134.008 -0.261574 0.610307 0
M  V30 1404 H 136.538 -0.193896 2.03679 0
M  V30 1405 H 136.548 -2.20139 3.43515 0
M  V30 1406 H 135.223 -1.18892 3.98544 0
M  V30 1407 H 133.8 -2.53065 2.73884 0
M  V30 1408 N 135.985 -1.50799 -0.457987 0
M  V30 1409 C 136.935 -1.67003 -1.55222 0
M  V30 1410 C 137.919 -0.52434 -1.52117 0
M  V30 1411 O 139.111 -0.779345 -1.58919 0
M  V30 1412 C 136.24 -1.77956 -2.93576 0
M  V30 1413 C 135.326 -2.98243 -3.01516 0
M  V30 1414 N 135.717 -4.21732 -2.79241 0
M  V30 1415 C 134.015 -2.97072 -3.32662 0
M  V30 1416 C 134.716 -5.02817 -2.92489 0
M  V30 1417 N 133.692 -4.37038 -3.23262 0
M  V30 1418 H 137.494 -2.60163 -1.36721 0
M  V30 1419 H 135.008 -1.48163 -0.664952 0
M  V30 1420 H 137.005 -1.87671 -3.72271 0
M  V30 1421 H 135.665 -0.859634 -3.13114 0
M  V30 1422 H 136.676 -4.51016 -2.54567 0
M  V30 1423 H 133.353 -2.14631 -3.58106 0
M  V30 1424 H 134.743 -6.11054 -2.79396 0
M  V30 1425 N 137.463 0.71206 -1.40597 0
M  V30 1426 C 138.74 1.46536 -1.29563 0
M  V30 1427 C 139.12 2.10931 0.0844217 0
M  V30 1428 O 138.468 2.00418 1.0975 0
M  V30 1429 C 138.678 2.49821 -2.43701 0
M  V30 1430 C 140.026 3.15551 -2.841 0
M  V30 1431 O 141.05 2.60142 -2.4332 0
M  V30 1432 O 139.909 4.15867 -3.54566 0
M  V30 1433 H 137.003 0.651801 -0.509004 0
M  V30 1434 H 139.549 0.743935 -1.52524 0
M  V30 1435 H 138.321 2.00778 -3.35863 0
M  V30 1436 H 137.944 3.29495 -2.22528 0
M  V30 1437 N 138.941 1.26152 0.944643 0
M  V30 1438 C 140.352 1.10454 1.50522 0
M  V30 1439 C 140.703 -0.31635 1.93633 0
M  V30 1440 O 139.828 -1.20746 1.79581 0
M  V30 1441 C 140.423 1.99891 2.73549 0
M  V30 1442 C 138.982 1.88348 3.25886 0
M  V30 1443 C 138.129 1.93447 1.9868 0
M  V30 1444 H 141.08 1.39292 0.760489 0
M  V30 1445 H 141.101 1.54477 3.47732 0
M  V30 1446 H 140.613 3.03297 2.42141 0
M  V30 1447 H 138.714 0.878636 3.62092 0
M  V30 1448 H 138.827 2.73696 3.93227 0
M  V30 1449 H 137.191 1.37456 2.14425 0
M  V30 1450 H 137.974 2.98476 1.69607 0
M  V30 1451 N 140.419 -1.14872 1.07899 0
M  V30 1452 C 141.349 -2.2193 0.725887 0
M  V30 1453 C 142.33 -1.67622 -0.28927 0
M  V30 1454 O 143.515 -1.93533 -0.160787 0
M  V30 1455 C 140.645 -3.47061 0.128856 0
M  V30 1456 C 139.599 -4.14363 1.07178 0
M  V30 1457 C 138.925 -5.33636 0.337229 0
M  V30 1458 C 140.225 -4.63492 2.40775 0
M  V30 1459 H 141.919 -2.51724 1.62097 0
M  V30 1460 H 139.465 -1.20991 0.780838 0
M  V30 1461 H 141.418 -4.21199 -0.130147 0
M  V30 1462 H 140.142 -3.16617 -0.80134 0
M  V30 1463 H 138.801 -3.42173 1.3158 0
M  V30 1464 H 138.449 -4.99449 -0.596606 0
M  V30 1465 H 138.149 -5.79609 0.965788 0
M  V30 1466 H 139.673 -6.10539 0.0861567 0
M  V30 1467 H 141.087 -5.2913 2.20669 0
M  V30 1468 H 139.484 -5.20148 2.99276 0
M  V30 1469 H 140.554 -3.78834 3.02676 0
M  V30 1470 N 141.898 -0.863906 -1.31812 0
M  V30 1471 C 142.831 -0.259963 -2.26714 0
M  V30 1472 C 143.809 0.607392 -1.50829 0
M  V30 1473 O 144.993 0.562155 -1.79922 0
M  V30 1474 C 142.12 0.632456 -3.32743 0
M  V30 1475 C 141.166 -0.162743 -4.26189 0
M  V30 1476 S 141.999 -1.53726 -5.12961 0
M  V30 1477 C 143.155 -0.650803 -6.22507 0
M  V30 1478 H 143.388 -1.06445 -2.77591 0
M  V30 1479 H 140.921 -0.662071 -1.39485 0
M  V30 1480 H 142.879 1.14167 -3.94305 0
M  V30 1481 H 141.54 1.41083 -2.80632 0
M  V30 1482 H 140.733 0.517366 -5.01338 0
M  V30 1483 H 140.335 -0.60385 -3.69093 0
M  V30 1484 H 142.627 0.141134 -6.77353 0
M  V30 1485 H 143.57 -1.37322 -6.94657 0
M  V30 1486 H 143.978 -0.221041 -5.64067 0
M  V30 1487 N 143.376 1.44774 -0.622745 0
M  V30 1488 C 144.792 1.56986 -0.287652 0
M  V30 1489 C 144.992 1.61167 1.20944 0
M  V30 1490 O 144.048 1.55015 1.99315 0
M  V30 1491 C 145.361 2.84551 -0.972188 0
M  V30 1492 C 146.909 2.9825 -0.949536 0
M  V30 1493 C 147.384 4.28605 -1.61437 0
M  V30 1494 N 148.875 4.35399 -1.58057 0
M  V30 1495 C 149.61 5.34964 -2.064 0
M  V30 1496 N 149.106 6.40981 -2.62897 0
M  V30 1497 N 150.899 5.26419 -1.97078 0
M  V30 1498 H 143.05 1.40304 -1.59463 0
M  V30 1499 H 145.313 0.671794 -0.668878 0
M  V30 1500 H 145.019 2.87417 -2.02693 0
M  V30 1501 H 144.893 3.73807 -0.504771 0
M  V30 1502 H 147.28 2.94941 0.0967067 0
M  V30 1503 H 147.361 2.10364 -1.45536 0
M  V30 1504 H 147.005 4.32672 -2.66002 0
M  V30 1505 H 146.935 5.15334 -1.08344 0
M  V30 1506 H 149.426 3.59397 -1.16801 0
M  V30 1507 H 149.739 7.13225 -2.97539 0
M  V30 1508 H 148.084 6.4169 -2.66943 0
M  V30 1509 H 151.275 4.42504 -1.52669 0
M  V30 1510 H 151.448 6.03861 -2.35066 0
M  V30 1511 N 144.854 0.36279 1.53368 0
M  V30 1512 C 146.094 -0.227882 2.03126 0
M  V30 1513 C 146.458 -1.4622 1.24434 0
M  V30 1514 O 147.659 -2.12831 1.64184 0
M  V30 1515 C 145.93 -0.515427 3.53664 0
M  V30 1516 S 147.489 -1.08017 4.25297 0
M  V30 1517 H 144.307 -0.0665377 0.70788 0
M  V30 1518 H 146.909 0.50501 1.88865 0
M  V30 1519 H 145.613 0.390436 4.08539 0
M  V30 1520 H 145.144 -1.27747 3.72081 0
M  V30 1521 H 147.159 -2.36462 4.36234 0
M  V30 1522 N 146.332 -1.57332 0.0918853 0
M  V30 1523 C 147.264 -2.10869 -0.898168 0
M  V30 1524 C 148.277 -1.04521 -1.24817 0
M  V30 1525 O 149.466 -1.31977 -1.20184 0
M  V30 1526 C 146.566 -2.57083 -2.2082 0
M  V30 1527 C 145.739 -3.87229 -2.03402 0
M  V30 1528 C 144.798 -4.19324 -3.17889 0
M  V30 1529 O 143.824 -4.88598 -2.91994 0
M  V30 1530 N 145.026 -3.74471 -4.43567 0
M  V30 1531 H 147.791 -2.96439 -0.440943 0
M  V30 1532 H 145.352 -1.61631 -0.0933064 0
M  V30 1533 H 147.344 -2.75602 -2.96354 0
M  V30 1534 H 145.914 -1.76541 -2.57977 0
M  V30 1535 H 145.134 -3.7789 -1.12218 0
M  V30 1536 H 146.422 -4.72379 -1.89038 0
M  V30 1537 H 145.82 -3.18546 -4.67488 0
M  V30 1538 H 144.377 -3.98151 -5.16061 0
M  V30 1539 N 147.81 0.181792 -1.56548 0
M  V30 1540 C 149.035 0.920019 -1.85877 0
M  V30 1541 C 149.46 1.75494 -0.677021 0
M  V30 1542 O 148.818 1.77399 0.374056 0
M  V30 1543 C 148.866 1.78112 -3.13542 0
M  V30 1544 O 147.97 2.88152 -2.95029 0
M  V30 1545 H 147.311 0.258334 -0.611686 0
M  V30 1546 H 149.841 0.183092 -2.03779 0
M  V30 1547 H 149.851 2.18314 -3.44678 0
M  V30 1548 H 148.526 1.16777 -3.99169 0
M  V30 1549 H 147.103 2.51609 -2.75222 0
M  V30 1550 N 149.288 1.51039 0.449983 0
M  V30 1551 C 150.251 1.70863 1.5277 0
M  V30 1552 C 151.251 0.578846 1.5002 0
M  V30 1553 O 152.441 0.846213 1.52266 0
M  V30 1554 C 149.573 1.75341 2.9235 0
M  V30 1555 H 150.766 2.67034 1.36502 0
M  V30 1556 H 148.319 1.40838 0.677812 0
M  V30 1557 H 149.054 0.809383 3.14037 0
M  V30 1558 H 148.839 2.57436 2.95752 0
M  V30 1559 H 150.329 1.92559 3.70555 0
M  V30 1560 N 150.766 -0.704594 1.40972 0
M  V30 1561 C 152.182 -1.01406 1.23244 0
M  V30 1562 C 152.382 -2.01169 0.115399 0
M  V30 1563 O 151.438 -2.47021 -0.523147 0
M  V30 1564 C 152.751 -1.54728 2.57836 0
M  V30 1565 C 154.299 -1.66658 2.64942 0
M  V30 1566 C 154.774 -2.23383 3.9983 0
M  V30 1567 N 156.265 -2.30756 4.01629 0
M  V30 1568 C 157 -2.75655 5.02794 0
M  V30 1569 N 156.496 -3.20225 6.14352 0
M  V30 1570 N 158.289 -2.75138 4.90159 0
M  V30 1571 H 150.44 -0.0435285 2.12355 0
M  V30 1572 H 152.703 -0.0818951 0.944456 0
M  V30 1573 H 152.409 -0.888832 3.40283 0
M  V30 1574 H 152.283 -2.53084 2.79693 0
M  V30 1575 H 154.67 -2.31617 1.8286 0
M  V30 1576 H 154.751 -0.668717 2.46904 0
M  V30 1577 H 154.395 -1.59043 4.82357 0
M  V30 1578 H 154.325 -3.23904 4.15203 0
M  V30 1579 H 156.816 -1.99291 3.21079 0
M  V30 1580 H 157.129 -3.53084 6.87424 0
M  V30 1581 H 155.474 -3.18156 6.17901 0
M  V30 1582 H 158.665 -2.39661 4.02095 0
M  V30 1583 H 158.838 -3.09812 5.6914 0
M  V30 1584 N 152.244 -1.26651 -0.937939 0
M  V30 1585 C 153.492 -1.12165 -1.68118 0
M  V30 1586 C 153.813 0.334983 -1.92101 0
M  V30 1587 O 153.083 1.23583 -1.52 0
M  V30 1588 H 151.663 -0.412093 -0.623048 0
M  V30 1589 H 154.325 -1.59027 -1.12678 0
M  V30 1590 H 153.421 -1.64289 -2.6536 0
M  V30 1591 N 153.722 1.14298 -1.08507 0
M  V30 1592 C 154.95 1.89219 -0.836876 0
M  V30 1593 C 155.365 1.78638 0.611054 0
M  V30 1594 O 154.722 1.14643 1.41998 0
M  V30 1595 C 154.773 3.39158 -1.25116 0
M  V30 1596 O 154.494 3.49449 -2.64229 0
M  V30 1597 C 155.995 4.31073 -1.03398 0
M  V30 1598 H 153.215 0.599328 -0.301739 0
M  V30 1599 H 155.759 1.44746 -1.44461 0
M  V30 1600 H 153.914 3.81251 -0.687514 0
M  V30 1601 H 154.328 4.42589 -2.81452 0
M  V30 1602 H 155.802 5.34646 -1.37323 0
M  V30 1603 H 156.279 4.3919 0.0289259 0
M  V30 1604 H 156.885 3.94738 -1.58311 0
M  V30 1605 N 155.201 0.870884 1.31352 0
M  V30 1606 C 156.426 0.495957 2.01383 0
M  V30 1607 C 156.851 -0.904324 1.64935 0
M  V30 1608 O 156.209 -1.59687 0.858466 0
M  V30 1609 C 156.257 0.661433 3.54482 0
M  V30 1610 O 155.361 -0.298851 4.11316 0
M  V30 1611 H 154.702 0.197158 0.634054 0
M  V30 1612 H 157.232 1.17455 1.67527 0
M  V30 1613 H 157.242 0.555072 4.04207 0
M  V30 1614 H 155.917 1.68246 3.8035 0
M  V30 1615 H 154.494 -0.147368 3.72609 0
M  V30 1616 N 156.679 -1.44442 0.630414 0
M  V30 1617 C 158.095 -1.56832 0.295973 0
M  V30 1618 C 158.295 -1.61806 -1.20088 0
M  V30 1619 O 157.351 -1.5607 -1.9849 0
M  V30 1620 C 158.664 -2.84031 0.987264 0
M  V30 1621 C 160.212 -2.97742 0.96534 0
M  V30 1622 C 160.687 -4.27743 1.63708 0
M  V30 1623 N 162.178 -4.34555 1.60364 0
M  V30 1624 C 162.913 -5.33862 2.09234 0
M  V30 1625 N 162.409 -6.39578 2.66292 0
M  V30 1626 N 164.202 -5.25366 1.99867 0
M  V30 1627 H 156.353 -1.39457 1.60205 0
M  V30 1628 H 158.616 -0.668237 0.672431 0
M  V30 1629 H 158.322 -2.86338 2.04215 0
M  V30 1630 H 158.196 -3.73534 0.524588 0
M  V30 1631 H 160.583 -2.94989 -0.0810639 0
M  V30 1632 H 160.664 -2.09589 1.4665 0
M  V30 1633 H 160.308 -4.31255 2.68293 0
M  V30 1634 H 160.238 -5.14752 1.11076 0
M  V30 1635 H 162.729 -3.58772 1.18705 0
M  V30 1636 H 163.042 -7.11637 3.01317 0
M  V30 1637 H 161.387 -6.40265 2.70343 0
M  V30 1638 H 164.578 -4.41688 1.55013 0
M  V30 1639 H 164.751 -6.02606 2.38265 0
M  V30 1640 N 158.157 -0.370918 -1.53173 0
M  V30 1641 C 159.403 0.217423 -2.01631 0
M  V30 1642 C 159.736 1.47983 -1.25756 0
M  V30 1643 O 159.011 1.91274 -0.352764 0
M  V30 1644 C 159.294 0.503982 -3.56556 0
M  V30 1645 C 159.147 -0.77243 -4.43118 0
M  V30 1646 C 160.466 1.30234 -4.20389 0
M  V30 1647 H 157.585 0.0775486 -0.732909 0
M  V30 1648 H 160.227 -0.496863 -1.83388 0
M  V30 1649 H 158.377 1.11248 -3.72231 0
M  V30 1650 H 160.049 -1.4098 -4.39229 0
M  V30 1651 H 158.292 -1.39167 -4.10871 0
M  V30 1652 H 158.963 -0.526815 -5.4948 0
M  V30 1653 H 161.439 0.787546 -4.08579 0
M  V30 1654 H 160.315 1.47158 -5.28806 0
M  V30 1655 H 160.576 2.31237 -3.76805 0
M  V30 1656 N 159.635 1.57281 -0.100228 0
M  V30 1657 C 160.884 1.93713 0.561984 0
M  V30 1658 C 161.197 0.984492 1.69018 0
M  V30 1659 O 162.403 1.24273 2.41389 0
M  V30 1660 C 160.859 3.4421 1.05106 0
M  V30 1661 C 160.467 4.47975 -0.0476628 0
M  V30 1662 C 162.211 3.89595 1.68571 0
M  V30 1663 C 160.118 5.89631 0.457055 0
M  V30 1664 H 159.048 0.723082 0.2137 0
M  V30 1665 H 161.699 1.82644 -0.177057 0
M  V30 1666 H 160.081 3.50449 1.84395 0
M  V30 1667 H 161.255 4.53385 -0.823333 0
M  V30 1668 H 159.57 4.1223 -0.587816 0
M  V30 1669 H 162.167 4.92832 2.07414 0
M  V30 1670 H 162.51 3.28526 2.55688 0
M  V30 1671 H 163.043 3.86078 0.958562 0
M  V30 1672 H 159.782 6.54411 -0.377616 0
M  V30 1673 H 159.302 5.87681 1.19962 0
M  V30 1674 H 160.981 6.40363 0.92437 0
M  V30 1675 N 161.113 -0.173488 1.56642 0
M  V30 1676 C 162.353 -0.896984 1.83667 0
M  V30 1677 C 162.717 -1.79523 0.680842 0
M  V30 1678 O 163.918 -2.55616 0.831488 0
M  V30 1679 C 162.189 -1.67351 3.15798 0
M  V30 1680 S 163.748 -2.44607 3.64298 0
M  V30 1681 H 160.566 -0.300464 0.644393 0
M  V30 1682 H 163.168 -0.158775 1.94854 0
M  V30 1683 H 161.872 -1.00462 3.97914 0
M  V30 1684 H 161.403 -2.45313 3.07546 0
M  V30 1685 H 163.418 -3.69261 3.31452 0
M  V30 1686 N 162.591 -1.51276 -0.441967 0
M  V30 1687 C 163.838 -1.63715 -1.19179 0
M  V30 1688 C 164.166 -0.351175 -1.91303 0
M  V30 1689 O 163.421 0.664524 -1.84072 0
M  V30 1690 C 163.72 -2.78746 -2.23686 0
M  V30 1691 C 163.386 -4.18189 -1.68607 0
M  V30 1692 C 162.048 -4.56125 -1.53308 0
M  V30 1693 C 164.4 -5.05222 -1.28062 0
M  V30 1694 C 161.728 -5.78804 -0.959317 0
M  V30 1695 C 164.08 -6.28476 -0.721162 0
M  V30 1696 C 162.744 -6.65188 -0.55504 0
M  V30 1697 H 162.014 -0.599076 -0.436106 0
M  V30 1698 H 164.661 -1.85296 -0.48351 0
M  V30 1699 H 162.966 -2.51369 -3.00535 0
M  V30 1700 H 164.663 -2.8557 -2.81515 0
M  V30 1701 H 161.253 -3.88277 -1.8149 0
M  V30 1702 H 165.437 -4.76524 -1.38704 0
M  V30 1703 H 160.693 -6.05899 -0.81833 0
M  V30 1704 H 164.867 -6.95259 -0.398458 0
M  V30 1705 H 162.494 -7.60123 -0.108311 0
M  V30 1706 N 164.069 0.697108 -1.41344 0
M  V30 1707 C 165.294 1.49096 -1.44171 0
M  V30 1708 C 165.719 1.88038 -0.0481568 0
M  V30 1709 O 165.077 1.54525 0.948243 0
M  V30 1710 C 165.125 2.73088 -2.3549 0
M  V30 1711 O 164.229 3.70514 -1.81088 0
M  V30 1712 H 163.57 0.448801 -0.489361 0
M  V30 1713 H 166.1 0.856992 -1.85787 0
M  V30 1714 H 166.11 3.21413 -2.51312 0
M  V30 1715 H 164.785 2.44081 -3.36745 0
M  V30 1716 H 163.362 3.29441 -1.74708 0
M  V30 1717 N 165.547 1.27147 0.931209 0
M  V30 1718 C 166.958 1.12044 1.49342 0
M  V30 1719 C 167.309 -0.295795 1.93957 0
M  V30 1720 O 166.434 -1.18835 1.80852 0
M  V30 1721 C 167.029 2.02781 2.71414 0
M  V30 1722 C 165.588 1.91794 3.2387 0
M  V30 1723 C 164.735 1.95543 1.96617 0
M  V30 1724 H 167.686 1.40091 0.745672 0
M  V30 1725 H 167.707 1.58156 3.46074 0
M  V30 1726 H 167.219 3.05848 2.38911 0
M  V30 1727 H 165.32 0.916992 3.6114 0
M  V30 1728 H 165.433 2.77852 3.90302 0
M  V30 1729 H 163.797 1.39722 2.12955 0
M  V30 1730 H 164.58 3.00259 1.66432 0
M  V30 1731 N 167.025 -1.13721 1.09112 0
M  V30 1732 C 168.302 -1.81155 0.737706 0
M  V30 1733 C 168.682 -1.96253 -0.777683 0
M  V30 1734 O 168.03 -1.52807 -1.69889 0
M  V30 1735 C 168.24 -3.16392 1.47299 0
M  V30 1736 C 169.588 -3.91787 1.63671 0
M  V30 1737 O 170.612 -3.26005 1.43524 0
M  V30 1738 O 169.471 -5.0977 1.96969 0
M  V30 1739 H 166.565 -0.783518 0.26463 0
M  V30 1740 H 169.111 -1.20676 1.19312 0
M  V30 1741 H 167.883 -3.0061 2.50498 0
M  V30 1742 H 167.506 -3.8457 1.00953 0
M  V30 1743 N 168.503 -0.877838 -1.30888 0
M  V30 1744 C 169.453 -0.310872 -2.25871 0
M  V30 1745 C 170.437 0.556596 -1.50966 0
M  V30 1746 O 171.629 0.402187 -1.7237 0
M  V30 1747 C 168.758 0.479821 -3.3993 0
M  V30 1748 C 167.844 -0.401333 -4.22197 0
M  V30 1749 N 168.235 -1.49848 -4.83093 0
M  V30 1750 C 166.533 -0.195167 -4.45573 0
M  V30 1751 C 167.234 -2.0425 -5.44662 0
M  V30 1752 N 166.21 -1.33843 -5.26865 0
M  V30 1753 H 170.012 -1.1493 -2.70496 0
M  V30 1754 H 167.526 -0.726458 -1.45246 0
M  V30 1755 H 169.523 0.902582 -4.07012 0
M  V30 1756 H 168.183 1.31577 -2.96846 0
M  V30 1757 H 169.194 -1.88137 -4.82519 0
M  V30 1758 H 165.871 0.604192 -4.13105 0
M  V30 1759 H 167.261 -2.96345 -6.03017 0
M  V30 1760 N 169.982 1.44106 -0.638065 0
M  V30 1761 C 171.207 2.0685 -0.150916 0
M  V30 1762 C 171.632 1.47417 1.16833 0
M  V30 1763 O 170.99 0.578264 1.71831 0
M  V30 1764 C 171.038 3.60555 -0.05708 0
M  V30 1765 O 170.142 4.00465 0.984972 0
M  V30 1766 H 169.483 0.658151 -0.0879399 0
M  V30 1767 H 172.013 1.84865 -0.876707 0
M  V30 1768 H 172.023 4.07789 0.131232 0
M  V30 1769 H 170.698 4.03193 -1.02021 0
M  V30 1770 H 169.275 3.64849 0.770672 0
M  V30 1771 N 171.46 0.379036 1.52974 0
M  V30 1772 C 172.407 -0.461048 2.26148 0
M  V30 1773 C 173.377 -1.06637 1.27349 0
M  V30 1774 O 174.562 -1.09633 1.56157 0
M  V30 1775 C 171.702 -1.58782 3.06402 0
M  V30 1776 C 170.815 -1.00636 4.20115 0
M  V30 1777 C 169.95 -2.10334 4.87784 0
M  V30 1778 C 168.989 -1.49724 5.93506 0
M  V30 1779 N 168.126 -2.5331 6.54812 0
M  V30 1780 H 172.966 0.169429 2.97518 0
M  V30 1781 H 170.503 0.0953806 1.4679 0
M  V30 1782 H 172.461 -2.25174 3.51215 0
M  V30 1783 H 171.091 -2.18876 2.37261 0
M  V30 1784 H 170.143 -0.232332 3.7969 0
M  V30 1785 H 171.455 -0.523343 4.96047 0
M  V30 1786 H 170.609 -2.84519 5.35849 0
M  V30 1787 H 169.348 -2.61992 4.11353 0
M  V30 1788 H 168.353 -0.740598 5.44789 0
M  V30 1789 H 169.578 -0.988732 6.71864 0
M  V30 1790 H 167.524 -3.04156 5.81227 0
M  V30 1791 H 167.441 -2.09734 7.26325 0
M  V30 1792 H 168.709 -3.27155 7.07524 0
M  V30 1793 N 172.938 -1.57226 0.108567 0
M  V30 1794 C 174.166 -1.99179 -0.559954 0
M  V30 1795 C 174.581 -0.988022 -1.60884 0
M  V30 1796 O 173.938 0.0205512 -1.82488 0
M  V30 1797 C 173.989 -3.41159 -1.19552 0
M  V30 1798 O 173.71 -4.37694 -0.188577 0
M  V30 1799 C 175.211 -3.98188 -1.94837 0
M  V30 1800 H 172.431 -0.654228 -0.149088 0
M  V30 1801 H 174.975 -2.03598 0.19183 0
M  V30 1802 H 173.13 -3.37711 -1.89815 0
M  V30 1803 H 173.544 -5.20469 -0.649014 0
M  V30 1804 H 175.018 -4.99644 -2.34648 0
M  V30 1805 H 175.495 -3.3675 -2.81951 0
M  V30 1806 H 176.101 -4.0515 -1.2936 0
M  V30 1807 N 174.416 0.165178 -1.56732 0
M  V30 1808 C 175.346 1.20651 -1.99914 0
M  V30 1809 C 176.327 1.45827 -0.875705 0
M  V30 1810 O 177.512 1.57057 -1.14223 0
M  V30 1811 C 174.642 2.54401 -2.36427 0
M  V30 1812 C 173.596 2.43782 -3.51787 0
M  V30 1813 C 172.922 3.82078 -3.7406 0
M  V30 1814 C 174.222 1.93732 -4.85041 0
M  V30 1815 H 175.916 0.847534 -2.87154 0
M  V30 1816 H 173.462 0.40625 -1.38151 0
M  V30 1817 H 175.415 3.27458 -2.65234 0
M  V30 1818 H 174.139 2.92098 -1.46103 0
M  V30 1819 H 172.798 1.73178 -3.23117 0
M  V30 1820 H 172.446 4.17179 -2.81017 0
M  V30 1821 H 172.146 3.7584 -4.51684 0
M  V30 1822 H 173.67 4.56712 -4.05274 0
M  V30 1823 H 175.084 2.56569 -5.12684 0
M  V30 1824 H 173.481 1.98428 -5.66345 0
M  V30 1825 H 174.551 0.891962 -4.76626 0
M  V30 1826 N 175.894 1.51508 0.433938 0
M  V30 1827 C 177.305 1.56784 1.01369 0
M  V30 1828 C 177.656 0.393349 1.92217 0
M  V30 1829 O 176.781 -0.489441 2.10792 0
M  V30 1830 C 177.376 2.84144 1.8452 0
M  V30 1831 C 175.935 2.9198 2.37539 0
M  V30 1832 C 175.082 2.51482 1.16843 0
M  V30 1833 H 178.033 1.57236 0.215081 0
M  V30 1834 H 178.054 2.68098 2.70007 0
M  V30 1835 H 177.566 3.69607 1.18373 0
M  V30 1836 H 175.667 2.10955 3.0713 0
M  V30 1837 H 175.78 3.95704 2.70103 0
M  V30 1838 H 174.144 2.04758 1.51481 0
M  V30 1839 H 174.927 3.39293 0.523015 0
M  V30 1840 N 177.372 -0.689602 1.41712 0
M  V30 1841 C 178.282 -1.83314 1.46401 0
M  V30 1842 C 179.298 -1.7036 0.35405 0
M  V30 1843 O 180.474 -1.92171 0.602692 0
M  V30 1844 C 177.539 -3.19344 1.34982 0
M  V30 1845 C 176.6 -3.44363 2.56344 0
M  V30 1846 C 175.833 -4.73904 2.45461 0
M  V30 1847 O 176.056 -5.508 1.48241 0
M  V30 1848 O 174.99 -4.99839 3.35328 0
M  V30 1849 H 178.816 -1.82314 2.42889 0
M  V30 1850 H 176.401 -0.843438 1.23315 0
M  V30 1851 H 178.283 -4.00547 1.3092 0
M  V30 1852 H 176.958 -3.21014 0.41612 0
M  V30 1853 H 175.865 -2.63067 2.65982 0
M  V30 1854 H 177.198 -3.47512 3.48563 0
M  V30 1855 N 178.85 -1.27639 -0.924453 0
M  V30 1856 C 179.78 -1.13166 -2.04244 0
M  V30 1857 C 180.761 -0.032256 -1.70069 0
M  V30 1858 O 181.946 -0.207328 -1.9309 0
M  V30 1859 C 179.076 -0.781496 -3.38393 0
M  V30 1860 C 178.03 -1.83449 -3.86692 0
M  V30 1861 C 177.356 -1.33822 -5.17683 0
M  V30 1862 C 178.656 -3.23917 -4.09726 0
M  V30 1863 H 180.35 -2.06689 -2.1661 0
M  V30 1864 H 177.896 -0.995136 -1.04082 0
M  V30 1865 H 179.849 -0.667057 -4.16087 0
M  V30 1866 H 178.573 0.189439 -3.2605 0
M  V30 1867 H 177.232 -1.93789 -3.11193 0
M  V30 1868 H 176.88 -0.35665 -5.01734 0
M  V30 1869 H 176.58 -2.04224 -5.50968 0
M  V30 1870 H 178.104 -1.23679 -5.97943 0
M  V30 1871 H 179.518 -3.16559 -4.77978 0
M  V30 1872 H 177.915 -3.92059 -4.54324 0
M  V30 1873 H 178.985 -3.68729 -3.14908 0
M  V30 1874 N 180.328 1.1314 -1.09713 0
M  V30 1875 C 181.553 1.88862 -0.857081 0
M  V30 1876 C 181.978 1.78729 0.586304 0
M  V30 1877 O 181.336 1.13692 1.41222 0
M  V30 1878 C 181.384 3.36325 -1.30069 0
M  V30 1879 O 180.488 4.09815 -0.461007 0
M  V30 1880 H 179.829 0.587108 -0.310162 0
M  V30 1881 H 182.359 1.43129 -1.46203 0
M  V30 1882 H 182.369 3.87157 -1.28738 0
M  V30 1883 H 181.044 3.43017 -2.35185 0
M  V30 1884 H 179.621 3.68986 -0.538888 0
M  V30 1885 N 181.806 0.884767 1.30421 0
M  V30 1886 C 183.052 0.503851 1.96441 0
M  V30 1887 C 183.385 -0.944518 1.69684 0
M  V30 1888 O 182.66 -1.66737 1.00145 0
M  V30 1889 C 182.943 0.779085 3.51571 0
M  V30 1890 C 182.796 2.27807 3.87846 0
M  V30 1891 C 184.115 0.255452 4.39358 0
M  V30 1892 H 181.234 0.184533 0.713524 0
M  V30 1893 H 183.876 1.10872 1.54297 0
M  V30 1894 H 182.026 0.264274 3.876 0
M  V30 1895 H 183.698 2.86127 3.61841 0
M  V30 1896 H 181.941 2.74479 3.35922 0
M  V30 1897 H 182.612 2.42125 4.96064 0
M  V30 1898 H 185.088 0.696079 4.10236 0
M  V30 1899 H 183.964 0.477361 5.4682 0
M  V30 1900 H 184.225 -0.843293 4.33983 0
M  V30 1901 N 183.284 -1.43765 0.645699 0
M  V30 1902 C 184.247 -2.29163 -0.0409488 0
M  V30 1903 C 185.247 -1.41813 -0.757996 0
M  V30 1904 O 186.437 -1.63527 -0.600382 0
M  V30 1905 C 183.569 -3.23716 -1.06869 0
M  V30 1906 H 184.762 -2.91366 0.710345 0
M  V30 1907 H 182.315 -1.5092 0.406547 0
M  V30 1908 H 183.05 -2.66393 -1.84947 0
M  V30 1909 H 182.835 -3.88105 -0.558277 0
M  V30 1910 H 184.325 -3.87831 -1.54845 0
M  V30 1911 N 184.763 -0.387143 -1.52771 0
M  V30 1912 C 185.726 0.436939 -2.24997 0
M  V30 1913 C 186.726 0.991991 -1.26555 0
M  V30 1914 O 187.916 0.874335 -1.50669 0
M  V30 1915 C 185.048 1.61281 -3.00335 0
M  V30 1916 H 186.241 -0.195365 -2.99263 0
M  V30 1917 H 183.794 -0.139218 -1.55679 0
M  V30 1918 H 184.529 2.2826 -2.30364 0
M  V30 1919 H 184.314 1.22154 -3.72587 0
M  V30 1920 H 185.804 2.19629 -3.5518 0
M  V30 1921 N 186.241 1.57166 -0.116904 0
M  V30 1922 C 187.171 2.18222 0.830759 0
M  V30 1923 C 188.152 1.12167 1.27877 0
M  V30 1924 O 189.337 1.40394 1.34176 0
M  V30 1925 C 186.467 2.77996 2.08172 0
M  V30 1926 C 185.421 3.89614 1.77157 0
M  V30 1927 C 184.747 4.36187 3.09265 0
M  V30 1928 C 186.047 5.1181 1.04151 0
M  V30 1929 H 187.741 2.97664 0.321992 0
M  V30 1930 H 185.287 1.4318 0.153434 0
M  V30 1931 H 187.24 3.19366 2.74924 0
M  V30 1932 H 185.964 1.9584 2.6137 0
M  V30 1933 H 184.623 3.48816 1.12796 0
M  V30 1934 H 184.271 3.50893 3.60393 0
M  V30 1935 H 183.971 5.11455 2.89288 0
M  V30 1936 H 185.495 4.80207 3.77139 0
M  V30 1937 H 186.909 5.50214 1.61052 0
M  V30 1938 H 185.306 5.92648 0.942762 0
M  V30 1939 H 186.376 4.84892 0.0279022 0
M  V30 1940 N 187.719 -0.156864 1.56817 0
M  V30 1941 C 188.947 -0.886316 1.86955 0
M  V30 1942 C 189.362 -1.75185 0.703975 0
M  V30 1943 O 188.719 -1.79555 -0.326552 0
M  V30 1944 C 188.77 -1.75117 3.16253 0
M  V30 1945 O 188.491 -0.920537 4.2832 0
M  V30 1946 C 189.992 -2.58905 3.59837 0
M  V30 1947 H 187.212 -0.25678 0.619923 0
M  V30 1948 H 189.756 -0.152615 2.0393 0
M  V30 1949 H 187.911 -2.43805 3.01062 0
M  V30 1950 H 188.325 -1.51337 5.02192 0
M  V30 1951 H 189.799 -3.1518 4.53172 0
M  V30 1952 H 190.276 -3.34472 2.84649 0
M  V30 1953 H 190.882 -1.95526 3.7769 0
M  V30 1954 N 189.197 -1.51736 -0.425897 0
M  V30 1955 C 190.107 -1.76738 -1.54275 0
M  V30 1956 C 191.123 -0.65211 -1.61318 0
M  V30 1957 O 192.299 -0.935654 -1.78346 0
M  V30 1958 C 189.364 -1.89755 -2.90162 0
M  V30 1959 C 188.425 -3.13633 -2.93143 0
M  V30 1960 C 187.658 -3.2602 -4.22548 0
M  V30 1961 O 187.881 -2.44067 -5.15546 0
M  V30 1962 O 186.815 -4.19071 -4.32046 0
M  V30 1963 H 190.641 -2.71502 -1.36089 0
M  V30 1964 H 188.226 -1.36376 -0.610069 0
M  V30 1965 H 190.108 -2.00236 -3.70788 0
M  V30 1966 H 188.783 -0.981785 -3.08452 0
M  V30 1967 H 187.69 -3.08622 -2.11431 0
M  V30 1968 H 189.023 -4.04936 -2.798 0
M  V30 1969 N 190.675 0.682077 -1.42076 0
M  V30 1970 C 191.924 1.43786 -1.41451 0
M  V30 1971 C 192.237 1.95574 -0.0317074 0
M  V30 1972 O 193.443 2.71326 0.0971462 0
M  V30 1973 C 191.899 2.60071 -2.48779 0
M  V30 1974 C 191.507 2.15013 -3.93031 0
M  V30 1975 C 193.251 3.37626 -2.57311 0
M  V30 1976 C 191.158 3.28336 -4.91883 0
M  V30 1977 H 190.088 0.540143 -0.526082 0
M  V30 1978 H 192.739 0.739157 -1.67955 0
M  V30 1979 H 191.121 3.32275 -2.15429 0
M  V30 1980 H 192.295 1.5001 -4.35699 0
M  V30 1981 H 190.61 1.50416 -3.88284 0
M  V30 1982 H 193.207 4.22012 -3.28345 0
M  V30 1983 H 193.55 3.83727 -1.61429 0
M  V30 1984 H 194.083 2.72488 -2.89819 0
M  V30 1985 H 190.822 2.87234 -5.89217 0
M  V30 1986 H 190.342 3.92145 -4.53853 0
M  V30 1987 H 192.021 3.93913 -5.13265 0
M  V30 1988 N 192.153 1.28127 0.917671 0
M  V30 1989 C 193.399 1.15223 1.66888 0
M  V30 1990 C 193.732 -0.299293 1.9188 0
M  V30 1991 O 193.007 -1.21805 1.51637 0
M  V30 1992 C 193.29 1.94706 3.02922 0
M  V30 1993 C 193.143 3.47898 2.85109 0
M  V30 1994 C 194.462 1.75939 4.03402 0
M  V30 1995 H 191.581 0.419946 0.605652 0
M  V30 1996 H 194.223 1.57398 1.06423 0
M  V30 1997 H 192.373 1.58864 3.54534 0
M  V30 1998 H 194.045 3.93624 2.40537 0
M  V30 1999 H 192.288 3.7373 2.20246 0
M  V30 2000 H 192.959 3.98765 3.81694 0
M  V30 2001 H 195.435 2.07209 3.60837 0
M  V30 2002 H 194.311 2.33931 4.96556 0
M  V30 2003 H 194.572 0.709877 4.36364 0
M  V30 2004 N 193.631 -1.12557 1.10312 0
M  V30 2005 C 194.578 -2.18247 0.750781 0
M  V30 2006 C 195.548 -1.63853 -0.272293 0
M  V30 2007 O 196.733 -1.90195 -0.151862 0
M  V30 2008 C 193.873 -3.44591 0.187379 0
M  V30 2009 C 192.986 -4.13046 1.2656 0
M  V30 2010 C 192.121 -5.27034 0.663978 0
M  V30 2011 C 191.16 -5.87353 1.72287 0
M  V30 2012 N 190.297 -6.92757 1.1416 0
M  V30 2013 H 195.137 -2.47732 1.65628 0
M  V30 2014 H 192.674 -1.21629 0.827337 0
M  V30 2015 H 194.632 -4.16904 -0.157148 0
M  V30 2016 H 193.262 -3.15527 -0.681355 0
M  V30 2017 H 192.314 -3.38924 1.72727 0
M  V30 2018 H 193.626 -4.53947 2.06721 0
M  V30 2019 H 192.78 -6.06104 0.268824 0
M  V30 2020 H 191.519 -4.87407 -0.169082 0
M  V30 2021 H 190.524 -5.06971 2.12746 0
M  V30 2022 H 191.749 -6.29051 2.55875 0
M  V30 2023 H 189.695 -6.5517 0.329984 0
M  V30 2024 H 189.612 -7.3225 1.88007 0
M  V30 2025 H 190.88 -7.75658 0.772956 0
M  V30 2026 N 195.109 -0.891671 -1.2995 0
M  V30 2027 C 196.337 -0.52866 -2.00032 0
M  V30 2028 C 196.752 0.884574 -1.66795 0
M  V30 2029 O 196.109 1.5827 -0.908669 0
M  V30 2030 C 196.16 -0.701814 -3.54622 0
M  V30 2031 O 195.881 -2.05942 -3.86678 0
M  V30 2032 C 197.382 -0.342683 -4.41973 0
M  V30 2033 H 194.602 -0.203659 -0.639347 0
M  V30 2034 H 197.146 -1.19881 -1.65677 0
M  V30 2035 H 195.301 -0.0789468 -3.8732 0
M  V30 2036 H 195.715 -2.08291 -4.81368 0
M  V30 2037 H 197.189 -0.514709 -5.49595 0
M  V30 2038 H 197.666 0.71975 -4.33262 0
M  V30 2039 H 198.272 -0.942154 -4.14733 0
M  V30 2040 N 196.587 1.43421 -0.653314 0
M  V30 2041 C 197.833 2.02641 -0.175593 0
M  V30 2042 C 198.188 1.5062 1.19713 0
M  V30 2043 O 197.481 0.689697 1.78756 0
M  V30 2044 C 197.675 3.57176 -0.126623 0
M  V30 2045 C 197.504 4.24191 -1.49306 0
M  V30 2046 C 196.274 4.60257 -2.08547 0
M  V30 2047 C 198.472 4.53193 -2.43148 0
M  V30 2048 N 196.454 5.12345 -3.38194 0
M  V30 2049 C 197.825 5.06601 -3.57429 0
M  V30 2050 C 199.88 4.35161 -2.41949 0
M  V30 2051 C 198.583 5.43875 -4.70736 0
M  V30 2052 C 200.609 4.73498 -3.54336 0
M  V30 2053 C 199.971 5.27039 -4.67343 0
M  V30 2054 H 196.07 0.77441 -0.108686 0
M  V30 2055 H 198.654 1.74596 -0.861638 0
M  V30 2056 H 196.825 3.84784 0.528766 0
M  V30 2057 H 198.557 4.03078 0.36198 0
M  V30 2058 H 195.312 4.45302 -1.61255 0
M  V30 2059 H 195.736 5.42842 -4.04538 0
M  V30 2060 H 200.378 3.9304 -1.55818 0
M  V30 2061 H 198.096 5.8494 -5.57558 0
M  V30 2062 H 201.682 4.61241 -3.5461 0
M  V30 2063 H 200.562 5.56153 -5.52868 0
M  V30 2064 N 198.065 0.39524 1.52563 0
M  V30 2065 C 198.997 -0.472201 2.24283 0
M  V30 2066 C 200.01 -1.02178 1.26742 0
M  V30 2067 O 201.199 -0.923097 1.52778 0
M  V30 2068 C 198.299 -1.66775 2.95024 0
M  V30 2069 C 197.472 -1.2445 4.19322 0
M  V30 2070 C 196.531 -2.30539 4.7301 0
M  V30 2071 O 195.557 -1.91702 5.35947 0
M  V30 2072 N 196.759 -3.6253 4.53379 0
M  V30 2073 H 199.524 0.142282 2.99362 0
M  V30 2074 H 197.085 0.2219 1.60372 0
M  V30 2075 H 199.077 -2.37283 3.27839 0
M  V30 2076 H 197.647 -2.18845 2.23217 0
M  V30 2077 H 196.867 -0.368069 3.92478 0
M  V30 2078 H 198.155 -0.938457 5.0007 0
M  V30 2079 H 197.553 -3.96841 4.03154 0
M  V30 2080 H 196.11 -4.29055 4.90668 0
M  V30 2081 N 199.544 -1.57102 0.125237 0
M  V30 2082 C 200.454 -2.19191 -0.8362 0
M  V30 2083 C 201.47 -1.16985 -1.28805 0
M  V30 2084 O 202.646 -1.49479 -1.34974 0
M  V30 2085 C 199.711 -2.78407 -2.06617 0
M  V30 2086 C 198.772 -3.9567 -1.66565 0
M  V30 2087 C 198.005 -4.52052 -2.83698 0
M  V30 2088 O 198.228 -4.07326 -3.99302 0
M  V30 2089 O 197.162 -5.42645 -2.60423 0
M  V30 2090 H 200.988 -3.01816 -0.337776 0
M  V30 2091 H 198.573 -1.4906 -0.100695 0
M  V30 2092 H 200.455 -3.16129 -2.7864 0
M  V30 2093 H 199.13 -1.9881 -2.55453 0
M  V30 2094 H 198.037 -3.62705 -0.916296 0
M  V30 2095 H 199.37 -4.76722 -1.22464 0
M  V30 2096 N 201.022 0.148545 -1.56898 0
M  V30 2097 C 201.954 1.20852 -1.9475 0
M  V30 2098 C 202.967 1.39265 -0.843152 0
M  V30 2099 O 204.156 1.38864 -1.12156 0
M  V30 2100 C 201.256 2.57362 -2.20495 0
M  V30 2101 C 200.429 2.59947 -3.51776 0
M  V30 2102 C 199.488 3.77984 -3.6608 0
M  V30 2103 O 198.514 3.62929 -4.38487 0
M  V30 2104 N 199.716 4.95375 -3.02629 0
M  V30 2105 H 202.481 0.886804 -2.86279 0
M  V30 2106 H 200.042 0.338121 -1.5833 0
M  V30 2107 H 202.034 3.34833 -2.27307 0
M  V30 2108 H 200.604 2.81832 -1.35238 0
M  V30 2109 H 199.824 1.68403 -3.56419 0
M  V30 2110 H 201.112 2.58704 -4.38121 0
M  V30 2111 H 200.51 5.10509 -2.43715 0
M  V30 2112 H 199.067 5.70627 -3.15004 0
M  V30 2113 N 202.5 1.5196 0.417844 0
M  V30 2114 C 203.728 1.69426 1.18753 0
M  V30 2115 C 204.143 0.399955 1.84515 0
M  V30 2116 O 203.5 -0.623288 1.71527 0
M  V30 2117 C 203.551 2.82375 2.25714 0
M  V30 2118 O 203.272 4.06793 1.62638 0
M  V30 2119 C 204.773 3.11277 3.15628 0
M  V30 2120 H 201.993 0.568031 0.357186 0
M  V30 2121 H 204.537 1.98475 0.49273 0
M  V30 2122 H 202.692 2.5587 2.90877 0
M  V30 2123 H 203.106 4.69667 2.3348 0
M  V30 2124 H 204.58 3.93843 3.86771 0
M  V30 2125 H 205.057 2.24473 3.77503 0
M  V30 2126 H 205.663 3.39515 2.56144 0
M  V30 2127 N 203.978 -0.674533 1.42435 0
M  V30 2128 C 204.941 -1.76986 1.45632 0
M  V30 2129 C 205.941 -1.5708 0.343871 0
M  V30 2130 O 207.131 -1.63367 0.604709 0
M  V30 2131 C 204.263 -3.15623 1.28822 0
M  V30 2132 H 205.456 -1.75539 2.43158 0
M  V30 2133 H 203.009 -0.884189 1.28887 0
M  V30 2134 H 203.744 -3.22696 0.322193 0
M  V30 2135 H 203.529 -3.31475 2.09444 0
M  V30 2136 H 205.019 -3.95537 1.33942 0
M  V30 2137 N 205.456 -1.28612 -0.910864 0
M  V30 2138 C 206.366 -1.14643 -2.0468 0
M  V30 2139 C 207.382 -0.0723121 -1.7385 0
M  V30 2140 O 208.558 -0.282178 -1.99413 0
M  V30 2141 C 205.623 -0.812561 -3.37044 0
M  V30 2142 C 204.684 -1.96935 -3.81465 0
M  V30 2143 C 203.917 -1.65131 -5.07511 0
M  V30 2144 O 204.14 -0.567013 -5.67575 0
M  V30 2145 O 203.074 -2.49585 -5.47714 0
M  V30 2146 H 206.9 -2.1001 -2.19384 0
M  V30 2147 H 204.485 -1.07958 -1.03274 0
M  V30 2148 H 206.367 -0.640441 -4.16505 0
M  V30 2149 H 205.042 0.111426 -3.23508 0
M  V30 2150 H 203.949 -2.19664 -3.02818 0
M  V30 2151 H 205.282 -2.87414 -3.99567 0
M  V30 2152 N 206.934 1.1197 -1.10907 0
M  V30 2153 C 207.864 2.19928 -0.784473 0
M  V30 2154 C 208.845 1.6833 0.244726 0
M  V30 2155 O 210.03 1.93892 0.109418 0
M  V30 2156 C 207.16 3.46597 -0.220827 0
M  V30 2157 C 206.114 4.11376 -1.18127 0
M  V30 2158 C 205.44 5.32554 -0.478594 0
M  V30 2159 C 206.74 4.56945 -2.52979 0
M  V30 2160 H 208.434 2.47337 -1.68715 0
M  V30 2161 H 205.98 1.18879 -0.812642 0
M  V30 2162 H 207.933 4.21396 0.0184278 0
M  V30 2163 H 206.657 3.1863 0.717113 0
M  V30 2164 H 205.316 3.38564 -1.40606 0
M  V30 2165 H 204.964 5.00856 0.463976 0
M  V30 2166 H 204.664 5.76844 -1.11912 0
M  V30 2167 H 206.188 6.10096 -0.248 0
M  V30 2168 H 207.602 5.23093 -2.3462 0
M  V30 2169 H 205.999 5.1203 -3.12962 0
M  V30 2170 H 207.069 3.70676 -3.12614 0
M  V30 2171 N 208.412 0.89855 1.29475 0
M  V30 2172 C 209.66 0.522847 1.9522 0
M  V30 2173 C 209.981 -0.93371 1.71192 0
M  V30 2174 O 209.251 -1.65823 1.04305 0
M  V30 2175 H 207.831 0.190366 0.722336 0
M  V30 2176 H 210.493 1.14459 1.5775 0
M  V30 2177 H 209.589 0.704476 3.04045 0
M  V30 2178 N 209.89 -1.43072 0.660911 0
M  V30 2179 C 210.837 -2.30785 -0.0259884 0
M  V30 2180 C 211.807 -1.45184 -0.806888 0
M  V30 2181 O 212.992 -1.74041 -0.781943 0
M  V30 2182 C 210.132 -3.30861 -0.981067 0
M  V30 2183 C 209.245 -4.31558 -0.195458 0
M  V30 2184 C 208.38 -5.18712 -1.14503 0
M  V30 2185 C 207.419 -6.11097 -0.350299 0
M  V30 2186 N 206.556 -6.90849 -1.25186 0
M  V30 2187 H 211.396 -2.88975 0.727846 0
M  V30 2188 H 208.933 -1.42353 0.370682 0
M  V30 2189 H 210.891 -3.87399 -1.54849 0
M  V30 2190 H 209.521 -2.74304 -1.70169 0
M  V30 2191 H 208.573 -3.77252 0.488374 0
M  V30 2192 H 209.885 -4.9701 0.422176 0
M  V30 2193 H 209.039 -5.79914 -1.78284 0
M  V30 2194 H 207.778 -4.53404 -1.79656 0
M  V30 2195 H 206.783 -5.48976 0.300808 0
M  V30 2196 H 208.008 -6.7845 0.296941 0
M  V30 2197 H 205.954 -6.28182 -1.89005 0
M  V30 2198 H 205.871 -7.52854 -0.688971 0
M  V30 2199 H 207.139 -7.5655 -1.87757 0
M  V30 2200 N 211.368 -0.403325 -1.52352 0
M  V30 2201 C 212.596 0.174012 -2.06167 0
M  V30 2202 C 213.011 1.39347 -1.27388 0
M  V30 2203 O 212.368 1.79597 -0.324201 0
M  V30 2204 C 212.419 0.530223 -3.5759 0
M  V30 2205 O 212.14 -0.640806 -4.33388 0
M  V30 2206 C 213.641 1.16192 -4.27802 0
M  V30 2207 H 210.861 0.0229464 -0.670608 0
M  V30 2208 H 213.405 -0.572604 -1.9632 0
M  V30 2209 H 211.56 1.22673 -3.67464 0
M  V30 2210 H 211.974 -0.344851 -5.23365 0
M  V30 2211 H 213.448 1.36141 -5.34948 0
M  V30 2212 H 213.925 2.13335 -3.83907 0
M  V30 2213 H 214.531 0.505775 -4.22282 0
M  V30 2214 N 212.846 1.57033 -0.133567 0
M  V30 2215 C 214.076 1.99754 0.527429 0
M  V30 2216 C 214.484 1.01245 1.59832 0
M  V30 2217 O 213.827 -0.000645496 1.837 0
M  V30 2218 C 213.889 3.38903 1.19939 0
M  V30 2219 C 213.553 4.56174 0.274709 0
M  V30 2220 C 214.55 5.17563 -0.492398 0
M  V30 2221 C 212.235 5.01972 0.18153 0
M  V30 2222 C 214.229 6.2315 -1.34027 0
M  V30 2223 C 211.916 6.07416 -0.669958 0
M  V30 2224 C 212.914 6.67874 -1.42947 0
M  V30 2225 O 212.602 7.71279 -2.2668 0
M  V30 2226 H 212.334 0.660702 0.142999 0
M  V30 2227 H 214.888 2.04207 -0.221099 0
M  V30 2228 H 213.118 3.31248 1.99528 0
M  V30 2229 H 214.807 3.65818 1.75875 0
M  V30 2230 H 215.573 4.83087 -0.430367 0
M  V30 2231 H 211.452 4.54652 0.762422 0
M  V30 2232 H 214.996 6.70268 -1.93357 0
M  V30 2233 H 210.893 6.41321 -0.73333 0
M  V30 2234 H 211.661 7.88441 -2.1978 0
M  V30 2235 N 214.325 -0.140222 1.56975 0
M  V30 2236 C 215.736 -0.699596 1.73097 0
M  V30 2237 C 216.087 -1.8134 0.749022 0
M  V30 2238 O 215.212 -2.16241 -0.0828503 0
M  V30 2239 C 215.807 -1.27582 3.1386 0
M  V30 2240 C 214.366 -1.78169 3.31561 0
M  V30 2241 C 213.513 -0.672855 2.69013 0
M  V30 2242 H 216.464 0.0855115 1.58469 0
M  V30 2243 H 216.485 -2.14561 3.14235 0
M  V30 2244 H 215.997 -0.464955 3.85305 0
M  V30 2245 H 214.098 -2.61801 2.65124 0
M  V30 2246 H 214.211 -1.90574 4.39566 0
M  V30 2247 H 212.575 -1.10118 2.29665 0
M  V30 2248 H 213.358 0.126679 3.43066 0
M  V30 2249 N 215.803 -1.52179 -0.40978 0
M  V30 2250 C 217.049 -1.67408 -1.15525 0
M  V30 2251 C 217.404 -0.398746 -1.88223 0
M  V30 2252 O 216.697 0.60678 -1.81738 0
M  V30 2253 C 216.891 -2.83428 -2.17723 0
M  V30 2254 C 216.72 -4.22121 -1.55061 0
M  V30 2255 C 215.49 -4.87657 -1.3236 0
M  V30 2256 C 217.688 -5.04248 -1.01185 0
M  V30 2257 N 215.67 -6.10387 -0.655834 0
M  V30 2258 C 217.041 -6.18209 -0.470963 0
M  V30 2259 C 219.096 -4.89583 -0.906252 0
M  V30 2260 C 217.799 -7.1911 0.165172 0
M  V30 2261 C 219.825 -5.90718 -0.28397 0
M  V30 2262 C 219.187 -7.03969 0.246243 0
M  V30 2263 H 215.286 -0.666251 -0.409431 0
M  V30 2264 H 217.87 -1.89482 -0.447729 0
M  V30 2265 H 216.041 -2.6297 -2.85834 0
M  V30 2266 H 217.773 -2.87697 -2.84627 0
M  V30 2267 H 214.528 -4.46007 -1.59294 0
M  V30 2268 H 214.952 -6.76153 -0.338596 0
M  V30 2269 H 219.594 -4.02253 -1.302 0
M  V30 2270 H 217.312 -8.06066 0.572986 0
M  V30 2271 H 220.898 -5.81443 -0.203792 0
M  V30 2272 H 219.778 -7.80886 0.720173 0
M  V30 2273 N 217.281 0.66697 -1.42791 0
M  V30 2274 C 218.527 1.4291 -1.43891 0
M  V30 2275 C 218.86 1.94114 -0.0578972 0
M  V30 2276 O 218.135 1.71414 0.91911 0
M  V30 2277 C 218.418 2.62049 -2.46987 0
M  V30 2278 C 218.271 2.16426 -3.94309 0
M  V30 2279 C 219.59 3.64266 -2.46978 0
M  V30 2280 H 216.709 0.518306 -0.523954 0
M  V30 2281 H 219.351 0.757321 -1.74255 0
M  V30 2282 H 217.501 3.19361 -2.21225 0
M  V30 2283 H 219.173 1.64221 -4.31079 0
M  V30 2284 H 217.416 1.47925 -4.078 0
M  V30 2285 H 218.087 3.02038 -4.62036 0
M  V30 2286 H 220.563 3.16686 -2.69906 0
M  V30 2287 H 219.439 4.45196 -3.21079 0
M  V30 2288 H 219.7 4.15927 -1.49857 0
M  V30 2289 N 218.759 1.29093 0.90403 0
M  V30 2290 C 219.691 1.09658 2.01266 0
M  V30 2291 C 220.704 0.0453729 1.62737 0
M  V30 2292 O 221.893 0.289446 1.76138 0
M  V30 2293 C 218.993 0.646278 3.32681 0
M  V30 2294 C 218.166 1.77505 3.99763 0
M  V30 2295 C 217.225 1.31649 5.09465 0
M  V30 2296 O 216.251 2.02045 5.32134 0
M  V30 2297 N 217.453 0.184997 5.80205 0
M  V30 2298 H 220.218 2.05135 2.18494 0
M  V30 2299 H 217.779 1.20975 1.07594 0
M  V30 2300 H 219.771 0.322906 4.0341 0
M  V30 2301 H 218.341 -0.215916 3.11853 0
M  V30 2302 H 217.561 2.26752 3.22455 0
M  V30 2303 H 218.849 2.53198 4.41325 0
M  V30 2304 H 218.247 -0.402021 5.6427 0
M  V30 2305 H 216.804 -0.0790358 6.51752 0
M  V30 2306 N 220.237 -1.11381 1.11499 0
M  V30 2307 C 221.483 -1.83403 0.865512 0
M  V30 2308 C 221.816 -1.84459 -0.607329 0
M  V30 2309 O 221.091 -1.29811 -1.44842 0
M  V30 2310 C 221.374 -3.30552 1.42855 0
M  V30 2311 C 221.227 -3.37886 2.96906 0
M  V30 2312 C 222.546 -4.26643 1.08 0
M  V30 2313 H 219.665 -0.665879 0.31587 0
M  V30 2314 H 222.307 -1.30601 1.37998 0
M  V30 2315 H 220.457 -3.75648 0.990985 0
M  V30 2316 H 222.129 -3.01343 3.49271 0
M  V30 2317 H 220.372 -2.78088 3.32941 0
M  V30 2318 H 221.043 -4.41458 3.31389 0
M  V30 2319 H 223.519 -3.89729 1.45775 0
M  V30 2320 H 222.395 -5.27986 1.50072 0
M  V30 2321 H 222.656 -4.42099 -0.00915037 0
M  V30 2322 N 221.715 -0.905404 -1.28997 0
M  V30 2323 C 222.962 -0.534248 -1.95325 0
M  V30 2324 C 223.29 0.920535 -1.71337 0
M  V30 2325 O 222.545 1.66861 -1.02254 0
M  V30 2326 C 222.844 -0.779906 -3.48787 0
M  V30 2327 C 222.51 -2.21293 -3.92861 0
M  V30 2328 C 221.172 -2.60475 -4.04606 0
M  V30 2329 C 223.524 -3.14587 -4.15553 0
M  V30 2330 C 220.852 -3.9212 -4.36416 0
M  V30 2331 C 223.204 -4.45787 -4.48839 0
M  V30 2332 C 221.868 -4.84834 -4.58794 0
M  V30 2333 H 221.138 -0.195495 -0.714747 0
M  V30 2334 H 223.785 -1.14514 -1.53488 0
M  V30 2335 H 222.09 -0.0861365 -3.91705 0
M  V30 2336 H 223.787 -0.472029 -3.98212 0
M  V30 2337 H 220.377 -1.89887 -3.84241 0
M  V30 2338 H 224.561 -2.85528 -4.0594 0
M  V30 2339 H 219.817 -4.22086 -4.42327 0
M  V30 2340 H 223.991 -5.18098 -4.65346 0
M  V30 2341 H 221.618 -5.86877 -4.83197 0
M  V30 2342 N 223.193 1.4272 -0.668489 0
M  V30 2343 C 224.103 2.34596 0.0139753 0
M  V30 2344 C 225.119 1.5474 0.795703 0
M  V30 2345 O 226.295 1.87334 0.739466 0
M  V30 2346 C 223.36 3.33202 0.957982 0
M  V30 2347 C 222.421 4.28957 0.17149 0
M  V30 2348 C 221.654 5.22853 1.07053 0
M  V30 2349 O 221.877 5.21531 2.31001 0
M  V30 2350 O 220.811 5.9952 0.534727 0
M  V30 2351 H 224.637 2.9448 -0.742661 0
M  V30 2352 H 222.222 1.43117 -0.428705 0
M  V30 2353 H 224.104 3.93796 1.50008 0
M  V30 2354 H 222.779 2.758 1.69458 0
M  V30 2355 H 221.686 3.71796 -0.414558 0
M  V30 2356 H 223.019 4.89383 -0.52586 0
M  V30 2357 N 224.671 0.411399 1.52136 0
M  V30 2358 C 225.619 -0.427633 2.28635 0
M  V30 2359 C 226.613 -1.04383 1.33419 0
M  V30 2360 O 227.819 -0.981772 1.50868 0
M  V30 2361 H 224.194 -0.156689 0.735495 0
M  V30 2362 H 226.165 0.238761 2.97443 0
M  V30 2363 C 224.914 -1.53082 3.12188 0
M  V30 2364 H 224.237 -1.06601 3.85326 0
M  V30 2365 H 225.677 -2.09167 3.68816 0
M  V30 2366 C 224.136 -2.49946 2.25895 0
M  V30 2367 O 224.666 -3.53884 1.90076 0
M  V30 2368 N 222.872 -2.2021 1.8962 0
M  V30 2369 H 222.419 -1.35719 2.18948 0
M  V30 2370 H 222.377 -2.85266 1.32176 0
M  V30 2371 N 226.149 -1.5696 0.141893 0
M  V30 2372 C 227.096 -2.16501 -0.799737 0
M  V30 2373 C 228.066 -1.09643 -1.24771 0
M  V30 2374 O 229.251 -1.3766 -1.32115 0
M  V30 2375 C 226.391 -2.78679 -2.03549 0
M  V30 2376 C 225.504 -3.99914 -1.6338 0
M  V30 2377 C 224.639 -4.50106 -2.82096 0
M  V30 2378 C 223.678 -5.63819 -2.38275 0
M  V30 2379 N 222.815 -6.08651 -3.49983 0
M  V30 2380 H 227.655 -2.96632 -0.285179 0
M  V30 2381 H 225.192 -1.46533 -0.129053 0
M  V30 2382 H 227.15 -3.1287 -2.75986 0
M  V30 2383 H 225.78 -2.012 -2.52425 0
M  V30 2384 H 224.832 -3.71735 -0.807279 0
M  V30 2385 H 226.144 -4.82311 -1.27192 0
M  V30 2386 H 225.298 -4.86325 -3.62729 0
M  V30 2387 H 224.037 -3.66706 -3.21525 0
M  V30 2388 H 223.042 -5.2718 -1.56081 0
M  V30 2389 H 224.267 -6.49 -1.99938 0
M  V30 2390 H 222.213 -5.28188 -3.89042 0
M  V30 2391 H 222.13 -6.85961 -3.17794 0
M  V30 2392 H 223.398 -6.49515 -4.30988 0
M  V30 2393 N 227.627 0.131896 -1.57047 0
M  V30 2394 C 228.875 0.840269 -1.83804 0
M  V30 2395 C 229.196 1.81017 -0.72512 0
M  V30 2396 O 228.466 1.94272 0.251995 0
M  V30 2397 H 227.046 0.313294 -0.678127 0
M  V30 2398 H 229.708 0.122294 -1.94516 0
M  V30 2399 H 228.804 1.39335 -2.79271 0
M  V30 2400 N 229.106 1.52395 0.401703 0
M  V30 2401 C 230.069 1.75636 1.47257 0
M  V30 2402 C 231.069 0.62628 1.48103 0
M  V30 2403 O 232.259 0.894227 1.49497 0
M  V30 2404 C 229.391 1.84553 2.86624 0
M  V30 2405 H 230.584 2.71241 1.27938 0
M  V30 2406 H 228.137 1.42923 0.632662 0
M  V30 2407 H 228.872 0.908882 3.11303 0
M  V30 2408 H 228.657 2.66715 2.87412 0
M  V30 2409 H 230.147 2.04251 3.64241 0
M  V30 2410 N 230.584 -0.659388 1.43143 0
M  V30 2411 C 231.547 -1.75432 1.47501 0
M  V30 2412 C 232.547 -1.56707 0.360512 0
M  V30 2413 O 233.737 -1.62717 0.622002 0
M  V30 2414 C 230.869 -3.14239 1.32162 0
M  V30 2415 H 232.062 -1.7295 2.45006 0
M  V30 2416 H 229.615 -0.870469 1.29817 0
M  V30 2417 H 230.35 -3.22336 0.356401 0
M  V30 2418 H 230.135 -3.29235 2.12948 0
M  V30 2419 H 231.625 -3.94094 1.3813 0
M  V30 2420 N 232.062 -1.29571 -0.897171 0
M  V30 2421 C 232.995 -1.0924 -2.00354 0
M  V30 2422 C 233.973 -0.00354011 -1.626 0
M  V30 2423 O 235.157 -0.15473 -1.87864 0
M  V30 2424 C 232.284 -0.66352 -3.32137 0
M  V30 2425 C 231.33 -1.75146 -3.88878 0
M  V30 2426 S 232.163 -3.35124 -4.17674 0
M  V30 2427 C 233.319 -2.9411 -5.52494 0
M  V30 2428 H 233.552 -2.02907 -2.17292 0
M  V30 2429 H 231.085 -1.13746 -1.04408 0
M  V30 2430 H 233.043 -0.422791 -4.08317 0
M  V30 2431 H 231.704 0.253588 -3.13075 0
M  V30 2432 H 230.897 -1.40337 -4.84068 0
M  V30 2433 H 230.499 -1.94584 -3.19395 0
M  V30 2434 H 232.791 -2.41312 -6.33068 0
M  V30 2435 H 233.734 -3.88161 -5.9223 0
M  V30 2436 H 234.142 -2.32332 -5.14473 0
M  V30 2437 N 233.54 1.10788 -1.12088 0
M  V30 2438 C 234.788 1.8231 -0.872205 0
M  V30 2439 C 235.109 1.85419 0.603709 0
M  V30 2440 O 234.379 1.32963 1.43867 0
M  V30 2441 H 232.959 0.675137 -0.319686 0
M  V30 2442 H 235.621 1.34068 -1.41463 0
M  V30 2443 H 234.717 2.85955 -1.25045 0
M  V30 2444 N 235.018 0.912232 1.28515 0
M  V30 2445 C 236.258 0.551677 1.96814 0
M  V30 2446 C 236.622 -0.887825 1.7024 0
M  V30 2447 O 237.823 -1.35588 2.32098 0
M  V30 2448 C 236.094 0.850555 3.47132 0
M  V30 2449 S 237.653 0.59619 4.34731 0
M  V30 2450 H 234.471 0.204191 0.681049 0
M  V30 2451 H 237.073 1.17736 1.56072 0
M  V30 2452 H 235.777 1.8962 3.63968 0
M  V30 2453 H 235.308 0.213471 3.9282 0
M  V30 2454 H 237.323 -0.553154 4.93107 0
M  V30 2455 N 236.496 -1.42363 0.676048 0
M  V30 2456 C 237.721 -2.06377 0.205705 0
M  V30 2457 C 238.146 -1.50463 -1.12883 0
M  V30 2458 O 237.504 -0.623619 -1.70237 0
M  V30 2459 C 237.552 -3.60277 0.152655 0
M  V30 2460 O 236.656 -4.02935 -0.87845 0
M  V30 2461 H 235.997 -0.655588 0.105359 0
M  V30 2462 H 238.527 -1.82475 0.925412 0
M  V30 2463 H 238.537 -4.07993 -0.0230675 0
M  V30 2464 H 237.212 -4.00346 1.12675 0
M  V30 2465 H 235.789 -3.66764 -0.673668 0
M  V30 2466 N 237.974 -0.419461 -1.51915 0
M  V30 2467 C 238.922 0.415502 -2.28859 0
M  V30 2468 C 239.916 1.03674 -1.3397 0
M  V30 2469 O 241.122 0.973757 -1.51387 0
M  V30 2470 H 237.497 0.152786 -0.736315 0
M  V30 2471 H 239.468 -0.254531 -2.97312 0
M  V30 2472 C 238.217 1.51425 -3.12995 0
M  V30 2473 H 237.54 1.04556 -3.85886 0
M  V30 2474 H 238.98 2.07208 -3.6992 0
M  V30 2475 C 237.439 2.48745 -2.27217 0
M  V30 2476 O 237.969 3.52871 -1.9195 0
M  V30 2477 N 236.175 2.19202 -1.90785 0
M  V30 2478 H 235.722 1.34556 -2.19664 0
M  V30 2479 H 235.68 2.84561 -1.33687 0
M  V30 2480 N 239.452 1.56882 -0.150215 0
M  V30 2481 C 240.863 1.82995 0.370076 0
M  V30 2482 C 241.214 1.06907 1.64515 0
M  V30 2483 O 240.339 0.315369 2.1409 0
M  V30 2484 C 240.934 3.31942 0.678208 0
M  V30 2485 C 239.493 3.58625 1.14301 0
M  V30 2486 C 238.64 2.76792 0.167778 0
M  V30 2487 H 241.591 1.54209 -0.374858 0
M  V30 2488 H 241.612 3.48272 1.53254 0
M  V30 2489 H 241.124 3.87294 -0.249991 0
M  V30 2490 H 239.225 3.08664 2.08704 0
M  V30 2491 H 239.338 4.67073 1.06676 0
M  V30 2492 H 237.702 2.45972 0.661037 0
M  V30 2493 H 238.485 3.34916 -0.754069 0
M  V30 2494 N 240.93 -0.123565 1.57115 0
M  V30 2495 C 241.88 -1.1575 1.96433 0
M  V30 2496 C 242.864 -1.37313 0.838686 0
M  V30 2497 O 244.056 -1.38482 1.10235 0
M  V30 2498 C 241.185 -2.48526 2.36833 0
M  V30 2499 C 240.271 -2.30457 3.5602 0
M  V30 2500 N 240.662 -1.8219 4.71848 0
M  V30 2501 C 238.96 -2.61129 3.61563 0
M  V30 2502 C 239.661 -1.77721 5.53886 0
M  V30 2503 N 238.637 -2.21899 4.96248 0
M  V30 2504 H 242.439 -0.776797 2.83449 0
M  V30 2505 H 239.953 -0.331364 1.58983 0
M  V30 2506 H 241.95 -3.233 2.63216 0
M  V30 2507 H 240.61 -2.87358 1.5118 0
M  V30 2508 H 241.621 -1.51805 4.95152 0
M  V30 2509 H 238.298 -3.03678 2.86507 0
M  V30 2510 H 239.688 -1.41697 6.56789 0
M  V30 2511 N 242.408 -1.52605 -0.393616 0
M  V30 2512 C 243.819 -1.59417 -0.971761 0
M  V30 2513 C 244.17 -0.444173 -1.91106 0
M  V30 2514 O 243.295 0.433382 -2.12016 0
M  V30 2515 C 243.89 -2.88936 -1.76921 0
M  V30 2516 C 242.449 -2.98175 -2.29714 0
M  V30 2517 C 241.596 -2.54491 -1.10135 0
M  V30 2518 H 244.547 -1.57751 -0.173317 0
M  V30 2519 H 244.568 -2.75163 -2.62804 0
M  V30 2520 H 244.08 -3.72616 -1.08532 0
M  V30 2521 H 242.181 -2.19024 -3.01429 0
M  V30 2522 H 242.294 -4.02726 -2.59517 0
M  V30 2523 H 240.658 -2.08702 -1.45999 0
M  V30 2524 H 241.441 -3.4056 -0.432874 0
M  V30 2525 N 243.887 0.651787 -1.4349 0
M  V30 2526 C 244.837 1.75783 -1.45205 0
M  V30 2527 C 245.821 1.57679 -0.320328 0
M  V30 2528 O 247.013 1.67767 -0.564211 0
M  V30 2529 C 244.142 3.14377 -1.3792 0
M  V30 2530 C 243.228 3.38023 -2.56127 0
M  V30 2531 N 243.619 3.32135 -3.81471 0
M  V30 2532 C 241.917 3.68747 -2.50882 0
M  V30 2533 C 242.618 3.55902 -4.60118 0
M  V30 2534 N 241.594 3.77783 -3.90872 0
M  V30 2535 H 245.396 1.69657 -2.39987 0
M  V30 2536 H 242.91 0.853508 -1.38163 0
M  V30 2537 H 244.907 3.93666 -1.37231 0
M  V30 2538 H 243.567 3.21683 -0.441596 0
M  V30 2539 H 244.578 3.11515 -4.13738 0
M  V30 2540 H 241.255 3.8316 -1.65816 0
M  V30 2541 H 242.645 3.57116 -5.69138 0
M  V30 2542 N 245.365 1.30045 0.890287 0
M  V30 2543 C 246.613 1.18327 1.63839 0
M  V30 2544 C 246.934 -0.263455 1.93212 0
M  V30 2545 O 246.204 -1.17856 1.56482 0
M  V30 2546 H 244.784 0.434933 0.607324 0
M  V30 2547 H 247.446 1.631 1.06698 0
M  V30 2548 H 246.542 1.74024 2.59079 0
M  V30 2549 N 246.843 -1.10192 1.12674 0
M  V30 2550 C 247.775 -2.16418 0.754701 0
M  V30 2551 C 248.788 -1.61309 -0.21986 0
M  V30 2552 O 249.977 -1.785 -0.000826841 0
M  V30 2553 C 247.077 -3.38762 0.096698 0
M  V30 2554 C 246.25 -4.23307 1.10136 0
M  V30 2555 C 245.309 -5.24092 0.470513 0
M  V30 2556 O 244.335 -5.57906 1.12824 0
M  V30 2557 N 245.537 -5.75491 -0.760948 0
M  V30 2558 H 248.302 -2.48943 1.66875 0
M  V30 2559 H 245.863 -1.25834 1.01869 0
M  V30 2560 H 247.855 -4.03291 -0.337384 0
M  V30 2561 H 246.425 -3.04192 -0.720153 0
M  V30 2562 H 245.645 -3.55036 1.71299 0
M  V30 2563 H 246.933 -4.76624 1.78064 0
M  V30 2564 H 246.331 -5.50222 -1.31424 0
M  V30 2565 H 244.888 -6.41792 -1.13781 0
M  V30 2566 N 248.321 -0.919034 -1.28029 0
M  V30 2567 C 249.57 -0.550802 -1.94034 0
M  V30 2568 C 249.883 0.910877 -1.73096 0
M  V30 2569 O 251.089 1.3875 -2.33368 0
M  V30 2570 C 249.545 -0.934249 -3.47563 0
M  V30 2571 C 249.153 -2.41602 -3.7727 0
M  V30 2572 C 250.897 -0.636854 -4.19696 0
M  V30 2573 C 248.804 -2.73932 -5.24133 0
M  V30 2574 H 247.734 -0.202273 -0.726362 0
M  V30 2575 H 250.385 -1.11867 -1.45458 0
M  V30 2576 H 248.767 -0.295115 -3.94899 0
M  V30 2577 H 249.941 -3.10233 -3.40723 0
M  V30 2578 H 248.256 -2.68441 -3.18321 0
M  V30 2579 H 250.853 -0.855005 -5.2782 0
M  V30 2580 H 251.196 0.425575 -4.14119 0
M  V30 2581 H 251.729 -1.23469 -3.78154 0
M  V30 2582 H 248.468 -3.79049 -5.34792 0
M  V30 2583 H 247.988 -2.09942 -5.61858 0
M  V30 2584 H 249.667 -2.61215 -5.91925 0
M  V30 2585 N 249.799 1.42003 -0.683588 0
M  V30 2586 C 251.045 2.02223 -0.218536 0
M  V30 2587 C 251.4 1.53126 1.16492 0
M  V30 2588 O 250.693 0.727459 1.77253 0
M  V30 2589 C 250.887 3.56827 -0.202357 0
M  V30 2590 C 250.716 4.20928 -1.5827 0
M  V30 2591 C 249.486 4.5573 -2.18262 0
M  V30 2592 C 251.684 4.47933 -2.52706 0
M  V30 2593 N 249.666 5.05056 -3.48986 0
M  V30 2594 C 251.037 4.98906 -3.68094 0
M  V30 2595 C 253.092 4.29931 -2.51125 0
M  V30 2596 C 251.795 5.33768 -4.82166 0
M  V30 2597 C 253.821 4.65875 -3.643 0
M  V30 2598 C 253.183 5.17008 -4.78417 0
M  V30 2599 H 249.282 0.771931 -0.125088 0
M  V30 2600 H 251.866 1.72729 -0.898479 0
M  V30 2601 H 250.037 3.85819 0.447029 0
M  V30 2602 H 251.769 4.03755 0.276399 0
M  V30 2603 H 248.524 4.41781 -1.70665 0
M  V30 2604 H 248.948 5.34139 -4.15962 0
M  V30 2605 H 253.59 3.89647 -1.6412 0
M  V30 2606 H 251.308 5.72981 -5.6984 0
M  V30 2607 H 254.894 4.53615 -3.64314 0
M  V30 2608 H 253.774 5.44301 -5.64541 0
M  V30 2609 N 251.277 0.427512 1.51691 0
M  V30 2610 C 252.24 -0.377132 2.26076 0
M  V30 2611 C 253.24 -0.958089 1.29141 0
M  V30 2612 O 254.43 -0.83408 1.52934 0
M  V30 2613 C 251.562 -1.53262 3.04506 0
M  V30 2614 H 252.755 0.27464 2.9864 0
M  V30 2615 H 250.308 0.180445 1.55255 0
M  V30 2616 H 251.043 -2.22072 2.36335 0
M  V30 2617 H 250.828 -1.12232 3.75694 0
M  V30 2618 H 252.318 -2.10135 3.60878 0
M  V30 2619 N 252.755 -1.56801 0.158532 0
M  V30 2620 C 253.703 -2.18638 -0.793729 0
M  V30 2621 C 254.697 -1.14669 -1.24689 0
M  V30 2622 O 255.903 -1.32895 -1.21403 0
M  V30 2623 H 252.278 -0.700226 -0.274204 0
M  V30 2624 H 254.249 -2.97367 -0.248095 0
M  V30 2625 C 252.998 -2.83139 -2.0181 0
M  V30 2626 H 252.321 -3.62863 -1.67841 0
M  V30 2627 H 253.761 -3.29894 -2.66357 0
M  V30 2628 C 252.22 -1.82244 -2.83353 0
M  V30 2629 O 252.75 -1.3 -3.80083 0
M  V30 2630 N 250.956 -1.51288 -2.48114 0
M  V30 2631 H 250.503 -1.93964 -1.69516 0
M  V30 2632 H 250.461 -0.840296 -3.02963 0
M  V30 2633 N 254.233 0.115231 -1.57178 0
M  V30 2634 C 255.458 0.840354 -1.89612 0
M  V30 2635 C 255.883 1.72464 -0.750845 0
M  V30 2636 O 255.241 1.78826 0.298478 0
M  V30 2637 C 255.289 1.64654 -3.20814 0
M  V30 2638 O 254.393 2.7538 -3.06985 0
M  V30 2639 H 253.734 0.232158 -0.622092 0
M  V30 2640 H 256.264 0.0964977 -2.04372 0
M  V30 2641 H 256.274 2.03499 -3.53627 0
M  V30 2642 H 254.949 0.997416 -4.03763 0
M  V30 2643 H 253.526 2.3971 -2.85646 0
M  V30 2644 N 255.711 1.52812 0.385517 0
M  V30 2645 C 256.958 1.68026 1.1302 0
M  V30 2646 C 257.286 0.421934 1.89868 0
M  V30 2647 O 256.541 -0.595749 1.86412 0
M  V30 2648 C 256.84 2.86856 2.13187 0
M  V30 2649 C 256.506 4.24159 1.5297 0
M  V30 2650 C 255.168 4.61501 1.36274 0
M  V30 2651 C 257.52 5.09627 1.09223 0
M  V30 2652 C 254.848 5.81966 0.743837 0
M  V30 2653 C 257.2 6.30719 0.487411 0
M  V30 2654 C 255.864 6.6679 0.307777 0
M  V30 2655 H 255.134 0.614849 0.413571 0
M  V30 2656 H 257.781 1.86962 0.414405 0
M  V30 2657 H 256.086 2.6235 2.90998 0
M  V30 2658 H 257.783 2.95821 2.70722 0
M  V30 2659 H 254.373 3.94746 1.66954 0
M  V30 2660 H 258.557 4.81343 1.20922 0
M  V30 2661 H 253.813 6.08519 0.592891 0
M  V30 2662 H 257.987 6.96259 0.140143 0
M  V30 2663 H 255.614 7.60001 -0.173879 0
M  V30 2664 N 257.189 -0.644168 1.43834 0
M  V30 2665 C 258.119 -1.76814 1.52509 0
M  V30 2666 C 259.1 -1.65823 0.379052 0
M  V30 2667 O 260.285 -1.84781 0.597466 0
M  V30 2668 C 257.415 -3.15288 1.4564 0
M  V30 2669 C 256.369 -3.41053 2.58586 0
M  V30 2670 C 255.695 -4.79421 2.36769 0
M  V30 2671 C 256.995 -3.34902 4.00797 0
M  V30 2672 H 258.689 -1.69812 2.46586 0
M  V30 2673 H 256.235 -0.815542 1.1868 0
M  V30 2674 H 258.188 -3.93681 1.50311 0
M  V30 2675 H 256.912 -3.23043 0.480725 0
M  V30 2676 H 255.571 -2.65035 2.53282 0
M  V30 2677 H 255.219 -4.83863 1.37424 0
M  V30 2678 H 254.919 -4.9762 3.12487 0
M  V30 2679 H 256.443 -5.6006 2.43238 0
M  V30 2680 H 257.857 -4.03218 4.07539 0
M  V30 2681 H 256.254 -3.64637 4.76613 0
M  V30 2682 H 257.324 -2.32928 4.25291 0
M  V30 2683 N 258.668 -1.30515 -0.883378 0
M  V30 2684 C 260.079 -1.17509 -1.45081 0
M  V30 2685 C 260.43 0.223605 -1.94922 0
M  V30 2686 O 259.555 1.12041 -1.85137 0
M  V30 2687 C 260.15 -2.12715 -2.63701 0
M  V30 2688 C 258.709 -2.03682 -3.16529 0
M  V30 2689 C 257.856 -2.02706 -1.89224 0
M  V30 2690 H 260.807 -1.42762 -0.693165 0
M  V30 2691 H 260.828 -1.70891 -3.39965 0
M  V30 2692 H 260.34 -3.14505 -2.27395 0
M  V30 2693 H 258.441 -1.05039 -3.57488 0
M  V30 2694 H 258.554 -2.92146 -3.7972 0
M  V30 2695 H 256.918 -1.4753 -2.07622 0
M  V30 2696 H 257.701 -3.06229 -1.55174 0
M  V30 2697 N 260.146 1.09593 -1.13257 0
M  V30 2698 C 261.094 2.18271 -0.803783 0
M  V30 2699 C 262.088 1.68054 0.213148 0
M  V30 2700 O 263.294 1.79862 0.0704699 0
M  V30 2701 H 259.669 0.711949 -0.242143 0
M  V30 2702 H 261.64 2.43235 -1.72856 0
M  V30 2703 C 260.389 3.46536 -0.28424 0
M  V30 2704 H 259.712 3.85545 -1.05807 0
M  V30 2705 H 261.152 4.23899 -0.0925945 0
M  V30 2706 C 259.611 3.22036 0.989684 0
M  V30 2707 O 260.141 3.44509 2.06584 0
M  V30 2708 N 258.347 2.7565 0.920086 0
M  V30 2709 H 257.894 2.57562 0.0442019 0
M  V30 2710 H 257.852 2.59635 1.77306 0
M  V30 2711 N 261.624 0.925811 1.2754 0
M  V30 2712 C 262.534 0.428993 2.30644 0
M  V30 2713 C 263.55 -0.489387 1.66976 0
M  V30 2714 O 264.726 -0.372653 1.97922 0
M  V30 2715 C 261.791 -0.311967 3.45294 0
M  V30 2716 C 260.852 0.641098 4.24486 0
M  V30 2717 C 260.085 -0.0645955 5.33661 0
M  V30 2718 O 260.308 -1.28429 5.55754 0
M  V30 2719 O 259.242 0.606265 5.98839 0
M  V30 2720 H 263.068 1.28504 2.75173 0
M  V30 2721 H 260.653 0.691086 1.32455 0
M  V30 2722 H 262.535 -0.729972 4.15029 0
M  V30 2723 H 261.21 -1.14365 3.02824 0
M  V30 2724 H 260.117 1.10874 3.57292 0
M  V30 2725 H 261.45 1.43995 4.70666 0
M  V30 2726 N 263.102 -1.41638 0.69111 0
M  V30 2727 C 264.065 -2.29178 0.0319786 0
M  V30 2728 C 265.065 -1.44153 -0.712496 0
M  V30 2729 O 266.255 -1.65354 -0.548053 0
M  V30 2730 C 263.387 -3.26952 -0.965161 0
M  V30 2731 H 264.58 -2.88959 0.802681 0
M  V30 2732 H 262.133 -1.4955 0.454356 0
M  V30 2733 H 262.868 -2.72142 -1.76378 0
M  V30 2734 H 262.653 -3.89685 -0.434522 0
M  V30 2735 H 264.143 -3.92561 -1.42428 0
M  V30 2736 N 264.58 -0.43555 -1.51462 0
M  V30 2737 C 265.49 0.383001 -2.31453 0
M  V30 2738 C 266.506 1.02931 -1.4029 0
M  V30 2739 O 267.682 1.02507 -1.73362 0
M  V30 2740 C 264.747 1.47043 -3.13973 0
M  V30 2741 C 263.808 0.844433 -4.20913 0
M  V30 2742 C 263.041 1.88004 -4.9949 0
M  V30 2743 O 263.264 3.10199 -4.78678 0
M  V30 2744 O 262.198 1.47157 -5.83634 0
M  V30 2745 H 266.024 -0.269964 -3.02498 0
M  V30 2746 H 263.609 -0.19813 -1.4808 0
M  V30 2747 H 265.491 2.10113 -3.65281 0
M  V30 2748 H 264.166 2.10751 -2.45695 0
M  V30 2749 H 263.073 0.175729 -3.73687 0
M  V30 2750 H 264.406 0.250869 -4.9156 0
M  V30 2751 N 266.058 1.56714 -0.166846 0
M  V30 2752 C 267.474 1.58473 0.189372 0
M  V30 2753 C 267.674 1.18201 1.63189 0
M  V30 2754 O 266.73 0.891528 2.36237 0
M  V30 2755 C 268.043 3.00573 -0.0873872 0
M  V30 2756 C 269.591 3.1299 -0.0252443 0
M  V30 2757 C 270.066 4.57174 -0.274934 0
M  V30 2758 N 271.557 4.62665 -0.222553 0
M  V30 2759 C 272.292 5.72072 -0.389985 0
M  V30 2760 N 271.788 6.90054 -0.616229 0
M  V30 2761 N 273.581 5.61153 -0.326202 0
M  V30 2762 H 265.732 1.8118 -1.10849 0
M  V30 2763 H 267.995 0.839525 -0.440342 0
M  V30 2764 H 267.701 3.34497 -1.0865 0
M  V30 2765 H 267.575 3.72019 0.623037 0
M  V30 2766 H 269.962 2.78895 0.96444 0
M  V30 2767 H 270.043 2.43989 -0.768309 0
M  V30 2768 H 269.687 4.91976 -1.26181 0
M  V30 2769 H 269.617 5.24328 0.48869 0
M  V30 2770 H 272.108 3.77863 -0.0531512 0
M  V30 2771 H 272.421 7.69311 -0.733559 0
M  V30 2772 H 270.766 6.91927 -0.652791 0
M  V30 2773 H 273.957 4.67859 -0.150072 0
M  V30 2774 H 274.13 6.46364 -0.460116 0
M  V30 2775 N 267.536 -0.106894 1.57237 0
M  V30 2776 C 268.446 -1.14911 2.0453 0
M  V30 2777 C 269.462 -1.44592 0.96795 0
M  V30 2778 O 270.638 -1.55468 1.2803 0
M  V30 2779 C 267.703 -2.45272 2.45036 0
M  V30 2780 C 266.764 -2.22879 3.66911 0
M  V30 2781 C 265.997 -3.47024 4.05475 0
M  V30 2782 O 266.22 -4.54804 3.44252 0
M  V30 2783 O 265.154 -3.3731 4.98504 0
M  V30 2784 H 268.98 -0.777461 2.9358 0
M  V30 2785 H 266.565 -0.318563 1.45964 0
M  V30 2786 H 268.447 -3.22055 2.71769 0
M  V30 2787 H 267.122 -2.81886 1.59129 0
M  V30 2788 H 266.029 -1.43915 3.45311 0
M  V30 2789 H 267.362 -1.91163 4.53561 0
M  V30 2790 N 269.014 -1.53014 -0.377408 0
M  V30 2791 C 270.291 -1.59215 -1.13622 0
M  V30 2792 C 270.671 -0.392407 -2.07421 0
M  V30 2793 O 270.019 0.618342 -2.19975 0
M  V30 2794 C 270.229 -2.93669 -1.88573 0
M  V30 2795 C 271.577 -3.47822 -2.43526 0
M  V30 2796 O 272.601 -2.9562 -1.98715 0
M  V30 2797 O 271.46 -4.39055 -3.25412 0
M  V30 2798 H 268.554 -0.642625 -0.52054 0
M  V30 2799 H 271.1 -1.65353 -0.381625 0
M  V30 2800 H 269.872 -3.7243 -1.20048 0
M  V30 2801 H 269.495 -2.90968 -2.70968 0
M  V30 2802 N 270.492 0.636531 -1.44174 0
M  V30 2803 C 271.908 0.954104 -1.27941 0
M  V30 2804 C 272.108 2.0039 -0.211248 0
M  V30 2805 O 271.164 2.49236 0.404695 0
M  V30 2806 C 272.477 1.4225 -2.64925 0
M  V30 2807 C 274.025 1.53827 -2.72592 0
M  V30 2808 C 274.5 2.04053 -4.10032 0
M  V30 2809 N 275.991 2.11331 -4.12182 0
M  V30 2810 C 276.726 2.51352 -5.15374 0
M  V30 2811 N 276.222 2.90549 -6.2893 0
M  V30 2812 N 278.015 2.51438 -5.02728 0
M  V30 2813 H 270.166 -0.0578386 -2.12321 0
M  V30 2814 H 272.429 0.0367406 -0.947288 0
M  V30 2815 H 272.135 0.725466 -3.44136 0
M  V30 2816 H 272.009 2.39451 -2.9145 0
M  V30 2817 H 274.396 2.22628 -1.93702 0
M  V30 2818 H 274.477 0.550154 -2.49814 0
M  V30 2819 H 274.121 1.35848 -4.89395 0
M  V30 2820 H 274.051 3.03726 -4.30184 0
M  V30 2821 H 276.542 1.83745 -3.30222 0
M  V30 2822 H 276.855 3.19884 -7.03487 0
M  V30 2823 H 275.2 2.88313 -6.32377 0
M  V30 2824 H 278.391 2.20203 -4.13072 0
M  V30 2825 H 278.564 2.82304 -5.83274 0
M  V30 2826 N 271.97 1.30982 0.876444 0
M  V30 2827 C 272.9 1.20668 1.99903 0
M  V30 2828 C 273.881 0.095354 1.69833 0
M  V30 2829 O 275.066 0.27885 1.92188 0
M  V30 2830 C 272.196 0.90655 3.3526 0
M  V30 2831 C 271.15 1.97675 3.79617 0
M  V30 2832 C 270.476 1.52943 5.1236 0
M  V30 2833 C 271.776 3.389 3.97422 0
M  V30 2834 H 273.47 2.14586 2.0879 0
M  V30 2835 H 271.016 1.03308 1.00317 0
M  V30 2836 H 272.969 0.821025 4.13324 0
M  V30 2837 H 271.693 -0.0682969 3.26529 0
M  V30 2838 H 270.352 2.05205 3.03787 0
M  V30 2839 H 270 0.54262 5.00065 0
M  V30 2840 H 269.7 2.24532 5.43009 0
M  V30 2841 H 271.224 1.45786 5.92941 0
M  V30 2842 H 272.638 3.34081 4.659 0
M  V30 2843 H 271.035 4.0865 4.3946 0
M  V30 2844 H 272.105 3.80163 3.01006 0
M  V30 2845 N 273.449 -1.08991 1.13837 0
M  V30 2846 C 274.381 -2.15606 0.777612 0
M  V30 2847 C 275.394 -1.61533 -0.202739 0
M  V30 2848 O 276.583 -1.78491 0.0181055 0
M  V30 2849 C 273.683 -3.3864 0.132623 0
M  V30 2850 C 272.856 -4.22115 1.1462 0
M  V30 2851 C 271.915 -5.23564 0.526074 0
M  V30 2852 O 270.941 -5.56678 1.18735 0
M  V30 2853 N 272.143 -5.76266 -0.699866 0
M  V30 2854 H 274.908 -2.47159 1.69506 0
M  V30 2855 H 272.469 -1.24747 1.03198 0
M  V30 2856 H 274.461 -4.03626 -0.29459 0
M  V30 2857 H 273.031 -3.04938 -0.687849 0
M  V30 2858 H 272.251 -3.53199 1.75055 0
M  V30 2859 H 273.539 -4.74709 1.83109 0
M  V30 2860 H 272.937 -5.51585 -1.25581 0
M  V30 2861 H 271.494 -6.42963 -1.06968 0
M  V30 2862 N 274.927 -0.932562 -1.27047 0
M  V30 2863 C 275.874 -0.434072 -2.26681 0
M  V30 2864 C 276.844 0.501639 -1.58344 0
M  V30 2865 O 278.029 0.419734 -1.86126 0
M  V30 2866 C 275.169 0.30261 -3.43771 0
M  V30 2867 C 274.282 -0.667774 -4.26808 0
M  V30 2868 C 273.417 0.0892393 -5.31125 0
M  V30 2869 C 272.456 -0.873532 -6.05835 0
M  V30 2870 N 271.593 -0.148832 -7.01942 0
M  V30 2871 H 276.433 -1.28868 -2.68695 0
M  V30 2872 H 273.97 -0.646713 -1.32121 0
M  V30 2873 H 275.928 0.746092 -4.10474 0
M  V30 2874 H 274.558 1.12142 -3.02695 0
M  V30 2875 H 273.61 -1.22978 -3.59973 0
M  V30 2876 H 274.922 -1.40337 -4.78651 0
M  V30 2877 H 274.076 0.592409 -6.03801 0
M  V30 2878 H 272.815 0.85777 -4.80097 0
M  V30 2879 H 271.82 -1.38791 -5.31994 0
M  V30 2880 H 273.045 -1.64193 -6.58952 0
M  V30 2881 H 270.991 0.601365 -6.53238 0
M  V30 2882 H 270.908 -0.82391 -7.51497 0
M  V30 2883 H 272.176 0.333527 -7.78786 0
M  V30 2884 N 276.405 1.4127 -0.698611 0
M  V30 2885 C 277.315 2.34573 -0.0357891 0
M  V30 2886 C 278.331 1.56393 0.762701 0
M  V30 2887 O 279.507 1.8886 0.699564 0
M  V30 2888 C 276.572 3.35159 0.887089 0
M  V30 2889 C 275.633 4.29225 0.0804634 0
M  V30 2890 C 274.866 5.25006 0.959387 0
M  V30 2891 O 275.089 5.26314 2.19886 0
M  V30 2892 O 274.023 6.00519 0.407439 0
M  V30 2893 H 277.849 2.92838 -0.804957 0
M  V30 2894 H 275.434 1.42175 -0.458966 0
M  V30 2895 H 277.316 3.9689 1.41621 0
M  V30 2896 H 275.991 2.79333 1.6357 0
M  V30 2897 H 274.898 3.70833 -0.493328 0
M  V30 2898 H 276.231 4.88157 -0.629547 0
M  V30 2899 N 277.883 0.443576 1.51229 0
M  V30 2900 C 279.113 -0.119117 2.06256 0
M  V30 2901 C 279.521 -1.36471 1.31043 0
M  V30 2902 O 278.864 -1.80034 0.365151 0
M  V30 2903 C 278.926 -0.500546 3.55998 0
M  V30 2904 C 278.59 0.639125 4.52509 0
M  V30 2905 C 279.587 1.51311 4.97394 0
M  V30 2906 C 277.272 0.821632 4.95535 0
M  V30 2907 C 279.266 2.55425 5.83984 0
M  V30 2908 C 276.953 1.86603 5.81913 0
M  V30 2909 C 277.951 2.73072 6.26036 0
M  V30 2910 O 277.639 3.75718 7.10698 0
M  V30 2911 H 277.371 -0.00857665 0.675946 0
M  V30 2912 H 279.925 0.623288 1.95715 0
M  V30 2913 H 278.155 -1.29575 3.64345 0
M  V30 2914 H 279.844 -0.995116 3.93513 0
M  V30 2915 H 280.61 1.38367 4.64844 0
M  V30 2916 H 276.489 0.158149 4.60729 0
M  V30 2917 H 280.033 3.22949 6.18344 0
M  V30 2918 H 275.93 1.99564 6.13876 0
M  V30 2919 H 276.698 3.72374 7.2889 0
M  V30 2920 N 279.361 -1.56624 0.175154 0
M  V30 2921 C 280.608 -1.96999 -0.468811 0
M  V30 2922 C 280.936 -1.06129 -1.62994 0
M  V30 2923 O 280.191 -0.0961771 -1.95464 0
M  V30 2924 C 280.49 -3.43419 -0.989864 0
M  V30 2925 C 280.156 -4.50866 0.0557687 0
M  V30 2926 C 278.818 -4.79975 0.343134 0
M  V30 2927 C 281.17 -5.15551 0.765308 0
M  V30 2928 C 278.498 -5.71066 1.34536 0
M  V30 2929 C 280.85 -6.07724 1.75654 0
M  V30 2930 C 279.514 -6.35199 2.05132 0
M  V30 2931 H 278.784 -0.720869 -0.17155 0
M  V30 2932 H 281.431 -1.89616 0.267924 0
M  V30 2933 H 279.736 -3.47772 -1.80449 0
M  V30 2934 H 281.433 -3.72002 -1.49719 0
M  V30 2935 H 278.023 -4.28229 -0.178381 0
M  V30 2936 H 282.207 -4.9317 0.556513 0
M  V30 2937 H 277.463 -5.90635 1.57988 0
M  V30 2938 H 281.637 -6.56912 2.31169 0
M  V30 2939 H 279.264 -7.05584 2.8294 0
M  V30 2940 N 280.839 0.0985539 -1.57292 0
M  V30 2941 C 281.802 1.10402 -2.00858 0
M  V30 2942 C 282.802 1.33146 -0.901593 0
M  V30 2943 O 283.992 1.29318 -1.16716 0
M  V30 2944 C 281.124 2.45394 -2.36632 0
M  V30 2945 H 282.317 0.729099 -2.90902 0
M  V30 2946 H 279.87 0.343495 -1.52479 0
M  V30 2947 H 280.605 2.87769 -1.49531 0
M  V30 2948 H 280.39 2.30235 -3.17387 0
M  V30 2949 H 281.88 3.17718 -2.71007 0
M  V30 2950 N 282.317 1.53212 0.369288 0
M  V30 2951 C 283.227 1.82342 1.47609 0
M  V30 2952 C 284.243 0.711532 1.58787 0
M  V30 2953 O 285.419 1.0012 1.74751 0
M  V30 2954 C 282.484 2.00393 2.8292 0
M  V30 2955 C 281.545 3.24297 2.81301 0
M  V30 2956 C 280.778 3.41478 4.10157 0
M  V30 2957 O 281.001 2.63033 5.06132 0
M  V30 2958 O 279.935 4.34817 4.16194 0
M  V30 2959 H 283.761 2.76366 1.25918 0
M  V30 2960 H 281.346 1.38547 0.559034 0
M  V30 2961 H 283.228 2.13859 3.63101 0
M  V30 2962 H 281.903 1.09559 3.04596 0
M  V30 2963 H 280.81 3.16257 1.99831 0
M  V30 2964 H 282.143 4.15041 2.64578 0
M  V30 2965 N 283.795 -0.628877 1.44509 0
M  V30 2966 C 284.727 -1.754 1.47538 0
M  V30 2967 C 285.74 -1.58575 0.368506 0
M  V30 2968 O 286.929 -1.66847 0.634376 0
M  V30 2969 C 284.029 -3.1315 1.29577 0
M  V30 2970 C 283.202 -3.56413 2.53551 0
M  V30 2971 C 282.261 -4.7305 2.30457 0
M  V30 2972 O 281.287 -4.81247 3.03957 0
M  V30 2973 N 282.489 -5.64903 1.3366 0
M  V30 2974 H 285.254 -1.73272 2.44534 0
M  V30 2975 H 282.815 -0.813512 1.39977 0
M  V30 2976 H 284.807 -3.88902 1.11971 0
M  V30 2977 H 283.377 -3.09908 0.409371 0
M  V30 2978 H 282.597 -2.70847 2.86419 0
M  V30 2979 H 283.885 -3.82071 3.36005 0
M  V30 2980 H 283.283 -5.60975 0.729604 0
M  V30 2981 H 281.84 -6.40275 1.22032 0
M  V30 2982 N 285.273 -1.31445 -0.869486 0
M  V30 2983 C 286.22 -1.19135 -1.97675 0
M  V30 2984 C 287.19 -0.0770266 -1.65921 0
M  V30 2985 O 288.375 -0.249972 -1.89155 0
M  V30 2986 C 285.515 -0.905149 -3.33018 0
M  V30 2987 C 284.628 -2.10285 -3.77365 0
M  V30 2988 C 283.763 -1.75339 -5.01427 0
M  V30 2989 C 282.802 -2.91515 -5.38224 0
M  V30 2990 N 281.939 -2.56762 -6.53466 0
M  V30 2991 H 286.779 -2.13853 -2.07535 0
M  V30 2992 H 284.316 -1.06379 -1.01597 0
M  V30 2993 H 286.274 -0.719765 -4.10944 0
M  V30 2994 H 284.904 0.00519624 -3.228 0
M  V30 2995 H 283.956 -2.39899 -2.95216 0
M  V30 2996 H 285.268 -2.97237 -4.00564 0
M  V30 2997 H 284.422 -1.53266 -5.87022 0
M  V30 2998 H 283.161 -0.855801 -4.80133 0
M  V30 2999 H 282.166 -3.14237 -4.51149 0
M  V30 3000 H 283.391 -3.81985 -5.61484 0
M  V30 3001 H 281.337 -1.69526 -6.33717 0
M  V30 3002 H 281.254 -3.37243 -6.76612 0
M  V30 3003 H 282.522 -2.38083 -7.42251 0
M  V30 3004 N 286.751 1.08385 -1.14413 0
M  V30 3005 C 287.976 1.85057 -0.936413 0
M  V30 3006 C 288.401 1.81055 0.509971 0
M  V30 3007 O 287.759 1.1958 1.36273 0
M  V30 3008 C 287.807 3.30505 -1.44217 0
M  V30 3009 O 286.911 4.07491 -0.634409 0
M  V30 3010 H 286.252 0.573425 -0.334784 0
M  V30 3011 H 288.782 1.36799 -1.52142 0
M  V30 3012 H 288.792 3.81348 -1.45043 0
M  V30 3013 H 287.467 3.32734 -2.49522 0
M  V30 3014 H 286.044 3.66368 -0.694902 0
M  V30 3015 N 288.23 0.939286 1.26551 0
M  V30 3016 C 289.641 0.628782 1.75793 0
M  V30 3017 C 289.992 -0.856046 1.7654 0
M  V30 3018 O 289.117 -1.66994 1.3763 0
M  V30 3019 C 289.712 1.13465 3.19235 0
M  V30 3020 C 288.271 0.874601 3.66098 0
M  V30 3021 C 287.418 1.28667 2.45642 0
M  V30 3022 H 290.369 1.1178 1.12654 0
M  V30 3023 H 290.39 0.487609 3.77363 0
M  V30 3024 H 289.902 2.21535 3.1866 0
M  V30 3025 H 288.003 -0.191793 3.72106 0
M  V30 3026 H 288.116 1.50028 4.55004 0
M  V30 3027 H 286.48 0.705109 2.44745 0
M  V30 3028 H 287.263 2.37625 2.47769 0
M  V30 3029 N 289.708 -1.40897 0.706093 0
M  V30 3030 C 290.641 -2.282 -0.00328781 0
M  V30 3031 C 291.619 -1.42816 -0.77732 0
M  V30 3032 O 292.803 -1.72237 -0.765944 0
M  V30 3033 C 289.93 -3.23226 -1.01205 0
M  V30 3034 C 288.976 -4.25222 -0.329955 0
M  V30 3035 S 289.809 -5.27269 0.935298 0
M  V30 3036 C 290.965 -6.25859 -0.0716061 0
M  V30 3037 H 291.198 -2.88016 0.737143 0
M  V30 3038 H 288.731 -1.46191 0.496756 0
M  V30 3039 H 290.689 -3.78503 -1.58888 0
M  V30 3040 H 289.35 -2.62485 -1.72513 0
M  V30 3041 H 288.543 -4.92023 -1.09221 0
M  V30 3042 H 288.145 -3.73595 0.174069 0
M  V30 3043 H 290.437 -6.71204 -0.921521 0
M  V30 3044 H 291.38 -7.0586 0.562765 0
M  V30 3045 H 291.788 -5.62852 -0.431088 0
M  V30 3046 N 291.186 -0.45159 -1.50991 0
M  V30 3047 C 292.116 0.342898 -2.30969 0
M  V30 3048 C 293.097 1.00815 -1.37005 0
M  V30 3049 O 294.282 1.00907 -1.65926 0
M  V30 3050 C 291.412 1.43637 -3.16205 0
M  V30 3051 C 290.366 0.893818 -4.18563 0
M  V30 3052 C 289.692 2.08411 -4.92411 0
M  V30 3053 C 290.992 -0.0815568 -5.22236 0
M  V30 3054 H 292.686 -0.324556 -2.97636 0
M  V30 3055 H 290.232 -0.157531 -1.43136 0
M  V30 3056 H 292.185 1.9995 -3.70942 0
M  V30 3057 H 290.909 2.13232 -2.47386 0
M  V30 3058 H 289.568 0.352798 -3.64898 0
M  V30 3059 H 289.216 2.76658 -4.20082 0
M  V30 3060 H 288.916 1.72741 -5.61636 0
M  V30 3061 H 290.44 2.65251 -5.49976 0
M  V30 3062 H 291.854 0.391742 -5.7196 0
M  V30 3063 H 290.251 -0.351551 -5.99069 0
M  V30 3064 H 291.321 -1.01374 -4.74185 0
M  V30 3065 N 292.664 1.56529 -0.183458 0
M  V30 3066 C 293.91 1.97537 0.459036 0
M  V30 3067 C 294.243 1.06989 1.62071 0
M  V30 3068 O 293.518 0.11948 1.94133 0
M  V30 3069 C 293.801 3.47874 0.930368 0
M  V30 3070 C 293.654 4.492 -0.232317 0
M  V30 3071 C 294.973 4.01612 1.79989 0
M  V30 3072 H 292.092 0.718204 0.165383 0
M  V30 3073 H 294.734 1.88042 -0.272038 0
M  V30 3074 H 292.884 3.56095 1.55333 0
M  V30 3075 H 294.556 4.53027 -0.86972 0
M  V30 3076 H 292.799 4.24657 -0.885928 0
M  V30 3077 H 293.47 5.51823 0.139796 0
M  V30 3078 H 295.946 3.96097 1.27461 0
M  V30 3079 H 294.822 5.07195 2.09867 0
M  V30 3080 H 295.083 3.46163 2.74998 0
M  V30 3081 N 294.142 -0.090211 1.57342 0
M  V30 3082 C 295.419 -0.824761 1.77361 0
M  V30 3083 C 295.799 -1.96698 0.76637 0
M  V30 3084 O 295.147 -2.27586 -0.204179 0
M  V30 3085 C 295.357 -1.31481 3.23286 0
M  V30 3086 C 296.705 -1.75563 3.86604 0
M  V30 3087 O 297.729 -1.41093 3.27065 0
M  V30 3088 O 296.588 -2.39317 4.91314 0
M  V30 3089 H 293.682 -0.393776 0.727234 0
M  V30 3090 H 296.228 -0.0717138 1.69548 0
M  V30 3091 H 295 -0.496671 3.88135 0
M  V30 3092 H 294.623 -2.12973 3.35751 0
M  V30 3093 N 295.62 -1.53406 -0.361157 0
M  V30 3094 C 296.85 -1.73465 -1.1222 0
M  V30 3095 C 297.258 -0.465486 -1.83384 0
M  V30 3096 O 296.601 0.571611 -1.7458 0
M  V30 3097 C 296.663 -2.84834 -2.19339 0
M  V30 3098 C 296.327 -4.25038 -1.67903 0
M  V30 3099 C 297.324 -5.07231 -1.14074 0
M  V30 3100 C 295.009 -4.71464 -1.73282 0
M  V30 3101 C 297.003 -6.33942 -0.663068 0
M  V30 3102 C 294.69 -5.98153 -1.25127 0
M  V30 3103 C 295.688 -6.79223 -0.717296 0
M  V30 3104 O 295.376 -8.03533 -0.242865 0
M  V30 3105 H 295.108 -0.583526 -0.341283 0
M  V30 3106 H 297.662 -2.00964 -0.424591 0
M  V30 3107 H 295.892 -2.5282 -2.92607 0
M  V30 3108 H 297.581 -2.9303 -2.80871 0
M  V30 3109 H 298.347 -4.72534 -1.09254 0
M  V30 3110 H 294.226 -4.08432 -2.13786 0
M  V30 3111 H 297.77 -6.97167 -0.245612 0
M  V30 3112 H 293.667 -6.32347 -1.29642 0
M  V30 3113 H 294.435 -8.177 -0.361786 0
M  V30 3114 N 297.098 0.621204 -1.44841 0
M  V30 3115 C 298.344 1.3826 -1.48365 0
M  V30 3116 C 298.677 1.93831 -0.119624 0
M  V30 3117 O 297.952 1.74251 0.864111 0
M  V30 3118 C 298.235 2.54058 -2.55199 0
M  V30 3119 C 298.088 2.03772 -4.00995 0
M  V30 3120 C 299.407 3.56225 -2.58442 0
M  V30 3121 H 296.526 0.501374 -0.540179 0
M  V30 3122 H 299.168 0.7015 -1.76576 0
M  V30 3123 H 297.318 3.12162 -2.31274 0
M  V30 3124 H 298.99 1.50423 -4.36086 0
M  V30 3125 H 297.233 1.34876 -4.12299 0
M  V30 3126 H 297.904 2.87185 -4.71411 0
M  V30 3127 H 300.38 3.07939 -2.79844 0
M  V30 3128 H 299.256 4.34756 -3.3508 0
M  V30 3129 H 299.517 4.10949 -1.63013 0
M  V30 3130 N 298.576 1.31904 0.862503 0
M  V30 3131 C 299.508 1.16005 1.97675 0
M  V30 3132 C 300.521 0.0971234 1.6251 0
M  V30 3133 O 301.71 0.345337 1.75128 0
M  V30 3134 C 298.81 0.751791 3.30456 0
M  V30 3135 C 297.983 1.90133 3.93914 0
M  V30 3136 C 297.042 1.4779 5.05019 0
M  V30 3137 O 296.068 2.18872 5.25437 0
M  V30 3138 N 297.27 0.369491 5.79323 0
M  V30 3139 H 300.035 2.11982 2.11857 0
M  V30 3140 H 297.596 1.24337 1.03691 0
M  V30 3141 H 299.588 0.451084 4.02178 0
M  V30 3142 H 298.158 -0.116593 3.12382 0
M  V30 3143 H 297.378 2.36896 3.15078 0
M  V30 3144 H 298.666 2.67111 4.33047 0
M  V30 3145 H 298.064 -0.222299 5.65263 0
M  V30 3146 H 296.621 0.128354 6.51674 0
M  V30 3147 N 300.054 -1.07777 1.14986 0
M  V30 3148 C 301.47 -1.32373 0.891596 0
M  V30 3149 C 301.67 -1.9609 -0.463788 0
M  V30 3150 O 300.726 -2.21801 -1.20667 0
M  V30 3151 C 302.039 -2.21905 2.02925 0
M  V30 3152 C 303.587 -2.35367 2.06329 0
M  V30 3153 C 304.062 -3.28245 3.19405 0
M  V30 3154 N 305.553 -3.35824 3.19024 0
M  V30 3155 C 306.288 -4.07739 4.03158 0
M  V30 3156 N 305.784 -4.82306 4.97346 0
M  V30 3157 N 307.577 -4.03635 3.91197 0
M  V30 3158 H 299.728 -0.648039 2.02273 0
M  V30 3159 H 301.991 -0.348149 0.881757 0
M  V30 3160 H 301.697 -1.82342 3.0074 0
M  V30 3161 H 301.571 -3.22407 1.95789 0
M  V30 3162 H 303.958 -2.74186 1.09116 0
M  V30 3163 H 304.039 -1.34585 2.17533 0
M  V30 3164 H 303.683 -2.90146 4.16867 0
M  V30 3165 H 303.613 -4.28971 3.05437 0
M  V30 3166 H 306.104 -2.8267 2.50811 0
M  V30 3167 H 306.417 -5.34661 5.57994 0
M  V30 3168 H 304.762 -4.81337 5.01338 0
M  V30 3169 H 307.953 -3.44491 3.16928 0
M  V30 3170 H 308.126 -4.59417 4.5699 0
M  V30 3171 N 301.532 -0.945985 -1.26051 0
M  V30 3172 C 302.442 -0.465633 -2.29933 0
M  V30 3173 C 303.458 0.462761 -1.67733 0
M  V30 3174 O 304.634 0.341118 -1.9849 0
M  V30 3175 C 301.699 0.256994 -3.45746 0
M  V30 3176 C 300.76 -0.708549 -4.23412 0
M  V30 3177 C 299.993 -0.0203135 -5.33696 0
M  V30 3178 O 300.216 1.19571 -5.57726 0
M  V30 3179 O 299.15 -0.701459 -5.97799 0
M  V30 3180 H 302.976 -1.32866 -2.73094 0
M  V30 3181 H 300.561 -0.712071 -1.31339 0
M  V30 3182 H 302.443 0.663852 -4.16138 0
M  V30 3183 H 301.118 1.09533 -3.04605 0
M  V30 3184 H 300.025 -1.16545 -3.55483 0
M  V30 3185 H 301.358 -1.51465 -4.68315 0
M  V30 3186 N 303.011 1.40521 -0.713556 0
M  V30 3187 C 303.941 2.33381 -0.0743864 0
M  V30 3188 C 304.922 1.52784 0.747735 0
M  V30 3189 O 306.107 1.81258 0.697071 0
M  V30 3190 C 303.237 3.36748 0.849598 0
M  V30 3191 C 302.191 4.27793 0.133247 0
M  V30 3192 C 301.517 5.21679 1.17281 0
M  V30 3193 C 302.817 5.12415 -1.01134 0
M  V30 3194 H 304.511 2.87081 -0.850007 0
M  V30 3195 H 302.057 1.38034 -0.410201 0
M  V30 3196 H 304.01 4.00648 1.30612 0
M  V30 3197 H 302.734 2.81439 1.65709 0
M  V30 3198 H 301.393 3.65342 -0.303426 0
M  V30 3199 H 301.041 4.62677 1.9733 0
M  V30 3200 H 300.741 5.83435 0.698397 0
M  V30 3201 H 302.265 5.88456 1.62947 0
M  V30 3202 H 303.679 5.69781 -0.634274 0
M  V30 3203 H 302.076 5.83203 -1.41399 0
M  V30 3204 H 303.146 4.48514 -1.84292 0
M  V30 3205 N 304.489 0.459591 1.5075 0
M  V30 3206 C 305.452 -0.329093 2.26825 0
M  V30 3207 C 306.452 -0.930481 1.31144 0
M  V30 3208 O 307.642 -0.801453 1.54669 0
M  V30 3209 C 304.774 -1.46768 3.07688 0
M  V30 3210 H 305.967 0.337924 2.9799 0
M  V30 3211 H 303.52 0.213336 1.54837 0
M  V30 3212 H 304.255 -2.17009 2.40993 0
M  V30 3213 H 304.04 -1.04238 3.77991 0
M  V30 3214 H 305.53 -2.02433 3.65254 0
M  V30 3215 N 305.967 -1.56429 0.191757 0
M  V30 3216 C 307.244 -1.89224 -0.495332 0
M  V30 3217 C 307.624 -1.10478 -1.79883 0
M  V30 3218 O 306.972 -0.204852 -2.2758 0
M  V30 3219 C 307.182 -3.41548 -0.717367 0
M  V30 3220 C 308.53 -4.11711 -1.03823 0
M  V30 3221 O 309.554 -3.4698 -0.805204 0
M  V30 3222 O 308.413 -5.2611 -1.47887 0
M  V30 3223 H 305.507 -0.785788 -0.25781 0
M  V30 3224 H 308.053 -1.68111 0.231721 0
M  V30 3225 H 306.825 -3.90772 0.203287 0
M  V30 3226 H 306.448 -3.68342 -1.497 0
M  V30 3227 N 307.445 0.0818655 -1.57387 0
M  V30 3228 C 308.693 0.781368 -1.86384 0
M  V30 3229 C 309.014 1.78618 -0.782342 0
M  V30 3230 O 308.284 1.94976 0.190061 0
M  V30 3231 H 306.864 0.291562 -0.687751 0
M  V30 3232 H 309.526 0.060348 -1.94807 0
M  V30 3233 H 308.622 1.3038 -2.83562 0
M  V30 3234 N 308.923 1.53595 0.353017 0
M  V30 3235 C 310.148 1.7462 1.11904 0
M  V30 3236 C 310.573 0.479721 1.8188 0
M  V30 3237 O 309.931 -0.567066 1.72204 0
M  V30 3238 C 309.979 2.92029 2.11545 0
M  V30 3239 O 309.083 2.61516 3.18878 0
M  V30 3240 H 308.424 0.579531 0.324099 0
M  V30 3241 H 310.954 2.00525 0.406301 0
M  V30 3242 H 310.964 3.18551 2.5493 0
M  V30 3243 H 309.639 3.83888 1.60008 0
M  V30 3244 H 308.216 2.45852 2.80377 0
M  V30 3245 N 310.401 -0.613514 1.45168 0
M  V30 3246 C 311.817 -0.933629 1.29443 0
M  V30 3247 C 312.017 -2.00028 0.243101 0
M  V30 3248 O 311.073 -2.49848 -0.364992 0
M  V30 3249 C 312.386 -1.38018 2.67155 0
M  V30 3250 C 313.934 -1.49471 2.75004 0
M  V30 3251 C 314.409 -1.97503 4.13227 0
M  V30 3252 N 315.9 -2.04746 4.15491 0
M  V30 3253 C 316.635 -2.43121 5.19307 0
M  V30 3254 N 316.131 -2.80506 6.33473 0
M  V30 3255 N 317.924 -2.43408 5.06664 0
M  V30 3256 H 310.075 0.0916097 2.12202 0
M  V30 3257 H 312.338 -0.0216655 0.947752 0
M  V30 3258 H 312.044 -0.670625 3.45247 0
M  V30 3259 H 311.918 -2.34784 2.95222 0
M  V30 3260 H 314.305 -2.19519 1.9722 0
M  V30 3261 H 314.386 -0.510342 2.50657 0
M  V30 3262 H 314.03 -1.28045 4.91495 0
M  V30 3263 H 313.96 -2.96843 4.34962 0
M  V30 3264 H 316.451 -1.78468 3.33103 0
M  V30 3265 H 316.764 -3.08652 7.08487 0
M  V30 3266 H 315.109 -2.78216 6.36884 0
M  V30 3267 H 318.3 -2.13604 4.16523 0
M  V30 3268 H 318.473 -2.72989 5.87691 0
M  V30 3269 N 311.879 -1.3236 -0.855495 0
M  V30 3270 C 313.107 -1.2587 -1.64208 0
M  V30 3271 C 313.522 0.173457 -1.88002 0
M  V30 3272 O 312.879 1.11027 -1.44842 0
M  V30 3273 C 312.93 -2.01424 -3.00184 0
M  V30 3274 O 312.651 -3.39051 -2.77445 0
M  V30 3275 C 314.152 -2.01948 -3.94629 0
M  V30 3276 H 311.372 -0.434318 -0.511477 0
M  V30 3277 H 313.916 -1.74469 -1.0668 0
M  V30 3278 H 312.071 -1.56549 -3.5436 0
M  V30 3279 H 312.485 -3.77711 -3.63916 0
M  V30 3280 H 313.959 -2.59297 -4.87308 0
M  V30 3281 H 314.436 -1.00554 -4.27534 0
M  V30 3282 H 315.042 -2.46767 -3.4639 0
M  V30 3283 N 313.357 1.07166 -1.15556 0
M  V30 3284 C 314.603 1.80065 -0.932984 0
M  V30 3285 C 314.936 1.86586 0.53845 0
M  V30 3286 O 314.211 1.35098 1.39924 0
M  V30 3287 C 314.494 3.25022 -1.55025 0
M  V30 3288 C 314.347 3.26634 -3.09242 0
M  V30 3289 C 315.666 4.22341 -1.2376 0
M  V30 3290 H 312.785 0.653697 -0.340366 0
M  V30 3291 H 315.427 1.25389 -1.4275 0
M  V30 3292 H 313.577 3.71712 -1.12972 0
M  V30 3293 H 315.249 2.88173 -3.60214 0
M  V30 3294 H 313.492 2.65539 -3.43033 0
M  V30 3295 H 314.163 4.28854 -3.47546 0
M  V30 3296 H 316.639 3.8405 -1.60139 0
M  V30 3297 H 315.515 5.22053 -1.69564 0
M  V30 3298 H 315.776 4.41828 -0.154938 0
M  V30 3299 N 314.835 0.952656 1.25548 0
M  V30 3300 C 316.081 0.607272 1.93494 0
M  V30 3301 C 316.414 -0.853245 1.74452 0
M  V30 3302 O 315.689 -1.61194 1.08843 0
M  V30 3303 C 315.972 0.96435 3.46947 0
M  V30 3304 C 315.825 2.48045 3.75225 0
M  V30 3305 C 317.144 0.487987 4.37386 0
M  V30 3306 H 314.263 0.222096 0.702739 0
M  V30 3307 H 316.905 1.18895 1.48203 0
M  V30 3308 H 315.055 0.469361 3.85654 0
M  V30 3309 H 316.727 3.04905 3.46166 0
M  V30 3310 H 314.97 2.919 3.209 0
M  V30 3311 H 315.641 2.6808 4.82532 0
M  V30 3312 H 318.117 0.912558 4.0597 0
M  V30 3313 H 316.993 0.766547 5.43521 0
M  V30 3314 H 317.254 -0.612063 4.37843 0
M  V30 3315 N 316.313 -1.40141 0.720998 0
M  V30 3316 C 317.223 -2.34486 0.0731031 0
M  V30 3317 C 318.239 -1.57587 -0.737723 0
M  V30 3318 O 319.415 -1.89949 -0.669429 0
M  V30 3319 C 316.48 -3.36528 -0.833656 0
M  V30 3320 C 315.541 -4.29298 -0.0121673 0
M  V30 3321 C 314.774 -5.26466 -0.875742 0
M  V30 3322 O 314.997 -5.29745 -2.11485 0
M  V30 3323 O 313.931 -6.01092 -0.31185 0
M  V30 3324 H 317.757 -2.9152 0.851444 0
M  V30 3325 H 315.342 -1.41427 0.481527 0
M  V30 3326 H 317.224 -3.99093 -1.35289 0
M  V30 3327 H 315.899 -2.81899 -1.59105 0
M  V30 3328 H 314.806 -3.70001 0.552262 0
M  V30 3329 H 316.139 -4.87094 0.707129 0
M  V30 3330 N 317.792 -0.46758 -1.50504 0
M  V30 3331 C 319.02 0.0864133 -2.06719 0
M  V30 3332 C 319.435 1.33819 -1.33184 0
M  V30 3333 O 318.792 1.78061 -0.400083 0
M  V30 3334 C 318.843 0.378079 -3.59517 0
M  V30 3335 O 318.564 -0.824044 -4.3028 0
M  V30 3336 C 320.065 0.979426 -4.32345 0
M  V30 3337 H 317.285 -0.00551697 -0.670977 0
M  V30 3338 H 319.829 -0.655354 -1.93715 0
M  V30 3339 H 317.984 1.06977 -3.72337 0
M  V30 3340 H 318.398 -0.566518 -5.21432 0
M  V30 3341 H 319.872 1.1333 -5.40241 0
M  V30 3342 H 320.349 1.9686 -3.9261 0
M  V30 3343 H 320.955 0.326216 -4.24047 0
M  V30 3344 N 319.27 1.56325 -0.20005 0
M  V30 3345 C 320.18 2.22931 0.730668 0
M  V30 3346 C 321.196 1.22997 1.23076 0
M  V30 3347 O 322.372 1.55748 1.27689 0
M  V30 3348 C 319.437 2.87948 1.93098 0
M  V30 3349 C 318.498 4.03166 1.47497 0
M  V30 3350 C 317.731 4.65073 2.61807 0
M  V30 3351 O 317.954 4.25913 3.79413 0
M  V30 3352 O 316.888 5.54452 2.34237 0
M  V30 3353 H 320.714 3.03084 0.193391 0
M  V30 3354 H 318.299 1.49371 0.0294621 0
M  V30 3355 H 320.181 3.29063 2.6324 0
M  V30 3356 H 318.856 2.10771 2.45677 0
M  V30 3357 H 317.763 3.66664 0.742201 0
M  V30 3358 H 319.096 4.82022 0.995796 0
M  V30 3359 N 320.748 -0.0735177 1.57428 0
M  V30 3360 C 321.698 -1.09442 2.00016 0
M  V30 3361 C 322.682 -1.34575 0.881947 0
M  V30 3362 O 323.874 -1.34905 1.14585 0
M  V30 3363 C 321.003 -2.40865 2.4462 0
M  V30 3364 C 320.089 -2.19014 3.63172 0
M  V30 3365 N 320.48 -1.67087 4.77405 0
M  V30 3366 C 318.778 -2.49494 3.69688 0
M  V30 3367 C 319.479 -1.6001 5.5926 0
M  V30 3368 N 318.455 -2.05999 5.03056 0
M  V30 3369 H 322.257 -0.686227 2.85776 0
M  V30 3370 H 319.771 -0.280617 1.59957 0
M  V30 3371 H 321.768 -3.14763 2.73368 0
M  V30 3372 H 320.428 -2.82403 1.60246 0
M  V30 3373 H 321.439 -1.35975 4.99731 0
M  V30 3374 H 318.116 -2.94409 2.96023 0
M  V30 3375 H 319.506 -1.2073 6.60964 0
M  V30 3376 N 322.226 -1.5378 -0.344866 0
M  V30 3377 C 323.472 -1.72158 -1.0832 0
M  V30 3378 C 323.827 -0.478218 -1.86362 0
M  V30 3379 O 323.12 0.529152 -1.84148 0
M  V30 3380 C 323.314 -2.92407 -2.05506 0
M  V30 3381 C 323.143 -4.28318 -1.37017 0
M  V30 3382 C 321.913 -4.92832 -1.11558 0
M  V30 3383 C 324.111 -5.08086 -0.797071 0
M  V30 3384 N 322.093 -6.12619 -0.396358 0
M  V30 3385 C 323.464 -6.1965 -0.208336 0
M  V30 3386 C 325.519 -4.92986 -0.697787 0
M  V30 3387 C 324.222 -7.17763 0.470023 0
M  V30 3388 C 326.248 -5.91391 -0.033171 0
M  V30 3389 C 325.61 -7.02292 0.544599 0
M  V30 3390 H 321.709 -0.683017 -0.380805 0
M  V30 3391 H 324.293 -1.91211 -0.366961 0
M  V30 3392 H 322.464 -2.74857 -2.74423 0
M  V30 3393 H 324.196 -2.9951 -2.72169 0
M  V30 3394 H 320.951 -4.52362 -1.40234 0
M  V30 3395 H 321.375 -6.7698 -0.0515119 0
M  V30 3396 H 326.017 -4.07414 -1.13022 0
M  V30 3397 H 323.735 -8.0291 0.914351 0
M  V30 3398 H 327.321 -5.81784 0.0430009 0
M  V30 3399 H 326.201 -7.77129 1.05073 0
M  V30 3400 N 323.704 0.605807 -1.45491 0
M  V30 3401 C 324.634 1.72709 -1.57143 0
M  V30 3402 C 325.615 1.6476 -0.422884 0
M  V30 3403 O 326.8 1.83132 -0.646247 0
M  V30 3404 C 323.93 3.11316 -1.53948 0
M  V30 3405 C 322.884 3.34077 -2.67537 0
M  V30 3406 C 322.21 4.72975 -2.49397 0
M  V30 3407 C 323.51 3.24158 -4.09535 0
M  V30 3408 H 325.204 1.63214 -2.51001 0
M  V30 3409 H 322.75 0.78379 -1.208 0
M  V30 3410 H 324.703 3.89557 -1.60696 0
M  V30 3411 H 323.427 3.21655 -0.566205 0
M  V30 3412 H 322.086 2.58227 -2.6022 0
M  V30 3413 H 321.734 4.8005 -1.50205 0
M  V30 3414 H 321.434 4.8916 -3.25571 0
M  V30 3415 H 322.958 5.53414 -2.58002 0
M  V30 3416 H 324.372 3.92271 -4.18086 0
M  V30 3417 H 322.769 3.51872 -4.86113 0
M  V30 3418 H 323.839 2.2157 -4.31317 0
M  V30 3419 N 325.182 1.32811 0.848464 0
M  V30 3420 C 326.145 1.22194 1.9391 0
M  V30 3421 C 327.145 0.143404 1.60159 0
M  V30 3422 O 328.335 0.394253 1.6968 0
M  V30 3423 C 325.467 0.88067 3.29328 0
M  V30 3424 H 326.66 2.19127 2.04752 0
M  V30 3425 H 324.213 1.16731 1.0394 0
M  V30 3426 H 324.948 -0.0865776 3.24184 0
M  V30 3427 H 324.733 1.66052 3.55203 0
M  V30 3428 H 326.223 0.830871 4.09251 0
M  V30 3429 N 326.66 -1.06551 1.16123 0
M  V30 3430 C 327.906 -1.79567 0.94252 0
M  V30 3431 C 328.239 -1.86869 -0.528547 0
M  V30 3432 O 327.514 -1.35838 -1.39206 0
M  V30 3433 C 327.797 -3.24195 1.56747 0
M  V30 3434 C 327.65 -3.24989 3.10969 0
M  V30 3435 C 328.969 -4.21678 1.25998 0
M  V30 3436 H 326.088 -0.651883 0.343828 0
M  V30 3437 H 328.73 -1.2463 1.43413 0
M  V30 3438 H 326.88 -3.71107 1.14942 0
M  V30 3439 H 328.552 -2.86258 3.61737 0
M  V30 3440 H 326.795 -2.63716 3.44436 0
M  V30 3441 H 327.466 -4.27005 3.49815 0
M  V30 3442 H 329.942 -3.83196 1.62174 0
M  V30 3443 H 328.818 -5.21146 1.7233 0
M  V30 3444 H 329.079 -4.4174 0.178367 0
M  V30 3445 N 328.138 -0.959301 -1.25041 0
M  V30 3446 C 329.384 -0.617525 -1.9317 0
M  V30 3447 C 329.717 0.843981 -1.74902 0
M  V30 3448 O 328.992 1.60615 -1.09696 0
M  V30 3449 C 329.275 -0.982736 -3.46431 0
M  V30 3450 C 329.128 -2.50032 -3.73904 0
M  V30 3451 C 330.447 -0.511176 -4.37121 0
M  V30 3452 H 327.566 -0.22582 -0.701552 0
M  V30 3453 H 330.208 -1.19679 -1.4757 0
M  V30 3454 H 328.358 -0.489806 -3.854 0
M  V30 3455 H 330.03 -3.06737 -3.44544 0
M  V30 3456 H 328.273 -2.93598 -3.19348 0
M  V30 3457 H 328.944 -2.70635 -4.81103 0
M  V30 3458 H 331.42 -0.934075 -4.0548 0
M  V30 3459 H 330.296 -0.795361 -5.43107 0
M  V30 3460 H 330.557 0.588834 -4.38161 0
M  V30 3461 N 329.616 1.39756 -0.72842 0
M  V30 3462 C 331.027 1.83498 -0.344289 0
M  V30 3463 C 331.378 1.60868 1.12321 0
M  V30 3464 O 330.503 1.09634 1.86573 0
M  V30 3465 C 331.098 3.33114 -0.618112 0
M  V30 3466 C 329.657 3.753 -0.287549 0
M  V30 3467 C 328.804 2.62831 -0.884048 0
M  V30 3468 H 331.755 1.28842 -0.926578 0
M  V30 3469 H 331.776 3.80334 0.112349 0
M  V30 3470 H 331.288 3.49553 -1.68625 0
M  V30 3471 H 329.389 3.64451 0.775012 0
M  V30 3472 H 329.502 4.72945 -0.765512 0
M  V30 3473 H 327.866 2.52792 -0.311149 0
M  V30 3474 H 328.649 2.82078 -1.95671 0
M  V30 3475 N 331.094 0.475555 1.50254 0
M  V30 3476 C 332.324 -0.0753399 2.06463 0
M  V30 3477 C 332.732 -1.33661 1.33908 0
M  V30 3478 O 332.075 -1.79219 0.403257 0
M  V30 3479 C 332.137 -0.424921 3.5698 0
M  V30 3480 C 331.801 0.734965 4.51051 0
M  V30 3481 C 332.798 1.61827 4.94073 0
M  V30 3482 C 330.483 0.926557 4.9368 0
M  V30 3483 C 332.477 2.67754 5.78434 0
M  V30 3484 C 330.164 1.98904 5.77824 0
M  V30 3485 C 331.162 2.8629 6.20103 0
M  V30 3486 O 330.85 3.90708 7.02568 0
M  V30 3487 H 330.582 0.00576308 0.675975 0
M  V30 3488 H 333.136 0.664662 1.94349 0
M  V30 3489 H 331.366 -1.21817 3.67012 0
M  V30 3490 H 333.055 -0.911422 3.95535 0
M  V30 3491 H 333.821 1.48196 4.61804 0
M  V30 3492 H 329.7 0.25584 4.6029 0
M  V30 3493 H 333.244 3.35992 6.11355 0
M  V30 3494 H 329.141 2.12541 6.09505 0
M  V30 3495 H 329.909 3.87751 7.20827 0
M  V30 3496 N 332.573 -1.56217 0.208337 0
M  V30 3497 C 333.819 -1.98998 -0.42086 0
M  V30 3498 C 334.174 -1.09331 -1.58317 0
M  V30 3499 O 333.467 -0.140466 -1.91084 0
M  V30 3500 C 333.661 -3.45441 -0.916797 0
M  V30 3501 C 333.49 -4.49273 0.195925 0
M  V30 3502 C 332.26 -5.00998 0.657956 0
M  V30 3503 C 334.458 -5.04294 1.00956 0
M  V30 3504 N 332.44 -5.88514 1.74712 0
M  V30 3505 C 333.811 -5.88607 1.94785 0
M  V30 3506 C 335.866 -4.86692 1.05049 0
M  V30 3507 C 334.569 -6.572 2.9237 0
M  V30 3508 C 336.595 -5.56034 2.01446 0
M  V30 3509 C 335.957 -6.40105 2.94016 0
M  V30 3510 H 332.056 -0.772574 -0.121048 0
M  V30 3511 H 334.64 -1.92101 0.317075 0
M  V30 3512 H 332.811 -3.52812 -1.62413 0
M  V30 3513 H 334.543 -3.75164 -1.51771 0
M  V30 3514 H 331.298 -4.72945 0.248912 0
M  V30 3515 H 331.722 -6.36975 2.2933 0
M  V30 3516 H 336.364 -4.21359 0.348759 0
M  V30 3517 H 334.082 -7.21723 3.63512 0
M  V30 3518 H 337.668 -5.44385 2.0527 0
M  V30 3519 H 336.548 -6.92816 3.6739 0
M  V30 3520 N 334.051 0.0651679 -1.57465 0
M  V30 3521 C 335.014 1.06117 -2.03155 0
M  V30 3522 C 336.014 1.31204 -0.929632 0
M  V30 3523 O 337.204 1.26813 -1.19432 0
M  V30 3524 C 334.336 2.4032 -2.41783 0
M  V30 3525 H 335.529 0.667231 -2.92383 0
M  V30 3526 H 333.082 0.311075 -1.53173 0
M  V30 3527 H 333.817 2.84532 -1.55601 0
M  V30 3528 H 333.602 2.23451 -3.22199 0
M  V30 3529 H 335.092 3.11898 -2.77685 0
M  V30 3530 N 335.529 1.53961 0.336706 0
M  V30 3531 C 336.492 1.81724 1.39675 0
M  V30 3532 C 337.492 0.688532 1.45313 0
M  V30 3533 O 338.682 0.956829 1.45569 0
M  V30 3534 C 335.814 1.96543 2.78538 0
M  V30 3535 H 337.007 2.76424 1.16318 0
M  V30 3536 H 334.56 1.45478 0.571474 0
M  V30 3537 H 335.295 1.0401 3.07168 0
M  V30 3538 H 335.08 2.78665 2.75841 0
M  V30 3539 H 336.57 2.19516 3.5525 0
M  V30 3540 N 337.007 -0.598083 1.45811 0
M  V30 3541 C 338.253 -1.35679 1.51535 0
M  V30 3542 C 338.608 -1.91745 0.15864 0
M  V30 3543 O 337.901 -1.72654 -0.830724 0
M  V30 3544 C 338.095 -2.51669 2.53766 0
M  V30 3545 C 337.924 -2.06963 3.99245 0
M  V30 3546 C 336.694 -1.92693 4.67116 0
M  V30 3547 C 338.892 -1.63855 4.875 0
M  V30 3548 N 336.874 -1.41897 5.97276 0
M  V30 3549 C 338.245 -1.24541 6.07363 0
M  V30 3550 C 340.3 -1.51533 4.74281 0
M  V30 3551 C 339.003 -0.741354 7.15469 0
M  V30 3552 C 341.029 -1.0253 5.82444 0
M  V30 3553 C 340.391 -0.641869 7.01469 0
M  V30 3554 H 336.49 -0.490042 0.609412 0
M  V30 3555 H 339.074 -0.682687 1.82339 0
M  V30 3556 H 337.245 -3.16663 2.24898 0
M  V30 3557 H 338.977 -3.18578 2.4958 0
M  V30 3558 H 335.732 -2.1417 4.22408 0
M  V30 3559 H 336.156 -1.18704 6.66512 0
M  V30 3560 H 340.798 -1.798 3.82664 0
M  V30 3561 H 338.516 -0.446243 8.06867 0
M  V30 3562 H 342.102 -0.934088 5.74253 0
M  V30 3563 H 340.982 -0.268531 7.8374 0
M  V30 3564 N 338.485 -1.33259 -0.841409 0
M  V30 3565 C 339.896 -1.22066 -1.41269 0
M  V30 3566 C 340.247 0.161479 -1.95534 0
M  V30 3567 O 339.372 1.06094 -1.88608 0
M  V30 3568 C 339.967 -2.20996 -2.568 0
M  V30 3569 C 338.526 -2.13649 -3.09888 0
M  V30 3570 C 337.673 -2.08623 -1.82679 0
M  V30 3571 H 340.624 -1.44895 -0.647395 0
M  V30 3572 H 340.645 -1.81621 -3.34356 0
M  V30 3573 H 340.157 -3.2158 -2.17274 0
M  V30 3574 H 338.258 -1.16359 -3.53965 0
M  V30 3575 H 338.371 -3.04079 -3.70234 0
M  V30 3576 H 336.735 -1.54061 -2.02824 0
M  V30 3577 H 337.518 -3.1101 -1.45353 0
M  V30 3578 N 339.963 1.05934 -1.16686 0
M  V30 3579 C 341.21 1.788 -0.950622 0
M  V30 3580 C 341.538 1.87384 0.521305 0
M  V30 3581 O 340.793 1.36438 1.40297 0
M  V30 3582 C 341.092 3.23105 -1.52767 0
M  V30 3583 C 340.758 3.34594 -3.02254 0
M  V30 3584 C 339.42 3.37437 -3.43059 0
M  V30 3585 C 341.772 3.36219 -3.98254 0
M  V30 3586 C 339.1 3.39525 -4.78477 0
M  V30 3587 C 341.452 3.39845 -5.33562 0
M  V30 3588 C 340.116 3.40971 -5.73842 0
M  V30 3589 H 339.386 0.654275 -0.347857 0
M  V30 3590 H 342.033 1.24555 -1.45459 0
M  V30 3591 H 340.338 3.80227 -0.94524 0
M  V30 3592 H 342.035 3.7809 -1.336 0
M  V30 3593 H 338.625 3.3309 -2.6972 0
M  V30 3594 H 342.809 3.33231 -3.67792 0
M  V30 3595 H 338.065 3.38703 -5.09009 0
M  V30 3596 H 342.239 3.4005 -6.07733 0
M  V30 3597 H 339.866 3.42342 -6.78753 0
M  V30 3598 N 341.441 0.965919 1.2453 0
M  V30 3599 C 342.351 0.502154 2.29163 0
M  V30 3600 C 343.367 -0.436017 1.68448 0
M  V30 3601 O 344.543 -0.309497 1.99008 0
M  V30 3602 C 341.608 -0.201956 3.46111 0
M  V30 3603 C 340.669 0.775821 4.22232 0
M  V30 3604 C 339.902 0.105217 5.33596 0
M  V30 3605 O 340.125 -1.10683 5.59558 0
M  V30 3606 O 339.059 0.796475 5.96607 0
M  V30 3607 H 342.885 1.37194 2.70946 0
M  V30 3608 H 340.47 0.732875 1.30189 0
M  V30 3609 H 342.352 -0.597564 4.17142 0
M  V30 3610 H 341.027 -1.04673 3.06309 0
M  V30 3611 H 339.934 1.22185 3.53584 0
M  V30 3612 H 341.267 1.58896 4.65846 0
M  V30 3613 N 342.919 -1.39368 0.735821 0
M  V30 3614 C 344.147 -2.04795 0.294393 0
M  V30 3615 C 344.562 -1.55478 -1.07107 0
M  V30 3616 O 343.919 -0.720038 -1.67695 0
M  V30 3617 C 343.97 -3.6035 0.288071 0
M  V30 3618 O 343.691 -4.07852 1.59963 0
M  V30 3619 C 345.192 -4.42976 -0.169422 0
M  V30 3620 H 342.412 -0.658571 0.128551 0
M  V30 3621 H 344.956 -1.78399 0.999701 0
M  V30 3622 H 343.111 -3.85645 -0.368355 0
M  V30 3623 H 343.525 -5.02181 1.51375 0
M  V30 3624 H 344.999 -5.51864 -0.122687 0
M  V30 3625 H 345.476 -4.22068 -1.21472 0
M  V30 3626 H 346.082 -4.22832 0.457469 0
M  V30 3627 N 344.397 -0.483516 -1.5 0
M  V30 3628 C 345.327 0.293829 -2.31644 0
M  V30 3629 C 346.308 0.978864 -1.39112 0
M  V30 3630 O 347.493 0.973644 -1.68029 0
M  V30 3631 C 344.623 1.36897 -3.19181 0
M  V30 3632 C 343.577 0.804833 -4.20365 0
M  V30 3633 C 342.903 1.9792 -4.96721 0
M  V30 3634 C 344.203 -0.192313 -5.21946 0
M  V30 3635 H 345.897 -0.387616 -2.9688 0
M  V30 3636 H 343.443 -0.187856 -1.42769 0
M  V30 3637 H 345.396 1.92037 -3.751 0
M  V30 3638 H 344.12 2.07936 -2.51853 0
M  V30 3639 H 342.779 0.275319 -3.65565 0
M  V30 3640 H 342.427 2.67686 -4.25856 0
M  V30 3641 H 342.127 1.60789 -5.65173 0
M  V30 3642 H 343.651 2.53526 -5.55479 0
M  V30 3643 H 345.065 0.270333 -5.72662 0
M  V30 3644 H 343.462 -0.478543 -5.98189 0
M  V30 3645 H 344.532 -1.11409 -4.71928 0
M  V30 3646 N 345.875 1.56104 -0.216619 0
M  V30 3647 C 346.805 2.23063 0.690296 0
M  V30 3648 C 347.786 1.20072 1.20485 0
M  V30 3649 O 348.971 1.48643 1.24976 0
M  V30 3650 C 346.101 2.90672 1.90072 0
M  V30 3651 C 345.055 4.00092 1.5202 0
M  V30 3652 C 344.381 4.54972 2.80899 0
M  V30 3653 C 345.681 5.17398 0.71391 0
M  V30 3654 H 347.375 2.99109 0.132038 0
M  V30 3655 H 344.921 1.43866 0.0620664 0
M  V30 3656 H 346.874 3.36204 2.54057 0
M  V30 3657 H 345.598 2.12066 2.48386 0
M  V30 3658 H 344.257 3.55283 0.903839 0
M  V30 3659 H 343.905 3.73102 3.37348 0
M  V30 3660 H 343.605 5.28817 2.56176 0
M  V30 3661 H 345.129 5.0322 3.45836 0
M  V30 3662 H 346.543 5.59342 1.25735 0
M  V30 3663 H 344.94 5.97444 0.563951 0
M  V30 3664 H 346.01 4.84088 -0.280527 0
M  V30 3665 N 347.353 -0.0568162 1.57498 0
M  V30 3666 C 348.283 -1.06593 2.0775 0
M  V30 3667 C 349.264 -1.39448 0.974082 0
M  V30 3668 O 350.449 -1.48815 1.24771 0
M  V30 3669 C 347.579 -2.37509 2.5339 0
M  V30 3670 C 346.533 -2.1897 3.67745 0
M  V30 3671 C 345.859 -3.55402 3.99492 0
M  V30 3672 C 347.159 -1.59859 4.97235 0
M  V30 3673 H 348.853 -0.647706 2.9231 0
M  V30 3674 H 346.399 -0.310116 1.40621 0
M  V30 3675 H 348.352 -3.08409 2.87162 0
M  V30 3676 H 347.076 -2.8134 1.65878 0
M  V30 3677 H 345.735 -1.50508 3.3428 0
M  V30 3678 H 345.383 -3.9683 3.09088 0
M  V30 3679 H 345.083 -3.43831 4.76502 0
M  V30 3680 H 346.607 -4.27708 4.35773 0
M  V30 3681 H 348.021 -2.20642 5.29141 0
M  V30 3682 H 346.418 -1.58942 5.78669 0
M  V30 3683 H 347.488 -0.561506 4.81638 0
M  V30 3684 N 348.832 -1.54138 -0.328536 0
M  V30 3685 C 350.243 -1.63395 -0.903272 0
M  V30 3686 C 350.594 -0.524828 -1.8905 0
M  V30 3687 O 349.719 0.343068 -2.13663 0
M  V30 3688 C 350.314 -2.9618 -1.64507 0
M  V30 3689 C 348.873 -3.0765 -2.1686 0
M  V30 3690 C 348.02 -2.58933 -0.992416 0
M  V30 3691 H 350.971 -1.58344 -0.106253 0
M  V30 3692 H 350.992 -2.86061 -2.50897 0
M  V30 3693 H 350.504 -3.76884 -0.926302 0
M  V30 3694 H 348.605 -2.31611 -2.91868 0
M  V30 3695 H 348.718 -4.1337 -2.42202 0
M  V30 3696 H 347.082 -2.14706 -1.37016 0
M  V30 3697 H 347.865 -3.42089 -0.288041 0
M  V30 3698 N 350.31 0.590341 -1.46126 0
M  V30 3699 C 351.257 1.69994 -1.56111 0
M  V30 3700 C 352.227 1.61065 -0.405867 0
M  V30 3701 O 353.412 1.8039 -0.621613 0
M  V30 3702 C 350.552 3.08326 -1.55013 0
M  V30 3703 C 349.665 3.27936 -2.81215 0
M  V30 3704 C 348.8 4.56473 -2.71673 0
M  V30 3705 C 347.839 4.694 -3.92849 0
M  V30 3706 N 346.976 5.89254 -3.81738 0
M  V30 3707 H 351.816 1.60797 -2.50895 0
M  V30 3708 H 349.353 0.783799 -1.24479 0
M  V30 3709 H 351.311 3.88383 -1.52362 0
M  V30 3710 H 349.941 3.16439 -0.637667 0
M  V30 3711 H 348.993 2.41536 -2.93879 0
M  V30 3712 H 350.305 3.33357 -3.71045 0
M  V30 3713 H 349.459 5.44748 -2.67085 0
M  V30 3714 H 348.198 4.53477 -1.7947 0
M  V30 3715 H 347.203 3.79544 -3.97777 0
M  V30 3716 H 348.428 4.7418 -4.86138 0
M  V30 3717 H 346.374 5.87271 -2.92317 0
M  V30 3718 H 346.291 5.95911 -4.65217 0
M  V30 3719 H 347.559 6.79981 -3.81112 0
M  V30 3720 N 351.788 1.33704 0.83433 0
M  V30 3721 C 352.751 1.24244 1.92603 0
M  V30 3722 C 353.751 0.160383 1.59998 0
M  V30 3723 O 354.941 0.412228 1.69252 0
M  V30 3724 C 352.073 0.91555 3.28376 0
M  V30 3725 H 353.266 2.21287 2.02416 0
M  V30 3726 H 350.819 1.17827 1.02696 0
M  V30 3727 H 351.554 -0.0521886 3.24258 0
M  V30 3728 H 351.339 1.69811 3.53422 0
M  V30 3729 H 352.829 0.874231 4.08347 0
M  V30 3730 N 353.266 -1.05314 1.17247 0
M  V30 3731 C 354.216 -2.11313 0.856196 0
M  V30 3732 C 355.2 -1.60013 -0.168694 0
M  V30 3733 O 356.392 -1.76968 0.0335624 0
M  V30 3734 C 353.521 -3.41301 0.369917 0
M  V30 3735 C 352.607 -3.99401 1.42616 0
M  V30 3736 N 352.998 -4.31481 2.63928 0
M  V30 3737 C 351.296 -4.27126 1.28373 0
M  V30 3738 C 351.997 -4.77799 3.31787 0
M  V30 3739 N 350.973 -4.77843 2.59166 0
M  V30 3740 H 354.775 -2.33976 1.77856 0
M  V30 3741 H 352.289 -1.2295 1.06099 0
M  V30 3742 H 354.286 -4.16713 0.124897 0
M  V30 3743 H 352.946 -3.20072 -0.546253 0
M  V30 3744 H 353.957 -4.21519 3.00902 0
M  V30 3745 H 350.634 -4.15289 0.429111 0
M  V30 3746 H 352.024 -5.11743 4.35395 0
M  V30 3747 N 354.744 -0.972509 -1.24016 0
M  V30 3748 C 355.99 -0.637978 -1.92504 0
M  V30 3749 C 356.323 0.825383 -1.75787 0
M  V30 3750 O 355.598 1.59442 -1.11393 0
M  V30 3751 C 355.881 -1.01942 -3.45369 0
M  V30 3752 C 355.734 -2.53983 -3.71231 0
M  V30 3753 C 357.053 -0.55751 -4.36555 0
M  V30 3754 H 354.172 -0.233248 -0.699117 0
M  V30 3755 H 356.814 -1.21238 -1.46292 0
M  V30 3756 H 354.964 -0.530656 -3.84859 0
M  V30 3757 H 356.636 -3.10374 -3.41271 0
M  V30 3758 H 354.879 -2.96968 -3.16216 0
M  V30 3759 H 355.55 -2.75723 -4.78206 0
M  V30 3760 H 358.026 -0.977029 -4.04467 0
M  V30 3761 H 356.902 -0.85292 -5.42233 0
M  V30 3762 H 357.163 0.542328 -4.38761 0
M  V30 3763 N 356.222 1.38976 -0.743202 0
M  V30 3764 C 357.152 2.33171 -0.123873 0
M  V30 3765 C 358.133 1.54336 0.71516 0
M  V30 3766 O 359.318 1.82696 0.658467 0
M  V30 3767 C 356.448 3.38474 0.777978 0
M  V30 3768 C 355.402 4.27979 0.0424758 0
M  V30 3769 C 354.728 5.2405 1.06189 0
M  V30 3770 C 356.028 5.10155 -1.1198 0
M  V30 3771 H 357.722 2.85213 -0.910709 0
M  V30 3772 H 355.268 1.37133 -0.439388 0
M  V30 3773 H 357.221 4.03328 1.22084 0
M  V30 3774 H 355.945 2.84891 1.59702 0
M  V30 3775 H 354.604 3.64616 -0.380853 0
M  V30 3776 H 354.252 4.66758 1.87472 0
M  V30 3777 H 353.952 5.84785 0.574485 0
M  V30 3778 H 355.476 5.9178 1.50428 0
M  V30 3779 H 356.89 5.68307 -0.75499 0
M  V30 3780 H 355.287 5.80073 -1.53738 0
M  V30 3781 H 356.357 4.44504 -1.93764 0
M  V30 3782 N 357.7 0.491464 1.49741 0
M  V30 3783 C 359.116 0.146835 1.58923 0
M  V30 3784 C 359.316 -1.34804 1.49767 0
M  V30 3785 O 358.372 -2.12317 1.36667 0
M  V30 3786 C 359.685 0.715157 2.92072 0
M  V30 3787 C 361.233 0.680407 3.05515 0
M  V30 3788 C 361.708 1.22663 4.41269 0
M  V30 3789 N 363.199 1.18691 4.47735 0
M  V30 3790 C 363.934 1.57984 5.51207 0
M  V30 3791 N 363.43 2.04824 6.6183 0
M  V30 3792 N 365.223 1.49459 5.41866 0
M  V30 3793 H 357.374 1.46347 1.53936 0
M  V30 3794 H 359.637 0.606453 0.728642 0
M  V30 3795 H 359.343 1.76317 3.04311 0
M  V30 3796 H 359.217 0.17018 3.76816 0
M  V30 3797 H 361.604 -0.358743 2.92911 0
M  V30 3798 H 361.685 1.26242 2.22478 0
M  V30 3799 H 361.329 2.26451 4.54623 0
M  V30 3800 H 361.259 0.620637 5.2293 0
M  V30 3801 H 363.75 0.843605 3.68364 0
M  V30 3802 H 364.063 2.32901 7.3687 0
M  V30 3803 H 362.408 2.08791 6.62896 0
M  V30 3804 H 365.599 1.12692 4.54333 0
M  V30 3805 H 365.772 1.80406 6.22381 0
M  V30 3806 N 359.178 -1.55987 0.224894 0
M  V30 3807 C 360.427 -1.97566 -0.406273 0
M  V30 3808 C 360.74 -1.11569 -1.6066 0
M  V30 3809 O 361.946 -1.43062 -2.3075 0
M  V30 3810 C 360.402 -3.51474 -0.774207 0
M  V30 3811 C 360.01 -4.46179 0.403496 0
M  V30 3812 C 361.754 -4.01758 -1.37079 0
M  V30 3813 C 359.661 -5.91399 0.0129412 0
M  V30 3814 H 358.591 -0.737777 -0.155565 0
M  V30 3815 H 361.242 -1.80659 0.321635 0
M  V30 3816 H 359.624 -3.63994 -1.55963 0
M  V30 3817 H 360.798 -4.45409 1.18101 0
M  V30 3818 H 359.113 -4.06255 0.913536 0
M  V30 3819 H 361.71 -5.07756 -1.67596 0
M  V30 3820 H 362.053 -3.47805 -2.28773 0
M  V30 3821 H 362.586 -3.92475 -0.648733 0
M  V30 3822 H 359.325 -6.49341 0.896451 0
M  V30 3823 H 358.845 -5.95356 -0.728821 0
M  V30 3824 H 360.524 -6.45683 -0.412582 0
M  V30 3825 N 360.656 0.0484629 -1.57525 0
M  V30 3826 C 361.884 0.755421 -1.92616 0
M  V30 3827 C 362.299 1.69919 -0.822984 0
M  V30 3828 O 361.656 1.81378 0.202085 0
M  V30 3829 C 361.707 1.52915 -3.27566 0
M  V30 3830 O 361.428 0.62329 -4.33644 0
M  V30 3831 C 362.929 2.33502 -3.76818 0
M  V30 3832 H 360.149 0.213465 -0.63614 0
M  V30 3833 H 362.693 0.0117698 -2.04497 0
M  V30 3834 H 360.848 2.22486 -3.17142 0
M  V30 3835 H 361.262 1.16383 -5.11425 0
M  V30 3836 H 362.736 2.83214 -4.73808 0
M  V30 3837 H 363.213 3.14068 -3.07014 0
M  V30 3838 H 363.819 1.69043 -3.90262 0
M  V30 3839 N 362.134 1.5431 0.320358 0
M  V30 3840 C 363.411 1.63322 1.07635 0
M  V30 3841 C 363.791 0.46912 2.05821 0
M  V30 3842 O 363.139 -0.536274 2.22118 0
M  V30 3843 C 363.349 3.00465 1.77544 0
M  V30 3844 C 364.697 3.56621 2.30449 0
M  V30 3845 O 365.721 3.02791 1.87606 0
M  V30 3846 O 364.58 4.5083 3.08892 0
M  V30 3847 H 361.674 0.661502 0.496331 0
M  V30 3848 H 364.22 1.66656 0.319992 0
M  V30 3849 H 362.992 3.76629 1.06143 0
M  V30 3850 H 362.615 3.00824 2.59982 0
M  V30 3851 N 363.613 -0.582584 1.46437 0
M  V30 3852 C 364.543 -1.70187 1.59871 0
M  V30 3853 C 365.524 -1.64066 0.449042 0
M  V30 3854 O 366.709 -1.82081 0.6753 0
M  V30 3855 C 363.839 -3.08827 1.58881 0
M  V30 3856 C 362.793 -3.29779 2.72819 0
M  V30 3857 C 362.119 -4.68947 2.5689 0
M  V30 3858 C 363.419 -3.17601 4.1464 0
M  V30 3859 H 365.113 -1.592 2.53566 0
M  V30 3860 H 362.659 -0.764472 1.22032 0
M  V30 3861 H 364.612 -3.86951 1.66873 0
M  V30 3862 H 363.336 -3.20713 0.617306 0
M  V30 3863 H 361.995 -2.54054 2.64296 0
M  V30 3864 H 361.643 -4.77599 1.57823 0
M  V30 3865 H 361.343 -4.83919 3.33312 0
M  V30 3866 H 362.867 -5.4924 2.66773 0
M  V30 3867 H 364.281 -3.8557 4.24274 0
M  V30 3868 H 362.678 -3.44094 4.9165 0
M  V30 3869 H 363.748 -2.14681 4.34788 0
M  V30 3870 N 365.091 -1.34144 -0.827227 0
M  V30 3871 C 366.319 -1.29325 -1.61501 0
M  V30 3872 C 366.734 0.13354 -1.88327 0
M  V30 3873 O 366.091 1.0793 -1.47164 0
M  V30 3874 C 366.142 -2.07746 -2.95844 0
M  V30 3875 O 365.863 -3.4486 -2.70191 0
M  V30 3876 C 367.364 -2.10273 -3.90256 0
M  V30 3877 H 364.584 -0.445069 -0.50215 0
M  V30 3878 H 367.128 -1.76693 -1.02955 0
M  V30 3879 H 365.283 -1.6403 -3.5096 0
M  V30 3880 H 365.697 -3.85345 -3.55822 0
M  V30 3881 H 367.171 -2.69575 -4.81698 0
M  V30 3882 H 367.648 -1.096 -4.25305 0
M  V30 3883 H 368.254 -2.54059 -3.41078 0
M  V30 3884 N 366.569 1.04691 -1.17803 0
M  V30 3885 C 367.846 1.7472 -0.879328 0
M  V30 3886 C 368.226 2.01812 0.619271 0
M  V30 3887 O 367.574 1.65824 1.57209 0
M  V30 3888 C 367.784 3.03686 -1.71976 0
M  V30 3889 C 369.132 3.77542 -1.94286 0
M  V30 3890 O 370.156 3.13569 -1.68976 0
M  V30 3891 O 369.015 4.92506 -2.36855 0
M  V30 3892 H 366.109 0.760011 -0.326056 0
M  V30 3893 H 368.655 1.10813 -1.28525 0
M  V30 3894 H 367.427 2.79754 -2.73594 0
M  V30 3895 H 367.05 3.75332 -1.31194 0
M  V30 3896 N 368.047 0.979072 1.23499 0
M  V30 3897 C 369.01 0.523244 2.23147 0
M  V30 3898 C 370.01 -0.386406 1.56088 0
M  V30 3899 O 371.2 -0.180283 1.73265 0
M  V30 3900 C 368.332 -0.240739 3.40049 0
M  V30 3901 H 369.525 1.40432 2.64989 0
M  V30 3902 H 367.078 0.764824 1.36309 0
M  V30 3903 H 367.813 -1.13841 3.03662 0
M  V30 3904 H 367.598 0.412207 3.89927 0
M  V30 3905 H 369.088 -0.548297 4.13985 0
M  V30 3906 N 369.525 -1.3858 0.750561 0
M  V30 3907 C 370.457 -2.29057 0.0810714 0
M  V30 3908 C 371.47 -1.47596 -0.686973 0
M  V30 3909 O 372.659 -1.70495 -0.528563 0
M  V30 3910 C 369.759 -3.26475 -0.909247 0
M  V30 3911 C 368.932 -4.36945 -0.199478 0
M  V30 3912 C 367.991 -5.14572 -1.10011 0
M  V30 3913 O 367.017 -5.66321 -0.57177 0
M  V30 3914 N 368.219 -5.27262 -2.42849 0
M  V30 3915 H 370.984 -2.87153 0.858087 0
M  V30 3916 H 368.545 -1.50328 0.60109 0
M  V30 3917 H 370.537 -3.75285 -1.51471 0
M  V30 3918 H 369.107 -2.69298 -1.58736 0
M  V30 3919 H 368.327 -3.8981 0.586664 0
M  V30 3920 H 369.615 -5.07963 0.291783 0
M  V30 3921 H 369.013 -4.86763 -2.88233 0
M  V30 3922 H 367.57 -5.79456 -2.98453 0
M  V30 3923 N 371.003 -0.499398 -1.49478 0
M  V30 3924 C 372.419 -0.155261 -1.58843 0
M  V30 3925 C 372.619 1.34008 -1.50479 0
M  V30 3926 O 371.675 2.11589 -1.37791 0
M  V30 3927 C 372.988 -0.730636 -2.91689 0
M  V30 3928 C 374.536 -0.696599 -3.0515 0
M  V30 3929 C 375.011 -1.25001 -4.40612 0
M  V30 3930 N 376.502 -1.21064 -4.47099 0
M  V30 3931 C 377.237 -1.60905 -5.50361 0
M  V30 3932 N 376.733 -2.08331 -6.60735 0
M  V30 3933 N 378.526 -1.52331 -5.41065 0
M  V30 3934 H 370.677 -1.47162 -1.53158 0
M  V30 3935 H 372.94 -0.610309 -0.725415 0
M  V30 3936 H 372.646 -1.77928 -3.03372 0
M  V30 3937 H 372.52 -0.190161 -3.7672 0
M  V30 3938 H 374.907 0.343204 -2.93097 0
M  V30 3939 H 374.988 -1.2742 -2.21806 0
M  V30 3940 H 374.632 -2.28859 -4.53416 0
M  V30 3941 H 374.562 -0.64836 -5.22593 0
M  V30 3942 H 377.053 -0.863128 -3.67911 0
M  V30 3943 H 377.366 -2.36805 -7.35624 0
M  V30 3944 H 375.711 -2.12304 -6.6178 0
M  V30 3945 H 378.902 -1.151 -4.53729 0
M  V30 3946 H 379.075 -1.83704 -6.21415 0
M  V30 3947 N 372.481 1.55866 -0.233164 0
M  V30 3948 C 373.706 2.03449 0.402906 0
M  V30 3949 C 374.131 1.11166 1.51736 0
M  V30 3950 O 373.489 0.101996 1.81013 0
M  V30 3951 C 373.537 3.49165 0.9009 0
M  V30 3952 O 372.641 3.60019 2.01147 0
M  V30 3953 H 371.982 0.657913 0.0897025 0
M  V30 3954 H 374.512 2.01493 -0.355201 0
M  V30 3955 H 374.522 3.89716 1.2077 0
M  V30 3956 H 373.197 4.15813 0.0852889 0
M  V30 3957 H 371.774 3.3136 1.71042 0
M  V30 3958 N 373.959 -0.0401083 1.57549 0
M  V30 3959 C 375.236 -0.767917 1.79896 0
M  V30 3960 C 375.616 -1.9416 0.82856 0
M  V30 3961 O 374.964 -2.2812 -0.131671 0
M  V30 3962 C 375.174 -1.2113 3.27305 0
M  V30 3963 C 376.522 -1.63175 3.91994 0
M  V30 3964 O 377.546 -1.30616 3.31388 0
M  V30 3965 O 376.405 -2.23565 4.98679 0
M  V30 3966 H 373.499 -0.370441 0.739393 0
M  V30 3967 H 376.045 -0.017737 1.69691 0
M  V30 3968 H 374.817 -0.372937 3.89519 0
M  V30 3969 H 374.44 -2.02183 3.42356 0
M  V30 3970 N 375.437 -1.54477 -0.31217 0
M  V30 3971 C 376.367 -1.87652 -1.38957 0
M  V30 3972 C 377.348 -0.734358 -1.53431 0
M  V30 3973 O 378.533 -0.98911 -1.67123 0
M  V30 3974 C 375.663 -2.11396 -2.75552 0
M  V30 3975 C 374.617 -3.27243 -2.75855 0
M  V30 3976 C 373.943 -3.36382 -4.15633 0
M  V30 3977 C 375.243 -4.64622 -2.38587 0
M  V30 3978 H 376.937 -2.77887 -1.11442 0
M  V30 3979 H 374.483 -1.33707 -0.534655 0
M  V30 3980 H 376.436 -2.33189 -3.51 0
M  V30 3981 H 375.16 -1.17921 -3.04569 0
M  V30 3982 H 373.819 -3.05356 -2.02863 0
M  V30 3983 H 373.467 -2.40445 -4.41809 0
M  V30 3984 H 373.167 -4.14249 -4.1674 0
M  V30 3985 H 374.691 -3.60422 -4.92877 0
M  V30 3986 H 376.105 -4.86219 -3.03749 0
M  V30 3987 H 374.502 -5.45121 -2.50925 0
M  V30 3988 H 375.572 -4.66097 -1.33723 0
M  V30 3989 N 376.915 0.57481 -1.46744 0
M  V30 3990 C 377.878 1.66533 -1.57478 0
M  V30 3991 C 378.878 1.54338 -0.451263 0
M  V30 3992 O 380.068 1.58814 -0.715813 0
M  V30 3993 C 377.2 3.05999 -1.50259 0
M  V30 3994 H 378.393 1.58372 -2.54673 0
M  V30 3995 H 375.946 0.793301 -1.34672 0
M  V30 3996 H 376.681 3.19709 -0.543725 0
M  V30 3997 H 376.466 3.16259 -2.31781 0
M  V30 3998 H 377.956 3.8537 -1.60872 0
M  V30 3999 N 378.394 1.34581 0.820102 0
M  V30 4000 C 379.324 1.29038 1.94606 0
M  V30 4001 C 380.305 0.1673 1.69275 0
M  V30 4002 O 381.49 0.360112 1.90832 0
M  V30 4003 C 378.62 1.04793 3.31113 0
M  V30 4004 C 377.574 2.13597 3.70891 0
M  V30 4005 C 376.9 1.74537 5.05412 0
M  V30 4006 C 378.2 3.55451 3.8269 0
M  V30 4007 H 379.894 2.23248 1.99501 0
M  V30 4008 H 377.44 1.0747 0.958449 0
M  V30 4009 H 379.393 0.995592 4.0947 0
M  V30 4010 H 378.117 0.0702565 3.26524 0
M  V30 4011 H 376.776 2.17905 2.9481 0
M  V30 4012 H 376.424 0.754226 4.97313 0
M  V30 4013 H 376.124 2.47361 5.32997 0
M  V30 4014 H 377.648 1.70803 5.86224 0
M  V30 4015 H 379.062 3.5354 4.51312 0
M  V30 4016 H 377.459 4.26922 4.21732 0
M  V30 4017 H 378.529 3.92587 2.84611 0
M  V30 4018 N 379.872 -1.04064 1.18357 0
M  V30 4019 C 380.835 -2.10243 0.912707 0
M  V30 4020 C 381.835 -1.60477 -0.101928 0
M  V30 4021 O 383.025 -1.73703 0.131517 0
M  V30 4022 C 380.157 -3.38893 0.369387 0
M  V30 4023 H 381.35 -2.35706 1.85426 0
M  V30 4024 H 378.903 -1.20489 0.995594 0
M  V30 4025 H 379.638 -3.19094 -0.578776 0
M  V30 4026 H 379.423 -3.76331 1.1008 0
M  V30 4027 H 380.913 -4.17128 0.198575 0
M  V30 4028 N 381.35 -0.985608 -1.22978 0
M  V30 4029 C 382.28 -0.549649 -2.26939 0
M  V30 4030 C 383.261 0.419803 -1.64838 0
M  V30 4031 O 384.446 0.31203 -1.91677 0
M  V30 4032 C 381.576 0.143652 -3.47003 0
M  V30 4033 C 380.53 -0.743606 -4.21491 0
M  V30 4034 C 379.856 0.0822027 -5.34637 0
M  V30 4035 C 381.156 -2.03694 -4.80943 0
M  V30 4036 H 382.85 -1.41862 -2.63658 0
M  V30 4037 H 380.396 -0.683571 -1.26741 0
M  V30 4038 H 382.349 0.459985 -4.18882 0
M  V30 4039 H 381.073 1.04711 -3.09359 0
M  V30 4040 H 379.732 -1.04347 -3.51436 0
M  V30 4041 H 379.38 0.986359 -4.93234 0
M  V30 4042 H 379.08 -0.508377 -5.85397 0
M  V30 4043 H 380.604 0.392797 -6.09335 0
M  V30 4044 H 382.018 -1.78504 -5.44802 0
M  V30 4045 H 380.415 -2.57573 -5.42011 0
M  V30 4046 H 381.485 -2.72042 -4.01399 0
M  V30 4047 N 382.828 1.3818 -0.7579 0
M  V30 4048 C 383.775 2.30416 -0.133057 0
M  V30 4049 C 384.745 1.50398 0.704957 0
M  V30 4050 O 385.93 1.79014 0.660192 0
M  V30 4051 C 383.07 3.36834 0.750813 0
M  V30 4052 C 382.183 4.31879 -0.102297 0
M  V30 4053 C 381.318 5.25368 0.784979 0
M  V30 4054 C 380.357 6.12058 -0.0715046 0
M  V30 4055 N 379.494 6.97832 0.772972 0
M  V30 4056 H 384.334 2.83274 -0.925186 0
M  V30 4057 H 381.871 1.39461 -0.467866 0
M  V30 4058 H 383.829 3.97145 1.27794 0
M  V30 4059 H 382.459 2.85374 1.50868 0
M  V30 4060 H 381.511 3.72991 -0.747095 0
M  V30 4061 H 382.823 4.92921 -0.763552 0
M  V30 4062 H 381.977 5.90818 1.37911 0
M  V30 4063 H 380.716 4.64703 1.47996 0
M  V30 4064 H 379.721 5.456 -0.678272 0
M  V30 4065 H 380.946 6.74793 -0.763606 0
M  V30 4066 H 378.892 6.3971 1.45282 0
M  V30 4067 H 378.809 7.55812 0.168709 0
M  V30 4068 H 380.077 7.67687 1.35194 0
M  V30 4069 N 384.306 0.507319 1.49211 0
M  V30 4070 C 385.253 -0.267728 2.29242 0
M  V30 4071 C 386.223 -0.954609 1.35928 0
M  V30 4072 O 387.408 -0.960046 1.64887 0
M  V30 4073 C 384.548 -1.32243 3.18756 0
M  V30 4074 C 383.661 -0.64669 4.27132 0
M  V30 4075 C 382.796 -1.68238 5.03855 0
M  V30 4076 C 381.835 -0.98885 6.0406 0
M  V30 4077 N 380.972 -1.96903 6.73924 0
M  V30 4078 H 385.812 0.420968 2.95012 0
M  V30 4079 H 383.349 0.219443 1.45454 0
M  V30 4080 H 385.307 -1.94599 3.69036 0
M  V30 4081 H 383.937 -1.97981 2.54958 0
M  V30 4082 H 382.989 0.0902926 3.80293 0
M  V30 4083 H 384.301 -0.101058 4.98698 0
M  V30 4084 H 383.455 -2.38081 5.58034 0
M  V30 4085 H 382.194 -2.26187 4.32077 0
M  V30 4086 H 381.199 -0.276222 5.49106 0
M  V30 4087 H 382.424 -0.415767 6.77826 0
M  V30 4088 H 380.37 -2.53803 6.04913 0
M  V30 4089 H 380.287 -1.47423 7.41487 0
M  V30 4090 H 381.555 -2.66015 7.32705 0
M  V30 4091 N 385.784 -1.5574 0.241426 0
M  V30 4092 C 386.714 -2.24133 -0.654722 0
M  V30 4093 C 387.695 -1.21974 -1.1856 0
M  V30 4094 O 388.88 -1.50612 -1.22595 0
M  V30 4095 C 386.01 -2.93659 -1.85423 0
M  V30 4096 C 384.964 -4.0246 -1.45636 0
M  V30 4097 C 384.29 -4.59383 -2.73626 0
M  V30 4098 C 385.59 -5.18468 -0.631506 0
M  V30 4099 H 387.284 -2.99281 -0.0844353 0
M  V30 4100 H 384.83 -1.43947 -0.0391707 0
M  V30 4101 H 386.783 -3.40203 -2.48676 0
M  V30 4102 H 385.507 -2.15991 -2.44981 0
M  V30 4103 H 384.166 -3.56676 -0.847202 0
M  V30 4104 H 383.814 -3.78422 -3.3137 0
M  V30 4105 H 383.514 -5.32826 -2.4773 0
M  V30 4106 H 385.038 -5.08658 -3.37786 0
M  V30 4107 H 386.452 -5.61272 -1.1682 0
M  V30 4108 H 384.849 -5.98266 -0.468831 0
M  V30 4109 H 385.919 -4.8358 0.357506 0
M  V30 4110 N 387.262 0.0317525 -1.57568 0
M  V30 4111 C 388.49 0.734949 -1.93407 0
M  V30 4112 C 388.905 1.69036 -0.84096 0
M  V30 4113 O 388.262 1.81582 0.182836 0
M  V30 4114 C 388.313 1.49432 -3.29169 0
M  V30 4115 O 388.034 0.577261 -4.3428 0
M  V30 4116 C 389.535 2.29492 -3.79273 0
M  V30 4117 H 386.755 0.206706 -0.638368 0
M  V30 4118 H 389.299 -0.00992046 -2.04498 0
M  V30 4119 H 387.454 2.1911 -3.19483 0
M  V30 4120 H 387.868 1.10952 -5.1263 0
M  V30 4121 H 389.342 2.78172 -4.76785 0
M  V30 4122 H 389.819 3.10794 -3.10328 0
M  V30 4123 H 390.425 1.64894 -3.92033 0
M  V30 4124 N 388.74 1.54641 0.303973 0
M  V30 4125 C 389.965 1.78092 1.06292 0
M  V30 4126 C 390.39 0.537342 1.80262 0
M  V30 4127 O 389.748 -0.511993 1.7392 0
M  V30 4128 C 389.796 2.98612 2.02147 0
M  V30 4129 O 388.9 2.71528 3.10397 0
M  V30 4130 H 388.241 0.589548 0.305497 0
M  V30 4131 H 390.771 2.01716 0.3423 0
M  V30 4132 H 390.781 3.265 2.44667 0
M  V30 4133 H 389.456 3.88785 1.47714 0
M  V30 4134 H 388.033 2.54648 2.72413 0
M  V30 4135 N 390.218 -0.567019 1.47046 0
M  V30 4136 C 391.634 -0.891975 1.32348 0
M  V30 4137 C 391.834 -1.99154 0.306616 0
M  V30 4138 O 390.89 -2.50883 -0.28532 0
M  V30 4139 C 392.203 -1.29449 2.7141 0
M  V30 4140 C 393.751 -1.40646 2.79621 0
M  V30 4141 C 394.226 -1.84257 4.19301 0
M  V30 4142 N 395.717 -1.91424 4.21795 0
M  V30 4143 C 396.452 -2.26476 5.26779 0
M  V30 4144 N 395.948 -2.60211 6.42077 0
M  V30 4145 N 397.741 -2.27166 5.14152 0
M  V30 4146 H 389.892 0.159074 2.11803 0
M  V30 4147 H 392.155 0.00849752 0.947962 0
M  V30 4148 H 391.861 -0.560448 3.47206 0
M  V30 4149 H 391.735 -2.25273 3.02542 0
M  V30 4150 H 394.122 -2.13133 2.04104 0
M  V30 4151 H 394.203 -0.430339 2.52154 0
M  V30 4152 H 393.847 -1.12343 4.95319 0
M  V30 4153 H 393.777 -2.82855 4.44185 0
M  V30 4154 H 396.268 -1.6778 3.38612 0
M  V30 4155 H 396.581 -2.85956 7.17948 0
M  V30 4156 H 394.926 -2.57813 6.45413 0
M  V30 4157 H 398.117 -2.00244 4.23107 0
M  V30 4158 H 398.29 -2.54154 5.96079 0
M  V30 4159 N 391.696 -1.35014 -0.812953 0
M  V30 4160 C 392.926 -1.30841 -1.59888 0
M  V30 4161 C 393.334 0.117576 -1.88834 0
M  V30 4162 O 392.677 1.07807 -1.48739 0
M  V30 4163 C 392.739 -2.0412 -2.95931 0
M  V30 4164 C 392.403 -3.53336 -2.89832 0
M  V30 4165 C 393.4 -4.48052 -2.63714 0
M  V30 4166 C 391.085 -3.95894 -3.0915 0
M  V30 4167 C 393.079 -5.833 -2.56982 0
M  V30 4168 C 390.766 -5.31239 -3.0204 0
M  V30 4169 C 391.764 -6.24754 -2.75991 0
M  V30 4170 O 391.452 -7.57617 -2.68833 0
M  V30 4171 H 391.184 -0.451215 -0.50337 0
M  V30 4172 H 393.738 -1.78354 -1.01877 0
M  V30 4173 H 391.968 -1.51235 -3.559 0
M  V30 4174 H 393.657 -1.93107 -3.57022 0
M  V30 4175 H 394.423 -4.16492 -2.48515 0
M  V30 4176 H 390.302 -3.23495 -3.28438 0
M  V30 4177 H 393.846 -6.56263 -2.36569 0
M  V30 4178 H 389.743 -5.62415 -3.16796 0
M  V30 4179 H 390.511 -7.67469 -2.84487 0
M  V30 4180 N 393.175 1.03435 -1.18907 0
M  V30 4181 C 394.452 1.73778 -0.89781 0
M  V30 4182 C 394.832 2.02458 0.597832 0
M  V30 4183 O 394.18 1.67482 1.55441 0
M  V30 4184 C 394.39 3.01845 -1.75187 0
M  V30 4185 C 395.738 3.7546 -1.9828 0
M  V30 4186 O 396.762 3.11759 -1.72293 0
M  V30 4187 O 395.621 4.89966 -2.42065 0
M  V30 4188 H 392.715 0.75651 -0.334098 0
M  V30 4189 H 395.261 1.09444 -1.29693 0
M  V30 4190 H 394.033 2.76836 -2.76545 0
M  V30 4191 H 393.656 3.73919 -1.35167 0
M  V30 4192 N 394.653 0.992116 1.22453 0
M  V30 4193 C 395.601 0.534644 2.26372 0
M  V30 4194 C 396.595 -0.414293 1.64256 0
M  V30 4195 O 397.801 -0.286899 1.77699 0
M  V30 4196 H 394.176 0.154502 0.735957 0
M  V30 4197 H 396.147 1.42256 2.62309 0
M  V30 4198 C 394.896 -0.135815 3.47435 0
M  V30 4199 H 394.219 0.585311 3.95492 0
M  V30 4200 H 395.659 -0.419374 4.21921 0
M  V30 4201 C 394.118 -1.37089 3.07747 0
M  V30 4202 O 394.648 -2.46629 3.17076 0
M  V30 4203 N 392.854 -1.24585 2.62539 0
M  V30 4204 H 392.401 -0.354542 2.55149 0
M  V30 4205 H 392.359 -2.07327 2.36353 0
M  V30 4206 N 396.131 -1.37776 0.765217 0
M  V30 4207 C 397.061 -2.32945 0.160953 0
M  V30 4208 C 398.042 -1.55454 -0.690516 0
M  V30 4209 O 399.227 -1.83721 -0.629318 0
M  V30 4210 C 396.357 -3.39669 -0.724031 0
M  V30 4211 C 395.311 -4.27992 0.0256173 0
M  V30 4212 C 394.637 -5.25673 -0.978383 0
M  V30 4213 C 395.937 -5.08309 1.20082 0
M  V30 4214 H 397.631 -2.83728 0.955969 0
M  V30 4215 H 395.177 -1.36416 0.461149 0
M  V30 4216 H 397.13 -4.05219 -1.15652 0
M  V30 4217 H 395.854 -2.87396 -1.5515 0
M  V30 4218 H 394.513 -3.63964 0.438812 0
M  V30 4219 H 394.161 -4.69682 -1.80022 0
M  V30 4220 H 393.861 -5.85625 -0.481378 0
M  V30 4221 H 395.385 -5.94098 -1.40995 0
M  V30 4222 H 396.799 -5.67034 0.845307 0
M  V30 4223 H 395.196 -5.77554 1.62947 0
M  V30 4224 H 396.266 -4.41365 2.00811 0
M  V30 4225 N 397.609 -0.515225 -1.4894 0
M  V30 4226 C 398.856 0.024215 -2.02486 0
M  V30 4227 C 399.184 1.35671 -1.39368 0
M  V30 4228 O 398.439 1.88566 -0.523574 0
M  V30 4229 C 398.738 0.210595 -3.56779 0
M  V30 4230 C 398.404 -1.04569 -4.38607 0
M  V30 4231 C 397.066 -1.39002 -4.60686 0
M  V30 4232 C 399.418 -1.88008 -4.86109 0
M  V30 4233 C 396.746 -2.568 -5.27514 0
M  V30 4234 C 399.098 -3.04972 -5.54234 0
M  V30 4235 C 397.762 -3.39768 -5.74555 0
M  V30 4236 H 397.032 0.00886088 -0.740947 0
M  V30 4237 H 399.679 -0.678263 -1.79086 0
M  V30 4238 H 397.984 0.99572 -3.78936 0
M  V30 4239 H 399.681 0.642659 -3.95817 0
M  V30 4240 H 396.271 -0.767497 -4.21672 0
M  V30 4241 H 400.455 -1.62719 -4.68867 0
M  V30 4242 H 395.711 -2.8398 -5.41447 0
M  V30 4243 H 399.885 -3.69943 -5.90013 0
M  V30 4244 H 397.512 -4.31148 -6.26112 0
M  V30 4245 N 399.087 1.5561 -0.249682 0
M  V30 4246 C 400.019 2.18834 0.681496 0
M  V30 4247 C 401.032 1.16546 1.1367 0
M  V30 4248 O 402.221 1.43397 1.06299 0
M  V30 4249 C 399.321 2.77992 1.9384 0
M  V30 4250 C 398.494 4.05725 1.63419 0
M  V30 4251 C 397.553 4.49174 2.74096 0
M  V30 4252 O 396.579 5.15492 2.41364 0
M  V30 4253 N 397.781 4.17191 4.03649 0
M  V30 4254 H 400.546 2.9937 0.140514 0
M  V30 4255 H 398.107 1.6175 -0.0697541 0
M  V30 4256 H 400.099 3.04015 2.67127 0
M  V30 4257 H 398.669 2.01596 2.38909 0
M  V30 4258 H 397.889 3.87261 0.736358 0
M  V30 4259 H 399.177 4.88999 1.40562 0
M  V30 4260 H 398.575 3.63955 4.33074 0
M  V30 4261 H 397.132 4.48043 4.73393 0
M  V30 4262 N 400.565 -0.0233959 1.57583 0
M  V30 4263 C 401.805 -0.71784 1.9138 0
M  V30 4264 C 402.169 -1.72216 0.848853 0
M  V30 4265 O 403.37 -2.46527 1.07134 0
M  V30 4266 C 401.641 -1.36489 3.30311 0
M  V30 4267 S 403.2 -2.0877 3.85954 0
M  V30 4268 H 400.018 -0.237676 0.670098 0
M  V30 4269 H 402.62 0.0276709 1.9548 0
M  V30 4270 H 401.324 -0.620782 4.05678 0
M  V30 4271 H 400.855 -2.14883 3.29528 0
M  V30 4272 H 402.87 -3.35988 3.65139 0
M  V30 4273 N 402.043 -1.548 -0.295768 0
M  V30 4274 C 403.268 -1.78653 -1.05346 0
M  V30 4275 C 403.693 -0.546894 -1.79974 0
M  V30 4276 O 403.051 0.502763 -1.7419 0
M  V30 4277 C 403.099 -2.99679 -2.00561 0
M  V30 4278 O 402.203 -2.7317 -3.08953 0
M  V30 4279 H 401.544 -0.59116 -0.302367 0
M  V30 4280 H 404.074 -2.01895 -0.331598 0
M  V30 4281 H 404.084 -3.27793 -2.42932 0
M  V30 4282 H 402.759 -3.89562 -1.4565 0
M  V30 4283 H 401.336 -2.56089 -2.71059 0
M  V30 4284 N 403.521 0.559213 -1.47345 0
M  V30 4285 C 404.768 1.31648 -1.53867 0
M  V30 4286 C 405.096 1.93468 -0.200104 0
M  V30 4287 O 404.351 1.78295 0.806799 0
M  V30 4288 C 404.65 2.44853 -2.6035 0
M  V30 4289 C 404.316 2.00876 -4.03683 0
M  V30 4290 C 402.978 1.88599 -4.42701 0
M  V30 4291 C 405.33 1.67279 -4.93626 0
M  V30 4292 C 402.658 1.41017 -5.69501 0
M  V30 4293 C 405.01 1.21169 -6.20887 0
M  V30 4294 C 403.674 1.07487 -6.58789 0
M  V30 4295 H 402.944 0.481734 -0.56304 0
M  V30 4296 H 405.591 0.627301 -1.80934 0
M  V30 4297 H 403.896 3.19318 -2.27032 0
M  V30 4298 H 405.593 3.03039 -2.62619 0
M  V30 4299 H 402.183 2.11374 -3.72853 0
M  V30 4300 H 406.367 1.75638 -4.64182 0
M  V30 4301 H 401.623 1.29086 -5.97618 0
M  V30 4302 H 405.797 0.942345 -6.89995 0
M  V30 4303 H 403.424 0.703946 -7.56934 0
M  V30 4304 N 404.999 1.35443 0.805782 0
M  V30 4305 C 406.41 1.25768 1.37983 0
M  V30 4306 C 406.761 -0.10958 1.95894 0
M  V30 4307 O 405.886 -1.01056 1.91355 0
M  V30 4308 C 406.481 2.27727 2.5085 0
M  V30 4309 C 405.04 2.2179 3.04115 0
M  V30 4310 C 404.187 2.13393 1.77084 0
M  V30 4311 H 407.138 1.4656 0.608752 0
M  V30 4312 H 407.159 1.90422 3.29424 0
M  V30 4313 H 406.671 3.27227 2.08671 0
M  V30 4314 H 404.772 1.25703 3.50756 0
M  V30 4315 H 404.885 3.13788 3.62042 0
M  V30 4316 H 403.249 1.59384 1.98668 0
M  V30 4317 H 404.032 3.14755 1.37056 0
M  V30 4318 N 406.477 -1.02803 1.19454 0
M  V30 4319 C 407.707 -1.79581 1.02149 0
M  V30 4320 C 408.115 -1.84182 -0.432851 0
M  V30 4321 O 407.458 -1.28534 -1.31243 0
M  V30 4322 C 407.52 -3.25993 1.51554 0
M  V30 4323 C 407.184 -3.45025 2.99678 0
M  V30 4324 C 408.181 -3.35175 3.97434 0
M  V30 4325 C 405.866 -3.71212 3.38389 0
M  V30 4326 C 407.86 -3.51238 5.31893 0
M  V30 4327 C 405.547 -3.8692 4.73008 0
M  V30 4328 C 406.545 -3.76936 5.69569 0
M  V30 4329 O 406.233 -3.92179 7.01748 0
M  V30 4330 H 405.965 -0.571962 0.360327 0
M  V30 4331 H 408.519 -1.30367 1.58725 0
M  V30 4332 H 406.749 -3.76235 0.893543 0
M  V30 4333 H 408.438 -3.84368 1.30444 0
M  V30 4334 H 409.204 -3.14895 3.68872 0
M  V30 4335 H 405.083 -3.78075 2.6378 0
M  V30 4336 H 408.627 -3.43362 6.07247 0
M  V30 4337 H 404.524 -4.06699 5.01265 0
M  V30 4338 H 405.292 -4.09265 7.08833 0
M  V30 4339 N 407.956 -0.998596 -1.21925 0
M  V30 4340 C 409.181 -0.696015 -1.95372 0
M  V30 4341 C 409.606 0.733826 -1.73195 0
M  V30 4342 O 408.964 1.50242 -1.01474 0
M  V30 4343 C 409.012 -1.01466 -3.4603 0
M  V30 4344 O 408.116 -0.116415 -4.12236 0
M  V30 4345 H 407.457 -0.259938 -0.611006 0
M  V30 4346 H 409.987 -1.33711 -1.54863 0
M  V30 4347 H 409.997 -0.958855 -3.96573 0
M  V30 4348 H 408.672 -2.05653 -3.61497 0
M  V30 4349 H 407.249 -0.228193 -3.72201 0
M  V30 4350 N 409.434 1.37368 -0.772513 0
M  V30 4351 C 410.367 2.27956 -0.105593 0
M  V30 4352 C 411.345 1.46362 0.708295 0
M  V30 4353 O 412.529 1.75695 0.682895 0
M  V30 4354 C 409.656 3.27687 0.856686 0
M  V30 4355 C 408.702 4.26312 0.1267 0
M  V30 4356 S 409.535 5.22206 -1.1858 0
M  V30 4357 C 410.691 6.25488 -0.227081 0
M  V30 4358 H 410.924 2.84171 -0.87372 0
M  V30 4359 H 408.457 1.43654 -0.565939 0
M  V30 4360 H 410.415 3.85653 1.40648 0
M  V30 4361 H 409.076 2.70417 1.59793 0
M  V30 4362 H 408.269 4.96674 0.856212 0
M  V30 4363 H 407.871 3.72339 -0.352117 0
M  V30 4364 H 410.163 6.74836 0.600231 0
M  V30 4365 H 411.106 7.02371 -0.898899 0
M  V30 4366 H 411.514 5.64267 0.162053 0
M  V30 4367 N 410.912 0.523116 1.48665 0
M  V30 4368 C 412.16 -0.0134497 2.02096 0
M  V30 4369 C 412.481 -1.35418 1.40311 0
M  V30 4370 O 411.751 -1.87543 0.566074 0
M  V30 4371 H 410.331 -0.00795915 0.746958 0
M  V30 4372 H 412.993 0.685388 1.82451 0
M  V30 4373 H 412.089 -0.126849 3.11842 0
M  V30 4374 N 412.39 -1.55475 0.257931 0
M  V30 4375 C 413.636 -2.00237 -0.357338 0
M  V30 4376 C 413.991 -1.14313 -1.54759 0
M  V30 4377 O 413.284 -0.201187 -1.90541 0
M  V30 4378 C 413.478 -3.48183 -0.806433 0
M  V30 4379 C 413.307 -4.48422 0.338758 0
M  V30 4380 C 412.077 -4.98651 0.817011 0
M  V30 4381 C 414.275 -5.00827 1.16949 0
M  V30 4382 N 412.257 -5.82658 1.93346 0
M  V30 4383 C 413.628 -5.82113 2.13413 0
M  V30 4384 C 415.683 -4.83104 1.2048 0
M  V30 4385 C 414.386 -6.47566 3.13131 0
M  V30 4386 C 416.412 -5.49343 2.19034 0
M  V30 4387 C 415.774 -6.30427 3.14232 0
M  V30 4388 H 411.873 -0.776034 -0.0964083 0
M  V30 4389 H 414.457 -1.90995 0.37803 0
M  V30 4390 H 412.628 -3.57801 -1.51107 0
M  V30 4391 H 414.36 -3.79802 -1.39758 0
M  V30 4392 H 411.115 -4.71914 0.39925 0
M  V30 4393 H 411.539 -6.29356 2.49478 0
M  V30 4394 H 416.181 -4.20036 0.482634 0
M  V30 4395 H 413.899 -7.09793 3.8629 0
M  V30 4396 H 417.485 -5.37579 2.22485 0
M  V30 4397 H 416.365 -6.80777 3.89246 0
M  V30 4398 N 413.868 0.0150385 -1.57593 0
M  V30 4399 C 414.818 1.01943 -2.0394 0
M  V30 4400 C 415.802 1.31209 -0.931286 0
M  V30 4401 O 416.994 1.30559 -1.19513 0
M  V30 4402 C 414.123 2.31621 -2.53391 0
M  V30 4403 C 413.209 2.05384 -3.7105 0
M  V30 4404 N 413.6 1.49253 -4.83278 0
M  V30 4405 C 411.898 2.35601 -3.78693 0
M  V30 4406 C 412.599 1.39143 -5.64813 0
M  V30 4407 N 411.575 1.87187 -5.10355 0
M  V30 4408 H 415.377 0.57969 -2.88126 0
M  V30 4409 H 412.891 0.221056 -1.60888 0
M  V30 4410 H 414.888 3.044 -2.84862 0
M  V30 4411 H 413.548 2.76261 -1.70616 0
M  V30 4412 H 414.559 1.17334 -5.04433 0
M  V30 4413 H 411.236 2.8322 -3.06746 0
M  V30 4414 H 412.626 0.961153 -6.6499 0
M  V30 4415 N 415.346 1.54954 0.287554 0
M  V30 4416 C 416.594 1.74528 1.01904 0
M  V30 4417 C 416.915 0.541349 1.87335 0
M  V30 4418 O 416.185 -0.444108 1.908 0
M  V30 4419 H 414.765 0.643576 0.379235 0
M  V30 4420 H 417.427 1.92333 0.315294 0
M  V30 4421 H 416.523 2.64015 1.6644 0
M  V30 4422 N 416.824 -0.551391 1.4764 0
M  V30 4423 C 417.787 -1.64007 1.60107 0
M  V30 4424 C 418.787 -1.53601 0.47576 0
M  V30 4425 O 419.977 -1.57655 0.740988 0
M  V30 4426 C 417.109 -3.03569 1.55108 0
M  V30 4427 H 418.302 -1.543 2.57161 0
M  V30 4428 H 415.855 -0.771776 1.35917 0
M  V30 4429 H 416.59 -3.18804 0.594519 0
M  V30 4430 H 416.375 -3.12532 2.36783 0
M  V30 4431 H 417.865 -3.82762 1.66982 0
M  V30 4432 N 418.302 -1.35869 -0.798587 0
M  V30 4433 C 419.713 -1.26498 -1.37314 0
M  V30 4434 C 420.064 0.0991899 -1.95949 0
M  V30 4435 O 419.189 1.0004 -1.91888 0
M  V30 4436 C 419.784 -2.29054 -2.49639 0
M  V30 4437 C 418.343 -2.234 -3.02935 0
M  V30 4438 C 417.49 -2.14329 -1.75949 0
M  V30 4439 H 420.441 -1.46881 -0.600971 0
M  V30 4440 H 420.462 -1.92166 -3.28409 0
M  V30 4441 H 419.974 -3.2833 -2.06933 0
M  V30 4442 H 418.075 -1.27562 -3.50084 0
M  V30 4443 H 418.188 -3.15703 -3.60372 0
M  V30 4444 H 416.552 -1.60435 -1.9782 0
M  V30 4445 H 417.335 -3.15477 -1.35384 0
M  V30 4446 N 419.78 1.02168 -1.19998 0
M  V30 4447 C 421.027 1.75685 -1.00702 0
M  V30 4448 C 421.355 1.88947 0.461426 0
M  V30 4449 O 420.61 1.40832 1.35885 0
M  V30 4450 C 420.909 3.18081 -1.62969 0
M  V30 4451 C 420.575 3.24809 -3.12746 0
M  V30 4452 C 419.237 3.26352 -3.53621 0
M  V30 4453 C 421.589 3.23379 -4.08749 0
M  V30 4454 C 418.917 3.2413 -4.89036 0
M  V30 4455 C 421.269 3.22698 -5.44104 0
M  V30 4456 C 419.933 3.22542 -5.84399 0
M  V30 4457 H 419.203 0.642877 -0.368496 0
M  V30 4458 H 421.85 1.19865 -1.49348 0
M  V30 4459 H 420.155 3.77027 -1.06573 0
M  V30 4460 H 421.852 3.73648 -1.45561 0
M  V30 4461 H 418.442 3.2434 -2.80181 0
M  V30 4462 H 422.626 3.21361 -3.78207 0
M  V30 4463 H 417.882 3.22338 -5.19527 0
M  V30 4464 H 422.056 3.20543 -6.18244 0
M  V30 4465 H 419.683 3.20575 -6.89301 0
M  V30 4466 N 421.258 1.00505 1.21394 0
M  V30 4467 C 422.206 0.558623 2.25792 0
M  V30 4468 C 423.2 -0.396848 1.64686 0
M  V30 4469 O 424.406 -0.268035 1.77993 0
M  V30 4470 H 420.781 0.1623 0.734277 0
M  V30 4471 H 422.752 1.4503 2.60785 0
M  V30 4472 C 421.501 -0.0989574 3.47559 0
M  V30 4473 H 420.824 0.627225 3.94849 0
M  V30 4474 H 422.264 -0.3746 4.22342 0
M  V30 4475 C 420.723 -1.33817 3.09184 0
M  V30 4476 O 421.253 -2.43252 3.19674 0
M  V30 4477 N 419.459 -1.21793 2.63846 0
M  V30 4478 H 419.006 -0.32746 2.5551 0
M  V30 4479 H 418.964 -2.04809 2.38539 0
M  V30 4480 N 422.737 -1.36956 0.779787 0
M  V30 4481 C 423.985 -1.99097 0.347079 0
M  V30 4482 C 424.306 -1.62206 -1.08232 0
M  V30 4483 O 423.576 -0.891373 -1.74446 0
M  V30 4484 H 422.156 -0.736409 0.125342 0
M  V30 4485 H 424.818 -1.67308 0.999696 0
M  V30 4486 H 423.914 -3.09107 0.431162 0
M  V30 4487 N 424.215 -0.530993 -1.48385 0
M  V30 4488 C 425.125 0.23503 -2.3342 0
M  V30 4489 C 426.141 0.93801 -1.46552 0
M  V30 4490 O 427.317 0.912745 -1.7953 0
M  V30 4491 C 424.382 1.26778 -3.22689 0
M  V30 4492 C 423.443 0.575038 -4.25431 0
M  V30 4493 C 422.676 1.55858 -5.10435 0
M  V30 4494 O 422.899 2.79129 -4.97437 0
M  V30 4495 O 421.833 1.09742 -5.91811 0
M  V30 4496 H 425.659 -0.461794 -3.00169 0
M  V30 4497 H 423.244 -0.291903 -1.46521 0
M  V30 4498 H 425.126 1.86457 -3.77904 0
M  V30 4499 H 423.801 1.94699 -2.586 0
M  V30 4500 H 422.708 -0.0622782 -3.74048 0
M  V30 4501 H 424.041 -0.062253 -4.92161 0
M  V30 4502 N 425.693 1.55336 -0.266172 0
M  V30 4503 C 426.603 2.2583 0.635458 0
M  V30 4504 C 427.619 1.28106 1.17749 0
M  V30 4505 O 428.795 1.61024 1.20968 0
M  V30 4506 C 425.86 2.95879 1.80712 0
M  V30 4507 C 424.921 4.09059 1.30265 0
M  V30 4508 C 424.154 4.75759 2.41846 0
M  V30 4509 O 424.377 4.41622 3.61007 0
M  V30 4510 O 423.311 5.63888 2.1051 0
M  V30 4511 H 427.137 3.03631 0.0646693 0
M  V30 4512 H 424.722 1.49361 -0.0339177 0
M  V30 4513 H 426.604 3.39932 2.49047 0
M  V30 4514 H 425.279 2.21002 2.36516 0
M  V30 4515 H 424.186 3.69482 0.586019 0
M  V30 4516 H 425.519 4.85811 0.790458 0
M  V30 4517 N 427.171 -0.0066808 1.57599 0
M  V30 4518 C 428.119 -1.01851 2.09115 0
M  V30 4519 C 429.113 -1.36021 1.00969 0
M  V30 4520 O 430.319 -1.34663 1.19439 0
M  V30 4521 H 426.694 -0.346083 0.667631 0
M  V30 4522 H 428.665 -0.558394 2.93129 0
M  V30 4523 C 427.414 -2.30374 2.60429 0
M  V30 4524 H 426.737 -2.04947 3.43273 0
M  V30 4525 H 428.177 -2.99466 3.00161 0
M  V30 4526 C 426.636 -3.00893 1.51542 0
M  V30 4527 O 427.166 -3.91614 0.894484 0
M  V30 4528 N 425.372 -2.62603 1.2445 0
M  V30 4529 H 424.919 -1.88911 1.75129 0
M  V30 4530 H 424.877 -3.10101 0.518137 0
M  V30 4531 N 428.649 -1.55105 -0.279332 0
M  V30 4532 C 429.581 -1.83952 -1.36727 0
M  V30 4533 C 430.594 -0.723642 -1.45833 0
M  V30 4534 O 431.783 -1.00141 -1.47763 0
M  V30 4535 C 428.883 -1.98183 -2.74912 0
M  V30 4536 C 428.056 -3.28787 -2.88475 0
M  V30 4537 C 427.115 -3.33162 -4.07295 0
M  V30 4538 O 426.141 -4.06576 -3.98353 0
M  V30 4539 N 427.343 -2.60109 -5.18964 0
M  V30 4540 H 430.108 -2.77853 -1.12328 0
M  V30 4541 H 427.669 -1.54945 -0.469442 0
M  V30 4542 H 429.661 -1.98488 -3.52682 0
M  V30 4543 H 428.231 -1.11177 -2.92162 0
M  V30 4544 H 427.451 -3.41075 -1.97641 0
M  V30 4545 H 428.739 -4.14933 -2.94463 0
M  V30 4546 H 428.137 -2.00136 -5.29115 0
M  V30 4547 H 426.694 -2.66143 -5.94988 0
M  V30 4548 N 430.127 0.543554 -1.4793 0
M  V30 4549 C 431.077 1.64527 -1.57844 0
M  V30 4550 C 432.061 1.54869 -0.436408 0
M  V30 4551 O 433.253 1.63119 -0.687101 0
M  V30 4552 C 430.382 3.03281 -1.6086 0
M  V30 4553 C 429.468 3.18093 -2.80495 0
M  V30 4554 N 429.859 3.02923 -4.05057 0
M  V30 4555 C 428.157 3.49121 -2.77543 0
M  V30 4556 C 428.858 3.20791 -4.85251 0
M  V30 4557 N 427.834 3.47749 -4.17818 0
M  V30 4558 H 431.636 1.51388 -2.5191 0
M  V30 4559 H 429.15 0.748671 -1.44113 0
M  V30 4560 H 431.147 3.82403 -1.66054 0
M  V30 4561 H 429.807 3.17521 -0.678996 0
M  V30 4562 H 430.818 2.79966 -4.35705 0
M  V30 4563 H 427.495 3.69804 -1.93781 0
M  V30 4564 H 428.885 3.13915 -5.9406 0
M  V30 4565 N 431.605 1.3629 0.791371 0
M  V30 4566 C 432.851 1.31613 1.5508 0
M  V30 4567 C 433.206 -0.104372 1.92117 0
M  V30 4568 O 432.499 -1.05845 1.5971 0
M  V30 4569 C 432.693 2.17068 2.8393 0
M  V30 4570 C 432.522 3.67285 2.59484 0
M  V30 4571 C 431.292 4.36469 2.54604 0
M  V30 4572 C 433.49 4.60595 2.28816 0
M  V30 4573 N 431.472 5.7234 2.22036 0
M  V30 4574 C 432.843 5.847 2.06218 0
M  V30 4575 C 434.898 4.4918 2.14806 0
M  V30 4576 C 433.601 6.98671 1.71028 0
M  V30 4577 C 435.627 5.63017 1.81014 0
M  V30 4578 C 434.989 6.86159 1.59263 0
M  V30 4579 H 431.088 0.536878 0.568582 0
M  V30 4580 H 433.672 1.71323 0.925007 0
M  V30 4581 H 431.843 1.79605 3.44378 0
M  V30 4582 H 433.575 2.03795 3.49642 0
M  V30 4583 H 430.33 3.89249 2.69782 0
M  V30 4584 H 430.754 6.44093 2.08503 0
M  V30 4585 H 435.396 3.54564 2.30313 0
M  V30 4586 H 433.114 7.9324 1.54259 0
M  V30 4587 H 436.7 5.56146 1.70861 0
M  V30 4588 H 435.58 7.72753 1.335 0
M  V30 4589 N 433.083 -1.0153 1.20538 0
M  V30 4590 C 434.015 -2.10224 0.913155 0
M  V30 4591 C 435.028 -1.62495 -0.0995998 0
M  V30 4592 O 436.217 -1.78014 0.131582 0
M  V30 4593 C 433.317 -3.37111 0.347717 0
M  V30 4594 C 432.49 -4.13971 1.41233 0
M  V30 4595 C 431.549 -5.19158 0.857976 0
M  V30 4596 O 430.575 -5.48 1.53897 0
M  V30 4597 N 431.777 -5.7955 -0.331966 0
M  V30 4598 H 434.542 -2.35879 1.84881 0
M  V30 4599 H 432.103 -1.17931 1.10923 0
M  V30 4600 H 434.095 -4.04683 -0.0373026 0
M  V30 4601 H 432.665 -3.08696 -0.492527 0
M  V30 4602 H 431.885 -3.41351 1.97163 0
M  V30 4603 H 433.173 -4.62103 2.12928 0
M  V30 4604 H 432.571 -5.58455 -0.902478 0
M  V30 4605 H 431.128 -6.48464 -0.65861 0
M  V30 4606 N 434.561 -1.01147 -1.20859 0
M  V30 4607 C 435.491 -0.597663 -2.25722 0
M  V30 4608 C 436.472 0.384744 -1.65692 0
M  V30 4609 O 437.657 0.271303 -1.92296 0
M  V30 4610 C 434.787 0.0700149 -3.47229 0
M  V30 4611 C 433.741 -0.832843 -4.19819 0
M  V30 4612 C 433.067 -0.0312202 -5.34691 0
M  V30 4613 C 434.367 -2.1385 -4.76514 0
M  V30 4614 H 436.061 -1.47423 -2.60589 0
M  V30 4615 H 433.607 -0.710301 -1.25263 0
M  V30 4616 H 435.56 0.37103 -4.19763 0
M  V30 4617 H 434.284 0.981259 -3.11511 0
M  V30 4618 H 432.943 -1.11778 -3.49144 0
M  V30 4619 H 432.591 0.881515 -4.95215 0
M  V30 4620 H 432.291 -0.632434 -5.84187 0
M  V30 4621 H 433.815 0.26346 -6.10031 0
M  V30 4622 H 435.229 -1.9002 -5.40893 0
M  V30 4623 H 433.626 -2.69012 -5.36426 0
M  V30 4624 H 434.696 -2.80495 -3.95538 0
M  V30 4625 N 436.039 1.36541 -0.78704 0
M  V30 4626 C 436.989 2.27459 -0.156957 0
M  V30 4627 C 437.973 1.46843 0.657709 0
M  V30 4628 O 439.165 1.69245 0.518173 0
M  V30 4629 C 436.294 3.35893 0.709278 0
M  V30 4630 C 435.38 4.23947 -0.114049 0
M  V30 4631 N 435.771 4.92145 -1.16736 0
M  V30 4632 C 434.069 4.4587 0.107497 0
M  V30 4633 C 434.77 5.57261 -1.66837 0
M  V30 4634 N 433.746 5.3473 -0.977992 0
M  V30 4635 H 437.548 2.77669 -0.963185 0
M  V30 4636 H 435.062 1.49839 -0.62627 0
M  V30 4637 H 437.059 3.99953 1.17656 0
M  V30 4638 H 435.719 2.87238 1.51408 0
M  V30 4639 H 436.73 4.94169 -1.54976 0
M  V30 4640 H 433.407 4.08056 0.882994 0
M  V30 4641 H 434.797 6.21728 -2.54762 0
M  V30 4642 N 437.518 0.538854 1.48102 0
M  V30 4643 C 438.481 -0.208395 2.28251 0
M  V30 4644 C 439.481 -0.859656 1.35892 0
M  V30 4645 O 440.671 -0.71834 1.58699 0
M  V30 4646 C 437.803 -1.30252 3.15035 0
M  V30 4647 H 438.996 0.495407 2.9578 0
M  V30 4648 H 436.549 0.295112 1.53489 0
M  V30 4649 H 437.284 -2.0393 2.52157 0
M  V30 4650 H 437.069 -0.840551 3.82985 0
M  V30 4651 H 438.559 -1.82787 3.75471 0
M  V30 4652 N 438.996 -1.55193 0.274407 0
M  V30 4653 C 439.946 -2.19184 -0.627882 0
M  V30 4654 C 440.93 -1.15625 -1.11892 0
M  V30 4655 O 442.122 -1.41441 -1.06411 0
M  V30 4656 C 439.251 -2.91591 -1.81189 0
M  V30 4657 C 438.337 -4.02438 -1.33807 0
M  V30 4658 N 438.728 -5.0246 -0.580349 0
M  V30 4659 C 437.026 -4.15496 -1.62109 0
M  V30 4660 C 437.727 -5.80756 -0.331344 0
M  V30 4661 N 436.703 -5.36038 -0.903556 0
M  V30 4662 H 440.505 -2.93871 -0.0411216 0
M  V30 4663 H 438.019 -1.62213 0.0779348 0
M  V30 4664 H 440.016 -3.35883 -2.46957 0
M  V30 4665 H 438.676 -2.18414 -2.40261 0
M  V30 4666 H 439.687 -5.17399 -0.227762 0
M  V30 4667 H 436.364 -3.53509 -2.22121 0
M  V30 4668 H 437.754 -6.71335 0.275454 0
M  V30 4669 N 440.474 -0.00167713 -1.576 0
M  V30 4670 C 441.721 0.68282 -1.90641 0
M  V30 4671 C 442.049 1.73686 -0.875415 0
M  V30 4672 O 441.304 1.95334 0.119575 0
M  V30 4673 C 441.603 1.36189 -3.30435 0
M  V30 4674 C 441.269 0.440887 -4.48739 0
M  V30 4675 C 439.931 0.187312 -4.80835 0
M  V30 4676 C 442.283 -0.193134 -5.20842 0
M  V30 4677 C 439.611 -0.70855 -5.82406 0
M  V30 4678 C 441.963 -1.07688 -6.23367 0
M  V30 4679 C 440.627 -1.33962 -6.53919 0
M  V30 4680 H 439.897 0.249862 -0.697603 0
M  V30 4681 H 442.544 -0.0575642 -1.91413 0
M  V30 4682 H 440.849 2.17636 -3.25794 0
M  V30 4683 H 442.546 1.89759 -3.5326 0
M  V30 4684 H 439.136 0.648694 -4.23663 0
M  V30 4685 H 443.32 -0.0102445 -4.96299 0
M  V30 4686 H 438.576 -0.920097 -6.04437 0
M  V30 4687 H 442.75 -1.57451 -6.78367 0
M  V30 4688 H 440.377 -2.03549 -7.32442 0
M  V30 4689 N 441.952 1.55251 0.271103 0
M  V30 4690 C 443.182 1.79713 1.01916 0
M  V30 4691 C 443.59 0.571613 1.80359 0
M  V30 4692 O 442.933 -0.468853 1.77616 0
M  V30 4693 C 442.995 2.97138 2.02359 0
M  V30 4694 C 442.659 4.34104 1.42837 0
M  V30 4695 C 443.656 5.13019 0.843071 0
M  V30 4696 C 441.341 4.80765 1.455 0
M  V30 4697 C 443.335 6.36729 0.292333 0
M  V30 4698 C 441.022 6.0443 0.900402 0
M  V30 4699 C 442.02 6.8225 0.32007 0
M  V30 4700 O 441.708 8.03582 -0.226031 0
M  V30 4701 H 441.44 0.602431 0.306681 0
M  V30 4702 H 443.994 2.03097 0.306701 0
M  V30 4703 H 442.224 2.6945 2.77369 0
M  V30 4704 H 443.913 3.08907 2.63309 0
M  V30 4705 H 444.679 4.781 0.815178 0
M  V30 4706 H 440.558 4.20202 1.89609 0
M  V30 4707 H 444.102 6.97414 -0.161274 0
M  V30 4708 H 439.999 6.3883 0.925541 0
M  V30 4709 H 440.767 8.18418 -0.115572 0
M  V30 4710 N 443.43 -0.535701 1.48216 0
M  V30 4711 C 444.841 -1.11769 1.49548 0
M  V30 4712 C 445.192 -1.94442 0.26207 0
M  V30 4713 O 444.317 -2.06987 -0.631287 0
M  V30 4714 C 444.912 -2.03367 2.70975 0
M  V30 4715 C 443.471 -2.56795 2.75196 0
M  V30 4716 C 442.618 -1.33631 2.42977 0
M  V30 4717 H 445.569 -0.321232 1.55415 0
M  V30 4718 H 445.59 -2.87569 2.49167 0
M  V30 4719 H 445.102 -1.43169 3.60727 0
M  V30 4720 H 443.203 -3.20731 1.89638 0
M  V30 4721 H 443.316 -2.9632 3.76472 0
M  V30 4722 H 441.68 -1.6502 1.94012 0
M  V30 4723 H 442.463 -0.75194 3.34964 0
M  V30 4724 N 444.908 -1.36708 -0.784132 0
M  V30 4725 C 446.319 -1.27947 -1.35965 0
M  V30 4726 C 446.67 0.0784013 -1.96043 0
M  V30 4727 O 445.795 0.979989 -1.92938 0
M  V30 4728 C 446.39 -2.31689 -2.47195 0
M  V30 4729 C 444.949 -2.26601 -3.00548 0
M  V30 4730 C 444.096 -2.16184 -1.73666 0
M  V30 4731 H 447.047 -1.4751 -0.585358 0
M  V30 4732 H 447.068 -1.95638 -3.26352 0
M  V30 4733 H 446.58 -3.30506 -2.03439 0
M  V30 4734 H 444.681 -1.31268 -3.48711 0
M  V30 4735 H 444.794 -3.19508 -3.57004 0
M  V30 4736 H 443.158 -1.62524 -1.96107 0
M  V30 4737 H 443.941 -3.16896 -1.32031 0
M  V30 4738 N 446.386 1.0089 -1.21074 0
M  V30 4739 C 447.316 2.1145 -0.990523 0
M  V30 4740 C 448.297 1.69897 0.0831699 0
M  V30 4741 O 449.482 1.94052 -0.0758853 0
M  V30 4742 C 446.612 3.42914 -0.550177 0
M  V30 4743 C 445.566 3.98244 -1.56799 0
M  V30 4744 C 444.892 5.25568 -0.984013 0
M  V30 4745 C 446.192 4.30752 -2.95381 0
M  V30 4746 H 447.886 2.3013 -1.91521 0
M  V30 4747 H 445.432 1.10592 -0.92225 0
M  V30 4748 H 447.385 4.19653 -0.383305 0
M  V30 4749 H 446.109 3.24014 0.41015 0
M  V30 4750 H 444.768 3.23621 -1.72236 0
M  V30 4751 H 444.416 5.02998 -0.0155216 0
M  V30 4752 H 444.116 5.63551 -1.66384 0
M  V30 4753 H 445.64 6.04955 -0.828378 0
M  V30 4754 H 447.054 4.98349 -2.8341 0
M  V30 4755 H 445.451 4.79869 -3.60341 0
M  V30 4756 H 446.521 3.39192 -3.46521 0
M  V30 4757 N 447.864 1.01787 1.20321 0
M  V30 4758 C 448.794 0.609625 2.25401 0
M  V30 4759 C 449.775 -0.375951 1.65893 0
M  V30 4760 O 450.96 -0.261101 1.92437 0
M  V30 4761 C 448.09 -0.0515995 3.47262 0
M  V30 4762 C 447.044 0.855095 4.19371 0
M  V30 4763 C 446.37 0.0595757 5.34667 0
M  V30 4764 C 447.67 2.16374 4.75373 0
M  V30 4765 H 449.364 1.48803 2.59804 0
M  V30 4766 H 446.91 0.716934 1.24884 0
M  V30 4767 H 448.863 -0.348764 4.19954 0
M  V30 4768 H 447.587 -0.964726 3.12027 0
M  V30 4769 H 446.246 1.13628 3.48546 0
M  V30 4770 H 445.894 -0.85524 4.95676 0
M  V30 4771 H 445.594 0.663406 5.83843 0
M  V30 4772 H 447.118 -0.231105 6.10162 0
M  V30 4773 H 448.532 1.92885 5.39878 0
M  V30 4774 H 446.929 2.71853 5.34991 0
M  V30 4775 H 447.999 2.82589 3.94045 0
M  V30 4776 N 449.342 -1.36122 0.79427 0
M  V30 4777 C 450.758 -1.5232 0.476525 0
M  V30 4778 C 450.958 -1.74685 -1.00436 0
M  V30 4779 O 450.014 -1.78115 -1.78973 0
M  V30 4780 C 451.327 -2.70607 1.31119 0
M  V30 4781 C 452.875 -2.8448 1.30537 0
M  V30 4782 C 453.35 -4.05778 2.12387 0
M  V30 4783 N 454.841 -4.12933 2.09859 0
M  V30 4784 C 455.576 -5.05876 2.69957 0
M  V30 4785 N 455.072 -6.04232 3.38934 0
M  V30 4786 N 456.865 -4.98528 2.59665 0
M  V30 4787 H 449.016 -1.1986 1.75349 0
M  V30 4788 H 451.279 -0.585418 0.745647 0
M  V30 4789 H 450.985 -2.60619 2.36158 0
M  V30 4790 H 450.859 -3.64888 0.955843 0
M  V30 4791 H 453.246 -2.93927 0.262876 0
M  V30 4792 H 453.327 -1.91093 1.70051 0
M  V30 4793 H 452.971 -3.97092 3.1667 0
M  V30 4794 H 452.901 -4.98323 1.70242 0
M  V30 4795 H 455.392 -3.42515 1.59662 0
M  V30 4796 H 455.705 -6.71724 3.82109 0
M  V30 4797 H 454.05 -6.04443 3.43036 0
M  V30 4798 H 457.241 -4.20641 2.05375 0
M  V30 4799 H 457.414 -5.70773 3.06793 0
M  V30 4800 N 450.82 -0.546701 -1.47814 0
M  V30 4801 C 452.045 -0.021268 -2.07389 0
M  V30 4802 C 452.47 1.25822 -1.39822 0
M  V30 4803 O 451.828 1.75111 -0.46968 0
M  V30 4804 C 451.876 0.168502 -3.60206 0
M  V30 4805 O 450.98 1.23347 -3.93522 0
M  V30 4806 H 450.321 -0.0466108 -0.662362 0
M  V30 4807 H 452.851 -0.759387 -1.89985 0
M  V30 4808 H 452.861 0.385982 -4.0617 0
M  V30 4809 H 451.536 -0.766075 -4.08784 0
M  V30 4810 H 450.113 0.997319 -3.59316 0
M  V30 4811 N 452.299 1.55045 -0.282633 0
M  V30 4812 C 453.262 2.21515 0.588539 0
M  V30 4813 C 454.262 1.19535 1.07554 0
M  V30 4814 O 455.452 1.44391 0.974514 0
M  V30 4815 C 452.584 2.88704 1.8128 0
M  V30 4816 H 453.777 2.99899 0.00806397 0
M  V30 4817 H 451.33 1.56265 -0.0333067 0
M  V30 4818 H 452.065 2.14352 2.43359 0
M  V30 4819 H 451.85 3.63443 1.47144 0
M  V30 4820 H 453.34 3.39465 2.43214 0
M  V30 4821 N 453.777 0.010035 1.57597 0
M  V30 4822 C 455.005 -0.683413 1.95287 0
M  V30 4823 C 455.42 -1.66747 0.885481 0
M  V30 4824 O 454.777 -1.82003 -0.134629 0
M  V30 4825 C 454.828 -1.40652 3.33015 0
M  V30 4826 O 454.549 -0.461916 4.35658 0
M  V30 4827 C 456.05 -2.19356 3.85225 0
M  V30 4828 H 453.27 -0.189708 0.643624 0
M  V30 4829 H 455.814 0.0641359 2.04399 0
M  V30 4830 H 453.969 -2.10562 3.2518 0
M  V30 4831 H 454.383 -0.973215 5.15392 0
M  V30 4832 H 455.857 -2.65433 4.83993 0
M  V30 4833 H 456.334 -3.02457 3.18459 0
M  V30 4834 H 456.94 -1.54442 3.96267 0
M  V30 4835 N 455.255 -1.55392 -0.262866 0
M  V30 4836 C 456.501 -1.76737 -0.99458 0
M  V30 4837 C 456.834 -0.572453 -1.85571 0
M  V30 4838 O 456.109 0.429732 -1.89693 0
M  V30 4839 C 456.392 -3.07824 -1.8686 0
M  V30 4840 C 456.245 -4.3769 -1.03672 0
M  V30 4841 C 457.564 -3.35021 -2.85393 0
M  V30 4842 H 454.683 -0.643005 -0.360157 0
M  V30 4843 H 457.325 -1.88126 -0.266216 0
M  V30 4844 H 455.475 -2.98245 -2.48962 0
M  V30 4845 H 457.147 -4.59238 -0.43563 0
M  V30 4846 H 455.39 -4.32461 -0.340513 0
M  V30 4847 H 456.061 -5.25759 -1.6817 0
M  V30 4848 H 458.537 -3.44458 -2.33426 0
M  V30 4849 H 457.413 -4.27989 -3.43681 0
M  V30 4850 H 457.674 -2.55153 -3.61039 0
M  V30 4851 N 456.733 0.527833 -1.48498 0
M  V30 4852 C 458.149 0.856571 -1.34666 0
M  V30 4853 C 458.349 1.98271 -0.35931 0
M  V30 4854 O 457.405 2.51551 0.218703 0
M  V30 4855 C 458.718 1.22207 -2.74747 0
M  V30 4856 C 460.266 1.33183 -2.83251 0
M  V30 4857 C 460.741 1.73075 -4.24039 0
M  V30 4858 N 462.232 1.80174 -4.26722 0
M  V30 4859 C 462.967 2.1243 -5.32598 0
M  V30 4860 N 462.463 2.43096 -6.4875 0
M  V30 4861 N 464.256 2.13454 -5.19994 0
M  V30 4862 H 456.407 -0.215174 -2.11307 0
M  V30 4863 H 458.67 -0.0336281 -0.947403 0
M  V30 4864 H 458.376 0.468195 -3.4857 0
M  V30 4865 H 458.25 2.17173 -3.08409 0
M  V30 4866 H 460.637 2.07647 -2.09683 0
M  V30 4867 H 460.718 0.363333 -2.53206 0
M  V30 4868 H 460.362 0.991712 -4.98124 0
M  V30 4869 H 460.292 2.70979 -4.51529 0
M  V30 4870 H 462.783 1.58744 -3.42942 0
M  V30 4871 H 463.096 2.6682 -7.25277 0
M  V30 4872 H 461.441 2.40611 -6.52021 0
M  V30 4873 H 464.632 1.88956 -4.28268 0
M  V30 4874 H 464.805 2.38261 -6.02608 0
M  V30 4875 N 458.211 1.37122 0.776871 0
M  V30 4876 C 459.158 1.3247 1.88998 0
M  V30 4877 C 460.128 0.191143 1.64997 0
M  V30 4878 O 461.313 0.379683 1.86984 0
M  V30 4879 C 458.453 1.13241 3.25992 0
M  V30 4880 C 457.566 2.35782 3.61982 0
M  V30 4881 C 456.701 2.09465 4.88158 0
M  V30 4882 C 455.74 3.279 5.16864 0
M  V30 4883 N 454.877 3.01167 6.34226 0
M  V30 4884 H 459.717 2.27642 1.9231 0
M  V30 4885 H 457.254 1.13125 0.94027 0
M  V30 4886 H 459.212 1.00115 4.0501 0
M  V30 4887 H 457.842 0.217186 3.22069 0
M  V30 4888 H 456.894 2.59666 2.77989 0
M  V30 4889 H 458.206 3.24125 3.79137 0
M  V30 4890 H 457.36 1.93341 5.75069 0
M  V30 4891 H 456.099 1.18452 4.73097 0
M  V30 4892 H 455.104 3.44569 4.2843 0
M  V30 4893 H 456.329 4.19757 5.33836 0
M  V30 4894 H 454.275 2.12779 6.20533 0
M  V30 4895 H 454.192 3.83052 6.51772 0
M  V30 4896 H 455.46 2.88649 7.24087 0
M  V30 4897 N 459.689 -1.00246 1.21608 0
M  V30 4898 C 460.936 -1.74061 1.03485 0
M  V30 4899 C 461.264 -1.89658 -0.431308 0
M  V30 4900 O 460.519 -1.42976 -1.33627 0
M  V30 4901 C 460.818 -3.15448 1.68009 0
M  V30 4902 C 460.484 -3.19792 3.17874 0
M  V30 4903 C 459.146 -3.20685 3.58768 0
M  V30 4904 C 461.498 -3.16835 4.13842 0
M  V30 4905 C 458.826 -3.16309 4.94131 0
M  V30 4906 C 461.178 -3.14001 5.49169 0
M  V30 4907 C 459.842 -3.13204 5.89457 0
M  V30 4908 H 459.112 -0.636934 0.378677 0
M  V30 4909 H 461.759 -1.17473 1.51236 0
M  V30 4910 H 460.064 -3.75284 1.12557 0
M  V30 4911 H 461.761 -3.71285 1.51487 0
M  V30 4912 H 458.351 -3.19842 2.85305 0
M  V30 4913 H 462.535 -3.15303 3.83272 0
M  V30 4914 H 457.791 -3.14032 5.24589 0
M  V30 4915 H 461.965 -3.10667 6.23265 0
M  V30 4916 H 459.592 -3.09568 6.94314 0
M  V30 4917 N 461.167 -1.02423 -1.1978 0
M  V30 4918 C 462.1 -0.545641 -2.21581 0
M  V30 4919 C 463.078 0.411024 -1.57319 0
M  V30 4920 O 464.262 0.329223 -1.85603 0
M  V30 4921 C 461.389 0.204973 -3.38079 0
M  V30 4922 C 460.435 -0.70241 -4.20676 0
M  V30 4923 S 461.268 -2.17595 -4.89298 0
M  V30 4924 C 462.424 -1.43572 -6.09211 0
M  V30 4925 H 462.657 -1.4082 -2.61834 0
M  V30 4926 H 460.19 -0.833771 -1.29952 0
M  V30 4927 H 462.148 0.631924 -4.05607 0
M  V30 4928 H 460.809 1.0432 -2.9627 0
M  V30 4929 H 460.002 -0.123193 -5.03849 0
M  V30 4930 H 459.604 -1.06747 -3.58442 0
M  V30 4931 H 461.896 -0.719806 -6.73665 0
M  V30 4932 H 462.839 -2.24388 -6.71607 0
M  V30 4933 H 463.247 -0.935252 -5.56699 0
M  V30 4934 N 462.645 1.35699 -0.801477 0
M  V30 4935 C 463.891 1.99208 -0.380022 0
M  V30 4936 C 464.224 1.63445 1.04878 0
M  V30 4937 O 463.499 0.895223 1.72673 0
M  V30 4938 C 463.782 3.55755 -0.557708 0
M  V30 4939 C 463.635 4.01332 -2.03107 0
M  V30 4940 C 464.954 4.40096 0.0197968 0
M  V30 4941 H 462.073 0.723667 -0.139552 0
M  V30 4942 H 464.715 1.60928 -1.01006 0
M  V30 4943 H 462.865 3.88494 -0.0213741 0
M  V30 4944 H 464.537 3.79026 -2.62939 0
M  V30 4945 H 462.78 3.52429 -2.52936 0
M  V30 4946 H 463.451 5.10234 -2.1063 0
M  V30 4947 H 465.927 4.13786 -0.438179 0
M  V30 4948 H 464.803 5.48735 -0.134477 0
M  V30 4949 H 465.064 4.2786 1.11303 0
M  V30 4950 N 464.123 0.554532 1.47522 0
M  V30 4951 C 465.371 0.0294208 2.02079 0
M  V30 4952 C 465.692 -1.32411 1.43151 0
M  V30 4953 O 464.962 -1.863 0.605728 0
M  V30 4954 H 463.542 0.00788672 0.746958 0
M  V30 4955 H 466.204 0.723934 1.80956 0
M  V30 4956 H 465.3 -0.0606745 3.12041 0
M  V30 4957 N 465.601 -1.54893 0.290851 0
M  V30 4958 C 466.831 -2.04047 -0.323818 0
M  V30 4959 C 467.239 -1.16809 -1.48837 0
M  V30 4960 O 466.582 -0.184145 -1.82775 0
M  V30 4961 C 466.644 -3.49248 -0.852395 0
M  V30 4962 C 466.308 -4.56623 0.185557 0
M  V30 4963 C 467.305 -5.09985 1.01053 0
M  V30 4964 C 464.99 -5.01252 0.324332 0
M  V30 4965 C 466.984 -6.06507 1.96031 0
M  V30 4966 C 464.671 -5.97596 1.27757 0
M  V30 4967 C 465.669 -6.50107 2.09405 0
M  V30 4968 O 465.357 -7.44565 3.03114 0
M  V30 4969 H 465.089 -0.671735 -0.0758129 0
M  V30 4970 H 467.643 -2.00947 0.425393 0
M  V30 4971 H 465.873 -3.49639 -1.65195 0
M  V30 4972 H 467.562 -3.81654 -1.38185 0
M  V30 4973 H 468.328 -4.76307 0.914129 0
M  V30 4974 H 464.207 -4.60015 -0.301213 0
M  V30 4975 H 467.751 -6.47418 2.598 0
M  V30 4976 H 463.648 -6.30691 1.37473 0
M  V30 4977 H 464.416 -7.62334 2.97976 0
M  V30 4978 N 467.08 -0.0183926 -1.57589 0
M  V30 4979 C 467.99 0.982943 -2.13015 0
M  V30 4980 C 469.006 1.36443 -1.07979 0
M  V30 4981 O 470.182 1.44802 -1.3998 0
M  V30 4982 C 467.247 2.25024 -2.63752 0
M  V30 4983 C 466.308 1.93018 -3.83461 0
M  V30 4984 C 465.541 3.13706 -4.31769 0
M  V30 4985 O 465.764 4.2601 -3.79305 0
M  V30 4986 O 464.698 2.96629 -5.23732 0
M  V30 4987 H 468.524 0.541709 -2.9883 0
M  V30 4988 H 466.109 0.201565 -1.48034 0
M  V30 4989 H 467.991 2.99441 -2.96502 0
M  V30 4990 H 466.666 2.68349 -1.81026 0
M  V30 4991 H 465.573 1.16019 -3.55655 0
M  V30 4992 H 466.906 1.54516 -4.67317 0
M  V30 4993 N 468.558 1.5553 0.254621 0
M  V30 4994 C 469.491 1.84624 1.34124 0
M  V30 4995 C 470.469 0.700693 1.46728 0
M  V30 4996 O 471.653 0.94564 1.63064 0
M  V30 4997 C 468.78 2.02412 2.71564 0
M  V30 4998 C 467.826 3.25028 2.7615 0
M  V30 4999 S 468.659 4.81893 2.33538 0
M  V30 5000 C 469.815 5.02677 3.72917 0
M  V30 5001 H 470.048 2.76501 1.09245 0
M  V30 5002 H 467.581 1.47537 0.455211 0
M  V30 5003 H 469.539 2.13345 3.50705 0
M  V30 5004 H 468.2 1.11391 2.93685 0
M  V30 5005 H 467.393 3.34418 3.77069 0
M  V30 5006 H 466.995 3.12781 2.05046 0
M  V30 5007 H 469.287 4.89546 4.68349 0
M  V30 5008 H 470.23 6.0468 3.68467 0
M  V30 5009 H 470.638 4.30561 3.65072 0
M  V30 5010 N 470.036 -0.519951 1.48776 0
M  V30 5011 C 470.966 -1.63253 1.66945 0
M  V30 5012 C 471.947 -1.62014 0.518224 0
M  V30 5013 O 473.132 -1.79053 0.751919 0
M  V30 5014 C 470.262 -3.0181 1.71836 0
M  V30 5015 C 469.216 -3.17911 2.8656 0
M  V30 5016 C 468.542 -4.5763 2.76548 0
M  V30 5017 C 469.842 -2.99729 4.27738 0
M  V30 5018 H 471.536 -1.48302 2.6009 0
M  V30 5019 H 469.082 -0.712026 1.25165 0
M  V30 5020 H 471.035 -3.79525 1.83135 0
M  V30 5021 H 469.759 -3.17806 0.752775 0
M  V30 5022 H 468.418 -2.42616 2.74833 0
M  V30 5023 H 468.066 -4.70476 1.77937 0
M  V30 5024 H 467.766 -4.69346 3.53536 0
M  V30 5025 H 469.29 -5.37431 2.89828 0
M  V30 5026 H 470.704 -3.67228 4.40246 0
M  V30 5027 H 469.101 -3.22932 5.05801 0
M  V30 5028 H 470.171 -1.96047 4.43502 0
M  V30 5029 N 471.514 -1.37532 -0.769588 0
M  V30 5030 C 472.477 -1.33292 -1.86456 0
M  V30 5031 C 473.477 -0.236537 -1.59051 0
M  V30 5032 O 474.667 -0.492511 -1.67093 0
M  V30 5033 C 471.799 -1.07118 -3.23633 0
M  V30 5034 H 472.992 -2.30692 -1.91628 0
M  V30 5035 H 470.545 -1.22593 -0.969572 0
M  V30 5036 H 471.28 -0.102578 -3.24138 0
M  V30 5037 H 471.065 -1.86479 -3.44917 0
M  V30 5038 H 472.555 -1.06806 -4.03711 0
M  V30 5039 N 472.992 0.995999 -1.22138 0
M  V30 5040 C 473.902 2.11985 -1.00496 0
M  V30 5041 C 474.918 1.7394 0.0457701 0
M  V30 5042 O 476.094 2.00868 -0.146273 0
M  V30 5043 C 473.159 3.41779 -0.582086 0
M  V30 5044 C 472.22 3.93943 -1.70608 0
M  V30 5045 C 471.453 5.17542 -1.30328 0
M  V30 5046 O 471.676 5.70114 -0.180743 0
M  V30 5047 O 470.61 5.63382 -2.11861 0
M  V30 5048 H 474.436 2.33123 -1.94647 0
M  V30 5049 H 472.021 1.10358 -1.00705 0
M  V30 5050 H 473.903 4.1989 -0.356467 0
M  V30 5051 H 472.578 3.22007 0.330592 0
M  V30 5052 H 471.485 3.17019 -1.98619 0
M  V30 5053 H 472.818 4.18141 -2.59651 0
M  V30 5054 N 474.47 1.03057 1.19235 0
M  V30 5055 C 475.698 0.747697 1.92917 0
M  V30 5056 C 476.113 -0.69372 1.75593 0
M  V30 5057 O 475.47 -1.47191 1.07894 0
M  V30 5058 C 475.521 1.09159 3.44625 0
M  V30 5059 O 475.242 2.47641 3.61394 0
M  V30 5060 C 476.743 0.831763 4.35427 0
M  V30 5061 H 473.963 0.273453 0.612751 0
M  V30 5062 H 476.507 1.37552 1.51327 0
M  V30 5063 H 474.662 0.508919 3.84043 0
M  V30 5064 H 475.076 2.60499 4.55237 0
M  V30 5065 H 476.55 1.12233 5.4047 0
M  V30 5066 H 477.027 -0.233769 4.38577 0
M  V30 5067 H 477.633 1.39725 4.01693 0
M  V30 5068 N 475.948 -1.35272 0.808662 0
M  V30 5069 C 476.88 -2.28507 0.178149 0
M  V30 5070 C 477.893 -1.50377 -0.623754 0
M  V30 5071 O 479.082 -1.72583 -0.455774 0
M  V30 5072 C 476.182 -3.30038 -0.769959 0
M  V30 5073 C 475.355 -4.37398 -0.0139749 0
M  V30 5074 C 474.414 -5.18775 -0.880875 0
M  V30 5075 O 473.44 -5.68236 -0.331059 0
M  V30 5076 N 474.642 -5.37087 -2.20267 0
M  V30 5077 H 477.407 -2.83255 0.979106 0
M  V30 5078 H 474.968 -1.47643 0.664308 0
M  V30 5079 H 476.96 -3.81371 -1.35418 0
M  V30 5080 H 475.53 -2.75789 -1.47171 0
M  V30 5081 H 474.75 -3.86971 0.751468 0
M  V30 5082 H 476.038 -5.06268 0.506965 0
M  V30 5083 H 475.436 -4.9855 -2.67328 0
M  V30 5084 H 473.993 -5.91593 -2.73608 0
M  V30 5085 N 477.426 -0.562348 -1.47226 0
M  V30 5086 C 478.842 -0.222492 -1.58042 0
M  V30 5087 C 479.042 1.27505 -1.56028 0
M  V30 5088 O 478.098 2.05555 -1.46641 0
M  V30 5089 C 479.411 -0.853694 -2.88327 0
M  V30 5090 C 480.959 -0.825397 -3.01921 0
M  V30 5091 C 481.434 -1.43576 -4.34914 0
M  V30 5092 N 482.925 -1.39918 -4.41562 0
M  V30 5093 C 483.66 -1.84103 -5.43041 0
M  V30 5094 N 483.156 -2.36167 -6.51304 0
M  V30 5095 N 484.949 -1.75142 -5.34118 0
M  V30 5096 H 477.1 -1.53525 -1.46778 0
M  V30 5097 H 479.363 -0.640527 -0.698877 0
M  V30 5098 H 479.069 -1.90635 -2.95552 0
M  V30 5099 H 478.943 -0.34977 -3.75575 0
M  V30 5100 H 481.33 0.218583 -2.94289 0
M  V30 5101 H 481.411 -1.36713 -2.16202 0
M  V30 5102 H 481.055 -2.47884 -4.43301 0
M  V30 5103 H 480.985 -0.869427 -5.19373 0
M  V30 5104 H 483.476 -1.0184 -3.63919 0
M  V30 5105 H 483.789 -2.67793 -7.24919 0
M  V30 5106 H 482.134 -2.40181 -6.52179 0
M  V30 5107 H 485.325 -1.34241 -4.48439 0
M  V30 5108 H 485.498 -2.09895 -6.13065 0
M  V30 5109 N 478.904 1.54736 -0.299062 0
M  V30 5110 C 480.181 1.92187 0.363802 0
M  V30 5111 C 480.561 1.22607 1.71845 0
M  V30 5112 O 479.909 0.361141 2.25628 0
M  V30 5113 C 480.119 3.45678 0.480377 0
M  V30 5114 C 481.467 4.17885 0.752147 0
M  V30 5115 O 482.491 3.51702 0.564264 0
M  V30 5116 O 481.35 5.35048 1.11294 0
M  V30 5117 H 478.444 0.801681 0.203066 0
M  V30 5118 H 480.99 1.66115 -0.346978 0
M  V30 5119 H 479.762 3.88443 -0.471999 0
M  V30 5120 H 479.385 3.77779 1.2397 0
M  V30 5121 N 480.382 0.0267497 1.57577 0
M  V30 5122 C 481.312 -0.954308 2.13108 0
M  V30 5123 C 482.293 -1.34088 1.04663 0
M  V30 5124 O 483.478 -1.41992 1.32484 0
M  V30 5125 C 480.608 -2.23744 2.65624 0
M  V30 5126 C 479.562 -1.99168 3.78835 0
M  V30 5127 C 478.888 -3.33726 4.17769 0
M  V30 5128 C 480.188 -1.33277 5.0501 0
M  V30 5129 H 481.882 -0.491848 2.95332 0
M  V30 5130 H 479.428 -0.23514 1.42067 0
M  V30 5131 H 481.381 -2.92754 3.03106 0
M  V30 5132 H 480.105 -2.72151 1.80558 0
M  V30 5133 H 478.764 -1.32577 3.41788 0
M  V30 5134 H 478.412 -3.79888 3.29688 0
M  V30 5135 H 478.112 -3.18089 4.94058 0
M  V30 5136 H 479.636 -4.04008 4.57832 0
M  V30 5137 H 481.05 -1.92283 5.40093 0
M  V30 5138 H 479.447 -1.28045 5.8628 0
M  V30 5139 H 480.517 -0.305411 4.83937 0
M  V30 5140 N 481.861 -1.55662 -0.24637 0
M  V30 5141 C 483.089 -1.81575 -0.991876 0
M  V30 5142 C 483.504 -0.602545 -1.78927 0
M  V30 5143 O 482.861 0.428795 -1.77391 0
M  V30 5144 C 482.912 -3.05711 -1.92933 0
M  V30 5145 O 482.633 -4.22348 -1.1642 0
M  V30 5146 C 484.134 -3.44428 -2.79078 0
M  V30 5147 H 481.354 -0.604209 -0.291844 0
M  V30 5148 H 483.898 -2.02722 -0.269095 0
M  V30 5149 H 482.053 -2.86612 -2.60638 0
M  V30 5150 H 482.467 -4.92706 -1.79835 0
M  V30 5151 H 483.941 -4.34388 -3.40603 0
M  V30 5152 H 484.418 -2.65037 -3.50217 0
M  V30 5153 H 485.024 -3.65879 -2.16824 0
M  V30 5154 N 483.339 0.512053 -1.4905 0
M  V30 5155 C 484.302 1.59704 -1.64399 0
M  V30 5156 C 485.302 1.52285 -0.516317 0
M  V30 5157 O 486.492 1.55635 -0.782527 0
M  V30 5158 C 483.624 2.9935 -1.63102 0
M  V30 5159 H 484.817 1.47428 -2.61161 0
M  V30 5160 H 482.37 0.735469 -1.37915 0
M  V30 5161 H 483.105 3.17116 -0.678836 0
M  V30 5162 H 482.89 3.06144 -2.44986 0
M  V30 5163 H 484.38 3.782 -1.77072 0
M  V30 5164 N 484.817 1.37938 0.762283 0
M  V30 5165 C 485.727 1.36681 1.90671 0
M  V30 5166 C 486.743 0.265078 1.71969 0
M  V30 5167 O 487.919 0.502055 1.95042 0
M  V30 5168 C 484.984 1.18211 3.25925 0
M  V30 5169 C 484.045 2.3811 3.57214 0
M  V30 5170 C 483.278 2.20512 4.86014 0
M  V30 5171 O 483.501 1.19429 5.57757 0
M  V30 5172 O 482.435 3.08911 5.16583 0
M  V30 5173 H 486.261 2.33091 1.94685 0
M  V30 5174 H 483.846 1.18767 0.906356 0
M  V30 5175 H 485.728 1.09937 4.06807 0
M  V30 5176 H 484.403 0.248807 3.22742 0
M  V30 5177 H 483.31 2.51958 2.76529 0
M  V30 5178 H 484.643 3.30041 3.65149 0
M  V30 5179 N 486.295 -0.989507 1.22664 0
M  V30 5180 C 487.227 -2.0824 0.957542 0
M  V30 5181 C 488.24 -1.6267 -0.0651098 0
M  V30 5182 O 489.429 -1.77695 0.169312 0
M  V30 5183 C 486.529 -3.36298 0.419145 0
M  V30 5184 C 485.702 -4.10882 1.49982 0
M  V30 5185 C 484.761 -5.17221 0.967904 0
M  V30 5186 O 483.787 -5.44613 1.65487 0
M  V30 5187 N 484.989 -5.80124 -0.20896 0
M  V30 5188 H 487.754 -2.31904 1.89843 0
M  V30 5189 H 485.315 -1.15552 1.13399 0
M  V30 5190 H 487.307 -4.04671 0.0485451 0
M  V30 5191 H 485.877 -3.09671 -0.426937 0
M  V30 5192 H 485.097 -3.37092 2.04359 0
M  V30 5193 H 486.385 -4.57482 2.22682 0
M  V30 5194 H 485.783 -5.60244 -0.783818 0
M  V30 5195 H 484.34 -6.49715 -0.520913 0
M  V30 5196 N 487.773 -1.03688 -1.18687 0
M  V30 5197 C 488.736 -0.629115 -2.20397 0
M  V30 5198 C 489.736 0.311495 -1.57754 0
M  V30 5199 O 490.926 0.0974107 -1.73927 0
M  V30 5200 C 488.058 0.0782231 -3.4081 0
M  V30 5201 H 489.251 -1.52915 -2.57987 0
M  V30 5202 H 486.804 -0.828988 -1.32505 0
M  V30 5203 H 487.539 0.992233 -3.08748 0
M  V30 5204 H 487.324 -0.597776 -3.87517 0
M  V30 5205 H 488.814 0.350156 -4.16129 0
M  V30 5206 N 489.251 1.34841 -0.815825 0
M  V30 5207 C 490.214 2.27959 -0.238185 0
M  V30 5208 C 491.214 1.49983 0.579816 0
M  V30 5209 O 492.404 1.69617 0.396953 0
M  V30 5210 C 489.536 3.34314 0.666876 0
M  V30 5211 H 490.729 2.80558 -1.05958 0
M  V30 5212 H 488.282 1.44852 -0.587156 0
M  V30 5213 H 489.017 2.86916 1.5116 0
M  V30 5214 H 488.802 3.92014 0.0819106 0
M  V30 5215 H 490.292 4.0379 1.06506 0
M  V30 5216 N 490.729 0.570148 1.46925 0
M  V30 5217 C 491.639 -0.173061 2.33961 0
M  V30 5218 C 492.655 -0.898825 1.48987 0
M  V30 5219 O 493.831 -0.864825 1.81887 0
M  V30 5220 C 490.896 -1.18177 3.25937 0
M  V30 5221 C 489.957 -0.462041 4.26806 0
M  V30 5222 C 489.19 -1.4227 5.14388 0
M  V30 5223 O 489.413 -2.65842 5.04662 0
M  V30 5224 O 488.347 -0.940127 5.94513 0
M  V30 5225 H 492.173 0.541216 2.98839 0
M  V30 5226 H 489.758 0.330647 1.45695 0
M  V30 5227 H 491.64 -1.76372 3.82715 0
M  V30 5228 H 490.315 -1.87774 2.63671 0
M  V30 5229 H 489.222 0.161429 3.73752 0
M  V30 5230 H 490.555 0.192719 4.91823 0
M  V30 5231 N 492.207 -1.54576 0.307264 0
M  V30 5232 C 493.623 -1.59534 -0.0459251 0
M  V30 5233 C 493.823 -1.32414 -1.51884 0
M  V30 5234 O 492.879 -1.1006 -2.27251 0
M  V30 5235 C 494.192 -2.98566 0.357649 0
M  V30 5236 C 495.74 -3.11491 0.306937 0
M  V30 5237 C 496.215 -4.52842 0.685427 0
M  V30 5238 N 497.706 -4.58782 0.638203 0
M  V30 5239 C 498.441 -5.66238 0.903458 0
M  V30 5240 N 497.937 -6.81703 1.23501 0
M  V30 5241 N 499.73 -5.55937 0.830102 0
M  V30 5242 H 491.881 -1.70464 1.26712 0
M  V30 5243 H 494.144 -0.79647 0.514139 0
M  V30 5244 H 493.85 -3.23356 1.38325 0
M  V30 5245 H 493.724 -3.76117 -0.285565 0
M  V30 5246 H 496.111 -2.86446 -0.709424 0
M  V30 5247 H 496.192 -2.36081 0.984861 0
M  V30 5248 H 495.836 -4.78618 1.69963 0
M  V30 5249 H 495.766 -5.26598 -0.0146346 0
M  V30 5250 H 498.257 -3.75849 0.393138 0
M  V30 5251 H 498.57 -7.59582 1.42322 0
M  V30 5252 H 496.915 -6.8324 1.27311 0
M  V30 5253 H 500.106 -4.64608 0.570693 0
M  V30 5254 H 500.279 -6.39597 1.04019 0
M  V30 5255 N 493.685 -0.035106 -1.57561 0
M  V30 5256 C 494.615 0.942993 -2.13612 0
M  V30 5257 C 495.596 1.33531 -1.05373 0
M  V30 5258 O 496.781 1.41287 -1.33235 0
M  V30 5259 C 493.911 2.22332 -2.66807 0
M  V30 5260 C 492.865 1.97156 -3.79886 0
M  V30 5261 C 492.191 3.31506 -4.19533 0
M  V30 5262 C 493.491 1.30596 -5.05709 0
M  V30 5263 H 495.185 0.476179 -2.95589 0
M  V30 5264 H 492.731 0.227602 -1.4219 0
M  V30 5265 H 494.684 2.91142 -3.04654 0
M  V30 5266 H 493.408 2.7119 -1.81999 0
M  V30 5267 H 492.067 1.30763 -3.42486 0
M  V30 5268 H 491.715 3.78134 -3.31698 0
M  V30 5269 H 491.415 3.15465 -4.95738 0
M  V30 5270 H 492.939 4.01574 -4.59968 0
M  V30 5271 H 494.353 1.89416 -5.41105 0
M  V30 5272 H 492.75 1.24934 -5.86951 0
M  V30 5273 H 493.82 0.279742 -4.84092 0
M  V30 5274 N 495.163 1.55791 0.238111 0
M  V30 5275 C 496.579 1.48411 0.587045 0
M  V30 5276 C 496.779 0.72702 1.87927 0
M  V30 5277 O 495.835 0.259942 2.51158 0
M  V30 5278 C 497.148 2.92873 0.681623 0
M  V30 5279 C 498.696 3.03295 0.773363 0
M  V30 5280 C 499.171 4.49082 0.899428 0
M  V30 5281 N 500.662 4.53056 0.964075 0
M  V30 5282 C 501.397 5.63117 1.08104 0
M  V30 5283 N 500.893 6.82969 1.16299 0
M  V30 5284 N 502.686 5.50933 1.11488 0
M  V30 5285 H 494.837 2.0345 -0.610076 0
M  V30 5286 H 497.1 0.924034 -0.211813 0
M  V30 5287 H 496.806 3.51142 -0.19802 0
M  V30 5288 H 496.68 3.43851 1.55069 0
M  V30 5289 H 499.067 2.45101 1.64346 0
M  V30 5290 H 499.148 2.55513 -0.121034 0
M  V30 5291 H 498.792 5.07889 0.0338586 0
M  V30 5292 H 498.722 4.94553 1.809 0
M  V30 5293 H 501.213 3.66737 0.91173 0
M  V30 5294 H 501.526 7.62598 1.25155 0
M  V30 5295 H 499.871 6.85712 1.13241 0
M  V30 5296 H 503.062 4.56231 1.0474 0
M  V30 5297 H 503.235 6.36743 1.20259 0
M  V30 5298 N 496.642 -0.504142 1.49319 0
M  V30 5299 C 497.605 -1.5883 1.65244 0
M  V30 5300 C 498.605 -1.52009 0.524386 0
M  V30 5301 O 499.795 -1.55218 0.79077 0
M  V30 5302 C 496.927 -2.98481 1.64687 0
M  V30 5303 H 498.12 -1.4604 2.61939 0
M  V30 5304 H 495.673 -0.728144 1.38303 0
M  V30 5305 H 496.408 -3.16751 0.695644 0
M  V30 5306 H 496.193 -3.0484 2.46607 0
M  V30 5307 H 497.683 -3.77256 1.79075 0
M  V30 5308 N 498.12 -1.38341 -0.754957 0
M  V30 5309 C 499.366 -1.34672 -1.51628 0
M  V30 5310 C 499.699 0.0636036 -1.94096 0
M  V30 5311 O 498.974 1.0245 -1.6533 0
M  V30 5312 C 499.257 -2.30116 -2.76981 0
M  V30 5313 C 499.11 -3.80003 -2.4066 0
M  V30 5314 C 500.429 -2.23715 -3.78998 0
M  V30 5315 H 497.548 -0.490517 -0.550056 0
M  V30 5316 H 500.19 -1.69178 -0.864807 0
M  V30 5317 H 498.34 -2.00821 -3.3257 0
M  V30 5318 H 500.012 -4.19966 -1.90856 0
M  V30 5319 H 498.255 -3.97751 -1.73137 0
M  V30 5320 H 498.926 -4.42244 -3.30339 0
M  V30 5321 H 501.402 -2.49574 -3.32945 0
M  V30 5322 H 500.278 -2.9261 -4.64403 0
M  V30 5323 H 500.539 -1.23554 -4.24484 0
M  V30 5324 N 499.598 0.982988 -1.23187 0
M  V30 5325 C 500.823 1.76455 -1.08988 0
M  V30 5326 C 501.248 1.84726 0.354691 0
M  V30 5327 O 500.606 1.30699 1.25649 0
M  V30 5328 C 500.654 3.17094 -1.71708 0
M  V30 5329 O 499.758 4.00648 -0.977477 0
M  V30 5330 H 499.099 0.542988 -0.382177 0
M  V30 5331 H 501.629 1.23413 -1.63188 0
M  V30 5332 H 501.639 3.67684 -1.76841 0
M  V30 5333 H 500.314 3.10389 -2.76823 0
M  V30 5334 H 498.891 3.59161 -1.0029 0
M  V30 5335 N 501.076 1.04316 1.18135 0
M  V30 5336 C 502.353 0.662166 1.84051 0
M  V30 5337 C 502.733 -0.858169 1.9287 0
M  V30 5338 O 502.081 -1.76062 1.45652 0
M  V30 5339 C 502.291 1.3409 3.22212 0
M  V30 5340 C 503.639 1.4733 3.9822 0
M  V30 5341 O 504.663 1.29921 3.31661 0
M  V30 5342 O 503.522 1.75722 5.17479 0
M  V30 5343 H 500.616 0.232005 0.79379 0
M  V30 5344 H 503.162 1.1422 1.25506 0
M  V30 5345 H 501.934 2.37853 3.10711 0
M  V30 5346 H 501.557 0.849649 3.88416 0
M  V30 5347 N 502.554 -1.34406 0.822964 0
M  V30 5348 C 503.803 -1.97542 0.407458 0
M  V30 5349 C 504.116 -1.65973 -1.035 0
M  V30 5350 O 505.322 -2.22598 -1.55442 0
M  V30 5351 C 503.778 -3.53463 0.677623 0
M  V30 5352 C 503.386 -3.93925 2.1337 0
M  V30 5353 C 505.13 -4.23229 0.328284 0
M  V30 5354 C 503.037 -5.42759 2.34876 0
M  V30 5355 H 501.967 -0.739207 0.148623 0
M  V30 5356 H 504.618 -1.53248 1.00932 0
M  V30 5357 H 503 -3.96 0.00558965 0
M  V30 5358 H 504.174 -3.62494 2.8449 0
M  V30 5359 H 502.489 -3.37097 2.44448 0
M  V30 5360 H 505.086 -5.32659 0.466794 0
M  V30 5361 H 505.429 -4.09899 -0.727224 0
M  V30 5362 H 505.962 -3.86169 0.954896 0
M  V30 5363 H 502.701 -5.61075 3.38932 0
M  V30 5364 H 502.221 -5.75704 1.68299 0
M  V30 5365 H 503.9 -6.0944 2.17236 0
M  V30 5366 N 504.032 -0.577932 -1.46621 0
M  V30 5367 C 504.982 0.178869 -2.27297 0
M  V30 5368 C 505.966 0.866279 -1.35589 0
M  V30 5369 O 507.158 0.761163 -1.59798 0
M  V30 5370 C 504.287 1.19499 -3.2183 0
M  V30 5371 C 503.373 0.50994 -4.21023 0
M  V30 5372 N 503.764 -0.43177 -5.03954 0
M  V30 5373 C 502.062 0.761287 -4.39455 0
M  V30 5374 C 502.763 -0.831693 -5.75724 0
M  V30 5375 N 501.739 -0.181897 -5.43296 0
M  V30 5376 H 505.541 -0.544859 -2.88805 0
M  V30 5377 H 503.055 -0.399373 -1.57413 0
M  V30 5378 H 505.052 1.75131 -3.78332 0
M  V30 5379 H 503.712 1.91959 -2.61881 0
M  V30 5380 H 504.723 -0.807045 -5.11573 0
M  V30 5381 H 501.4 1.47282 -3.90659 0
M  V30 5382 H 502.79 -1.6067 -6.52407 0
M  V30 5383 N 505.51 1.54411 -0.315457 0
M  V30 5384 C 506.757 2.00419 0.289543 0
M  V30 5385 C 507.085 1.20373 1.52776 0
M  V30 5386 O 506.34 0.271769 1.93804 0
M  V30 5387 C 506.639 3.50936 0.676652 0
M  V30 5388 C 506.305 4.48532 -0.461472 0
M  V30 5389 C 504.967 4.74936 -0.773879 0
M  V30 5390 C 507.319 5.06567 -1.22637 0
M  V30 5391 C 504.647 5.56634 -1.85405 0
M  V30 5392 C 506.999 5.89441 -2.29657 0
M  V30 5393 C 505.663 6.1415 -2.61488 0
M  V30 5394 H 504.933 0.733386 0.105951 0
M  V30 5395 H 507.58 1.86434 -0.437554 0
M  V30 5396 H 505.885 3.62606 1.48405 0
M  V30 5397 H 507.582 3.83971 1.15618 0
M  V30 5398 H 504.172 4.28096 -0.207893 0
M  V30 5399 H 508.356 4.86157 -0.998271 0
M  V30 5400 H 503.612 5.74012 -2.10523 0
M  V30 5401 H 507.786 6.33432 -2.89374 0
M  V30 5402 H 505.413 6.77245 -3.45317 0
M  V30 5403 N 506.988 0.0434614 1.5754 0
M  V30 5404 C 508.404 -0.313039 1.565 0
M  V30 5405 C 508.604 -1.71954 1.05043 0
M  V30 5406 O 507.66 -2.425 0.703564 0
M  V30 5407 C 508.973 -0.148544 3.00333 0
M  V30 5408 C 510.521 -0.220231 3.12224 0
M  V30 5409 C 510.996 -0.0843565 4.57922 0
M  V30 5410 N 512.487 -0.140881 4.62986 0
M  V30 5411 C 513.222 -0.0597443 5.73369 0
M  V30 5412 N 512.718 0.0733004 6.92761 0
M  V30 5413 N 514.511 -0.11477 5.61983 0
M  V30 5414 H 506.662 0.96303 1.89313 0
M  V30 5415 H 508.925 0.373164 0.871466 0
M  V30 5416 H 508.631 0.820894 3.41986 0
M  V30 5417 H 508.505 -0.912798 3.65989 0
M  V30 5418 H 510.892 -1.18014 2.70475 0
M  V30 5419 H 510.973 0.574646 2.49262 0
M  V30 5420 H 510.617 0.872192 5.00355 0
M  V30 5421 H 510.547 -0.898281 5.18882 0
M  V30 5422 H 513.038 -0.243273 3.77116 0
M  V30 5423 H 513.351 0.128128 7.72694 0
M  V30 5424 H 511.696 0.10828 6.94916 0
M  V30 5425 H 514.887 -0.217212 4.67596 0
M  V30 5426 H 515.06 -0.0480779 6.47982 0
M  V30 5427 N 508.466 -1.55915 -0.229846 0
M  V30 5428 C 509.376 -1.94891 -1.30593 0
M  V30 5429 C 510.392 -0.851604 -1.51736 0
M  V30 5430 O 511.568 -1.15447 -1.65027 0
M  V30 5431 C 508.633 -2.25052 -2.63728 0
M  V30 5432 C 507.694 -3.48306 -2.5096 0
M  V30 5433 C 506.927 -3.77019 -3.77747 0
M  V30 5434 O 507.15 -3.07534 -4.80395 0
M  V30 5435 O 506.084 -4.70523 -3.75356 0
M  V30 5436 H 509.91 -2.86581 -1.00525 0
M  V30 5437 H 507.495 -1.43017 -0.432025 0
M  V30 5438 H 509.377 -2.45682 -3.42372 0
M  V30 5439 H 508.052 -1.36538 -2.93495 0
M  V30 5440 H 506.959 -3.32964 -1.70546 0
M  V30 5441 H 508.292 -4.37177 -2.26136 0
M  V30 5442 N 509.944 0.496216 -1.49584 0
M  V30 5443 C 511.169 1.27865 -1.63295 0
M  V30 5444 C 511.594 1.85592 -0.306156 0
M  V30 5445 O 510.952 1.66092 0.726851 0
M  V30 5446 C 511 2.38128 -2.7079 0
M  V30 5447 O 510.104 3.42108 -2.30296 0
M  V30 5448 H 509.445 0.377279 -0.546403 0
M  V30 5449 H 511.975 0.593497 -1.95803 0
M  V30 5450 H 511.985 2.8382 -2.93104 0
M  V30 5451 H 510.66 1.95479 -3.67098 0
M  V30 5452 H 509.237 3.02301 -2.18331 0
M  V30 5453 N 511.423 1.38739 0.74761 0
M  V30 5454 C 512.671 1.35007 1.50391 0
M  V30 5455 C 512.992 -0.0574274 1.94915 0
M  V30 5456 O 512.262 -1.00628 1.6808 0
M  V30 5457 H 510.842 0.496784 0.557866 0
M  V30 5458 H 513.504 1.73479 0.888319 0
M  V30 5459 H 512.6 2.00474 2.392 0
M  V30 5460 N 512.901 -0.976442 1.23707 0
M  V30 5461 C 514.147 -1.72081 1.07312 0
M  V30 5462 C 514.48 -1.90275 -0.388476 0
M  V30 5463 O 513.755 -1.4579 -1.28746 0
M  V30 5464 C 514.038 -3.11675 1.80363 0
M  V30 5465 C 513.891 -3.01027 3.3422 0
M  V30 5466 C 515.21 -4.1117 1.5693 0
M  V30 5467 H 512.329 -0.624583 0.391236 0
M  V30 5468 H 514.971 -1.13649 1.52263 0
M  V30 5469 H 513.121 -3.61559 1.42153 0
M  V30 5470 H 514.793 -2.58637 3.81975 0
M  V30 5471 H 513.036 -2.3744 3.63049 0
M  V30 5472 H 513.707 -3.9988 3.80525 0
M  V30 5473 H 516.183 -3.7011 1.90151 0
M  V30 5474 H 515.059 -5.06928 2.10513 0
M  V30 5475 H 515.32 -4.392 0.505548 0
M  V30 5476 O 514.418 -1.17461 -1.10838 0
M  V30 5477 H 515.109 -0.912283 -1.70872 0
M  V30 END ATOM
M  V30 BEGIN BOND
M  V30 END BOND
M  V30 END CTAB
M  END
$$$$
