drugbank_target|Q9UEE5 Serine/threonine-protein kinase 17A (DB12010)
 OpenBabel12092121193D

  0  0  0     0  0            999 V3000
M  V30 BEGIN CTAB
M  V30 COUNTS 6532 6593 0 0 0
M  V30 BEGIN ATOM
M  V30 1 H -0.908 1.98254 -0.117106 0
M  V30 2 N 0 1.576 0 0
M  V30 3 C 0.933 2.03868 1.02534 0
M  V30 4 C 1.911 0.928543 1.3348 0
M  V30 5 O 3.095 1.19667 1.45644 0
M  V30 6 C 0.222 2.43627 2.35294 0
M  V30 7 C -0.732 3.65373 2.2001 0
M  V30 8 S 0.101 5.13292 1.52614 0
M  V30 9 C 1.257 5.56322 2.86805 0
M  V30 10 H 1.49 2.90518 0.631377 0
M  V30 11 H -0.977 1.52953 0.210867 0
M  V30 12 H 0.981 2.67203 3.11629 0
M  V30 13 H -0.358 1.57376 2.7183 0
M  V30 14 H -1.165 3.90944 3.18086 0
M  V30 15 H -1.563 3.418 1.51819 0
M  V30 16 H 0.729 5.58782 3.83104 0
M  V30 17 H 1.672 6.56266 2.65933 0
M  V30 18 H 2.08 4.83886 2.90714 0
M  V30 19 N 1.4781 -0.272755 1.55222 0
M  V30 20 C 2.7271 -1.00211 1.75045 0
M  V30 21 C 3.0401 -1.87441 0.559046 0
M  V30 22 O 4.2461 -2.63856 0.639698 0
M  V30 23 C 2.7021 -1.83165 3.09804 0
M  V30 24 C 2.3101 -1.008 4.36513 0
M  V30 25 C 4.0541 -2.55529 3.38977 0
M  V30 26 C 1.9611 -1.83194 5.62311 0
M  V30 27 H 0.8911 -0.377878 0.652476 0
M  V30 28 H 3.5421 -0.257776 1.8168 0
M  V30 29 H 1.9241 -2.61694 2.97207 0
M  V30 30 H 3.0981 -0.266855 4.60027 0
M  V30 31 H 1.4131 -0.398897 4.14485 0
M  V30 32 H 4.0101 -3.17578 4.30172 0
M  V30 33 H 4.3531 -3.25825 2.59121 0
M  V30 34 H 4.8861 -1.84029 3.52673 0
M  V30 35 H 1.6251 -1.17318 6.44916 0
M  V30 36 H 1.1451 -2.54905 5.4294 0
M  V30 37 H 2.8241 -2.40552 6.00619 0
M  V30 38 N 2.9562 -1.48159 -0.537278 0
M  V30 39 C 4.3672 -1.49429 -1.11928 0
M  V30 40 C 4.7182 -0.26 -1.9447 0
M  V30 41 O 3.8432 0.633489 -2.0692 0
M  V30 42 C 4.4382 -2.70758 -2.03656 0
M  V30 43 C 2.9972 -2.74923 -2.57088 0
M  V30 44 C 2.1442 -2.42835 -1.3389 0
M  V30 45 H 5.0952 -1.55381 -0.322886 0
M  V30 46 H 5.1162 -2.48861 -2.87834 0
M  V30 47 H 4.6282 -3.60575 -1.43553 0
M  V30 48 H 2.7292 -1.89296 -3.20933 0
M  V30 49 H 2.8422 -3.76157 -2.9672 0
M  V30 50 H 1.2062 -1.93836 -1.65226 0
M  V30 51 H 1.9892 -3.34884 -0.755504 0
M  V30 52 N 4.4343 0.785586 -1.36625 0
M  V30 53 C 5.3643 1.91259 -1.33949 0
M  V30 54 C 6.3453 1.68795 -0.210325 0
M  V30 55 O 7.5303 1.89854 -0.408561 0
M  V30 56 C 4.6603 3.28339 -1.13186 0
M  V30 57 C 3.6143 3.65335 -2.22967 0
M  V30 58 C 2.9403 5.00806 -1.87342 0
M  V30 59 C 4.2403 3.7352 -3.65075 0
M  V30 60 H 5.9343 1.93755 -2.28253 0
M  V30 61 H 3.4803 0.930788 -1.09874 0
M  V30 62 H 5.4333 4.06804 -1.09948 0
M  V30 63 H 4.1573 3.2624 -0.153332 0
M  V30 64 H 2.8163 2.89169 -2.25337 0
M  V30 65 H 2.4643 4.95233 -0.880545 0
M  V30 66 H 2.1643 5.26529 -2.60846 0
M  V30 67 H 3.6883 5.81687 -1.85667 0
M  V30 68 H 5.1023 4.42168 -3.64911 0
M  V30 69 H 3.4993 4.10731 -4.37516 0
M  V30 70 H 4.5693 2.74527 -3.99703 0
M  V30 71 N 5.9124 1.20967 1.01018 0
M  V30 72 C 6.8224 0.980157 2.13143 0
M  V30 73 C 7.8384 -0.0660665 1.73875 0
M  V30 74 O 9.0144 0.122821 2.01025 0
M  V30 75 C 6.0794 0.54216 3.42435 0
M  V30 76 C 5.1404 1.65999 3.95908 0
M  V30 77 C 4.3734 1.2428 5.19028 0
M  V30 78 O 4.5964 0.114196 5.70286 0
M  V30 79 O 3.5304 2.05271 5.65816 0
M  V30 80 H 7.3564 1.91913 2.35379 0
M  V30 81 H 4.9414 0.994099 1.11526 0
M  V30 82 H 6.8234 0.30744 4.20277 0
M  V30 83 H 5.4984 -0.36815 3.216 0
M  V30 84 H 4.4054 1.94906 3.19316 0
M  V30 85 H 5.7384 2.54753 4.21143 0
M  V30 86 N 7.3905 -1.2043 1.01659 0
M  V30 87 C 8.3375 -2.23215 0.586822 0
M  V30 88 C 9.3075 -1.61382 -0.393085 0
M  V30 89 O 10.4925 -1.88544 -0.292525 0
M  V30 90 C 7.6325 -3.45032 -0.0687464 0
M  V30 91 C 6.7455 -4.21296 0.955724 0
M  V30 92 C 5.8805 -5.30507 0.271208 0
M  V30 93 C 4.9195 -5.98515 1.28244 0
M  V30 94 N 4.0565 -6.99316 0.62459 0
M  V30 95 H 8.8965 -2.59336 1.46796 0
M  V30 96 H 6.4335 -1.27431 0.734836 0
M  V30 97 H 8.3915 -4.1459 -0.465965 0
M  V30 98 H 7.0215 -3.09604 -0.913529 0
M  V30 99 H 6.0735 -3.50803 1.4711 0
M  V30 100 H 7.3855 -4.6803 1.72479 0
M  V30 101 H 6.5395 -6.06428 -0.18151 0
M  V30 102 H 5.2785 -4.8481 -0.530163 0
M  V30 103 H 4.2835 -5.21355 1.74554 0
M  V30 104 H 5.5085 -6.46298 2.08509 0
M  V30 105 H 3.4545 -6.55812 -0.156914 0
M  V30 106 H 3.3715 -7.44178 1.33172 0
M  V30 107 H 4.6395 -7.79255 0.195462 0
M  V30 108 N 8.8686 -0.792821 -1.36206 0
M  V30 109 C 10.2796 -0.429513 -1.81692 0
M  V30 110 C 10.6306 1.04695 -1.65932 0
M  V30 111 O 9.7556 1.81256 -1.18218 0
M  V30 112 C 10.3506 -0.772831 -3.29868 0
M  V30 113 C 8.9096 -0.462307 -3.7355 0
M  V30 114 C 8.0566 -1.00569 -2.5842 0
M  V30 115 H 11.0076 -0.985672 -1.24379 0
M  V30 116 H 11.0286 -0.0651928 -3.80444 0
M  V30 117 H 10.5406 -1.84747 -3.41307 0
M  V30 118 H 8.6416 0.604158 -3.67669 0
M  V30 119 H 8.7546 -0.985299 -4.68859 0
M  V30 120 H 7.1186 -0.428734 -2.51066 0
M  V30 121 H 7.9016 -2.08616 -2.72643 0
M  V30 122 N 10.3467 1.47872 -0.545128 0
M  V30 123 C 11.5947 2.02093 -0.016553 0
M  V30 124 C 11.9157 1.42305 1.3332 0
M  V30 125 O 11.1857 0.593853 1.86682 0
M  V30 126 H 9.7657 0.746993 -0.00313038 0
M  V30 127 H 12.4277 1.81414 -0.712397 0
M  V30 128 H 11.5237 3.11996 0.0805422 0
M  V30 129 N 11.8248 0.280983 1.55075 0
M  V30 130 C 13.0498 -0.340154 2.04592 0
M  V30 131 C 13.4748 -1.48246 1.15779 0
M  V30 132 O 12.8328 -1.80614 0.15761 0
M  V30 133 C 12.8808 -0.793104 3.5177 0
M  V30 134 O 11.9848 -1.89981 3.66034 0
M  V30 135 H 11.3258 -0.0694289 0.66036 0
M  V30 136 H 13.8558 0.416993 2.00306 0
M  V30 137 H 13.8658 -1.08729 3.93245 0
M  V30 138 H 12.5408 0.0426163 4.15878 0
M  V30 139 H 11.1178 -1.60771 3.36463 0
M  V30 140 N 13.3029 -1.57598 0.00835791 0
M  V30 141 C 14.5509 -1.90551 -0.6734 0
M  V30 142 C 14.8719 -0.883301 -1.73847 0
M  V30 143 O 14.1419 0.0781442 -1.95744 0
M  V30 144 H 12.7219 -0.703312 -0.251717 0
M  V30 145 H 15.3839 -1.94833 0.0512592 0
M  V30 146 H 14.4799 -2.9056 -1.13935 0
M  V30 147 N 14.781 0.264519 -1.55364 0
M  V30 148 C 16.029 0.993021 -1.76021 0
M  V30 149 C 16.35 1.86511 -0.569099 0
M  V30 150 O 15.62 1.91438 0.415735 0
M  V30 151 H 14.2 0.369639 -0.649135 0
M  V30 152 H 16.862 0.286707 -1.9278 0
M  V30 153 H 15.958 1.62502 -2.66457 0
M  V30 154 N 16.2591 1.48442 0.529413 0
M  V30 155 C 17.4841 1.60406 1.31471 0
M  V30 156 C 17.9091 0.264738 1.86228 0
M  V30 157 O 17.2671 -0.763668 1.64432 0
M  V30 158 C 17.3151 2.65419 2.44101 0
M  V30 159 O 16.4191 2.22618 3.47153 0
M  V30 160 H 15.7601 0.537863 0.389357 0
M  V30 161 H 18.2901 1.94432 0.636965 0
M  V30 162 H 18.3001 2.86709 2.90279 0
M  V30 163 H 16.9751 3.62652 2.03608 0
M  V30 164 H 15.5521 2.11543 3.0709 0
M  V30 165 N 17.7372 -0.778329 1.37039 0
M  V30 166 C 18.9622 -1.57248 1.35233 0
M  V30 167 C 19.3872 -1.87999 -0.0615568 0
M  V30 168 O 18.7452 -1.48734 -1.03672 0
M  V30 169 C 18.7932 -2.86353 2.19167 0
M  V30 170 O 17.8972 -3.80442 1.59178 0
M  V30 171 H 17.2382 -0.476569 0.462362 0
M  V30 172 H 19.7682 -0.963853 1.80474 0
M  V30 173 H 19.7782 -3.35519 2.32145 0
M  V30 174 H 18.4532 -2.63299 3.21942 0
M  V30 175 H 17.0302 -3.39067 1.55203 0
M  V30 176 N 19.2153 -1.21501 -1.00376 0
M  V30 177 C 20.6263 -1.03146 -1.55621 0
M  V30 178 C 20.9773 0.408375 -1.91903 0
M  V30 179 O 20.1023 1.29177 -1.73616 0
M  V30 180 C 20.6973 -1.86612 -2.82775 0
M  V30 181 C 19.2563 -1.72586 -3.34501 0
M  V30 182 C 18.4033 -1.83747 -2.07683 0
M  V30 183 H 21.3543 -1.35505 -0.826081 0
M  V30 184 H 21.3753 -1.3771 -3.54706 0
M  V30 185 H 20.8873 -2.91399 -2.56336 0
M  V30 186 H 18.9883 -0.704877 -3.65872 0
M  V30 187 H 19.1013 -2.54623 -4.05837 0
M  V30 188 H 17.4653 -1.27069 -2.20739 0
M  V30 189 H 18.2483 -2.90044 -1.83655 0
M  V30 190 N 20.6934 1.19889 -1.02296 0
M  V30 191 C 21.9414 1.89046 -0.714558 0
M  V30 192 C 22.2624 1.79636 0.758681 0
M  V30 193 O 21.5324 1.20292 1.54618 0
M  V30 194 H 20.1124 0.699802 -0.261317 0
M  V30 195 H 22.7744 1.45574 -1.29592 0
M  V30 196 H 21.8704 2.95524 -1.0036 0
M  V30 197 N 22.1715 0.800033 1.35784 0
M  V30 198 C 23.1345 0.211565 2.28221 0
M  V30 199 C 24.1345 -0.59728 1.49296 0
M  V30 200 O 25.3245 -0.416721 1.69142 0
M  V30 201 C 22.4565 -0.705846 3.33513 0
M  V30 202 H 23.6495 1.02677 2.81776 0
M  V30 203 H 21.2025 0.570211 1.45528 0
M  V30 204 H 21.9375 -1.54498 2.85133 0
M  V30 205 H 21.7225 -0.127655 3.91892 0
M  V30 206 H 23.2125 -1.11211 4.02519 0
M  V30 207 N 23.6496 -1.47581 0.552962 0
M  V30 208 C 24.8776 -2.06875 0.0320556 0
M  V30 209 C 25.2926 -1.40625 -1.25976 0
M  V30 210 O 24.6496 -0.501349 -1.75479 0
M  V30 211 C 24.7006 -3.61092 -0.17167 0
M  V30 212 O 24.4216 -4.24858 1.06899 0
M  V30 213 C 25.9226 -4.37242 -0.730344 0
M  V30 214 H 23.1426 -0.669561 0.043915 0
M  V30 215 H 25.6866 -1.89646 0.765163 0
M  V30 216 H 23.8416 -3.7785 -0.854894 0
M  V30 217 H 24.2556 -5.17334 0.864059 0
M  V30 218 H 25.7296 -5.45842 -0.822203 0
M  V30 219 H 26.2066 -4.03235 -1.74064 0
M  V30 220 H 26.8126 -4.25219 -0.0829543 0
M  V30 221 N 25.1277 -0.289203 -1.54924 0
M  V30 222 C 26.3527 0.329299 -2.04769 0
M  V30 223 C 26.7777 1.4763 -1.16564 0
M  V30 224 O 26.1357 1.80527 -0.167186 0
M  V30 225 C 26.1837 0.774438 -3.52186 0
M  V30 226 O 25.2877 1.88038 -3.67036 0
M  V30 227 H 24.6287 0.0659259 -0.660719 0
M  V30 228 H 27.1587 -0.42761 -2.00082 0
M  V30 229 H 27.1687 1.06642 -3.93816 0
M  V30 230 H 25.8437 -0.0646707 -4.1585 0
M  V30 231 H 24.4207 1.58985 -3.3731 0
M  V30 232 N 26.6058 1.57591 -0.0167156 0
M  V30 233 C 27.8538 1.90906 0.663285 0
M  V30 234 C 28.1748 0.892509 1.73376 0
M  V30 235 O 27.4448 -0.0677623 1.95783 0
M  V30 236 H 26.0248 0.704637 0.247983 0
M  V30 237 H 28.6868 1.94803 -0.0615909 0
M  V30 238 H 27.7828 2.9116 1.12393 0
M  V30 239 N 28.0839 -0.256276 1.55502 0
M  V30 240 C 29.3089 -1.00766 1.81276 0
M  V30 241 C 29.7339 -1.78524 0.59252 0
M  V30 242 O 29.0919 -1.75413 -0.45827 0
M  V30 243 C 29.1399 -1.92869 3.04687 0
M  V30 244 O 28.2439 -3.019 2.80945 0
M  V30 245 H 27.5849 -0.287224 0.598664 0
M  V30 246 H 30.1149 -0.280109 2.02674 0
M  V30 247 H 30.1249 -2.34511 3.33869 0
M  V30 248 H 28.7999 -1.35689 3.93143 0
M  V30 249 H 27.3769 -2.64454 2.62904 0
M  V30 250 N 29.562 -1.4872 -0.521534 0
M  V30 251 C 30.81 -1.56857 -1.27437 0
M  V30 252 C 31.131 -0.247982 -1.93417 0
M  V30 253 O 30.401 0.731151 -1.81744 0
M  V30 254 H 28.981 -0.577885 -0.473347 0
M  V30 255 H 31.643 -1.85233 -0.606205 0
M  V30 256 H 30.739 -2.35402 -2.0492 0
M  V30 257 N 31.0401 0.771051 -1.3745 0
M  V30 258 C 32.4561 1.07171 -1.18265 0
M  V30 259 C 32.6561 2.01491 -0.019287 0
M  V30 260 O 31.7121 2.44244 0.640408 0
M  V30 261 C 33.0251 1.66854 -2.50161 0
M  V30 262 C 34.5731 1.79109 -2.56689 0
M  V30 263 C 35.0481 2.42205 -3.88717 0
M  V30 264 N 36.5391 2.49655 -3.90162 0
M  V30 265 C 37.2741 2.9933 -4.8907 0
M  V30 266 N 36.7701 3.49172 -5.98374 0
M  V30 267 N 38.5631 2.9821 -4.76474 0
M  V30 268 H 30.7141 0.144796 -2.11906 0
M  V30 269 H 32.9771 0.126863 -0.939473 0
M  V30 270 H 32.6831 1.05017 -3.35655 0
M  V30 271 H 32.5571 2.6614 -2.673 0
M  V30 272 H 34.9441 2.40077 -1.71601 0
M  V30 273 H 35.0251 0.785757 -2.43433 0
M  V30 274 H 34.6691 1.81875 -4.74219 0
M  V30 275 H 34.5991 3.43345 -3.99276 0
M  V30 276 H 37.0901 2.14383 -3.11205 0
M  V30 277 H 37.4031 3.8548 -6.69795 0
M  V30 278 H 35.7481 3.47275 -6.02018 0
M  V30 279 H 38.9391 2.58572 -3.90203 0
M  V30 280 H 39.1121 3.36613 -5.53711 0
M  V30 281 N 32.5182 1.22032 0.997298 0
M  V30 282 C 33.4812 0.987909 2.06816 0
M  V30 283 C 34.4812 -0.0440084 1.6074 0
M  V30 284 O 35.6712 0.194053 1.73116 0
M  V30 285 C 32.8032 0.49132 3.37341 0
M  V30 286 H 33.9962 1.93803 2.28868 0
M  V30 287 H 31.5492 1.03838 1.16822 0
M  V30 288 H 32.2842 -0.463364 3.20973 0
M  V30 289 H 32.0692 1.23575 3.72118 0
M  V30 290 H 33.5592 0.348824 4.16141 0
M  V30 291 N 33.9963 -1.19345 1.0293 0
M  V30 292 C 35.2443 -1.88665 0.724574 0
M  V30 293 C 35.5653 -1.80036 -0.749144 0
M  V30 294 O 34.8353 -1.2111 -1.53978 0
M  V30 295 H 33.4153 -0.698406 0.265025 0
M  V30 296 H 36.0773 -1.44885 1.30362 0
M  V30 297 H 35.1733 -2.94987 1.01926 0
M  V30 298 N 35.4744 -0.807222 -1.35358 0
M  V30 299 C 36.8904 -0.491038 -1.51858 0
M  V30 300 C 37.0904 0.987648 -1.75635 0
M  V30 301 O 36.1464 1.77265 -1.79815 0
M  V30 302 C 37.4594 -1.33695 -2.69344 0
M  V30 303 C 39.0074 -1.33246 -2.83222 0
M  V30 304 C 39.4824 -2.1625 -4.03733 0
M  V30 305 N 40.9734 -2.1379 -4.10911 0
M  V30 306 C 41.7084 -2.74772 -5.03277 0
M  V30 307 N 41.2044 -3.44684 -6.0097 0
M  V30 308 N 42.9974 -2.6441 -4.96028 0
M  V30 309 H 35.1484 -1.76485 -1.18181 0
M  V30 310 H 37.4114 -0.751199 -0.578276 0
M  V30 311 H 37.1174 -2.38634 -2.58354 0
M  V30 312 H 36.9914 -0.990618 -3.6396 0
M  V30 313 H 39.3784 -0.290911 -2.93663 0
M  V30 314 H 39.4594 -1.71866 -1.89461 0
M  V30 315 H 39.1034 -3.20445 -3.94052 0
M  V30 316 H 39.0334 -1.74989 -4.96675 0
M  V30 317 H 41.5244 -1.62923 -3.40976 0
M  V30 318 H 41.8374 -3.88501 -6.68047 0
M  V30 319 H 40.1824 -3.48788 -6.01142 0
M  V30 320 H 43.3734 -2.0938 -4.18662 0
M  V30 321 H 43.5464 -3.12225 -5.6782 0
M  V30 322 N 36.9525 1.47285 -0.560781 0
M  V30 323 C 38.2005 2.02064 -0.0379868 0
M  V30 324 C 38.5215 1.43711 1.31803 0
M  V30 325 O 37.7915 0.61362 1.86042 0
M  V30 326 H 36.3715 0.746918 -0.0110531 0
M  V30 327 H 39.0335 1.80648 -0.731598 0
M  V30 328 H 38.1295 3.12064 0.0474463 0
M  V30 329 N 38.4306 0.297415 1.54768 0
M  V30 330 C 39.3606 -0.573494 2.26348 0
M  V30 331 C 40.3416 -1.14085 1.26169 0
M  V30 332 O 41.5266 -1.17086 1.54934 0
M  V30 333 C 38.6566 -1.74716 3.00153 0
M  V30 334 C 37.6106 -1.31032 4.07449 0
M  V30 335 C 36.9366 -2.56887 4.68949 0
M  V30 336 C 38.2366 -0.444183 5.20408 0
M  V30 337 H 39.9306 0.0235131 2.99391 0
M  V30 338 H 37.4766 0.0127488 1.43994 0
M  V30 339 H 39.4296 -2.3625 3.48947 0
M  V30 340 H 38.1536 -2.37035 2.24682 0
M  V30 341 H 36.8126 -0.718066 3.59499 0
M  V30 342 H 36.4606 -3.17512 3.90122 0
M  V30 343 H 36.1606 -2.2836 5.41411 0
M  V30 344 H 37.6846 -3.19229 5.20505 0
M  V30 345 H 39.0986 -0.9651 5.65118 0
M  V30 346 H 37.4956 -0.252846 5.99567 0
M  V30 347 H 38.5656 0.531609 4.81977 0
M  V30 348 N 39.9087 -1.5758 0.0250728 0
M  V30 349 C 41.1337 -1.96337 -0.668317 0
M  V30 350 C 41.5587 -0.901314 -1.651 0
M  V30 351 O 40.9167 0.138187 -1.80773 0
M  V30 352 C 40.9647 -3.34191 -1.35457 0
M  V30 353 O 40.0687 -3.30269 -2.46974 0
M  V30 354 H 39.4097 -0.640281 -0.175887 0
M  V30 355 H 41.9397 -2.0442 0.0857224 0
M  V30 356 H 41.9497 -3.70331 -1.71228 0
M  V30 357 H 40.6247 -4.11036 -0.634218 0
M  V30 358 H 39.2017 -3.05841 -2.13344 0
M  V30 359 N 41.3868 0.248026 -1.55636 0
M  V30 360 C 42.6348 0.974295 -1.77065 0
M  V30 361 C 42.9558 1.85897 -0.588849 0
M  V30 362 O 42.2258 1.91868 0.395407 0
M  V30 363 H 40.8058 0.362733 -0.653019 0
M  V30 364 H 43.4678 0.266244 -1.93073 0
M  V30 365 H 42.5638 1.59667 -2.68166 0
M  V30 366 N 42.8649 1.48995 0.513639 0
M  V30 367 C 44.2759 1.5119 1.09537 0
M  V30 368 C 44.6269 0.290906 1.94031 0
M  V30 369 O 43.7519 -0.60049 2.07902 0
M  V30 370 C 44.3469 2.73964 1.99322 0
M  V30 371 C 42.9059 2.78978 2.52682 0
M  V30 372 C 42.0529 2.44934 1.30009 0
M  V30 373 H 45.0039 1.55875 0.298125 0
M  V30 374 H 45.0249 2.53409 2.83838 0
M  V30 375 H 44.5369 3.62813 1.37799 0
M  V30 376 H 42.6379 1.94378 3.1788 0
M  V30 377 H 42.7509 3.8083 2.90698 0
M  V30 378 H 41.1149 1.9644 1.62122 0
M  V30 379 H 41.8979 3.36043 0.702131 0
M  V30 380 N 44.343 -0.763751 1.37857 0
M  V30 381 C 45.583 -1.53551 1.34913 0
M  V30 382 C 45.947 -1.91895 -0.0635882 0
M  V30 383 O 47.148 -2.67916 -0.217825 0
M  V30 384 C 45.419 -2.76126 2.26912 0
M  V30 385 S 46.978 -3.66105 2.41893 0
M  V30 386 H 43.796 -0.52559 0.478828 0
M  V30 387 H 46.398 -0.897435 1.73685 0
M  V30 388 H 45.102 -2.4605 3.28463 0
M  V30 389 H 44.633 -3.44887 1.89253 0
M  V30 390 H 46.648 -4.68473 1.63545 0
M  V30 391 N 45.8211 -1.22559 -0.990812 0
M  V30 392 C 47.2371 -0.985996 -1.255 0
M  V30 393 C 47.4371 0.319173 -1.98956 0
M  V30 394 O 46.4931 1.04127 -2.3003 0
M  V30 395 C 47.8061 -2.18607 -2.06474 0
M  V30 396 C 49.3541 -2.22985 -2.19651 0
M  V30 397 C 49.8291 -3.4255 -3.04012 0
M  V30 398 N 51.3201 -3.42725 -3.11599 0
M  V30 399 C 52.0551 -4.31892 -3.7717 0
M  V30 400 N 51.5511 -5.31279 -4.44651 0
M  V30 401 N 53.3441 -4.19662 -3.73952 0
M  V30 402 H 45.4951 -2.06469 -0.49841 0
M  V30 403 H 47.7581 -0.904853 -0.282747 0
M  V30 404 H 47.4641 -3.13267 -1.59865 0
M  V30 405 H 47.3381 -2.18838 -3.07229 0
M  V30 406 H 49.7251 -1.28871 -2.65474 0
M  V30 407 H 49.8061 -2.26791 -1.18319 0
M  V30 408 H 49.4501 -4.36965 -2.58889 0
M  V30 409 H 49.3801 -3.35984 -4.0549 0
M  V30 410 H 51.8711 -2.70807 -2.63575 0
M  V30 411 H 52.1841 -5.95593 -4.92431 0
M  V30 412 H 50.5291 -5.3519 -4.43392 0
M  V30 413 H 53.7201 -3.41268 -3.20396 0
M  V30 414 H 53.8931 -4.89358 -4.24774 0
M  V30 415 N 47.2992 1.18797 -1.03562 0
M  V30 416 C 48.7102 1.70322 -0.764676 0
M  V30 417 C 49.0612 1.82708 0.714996 0
M  V30 418 O 48.1862 1.50299 1.55689 0
M  V30 419 C 48.7812 3.09356 -1.38145 0
M  V30 420 C 47.3402 3.58114 -1.15895 0
M  V30 421 C 46.4872 2.34798 -1.4753 0
M  V30 422 H 49.4382 1.03543 -1.20268 0
M  V30 423 H 49.4592 3.72378 -0.781977 0
M  V30 424 H 48.9712 3.00309 -2.45837 0
M  V30 425 H 47.0722 3.72464 -0.100544 0
M  V30 426 H 47.1852 4.4184 -1.8524 0
M  V30 427 H 45.5492 2.38464 -0.894829 0
M  V30 428 H 46.3322 2.28375 -2.56319 0
M  V30 429 N 48.7773 0.814389 1.34928 0
M  V30 430 C 50.1883 0.458364 1.80986 0
M  V30 431 C 50.5393 -1.02042 1.67577 0
M  V30 432 O 49.6643 -1.79352 1.21086 0
M  V30 433 C 50.2593 0.825212 3.28597 0
M  V30 434 C 48.8183 0.521677 3.72767 0
M  V30 435 C 47.9653 1.04668 2.56788 0
M  V30 436 H 50.9163 1.00533 1.22795 0
M  V30 437 H 50.9373 0.12571 3.80292 0
M  V30 438 H 50.4493 1.90154 3.38324 0
M  V30 439 H 48.5503 -0.545589 3.68584 0
M  V30 440 H 48.6633 1.05977 4.67232 0
M  V30 441 H 47.0273 0.468622 2.50352 0
M  V30 442 H 47.8103 2.12927 2.6929 0
M  V30 443 N 50.2554 -1.46986 0.568584 0
M  V30 444 C 51.6664 -1.86188 0.138219 0
M  V30 445 C 52.0174 -1.47388 -1.29504 0
M  V30 446 O 51.1424 -0.88219 -1.97602 0
M  V30 447 C 51.7374 -3.3792 0.244065 0
M  V30 448 C 50.2964 -3.76171 -0.131335 0
M  V30 449 C 49.4434 -2.71027 0.586465 0
M  V30 450 H 52.3944 -1.38342 0.777645 0
M  V30 451 H 52.4154 -3.76729 -0.534351 0
M  V30 452 H 51.9274 -3.66128 1.28731 0
M  V30 453 H 50.0284 -3.5358 -1.17526 0
M  V30 454 H 50.1414 -4.78523 0.235146 0
M  V30 455 H 48.5054 -2.54684 0.0282722 0
M  V30 456 H 49.2884 -3.02077 1.63109 0
M  V30 457 N 51.7335 -0.305618 -1.54608 0
M  V30 458 C 53.1445 0.186098 -1.8577 0
M  V30 459 C 53.4955 1.53058 -1.22751 0
M  V30 460 O 52.6205 2.09888 -0.526893 0
M  V30 461 C 53.2155 0.344449 -3.37044 0
M  V30 462 C 51.7745 0.780384 -3.68221 0
M  V30 463 C 50.9215 -0.108554 -2.77087 0
M  V30 464 H 53.8725 -0.526485 -1.49712 0
M  V30 465 H 53.8935 1.17828 -3.61796 0
M  V30 466 H 53.4055 -0.634235 -3.82883 0
M  V30 467 H 51.5065 1.76945 -3.27904 0
M  V30 468 H 51.6195 0.596572 -4.75371 0
M  V30 469 H 49.9835 0.412931 -2.5133 0
M  V30 470 H 50.7665 -1.08368 -3.25747 0
M  V30 471 N 53.2116 1.57565 -0.0334293 0
M  V30 472 C 54.6226 1.79746 0.504798 0
M  V30 473 C 54.9736 0.944091 1.71992 0
M  V30 474 O 54.0986 0.155694 2.15839 0
M  V30 475 C 54.6936 3.25997 0.922567 0
M  V30 476 C 53.2526 3.49159 1.40588 0
M  V30 477 C 52.3996 2.74785 0.372633 0
M  V30 478 H 55.3506 1.56565 -0.259436 0
M  V30 479 H 55.3716 3.35945 1.78666 0
M  V30 480 H 54.8836 3.88081 0.0379825 0
M  V30 481 H 52.9846 2.92332 2.31025 0
M  V30 482 H 53.0976 4.57873 1.41028 0
M  V30 483 H 51.4616 2.40391 0.841672 0
M  V30 484 H 52.2446 3.39587 -0.503559 0
M  V30 485 N 54.6897 -0.239769 1.55765 0
M  V30 486 C 55.6217 -1.32001 1.87372 0
M  V30 487 C 56.6347 -1.43944 0.760522 0
M  V30 488 O 57.8237 -1.45167 1.0387 0
M  V30 489 C 54.9237 -2.69779 2.05115 0
M  V30 490 C 54.0967 -2.80014 3.36022 0
M  V30 491 C 53.1557 -3.98684 3.4342 0
M  V30 492 O 52.1817 -3.87877 4.16582 0
M  V30 493 N 53.3837 -5.12176 2.73232 0
M  V30 494 H 56.1487 -1.0522 2.80622 0
M  V30 495 H 53.7097 -0.429857 1.56089 0
M  V30 496 H 55.7017 -3.47517 2.07399 0
M  V30 497 H 54.2717 -2.89237 1.18577 0
M  V30 498 H 53.4917 -1.88896 3.45994 0
M  V30 499 H 54.7797 -2.83808 4.22292 0
M  V30 500 H 54.1777 -5.2385 2.13536 0
M  V30 501 H 52.7347 -5.88022 2.81199 0
M  V30 502 N 56.1678 -1.49265 -0.50573 0
M  V30 503 C 57.1308 -1.65075 -1.59006 0
M  V30 504 C 58.1308 -0.522768 -1.52065 0
M  V30 505 O 59.3208 -0.789117 -1.55302 0
M  V30 506 C 56.4528 -1.64369 -2.98656 0
M  V30 507 H 57.6458 -2.61784 -1.46319 0
M  V30 508 H 55.1988 -1.38226 -0.729616 0
M  V30 509 H 55.9338 -0.692272 -3.16825 0
M  V30 510 H 55.7188 -2.46282 -3.05103 0
M  V30 511 H 57.2088 -1.78674 -3.77446 0
M  V30 512 N 57.6459 0.756429 -1.3826 0
M  V30 513 C 59.0619 1.0591 -1.19395 0
M  V30 514 C 59.2619 2.01459 -0.0406567 0
M  V30 515 O 58.3179 2.44909 0.614467 0
M  V30 516 C 59.6309 1.64191 -2.51916 0
M  V30 517 C 61.1789 1.76376 -2.58574 0
M  V30 518 C 61.6539 2.38069 -3.91264 0
M  V30 519 N 63.1449 2.45503 -3.92788 0
M  V30 520 C 63.8799 2.94126 -4.92217 0
M  V30 521 N 63.3759 3.42805 -6.02043 0
M  V30 522 N 65.1689 2.9314 -4.7961 0
M  V30 523 H 57.3199 0.122313 -2.12048 0
M  V30 524 H 59.5829 0.116892 -0.940766 0
M  V30 525 H 59.2889 1.01451 -3.3675 0
M  V30 526 H 59.1629 2.6329 -2.70108 0
M  V30 527 H 61.5499 2.38244 -1.74137 0
M  V30 528 H 61.6309 0.759894 -2.44252 0
M  V30 529 H 61.2749 1.76835 -4.76121 0
M  V30 530 H 61.2049 3.39091 -4.02895 0
M  V30 531 H 63.6959 2.1107 -3.13461 0
M  V30 532 H 64.0089 3.78354 -6.73846 0
M  V30 533 H 62.3539 3.4087 -6.05667 0
M  V30 534 H 65.5449 2.54419 -3.92923 0
M  V30 535 H 65.7179 3.30721 -5.5725 0
M  V30 536 N 59.124 1.23083 0.984299 0
M  V30 537 C 60.372 1.05848 1.72165 0
M  V30 538 C 60.693 -0.406049 1.90726 0
M  V30 539 O 59.963 -1.29139 1.47309 0
M  V30 540 H 58.543 0.388685 0.637913 0
M  V30 541 H 61.205 1.54736 1.18503 0
M  V30 542 H 60.301 1.54327 2.71274 0
M  V30 543 N 60.6021 -1.18246 1.0419 0
M  V30 544 C 61.5321 -2.24127 0.654914 0
M  V30 545 C 62.5131 -1.66617 -0.342451 0
M  V30 546 O 63.6981 -1.92924 -0.222277 0
M  V30 547 C 60.8281 -3.47295 0.0183757 0
M  V30 548 C 59.7821 -4.17563 0.939414 0
M  V30 549 C 59.1081 -5.34438 0.167286 0
M  V30 550 C 60.4081 -4.70917 2.25908 0
M  V30 551 H 62.1021 -2.56753 1.54007 0
M  V30 552 H 59.6481 -1.23414 0.74195 0
M  V30 553 H 61.6011 -4.20572 -0.264082 0
M  V30 554 H 60.3251 -3.13907 -0.901664 0
M  V30 555 H 58.9841 -3.46186 1.20628 0
M  V30 556 H 58.6321 -4.97298 -0.7552 0
M  V30 557 H 58.3321 -5.82388 0.780901 0
M  V30 558 H 59.8561 -6.10504 -0.108125 0
M  V30 559 H 61.2701 -5.35882 2.03724 0
M  V30 560 H 59.6671 -5.29406 2.82577 0
M  V30 561 H 60.7371 -3.88272 2.9047 0
M  V30 562 N 62.0802 -0.821533 -1.34494 0
M  V30 563 C 63.0102 -0.257138 -2.3208 0
M  V30 564 C 63.9912 0.625645 -1.58176 0
M  V30 565 O 65.1762 0.552811 -1.86166 0
M  V30 566 C 62.3062 0.582958 -3.42372 0
M  V30 567 C 61.2602 -0.202571 -4.2752 0
M  V30 568 C 60.5862 0.760179 -5.29269 0
M  V30 569 C 61.8862 -1.40998 -5.02908 0
M  V30 570 H 63.5802 -1.07247 -2.79532 0
M  V30 571 H 61.1262 -0.517163 -1.34393 0
M  V30 572 H 63.0792 0.987972 -4.09655 0
M  V30 573 H 61.8032 1.43133 -2.93565 0
M  V30 574 H 60.4622 -0.588936 -3.61838 0
M  V30 575 H 60.1102 1.60447 -4.76724 0
M  V30 576 H 59.8102 0.238809 -5.87115 0
M  V30 577 H 61.3342 1.16308 -5.9942 0
M  V30 578 H 62.7482 -1.07905 -5.63054 0
M  V30 579 H 61.1452 -1.86689 -5.70322 0
M  V30 580 H 62.2152 -2.1889 -4.32684 0
M  V30 581 N 63.5583 1.46682 -0.576371 0
M  V30 582 C 64.7863 2.06798 -0.0649635 0
M  V30 583 C 65.2013 1.42612 1.23723 0
M  V30 584 O 64.5583 0.529203 1.74659 0
M  V30 585 C 64.6093 3.6132 0.114202 0
M  V30 586 O 64.3303 4.23104 -1.13644 0
M  V30 587 C 65.8313 4.38349 0.66069 0
M  V30 588 H 63.0513 0.668778 -0.0545616 0
M  V30 589 H 65.5953 1.88404 -0.795237 0
M  V30 590 H 63.7503 3.79162 0.794673 0
M  V30 591 H 64.1643 5.15894 -0.946253 0
M  V30 592 H 65.6383 5.47081 0.73526 0
M  V30 593 H 66.1153 4.05953 1.67627 0
M  V30 594 H 66.7213 4.25297 0.0152951 0
M  V30 595 N 65.0364 0.313813 1.54444 0
M  V30 596 C 65.9464 -0.565714 2.27677 0
M  V30 597 C 66.9624 -1.13754 1.31666 0
M  V30 598 O 68.1384 -1.15959 1.64668 0
M  V30 599 C 65.2034 -1.71528 3.01296 0
M  V30 600 C 64.2644 -1.17624 4.12872 0
M  V30 601 C 63.4974 -2.27102 4.8297 0
M  V30 602 O 63.7204 -3.47256 4.52514 0
M  V30 603 O 62.6544 -1.9307 5.70094 0
M  V30 604 H 66.4804 0.0287296 3.03686 0
M  V30 605 H 64.0654 0.0798312 1.49187 0
M  V30 606 H 65.9474 -2.38476 3.4743 0
M  V30 607 H 64.6224 -2.29608 2.2817 0
M  V30 608 H 63.5294 -0.472124 3.71109 0
M  V30 609 H 64.8624 -0.640695 4.88012 0
M  V30 610 N 66.5145 -1.57545 0.0417849 0
M  V30 611 C 67.7635 -1.91494 -0.633492 0
M  V30 612 C 68.0765 -0.921084 -1.72556 0
M  V30 613 O 69.2825 -1.15228 -2.45835 0
M  V30 614 C 67.7385 -3.40072 -1.17808 0
M  V30 615 C 67.3465 -4.47843 -0.118633 0
M  V30 616 C 69.0905 -3.8307 -1.82915 0
M  V30 617 C 66.9975 -5.87529 -0.675578 0
M  V30 618 H 65.9275 -0.714653 -0.24039 0
M  V30 619 H 68.5785 -1.83175 0.109148 0
M  V30 620 H 66.9605 -3.43364 -1.97274 0
M  V30 621 H 68.1345 -4.56128 0.654494 0
M  V30 622 H 66.4495 -4.14128 0.434414 0
M  V30 623 H 69.0465 -4.84794 -2.25563 0
M  V30 624 H 69.3895 -3.1881 -2.67705 0
M  V30 625 H 69.9225 -3.82255 -1.10119 0
M  V30 626 H 66.6615 -6.55362 0.134475 0
M  V30 627 H 66.1815 -5.82824 -1.4169 0
M  V30 628 H 67.8605 -6.36491 -1.1614 0
M  V30 629 N 67.9926 0.231505 -1.5589 0
M  V30 630 C 69.4086 0.580748 -1.48659 0
M  V30 631 C 69.6086 1.87617 -0.73498 0
M  V30 632 O 68.6646 2.51046 -0.270586 0
M  V30 633 C 69.9776 0.669202 -2.93159 0
M  V30 634 C 71.5256 0.760499 -3.03621 0
M  V30 635 C 72.0006 0.880383 -4.49459 0
M  V30 636 N 73.4916 0.944861 -4.53461 0
M  V30 637 C 74.2266 1.05716 -5.63571 0
M  V30 638 N 73.7226 1.13403 -6.83456 0
M  V30 639 N 75.5156 1.09152 -5.514 0
M  V30 640 H 67.6666 -0.618695 -2.03189 0
M  V30 641 H 69.9296 -0.215728 -0.923128 0
M  V30 642 H 69.6356 -0.212904 -3.51055 0
M  V30 643 H 69.5096 1.5361 -3.44505 0
M  V30 644 H 71.8966 1.63305 -2.45796 0
M  V30 645 H 71.9776 -0.131864 -2.5546 0
M  V30 646 H 71.6216 0.0123284 -5.07899 0
M  V30 647 H 71.5516 1.78802 -4.95316 0
M  V30 648 H 74.0426 0.896176 -3.6712 0
M  V30 649 H 74.3556 1.21921 -7.63122 0
M  V30 650 H 72.7006 1.10333 -6.86186 0
M  V30 651 H 75.8916 1.02805 -4.56671 0
M  V30 652 H 76.0646 1.17558 -6.37247 0
M  V30 653 N 69.4707 1.49531 0.497807 0
M  V30 654 C 70.4337 1.65916 1.58128 0
M  V30 655 C 71.4337 0.530825 1.51786 0
M  V30 656 O 72.6237 0.797342 1.54881 0
M  V30 657 C 69.7557 1.65951 2.9778 0
M  V30 658 H 70.9487 2.62556 1.44929 0
M  V30 659 H 68.5017 1.38611 0.722275 0
M  V30 660 H 69.2367 0.709065 3.16453 0
M  V30 661 H 69.0217 2.47897 3.03792 0
M  V30 662 H 70.5117 1.80673 3.76493 0
M  V30 663 N 70.9488 -0.749086 1.3866 0
M  V30 664 C 72.1948 -1.51056 1.35314 0
M  V30 665 C 72.5278 -1.94121 -0.0553751 0
M  V30 666 O 71.8028 -1.65763 -1.01749 0
M  V30 667 C 72.0858 -2.76003 2.31288 0
M  V30 668 C 71.9388 -2.39047 3.8102 0
M  V30 669 C 73.2578 -3.78046 2.2532 0
M  V30 670 H 70.3768 -0.547972 0.492844 0
M  V30 671 H 73.0188 -0.857628 1.69543 0
M  V30 672 H 71.1688 -3.31716 2.02229 0
M  V30 673 H 72.8408 -1.89074 4.20771 0
M  V30 674 H 71.0838 -1.71449 3.98482 0
M  V30 675 H 71.7548 -3.28462 4.4364 0
M  V30 676 H 74.2308 -3.31884 2.50983 0
M  V30 677 H 73.1068 -4.63159 2.94576 0
M  V30 678 H 73.3678 -4.23957 1.25352 0
M  V30 679 N 72.4269 -1.23603 -0.977757 0
M  V30 680 C 73.6729 -1.07129 -1.72195 0
M  V30 681 C 74.0059 0.390501 -1.90233 0
M  V30 682 O 73.2809 1.28902 -1.45653 0
M  V30 683 C 73.5639 -1.80031 -3.11867 0
M  V30 684 C 73.4169 -3.33899 -3.01383 0
M  V30 685 C 74.7359 -1.56492 -4.11337 0
M  V30 686 H 71.8549 -0.390571 -0.624999 0
M  V30 687 H 74.4969 -1.52142 -1.13811 0
M  V30 688 H 72.6469 -1.41768 -3.6171 0
M  V30 689 H 74.3189 -3.81699 -2.59043 0
M  V30 690 H 72.5619 -3.62796 -2.37827 0
M  V30 691 H 73.2329 -3.801 -4.00285 0
M  V30 692 H 75.7089 -1.89757 -3.70313 0
M  V30 693 H 74.5849 -2.09973 -5.07151 0
M  V30 694 H 74.8459 -0.500874 -4.39254 0
M  V30 695 N 73.905 1.17692 -1.04816 0
M  V30 696 C 75.321 1.39863 -0.768794 0
M  V30 697 C 75.521 1.91118 0.638451 0
M  V30 698 O 74.577 2.10036 1.40146 0
M  V30 699 C 75.89 2.39274 -1.82122 0
M  V30 700 C 77.438 2.52987 -1.843 0
M  V30 701 C 77.913 3.55669 -2.88555 0
M  V30 702 N 79.404 3.63183 -2.87493 0
M  V30 703 C 80.139 4.42381 -3.64811 0
M  V30 704 N 79.635 5.25125 -4.51903 0
M  V30 705 N 81.428 4.37217 -3.53267 0
M  V30 706 H 73.579 0.82752 -1.95617 0
M  V30 707 H 75.842 0.426123 -0.846831 0
M  V30 708 H 75.548 2.08678 -2.83102 0
M  V30 709 H 75.422 3.38725 -1.65967 0
M  V30 710 H 77.809 2.82896 -0.839869 0
M  V30 711 H 77.89 1.53623 -2.04532 0
M  V30 712 H 77.534 3.26499 -3.89051 0
M  V30 713 H 77.464 4.54728 -2.65575 0
M  V30 714 H 79.955 3.04103 -2.24343 0
M  V30 715 H 80.268 5.82728 -5.07591 0
M  V30 716 H 78.613 5.24519 -4.55966 0
M  V30 717 H 81.804 3.71626 -2.84625 0
M  V30 718 H 81.977 4.98696 -4.13771 0
M  V30 719 N 75.3831 0.828654 1.34056 0
M  V30 720 C 76.6111 0.43262 2.02326 0
M  V30 721 C 77.0261 -0.963147 1.62385 0
M  V30 722 O 76.3831 -1.62425 0.832121 0
M  V30 723 C 76.4341 0.53182 3.57567 0
M  V30 724 O 76.1551 1.87258 3.96063 0
M  V30 725 C 77.6561 0.131422 4.43105 0
M  V30 726 H 74.8761 0.172923 0.648335 0
M  V30 727 H 77.4201 1.1184 1.71208 0
M  V30 728 H 75.5751 -0.105938 3.87255 0
M  V30 729 H 75.9891 1.85087 4.90758 0
M  V30 730 H 77.4631 0.251904 5.51425 0
M  V30 731 H 77.9401 -0.925645 4.29335 0
M  V30 732 H 78.5461 0.743207 4.18756 0
M  V30 733 N 76.8612 -1.46375 0.584142 0
M  V30 734 C 77.7712 -2.34115 -0.150728 0
M  V30 735 C 78.7872 -1.49838 -0.884567 0
M  V30 736 O 79.9632 -1.82704 -0.847429 0
M  V30 737 C 77.0282 -3.2705 -1.15062 0
M  V30 738 C 76.0892 -4.27228 -0.421293 0
M  V30 739 C 75.3222 -5.15722 -1.37355 0
M  V30 740 O 75.5452 -5.07176 -2.61014 0
M  V30 741 O 74.4792 -5.95383 -0.883355 0
M  V30 742 H 78.3052 -2.98309 0.569708 0
M  V30 743 H 75.8902 -1.45373 0.344535 0
M  V30 744 H 77.7722 -3.84381 -1.72712 0
M  V30 745 H 76.4472 -2.65451 -1.8525 0
M  V30 746 H 75.3542 -3.7358 0.197085 0
M  V30 747 H 76.6872 -4.91616 0.239641 0
M  V30 748 N 78.3393 -0.321999 -1.54275 0
M  V30 749 C 79.7503 0.166384 -1.85957 0
M  V30 750 C 80.1013 1.51747 -1.24367 0
M  V30 751 O 79.2263 2.09317 -0.549124 0
M  V30 752 C 79.8213 0.308681 -3.37391 0
M  V30 753 C 78.3803 0.741286 -3.69028 0
M  V30 754 C 77.5273 -0.137937 -2.76957 0
M  V30 755 H 80.4783 -0.542335 -1.49146 0
M  V30 756 H 80.4993 1.13984 -3.63026 0
M  V30 757 H 80.0113 -0.674809 -3.82188 0
M  V30 758 H 78.1123 1.73458 -3.29762 0
M  V30 759 H 78.2253 0.546118 -4.75977 0
M  V30 760 H 76.5893 0.386251 -2.51754 0
M  V30 761 H 77.3723 -1.11816 -3.2458 0
M  V30 762 N 79.8174 1.5752 -0.0501392 0
M  V30 763 C 81.0644 1.9265 0.623874 0
M  V30 764 C 81.3924 0.928411 1.70912 0
M  V30 765 O 80.6474 -0.0594525 1.9561 0
M  V30 766 C 80.9464 3.34467 1.25963 0
M  V30 767 C 80.6124 4.49883 0.302689 0
M  V30 768 C 79.2744 4.81184 0.0393636 0
M  V30 769 C 81.6264 5.20002 -0.353205 0
M  V30 770 C 78.9544 5.79951 -0.887308 0
M  V30 771 C 81.3064 6.1976 -1.26806 0
M  V30 772 C 79.9704 6.49491 -1.54007 0
M  V30 773 H 79.2404 0.704957 0.228292 0
M  V30 774 H 81.8874 1.91146 -0.116398 0
M  V30 775 H 80.1924 3.32333 2.07514 0
M  V30 776 H 81.8894 3.58928 1.78806 0
M  V30 777 H 78.4794 4.25457 0.518109 0
M  V30 778 H 82.6634 4.96033 -0.162854 0
M  V30 779 H 77.9194 6.01322 -1.10553 0
M  V30 780 H 82.0934 6.73205 -1.78236 0
M  V30 781 H 79.7204 7.25837 -2.25976 0
M  V30 782 N 81.2955 -0.223234 1.56011 0
M  V30 783 C 82.2275 -1.30006 1.88762 0
M  V30 784 C 83.2405 -1.43129 0.775746 0
M  V30 785 O 84.4295 -1.44057 1.05403 0
M  V30 786 C 81.5295 -2.67589 2.07965 0
M  V30 787 C 80.7025 -2.76434 3.38973 0
M  V30 788 C 79.7615 -3.95019 3.47629 0
M  V30 789 O 78.7875 -3.83436 4.20672 0
M  V30 790 N 79.9895 -5.09249 2.78649 0
M  V30 791 H 82.7545 -1.02238 2.81722 0
M  V30 792 H 80.3155 -0.413278 1.56536 0
M  V30 793 H 82.3075 -3.45297 2.11073 0
M  V30 794 H 80.8775 -2.87964 1.21638 0
M  V30 795 H 80.0975 -1.85216 3.47978 0
M  V30 796 H 81.3855 -2.79313 4.25278 0
M  V30 797 H 80.7835 -5.21556 2.19081 0
M  V30 798 H 79.3405 -5.85007 2.8742 0
M  V30 799 N 82.7736 -1.49793 -0.48987 0
M  V30 800 C 84.0506 -1.50348 -1.25119 0
M  V30 801 C 84.4306 -0.237466 -2.0976 0
M  V30 802 O 83.7786 0.77981 -2.14782 0
M  V30 803 C 83.9886 -2.78872 -2.09837 0
M  V30 804 C 85.3366 -3.288 -2.68655 0
M  V30 805 O 86.3606 -2.80065 -2.20096 0
M  V30 806 O 85.2196 -4.13707 -3.57083 0
M  V30 807 H 82.3136 -0.602242 -0.566775 0
M  V30 808 H 84.8596 -1.62067 -0.503229 0
M  V30 809 H 83.6316 -3.62499 -1.47343 0
M  V30 810 H 83.2546 -2.70066 -2.91805 0
M  V30 811 N 84.2517 0.741722 -1.39055 0
M  V30 812 C 85.4997 1.49818 -1.35643 0
M  V30 813 C 85.8207 1.94938 0.0491642 0
M  V30 814 O 85.0907 1.68505 0.999141 0
M  V30 815 H 83.6707 0.555755 -0.499144 0
M  V30 816 H 86.3327 0.880957 -1.73854 0
M  V30 817 H 85.4287 2.38348 -2.01486 0
M  V30 818 N 85.7298 1.2412 0.971189 0
M  V30 819 C 86.9598 1.10415 1.7462 0
M  V30 820 C 87.3678 -0.346462 1.86001 0
M  V30 821 O 86.7108 -1.25104 1.34517 0
M  V30 822 C 86.7728 1.66596 3.18568 0
M  V30 823 C 86.4368 3.15446 3.3067 0
M  V30 824 C 87.4338 4.12636 3.16271 0
M  V30 825 C 85.1188 3.55337 3.55022 0
M  V30 826 C 87.1128 5.47699 3.26044 0
M  V30 827 C 84.7998 4.90542 3.64434 0
M  V30 828 C 85.7978 5.86532 3.49956 0
M  V30 829 O 85.4858 7.19279 3.59017 0
M  V30 830 H 85.2178 0.386616 0.55453 0
M  V30 831 H 87.7718 1.64633 1.22821 0
M  V30 832 H 86.0018 1.06808 3.71657 0
M  V30 833 H 87.6908 1.48232 3.77865 0
M  V30 834 H 88.4568 3.8316 2.97344 0
M  V30 835 H 84.3358 2.8113 3.65359 0
M  V30 836 H 87.8798 6.22603 3.14661 0
M  V30 837 H 83.7768 5.19691 3.82873 0
M  V30 838 H 84.5448 7.27153 3.75754 0
M  V30 839 N 87.2079 -1.17134 1.05439 0
M  V30 840 C 88.4329 -1.91913 0.786396 0
M  V30 841 C 88.8579 -1.7643 -0.652234 0
M  V30 842 O 88.2159 -1.08372 -1.45345 0
M  V30 843 C 88.2639 -3.40921 1.17497 0
M  V30 844 O 87.3679 -4.11244 0.308589 0
M  V30 845 H 86.7089 -0.598215 0.288158 0
M  V30 846 H 89.2389 -1.48457 1.4079 0
M  V30 847 H 89.2489 -3.91668 1.14281 0
M  V30 848 H 87.9239 -3.5151 2.22292 0
M  V30 849 H 86.5009 -3.70731 0.40157 0
M  V30 850 N 88.686 -0.835752 -1.33615 0
M  V30 851 C 89.616 -0.281739 -2.31794 0
M  V30 852 C 90.597 0.608833 -1.58831 0
M  V30 853 O 91.782 0.533035 -1.86741 0
M  V30 854 C 88.912 0.546612 -3.42971 0
M  V30 855 C 87.866 -0.247904 -4.27281 0
M  V30 856 C 87.192 0.704001 -5.30045 0
M  V30 857 C 88.492 -1.46324 -5.01385 0
M  V30 858 H 90.186 -1.10206 -2.78379 0
M  V30 859 H 87.732 -0.531388 -1.33837 0
M  V30 860 H 89.685 0.944467 -4.1068 0
M  V30 861 H 88.409 1.40011 -2.95067 0
M  V30 862 H 87.068 -0.627281 -3.61194 0
M  V30 863 H 86.716 1.55381 -4.78399 0
M  V30 864 H 86.416 0.176524 -5.87335 0
M  V30 865 H 87.94 1.09944 -6.0062 0
M  V30 866 H 89.354 -1.13871 -5.61877 0
M  V30 867 H 87.751 -1.92728 -5.6831 0
M  V30 868 H 88.821 -2.23467 -4.30338 0
M  V30 869 N 90.1641 1.46063 -0.591896 0
M  V30 870 C 91.4041 2.04228 -0.0838014 0
M  V30 871 C 91.7681 1.45231 1.25587 0
M  V30 872 O 92.9691 1.94653 1.85375 0
M  V30 873 C 91.2401 3.57389 -0.0286282 0
M  V30 874 S 92.7991 4.3678 0.420557 0
M  V30 875 H 89.6171 0.709762 -0.0419319 0
M  V30 876 H 92.2191 1.78983 -0.786465 0
M  V30 877 H 90.9231 3.97843 -1.00743 0
M  V30 878 H 90.4541 3.87185 0.69652 0
M  V30 879 H 92.4691 4.67131 1.67341 0
M  V30 880 N 91.6422 0.330177 1.54103 0
M  V30 881 C 93.0532 -0.15652 1.86043 0
M  V30 882 C 93.4042 -1.51086 1.2517 0
M  V30 883 O 92.5292 -2.09023 0.560217 0
M  V30 884 C 93.1242 -0.290784 3.3755 0
M  V30 885 C 91.6832 -0.721705 3.69416 0
M  V30 886 C 90.8302 0.152622 2.7688 0
M  V30 887 H 93.7812 0.550237 1.48856 0
M  V30 888 H 93.8022 -1.12058 3.63625 0
M  V30 889 H 93.3142 0.695068 3.81825 0
M  V30 890 H 91.4152 -1.71706 3.30678 0
M  V30 891 H 91.5282 -0.520869 4.7626 0
M  V30 892 H 89.8922 -0.372894 2.51956 0
M  V30 893 H 90.6752 1.13536 3.23982 0
M  V30 894 N 93.1203 -1.57491 0.0584922 0
M  V30 895 C 94.3683 -1.92597 -0.612436 0
M  V30 896 C 94.6893 -0.938162 -1.70949 0
M  V30 897 O 93.9593 0.0158301 -1.95894 0
M  V30 898 H 92.5393 -0.710964 -0.229214 0
M  V30 899 H 95.2013 -1.94571 0.113218 0
M  V30 900 H 94.2973 -2.94038 -1.04633 0
M  V30 901 N 94.5984 0.214957 -1.56127 0
M  V30 902 C 96.0144 0.564948 -1.49267 0
M  V30 903 C 96.2144 1.86827 -0.754838 0
M  V30 904 O 95.2704 2.50745 -0.297198 0
M  V30 905 C 96.5834 0.638071 -2.93852 0
M  V30 906 C 98.1314 0.728253 -3.0441 0
M  V30 907 C 98.6064 0.832663 -4.50367 0
M  V30 908 N 100.097 0.896712 -4.54437 0
M  V30 909 C 100.832 0.997324 -5.6466 0
M  V30 910 N 100.328 1.06147 -6.8462 0
M  V30 911 N 102.121 1.03297 -5.52527 0
M  V30 912 H 94.2724 -0.640211 -2.02522 0
M  V30 913 H 96.5354 -0.225507 -0.920788 0
M  V30 914 H 96.2414 -0.250126 -3.50809 0
M  V30 915 H 96.1154 1.49947 -3.46115 0
M  V30 916 H 98.5024 1.60689 -2.47514 0
M  V30 917 H 98.5834 -0.158952 -2.55306 0
M  V30 918 H 98.2274 -0.0415417 -5.07883 0
M  V30 919 H 98.1574 1.73538 -4.97184 0
M  V30 920 H 100.648 0.857188 -3.6805 0
M  V30 921 H 100.961 1.1382 -7.64372 0
M  V30 922 H 99.3064 1.03049 -6.87318 0
M  V30 923 H 102.497 0.979558 -4.57736 0
M  V30 924 H 102.67 1.10793 -6.38458 0
M  V30 925 N 96.0765 1.50051 0.48192 0
M  V30 926 C 96.9865 1.7089 1.60728 0
M  V30 927 C 98.0025 0.591788 1.63627 0
M  V30 928 O 99.1785 0.868817 1.81696 0
M  V30 929 C 96.2435 1.78855 2.97005 0
M  V30 930 C 95.3045 3.02537 3.04581 0
M  V30 931 C 94.5375 3.10112 4.34357 0
M  V30 932 O 94.7605 2.24765 5.24249 0
M  V30 933 O 93.6945 4.02747 4.47301 0
M  V30 934 H 97.5205 2.66264 1.46072 0
M  V30 935 H 95.1055 1.34018 0.660264 0
M  V30 936 H 96.9875 1.86336 3.77964 0
M  V30 937 H 95.6625 0.866628 3.11883 0
M  V30 938 H 94.5695 3.00563 2.22739 0
M  V30 939 H 95.9025 3.94272 2.94636 0
M  V30 940 N 97.5546 -0.734337 1.39446 0
M  V30 941 C 98.4846 -1.86155 1.40955 0
M  V30 942 C 99.4656 -1.67898 0.272827 0
M  V30 943 O 100.651 -1.88207 0.478743 0
M  V30 944 C 97.7806 -3.23912 1.25294 0
M  V30 945 C 96.7346 -3.56808 2.36373 0
M  V30 946 C 96.0606 -4.93508 2.058 0
M  V30 947 C 97.3606 -3.59713 3.78687 0
M  V30 948 H 99.0546 -1.8515 2.35287 0
M  V30 949 H 96.6006 -0.889367 1.13253 0
M  V30 950 H 98.5536 -4.02443 1.2497 0
M  V30 951 H 97.2776 -3.25446 0.274308 0
M  V30 952 H 95.9366 -2.80606 2.35914 0
M  V30 953 H 95.5846 -4.91623 1.06374 0
M  V30 954 H 95.2846 -5.16486 2.80208 0
M  V30 955 H 96.8086 -5.74396 2.07128 0
M  V30 956 H 98.2226 -4.2832 3.81071 0
M  V30 957 H 96.6196 -3.94209 4.52459 0
M  V30 958 H 97.6896 -2.59504 4.09617 0
M  V30 959 N 99.0327 -1.24633 -0.964593 0
M  V30 960 C 100.281 -1.08573 -1.70459 0
M  V30 961 C 100.602 0.375655 -1.91347 0
M  V30 962 O 99.8717 1.26779 -1.49345 0
M  V30 963 H 98.4517 -0.398784 -0.631649 0
M  V30 964 H 101.114 -1.56601 -1.16026 0
M  V30 965 H 100.21 -1.58623 -2.68785 0
M  V30 966 N 100.511 1.16574 -1.06058 0
M  V30 967 C 101.927 1.3904 -0.783585 0
M  V30 968 C 102.127 1.91784 0.618145 0
M  V30 969 O 101.183 2.11511 1.37911 0
M  V30 970 C 102.496 2.37329 -1.84649 0
M  V30 971 C 104.044 2.51018 -1.86973 0
M  V30 972 C 104.519 3.52588 -2.92311 0
M  V30 973 N 106.01 3.60113 -2.91329 0
M  V30 974 C 106.745 4.38486 -3.69482 0
M  V30 975 N 106.241 5.20302 -4.57447 0
M  V30 976 N 108.034 4.33446 -3.57885 0
M  V30 977 H 100.185 0.806725 -1.96483 0
M  V30 978 H 102.448 0.417117 -0.851303 0
M  V30 979 H 102.154 2.05663 -2.85299 0
M  V30 980 H 102.028 3.36946 -1.6955 0
M  V30 981 H 104.415 2.81989 -0.869827 0
M  V30 982 H 104.496 1.51445 -2.0615 0
M  V30 983 H 104.14 3.22354 -3.92492 0
M  V30 984 H 104.07 4.51886 -2.70383 0
M  V30 985 H 106.561 3.01707 -2.27555 0
M  V30 986 H 106.874 5.77311 -5.13743 0
M  V30 987 H 105.219 5.19653 -4.61503 0
M  V30 988 H 108.41 3.68586 -2.88551 0
M  V30 989 H 108.583 4.94279 -4.19037 0
M  V30 990 N 101.989 0.842826 1.3317 0
M  V30 991 C 103.237 0.439577 1.97262 0
M  V30 992 C 103.558 -1.00548 1.67078 0
M  V30 993 O 102.828 -1.70098 0.971779 0
M  V30 994 H 101.408 0.159558 0.72976 0
M  V30 995 H 104.07 1.07665 1.62463 0
M  V30 996 H 103.166 0.574886 3.0676 0
M  V30 997 N 103.467 -1.45747 0.599634 0
M  V30 998 C 104.414 -2.30467 -0.123849 0
M  V30 999 C 105.384 -1.41632 -0.86774 0
M  V30 1000 O 106.569 -1.70568 -0.855056 0
M  V30 1001 C 103.709 -3.26402 -1.12051 0
M  V30 1002 C 102.822 -4.3034 -0.37832 0
M  V30 1003 C 101.957 -5.13389 -1.364 0
M  V30 1004 C 100.996 -6.09061 -0.609171 0
M  V30 1005 N 100.133 -6.84918 -1.54374 0
M  V30 1006 H 104.973 -2.91802 0.604627 0
M  V30 1007 H 102.51 -1.43797 0.309972 0
M  V30 1008 H 104.468 -3.80482 -1.7114 0
M  V30 1009 H 103.098 -2.66839 -1.8165 0
M  V30 1010 H 102.15 -3.78984 0.327929 0
M  V30 1011 H 103.462 -4.98354 0.210997 0
M  V30 1012 H 102.616 -5.7183 -2.02719 0
M  V30 1013 H 101.355 -4.45376 -1.98725 0
M  V30 1014 H 100.36 -5.49758 0.0676979 0
M  V30 1015 H 101.585 -6.79099 0.00891991 0
M  V30 1016 H 99.531 -6.19601 -2.15478 0
M  V30 1017 H 99.448 -7.49254 -1.00766 0
M  V30 1018 H 100.716 -7.47906 -2.19676 0
M  V30 1019 N 104.945 -0.338344 -1.53925 0
M  V30 1020 C 106.192 0.259758 -2.00827 0
M  V30 1021 C 106.52 1.50973 -1.22628 0
M  V30 1022 O 105.775 1.93379 -0.300509 0
M  V30 1023 C 106.074 0.62448 -3.51902 0
M  V30 1024 C 105.74 -0.528006 -4.47798 0
M  V30 1025 C 104.402 -0.844298 -4.73735 0
M  V30 1026 C 106.754 -1.30143 -5.0469 0
M  V30 1027 C 104.082 -1.93648 -5.53821 0
M  V30 1028 C 106.434 -2.38382 -5.85967 0
M  V30 1029 C 105.098 -2.70576 -6.10201 0
M  V30 1030 H 104.368 0.0950523 -0.734878 0
M  V30 1031 H 107.015 -0.465182 -1.85764 0
M  V30 1032 H 105.32 1.43006 -3.64769 0
M  V30 1033 H 107.017 1.09905 -3.85645 0
M  V30 1034 H 103.607 -0.271421 -4.2774 0
M  V30 1035 H 107.791 -1.07033 -4.84621 0
M  V30 1036 H 103.047 -2.19021 -5.70824 0
M  V30 1037 H 107.221 -2.98746 -6.29066 0
M  V30 1038 H 104.848 -3.55333 -6.72044 0
M  V30 1039 N 106.423 1.57458 -0.0668435 0
M  V30 1040 C 107.386 2.11323 0.887422 0
M  V30 1041 C 108.386 1.03618 1.22964 0
M  V30 1042 O 109.576 1.29626 1.16373 0
M  V30 1043 C 106.708 2.61048 2.19242 0
M  V30 1044 H 107.901 2.96942 0.420194 0
M  V30 1045 H 105.454 1.55239 0.181793 0
M  V30 1046 H 106.189 1.78868 2.70512 0
M  V30 1047 H 105.974 3.39769 1.95702 0
M  V30 1048 H 107.464 3.02814 2.87565 0
M  V30 1049 N 107.901 -0.206675 1.56239 0
M  V30 1050 C 109.147 -0.930218 1.80208 0
M  V30 1051 C 109.48 -1.83387 0.638981 0
M  V30 1052 O 108.755 -1.91119 -0.361066 0
M  V30 1053 C 109.038 -1.75641 3.1436 0
M  V30 1054 C 108.891 -0.878257 4.41142 0
M  V30 1055 C 110.21 -2.73129 3.45092 0
M  V30 1056 H 107.329 -0.336742 0.655571 0
M  V30 1057 H 109.971 -0.198222 1.88963 0
M  V30 1058 H 108.121 -2.38048 3.07027 0
M  V30 1059 H 109.793 -0.269787 4.6051 0
M  V30 1060 H 108.036 -0.184385 4.33408 0
M  V30 1061 H 108.707 -1.49106 5.3148 0
M  V30 1062 H 111.183 -2.20856 3.52649 0
M  V30 1063 H 110.059 -3.28028 4.40101 0
M  V30 1064 H 110.32 -3.51606 2.68003 0
M  V30 1065 N 109.379 -1.50304 -0.473955 0
M  V30 1066 C 110.625 -1.61389 -1.22806 0
M  V30 1067 C 110.958 -0.311955 -1.91678 0
M  V30 1068 O 110.233 0.686384 -1.81986 0
M  V30 1069 C 110.516 -2.79219 -2.27396 0
M  V30 1070 C 110.369 -4.19286 -1.62848 0
M  V30 1071 C 111.688 -2.92614 -3.28732 0
M  V30 1072 H 108.807 -0.587399 -0.445119 0
M  V30 1073 H 111.449 -1.82681 -0.522265 0
M  V30 1074 H 109.599 -2.61195 -2.87592 0
M  V30 1075 H 111.271 -4.48892 -1.06271 0
M  V30 1076 H 109.514 -4.23677 -0.931693 0
M  V30 1077 H 110.185 -4.97655 -2.38838 0
M  V30 1078 H 112.661 -3.09105 -2.78556 0
M  V30 1079 H 111.537 -3.76688 -3.99246 0
M  V30 1080 H 111.798 -2.03107 -3.92683 0
M  V30 1081 N 110.857 0.726932 -1.39834 0
M  V30 1082 C 112.273 1.03354 -1.21615 0
M  V30 1083 C 112.473 2.01327 -0.08338 0
M  V30 1084 O 111.529 2.46158 0.56238 0
M  V30 1085 C 112.842 1.58811 -2.55342 0
M  V30 1086 C 114.39 1.70851 -2.62257 0
M  V30 1087 C 114.865 2.29716 -3.96225 0
M  V30 1088 N 116.356 2.37116 -3.97907 0
M  V30 1089 C 117.091 2.83619 -4.98345 0
M  V30 1090 N 116.587 3.29958 -6.09179 0
M  V30 1091 N 118.38 2.82901 -4.8572 0
M  V30 1092 H 110.531 0.0773069 -2.12259 0
M  V30 1093 H 112.794 0.0969102 -0.943034 0
M  V30 1094 H 112.5 0.942855 -3.38826 0
M  V30 1095 H 112.374 2.57502 -2.75632 0
M  V30 1096 H 114.761 2.34497 -1.79152 0
M  V30 1097 H 114.842 0.707913 -2.45809 0
M  V30 1098 H 114.486 1.66696 -4.79765 0
M  V30 1099 H 114.416 3.30469 -4.09997 0
M  V30 1100 H 116.907 2.04374 -3.17868 0
M  V30 1101 H 117.22 3.63976 -6.8172 0
M  V30 1102 H 115.565 3.27946 -6.12761 0
M  V30 1103 H 118.756 2.46027 -3.98231 0
M  V30 1104 H 118.929 3.18827 -5.6414 0
M  V30 1105 N 112.336 1.25143 0.95797 0
M  V30 1106 C 113.283 1.05235 2.05412 0
M  V30 1107 C 114.253 -0.0374561 1.66058 0
M  V30 1108 O 115.438 0.119073 1.90428 0
M  V30 1109 C 112.578 0.673589 3.38462 0
M  V30 1110 C 111.691 1.8379 3.90954 0
M  V30 1111 C 110.826 1.40381 5.12315 0
M  V30 1112 C 109.865 2.53746 5.57027 0
M  V30 1113 N 109.002 2.11136 6.69601 0
M  V30 1114 H 113.842 1.99048 2.21774 0
M  V30 1115 H 111.379 0.991277 1.08683 0
M  V30 1116 H 113.337 0.434964 4.14926 0
M  V30 1117 H 111.967 -0.227554 3.21997 0
M  V30 1118 H 111.019 2.18992 3.11041 0
M  V30 1119 H 112.331 2.68937 4.20089 0
M  V30 1120 H 111.485 1.12464 5.96185 0
M  V30 1121 H 110.224 0.523015 4.84887 0
M  V30 1122 H 109.229 2.82412 4.71724 0
M  V30 1123 H 110.454 3.42398 5.86464 0
M  V30 1124 H 108.4 1.25468 6.4389 0
M  V30 1125 H 108.317 2.89832 6.98236 0
M  V30 1126 H 109.585 1.86385 7.56889 0
M  V30 1127 N 113.814 -1.1601 1.06675 0
M  V30 1128 C 115.054 -1.88304 0.795037 0
M  V30 1129 C 115.418 -1.80062 -0.666466 0
M  V30 1130 O 116.619 -2.47319 -1.05293 0
M  V30 1131 C 114.89 -3.33664 1.28076 0
M  V30 1132 S 116.449 -4.23768 1.13868 0
M  V30 1133 H 113.267 -0.649928 0.288296 0
M  V30 1134 H 115.869 -1.4001 1.36445 0
M  V30 1135 H 114.573 -3.37203 2.33927 0
M  V30 1136 H 114.104 -3.87009 0.706253 0
M  V30 1137 H 116.119 -4.96148 0.0719668 0
M  V30 1138 N 115.292 -0.849877 -1.32721 0
M  V30 1139 C 116.541 -0.447175 -1.96681 0
M  V30 1140 C 116.854 1.00135 -1.68025 0
M  V30 1141 O 118.06 1.50926 -2.25685 0
M  V30 1142 C 116.516 -0.7487 -3.52026 0
M  V30 1143 C 116.124 -2.21264 -3.89546 0
M  V30 1144 C 117.868 -0.413487 -4.22481 0
M  V30 1145 C 115.775 -2.45763 -5.37917 0
M  V30 1146 H 114.705 -0.163486 -0.736063 0
M  V30 1147 H 117.356 -1.03999 -1.51183 0
M  V30 1148 H 115.738 -0.0853727 -3.95908 0
M  V30 1149 H 116.912 -2.91736 -3.56689 0
M  V30 1150 H 115.227 -2.5119 -3.32103 0
M  V30 1151 H 117.824 -0.574017 -5.3161 0
M  V30 1152 H 118.167 0.644492 -4.11281 0
M  V30 1153 H 118.7 -1.03251 -3.84167 0
M  V30 1154 H 115.439 -3.50168 -5.54132 0
M  V30 1155 H 114.959 -1.79864 -5.72197 0
M  V30 1156 H 116.638 -2.29471 -6.0494 0
M  V30 1157 N 116.77 1.45427 -0.607355 0
M  V30 1158 C 117.717 2.3053 0.111625 0
M  V30 1159 C 118.687 1.4209 0.860216 0
M  V30 1160 O 119.872 1.71019 0.845998 0
M  V30 1161 C 117.012 3.26992 1.10319 0
M  V30 1162 C 116.125 4.30535 0.355493 0
M  V30 1163 C 115.26 5.14105 1.33676 0
M  V30 1164 C 114.299 6.09376 0.576862 0
M  V30 1165 N 113.436 6.85727 1.5074 0
M  V30 1166 H 118.276 2.91477 -0.620093 0
M  V30 1167 H 115.813 1.43631 -0.317594 0
M  V30 1168 H 117.771 3.81385 1.6912 0
M  V30 1169 H 116.401 2.67799 1.80232 0
M  V30 1170 H 115.453 3.78805 -0.348023 0
M  V30 1171 H 116.765 4.98235 -0.237423 0
M  V30 1172 H 115.919 5.72897 1.99684 0
M  V30 1173 H 114.658 4.46423 1.9636 0
M  V30 1174 H 113.663 5.49715 -0.0968519 0
M  V30 1175 H 114.888 6.79085 -0.0449341 0
M  V30 1176 H 112.834 6.20735 2.12189 0
M  V30 1177 H 112.751 7.49778 0.967913 0
M  V30 1178 H 114.019 7.4906 2.15706 0
M  V30 1179 N 118.248 0.346503 1.53744 0
M  V30 1180 C 119.195 -0.508914 2.25119 0
M  V30 1181 C 120.165 -1.09315 1.25058 0
M  V30 1182 O 121.35 -1.12921 1.53797 0
M  V30 1183 C 118.49 -1.65246 3.02965 0
M  V30 1184 C 117.603 -1.09525 4.17886 0
M  V30 1185 C 116.738 -2.20634 4.83212 0
M  V30 1186 C 115.777 -1.62279 5.90196 0
M  V30 1187 N 114.914 -2.67143 6.49291 0
M  V30 1188 H 119.754 0.106283 2.9781 0
M  V30 1189 H 117.291 0.0642227 1.4696 0
M  V30 1190 H 119.249 -2.32574 3.4636 0
M  V30 1191 H 117.879 -2.2386 2.32565 0
M  V30 1192 H 116.931 -0.312818 3.79112 0
M  V30 1193 H 118.243 -0.628444 4.94825 0
M  V30 1194 H 117.397 -2.95821 5.29693 0
M  V30 1195 H 116.136 -2.70659 4.05703 0
M  V30 1196 H 115.141 -0.855989 5.43096 0
M  V30 1197 H 116.366 -1.13102 6.69615 0
M  V30 1198 H 114.312 -3.16417 5.74645 0
M  V30 1199 H 114.229 -2.25093 7.21713 0
M  V30 1200 H 115.497 -3.4209 7.00425 0
M  V30 1201 N 119.726 -1.57421 0.075193 0
M  V30 1202 C 121.003 -1.85029 -0.634329 0
M  V30 1203 C 121.383 -0.968305 -1.87582 0
M  V30 1204 O 120.731 -0.0354749 -2.28472 0
M  V30 1205 C 120.941 -3.35286 -0.968742 0
M  V30 1206 C 122.289 -4.02875 -1.34077 0
M  V30 1207 O 123.313 -3.40051 -1.06037 0
M  V30 1208 O 122.172 -5.13691 -1.86506 0
M  V30 1209 H 119.266 -0.7645 -0.315387 0
M  V30 1210 H 121.812 -1.69366 0.106382 0
M  V30 1211 H 120.584 -3.91203 -0.0871376 0
M  V30 1212 H 120.207 -3.56223 -1.7661 0
M  V30 1213 N 121.204 0.198386 -1.56346 0
M  V30 1214 C 122.429 0.939682 -1.84891 0
M  V30 1215 C 122.854 1.76202 -0.658369 0
M  V30 1216 O 122.212 1.76993 0.392851 0
M  V30 1217 C 122.26 1.81428 -3.11635 0
M  V30 1218 O 121.364 2.91265 -2.91956 0
M  V30 1219 H 120.705 0.264807 -0.608912 0
M  V30 1220 H 123.235 0.204695 -2.03573 0
M  V30 1221 H 123.245 2.21958 -3.42343 0
M  V30 1222 H 121.92 1.21004 -3.97908 0
M  V30 1223 H 120.497 2.54514 -2.72538 0
M  V30 1224 N 122.682 1.50554 0.465978 0
M  V30 1225 C 123.93 1.61479 1.21528 0
M  V30 1226 C 124.251 0.319596 1.92363 0
M  V30 1227 O 123.521 -0.663194 1.84333 0
M  V30 1228 H 122.101 0.595055 0.451573 0
M  V30 1229 H 124.763 1.87355 0.53704 0
M  V30 1230 H 123.859 2.42846 1.96042 0
M  V30 1231 N 124.16 -0.719506 1.40217 0
M  V30 1232 C 125.107 -1.83359 1.40172 0
M  V30 1233 C 126.077 -1.64065 0.259206 0
M  V30 1234 O 127.262 -1.85254 0.456677 0
M  V30 1235 C 124.402 -3.2103 1.26624 0
M  V30 1236 C 123.515 -3.51923 2.50548 0
M  V30 1237 C 122.65 -4.79079 2.29471 0
M  V30 1238 C 121.689 -5.02863 3.48992 0
M  V30 1239 N 120.826 -6.2123 3.27135 0
M  V30 1240 H 125.666 -1.82733 2.35399 0
M  V30 1241 H 123.203 -0.892688 1.16917 0
M  V30 1242 H 125.161 -4.00524 1.16776 0
M  V30 1243 H 123.791 -3.20895 0.350176 0
M  V30 1244 H 122.843 -2.67014 2.70939 0
M  V30 1245 H 124.155 -3.6541 3.39525 0
M  V30 1246 H 123.309 -5.66582 2.16955 0
M  V30 1247 H 122.048 -4.67794 1.37913 0
M  V30 1248 H 121.053 -4.13816 3.6199 0
M  V30 1249 H 122.278 -5.16023 4.41472 0
M  V30 1250 H 120.224 -6.11204 2.38256 0
M  V30 1251 H 120.141 -6.35375 4.09675 0
M  V30 1252 H 121.409 -7.11532 3.18344 0
M  V30 1253 N 125.638 -1.25649 -0.95132 0
M  V30 1254 C 126.548 -1.08073 -2.08224 0
M  V30 1255 C 127.564 -0.0169666 -1.73992 0
M  V30 1256 O 128.74 -0.218593 -2.0021 0
M  V30 1257 C 125.805 -0.704922 -3.39458 0
M  V30 1258 C 124.866 -1.84699 -3.87537 0
M  V30 1259 C 124.099 -1.48902 -5.12508 0
M  V30 1260 O 124.322 -0.386156 -5.69091 0
M  V30 1261 O 123.256 -2.32033 -5.55378 0
M  V30 1262 H 127.082 -2.02924 -2.25954 0
M  V30 1263 H 124.667 -1.04618 -1.06656 0
M  V30 1264 H 126.549 -0.507609 -4.18332 0
M  V30 1265 H 125.224 0.214291 -3.2299 0
M  V30 1266 H 124.131 -2.09919 -3.09653 0
M  V30 1267 H 125.464 -2.74557 -4.08509 0
M  V30 1268 N 127.117 1.15442 -1.07289 0
M  V30 1269 C 128.364 1.86213 -0.795668 0
M  V30 1270 C 128.692 1.82291 0.678238 0
M  V30 1271 O 127.947 1.24057 1.51355 0
M  V30 1272 C 128.246 3.3489 -1.24834 0
M  V30 1273 C 127.912 3.59007 -2.72809 0
M  V30 1274 C 126.574 3.65298 -3.13227 0
M  V30 1275 C 128.926 3.68762 -3.68326 0
M  V30 1276 C 126.254 3.78854 -4.4798 0
M  V30 1277 C 128.606 3.83842 -5.0284 0
M  V30 1278 C 127.27 3.88378 -5.4288 0
M  V30 1279 H 126.54 0.681403 -0.291155 0
M  V30 1280 H 129.187 1.36435 -1.34379 0
M  V30 1281 H 127.492 3.8687 -0.619595 0
M  V30 1282 H 129.189 3.88052 -1.01076 0
M  V30 1283 H 125.779 3.5475 -2.40521 0
M  V30 1284 H 129.963 3.63202 -3.38227 0
M  V30 1285 H 125.219 3.80623 -4.78472 0
M  V30 1286 H 129.393 3.90332 -5.76727 0
M  V30 1287 H 127.02 3.98635 -6.47298 0
M  V30 1288 N 128.595 0.856903 1.32268 0
M  V30 1289 C 129.558 0.308171 2.27119 0
M  V30 1290 C 130.558 -0.533421 1.51695 0
M  V30 1291 O 131.748 -0.344607 1.70757 0
M  V30 1292 C 128.88 -0.563757 3.36206 0
M  V30 1293 H 130.073 1.14535 2.77167 0
M  V30 1294 H 127.626 0.631421 1.42978 0
M  V30 1295 H 128.361 -1.42266 2.91429 0
M  V30 1296 H 128.146 0.0386749 3.92081 0
M  V30 1297 H 129.636 -0.940386 4.06874 0
M  V30 1298 N 130.073 -1.45103 0.615059 0
M  V30 1299 C 131.036 -2.29025 -0.0895485 0
M  V30 1300 C 132.036 -1.40174 -0.787906 0
M  V30 1301 O 133.226 -1.62217 -0.634933 0
M  V30 1302 C 130.358 -3.21376 -1.13711 0
M  V30 1303 H 131.551 -2.92807 0.648382 0
M  V30 1304 H 129.104 -1.51749 0.374444 0
M  V30 1305 H 129.839 -2.6241 -1.90556 0
M  V30 1306 H 129.624 -3.86834 -0.640475 0
M  V30 1307 H 131.114 -3.84459 -1.63036 0
M  V30 1308 N 131.551 -0.354651 -1.53558 0
M  V30 1309 C 132.498 0.496968 -2.25386 0
M  V30 1310 C 133.468 1.0865 -1.25636 0
M  V30 1311 O 134.653 1.12104 -1.54394 0
M  V30 1312 C 131.793 1.63637 -3.03837 0
M  V30 1313 C 130.906 1.07307 -4.18461 0
M  V30 1314 C 130.041 2.18068 -4.84376 0
M  V30 1315 C 129.08 1.59147 -5.91049 0
M  V30 1316 N 128.217 2.63695 -6.50699 0
M  V30 1317 H 133.057 -0.122075 -2.9775 0
M  V30 1318 H 130.594 -0.0720154 -1.46924 0
M  V30 1319 H 132.552 2.30734 -3.47589 0
M  V30 1320 H 131.182 2.22623 -2.33749 0
M  V30 1321 H 130.234 0.292708 -3.79272 0
M  V30 1322 H 131.546 0.602193 -4.95152 0
M  V30 1323 H 130.7 2.93007 -5.31255 0
M  V30 1324 H 129.439 2.68504 -4.07133 0
M  V30 1325 H 128.444 0.827175 -5.43542 0
M  V30 1326 H 129.669 1.09549 -6.70206 0
M  V30 1327 H 127.615 3.13365 -5.76315 0
M  V30 1328 H 127.532 2.21263 -7.22896 0
M  V30 1329 H 128.8 3.3837 -7.02229 0
M  V30 1330 N 133.029 1.57378 -0.0835403 0
M  V30 1331 C 134.276 1.9393 0.58287 0
M  V30 1332 C 134.604 0.964455 1.68904 0
M  V30 1333 O 133.859 -0.0179474 1.95692 0
M  V30 1334 C 134.158 3.37063 1.1884 0
M  V30 1335 C 133.824 4.50424 0.207194 0
M  V30 1336 C 132.486 4.81159 -0.0627115 0
M  V30 1337 C 134.838 5.19136 -0.463426 0
M  V30 1338 C 132.166 5.77939 -1.01012 0
M  V30 1339 C 134.518 6.16931 -1.39924 0
M  V30 1340 C 133.182 6.46078 -1.67749 0
M  V30 1341 H 132.452 0.70964 0.213287 0
M  V30 1342 H 135.099 1.90856 -0.156916 0
M  V30 1343 H 133.404 3.3666 2.00418 0
M  V30 1344 H 135.101 3.6264 1.71153 0
M  V30 1345 H 131.691 4.2646 0.427747 0
M  V30 1346 H 135.875 4.95576 -0.268034 0
M  V30 1347 H 131.131 5.98842 -1.23283 0
M  V30 1348 H 135.305 6.69273 -1.92476 0
M  V30 1349 H 132.932 7.2088 -2.41321 0
M  V30 1350 N 134.507 -0.190092 1.56449 0
M  V30 1351 C 135.44 -1.26375 1.90012 0
M  V30 1352 C 136.418 -1.43705 0.760765 0
M  V30 1353 O 137.602 -1.59014 1.01226 0
M  V30 1354 C 134.729 -2.62962 2.13468 0
M  V30 1355 C 133.775 -2.62474 3.36169 0
M  V30 1356 S 134.608 -2.13412 4.91137 0
M  V30 1357 C 135.764 -3.51812 5.17667 0
M  V30 1358 H 135.997 -0.977181 2.80782 0
M  V30 1359 H 133.53 -0.393814 1.49293 0
M  V30 1360 H 135.488 -3.41583 2.27664 0
M  V30 1361 H 134.149 -2.88828 1.23439 0
M  V30 1362 H 133.342 -3.62918 3.49723 0
M  V30 1363 H 132.944 -1.91937 3.20992 0
M  V30 1364 H 135.236 -4.47706 5.08494 0
M  V30 1365 H 136.179 -3.43148 6.19399 0
M  V30 1366 H 136.587 -3.46956 4.45288 0
M  V30 1367 N 135.985 -1.50799 -0.457987 0
M  V30 1368 C 137.401 -1.38515 -0.792819 0
M  V30 1369 C 137.601 -0.451409 -1.96379 0
M  V30 1370 O 136.657 0.10112 -2.52297 0
M  V30 1371 C 137.97 -2.80149 -1.09258 0
M  V30 1372 C 139.518 -2.89156 -1.19825 0
M  V30 1373 C 139.993 -4.31651 -1.53106 0
M  V30 1374 N 141.484 -4.34662 -1.60072 0
M  V30 1375 C 142.219 -5.41928 -1.87354 0
M  V30 1376 N 141.715 -6.59384 -2.12568 0
M  V30 1377 N 143.508 -5.29385 -1.88965 0
M  V30 1378 H 135.659 -2.10073 0.313511 0
M  V30 1379 H 137.922 -0.944803 0.0777862 0
M  V30 1380 H 137.628 -3.50374 -0.305084 0
M  V30 1381 H 137.502 -3.18204 -2.02549 0
M  V30 1382 H 139.889 -2.19141 -1.97639 0
M  V30 1383 H 139.97 -2.54626 -0.244821 0
M  V30 1384 H 139.614 -5.02208 -0.758266 0
M  V30 1385 H 139.544 -4.63678 -2.49621 0
M  V30 1386 H 142.035 -3.49973 -1.42573 0
M  V30 1387 H 142.348 -7.36934 -2.32696 0
M  V30 1388 H 140.693 -6.62535 -2.09933 0
M  V30 1389 H 143.884 -4.36616 -1.68772 0
M  V30 1390 H 144.057 -6.13066 -2.09891 0
M  V30 1391 N 137.463 0.71206 -1.40597 0
M  V30 1392 C 138.41 1.82613 -1.41142 0
M  V30 1393 C 139.38 1.63925 -0.267903 0
M  V30 1394 O 140.565 1.85009 -0.466495 0
M  V30 1395 C 137.705 3.20354 -1.28324 0
M  V30 1396 C 136.818 3.50589 -2.52411 0
M  V30 1397 C 135.953 4.77855 -2.32009 0
M  V30 1398 C 134.992 5.01005 -3.51654 0
M  V30 1399 N 134.129 6.19487 -3.30425 0
M  V30 1400 H 138.969 1.81482 -2.36365 0
M  V30 1401 H 136.506 0.886475 -1.17388 0
M  V30 1402 H 138.464 3.99899 -1.18899 0
M  V30 1403 H 137.094 3.20705 -0.367189 0
M  V30 1404 H 136.146 2.65573 -2.72351 0
M  V30 1405 H 137.458 3.63604 -3.41458 0
M  V30 1406 H 136.612 5.65424 -2.19956 0
M  V30 1407 H 135.351 4.67056 -1.40392 0
M  V30 1408 H 134.356 4.1189 -3.64179 0
M  V30 1409 H 135.581 5.13674 -4.44202 0
M  V30 1410 H 133.527 6.09932 -2.41494 0
M  V30 1411 H 133.444 6.33194 -4.13039 0
M  V30 1412 H 134.712 7.09834 -3.22113 0
M  V30 1413 N 138.941 1.26152 0.944643 0
M  V30 1414 C 140.357 1.03189 1.21754 0
M  V30 1415 C 140.557 -0.245112 2.00004 0
M  V30 1416 O 139.613 -0.955176 2.33736 0
M  V30 1417 C 140.926 2.26119 1.98219 0
M  V30 1418 C 142.474 2.30984 2.11224 0
M  V30 1419 C 142.949 3.53597 2.91089 0
M  V30 1420 N 144.44 3.54053 2.98664 0
M  V30 1421 C 145.175 4.45593 3.60881 0
M  V30 1422 N 144.671 5.47416 4.24626 0
M  V30 1423 N 146.464 4.33252 3.58119 0
M  V30 1424 H 138.615 2.08177 0.421437 0
M  V30 1425 H 140.878 0.914723 0.248969 0
M  V30 1426 H 140.584 3.18984 1.48128 0
M  V30 1427 H 140.458 2.3009 2.98895 0
M  V30 1428 H 142.845 1.38635 2.60508 0
M  V30 1429 H 142.926 2.31026 1.09821 0
M  V30 1430 H 142.57 4.46273 2.42493 0
M  V30 1431 H 142.5 3.50802 3.92741 0
M  V30 1432 H 144.991 2.80403 2.53343 0
M  V30 1433 H 145.304 6.13459 4.69987 0
M  V30 1434 H 143.649 5.51278 4.23223 0
M  V30 1435 H 146.84 3.52924 3.0751 0
M  V30 1436 H 147.013 5.04786 4.06319 0
M  V30 1437 N 140.419 -1.14872 1.07899 0
M  V30 1438 C 141.835 -1.37776 0.805606 0
M  V30 1439 C 142.035 -1.92743 -0.587555 0
M  V30 1440 O 141.091 -2.13678 -1.34528 0
M  V30 1441 C 142.404 -2.34361 1.88402 0
M  V30 1442 C 143.952 -2.48012 1.90942 0
M  V30 1443 C 144.427 -3.47893 2.97883 0
M  V30 1444 N 145.918 -3.55433 2.97021 0
M  V30 1445 C 146.653 -4.32553 3.76412 0
M  V30 1446 N 146.149 -5.12959 4.65666 0
M  V30 1447 N 147.942 -4.27697 3.64735 0
M  V30 1448 H 140.093 -0.775365 1.97742 0
M  V30 1449 H 142.356 -0.403521 0.857831 0
M  V30 1450 H 142.062 -2.01098 2.88535 0
M  V30 1451 H 141.936 -3.34206 1.74889 0
M  V30 1452 H 144.323 -2.8057 0.914579 0
M  V30 1453 H 144.404 -1.48147 2.08534 0
M  V30 1454 H 144.048 -3.16069 3.97571 0
M  V30 1455 H 143.978 -4.47527 2.77538 0
M  V30 1456 H 146.469 -2.98048 2.32326 0
M  V30 1457 H 146.782 -5.69065 5.22862 0
M  V30 1458 H 145.127 -5.12245 4.69712 0
M  V30 1459 H 148.318 -3.63949 2.94378 0
M  V30 1460 H 148.491 -4.8755 4.26848 0
M  V30 1461 N 141.898 -0.863906 -1.31812 0
M  V30 1462 C 142.845 -0.313303 -2.28664 0
M  V30 1463 C 143.815 0.584868 -1.55462 0
M  V30 1464 O 145 0.517805 -1.83639 0
M  V30 1465 C 142.14 0.48441 -3.41683 0
M  V30 1466 C 141.253 -0.440594 -4.29747 0
M  V30 1467 C 140.388 0.370652 -5.29905 0
M  V30 1468 C 139.427 -0.551164 -6.09613 0
M  V30 1469 N 138.564 0.223462 -7.01744 0
M  V30 1470 H 143.404 -1.14444 -2.75148 0
M  V30 1471 H 140.941 -0.575769 -1.35364 0
M  V30 1472 H 142.899 0.962627 -4.05943 0
M  V30 1473 H 141.529 1.28029 -2.96325 0
M  V30 1474 H 140.581 -1.03724 -3.65986 0
M  V30 1475 H 141.893 -1.14767 -4.85417 0
M  V30 1476 H 141.047 0.911638 -5.99812 0
M  V30 1477 H 139.786 1.11105 -4.74876 0
M  V30 1478 H 138.791 -1.10396 -5.38603 0
M  V30 1479 H 140.016 -1.29032 -6.66729 0
M  V30 1480 H 137.962 0.946787 -6.49132 0
M  V30 1481 H 137.879 -0.424399 -7.54808 0
M  V30 1482 H 139.147 0.745876 -7.75923 0
M  V30 1483 N 143.376 1.44774 -0.622745 0
M  V30 1484 C 144.624 2.01721 -0.123655 0
M  V30 1485 C 144.945 1.49172 1.25589 0
M  V30 1486 O 144.215 0.691974 1.83272 0
M  V30 1487 H 142.795 0.745777 -0.0427225 0
M  V30 1488 H 145.457 1.77382 -0.807559 0
M  V30 1489 H 144.553 3.11984 -0.0849534 0
M  V30 1490 N 144.854 0.36279 1.53368 0
M  V30 1491 C 145.786 -0.519668 2.23231 0
M  V30 1492 C 146.799 -1.04844 1.24546 0
M  V30 1493 O 147.988 -0.955296 1.50786 0
M  V30 1494 C 145.088 -1.72995 2.9142 0
M  V30 1495 C 144.261 -1.33316 4.16588 0
M  V30 1496 C 143.32 -2.40521 4.68013 0
M  V30 1497 O 142.346 -2.03027 5.3176 0
M  V30 1498 N 143.548 -3.72065 4.45587 0
M  V30 1499 H 146.313 0.078751 2.99597 0
M  V30 1500 H 143.874 0.187833 1.60807 0
M  V30 1501 H 145.866 -2.44184 3.22733 0
M  V30 1502 H 144.436 -2.2353 2.18525 0
M  V30 1503 H 143.656 -0.451236 3.91609 0
M  V30 1504 H 144.944 -1.04432 4.97967 0
M  V30 1505 H 144.342 -4.05304 3.94646 0
M  V30 1506 H 142.899 -4.39366 4.81457 0
M  V30 1507 N 146.332 -1.57332 0.0918853 0
M  V30 1508 C 147.609 -1.85691 -0.614668 0
M  V30 1509 C 147.989 -0.988146 -1.86545 0
M  V30 1510 O 147.337 -0.0597055 -2.28422 0
M  V30 1511 C 147.547 -3.36294 -0.933126 0
M  V30 1512 C 148.895 -4.04275 -1.29796 0
M  V30 1513 O 149.919 -3.41157 -1.02424 0
M  V30 1514 O 148.778 -5.1564 -1.81047 0
M  V30 1515 H 145.872 -0.767802 -0.307261 0
M  V30 1516 H 148.418 -1.69244 0.12434 0
M  V30 1517 H 147.19 -3.91273 -0.0456404 0
M  V30 1518 H 146.813 -3.58076 -1.72822 0
M  V30 1519 N 147.81 0.181792 -1.56548 0
M  V30 1520 C 149.05 0.906711 -1.83189 0
M  V30 1521 C 149.414 1.79882 -0.671312 0
M  V30 1522 O 150.615 2.56054 -0.81792 0
M  V30 1523 C 148.886 1.69023 -3.14906 0
M  V30 1524 S 150.445 2.46535 -3.62996 0
M  V30 1525 H 147.263 0.303877 -0.642791 0
M  V30 1526 H 149.865 0.169107 -1.94767 0
M  V30 1527 H 148.569 1.02571 -3.97376 0
M  V30 1528 H 148.1 2.46941 -3.06241 0
M  V30 1529 H 150.115 3.71014 -3.29489 0
M  V30 1530 N 149.288 1.51039 0.449983 0
M  V30 1531 C 150.704 1.38934 0.785462 0
M  V30 1532 C 150.904 0.461817 1.96136 0
M  V30 1533 O 149.96 -0.0877389 2.52348 0
M  V30 1534 C 151.273 2.80724 1.0777 0
M  V30 1535 C 152.821 2.89787 1.1829 0
M  V30 1536 C 153.296 4.32457 1.50815 0
M  V30 1537 N 154.787 4.35505 1.57764 0
M  V30 1538 C 155.522 5.42914 1.84477 0
M  V30 1539 N 155.018 6.60502 2.09068 0
M  V30 1540 N 156.811 5.3038 1.86155 0
M  V30 1541 H 148.962 2.09904 -0.324647 0
M  V30 1542 H 151.225 0.944378 -0.0827957 0
M  V30 1543 H 150.931 3.50531 0.286498 0
M  V30 1544 H 150.805 3.19273 2.00859 0
M  V30 1545 H 153.192 2.20186 1.96474 0
M  V30 1546 H 153.273 2.54752 0.231314 0
M  V30 1547 H 152.917 5.02603 0.731622 0
M  V30 1548 H 152.847 4.64995 2.47158 0
M  V30 1549 H 155.338 3.50724 1.40715 0
M  V30 1550 H 155.651 7.38158 2.28785 0
M  V30 1551 H 153.996 6.63639 2.06416 0
M  V30 1552 H 157.187 4.37505 1.66454 0
M  V30 1553 H 157.36 6.1417 2.06637 0
M  V30 1554 N 150.766 -0.704594 1.40972 0
M  V30 1555 C 151.699 -1.82861 1.36518 0
M  V30 1556 C 152.677 -1.6091 0.23382 0
M  V30 1557 O 153.861 -1.83778 0.419271 0
M  V30 1558 C 150.988 -3.1939 1.12729 0
M  V30 1559 C 150.034 -3.60148 2.28463 0
M  V30 1560 S 150.867 -3.65994 3.90907 0
M  V30 1561 C 152.023 -5.05264 3.69403 0
M  V30 1562 H 152.256 -1.86361 2.3164 0
M  V30 1563 H 149.789 -0.872439 1.27389 0
M  V30 1564 H 151.747 -3.98211 0.996893 0
M  V30 1565 H 150.408 -3.1351 0.192427 0
M  V30 1566 H 149.601 -4.59309 2.07489 0
M  V30 1567 H 149.203 -2.88612 2.37863 0
M  V30 1568 H 151.495 -5.92504 3.28551 0
M  V30 1569 H 152.438 -5.31278 4.68134 0
M  V30 1570 H 152.846 -4.76377 3.02862 0
M  V30 1571 N 152.244 -1.26651 -0.937939 0
M  V30 1572 C 153.154 -1.10276 -2.07066 0
M  V30 1573 C 154.17 -0.0354197 -1.73964 0
M  V30 1574 O 155.346 -0.239816 -1.99967 0
M  V30 1575 C 152.411 -0.740887 -3.38691 0
M  V30 1576 C 151.472 -1.88799 -3.85556 0
M  V30 1577 C 150.705 -1.54329 -5.10899 0
M  V30 1578 O 150.928 -0.446494 -5.6865 0
M  V30 1579 O 149.862 -2.37911 -5.52885 0
M  V30 1580 H 153.688 -2.05309 -2.23789 0
M  V30 1581 H 151.273 -1.05743 -1.0554 0
M  V30 1582 H 153.155 -0.55195 -4.1777 0
M  V30 1583 H 151.83 0.180022 -3.23199 0
M  V30 1584 H 150.737 -2.13191 -3.07409 0
M  V30 1585 H 152.07 -2.78874 -4.05574 0
M  V30 1586 N 153.722 1.14298 -1.08507 0
M  V30 1587 C 154.971 1.84708 -0.810305 0
M  V30 1588 C 155.284 1.83903 0.666271 0
M  V30 1589 O 156.49 2.50112 1.05624 0
M  V30 1590 C 154.946 3.31572 -1.39957 0
M  V30 1591 C 154.554 3.40791 -2.90801 0
M  V30 1592 C 156.298 4.07087 -1.20334 0
M  V30 1593 C 154.205 4.81872 -3.4286 0
M  V30 1594 H 153.135 0.691985 -0.299454 0
M  V30 1595 H 155.786 1.28841 -1.30661 0
M  V30 1596 H 154.168 3.87183 -0.830976 0
M  V30 1597 H 155.342 2.95225 -3.53806 0
M  V30 1598 H 153.657 2.78732 -3.0935 0
M  V30 1599 H 156.254 5.11225 -1.56693 0
M  V30 1600 H 156.597 4.16054 -0.143237 0
M  V30 1601 H 157.13 3.57779 -1.73893 0
M  V30 1602 H 153.869 4.78094 -4.48449 0
M  V30 1603 H 153.389 5.27972 -2.84615 0
M  V30 1604 H 155.068 5.50765 -3.39509 0
M  V30 1605 N 155.201 0.870884 1.31352 0
M  V30 1606 C 156.45 0.478408 1.95944 0
M  V30 1607 C 156.763 -0.974493 1.69597 0
M  V30 1608 O 157.969 -1.47316 2.28058 0
M  V30 1609 C 156.425 0.804609 3.50791 0
M  V30 1610 C 156.033 2.27433 3.85977 0
M  V30 1611 C 157.777 0.480648 4.2177 0
M  V30 1612 C 155.684 2.5429 5.33939 0
M  V30 1613 H 154.614 0.175175 0.733369 0
M  V30 1614 H 157.265 1.06391 1.4951 0
M  V30 1615 H 155.647 0.148347 3.95722 0
M  V30 1616 H 156.821 2.97373 3.52002 0
M  V30 1617 H 155.136 2.56442 3.28065 0
M  V30 1618 H 157.733 0.658519 5.30629 0
M  V30 1619 H 158.076 -0.578979 4.12254 0
M  V30 1620 H 158.609 1.09349 3.82476 0
M  V30 1621 H 155.348 3.58939 5.48491 0
M  V30 1622 H 154.868 1.88945 5.69263 0
M  V30 1623 H 156.547 2.39066 6.01212 0
M  V30 1624 N 156.679 -1.44442 0.630414 0
M  V30 1625 C 157.629 -2.27794 -0.0968103 0
M  V30 1626 C 158.613 -1.38624 -0.816834 0
M  V30 1627 O 159.805 -1.62438 -0.70306 0
M  V30 1628 C 156.934 -3.25929 -1.07819 0
M  V30 1629 C 156.02 -4.22588 -0.357826 0
M  V30 1630 N 156.411 -5.0207 0.613169 0
M  V30 1631 C 154.709 -4.41914 -0.602365 0
M  V30 1632 C 155.41 -5.72351 1.03871 0
M  V30 1633 N 154.386 -5.42287 0.377642 0
M  V30 1634 H 158.188 -2.86653 0.648621 0
M  V30 1635 H 155.702 -1.55871 0.455862 0
M  V30 1636 H 157.699 -3.84399 -1.61378 0
M  V30 1637 H 156.359 -2.68631 -1.82393 0
M  V30 1638 H 157.37 -5.08331 0.990947 0
M  V30 1639 H 154.047 -3.95714 -1.33103 0
M  V30 1640 H 155.437 -6.4619 1.84086 0
M  V30 1641 N 158.157 -0.370918 -1.53173 0
M  V30 1642 C 159.067 0.480823 -2.2962 0
M  V30 1643 C 160.083 1.08789 -1.35798 0
M  V30 1644 O 161.259 1.09768 -1.68858 0
M  V30 1645 C 158.324 1.60227 -3.07454 0
M  V30 1646 C 157.385 1.0222 -4.16953 0
M  V30 1647 C 156.618 2.0902 -4.91066 0
M  V30 1648 O 156.841 3.30222 -4.65091 0
M  V30 1649 O 155.775 1.71778 -5.76867 0
M  V30 1650 H 159.601 -0.141421 -3.03371 0
M  V30 1651 H 157.186 -0.135146 -1.48787 0
M  V30 1652 H 159.068 2.25417 -3.56041 0
M  V30 1653 H 157.743 2.20982 -2.36535 0
M  V30 1654 H 156.65 0.334064 -3.72605 0
M  V30 1655 H 157.983 0.459131 -4.90054 0
M  V30 1656 N 159.635 1.57281 -0.100228 0
M  V30 1657 C 160.884 1.93713 0.561984 0
M  V30 1658 C 161.197 0.984492 1.69018 0
M  V30 1659 O 162.403 1.24273 2.41389 0
M  V30 1660 C 160.859 3.4421 1.05106 0
M  V30 1661 C 160.467 4.47975 -0.0476628 0
M  V30 1662 C 162.211 3.89595 1.68571 0
M  V30 1663 C 160.118 5.89631 0.457055 0
M  V30 1664 H 159.048 0.723082 0.2137 0
M  V30 1665 H 161.699 1.82644 -0.177057 0
M  V30 1666 H 160.081 3.50449 1.84395 0
M  V30 1667 H 161.255 4.53385 -0.823333 0
M  V30 1668 H 159.57 4.1223 -0.587816 0
M  V30 1669 H 162.167 4.92832 2.07414 0
M  V30 1670 H 162.51 3.28526 2.55688 0
M  V30 1671 H 163.043 3.86078 0.958562 0
M  V30 1672 H 159.782 6.54411 -0.377616 0
M  V30 1673 H 159.302 5.87681 1.19962 0
M  V30 1674 H 160.981 6.40363 0.92437 0
M  V30 1675 N 161.113 -0.173488 1.56642 0
M  V30 1676 C 162.076 -1.19859 1.95362 0
M  V30 1677 C 163.076 -1.37296 0.83704 0
M  V30 1678 O 164.266 -1.34739 1.10413 0
M  V30 1679 C 161.398 -2.56405 2.24654 0
M  V30 1680 H 162.591 -0.867062 2.87092 0
M  V30 1681 H 160.144 -0.415853 1.50666 0
M  V30 1682 H 160.879 -2.94576 1.35631 0
M  V30 1683 H 160.664 -2.45115 3.06041 0
M  V30 1684 H 162.154 -3.30287 2.5554 0
M  V30 1685 N 162.591 -1.51276 -0.441967 0
M  V30 1686 C 163.837 -1.63958 -1.19355 0
M  V30 1687 C 164.17 -0.352543 -1.90973 0
M  V30 1688 O 163.445 0.647627 -1.83401 0
M  V30 1689 C 163.728 -2.83979 -2.21422 0
M  V30 1690 C 163.581 -4.22646 -1.53918 0
M  V30 1691 C 164.9 -2.99521 -3.22451 0
M  V30 1692 H 162.019 -0.596709 -0.432559 0
M  V30 1693 H 164.661 -1.83748 -0.483398 0
M  V30 1694 H 162.811 -2.67237 -2.81987 0
M  V30 1695 H 164.483 -4.51045 -0.967256 0
M  V30 1696 H 162.726 -4.25558 -0.841615 0
M  V30 1697 H 163.397 -5.02609 -2.28229 0
M  V30 1698 H 165.873 -3.14944 -2.71937 0
M  V30 1699 H 164.749 -3.85072 -3.91166 0
M  V30 1700 H 165.01 -2.11391 -3.88287 0
M  V30 1701 N 164.069 0.697108 -1.41344 0
M  V30 1702 C 164.999 1.82353 -1.45841 0
M  V30 1703 C 165.98 1.67115 -0.317247 0
M  V30 1704 O 167.165 1.86871 -0.528474 0
M  V30 1705 C 164.295 3.20476 -1.33838 0
M  V30 1706 C 163.249 3.50415 -2.4575 0
M  V30 1707 C 162.575 4.87878 -2.18813 0
M  V30 1708 C 163.875 3.49546 -3.88091 0
M  V30 1709 H 165.569 1.78846 -2.40113 0
M  V30 1710 H 163.115 0.859028 -1.15571 0
M  V30 1711 H 165.068 3.98988 -1.35596 0
M  V30 1712 H 163.792 3.24604 -0.360498 0
M  V30 1713 H 162.451 2.74253 -2.43271 0
M  V30 1714 H 162.099 4.8863 -1.19371 0
M  V30 1715 H 161.799 5.08875 -2.93803 0
M  V30 1716 H 163.323 5.68702 -2.22284 0
M  V30 1717 H 164.737 4.18066 -3.92293 0
M  V30 1718 H 163.134 3.82075 -4.62751 0
M  V30 1719 H 164.204 2.48552 -4.16353 0
M  V30 1720 N 165.547 1.27147 0.931209 0
M  V30 1721 C 166.457 1.11372 2.06478 0
M  V30 1722 C 167.473 0.044645 1.73943 0
M  V30 1723 O 168.649 0.250417 1.99837 0
M  V30 1724 C 165.714 0.758838 3.38294 0
M  V30 1725 C 164.775 1.90841 3.84549 0
M  V30 1726 C 164.008 1.57036 5.10074 0
M  V30 1727 O 164.231 0.476645 5.68405 0
M  V30 1728 O 163.165 2.40839 5.51616 0
M  V30 1729 H 166.991 2.06493 2.22698 0
M  V30 1730 H 164.576 1.06301 1.04978 0
M  V30 1731 H 166.458 0.574098 4.17471 0
M  V30 1732 H 165.133 -0.162879 3.2329 0
M  V30 1733 H 164.04 2.14819 3.06274 0
M  V30 1734 H 165.373 2.81021 4.04089 0
M  V30 1735 N 167.025 -1.13721 1.09112 0
M  V30 1736 C 167.955 -2.21148 0.749385 0
M  V30 1737 C 168.936 -1.6792 -0.271475 0
M  V30 1738 O 170.121 -1.93693 -0.140251 0
M  V30 1739 C 167.251 -3.46905 0.165659 0
M  V30 1740 C 166.205 -4.13203 1.11567 0
M  V30 1741 C 165.531 -5.33248 0.393809 0
M  V30 1742 C 166.831 -4.60912 2.45678 0
M  V30 1743 H 168.525 -2.4999 1.64758 0
M  V30 1744 H 166.071 -1.20156 0.793626 0
M  V30 1745 H 168.024 -4.21313 -0.085466 0
M  V30 1746 H 166.748 -3.17449 -0.767714 0
M  V30 1747 H 165.407 -3.40758 1.35202 0
M  V30 1748 H 165.055 -5.00054 -0.543599 0
M  V30 1749 H 164.755 -5.78552 1.02721 0
M  V30 1750 H 166.279 -6.10413 0.150908 0
M  V30 1751 H 167.693 -5.26759 2.26269 0
M  V30 1752 H 166.09 -5.16944 3.04776 0
M  V30 1753 H 167.16 -3.75603 3.06677 0
M  V30 1754 N 168.503 -0.877838 -1.30888 0
M  V30 1755 C 169.466 -0.344265 -2.266 0
M  V30 1756 C 170.466 0.50922 -1.52524 0
M  V30 1757 O 171.656 0.317398 -1.71284 0
M  V30 1758 C 168.788 0.510198 -3.37061 0
M  V30 1759 H 169.981 -1.1893 -2.7531 0
M  V30 1760 H 167.534 -0.654088 -1.41956 0
M  V30 1761 H 168.269 1.37612 -2.93655 0
M  V30 1762 H 168.054 -0.101047 -3.9197 0
M  V30 1763 H 169.544 0.875537 -4.08319 0
M  V30 1764 N 169.982 1.44106 -0.638065 0
M  V30 1765 C 170.914 2.28976 0.101205 0
M  V30 1766 C 171.927 1.4167 0.802088 0
M  V30 1767 O 173.116 1.65755 0.662375 0
M  V30 1768 C 170.216 3.18217 1.16581 0
M  V30 1769 C 169.389 4.33978 0.546066 0
M  V30 1770 C 168.448 5.04202 1.50554 0
M  V30 1771 O 167.474 5.59986 1.01999 0
M  V30 1772 N 168.676 5.06296 2.8398 0
M  V30 1773 H 171.441 2.93064 -0.627186 0
M  V30 1774 H 169.002 1.54629 -0.479731 0
M  V30 1775 H 170.994 3.62061 1.80815 0
M  V30 1776 H 169.564 2.55833 1.79634 0
M  V30 1777 H 168.784 3.93239 -0.275046 0
M  V30 1778 H 170.072 5.08675 0.112793 0
M  V30 1779 H 169.47 4.62319 3.26002 0
M  V30 1780 H 168.027 5.53907 3.43556 0
M  V30 1781 N 171.46 0.379036 1.52974 0
M  V30 1782 C 172.737 -0.263479 1.93817 0
M  V30 1783 C 173.117 -1.65244 1.31368 0
M  V30 1784 O 172.465 -2.23448 0.477856 0
M  V30 1785 C 172.675 -0.300166 3.47707 0
M  V30 1786 C 174.023 -0.534061 4.21228 0
M  V30 1787 O 175.047 -0.38081 3.54159 0
M  V30 1788 O 173.906 -0.833501 5.40106 0
M  V30 1789 H 171 -0.161149 0.811147 0
M  V30 1790 H 173.546 0.432798 1.64088 0
M  V30 1791 H 172.318 0.673138 3.85467 0
M  V30 1792 H 171.941 -1.04179 3.83709 0
M  V30 1793 N 172.938 -1.57226 0.108567 0
M  V30 1794 C 173.886 -2.16002 -0.862885 0
M  V30 1795 C 174.88 -1.10644 -1.28274 0
M  V30 1796 O 176.086 -1.28966 -1.2557 0
M  V30 1797 H 172.461 -0.691148 -0.296342 0
M  V30 1798 H 174.432 -2.96427 -0.342575 0
M  V30 1799 C 173.181 -2.76576 -2.10716 0
M  V30 1800 H 172.504 -3.5734 -1.793 0
M  V30 1801 H 173.944 -3.21253 -2.76717 0
M  V30 1802 C 172.403 -1.73137 -2.89007 0
M  V30 1803 O 172.933 -1.17842 -3.84026 0
M  V30 1804 N 171.139 -1.43317 -2.52801 0
M  V30 1805 H 170.686 -1.88473 -1.75601 0
M  V30 1806 H 170.644 -0.743485 -3.05483 0
M  V30 1807 N 174.416 0.165178 -1.56732 0
M  V30 1808 C 175.827 0.727046 -1.71962 0
M  V30 1809 C 176.178 1.82508 -0.720078 0
M  V30 1810 O 175.303 2.16082 0.117242 0
M  V30 1811 C 175.898 1.32559 -3.11791 0
M  V30 1812 C 174.457 1.83422 -3.28684 0
M  V30 1813 C 173.604 0.715567 -2.67908 0
M  V30 1814 H 176.555 -0.0602896 -1.58585 0
M  V30 1815 H 176.576 2.19533 -3.10782 0
M  V30 1816 H 176.088 0.526195 -3.84516 0
M  V30 1817 H 174.189 2.65986 -2.60926 0
M  V30 1818 H 174.302 1.97543 -4.36478 0
M  V30 1819 H 172.666 1.13758 -2.27884 0
M  V30 1820 H 173.449 -0.0720836 -3.43224 0
M  V30 1821 N 175.894 1.51508 0.433938 0
M  V30 1822 C 177.14 1.65549 1.18173 0
M  V30 1823 C 177.495 0.368751 1.88833 0
M  V30 1824 O 176.788 -0.635616 1.8075 0
M  V30 1825 C 176.982 2.79928 2.22205 0
M  V30 1826 C 176.811 4.19601 1.61756 0
M  V30 1827 C 175.581 4.85489 1.40101 0
M  V30 1828 C 177.779 5.02574 1.09194 0
M  V30 1829 N 175.761 6.09266 0.752859 0
M  V30 1830 C 177.132 6.17381 0.569255 0
M  V30 1831 C 179.187 4.88079 0.984025 0
M  V30 1832 C 177.89 7.19282 -0.0507472 0
M  V30 1833 C 179.916 5.90191 0.377912 0
M  V30 1834 C 179.278 7.04272 -0.134216 0
M  V30 1835 H 175.377 0.659653 0.419979 0
M  V30 1836 H 177.961 1.88746 0.477818 0
M  V30 1837 H 176.132 2.5839 2.89982 0
M  V30 1838 H 177.864 2.83132 2.89168 0
M  V30 1839 H 174.619 4.43417 1.66369 0
M  V30 1840 H 175.043 6.75528 0.446123 0
M  V30 1841 H 179.685 4.00131 1.36583 0
M  V30 1842 H 177.403 8.06876 -0.444676 0
M  V30 1843 H 180.989 5.81045 0.296269 0
M  V30 1844 H 179.869 7.81933 -0.59585 0
M  V30 1845 N 177.372 -0.689602 1.41712 0
M  V30 1846 C 178.618 -1.45181 1.41599 0
M  V30 1847 C 178.951 -1.94181 0.0270081 0
M  V30 1848 O 178.226 -1.6993 -0.946265 0
M  V30 1849 C 178.509 -2.65945 2.42787 0
M  V30 1850 C 178.362 -2.22672 3.90816 0
M  V30 1851 C 179.681 -3.68149 2.41151 0
M  V30 1852 H 176.8 -0.526576 0.515642 0
M  V30 1853 H 179.442 -0.784947 1.73028 0
M  V30 1854 H 177.592 -3.2284 2.16116 0
M  V30 1855 H 179.264 -1.71058 4.28412 0
M  V30 1856 H 177.507 -1.54394 4.05395 0
M  V30 1857 H 178.178 -3.0935 4.57172 0
M  V30 1858 H 180.654 -3.2094 2.64834 0
M  V30 1859 H 179.53 -4.50248 3.13955 0
M  V30 1860 H 179.791 -4.18259 1.43221 0
M  V30 1861 N 178.85 -1.27639 -0.924453 0
M  V30 1862 C 180.099 -1.13549 -1.66702 0
M  V30 1863 C 180.412 0.317487 -1.93006 0
M  V30 1864 O 181.618 0.579333 -2.65247 0
M  V30 1865 C 180.074 -1.98426 -3.00259 0
M  V30 1866 C 179.682 -3.484 -2.81641 0
M  V30 1867 C 181.426 -1.92993 -3.78092 0
M  V30 1868 C 179.333 -4.25464 -4.10773 0
M  V30 1869 H 178.263 -0.421351 -0.625283 0
M  V30 1870 H 180.914 -1.52085 -1.02676 0
M  V30 1871 H 179.296 -1.52736 -3.6536 0
M  V30 1872 H 180.47 -4.01973 -2.25287 0
M  V30 1873 H 178.785 -3.55245 -2.17232 0
M  V30 1874 H 181.382 -2.47844 -4.7379 0
M  V30 1875 H 181.725 -0.904281 -4.0636 0
M  V30 1876 H 182.258 -2.36595 -3.19793 0
M  V30 1877 H 178.997 -5.28566 -3.87683 0
M  V30 1878 H 178.517 -3.76667 -4.66779 0
M  V30 1879 H 180.196 -4.34812 -4.79111 0
M  V30 1880 N 180.328 1.1314 -1.09713 0
M  V30 1881 C 181.276 2.20717 -0.733934 0
M  V30 1882 C 182.27 1.6729 0.266506 0
M  V30 1883 O 183.476 1.79547 0.127656 0
M  V30 1884 H 179.851 0.719292 -0.21937 0
M  V30 1885 H 181.822 2.48611 -1.6503 0
M  V30 1886 C 180.571 3.47265 -0.173849 0
M  V30 1887 H 179.894 3.88716 -0.934873 0
M  V30 1888 H 181.334 4.23979 0.0423126 0
M  V30 1889 C 179.793 3.18724 1.09164 0
M  V30 1890 O 180.323 3.37762 2.17439 0
M  V30 1891 N 178.529 2.72583 1.00732 0
M  V30 1892 H 178.076 2.57291 0.126121 0
M  V30 1893 H 178.034 2.53862 1.85476 0
M  V30 1894 N 181.806 0.884767 1.30421 0
M  V30 1895 C 182.736 0.367574 2.30589 0
M  V30 1896 C 183.717 -0.549464 1.60981 0
M  V30 1897 O 184.902 -0.46336 1.88591 0
M  V30 1898 C 182.032 -0.418944 3.44764 0
M  V30 1899 C 180.986 0.406316 4.26067 0
M  V30 1900 C 180.312 -0.506793 5.32293 0
M  V30 1901 C 181.612 1.64832 4.95608 0
M  V30 1902 H 183.306 1.20462 2.74097 0
M  V30 1903 H 180.852 0.580695 1.31772 0
M  V30 1904 H 182.805 -0.791395 4.13902 0
M  V30 1905 H 181.529 -1.28964 3.0006 0
M  V30 1906 H 180.188 0.760903 3.58617 0
M  V30 1907 H 179.836 -1.37519 4.83836 0
M  V30 1908 H 179.536 0.0415828 5.87585 0
M  V30 1909 H 181.06 -0.875764 6.04287 0
M  V30 1910 H 182.474 1.34646 5.57264 0
M  V30 1911 H 180.871 2.13688 5.60765 0
M  V30 1912 H 181.941 2.39284 4.21748 0
M  V30 1913 N 183.284 -1.43765 0.645699 0
M  V30 1914 C 184.234 -2.27884 -0.0726442 0
M  V30 1915 C 185.218 -1.39483 -0.802086 0
M  V30 1916 O 186.41 -1.63174 -0.685791 0
M  V30 1917 C 183.539 -3.27055 -1.04356 0
M  V30 1918 C 182.625 -4.22944 -0.312985 0
M  V30 1919 N 183.016 -5.01391 0.666386 0
M  V30 1920 C 181.314 -4.42528 -0.55546 0
M  V30 1921 C 182.015 -5.71217 1.09935 0
M  V30 1922 N 180.991 -5.41856 0.435137 0
M  V30 1923 H 184.793 -2.85949 0.678988 0
M  V30 1924 H 182.307 -1.55378 0.472368 0
M  V30 1925 H 184.304 -3.86089 -1.57292 0
M  V30 1926 H 182.964 -2.70551 -1.79534 0
M  V30 1927 H 183.975 -5.07252 1.04481 0
M  V30 1928 H 180.652 -3.97104 -1.28899 0
M  V30 1929 H 182.042 -6.44202 1.90929 0
M  V30 1930 N 184.763 -0.387143 -1.52771 0
M  V30 1931 C 185.673 0.456442 -2.30117 0
M  V30 1932 C 186.689 1.07342 -1.36944 0
M  V30 1933 O 187.865 1.07971 -1.70013 0
M  V30 1934 C 184.93 1.56957 -3.09136 0
M  V30 1935 C 183.991 0.977916 -4.18014 0
M  V30 1936 C 183.224 2.038 -4.93256 0
M  V30 1937 O 183.447 3.25271 -4.68567 0
M  V30 1938 O 182.381 1.6565 -5.78657 0
M  V30 1939 H 186.207 -0.17359 -3.03203 0
M  V30 1940 H 183.792 -0.150919 -1.48636 0
M  V30 1941 H 185.674 2.21628 -3.58412 0
M  V30 1942 H 184.349 2.18461 -2.38865 0
M  V30 1943 H 183.256 0.294525 -3.72939 0
M  V30 1944 H 184.589 0.407128 -4.90513 0
M  V30 1945 N 186.241 1.57166 -0.116904 0
M  V30 1946 C 187.487 1.95412 0.542405 0
M  V30 1947 C 187.82 1.00019 1.66463 0
M  V30 1948 O 187.095 0.0370346 1.94465 0
M  V30 1949 C 187.378 3.43615 1.07708 0
M  V30 1950 C 187.231 4.49781 -0.0415868 0
M  V30 1951 C 188.55 3.93616 1.96861 0
M  V30 1952 H 185.669 0.710543 0.195696 0
M  V30 1953 H 188.311 1.89027 -0.192038 0
M  V30 1954 H 186.461 3.49187 1.70296 0
M  V30 1955 H 188.133 4.56308 -0.676793 0
M  V30 1956 H 186.376 4.28033 -0.705019 0
M  V30 1957 H 187.047 5.50733 0.373717 0
M  V30 1958 H 189.523 3.90335 1.44146 0
M  V30 1959 H 188.399 4.97838 2.3119 0
M  V30 1960 H 188.66 3.34188 2.89432 0
M  V30 1961 N 187.719 -0.156864 1.56817 0
M  V30 1962 C 188.949 -0.885031 1.86684 0
M  V30 1963 C 189.357 -1.75696 0.701954 0
M  V30 1964 O 188.7 -1.80569 -0.337732 0
M  V30 1965 C 188.762 -1.80092 3.11138 0
M  V30 1966 C 188.426 -1.10714 4.43386 0
M  V30 1967 C 189.423 -0.465714 5.1781 0
M  V30 1968 C 187.108 -1.09959 4.90117 0
M  V30 1969 C 189.102 0.174002 6.37162 0
M  V30 1970 C 186.789 -0.456055 6.09396 0
M  V30 1971 C 187.787 0.179622 6.82764 0
M  V30 1972 O 187.475 0.812975 7.99779 0
M  V30 1973 H 187.207 -0.261813 0.623242 0
M  V30 1974 H 189.761 -0.157383 2.04796 0
M  V30 1975 H 187.991 -2.56926 2.89009 0
M  V30 1976 H 189.68 -2.40018 3.27332 0
M  V30 1977 H 190.446 -0.463427 4.82781 0
M  V30 1978 H 186.325 -1.58378 4.3294 0
M  V30 1979 H 189.869 0.670765 6.94368 0
M  V30 1980 H 185.766 -0.455975 6.43888 0
M  V30 1981 H 186.534 0.71366 8.15383 0
M  V30 1982 N 189.197 -1.51736 -0.425897 0
M  V30 1983 C 190.107 -1.76738 -1.54275 0
M  V30 1984 C 191.123 -0.65211 -1.61318 0
M  V30 1985 O 192.299 -0.935654 -1.78346 0
M  V30 1986 C 189.364 -1.89755 -2.90162 0
M  V30 1987 C 188.425 -3.13633 -2.93143 0
M  V30 1988 C 187.658 -3.2602 -4.22548 0
M  V30 1989 O 187.881 -2.44067 -5.15546 0
M  V30 1990 O 186.815 -4.19071 -4.32046 0
M  V30 1991 H 190.641 -2.71502 -1.36089 0
M  V30 1992 H 188.226 -1.36376 -0.610069 0
M  V30 1993 H 190.108 -2.00236 -3.70788 0
M  V30 1994 H 188.783 -0.981785 -3.08452 0
M  V30 1995 H 187.69 -3.08622 -2.11431 0
M  V30 1996 H 189.023 -4.04936 -2.798 0
M  V30 1997 N 190.675 0.682077 -1.42076 0
M  V30 1998 C 191.903 1.47057 -1.4554 0
M  V30 1999 C 192.318 1.8869 -0.0645779 0
M  V30 2000 O 191.675 1.57666 0.919115 0
M  V30 2001 C 191.726 2.72442 -2.37609 0
M  V30 2002 O 191.447 2.32559 -3.71279 0
M  V30 2003 C 192.948 3.66069 -2.50017 0
M  V30 2004 H 190.168 0.452737 -0.495248 0
M  V30 2005 H 192.712 0.838695 -1.8651 0
M  V30 2006 H 190.867 3.31835 -1.9991 0
M  V30 2007 H 191.281 3.13475 -4.20516 0
M  V30 2008 H 192.755 4.50792 -3.18576 0
M  V30 2009 H 193.232 4.11476 -1.53572 0
M  V30 2010 H 193.838 3.12572 -2.88407 0
M  V30 2011 N 192.153 1.28127 0.917671 0
M  V30 2012 C 193.116 1.11744 2.00115 0
M  V30 2013 C 194.116 0.0583052 1.60694 0
M  V30 2014 O 195.306 0.303755 1.71531 0
M  V30 2015 C 192.438 0.704862 3.33533 0
M  V30 2016 H 193.631 2.07966 2.16079 0
M  V30 2017 H 191.184 1.11058 1.09981 0
M  V30 2018 H 191.919 -0.258299 3.2327 0
M  V30 2019 H 191.704 1.4699 3.63505 0
M  V30 2020 H 193.194 0.612768 4.1308 0
M  V30 2021 N 193.631 -1.12557 1.10312 0
M  V30 2022 C 194.856 -1.88405 0.867085 0
M  V30 2023 C 195.281 -1.79038 -0.576817 0
M  V30 2024 O 194.639 -1.14439 -1.40618 0
M  V30 2025 C 194.687 -3.3563 1.31851 0
M  V30 2026 O 193.791 -4.09565 0.482734 0
M  V30 2027 H 193.132 -0.585455 0.313271 0
M  V30 2028 H 195.662 -1.42352 1.4696 0
M  V30 2029 H 195.672 -3.86469 1.3079 0
M  V30 2030 H 194.347 -3.41765 2.37001 0
M  V30 2031 H 192.924 -3.68695 0.558448 0
M  V30 2032 N 195.109 -0.891671 -1.2995 0
M  V30 2033 C 196.019 -0.367691 -2.31701 0
M  V30 2034 C 197.035 0.533486 -1.6562 0
M  V30 2035 O 198.211 0.424997 -1.96865 0
M  V30 2036 C 195.276 0.403406 -3.44345 0
M  V30 2037 C 194.337 -0.528328 -4.26037 0
M  V30 2038 C 193.57 0.206063 -5.33302 0
M  V30 2039 O 193.793 1.43119 -5.52153 0
M  V30 2040 O 192.727 -0.447281 -6.00236 0
M  V30 2041 H 196.553 -1.21163 -2.78484 0
M  V30 2042 H 194.138 -0.655725 -1.34241 0
M  V30 2043 H 196.02 0.839753 -4.12948 0
M  V30 2044 H 194.695 1.22354 -2.99685 0
M  V30 2045 H 193.602 -1.01362 -3.60106 0
M  V30 2046 H 194.935 -1.31465 -4.74318 0
M  V30 2047 N 196.587 1.43421 -0.653314 0
M  V30 2048 C 197.52 2.2803 0.0879804 0
M  V30 2049 C 198.498 1.39833 0.82979 0
M  V30 2050 O 199.682 1.69275 0.829341 0
M  V30 2051 C 196.809 3.19247 1.13132 0
M  V30 2052 C 195.855 4.23704 0.487546 0
M  V30 2053 S 196.688 5.30377 -0.738961 0
M  V30 2054 C 197.844 6.25162 0.30384 0
M  V30 2055 H 198.077 2.90554 -0.629739 0
M  V30 2056 H 195.61 1.47934 -0.442156 0
M  V30 2057 H 197.568 3.72346 1.72827 0
M  V30 2058 H 196.229 2.55901 1.82136 0
M  V30 2059 H 195.422 4.87631 1.27407 0
M  V30 2060 H 195.024 3.73983 -0.0352915 0
M  V30 2061 H 197.316 6.67321 1.17 0
M  V30 2062 H 198.259 7.07463 -0.300402 0
M  V30 2063 H 198.667 5.60864 0.63969 0
M  V30 2064 N 198.065 0.39524 1.52563 0
M  V30 2065 C 199.314 -0.186321 2.00838 0
M  V30 2066 C 199.627 -1.47402 1.28577 0
M  V30 2067 O 200.833 -2.13599 1.67593 0
M  V30 2068 C 199.289 -0.382595 3.57861 0
M  V30 2069 C 198.897 0.892202 4.39026 0
M  V30 2070 C 200.641 -0.9202 4.14406 0
M  V30 2071 C 198.548 0.66388 5.87662 0
M  V30 2072 H 197.478 -0.0734041 0.750418 0
M  V30 2073 H 200.129 0.518552 1.76021 0
M  V30 2074 H 198.511 -1.14946 3.7895 0
M  V30 2075 H 199.685 1.66414 4.29701 0
M  V30 2076 H 198 1.35519 3.9373 0
M  V30 2077 H 200.597 -1.10683 5.23119 0
M  V30 2078 H 200.94 -1.89096 3.70875 0
M  V30 2079 H 201.473 -0.212751 3.97231 0
M  V30 2080 H 198.212 1.6058 6.35527 0
M  V30 2081 H 197.732 -0.0690193 5.9976 0
M  V30 2082 H 199.411 0.300699 6.46301 0
M  V30 2083 N 199.544 -1.57102 0.125237 0
M  V30 2084 C 200.474 -2.18659 -0.819174 0
M  V30 2085 C 201.455 -1.12843 -1.27281 0
M  V30 2086 O 202.64 -1.41104 -1.33429 0
M  V30 2087 C 199.77 -2.79096 -2.06695 0
M  V30 2088 C 198.724 -3.90548 -1.75088 0
M  V30 2089 C 198.05 -4.37821 -3.06948 0
M  V30 2090 C 199.35 -5.12356 -1.01435 0
M  V30 2091 H 201.044 -2.9783 -0.306202 0
M  V30 2092 H 198.59 -1.4326 -0.145839 0
M  V30 2093 H 200.543 -3.2082 -2.73226 0
M  V30 2094 H 199.267 -1.97223 -2.60328 0
M  V30 2095 H 197.926 -3.49409 -1.10944 0
M  V30 2096 H 197.574 -3.52799 -3.58527 0
M  V30 2097 H 197.274 -5.12982 -2.86571 0
M  V30 2098 H 198.798 -4.822 -3.74587 0
M  V30 2099 H 200.212 -5.5106 -1.58132 0
M  V30 2100 H 198.609 -5.9314 -0.911319 0
M  V30 2101 H 199.679 -4.849 -0.00218681 0
M  V30 2102 N 201.022 0.148545 -1.56898 0
M  V30 2103 C 202.268 0.862694 -1.83536 0
M  V30 2104 C 202.601 1.80889 -0.706604 0
M  V30 2105 O 201.876 1.92328 0.289885 0
M  V30 2106 C 202.159 1.63853 -3.20662 0
M  V30 2107 C 202.012 0.713925 -4.44098 0
M  V30 2108 C 203.331 2.60133 -3.54991 0
M  V30 2109 H 200.45 0.312179 -0.667618 0
M  V30 2110 H 203.092 0.127953 -1.89569 0
M  V30 2111 H 201.242 2.26489 -3.1565 0
M  V30 2112 H 202.914 0.098686 -4.61194 0
M  V30 2113 H 201.157 0.0234019 -4.33794 0
M  V30 2114 H 201.828 1.29278 -5.36648 0
M  V30 2115 H 204.304 2.07616 -3.60603 0
M  V30 2116 H 203.18 3.11468 -4.51972 0
M  V30 2117 H 203.441 3.41417 -2.80868 0
M  V30 2118 N 202.5 1.5196 0.417844 0
M  V30 2119 C 203.43 1.77634 1.51554 0
M  V30 2120 C 204.411 0.626918 1.58126 0
M  V30 2121 O 205.596 0.871632 1.7354 0
M  V30 2122 C 202.726 1.91911 2.8946 0
M  V30 2123 C 201.68 3.07463 2.97743 0
M  V30 2124 C 201.006 3.06951 4.37819 0
M  V30 2125 C 202.306 4.47082 2.70027 0
M  V30 2126 H 204 2.6955 1.3032 0
M  V30 2127 H 201.546 1.29706 0.625492 0
M  V30 2128 H 203.499 2.08455 3.6623 0
M  V30 2129 H 202.223 0.966598 3.11969 0
M  V30 2130 H 200.882 2.90656 2.23416 0
M  V30 2131 H 200.53 2.09438 4.57323 0
M  V30 2132 H 200.23 3.84556 4.44286 0
M  V30 2133 H 201.754 3.25613 5.16535 0
M  V30 2134 H 203.168 4.6414 3.36522 0
M  V30 2135 H 201.565 5.2654 2.87881 0
M  V30 2136 H 202.635 4.55777 1.65514 0
M  V30 2137 N 203.978 -0.674533 1.42435 0
M  V30 2138 C 204.888 -1.81751 1.48337 0
M  V30 2139 C 205.904 -1.69975 0.372099 0
M  V30 2140 O 207.08 -1.91521 0.62304 0
M  V30 2141 C 204.145 -3.17895 1.38361 0
M  V30 2142 C 203.206 -3.41625 2.59982 0
M  V30 2143 C 202.439 -4.71274 2.50473 0
M  V30 2144 O 202.662 -5.49197 1.54075 0
M  V30 2145 O 201.596 -4.96254 3.4061 0
M  V30 2146 H 205.422 -1.79728 2.44809 0
M  V30 2147 H 203.007 -0.830312 1.24202 0
M  V30 2148 H 204.889 -3.99136 1.35161 0
M  V30 2149 H 203.564 -3.20555 0.450144 0
M  V30 2150 H 202.471 -2.60231 2.68757 0
M  V30 2151 H 203.804 -3.43796 3.52229 0
M  V30 2152 N 205.456 -1.28612 -0.910864 0
M  V30 2153 C 206.686 -1.1862 -1.69153 0
M  V30 2154 C 207.094 0.257324 -1.87442 0
M  V30 2155 O 206.437 1.18543 -1.40332 0
M  V30 2156 C 206.499 -1.81606 -3.10257 0
M  V30 2157 C 206.163 -3.30864 -3.15243 0
M  V30 2158 C 207.16 -4.27256 -2.96223 0
M  V30 2159 C 204.845 -3.71871 -3.37664 0
M  V30 2160 C 206.839 -5.62631 -2.99541 0
M  V30 2161 C 204.526 -5.07371 -3.40614 0
M  V30 2162 C 205.524 -6.02561 -3.21573 0
M  V30 2163 O 205.212 -7.35589 -3.2429 0
M  V30 2164 H 204.944 -0.412633 -0.535453 0
M  V30 2165 H 207.498 -1.70306 -1.14827 0
M  V30 2166 H 205.728 -1.24418 -3.66138 0
M  V30 2167 H 207.417 -1.66092 -3.70362 0
M  V30 2168 H 208.183 -3.9691 -2.78725 0
M  V30 2169 H 204.062 -2.98241 -3.5153 0
M  V30 2170 H 207.606 -6.36907 -2.84597 0
M  V30 2171 H 203.503 -5.37366 -3.57642 0
M  V30 2172 H 204.271 -7.44252 -3.40633 0
M  V30 2173 N 206.934 1.1197 -1.10907 0
M  V30 2174 C 207.897 2.16031 -0.765707 0
M  V30 2175 C 208.897 1.59393 0.212235 0
M  V30 2176 O 210.087 1.74196 -0.0115441 0
M  V30 2177 C 207.219 3.40632 -0.135053 0
M  V30 2178 H 208.412 2.47919 -1.68748 0
M  V30 2179 H 205.965 1.27061 -0.910226 0
M  V30 2180 H 206.7 3.14348 0.797218 0
M  V30 2181 H 206.485 3.8302 -0.838937 0
M  V30 2182 H 207.975 4.17505 0.0892469 0
M  V30 2183 N 208.412 0.89855 1.29475 0
M  V30 2184 C 209.375 0.380272 2.26023 0
M  V30 2185 C 210.375 -0.484891 1.53315 0
M  V30 2186 O 211.565 -0.290108 1.71767 0
M  V30 2187 C 208.697 -0.45651 3.3783 0
M  V30 2188 H 209.89 1.23295 2.73383 0
M  V30 2189 H 207.443 0.676589 1.40897 0
M  V30 2190 H 208.178 -1.32922 2.95808 0
M  V30 2191 H 207.963 0.163393 3.91759 0
M  V30 2192 H 209.453 -0.810466 4.0966 0
M  V30 2193 N 209.89 -1.43072 0.660911 0
M  V30 2194 C 211.138 -2.01323 0.177094 0
M  V30 2195 C 211.459 -1.5245 -1.2159 0
M  V30 2196 O 210.729 -0.740322 -1.81373 0
M  V30 2197 H 209.309 -0.744382 0.0624804 0
M  V30 2198 H 211.971 -1.75179 0.854305 0
M  V30 2199 H 211.067 -3.11649 0.167641 0
M  V30 2200 N 211.368 -0.403325 -1.52352 0
M  V30 2201 C 212.616 0.174003 -2.0135 0
M  V30 2202 C 212.937 1.46139 -1.29106 0
M  V30 2203 O 212.207 1.91448 -0.415253 0
M  V30 2204 H 210.787 0.0672911 -0.743963 0
M  V30 2205 H 213.449 -0.538235 -1.87321 0
M  V30 2206 H 212.545 0.374254 -3.09848 0
M  V30 2207 N 212.846 1.57033 -0.133567 0
M  V30 2208 C 213.756 2.19632 0.824564 0
M  V30 2209 C 214.772 1.17666 1.28182 0
M  V30 2210 O 215.948 1.50193 1.3418 0
M  V30 2211 C 213.013 2.79499 2.05137 0
M  V30 2212 C 212.074 3.96548 1.64464 0
M  V30 2213 C 211.307 4.5355 2.81297 0
M  V30 2214 O 211.53 4.09438 3.97136 0
M  V30 2215 O 210.464 5.44018 2.57542 0
M  V30 2216 H 214.29 3.01991 0.321766 0
M  V30 2217 H 211.875 1.49112 0.0927889 0
M  V30 2218 H 213.757 3.17602 2.7696 0
M  V30 2219 H 212.432 2.00162 2.54395 0
M  V30 2220 H 211.339 3.63186 0.897048 0
M  V30 2221 H 212.672 4.77364 1.19934 0
M  V30 2222 N 214.325 -0.140222 1.56975 0
M  V30 2223 C 215.574 -0.850152 1.82908 0
M  V30 2224 C 215.887 -1.82028 0.715892 0
M  V30 2225 O 217.093 -2.57485 0.861016 0
M  V30 2226 C 215.549 -1.5625 3.24213 0
M  V30 2227 C 215.157 -0.63443 4.43485 0
M  V30 2228 C 216.901 -2.25881 3.59413 0
M  V30 2229 C 214.808 -1.34879 5.75814 0
M  V30 2230 H 213.738 -0.321221 0.682153 0
M  V30 2231 H 216.389 -0.102874 1.83211 0
M  V30 2232 H 214.771 -2.35565 3.18316 0
M  V30 2233 H 215.945 0.12398 4.60633 0
M  V30 2234 H 214.26 -0.0461836 4.16374 0
M  V30 2235 H 216.857 -2.79978 4.5554 0
M  V30 2236 H 217.2 -3.02693 2.85802 0
M  V30 2237 H 217.733 -1.53477 3.67001 0
M  V30 2238 H 214.472 -0.622385 6.52539 0
M  V30 2239 H 213.992 -2.07974 5.6259 0
M  V30 2240 H 215.671 -1.88784 6.18845 0
M  V30 2241 N 215.803 -1.52179 -0.40978 0
M  V30 2242 C 217.05 -1.66206 -1.15679 0
M  V30 2243 C 217.378 -0.391674 -1.90516 0
M  V30 2244 O 216.633 0.62533 -1.8544 0
M  V30 2245 C 216.932 -2.83428 -2.17723 0
M  V30 2246 C 216.598 -4.21672 -1.59699 0
M  V30 2247 C 215.26 -4.59274 -1.43599 0
M  V30 2248 C 217.612 -5.07825 -1.17317 0
M  V30 2249 C 214.94 -5.80709 -0.836328 0
M  V30 2250 C 217.292 -6.29864 -0.587691 0
M  V30 2251 C 215.956 -6.66216 -0.413818 0
M  V30 2252 H 215.226 -0.608192 -0.423301 0
M  V30 2253 H 217.873 -1.86279 -0.444097 0
M  V30 2254 H 216.178 -2.57687 -2.95135 0
M  V30 2255 H 217.875 -2.91477 -2.75394 0
M  V30 2256 H 214.465 -3.9204 -1.73213 0
M  V30 2257 H 218.649 -4.79359 -1.28565 0
M  V30 2258 H 213.905 -6.07498 -0.689626 0
M  V30 2259 H 218.079 -6.95948 -0.250894 0
M  V30 2260 H 215.706 -7.60182 0.0529471 0
M  V30 2261 N 217.281 0.66697 -1.42791 0
M  V30 2262 C 218.558 1.4234 -1.34159 0
M  V30 2263 C 218.938 2.11093 0.0172729 0
M  V30 2264 O 218.286 2.03808 1.03318 0
M  V30 2265 C 218.496 2.41942 -2.51526 0
M  V30 2266 C 219.844 3.06353 -2.93995 0
M  V30 2267 O 220.868 2.52269 -2.51473 0
M  V30 2268 O 219.727 4.04376 -3.67617 0
M  V30 2269 H 216.821 0.635277 -0.529483 0
M  V30 2270 H 219.367 0.695034 -1.54814 0
M  V30 2271 H 218.139 1.89991 -3.42081 0
M  V30 2272 H 217.762 3.22249 -2.32898 0
M  V30 2273 N 218.759 1.29093 0.90403 0
M  V30 2274 C 219.691 1.09658 2.01266 0
M  V30 2275 C 220.704 0.0453729 1.62737 0
M  V30 2276 O 221.893 0.289446 1.76138 0
M  V30 2277 C 218.993 0.646278 3.32681 0
M  V30 2278 C 218.166 1.77505 3.99763 0
M  V30 2279 C 217.225 1.31649 5.09465 0
M  V30 2280 O 216.251 2.02045 5.32134 0
M  V30 2281 N 217.453 0.184997 5.80205 0
M  V30 2282 H 220.218 2.05135 2.18494 0
M  V30 2283 H 217.779 1.20975 1.07594 0
M  V30 2284 H 219.771 0.322906 4.0341 0
M  V30 2285 H 218.341 -0.215916 3.11853 0
M  V30 2286 H 217.561 2.26752 3.22455 0
M  V30 2287 H 218.849 2.53198 4.41325 0
M  V30 2288 H 218.247 -0.402021 5.6427 0
M  V30 2289 H 216.804 -0.0790358 6.51752 0
M  V30 2290 N 220.237 -1.11381 1.11499 0
M  V30 2291 C 221.477 -1.84763 0.874188 0
M  V30 2292 C 221.841 -1.82726 -0.589496 0
M  V30 2293 O 223.042 -2.51562 -0.947089 0
M  V30 2294 C 221.313 -3.27931 1.42112 0
M  V30 2295 S 222.872 -4.18557 1.31739 0
M  V30 2296 H 219.69 -0.637115 0.315603 0
M  V30 2297 H 222.292 -1.34097 1.42261 0
M  V30 2298 H 220.996 -3.26978 2.48019 0
M  V30 2299 H 220.527 -3.83665 0.869761 0
M  V30 2300 H 222.542 -4.95396 0.282335 0
M  V30 2301 N 221.715 -0.905404 -1.28997 0
M  V30 2302 C 222.961 -0.535039 -1.95615 0
M  V30 2303 C 223.294 0.917404 -1.71165 0
M  V30 2304 O 222.569 1.65123 -1.02785 0
M  V30 2305 C 222.852 -0.834918 -3.50287 0
M  V30 2306 C 222.705 -2.33948 -3.84172 0
M  V30 2307 C 224.024 -0.325318 -4.38896 0
M  V30 2308 H 221.143 -0.195861 -0.710498 0
M  V30 2309 H 223.785 -1.13313 -1.52513 0
M  V30 2310 H 221.935 -0.325904 -3.87131 0
M  V30 2311 H 223.607 -2.91847 -3.57243 0
M  V30 2312 H 221.85 -2.79789 -3.31513 0
M  V30 2313 H 222.521 -2.49987 -4.92149 0
M  V30 2314 H 224.997 -0.761256 -4.09077 0
M  V30 2315 H 223.873 -0.564295 -5.45992 0
M  V30 2316 H 224.134 0.774144 -4.35269 0
M  V30 2317 N 223.193 1.4272 -0.668489 0
M  V30 2318 C 224.156 2.292 0.00448567 0
M  V30 2319 C 225.156 1.43001 0.735339 0
M  V30 2320 O 226.346 1.64461 0.57429 0
M  V30 2321 C 223.478 3.25375 1.01705 0
M  V30 2322 H 224.671 2.90199 -0.756608 0
M  V30 2323 H 222.224 1.50254 -0.430506 0
M  V30 2324 H 222.959 2.69301 1.80686 0
M  V30 2325 H 222.744 3.88944 0.496463 0
M  V30 2326 H 224.234 3.90245 1.48655 0
M  V30 2327 N 224.671 0.411399 1.52136 0
M  V30 2328 C 225.948 -0.222308 1.94333 0
M  V30 2329 C 226.328 -1.6242 1.34844 0
M  V30 2330 O 225.676 -2.22384 0.525145 0
M  V30 2331 C 225.886 -0.226345 3.48265 0
M  V30 2332 C 227.234 -0.444592 4.22266 0
M  V30 2333 O 228.258 -0.305602 3.54887 0
M  V30 2334 O 227.117 -0.718749 5.41753 0
M  V30 2335 H 224.211 -0.143907 0.814383 0
M  V30 2336 H 226.757 0.467506 1.63133 0
M  V30 2337 H 225.529 0.75475 3.83952 0
M  V30 2338 H 225.152 -0.960163 3.85832 0
M  V30 2339 N 226.149 -1.5696 0.141893 0
M  V30 2340 C 227.565 -1.58151 -0.21456 0
M  V30 2341 C 227.765 -1.1559 -1.65049 0
M  V30 2342 O 226.821 -0.853832 -2.37626 0
M  V30 2343 C 228.134 -3.00674 0.0395576 0
M  V30 2344 C 229.682 -3.1299 -0.0245529 0
M  V30 2345 C 230.157 -4.57554 0.202167 0
M  V30 2346 N 231.648 -4.62961 0.148919 0
M  V30 2347 C 232.383 -5.7262 0.298924 0
M  V30 2348 N 231.879 -6.90947 0.50637 0
M  V30 2349 N 233.672 -5.61601 0.236886 0
M  V30 2350 H 225.823 -1.8292 1.07953 0
M  V30 2351 H 228.086 -0.846425 0.42693 0
M  V30 2352 H 227.792 -3.36183 1.03315 0
M  V30 2353 H 227.666 -3.70981 -0.682143 0
M  V30 2354 H 230.053 -2.77326 -1.00869 0
M  V30 2355 H 230.134 -2.4518 0.729396 0
M  V30 2356 H 229.778 -4.93922 1.18338 0
M  V30 2357 H 229.708 -5.23484 -0.572044 0
M  V30 2358 H 232.199 -3.77899 -0.00697015 0
M  V30 2359 H 232.512 -7.7038 0.611076 0
M  V30 2360 H 230.857 -6.92878 0.542628 0
M  V30 2361 H 234.048 -4.68039 0.0756209 0
M  V30 2362 H 234.221 -6.47015 0.357227 0
M  V30 2363 N 227.627 0.131896 -1.57047 0
M  V30 2364 C 228.537 1.1815 -2.02676 0
M  V30 2365 C 229.553 1.46113 -0.944824 0
M  V30 2366 O 230.729 1.57485 -1.25541 0
M  V30 2367 C 227.794 2.49139 -2.41103 0
M  V30 2368 C 226.855 2.28688 -3.63318 0
M  V30 2369 C 226.088 3.53431 -3.99903 0
M  V30 2370 O 226.311 4.60223 -3.36973 0
M  V30 2371 O 225.245 3.45198 -4.93074 0
M  V30 2372 H 229.071 0.824069 -2.92306 0
M  V30 2373 H 226.656 0.341745 -1.45439 0
M  V30 2374 H 228.538 3.26338 -2.66611 0
M  V30 2375 H 227.213 2.84382 -1.54624 0
M  V30 2376 H 226.12 1.4939 -3.42977 0
M  V30 2377 H 227.453 1.98355 -4.50462 0
M  V30 2378 N 229.106 1.52395 0.401703 0
M  V30 2379 C 230.016 1.7917 1.51444 0
M  V30 2380 C 231.032 0.677691 1.6026 0
M  V30 2381 O 232.208 0.963909 1.76835 0
M  V30 2382 C 229.273 1.94347 2.87107 0
M  V30 2383 C 228.334 3.18257 2.88116 0
M  V30 2384 C 227.567 3.32701 4.17308 0
M  V30 2385 O 227.79 2.52238 5.11598 0
M  V30 2386 O 226.724 4.25891 4.25324 0
M  V30 2387 H 230.55 2.73633 1.31752 0
M  V30 2388 H 228.135 1.3733 0.588296 0
M  V30 2389 H 230.017 2.06109 3.67555 0
M  V30 2390 H 228.692 1.03073 3.06851 0
M  V30 2391 H 227.599 3.11947 2.06494 0
M  V30 2392 H 228.932 4.09336 2.73322 0
M  V30 2393 N 230.584 -0.659388 1.43143 0
M  V30 2394 C 231.547 -1.75432 1.47501 0
M  V30 2395 C 232.547 -1.56707 0.360512 0
M  V30 2396 O 233.737 -1.62717 0.622002 0
M  V30 2397 C 230.869 -3.14239 1.32162 0
M  V30 2398 H 232.062 -1.7295 2.45006 0
M  V30 2399 H 229.615 -0.870469 1.29817 0
M  V30 2400 H 230.35 -3.22336 0.356401 0
M  V30 2401 H 230.135 -3.29235 2.12948 0
M  V30 2402 H 231.625 -3.94094 1.3813 0
M  V30 2403 N 232.062 -1.29571 -0.897171 0
M  V30 2404 C 233.309 -1.17689 -1.6479 0
M  V30 2405 C 233.637 0.27107 -1.92602 0
M  V30 2406 O 232.892 1.21193 -1.53658 0
M  V30 2407 C 233.191 -1.9382 -3.00281 0
M  V30 2408 C 232.857 -3.43522 -2.92068 0
M  V30 2409 C 231.519 -3.84348 -2.89535 0
M  V30 2410 C 233.871 -4.38906 -2.81089 0
M  V30 2411 C 231.199 -5.18869 -2.73846 0
M  V30 2412 C 233.551 -5.73521 -2.66939 0
M  V30 2413 C 232.215 -6.13601 -2.62774 0
M  V30 2414 H 231.485 -0.430654 -0.603008 0
M  V30 2415 H 234.132 -1.60536 -1.04404 0
M  V30 2416 H 232.437 -1.4357 -3.64547 0
M  V30 2417 H 234.134 -1.82028 -3.57305 0
M  V30 2418 H 230.724 -3.11072 -2.94842 0
M  V30 2419 H 234.908 -4.08315 -2.82121 0
M  V30 2420 H 230.164 -5.4903 -2.69027 0
M  V30 2421 H 234.338 -6.47078 -2.57416 0
M  V30 2422 H 231.965 -7.17786 -2.50375 0
M  V30 2423 N 233.54 1.10788 -1.12088 0
M  V30 2424 C 234.487 2.17025 -0.785407 0
M  V30 2425 C 235.457 1.64265 0.246191 0
M  V30 2426 O 236.642 1.90412 0.121584 0
M  V30 2427 C 233.782 3.44249 -0.242177 0
M  V30 2428 C 232.895 4.1098 -1.33115 0
M  V30 2429 C 232.03 5.25911 -0.747741 0
M  V30 2430 C 231.069 5.84538 -1.81609 0
M  V30 2431 N 230.206 6.90853 -1.25167 0
M  V30 2432 H 235.046 2.45066 -1.69548 0
M  V30 2433 H 232.583 1.20297 -0.846582 0
M  V30 2434 H 234.541 4.17101 0.0908026 0
M  V30 2435 H 233.171 3.16571 0.631072 0
M  V30 2436 H 232.223 3.36133 -1.78097 0
M  V30 2437 H 233.535 4.50601 -2.13917 0
M  V30 2438 H 232.689 6.056 -0.365216 0
M  V30 2439 H 231.428 4.87614 0.0915188 0
M  V30 2440 H 230.433 5.03522 -2.20785 0
M  V30 2441 H 231.658 6.249 -2.6585 0
M  V30 2442 H 229.604 6.54562 -0.434174 0
M  V30 2443 H 229.521 7.29166 -1.99633 0
M  V30 2444 H 230.789 7.7433 -0.896259 0
M  V30 2445 N 235.018 0.912232 1.28515 0
M  V30 2446 C 235.928 0.404506 2.31086 0
M  V30 2447 C 236.944 -0.50707 1.66448 0
M  V30 2448 O 238.12 -0.393624 1.97516 0
M  V30 2449 C 235.185 -0.348572 3.44943 0
M  V30 2450 C 234.246 0.59604 4.25142 0
M  V30 2451 C 233.479 -0.121194 5.33562 0
M  V30 2452 O 233.702 -1.34317 5.5436 0
M  V30 2453 O 232.636 0.542716 5.99448 0
M  V30 2454 H 236.462 1.25579 2.76521 0
M  V30 2455 H 234.047 0.676998 1.33181 0
M  V30 2456 H 235.929 -0.77395 4.14232 0
M  V30 2457 H 234.604 -1.17571 3.01594 0
M  V30 2458 H 233.511 1.07079 3.58448 0
M  V30 2459 H 234.844 1.38995 4.72167 0
M  V30 2460 N 236.496 -1.42363 0.676048 0
M  V30 2461 C 237.443 -2.308 -0.00150904 0
M  V30 2462 C 238.413 -1.46032 -0.791444 0
M  V30 2463 O 239.598 -1.74861 -0.76344 0
M  V30 2464 C 236.738 -3.31883 -0.945919 0
M  V30 2465 C 235.851 -4.31741 -0.149675 0
M  V30 2466 C 234.986 -5.19898 -1.08995 0
M  V30 2467 C 234.025 -6.11434 -0.285465 0
M  V30 2468 N 233.162 -6.92138 -1.17851 0
M  V30 2469 H 238.002 -2.88187 0.758455 0
M  V30 2470 H 235.539 -1.41952 0.38576 0
M  V30 2471 H 237.497 -3.89019 -1.50731 0
M  V30 2472 H 236.127 -2.76093 -1.6725 0
M  V30 2473 H 235.179 -3.76713 0.528359 0
M  V30 2474 H 236.491 -4.96534 0.474866 0
M  V30 2475 H 235.645 -5.81772 -1.72123 0
M  V30 2476 H 234.384 -4.55284 -1.74837 0
M  V30 2477 H 233.389 -5.48627 0.359018 0
M  V30 2478 H 234.614 -6.78097 0.368883 0
M  V30 2479 H 232.56 -6.30152 -1.82332 0
M  V30 2480 H 232.477 -7.53542 -0.609082 0
M  V30 2481 H 233.745 -7.58499 -1.79722 0
M  V30 2482 N 237.974 -0.419461 -1.51915 0
M  V30 2483 C 239.251 0.211999 -1.94448 0
M  V30 2484 C 239.631 1.61703 -1.35703 0
M  V30 2485 O 238.979 2.22102 -0.536931 0
M  V30 2486 C 239.189 0.207872 -3.4838 0
M  V30 2487 C 240.537 0.422192 -4.22496 0
M  V30 2488 O 241.561 0.286778 -3.55044 0
M  V30 2489 O 240.42 0.690009 -5.42126 0
M  V30 2490 H 237.514 0.139586 -0.815135 0
M  V30 2491 H 240.06 -0.476151 -1.62883 0
M  V30 2492 H 238.832 -0.775102 -3.83546 0
M  V30 2493 H 238.455 0.939688 -3.86336 0
M  V30 2494 N 239.452 1.56882 -0.150215 0
M  V30 2495 C 240.698 1.96518 0.500834 0
M  V30 2496 C 241.031 1.03527 1.64304 0
M  V30 2497 O 240.306 0.0782751 1.94342 0
M  V30 2498 C 240.589 3.45822 1.00395 0
M  V30 2499 C 240.442 4.49591 -0.136983 0
M  V30 2500 C 241.761 3.97704 1.88467 0
M  V30 2501 H 238.88 0.714535 0.18058 0
M  V30 2502 H 241.522 1.88577 -0.232091 0
M  V30 2503 H 239.672 3.5272 1.62851 0
M  V30 2504 H 241.344 4.5477 -0.77343 0
M  V30 2505 H 239.587 4.26441 -0.795652 0
M  V30 2506 H 240.258 5.51402 0.256815 0
M  V30 2507 H 242.734 3.93304 1.35834 0
M  V30 2508 H 241.61 5.0263 2.20578 0
M  V30 2509 H 241.871 3.40252 2.82279 0
M  V30 2510 N 240.93 -0.123565 1.57115 0
M  V30 2511 C 241.862 -1.17739 1.96648 0
M  V30 2512 C 242.875 -1.37906 0.865201 0
M  V30 2513 O 244.064 -1.37062 1.14351 0
M  V30 2514 C 241.164 -2.53821 2.24562 0
M  V30 2515 C 240.337 -2.54317 3.55867 0
M  V30 2516 C 239.396 -3.72112 3.72047 0
M  V30 2517 O 238.422 -3.55907 4.44206 0
M  V30 2518 N 239.624 -4.90498 3.10471 0
M  V30 2519 H 242.389 -0.841147 2.87654 0
M  V30 2520 H 239.95 -0.31289 1.58848 0
M  V30 2521 H 241.942 -3.31175 2.32606 0
M  V30 2522 H 240.512 -2.79645 1.39705 0
M  V30 2523 H 239.732 -1.62711 3.59053 0
M  V30 2524 H 241.02 -2.51701 4.42181 0
M  V30 2525 H 240.418 -5.06567 2.51806 0
M  V30 2526 H 238.975 -5.65544 3.24043 0
M  V30 2527 N 242.408 -1.52605 -0.393616 0
M  V30 2528 C 243.824 -1.41753 -0.733357 0
M  V30 2529 C 244.024 -0.534293 -1.94287 0
M  V30 2530 O 243.08 -0.0059787 -2.52499 0
M  V30 2531 C 244.393 -2.84531 -0.972772 0
M  V30 2532 C 245.941 -2.93978 -1.07453 0
M  V30 2533 C 246.416 -4.37756 -1.3466 0
M  V30 2534 N 247.907 -4.4106 -1.41492 0
M  V30 2535 C 248.642 -5.49387 -1.642 0
M  V30 2536 N 248.138 -6.67806 -1.8441 0
M  V30 2537 N 249.931 -5.36923 -1.66342 0
M  V30 2538 H 242.082 -2.08555 0.402328 0
M  V30 2539 H 244.345 -0.940654 0.117789 0
M  V30 2540 H 244.051 -3.51353 -0.156204 0
M  V30 2541 H 243.925 -3.26508 -1.88871 0
M  V30 2542 H 246.312 -2.27326 -1.88167 0
M  V30 2543 H 246.393 -2.55435 -0.136605 0
M  V30 2544 H 246.037 -5.04972 -0.544581 0
M  V30 2545 H 245.967 -4.73848 -2.2973 0
M  V30 2546 H 248.458 -3.55705 -1.27601 0
M  V30 2547 H 248.771 -7.46141 -2.01231 0
M  V30 2548 H 247.116 -6.70843 -1.81644 0
M  V30 2549 H 250.307 -4.43381 -1.50102 0
M  V30 2550 H 250.48 -6.21416 -1.837 0
M  V30 2551 N 243.887 0.651787 -1.4349 0
M  V30 2552 C 244.817 1.77621 -1.51569 0
M  V30 2553 C 245.798 1.66022 -0.370253 0
M  V30 2554 O 246.983 1.85095 -0.587658 0
M  V30 2555 C 244.113 3.16056 -1.43966 0
M  V30 2556 C 243.067 3.4242 -2.56774 0
M  V30 2557 C 242.393 4.8067 -2.34223 0
M  V30 2558 C 243.693 3.37023 -3.99015 0
M  V30 2559 H 245.387 1.71117 -2.45681 0
M  V30 2560 H 242.933 0.821825 -1.18246 0
M  V30 2561 H 244.886 3.94472 -1.48221 0
M  V30 2562 H 243.61 3.23293 -0.463586 0
M  V30 2563 H 242.269 2.66375 -2.51873 0
M  V30 2564 H 241.917 4.84585 -1.34856 0
M  V30 2565 H 241.617 4.9927 -3.09844 0
M  V30 2566 H 243.141 5.61342 -2.40265 0
M  V30 2567 H 244.555 4.05374 -4.05395 0
M  V30 2568 H 242.952 3.67159 -4.74673 0
M  V30 2569 H 244.022 2.3518 -4.2405 0
M  V30 2570 N 245.365 1.30045 0.890287 0
M  V30 2571 C 246.298 1.10301 1.99772 0
M  V30 2572 C 247.276 0.0121631 1.62595 0
M  V30 2573 O 248.46 0.16469 1.87779 0
M  V30 2574 C 245.587 0.681125 3.31781 0
M  V30 2575 C 244.633 1.77206 3.87944 0
M  V30 2576 S 245.466 3.37335 4.15891 0
M  V30 2577 C 246.622 2.97036 5.50927 0
M  V30 2578 H 246.855 2.04057 2.16213 0
M  V30 2579 H 244.388 1.14299 1.03804 0
M  V30 2580 H 246.346 0.444439 4.08087 0
M  V30 2581 H 245.007 -0.236981 3.13205 0
M  V30 2582 H 244.2 1.42903 4.83316 0
M  V30 2583 H 243.802 1.96275 3.18358 0
M  V30 2584 H 246.094 2.44666 6.31779 0
M  V30 2585 H 247.037 3.91296 5.90164 0
M  V30 2586 H 247.445 2.35057 5.13233 0
M  V30 2587 N 246.843 -1.10192 1.12674 0
M  V30 2588 C 248.259 -1.34235 0.863317 0
M  V30 2589 C 248.459 -1.95062 -0.505277 0
M  V30 2590 O 247.515 -2.19192 -1.25345 0
M  V30 2591 C 248.828 -2.2616 1.98172 0
M  V30 2592 C 250.376 -2.3969 2.0129 0
M  V30 2593 C 250.851 -3.34946 3.1237 0
M  V30 2594 N 252.342 -3.42515 3.11829 0
M  V30 2595 C 253.077 -4.16199 3.94419 0
M  V30 2596 N 252.573 -4.92747 4.87004 0
M  V30 2597 N 254.366 -4.11843 3.82547 0
M  V30 2598 H 246.517 -0.690798 2.00853 0
M  V30 2599 H 248.78 -0.366774 0.874174 0
M  V30 2600 H 248.486 -1.8868 2.96804 0
M  V30 2601 H 248.36 -3.26488 1.88906 0
M  V30 2602 H 250.747 -2.76438 1.03276 0
M  V30 2603 H 250.828 -1.39169 2.14629 0
M  V30 2604 H 250.472 -2.98923 4.10619 0
M  V30 2605 H 250.402 -4.35353 2.96269 0
M  V30 2606 H 252.893 -2.87926 2.44759 0
M  V30 2607 H 253.206 -5.46376 5.46528 0
M  V30 2608 H 251.551 -4.91862 4.91016 0
M  V30 2609 H 254.742 -3.51136 3.0955 0
M  V30 2610 H 254.915 -4.69007 4.47142 0
M  V30 2611 N 248.321 -0.919034 -1.28029 0
M  V30 2612 C 249.253 -0.368762 -2.26214 0
M  V30 2613 C 250.266 0.495716 -1.55069 0
M  V30 2614 O 251.455 0.30974 -1.75792 0
M  V30 2615 C 248.555 0.491049 -3.35324 0
M  V30 2616 C 247.728 -0.352133 -4.3598 0
M  V30 2617 C 246.787 0.443622 -5.24327 0
M  V30 2618 O 245.813 -0.14566 -5.69014 0
M  V30 2619 N 247.015 1.74545 -5.53637 0
M  V30 2620 H 249.78 -1.21273 -2.74068 0
M  V30 2621 H 247.341 -0.785541 -1.41566 0
M  V30 2622 H 249.333 1.03026 -3.91366 0
M  V30 2623 H 247.903 1.23574 -2.87138 0
M  V30 2624 H 247.123 -1.07269 -3.79324 0
M  V30 2625 H 248.411 -0.928883 -5.00249 0
M  V30 2626 H 247.809 2.24666 -5.19174 0
M  V30 2627 H 246.366 2.23138 -6.12416 0
M  V30 2628 N 249.799 1.42003 -0.683588 0
M  V30 2629 C 251.048 2.00638 -0.206681 0
M  V30 2630 C 251.361 1.5472 1.19671 0
M  V30 2631 O 252.567 2.05833 1.77045 0
M  V30 2632 C 251.023 3.58487 -0.318632 0
M  V30 2633 C 250.631 4.1339 -1.72663 0
M  V30 2634 C 252.375 4.24384 0.0991141 0
M  V30 2635 C 250.282 5.63633 -1.79087 0
M  V30 2636 H 249.212 0.750408 -0.0735107 0
M  V30 2637 H 251.863 1.62624 -0.850048 0
M  V30 2638 H 250.245 3.94047 0.392781 0
M  V30 2639 H 251.419 3.89273 -2.46583 0
M  V30 2640 H 249.734 3.59976 -2.09299 0
M  V30 2641 H 252.331 5.34652 0.0713833 0
M  V30 2642 H 252.674 4.00505 1.13586 0
M  V30 2643 H 253.207 3.93816 -0.561599 0
M  V30 2644 H 249.946 5.92323 -2.80774 0
M  V30 2645 H 249.466 5.89714 -1.09535 0
M  V30 2646 H 251.145 6.28201 -1.5483 0
M  V30 2647 N 251.277 0.427512 1.51691 0
M  V30 2648 C 252.207 -0.3796 2.30394 0
M  V30 2649 C 253.188 -1.02982 1.35384 0
M  V30 2650 O 254.373 -1.03534 1.643 0
M  V30 2651 C 251.503 -1.48649 3.1388 0
M  V30 2652 C 250.457 -0.960294 4.17088 0
M  V30 2653 C 249.783 -2.16219 4.89033 0
M  V30 2654 C 251.083 -0.00153679 5.223 0
M  V30 2655 H 252.777 0.277164 2.98114 0
M  V30 2656 H 250.323 0.134739 1.43368 0
M  V30 2657 H 252.276 -2.05826 3.67714 0
M  V30 2658 H 251 -2.1714 2.43962 0
M  V30 2659 H 249.659 -0.410806 3.64291 0
M  V30 2660 H 249.307 -2.83307 4.15628 0
M  V30 2661 H 249.007 -1.81654 5.58816 0
M  V30 2662 H 250.531 -2.73968 5.45687 0
M  V30 2663 H 251.945 -0.482687 5.71264 0
M  V30 2664 H 250.342 0.256199 5.99553 0
M  V30 2665 H 251.412 0.938174 4.75738 0
M  V30 2666 N 252.755 -1.56801 0.158532 0
M  V30 2667 C 253.665 -2.20916 -0.789518 0
M  V30 2668 C 254.681 -1.1969 -1.26294 0
M  V30 2669 O 255.857 -1.52308 -1.31773 0
M  V30 2670 C 252.922 -2.82727 -2.00665 0
M  V30 2671 C 251.983 -3.99114 -1.58134 0
M  V30 2672 C 251.216 -4.57968 -2.74045 0
M  V30 2673 O 251.439 -4.15704 -3.90572 0
M  V30 2674 O 250.373 -5.48047 -2.48855 0
M  V30 2675 H 254.199 -3.02464 -0.273681 0
M  V30 2676 H 251.784 -1.4924 -0.0690548 0
M  V30 2677 H 253.666 -3.21968 -2.71872 0
M  V30 2678 H 252.341 -2.04184 -2.51179 0
M  V30 2679 H 251.248 -3.64567 -0.839155 0
M  V30 2680 H 252.581 -4.79212 -1.12325 0
M  V30 2681 N 254.233 0.115231 -1.57178 0
M  V30 2682 C 255.481 0.820727 -1.84685 0
M  V30 2683 C 255.802 1.80237 -0.744279 0
M  V30 2684 O 255.072 1.94529 0.231375 0
M  V30 2685 H 253.652 0.306084 -0.681411 0
M  V30 2686 H 256.314 0.101656 -1.94635 0
M  V30 2687 H 255.41 1.36366 -2.80733 0
M  V30 2688 N 255.711 1.52812 0.385517 0
M  V30 2689 C 256.957 1.68275 1.13188 0
M  V30 2690 C 257.29 0.423179 1.89533 0
M  V30 2691 O 256.565 -0.579113 1.85679 0
M  V30 2692 C 256.848 2.92001 2.1073 0
M  V30 2693 C 256.701 4.28067 1.38125 0
M  V30 2694 C 258.02 3.11283 3.11113 0
M  V30 2695 H 255.139 0.612352 0.410115 0
M  V30 2696 H 257.781 1.85415 0.414869 0
M  V30 2697 H 255.931 2.77519 2.71874 0
M  V30 2698 H 257.603 4.54324 0.799187 0
M  V30 2699 H 255.846 4.28388 0.683092 0
M  V30 2700 H 256.517 5.10733 2.09417 0
M  V30 2701 H 258.993 3.2482 2.6006 0
M  V30 2702 H 257.869 3.99325 3.76605 0
M  V30 2703 H 258.13 2.25656 3.80173 0
M  V30 2704 N 257.189 -0.644168 1.43834 0
M  V30 2705 C 258.139 -1.7501 1.46135 0
M  V30 2706 C 259.123 -1.57507 0.328685 0
M  V30 2707 O 260.315 -1.67465 0.5731 0
M  V30 2708 C 257.444 -3.13641 1.39585 0
M  V30 2709 C 256.53 -3.3666 2.57916 0
M  V30 2710 N 256.921 -3.30107 3.83227 0
M  V30 2711 C 255.219 -3.67411 2.52834 0
M  V30 2712 C 255.92 -3.53456 4.61999 0
M  V30 2713 N 254.896 -3.75705 3.9287 0
M  V30 2714 H 258.698 -1.68382 2.40883 0
M  V30 2715 H 256.212 -0.846169 1.38614 0
M  V30 2716 H 258.209 -3.92933 1.39317 0
M  V30 2717 H 256.869 -3.21444 0.45865 0
M  V30 2718 H 257.88 -3.09316 4.15384 0
M  V30 2719 H 254.557 -3.82275 1.67845 0
M  V30 2720 H 255.947 -3.54093 5.71024 0
M  V30 2721 N 258.668 -1.30515 -0.883378 0
M  V30 2722 C 259.915 -1.1943 -1.63532 0
M  V30 2723 C 260.243 0.250627 -1.92878 0
M  V30 2724 O 259.498 1.19556 -1.54935 0
M  V30 2725 C 259.797 -1.96994 -2.98209 0
M  V30 2726 C 259.463 -3.466 -2.88408 0
M  V30 2727 C 258.125 -3.87397 -2.85442 0
M  V30 2728 C 260.477 -4.41863 -2.76418 0
M  V30 2729 C 257.805 -5.21745 -2.68327 0
M  V30 2730 C 260.157 -5.7632 -2.60841 0
M  V30 2731 C 258.821 -6.16354 -2.56251 0
M  V30 2732 H 258.091 -0.437025 -0.598406 0
M  V30 2733 H 260.738 -1.61635 -1.02696 0
M  V30 2734 H 259.043 -1.47429 -3.63004 0
M  V30 2735 H 260.74 -1.85808 -3.55354 0
M  V30 2736 H 257.33 -3.14182 -2.91527 0
M  V30 2737 H 261.514 -4.11285 -2.77775 0
M  V30 2738 H 256.77 -5.51853 -2.63189 0
M  V30 2739 H 260.944 -6.49772 -2.50538 0
M  V30 2740 H 258.571 -7.20401 -2.42748 0
M  V30 2741 N 260.146 1.09593 -1.13257 0
M  V30 2742 C 261.076 2.18214 -0.830946 0
M  V30 2743 C 262.057 1.68812 0.208966 0
M  V30 2744 O 263.242 1.9408 0.0682666 0
M  V30 2745 C 260.372 3.46051 -0.294296 0
M  V30 2746 C 259.326 4.08778 -1.26826 0
M  V30 2747 C 258.652 5.31419 -0.591449 0
M  V30 2748 C 259.952 4.51476 -2.62615 0
M  V30 2749 H 261.646 2.43703 -1.73923 0
M  V30 2750 H 259.192 1.17128 -0.837675 0
M  V30 2751 H 261.145 4.2134 -0.0709606 0
M  V30 2752 H 259.869 3.20079 0.649366 0
M  V30 2753 H 258.528 3.35505 -1.47756 0
M  V30 2754 H 258.176 5.01727 0.357633 0
M  V30 2755 H 257.876 5.74341 -1.24123 0
M  V30 2756 H 259.4 6.09433 -0.377355 0
M  V30 2757 H 260.814 5.17999 -2.45663 0
M  V30 2758 H 259.211 5.05277 -3.23752 0
M  V30 2759 H 260.281 3.63962 -3.20406 0
M  V30 2760 N 261.624 0.925811 1.2754 0
M  V30 2761 C 262.574 0.394488 2.24561 0
M  V30 2762 C 263.558 -0.500183 1.52928 0
M  V30 2763 O 264.75 -0.337936 1.73744 0
M  V30 2764 C 261.879 -0.353328 3.41477 0
M  V30 2765 C 260.965 0.557752 4.20416 0
M  V30 2766 N 261.356 1.67674 4.77199 0
M  V30 2767 C 259.654 0.360404 4.44541 0
M  V30 2768 C 260.355 2.24324 5.36706 0
M  V30 2769 N 259.331 1.53305 5.21535 0
M  V30 2770 H 263.133 1.2489 2.66045 0
M  V30 2771 H 260.647 0.779864 1.4245 0
M  V30 2772 H 262.644 -0.7509 4.10082 0
M  V30 2773 H 261.304 -1.20469 3.01525 0
M  V30 2774 H 262.315 2.05915 4.75204 0
M  V30 2775 H 258.992 -0.450454 4.15063 0
M  V30 2776 H 260.382 3.18521 5.91603 0
M  V30 2777 N 263.102 -1.41638 0.69111 0
M  V30 2778 C 264.33 -2.05628 0.22909 0
M  V30 2779 C 264.745 -1.51992 -1.11999 0
M  V30 2780 O 264.102 -0.666322 -1.69901 0
M  V30 2781 C 264.153 -3.61084 0.173283 0
M  V30 2782 O 263.874 -4.12735 1.46907 0
M  V30 2783 C 265.375 -4.42213 -0.310266 0
M  V30 2784 H 262.595 -0.662327 0.107534 0
M  V30 2785 H 265.139 -1.81489 0.942438 0
M  V30 2786 H 263.294 -3.84278 -0.490858 0
M  V30 2787 H 263.708 -5.06743 1.35322 0
M  V30 2788 H 265.182 -5.51194 -0.298196 0
M  V30 2789 H 265.659 -4.1799 -1.34838 0
M  V30 2790 H 266.265 -4.24074 0.322716 0
M  V30 2791 N 264.58 -0.43555 -1.51462 0
M  V30 2792 C 265.996 -0.0877501 -1.59359 0
M  V30 2793 C 266.196 1.4027 -1.4466 0
M  V30 2794 O 265.252 2.17243 -1.28693 0
M  V30 2795 C 266.565 -0.606264 -2.94525 0
M  V30 2796 C 268.113 -0.566548 -3.0783 0
M  V30 2797 C 268.588 -1.06201 -4.45517 0
M  V30 2798 N 270.079 -1.01992 -4.51832 0
M  V30 2799 C 270.814 -1.37417 -5.5669 0
M  V30 2800 N 270.31 -1.80119 -6.68976 0
M  V30 2801 N 272.103 -1.29245 -5.47039 0
M  V30 2802 H 264.254 -1.40533 -1.59261 0
M  V30 2803 H 266.517 -0.578992 -0.750648 0
M  V30 2804 H 266.223 -1.64901 -3.10645 0
M  V30 2805 H 266.097 -0.0302097 -3.77188 0
M  V30 2806 H 268.484 0.467208 -2.91378 0
M  V30 2807 H 268.565 -1.17898 -2.2701 0
M  V30 2808 H 268.209 -2.09422 -4.62715 0
M  V30 2809 H 268.139 -0.426127 -5.24873 0
M  V30 2810 H 270.63 -0.706308 -3.71241 0
M  V30 2811 H 270.943 -2.05392 -7.45006 0
M  V30 2812 H 269.288 -1.84044 -6.70189 0
M  V30 2813 H 272.479 -0.957522 -4.58202 0
M  V30 2814 H 272.652 -1.57182 -6.28648 0
M  V30 2815 N 266.058 1.56714 -0.166846 0
M  V30 2816 C 267.335 1.88412 0.525373 0
M  V30 2817 C 267.715 1.07602 1.81618 0
M  V30 2818 O 267.063 0.168621 2.27877 0
M  V30 2819 C 267.273 3.40363 0.771613 0
M  V30 2820 C 268.621 4.10007 1.1036 0
M  V30 2821 O 269.645 3.45655 0.860304 0
M  V30 2822 O 268.504 5.2369 1.56239 0
M  V30 2823 H 265.598 0.781587 0.270278 0
M  V30 2824 H 268.144 1.68458 -0.204946 0
M  V30 2825 H 266.916 3.91046 -0.141093 0
M  V30 2826 H 266.539 3.65914 1.55541 0
M  V30 2827 N 267.536 -0.106894 1.57237 0
M  V30 2828 C 268.782 -0.81373 1.85759 0
M  V30 2829 C 269.115 -1.78952 0.754315 0
M  V30 2830 O 268.39 -1.93029 -0.23879 0
M  V30 2831 C 268.673 -1.55293 3.24894 0
M  V30 2832 C 268.526 -0.595929 4.45835 0
M  V30 2833 C 269.845 -2.5063 3.61763 0
M  V30 2834 H 266.964 -0.294369 0.67566 0
M  V30 2835 H 269.606 -0.0776472 1.89841 0
M  V30 2836 H 267.756 -2.1804 3.21544 0
M  V30 2837 H 269.428 0.0236262 4.61294 0
M  V30 2838 H 267.671 0.0916191 4.33703 0
M  V30 2839 H 268.342 -1.15004 5.39887 0
M  V30 2840 H 270.818 -1.97982 3.65981 0
M  V30 2841 H 269.694 -2.99376 4.60071 0
M  V30 2842 H 269.955 -3.3385 2.89821 0
M  V30 2843 N 269.014 -1.53014 -0.377408 0
M  V30 2844 C 270.26 -1.68872 -1.12294 0
M  V30 2845 C 270.593 -0.433224 -1.89306 0
M  V30 2846 O 269.868 0.569258 -1.85983 0
M  V30 2847 C 270.151 -2.93115 -2.09179 0
M  V30 2848 C 270.004 -4.28794 -1.35853 0
M  V30 2849 C 271.323 -3.12928 -3.09458 0
M  V30 2850 H 268.442 -0.614518 -0.406862 0
M  V30 2851 H 271.084 -1.85633 -0.40503 0
M  V30 2852 H 269.234 -2.78956 -2.70399 0
M  V30 2853 H 270.906 -4.54742 -0.775082 0
M  V30 2854 H 269.149 -4.28744 -0.660364 0
M  V30 2855 H 269.82 -5.11837 -2.06706 0
M  V30 2856 H 272.296 -3.26194 -2.58334 0
M  V30 2857 H 271.172 -4.01316 -3.74482 0
M  V30 2858 H 271.433 -2.27669 -3.78971 0
M  V30 2859 N 270.492 0.636531 -1.44174 0
M  V30 2860 C 271.442 1.74233 -1.47061 0
M  V30 2861 C 272.426 1.57331 -0.337034 0
M  V30 2862 O 273.618 1.67159 -0.581973 0
M  V30 2863 C 270.747 3.12897 -1.41246 0
M  V30 2864 C 269.833 3.35288 -2.59698 0
M  V30 2865 N 270.224 3.2807 -3.84972 0
M  V30 2866 C 268.522 3.66065 -2.54778 0
M  V30 2867 C 269.223 3.51001 -4.63867 0
M  V30 2868 N 268.199 3.73616 -3.94857 0
M  V30 2869 H 272.001 1.67103 -2.41773 0
M  V30 2870 H 269.515 0.838806 -1.3906 0
M  V30 2871 H 271.512 3.92189 -1.41398 0
M  V30 2872 H 270.172 3.21197 -0.47569 0
M  V30 2873 H 271.183 3.07109 -4.17019 0
M  V30 2874 H 267.86 3.81379 -1.6987 0
M  V30 2875 H 269.25 3.51059 -5.72894 0
M  V30 2876 N 271.97 1.30982 0.876444 0
M  V30 2877 C 272.9 1.20668 1.99903 0
M  V30 2878 C 273.881 0.095354 1.69833 0
M  V30 2879 O 275.066 0.27885 1.92188 0
M  V30 2880 C 272.196 0.90655 3.3526 0
M  V30 2881 C 271.15 1.97675 3.79617 0
M  V30 2882 C 270.476 1.52943 5.1236 0
M  V30 2883 C 271.776 3.389 3.97422 0
M  V30 2884 H 273.47 2.14586 2.0879 0
M  V30 2885 H 271.016 1.03308 1.00317 0
M  V30 2886 H 272.969 0.821025 4.13324 0
M  V30 2887 H 271.693 -0.0682969 3.26529 0
M  V30 2888 H 270.352 2.05205 3.03787 0
M  V30 2889 H 270 0.54262 5.00065 0
M  V30 2890 H 269.7 2.24532 5.43009 0
M  V30 2891 H 271.224 1.45786 5.92941 0
M  V30 2892 H 272.638 3.34081 4.659 0
M  V30 2893 H 271.035 4.0865 4.3946 0
M  V30 2894 H 272.105 3.80163 3.01006 0
M  V30 2895 N 273.449 -1.08991 1.13837 0
M  V30 2896 C 274.726 -1.77863 0.813876 0
M  V30 2897 C 275.106 -1.99375 -0.693746 0
M  V30 2898 O 274.454 -1.59875 -1.63255 0
M  V30 2899 C 274.664 -3.0986 1.60586 0
M  V30 2900 C 276.012 -3.84493 1.8014 0
M  V30 2901 O 277.036 -3.19624 1.57222 0
M  V30 2902 O 275.895 -5.00957 2.18413 0
M  V30 2903 H 272.989 -0.771589 0.297624 0
M  V30 2904 H 275.535 -1.15507 1.24323 0
M  V30 2905 H 274.307 -2.89715 2.63022 0
M  V30 2906 H 273.93 -3.79942 1.17173 0
M  V30 2907 N 274.927 -0.932562 -1.27047 0
M  V30 2908 C 275.857 -0.452902 -2.29066 0
M  V30 2909 C 276.838 0.489338 -1.62909 0
M  V30 2910 O 278.023 0.393046 -1.90181 0
M  V30 2911 C 275.153 0.290698 -3.46081 0
M  V30 2912 C 274.107 -0.564168 -4.24265 0
M  V30 2913 C 273.433 0.308886 -5.33807 0
M  V30 2914 C 274.733 -1.83112 -4.89149 0
M  V30 2915 H 276.427 -1.30552 -2.69437 0
M  V30 2916 H 273.973 -0.629201 -1.29526 0
M  V30 2917 H 275.926 0.637233 -4.16554 0
M  V30 2918 H 274.65 1.17738 -3.0464 0
M  V30 2919 H 273.309 -0.893477 -3.55545 0
M  V30 2920 H 272.957 1.19467 -4.88607 0
M  V30 2921 H 272.657 -0.259633 -5.87026 0
M  V30 2922 H 274.181 0.650884 -6.07121 0
M  V30 2923 H 275.595 -1.55236 -5.51883 0
M  V30 2924 H 273.992 -2.34353 -5.52448 0
M  V30 2925 H 275.062 -2.54772 -4.12576 0
M  V30 2926 N 276.405 1.4127 -0.698611 0
M  V30 2927 C 277.352 2.30773 -0.0352094 0
M  V30 2928 C 278.322 1.47273 0.768111 0
M  V30 2929 O 279.507 1.76053 0.735524 0
M  V30 2930 C 276.647 3.33346 0.893 0
M  V30 2931 C 275.76 4.31924 0.0809695 0
M  V30 2932 C 274.895 5.21566 1.0071 0
M  V30 2933 C 273.934 6.11811 0.188155 0
M  V30 2934 N 273.071 6.93926 1.06825 0
M  V30 2935 H 277.911 2.86943 -0.804207 0
M  V30 2936 H 275.448 1.4132 -0.408294 0
M  V30 2937 H 277.406 3.91368 1.44523 0
M  V30 2938 H 276.036 2.78719 1.62836 0
M  V30 2939 H 275.088 3.75825 -0.588224 0
M  V30 2940 H 276.4 4.95716 -0.553801 0
M  V30 2941 H 275.554 5.84437 1.62845 0
M  V30 2942 H 274.293 4.58008 1.67572 0
M  V30 2943 H 273.298 5.47986 -0.446254 0
M  V30 2944 H 274.523 6.77425 -0.476716 0
M  V30 2945 H 272.469 6.32973 1.72283 0
M  V30 2946 H 272.386 7.54416 0.489123 0
M  V30 2947 H 273.654 7.61262 1.67632 0
M  V30 2948 N 277.883 0.443576 1.51229 0
M  V30 2949 C 279.294 -0.0180867 1.86691 0
M  V30 2950 C 279.645 -1.41384 1.36033 0
M  V30 2951 O 278.77 -2.04291 0.713722 0
M  V30 2952 C 279.365 -0.039597 3.38777 0
M  V30 2953 C 277.924 -0.445692 3.73752 0
M  V30 2954 C 277.071 0.357584 2.74985 0
M  V30 2955 H 280.022 0.659138 1.44364 0
M  V30 2956 H 280.043 -0.847761 3.70936 0
M  V30 2957 H 279.555 0.976382 3.75617 0
M  V30 2958 H 277.656 -1.46704 3.42503 0
M  V30 2959 H 277.769 -0.166155 4.78812 0
M  V30 2960 H 276.133 -0.184973 2.54027 0
M  V30 2961 H 276.916 1.37256 3.14668 0
M  V30 2962 N 279.361 -1.56624 0.175154 0
M  V30 2963 C 280.293 -2.15333 -0.785128 0
M  V30 2964 C 281.306 -1.1099 -1.19101 0
M  V30 2965 O 282.495 -1.38162 -1.13019 0
M  V30 2966 C 279.595 -2.68427 -2.06882 0
M  V30 2967 C 278.768 -3.97466 -1.8259 0
M  V30 2968 C 277.827 -4.35585 -2.95215 0
M  V30 2969 O 276.853 -5.03389 -2.65684 0
M  V30 2970 N 278.055 -3.97457 -4.23094 0
M  V30 2971 H 280.82 -2.98359 -0.283187 0
M  V30 2972 H 278.381 -1.61898 -0.00749817 0
M  V30 2973 H 280.373 -2.90924 -2.81328 0
M  V30 2974 H 278.943 -1.89968 -2.48256 0
M  V30 2975 H 278.163 -3.83307 -0.920287 0
M  V30 2976 H 279.451 -4.81736 -1.63733 0
M  V30 2977 H 278.849 -3.42878 -4.49945 0
M  V30 2978 H 277.406 -4.24947 -4.9423 0
M  V30 2979 N 280.839 0.0985539 -1.57292 0
M  V30 2980 C 281.787 1.1387 -2.02821 0
M  V30 2981 C 282.781 1.41676 -0.928666 0
M  V30 2982 O 283.987 1.41398 -1.11385 0
M  V30 2983 H 280.362 0.384419 -0.646317 0
M  V30 2984 H 282.333 0.728347 -2.89375 0
M  V30 2985 C 281.082 2.45166 -2.46554 0
M  V30 2986 H 280.405 2.24613 -3.3074 0
M  V30 2987 H 281.845 3.16456 -2.8219 0
M  V30 2988 C 280.304 3.09216 -1.33742 0
M  V30 2989 O 280.834 3.96163 -0.66464 0
M  V30 2990 N 279.04 2.69413 -1.08928 0
M  V30 2991 H 278.587 1.98801 -1.63817 0
M  V30 2992 H 278.545 3.12594 -0.336458 0
M  V30 2993 N 282.317 1.53212 0.369288 0
M  V30 2994 C 283.566 1.68436 1.10961 0
M  V30 2995 C 283.879 0.440738 1.9057 0
M  V30 2996 O 285.085 0.473446 2.6734 0
M  V30 2997 C 283.541 2.97744 2.0218 0
M  V30 2998 C 283.149 4.29355 1.279 0
M  V30 2999 C 284.893 3.22334 2.76226 0
M  V30 3000 C 282.8 5.49755 2.17999 0
M  V30 3001 H 281.73 0.627568 0.41794 0
M  V30 3002 H 284.381 1.79713 0.370884 0
M  V30 3003 H 282.763 2.8026 2.79768 0
M  V30 3004 H 283.937 4.57458 0.554007 0
M  V30 3005 H 282.252 4.11179 0.657311 0
M  V30 3006 H 284.849 4.09471 3.43857 0
M  V30 3007 H 285.192 2.38238 3.41392 0
M  V30 3008 H 285.725 3.40475 2.05723 0
M  V30 3009 H 282.464 6.36318 1.57417 0
M  V30 3010 H 281.984 5.25937 2.88359 0
M  V30 3011 H 283.663 5.84401 2.77641 0
M  V30 3012 N 283.795 -0.628877 1.44509 0
M  V30 3013 C 284.725 -1.75187 1.54376 0
M  V30 3014 C 285.706 -1.65411 0.396618 0
M  V30 3015 O 286.891 -1.84137 0.617031 0
M  V30 3016 C 284.021 -3.13725 1.48976 0
M  V30 3017 C 282.975 -3.38291 2.62189 0
M  V30 3018 C 282.301 -4.76883 2.41841 0
M  V30 3019 C 283.601 -3.30632 4.04326 0
M  V30 3020 H 285.295 -1.67187 2.48373 0
M  V30 3021 H 282.841 -0.802909 1.19538 0
M  V30 3022 H 284.794 -3.92064 1.54478 0
M  V30 3023 H 283.518 -3.22515 0.514961 0
M  V30 3024 H 282.177 -2.62334 2.56079 0
M  V30 3025 H 281.825 -4.82378 1.42548 0
M  V30 3026 H 281.525 -4.94278 3.17747 0
M  V30 3027 H 283.049 -5.57449 2.49165 0
M  V30 3028 H 284.463 -3.98873 4.11793 0
M  V30 3029 H 282.86 -3.59561 4.80454 0
M  V30 3030 H 283.93 -2.28404 4.27738 0
M  V30 3031 N 285.273 -1.31445 -0.869486 0
M  V30 3032 C 286.203 -1.21727 -1.99261 0
M  V30 3033 C 287.184 -0.104359 -1.6978 0
M  V30 3034 O 288.369 -0.289038 -1.92037 0
M  V30 3035 C 285.499 -0.924317 -3.34774 0
M  V30 3036 C 284.453 -1.99685 -3.78563 0
M  V30 3037 C 283.779 -1.55658 -5.11541 0
M  V30 3038 C 285.079 -3.41003 -3.95619 0
M  V30 3039 H 286.773 -2.1569 -2.07649 0
M  V30 3040 H 284.319 -1.03839 -0.997675 0
M  V30 3041 H 286.272 -0.842934 -4.12883 0
M  V30 3042 H 284.996 0.0509793 -3.2656 0
M  V30 3043 H 283.655 -2.06813 -3.02694 0
M  V30 3044 H 283.303 -0.569132 -4.9977 0
M  V30 3045 H 283.003 -2.27409 -5.41811 0
M  V30 3046 H 284.527 -1.48928 -5.92159 0
M  V30 3047 H 285.941 -3.36547 -4.64122 0
M  V30 3048 H 284.338 -4.10975 -4.37286 0
M  V30 3049 H 285.408 -3.81754 -2.98985 0
M  V30 3050 N 286.751 1.08385 -1.14413 0
M  V30 3051 C 287.979 1.84517 -0.936001 0
M  V30 3052 C 288.394 1.81626 0.515503 0
M  V30 3053 O 287.751 1.22008 1.35721 0
M  V30 3054 C 287.802 3.32049 -1.42918 0
M  V30 3055 O 287.523 3.34951 -2.82381 0
M  V30 3056 C 289.024 4.24986 -1.26103 0
M  V30 3057 H 286.244 0.582491 -0.333084 0
M  V30 3058 H 288.788 1.36885 -1.5193 0
M  V30 3059 H 286.943 3.7707 -0.888641 0
M  V30 3060 H 287.357 4.27048 -3.04517 0
M  V30 3061 H 288.831 5.26615 -1.6547 0
M  V30 3062 H 289.308 4.38726 -0.20392 0
M  V30 3063 H 289.914 3.85791 -1.79012 0
M  V30 3064 N 288.23 0.939286 1.26551 0
M  V30 3065 C 289.455 0.602008 1.98471 0
M  V30 3066 C 289.88 -0.815624 1.69497 0
M  V30 3067 O 289.238 -1.54912 0.941905 0
M  V30 3068 C 289.286 0.848407 3.50477 0
M  V30 3069 O 288.39 -0.0804009 4.12322 0
M  V30 3070 H 287.731 0.23049 0.622712 0
M  V30 3071 H 290.261 1.2617 1.61066 0
M  V30 3072 H 290.271 0.768553 4.00696 0
M  V30 3073 H 288.946 1.88171 3.70897 0
M  V30 3074 H 287.523 0.0503508 3.72866 0
M  V30 3075 N 289.708 -1.40897 0.706093 0
M  V30 3076 C 290.618 -2.3455 0.0482286 0
M  V30 3077 C 291.634 -1.56796 -0.754396 0
M  V30 3078 O 292.81 -1.89228 -0.689538 0
M  V30 3079 C 289.875 -3.35625 -0.869303 0
M  V30 3080 C 288.936 -4.29261 -0.0576994 0
M  V30 3081 C 288.169 -5.25508 -0.931531 0
M  V30 3082 O 288.392 -5.27472 -2.17092 0
M  V30 3083 O 287.326 -6.00727 -0.375587 0
M  V30 3084 H 291.152 -2.92407 0.820476 0
M  V30 3085 H 288.737 -1.4193 0.4665 0
M  V30 3086 H 290.619 -3.97635 -1.39514 0
M  V30 3087 H 289.294 -2.80196 -1.62086 0
M  V30 3088 H 288.201 -3.70566 0.512988 0
M  V30 3089 H 289.534 -4.87817 0.655426 0
M  V30 3090 N 291.186 -0.45159 -1.50991 0
M  V30 3091 C 292.411 0.110667 -2.07105 0
M  V30 3092 C 292.836 1.3446 -1.31538 0
M  V30 3093 O 292.194 1.77743 -0.357365 0
M  V30 3094 C 292.242 0.397238 -3.58405 0
M  V30 3095 O 291.346 1.48124 -3.84881 0
M  V30 3096 H 290.687 -0.00439271 -0.663985 0
M  V30 3097 H 293.217 -0.637026 -1.9443 0
M  V30 3098 H 293.227 0.64351 -4.02893 0
M  V30 3099 H 291.902 -0.504553 -4.12828 0
M  V30 3100 H 290.479 1.22381 -3.52246 0
M  V30 3101 N 292.664 1.56529 -0.183458 0
M  V30 3102 C 294.075 1.83739 0.331177 0
M  V30 3103 C 294.426 1.10373 1.62211 0
M  V30 3104 O 293.551 0.36071 2.13373 0
M  V30 3105 C 294.146 3.33306 0.607646 0
M  V30 3106 C 292.705 3.60969 1.06668 0
M  V30 3107 C 291.852 2.77086 0.109029 0
M  V30 3108 H 294.803 1.53379 -0.407484 0
M  V30 3109 H 294.824 3.51444 1.45832 0
M  V30 3110 H 294.336 3.86677 -0.332086 0
M  V30 3111 H 292.437 3.13021 2.0211 0
M  V30 3112 H 292.55 4.69231 0.967447 0
M  V30 3113 H 290.914 2.47319 0.608714 0
M  V30 3114 H 291.697 3.33241 -0.82494 0
M  V30 3115 N 294.142 -0.090211 1.57342 0
M  V30 3116 C 295.072 -1.10976 2.05443 0
M  V30 3117 C 296.053 -1.41482 0.944284 0
M  V30 3118 O 297.238 -1.51428 1.21586 0
M  V30 3119 C 294.368 -2.42831 2.48295 0
M  V30 3120 C 293.322 -2.26721 3.63018 0
M  V30 3121 C 292.648 -3.63796 3.91863 0
M  V30 3122 C 293.948 -1.7037 4.93732 0
M  V30 3123 H 295.642 -0.709564 2.9087 0
M  V30 3124 H 293.188 -0.339874 1.39932 0
M  V30 3125 H 295.141 -3.14431 2.80555 0
M  V30 3126 H 293.865 -2.84795 1.59873 0
M  V30 3127 H 292.524 -1.57565 3.31012 0
M  V30 3128 H 292.172 -4.03297 3.00601 0
M  V30 3129 H 291.872 -3.53861 4.69101 0
M  V30 3130 H 293.396 -4.36855 4.26603 0
M  V30 3131 H 294.81 -2.31816 5.24342 0
M  V30 3132 H 293.207 -1.71181 5.75167 0
M  V30 3133 H 294.277 -0.663542 4.80339 0
M  V30 3134 N 295.62 -1.53406 -0.361157 0
M  V30 3135 C 296.868 -1.69467 -1.10115 0
M  V30 3136 C 297.189 -0.451352 -1.89705 0
M  V30 3137 O 296.459 0.534636 -1.88463 0
M  V30 3138 H 295.039 -0.624749 -0.409508 0
M  V30 3139 H 297.701 -1.90609 -0.406699 0
M  V30 3140 H 296.797 -2.55774 -1.78847 0
M  V30 3141 N 297.098 0.621204 -1.44841 0
M  V30 3142 C 298.375 1.38 -1.38619 0
M  V30 3143 C 298.755 2.11041 -0.0498935 0
M  V30 3144 O 298.103 2.06992 0.967816 0
M  V30 3145 C 298.313 2.33817 -2.59096 0
M  V30 3146 C 299.661 2.96844 -3.03593 0
M  V30 3147 O 300.685 2.44141 -2.59371 0
M  V30 3148 O 299.544 3.92476 -3.80296 0
M  V30 3149 H 296.638 0.61811 -0.549426 0
M  V30 3150 H 299.184 0.645429 -1.56947 0
M  V30 3151 H 297.956 1.79012 -3.47952 0
M  V30 3152 H 297.579 3.14676 -2.43032 0
M  V30 3153 N 298.576 1.31904 0.862503 0
M  V30 3154 C 299.825 1.21373 1.61094 0
M  V30 3155 C 300.138 -0.22504 1.94301 0
M  V30 3156 O 301.344 -0.452121 2.67709 0
M  V30 3157 C 299.8 2.12525 2.9045 0
M  V30 3158 C 299.408 3.61441 2.64697 0
M  V30 3159 C 301.152 2.10813 3.68454 0
M  V30 3160 C 299.059 4.44578 3.90006 0
M  V30 3161 H 297.989 0.450705 0.604468 0
M  V30 3162 H 300.64 1.56811 0.953027 0
M  V30 3163 H 299.022 1.69994 3.57656 0
M  V30 3164 H 300.196 4.12264 2.05851 0
M  V30 3165 H 298.511 3.65205 2.00036 0
M  V30 3166 H 301.108 2.70167 4.61426 0
M  V30 3167 H 301.451 1.09713 4.01583 0
M  V30 3168 H 301.984 2.51583 3.08141 0
M  V30 3169 H 298.723 5.46461 3.62023 0
M  V30 3170 H 298.243 3.98508 4.48276 0
M  V30 3171 H 299.922 4.57176 4.5782 0
M  V30 3172 N 300.054 -1.07777 1.14986 0
M  V30 3173 C 301.001 -2.14867 0.842672 0
M  V30 3174 C 301.971 -1.6486 -0.202552 0
M  V30 3175 O 303.156 -1.90668 -0.0710568 0
M  V30 3176 C 300.296 -3.43486 0.333363 0
M  V30 3177 C 299.409 -4.07306 1.43965 0
M  V30 3178 C 298.544 -5.23744 0.886914 0
M  V30 3179 C 297.583 -5.79517 1.97043 0
M  V30 3180 N 296.72 -6.87291 1.4344 0
M  V30 3181 H 301.56 -2.40485 1.75986 0
M  V30 3182 H 299.097 -1.1801 0.878179 0
M  V30 3183 H 301.055 -4.17195 0.0198163 0
M  V30 3184 H 299.685 -3.18133 -0.546916 0
M  V30 3185 H 298.737 -3.31293 1.86946 0
M  V30 3186 H 300.049 -4.44771 2.25788 0
M  V30 3187 H 299.203 -6.04419 0.525651 0
M  V30 3188 H 297.942 -4.87685 0.0377957 0
M  V30 3189 H 296.947 -4.97491 2.34057 0
M  V30 3190 H 298.172 -6.17632 2.82325 0
M  V30 3191 H 296.118 -6.5318 0.607567 0
M  V30 3192 H 296.035 -7.23617 2.18895 0
M  V30 3193 H 297.303 -7.71682 1.10124 0
M  V30 3194 N 301.532 -0.945985 -1.26051 0
M  V30 3195 C 302.781 -0.591836 -1.92822 0
M  V30 3196 C 303.094 0.873956 -1.7499 0
M  V30 3197 O 304.3 1.33769 -2.36259 0
M  V30 3198 C 302.756 -1.00776 -3.45503 0
M  V30 3199 C 302.364 -2.4955 -3.7206 0
M  V30 3200 C 304.108 -0.725735 -4.1825 0
M  V30 3201 C 302.015 -2.84988 -5.18205 0
M  V30 3202 H 300.945 -0.217635 -0.721908 0
M  V30 3203 H 303.596 -1.14927 -1.43052 0
M  V30 3204 H 301.978 -0.378812 -3.94184 0
M  V30 3205 H 303.152 -3.1739 -3.34066 0
M  V30 3206 H 301.467 -2.75133 -3.12555 0
M  V30 3207 H 304.064 -0.966771 -5.25887 0
M  V30 3208 H 304.407 0.337639 -4.14929 0
M  V30 3209 H 304.94 -1.31463 -3.7545 0
M  V30 3210 H 301.679 -3.90307 -5.26631 0
M  V30 3211 H 301.199 -2.21813 -5.57278 0
M  V30 3212 H 302.878 -2.73712 -5.86252 0
M  V30 3213 N 303.011 1.40521 -0.713556 0
M  V30 3214 C 304.257 2.01221 -0.252564 0
M  V30 3215 C 304.59 1.56444 1.1506 0
M  V30 3216 O 303.865 0.783597 1.78017 0
M  V30 3217 C 304.148 3.58582 -0.330332 0
M  V30 3218 C 304.001 4.13437 -1.77173 0
M  V30 3219 C 305.32 4.39079 0.299641 0
M  V30 3220 H 302.439 0.731077 -0.0932471 0
M  V30 3221 H 305.081 1.67026 -0.905673 0
M  V30 3222 H 303.231 3.87844 0.225737 0
M  V30 3223 H 304.903 3.9498 -2.38303 0
M  V30 3224 H 303.146 3.67801 -2.3001 0
M  V30 3225 H 303.817 5.22597 -1.77755 0
M  V30 3226 H 306.293 4.15735 -0.174139 0
M  V30 3227 H 305.169 5.4848 0.214771 0
M  V30 3228 H 305.43 4.19915 1.38288 0
M  V30 3229 N 304.489 0.459591 1.5075 0
M  V30 3230 C 305.766 -0.160371 1.94941 0
M  V30 3231 C 306.146 -1.58048 1.39943 0
M  V30 3232 O 305.494 -2.206 0.595629 0
M  V30 3233 C 305.704 -0.115432 3.48809 0
M  V30 3234 C 307.052 -0.310026 4.23467 0
M  V30 3235 O 308.076 -0.192543 3.55679 0
M  V30 3236 O 306.935 -0.546031 5.43765 0
M  V30 3237 H 304.029 -0.117925 0.818549 0
M  V30 3238 H 306.575 0.519169 1.61563 0
M  V30 3239 H 305.347 0.87652 3.81357 0
M  V30 3240 H 304.97 -0.836928 3.88692 0
M  V30 3241 N 305.967 -1.56429 0.191757 0
M  V30 3242 C 307.214 -1.97485 -0.447891 0
M  V30 3243 C 307.542 -1.07852 -1.61859 0
M  V30 3244 O 306.797 -0.116903 -1.95351 0
M  V30 3245 C 307.096 -3.44449 -0.953384 0
M  V30 3246 C 306.762 -4.50781 0.103586 0
M  V30 3247 C 305.424 -4.79584 0.394023 0
M  V30 3248 C 307.776 -5.1471 0.819946 0
M  V30 3249 C 305.104 -5.69607 1.40585 0
M  V30 3250 C 307.456 -6.05827 1.8209 0
M  V30 3251 C 306.12 -6.32987 2.11857 0
M  V30 3252 H 305.39 -0.722648 -0.163895 0
M  V30 3253 H 308.037 -1.89322 0.28802 0
M  V30 3254 H 306.342 -3.49666 -1.76751 0
M  V30 3255 H 308.039 -3.73569 -1.45765 0
M  V30 3256 H 304.629 -4.28394 -0.132951 0
M  V30 3257 H 308.813 -4.92552 0.608789 0
M  V30 3258 H 304.069 -5.88926 1.64243 0
M  V30 3259 H 308.243 -6.54424 2.38123 0
M  V30 3260 H 305.87 -7.02544 2.90407 0
M  V30 3261 N 307.445 0.0818655 -1.57387 0
M  V30 3262 C 308.693 0.781368 -1.86384 0
M  V30 3263 C 309.014 1.78618 -0.782342 0
M  V30 3264 O 308.284 1.94976 0.190061 0
M  V30 3265 H 306.864 0.291562 -0.687751 0
M  V30 3266 H 309.526 0.060348 -1.94807 0
M  V30 3267 H 308.622 1.3038 -2.83562 0
M  V30 3268 N 308.923 1.53595 0.353017 0
M  V30 3269 C 309.853 1.83902 1.43883 0
M  V30 3270 C 310.834 0.693421 1.55324 0
M  V30 3271 O 312.019 0.944452 1.69687 0
M  V30 3272 C 309.149 2.04016 2.8106 0
M  V30 3273 C 308.103 3.19814 2.84434 0
M  V30 3274 C 307.429 3.25244 4.24406 0
M  V30 3275 C 308.729 4.58133 2.50822 0
M  V30 3276 H 310.423 2.74835 1.1877 0
M  V30 3277 H 307.969 1.32242 0.569917 0
M  V30 3278 H 309.922 2.238 3.57059 0
M  V30 3279 H 308.646 1.09804 3.07588 0
M  V30 3280 H 307.305 2.9987 2.10887 0
M  V30 3281 H 306.953 2.28646 4.48029 0
M  V30 3282 H 306.653 4.03054 4.27576 0
M  V30 3283 H 308.177 3.47228 5.0226 0
M  V30 3284 H 309.591 4.77995 3.16534 0
M  V30 3285 H 307.988 5.38276 2.6529 0
M  V30 3286 H 309.058 4.62387 1.46034 0
M  V30 3287 N 310.401 -0.613514 1.45168 0
M  V30 3288 C 311.626 -1.40437 1.52618 0
M  V30 3289 C 312.051 -1.87438 0.157707 0
M  V30 3290 O 311.409 -1.59791 -0.856537 0
M  V30 3291 C 311.457 -2.58894 2.51011 0
M  V30 3292 O 310.561 -3.59326 2.02382 0
M  V30 3293 H 309.902 -0.419506 0.514695 0
M  V30 3294 H 312.432 -0.747215 1.90467 0
M  V30 3295 H 312.442 -3.06214 2.69624 0
M  V30 3296 H 311.117 -2.24032 3.50403 0
M  V30 3297 H 309.694 -3.18695 1.93618 0
M  V30 3298 N 311.879 -1.3236 -0.855495 0
M  V30 3299 C 313.295 -1.11332 -1.14356 0
M  V30 3300 C 313.495 0.106751 -2.01217 0
M  V30 3301 O 312.551 0.791891 -2.39761 0
M  V30 3302 C 313.864 -2.39237 -1.82171 0
M  V30 3303 C 315.412 -2.44986 -1.9481 0
M  V30 3304 C 315.887 -3.7281 -2.66039 0
M  V30 3305 N 317.378 -3.73787 -2.73565 0
M  V30 3306 C 318.113 -4.69394 -3.29327 0
M  V30 3307 N 317.609 -5.75367 -3.85907 0
M  V30 3308 N 319.402 -4.56893 -3.27423 0
M  V30 3309 H 311.553 -2.10586 -0.277027 0
M  V30 3310 H 313.816 -0.929701 -0.185364 0
M  V30 3311 H 313.522 -3.28431 -1.25802 0
M  V30 3312 H 313.396 -2.50134 -2.82335 0
M  V30 3313 H 315.783 -1.56252 -2.50338 0
M  V30 3314 H 315.864 -2.38043 -0.936448 0
M  V30 3315 H 315.508 -4.61918 -2.11174 0
M  V30 3316 H 315.438 -3.77024 -3.67642 0
M  V30 3317 H 317.929 -2.97189 -2.33424 0
M  V30 3318 H 318.242 -6.44378 -4.26611 0
M  V30 3319 H 316.587 -5.79123 -3.84242 0
M  V30 3320 H 319.778 -3.73269 -2.82467 0
M  V30 3321 H 319.951 -5.31577 -3.7058 0
M  V30 3322 N 313.357 1.07166 -1.15556 0
M  V30 3323 C 314.606 1.79181 -0.926132 0
M  V30 3324 C 314.919 1.87768 0.547967 0
M  V30 3325 O 316.125 2.56323 0.895036 0
M  V30 3326 C 314.581 3.22 -1.60761 0
M  V30 3327 C 314.189 3.21607 -3.11886 0
M  V30 3328 C 315.933 3.9861 -1.4598 0
M  V30 3329 C 313.84 4.59092 -3.72812 0
M  V30 3330 H 312.77 0.67154 -0.342856 0
M  V30 3331 H 315.421 1.2027 -1.3859 0
M  V30 3332 H 313.803 3.81115 -1.07553 0
M  V30 3333 H 314.977 2.72127 -3.71865 0
M  V30 3334 H 313.292 2.58495 -3.2645 0
M  V30 3335 H 315.889 5.00225 -1.88888 0
M  V30 3336 H 316.232 4.143 -0.407541 0
M  V30 3337 H 316.765 3.45996 -1.96295 0
M  V30 3338 H 313.504 4.48606 -4.77946 0
M  V30 3339 H 313.024 5.08803 -3.17616 0
M  V30 3340 H 314.703 5.28059 -3.73848 0
M  V30 3341 N 314.835 0.952656 1.25548 0
M  V30 3342 C 315.765 0.489287 2.28316 0
M  V30 3343 C 316.746 -0.463359 1.63667 0
M  V30 3344 O 317.931 -0.36274 1.90782 0
M  V30 3345 C 315.061 -0.235603 3.465 0
M  V30 3346 C 314.015 0.631593 4.23314 0
M  V30 3347 C 313.341 -0.223923 5.34231 0
M  V30 3348 C 314.641 1.90871 4.86174 0
M  V30 3349 H 316.335 1.34822 2.67326 0
M  V30 3350 H 313.881 0.649728 1.28509 0
M  V30 3351 H 315.834 -0.570882 4.17515 0
M  V30 3352 H 314.558 -1.12877 3.06474 0
M  V30 3353 H 313.217 0.949929 3.54079 0
M  V30 3354 H 312.865 -1.11678 4.90446 0
M  V30 3355 H 312.565 0.35299 5.86539 0
M  V30 3356 H 314.089 -0.554214 6.0808 0
M  V30 3357 H 315.503 1.63997 5.49343 0
M  V30 3358 H 313.9 2.43112 5.4865 0
M  V30 3359 H 314.97 2.61304 4.08471 0
M  V30 3360 N 316.313 -1.40141 0.720998 0
M  V30 3361 C 317.26 -2.30688 0.071919 0
M  V30 3362 C 318.23 -1.48476 -0.744584 0
M  V30 3363 O 319.415 -1.77201 -0.707423 0
M  V30 3364 C 316.555 -3.34724 -0.839855 0
M  V30 3365 C 315.668 -4.31998 -0.0122438 0
M  V30 3366 C 314.803 -5.23102 -0.923995 0
M  V30 3367 C 313.842 -6.12033 -0.0907969 0
M  V30 3368 N 312.979 -6.95537 -0.957718 0
M  V30 3369 H 317.819 -2.85628 0.849755 0
M  V30 3370 H 315.356 -1.40653 0.430726 0
M  V30 3371 H 317.314 -3.93618 -1.38279 0
M  V30 3372 H 315.944 -2.81274 -1.58381 0
M  V30 3373 H 314.996 -3.74841 0.64794 0
M  V30 3374 H 316.308 -4.94772 0.632595 0
M  V30 3375 H 315.462 -5.86953 -1.53527 0
M  V30 3376 H 314.201 -4.60615 -1.60264 0
M  V30 3377 H 313.206 -5.47207 0.533377 0
M  V30 3378 H 314.431 -6.76581 0.584428 0
M  V30 3379 H 312.377 -6.35633 -1.62192 0
M  V30 3380 H 312.294 -7.55099 -0.36904 0
M  V30 3381 H 313.562 -7.63832 -1.555 0
M  V30 3382 N 317.792 -0.46758 -1.50504 0
M  V30 3383 C 318.74 0.342482 -2.30065 0
M  V30 3384 C 319.734 0.993596 -1.37201 0
M  V30 3385 O 320.94 0.925102 -1.54408 0
M  V30 3386 H 317.315 0.129283 -0.740803 0
M  V30 3387 H 319.286 -0.34899 -2.96352 0
M  V30 3388 C 318.035 1.4139 -3.17654 0
M  V30 3389 H 317.358 0.922264 -3.89017 0
M  V30 3390 H 318.798 1.95335 -3.76325 0
M  V30 3391 C 317.257 2.4139 -2.35016 0
M  V30 3392 O 317.787 3.46586 -2.03079 0
M  V30 3393 N 315.993 2.13021 -1.97662 0
M  V30 3394 H 315.54 1.27499 -2.23834 0
M  V30 3395 H 315.498 2.80164 -1.42673 0
M  V30 3396 N 319.27 1.56325 -0.20005 0
M  V30 3397 C 320.495 2.02548 0.44597 0
M  V30 3398 C 320.92 1.07922 1.5406 0
M  V30 3399 O 320.278 0.0635775 1.81188 0
M  V30 3400 C 320.326 3.47175 0.974761 0
M  V30 3401 O 319.43 3.55671 2.08739 0
M  V30 3402 H 318.771 0.655862 0.103638 0
M  V30 3403 H 321.301 2.02201 -0.312381 0
M  V30 3404 H 321.311 3.87067 1.2901 0
M  V30 3405 H 319.986 4.15538 0.17347 0
M  V30 3406 H 318.563 3.27657 1.78032 0
M  V30 3407 N 320.748 -0.0735177 1.57428 0
M  V30 3408 C 321.658 -1.10547 2.06922 0
M  V30 3409 C 322.674 -1.42506 0.998402 0
M  V30 3410 O 323.85 -1.52717 1.31299 0
M  V30 3411 C 320.915 -2.40019 2.50184 0
M  V30 3412 C 319.976 -2.15046 3.71556 0
M  V30 3413 C 319.209 -3.38345 4.12745 0
M  V30 3414 O 319.432 -4.47399 3.53822 0
M  V30 3415 O 318.366 -3.2666 5.05546 0
M  V30 3416 H 322.192 -0.715013 2.95163 0
M  V30 3417 H 319.777 -0.287531 1.46607 0
M  V30 3418 H 321.659 -3.16218 2.78539 0
M  V30 3419 H 320.334 -2.78447 1.65072 0
M  V30 3420 H 319.241 -1.36558 3.48285 0
M  V30 3421 H 320.574 -1.81499 4.57514 0
M  V30 3422 N 322.226 -1.5378 -0.344866 0
M  V30 3423 C 323.136 -1.84667 -1.4469 0
M  V30 3424 C 324.152 -0.736704 -1.57635 0
M  V30 3425 O 325.328 -1.02888 -1.73136 0
M  V30 3426 C 322.393 -2.04869 -2.79696 0
M  V30 3427 C 321.454 -3.28731 -2.76106 0
M  V30 3428 C 320.687 -3.4796 -4.04673 0
M  V30 3429 O 320.91 -2.71052 -5.01883 0
M  V30 3430 O 319.844 -4.41383 -4.09224 0
M  V30 3431 H 323.67 -2.78334 -1.21506 0
M  V30 3432 H 321.255 -1.39418 -0.536921 0
M  V30 3433 H 323.137 -2.19609 -3.59652 0
M  V30 3434 H 321.812 -1.14391 -3.02814 0
M  V30 3435 H 320.719 -3.19396 -1.94774 0
M  V30 3436 H 322.052 -4.19198 -2.57941 0
M  V30 3437 N 323.704 0.605807 -1.45491 0
M  V30 3438 C 324.634 1.72709 -1.57143 0
M  V30 3439 C 325.615 1.6476 -0.422884 0
M  V30 3440 O 326.8 1.83132 -0.646247 0
M  V30 3441 C 323.93 3.11316 -1.53948 0
M  V30 3442 C 322.884 3.34077 -2.67537 0
M  V30 3443 C 322.21 4.72975 -2.49397 0
M  V30 3444 C 323.51 3.24158 -4.09535 0
M  V30 3445 H 325.204 1.63214 -2.51001 0
M  V30 3446 H 322.75 0.78379 -1.208 0
M  V30 3447 H 324.703 3.89557 -1.60696 0
M  V30 3448 H 323.427 3.21655 -0.566205 0
M  V30 3449 H 322.086 2.58227 -2.6022 0
M  V30 3450 H 321.734 4.8005 -1.50205 0
M  V30 3451 H 321.434 4.8916 -3.25571 0
M  V30 3452 H 322.958 5.53414 -2.58002 0
M  V30 3453 H 324.372 3.92271 -4.18086 0
M  V30 3454 H 322.769 3.51872 -4.86113 0
M  V30 3455 H 323.839 2.2157 -4.31317 0
M  V30 3456 N 325.182 1.32811 0.848464 0
M  V30 3457 C 326.598 1.11937 1.13764 0
M  V30 3458 C 326.798 -0.0960789 2.01271 0
M  V30 3459 O 325.854 -0.779165 2.40178 0
M  V30 3460 C 327.167 2.402 1.809 0
M  V30 3461 C 328.715 2.46016 1.93508 0
M  V30 3462 C 329.19 3.74215 2.64059 0
M  V30 3463 N 330.681 3.75232 2.71579 0
M  V30 3464 C 331.416 4.71134 3.26833 0
M  V30 3465 N 330.912 5.77406 3.8285 0
M  V30 3466 N 332.705 4.58623 3.24995 0
M  V30 3467 H 324.856 2.1073 0.265855 0
M  V30 3468 H 327.119 0.930671 0.180431 0
M  V30 3469 H 326.825 3.29093 1.24058 0
M  V30 3470 H 326.699 2.51628 2.81004 0
M  V30 3471 H 329.086 1.57577 2.49506 0
M  V30 3472 H 329.167 2.38536 0.923811 0
M  V30 3473 H 328.811 4.63031 2.08722 0
M  V30 3474 H 328.741 3.78968 3.65637 0
M  V30 3475 H 331.232 2.98423 2.31845 0
M  V30 3476 H 331.545 6.46632 4.23187 0
M  V30 3477 H 329.89 5.81152 3.81165 0
M  V30 3478 H 333.081 3.74762 2.80484 0
M  V30 3479 H 333.254 5.33535 3.67756 0
M  V30 3480 N 326.66 -1.06551 1.16123 0
M  V30 3481 C 327.57 -2.17484 0.879662 0
M  V30 3482 C 328.586 -1.73377 -0.147104 0
M  V30 3483 O 329.762 -2.01379 0.0289128 0
M  V30 3484 C 326.827 -3.44591 0.381829 0
M  V30 3485 C 325.888 -4.0322 1.4735 0
M  V30 3486 C 325.121 -5.24261 0.999324 0
M  V30 3487 O 325.344 -5.70198 -0.151957 0
M  V30 3488 O 324.278 -5.74775 1.78653 0
M  V30 3489 H 328.104 -2.44075 1.80724 0
M  V30 3490 H 325.689 -1.16042 0.940992 0
M  V30 3491 H 327.571 -4.21254 0.111053 0
M  V30 3492 H 326.246 -3.19532 -0.51777 0
M  V30 3493 H 325.153 -3.2806 1.79798 0
M  V30 3494 H 326.486 -4.32568 2.34831 0
M  V30 3495 N 328.138 -0.959301 -1.25041 0
M  V30 3496 C 329.387 -0.612254 -1.92183 0
M  V30 3497 C 329.7 0.855347 -1.75907 0
M  V30 3498 O 330.906 1.31256 -2.37664 0
M  V30 3499 C 329.362 -1.04435 -3.44414 0
M  V30 3500 C 328.97 -2.53482 -3.69393 0
M  V30 3501 C 330.714 -0.770055 -4.17457 0
M  V30 3502 C 328.621 -2.90468 -5.15153 0
M  V30 3503 H 327.551 -0.225279 -0.719559 0
M  V30 3504 H 330.202 -1.16438 -1.41825 0
M  V30 3505 H 328.584 -0.4206 -3.9376 0
M  V30 3506 H 329.758 -3.20916 -3.30681 0
M  V30 3507 H 328.073 -2.78432 -3.0962 0
M  V30 3508 H 330.67 -1.02249 -5.24832 0
M  V30 3509 H 331.013 0.293611 -4.15263 0
M  V30 3510 H 331.546 -1.35437 -3.74034 0
M  V30 3511 H 328.285 -3.95871 -5.22462 0
M  V30 3512 H 327.805 -2.27711 -5.54894 0
M  V30 3513 H 329.484 -2.79914 -5.83315 0
M  V30 3514 N 329.616 1.39756 -0.72842 0
M  V30 3515 C 330.549 2.28176 -0.0330172 0
M  V30 3516 C 331.527 1.44035 0.754501 0
M  V30 3517 O 332.711 1.73434 0.738445 0
M  V30 3518 C 329.838 3.24795 0.960504 0
M  V30 3519 C 328.884 4.25693 0.262264 0
M  V30 3520 S 329.717 5.25714 -1.01906 0
M  V30 3521 C 330.873 6.25894 -0.0279717 0
M  V30 3522 H 331.106 2.86807 -0.78287 0
M  V30 3523 H 328.639 1.45382 -0.519951 0
M  V30 3524 H 330.597 3.80983 1.52846 0
M  V30 3525 H 329.258 2.65196 1.68315 0
M  V30 3526 H 328.451 4.93699 1.01379 0
M  V30 3527 H 328.053 3.7327 -0.233482 0
M  V30 3528 H 330.345 6.72585 0.814621 0
M  V30 3529 H 331.288 7.04876 -0.67499 0
M  V30 3530 H 331.696 5.63466 0.341489 0
M  V30 3531 N 331.094 0.475555 1.50254 0
M  V30 3532 C 332.342 -0.077738 2.0195 0
M  V30 3533 C 332.663 -1.39813 1.35931 0
M  V30 3534 O 331.933 -1.89249 0.506123 0
M  V30 3535 H 330.513 -0.031719 0.746326 0
M  V30 3536 H 333.175 0.626995 1.84539 0
M  V30 3537 H 332.271 -0.225995 3.11281 0
M  V30 3538 N 332.573 -1.56217 0.208337 0
M  V30 3539 C 333.801 -2.02337 -0.43215 0
M  V30 3540 C 334.216 -1.08834 -1.54275 0
M  V30 3541 O 333.573 -0.0955462 -1.8225 0
M  V30 3542 C 333.624 -3.48072 -0.976138 0
M  V30 3543 O 333.345 -4.38007 0.0901621 0
M  V30 3544 C 334.846 -4.09773 -1.69119 0
M  V30 3545 H 332.066 -0.662385 -0.10718 0
M  V30 3546 H 334.61 -2.01966 0.320923 0
M  V30 3547 H 332.765 -3.49099 -1.67954 0
M  V30 3548 H 333.179 -5.23543 -0.316701 0
M  V30 3549 H 334.653 -5.13556 -2.02397 0
M  V30 3550 H 335.13 -3.53999 -2.59964 0
M  V30 3551 H 335.736 -4.12556 -1.03332 0
M  V30 3552 N 334.051 0.0651679 -1.57465 0
M  V30 3553 C 335.462 0.616213 -1.76238 0
M  V30 3554 C 335.813 1.7756 -0.834689 0
M  V30 3555 O 334.938 2.1639 -0.0204156 0
M  V30 3556 C 335.533 1.12462 -3.1959 0
M  V30 3557 C 334.092 1.62147 -3.39684 0
M  V30 3558 C 333.239 0.543739 -2.71917 0
M  V30 3559 H 336.19 -0.161022 -1.57881 0
M  V30 3560 H 336.211 1.99324 -3.24114 0
M  V30 3561 H 335.723 0.280592 -3.87084 0
M  V30 3562 H 333.824 2.48854 -2.77313 0
M  V30 3563 H 333.937 1.69385 -4.48158 0
M  V30 3564 H 332.301 0.990352 -2.34657 0
M  V30 3565 H 333.084 -0.290216 -3.42071 0
M  V30 3566 N 335.529 1.53961 0.336706 0
M  V30 3567 C 336.439 1.85432 1.43708 0
M  V30 3568 C 337.455 0.745053 1.57242 0
M  V30 3569 O 338.631 1.03804 1.72588 0
M  V30 3570 C 335.696 2.06349 2.78605 0
M  V30 3571 C 334.757 3.30191 2.74358 0
M  V30 3572 C 333.99 3.50101 4.02822 0
M  V30 3573 O 334.213 2.7371 5.00439 0
M  V30 3574 O 333.147 4.43547 4.06878 0
M  V30 3575 H 336.973 2.78975 1.20028 0
M  V30 3576 H 334.558 1.39701 0.52952 0
M  V30 3577 H 336.44 2.21513 3.58483 0
M  V30 3578 H 335.115 1.15995 3.02203 0
M  V30 3579 H 334.022 3.20425 1.93078 0
M  V30 3580 H 335.355 4.2056 2.55715 0
M  V30 3581 N 337.007 -0.598083 1.45811 0
M  V30 3582 C 338.237 -1.38121 1.53643 0
M  V30 3583 C 338.645 -1.88425 0.171081 0
M  V30 3584 O 337.988 -1.63409 -0.839237 0
M  V30 3585 C 338.05 -2.61432 2.46766 0
M  V30 3586 C 337.714 -2.32702 3.93318 0
M  V30 3587 C 338.711 -1.92479 4.82957 0
M  V30 3588 C 336.396 -2.45321 4.38318 0
M  V30 3589 C 338.39 -1.65248 6.15607 0
M  V30 3590 C 336.077 -2.17703 5.71007 0
M  V30 3591 C 337.075 -1.7773 6.5947 0
M  V30 3592 O 336.763 -1.50441 7.89698 0
M  V30 3593 H 336.495 -0.428863 0.522544 0
M  V30 3594 H 339.049 -0.73557 1.91777 0
M  V30 3595 H 337.279 -3.28749 2.0362 0
M  V30 3596 H 338.968 -3.23487 2.45175 0
M  V30 3597 H 339.734 -1.82258 4.49452 0
M  V30 3598 H 335.613 -2.75399 3.69697 0
M  V30 3599 H 339.157 -1.33973 6.84614 0
M  V30 3600 H 335.054 -2.27544 6.04065 0
M  V30 3601 H 335.822 -1.64415 8.01817 0
M  V30 3602 N 338.485 -1.33259 -0.841409 0
M  V30 3603 C 339.731 -1.24757 -1.59886 0
M  V30 3604 C 340.064 0.186913 -1.93298 0
M  V30 3605 O 339.339 1.12757 -1.5848 0
M  V30 3606 C 339.622 -2.12036 -2.91055 0
M  V30 3607 C 339.475 -3.63929 -2.6434 0
M  V30 3608 C 340.794 -1.9916 -3.92458 0
M  V30 3609 H 337.913 -0.454542 -0.580138 0
M  V30 3610 H 340.555 -1.63335 -0.970647 0
M  V30 3611 H 338.705 -1.79265 -3.44669 0
M  V30 3612 H 340.377 -4.06978 -2.17178 0
M  V30 3613 H 338.62 -3.85935 -1.98082 0
M  V30 3614 H 339.291 -4.20341 -3.57796 0
M  V30 3615 H 341.767 -2.27895 -3.48143 0
M  V30 3616 H 340.643 -2.62484 -4.82072 0
M  V30 3617 H 340.904 -0.963082 -4.31482 0
M  V30 3618 N 339.963 1.05934 -1.16686 0
M  V30 3619 C 340.926 2.11669 -0.879144 0
M  V30 3620 C 341.926 1.60294 0.127445 0
M  V30 3621 O 343.116 1.7389 -0.103865 0
M  V30 3622 C 340.248 3.39438 -0.315425 0
M  V30 3623 H 341.441 2.38626 -1.81653 0
M  V30 3624 H 338.994 1.22058 -0.976299 0
M  V30 3625 H 339.729 3.18132 0.629468 0
M  V30 3626 H 339.514 3.78034 -1.04079 0
M  V30 3627 H 341.004 4.17391 -0.132189 0
M  V30 3628 N 341.441 0.965919 1.2453 0
M  V30 3629 C 342.852 0.665929 1.7442 0
M  V30 3630 C 343.203 -0.818407 1.78316 0
M  V30 3631 O 342.328 -1.64037 1.41141 0
M  V30 3632 C 342.923 1.20211 3.16757 0
M  V30 3633 C 341.482 0.952059 3.6416 0
M  V30 3634 C 340.629 1.33848 2.42858 0
M  V30 3635 H 343.58 1.14144 1.10258 0
M  V30 3636 H 343.601 0.567544 3.76244 0
M  V30 3637 H 343.113 2.28244 3.13889 0
M  V30 3638 H 341.214 -0.112821 3.72429 0
M  V30 3639 H 341.327 1.59645 4.51719 0
M  V30 3640 H 339.691 0.756864 2.43195 0
M  V30 3641 H 340.474 2.42827 2.42673 0
M  V30 3642 N 342.919 -1.39368 0.735821 0
M  V30 3643 C 343.829 -2.34395 0.0979693 0
M  V30 3644 C 344.845 -1.58361 -0.720968 0
M  V30 3645 O 346.021 -1.90648 -0.649245 0
M  V30 3646 C 343.086 -3.37393 -0.797916 0
M  V30 3647 C 342.147 -4.29287 0.0333662 0
M  V30 3648 C 341.38 -5.27365 -0.819854 0
M  V30 3649 O 341.603 -5.31959 -2.05855 0
M  V30 3650 O 340.537 -6.01389 -0.248079 0
M  V30 3651 H 344.363 -2.90601 0.882315 0
M  V30 3652 H 341.948 -1.40909 0.4965 0
M  V30 3653 H 343.83 -4.00505 -1.31048 0
M  V30 3654 H 342.505 -2.83571 -1.56106 0
M  V30 3655 H 341.412 -3.69395 0.591475 0
M  V30 3656 H 342.745 -4.86317 0.758752 0
M  V30 3657 N 344.397 -0.483516 -1.5 0
M  V30 3658 C 345.646 0.0689102 -2.01582 0
M  V30 3659 C 345.959 1.39655 -1.36952 0
M  V30 3660 O 347.165 2.03465 -1.79762 0
M  V30 3661 C 345.621 0.173302 -3.59483 0
M  V30 3662 C 345.229 -1.14665 -4.33077 0
M  V30 3663 C 346.973 0.677024 -4.19066 0
M  V30 3664 C 344.88 -1.00537 -5.82792 0
M  V30 3665 H 343.81 0.0295277 -0.753422 0
M  V30 3666 H 346.461 -0.620295 -1.72698 0
M  V30 3667 H 344.843 0.926569 -3.85007 0
M  V30 3668 H 346.017 -1.91184 -4.19268 0
M  V30 3669 H 344.332 -1.58244 -3.85159 0
M  V30 3670 H 346.929 0.799952 -5.28682 0
M  V30 3671 H 347.272 1.67151 -3.81269 0
M  V30 3672 H 347.805 -0.0192083 -3.97795 0
M  V30 3673 H 344.544 -1.9736 -6.25083 0
M  V30 3674 H 344.064 -0.280776 -5.99142 0
M  V30 3675 H 345.743 -0.677 -6.43448 0
M  V30 3676 N 345.875 1.56104 -0.216619 0
M  V30 3677 C 346.805 2.23063 0.690296 0
M  V30 3678 C 347.786 1.20072 1.20485 0
M  V30 3679 O 348.971 1.48643 1.24976 0
M  V30 3680 C 346.101 2.90672 1.90072 0
M  V30 3681 C 345.055 4.00092 1.5202 0
M  V30 3682 C 344.381 4.54972 2.80899 0
M  V30 3683 C 345.681 5.17398 0.71391 0
M  V30 3684 H 347.375 2.99109 0.132038 0
M  V30 3685 H 344.921 1.43866 0.0620664 0
M  V30 3686 H 346.874 3.36204 2.54057 0
M  V30 3687 H 345.598 2.12066 2.48386 0
M  V30 3688 H 344.257 3.55283 0.903839 0
M  V30 3689 H 343.905 3.73102 3.37348 0
M  V30 3690 H 343.605 5.28817 2.56176 0
M  V30 3691 H 345.129 5.0322 3.45836 0
M  V30 3692 H 346.543 5.59342 1.25735 0
M  V30 3693 H 344.94 5.97444 0.563951 0
M  V30 3694 H 346.01 4.84088 -0.280527 0
M  V30 3695 N 347.353 -0.0568162 1.57498 0
M  V30 3696 C 348.578 -0.769402 1.92601 0
M  V30 3697 C 349.003 -1.69559 0.814336 0
M  V30 3698 O 348.361 -1.79811 -0.231903 0
M  V30 3699 C 348.409 -1.52634 3.26704 0
M  V30 3700 O 347.513 -2.63797 3.16994 0
M  V30 3701 H 346.854 -0.208909 0.63028 0
M  V30 3702 H 349.384 -0.0205798 2.0459 0
M  V30 3703 H 349.394 -1.90234 3.60936 0
M  V30 3704 H 348.069 -0.846875 4.07186 0
M  V30 3705 H 346.646 -2.28943 2.94346 0
M  V30 3706 N 348.832 -1.54138 -0.328536 0
M  V30 3707 C 350.062 -1.75807 -1.08516 0
M  V30 3708 C 350.47 -0.50428 -1.82356 0
M  V30 3709 O 349.813 0.534451 -1.75754 0
M  V30 3710 C 349.875 -2.89423 -2.13248 0
M  V30 3711 C 349.539 -4.28504 -1.5885 0
M  V30 3712 C 350.536 -5.09536 -1.03289 0
M  V30 3713 C 348.221 -4.75034 -1.63243 0
M  V30 3714 C 350.215 -6.35206 -0.52845 0
M  V30 3715 C 347.902 -6.00672 -1.12411 0
M  V30 3716 C 348.9 -6.80592 -0.573062 0
M  V30 3717 O 348.588 -8.03867 -0.0723692 0
M  V30 3718 H 348.32 -0.590633 -0.328829 0
M  V30 3719 H 350.874 -2.01819 -0.381868 0
M  V30 3720 H 349.104 -2.5897 -2.87178 0
M  V30 3721 H 350.793 -2.98921 -2.74592 0
M  V30 3722 H 351.559 -4.74745 -0.99206 0
M  V30 3723 H 347.438 -4.12875 -2.05074 0
M  V30 3724 H 350.982 -6.97532 -0.0976774 0
M  V30 3725 H 346.879 -6.34955 -1.162 0
M  V30 3726 H 347.647 -8.18283 -0.188258 0
M  V30 3727 N 350.31 0.590341 -1.46126 0
M  V30 3728 C 351.587 1.35029 -1.41515 0
M  V30 3729 C 351.967 2.10888 -0.0946472 0
M  V30 3730 O 351.315 2.08998 0.923693 0
M  V30 3731 C 351.525 2.28269 -2.63997 0
M  V30 3732 C 352.873 2.90338 -3.09821 0
M  V30 3733 O 353.897 2.38585 -2.64492 0
M  V30 3734 O 352.756 3.84321 -3.88535 0
M  V30 3735 H 349.85 0.606317 -0.562413 0
M  V30 3736 H 352.396 0.611994 -1.58281 0
M  V30 3737 H 351.168 1.71591 -3.51671 0
M  V30 3738 H 350.791 3.0945 -2.49652 0
M  V30 3739 N 351.788 1.33704 0.83433 0
M  V30 3740 C 353.199 1.22813 1.4062 0
M  V30 3741 C 353.55 -0.151107 1.95617 0
M  V30 3742 O 352.675 -1.05092 1.89168 0
M  V30 3743 C 353.27 2.22355 2.55624 0
M  V30 3744 C 351.829 2.1529 3.08751 0
M  V30 3745 C 350.976 2.09589 1.8157 0
M  V30 3746 H 353.927 1.45236 0.639702 0
M  V30 3747 H 353.948 1.83391 3.33389 0
M  V30 3748 H 353.46 3.22728 2.15566 0
M  V30 3749 H 351.561 1.18235 3.53343 0
M  V30 3750 H 351.674 3.06038 3.68616 0
M  V30 3751 H 350.038 1.55134 2.02004 0
M  V30 3752 H 350.821 3.11777 1.43701 0
M  V30 3753 N 353.266 -1.05314 1.17247 0
M  V30 3754 C 354.515 -1.77685 0.954521 0
M  V30 3755 C 354.828 -1.88616 -0.518025 0
M  V30 3756 O 356.034 -2.57714 -0.854144 0
M  V30 3757 C 354.49 -3.19402 1.65863 0
M  V30 3758 C 354.098 -3.16605 3.16963 0
M  V30 3759 C 355.842 -3.96237 1.52303 0
M  V30 3760 C 353.749 -4.53103 3.80068 0
M  V30 3761 H 352.679 -0.666 0.353496 0
M  V30 3762 H 355.33 -1.1805 1.40486 0
M  V30 3763 H 353.712 -3.79355 1.13602 0
M  V30 3764 H 354.886 -2.66176 3.76148 0
M  V30 3765 H 353.201 -2.53268 3.30521 0
M  V30 3766 H 355.798 -4.97157 1.96822 0
M  V30 3767 H 356.141 -4.136 0.473401 0
M  V30 3768 H 356.674 -3.42829 2.01775 0
M  V30 3769 H 353.413 -4.40946 4.85023 0
M  V30 3770 H 352.933 -5.03686 3.2567 0
M  V30 3771 H 354.612 -5.22045 3.82202 0
M  V30 3772 N 354.744 -0.972509 -1.24016 0
M  V30 3773 C 355.969 -0.654417 -1.96805 0
M  V30 3774 C 356.394 0.770398 -1.716 0
M  V30 3775 O 355.752 1.52361 -0.982647 0
M  V30 3776 C 355.8 -0.941031 -3.48105 0
M  V30 3777 O 354.904 -0.0289472 -4.1239 0
M  V30 3778 H 354.245 -0.24692 -0.616382 0
M  V30 3779 H 356.775 -1.30396 -1.57664 0
M  V30 3780 H 356.785 -0.87452 -3.98517 0
M  V30 3781 H 355.46 -1.97939 -3.65777 0
M  V30 3782 H 354.037 -0.149192 -3.72601 0
M  V30 3783 N 356.222 1.38976 -0.743202 0
M  V30 3784 C 357.155 2.28128 -0.0572165 0
M  V30 3785 C 358.133 1.44827 0.739182 0
M  V30 3786 O 359.317 1.74207 0.720009 0
M  V30 3787 C 356.444 3.25796 0.926001 0
M  V30 3788 C 355.49 4.25947 0.217099 0
M  V30 3789 S 356.323 5.24604 -1.07477 0
M  V30 3790 C 357.479 6.25829 -0.0943545 0
M  V30 3791 H 357.712 2.85961 -0.813246 0
M  V30 3792 H 355.245 1.44822 -0.535341 0
M  V30 3793 H 357.203 3.82583 1.48797 0
M  V30 3794 H 355.864 2.66966 1.65493 0
M  V30 3795 H 355.057 4.94746 0.961372 0
M  V30 3796 H 354.659 3.73002 -0.273059 0
M  V30 3797 H 356.951 6.73411 0.743239 0
M  V30 3798 H 357.894 7.0412 -0.749713 0
M  V30 3799 H 358.302 5.63797 0.281706 0
M  V30 3800 N 357.7 0.491464 1.49741 0
M  V30 3801 C 358.663 -0.280906 2.27472 0
M  V30 3802 C 359.663 -0.902454 1.33088 0
M  V30 3803 O 360.853 -0.768465 1.56334 0
M  V30 3804 C 357.985 -1.40209 3.10732 0
M  V30 3805 H 359.178 0.401056 2.97206 0
M  V30 3806 H 356.731 0.246131 1.5435 0
M  V30 3807 H 357.466 -2.11849 2.45541 0
M  V30 3808 H 357.251 -0.961969 3.80117 0
M  V30 3809 H 358.741 -1.9464 3.69466 0
M  V30 3810 N 359.178 -1.55987 0.224894 0
M  V30 3811 C 360.406 -2.02784 -0.410665 0
M  V30 3812 C 360.821 -1.10464 -1.53112 0
M  V30 3813 O 360.178 -0.114871 -1.82138 0
M  V30 3814 C 360.229 -3.49087 -0.939165 0
M  V30 3815 O 359.95 -4.37887 0.136614 0
M  V30 3816 C 361.451 -4.11543 -1.64763 0
M  V30 3817 H 358.671 -0.663484 -0.100148 0
M  V30 3818 H 361.215 -2.01614 0.342326 0
M  V30 3819 H 359.37 -3.50861 -1.64242 0
M  V30 3820 H 359.784 -5.23849 -0.261155 0
M  V30 3821 H 361.258 -5.15673 -1.96939 0
M  V30 3822 H 361.735 -3.56736 -2.56195 0
M  V30 3823 H 362.341 -4.13629 -0.989503 0
M  V30 3824 N 360.656 0.0484629 -1.57525 0
M  V30 3825 C 361.933 0.777447 -1.79486 0
M  V30 3826 C 362.313 1.94597 -0.818251 0
M  V30 3827 O 361.661 2.28047 0.143767 0
M  V30 3828 C 361.871 1.22864 -3.26658 0
M  V30 3829 C 363.219 1.65251 -3.91123 0
M  V30 3830 O 364.243 1.32372 -3.3069 0
M  V30 3831 O 363.102 2.26207 -4.97486 0
M  V30 3832 H 360.196 0.374357 -0.737419 0
M  V30 3833 H 362.742 0.0267359 -1.69679 0
M  V30 3834 H 361.514 0.393589 -3.89316 0
M  V30 3835 H 361.137 2.03996 -3.41279 0
M  V30 3836 N 362.134 1.5431 0.320358 0
M  V30 3837 C 363.067 1.78769 1.41834 0
M  V30 3838 C 364.045 0.63783 1.49568 0
M  V30 3839 O 365.229 0.875628 1.66928 0
M  V30 3840 C 362.356 1.90712 2.79905 0
M  V30 3841 C 361.402 3.13023 2.89687 0
M  V30 3842 S 362.235 4.71554 2.53766 0
M  V30 3843 C 363.391 4.86408 3.93902 0
M  V30 3844 H 363.624 2.71619 1.20874 0
M  V30 3845 H 361.157 1.45474 0.517377 0
M  V30 3846 H 363.115 1.98279 3.59438 0
M  V30 3847 H 361.776 0.988343 2.98145 0
M  V30 3848 H 360.969 3.18124 3.90913 0
M  V30 3849 H 360.571 3.03803 2.18128 0
M  V30 3850 H 362.863 4.69241 4.88691 0
M  V30 3851 H 363.806 5.88508 3.93782 0
M  V30 3852 H 364.214 4.14689 3.83005 0
M  V30 3853 N 363.613 -0.582584 1.46437 0
M  V30 3854 C 364.859 -1.34064 1.52965 0
M  V30 3855 C 365.214 -1.91566 0.178968 0
M  V30 3856 O 364.507 -1.73526 -0.812365 0
M  V30 3857 C 364.701 -2.48964 2.56421 0
M  V30 3858 C 364.53 -2.02717 4.01417 0
M  V30 3859 C 363.3 -1.87728 4.69134 0
M  V30 3860 C 365.498 -1.58675 4.8921 0
M  V30 3861 N 363.48 -1.35554 5.98747 0
M  V30 3862 C 364.851 -1.18093 6.08649 0
M  V30 3863 C 366.906 -1.46494 4.75861 0
M  V30 3864 C 365.609 -0.665427 7.16215 0
M  V30 3865 C 367.635 -0.96347 5.83499 0
M  V30 3866 C 366.997 -0.567432 7.02111 0
M  V30 3867 H 363.096 -0.483551 0.614575 0
M  V30 3868 H 365.68 -0.663309 1.83053 0
M  V30 3869 H 363.851 -3.1426 2.28244 0
M  V30 3870 H 365.583 -3.15913 2.52944 0
M  V30 3871 H 362.338 -2.09678 4.24655 0
M  V30 3872 H 362.762 -1.11628 6.67734 0
M  V30 3873 H 367.404 -1.75731 3.8455 0
M  V30 3874 H 365.122 -0.360639 8.07295 0
M  V30 3875 H 368.708 -0.873129 5.75211 0
M  V30 3876 H 367.588 -0.185389 7.83981 0
M  V30 3877 N 365.091 -1.34144 -0.827227 0
M  V30 3878 C 366.316 -1.29476 -1.62021 0
M  V30 3879 C 366.741 0.129292 -1.87655 0
M  V30 3880 O 366.099 1.08967 -1.449 0
M  V30 3881 C 366.147 -2.08702 -2.94068 0
M  V30 3882 O 365.251 -1.45359 -3.85933 0
M  V30 3883 H 364.592 -0.444881 -0.492927 0
M  V30 3884 H 367.122 -1.76882 -1.02829 0
M  V30 3885 H 367.132 -2.19898 -3.43669 0
M  V30 3886 H 365.807 -3.12241 -2.74734 0
M  V30 3887 H 364.384 -1.42879 -3.44442 0
M  V30 3888 N 366.569 1.04691 -1.17803 0
M  V30 3889 C 367.818 1.77176 -0.963931 0
M  V30 3890 C 368.131 1.88888 0.508015 0
M  V30 3891 O 369.337 2.58164 0.840465 0
M  V30 3892 C 367.793 3.18518 -1.67555 0
M  V30 3893 C 367.401 3.14919 -3.18637 0
M  V30 3894 C 369.145 3.95424 -1.54402 0
M  V30 3895 C 367.052 4.51081 -3.82466 0
M  V30 3896 H 365.982 0.664116 -0.357023 0
M  V30 3897 H 368.633 1.17303 -1.4111 0
M  V30 3898 H 367.015 3.78748 -1.15613 0
M  V30 3899 H 368.189 2.64178 -3.77554 0
M  V30 3900 H 366.504 2.51512 -3.31859 0
M  V30 3901 H 369.101 4.96106 -1.99456 0
M  V30 3902 H 369.444 4.13343 -0.495329 0
M  V30 3903 H 369.977 3.41754 -2.0359 0
M  V30 3904 H 366.716 4.38368 -4.87354 0
M  V30 3905 H 366.236 5.01951 -3.28337 0
M  V30 3906 H 367.915 5.2001 -3.84965 0
M  V30 3907 N 368.047 0.979072 1.23499 0
M  V30 3908 C 369.295 0.645941 1.91499 0
M  V30 3909 C 369.616 -0.822948 1.76784 0
M  V30 3910 O 368.886 -1.58854 1.14639 0
M  V30 3911 H 367.466 0.235919 0.708767 0
M  V30 3912 H 370.128 1.2426 1.50152 0
M  V30 3913 H 369.224 0.896411 2.9895 0
M  V30 3914 N 369.525 -1.3858 0.750561 0
M  V30 3915 C 370.771 -2.00481 0.305825 0
M  V30 3916 C 371.104 -1.5944 -1.10872 0
M  V30 3917 O 370.379 -0.83052 -1.75877 0
M  V30 3918 C 370.662 -3.5758 0.425287 0
M  V30 3919 C 370.515 -4.08594 1.88072 0
M  V30 3920 C 371.834 -4.39719 -0.183122 0
M  V30 3921 H 368.953 -0.728348 0.112598 0
M  V30 3922 H 371.595 -1.64566 0.949638 0
M  V30 3923 H 369.745 -3.88306 -0.122828 0
M  V30 3924 H 371.417 -3.88523 2.48691 0
M  V30 3925 H 369.66 -3.61574 2.39681 0
M  V30 3926 H 370.331 -5.177 1.91548 0
M  V30 3927 H 372.807 -4.15128 0.284303 0
M  V30 3928 H 371.683 -5.48856 -0.0692757 0
M  V30 3929 H 371.944 -4.23434 -1.27106 0
M  V30 3930 N 371.003 -0.499398 -1.49478 0
M  V30 3931 C 371.933 0.269244 -2.31943 0
M  V30 3932 C 372.914 0.964054 -1.40143 0
M  V30 3933 O 374.099 0.955767 -1.69052 0
M  V30 3934 C 371.229 1.33504 -3.20615 0
M  V30 3935 C 370.183 0.760202 -4.21195 0
M  V30 3936 C 369.509 1.9264 -4.98792 0
M  V30 3937 C 370.809 -0.247661 -5.21712 0
M  V30 3938 H 372.503 -0.419082 -2.96452 0
M  V30 3939 H 370.049 -0.202988 -1.42562 0
M  V30 3940 H 372.002 1.88048 -3.77115 0
M  V30 3941 H 370.726 2.05253 -2.54045 0
M  V30 3942 H 369.385 0.23653 -3.65836 0
M  V30 3943 H 369.033 2.63154 -4.28671 0
M  V30 3944 H 368.733 1.54785 -5.66847 0
M  V30 3945 H 370.257 2.4762 -5.58137 0
M  V30 3946 H 371.671 0.209579 -5.72917 0
M  V30 3947 H 370.068 -0.541962 -5.97648 0
M  V30 3948 H 371.138 -1.16409 -4.7072 0
M  V30 3949 N 372.481 1.55866 -0.233164 0
M  V30 3950 C 373.709 2.02998 0.399905 0
M  V30 3951 C 374.124 1.11274 1.52524 0
M  V30 3952 O 373.481 0.124528 1.82075 0
M  V30 3953 C 373.532 3.4958 0.920639 0
M  V30 3954 O 373.253 4.37808 -0.159834 0
M  V30 3955 C 374.754 4.12411 1.62578 0
M  V30 3956 H 371.974 0.664006 0.0966281 0
M  V30 3957 H 374.518 2.0143 -0.353013 0
M  V30 3958 H 372.673 3.51727 1.62379 0
M  V30 3959 H 373.087 5.23981 0.23337 0
M  V30 3960 H 374.561 5.16711 1.94201 0
M  V30 3961 H 375.038 3.5809 2.54299 0
M  V30 3962 H 375.644 4.14148 0.967553 0
M  V30 3963 N 373.959 -0.0401083 1.57549 0
M  V30 3964 C 375.189 -0.744115 1.92734 0
M  V30 3965 C 375.597 -1.70005 0.830348 0
M  V30 3966 O 374.94 -1.82576 -0.20286 0
M  V30 3967 C 375.002 -1.56516 3.2364 0
M  V30 3968 C 374.666 -0.7752 4.50377 0
M  V30 3969 C 375.663 -0.0803326 5.19838 0
M  V30 3970 C 373.348 -0.733002 4.96923 0
M  V30 3971 C 375.342 0.646154 6.34116 0
M  V30 3972 C 373.029 -0.00276321 6.111 0
M  V30 3973 C 374.027 0.685585 6.7955 0
M  V30 3974 O 373.715 1.40399 7.91545 0
M  V30 3975 H 373.447 -0.214861 0.640945 0
M  V30 3976 H 376.001 -0.00503675 2.05399 0
M  V30 3977 H 374.231 -2.3478 3.07271 0
M  V30 3978 H 375.92 -2.15076 3.44234 0
M  V30 3979 H 376.686 -0.104035 4.84888 0
M  V30 3980 H 372.565 -1.25827 4.43496 0
M  V30 3981 H 376.109 1.18398 6.87479 0
M  V30 3982 H 372.006 0.0229012 6.45496 0
M  V30 3983 H 372.774 1.31653 8.07843 0
M  V30 3984 N 375.437 -1.54477 -0.31217 0
M  V30 3985 C 376.683 -1.73483 -1.0503 0
M  V30 3986 C 377.016 -0.513125 -1.87298 0
M  V30 3987 O 376.291 0.489864 -1.8823 0
M  V30 3988 C 376.574 -3.01723 -1.96558 0
M  V30 3989 C 376.427 -4.3417 -1.17545 0
M  V30 3990 C 377.746 -3.25772 -2.95907 0
M  V30 3991 H 374.865 -0.631222 -0.380432 0
M  V30 3992 H 377.507 -1.87184 -0.325932 0
M  V30 3993 H 375.657 -2.90174 -2.58324 0
M  V30 3994 H 377.329 -4.5762 -0.581513 0
M  V30 3995 H 375.572 -4.31159 -0.477925 0
M  V30 3996 H 376.243 -5.20143 -1.84811 0
M  V30 3997 H 378.719 -3.36857 -2.44267 0
M  V30 3998 H 377.595 -4.16838 -3.57123 0
M  V30 3999 H 377.856 -2.43537 -3.68974 0
M  V30 4000 N 376.915 0.57481 -1.46744 0
M  V30 4001 C 377.848 1.69827 -1.52427 0
M  V30 4002 C 378.826 1.58151 -0.377744 0
M  V30 4003 O 380.01 1.79257 -0.58303 0
M  V30 4004 C 377.137 3.07943 -1.41027 0
M  V30 4005 C 376.183 3.38116 -2.59961 0
M  V30 4006 S 377.016 3.29313 -4.22272 0
M  V30 4007 C 378.172 4.69953 -4.13394 0
M  V30 4008 H 378.405 1.64748 -2.47478 0
M  V30 4009 H 375.938 0.754203 -1.34726 0
M  V30 4010 H 377.896 3.87619 -1.35137 0
M  V30 4011 H 376.557 3.10504 -0.473909 0
M  V30 4012 H 375.75 4.38762 -2.47999 0
M  V30 4013 H 375.352 2.66024 -2.62882 0
M  V30 4014 H 377.644 5.60517 -3.80562 0
M  V30 4015 H 378.587 4.86972 -5.14066 0
M  V30 4016 H 378.995 4.47174 -3.44522 0
M  V30 4017 N 378.394 1.34581 0.820102 0
M  V30 4018 C 379.324 1.29038 1.94606 0
M  V30 4019 C 380.305 0.1673 1.69275 0
M  V30 4020 O 381.49 0.360112 1.90832 0
M  V30 4021 C 378.62 1.04793 3.31113 0
M  V30 4022 C 377.574 2.13597 3.70891 0
M  V30 4023 C 376.9 1.74537 5.05412 0
M  V30 4024 C 378.2 3.55451 3.8269 0
M  V30 4025 H 379.894 2.23248 1.99501 0
M  V30 4026 H 377.44 1.0747 0.958449 0
M  V30 4027 H 379.393 0.995592 4.0947 0
M  V30 4028 H 378.117 0.0702565 3.26524 0
M  V30 4029 H 376.776 2.17905 2.9481 0
M  V30 4030 H 376.424 0.754226 4.97313 0
M  V30 4031 H 376.124 2.47361 5.32997 0
M  V30 4032 H 377.648 1.70803 5.86224 0
M  V30 4033 H 379.062 3.5354 4.51312 0
M  V30 4034 H 377.459 4.26922 4.21732 0
M  V30 4035 H 378.529 3.92587 2.84611 0
M  V30 4036 N 379.872 -1.04064 1.18357 0
M  V30 4037 C 381.1 -1.80916 1.00384 0
M  V30 4038 C 381.515 -1.83414 -0.447738 0
M  V30 4039 O 380.872 -1.26962 -1.31099 0
M  V30 4040 C 380.923 -3.26516 1.55144 0
M  V30 4041 O 380.644 -3.2424 2.94618 0
M  V30 4042 C 382.145 -4.20013 1.41789 0
M  V30 4043 H 379.365 -0.569728 0.354474 0
M  V30 4044 H 381.909 -1.31151 1.56906 0
M  V30 4045 H 380.064 -3.73512 1.02798 0
M  V30 4046 H 380.478 -4.15452 3.20156 0
M  V30 4047 H 381.952 -5.20111 1.84901 0
M  V30 4048 H 382.429 -4.37667 0.36661 0
M  V30 4049 H 383.035 -3.78881 1.93207 0
M  V30 4050 N 381.35 -0.985608 -1.22978 0
M  V30 4051 C 382.598 -0.656087 -1.91154 0
M  V30 4052 C 382.919 0.813561 -1.77218 0
M  V30 4053 O 382.189 1.58244 -1.1548 0
M  V30 4054 H 380.769 -0.239674 -0.707506 0
M  V30 4055 H 383.431 -1.25054 -1.49491 0
M  V30 4056 H 382.527 -0.912253 -2.9847 0
M  V30 4057 N 382.828 1.3818 -0.7579 0
M  V30 4058 C 384.077 1.99261 -0.312744 0
M  V30 4059 C 384.39 1.60846 1.11301 0
M  V30 4060 O 385.596 2.14929 1.65885 0
M  V30 4061 C 384.052 3.56294 -0.50821 0
M  V30 4062 C 383.66 4.03657 -1.94333 0
M  V30 4063 C 385.404 4.24313 -0.125982 0
M  V30 4064 C 383.311 5.53347 -2.08712 0
M  V30 4065 H 382.241 0.745456 -0.113185 0
M  V30 4066 H 384.892 1.57889 -0.935056 0
M  V30 4067 H 383.274 3.95575 0.183353 0
M  V30 4068 H 384.448 3.75655 -2.66871 0
M  V30 4069 H 382.763 3.48376 -2.28086 0
M  V30 4070 H 385.36 5.34279 -0.212125 0
M  V30 4071 H 385.703 4.05962 0.921964 0
M  V30 4072 H 386.236 3.90285 -0.769563 0
M  V30 4073 H 382.975 5.76607 -3.11777 0
M  V30 4074 H 382.495 5.83078 -1.4064 0
M  V30 4075 H 384.174 6.19111 -1.87912 0
M  V30 4076 N 384.306 0.507319 1.49211 0
M  V30 4077 C 385.531 -0.033725 2.07373 0
M  V30 4078 C 385.956 -1.29485 1.36437 0
M  V30 4079 O 385.314 -1.76294 0.423087 0
M  V30 4080 C 385.362 -0.263945 3.59633 0
M  V30 4081 O 384.466 -1.33737 3.90113 0
M  V30 4082 H 383.807 0.0290331 0.663365 0
M  V30 4083 H 386.337 0.708749 1.91932 0
M  V30 4084 H 386.347 -0.493536 4.05004 0
M  V30 4085 H 385.022 0.657424 4.10671 0
M  V30 4086 H 383.599 -1.09224 3.56545 0
M  V30 4087 N 385.784 -1.5574 0.241426 0
M  V30 4088 C 387.195 -1.84842 -0.262755 0
M  V30 4089 C 387.546 -1.16317 -1.58003 0
M  V30 4090 O 386.671 -0.439653 -2.11887 0
M  V30 4091 C 387.266 -3.35332 -0.483523 0
M  V30 4092 C 385.825 -3.6468 -0.931977 0
M  V30 4093 C 384.972 -2.77299 -0.0061151 0
M  V30 4094 H 387.923 -1.51761 0.464129 0
M  V30 4095 H 387.944 -3.56615 -1.32688 0
M  V30 4096 H 387.456 -3.85178 0.47537 0
M  V30 4097 H 385.557 -3.20307 -1.90353 0
M  V30 4098 H 385.67 -4.72498 -0.792628 0
M  V30 4099 H 384.034 -2.49408 -0.516503 0
M  V30 4100 H 384.817 -3.2995 0.948052 0
M  V30 4101 N 387.262 0.0317525 -1.57568 0
M  V30 4102 C 388.509 0.723104 -1.89149 0
M  V30 4103 C 388.837 1.75504 -0.838377 0
M  V30 4104 O 388.092 1.95037 0.160982 0
M  V30 4105 C 388.391 1.43167 -3.27472 0
M  V30 4106 C 388.057 0.535972 -4.47703 0
M  V30 4107 C 386.719 0.289262 -4.8033 0
M  V30 4108 C 389.071 -0.0826125 -5.21135 0
M  V30 4109 C 386.399 -0.584853 -5.83778 0
M  V30 4110 C 388.751 -0.944414 -6.25511 0
M  V30 4111 C 387.415 -1.20061 -6.56614 0
M  V30 4112 H 386.685 0.264602 -0.692146 0
M  V30 4113 H 389.332 -0.0169496 -1.91492 0
M  V30 4114 H 387.637 2.24497 -3.21105 0
M  V30 4115 H 389.334 1.97209 -3.49155 0
M  V30 4116 H 385.924 0.738414 -4.22191 0
M  V30 4117 H 390.108 0.0950302 -4.96209 0
M  V30 4118 H 385.364 -0.79168 -6.06253 0
M  V30 4119 H 389.538 -1.43026 -6.81554 0
M  V30 4120 H 387.165 -1.87967 -7.36595 0
M  V30 4121 N 388.74 1.54641 0.303973 0
M  V30 4122 C 389.67 1.88386 1.3796 0
M  V30 4123 C 390.651 0.742485 1.5304 0
M  V30 4124 O 391.836 0.997959 1.66597 0
M  V30 4125 C 388.966 2.12854 2.74427 0
M  V30 4126 C 387.92 3.28702 2.74115 0
M  V30 4127 C 387.246 3.38582 4.13844 0
M  V30 4128 C 388.546 4.65881 2.3612 0
M  V30 4129 H 390.24 2.78474 1.09966 0
M  V30 4130 H 387.786 1.33988 0.527556 0
M  V30 4131 H 389.739 2.35047 3.49758 0
M  V30 4132 H 388.463 1.19535 3.03939 0
M  V30 4133 H 387.122 3.06428 2.0124 0
M  V30 4134 H 386.77 2.42784 4.40528 0
M  V30 4135 H 386.47 4.16453 4.14537 0
M  V30 4136 H 387.994 3.63031 4.90959 0
M  V30 4137 H 389.408 4.87823 3.01167 0
M  V30 4138 H 387.805 5.46444 2.48031 0
M  V30 4139 H 388.875 4.66799 1.3125 0
M  V30 4140 N 390.218 -0.567019 1.47046 0
M  V30 4141 C 391.466 -1.322 1.52864 0
M  V30 4142 C 391.787 -1.94088 0.188388 0
M  V30 4143 O 391.057 -1.7941 -0.786693 0
M  V30 4144 H 389.637 -0.490894 0.563056 0
M  V30 4145 H 392.299 -0.662879 1.83281 0
M  V30 4146 H 391.395 -2.12062 2.2899 0
M  V30 4147 N 391.696 -1.35014 -0.812953 0
M  V30 4148 C 392.644 -1.27435 -1.94585 0
M  V30 4149 C 393.638 -0.170494 -1.6854 0
M  V30 4150 O 394.844 -0.336085 -1.76835 0
M  V30 4151 H 391.219 -0.396144 -0.639198 0
M  V30 4152 H 393.19 -2.23158 -1.98098 0
M  V30 4153 C 391.939 -1.05677 -3.31252 0
M  V30 4154 H 391.262 -1.89853 -3.51846 0
M  V30 4155 H 392.702 -1.04413 -4.10943 0
M  V30 4156 C 391.161 0.239615 -3.36047 0
M  V30 4157 O 391.691 1.23759 -3.8216 0
M  V30 4158 N 389.897 0.276186 -2.89285 0
M  V30 4159 H 389.444 -0.53653 -2.51951 0
M  V30 4160 H 389.402 1.14332 -2.92875 0
M  V30 4161 N 393.175 1.03435 -1.18907 0
M  V30 4162 C 394.452 1.73778 -0.89781 0
M  V30 4163 C 394.832 2.02458 0.597832 0
M  V30 4164 O 394.18 1.67482 1.55441 0
M  V30 4165 C 394.39 3.01845 -1.75187 0
M  V30 4166 C 395.738 3.7546 -1.9828 0
M  V30 4167 O 396.762 3.11759 -1.72293 0
M  V30 4168 O 395.621 4.89966 -2.42065 0
M  V30 4169 H 392.715 0.75651 -0.334098 0
M  V30 4170 H 395.261 1.09444 -1.29693 0
M  V30 4171 H 394.033 2.76836 -2.76545 0
M  V30 4172 H 393.656 3.73919 -1.35167 0
M  V30 4173 N 394.653 0.992116 1.22453 0
M  V30 4174 C 395.6 0.541731 2.24352 0
M  V30 4175 C 396.57 -0.425519 1.60557 0
M  V30 4176 O 397.755 -0.330453 1.87917 0
M  V30 4177 C 394.895 -0.138248 3.44823 0
M  V30 4178 C 394.008 0.870649 4.23136 0
M  V30 4179 C 393.143 0.164269 5.30946 0
M  V30 4180 C 392.182 1.16159 6.00977 0
M  V30 4181 N 391.319 0.483568 7.00433 0
M  V30 4182 H 396.159 1.41541 2.62241 0
M  V30 4183 H 393.696 0.709013 1.28885 0
M  V30 4184 H 395.654 -0.5494 4.13567 0
M  V30 4185 H 394.284 -0.975721 3.077 0
M  V30 4186 H 393.336 1.40013 3.53696 0
M  V30 4187 H 394.648 1.63014 4.7141 0
M  V30 4188 H 393.802 -0.303653 6.0594 0
M  V30 4189 H 392.541 -0.627733 4.83643 0
M  V30 4190 H 391.546 1.64015 5.24766 0
M  V30 4191 H 392.771 1.95445 6.50368 0
M  V30 4192 H 390.717 -0.289012 6.55363 0
M  V30 4193 H 390.634 1.18152 7.4671 0
M  V30 4194 H 391.902 0.0384219 7.79491 0
M  V30 4195 N 396.131 -1.37776 0.765217 0
M  V30 4196 C 397.063 -2.28958 0.105361 0
M  V30 4197 C 398.076 -1.48316 -0.67128 0
M  V30 4198 O 399.265 -1.71046 -0.51045 0
M  V30 4199 C 396.365 -3.27421 -0.874569 0
M  V30 4200 C 395.538 -4.37132 -0.153123 0
M  V30 4201 C 394.597 -5.1571 -1.04547 0
M  V30 4202 O 393.623 -5.66896 -0.511672 0
M  V30 4203 N 394.825 -5.29808 -2.37243 0
M  V30 4204 H 397.59 -2.86227 0.888495 0
M  V30 4205 H 395.151 -1.49682 0.617 0
M  V30 4206 H 397.143 -3.7687 -1.47483 0
M  V30 4207 H 395.713 -2.70967 -1.55871 0
M  V30 4208 H 394.933 -3.89166 0.627975 0
M  V30 4209 H 396.221 -5.07625 0.345643 0
M  V30 4210 H 395.619 -4.89793 -2.83054 0
M  V30 4211 H 394.176 -5.82589 -2.9229 0
M  V30 4212 N 397.609 -0.515225 -1.4894 0
M  V30 4213 C 398.519 0.259774 -2.33157 0
M  V30 4214 C 399.535 0.953501 -1.45548 0
M  V30 4215 O 400.711 0.931735 -1.78552 0
M  V30 4216 C 397.776 1.30193 -3.21326 0
M  V30 4217 C 396.837 0.620129 -4.24797 0
M  V30 4218 C 396.07 1.61263 -5.08753 0
M  V30 4219 O 396.293 2.84389 -4.94448 0
M  V30 4220 O 395.227 1.16013 -5.90614 0
M  V30 4221 H 399.053 -0.429932 -3.00641 0
M  V30 4222 H 396.638 -0.276346 -1.46822 0
M  V30 4223 H 398.52 1.90455 -3.75905 0
M  V30 4224 H 397.195 1.97431 -2.56521 0
M  V30 4225 H 396.102 -0.0226019 -3.74093 0
M  V30 4226 H 397.435 -0.0100493 -4.92199 0
M  V30 4227 N 399.087 1.5561 -0.249682 0
M  V30 4228 C 400.315 2.03411 0.378352 0
M  V30 4229 C 400.73 1.12886 1.51335 0
M  V30 4230 O 400.087 0.143833 1.81932 0
M  V30 4231 C 400.138 3.50537 0.88351 0
M  V30 4232 O 399.859 4.37614 -0.20626 0
M  V30 4233 C 401.36 4.14113 1.58195 0
M  V30 4234 H 398.58 0.664994 0.08958 0
M  V30 4235 H 401.124 2.01044 -0.374357 0
M  V30 4236 H 399.279 3.5343 1.58639 0
M  V30 4237 H 399.693 5.24199 0.177782 0
M  V30 4238 H 401.167 5.18741 1.8871 0
M  V30 4239 H 401.644 3.60767 2.50487 0
M  V30 4240 H 402.25 4.15151 0.923573 0
M  V30 4241 N 400.565 -0.0233959 1.57583 0
M  V30 4242 C 401.812 -0.713063 1.8953 0
M  V30 4243 C 402.14 -1.75056 0.847673 0
M  V30 4244 O 401.395 -1.95119 -0.150636 0
M  V30 4245 C 401.694 -1.41428 3.28227 0
M  V30 4246 C 401.36 -0.512222 4.47981 0
M  V30 4247 C 400.022 -0.263785 4.80476 0
M  V30 4248 C 402.374 0.110248 5.21083 0
M  V30 4249 C 399.702 0.615804 5.83459 0
M  V30 4250 C 402.054 0.977573 6.25001 0
M  V30 4251 C 400.718 1.23542 6.55968 0
M  V30 4252 H 399.988 -0.260928 0.69354 0
M  V30 4253 H 402.635 0.0271047 1.91481 0
M  V30 4254 H 400.94 -2.22791 3.22291 0
M  V30 4255 H 402.637 -1.95355 3.50196 0
M  V30 4256 H 399.227 -0.716013 4.22577 0
M  V30 4257 H 403.411 -0.0687137 4.96252 0
M  V30 4258 H 398.667 0.82382 6.05824 0
M  V30 4259 H 402.841 1.46638 6.80786 0
M  V30 4260 H 400.468 1.91871 7.35588 0
M  V30 4261 N 402.043 -1.548 -0.295768 0
M  V30 4262 C 402.973 -1.89115 -1.36959 0
M  V30 4263 C 403.954 -0.75059 -1.52644 0
M  V30 4264 O 405.139 -1.00678 -1.66065 0
M  V30 4265 C 402.269 -2.14307 -2.73295 0
M  V30 4266 C 401.223 -3.30151 -2.72368 0
M  V30 4267 C 400.549 -3.40772 -4.12042 0
M  V30 4268 C 401.849 -4.67126 -2.33646 0
M  V30 4269 H 403.543 -2.79053 -1.08488 0
M  V30 4270 H 401.089 -1.34266 -0.520443 0
M  V30 4271 H 403.042 -2.36898 -3.48507 0
M  V30 4272 H 401.766 -1.21145 -3.03301 0
M  V30 4273 H 400.425 -3.0749 -1.99613 0
M  V30 4274 H 400.073 -2.45117 -4.39234 0
M  V30 4275 H 399.773 -4.18645 -4.12322 0
M  V30 4276 H 401.297 -3.6563 -4.89027 0
M  V30 4277 H 402.711 -4.89414 -2.98575 0
M  V30 4278 H 401.108 -5.47751 -2.45129 0
M  V30 4279 H 402.178 -4.67489 -1.28772 0
M  V30 4280 N 403.521 0.559213 -1.47345 0
M  V30 4281 C 404.469 1.68747 -1.60085 0
M  V30 4282 C 405.463 1.628 -0.46825 0
M  V30 4283 O 406.669 1.68009 -0.645977 0
M  V30 4284 H 403.044 0.558329 -0.503759 0
M  V30 4285 H 405.015 1.55138 -2.54902 0
M  V30 4286 C 403.764 3.07103 -1.63042 0
M  V30 4287 H 403.087 3.12361 -2.49541 0
M  V30 4288 H 404.527 3.85743 -1.76006 0
M  V30 4289 C 402.986 3.34935 -0.363357 0
M  V30 4290 O 403.516 3.98102 0.536416 0
M  V30 4291 N 401.722 2.89574 -0.244 0
M  V30 4292 H 401.269 2.38348 -0.977133 0
M  V30 4293 H 401.227 3.08566 0.602836 0
M  V30 4294 N 404.999 1.35443 0.805782 0
M  V30 4295 C 406.248 1.28097 1.55801 0
M  V30 4296 C 406.561 -0.142428 1.95081 0
M  V30 4297 O 407.767 -0.33817 2.69386 0
M  V30 4298 C 406.223 2.24653 2.81174 0
M  V30 4299 C 405.831 3.72342 2.49129 0
M  V30 4300 C 407.575 2.2625 3.59181 0
M  V30 4301 C 405.482 4.60719 3.70799 0
M  V30 4302 H 404.412 0.475937 0.584808 0
M  V30 4303 H 407.063 1.60712 0.885661 0
M  V30 4304 H 405.445 1.85011 3.50124 0
M  V30 4305 H 406.619 4.20624 1.88181 0
M  V30 4306 H 404.934 3.73361 1.84366 0
M  V30 4307 H 407.531 2.89495 4.49552 0
M  V30 4308 H 407.874 1.26647 3.96568 0
M  V30 4309 H 408.407 2.64426 2.97193 0
M  V30 4310 H 405.146 5.61324 3.3852 0
M  V30 4311 H 404.666 4.17163 4.3097 0
M  V30 4312 H 406.345 4.76182 4.38018 0
M  V30 4313 N 406.477 -1.02803 1.19454 0
M  V30 4314 C 407.702 -1.80378 1.02364 0
M  V30 4315 C 408.127 -1.83282 -0.423007 0
M  V30 4316 O 407.485 -1.25945 -1.30413 0
M  V30 4317 C 407.533 -3.23248 1.59821 0
M  V30 4318 O 406.637 -4.04 0.828105 0
M  V30 4319 H 405.978 -0.556799 0.361761 0
M  V30 4320 H 408.508 -1.29385 1.58495 0
M  V30 4321 H 408.518 -3.73994 1.63073 0
M  V30 4322 H 407.193 -3.2045 2.65113 0
M  V30 4323 H 405.77 -3.62635 0.86891 0
M  V30 4324 N 407.956 -0.998596 -1.21925 0
M  V30 4325 C 408.888 -0.511879 -2.23411 0
M  V30 4326 C 409.901 0.396094 -1.57908 0
M  V30 4327 O 411.09 0.197316 -1.77406 0
M  V30 4328 C 408.19 0.276802 -3.37768 0
M  V30 4329 C 407.363 -0.628687 -4.32858 0
M  V30 4330 C 406.422 0.109272 -5.26087 0
M  V30 4331 O 405.448 -0.507237 -5.66935 0
M  V30 4332 N 406.65 1.38983 -5.63617 0
M  V30 4333 H 409.415 -1.38457 -2.658 0
M  V30 4334 H 406.976 -0.873981 -1.36283 0
M  V30 4335 H 408.968 0.77928 -3.97126 0
M  V30 4336 H 407.538 1.05063 -2.94415 0
M  V30 4337 H 406.758 -1.31175 -3.71735 0
M  V30 4338 H 408.046 -1.24514 -4.93329 0
M  V30 4339 H 407.444 1.91194 -5.32411 0
M  V30 4340 H 406.001 1.83739 -6.25367 0
M  V30 4341 N 409.434 1.37368 -0.772513 0
M  V30 4342 C 410.367 2.27956 -0.105593 0
M  V30 4343 C 411.345 1.46362 0.708295 0
M  V30 4344 O 412.529 1.75695 0.682895 0
M  V30 4345 C 409.656 3.27687 0.856686 0
M  V30 4346 C 408.702 4.26312 0.1267 0
M  V30 4347 S 409.535 5.22206 -1.1858 0
M  V30 4348 C 410.691 6.25488 -0.227081 0
M  V30 4349 H 410.924 2.84171 -0.87372 0
M  V30 4350 H 408.457 1.43654 -0.565939 0
M  V30 4351 H 410.415 3.85653 1.40648 0
M  V30 4352 H 409.076 2.70417 1.59793 0
M  V30 4353 H 408.269 4.96674 0.856212 0
M  V30 4354 H 407.871 3.72339 -0.352117 0
M  V30 4355 H 410.163 6.74836 0.600231 0
M  V30 4356 H 411.106 7.02371 -0.898899 0
M  V30 4357 H 411.514 5.64267 0.162053 0
M  V30 4358 N 410.912 0.523116 1.48665 0
M  V30 4359 C 411.86 -0.256859 2.31177 0
M  V30 4360 C 412.854 -0.94199 1.40794 0
M  V30 4361 O 414.06 -0.867157 1.57735 0
M  V30 4362 H 410.435 -0.1017 0.745091 0
M  V30 4363 H 412.406 0.458739 2.94853 0
M  V30 4364 C 411.155 -1.29503 3.22683 0
M  V30 4365 H 410.478 -0.777248 3.92172 0
M  V30 4366 H 411.918 -1.81233 3.83315 0
M  V30 4367 C 410.377 -2.32501 2.43813 0
M  V30 4368 O 410.907 -3.3881 2.15803 0
M  V30 4369 N 409.113 -2.05538 2.05432 0
M  V30 4370 H 408.66 -1.19104 2.28412 0
M  V30 4371 H 408.618 -2.74676 1.52973 0
M  V30 4372 N 412.39 -1.55475 0.257931 0
M  V30 4373 C 413.32 -2.24815 -0.630912 0
M  V30 4374 C 414.301 -1.23224 -1.17259 0
M  V30 4375 O 415.486 -1.51904 -1.20991 0
M  V30 4376 C 412.616 -2.95609 -1.82298 0
M  V30 4377 C 411.57 -4.03982 -1.41359 0
M  V30 4378 C 410.896 -4.6226 -2.68738 0
M  V30 4379 C 412.196 -5.19109 -0.57648 0
M  V30 4380 H 413.89 -2.99354 -0.0526878 0
M  V30 4381 H 411.436 -1.4398 -0.023901 0
M  V30 4382 H 413.389 -3.42822 -2.45054 0
M  V30 4383 H 412.113 -2.18577 -2.42676 0
M  V30 4384 H 410.772 -3.57555 -0.809324 0
M  V30 4385 H 410.42 -3.81915 -3.27338 0
M  V30 4386 H 410.12 -5.35424 -2.42065 0
M  V30 4387 H 411.644 -5.12212 -3.32372 0
M  V30 4388 H 413.058 -5.62479 -1.10861 0
M  V30 4389 H 411.455 -5.98729 -0.405351 0
M  V30 4390 H 412.525 -4.83174 0.408776 0
M  V30 4391 N 413.868 0.0150385 -1.57593 0
M  V30 4392 C 415.093 0.718067 -1.94573 0
M  V30 4393 C 415.518 1.6734 -0.859005 0
M  V30 4394 O 414.876 1.80362 0.184147 0
M  V30 4395 C 414.924 1.43918 -3.30636 0
M  V30 4396 O 414.028 2.55299 -3.23876 0
M  V30 4397 H 413.369 0.192125 -0.635597 0
M  V30 4398 H 415.899 -0.0336708 -2.04572 0
M  V30 4399 H 415.909 1.80598 -3.65853 0
M  V30 4400 H 414.584 0.738619 -4.09289 0
M  V30 4401 H 413.161 2.21058 -3.00312 0
M  V30 4402 N 415.346 1.54954 0.287554 0
M  V30 4403 C 416.576 1.78622 1.03816 0
M  V30 4404 C 416.984 0.552451 1.80955 0
M  V30 4405 O 416.327 -0.487665 1.77109 0
M  V30 4406 C 416.389 2.94975 2.055 0
M  V30 4407 C 416.053 4.32565 1.47433 0
M  V30 4408 C 417.05 5.12096 0.897436 0
M  V30 4409 C 414.735 4.79195 1.50591 0
M  V30 4410 C 416.729 6.36383 0.359851 0
M  V30 4411 C 414.416 6.03441 0.964459 0
M  V30 4412 C 415.414 6.81872 0.392413 0
M  V30 4413 O 415.102 8.03777 -0.140788 0
M  V30 4414 H 414.834 0.599144 0.313053 0
M  V30 4415 H 417.388 2.02761 0.328225 0
M  V30 4416 H 415.618 2.66493 2.80211 0
M  V30 4417 H 417.307 3.06097 2.6657 0
M  V30 4418 H 418.073 4.77209 0.865841 0
M  V30 4419 H 413.952 4.18167 1.94055 0
M  V30 4420 H 417.496 6.97545 -0.0872951 0
M  V30 4421 H 413.393 6.37813 0.993246 0
M  V30 4422 H 414.161 8.18495 -0.0287617 0
M  V30 4423 N 416.824 -0.551391 1.4764 0
M  V30 4424 C 418.049 -1.33837 1.58437 0
M  V30 4425 C 418.474 -1.866 0.237063 0
M  V30 4426 O 417.832 -1.6328 -0.787994 0
M  V30 4427 C 417.88 -2.48014 2.61766 0
M  V30 4428 O 416.984 -3.50419 2.1744 0
M  V30 4429 H 416.325 -0.397299 0.532024 0
M  V30 4430 H 418.855 -0.665759 1.93465 0
M  V30 4431 H 418.865 -2.94503 2.82369 0
M  V30 4432 H 417.54 -2.08969 3.5959 0
M  V30 4433 H 416.117 -3.10196 2.06961 0
M  V30 4434 N 418.302 -1.35869 -0.798587 0
M  V30 4435 C 419.212 -1.31578 -1.94228 0
M  V30 4436 C 420.228 -0.21939 -1.72611 0
M  V30 4437 O 421.404 -0.450167 -1.96305 0
M  V30 4438 C 418.469 -1.09528 -3.28944 0
M  V30 4439 C 417.53 -2.28556 -3.63402 0
M  V30 4440 C 416.763 -2.07549 -4.9169 0
M  V30 4441 O 416.986 -1.046 -5.60727 0
M  V30 4442 O 415.92 -2.95106 -5.24591 0
M  V30 4443 H 419.746 -2.27847 -2.00796 0
M  V30 4444 H 417.331 -1.16322 -0.937526 0
M  V30 4445 H 419.213 -0.991127 -4.09579 0
M  V30 4446 H 417.888 -0.16315 -3.23289 0
M  V30 4447 H 416.795 -2.44538 -2.83112 0
M  V30 4448 H 418.128 -3.20244 -3.73771 0
M  V30 4449 N 419.78 1.02168 -1.19998 0
M  V30 4450 C 420.69 2.14069 -0.959774 0
M  V30 4451 C 421.706 1.73804 0.082655 0
M  V30 4452 O 422.882 2.01133 -0.103633 0
M  V30 4453 C 419.947 3.42936 -0.509459 0
M  V30 4454 C 419.008 3.97474 -1.62213 0
M  V30 4455 C 418.241 5.2019 -1.19321 0
M  V30 4456 O 418.464 5.70369 -0.0597726 0
M  V30 4457 O 417.398 5.67749 -1.99863 0
M  V30 4458 H 421.224 2.37199 -1.89658 0
M  V30 4459 H 418.809 1.12469 -0.983411 0
M  V30 4460 H 420.691 4.20551 -0.267322 0
M  V30 4461 H 419.366 3.21234 0.398821 0
M  V30 4462 H 418.273 3.21161 -1.9185 0
M  V30 4463 H 419.606 4.23555 -2.50723 0
M  V30 4464 N 421.258 1.00505 1.21394 0
M  V30 4465 C 422.168 0.574806 2.27449 0
M  V30 4466 C 423.184 -0.382206 1.6975 0
M  V30 4467 O 424.36 -0.246027 1.99892 0
M  V30 4468 C 421.425 -0.0917414 3.46579 0
M  V30 4469 C 420.486 0.909758 4.1955 0
M  V30 4470 C 419.719 0.274924 5.32991 0
M  V30 4471 O 419.942 -0.928254 5.62796 0
M  V30 4472 O 418.876 0.985877 5.93771 0
M  V30 4473 H 422.702 1.45744 2.66444 0
M  V30 4474 H 420.287 0.773923 1.27792 0
M  V30 4475 H 422.169 -0.464551 4.18832 0
M  V30 4476 H 420.844 -0.948755 3.09484 0
M  V30 4477 H 419.751 1.33372 3.49518 0
M  V30 4478 H 421.084 1.73636 4.60555 0
M  V30 4479 N 422.737 -1.36956 0.779787 0
M  V30 4480 C 423.984 -1.99491 0.347766 0
M  V30 4481 C 424.312 -1.61898 -1.07793 0
M  V30 4482 O 423.567 -0.86071 -1.75756 0
M  V30 4483 C 423.866 -3.54585 0.447686 0
M  V30 4484 C 423.532 -4.1197 1.83279 0
M  V30 4485 C 422.194 -4.27356 2.2118 0
M  V30 4486 C 424.546 -4.43354 2.74019 0
M  V30 4487 C 421.874 -4.71432 3.4924 0
M  V30 4488 C 424.226 -4.88858 4.01497 0
M  V30 4489 C 422.89 -5.0245 4.39432 0
M  V30 4490 H 422.16 -0.729991 0.127257 0
M  V30 4491 H 424.807 -1.63599 0.995376 0
M  V30 4492 H 423.112 -3.90773 -0.283447 0
M  V30 4493 H 424.809 -4.00888 0.0945948 0
M  V30 4494 H 421.399 -4.00428 1.52825 0
M  V30 4495 H 425.583 -4.31045 2.45995 0
M  V30 4496 H 420.839 -4.80141 3.78516 0
M  V30 4497 H 425.013 -5.12108 4.71931 0
M  V30 4498 H 422.64 -5.36362 5.38721 0
M  V30 4499 N 424.215 -0.530993 -1.48385 0
M  V30 4500 C 425.492 0.0671788 -1.95485 0
M  V30 4501 C 425.872 1.51191 -1.47324 0
M  V30 4502 O 425.22 2.17507 -0.700202 0
M  V30 4503 C 425.43 -0.0511206 -3.48963 0
M  V30 4504 C 426.778 0.107632 -4.24464 0
M  V30 4505 O 427.802 0.0226248 -3.56193 0
M  V30 4506 O 426.661 0.285972 -5.45751 0
M  V30 4507 H 423.755 0.0787365 -0.823243 0
M  V30 4508 H 426.301 -0.595662 -1.58902 0
M  V30 4509 H 425.073 -1.05747 -3.7674 0
M  V30 4510 H 424.696 0.650525 -3.92242 0
M  V30 4511 N 425.693 1.55336 -0.266172 0
M  V30 4512 C 426.939 1.99692 0.353681 0
M  V30 4513 C 427.272 1.1543 1.56172 0
M  V30 4514 O 426.547 0.222218 1.93226 0
M  V30 4515 C 426.83 3.52316 0.74466 0
M  V30 4516 C 426.683 4.47337 -0.470101 0
M  V30 4517 C 428.002 4.10588 1.58447 0
M  V30 4518 H 425.121 0.725961 0.12708 0
M  V30 4519 H 427.763 1.86336 -0.371333 0
M  V30 4520 H 425.913 3.63829 1.36239 0
M  V30 4521 H 427.585 4.4778 -1.10864 0
M  V30 4522 H 425.828 4.19364 -1.10978 0
M  V30 4523 H 426.499 5.51788 -0.15291 0
M  V30 4524 H 428.975 4.02297 1.06286 0
M  V30 4525 H 427.851 5.17607 1.82686 0
M  V30 4526 H 428.112 3.60253 2.56262 0
M  V30 4527 N 427.171 -0.0066808 1.57599 0
M  V30 4528 C 428.101 -0.999296 2.11036 0
M  V30 4529 C 429.082 -1.36278 1.01795 0
M  V30 4530 O 430.267 -1.4477 1.29442 0
M  V30 4531 C 427.397 -2.29328 2.60818 0
M  V30 4532 C 426.351 -2.07159 3.74525 0
M  V30 4533 C 425.677 -3.42512 4.10596 0
M  V30 4534 C 426.977 -1.43959 5.02069 0
M  V30 4535 H 428.671 -0.554382 2.94223 0
M  V30 4536 H 426.217 -0.265221 1.41536 0
M  V30 4537 H 428.17 -2.99117 2.96828 0
M  V30 4538 H 426.894 -2.7592 1.74745 0
M  V30 4539 H 425.553 -1.39797 3.38899 0
M  V30 4540 H 425.201 -3.86795 3.21556 0
M  V30 4541 H 424.901 -3.28498 4.87199 0
M  V30 4542 H 426.425 -4.13628 4.4916 0
M  V30 4543 H 427.839 -2.03696 5.35893 0
M  V30 4544 H 426.236 -1.40452 5.83432 0
M  V30 4545 H 427.306 -0.407992 4.83181 0
M  V30 4546 N 428.649 -1.55105 -0.279332 0
M  V30 4547 C 429.874 -1.7976 -1.03446 0
M  V30 4548 C 430.299 -0.565952 -1.79384 0
M  V30 4549 O 429.657 0.484259 -1.74713 0
M  V30 4550 C 429.705 -3.0179 -1.97371 0
M  V30 4551 O 428.809 -2.76432 -3.06038 0
M  V30 4552 H 428.15 -0.594334 -0.29608 0
M  V30 4553 H 430.68 -2.02235 -0.310165 0
M  V30 4554 H 430.69 -3.30351 -2.39441 0
M  V30 4555 H 429.365 -3.91085 -1.4151 0
M  V30 4556 H 427.942 -2.58949 -2.68328 0
M  V30 4557 N 430.127 0.543554 -1.4793 0
M  V30 4558 C 431.037 1.67657 -1.64098 0
M  V30 4559 C 432.053 1.65934 -0.523622 0
M  V30 4560 O 433.229 1.85133 -0.792943 0
M  V30 4561 C 430.294 3.04146 -1.66421 0
M  V30 4562 C 429.355 3.16831 -2.89684 0
M  V30 4563 C 428.588 4.46809 -2.91886 0
M  V30 4564 O 428.811 5.33095 -2.02895 0
M  V30 4565 O 427.745 4.63573 -3.83906 0
M  V30 4566 H 431.571 1.56957 -2.59997 0
M  V30 4567 H 429.156 0.715116 -1.31173 0
M  V30 4568 H 431.038 3.85346 -1.70548 0
M  V30 4569 H 429.713 3.152 -0.736923 0
M  V30 4570 H 428.62 2.34977 -2.91095 0
M  V30 4571 H 429.953 3.10687 -3.81752 0
M  V30 4572 N 431.605 1.3629 0.791371 0
M  V30 4573 C 432.83 1.33726 1.58531 0
M  V30 4574 C 433.255 -0.0794933 1.87932 0
M  V30 4575 O 432.613 -1.05087 1.47738 0
M  V30 4576 C 432.661 2.16425 2.88431 0
M  V30 4577 O 431.765 1.5554 3.81944 0
M  V30 4578 H 431.106 0.457793 0.480959 0
M  V30 4579 H 433.636 1.79547 0.981031 0
M  V30 4580 H 433.646 2.28933 3.37718 0
M  V30 4581 H 432.321 3.19415 2.66359 0
M  V30 4582 H 430.898 1.51961 3.40532 0
M  V30 4583 N 433.083 -1.0153 1.20538 0
M  V30 4584 C 434.046 -2.0826 0.957098 0
M  V30 4585 C 435.046 -1.60657 -0.0678655 0
M  V30 4586 O 436.236 -1.73385 0.168332 0
M  V30 4587 C 433.368 -3.38033 0.441188 0
M  V30 4588 H 434.561 -2.31719 1.90384 0
M  V30 4589 H 432.114 -1.1835 1.02093 0
M  V30 4590 H 432.849 -3.20249 -0.510961 0
M  V30 4591 H 432.634 -3.73911 1.18038 0
M  V30 4592 H 434.124 -4.16613 0.287009 0
M  V30 4593 N 434.561 -1.01147 -1.20859 0
M  V30 4594 C 435.807 -0.698899 -1.90377 0
M  V30 4595 C 436.14 0.76904 -1.78324 0
M  V30 4596 O 435.415 1.55817 -1.16409 0
M  V30 4597 C 435.698 -1.12878 -3.41951 0
M  V30 4598 C 435.551 -2.65665 -3.62963 0
M  V30 4599 C 436.87 -0.696114 -4.3456 0
M  V30 4600 H 433.989 -0.255372 -0.691342 0
M  V30 4601 H 436.631 -1.25831 -1.42361 0
M  V30 4602 H 434.781 -0.652827 -3.82976 0
M  V30 4603 H 436.453 -3.21074 -3.31224 0
M  V30 4604 H 434.696 -3.06878 -3.06608 0
M  V30 4605 H 435.367 -2.90797 -4.69192 0
M  V30 4606 H 437.843 -1.10521 -4.01154 0
M  V30 4607 H 436.719 -1.025 -5.39245 0
M  V30 4608 H 436.98 0.402465 -4.40264 0
M  V30 4609 N 436.039 1.36541 -0.78704 0
M  V30 4610 C 437.316 1.9355 -0.282424 0
M  V30 4611 C 437.696 1.71919 1.22503 0
M  V30 4612 O 437.044 1.07677 2.01539 0
M  V30 4613 C 437.254 3.4246 -0.672462 0
M  V30 4614 C 438.602 4.19582 -0.650863 0
M  V30 4615 O 439.626 3.50889 -0.612789 0
M  V30 4616 O 438.485 5.42106 -0.691623 0
M  V30 4617 H 435.579 0.824091 -0.0693 0
M  V30 4618 H 438.125 1.45736 -0.869423 0
M  V30 4619 H 436.897 3.51851 -1.71221 0
M  V30 4620 H 436.52 3.97556 -0.0592211 0
M  V30 4621 N 437.518 0.538854 1.48102 0
M  V30 4622 C 438.765 0.0080018 2.02498 0
M  V30 4623 C 439.093 -1.33437 1.41509 0
M  V30 4624 O 438.348 -1.87709 0.553507 0
M  V30 4625 C 438.647 -0.153808 3.57069 0
M  V30 4626 C 438.313 1.11533 4.36888 0
M  V30 4627 C 436.975 1.46314 4.58417 0
M  V30 4628 C 439.327 1.95718 4.83057 0
M  V30 4629 C 436.655 2.6516 5.23361 0
M  V30 4630 C 439.007 3.13751 5.49312 0
M  V30 4631 C 437.671 3.48866 5.69077 0
M  V30 4632 H 436.941 0.00292807 0.740994 0
M  V30 4633 H 439.588 0.706668 1.77984 0
M  V30 4634 H 437.893 -0.935309 3.80472 0
M  V30 4635 H 439.59 -0.579607 3.96789 0
M  V30 4636 H 436.18 0.834484 4.20398 0
M  V30 4637 H 440.364 1.70158 4.66219 0
M  V30 4638 H 435.62 2.92558 5.36861 0
M  V30 4639 H 439.794 3.79282 5.84053 0
M  V30 4640 H 437.421 4.41054 6.19173 0
M  V30 4641 N 438.996 -1.55193 0.274407 0
M  V30 4642 C 440.245 -1.98758 -0.343213 0
M  V30 4643 C 440.558 -1.16624 -1.5703 0
M  V30 4644 O 441.764 -1.5033 -2.26082 0
M  V30 4645 C 440.22 -3.53759 -0.661996 0
M  V30 4646 C 439.828 -4.4467 0.54524 0
M  V30 4647 C 441.572 -4.05916 -1.24228 0
M  V30 4648 C 439.479 -5.91058 0.201084 0
M  V30 4649 H 438.409 -0.742353 -0.132014 0
M  V30 4650 H 441.06 -1.79545 0.378948 0
M  V30 4651 H 439.442 -3.68772 -1.44304 0
M  V30 4652 H 440.616 -4.41426 1.32212 0
M  V30 4653 H 438.931 -4.03143 1.04232 0
M  V30 4654 H 441.528 -5.12831 -1.51357 0
M  V30 4655 H 441.871 -3.54908 -2.17592 0
M  V30 4656 H 442.404 -3.9434 -0.523542 0
M  V30 4657 H 439.143 -6.46161 1.10258 0
M  V30 4658 H 438.663 -5.97373 -0.539045 0
M  V30 4659 H 440.342 -6.46669 -0.206954 0
M  V30 4660 N 440.474 -0.00167713 -1.576 0
M  V30 4661 C 441.89 0.354422 -1.55615 0
M  V30 4662 C 442.09 1.74679 -1.00447 0
M  V30 4663 O 441.146 2.4428 -0.639022 0
M  V30 4664 C 442.459 0.22812 -2.99833 0
M  V30 4665 C 444.007 0.302934 -3.11531 0
M  V30 4666 C 444.482 0.205737 -4.57538 0
M  V30 4667 N 445.973 0.263584 -4.62449 0
M  V30 4668 C 446.708 0.211742 -5.73009 0
M  V30 4669 N 446.204 0.110399 -6.92712 0
M  V30 4670 N 447.997 0.263729 -5.61481 0
M  V30 4671 H 440.148 -0.912498 -1.918 0
M  V30 4672 H 442.411 -0.349928 -0.881053 0
M  V30 4673 H 442.117 -0.729934 -3.44042 0
M  V30 4674 H 441.991 1.00951 -3.6344 0
M  V30 4675 H 444.378 1.25143 -2.67251 0
M  V30 4676 H 444.459 -0.508357 -2.50698 0
M  V30 4677 H 444.103 -0.739225 -5.02492 0
M  V30 4678 H 444.033 1.03554 -5.16318 0
M  V30 4679 H 446.524 0.343173 -3.76339 0
M  V30 4680 H 446.837 0.0767828 -7.72762 0
M  V30 4681 H 445.182 0.0760025 -6.94958 0
M  V30 4682 H 448.373 0.34111 -4.66855 0
M  V30 4683 H 448.546 0.219862 -6.47627 0
M  V30 4684 N 441.952 1.55251 0.271103 0
M  V30 4685 C 443.18 1.79974 1.02064 0
M  V30 4686 C 443.595 0.574003 1.79863 0
M  V30 4687 O 442.952 -0.456962 1.76686 0
M  V30 4688 C 443.003 3.02603 1.97772 0
M  V30 4689 O 442.724 4.20443 1.23124 0
M  V30 4690 C 444.225 3.39944 2.84522 0
M  V30 4691 H 441.445 0.599489 0.301419 0
M  V30 4692 H 443.989 2.02268 0.301313 0
M  V30 4693 H 442.144 2.8243 2.65165 0
M  V30 4694 H 442.558 4.89783 1.87651 0
M  V30 4695 H 444.032 4.28915 3.47471 0
M  V30 4696 H 444.509 2.59432 3.54389 0
M  V30 4697 H 445.115 3.62383 2.22618 0
M  V30 4698 N 443.43 -0.535701 1.48216 0
M  V30 4699 C 444.36 -1.65014 1.65204 0
M  V30 4700 C 445.341 -1.62554 0.501011 0
M  V30 4701 O 446.526 -1.7984 0.732886 0
M  V30 4702 C 443.656 -3.03616 1.68626 0
M  V30 4703 C 442.61 -3.20932 2.83172 0
M  V30 4704 C 441.936 -4.60537 2.71679 0
M  V30 4705 C 443.236 -3.04249 4.24535 0
M  V30 4706 H 444.93 -1.51053 2.58502 0
M  V30 4707 H 442.476 -0.725262 1.24402 0
M  V30 4708 H 444.429 -3.81446 1.79099 0
M  V30 4709 H 443.153 -3.18587 0.719026 0
M  V30 4710 H 441.812 -2.45517 2.72244 0
M  V30 4711 H 441.46 -4.72336 1.72937 0
M  V30 4712 H 441.16 -4.73069 3.48538 0
M  V30 4713 H 442.684 -5.40475 2.84112 0
M  V30 4714 H 444.098 -3.71877 4.36326 0
M  V30 4715 H 442.495 -3.28278 5.02348 0
M  V30 4716 H 443.565 -2.00739 4.41397 0
M  V30 4717 N 444.908 -1.36708 -0.784132 0
M  V30 4718 C 445.838 -1.34153 -1.91116 0
M  V30 4719 C 446.819 -0.212121 -1.68772 0
M  V30 4720 O 448.004 -0.410581 -1.8981 0
M  V30 4721 C 445.134 -1.13535 -3.28218 0
M  V30 4722 C 444.088 -2.23356 -3.65097 0
M  V30 4723 C 443.414 -1.87875 -5.00607 0
M  V30 4724 C 444.714 -3.65473 -3.73131 0
M  V30 4725 H 446.408 -2.28459 -1.93512 0
M  V30 4726 H 443.954 -1.09973 -0.929618 0
M  V30 4727 H 445.907 -1.10381 -4.06687 0
M  V30 4728 H 444.631 -0.156804 -3.26223 0
M  V30 4729 H 443.29 -2.25645 -2.88929 0
M  V30 4730 H 442.938 -0.885814 -4.95139 0
M  V30 4731 H 442.638 -2.61406 -5.26252 0
M  V30 4732 H 444.162 -1.86286 -5.81489 0
M  V30 4733 H 445.576 -3.65382 -4.41779 0
M  V30 4734 H 443.973 -4.37953 -4.10265 0
M  V30 4735 H 445.043 -3.99995 -2.74102 0
M  V30 4736 N 446.386 1.0089 -1.21074 0
M  V30 4737 C 447.632 1.74866 -1.02712 0
M  V30 4738 C 447.965 1.89178 0.438787 0
M  V30 4739 O 447.24 1.42325 1.32567 0
M  V30 4740 C 447.523 3.16347 -1.72036 0
M  V30 4741 C 447.376 3.09782 -3.26121 0
M  V30 4742 C 448.695 4.15187 -1.45973 0
M  V30 4743 H 445.814 0.634736 -0.374539 0
M  V30 4744 H 448.456 1.17646 -1.49196 0
M  V30 4745 H 446.606 3.65201 -1.32517 0
M  V30 4746 H 448.278 2.68673 -3.74983 0
M  V30 4747 H 446.521 2.46982 -3.56626 0
M  V30 4748 H 447.192 4.09829 -3.6979 0
M  V30 4749 H 449.668 3.75022 -1.80272 0
M  V30 4750 H 448.544 5.12331 -1.96999 0
M  V30 4751 H 448.805 4.40386 -0.388924 0
M  V30 4752 N 447.864 1.01787 1.20321 0
M  V30 4753 C 448.811 0.589197 2.23153 0
M  V30 4754 C 449.781 -0.391367 1.61423 0
M  V30 4755 O 450.966 -0.290518 1.88575 0
M  V30 4756 C 448.106 -0.0650747 3.45039 0
M  V30 4757 C 447.219 0.960207 4.21194 0
M  V30 4758 C 446.354 0.276854 5.30478 0
M  V30 4759 C 445.393 1.2888 5.98378 0
M  V30 4760 N 444.53 0.632031 6.99249 0
M  V30 4761 H 449.37 1.47071 2.59179 0
M  V30 4762 H 446.907 0.736192 1.27352 0
M  V30 4763 H 448.865 -0.461552 4.14639 0
M  V30 4764 H 447.495 -0.910233 3.09701 0
M  V30 4765 H 446.547 1.47484 3.50646 0
M  V30 4766 H 447.859 1.72977 4.67847 0
M  V30 4767 H 447.013 -0.175056 6.06447 0
M  V30 4768 H 445.752 -0.525004 4.84866 0
M  V30 4769 H 444.757 1.75109 5.21169 0
M  V30 4770 H 445.982 2.09196 6.46076 0
M  V30 4771 H 443.928 -0.149935 6.55829 0
M  V30 4772 H 443.845 1.33964 7.44036 0
M  V30 4773 H 445.113 0.203755 7.79234 0
M  V30 4774 N 449.342 -1.36122 0.79427 0
M  V30 4775 C 450.289 -2.29982 0.194101 0
M  V30 4776 C 451.259 -1.52214 -0.664833 0
M  V30 4777 O 452.444 -1.80702 -0.612498 0
M  V30 4778 C 449.584 -3.38706 -0.661244 0
M  V30 4779 C 448.697 -4.31456 0.216766 0
M  V30 4780 C 447.832 -5.27265 -0.645411 0
M  V30 4781 C 446.871 -6.11653 0.233756 0
M  V30 4782 N 446.008 -6.99636 -0.587682 0
M  V30 4783 H 450.848 -2.80722 0.999965 0
M  V30 4784 H 448.385 -1.38172 0.504677 0
M  V30 4785 H 450.343 -4.00394 -1.17219 0
M  V30 4786 H 448.973 -2.89274 -1.43249 0
M  V30 4787 H 448.025 -3.7088 0.845724 0
M  V30 4788 H 449.337 -4.90724 0.893973 0
M  V30 4789 H 448.491 -5.94266 -1.22198 0
M  V30 4790 H 447.23 -4.68463 -1.35623 0
M  V30 4791 H 446.235 -5.4361 0.82269 0
M  V30 4792 H 447.46 -6.72531 0.942247 0
M  V30 4793 H 445.406 -6.43337 -1.2827 0
M  V30 4794 H 445.323 -7.55993 0.0317402 0
M  V30 4795 H 446.591 -7.71001 -1.14792 0
M  V30 4796 N 450.82 -0.546701 -1.47814 0
M  V30 4797 C 452.231 -0.110564 -1.86372 0
M  V30 4798 C 452.582 1.31678 -1.45449 0
M  V30 4799 O 451.707 1.98889 -0.852758 0
M  V30 4800 C 452.302 -0.193873 -3.38245 0
M  V30 4801 C 450.861 0.187164 -3.75934 0
M  V30 4802 C 450.008 -0.546166 -2.71868 0
M  V30 4803 H 452.959 -0.757022 -1.39481 0
M  V30 4804 H 452.98 0.590218 -3.75895 0
M  V30 4805 H 452.492 -1.23282 -3.67999 0
M  V30 4806 H 450.593 1.22762 -3.51796 0
M  V30 4807 H 450.706 -0.164083 -4.78819 0
M  V30 4808 H 449.07 0.00953904 -2.54698 0
M  V30 4809 H 449.853 -1.58606 -3.04465 0
M  V30 4810 N 452.299 1.55045 -0.282633 0
M  V30 4811 C 453.209 2.26491 0.61147 0
M  V30 4812 C 454.225 1.29348 1.16384 0
M  V30 4813 O 455.401 1.62298 1.19253 0
M  V30 4814 C 452.466 2.97779 1.77563 0
M  V30 4815 C 451.527 4.10418 1.25919 0
M  V30 4816 C 450.76 4.78297 2.36786 0
M  V30 4817 O 450.983 4.45426 3.56303 0
M  V30 4818 O 449.917 5.66089 2.04517 0
M  V30 4819 H 453.743 3.03683 0.0324615 0
M  V30 4820 H 451.328 1.49317 -0.0497576 0
M  V30 4821 H 453.21 3.42554 2.45427 0
M  V30 4822 H 451.885 2.23498 2.34159 0
M  V30 4823 H 450.792 3.70082 0.546797 0
M  V30 4824 H 452.125 4.86622 0.738887 0
M  V30 4825 N 453.777 0.010035 1.57597 0
M  V30 4826 C 455.054 -0.710296 1.82248 0
M  V30 4827 C 455.434 -1.91426 0.889911 0
M  V30 4828 O 454.782 -2.28424 -0.0590292 0
M  V30 4829 C 454.992 -1.10655 3.30993 0
M  V30 4830 C 456.34 -1.50621 3.96987 0
M  V30 4831 O 457.364 -1.20007 3.35375 0
M  V30 4832 O 456.223 -2.07587 5.05539 0
M  V30 4833 H 453.317 -0.34673 0.750804 0
M  V30 4834 H 455.863 0.0362578 1.69661 0
M  V30 4835 H 454.635 -0.248826 3.90508 0
M  V30 4836 H 454.258 -1.91189 3.48615 0
M  V30 4837 N 455.255 -1.55392 -0.262866 0
M  V30 4838 C 456.671 -1.47459 -0.610582 0
M  V30 4839 C 456.871 -0.697031 -1.8906 0
M  V30 4840 O 455.927 -0.219952 -2.5154 0
M  V30 4841 C 457.24 -2.91751 -0.728131 0
M  V30 4842 C 458.788 -3.02027 -0.821517 0
M  V30 4843 C 459.263 -4.47594 -0.97076 0
M  V30 4844 N 460.754 -4.51465 -1.03603 0
M  V30 4845 C 461.489 -5.61326 -1.17049 0
M  V30 4846 N 460.985 -6.81032 -1.2715 0
M  V30 4847 N 462.778 -5.49089 -1.20239 0
M  V30 4848 H 454.929 -2.04395 0.577632 0
M  V30 4849 H 457.192 -0.927287 0.197086 0
M  V30 4850 H 456.898 -3.51413 0.142132 0
M  V30 4851 H 456.772 -3.4134 -1.6052 0
M  V30 4852 H 459.159 -2.42456 -1.68224 0
M  V30 4853 H 459.24 -2.55674 0.0803688 0
M  V30 4854 H 458.884 -5.07771 -0.114655 0
M  V30 4855 H 458.814 -4.91613 -1.88745 0
M  V30 4856 H 461.305 -3.6524 -0.96996 0
M  V30 4857 H 461.618 -7.60511 -1.37271 0
M  V30 4858 H 459.963 -6.83824 -1.24136 0
M  V30 4859 H 463.154 -4.54507 -1.11985 0
M  V30 4860 H 463.327 -6.34749 -1.30373 0
M  V30 4861 N 456.733 0.527833 -1.48498 0
M  V30 4862 C 457.696 1.61439 -1.62696 0
M  V30 4863 C 458.696 1.52824 -0.500136 0
M  V30 4864 O 459.886 1.56456 -0.765976 0
M  V30 4865 C 457.018 3.01063 -1.59918 0
M  V30 4866 H 458.211 1.50189 -2.59583 0
M  V30 4867 H 455.764 0.750055 -1.37127 0
M  V30 4868 H 456.499 3.17818 -0.645163 0
M  V30 4869 H 456.284 3.08725 -2.41726 0
M  V30 4870 H 457.774 3.80057 -1.73051 0
M  V30 4871 N 458.211 1.37122 0.776871 0
M  V30 4872 C 459.439 1.3523 1.5659 0
M  V30 4873 C 459.854 -0.0635518 1.88693 0
M  V30 4874 O 459.211 -1.02394 1.51069 0
M  V30 4875 C 459.262 2.18583 2.8793 0
M  V30 4876 O 458.983 3.5465 2.57206 0
M  V30 4877 C 460.484 2.24612 3.82183 0
M  V30 4878 H 457.704 0.4634 0.485285 0
M  V30 4879 H 460.248 1.80392 0.963266 0
M  V30 4880 H 458.403 1.76943 3.4463 0
M  V30 4881 H 458.817 3.98286 3.41275 0
M  V30 4882 H 460.291 2.87267 4.71361 0
M  V30 4883 H 460.768 1.25309 4.20944 0
M  V30 4884 H 461.374 2.66543 3.31414 0
M  V30 4885 N 459.689 -1.00246 1.21608 0
M  V30 4886 C 460.652 -2.07233 0.979133 0
M  V30 4887 C 461.652 -1.6072 -0.0508219 0
M  V30 4888 O 462.842 -1.73196 0.186712 0
M  V30 4889 C 459.974 -3.37546 0.477016 0
M  V30 4890 H 461.167 -2.29687 1.92831 0
M  V30 4891 H 458.72 -1.17261 1.03342 0
M  V30 4892 H 459.455 -3.20773 -0.476966 0
M  V30 4893 H 459.24 -3.72638 1.21997 0
M  V30 4894 H 460.73 -4.16285 0.331181 0
M  V30 4895 N 461.167 -1.02423 -1.1978 0
M  V30 4896 C 462.077 -0.610919 -2.26506 0
M  V30 4897 C 463.093 0.355152 -1.70337 0
M  V30 4898 O 464.269 0.214195 -2.00258 0
M  V30 4899 C 461.334 0.0365921 -3.46681 0
M  V30 4900 C 460.395 -0.976389 -4.18049 0
M  V30 4901 C 459.628 -0.359683 -5.32487 0
M  V30 4902 O 459.851 0.838601 -5.64202 0
M  V30 4903 O 458.785 -1.08022 -5.92127 0
M  V30 4904 H 462.611 -1.49965 -2.64091 0
M  V30 4905 H 460.196 -0.794156 -1.26545 0
M  V30 4906 H 462.078 0.39786 -4.19518 0
M  V30 4907 H 460.753 0.899398 -3.10954 0
M  V30 4908 H 459.66 -1.38916 -3.47352 0
M  V30 4909 H 460.993 -1.80941 -4.57735 0
M  V30 4910 N 462.645 1.35699 -0.801477 0
M  V30 4911 C 463.555 2.33661 -0.209691 0
M  V30 4912 C 464.571 1.6162 0.644591 0
M  V30 4913 O 465.747 1.93529 0.557545 0
M  V30 4914 C 462.812 3.40816 0.636033 0
M  V30 4915 C 461.873 4.28639 -0.238147 0
M  V30 4916 C 461.106 5.30676 0.567307 0
M  V30 4917 O 461.329 5.41174 1.8024 0
M  V30 4918 O 460.263 6.01887 -0.0391336 0
M  V30 4919 H 464.089 2.8606 -1.01996 0
M  V30 4920 H 461.674 1.38379 -0.563164 0
M  V30 4921 H 463.556 4.06301 1.11791 0
M  V30 4922 H 462.231 2.90696 1.42399 0
M  V30 4923 H 461.138 3.66152 -0.767044 0
M  V30 4924 H 462.471 4.82143 -0.989915 0
M  V30 4925 N 464.123 0.554532 1.47522 0
M  V30 4926 C 465.363 0.0317994 2.04375 0
M  V30 4927 C 465.727 -1.29242 1.41988 0
M  V30 4928 O 466.928 -1.90269 1.89872 0
M  V30 4929 C 465.199 -0.0623344 3.57346 0
M  V30 4930 S 466.758 -0.531578 4.35568 0
M  V30 4931 H 463.576 0.0238553 0.7106 0
M  V30 4932 H 466.178 0.74066 1.80927 0
M  V30 4933 H 464.882 0.905857 4.00278 0
M  V30 4934 H 464.413 -0.794831 3.85287 0
M  V30 4935 H 466.428 -1.79175 4.62721 0
M  V30 4936 N 465.601 -1.54893 0.290851 0
M  V30 4937 C 466.531 -2.26103 -0.583084 0
M  V30 4938 C 467.512 -1.25684 -1.14619 0
M  V30 4939 O 468.697 -1.54436 -1.17741 0
M  V30 4940 C 465.827 -2.99409 -1.75987 0
M  V30 4941 C 464.781 -4.0689 -1.32758 0
M  V30 4942 C 464.107 -4.67856 -2.58872 0
M  V30 4943 C 465.407 -5.20215 -0.46624 0
M  V30 4944 H 467.101 -2.99398 0.0108214 0
M  V30 4945 H 464.647 -1.43998 0.00664468 0
M  V30 4946 H 466.6 -3.47943 -2.37727 0
M  V30 4947 H 465.324 -2.23675 -2.37985 0
M  V30 4948 H 463.983 -3.59191 -0.733299 0
M  V30 4949 H 463.631 -3.88772 -3.19163 0
M  V30 4950 H 463.331 -5.40438 -2.30653 0
M  V30 4951 H 464.855 -5.19147 -3.21433 0
M  V30 4952 H 466.269 -5.64704 -0.989047 0
M  V30 4953 H 464.666 -5.99455 -0.27826 0
M  V30 4954 H 465.736 -4.82198 0.511173 0
M  V30 4955 N 467.08 -0.0183926 -1.57589 0
M  V30 4956 C 468.027 0.967022 -2.09565 0
M  V30 4957 C 468.997 1.32983 -0.995225 0
M  V30 4958 O 470.182 1.42501 -1.26878 0
M  V30 4959 C 467.322 2.24772 -2.61861 0
M  V30 4960 C 466.435 1.94232 -3.85873 0
M  V30 4961 C 465.57 3.16518 -4.26603 0
M  V30 4962 C 464.609 2.81748 -5.43401 0
M  V30 4963 N 463.746 3.96626 -5.79338 0
M  V30 4964 H 468.586 0.516874 -2.93483 0
M  V30 4965 H 466.123 0.243544 -1.4507 0
M  V30 4966 H 468.081 2.99667 -2.90268 0
M  V30 4967 H 466.711 2.67423 -1.8079 0
M  V30 4968 H 465.763 1.09625 -3.64262 0
M  V30 4969 H 467.075 1.64616 -4.70853 0
M  V30 4970 H 466.229 3.99743 -4.56389 0
M  V30 4971 H 464.968 3.49286 -3.40368 0
M  V30 4972 H 463.973 1.96933 -5.1332 0
M  V30 4973 H 465.198 2.50207 -6.31327 0
M  V30 4974 H 463.144 4.29257 -4.96059 0
M  V30 4975 H 463.061 3.70598 -6.58933 0
M  V30 4976 H 464.329 4.80586 -6.13724 0
M  V30 4977 N 468.558 1.5553 0.254621 0
M  V30 4978 C 469.508 1.86057 1.31783 0
M  V30 4979 C 470.492 0.720827 1.4385 0
M  V30 4980 O 471.684 0.982586 1.47222 0
M  V30 4981 C 468.813 2.15203 2.67475 0
M  V30 4982 C 467.899 3.35484 2.59444 0
M  V30 4983 N 468.29 4.54945 2.2104 0
M  V30 4984 C 466.588 3.38441 2.90472 0
M  V30 4985 C 467.289 5.3707 2.23453 0
M  V30 4986 N 466.265 4.75936 2.62652 0
M  V30 4987 H 470.067 2.75953 1.01129 0
M  V30 4988 H 467.581 1.55653 0.463255 0
M  V30 4989 H 469.578 2.35235 3.44195 0
M  V30 4990 H 468.238 1.26601 2.99002 0
M  V30 4991 H 469.249 4.8071 1.92712 0
M  V30 4992 H 465.926 2.60087 3.2659 0
M  V30 4993 H 467.316 6.42626 1.96166 0
M  V30 4994 N 470.036 -0.519951 1.48776 0
M  V30 4995 C 471.447 -1.10177 1.50725 0
M  V30 4996 C 471.798 -1.94153 0.282678 0
M  V30 4997 O 470.923 -2.07645 -0.609298 0
M  V30 4998 C 471.518 -2.00482 2.73116 0
M  V30 4999 C 470.077 -2.53862 2.77905 0
M  V30 5000 C 469.224 -1.31047 2.44381 0
M  V30 5001 H 472.175 -0.30473 1.55747 0
M  V30 5002 H 472.196 -2.8491 2.52203 0
M  V30 5003 H 471.708 -1.39335 3.62225 0
M  V30 5004 H 469.809 -3.18702 1.93029 0
M  V30 5005 H 469.922 -2.9231 3.79594 0
M  V30 5006 H 468.286 -1.62953 1.95751 0
M  V30 5007 H 469.069 -0.71637 3.35743 0
M  V30 5008 N 471.514 -1.37532 -0.769588 0
M  V30 5009 C 472.76 -1.34063 -1.52966 0
M  V30 5010 C 473.115 0.0737942 -1.92258 0
M  V30 5011 O 472.408 1.03291 -1.61374 0
M  V30 5012 C 472.602 -2.21558 -2.8044 0
M  V30 5013 C 472.431 -3.71367 -2.53608 0
M  V30 5014 C 471.201 -4.40464 -2.47628 0
M  V30 5015 C 473.399 -4.64177 -2.21459 0
M  V30 5016 N 471.381 -5.758 -2.12902 0
M  V30 5017 C 472.752 -5.87907 -1.9689 0
M  V30 5018 C 474.807 -4.52541 -2.07633 0
M  V30 5019 C 473.51 -7.01304 -1.59892 0
M  V30 5020 C 475.536 -5.65825 -1.72034 0
M  V30 5021 C 474.898 -6.88606 -1.48327 0
M  V30 5022 H 470.997 -0.545856 -0.559969 0
M  V30 5023 H 473.581 -1.72773 -0.897634 0
M  V30 5024 H 471.752 -1.85061 -3.41478 0
M  V30 5025 H 473.484 -2.09332 -3.46356 0
M  V30 5026 H 470.239 -3.93491 -2.63556 0
M  V30 5027 H 470.663 -6.47328 -1.9823 0
M  V30 5028 H 475.305 -3.58183 -2.24643 0
M  V30 5029 H 473.023 -7.95594 -1.4162 0
M  V30 5030 H 476.609 -5.58793 -1.61991 0
M  V30 5031 H 475.489 -7.74779 -1.21189 0
M  V30 5032 N 472.992 0.995999 -1.22138 0
M  V30 5033 C 473.922 2.10387 -1.01289 0
M  V30 5034 C 474.903 1.69975 0.0651454 0
M  V30 5035 O 476.088 1.9396 -0.0964628 0
M  V30 5036 C 473.218 3.42312 -0.586517 0
M  V30 5037 C 472.172 3.96558 -1.61014 0
M  V30 5038 C 471.498 5.24494 -1.0397 0
M  V30 5039 C 472.798 4.27595 -2.99933 0
M  V30 5040 H 474.492 2.28086 -1.93951 0
M  V30 5041 H 472.038 1.09607 -0.933928 0
M  V30 5042 H 473.991 4.19223 -0.427793 0
M  V30 5043 H 472.715 3.24431 0.375761 0
M  V30 5044 H 471.374 3.21776 -1.75658 0
M  V30 5045 H 471.022 5.02953 -0.0688703 0
M  V30 5046 H 470.722 5.61755 -1.72352 0
M  V30 5047 H 472.246 6.04042 -0.892494 0
M  V30 5048 H 473.66 4.95315 -2.8868 0
M  V30 5049 H 472.057 4.76021 -3.6541 0
M  V30 5050 H 473.127 3.35498 -3.50099 0
M  V30 5051 N 474.47 1.03057 1.19235 0
M  V30 5052 C 475.698 0.747697 1.92917 0
M  V30 5053 C 476.113 -0.69372 1.75593 0
M  V30 5054 O 475.47 -1.47191 1.07894 0
M  V30 5055 C 475.521 1.09159 3.44625 0
M  V30 5056 O 475.242 2.47641 3.61394 0
M  V30 5057 C 476.743 0.831763 4.35427 0
M  V30 5058 H 473.963 0.273453 0.612751 0
M  V30 5059 H 476.507 1.37552 1.51327 0
M  V30 5060 H 474.662 0.508919 3.84043 0
M  V30 5061 H 475.076 2.60499 4.55237 0
M  V30 5062 H 476.55 1.12233 5.4047 0
M  V30 5063 H 477.027 -0.233769 4.38577 0
M  V30 5064 H 477.633 1.39725 4.01693 0
M  V30 5065 N 475.948 -1.35272 0.808662 0
M  V30 5066 C 476.88 -2.28507 0.178149 0
M  V30 5067 C 477.893 -1.50377 -0.623754 0
M  V30 5068 O 479.082 -1.72583 -0.455774 0
M  V30 5069 C 476.182 -3.30038 -0.769959 0
M  V30 5070 C 475.355 -4.37398 -0.0139749 0
M  V30 5071 C 474.414 -5.18775 -0.880875 0
M  V30 5072 O 473.44 -5.68236 -0.331059 0
M  V30 5073 N 474.642 -5.37087 -2.20267 0
M  V30 5074 H 477.407 -2.83255 0.979106 0
M  V30 5075 H 474.968 -1.47643 0.664308 0
M  V30 5076 H 476.96 -3.81371 -1.35418 0
M  V30 5077 H 475.53 -2.75789 -1.47171 0
M  V30 5078 H 474.75 -3.86971 0.751468 0
M  V30 5079 H 476.038 -5.06268 0.506965 0
M  V30 5080 H 475.436 -4.9855 -2.67328 0
M  V30 5081 H 473.993 -5.91593 -2.73608 0
M  V30 5082 N 477.426 -0.562348 -1.47226 0
M  V30 5083 C 478.651 -0.0432632 -2.07355 0
M  V30 5084 C 479.076 1.24332 -1.41149 0
M  V30 5085 O 478.434 1.74603 -0.488226 0
M  V30 5086 C 478.482 0.130288 -3.60365 0
M  V30 5087 O 477.586 1.19166 -3.94808 0
M  V30 5088 H 476.927 -0.0536334 -0.66183 0
M  V30 5089 H 479.457 -0.779495 -1.89169 0
M  V30 5090 H 479.467 0.342881 -4.06557 0
M  V30 5091 H 478.142 -0.809389 -4.07948 0
M  V30 5092 H 476.719 0.959153 -3.60354 0
M  V30 5093 N 478.904 1.54736 -0.299062 0
M  V30 5094 C 480.129 2.04975 0.316254 0
M  V30 5095 C 480.554 1.17501 1.46885 0
M  V30 5096 O 479.912 0.178678 1.80417 0
M  V30 5097 C 479.96 3.52672 0.751997 0
M  V30 5098 O 479.064 3.68226 1.85697 0
M  V30 5099 H 478.405 0.661126 0.0617175 0
M  V30 5100 H 480.935 1.99805 -0.440341 0
M  V30 5101 H 480.945 3.94488 1.04133 0
M  V30 5102 H 479.62 4.158 -0.0911482 0
M  V30 5103 H 478.197 3.38316 1.56834 0
M  V30 5104 N 480.382 0.0267497 1.57577 0
M  V30 5105 C 481.631 -0.651736 1.9088 0
M  V30 5106 C 481.944 -1.73427 0.904576 0
M  V30 5107 O 483.15 -2.46923 1.12877 0
M  V30 5108 C 481.606 -1.21048 3.38933 0
M  V30 5109 C 481.214 -0.161362 4.47709 0
M  V30 5110 C 482.958 -1.86562 3.81307 0
M  V30 5111 C 480.865 -0.731611 5.86857 0
M  V30 5112 H 479.795 -0.247198 0.712326 0
M  V30 5113 H 482.446 0.0916641 1.83271 0
M  V30 5114 H 480.828 -2.00542 3.41466 0
M  V30 5115 H 482.002 0.61094 4.56732 0
M  V30 5116 H 480.317 0.394877 4.14523 0
M  V30 5117 H 482.914 -2.30178 4.8262 0
M  V30 5118 H 483.257 -2.70735 3.16241 0
M  V30 5119 H 483.79 -1.13762 3.81186 0
M  V30 5120 H 480.529 0.0719329 6.55461 0
M  V30 5121 H 480.049 -1.47245 5.81445 0
M  V30 5122 H 481.728 -1.22208 6.35354 0
M  V30 5123 N 481.861 -1.55662 -0.24637 0
M  V30 5124 C 482.793 -1.86811 -1.32794 0
M  V30 5125 C 483.806 -0.754413 -1.44265 0
M  V30 5126 O 484.995 -1.03253 -1.45606 0
M  V30 5127 C 482.095 -2.0397 -2.70646 0
M  V30 5128 C 481.268 -3.34832 -2.81436 0
M  V30 5129 C 480.327 -3.41727 -4.00136 0
M  V30 5130 O 479.353 -4.14934 -3.89639 0
M  V30 5131 N 480.555 -2.71058 -5.1333 0
M  V30 5132 H 483.32 -2.80174 -1.06409 0
M  V30 5133 H 480.881 -1.55906 -0.43647 0
M  V30 5134 H 482.873 -2.05924 -3.48393 0
M  V30 5135 H 481.443 -1.1735 -2.89738 0
M  V30 5136 H 480.663 -3.4519 -1.90361 0
M  V30 5137 H 481.951 -4.21085 -2.85595 0
M  V30 5138 H 481.349 -2.11314 -5.2475 0
M  V30 5139 H 479.906 -2.78704 -5.89209 0
M  V30 5140 N 483.339 0.512053 -1.4905 0
M  V30 5141 C 484.249 1.64139 -1.67617 0
M  V30 5142 C 485.265 1.64786 -0.558701 0
M  V30 5143 O 486.441 1.8341 -0.832034 0
M  V30 5144 C 483.506 3.00548 -1.72835 0
M  V30 5145 C 482.567 3.10615 -2.96339 0
M  V30 5146 C 481.8 4.40517 -3.01298 0
M  V30 5147 O 482.023 5.28671 -2.14157 0
M  V30 5148 O 480.957 4.55325 -3.93653 0
M  V30 5149 H 484.783 1.51407 -2.63267 0
M  V30 5150 H 482.368 0.687131 -1.32661 0
M  V30 5151 H 484.25 3.81641 -1.78683 0
M  V30 5152 H 482.925 3.13566 -0.803616 0
M  V30 5153 H 481.832 2.2875 -2.96014 0
M  V30 5154 H 483.165 3.0252 -3.88256 0
M  V30 5155 N 484.817 1.37938 0.762283 0
M  V30 5156 C 486.228 1.30094 1.33912 0
M  V30 5157 C 486.579 -0.0472026 1.96143 0
M  V30 5158 O 485.704 -0.94917 1.94473 0
M  V30 5159 C 486.299 2.35592 2.43478 0
M  V30 5160 C 484.858 2.31353 2.96905 0
M  V30 5161 C 484.005 2.18919 1.70205 0
M  V30 5162 H 486.956 1.48423 0.561816 0
M  V30 5163 H 486.977 2.00806 3.23199 0
M  V30 5164 H 486.489 3.33701 1.98155 0
M  V30 5165 H 484.59 1.36799 3.46579 0
M  V30 5166 H 484.703 3.25147 3.51875 0
M  V30 5167 H 483.067 1.65624 1.93496 0
M  V30 5168 H 483.85 3.18956 1.26973 0
M  V30 5169 N 486.295 -0.989507 1.22664 0
M  V30 5170 C 487.52 -1.77031 1.08051 0
M  V30 5171 C 487.945 -1.84535 -0.364483 0
M  V30 5172 O 487.303 -1.3003 -1.2634 0
M  V30 5173 C 487.351 -3.18 1.70024 0
M  V30 5174 O 486.455 -4.01161 0.956216 0
M  V30 5175 H 485.796 -0.545008 0.379292 0
M  V30 5176 H 488.326 -1.24277 1.62531 0
M  V30 5177 H 488.336 -3.68616 1.74888 0
M  V30 5178 H 487.011 -3.11853 2.75174 0
M  V30 5179 H 485.588 -3.59687 0.98384 0
M  V30 5180 N 487.773 -1.03688 -1.18687 0
M  V30 5181 C 489.02 -0.73803 -1.88572 0
M  V30 5182 C 489.348 0.733973 -1.8012 0
M  V30 5183 O 488.603 1.55098 -1.19344 0
M  V30 5184 C 488.902 -1.14477 -3.3857 0
M  V30 5185 C 488.568 -2.61641 -3.67226 0
M  V30 5186 C 487.23 -3.01846 -3.74757 0
M  V30 5187 C 489.582 -3.56812 -3.79914 0
M  V30 5188 C 486.91 -4.36118 -3.92451 0
M  V30 5189 C 489.262 -4.90799 -3.99123 0
M  V30 5190 C 487.926 -5.3068 -4.04888 0
M  V30 5191 H 487.196 -0.270064 -0.690034 0
M  V30 5192 H 489.843 -1.3012 -1.40503 0
M  V30 5193 H 488.148 -0.500337 -3.88592 0
M  V30 5194 H 489.845 -0.89095 -3.90977 0
M  V30 5195 H 486.435 -2.29498 -3.61979 0
M  V30 5196 H 490.619 -3.26899 -3.73431 0
M  V30 5197 H 485.875 -4.66542 -3.95157 0
M  V30 5198 H 490.049 -5.64451 -4.07882 0
M  V30 5199 H 487.676 -6.34733 -4.18351 0
M  V30 5200 N 489.251 1.34841 -0.815825 0
M  V30 5201 C 490.667 1.51543 -0.500697 0
M  V30 5202 C 490.867 1.76261 0.976444 0
M  V30 5203 O 489.923 1.8094 1.76117 0
M  V30 5204 C 491.236 2.68487 -1.35407 0
M  V30 5205 C 492.784 2.82368 -1.35046 0
M  V30 5206 C 493.259 4.02347 -2.18816 0
M  V30 5207 N 494.75 4.09542 -2.16402 0
M  V30 5208 C 495.485 5.01517 -2.77971 0
M  V30 5209 N 494.981 5.98763 -3.48503 0
M  V30 5210 N 496.774 4.94334 -2.67563 0
M  V30 5211 H 488.925 1.17055 -1.77234 0
M  V30 5212 H 491.188 0.573481 -0.754866 0
M  V30 5213 H 490.894 2.56829 -2.40274 0
M  V30 5214 H 490.768 3.63321 -1.01377 0
M  V30 5215 H 493.155 2.93471 -0.309604 0
M  V30 5216 H 493.236 1.88363 -1.73069 0
M  V30 5217 H 492.88 3.92004 -3.22948 0
M  V30 5218 H 492.81 4.95551 -1.78148 0
M  V30 5219 H 495.301 3.39932 -1.65091 0
M  V30 5220 H 495.614 6.6556 -3.92747 0
M  V30 5221 H 493.959 5.98909 -3.52609 0
M  V30 5222 H 497.15 4.1732 -2.12041 0
M  V30 5223 H 497.323 5.6582 -3.15834 0
M  V30 5224 N 490.729 0.570148 1.46925 0
M  V30 5225 C 491.662 -0.218362 2.27153 0
M  V30 5226 C 492.64 -0.90847 1.34854 0
M  V30 5227 O 493.824 -0.924875 1.64251 0
M  V30 5228 C 490.951 -1.3122 3.12248 0
M  V30 5229 C 489.997 -0.729277 4.20219 0
M  V30 5230 S 490.83 0.434159 5.33737 0
M  V30 5231 C 491.986 -0.661188 6.22398 0
M  V30 5232 H 492.219 0.462393 2.93682 0
M  V30 5233 H 489.752 0.356753 1.50222 0
M  V30 5234 H 491.71 -1.93856 3.61842 0
M  V30 5235 H 490.371 -1.96485 2.45056 0
M  V30 5236 H 489.564 -1.5511 4.79538 0
M  V30 5237 H 489.166 -0.178836 3.73572 0
M  V30 5238 H 491.458 -1.55006 6.5953 0
M  V30 5239 H 492.401 -0.105046 7.08022 0
M  V30 5240 H 492.809 -0.959682 5.56283 0
M  V30 5241 N 492.207 -1.54576 0.307264 0
M  V30 5242 C 493.117 -2.27435 -0.57536 0
M  V30 5243 C 494.133 -1.31183 -1.14311 0
M  V30 5244 O 495.309 -1.64175 -1.16656 0
M  V30 5245 C 492.374 -3.00566 -1.72803 0
M  V30 5246 C 491.435 -4.12369 -1.19373 0
M  V30 5247 C 490.668 -4.82003 -2.29147 0
M  V30 5248 O 490.891 -4.51038 -3.49171 0
M  V30 5249 O 489.825 -5.69271 -1.95485 0
M  V30 5250 H 493.651 -3.03696 0.0158558 0
M  V30 5251 H 491.236 -1.49219 0.0735064 0
M  V30 5252 H 493.118 -3.46416 -2.39946 0
M  V30 5253 H 491.793 -2.27195 -2.30574 0
M  V30 5254 H 490.7 -3.70905 -0.487851 0
M  V30 5255 H 492.033 -4.87736 -0.661376 0
M  V30 5256 N 493.685 -0.035106 -1.57561 0
M  V30 5257 C 494.632 0.94474 -2.10578 0
M  V30 5258 C 495.602 1.3192 -1.00927 0
M  V30 5259 O 496.787 1.41147 -1.28382 0
M  V30 5260 C 493.927 2.21982 -2.64231 0
M  V30 5261 C 493.04 1.90128 -3.87911 0
M  V30 5262 C 492.175 3.11975 -4.29936 0
M  V30 5263 C 491.214 2.75968 -5.46359 0
M  V30 5264 N 490.351 3.90459 -5.83512 0
M  V30 5265 H 495.191 0.485717 -2.94015 0
M  V30 5266 H 492.728 0.228143 -1.4532 0
M  V30 5267 H 494.686 2.96572 -2.9343 0
M  V30 5268 H 493.316 2.6549 -1.83616 0
M  V30 5269 H 492.368 1.05755 -3.65404 0
M  V30 5270 H 493.68 1.59613 -4.72573 0
M  V30 5271 H 492.834 3.9488 -4.60603 0
M  V30 5272 H 491.573 3.45657 -3.44053 0
M  V30 5273 H 490.578 1.91478 -5.1538 0
M  V30 5274 H 491.803 2.43497 -6.33945 0
M  V30 5275 H 489.749 4.23971 -5.00584 0
M  V30 5276 H 489.666 3.63588 -6.62827 0
M  V30 5277 H 490.934 4.7405 -6.18787 0
M  V30 5278 N 495.163 1.55791 0.238111 0
M  V30 5279 C 496.126 1.90239 1.27835 0
M  V30 5280 C 497.126 0.779552 1.4064 0
M  V30 5281 O 498.316 1.04747 1.3919 0
M  V30 5282 C 495.448 2.13859 2.65475 0
M  V30 5283 H 496.641 2.83262 0.985034 0
M  V30 5284 H 494.194 1.48818 0.477799 0
M  V30 5285 H 494.929 1.23334 2.99932 0
M  V30 5286 H 494.714 2.95643 2.57561 0
M  V30 5287 H 496.204 2.41664 3.40571 0
M  V30 5288 N 496.642 -0.504142 1.49319 0
M  V30 5289 C 497.572 -1.61473 1.68667 0
M  V30 5290 C 498.553 -1.61455 0.535378 0
M  V30 5291 O 499.738 -1.78245 0.770868 0
M  V30 5292 C 496.868 -2.99971 1.75028 0
M  V30 5293 C 495.822 -3.14854 2.89916 0
M  V30 5294 C 495.148 -4.54671 2.81387 0
M  V30 5295 C 496.448 -2.95176 4.30893 0
M  V30 5296 H 498.142 -1.45535 2.61648 0
M  V30 5297 H 495.688 -0.698711 1.25913 0
M  V30 5298 H 497.641 -3.77562 1.8715 0
M  V30 5299 H 496.365 -3.1699 0.786441 0
M  V30 5300 H 495.024 -2.39687 2.77391 0
M  V30 5301 H 494.672 -4.68562 1.82917 0
M  V30 5302 H 494.372 -4.6557 3.58494 0
M  V30 5303 H 495.896 -5.34327 2.95512 0
M  V30 5304 H 497.31 -3.62538 4.44116 0
M  V30 5305 H 495.707 -3.17549 5.09198 0
M  V30 5306 H 496.777 -1.91332 4.45556 0
M  V30 5307 N 498.12 -1.38341 -0.754957 0
M  V30 5308 C 499.03 -1.3769 -1.89944 0
M  V30 5309 C 500.046 -0.274194 -1.71826 0
M  V30 5310 O 501.222 -0.512391 -1.94773 0
M  V30 5311 C 498.287 -1.19938 -3.25293 0
M  V30 5312 C 497.348 -2.40001 -3.55946 0
M  V30 5313 C 496.581 -2.23087 -4.84838 0
M  V30 5314 O 496.804 -1.22386 -5.57116 0
M  V30 5315 O 495.738 -3.11646 -5.14937 0
M  V30 5316 H 499.564 -2.3412 -1.93446 0
M  V30 5317 H 497.149 -1.19246 -0.900044 0
M  V30 5318 H 499.031 -1.12093 -4.06218 0
M  V30 5319 H 497.706 -0.265919 -3.22606 0
M  V30 5320 H 496.613 -2.53421 -2.75188 0
M  V30 5321 H 497.946 -3.31973 -3.63394 0
M  V30 5322 N 499.598 0.982988 -1.23187 0
M  V30 5323 C 500.508 2.10907 -1.02739 0
M  V30 5324 C 501.524 1.73979 0.0273188 0
M  V30 5325 O 502.7 2.00702 -0.16757 0
M  V30 5326 C 499.765 3.41142 -0.618304 0
M  V30 5327 C 498.826 3.92112 -1.74777 0
M  V30 5328 C 498.059 5.16131 -1.3581 0
M  V30 5329 O 498.282 5.6989 -0.241201 0
M  V30 5330 O 497.216 5.61103 -2.17824 0
M  V30 5331 H 501.042 2.31046 -1.97108 0
M  V30 5332 H 498.627 1.09284 -1.01869 0
M  V30 5333 H 500.509 4.19488 -0.400982 0
M  V30 5334 H 499.184 3.2234 0.296421 0
M  V30 5335 H 498.091 3.14895 -2.0197 0
M  V30 5336 H 499.424 4.15364 -2.64071 0
M  V30 5337 N 501.076 1.04316 1.18135 0
M  V30 5338 C 502.039 0.640794 2.2006 0
M  V30 5339 C 503.039 -0.303124 1.57917 0
M  V30 5340 O 504.229 -0.0881855 1.73977 0
M  V30 5341 C 501.361 -0.060148 3.40847 0
M  V30 5342 H 502.554 1.54281 2.57172 0
M  V30 5343 H 500.107 0.836004 1.32063 0
M  V30 5344 H 500.842 -0.975845 3.0927 0
M  V30 5345 H 500.627 0.618319 3.87194 0
M  V30 5346 H 502.117 -0.328082 4.16309 0
M  V30 5347 N 502.554 -1.34406 0.822964 0
M  V30 5348 C 503.502 -2.31428 0.233165 0
M  V30 5349 C 504.496 -1.57404 -0.626118 0
M  V30 5350 O 505.702 -1.72402 -0.517453 0
M  V30 5351 H 502.077 -0.749863 0.0566557 0
M  V30 5352 H 504.048 -2.78699 1.06628 0
M  V30 5353 C 502.797 -3.42653 -0.590264 0
M  V30 5354 H 502.12 -3.99753 0.0616129 0
M  V30 5355 H 503.56 -4.12778 -0.969054 0
M  V30 5356 C 502.019 -2.87112 -1.76262 0
M  V30 5357 O 502.549 -2.81995 -2.8608 0
M  V30 5358 N 500.755 -2.43934 -1.57938 0
M  V30 5359 H 500.302 -2.48296 -0.686078 0
M  V30 5360 H 500.26 -2.07123 -2.36532 0
M  V30 5361 N 504.032 -0.577932 -1.46621 0
M  V30 5362 C 504.995 0.147805 -2.28723 0
M  V30 5363 C 505.995 0.823325 -1.38123 0
M  V30 5364 O 507.185 0.676011 -1.60548 0
M  V30 5365 C 504.317 1.21853 -3.18378 0
M  V30 5366 H 505.51 -0.573654 -2.94362 0
M  V30 5367 H 503.063 -0.335703 -1.52652 0
M  V30 5368 H 503.798 1.97173 -2.57475 0
M  V30 5369 H 503.583 0.738714 -3.85078 0
M  V30 5370 H 505.073 1.72768 -3.80186 0
M  V30 5371 N 505.51 1.54411 -0.315457 0
M  V30 5372 C 506.44 2.27002 0.547039 0
M  V30 5373 C 507.421 1.27492 1.12605 0
M  V30 5374 O 508.606 1.5629 1.15269 0
M  V30 5375 C 505.736 3.02171 1.71201 0
M  V30 5376 C 504.69 4.0895 1.26268 0
M  V30 5377 C 504.016 4.71915 2.51396 0
M  V30 5378 C 505.316 5.20891 0.383419 0
M  V30 5379 H 507.01 2.99343 -0.0584517 0
M  V30 5380 H 504.556 1.4397 -0.0295527 0
M  V30 5381 H 506.509 3.51681 2.32161 0
M  V30 5382 H 505.233 2.27433 2.34397 0
M  V30 5383 H 503.892 3.60312 0.676062 0
M  V30 5384 H 503.54 3.93801 3.12937 0
M  V30 5385 H 503.24 5.44039 2.22026 0
M  V30 5386 H 504.764 5.24195 3.13133 0
M  V30 5387 H 506.178 5.66206 0.899082 0
M  V30 5388 H 504.575 5.99821 0.182857 0
M  V30 5389 H 505.645 4.81324 -0.587821 0
M  V30 5390 N 506.988 0.0434614 1.5754 0
M  V30 5391 C 507.92 -0.962586 2.08007 0
M  V30 5392 C 508.933 -1.27972 1.00634 0
M  V30 5393 O 510.122 -1.24186 1.28219 0
M  V30 5394 C 507.222 -2.28621 2.50171 0
M  V30 5395 C 506.395 -2.15214 3.80791 0
M  V30 5396 C 505.454 -3.30633 4.09351 0
M  V30 5397 O 504.48 -3.0688 4.79388 0
M  V30 5398 N 505.682 -4.54873 3.60654 0
M  V30 5399 H 508.447 -0.531891 2.94942 0
M  V30 5400 H 506.008 -0.142965 1.61268 0
M  V30 5401 H 508 -3.04689 2.66359 0
M  V30 5402 H 506.57 -2.63283 1.68525 0
M  V30 5403 H 505.79 -1.23785 3.74261 0
M  V30 5404 H 507.078 -2.03475 4.66343 0
M  V30 5405 H 506.476 -4.77063 3.04019 0
M  V30 5406 H 505.033 -5.2806 3.82094 0
M  V30 5407 N 508.466 -1.55915 -0.229846 0
M  V30 5408 C 509.376 -1.94891 -1.30593 0
M  V30 5409 C 510.392 -0.851604 -1.51736 0
M  V30 5410 O 511.568 -1.15447 -1.65027 0
M  V30 5411 C 508.633 -2.25052 -2.63728 0
M  V30 5412 C 507.694 -3.48306 -2.5096 0
M  V30 5413 C 506.927 -3.77019 -3.77747 0
M  V30 5414 O 507.15 -3.07534 -4.80395 0
M  V30 5415 O 506.084 -4.70523 -3.75356 0
M  V30 5416 H 509.91 -2.86581 -1.00525 0
M  V30 5417 H 507.495 -1.43017 -0.432025 0
M  V30 5418 H 509.377 -2.45682 -3.42372 0
M  V30 5419 H 508.052 -1.36538 -2.93495 0
M  V30 5420 H 506.959 -3.32964 -1.70546 0
M  V30 5421 H 508.292 -4.37177 -2.26136 0
M  V30 5422 N 509.944 0.496216 -1.49584 0
M  V30 5423 C 511.192 1.24756 -1.58998 0
M  V30 5424 C 511.513 1.92968 -0.280775 0
M  V30 5425 O 510.783 1.82959 0.700198 0
M  V30 5426 H 509.363 0.463471 -0.585836 0
M  V30 5427 H 512.025 0.574678 -1.86235 0
M  V30 5428 H 511.121 2.00895 -2.38847 0
M  V30 5429 N 511.423 1.38739 0.74761 0
M  V30 5430 C 512.373 1.32948 1.85226 0
M  V30 5431 C 513.357 0.212642 1.59489 0
M  V30 5432 O 514.549 0.449121 1.71207 0
M  V30 5433 C 511.678 1.16279 3.23008 0
M  V30 5434 C 510.764 2.32611 3.54617 0
M  V30 5435 N 511.155 3.58065 3.57244 0
M  V30 5436 C 509.453 2.25293 3.84914 0
M  V30 5437 C 510.154 4.34919 3.8629 0
M  V30 5438 N 509.13 3.64348 4.03425 0
M  V30 5439 H 512.932 2.27927 1.85544 0
M  V30 5440 H 510.446 1.32056 0.945253 0
M  V30 5441 H 512.443 1.10214 4.02068 0
M  V30 5442 H 511.103 0.222394 3.23937 0
M  V30 5443 H 512.114 3.91656 3.3886 0
M  V30 5444 H 508.791 1.39446 3.93524 0
M  V30 5445 H 510.181 5.43605 3.94896 0
M  V30 5446 N 512.901 -0.976442 1.23707 0
M  V30 5447 C 514.126 -1.75875 1.09922 0
M  V30 5448 C 514.551 -1.84911 -0.34489 0
M  V30 5449 O 513.909 -1.31363 -1.24954 0
M  V30 5450 C 513.957 -3.16179 1.73388 0
M  V30 5451 O 513.061 -4.00124 0.99871 0
M  V30 5452 H 512.402 -0.540954 0.385052 0
M  V30 5453 H 514.932 -1.22546 1.6384 0
M  V30 5454 H 514.942 -3.66741 1.78788 0
M  V30 5455 H 513.617 -3.08917 2.78466 0
M  V30 5456 H 512.194 -3.58624 1.02193 0
M  V30 5457 N 514.379 -1.04941 -1.1758 0
M  V30 5458 C 515.625 -0.759112 -1.88057 0
M  V30 5459 C 515.958 0.711918 -1.8068 0
M  V30 5460 O 515.233 1.52035 -1.21308 0
M  V30 5461 C 515.516 -1.237 -3.38187 0
M  V30 5462 C 515.369 -2.77078 -3.54327 0
M  V30 5463 C 516.688 -0.834014 -4.32125 0
M  V30 5464 H 513.807 -0.277237 -0.682868 0
M  V30 5465 H 516.449 -1.30296 -1.38286 0
M  V30 5466 H 514.599 -0.774337 -3.80705 0
M  V30 5467 H 516.271 -3.31449 -3.20842 0
M  V30 5468 H 514.514 -3.16477 -2.96689 0
M  V30 5469 H 515.185 -3.05577 -4.59703 0
M  V30 5470 H 517.661 -1.23228 -3.97434 0
M  V30 5471 H 516.537 -1.19603 -5.35711 0
M  V30 5472 H 516.798 0.262195 -4.41322 0
M  V30 5473 N 515.857 1.33968 -0.830081 0
M  V30 5474 C 517.268 1.80439 -0.479455 0
M  V30 5475 C 517.619 1.68756 1.00079 0
M  V30 5476 O 516.744 1.23171 1.77927 0
M  V30 5477 C 517.339 3.27611 -0.863505 0
M  V30 5478 C 515.898 3.72133 -0.565145 0
M  V30 5479 C 515.045 2.55549 -1.07657 0
M  V30 5480 H 517.996 1.21614 -1.0196 0
M  V30 5481 H 518.017 3.8012 -0.170083 0
M  V30 5482 H 517.529 3.36082 -1.94089 0
M  V30 5483 H 515.63 3.69196 0.502536 0
M  V30 5484 H 515.743 4.65963 -1.11422 0
M  V30 5485 H 514.107 2.49788 -0.497807 0
M  V30 5486 H 514.89 2.66786 -2.16055 0
M  V30 5487 N 517.335 0.585699 1.46312 0
M  V30 5488 C 518.245 -0.148236 2.34131 0
M  V30 5489 C 519.261 -0.882972 1.49932 0
M  V30 5490 O 520.437 -0.845484 1.82794 0
M  V30 5491 C 517.502 -1.14714 3.27172 0
M  V30 5492 C 516.563 -0.416746 4.27272 0
M  V30 5493 C 515.796 -1.36806 5.15868 0
M  V30 5494 O 516.019 -2.60475 5.07454 0
M  V30 5495 O 514.953 -0.877018 5.95476 0
M  V30 5496 H 518.779 0.572882 2.98248 0
M  V30 5497 H 516.364 0.346082 1.45336 0
M  V30 5498 H 518.246 -1.72303 3.84564 0
M  V30 5499 H 516.921 -1.84967 2.65648 0
M  V30 5500 H 515.828 0.201061 3.73559 0
M  V30 5501 H 517.161 0.244872 4.9159 0
M  V30 5502 N 518.813 -1.54241 0.323641 0
M  V30 5503 C 520.062 -1.9975 -0.279806 0
M  V30 5504 C 520.375 -1.2156 -1.5324 0
M  V30 5505 O 521.581 -1.57447 -2.21185 0
M  V30 5506 C 520.037 -3.55686 -0.549115 0
M  V30 5507 C 519.645 -4.4271 0.686432 0
M  V30 5508 C 521.389 -4.09663 -1.11251 0
M  V30 5509 C 519.296 -5.90119 0.389022 0
M  V30 5510 H 518.226 -0.746177 -0.10833 0
M  V30 5511 H 520.877 -1.78248 0.435877 0
M  V30 5512 H 519.259 -3.73176 -1.32499 0
M  V30 5513 H 520.433 -4.36996 1.46188 0
M  V30 5514 H 518.748 -3.99623 1.17005 0
M  V30 5515 H 521.345 -5.17386 -1.34965 0
M  V30 5516 H 521.688 -3.61651 -2.06191 0
M  V30 5517 H 522.221 -3.95806 -0.39782 0
M  V30 5518 H 518.96 -6.42326 1.30759 0
M  V30 5519 H 518.48 -5.98785 -0.348722 0
M  V30 5520 H 520.159 -6.47 -0.0011164 0
M  V30 5521 N 520.291 -0.0518155 -1.57515 0
M  V30 5522 C 521.239 0.940195 -2.12751 0
M  V30 5523 C 522.233 1.3218 -1.05948 0
M  V30 5524 O 523.439 1.30138 -1.24355 0
M  V30 5525 H 519.814 0.321066 -0.680015 0
M  V30 5526 H 521.785 0.449217 -2.94999 0
M  V30 5527 C 520.534 2.2055 -2.68799 0
M  V30 5528 H 519.857 1.92066 -3.50643 0
M  V30 5529 H 521.297 2.88119 -3.11068 0
M  V30 5530 C 519.756 2.95061 -1.62605 0
M  V30 5531 O 520.286 3.88025 -1.03921 0
M  V30 5532 N 518.492 2.57804 -1.34111 0
M  V30 5533 H 518.039 1.82281 -1.8202 0
M  V30 5534 H 517.997 3.07964 -0.632872 0
M  V30 5535 N 521.769 1.56035 0.221574 0
M  V30 5536 C 522.994 1.83476 0.967026 0
M  V30 5537 C 523.419 0.632139 1.7716 0
M  V30 5538 O 522.777 -0.419082 1.7639 0
M  V30 5539 C 522.825 3.08907 1.86034 0
M  V30 5540 O 521.929 2.876 2.95567 0
M  V30 5541 H 521.27 0.604913 0.273817 0
M  V30 5542 H 523.8 2.03247 0.234893 0
M  V30 5543 H 523.81 3.3901 2.27016 0
M  V30 5544 H 522.485 3.96068 1.26898 0
M  V30 5545 H 521.062 2.6873 2.58532 0
M  V30 5546 N 523.247 -0.488276 1.49845 0
M  V30 5547 C 524.524 -1.24959 1.50481 0
M  V30 5548 C 524.904 -2.09735 0.239698 0
M  V30 5549 O 524.252 -2.14865 -0.777524 0
M  V30 5550 C 524.462 -2.0954 2.79095 0
M  V30 5551 C 525.81 -2.68305 3.29086 0
M  V30 5552 O 526.834 -2.19797 2.80299 0
M  V30 5553 O 525.693 -3.56643 4.14087 0
M  V30 5554 H 522.787 -0.566133 0.602845 0
M  V30 5555 H 525.333 -0.501504 1.6212 0
M  V30 5556 H 524.105 -1.46958 3.62656 0
M  V30 5557 H 523.728 -2.91517 2.70377 0
M  V30 5558 N 524.725 -1.39134 -0.740242 0
M  V30 5559 C 525.953 -1.39334 -1.5295 0
M  V30 5560 C 526.368 0.0135008 -1.88795 0
M  V30 5561 O 525.725 0.983524 -1.5373 0
M  V30 5562 C 525.776 -2.2614 -2.82034 0
M  V30 5563 O 525.497 -3.61345 -2.47712 0
M  V30 5564 C 526.998 -2.34666 -3.76094 0
M  V30 5565 H 524.218 -0.476103 -0.472828 0
M  V30 5566 H 526.762 -1.82883 -0.9151 0
M  V30 5567 H 524.917 -1.86018 -3.39818 0
M  V30 5568 H 525.331 -4.07194 -3.30595 0
M  V30 5569 H 526.805 -2.99663 -4.63579 0
M  V30 5570 H 527.282 -1.36426 -4.17474 0
M  V30 5571 H 527.888 -2.75236 -3.2423 0
M  V30 5572 N 526.204 0.969867 -1.24223 0
M  V30 5573 C 527.481 1.68774 -0.988664 0
M  V30 5574 C 527.861 2.05342 0.489673 0
M  V30 5575 O 527.209 1.75486 1.46345 0
M  V30 5576 C 527.419 2.92135 -1.90941 0
M  V30 5577 C 528.767 3.64422 -2.17903 0
M  V30 5578 O 529.791 3.02188 -1.88576 0
M  V30 5579 O 528.65 4.76446 -2.67697 0
M  V30 5580 H 525.744 0.737736 -0.37373 0
M  V30 5581 H 528.29 1.02415 -1.35312 0
M  V30 5582 H 527.062 2.61788 -2.90831 0
M  V30 5583 H 526.685 3.66228 -1.54798 0
M  V30 5584 N 527.682 1.05563 1.17022 0
M  V30 5585 C 528.629 0.659893 2.21165 0
M  V30 5586 C 529.599 -0.339813 1.62587 0
M  V30 5587 O 530.784 -0.230378 1.89404 0
M  V30 5588 C 527.924 0.0447297 3.45071 0
M  V30 5589 C 527.037 1.09372 4.17926 0
M  V30 5590 C 526.172 0.445481 5.29329 0
M  V30 5591 C 525.211 1.47852 5.93975 0
M  V30 5592 N 524.348 0.854172 6.96885 0
M  V30 5593 H 529.188 1.55243 2.54369 0
M  V30 5594 H 526.725 0.776336 1.24946 0
M  V30 5595 H 528.683 -0.329404 4.15898 0
M  V30 5596 H 527.313 -0.811244 3.1244 0
M  V30 5597 H 526.365 1.58564 3.45777 0
M  V30 5598 H 527.677 1.87773 4.62107 0
M  V30 5599 H 526.831 0.0179688 6.06697 0
M  V30 5600 H 525.57 -0.370481 4.86291 0
M  V30 5601 H 524.575 1.91601 5.15334 0
M  V30 5602 H 525.8 2.29645 6.39093 0
M  V30 5603 H 523.746 0.0587882 6.55974 0
M  V30 5604 H 523.663 1.57567 7.39397 0
M  V30 5605 H 524.931 0.451559 7.78191 0
M  V30 5606 N 529.16 -1.33526 0.837174 0
M  V30 5607 C 530.385 -2.0258 0.444545 0
M  V30 5608 C 530.81 -1.6258 -0.946006 0
M  V30 5609 O 530.168 -0.817548 -1.6182 0
M  V30 5610 C 530.216 -3.5605 0.571006 0
M  V30 5611 O 529.32 -4.10422 -0.403431 0
M  V30 5612 H 528.661 -0.638866 0.180958 0
M  V30 5613 H 531.191 -1.70462 1.13154 0
M  V30 5614 H 531.201 -4.05488 0.452024 0
M  V30 5615 H 529.876 -3.84509 1.58512 0
M  V30 5616 H 528.453 -3.72113 -0.242147 0
M  V30 5617 N 530.638 -0.59345 -1.46 0
M  V30 5618 C 531.548 0.135817 -2.34207 0
M  V30 5619 C 532.564 0.875008 -1.50398 0
M  V30 5620 O 533.74 0.835778 -1.83239 0
M  V30 5621 C 530.805 1.12977 -3.27776 0
M  V30 5622 C 529.866 0.394081 -4.27487 0
M  V30 5623 C 529.099 1.34068 -5.16586 0
M  V30 5624 O 529.322 2.5778 -5.08828 0
M  V30 5625 O 528.256 0.845426 -5.95933 0
M  V30 5626 H 532.082 -0.588691 -2.9794 0
M  V30 5627 H 529.667 -0.353784 -1.45151 0
M  V30 5628 H 531.549 1.70261 -3.85473 0
M  V30 5629 H 530.224 1.83556 -2.66625 0
M  V30 5630 H 529.131 -0.220869 -3.73447 0
M  V30 5631 H 530.464 -0.270939 -4.91454 0
M  V30 5632 N 532.116 1.54067 -0.331816 0
M  V30 5633 C 533.344 2.05131 0.269996 0
M  V30 5634 C 533.759 1.20749 1.45138 0
M  V30 5635 O 533.116 0.240069 1.80914 0
M  V30 5636 C 533.167 3.54728 0.696456 0
M  V30 5637 O 532.888 4.35906 -0.43794 0
M  V30 5638 C 534.389 4.21916 1.36021 0
M  V30 5639 H 531.609 0.668807 0.0542042 0
M  V30 5640 H 534.153 1.98777 -0.4804 0
M  V30 5641 H 532.308 3.61342 1.39681 0
M  V30 5642 H 532.722 5.24404 -0.100334 0
M  V30 5643 H 534.196 5.28015 1.60947 0
M  V30 5644 H 534.673 3.73538 2.31011 0
M  V30 5645 H 535.279 4.19463 0.702212 0
M  V30 5646 N 533.594 0.0601682 1.57485 0
M  V30 5647 C 534.541 -0.91112 2.12055 0
M  V30 5648 C 535.511 -1.30298 1.03013 0
M  V30 5649 O 536.696 -1.39087 1.30612 0
M  V30 5650 C 533.836 -2.1775 2.67729 0
M  V30 5651 C 532.949 -1.83933 3.90887 0
M  V30 5652 C 532.084 -3.05096 4.34845 0
M  V30 5653 C 531.123 -2.67241 5.5068 0
M  V30 5654 N 530.26 -3.81127 5.8965 0
M  V30 5655 H 535.1 -0.43888 2.9475 0
M  V30 5656 H 532.637 -0.204995 1.45665 0
M  V30 5657 H 534.595 -2.91866 2.98111 0
M  V30 5658 H 533.225 -2.62535 1.87816 0
M  V30 5659 H 532.277 -0.999287 3.6704 0
M  V30 5660 H 533.589 -1.52074 4.75052 0
M  V30 5661 H 532.743 -3.87502 4.66827 0
M  V30 5662 H 531.482 -3.40139 3.49509 0
M  V30 5663 H 530.487 -1.83254 5.18361 0
M  V30 5664 H 531.712 -2.3338 6.37738 0
M  V30 5665 H 529.658 -4.15954 5.07266 0
M  V30 5666 H 529.575 -3.52997 6.68528 0
M  V30 5667 H 530.843 -4.64145 6.2625 0
M  V30 5668 N 535.072 -1.5615 -0.213296 0
M  V30 5669 C 535.982 -1.96265 -1.28519 0
M  V30 5670 C 536.998 -0.86765 -1.50824 0
M  V30 5671 O 538.174 -1.17191 -1.63793 0
M  V30 5672 C 535.239 -2.27836 -2.61327 0
M  V30 5673 C 534.3 -3.50949 -2.47252 0
M  V30 5674 C 533.533 -3.81004 -3.73727 0
M  V30 5675 O 533.756 -3.12612 -4.77106 0
M  V30 5676 O 532.69 -4.74477 -3.70344 0
M  V30 5677 H 536.516 -2.87631 -0.974795 0
M  V30 5678 H 534.101 -1.43467 -0.416832 0
M  V30 5679 H 535.983 -2.49299 -3.39747 0
M  V30 5680 H 534.658 -1.39643 -2.9203 0
M  V30 5681 H 533.565 -3.34754 -1.67004 0
M  V30 5682 H 534.898 -4.39551 -2.21486 0
M  V30 5683 N 536.55 0.480323 -1.50102 0
M  V30 5684 C 537.775 1.26126 -1.64642 0
M  V30 5685 C 538.2 1.85257 -0.325823 0
M  V30 5686 O 537.558 1.66854 0.709194 0
M  V30 5687 C 537.606 2.35243 -2.73301 0
M  V30 5688 O 536.71 3.39646 -2.33911 0
M  V30 5689 H 536.051 0.371463 -0.550374 0
M  V30 5690 H 538.581 0.572696 -1.96421 0
M  V30 5691 H 538.591 2.80695 -2.96098 0
M  V30 5692 H 537.266 1.91574 -3.6915 0
M  V30 5693 H 535.843 2.99969 -2.21525 0
M  V30 5694 N 538.028 1.39524 0.732853 0
M  V30 5695 C 539.277 1.36175 1.48792 0
M  V30 5696 C 539.59 -0.0388195 1.95561 0
M  V30 5697 O 540.796 -0.194899 2.708 0
M  V30 5698 C 539.252 2.39242 2.68871 0
M  V30 5699 C 538.86 3.85024 2.29042 0
M  V30 5700 C 540.604 2.44972 3.46683 0
M  V30 5701 C 538.511 4.79727 3.45856 0
M  V30 5702 H 537.441 0.506267 0.558757 0
M  V30 5703 H 540.092 1.65181 0.799226 0
M  V30 5704 H 538.474 2.0331 3.39825 0
M  V30 5705 H 539.648 4.30008 1.6562 0
M  V30 5706 H 537.963 3.82609 1.64316 0
M  V30 5707 H 540.56 3.12918 4.33574 0
M  V30 5708 H 540.903 1.4749 3.89297 0
M  V30 5709 H 541.436 2.79808 2.82759 0
M  V30 5710 H 538.175 5.78479 3.08289 0
M  V30 5711 H 537.695 4.39421 4.08251 0
M  V30 5712 H 539.374 4.98731 4.12161 0
M  V30 5713 N 539.506 -0.963266 1.24736 0
M  V30 5714 C 540.752 -1.70933 1.09131 0
M  V30 5715 C 541.085 -1.90676 -0.368273 0
M  V30 5716 O 540.36 -1.47147 -1.27193 0
M  V30 5717 C 540.643 -3.09744 1.83658 0
M  V30 5718 C 540.496 -2.97465 3.37394 0
M  V30 5719 C 541.815 -4.09483 1.61282 0
M  V30 5720 H 538.934 -0.620398 0.397838 0
M  V30 5721 H 541.576 -1.12028 1.53459 0
M  V30 5722 H 539.726 -3.60031 1.4598 0
M  V30 5723 H 541.398 -2.54571 3.84696 0
M  V30 5724 H 539.641 -2.33576 3.65547 0
M  V30 5725 H 540.312 -3.95822 3.84745 0
M  V30 5726 H 542.788 -3.68073 1.94066 0
M  V30 5727 H 541.664 -5.04666 2.15878 0
M  V30 5728 H 541.925 -4.38639 0.552102 0
M  V30 5729 N 540.985 -1.06182 -1.16461 0
M  V30 5730 C 542.213 -0.798583 -1.90867 0
M  V30 5731 C 542.628 0.646921 -1.77371 0
M  V30 5732 O 541.985 1.44279 -1.11758 0
M  V30 5733 C 542.036 -1.18258 -3.4161 0
M  V30 5734 O 541.757 -2.57135 -3.54701 0
M  V30 5735 C 543.258 -0.946917 -4.33069 0
M  V30 5736 H 540.478 -0.289603 -0.605286 0
M  V30 5737 H 543.022 -1.41515 -1.47627 0
M  V30 5738 H 541.177 -0.610562 -3.82558 0
M  V30 5739 H 541.591 -2.72477 -4.4817 0
M  V30 5740 H 543.065 -1.26523 -5.37304 0
M  V30 5741 H 543.542 0.117406 -4.39043 0
M  V30 5742 H 544.148 -1.50326 -3.97847 0
M  V30 5743 N 542.463 1.3308 -0.844243 0
M  V30 5744 C 543.373 2.32876 -0.283922 0
M  V30 5745 C 544.389 1.63589 0.592846 0
M  V30 5746 O 545.565 1.95205 0.495693 0
M  V30 5747 C 542.63 3.42667 0.527283 0
M  V30 5748 C 541.691 4.27664 -0.374394 0
M  V30 5749 C 540.924 5.32212 0.39819 0
M  V30 5750 O 541.147 5.46635 1.62932 0
M  V30 5751 O 540.081 6.01458 -0.2306 0
M  V30 5752 H 543.907 2.82671 -1.11045 0
M  V30 5753 H 541.492 1.36518 -0.606903 0
M  V30 5754 H 543.374 4.09652 0.988078 0
M  V30 5755 H 542.049 2.95079 1.33078 0
M  V30 5756 H 540.956 3.63526 -0.883144 0
M  V30 5757 H 542.289 4.78749 -1.1428 0
M  V30 5758 N 543.941 0.601185 1.45683 0
M  V30 5759 C 544.851 -0.123395 2.34275 0
M  V30 5760 C 545.867 -0.86702 1.5086 0
M  V30 5761 O 547.043 -0.826049 1.8368 0
M  V30 5762 C 544.108 -1.11237 3.2837 0
M  V30 5763 C 543.169 -0.371405 4.2769 0
M  V30 5764 C 542.402 -1.31327 5.1729 0
M  V30 5765 O 542.625 -2.55078 5.10188 0
M  V30 5766 O 541.559 -0.813811 5.96373 0
M  V30 5767 H 545.385 0.604483 2.97623 0
M  V30 5768 H 542.97 0.361477 1.44961 0
M  V30 5769 H 544.852 -1.68214 3.8637 0
M  V30 5770 H 543.527 -1.82139 2.67595 0
M  V30 5771 H 542.434 0.24067 3.73325 0
M  V30 5772 H 543.767 0.296998 4.91303 0
M  V30 5773 N 545.419 -1.53889 0.339982 0
M  V30 5774 C 546.349 -2.27843 -0.510856 0
M  V30 5775 C 547.33 -1.29267 -1.10563 0
M  V30 5776 O 548.515 -1.58104 -1.12768 0
M  V30 5777 C 545.645 -3.04857 -1.66372 0
M  V30 5778 C 544.599 -4.10907 -1.19746 0
M  V30 5779 C 543.925 -4.75855 -2.43857 0
M  V30 5780 C 545.225 -5.21435 -0.300501 0
M  V30 5781 H 546.919 -2.99212 0.106067 0
M  V30 5782 H 544.465 -1.43904 0.0524533 0
M  V30 5783 H 546.418 -3.5533 -2.26537 0
M  V30 5784 H 545.142 -2.31133 -2.30749 0
M  V30 5785 H 543.801 -3.61342 -0.618654 0
M  V30 5786 H 543.449 -3.9873 -3.06633 0
M  V30 5787 H 543.149 -5.47502 -2.13343 0
M  V30 5788 H 544.673 -5.2911 -3.04754 0
M  V30 5789 H 546.087 -5.67565 -0.80889 0
M  V30 5790 H 544.484 -6.00036 -0.0874076 0
M  V30 5791 H 545.554 -4.80328 0.664321 0
M  V30 5792 N 546.897 -0.0685191 -1.57451 0
M  V30 5793 C 548.146 0.600898 -1.92541 0
M  V30 5794 C 548.459 1.70967 -0.950239 0
M  V30 5795 O 549.665 2.43844 -1.19384 0
M  V30 5796 C 548.121 1.12019 -3.42023 0
M  V30 5797 C 547.729 0.0426028 -4.4798 0
M  V30 5798 C 549.473 1.76386 -3.86119 0
M  V30 5799 C 547.38 0.575759 -5.88591 0
M  V30 5800 H 546.31 0.228225 -0.71863 0
M  V30 5801 H 548.961 -0.140223 -1.82963 0
M  V30 5802 H 547.343 1.91418 -3.46663 0
M  V30 5803 H 548.517 -0.73182 -4.54952 0
M  V30 5804 H 546.832 -0.504642 -4.13331 0
M  V30 5805 H 549.429 2.17302 -4.88553 0
M  V30 5806 H 549.772 2.62255 -3.23308 0
M  V30 5807 H 550.305 1.03615 -3.84069 0
M  V30 5808 H 547.044 -0.245691 -6.55039 0
M  V30 5809 H 546.564 1.31778 -5.85145 0
M  V30 5810 H 548.243 1.0532 -6.3837 0
M  V30 5811 N 548.375 1.56261 0.205012 0
M  V30 5812 C 549.621 1.80306 0.9283 0
M  V30 5813 C 549.954 0.640932 1.83319 0
M  V30 5814 O 549.229 -0.359032 1.91158 0
M  V30 5815 C 549.512 3.14547 1.75306 0
M  V30 5816 C 549.365 4.41236 0.873562 0
M  V30 5817 C 550.684 3.45382 2.72762 0
M  V30 5818 H 547.803 0.655929 0.336044 0
M  V30 5819 H 550.445 1.88984 0.196211 0
M  V30 5820 H 548.595 3.0728 2.37721 0
M  V30 5821 H 550.267 4.60539 0.264887 0
M  V30 5822 H 548.51 4.33427 0.179773 0
M  V30 5823 H 549.181 5.31639 1.48541 0
M  V30 5824 H 551.657 3.52884 2.20481 0
M  V30 5825 H 550.533 4.40449 3.2756 0
M  V30 5826 H 550.794 2.68377 3.51321 0
M  V30 5827 N 549.853 -0.472356 1.50355 0
M  V30 5828 C 551.099 -1.22634 1.6152 0
M  V30 5829 C 551.432 -1.91645 0.313995 0
M  V30 5830 O 550.707 -1.82059 -0.684446 0
M  V30 5831 C 550.99 -2.27099 2.7946 0
M  V30 5832 C 550.843 -1.62402 4.19459 0
M  V30 5833 C 552.162 -3.28421 2.92964 0
M  V30 5834 H 549.281 -0.444494 0.587873 0
M  V30 5835 H 551.923 -0.520321 1.82737 0
M  V30 5836 H 550.073 -2.87314 2.61501 0
M  V30 5837 H 551.745 -1.05793 4.49005 0
M  V30 5838 H 549.988 -0.927184 4.23776 0
M  V30 5839 H 550.659 -2.38309 4.97909 0
M  V30 5840 H 553.135 -2.78227 3.09401 0
M  V30 5841 H 552.011 -3.98845 3.77113 0
M  V30 5842 H 552.272 -3.92467 2.03525 0
M  V30 5843 N 551.331 -1.39911 -0.725443 0
M  V30 5844 C 552.559 -1.40949 -1.51463 0
M  V30 5845 C 552.974 -0.0065242 -1.88799 0
M  V30 5846 O 552.331 0.967163 -1.54765 0
M  V30 5847 C 552.382 -2.29119 -2.79619 0
M  V30 5848 O 552.103 -3.63952 -2.43866 0
M  V30 5849 C 553.604 -2.38642 -3.73584 0
M  V30 5850 H 550.824 -0.481091 -0.467752 0
M  V30 5851 H 553.368 -1.83843 -0.895651 0
M  V30 5852 H 551.523 -1.89612 -3.37826 0
M  V30 5853 H 551.937 -4.10677 -3.26258 0
M  V30 5854 H 553.411 -3.04563 -4.60375 0
M  V30 5855 H 553.888 -1.40846 -4.16004 0
M  V30 5856 H 554.494 -2.78659 -3.21293 0
M  V30 5857 N 552.809 0.956637 -1.25245 0
M  V30 5858 C 554.034 1.74104 -1.12706 0
M  V30 5859 C 554.459 1.85436 0.315429 0
M  V30 5860 O 553.817 1.33334 1.22848 0
M  V30 5861 C 553.865 3.1338 -1.78396 0
M  V30 5862 O 552.969 3.98485 -1.06224 0
M  V30 5863 H 552.31 0.53476 -0.393609 0
M  V30 5864 H 554.84 1.19924 -1.65769 0
M  V30 5865 H 554.85 3.6385 -1.846 0
M  V30 5866 H 553.525 3.04448 -2.83345 0
M  V30 5867 H 552.102 3.56952 -1.07886 0
M  V30 5868 N 554.287 1.06798 1.15896 0
M  V30 5869 C 555.517 0.807522 1.90165 0
M  V30 5870 C 555.925 -0.642417 1.7796 0
M  V30 5871 O 555.268 -1.45193 1.12537 0
M  V30 5872 C 555.33 1.12939 3.41299 0
M  V30 5873 C 554.994 2.57879 3.7729 0
M  V30 5874 C 555.991 3.56118 3.78782 0
M  V30 5875 C 553.676 2.93311 4.07767 0
M  V30 5876 C 555.67 4.87827 4.10248 0
M  V30 5877 C 553.357 4.25219 4.38899 0
M  V30 5878 C 554.355 5.22287 4.4012 0
M  V30 5879 O 554.043 6.51826 4.70508 0
M  V30 5880 H 553.775 0.291946 0.609708 0
M  V30 5881 H 556.329 1.42627 1.47806 0
M  V30 5882 H 554.559 0.45359 3.84031 0
M  V30 5883 H 556.248 0.852363 3.9685 0
M  V30 5884 H 557.014 3.30086 3.55342 0
M  V30 5885 H 552.893 2.18409 4.05979 0
M  V30 5886 H 556.437 5.63586 4.11116 0
M  V30 5887 H 552.334 4.51006 4.61805 0
M  V30 5888 H 553.102 6.56893 4.88298 0
M  V30 5889 N 555.766 -1.3263 0.851289 0
M  V30 5890 C 556.994 -2.01563 0.466899 0
M  V30 5891 C 557.409 -1.63996 -0.935447 0
M  V30 5892 O 556.766 -0.85957 -1.6099 0
M  V30 5893 C 556.817 -3.56613 0.592433 0
M  V30 5894 O 556.538 -3.92828 1.93954 0
M  V30 5895 C 558.039 -4.42818 0.206612 0
M  V30 5896 H 555.259 -0.645307 0.183902 0
M  V30 5897 H 557.803 -1.69285 1.1473 0
M  V30 5898 H 555.958 -3.87379 -0.0401936 0
M  V30 5899 H 556.372 -4.87545 1.9339 0
M  V30 5900 H 557.846 -5.50918 0.345462 0
M  V30 5901 H 558.323 -4.30844 -0.85264 0
M  V30 5902 H 558.929 -4.17434 0.814176 0
M  V30 5903 N 557.244 -0.608902 -1.45362 0
M  V30 5904 C 558.174 0.0964526 -2.33301 0
M  V30 5905 C 559.155 0.857444 -1.46908 0
M  V30 5906 O 560.34 0.827735 -1.75676 0
M  V30 5907 C 557.47 1.09354 -3.29635 0
M  V30 5908 C 556.424 0.445676 -4.25673 0
M  V30 5909 C 555.75 1.5511 -5.11708 0
M  V30 5910 C 557.05 -0.633972 -5.18438 0
M  V30 5911 H 558.744 -0.637829 -2.92527 0
M  V30 5912 H 556.29 -0.308178 -1.40664 0
M  V30 5913 H 558.243 1.59556 -3.90025 0
M  V30 5914 H 556.967 1.85843 -2.6857 0
M  V30 5915 H 555.626 -0.0354897 -3.66583 0
M  V30 5916 H 555.274 2.30631 -4.4701 0
M  V30 5917 H 554.974 1.12311 -5.76767 0
M  V30 5918 H 556.498 2.05537 -5.74967 0
M  V30 5919 H 557.912 -0.215974 -5.72893 0
M  V30 5920 H 556.309 -0.983789 -5.91981 0
M  V30 5921 H 557.379 -1.51005 -4.60788 0
M  V30 5922 N 558.722 1.53707 -0.348139 0
M  V30 5923 C 559.97 2.00591 0.246478 0
M  V30 5924 C 560.291 1.23753 1.50699 0
M  V30 5925 O 559.561 0.345964 1.92821 0
M  V30 5926 H 558.141 0.741053 0.0940679 0
M  V30 5927 H 560.803 1.89139 -0.470354 0
M  V30 5928 H 559.899 3.08297 0.485714 0
M  V30 5929 N 560.2 0.0768682 1.57412 0
M  V30 5930 C 561.132 -0.918248 2.10002 0
M  V30 5931 C 562.145 -1.25808 1.03325 0
M  V30 5932 O 563.334 -1.21438 1.30824 0
M  V30 5933 C 560.434 -2.23263 2.54964 0
M  V30 5934 C 559.607 -2.07088 3.8527 0
M  V30 5935 C 558.666 -3.21876 4.16272 0
M  V30 5936 O 557.692 -2.96643 4.8579 0
M  V30 5937 N 558.894 -4.4712 3.70221 0
M  V30 5938 H 561.659 -0.469209 2.96004 0
M  V30 5939 H 559.22 -0.108725 1.61535 0
M  V30 5940 H 561.212 -2.9897 2.72762 0
M  V30 5941 H 559.782 -2.59649 1.74072 0
M  V30 5942 H 559.002 -1.15818 3.76802 0
M  V30 5943 H 560.29 -1.93537 4.70554 0
M  V30 5944 H 559.688 -4.70506 3.1407 0
M  V30 5945 H 558.245 -5.19837 3.93209 0
M  V30 5946 N 561.678 -1.56367 -0.196722 0
M  V30 5947 C 562.918 -1.82315 -0.92415 0
M  V30 5948 C 563.282 -0.654117 -1.80514 0
M  V30 5949 O 564.483 -0.79345 -2.56823 0
M  V30 5950 C 562.754 -3.13279 -1.72021 0
M  V30 5951 S 564.313 -3.60627 -2.49988 0
M  V30 5952 H 561.131 -0.639862 -0.309997 0
M  V30 5953 H 563.733 -1.94597 -0.187684 0
M  V30 5954 H 562.437 -3.96379 -1.06358 0
M  V30 5955 H 561.968 -3.03871 -2.49852 0
M  V30 5956 H 563.983 -3.25934 -3.74141 0
M  V30 5957 N 563.156 0.464375 -1.50603 0
M  V30 5958 C 564.572 0.798684 -1.38178 0
M  V30 5959 C 564.772 1.96568 -0.44308 0
M  V30 5960 O 563.828 2.52252 0.111814 0
M  V30 5961 C 565.141 1.10444 -2.79683 0
M  V30 5962 C 566.689 1.2105 -2.88645 0
M  V30 5963 C 567.164 1.54934 -4.30998 0
M  V30 5964 N 568.655 1.61913 -4.3398 0
M  V30 5965 C 569.39 1.8965 -5.41129 0
M  V30 5966 N 568.886 2.15361 -6.58477 0
M  V30 5967 N 570.679 1.91207 -5.28579 0
M  V30 5968 H 562.83 -0.304603 -2.10204 0
M  V30 5969 H 565.093 -0.0737804 -0.945125 0
M  V30 5970 H 564.799 0.319934 -3.50242 0
M  V30 5971 H 564.673 2.03896 -3.17342 0
M  V30 5972 H 567.06 1.98567 -2.18301 0
M  V30 5973 H 567.141 0.255613 -2.5452 0
M  V30 5974 H 566.785 0.779549 -5.01882 0
M  V30 5975 H 566.715 2.51584 -4.62615 0
M  V30 5976 H 569.206 1.44055 -3.49366 0
M  V30 5977 H 569.519 2.35818 -7.35941 0
M  V30 5978 H 567.864 2.1274 -6.6164 0
M  V30 5979 H 571.055 1.70622 -4.35897 0
M  V30 5980 H 571.228 2.12488 -6.12171 0
M  V30 5981 N 564.634 1.40294 0.718013 0
M  V30 5982 C 565.566 1.36281 1.84283 0
M  V30 5983 C 566.579 0.268621 1.60569 0
M  V30 5984 O 567.768 0.528798 1.70487 0
M  V30 5985 C 564.868 1.09741 3.2064 0
M  V30 5986 C 564.041 2.30767 3.71571 0
M  V30 5987 C 563.1 2.00424 4.86535 0
M  V30 5988 O 562.126 2.73268 4.99313 0
M  V30 5989 N 563.328 0.980724 5.72156 0
M  V30 5990 H 566.093 2.3322 1.88225 0
M  V30 5991 H 563.654 1.34616 0.899453 0
M  V30 5992 H 565.646 0.874322 3.95143 0
M  V30 5993 H 564.216 0.214771 3.11861 0
M  V30 5994 H 563.436 2.68921 2.88228 0
M  V30 5995 H 564.724 3.11455 4.02335 0
M  V30 5996 H 564.122 0.377375 5.6444 0
M  V30 5997 H 562.679 0.817538 6.46653 0
M  V30 5998 N 566.112 -0.949982 1.2575 0
M  V30 5999 C 567.337 -1.73503 1.13628 0
M  V30 6000 C 567.762 -1.85601 -0.30559 0
M  V30 6001 O 567.12 -1.33984 -1.22139 0
M  V30 6002 C 567.168 -3.1243 1.80055 0
M  V30 6003 O 566.272 -3.97916 1.08336 0
M  V30 6004 H 565.613 -0.532665 0.396439 0
M  V30 6005 H 568.143 -1.19043 1.66403 0
M  V30 6006 H 568.153 -3.62866 1.86527 0
M  V30 6007 H 566.828 -3.02941 2.84956 0
M  V30 6008 H 565.405 -3.56375 1.09777 0
M  V30 6009 N 567.59 -1.07411 -1.15328 0
M  V30 6010 C 568.5 -0.706438 -2.23711 0
M  V30 6011 C 569.516 0.282586 -1.7169 0
M  V30 6012 O 570.692 0.129066 -2.00986 0
M  V30 6013 C 567.757 -0.11048 -3.46524 0
M  V30 6014 C 566.818 -1.15282 -4.13532 0
M  V30 6015 C 566.051 -0.585205 -5.30482 0
M  V30 6016 O 566.274 0.598549 -5.67251 0
M  V30 6017 O 565.208 -1.33039 -5.87013 0
M  V30 6018 H 569.034 -1.61031 -2.57493 0
M  V30 6019 H 566.619 -0.847113 -1.23062 0
M  V30 6020 H 568.501 0.21957 -4.20828 0
M  V30 6021 H 567.176 0.766703 -3.14489 0
M  V30 6022 H 566.083 -1.53523 -3.41147 0
M  V30 6023 H 567.416 -2.00192 -4.49649 0
M  V30 6024 N 569.068 1.32177 -0.85831 0
M  V30 6025 C 570.015 2.28794 -0.303607 0
M  V30 6026 C 570.985 1.55213 0.591453 0
M  V30 6027 O 572.17 1.83418 0.525585 0
M  V30 6028 C 569.31 3.41475 0.49889 0
M  V30 6029 C 568.423 4.2993 -0.422373 0
M  V30 6030 C 567.558 5.29743 0.393111 0
M  V30 6031 C 566.597 6.09842 -0.525317 0
M  V30 6032 N 565.734 7.01643 0.253208 0
M  V30 6033 H 570.574 2.75631 -1.13276 0
M  V30 6034 H 568.111 1.35606 -0.570026 0
M  V30 6035 H 570.069 4.05531 0.979826 0
M  V30 6036 H 568.699 2.95779 1.29284 0
M  V30 6037 H 567.751 3.66422 -1.02171 0
M  V30 6038 H 569.063 4.85899 -1.12709 0
M  V30 6039 H 568.217 5.9942 0.937056 0
M  V30 6040 H 566.956 4.744 1.13117 0
M  V30 6041 H 565.961 5.39066 -1.08112 0
M  V30 6042 H 567.186 6.6727 -1.26205 0
M  V30 6043 H 565.132 6.48725 0.974295 0
M  V30 6044 H 565.049 7.54981 -0.392398 0
M  V30 6045 H 566.317 7.756 0.778761 0
M  V30 6046 N 570.547 0.616602 1.45037 0
M  V30 6047 C 571.457 -0.0985401 2.34393 0
M  V30 6048 C 572.473 -0.850971 1.51771 0
M  V30 6049 O 573.649 -0.806521 1.84546 0
M  V30 6050 C 570.714 -1.07748 3.29532 0
M  V30 6051 C 569.775 -0.326022 4.2806 0
M  V30 6052 C 569.008 -1.25833 5.18654 0
M  V30 6053 O 569.231 -2.49652 5.12864 0
M  V30 6054 O 568.165 -0.750512 5.97203 0
M  V30 6055 H 571.991 0.636016 2.96966 0
M  V30 6056 H 569.576 0.376832 1.44569 0
M  V30 6057 H 571.458 -1.64107 3.88133 0
M  V30 6058 H 570.133 -1.79291 2.69512 0
M  V30 6059 H 569.04 0.280253 3.73049 0
M  V30 6060 H 570.373 0.349091 4.9096 0
M  V30 6061 N 572.025 -1.5352 0.356285 0
M  V30 6062 C 572.972 -2.25439 -0.494569 0
M  V30 6063 C 573.942 -1.25752 -1.08516 0
M  V30 6064 O 575.127 -1.54513 -1.1194 0
M  V30 6065 C 572.267 -3.04011 -1.63313 0
M  V30 6066 C 571.38 -4.18574 -1.06862 0
M  V30 6067 C 570.515 -4.84607 -2.17552 0
M  V30 6068 C 569.554 -5.91218 -1.58518 0
M  V30 6069 N 568.691 -6.50979 -2.63003 0
M  V30 6070 H 573.531 -2.97737 0.125244 0
M  V30 6071 H 571.068 -1.46916 0.0735789 0
M  V30 6072 H 573.026 -3.47834 -2.30363 0
M  V30 6073 H 571.656 -2.33986 -2.22374 0
M  V30 6074 H 570.708 -3.79303 -0.288672 0
M  V30 6075 H 572.02 -4.95215 -0.596924 0
M  V30 6076 H 571.174 -5.31566 -2.92442 0
M  V30 6077 H 569.913 -4.07418 -2.6807 0
M  V30 6078 H 568.918 -5.4363 -0.821391 0
M  V30 6079 H 570.143 -6.70322 -1.08836 0
M  V30 6080 H 568.089 -5.76648 -3.12751 0
M  V30 6081 H 568.006 -7.23131 -2.20493 0
M  V30 6082 H 569.274 -7.02589 -3.37623 0
M  V30 6083 N 573.503 -0.0852151 -1.57369 0
M  V30 6084 C 574.436 0.913608 -2.09113 0
M  V30 6085 C 575.414 1.28264 -0.999358 0
M  V30 6086 O 576.598 1.3896 -1.27367 0
M  V30 6087 C 573.725 2.21777 -2.55993 0
M  V30 6088 C 572.771 1.99932 -3.76735 0
M  V30 6089 S 573.604 1.24637 -5.20794 0
M  V30 6090 C 574.76 2.56304 -5.71016 0
M  V30 6091 H 574.993 0.473369 -2.93507 0
M  V30 6092 H 572.526 0.127856 -1.5387 0
M  V30 6093 H 574.484 2.96726 -2.83662 0
M  V30 6094 H 573.145 2.62923 -1.71843 0
M  V30 6095 H 572.338 2.96482 -4.07571 0
M  V30 6096 H 571.94 1.33116 -3.49509 0
M  V30 6097 H 574.232 3.5233 -5.78679 0
M  V30 6098 H 575.175 2.3006 -6.69685 0
M  V30 6099 H 575.583 2.64125 -4.98897 0
M  V30 6100 N 574.981 1.5647 0.188427 0
M  V30 6101 C 575.891 1.98285 1.2538 0
M  V30 6102 C 576.907 0.891535 1.49424 0
M  V30 6103 O 578.083 1.19782 1.61908 0
M  V30 6104 C 575.148 2.31965 2.57669 0
M  V30 6105 C 574.209 3.54838 2.41638 0
M  V30 6106 C 573.442 3.86901 3.67618 0
M  V30 6107 O 573.665 3.20163 4.72072 0
M  V30 6108 O 572.599 4.80309 3.62749 0
M  V30 6109 H 576.425 2.89145 0.928912 0
M  V30 6110 H 574.01 1.44112 0.393955 0
M  V30 6111 H 575.892 2.54673 3.35737 0
M  V30 6112 H 574.567 1.44271 2.89771 0
M  V30 6113 H 573.474 3.37369 1.61658 0
M  V30 6114 H 574.807 4.43019 2.14465 0
M  V30 6115 N 576.459 -0.456382 1.50847 0
M  V30 6116 C 577.391 -1.57033 1.66953 0
M  V30 6117 C 578.404 -1.53207 0.550593 0
M  V30 6118 O 579.593 -1.58328 0.824285 0
M  V30 6119 C 576.693 -2.95937 1.65149 0
M  V30 6120 C 575.866 -3.24475 2.93317 0
M  V30 6121 C 574.925 -4.43007 2.83957 0
M  V30 6122 O 573.951 -4.42592 3.57912 0
M  V30 6123 N 575.153 -5.45503 1.9851 0
M  V30 6124 H 577.918 -1.43629 2.63042 0
M  V30 6125 H 575.479 -0.645037 1.48495 0
M  V30 6126 H 577.471 -3.73224 1.56481 0
M  V30 6127 H 576.041 -3.03036 0.767343 0
M  V30 6128 H 575.261 -2.35664 3.16 0
M  V30 6129 H 576.549 -3.4036 3.78196 0
M  V30 6130 H 575.947 -5.48668 1.37766 0
M  V30 6131 H 574.504 -6.21716 1.95735 0
M  V30 6132 N 577.937 -1.40673 -0.710563 0
M  V30 6133 C 578.884 -1.41336 -1.82463 0
M  V30 6134 C 579.854 -0.269648 -1.63897 0
M  V30 6135 O 581.039 -0.468463 -1.8496 0
M  V30 6136 C 578.179 -1.28665 -3.20218 0
M  V30 6137 C 577.292 -2.52784 -3.5032 0
M  V30 6138 C 576.427 -2.32517 -4.77608 0
M  V30 6139 C 575.466 -3.52187 -5.0063 0
M  V30 6140 N 574.603 -3.31084 -6.19135 0
M  V30 6141 H 579.443 -2.36558 -1.8123 0
M  V30 6142 H 576.98 -1.17483 -0.885226 0
M  V30 6143 H 578.938 -1.19324 -3.99772 0
M  V30 6144 H 577.568 -0.370602 -3.20666 0
M  V30 6145 H 576.62 -2.72634 -2.65283 0
M  V30 6146 H 577.932 -3.41845 -3.63241 0
M  V30 6147 H 577.086 -2.20558 -5.65189 0
M  V30 6148 H 575.825 -1.40889 -4.66906 0
M  V30 6149 H 574.83 -3.64617 -4.11502 0
M  V30 6150 H 576.055 -4.44749 -5.13201 0
M  V30 6151 H 574.001 -2.42143 -6.09674 0
M  V30 6152 H 573.918 -4.13713 -6.32754 0
M  V30 6153 H 575.186 -3.22868 -7.0949 0
M  V30 6154 N 579.415 0.9433 -1.26252 0
M  V30 6155 C 580.378 2.02326 -1.07689 0
M  V30 6156 C 581.378 1.60779 -0.0259174 0
M  V30 6157 O 582.568 1.72108 -0.269134 0
M  V30 6158 C 579.7 3.34886 -0.63752 0
M  V30 6159 H 580.893 2.20225 -2.0357 0
M  V30 6160 H 578.446 1.12197 -1.08819 0
M  V30 6161 H 579.181 3.22684 0.323377 0
M  V30 6162 H 578.966 3.66393 -1.39637 0
M  V30 6163 H 580.456 4.14231 -0.529418 0
M  V30 6164 N 580.893 1.08022 1.14757 0
M  V30 6165 C 582.142 0.802468 1.8505 0
M  V30 6166 C 582.455 -0.674061 1.83619 0
M  V30 6167 O 583.661 -1.06683 2.49662 0
M  V30 6168 C 582.117 1.38551 3.32162 0
M  V30 6169 C 581.725 2.89354 3.42021 0
M  V30 6170 C 583.469 1.18608 4.07594 0
M  V30 6171 C 581.376 3.40815 4.83321 0
M  V30 6172 H 580.306 0.296518 0.693248 0
M  V30 6173 H 582.957 1.30114 1.29393 0
M  V30 6174 H 581.339 0.814556 3.87532 0
M  V30 6175 H 582.513 3.52552 2.96722 0
M  V30 6176 H 580.828 3.08165 2.80041 0
M  V30 6177 H 583.425 1.54525 5.11885 0
M  V30 6178 H 583.768 0.125599 4.1611 0
M  V30 6179 H 584.301 1.72375 3.58513 0
M  V30 6180 H 581.04 4.46418 4.79991 0
M  V30 6181 H 580.56 2.82374 5.29174 0
M  V30 6182 H 582.239 3.37171 5.522 0
M  V30 6183 N 582.371 -1.3172 0.865308 0
M  V30 6184 C 583.596 -2.01591 0.487415 0
M  V30 6185 C 584.021 -1.6455 -0.911307 0
M  V30 6186 O 583.379 -0.851689 -1.6005 0
M  V30 6187 C 583.427 -3.54759 0.646401 0
M  V30 6188 O 582.531 -4.11185 -0.316284 0
M  V30 6189 H 581.872 -0.634884 0.194468 0
M  V30 6190 H 584.402 -1.68024 1.16744 0
M  V30 6191 H 584.412 -4.04438 0.537932 0
M  V30 6192 H 583.087 -3.8106 1.66632 0
M  V30 6193 H 581.664 -3.72543 -0.163162 0
M  V30 6194 N 583.85 -0.624285 -1.44708 0
M  V30 6195 C 584.797 0.0847135 -2.30644 0
M  V30 6196 C 585.767 0.843575 -1.43084 0
M  V30 6197 O 586.952 0.825982 -1.71995 0
M  V30 6198 C 584.091 1.06495 -3.28257 0
M  V30 6199 C 583.205 0.305224 -4.3092 0
M  V30 6200 C 582.34 1.27667 -5.1563 0
M  V30 6201 C 581.379 0.505706 -6.10007 0
M  V30 6202 N 580.516 1.42727 -6.8744 0
M  V30 6203 H 585.356 -0.654068 -2.90733 0
M  V30 6204 H 582.893 -0.334334 -1.4325 0
M  V30 6205 H 584.851 1.64658 -3.83332 0
M  V30 6206 H 583.481 1.77094 -2.69884 0
M  V30 6207 H 582.533 -0.392207 -3.78373 0
M  V30 6208 H 583.845 -0.295553 -4.97924 0
M  V30 6209 H 582.999 1.92984 -5.75189 0
M  V30 6210 H 581.738 1.91137 -4.48685 0
M  V30 6211 H 580.743 -0.160999 -5.49564 0
M  V30 6212 H 581.968 -0.124183 -6.78986 0
M  V30 6213 H 579.913 2.04931 -6.23169 0
M  V30 6214 H 579.831 0.880345 -7.50857 0
M  V30 6215 H 581.099 2.0695 -7.51526 0
M  V30 6216 N 585.328 1.53329 -0.364422 0
M  V30 6217 C 586.744 1.59594 -0.0133165 0
M  V30 6218 C 586.944 1.37959 1.46865 0
M  V30 6219 O 586 1.18418 2.2301 0
M  V30 6220 C 587.313 2.97032 -0.468213 0
M  V30 6221 C 588.861 3.10138 -0.422334 0
M  V30 6222 C 589.336 4.49986 -0.853024 0
M  V30 6223 N 590.827 4.56098 -0.808037 0
M  V30 6224 C 591.562 5.62495 -1.11299 0
M  V30 6225 N 591.058 6.7665 -1.48717 0
M  V30 6226 N 592.851 5.52473 -1.03586 0
M  V30 6227 H 585.002 1.65644 -1.32951 0
M  V30 6228 H 587.265 0.77684 -0.543345 0
M  V30 6229 H 586.971 3.18 -1.5023 0
M  V30 6230 H 586.845 3.76918 0.145775 0
M  V30 6231 H 589.232 2.88881 0.602622 0
M  V30 6232 H 589.313 2.32263 -1.0718 0
M  V30 6233 H 588.957 4.7198 -1.87609 0
M  V30 6234 H 588.887 5.26289 -0.180819 0
M  V30 6235 H 591.378 3.74131 -0.532361 0
M  V30 6236 H 591.691 7.53776 -1.70415 0
M  V30 6237 H 590.036 6.78044 -1.52581 0
M  V30 6238 H 593.227 4.6217 -0.742736 0
M  V30 6239 H 593.4 6.35295 -1.27686 0
M  V30 6240 N 586.806 0.0935595 1.57322 0
M  V30 6241 C 588.053 -0.570509 1.94297 0
M  V30 6242 C 588.381 -1.68286 0.97519 0
M  V30 6243 O 587.636 -1.95699 -0.00548655 0
M  V30 6244 C 587.935 -1.16692 3.37813 0
M  V30 6245 C 587.601 -0.178509 4.50547 0
M  V30 6246 C 586.263 0.0933475 4.81109 0
M  V30 6247 C 588.615 0.496472 5.1883 0
M  V30 6248 C 585.943 1.0469 5.77284 0
M  V30 6249 C 588.295 1.43849 6.16028 0
M  V30 6250 C 586.959 1.71859 6.44997 0
M  V30 6251 H 586.229 -0.208764 0.710984 0
M  V30 6252 H 588.876 0.169066 1.90752 0
M  V30 6253 H 587.181 -1.98271 3.37929 0
M  V30 6254 H 588.878 -1.6884 3.63722 0
M  V30 6255 H 585.468 -0.400584 4.26724 0
M  V30 6256 H 589.652 0.299584 4.95395 0
M  V30 6257 H 584.908 1.27094 5.98044 0
M  V30 6258 H 589.082 1.96734 6.68034 0
M  V30 6259 H 586.709 2.45906 7.19329 0
M  V30 6260 N 588.284 -1.56567 -0.180126 0
M  V30 6261 C 589.231 -1.95725 -1.22313 0
M  V30 6262 C 590.201 -0.819911 -1.44453 0
M  V30 6263 O 591.386 -1.07931 -1.57339 0
M  V30 6264 C 588.526 -2.31484 -2.55947 0
M  V30 6265 C 587.639 -3.58354 -2.4126 0
M  V30 6266 C 586.774 -3.83366 -3.67701 0
M  V30 6267 C 585.813 -5.03612 -3.47909 0
M  V30 6268 N 584.95 -5.24802 -4.66398 0
M  V30 6269 H 589.79 -2.84642 -0.882198 0
M  V30 6270 H 587.327 -1.4085 -0.42422 0
M  V30 6271 H 589.285 -2.50237 -3.33822 0
M  V30 6272 H 587.915 -1.45689 -2.88053 0
M  V30 6273 H 586.967 -3.47565 -1.54606 0
M  V30 6274 H 588.279 -4.46386 -2.22577 0
M  V30 6275 H 587.433 -4.02439 -4.54013 0
M  V30 6276 H 586.172 -2.93692 -3.89353 0
M  V30 6277 H 585.177 -4.84447 -2.59983 0
M  V30 6278 H 586.402 -5.94809 -3.27688 0
M  V30 6279 H 584.348 -4.38079 -4.88286 0
M  V30 6280 H 584.265 -6.07041 -4.50596 0
M  V30 6281 H 585.533 -5.48346 -5.54019 0
M  V30 6282 N 589.762 0.448376 -1.51087 0
M  V30 6283 C 591.009 1.19872 -1.63209 0
M  V30 6284 C 591.337 1.91451 -0.343062 0
M  V30 6285 O 590.592 1.83789 0.672321 0
M  V30 6286 C 590.891 2.24866 -2.77795 0
M  V30 6287 C 590.557 1.70378 -4.17471 0
M  V30 6288 C 589.219 1.55241 -4.55471 0
M  V30 6289 C 591.571 1.30203 -5.04675 0
M  V30 6290 C 588.899 0.983844 -5.78392 0
M  V30 6291 C 591.251 0.747798 -6.28165 0
M  V30 6292 C 589.915 0.583233 -6.64947 0
M  V30 6293 H 589.185 0.438642 -0.597222 0
M  V30 6294 H 591.832 0.49136 -1.85089 0
M  V30 6295 H 590.137 3.01598 -2.50092 0
M  V30 6296 H 591.834 2.82723 -2.84374 0
M  V30 6297 H 588.424 1.83134 -3.87505 0
M  V30 6298 H 592.608 1.40723 -4.75932 0
M  V30 6299 H 587.864 0.844007 -6.05546 0
M  V30 6300 H 592.038 0.427927 -6.95084 0
M  V30 6301 H 589.665 0.140532 -7.6007 0
M  V30 6302 N 591.24 1.41047 0.703093 0
M  V30 6303 C 592.15 1.44645 1.84703 0
M  V30 6304 C 593.166 0.337778 1.7069 0
M  V30 6305 O 594.342 0.584327 1.92737 0
M  V30 6306 C 591.407 1.31928 3.20618 0
M  V30 6307 C 590.468 2.53047 3.46794 0
M  V30 6308 C 589.701 2.40927 4.76224 0
M  V30 6309 O 589.924 1.42978 5.5219 0
M  V30 6310 O 588.858 3.30543 5.03016 0
M  V30 6311 H 592.684 2.41139 1.84624 0
M  V30 6312 H 590.269 1.22504 0.855167 0
M  V30 6313 H 592.151 1.27092 4.01778 0
M  V30 6314 H 590.826 0.385469 3.21397 0
M  V30 6315 H 589.733 2.6346 2.65593 0
M  V30 6316 H 591.066 3.45231 3.50822 0
M  V30 6317 N 592.718 -0.936591 1.26751 0
M  V30 6318 C 593.628 -2.06949 1.10496 0
M  V30 6319 C 594.644 -1.7396 0.037271 0
M  V30 6320 O 595.82 -1.99941 0.241944 0
M  V30 6321 C 592.885 -3.38612 0.744491 0
M  V30 6322 C 591.946 -3.85355 1.89209 0
M  V30 6323 C 591.179 -5.10735 1.54873 0
M  V30 6324 O 591.402 -5.68602 0.452546 0
M  V30 6325 O 590.336 -5.52632 2.38499 0
M  V30 6326 H 594.162 -2.23571 2.05547 0
M  V30 6327 H 591.747 -1.05428 1.05855 0
M  V30 6328 H 593.629 -4.17711 0.556396 0
M  V30 6329 H 592.304 -3.23218 -0.176582 0
M  V30 6330 H 591.211 -3.07182 2.13518 0
M  V30 6331 H 592.544 -4.05277 2.79305 0
M  V30 6332 N 594.196 -1.08629 -1.14182 0
M  V30 6333 C 595.607 -0.838003 -1.66836 0
M  V30 6334 C 595.958 0.634885 -1.85644 0
M  V30 6335 O 595.083 1.49008 -1.56926 0
M  V30 6336 C 595.678 -1.51465 -3.03058 0
M  V30 6337 C 594.237 -1.31355 -3.52736 0
M  V30 6338 C 593.384 -1.57599 -2.28162 0
M  V30 6339 H 596.335 -1.24656 -0.982165 0
M  V30 6340 H 596.356 -0.943134 -3.68626 0
M  V30 6341 H 595.868 -2.58661 -2.89337 0
M  V30 6342 H 593.969 -0.262384 -3.71675 0
M  V30 6343 H 594.082 -2.04275 -4.33369 0
M  V30 6344 H 592.446 -0.997659 -2.34348 0
M  V30 6345 H 593.229 -2.66006 -2.17015 0
M  V30 6346 N 595.674 1.31259 -0.872281 0
M  V30 6347 C 596.604 2.30929 -0.345554 0
M  V30 6348 C 597.585 1.60449 0.5648 0
M  V30 6349 O 598.77 1.8814 0.481335 0
M  V30 6350 C 595.9 3.44348 0.451823 0
M  V30 6351 C 594.854 4.26435 -0.365641 0
M  V30 6352 C 594.18 5.31785 0.557562 0
M  V30 6353 C 595.48 4.97159 -1.60095 0
M  V30 6354 H 597.174 2.75234 -1.17841 0
M  V30 6355 H 594.72 1.3232 -0.568094 0
M  V30 6356 H 596.673 4.13128 0.830854 0
M  V30 6357 H 595.397 2.98816 1.31821 0
M  V30 6358 H 594.056 3.59326 -0.726649 0
M  V30 6359 H 593.704 4.82502 1.4213 0
M  V30 6360 H 593.404 5.87598 0.0144878 0
M  V30 6361 H 594.928 6.03424 0.933387 0
M  V30 6362 H 596.342 5.58523 -1.29323 0
M  V30 6363 H 594.739 5.62779 -2.08327 0
M  V30 6364 H 595.809 4.24012 -2.35249 0
M  V30 6365 N 597.152 0.631951 1.44375 0
M  V30 6366 C 598.082 -0.0593243 2.33425 0
M  V30 6367 C 599.063 -0.833964 1.48253 0
M  V30 6368 O 600.248 -0.799682 1.76971 0
M  V30 6369 C 597.378 -1.04096 3.31333 0
M  V30 6370 C 596.332 -0.377899 4.26328 0
M  V30 6371 C 595.658 -1.4695 5.14111 0
M  V30 6372 C 596.958 0.716371 5.17364 0
M  V30 6373 H 598.652 0.684287 2.91475 0
M  V30 6374 H 596.198 0.330518 1.40156 0
M  V30 6375 H 598.151 -1.53331 3.92514 0
M  V30 6376 H 596.875 -1.81547 2.71493 0
M  V30 6377 H 595.534 0.0938054 3.6648 0
M  V30 6378 H 595.182 -2.2349 4.50623 0
M  V30 6379 H 594.882 -1.03121 5.78481 0
M  V30 6380 H 596.406 -1.96363 5.78164 0
M  V30 6381 H 597.82 0.307089 5.72477 0
M  V30 6382 H 596.217 1.07784 5.90341 0
M  V30 6383 H 597.287 1.58316 4.58327 0
M  V30 6384 N 598.631 -1.53133 0.372548 0
M  V30 6385 C 599.563 -2.23557 -0.505444 0
M  V30 6386 C 600.576 -1.25211 -1.04049 0
M  V30 6387 O 601.765 -1.51391 -0.945675 0
M  V30 6388 C 598.865 -2.92516 -1.71136 0
M  V30 6389 C 598.038 -4.17428 -1.30661 0
M  V30 6390 C 597.097 -4.69535 -2.37536 0
M  V30 6391 O 596.123 -5.33042 -1.99637 0
M  V30 6392 N 597.325 -4.47947 -3.6922 0
M  V30 6393 H 600.09 -2.9954 0.0978259 0
M  V30 6394 H 597.651 -1.60684 0.198068 0
M  V30 6395 H 599.643 -3.24281 -2.42124 0
M  V30 6396 H 598.213 -2.19944 -2.22134 0
M  V30 6397 H 597.433 -3.91888 -0.426292 0
M  V30 6398 H 598.721 -4.98622 -1.01259 0
M  V30 6399 H 598.119 -3.97219 -4.02783 0
M  V30 6400 H 596.676 -4.84245 -4.36292 0
M  V30 6401 N 600.109 -0.101901 -1.5727 0
M  V30 6402 C 601.019 0.868647 -2.17926 0
M  V30 6403 C 602.035 1.30527 -1.1506 0
M  V30 6404 O 603.211 1.37178 -1.47459 0
M  V30 6405 C 600.276 2.10727 -2.75309 0
M  V30 6406 C 599.337 1.7242 -3.93154 0
M  V30 6407 C 598.57 2.90377 -4.47791 0
M  V30 6408 O 598.793 4.05305 -4.01353 0
M  V30 6409 O 597.727 2.6845 -5.38719 0
M  V30 6410 H 601.553 0.382544 -3.01281 0
M  V30 6411 H 599.138 0.122812 -1.48894 0
M  V30 6412 H 601.02 2.83303 -3.11958 0
M  V30 6413 H 599.695 2.58376 -1.94996 0
M  V30 6414 H 598.602 0.970039 -3.61305 0
M  V30 6415 H 599.935 1.29528 -4.74851 0
M  V30 6416 N 601.587 1.56661 0.17182 0
M  V30 6417 C 602.836 1.81158 0.886831 0
M  V30 6418 C 603.149 0.679072 1.83434 0
M  V30 6419 O 604.355 0.808964 2.59168 0
M  V30 6420 C 602.811 3.20999 1.6275 0
M  V30 6421 C 602.419 4.42117 0.723652 0
M  V30 6422 C 604.163 3.5479 2.33076 0
M  V30 6423 C 602.07 5.7298 1.46452 0
M  V30 6424 H 601 0.675543 0.334899 0
M  V30 6425 H 603.651 1.82967 0.139765 0
M  V30 6426 H 602.033 3.13506 2.4193 0
M  V30 6427 H 603.207 4.60789 -0.0311485 0
M  V30 6428 H 601.522 4.16197 0.130063 0
M  V30 6429 H 604.119 4.49806 2.89099 0
M  V30 6430 H 604.462 2.79646 3.08389 0
M  V30 6431 H 604.995 3.63834 1.6084 0
M  V30 6432 H 601.734 6.51152 0.753729 0
M  V30 6433 H 601.254 5.58285 2.19266 0
M  V30 6434 H 602.933 6.14916 2.01214 0
M  V30 6435 N 603.065 -0.440357 1.51323 0
M  V30 6436 C 604.476 -1.02032 1.56353 0
M  V30 6437 C 604.827 -1.92382 0.385197 0
M  V30 6438 O 603.952 -2.10583 -0.498373 0
M  V30 6439 C 604.547 -1.85723 2.83359 0
M  V30 6440 C 603.106 -2.38774 2.90971 0
M  V30 6441 C 602.253 -1.17908 2.50984 0
M  V30 6442 H 605.204 -0.221744 1.57143 0
M  V30 6443 H 605.225 -2.71141 2.66951 0
M  V30 6444 H 604.737 -1.19939 3.69102 0
M  V30 6445 H 602.838 -3.08021 2.09651 0
M  V30 6446 H 602.951 -2.71778 3.94555 0
M  V30 6447 H 601.315 -1.52347 2.04114 0
M  V30 6448 H 602.098 -0.537393 3.39068 0
M  V30 6449 N 604.543 -1.41418 -0.695603 0
M  V30 6450 C 605.791 -1.40496 -1.45277 0
M  V30 6451 C 606.112 -0.0149538 -1.94994 0
M  V30 6452 O 605.382 0.9432 -1.71699 0
M  V30 6453 H 603.962 -0.517147 -0.539044 0
M  V30 6454 H 606.624 -1.76656 -0.823321 0
M  V30 6455 H 605.72 -2.09214 -2.31595 0
M  V30 6456 N 606.021 0.929856 -1.27246 0
M  V30 6457 C 606.931 2.0636 -1.11592 0
M  V30 6458 C 607.947 1.73938 -0.046496 0
M  V30 6459 O 609.123 1.9981 -0.252544 0
M  V30 6460 C 606.188 3.38213 -0.762437 0
M  V30 6461 C 605.249 3.84346 -1.9125 0
M  V30 6462 C 604.482 5.09906 -1.57579 0
M  V30 6463 O 604.705 5.68354 -0.482694 0
M  V30 6464 O 603.639 5.51359 -2.41426 0
M  V30 6465 H 607.465 2.22478 -2.0673 0
M  V30 6466 H 605.05 1.04865 -1.06413 0
M  V30 6467 H 606.932 4.1741 -0.57854 0
M  V30 6468 H 605.607 3.23307 0.159439 0
M  V30 6469 H 604.514 3.06045 -2.15144 0
M  V30 6470 H 605.847 4.0379 -2.81451 0
M  V30 6471 N 607.499 1.09233 1.13605 0
M  V30 6472 C 608.746 0.827159 1.84836 0
M  V30 6473 C 609.074 -0.647199 1.83416 0
M  V30 6474 O 608.329 -1.49228 1.26608 0
M  V30 6475 C 608.628 1.305 3.32723 0
M  V30 6476 C 608.294 2.78864 3.54325 0
M  V30 6477 C 606.956 3.19382 3.59928 0
M  V30 6478 C 609.308 3.74532 3.62457 0
M  V30 6479 C 606.636 4.54346 3.71196 0
M  V30 6480 C 608.988 5.09283 3.75252 0
M  V30 6481 C 607.652 5.49394 3.79108 0
M  V30 6482 H 606.922 0.302679 0.676363 0
M  V30 6483 H 609.569 1.36676 1.34134 0
M  V30 6484 H 607.874 0.68517 3.85762 0
M  V30 6485 H 609.571 1.07648 3.86281 0
M  V30 6486 H 606.161 2.46507 3.50617 0
M  V30 6487 H 610.345 3.44343 3.57409 0
M  V30 6488 H 605.601 4.84864 3.72447 0
M  V30 6489 H 609.775 5.83269 3.80487 0
M  V30 6490 H 607.402 6.5397 3.87591 0
M  V30 6491 N 608.977 -1.30795 0.87923 0
M  V30 6492 C 610.226 -1.95636 0.490875 0
M  V30 6493 C 610.539 -1.70214 -0.963674 0
M  V30 6494 O 611.745 -2.28991 -1.45861 0
M  V30 6495 C 610.201 -3.50271 0.826929 0
M  V30 6496 C 609.809 -3.84521 2.29886 0
M  V30 6497 C 611.553 -4.21456 0.507494 0
M  V30 6498 C 609.46 -5.32309 2.57685 0
M  V30 6499 H 608.39 -0.732238 0.179841 0
M  V30 6500 H 611.041 -1.48829 1.07341 0
M  V30 6501 H 609.423 -3.9562 0.173542 0
M  V30 6502 H 610.597 -3.50102 2.99609 0
M  V30 6503 H 608.912 -3.26425 2.58526 0
M  V30 6504 H 611.509 -5.30199 0.692293 0
M  V30 6505 H 611.852 -4.12614 -0.552718 0
M  V30 6506 H 612.385 -3.81772 1.11782 0
M  V30 6507 H 609.124 -5.46195 3.62424 0
M  V30 6508 H 608.644 -5.68048 1.92566 0
M  V30 6509 H 610.323 -5.99678 2.42889 0
M  V30 6510 N 610.455 -0.639598 -1.44038 0
M  V30 6511 C 611.685 -0.154586 -2.06021 0
M  V30 6512 C 612.093 1.17951 -1.47933 0
M  V30 6513 O 611.436 1.73627 -0.59994 0
M  V30 6514 C 611.498 0.0255459 -3.59491 0
M  V30 6515 C 611.162 -1.2317 -4.40089 0
M  V30 6516 C 612.159 -2.15735 -4.73027 0
M  V30 6517 C 609.844 -1.46949 -4.80324 0
M  V30 6518 C 611.838 -3.30382 -5.45093 0
M  V30 6519 C 609.525 -2.61891 -5.52138 0
M  V30 6520 C 610.523 -3.53433 -5.84443 0
M  V30 6521 O 610.211 -4.6637 -6.54793 0
M  V30 6522 H 609.943 -0.0808543 -0.671147 0
M  V30 6523 H 612.497 -0.876541 -1.85758 0
M  V30 6524 H 610.727 0.802733 -3.78276 0
M  V30 6525 H 612.416 0.466184 -4.03214 0
M  V30 6526 H 613.182 -1.98602 -4.42473 0
M  V30 6527 H 609.061 -0.765815 -4.54595 0
M  V30 6528 H 612.605 -4.01856 -5.70226 0
M  V30 6529 H 608.502 -2.78964 -5.82108 0
M  V30 6530 H 609.27 -4.6546 -6.73267 0
M  V30 6531 O 611.972 1.52802 -0.522856 0
M  V30 6532 H 612.663 1.93697 -0.0110221 0
M  V30 END ATOM
M  V30 BEGIN BOND
M  V30 END BOND
M  V30 END CTAB
M  END
$$$$
