drugbank_target|P08700 Interleukin-3 (DB01025; DB01593; DB09221; DB14487; DB14533; DB14548)
 OpenBabel12092119243D

  0  0  0     0  0            999 V3000
M  V30 BEGIN CTAB
M  V30 COUNTS 2468 2492 0 0 0
M  V30 BEGIN ATOM
M  V30 1 H -0.908 1.98254 -0.117106 0
M  V30 2 N 0 1.576 0 0
M  V30 3 C 0.933 2.03868 1.02534 0
M  V30 4 C 1.911 0.928543 1.3348 0
M  V30 5 O 3.095 1.19667 1.45644 0
M  V30 6 C 0.222 2.43627 2.35294 0
M  V30 7 C -0.732 3.65373 2.2001 0
M  V30 8 S 0.101 5.13292 1.52614 0
M  V30 9 C 1.257 5.56322 2.86805 0
M  V30 10 H 1.49 2.90518 0.631377 0
M  V30 11 H -0.977 1.52953 0.210867 0
M  V30 12 H 0.981 2.67203 3.11629 0
M  V30 13 H -0.358 1.57376 2.7183 0
M  V30 14 H -1.165 3.90944 3.18086 0
M  V30 15 H -1.563 3.418 1.51819 0
M  V30 16 H 0.729 5.58782 3.83104 0
M  V30 17 H 1.672 6.56266 2.65933 0
M  V30 18 H 2.08 4.83886 2.90714 0
M  V30 19 N 1.4781 -0.272755 1.55222 0
M  V30 20 C 2.7031 -1.02683 1.80197 0
M  V30 21 C 3.1281 -1.79142 0.573551 0
M  V30 22 O 2.4861 -1.74917 -0.476849 0
M  V30 23 C 2.5341 -1.9609 3.02624 0
M  V30 24 O 1.6381 -3.04863 2.77727 0
M  V30 25 H 0.9791 -0.293557 0.595584 0
M  V30 26 H 3.5091 -0.30159 2.02365 0
M  V30 27 H 3.5191 -2.38039 3.31363 0
M  V30 28 H 2.1941 -1.39851 3.91682 0
M  V30 29 H 0.7711 -2.67228 2.60084 0
M  V30 30 N 2.9562 -1.48159 -0.537278 0
M  V30 31 C 4.3722 -1.34118 -0.865129 0
M  V30 32 C 4.5722 -0.346678 -1.98495 0
M  V30 33 O 3.6282 0.234715 -2.51407 0
M  V30 34 C 4.9412 -2.73963 -1.23954 0
M  V30 35 C 6.4892 -2.82397 -1.34984 0
M  V30 36 C 6.9642 -4.22928 -1.75772 0
M  V30 37 N 8.4552 -4.25566 -1.82887 0
M  V30 38 C 9.1902 -5.31235 -2.15817 0
M  V30 39 N 8.6862 -6.47189 -2.47222 0
M  V30 40 N 10.4792 -5.18624 -2.16761 0
M  V30 41 H 2.6302 -2.1144 0.201715 0
M  V30 42 H 4.8932 -0.947598 0.0275949 0
M  V30 43 H 4.5992 -3.48264 -0.490381 0
M  V30 44 H 4.4732 -3.0702 -2.19132 0
M  V30 45 H 6.8602 -2.08356 -2.08978 0
M  V30 46 H 6.9412 -2.5297 -0.379448 0
M  V30 47 H 6.5852 -4.97482 -1.02341 0
M  V30 48 H 6.5152 -4.49794 -2.73848 0
M  V30 49 H 9.0062 -3.41924 -1.60924 0
M  V30 50 H 9.3192 -7.23564 -2.71433 0
M  V30 51 H 7.6642 -6.50476 -2.44757 0
M  V30 52 H 10.8552 -4.27056 -1.91679 0
M  V30 53 H 11.0282 -6.01078 -2.42093 0
M  V30 54 N 4.4343 0.785586 -1.36625 0
M  V30 55 C 5.3643 1.91259 -1.33949 0
M  V30 56 C 6.3453 1.68795 -0.210325 0
M  V30 57 O 7.5303 1.89854 -0.408561 0
M  V30 58 C 4.6603 3.28339 -1.13186 0
M  V30 59 C 3.6143 3.65335 -2.22967 0
M  V30 60 C 2.9403 5.00806 -1.87342 0
M  V30 61 C 4.2403 3.7352 -3.65075 0
M  V30 62 H 5.9343 1.93755 -2.28253 0
M  V30 63 H 3.4803 0.930788 -1.09874 0
M  V30 64 H 5.4333 4.06804 -1.09948 0
M  V30 65 H 4.1573 3.2624 -0.153332 0
M  V30 66 H 2.8163 2.89169 -2.25337 0
M  V30 67 H 2.4643 4.95233 -0.880545 0
M  V30 68 H 2.1643 5.26529 -2.60846 0
M  V30 69 H 3.6883 5.81687 -1.85667 0
M  V30 70 H 5.1023 4.42168 -3.64911 0
M  V30 71 H 3.4993 4.10731 -4.37516 0
M  V30 72 H 4.5693 2.74527 -3.99703 0
M  V30 73 N 5.9124 1.20967 1.01018 0
M  V30 74 C 7.3234 1.02319 1.56165 0
M  V30 75 C 7.6744 -0.418546 1.91684 0
M  V30 76 O 6.7994 -1.30096 1.72928 0
M  V30 77 C 7.3944 1.85109 2.8376 0
M  V30 78 C 5.9534 1.70809 3.35412 0
M  V30 79 C 5.1004 1.82643 2.08655 0
M  V30 80 H 8.0514 1.35065 0.833255 0
M  V30 81 H 8.0724 1.35827 3.55431 0
M  V30 82 H 7.5844 2.90035 2.57878 0
M  V30 83 H 5.6854 0.685464 3.66241 0
M  V30 84 H 5.7984 2.52467 4.07182 0
M  V30 85 H 4.1624 1.25896 2.21409 0
M  V30 86 H 4.9454 2.89066 1.85191 0
M  V30 87 N 7.3905 -1.2043 1.01659 0
M  V30 88 C 8.6365 -1.90079 0.706963 0
M  V30 89 C 8.9695 -1.78648 -0.761474 0
M  V30 90 O 8.2445 -1.17069 -1.55323 0
M  V30 91 C 8.5275 -3.41469 1.14327 0
M  V30 92 C 8.3805 -3.61833 2.67201 0
M  V30 93 C 9.6995 -4.34261 0.714529 0
M  V30 94 H 6.8185 -0.690254 0.2583 0
M  V30 95 H 9.4605 -1.41826 1.26433 0
M  V30 96 H 7.6105 -3.82696 0.669056 0
M  V30 97 H 9.2825 -3.2986 3.22475 0
M  V30 98 H 7.5255 -3.05304 3.08175 0
M  V30 99 H 8.1965 -4.67955 2.92783 0
M  V30 100 H 10.6725 -4.00682 1.12221 0
M  V30 101 H 9.5485 -5.38806 1.04784 0
M  V30 102 H 9.8095 -4.40431 -0.383799 0
M  V30 103 N 8.8686 -0.792821 -1.36206 0
M  V30 104 C 9.7986 -0.207853 -2.32573 0
M  V30 105 C 10.7796 0.659055 -1.56813 0
M  V30 106 O 11.9646 0.592176 -1.84951 0
M  V30 107 C 9.0946 0.655449 -3.41059 0
M  V30 108 C 8.0486 -0.111842 -4.27854 0
M  V30 109 C 7.3746 0.872274 -5.27537 0
M  V30 110 C 8.6746 -1.30299 -5.05786 0
M  V30 111 H 10.3686 -1.01294 -2.81744 0
M  V30 112 H 7.9146 -0.48854 -1.3546 0
M  V30 113 H 9.8676 1.07464 -4.07467 0
M  V30 114 H 8.5916 1.49328 -2.90463 0
M  V30 115 H 7.2506 -0.512053 -3.63006 0
M  V30 116 H 6.8986 1.70523 -4.73214 0
M  V30 117 H 6.5986 0.363291 -5.86476 0
M  V30 118 H 8.1226 1.28996 -5.96818 0
M  V30 119 H 9.5366 -0.959379 -5.65216 0
M  V30 120 H 7.9336 -1.7455 -5.74154 0
M  V30 121 H 9.0036 -2.09663 -4.37229 0
M  V30 122 N 10.3467 1.47872 -0.545128 0
M  V30 123 C 11.2767 2.32661 0.197793 0
M  V30 124 C 12.2577 1.43041 0.920504 0
M  V30 125 O 13.4427 1.71912 0.90333 0
M  V30 126 C 10.5727 3.24569 1.23582 0
M  V30 127 C 9.5267 4.23333 0.630323 0
M  V30 128 C 8.8527 5.0448 1.77211 0
M  V30 129 C 10.1527 5.20704 -0.407974 0
M  V30 130 H 11.8467 2.95024 -0.510045 0
M  V30 131 H 9.3927 1.4187 -0.246731 0
M  V30 132 H 11.3457 3.8272 1.76362 0
M  V30 133 H 10.0697 2.60236 1.97344 0
M  V30 134 H 8.7287 3.6639 0.123922 0
M  V30 135 H 8.3767 4.36561 2.49847 0
M  V30 136 H 8.0767 5.71339 1.37281 0
M  V30 137 H 9.6007 5.65487 2.3034 0
M  V30 138 H 11.0147 5.7329 0.033305 0
M  V30 139 H 9.4117 5.95699 -0.725486 0
M  V30 140 H 10.4817 4.66917 -1.30828 0
M  V30 141 N 11.8248 0.280983 1.55075 0
M  V30 142 C 12.7548 -0.597469 2.25727 0
M  V30 143 C 13.7358 -1.15417 1.24952 0
M  V30 144 O 14.9208 -1.18722 1.53684 0
M  V30 145 C 12.0508 -1.7789 2.98283 0
M  V30 146 C 11.0048 -1.35347 4.06036 0
M  V30 147 C 10.3308 -2.61846 4.66198 0
M  V30 148 C 11.6308 -0.499354 5.19907 0
M  V30 149 H 13.3248 -0.00824265 2.99399 0
M  V30 150 H 10.8708 -0.0025244 1.44 0
M  V30 151 H 12.8238 -2.39937 3.46422 0
M  V30 152 H 11.5478 -2.39405 2.22155 0
M  V30 153 H 10.2068 -0.756156 3.58717 0
M  V30 154 H 9.8548 -3.21632 3.86732 0
M  V30 155 H 9.5548 -2.3409 5.38958 0
M  V30 156 H 11.0788 -3.24732 5.1709 0
M  V30 157 H 12.4928 -1.02498 5.64063 0
M  V30 158 H 10.8898 -0.316424 5.99265 0
M  V30 159 H 11.9598 0.480459 4.82514 0
M  V30 160 N 13.3029 -1.57598 0.00835791 0
M  V30 161 C 14.2329 -2.1198 -0.979113 0
M  V30 162 C 15.2139 -1.03091 -1.35301 0
M  V30 163 O 16.3989 -1.30818 -1.43528 0
M  V30 164 C 13.5289 -2.62995 -2.26828 0
M  V30 165 C 12.4829 -3.76485 -2.03576 0
M  V30 166 C 11.8089 -4.13846 -3.38579 0
M  V30 167 C 13.1089 -5.0342 -1.39161 0
M  V30 168 H 14.8029 -2.94738 -0.526281 0
M  V30 169 H 12.3489 -1.41783 -0.251704 0
M  V30 170 H 14.3019 -2.99669 -2.96271 0
M  V30 171 H 13.0259 -1.7737 -2.7424 0
M  V30 172 H 11.6849 -3.40217 -1.36557 0
M  V30 173 H 11.3329 -3.25232 -3.83709 0
M  V30 174 H 11.0329 -4.90312 -3.23834 0
M  V30 175 H 12.5569 -4.53086 -4.09323 0
M  V30 176 H 13.9709 -5.37812 -1.98573 0
M  V30 177 H 12.3679 -5.84746 -1.34878 0
M  V30 178 H 13.4379 -4.83548 -0.361868 0
M  V30 179 N 14.781 0.264519 -1.55364 0
M  V30 180 C 15.713 1.34965 -1.85248 0
M  V30 181 C 16.726 1.45136 -0.737525 0
M  V30 182 O 17.915 1.46801 -1.01547 0
M  V30 183 C 15.015 2.73008 -2.00797 0
M  V30 184 C 14.188 2.85324 -3.31525 0
M  V30 185 C 13.247 4.04097 -3.37034 0
M  V30 186 O 12.273 3.94455 -4.10358 0
M  V30 187 N 13.475 5.16458 -2.65049 0
M  V30 188 H 16.24 1.09672 -2.78913 0
M  V30 189 H 13.801 0.454635 -1.55386 0
M  V30 190 H 15.793 3.50772 -2.01844 0
M  V30 191 H 14.363 2.91087 -1.1396 0
M  V30 192 H 13.583 1.94377 -3.42945 0
M  V30 193 H 14.871 2.9049 -4.17724 0
M  V30 194 H 14.269 5.27181 -2.05175 0
M  V30 195 H 12.826 5.92422 -2.71809 0
M  V30 196 N 16.2591 1.48442 0.529413 0
M  V30 197 C 17.1891 1.65902 1.64313 0
M  V30 198 C 18.1701 0.507897 1.6234 0
M  V30 199 O 19.3551 0.740503 1.79528 0
M  V30 200 C 16.4851 1.69911 3.02898 0
M  V30 201 C 15.4391 2.8453 3.19729 0
M  V30 202 C 14.7651 2.73629 4.59381 0
M  V30 203 C 16.0651 4.25821 3.02447 0
M  V30 204 H 17.7591 2.5914 1.49955 0
M  V30 205 H 15.3051 1.24709 0.719982 0
M  V30 206 H 17.2581 1.80715 3.80684 0
M  V30 207 H 15.9821 0.732524 3.18279 0
M  V30 208 H 14.6411 2.73283 2.44361 0
M  V30 209 H 14.2891 1.74938 4.71599 0
M  V30 210 H 13.9891 3.50541 4.71588 0
M  V30 211 H 15.5131 2.86401 5.39265 0
M  V30 212 H 16.9271 4.37898 3.70024 0
M  V30 213 H 15.3241 5.03735 3.26146 0
M  V30 214 H 16.3941 4.42244 1.98867 0
M  V30 215 N 17.7372 -0.778329 1.37039 0
M  V30 216 C 18.6672 -1.90546 1.34962 0
M  V30 217 C 19.6482 -1.68681 0.219274 0
M  V30 218 O 20.8332 -1.89634 0.418624 0
M  V30 219 C 17.9632 -3.27734 1.14925 0
M  V30 220 C 16.9172 -3.64147 2.24902 0
M  V30 221 C 16.2432 -4.99806 1.89996 0
M  V30 222 C 17.5432 -3.71579 3.67051 0
M  V30 223 H 19.2372 -1.92541 2.29277 0
M  V30 224 H 16.7832 -0.924948 1.10366 0
M  V30 225 H 18.7362 -4.06215 1.12104 0
M  V30 226 H 17.4602 -3.26154 0.170631 0
M  V30 227 H 16.1192 -2.8797 2.26868 0
M  V30 228 H 15.7672 -4.94759 0.906796 0
M  V30 229 H 15.4672 -5.25139 2.63634 0
M  V30 230 H 16.9912 -5.80694 1.88749 0
M  V30 231 H 18.4052 -4.40227 3.67251 0
M  V30 232 H 16.8022 -4.08405 4.39688 0
M  V30 233 H 17.8722 -2.72404 4.01154 0
M  V30 234 N 19.2153 -1.21501 -1.00376 0
M  V30 235 C 20.4613 -1.03452 -1.74429 0
M  V30 236 C 20.7943 0.430764 -1.89362 0
M  V30 237 O 20.0693 1.31962 -1.42886 0
M  V30 238 C 20.3523 -1.73375 -3.15615 0
M  V30 239 C 20.2053 -3.27431 -3.08397 0
M  V30 240 C 21.5243 -1.47732 -4.14564 0
M  V30 241 H 18.6433 -0.377226 -0.633143 0
M  V30 242 H 21.2853 -1.49693 -1.17013 0
M  V30 243 H 19.4353 -1.34064 -3.64636 0
M  V30 244 H 21.1073 -3.76119 -2.67081 0
M  V30 245 H 19.3503 -3.5767 -2.45468 0
M  V30 246 H 20.0213 -3.71524 -4.08258 0
M  V30 247 H 22.4973 -1.8186 -3.74254 0
M  V30 248 H 21.3733 -1.99169 -5.11491 0
M  V30 249 H 21.6343 -0.407589 -4.40217 0
M  V30 250 N 20.6934 1.19889 -1.02296 0
M  V30 251 C 22.1094 1.41462 -0.738954 0
M  V30 252 C 22.3094 1.89721 0.678846 0
M  V30 253 O 21.3654 2.07016 1.4457 0
M  V30 254 C 22.6784 2.43083 -1.77005 0
M  V30 255 C 24.2264 2.5684 -1.78892 0
M  V30 256 C 24.7014 3.61709 -2.80945 0
M  V30 257 N 26.1924 3.69199 -2.79725 0
M  V30 258 C 26.9274 4.50019 -3.55345 0
M  V30 259 N 26.4234 5.34592 -4.40662 0
M  V30 260 N 28.2164 4.44612 -3.43914 0
M  V30 261 H 20.3674 0.868827 -1.93817 0
M  V30 262 H 22.6304 0.44399 -0.837602 0
M  V30 263 H 22.3364 2.14636 -2.78612 0
M  V30 264 H 22.2104 3.4217 -1.58744 0
M  V30 265 H 24.5974 2.84614 -0.779674 0
M  V30 266 H 24.6784 1.57927 -2.01228 0
M  V30 267 H 24.3224 3.34678 -3.82038 0
M  V30 268 H 24.2524 4.60259 -2.5587 0
M  V30 269 H 26.7434 3.08794 -2.17842 0
M  V30 270 H 27.0564 5.93363 -4.95116 0
M  V30 271 H 25.4014 5.34073 -4.44737 0
M  V30 272 H 28.5924 3.7758 -2.76679 0
M  V30 273 H 28.7654 5.0736 -4.031 0
M  V30 274 N 22.1715 0.800033 1.35784 0
M  V30 275 C 23.5825 0.439142 1.81462 0
M  V30 276 C 23.9335 -1.03813 1.66485 0
M  V30 277 O 23.0585 -1.80626 1.19177 0
M  V30 278 C 23.6535 0.790314 3.29453 0
M  V30 279 C 22.2125 0.482111 3.733 0
M  V30 280 C 21.3595 1.01938 2.57883 0
M  V30 281 H 24.3105 0.992254 1.23855 0
M  V30 282 H 24.3315 0.0853677 3.80404 0
M  V30 283 H 23.8435 1.86554 3.40322 0
M  V30 284 H 21.9445 -0.584652 3.67984 0
M  V30 285 H 22.0575 1.01015 4.6833 0
M  V30 286 H 20.4215 0.442043 2.50835 0
M  V30 287 H 21.2045 2.10059 2.71533 0
M  V30 288 N 23.6496 -1.47581 0.552962 0
M  V30 289 C 24.8976 -2.02082 0.0272703 0
M  V30 290 C 25.2186 -1.4301 -1.32563 0
M  V30 291 O 24.4886 -0.603745 -1.86365 0
M  V30 292 H 23.0686 -0.746966 0.00709182 0
M  V30 293 H 25.7306 -1.81033 0.722008 0
M  V30 294 H 24.8266 -3.12034 -0.0639951 0
M  V30 295 N 25.1277 -0.289203 -1.54924 0
M  V30 296 C 26.0577 0.58549 -2.2604 0
M  V30 297 C 27.0387 1.14753 -1.25562 0
M  V30 298 O 28.2237 1.17906 -1.54311 0
M  V30 299 C 25.3537 1.76305 -2.99222 0
M  V30 300 C 24.3077 1.33191 -4.06748 0
M  V30 301 C 23.6337 2.5937 -4.6758 0
M  V30 302 C 24.9337 0.471775 -5.20165 0
M  V30 303 H 26.6277 -0.00763532 -2.99399 0
M  V30 304 H 24.1737 -0.00511229 -1.43999 0
M  V30 305 H 26.1267 2.38097 -3.47689 0
M  V30 306 H 24.8507 2.38223 -2.23422 0
M  V30 307 H 23.5097 0.737121 -3.59113 0
M  V30 308 H 23.1577 3.19576 -3.88433 0
M  V30 309 H 22.8577 2.31228 -5.40192 0
M  V30 310 H 24.3817 3.21985 -5.18804 0
M  V30 311 H 25.7957 0.995056 -5.64599 0
M  V30 312 H 24.1927 0.284639 -5.99425 0
M  V30 313 H 25.2627 -0.506041 -4.82252 0
M  V30 314 N 26.6058 1.57591 -0.0167156 0
M  V30 315 C 27.5378 2.06343 0.997753 0
M  V30 316 C 28.5508 0.984469 1.29661 0
M  V30 317 O 29.7398 1.26093 1.26344 0
M  V30 318 C 26.8398 2.46255 2.32834 0
M  V30 319 C 26.0128 3.77083 2.21646 0
M  V30 320 C 25.0718 4.0368 3.37534 0
M  V30 321 O 24.0978 4.7411 3.14973 0
M  V30 322 N 25.2998 3.52881 4.60929 0
M  V30 323 H 28.0648 2.93997 0.581875 0
M  V30 324 H 25.6258 1.61002 0.170316 0
M  V30 325 H 27.6178 2.61149 3.09166 0
M  V30 326 H 26.1878 1.64032 2.66106 0
M  V30 327 H 25.4078 3.72106 1.30119 0
M  V30 328 H 26.6958 4.62822 2.11361 0
M  V30 329 H 26.0938 2.95878 4.82154 0
M  V30 330 H 24.6508 3.73076 5.34469 0
M  V30 331 N 28.0839 -0.256276 1.55502 0
M  V30 332 C 29.0469 -1.30047 1.88734 0
M  V30 333 C 30.0469 -1.4154 0.763086 0
M  V30 334 O 31.2369 -1.40403 1.03115 0
M  V30 335 C 28.3689 -2.67953 2.10747 0
M  V30 336 H 29.5619 -1.01802 2.82093 0
M  V30 337 H 27.1149 -0.495134 1.4825 0
M  V30 338 H 27.8499 -3.01351 1.19825 0
M  V30 339 H 27.6349 -2.60993 2.92617 0
M  V30 340 H 29.1249 -3.43368 2.37673 0
M  V30 341 N 29.562 -1.4872 -0.521534 0
M  V30 342 C 30.973 -1.50607 -1.10337 0
M  V30 343 C 31.324 -0.280612 -1.94183 0
M  V30 344 O 30.449 0.611507 -2.0758 0
M  V30 345 C 31.044 -2.72903 -2.00772 0
M  V30 346 C 29.603 -2.77634 -2.54158 0
M  V30 347 C 28.75 -2.44241 -1.31307 0
M  V30 348 H 31.701 -1.55714 -0.306388 0
M  V30 349 H 31.722 -2.519 -2.85178 0
M  V30 350 H 31.234 -3.62077 -1.39721 0
M  V30 351 H 29.335 -1.92689 -3.18907 0
M  V30 352 H 29.448 -3.79283 -2.92714 0
M  V30 353 H 27.812 -1.95577 -1.63161 0
M  V30 354 H 28.595 -3.35666 -0.719943 0
M  V30 355 N 31.0401 0.771051 -1.3745 0
M  V30 356 C 31.9731 1.89166 -1.27638 0
M  V30 357 C 32.9511 1.61842 -0.156782 0
M  V30 358 O 34.1351 1.85569 -0.331111 0
M  V30 359 C 31.2621 3.24405 -0.973621 0
M  V30 360 C 30.3081 3.70638 -2.1102 0
M  V30 361 S 31.1411 3.84228 -3.73 0
M  V30 362 C 32.2971 5.22313 -3.44876 0
M  V30 363 H 32.5301 1.972 -2.22485 0
M  V30 364 H 30.0631 0.932224 -1.23081 0
M  V30 365 H 32.0211 4.02514 -0.805766 0
M  V30 366 H 30.6821 3.14071 -0.0426279 0
M  V30 367 H 29.8751 4.68685 -1.85338 0
M  V30 368 H 29.4771 2.99632 -2.23822 0
M  V30 369 H 31.7691 6.07505 -2.99908 0
M  V30 370 H 32.7121 5.53008 -4.42253 0
M  V30 371 H 33.1201 4.90284 -2.79789 0
M  V30 372 N 32.5182 1.22032 0.997298 0
M  V30 373 C 33.7462 1.06841 1.7718 0
M  V30 374 C 34.1612 -0.381325 1.84909 0
M  V30 375 O 33.5182 -1.26437 1.31605 0
M  V30 376 C 33.5692 1.66814 3.20711 0
M  V30 377 O 33.2902 3.06116 3.13408 0
M  V30 378 C 34.7912 1.56838 4.14628 0
M  V30 379 H 32.0112 0.374782 0.556578 0
M  V30 380 H 34.5552 1.61532 1.2541 0
M  V30 381 H 32.7102 1.16196 3.69564 0
M  V30 382 H 33.1242 3.34926 4.0364 0
M  V30 383 H 34.5982 2.03532 5.13107 0
M  V30 384 H 35.0752 0.524155 4.36061 0
M  V30 385 H 35.6812 2.06741 3.7167 0
M  V30 386 N 33.9963 -1.19345 1.0293 0
M  V30 387 C 34.9283 -2.22036 0.56857 0
M  V30 388 C 35.9413 -1.58865 -0.355779 0
M  V30 389 O 37.1303 -1.77851 -0.152103 0
M  V30 390 C 34.2303 -3.38363 -0.190752 0
M  V30 391 C 33.4033 -4.31118 0.738643 0
M  V30 392 C 32.4623 -5.26194 0.0246497 0
M  V30 393 O 31.4883 -5.65461 0.651354 0
M  V30 394 N 32.6903 -5.66971 -1.24594 0
M  V30 395 H 35.4553 -2.6219 1.45177 0
M  V30 396 H 33.0163 -1.34015 0.908381 0
M  V30 397 H 35.0083 -3.98981 -0.677961 0
M  V30 398 H 33.5783 -2.96994 -0.975366 0
M  V30 399 H 32.7983 -3.68276 1.40593 0
M  V30 400 H 34.0863 -4.90001 1.37029 0
M  V30 401 H 33.4843 -5.37104 -1.77583 0
M  V30 402 H 32.0413 -6.2984 -1.67764 0
M  V30 403 N 35.4744 -0.807222 -1.35358 0
M  V30 404 C 36.7024 -0.400377 -2.02989 0
M  V30 405 C 37.1174 0.988859 -1.60832 0
M  V30 406 O 36.4744 1.63729 -0.806175 0
M  V30 407 C 36.5254 -0.474867 -3.58368 0
M  V30 408 O 36.2464 -1.80933 -3.98992 0
M  V30 409 C 37.7474 -0.0609112 -4.43258 0
M  V30 410 H 34.9674 -0.162587 -0.651004 0
M  V30 411 H 37.5114 -1.09102 -1.72965 0
M  V30 412 H 35.6664 0.167534 -3.87038 0
M  V30 413 H 36.0804 -1.77256 -4.9364 0
M  V30 414 H 37.5544 -0.164145 -5.51756 0
M  V30 415 H 38.0314 0.993831 -4.27808 0
M  V30 416 H 38.6374 -0.676492 -4.19885 0
M  V30 417 N 36.9525 1.47285 -0.560781 0
M  V30 418 C 38.1805 2.06855 -0.0430262 0
M  V30 419 C 38.5955 1.41291 1.25229 0
M  V30 420 O 37.9525 0.510648 1.7521 0
M  V30 421 C 38.0035 3.61178 0.152518 0
M  V30 422 O 37.7245 4.24285 -1.0915 0
M  V30 423 C 39.2255 4.37624 0.707145 0
M  V30 424 H 36.4455 0.669319 -0.0474652 0
M  V30 425 H 38.9895 1.89237 -0.77521 0
M  V30 426 H 37.1445 3.78298 0.834843 0
M  V30 427 H 37.5585 5.16868 -0.891482 0
M  V30 428 H 39.0325 5.46271 0.793244 0
M  V30 429 H 39.5095 4.04152 1.71923 0
M  V30 430 H 40.1155 4.25257 0.0604027 0
M  V30 431 N 38.4306 0.297415 1.54768 0
M  V30 432 C 39.8416 -0.195947 1.85669 0
M  V30 433 C 40.1926 -1.53707 1.21937 0
M  V30 434 O 39.3176 -2.10164 0.515754 0
M  V30 435 C 39.9126 -0.362318 3.36857 0
M  V30 436 C 38.4716 -0.799901 3.67802 0
M  V30 437 C 37.6186 0.0938578 2.77141 0
M  V30 438 H 40.5696 0.518538 1.4999 0
M  V30 439 H 40.5906 -1.19745 3.61167 0
M  V30 440 H 40.1026 0.613921 3.83214 0
M  V30 441 H 38.2036 -1.78682 3.26961 0
M  V30 442 H 38.3166 -0.621773 4.75048 0
M  V30 443 H 36.6806 -0.426254 2.51108 0
M  V30 444 H 37.4636 1.06639 3.26318 0
M  V30 445 N 39.9087 -1.5758 0.0250728 0
M  V30 446 C 40.8387 -2.13007 -0.956575 0
M  V30 447 C 41.8197 -1.0452 -1.342 0
M  V30 448 O 43.0047 -1.32332 -1.42133 0
M  V30 449 C 40.1347 -2.65386 -2.24026 0
M  V30 450 C 39.0887 -3.78623 -1.99571 0
M  V30 451 C 38.4147 -4.17414 -3.3417 0
M  V30 452 C 39.7147 -5.04867 -1.33814 0
M  V30 453 H 41.4087 -2.9528 -0.494991 0
M  V30 454 H 38.9547 -1.42042 -0.236651 0
M  V30 455 H 40.9077 -3.02794 -2.93076 0
M  V30 456 H 39.6317 -1.80268 -2.72343 0
M  V30 457 H 38.2907 -3.41646 -1.32941 0
M  V30 458 H 37.9387 -3.29284 -3.80238 0
M  V30 459 H 37.6387 -4.93719 -3.18615 0
M  V30 460 H 39.1627 -4.57402 -4.04495 0
M  V30 461 H 40.5767 -5.39888 -1.92857 0
M  V30 462 H 38.9737 -5.86144 -1.28669 0
M  V30 463 H 40.0437 -4.83904 -0.310561 0
M  V30 464 N 41.3868 0.248026 -1.55636 0
M  V30 465 C 42.3338 1.30707 -1.90222 0
M  V30 466 C 43.3038 1.47881 -0.756332 0
M  V30 467 O 44.4888 1.61883 -1.00988 0
M  V30 468 C 41.6288 2.65769 -2.20138 0
M  V30 469 C 40.7418 2.56612 -3.47526 0
M  V30 470 C 39.8768 3.8402 -3.67017 0
M  V30 471 C 38.9158 3.69476 -4.8801 0
M  V30 472 N 38.0528 4.88774 -5.04029 0
M  V30 473 H 42.8928 1.00512 -2.80538 0
M  V30 474 H 40.4298 0.485055 -1.38873 0
M  V30 475 H 42.3878 3.44386 -2.35487 0
M  V30 476 H 41.0178 2.94115 -1.33027 0
M  V30 477 H 40.0698 1.69571 -3.40514 0
M  V30 478 H 41.3818 2.41774 -4.36287 0
M  V30 479 H 40.5358 4.7108 -3.8232 0
M  V30 480 H 39.2748 4.01754 -2.76487 0
M  V30 481 H 38.2798 2.80799 -4.72686 0
M  V30 482 H 39.5048 3.53238 -5.8 0
M  V30 483 H 37.4508 5.0687 -4.16435 0
M  V30 484 H 37.3678 4.76562 -5.86877 0
M  V30 485 H 38.6358 5.77335 -5.23741 0
M  V30 486 N 42.8649 1.48995 0.513639 0
M  V30 487 C 44.0929 1.61531 1.29288 0
M  V30 488 C 44.5079 0.281801 1.86685 0
M  V30 489 O 43.8649 -0.731111 1.67215 0
M  V30 490 C 43.9159 2.67449 2.43215 0
M  V30 491 O 43.6369 3.95626 1.88179 0
M  V30 492 C 45.1379 2.90575 3.34785 0
M  V30 493 H 42.3579 0.544165 0.392588 0
M  V30 494 H 44.9019 1.9494 0.617956 0
M  V30 495 H 43.0569 2.36853 3.0656 0
M  V30 496 H 43.4709 4.53868 2.62876 0
M  V30 497 H 44.9449 3.68449 4.11035 0
M  V30 498 H 45.4219 2.00011 3.91015 0
M  V30 499 H 46.0279 3.22538 2.77218 0
M  V30 500 N 44.343 -0.763751 1.37857 0
M  V30 501 C 45.568 -1.55805 1.36893 0
M  V30 502 C 45.993 -1.88054 -0.0416135 0
M  V30 503 O 45.351 -1.49825 -1.02089 0
M  V30 504 C 45.399 -2.84012 2.22192 0
M  V30 505 O 44.503 -3.78732 1.63204 0
M  V30 506 H 43.844 -0.471638 0.46739 0
M  V30 507 H 46.374 -0.944657 1.81487 0
M  V30 508 H 46.384 -3.33037 2.35691 0
M  V30 509 H 45.059 -2.59869 3.24716 0
M  V30 510 H 43.636 -3.37402 1.58791 0
M  V30 511 N 45.8211 -1.22559 -0.990812 0
M  V30 512 C 47.0671 -1.06303 -1.73411 0
M  V30 513 C 47.4221 0.397442 -1.8825 0
M  V30 514 O 46.7151 1.29062 -1.41611 0
M  V30 515 C 46.9091 -1.71011 -3.13831 0
M  V30 516 C 46.7381 -3.232 -3.12685 0
M  V30 517 C 45.5081 -3.92314 -3.18461 0
M  V30 518 C 47.7061 -4.20107 -2.96673 0
M  V30 519 N 45.6881 -5.31571 -3.07091 0
M  V30 520 C 47.0591 -5.46208 -2.93354 0
M  V30 521 C 49.1141 -4.10973 -2.8108 0
M  V30 522 C 47.8171 -6.64225 -2.76039 0
M  V30 523 C 49.8431 -5.28642 -2.65126 0
M  V30 524 C 49.2051 -6.53663 -2.62496 0
M  V30 525 H 45.3041 -0.443441 -0.644115 0
M  V30 526 H 47.8881 -1.55131 -1.17654 0
M  V30 527 H 46.0591 -1.2473 -3.67827 0
M  V30 528 H 47.7911 -1.47828 -3.76735 0
M  V30 529 H 44.5461 -3.43326 -3.26227 0
M  V30 530 H 44.9701 -6.0455 -3.0471 0
M  V30 531 H 49.6121 -3.15098 -2.8191 0
M  V30 532 H 47.3301 -7.60246 -2.73954 0
M  V30 533 H 50.9161 -5.23407 -2.54039 0
M  V30 534 H 49.7961 -7.43182 -2.50302 0
M  V30 535 N 47.2992 1.18797 -1.03562 0
M  V30 536 C 48.5452 1.8893 -0.737113 0
M  V30 537 C 48.8782 1.79837 0.732956 0
M  V30 538 O 48.1532 1.19525 1.5344 0
M  V30 539 C 48.4362 3.39607 -1.19745 0
M  V30 540 C 48.2892 3.57537 -2.72924 0
M  V30 541 C 49.6082 4.33069 -0.783526 0
M  V30 542 H 46.7272 0.686057 -0.269249 0
M  V30 543 H 49.3692 1.39797 -1.28673 0
M  V30 544 H 47.5192 3.81583 -0.729855 0
M  V30 545 H 49.1912 3.24688 -3.27682 0
M  V30 546 H 47.4342 3.00363 -3.12993 0
M  V30 547 H 48.1052 4.63238 -3.00191 0
M  V30 548 H 50.5812 3.98846 -1.18581 0
M  V30 549 H 49.4572 5.3707 -1.13343 0
M  V30 550 H 49.7182 4.40986 0.313681 0
M  V30 551 N 48.7773 0.814389 1.34928 0
M  V30 552 C 49.7253 0.218424 2.31572 0
M  V30 553 C 50.7193 -0.636128 1.57002 0
M  V30 554 O 51.9253 -0.52842 1.72069 0
M  V30 555 H 48.3003 0.0518799 0.750208 0
M  V30 556 H 50.2713 1.04852 2.79372 0
M  V30 557 C 49.0203 -0.61207 3.4227 0
M  V30 558 H 48.3433 0.0361578 3.99784 0
M  V30 559 H 49.7833 -0.995317 4.12152 0
M  V30 560 C 48.2423 -1.78087 2.85984 0
M  V30 561 O 48.7723 -2.8787 2.80168 0
M  V30 562 N 46.9783 -1.59488 2.42924 0
M  V30 563 H 46.5253 -0.701874 2.47854 0
M  V30 564 H 46.4833 -2.37846 2.05613 0
M  V30 565 N 50.2554 -1.46986 0.568584 0
M  V30 566 C 51.4954 -2.04336 0.0512999 0
M  V30 567 C 51.8594 -1.43214 -1.27881 0
M  V30 568 O 53.0604 -1.91679 -1.88448 0
M  V30 569 C 51.3314 -3.57389 -0.0282328 0
M  V30 570 S 52.8904 -4.36056 -0.489991 0
M  V30 571 H 49.7084 -0.71034 0.0306349 0
M  V30 572 H 52.3104 -1.80212 0.757891 0
M  V30 573 H 51.0144 -3.99395 0.944011 0
M  V30 574 H 50.5454 -3.86028 -0.75803 0
M  V30 575 H 52.5604 -4.6441 -1.74752 0
M  V30 576 N 51.7335 -0.305618 -1.54608 0
M  V30 577 C 52.9585 0.307562 -2.05107 0
M  V30 578 C 53.3835 1.46385 -1.18123 0
M  V30 579 O 52.7415 1.8034 -0.186324 0
M  V30 580 C 52.7895 0.73704 -3.52987 0
M  V30 581 O 51.8935 1.84134 -3.6901 0
M  V30 582 H 51.2345 0.0589143 -0.661381 0
M  V30 583 H 53.7645 -0.448807 -1.99617 0
M  V30 584 H 53.7745 1.02459 -3.94925 0
M  V30 585 H 52.4495 -0.108773 -4.15758 0
M  V30 586 H 51.0265 1.55398 -3.38978 0
M  V30 587 N 53.2116 1.57565 -0.0334293 0
M  V30 588 C 54.1596 2.1164 0.96496 0
M  V30 589 C 55.1536 1.04398 1.33407 0
M  V30 590 O 56.3596 1.22828 1.3158 0
M  V30 591 H 52.7346 0.676222 0.32898 0
M  V30 592 H 54.7056 2.94455 0.483614 0
M  V30 593 C 53.4546 2.66207 2.23672 0
M  V30 594 H 52.7776 3.48378 1.96145 0
M  V30 595 H 54.2176 3.07685 2.9173 0
M  V30 596 C 52.6766 1.59151 2.96939 0
M  V30 597 O 53.2066 0.993858 3.89211 0
M  V30 598 N 51.4126 1.31093 2.59351 0
M  V30 599 H 50.9596 1.7988 1.84393 0
M  V30 600 H 50.9176 0.596889 3.08682 0
M  V30 601 N 54.6897 -0.239769 1.55765 0
M  V30 602 C 55.6227 -1.32356 1.85895 0
M  V30 603 C 56.6007 -1.46053 0.714662 0
M  V30 604 O 57.7847 -1.62154 0.961157 0
M  V30 605 C 54.9117 -2.6962 2.04994 0
M  V30 606 C 53.9577 -2.73036 3.27648 0
M  V30 607 S 54.7907 -2.28929 4.84099 0
M  V30 608 C 55.9467 -3.68103 5.06212 0
M  V30 609 H 56.1797 -1.06601 2.77531 0
M  V30 610 H 53.7127 -0.441112 1.47965 0
M  V30 611 H 55.6707 -3.48653 2.16682 0
M  V30 612 H 54.3317 -2.92609 1.14188 0
M  V30 613 H 53.5247 -3.7386 3.38 0
M  V30 614 H 53.1267 -2.02052 3.14723 0
M  V30 615 H 55.4187 -4.63656 4.93993 0
M  V30 616 H 56.3617 -3.6268 6.08168 0
M  V30 617 H 56.7697 -3.60947 4.34025 0
M  V30 618 N 56.1678 -1.49265 -0.50573 0
M  V30 619 C 57.4168 -1.57761 -1.25675 0
M  V30 620 C 57.7298 -0.267371 -1.93764 0
M  V30 621 O 58.9358 -0.230827 -2.70517 0
M  V30 622 C 57.3918 -2.78332 -2.28165 0
M  V30 623 C 56.9998 -4.16096 -1.66037 0
M  V30 624 C 58.7438 -2.96155 -3.04125 0
M  V30 625 C 56.6508 -5.27895 -2.6661 0
M  V30 626 H 55.5808 -0.587391 -0.472745 0
M  V30 627 H 58.2318 -1.75644 -0.53118 0
M  V30 628 H 56.6138 -2.53934 -3.03865 0
M  V30 629 H 57.7878 -4.50612 -0.963622 0
M  V30 630 H 56.1028 -4.03591 -1.02484 0
M  V30 631 H 58.6998 -3.76849 -3.79327 0
M  V30 632 H 59.0428 -2.06534 -3.61455 0
M  V30 633 H 59.5758 -3.2057 -2.35541 0
M  V30 634 H 56.3148 -6.1956 -2.14068 0
M  V30 635 H 55.8348 -4.97839 -3.34539 0
M  V30 636 H 57.5138 -5.57031 -3.29129 0
M  V30 637 N 57.6459 0.756429 -1.3826 0
M  V30 638 C 58.9229 1.50584 -1.24835 0
M  V30 639 C 59.3029 2.10556 0.151485 0
M  V30 640 O 58.6509 1.96825 1.1607 0
M  V30 641 C 58.8609 2.57448 -2.3563 0
M  V30 642 C 60.2089 3.24429 -2.73917 0
M  V30 643 O 61.2329 2.67751 -2.34921 0
M  V30 644 O 60.0919 4.26937 -3.41156 0
M  V30 645 H 57.1859 0.667664 -0.48801 0
M  V30 646 H 59.7319 0.792083 -1.5008 0
M  V30 647 H 58.5039 2.11362 -3.29305 0
M  V30 648 H 58.1269 3.36408 -2.11933 0
M  V30 649 N 59.124 1.23083 0.984299 0
M  V30 650 C 60.034 1.02515 2.11016 0
M  V30 651 C 61.05 -0.0291702 1.73976 0
M  V30 652 O 62.226 0.165434 2.00719 0
M  V30 653 C 59.291 0.614673 3.41208 0
M  V30 654 C 58.352 1.74359 3.92297 0
M  V30 655 C 57.585 1.35261 5.16275 0
M  V30 656 O 57.808 0.235136 5.69915 0
M  V30 657 O 56.742 2.17227 5.61334 0
M  V30 658 H 60.568 1.96862 2.31255 0
M  V30 659 H 58.153 1.01753 1.09392 0
M  V30 660 H 60.035 0.396518 4.1953 0
M  V30 661 H 58.71 -0.299851 3.22308 0
M  V30 662 H 57.617 2.01635 3.1511 0
M  V30 663 H 58.95 2.63629 4.15645 0
M  V30 664 N 60.6021 -1.18246 1.0419 0
M  V30 665 C 61.8511 -1.87588 0.741194 0
M  V30 666 C 62.1641 -1.81303 -0.734066 0
M  V30 667 O 63.3701 -2.46019 -1.14834 0
M  V30 668 C 61.8261 -3.36538 1.27555 0
M  V30 669 C 61.4341 -3.51349 2.77953 0
M  V30 670 C 63.1781 -4.11273 1.05143 0
M  V30 671 C 61.0851 -4.94265 3.2474 0
M  V30 672 H 60.0151 -0.702622 0.273565 0
M  V30 673 H 62.6661 -1.33601 1.25789 0
M  V30 674 H 61.0481 -3.9 0.686703 0
M  V30 675 H 62.2221 -3.08153 3.42605 0
M  V30 676 H 60.5371 -2.90022 2.98791 0
M  V30 677 H 63.1341 -5.16689 1.37611 0
M  V30 678 H 63.4771 -4.16298 -0.0112774 0
M  V30 679 H 64.0101 -3.63987 1.60495 0
M  V30 680 H 60.7491 -4.94408 4.30396 0
M  V30 681 H 60.2691 -5.38172 2.64823 0
M  V30 682 H 61.9481 -5.62987 3.18834 0
M  V30 683 N 62.0802 -0.821533 -1.34494 0
M  V30 684 C 63.3292 -0.405355 -1.97585 0
M  V30 685 C 63.6422 1.03677 -1.65863 0
M  V30 686 O 64.8482 1.55679 -2.22433 0
M  V30 687 C 63.3042 -0.673861 -3.53535 0
M  V30 688 C 62.9122 -2.12951 -3.94152 0
M  V30 689 C 64.6562 -0.32378 -4.23263 0
M  V30 690 C 62.5632 -2.34298 -5.43009 0
M  V30 691 H 61.4932 -0.147836 -0.739365 0
M  V30 692 H 64.1442 -1.00769 -1.53355 0
M  V30 693 H 62.5262 -0.00137554 -3.96 0
M  V30 694 H 63.7002 -2.84104 -3.62797 0
M  V30 695 H 62.0152 -2.44089 -3.37356 0
M  V30 696 H 64.6122 -0.461126 -5.32708 0
M  V30 697 H 64.9552 0.731586 -4.09821 0
M  V30 698 H 65.4882 -0.950786 -3.8627 0
M  V30 699 H 62.2272 -3.38335 -5.61435 0
M  V30 700 H 61.7472 -1.67687 -5.75883 0
M  V30 701 H 63.4262 -2.16588 -6.09671 0
M  V30 702 N 63.5583 1.46682 -0.576371 0
M  V30 703 C 64.7863 2.06798 -0.0649635 0
M  V30 704 C 65.2013 1.42612 1.23723 0
M  V30 705 O 64.5583 0.529203 1.74659 0
M  V30 706 C 64.6093 3.6132 0.114202 0
M  V30 707 O 64.3303 4.23104 -1.13644 0
M  V30 708 C 65.8313 4.38349 0.66069 0
M  V30 709 H 63.0513 0.668778 -0.0545616 0
M  V30 710 H 65.5953 1.88404 -0.795237 0
M  V30 711 H 63.7503 3.79162 0.794673 0
M  V30 712 H 64.1643 5.15894 -0.946253 0
M  V30 713 H 65.6383 5.47081 0.73526 0
M  V30 714 H 66.1153 4.05953 1.67627 0
M  V30 715 H 66.7213 4.25297 0.0152951 0
M  V30 716 N 65.0364 0.313813 1.54444 0
M  V30 717 C 65.9864 -0.571898 2.20711 0
M  V30 718 C 66.9704 -1.08913 1.18435 0
M  V30 719 O 68.1624 -1.02777 1.44104 0
M  V30 720 C 65.2914 -1.7371 2.96108 0
M  V30 721 C 64.3774 -1.23522 4.05713 0
M  V30 722 N 64.7684 -0.452288 5.03774 0
M  V30 723 C 63.0664 -1.51482 4.19487 0
M  V30 724 C 63.7674 -0.183438 5.81411 0
M  V30 725 N 62.7434 -0.766845 5.38164 0
M  V30 726 H 66.5454 0.0336802 2.93881 0
M  V30 727 H 64.0594 0.119192 1.61962 0
M  V30 728 H 66.0564 -2.38329 3.4206 0
M  V30 729 H 64.7164 -2.34625 2.24458 0
M  V30 730 H 65.7274 -0.0960131 5.17811 0
M  V30 731 H 62.4044 -2.13053 3.59047 0
M  V30 732 H 63.7944 0.446216 6.70417 0
M  V30 733 N 66.5145 -1.57545 0.0417849 0
M  V30 734 C 67.4445 -2.14009 -0.933929 0
M  V30 735 C 68.4255 -1.05938 -1.33083 0
M  V30 736 O 69.6105 -1.33833 -1.40721 0
M  V30 737 C 66.7405 -2.67747 -2.21199 0
M  V30 738 C 65.6945 -3.80718 -1.95544 0
M  V30 739 C 65.0205 -4.20935 -3.29724 0
M  V30 740 C 66.3205 -5.06258 -1.28452 0
M  V30 741 H 68.0145 -2.95788 -0.463645 0
M  V30 742 H 65.5605 -1.42285 -0.221573 0
M  V30 743 H 67.5135 -3.05886 -2.89848 0
M  V30 744 H 66.2375 -1.83147 -2.70416 0
M  V30 745 H 64.8965 -3.43037 -1.2931 0
M  V30 746 H 64.5445 -3.33298 -3.76724 0
M  V30 747 H 64.2445 -4.9707 -3.13361 0
M  V30 748 H 65.7685 -4.61666 -3.9962 0
M  V30 749 H 67.1825 -5.41903 -1.8712 0
M  V30 750 H 65.5795 -5.87475 -1.22445 0
M  V30 751 H 66.6495 -4.84207 -0.259219 0
M  V30 752 N 67.9926 0.231505 -1.5589 0
M  V30 753 C 68.9396 1.28682 -1.91598 0
M  V30 754 C 69.9096 1.47071 -0.771974 0
M  V30 755 O 71.0946 1.60802 -1.027 0
M  V30 756 C 68.2346 2.6342 -2.22944 0
M  V30 757 C 67.3476 2.52912 -3.50228 0
M  V30 758 C 66.4826 3.80106 -3.7107 0
M  V30 759 C 65.5216 3.64279 -4.91902 0
M  V30 760 N 64.6586 4.834 -5.09184 0
M  V30 761 H 69.4986 0.975305 -2.81588 0
M  V30 762 H 67.0356 0.470299 -1.39379 0
M  V30 763 H 68.9936 3.41869 -2.39126 0
M  V30 764 H 67.6236 2.92687 -1.36139 0
M  V30 765 H 66.6756 1.6595 -3.42294 0
M  V30 766 H 67.9876 2.37133 -4.38827 0
M  V30 767 H 67.1416 4.66999 -3.87295 0
M  V30 768 H 65.8806 3.98799 -2.80733 0
M  V30 769 H 64.8856 2.7577 -4.75637 0
M  V30 770 H 66.1106 3.47067 -5.83714 0
M  V30 771 H 64.0566 5.02425 -4.21788 0
M  V30 772 H 63.9736 4.70311 -5.91898 0
M  V30 773 H 65.2416 5.71747 -5.29835 0
M  V30 774 N 69.4707 1.49531 0.497807 0
M  V30 775 C 70.4027 1.62559 1.61578 0
M  V30 776 C 71.4157 0.508134 1.54667 0
M  V30 777 O 72.6047 0.780309 1.60541 0
M  V30 778 C 69.7047 1.56925 3.00379 0
M  V30 779 C 68.8777 2.84257 3.3244 0
M  V30 780 C 67.9367 2.71632 4.50669 0
M  V30 781 O 66.9627 3.4557 4.52294 0
M  V30 782 N 68.1647 1.83391 5.5077 0
M  V30 783 H 70.9297 2.58981 1.50828 0
M  V30 784 H 68.4907 1.4666 0.685743 0
M  V30 785 H 70.4827 1.46129 3.77397 0
M  V30 786 H 69.0527 0.683483 3.05037 0
M  V30 787 H 68.2727 3.09381 2.44289 0
M  V30 788 H 69.5607 3.68666 3.5066 0
M  V30 789 H 68.9587 1.22583 5.52259 0
M  V30 790 H 67.5157 1.78515 6.26878 0
M  V30 791 N 70.9488 -0.749086 1.3866 0
M  V30 792 C 72.3598 -1.32664 1.31366 0
M  V30 793 C 72.7108 -1.96179 -0.028484 0
M  V30 794 O 71.8358 -1.9537 -0.93057 0
M  V30 795 C 72.4308 -2.41219 2.37905 0
M  V30 796 C 70.9898 -2.94684 2.34176 0
M  V30 797 C 70.1368 -1.68108 2.20533 0
M  V30 798 H 73.0878 -0.547628 1.48952 0
M  V30 799 H 73.1088 -3.21268 2.0388 0
M  V30 800 H 72.6208 -1.94962 3.35576 0
M  V30 801 H 70.7218 -3.45258 1.401 0
M  V30 802 H 70.8348 -3.48757 3.2849 0
M  V30 803 H 69.1988 -1.91907 1.67463 0
M  V30 804 H 69.9818 -1.23923 3.20153 0
M  V30 805 N 72.4269 -1.23603 -0.977757 0
M  V30 806 C 73.8379 -1.06424 -1.53398 0
M  V30 807 C 74.1889 0.367578 -1.92726 0
M  V30 808 O 73.3139 1.25465 -1.76316 0
M  V30 809 C 73.9089 -1.92568 -2.78753 0
M  V30 810 C 72.4679 -1.79642 -3.30765 0
M  V30 811 C 71.6149 -1.88111 -2.03739 0
M  V30 812 H 74.5659 -1.37227 -0.797152 0
M  V30 813 H 74.5869 -1.45203 -3.51705 0
M  V30 814 H 74.0989 -2.96771 -2.50098 0
M  V30 815 H 72.1999 -0.782325 -3.64294 0
M  V30 816 H 72.3129 -2.63174 -4.00345 0
M  V30 817 H 70.6769 -1.31723 -2.17994 0
M  V30 818 H 71.4599 -2.93875 -1.77461 0
M  V30 819 N 73.905 1.17692 -1.04816 0
M  V30 820 C 74.835 2.23777 -0.666791 0
M  V30 821 C 75.816 1.66796 0.33361 0
M  V30 822 O 77.001 1.93039 0.212042 0
M  V30 823 C 74.131 3.47281 -0.0367933 0
M  V30 824 C 73.085 4.17059 -0.961546 0
M  V30 825 C 72.411 5.34342 -0.195626 0
M  V30 826 C 73.711 4.69713 -2.28402 0
M  V30 827 H 75.405 2.55933 -1.55367 0
M  V30 828 H 72.951 1.23019 -0.748484 0
M  V30 829 H 74.904 4.20706 0.241775 0
M  V30 830 H 73.628 3.14381 0.885004 0
M  V30 831 H 72.287 3.45541 -1.22462 0
M  V30 832 H 71.935 4.97692 0.728816 0
M  V30 833 H 71.635 5.81966 -0.811775 0
M  V30 834 H 73.159 6.10553 0.0757473 0
M  V30 835 H 74.573 5.34794 -2.06563 0
M  V30 836 H 72.97 5.279 -2.8538 0
M  V30 837 H 74.04 3.86726 -2.92525 0
M  V30 838 N 75.3831 0.828654 1.34056 0
M  V30 839 C 76.7941 0.477534 1.8049 0
M  V30 840 C 77.1451 -1.00258 1.6865 0
M  V30 841 O 76.2701 -1.78057 1.22982 0
M  V30 842 C 76.8651 0.860018 3.27703 0
M  V30 843 C 75.4241 0.561185 3.72193 0
M  V30 844 C 74.5711 1.07385 2.55663 0
M  V30 845 H 77.5221 1.0183 1.21722 0
M  V30 846 H 77.5431 0.166038 3.80138 0
M  V30 847 H 77.0551 1.93731 3.36288 0
M  V30 848 H 75.1561 -0.506465 3.69142 0
M  V30 849 H 75.2691 1.10926 4.66082 0
M  V30 850 H 73.6331 0.495149 2.49841 0
M  V30 851 H 74.4161 2.15771 2.67016 0
M  V30 852 N 76.8612 -1.46375 0.584142 0
M  V30 853 C 77.7912 -2.33103 -0.136037 0
M  V30 854 C 78.7722 -1.45431 -0.882255 0
M  V30 855 O 79.9572 -1.74246 -0.857434 0
M  V30 856 C 77.0872 -3.27731 -1.14933 0
M  V30 857 C 76.0412 -4.24855 -0.517862 0
M  V30 858 C 75.3672 -5.09001 -1.63773 0
M  V30 859 C 76.6672 -5.19439 0.545886 0
M  V30 860 H 78.3612 -2.93568 0.588086 0
M  V30 861 H 75.9072 -1.41166 0.284259 0
M  V30 862 H 77.8602 -3.87261 -1.66153 0
M  V30 863 H 76.5842 -2.65377 -1.90375 0
M  V30 864 H 75.2432 -3.6659 -0.0267361 0
M  V30 865 H 74.8912 -4.43031 -2.38185 0
M  V30 866 H 74.5912 -5.74777 -1.22085 0
M  V30 867 H 76.1152 -5.71396 -2.15266 0
M  V30 868 H 77.5292 -5.73177 0.118704 0
M  V30 869 H 75.9262 -5.93566 0.88317 0
M  V30 870 H 76.9962 -4.63285 1.43162 0
M  V30 871 N 78.3393 -0.321999 -1.54275 0
M  V30 872 C 79.2693 0.537411 -2.27231 0
M  V30 873 C 80.2503 1.12064 -1.27968 0
M  V30 874 O 81.4353 1.14606 -1.56777 0
M  V30 875 C 78.5653 1.69919 -3.02894 0
M  V30 876 C 77.5193 1.24534 -4.09482 0
M  V30 877 C 76.8453 2.49394 -4.72977 0
M  V30 878 C 78.1453 0.361335 -5.21049 0
M  V30 879 H 79.8393 -0.0711406 -2.99315 0
M  V30 880 H 77.3853 -0.0356555 -1.43956 0
M  V30 881 H 79.3383 2.30668 -3.52662 0
M  V30 882 H 78.0623 2.33431 -2.28424 0
M  V30 883 H 76.7213 0.660782 -3.60596 0
M  V30 884 H 76.3693 3.11265 -3.95124 0
M  V30 885 H 76.0693 2.19718 -5.44975 0
M  V30 886 H 77.5933 3.10908 -5.25517 0
M  V30 887 H 79.0073 0.875072 -5.66582 0
M  V30 888 H 77.4043 0.157428 -5.99893 0
M  V30 889 H 78.4743 -0.60822 -4.8107 0
M  V30 890 N 79.8174 1.5752 -0.0501392 0
M  V30 891 C 81.0944 1.83996 0.663685 0
M  V30 892 C 81.4744 0.938339 1.89099 0
M  V30 893 O 80.8224 -0.00087759 2.285 0
M  V30 894 C 81.0324 3.33702 1.02196 0
M  V30 895 C 82.3804 4.00691 1.40469 0
M  V30 896 O 83.4044 3.38321 1.11433 0
M  V30 897 O 82.2634 5.10658 1.94654 0
M  V30 898 H 79.3574 0.759385 0.32751 0
M  V30 899 H 81.9034 1.69514 -0.0794238 0
M  V30 900 H 80.6754 3.91015 0.149364 0
M  V30 901 H 80.2984 3.53368 1.82255 0
M  V30 902 N 81.2955 -0.223234 1.56011 0
M  V30 903 C 82.5425 -0.947875 1.78946 0
M  V30 904 C 82.8705 -1.844 0.618608 0
M  V30 905 O 82.1255 -1.91629 -0.397093 0
M  V30 906 C 82.4245 -1.81948 3.0762 0
M  V30 907 C 82.0905 -1.07672 4.37856 0
M  V30 908 C 80.7525 -0.871544 4.73242 0
M  V30 909 C 83.1045 -0.552081 5.18268 0
M  V30 910 C 80.4325 -0.129791 5.86556 0
M  V30 911 C 82.7845 0.17632 6.32354 0
M  V30 912 C 81.4485 0.39277 6.66343 0
M  V30 913 H 80.7185 -0.346852 0.654809 0
M  V30 914 H 83.3655 -0.216171 1.90276 0
M  V30 915 H 81.6705 -2.61899 2.91404 0
M  V30 916 H 83.3675 -2.38227 3.22566 0
M  V30 917 H 79.9575 -1.24662 4.1007 0
M  V30 918 H 84.1415 -0.698076 4.91366 0
M  V30 919 H 79.3975 0.048153 6.11381 0
M  V30 920 H 83.5715 0.590367 6.93893 0
M  V30 921 H 81.1985 0.969466 7.53993 0
M  V30 922 N 82.7736 -1.49793 -0.48987 0
M  V30 923 C 83.7216 -1.67783 -1.61095 0
M  V30 924 C 84.7156 -0.543683 -1.60438 0
M  V30 925 O 85.9216 -0.723647 -1.64813 0
M  V30 926 H 82.2966 -0.529255 -0.534222 0
M  V30 927 H 84.2676 -2.61861 -1.43078 0
M  V30 928 C 83.0166 -1.77191 -2.99164 0
M  V30 929 H 82.3396 -2.63841 -3.0038 0
M  V30 930 H 83.7796 -1.93809 -3.77113 0
M  V30 931 C 82.2386 -0.519203 -3.32875 0
M  V30 932 O 82.7686 0.350124 -4.00171 0
M  V30 933 N 80.9746 -0.378816 -2.8812 0
M  V30 934 H 80.5216 -1.08725 -2.33531 0
M  V30 935 H 80.4796 0.458239 -3.11043 0
M  V30 936 N 84.2517 0.741722 -1.39055 0
M  V30 937 C 85.1997 1.87702 -1.3737 0
M  V30 938 C 86.1937 1.67427 -0.257812 0
M  V30 939 O 87.3997 1.7485 -0.427489 0
M  V30 940 H 83.7747 0.617757 -0.428812 0
M  V30 941 H 85.7457 1.86239 -2.33147 0
M  V30 942 C 84.4947 3.25315 -1.22741 0
M  V30 943 H 83.8177 3.41509 -2.07873 0
M  V30 944 H 85.2577 4.04964 -1.25618 0
M  V30 945 C 83.7167 3.36838 0.0647316 0
M  V30 946 O 84.2467 3.88073 1.03741 0
M  V30 947 N 82.4527 2.90329 0.125544 0
M  V30 948 H 81.9997 2.48823 -0.666682 0
M  V30 949 H 81.9577 2.98418 0.989639 0
M  V30 950 N 85.7298 1.2412 0.971189 0
M  V30 951 C 86.6598 1.05508 2.08304 0
M  V30 952 C 87.6408 -0.0308864 1.70072 0
M  V30 953 O 88.8258 0.135521 1.93727 0
M  V30 954 C 85.9558 0.655365 3.4106 0
M  V30 955 C 84.9098 1.68971 3.93234 0
M  V30 956 C 84.2358 1.14516 5.22293 0
M  V30 957 C 85.5358 3.08487 4.21465 0
M  V30 958 H 87.2298 1.98507 2.24132 0
M  V30 959 H 84.7758 0.955821 1.07704 0
M  V30 960 H 86.7288 0.51217 4.18276 0
M  V30 961 H 85.4528 -0.31032 3.25122 0
M  V30 962 H 84.1118 1.82106 3.18171 0
M  V30 963 H 83.7598 0.170189 5.02712 0
M  V30 964 H 83.4598 1.83635 5.58168 0
M  V30 965 H 84.9838 1.01401 6.02121 0
M  V30 966 H 86.3978 2.98601 4.89398 0
M  V30 967 H 84.7948 3.74926 4.68562 0
M  V30 968 H 85.8648 3.56787 3.28376 0
M  V30 969 N 87.2079 -1.17134 1.05439 0
M  V30 970 C 88.1559 -2.23289 0.651511 0
M  V30 971 C 89.1499 -1.66186 -0.328411 0
M  V30 972 O 90.3559 -1.78949 -0.194206 0
M  V30 973 H 86.7309 -0.726938 0.192523 0
M  V30 974 H 88.7019 -2.54565 1.55689 0
M  V30 975 C 87.4509 -3.47671 0.0448436 0
M  V30 976 H 86.7739 -3.91918 0.78996 0
M  V30 977 H 88.2139 -4.2353 -0.19964 0
M  V30 978 C 86.6729 -3.14453 -1.20918 0
M  V30 979 O 87.2029 -3.29459 -2.29825 0
M  V30 980 N 85.4089 -2.68657 -1.10779 0
M  V30 981 H 84.9559 -2.56646 -0.221526 0
M  V30 982 H 84.9139 -2.46804 -1.9477 0
M  V30 983 N 88.686 -0.835752 -1.33615 0
M  V30 984 C 89.934 -0.429109 -1.97492 0
M  V30 985 C 90.255 1.01433 -1.66543 0
M  V30 986 O 89.525 1.70611 -0.962744 0
M  V30 987 H 88.105 -0.155686 -0.730596 0
M  V30 988 H 90.767 -1.06802 -1.63031 0
M  V30 989 H 89.863 -0.55861 -3.0706 0
M  V30 990 N 90.1641 1.46063 -0.591896 0
M  V30 991 C 91.0741 2.34192 0.13831 0
M  V30 992 C 92.0901 1.50305 0.876608 0
M  V30 993 O 93.2661 1.8315 0.837728 0
M  V30 994 C 90.3311 3.27656 1.13326 0
M  V30 995 C 89.3921 4.27445 0.39863 0
M  V30 996 C 88.6251 5.16443 1.34618 0
M  V30 997 O 88.8481 5.08553 2.58321 0
M  V30 998 O 87.7821 5.95843 0.851768 0
M  V30 999 H 91.6081 2.98002 -0.58552 0
M  V30 1000 H 89.1931 1.45188 -0.352239 0
M  V30 1001 H 91.0751 3.85291 1.70671 0
M  V30 1002 H 89.7501 2.6643 1.83839 0
M  V30 1003 H 88.6571 3.73471 -0.216895 0
M  V30 1004 H 89.9901 4.91482 -0.265709 0
M  V30 1005 N 91.6422 0.330177 1.54103 0
M  V30 1006 C 92.9192 -0.325007 1.92881 0
M  V30 1007 C 93.2992 -1.6934 1.26045 0
M  V30 1008 O 92.6472 -2.24855 0.406526 0
M  V30 1009 C 92.8572 -0.410634 3.46576 0
M  V30 1010 C 94.2052 -0.667801 4.19316 0
M  V30 1011 O 95.2292 -0.49329 3.52768 0
M  V30 1012 O 94.0882 -1.00491 5.37181 0
M  V30 1013 H 91.1822 -0.186873 0.80561 0
M  V30 1014 H 93.7282 0.380376 1.65382 0
M  V30 1015 H 92.5002 0.550164 3.87413 0
M  V30 1016 H 92.1232 -1.16333 3.802 0
M  V30 1017 N 93.1203 -1.57491 0.0584922 0
M  V30 1018 C 94.0523 -2.08916 -0.942694 0
M  V30 1019 C 95.0653 -1.0185 -1.27006 0
M  V30 1020 O 96.2543 -1.29398 -1.22957 0
M  V30 1021 C 93.3543 -2.52341 -2.26224 0
M  V30 1022 C 92.5273 -3.82827 -2.1157 0
M  V30 1023 C 91.5863 -4.12487 -3.26712 0
M  V30 1024 O 90.6123 -4.82295 -3.02292 0
M  V30 1025 N 91.8143 -3.64978 -4.5141 0
M  V30 1026 H 94.5793 -2.95437 -0.503722 0
M  V30 1027 H 92.1403 -1.61397 -0.12757 0
M  V30 1028 H 94.1323 -2.69254 -3.02133 0
M  V30 1029 H 92.7023 -1.7103 -2.61663 0
M  V30 1030 H 91.9223 -3.75425 -1.20208 0
M  V30 1031 H 93.2103 -4.68263 -1.99015 0
M  V30 1032 H 92.6083 -3.08558 -4.7414 0
M  V30 1033 H 91.1653 -3.87115 -5.2439 0
M  V30 1034 N 94.5984 0.214957 -1.56127 0
M  V30 1035 C 95.8754 0.963093 -1.70247 0
M  V30 1036 C 96.2554 2.02166 -0.60764 0
M  V30 1037 O 95.6034 2.25244 0.384385 0
M  V30 1038 C 95.8134 1.56756 -3.11815 0
M  V30 1039 C 97.1614 2.0573 -3.7143 0
M  V30 1040 O 98.1854 1.66637 -3.14818 0
M  V30 1041 O 97.0444 2.77603 -4.70743 0
M  V30 1042 H 94.1384 0.450321 -0.693643 0
M  V30 1043 H 96.6844 0.206219 -1.68442 0
M  V30 1044 H 95.4564 0.803533 -3.82961 0
M  V30 1045 H 95.0794 2.3898 -3.17765 0
M  V30 1046 N 96.0765 1.50051 0.48192 0
M  V30 1047 C 97.3255 1.59741 1.23149 0
M  V30 1048 C 97.6385 0.298163 1.93314 0
M  V30 1049 O 98.8445 0.273835 2.70116 0
M  V30 1050 C 97.3005 2.81926 2.23708 0
M  V30 1051 C 96.9085 4.18685 1.59396 0
M  V30 1052 C 98.6525 3.00956 2.99375 0
M  V30 1053 C 96.5595 5.3207 2.58178 0
M  V30 1054 H 95.4895 0.594838 0.46334 0
M  V30 1055 H 98.1405 1.76467 0.503169 0
M  V30 1056 H 96.5225 2.58736 2.99786 0
M  V30 1057 H 97.6965 4.52088 0.891811 0
M  V30 1058 H 96.0115 4.05171 0.960503 0
M  V30 1059 H 98.6085 3.82836 3.73283 0
M  V30 1060 H 98.9515 2.12258 3.58123 0
M  V30 1061 H 99.4845 3.24277 2.30411 0
M  V30 1062 H 96.2235 6.22888 2.04184 0
M  V30 1063 H 95.7435 5.03098 3.26577 0
M  V30 1064 H 97.4225 5.62196 3.20225 0
M  V30 1065 N 97.5546 -0.734337 1.39446 0
M  V30 1066 C 98.4846 -1.86155 1.40955 0
M  V30 1067 C 99.4656 -1.67898 0.272827 0
M  V30 1068 O 100.651 -1.88207 0.478743 0
M  V30 1069 C 97.7806 -3.23912 1.25294 0
M  V30 1070 C 96.7346 -3.56808 2.36373 0
M  V30 1071 C 96.0606 -4.93508 2.058 0
M  V30 1072 C 97.3606 -3.59713 3.78687 0
M  V30 1073 H 99.0546 -1.8515 2.35287 0
M  V30 1074 H 96.6006 -0.889367 1.13253 0
M  V30 1075 H 98.5536 -4.02443 1.2497 0
M  V30 1076 H 97.2776 -3.25446 0.274308 0
M  V30 1077 H 95.9366 -2.80606 2.35914 0
M  V30 1078 H 95.5846 -4.91623 1.06374 0
M  V30 1079 H 95.2846 -5.16486 2.80208 0
M  V30 1080 H 96.8086 -5.74396 2.07128 0
M  V30 1081 H 98.2226 -4.2832 3.81071 0
M  V30 1082 H 96.6196 -3.94209 4.52459 0
M  V30 1083 H 97.6896 -2.59504 4.09617 0
M  V30 1084 N 99.0327 -1.24633 -0.964593 0
M  V30 1085 C 99.9657 -0.984662 -2.05863 0
M  V30 1086 C 100.944 0.0826554 -1.6239 0
M  V30 1087 O 102.128 -0.0549296 -1.8842 0
M  V30 1088 C 99.2547 -0.486529 -3.35187 0
M  V30 1089 C 98.3007 -1.54286 -3.97615 0
M  V30 1090 S 99.1337 -3.12513 -4.34851 0
M  V30 1091 C 100.29 -2.6441 -5.67308 0
M  V30 1092 H 100.523 -1.91104 -2.27743 0
M  V30 1093 H 98.0557 -1.08052 -1.10291 0
M  V30 1094 H 100.014 -0.205757 -4.09984 0
M  V30 1095 H 98.6747 0.419186 -3.1129 0
M  V30 1096 H 97.8677 -1.14481 -4.90826 0
M  V30 1097 H 97.4697 -1.7738 -3.2926 0
M  V30 1098 H 99.7617 -2.07416 -6.44969 0
M  V30 1099 H 100.705 -3.56222 -6.11973 0
M  V30 1100 H 101.113 -2.04734 -5.26065 0
M  V30 1101 N 100.511 1.16574 -1.06058 0
M  V30 1102 C 101.421 2.2452 -0.680282 0
M  V30 1103 C 102.437 1.71348 0.302604 0
M  V30 1104 O 103.613 2.00822 0.152513 0
M  V30 1105 C 100.678 3.46629 -0.0700315 0
M  V30 1106 C 99.7388 4.14849 -1.10448 0
M  V30 1107 C 98.9718 5.31129 -0.523256 0
M  V30 1108 O 99.1948 5.66514 0.664709 0
M  V30 1109 O 98.1288 5.88526 -1.26179 0
M  V30 1110 H 101.955 2.59355 -1.58015 0
M  V30 1111 H 99.5398 1.24043 -0.832694 0
M  V30 1112 H 101.422 4.20543 0.268667 0
M  V30 1113 H 100.097 3.13573 0.803353 0
M  V30 1114 H 99.0038 3.42916 -1.49532 0
M  V30 1115 H 100.337 4.51954 -1.94931 0
M  V30 1116 N 101.989 0.842826 1.3317 0
M  V30 1117 C 102.937 0.267495 2.31057 0
M  V30 1118 C 103.931 -0.602682 1.58316 0
M  V30 1119 O 105.137 -0.491803 1.73151 0
M  V30 1120 H 101.512 0.0677813 0.748939 0
M  V30 1121 H 103.483 1.10754 2.77085 0
M  V30 1122 C 102.232 -0.539331 3.43492 0
M  V30 1123 H 101.555 0.12095 3.99617 0
M  V30 1124 H 102.995 -0.90767 4.14171 0
M  V30 1125 C 101.454 -1.71981 2.89697 0
M  V30 1126 O 101.984 -2.81862 2.86211 0
M  V30 1127 N 100.19 -1.54299 2.46252 0
M  V30 1128 H 99.7369 -0.649143 2.49287 0
M  V30 1129 H 99.6949 -2.33431 2.10612 0
M  V30 1130 N 103.467 -1.45747 0.599634 0
M  V30 1131 C 104.415 -2.322 -0.136426 0
M  V30 1132 C 105.409 -1.45497 -0.867583 0
M  V30 1133 O 106.615 -1.62027 -0.78405 0
M  V30 1134 H 102.99 -0.749368 -0.0628588 0
M  V30 1135 H 104.961 -2.92072 0.611281 0
M  V30 1136 C 103.71 -3.28974 -1.12567 0
M  V30 1137 H 103.033 -3.9568 -0.572484 0
M  V30 1138 H 104.473 -3.92212 -1.61077 0
M  V30 1139 C 102.932 -2.55561 -2.19523 0
M  V30 1140 O 103.462 -2.33111 -3.27143 0
M  V30 1141 N 101.668 -2.15832 -1.94589 0
M  V30 1142 H 101.215 -2.3429 -1.07078 0
M  V30 1143 H 101.173 -1.67034 -2.66359 0
M  V30 1144 N 104.945 -0.338344 -1.53925 0
M  V30 1145 C 105.875 0.51328 -2.27789 0
M  V30 1146 C 106.856 1.107 -1.29149 0
M  V30 1147 O 108.041 1.12937 -1.57984 0
M  V30 1148 C 105.171 1.66697 -3.04679 0
M  V30 1149 C 104.125 1.20183 -4.1078 0
M  V30 1150 C 103.451 2.44363 -4.75595 0
M  V30 1151 C 104.751 0.30605 -5.21403 0
M  V30 1152 H 106.445 -0.102883 -2.99223 0
M  V30 1153 H 103.991 -0.0509219 -1.4391 0
M  V30 1154 H 105.944 2.26915 -3.55088 0
M  V30 1155 H 104.668 2.30995 -2.30887 0
M  V30 1156 H 103.327 0.622499 -3.61276 0
M  V30 1157 H 102.975 3.07057 -3.98403 0
M  V30 1158 H 102.675 2.13925 -5.47275 0
M  V30 1159 H 104.199 3.05317 -5.28786 0
M  V30 1160 H 105.613 0.814929 -5.67478 0
M  V30 1161 H 104.01 0.0937929 -6.00027 0
M  V30 1162 H 105.08 -0.65921 -4.80398 0
M  V30 1163 N 106.423 1.57458 -0.0668435 0
M  V30 1164 C 107.839 1.56947 0.289772 0
M  V30 1165 C 108.039 1.07584 1.70376 0
M  V30 1166 O 107.095 0.739486 2.41429 0
M  V30 1167 C 108.408 3.0052 0.103943 0
M  V30 1168 C 109.956 3.12517 0.173857 0
M  V30 1169 C 110.431 4.57997 0.0163682 0
M  V30 1170 N 111.922 4.63144 0.0721352 0
M  V30 1171 C 112.657 5.73394 -0.0253794 0
M  V30 1172 N 112.153 6.92576 -0.176133 0
M  V30 1173 N 113.946 5.62091 0.0313305 0
M  V30 1174 H 106.097 1.87863 -0.991027 0
M  V30 1175 H 108.36 0.86583 -0.38606 0
M  V30 1176 H 108.066 3.40729 -0.871572 0
M  V30 1177 H 107.94 3.67304 0.858366 0
M  V30 1178 H 110.327 2.72197 1.13985 0
M  V30 1179 H 110.408 2.48381 -0.611586 0
M  V30 1180 H 110.052 4.99005 -0.946374 0
M  V30 1181 H 109.982 5.20158 0.821153 0
M  V30 1182 H 112.473 3.77436 0.187263 0
M  V30 1183 H 112.786 7.72418 -0.242821 0
M  V30 1184 H 111.131 6.94678 -0.211429 0
M  V30 1185 H 114.322 4.67867 0.147773 0
M  V30 1186 H 114.495 6.47982 -0.048121 0
M  V30 1187 N 107.901 -0.206675 1.56239 0
M  V30 1188 C 109.317 -0.557025 1.49564 0
M  V30 1189 C 109.517 -1.86424 0.764735 0
M  V30 1190 O 108.573 -2.50584 0.310491 0
M  V30 1191 C 109.886 -0.622478 2.94186 0
M  V30 1192 C 111.434 -0.712099 3.04792 0
M  V30 1193 C 111.909 -0.808767 4.50803 0
M  V30 1194 N 113.4 -0.8726 4.54907 0
M  V30 1195 C 114.135 -0.967365 5.65181 0
M  V30 1196 N 113.631 -1.02515 6.85173 0
M  V30 1197 N 115.424 -1.00366 5.53067 0
M  V30 1198 H 107.575 0.650943 2.02179 0
M  V30 1199 H 109.838 0.230387 0.919579 0
M  V30 1200 H 109.544 0.268727 3.50672 0
M  V30 1201 H 109.418 -1.4811 3.46905 0
M  V30 1202 H 111.805 -1.59374 2.48363 0
M  V30 1203 H 111.886 0.172489 2.55218 0
M  V30 1204 H 111.53 0.0684754 5.07854 0
M  V30 1205 H 111.46 -1.70899 4.98098 0
M  V30 1206 H 113.951 -0.837657 3.68499 0
M  V30 1207 H 114.264 -1.09765 7.64965 0
M  V30 1208 H 112.609 -0.994026 6.87855 0
M  V30 1209 H 115.8 -0.95527 4.58249 0
M  V30 1210 H 115.973 -1.07405 6.39037 0
M  V30 1211 N 109.379 -1.50304 -0.473955 0
M  V30 1212 C 110.79 -1.54042 -1.0549 0
M  V30 1213 C 111.141 -0.342248 -1.93192 0
M  V30 1214 O 110.266 0.545157 -2.09421 0
M  V30 1215 C 110.861 -2.79152 -1.91989 0
M  V30 1216 C 109.42 -2.8558 -2.45196 0
M  V30 1217 C 108.567 -2.48295 -1.2347 0
M  V30 1218 H 111.518 -1.5661 -0.256693 0
M  V30 1219 H 111.539 -2.60845 -2.7702 0
M  V30 1220 H 111.051 -3.66339 -1.28131 0
M  V30 1221 H 109.152 -2.02738 -3.12615 0
M  V30 1222 H 109.265 -3.88403 -2.80499 0
M  V30 1223 H 107.629 -2.00669 -1.56856 0
M  V30 1224 H 108.412 -3.37787 -0.612789 0
M  V30 1225 N 110.857 0.726932 -1.39834 0
M  V30 1226 C 111.805 1.86235 -1.39353 0
M  V30 1227 C 112.799 1.67144 -0.275555 0
M  V30 1228 O 114.005 1.74387 -0.44601 0
M  V30 1229 H 110.38 0.613174 -0.43534 0
M  V30 1230 H 112.351 1.83756 -2.35109 0
M  V30 1231 C 111.1 3.23995 -1.26185 0
M  V30 1232 H 110.423 3.39285 -2.11484 0
M  V30 1233 H 111.863 4.03609 -1.29907 0
M  V30 1234 C 110.322 3.36888 0.0290018 0
M  V30 1235 O 110.852 3.89152 0.99619 0
M  V30 1236 N 109.058 2.90446 0.0947437 0
M  V30 1237 H 108.605 2.48102 -0.693035 0
M  V30 1238 H 108.563 2.99451 0.957932 0
M  V30 1239 N 112.336 1.25143 0.95797 0
M  V30 1240 C 113.266 1.07711 2.07173 0
M  V30 1241 C 114.247 -0.0128462 1.70095 0
M  V30 1242 O 115.432 0.156061 1.93572 0
M  V30 1243 C 112.562 0.691503 3.40346 0
M  V30 1244 C 111.516 1.73132 3.9142 0
M  V30 1245 C 110.842 1.20049 5.21049 0
M  V30 1246 C 112.142 3.1294 4.1817 0
M  V30 1247 H 113.836 2.00873 2.22014 0
M  V30 1248 H 111.382 0.967191 1.06684 0
M  V30 1249 H 113.335 0.556505 4.17709 0
M  V30 1250 H 112.059 -0.275819 3.25433 0
M  V30 1251 H 110.718 1.8547 3.16222 0
M  V30 1252 H 110.366 0.223499 5.02503 0
M  V30 1253 H 110.066 1.89545 5.56189 0
M  V30 1254 H 111.59 1.07782 6.01012 0
M  V30 1255 H 113.004 3.03775 4.86203 0
M  V30 1256 H 111.401 3.79875 4.64559 0
M  V30 1257 H 112.471 3.6025 3.24573 0
M  V30 1258 N 113.814 -1.1601 1.06675 0
M  V30 1259 C 114.724 -2.24156 0.692179 0
M  V30 1260 C 115.74 -1.71507 -0.293513 0
M  V30 1261 O 116.916 -2.009 -0.141861 0
M  V30 1262 C 113.981 -3.46587 0.0884131 0
M  V30 1263 C 113.042 -4.14257 1.12646 0
M  V30 1264 C 112.275 -5.30844 0.551416 0
M  V30 1265 O 112.498 -5.66858 -0.634656 0
M  V30 1266 O 111.432 -5.87848 1.29298 0
M  V30 1267 H 115.258 -2.58513 1.59388 0
M  V30 1268 H 112.843 -1.23599 0.83926 0
M  V30 1269 H 114.725 -4.20679 -0.246361 0
M  V30 1270 H 113.4 -3.13994 -0.786712 0
M  V30 1271 H 112.307 -3.42118 1.51348 0
M  V30 1272 H 113.64 -4.50914 1.97325 0
M  V30 1273 N 115.292 -0.849877 -1.32721 0
M  V30 1274 C 116.255 -0.296122 -2.27279 0
M  V30 1275 C 117.255 0.541458 -1.5141 0
M  V30 1276 O 118.445 0.353658 -1.70572 0
M  V30 1277 C 115.577 0.581579 -3.35902 0
M  V30 1278 H 116.77 -1.13064 -2.77771 0
M  V30 1279 H 114.323 -0.62383 -1.43311 0
M  V30 1280 H 115.058 1.43809 -2.9067 0
M  V30 1281 H 114.843 -0.0178814 -3.92096 0
M  V30 1282 H 116.333 0.961951 -4.0637 0
M  V30 1283 N 116.77 1.45427 -0.607355 0
M  V30 1284 C 118.017 2.02241 -0.102455 0
M  V30 1285 C 118.345 1.4758 1.26691 0
M  V30 1286 O 117.6 0.640468 1.84923 0
M  V30 1287 C 117.899 3.57398 -0.0129263 0
M  V30 1288 C 117.565 4.3121 -1.31792 0
M  V30 1289 C 116.227 4.51092 -1.67539 0
M  V30 1290 C 118.579 4.73401 -2.18039 0
M  V30 1291 C 115.907 5.10422 -2.89285 0
M  V30 1292 C 118.259 5.34078 -3.39034 0
M  V30 1293 C 116.923 5.52184 -3.75033 0
M  V30 1294 H 116.193 0.740051 -0.037491 0
M  V30 1295 H 118.84 1.74494 -0.788926 0
M  V30 1296 H 117.145 3.84421 0.756806 0
M  V30 1297 H 118.842 3.99061 0.393881 0
M  V30 1298 H 115.432 4.16047 -1.02968 0
M  V30 1299 H 119.616 4.57774 -1.91721 0
M  V30 1300 H 114.872 5.22629 -3.17283 0
M  V30 1301 H 119.046 5.65724 -4.06115 0
M  V30 1302 H 116.673 5.97925 -4.69457 0
M  V30 1303 N 118.248 0.346503 1.53744 0
M  V30 1304 C 119.196 -0.52422 2.26616 0
M  V30 1305 C 120.19 -1.09948 1.28871 0
M  V30 1306 O 121.396 -1.04488 1.46568 0
M  V30 1307 H 117.771 -0.187743 0.728187 0
M  V30 1308 H 119.742 0.11239 2.98188 0
M  V30 1309 C 118.491 -1.66186 3.05414 0
M  V30 1310 H 117.814 -1.22848 3.80458 0
M  V30 1311 H 119.254 -2.24622 3.59612 0
M  V30 1312 C 117.713 -2.59302 2.1509 0
M  V30 1313 O 118.243 -3.61628 1.74895 0
M  V30 1314 N 116.449 -2.28055 1.8011 0
M  V30 1315 H 115.996 -1.44883 2.12994 0
M  V30 1316 H 115.954 -2.90615 1.19958 0
M  V30 1317 N 119.726 -1.57421 0.075193 0
M  V30 1318 C 121.142 -1.57099 -0.281444 0
M  V30 1319 C 121.342 -1.08486 -1.69803 0
M  V30 1320 O 120.398 -0.752279 -2.41033 0
M  V30 1321 C 121.711 -3.00571 -0.0880041 0
M  V30 1322 C 123.259 -3.12605 -0.157281 0
M  V30 1323 C 123.734 -4.57999 0.0079207 0
M  V30 1324 N 125.225 -4.63176 -0.0475725 0
M  V30 1325 C 125.96 -5.73373 0.0557876 0
M  V30 1326 N 125.456 -6.92473 0.21286 0
M  V30 1327 N 127.249 -5.621 -0.00152098 0
M  V30 1328 H 119.4 -1.87335 1.00098 0
M  V30 1329 H 121.663 -0.86377 0.390646 0
M  V30 1330 H 121.369 -3.40262 0.889629 0
M  V30 1331 H 121.243 -3.67754 -0.838875 0
M  V30 1332 H 123.63 -2.72798 -1.1254 0
M  V30 1333 H 123.711 -2.48053 0.62475 0
M  V30 1334 H 123.355 -4.98496 0.972824 0
M  V30 1335 H 123.285 -5.20586 -0.793556 0
M  V30 1336 H 125.776 -3.7753 -0.167244 0
M  V30 1337 H 126.089 -7.72279 0.283781 0
M  V30 1338 H 124.434 -6.94556 0.248267 0
M  V30 1339 H 127.625 -4.67938 -0.122958 0
M  V30 1340 H 127.798 -6.47948 0.0824844 0
M  V30 1341 N 121.204 0.198386 -1.56346 0
M  V30 1342 C 122.167 1.22952 -1.93431 0
M  V30 1343 C 123.167 1.38611 -0.815092 0
M  V30 1344 O 124.357 1.36479 -1.08255 0
M  V30 1345 C 121.489 2.59946 -2.20546 0
M  V30 1346 H 122.682 0.912626 -2.85677 0
M  V30 1347 H 120.235 0.43977 -1.49986 0
M  V30 1348 H 120.97 2.96696 -1.30927 0
M  V30 1349 H 120.755 2.49953 -3.02102 0
M  V30 1350 H 122.245 3.3431 -2.50253 0
M  V30 1351 N 122.682 1.50554 0.465978 0
M  V30 1352 C 123.928 1.62038 1.21949 0
M  V30 1353 C 124.261 0.322116 1.9151 0
M  V30 1354 O 123.536 -0.676723 1.82348 0
M  V30 1355 C 123.819 2.80421 2.25912 0
M  V30 1356 C 123.672 4.20144 1.60622 0
M  V30 1357 C 124.991 2.94354 3.27176 0
M  V30 1358 H 122.11 0.589752 0.441998 0
M  V30 1359 H 124.752 1.82956 0.51257 0
M  V30 1360 H 122.902 2.62717 2.86203 0
M  V30 1361 H 124.574 4.49449 1.03889 0
M  V30 1362 H 122.817 4.24165 0.909211 0
M  V30 1363 H 123.488 4.98914 2.36196 0
M  V30 1364 H 125.964 3.10578 2.76913 0
M  V30 1365 H 124.84 3.788 3.97242 0
M  V30 1366 H 125.101 2.05186 3.916 0
M  V30 1367 N 124.16 -0.719506 1.40217 0
M  V30 1368 C 125.107 -1.83359 1.40172 0
M  V30 1369 C 126.077 -1.64065 0.259206 0
M  V30 1370 O 127.262 -1.85254 0.456677 0
M  V30 1371 C 124.402 -3.2103 1.26624 0
M  V30 1372 C 123.515 -3.51923 2.50548 0
M  V30 1373 C 122.65 -4.79079 2.29471 0
M  V30 1374 C 121.689 -5.02863 3.48992 0
M  V30 1375 N 120.826 -6.2123 3.27135 0
M  V30 1376 H 125.666 -1.82733 2.35399 0
M  V30 1377 H 123.203 -0.892688 1.16917 0
M  V30 1378 H 125.161 -4.00524 1.16776 0
M  V30 1379 H 123.791 -3.20895 0.350176 0
M  V30 1380 H 122.843 -2.67014 2.70939 0
M  V30 1381 H 124.155 -3.6541 3.39525 0
M  V30 1382 H 123.309 -5.66582 2.16955 0
M  V30 1383 H 122.048 -4.67794 1.37913 0
M  V30 1384 H 121.053 -4.13816 3.6199 0
M  V30 1385 H 122.278 -5.16023 4.41472 0
M  V30 1386 H 120.224 -6.11204 2.38256 0
M  V30 1387 H 120.141 -6.35375 4.09675 0
M  V30 1388 H 121.409 -7.11532 3.18344 0
M  V30 1389 N 125.638 -1.25649 -0.95132 0
M  V30 1390 C 126.863 -1.13443 -1.73624 0
M  V30 1391 C 127.288 0.307565 -1.85568 0
M  V30 1392 O 126.646 1.22282 -1.33854 0
M  V30 1393 C 126.694 -1.79723 -3.12621 0
M  V30 1394 O 125.798 -1.07912 -3.98031 0
M  V30 1395 H 125.139 -0.395872 -0.533086 0
M  V30 1396 H 127.669 -1.66276 -1.1922 0
M  V30 1397 H 127.679 -1.86141 -3.63064 0
M  V30 1398 H 126.354 -2.84633 -3.03244 0
M  V30 1399 H 124.931 -1.09398 -3.56492 0
M  V30 1400 N 127.117 1.15442 -1.07289 0
M  V30 1401 C 128.047 2.22312 -0.714107 0
M  V30 1402 C 129.028 1.67467 0.298155 0
M  V30 1403 O 130.213 1.93445 0.171048 0
M  V30 1404 C 127.343 3.47124 -0.110448 0
M  V30 1405 C 126.297 4.14926 -1.04979 0
M  V30 1406 C 125.623 5.33807 -0.308924 0
M  V30 1407 C 126.923 4.64762 -2.38314 0
M  V30 1408 H 128.617 2.5258 -1.6076 0
M  V30 1409 H 126.163 1.21404 -0.77441 0
M  V30 1410 H 128.116 4.21124 0.152482 0
M  V30 1411 H 126.84 3.16187 0.81812 0
M  V30 1412 H 125.499 3.42866 -1.29764 0
M  V30 1413 H 125.147 4.99126 0.623084 0
M  V30 1414 H 124.847 5.80113 -0.935036 0
M  V30 1415 H 126.371 6.10576 -0.0537771 0
M  V30 1416 H 127.785 5.30292 -2.1786 0
M  V30 1417 H 126.182 5.21728 -2.96514 0
M  V30 1418 H 127.252 3.80434 -3.00663 0
M  V30 1419 N 128.595 0.856903 1.32268 0
M  V30 1420 C 129.527 0.260412 2.27716 0
M  V30 1421 C 130.54 -0.569137 1.52528 0
M  V30 1422 O 131.729 -0.39326 1.74114 0
M  V30 1423 C 128.829 -0.650477 3.32599 0
M  V30 1424 C 128.002 0.14372 4.37164 0
M  V30 1425 C 127.061 -0.69328 5.21613 0
M  V30 1426 O 126.087 -0.12599 5.69061 0
M  V30 1427 N 127.289 -2.00761 5.44679 0
M  V30 1428 H 130.054 1.08059 2.79541 0
M  V30 1429 H 127.615 0.717103 1.45152 0
M  V30 1430 H 129.607 -1.21581 3.86005 0
M  V30 1431 H 128.177 -1.37133 2.80915 0
M  V30 1432 H 127.397 0.890486 3.8401 0
M  V30 1433 H 128.685 0.68915 5.04111 0
M  V30 1434 H 128.083 -2.49181 5.07863 0
M  V30 1435 H 126.64 -2.52103 6.01072 0
M  V30 1436 N 130.073 -1.45103 0.615059 0
M  V30 1437 C 131.021 -2.32331 -0.111791 0
M  V30 1438 C 132.015 -1.46409 -0.852102 0
M  V30 1439 O 133.221 -1.62849 -0.766821 0
M  V30 1440 H 129.596 -0.749993 -0.0549072 0
M  V30 1441 H 131.567 -2.91407 0.642225 0
M  V30 1442 C 130.316 -3.3015 -1.09071 0
M  V30 1443 H 129.639 -3.96265 -0.530485 0
M  V30 1444 H 131.079 -3.93898 -1.56908 0
M  V30 1445 C 129.538 -2.57875 -2.168 0
M  V30 1446 O 130.068 -2.36567 -3.24652 0
M  V30 1447 N 128.274 -2.17884 -1.92289 0
M  V30 1448 H 127.821 -2.35413 -1.04587 0
M  V30 1449 H 127.779 -1.6985 -2.64572 0
M  V30 1450 N 131.551 -0.354651 -1.53558 0
M  V30 1451 C 132.514 0.484566 -2.24019 0
M  V30 1452 C 133.514 1.01861 -1.24422 0
M  V30 1453 O 134.704 0.906097 -1.4878 0
M  V30 1454 C 131.836 1.67615 -2.96847 0
M  V30 1455 H 133.029 -0.131843 -2.9961 0
M  V30 1456 H 130.582 -0.106165 -1.55939 0
M  V30 1457 H 131.317 2.33095 -2.25471 0
M  V30 1458 H 131.102 1.30029 -3.69912 0
M  V30 1459 H 132.592 2.27114 -3.50441 0
M  V30 1460 N 133.029 1.57378 -0.0835403 0
M  V30 1461 C 134.254 1.98682 0.594987 0
M  V30 1462 C 134.679 0.961969 1.61641 0
M  V30 1463 O 134.037 -0.0709989 1.81161 0
M  V30 1464 C 134.085 3.38988 1.2296 0
M  V30 1465 O 133.189 3.39208 2.34546 0
M  V30 1466 H 132.53 0.646368 0.152002 0
M  V30 1467 H 135.06 2.03961 -0.161533 0
M  V30 1468 H 135.07 3.76431 1.57366 0
M  V30 1469 H 133.745 4.13107 0.481228 0
M  V30 1470 H 132.322 3.13548 2.01846 0
M  V30 1471 N 134.507 -0.190092 1.56449 0
M  V30 1472 C 135.47 -1.21925 1.9408 0
M  V30 1473 C 136.47 -1.38176 0.822431 0
M  V30 1474 O 137.66 -1.35903 1.08977 0
M  V30 1475 C 134.792 -2.58773 2.21922 0
M  V30 1476 H 135.985 -0.897464 2.86157 0
M  V30 1477 H 133.538 -0.43181 1.50217 0
M  V30 1478 H 134.273 -2.95998 1.32499 0
M  V30 1479 H 134.058 -2.48348 3.03424 0
M  V30 1480 H 135.548 -3.32978 2.52022 0
M  V30 1481 N 135.985 -1.50799 -0.457987 0
M  V30 1482 C 137.234 -1.6168 -1.20593 0
M  V30 1483 C 137.547 -0.32888 -1.92815 0
M  V30 1484 O 138.753 -0.316773 -2.69646 0
M  V30 1485 C 137.209 -2.8545 -2.19195 0
M  V30 1486 C 136.817 -4.21168 -1.52715 0
M  V30 1487 C 138.561 -3.05681 -2.94549 0
M  V30 1488 C 136.468 -5.3611 -2.4968 0
M  V30 1489 H 135.398 -0.602134 -0.453818 0
M  V30 1490 H 138.049 -1.77245 -0.475031 0
M  V30 1491 H 136.431 -2.63472 -2.95632 0
M  V30 1492 H 137.605 -4.53449 -0.819775 0
M  V30 1493 H 135.92 -4.06648 -0.895922 0
M  V30 1494 H 138.517 -3.88727 -3.67145 0
M  V30 1495 H 138.86 -2.17929 -3.54701 0
M  V30 1496 H 139.393 -3.27901 -2.25223 0
M  V30 1497 H 136.132 -6.26057 -1.94249 0
M  V30 1498 H 135.652 -5.0823 -3.18532 0
M  V30 1499 H 137.331 -5.6722 -3.11241 0
M  V30 1500 N 137.463 0.71206 -1.40597 0
M  V30 1501 C 138.373 1.8562 -1.43466 0
M  V30 1502 C 139.389 1.70902 -0.326902 0
M  V30 1503 O 140.565 1.93105 -0.572043 0
M  V30 1504 C 137.63 3.21451 -1.29884 0
M  V30 1505 C 136.691 3.48398 -2.50833 0
M  V30 1506 C 135.924 4.77749 -2.3789 0
M  V30 1507 O 136.147 5.53089 -1.39459 0
M  V30 1508 O 135.081 5.05111 -3.27333 0
M  V30 1509 H 138.907 1.86155 -2.39958 0
M  V30 1510 H 136.492 0.86295 -1.21957 0
M  V30 1511 H 138.374 4.02579 -1.24531 0
M  V30 1512 H 137.049 3.21636 -0.364997 0
M  V30 1513 H 135.956 2.67265 -2.61763 0
M  V30 1514 H 137.289 3.53014 -3.4299 0
M  V30 1515 N 138.941 1.26152 0.944643 0
M  V30 1516 C 140.166 1.14363 1.7302 0
M  V30 1517 C 140.591 -0.29772 1.85729 0
M  V30 1518 O 139.949 -1.2157 1.34501 0
M  V30 1519 C 139.997 1.81378 3.11664 0
M  V30 1520 O 139.101 1.10022 3.97453 0
M  V30 1521 H 138.442 0.398694 0.53098 0
M  V30 1522 H 140.972 1.66906 1.18337 0
M  V30 1523 H 140.982 1.88064 3.62072 0
M  V30 1524 H 139.657 2.86237 3.0173 0
M  V30 1525 H 138.234 1.11287 3.55907 0
M  V30 1526 N 140.419 -1.14872 1.07899 0
M  V30 1527 C 141.668 -1.85135 0.800499 0
M  V30 1528 C 141.981 -1.83547 -0.676014 0
M  V30 1529 O 143.187 -2.49548 -1.06948 0
M  V30 1530 C 141.643 -3.3231 1.38197 0
M  V30 1531 C 141.251 -3.42329 2.8899 0
M  V30 1532 C 142.995 -4.0772 1.18174 0
M  V30 1533 C 140.902 -4.83684 3.403 0
M  V30 1534 H 139.832 -0.693563 0.29578 0
M  V30 1535 H 142.483 -1.29532 1.29976 0
M  V30 1536 H 140.865 -3.87618 0.810431 0
M  V30 1537 H 142.039 -2.97097 3.52236 0
M  V30 1538 H 140.354 -2.80369 3.07867 0
M  V30 1539 H 142.951 -5.12049 1.5398 0
M  V30 1540 H 143.294 -4.16124 0.12117 0
M  V30 1541 H 143.827 -3.58696 1.71994 0
M  V30 1542 H 140.566 -4.80465 4.45907 0
M  V30 1543 H 140.086 -5.29474 2.81811 0
M  V30 1544 H 141.765 -5.52558 3.36584 0
M  V30 1545 N 141.898 -0.863906 -1.31812 0
M  V30 1546 C 142.828 -0.330843 -2.31144 0
M  V30 1547 C 143.809 0.575005 -1.60087 0
M  V30 1548 O 144.994 0.493304 -1.8783 0
M  V30 1549 C 142.124 0.47374 -3.44054 0
M  V30 1550 C 141.078 -0.338481 -4.26659 0
M  V30 1551 C 140.404 0.591412 -5.31419 0
M  V30 1552 C 141.704 -1.56926 -4.98168 0
M  V30 1553 H 143.398 -1.16086 -2.75979 0
M  V30 1554 H 140.944 -0.559657 -1.32679 0
M  V30 1555 H 142.897 0.857143 -4.12591 0
M  V30 1556 H 141.621 1.33721 -2.9797 0
M  V30 1557 H 140.28 -0.703754 -3.59782 0
M  V30 1558 H 139.928 1.45199 -4.81587 0
M  V30 1559 H 139.628 0.0519022 -5.87577 0
M  V30 1560 H 141.152 0.97179 -6.02817 0
M  V30 1561 H 142.566 -1.25764 -5.59336 0
M  V30 1562 H 140.963 -2.04739 -5.64094 0
M  V30 1563 H 142.033 -2.32544 -4.25501 0
M  V30 1564 N 143.376 1.44774 -0.622745 0
M  V30 1565 C 144.323 2.30635 0.0871679 0
M  V30 1566 C 145.293 1.42994 0.845097 0
M  V30 1567 O 146.478 1.71907 0.827812 0
M  V30 1568 C 143.618 3.28144 1.06844 0
M  V30 1569 C 142.731 4.30888 0.309809 0
M  V30 1570 C 141.866 5.15494 1.28215 0
M  V30 1571 C 140.905 6.09953 0.512198 0
M  V30 1572 N 140.042 6.87287 1.43458 0
M  V30 1573 H 144.882 2.90803 -0.650974 0
M  V30 1574 H 142.419 1.43286 -0.33281 0
M  V30 1575 H 144.377 3.83157 1.65066 0
M  V30 1576 H 143.007 2.69695 1.77382 0
M  V30 1577 H 142.059 3.78414 -0.388181 0
M  V30 1578 H 143.371 4.97955 -0.290254 0
M  V30 1579 H 142.525 5.74983 1.93596 0
M  V30 1580 H 141.264 4.48481 1.91614 0
M  V30 1581 H 140.269 5.49581 -0.155151 0
M  V30 1582 H 141.494 6.78999 -0.116958 0
M  V30 1583 H 139.44 6.2295 2.05594 0
M  V30 1584 H 139.357 7.50763 0.888335 0
M  V30 1585 H 140.625 7.51306 2.07749 0
M  V30 1586 N 144.854 0.36279 1.53368 0
M  V30 1587 C 145.802 -0.500155 2.27159 0
M  V30 1588 C 146.796 -1.08575 1.3003 0
M  V30 1589 O 148.002 -1.02927 1.47668 0
M  V30 1590 H 144.377 -0.180009 0.730138 0
M  V30 1591 H 146.348 0.14401 2.98052 0
M  V30 1592 C 145.097 -1.62937 3.07159 0
M  V30 1593 H 144.42 -1.18806 3.8174 0
M  V30 1594 H 145.86 -2.20795 3.61975 0
M  V30 1595 C 144.319 -2.57007 2.17829 0
M  V30 1596 O 144.849 -3.59752 1.78721 0
M  V30 1597 N 143.055 -2.26131 1.82518 0
M  V30 1598 H 142.602 -1.42616 2.14519 0
M  V30 1599 H 142.56 -2.89327 1.23034 0
M  V30 1600 N 146.332 -1.57332 0.0918853 0
M  V30 1601 C 147.262 -2.16872 -0.865371 0
M  V30 1602 C 148.243 -1.10118 -1.29646 0
M  V30 1603 O 149.428 -1.38242 -1.36392 0
M  V30 1604 C 146.558 -2.74649 -2.12569 0
M  V30 1605 C 145.512 -3.86747 -1.83333 0
M  V30 1606 C 144.838 -4.31212 -3.16166 0
M  V30 1607 C 146.138 -5.10089 -1.1228 0
M  V30 1608 H 147.832 -2.97114 -0.369307 0
M  V30 1609 H 145.378 -1.42918 -0.176194 0
M  V30 1610 H 147.331 -3.14952 -2.7997 0
M  V30 1611 H 146.055 -1.91657 -2.64452 0
M  V30 1612 H 144.714 -3.46978 -1.18331 0
M  V30 1613 H 144.362 -3.45115 -3.6593 0
M  V30 1614 H 144.062 -5.06788 -2.97388 0
M  V30 1615 H 145.586 -4.74146 -3.84731 0
M  V30 1616 H 147 -5.47582 -1.69785 0
M  V30 1617 H 145.397 -5.91073 -1.03693 0
M  V30 1618 H 146.467 -4.84786 -0.105041 0
M  V30 1619 N 147.81 0.181792 -1.56548 0
M  V30 1620 C 148.74 1.22765 -1.98623 0
M  V30 1621 C 149.721 1.46747 -0.860189 0
M  V30 1622 O 150.906 1.58259 -1.12551 0
M  V30 1623 C 148.036 2.56894 -2.33715 0
M  V30 1624 C 146.99 2.475 -3.49182 0
M  V30 1625 C 146.316 3.86023 -3.69986 0
M  V30 1626 C 147.616 1.98866 -4.82959 0
M  V30 1627 H 149.31 0.877942 -2.86239 0
M  V30 1628 H 146.856 0.42088 -1.37712 0
M  V30 1629 H 148.809 3.30253 -2.61746 0
M  V30 1630 H 147.533 2.93632 -1.42997 0
M  V30 1631 H 146.192 1.76596 -3.21262 0
M  V30 1632 H 145.84 4.20136 -2.76576 0
M  V30 1633 H 145.54 3.80609 -4.47672 0
M  V30 1634 H 147.064 4.60984 -4.00407 0
M  V30 1635 H 148.478 2.61992 -5.09934 0
M  V30 1636 H 146.875 2.04424 -5.64208 0
M  V30 1637 H 147.945 0.942465 -4.75653 0
M  V30 1638 N 149.288 1.51039 0.449983 0
M  V30 1639 C 150.699 1.557 1.03026 0
M  V30 1640 C 151.05 0.372939 1.92623 0
M  V30 1641 O 150.175 -0.511771 2.10261 0
M  V30 1642 C 150.77 2.82171 1.87523 0
M  V30 1643 C 149.329 2.89444 2.40622 0
M  V30 1644 C 148.476 2.50228 1.19504 0
M  V30 1645 H 151.427 1.56999 0.231745 0
M  V30 1646 H 151.448 2.65219 2.72835 0
M  V30 1647 H 150.96 3.68331 1.22286 0
M  V30 1648 H 149.061 2.07685 3.0935 0
M  V30 1649 H 149.174 3.92816 2.74285 0
M  V30 1650 H 147.538 2.03139 1.53644 0
M  V30 1651 H 148.321 3.38719 0.558972 0
M  V30 1652 N 150.766 -0.704594 1.40972 0
M  V30 1653 C 152.006 -1.47691 1.41304 0
M  V30 1654 C 152.37 -1.91992 0.0178582 0
M  V30 1655 O 153.571 -2.68599 -0.103996 0
M  V30 1656 C 151.842 -2.66254 2.38419 0
M  V30 1657 S 153.401 -3.55516 2.57204 0
M  V30 1658 H 150.219 -0.504808 0.500689 0
M  V30 1659 H 152.821 -0.822962 1.77335 0
M  V30 1660 H 151.525 -2.31897 3.38603 0
M  V30 1661 H 151.056 -3.3655 2.03711 0
M  V30 1662 H 153.071 -4.61115 1.83268 0
M  V30 1663 N 152.244 -1.26651 -0.937939 0
M  V30 1664 C 153.174 -1.10993 -2.05433 0
M  V30 1665 C 154.155 -0.0142161 -1.70094 0
M  V30 1666 O 155.34 -0.186837 -1.93299 0
M  V30 1667 C 152.47 -0.745561 -3.39203 0
M  V30 1668 C 151.424 -1.79337 -3.88616 0
M  V30 1669 C 150.75 -1.28324 -5.19073 0
M  V30 1670 C 152.05 -3.19553 -4.13138 0
M  V30 1671 H 153.744 -2.0438 -2.1879 0
M  V30 1672 H 151.29 -0.984041 -1.05131 0
M  V30 1673 H 153.243 -0.622888 -4.16771 0
M  V30 1674 H 151.967 0.22401 -3.25831 0
M  V30 1675 H 150.626 -1.90477 -3.13231 0
M  V30 1676 H 150.274 -0.303414 -5.02084 0
M  V30 1677 H 149.974 -1.98369 -5.53103 0
M  V30 1678 H 151.498 -1.1733 -5.99221 0
M  V30 1679 H 152.912 -3.11471 -4.81309 0
M  V30 1680 H 151.309 -3.87218 -4.58457 0
M  V30 1681 H 152.379 -3.65368 -3.18801 0
M  V30 1682 N 153.722 1.14298 -1.08507 0
M  V30 1683 C 155.133 1.66926 -0.836227 0
M  V30 1684 C 155.484 1.85576 0.63686 0
M  V30 1685 O 154.609 1.56767 1.49175 0
M  V30 1686 C 155.204 3.03219 -1.51142 0
M  V30 1687 C 153.763 3.52876 -1.30979 0
M  V30 1688 C 152.91 2.2833 -1.57356 0
M  V30 1689 H 155.861 0.983491 -1.24552 0
M  V30 1690 H 155.882 3.68726 -0.939211 0
M  V30 1691 H 155.394 2.89612 -2.58353 0
M  V30 1692 H 153.495 3.71703 -0.258429 0
M  V30 1693 H 153.608 4.33586 -2.03814 0
M  V30 1694 H 151.972 2.34454 -0.995164 0
M  V30 1695 H 152.755 2.17298 -2.65775 0
M  V30 1696 N 155.201 0.870884 1.31352 0
M  V30 1697 C 156.131 0.343096 2.30966 0
M  V30 1698 C 157.112 -0.566507 1.60389 0
M  V30 1699 O 158.297 -0.483336 1.88089 0
M  V30 1700 C 155.427 -0.455487 3.443 0
M  V30 1701 C 154.381 0.361103 4.26474 0
M  V30 1702 C 153.707 -0.563221 5.31725 0
M  V30 1703 C 155.007 1.59566 4.97329 0
M  V30 1704 H 156.701 1.17548 2.75359 0
M  V30 1705 H 154.247 0.566686 1.32381 0
M  V30 1706 H 156.2 -0.83525 4.13039 0
M  V30 1707 H 154.924 -1.32139 2.98675 0
M  V30 1708 H 153.583 0.722825 3.59403 0
M  V30 1709 H 153.231 -1.42643 4.82351 0
M  V30 1710 H 152.931 -0.0207409 5.87596 0
M  V30 1711 H 154.455 -0.939808 6.03324 0
M  V30 1712 H 155.869 1.28728 5.58661 0
M  V30 1713 H 154.266 2.07728 5.63 0
M  V30 1714 H 155.336 2.34798 4.24262 0
M  V30 1715 N 156.679 -1.44442 0.630414 0
M  V30 1716 C 157.642 -2.29107 -0.0652523 0
M  V30 1717 C 158.642 -1.41002 -0.772995 0
M  V30 1718 O 159.832 -1.62881 -0.617692 0
M  V30 1719 C 156.964 -3.22564 -1.10296 0
M  V30 1720 H 158.157 -2.92103 0.679401 0
M  V30 1721 H 155.71 -1.51343 0.390517 0
M  V30 1722 H 156.445 -2.64416 -1.87762 0
M  V30 1723 H 156.23 -3.87491 -0.59941 0
M  V30 1724 H 157.72 -3.86167 -1.5895 0
M  V30 1725 N 158.157 -0.370918 -1.53173 0
M  V30 1726 C 159.385 0.217704 -2.05751 0
M  V30 1727 C 159.8 1.42018 -1.24404 0
M  V30 1728 O 159.157 1.80245 -0.286033 0
M  V30 1729 C 159.208 0.605954 -3.56385 0
M  V30 1730 O 158.929 -0.548734 -4.3465 0
M  V30 1731 C 160.43 1.2524 -4.25241 0
M  V30 1732 H 157.65 0.0371659 -0.66997 0
M  V30 1733 H 160.194 -0.530832 -1.9749 0
M  V30 1734 H 158.349 1.3044 -3.6478 0
M  V30 1735 H 158.763 -0.23376 -5.23979 0
M  V30 1736 H 160.237 1.47458 -5.3194 0
M  V30 1737 H 160.714 2.2143 -3.79296 0
M  V30 1738 H 161.32 0.595233 -4.21114 0
M  V30 1739 N 159.635 1.57281 -0.100228 0
M  V30 1740 C 160.598 2.13158 0.842398 0
M  V30 1741 C 161.598 1.06202 1.20738 0
M  V30 1742 O 162.788 1.32066 1.13597 0
M  V30 1743 C 159.92 2.65639 2.13655 0
M  V30 1744 H 161.113 2.97766 0.357114 0
M  V30 1745 H 158.666 1.5559 0.148823 0
M  V30 1746 H 159.401 1.84566 2.66657 0
M  V30 1747 H 159.186 3.43844 1.88451 0
M  V30 1748 H 160.676 3.08846 2.81077 0
M  V30 1749 N 161.113 -0.173488 1.56642 0
M  V30 1750 C 162.076 -1.19859 1.95362 0
M  V30 1751 C 163.076 -1.37296 0.83704 0
M  V30 1752 O 164.266 -1.34739 1.10413 0
M  V30 1753 C 161.398 -2.56405 2.24654 0
M  V30 1754 H 162.591 -0.867062 2.87092 0
M  V30 1755 H 160.144 -0.415853 1.50666 0
M  V30 1756 H 160.879 -2.94576 1.35631 0
M  V30 1757 H 160.664 -2.45115 3.06041 0
M  V30 1758 H 162.154 -3.30287 2.5554 0
M  V30 1759 N 162.591 -1.51276 -0.441967 0
M  V30 1760 C 164.002 -1.56244 -1.02199 0
M  V30 1761 C 164.353 -0.383149 -1.92422 0
M  V30 1762 O 163.478 0.500613 -2.1053 0
M  V30 1763 C 164.073 -2.83162 -1.86024 0
M  V30 1764 C 162.632 -2.90716 -2.39084 0
M  V30 1765 C 161.779 -2.50858 -1.18175 0
M  V30 1766 H 164.73 -1.5712 -0.223416 0
M  V30 1767 H 164.751 -2.66663 -2.71425 0
M  V30 1768 H 164.263 -3.68974 -1.20331 0
M  V30 1769 H 162.364 -2.09323 -3.08244 0
M  V30 1770 H 162.477 -3.94266 -2.72198 0
M  V30 1771 H 160.841 -2.03951 -1.52565 0
M  V30 1772 H 161.624 -3.3901 -0.541001 0
M  V30 1773 N 164.069 0.697108 -1.41344 0
M  V30 1774 C 165.297 1.48593 -1.43972 0
M  V30 1775 C 165.712 1.88747 -0.0445612 0
M  V30 1776 O 165.069 1.56682 0.935785 0
M  V30 1777 C 165.12 2.74946 -2.34706 0
M  V30 1778 O 164.841 2.36484 -3.68791 0
M  V30 1779 C 166.342 3.687 -2.46121 0
M  V30 1780 H 163.562 0.457964 -0.490418 0
M  V30 1781 H 166.106 0.858429 -1.8561 0
M  V30 1782 H 164.261 3.33937 -1.9638 0
M  V30 1783 H 164.675 3.17918 -4.17167 0
M  V30 1784 H 166.149 4.54145 -3.13777 0
M  V30 1785 H 166.626 4.13081 -1.49199 0
M  V30 1786 H 167.232 3.15613 -2.85076 0
M  V30 1787 N 165.547 1.27147 0.931209 0
M  V30 1788 C 166.963 1.04475 1.20653 0
M  V30 1789 C 167.163 -0.223885 2.00252 0
M  V30 1790 O 166.219 -0.930332 2.34736 0
M  V30 1791 C 167.532 2.28209 1.95809 0
M  V30 1792 C 169.08 2.33211 2.08762 0
M  V30 1793 C 169.555 3.56665 2.87323 0
M  V30 1794 N 171.046 3.57201 2.94892 0
M  V30 1795 C 171.781 4.49395 3.56134 0
M  V30 1796 N 171.277 5.51889 4.18796 0
M  V30 1797 N 173.07 4.37026 3.53504 0
M  V30 1798 H 165.221 2.08612 0.399333 0
M  V30 1799 H 167.484 0.917312 0.239253 0
M  V30 1800 H 167.19 3.20538 1.44736 0
M  V30 1801 H 167.064 2.33247 2.96438 0
M  V30 1802 H 169.451 1.41391 2.59023 0
M  V30 1803 H 169.532 2.32178 1.07364 0
M  V30 1804 H 169.176 4.4882 2.37746 0
M  V30 1805 H 169.106 3.54948 3.88998 0
M  V30 1806 H 171.597 2.83074 2.50354 0
M  V30 1807 H 171.91 6.18409 4.63454 0
M  V30 1808 H 170.255 5.55735 4.17353 0
M  V30 1809 H 173.446 3.56166 3.03749 0
M  V30 1810 H 173.619 5.09067 4.00942 0
M  V30 1811 N 167.025 -1.13721 1.09112 0
M  V30 1812 C 167.975 -2.17082 0.697091 0
M  V30 1813 C 168.959 -1.58321 -0.286923 0
M  V30 1814 O 170.151 -1.7673 -0.0978008 0
M  V30 1815 C 167.28 -3.43105 0.115729 0
M  V30 1816 C 166.366 -4.0888 1.12596 0
M  V30 1817 N 166.757 -4.4987 2.31195 0
M  V30 1818 C 165.055 -4.35471 0.963366 0
M  V30 1819 C 165.756 -5.01094 2.95431 0
M  V30 1820 N 164.732 -4.95751 2.23006 0
M  V30 1821 H 168.534 -2.46524 1.6001 0
M  V30 1822 H 166.048 -1.30481 0.966869 0
M  V30 1823 H 168.045 -4.16491 -0.184555 0
M  V30 1824 H 166.705 -3.15138 -0.78217 0
M  V30 1825 H 167.716 -4.42678 2.68806 0
M  V30 1826 H 164.393 -4.17328 0.119878 0
M  V30 1827 H 165.783 -5.4263 3.96236 0
M  V30 1828 N 168.503 -0.877838 -1.30888 0
M  V30 1829 C 169.914 -0.544193 -1.78593 0
M  V30 1830 C 170.265 0.939301 -1.72254 0
M  V30 1831 O 169.39 1.7337 -1.29505 0
M  V30 1832 C 169.985 -0.98105 -3.24285 0
M  V30 1833 C 168.544 -0.698935 -3.69854 0
M  V30 1834 C 167.691 -1.168 -2.51502 0
M  V30 1835 H 170.642 -1.06278 -1.17859 0
M  V30 1836 H 170.663 -0.307009 -3.79259 0
M  V30 1837 H 170.175 -2.06079 -3.28866 0
M  V30 1838 H 168.276 0.369112 -3.70767 0
M  V30 1839 H 168.389 -1.28148 -4.61644 0
M  V30 1840 H 166.753 -0.587535 -2.47831 0
M  V30 1841 H 167.536 -2.25533 -2.58824 0
M  V30 1842 N 169.982 1.44106 -0.638065 0
M  V30 1843 C 171.231 2.01194 -0.142744 0
M  V30 1844 C 171.544 1.50835 1.24532 0
M  V30 1845 O 172.75 2.00096 1.83504 0
M  V30 1846 C 171.206 3.59319 -0.20442 0
M  V30 1847 C 170.814 4.18674 -1.59423 0
M  V30 1848 C 172.558 4.23854 0.234079 0
M  V30 1849 C 170.465 5.69045 -1.61065 0
M  V30 1850 H 169.395 0.752367 -0.0495998 0
M  V30 1851 H 172.046 1.65246 -0.797881 0
M  V30 1852 H 170.428 3.92598 0.517946 0
M  V30 1853 H 171.602 3.96921 -2.34074 0
M  V30 1854 H 169.917 3.66453 -1.97741 0
M  V30 1855 H 172.514 5.34155 0.241443 0
M  V30 1856 H 172.857 3.96688 1.2627 0
M  V30 1857 H 173.39 3.95403 -0.436025 0
M  V30 1858 H 170.129 6.00956 -2.61787 0
M  V30 1859 H 169.649 5.929 -0.90718 0
M  V30 1860 H 171.328 6.32809 -1.34766 0
M  V30 1861 N 171.46 0.379036 1.52974 0
M  V30 1862 C 172.41 -0.477772 2.22938 0
M  V30 1863 C 173.394 -1.03792 1.22948 0
M  V30 1864 O 174.586 -0.965725 1.48333 0
M  V30 1865 C 171.715 -1.60994 3.03209 0
M  V30 1866 C 170.801 -1.06203 4.10587 0
M  V30 1867 N 171.192 -0.238214 5.05239 0
M  V30 1868 C 169.49 -1.33554 4.25534 0
M  V30 1869 C 170.191 0.0633235 5.81666 0
M  V30 1870 N 169.167 -0.537901 5.40932 0
M  V30 1871 H 172.969 0.158295 2.93473 0
M  V30 1872 H 170.483 0.187778 1.61311 0
M  V30 1873 H 172.48 -2.23607 3.5186 0
M  V30 1874 H 171.14 -2.24893 2.34207 0
M  V30 1875 H 172.151 0.123695 5.17752 0
M  V30 1876 H 168.828 -1.97632 3.6776 0
M  V30 1877 H 170.218 0.730161 6.67921 0
M  V30 1878 N 172.938 -1.57226 0.108567 0
M  V30 1879 C 174.187 -1.94008 -0.551703 0
M  V30 1880 C 174.5 -0.993442 -1.68494 0
M  V30 1881 O 175.706 -1.25551 -2.40726 0
M  V30 1882 C 174.162 -3.44763 -1.03279 0
M  V30 1883 C 173.77 -4.47943 0.0714193 0
M  V30 1884 C 175.514 -3.90483 -1.66503 0
M  V30 1885 C 173.421 -5.89865 -0.425779 0
M  V30 1886 H 172.351 -0.724206 -0.209863 0
M  V30 1887 H 175.002 -1.82547 0.186741 0
M  V30 1888 H 173.384 -3.51422 -1.82533 0
M  V30 1889 H 174.558 -4.52942 0.847365 0
M  V30 1890 H 172.873 -4.11913 0.609669 0
M  V30 1891 H 175.47 -4.93925 -2.04798 0
M  V30 1892 H 175.813 -3.29877 -2.53942 0
M  V30 1893 H 176.346 -3.86581 -0.938074 0
M  V30 1894 H 173.085 -6.54202 0.412316 0
M  V30 1895 H 172.605 -5.88309 -1.16843 0
M  V30 1896 H 174.284 -6.40844 -0.890397 0
M  V30 1897 N 174.416 0.165178 -1.56732 0
M  V30 1898 C 175.363 1.2044 -1.96883 0
M  V30 1899 C 176.333 1.43664 -0.833657 0
M  V30 1900 O 177.518 1.56302 -1.09427 0
M  V30 1901 C 174.658 2.53727 -2.33916 0
M  V30 1902 C 173.771 2.3783 -3.6064 0
M  V30 1903 C 172.906 3.64026 -3.86857 0
M  V30 1904 C 171.945 3.43088 -5.06909 0
M  V30 1905 N 171.082 4.61369 -5.29229 0
M  V30 1906 H 175.922 0.854996 -2.85471 0
M  V30 1907 H 173.459 0.41076 -1.41249 0
M  V30 1908 H 175.417 3.31419 -2.53411 0
M  V30 1909 H 174.047 2.8665 -1.48431 0
M  V30 1910 H 173.099 1.51282 -3.49024 0
M  V30 1911 H 174.411 2.18308 -4.4849 0
M  V30 1912 H 173.565 4.50152 -4.06753 0
M  V30 1913 H 172.304 3.86533 -2.97394 0
M  V30 1914 H 171.309 2.55349 -4.86906 0
M  V30 1915 H 172.534 3.21997 -5.97909 0
M  V30 1916 H 170.48 4.84084 -4.42718 0
M  V30 1917 H 170.397 4.44783 -6.11313 0
M  V30 1918 H 171.665 5.48761 -5.53608 0
M  V30 1919 N 175.894 1.51508 0.433938 0
M  V30 1920 C 177.171 1.54888 1.19453 0
M  V30 1921 C 177.551 0.315154 2.08734 0
M  V30 1922 O 176.899 -0.699558 2.17528 0
M  V30 1923 C 177.109 2.86467 1.99342 0
M  V30 1924 C 178.457 3.38545 2.56267 0
M  V30 1925 O 179.481 2.88041 2.0955 0
M  V30 1926 O 178.34 4.26675 3.41483 0
M  V30 1927 H 175.434 0.622863 0.544032 0
M  V30 1928 H 177.98 1.63823 0.442732 0
M  V30 1929 H 176.752 3.67718 1.33788 0
M  V30 1930 H 176.375 2.8071 2.8158 0
M  V30 1931 N 177.372 -0.689602 1.41712 0
M  V30 1932 C 178.62 -1.4468 1.4111 0
M  V30 1933 C 178.941 -1.94986 0.0232196 0
M  V30 1934 O 178.211 -1.72097 -0.935913 0
M  V30 1935 H 176.791 -0.536847 0.519427 0
M  V30 1936 H 179.453 -0.815825 1.77004 0
M  V30 1937 H 178.549 -2.30706 2.10193 0
M  V30 1938 N 178.85 -1.27639 -0.924453 0
M  V30 1939 C 180.127 -1.04887 -1.651 0
M  V30 1940 C 180.507 0.415327 -2.06974 0
M  V30 1941 O 179.855 1.39923 -1.80648 0
M  V30 1942 C 180.065 -2.01348 -2.85061 0
M  V30 1943 C 181.413 -2.30899 -3.56329 0
M  V30 1944 O 182.437 -1.99348 -2.95193 0
M  V30 1945 O 181.296 -2.84699 -4.66485 0
M  V30 1946 H 178.39 -0.400083 -0.723784 0
M  V30 1947 H 180.936 -1.38916 -0.974703 0
M  V30 1948 H 179.708 -3.0008 -2.51133 0
M  V30 1949 H 179.331 -1.679 -3.6041 0
M  V30 1950 N 180.328 1.1314 -1.09713 0
M  V30 1951 C 181.574 1.84967 -0.846104 0
M  V30 1952 C 181.929 1.82082 0.621601 0
M  V30 1953 O 181.222 1.2501 1.452 0
M  V30 1954 C 181.416 3.32167 -1.3191 0
M  V30 1955 C 181.245 3.49386 -2.83125 0
M  V30 1956 C 180.015 3.63456 -3.51038 0
M  V30 1957 C 182.213 3.45179 -3.81256 0
M  V30 1958 N 180.195 3.68966 -4.9065 0
M  V30 1959 C 181.566 3.57094 -5.06837 0
M  V30 1960 C 183.621 3.28598 -3.74069 0
M  V30 1961 C 182.324 3.5414 -6.26081 0
M  V30 1962 C 184.35 3.26953 -4.92804 0
M  V30 1963 C 183.712 3.39422 -6.17229 0
M  V30 1964 H 179.811 0.692899 -0.362512 0
M  V30 1965 H 182.395 1.35506 -1.39808 0
M  V30 1966 H 180.566 3.80186 -0.794535 0
M  V30 1967 H 182.298 3.91815 -1.01308 0
M  V30 1968 H 179.053 3.65256 -3.01471 0
M  V30 1969 H 179.477 3.75404 -5.63383 0
M  V30 1970 H 184.119 3.17858 -2.78794 0
M  V30 1971 H 181.837 3.63653 -7.21653 0
M  V30 1972 H 185.423 3.15316 -4.88945 0
M  V30 1973 H 184.303 3.38114 -7.07565 0
M  V30 1974 N 181.806 0.884767 1.30421 0
M  V30 1975 C 182.754 0.340869 2.30089 0
M  V30 1976 C 183.748 -0.55201 1.60154 0
M  V30 1977 O 184.954 -0.436467 1.74628 0
M  V30 1978 H 181.329 0.0915739 0.746404 0
M  V30 1979 H 183.3 1.19513 2.73421 0
M  V30 1980 C 182.049 -0.429779 3.45034 0
M  V30 1981 H 181.372 0.248024 3.9903 0
M  V30 1982 H 182.812 -0.775445 4.16849 0
M  V30 1983 C 181.271 -1.62677 2.95022 0
M  V30 1984 O 181.801 -2.72614 2.95033 0
M  V30 1985 N 180.007 -1.46387 2.51036 0
M  V30 1986 H 179.554 -0.569506 2.51226 0
M  V30 1987 H 179.512 -2.26612 2.17932 0
M  V30 1988 N 183.284 -1.43765 0.645699 0
M  V30 1989 C 184.194 -2.34544 -0.0512957 0
M  V30 1990 C 185.21 -1.53455 -0.82022 0
M  V30 1991 O 186.386 -1.86133 -0.769176 0
M  V30 1992 C 183.451 -3.31636 -1.01087 0
M  V30 1993 C 182.512 -4.2863 -0.239712 0
M  V30 1994 C 181.745 -5.21084 -1.15358 0
M  V30 1995 O 181.968 -5.1779 -2.39269 0
M  V30 1996 O 180.902 -5.98593 -0.630038 0
M  V30 1997 H 184.728 -2.95624 0.695718 0
M  V30 1998 H 182.313 -1.43781 0.405882 0
M  V30 1999 H 184.195 -3.9136 -1.56254 0
M  V30 2000 H 182.87 -2.73069 -1.73824 0
M  V30 2001 H 181.777 -3.72408 0.355356 0
M  V30 2002 H 183.11 -4.90157 0.447936 0
M  V30 2003 N 184.763 -0.387143 -1.52771 0
M  V30 2004 C 186.01 0.195735 -2.01552 0
M  V30 2005 C 186.338 1.46995 -1.27369 0
M  V30 2006 O 185.593 1.92325 -0.361879 0
M  V30 2007 C 185.892 0.512209 -3.53711 0
M  V30 2008 C 185.558 -0.670202 -4.45891 0
M  V30 2009 C 184.22 -0.994586 -4.70809 0
M  V30 2010 C 186.572 -1.46134 -5.00294 0
M  V30 2011 C 183.9 -2.11169 -5.4738 0
M  V30 2012 C 186.252 -2.56903 -5.78086 0
M  V30 2013 C 184.916 -2.89852 -6.01284 0
M  V30 2014 H 184.186 0.0716246 -0.73753 0
M  V30 2015 H 186.833 -0.524046 -1.8419 0
M  V30 2016 H 185.138 1.31329 -3.69134 0
M  V30 2017 H 186.835 0.975804 -3.88946 0
M  V30 2018 H 183.425 -0.407366 -4.2666 0
M  V30 2019 H 187.609 -1.22397 -4.80971 0
M  V30 2020 H 182.865 -2.3707 -5.63567 0
M  V30 2021 H 187.039 -3.18608 -6.19243 0
M  V30 2022 H 184.666 -3.76533 -6.60399 0
M  V30 2023 N 186.241 1.57166 -0.116904 0
M  V30 2024 C 187.657 1.5779 0.239693 0
M  V30 2025 C 187.857 1.1295 1.66867 0
M  V30 2026 O 186.913 0.81592 2.38954 0
M  V30 2027 C 188.226 3.00699 0.00828202 0
M  V30 2028 C 189.774 3.12912 0.0743438 0
M  V30 2029 C 190.249 4.57817 -0.129348 0
M  V30 2030 N 191.74 4.63139 -0.075247 0
M  V30 2031 C 192.475 5.73023 -0.207788 0
M  V30 2032 N 191.971 6.91665 -0.396382 0
M  V30 2033 N 193.764 5.61906 -0.14751 0
M  V30 2034 H 185.915 1.84615 -1.05029 0
M  V30 2035 H 188.178 0.85311 -0.41341 0
M  V30 2036 H 187.884 3.37784 -0.979531 0
M  V30 2037 H 187.758 3.69848 0.741077 0
M  V30 2038 H 190.145 2.75686 1.05268 0
M  V30 2039 H 190.226 2.4631 -0.690297 0
M  V30 2040 H 189.87 4.95742 -1.10465 0
M  V30 2041 H 189.8 5.22507 0.655253 0
M  V30 2042 H 192.291 3.7784 0.0670898 0
M  V30 2043 H 192.604 7.71255 -0.488437 0
M  V30 2044 H 190.949 6.93654 -0.432329 0
M  V30 2045 H 194.14 4.681 -0.00115036 0
M  V30 2046 H 194.313 6.47501 -0.254247 0
M  V30 2047 N 187.719 -0.156864 1.56817 0
M  V30 2048 C 189.135 -0.50916 1.5126 0
M  V30 2049 C 189.335 -1.83897 0.823658 0
M  V30 2050 O 188.391 -2.49469 0.390055 0
M  V30 2051 C 189.704 -0.52857 2.96018 0
M  V30 2052 C 191.252 -0.614771 3.06903 0
M  V30 2053 C 191.727 -0.664938 4.53147 0
M  V30 2054 N 193.218 -0.727433 4.57452 0
M  V30 2055 C 193.953 -0.787067 5.67973 0
M  V30 2056 N 193.449 -0.806649 6.88088 0
M  V30 2057 N 195.242 -0.827195 5.5598 0
M  V30 2058 H 187.393 0.714935 2.00006 0
M  V30 2059 H 189.656 0.259526 0.911784 0
M  V30 2060 H 189.362 0.380154 3.49639 0
M  V30 2061 H 189.236 -1.36998 3.51442 0
M  V30 2062 H 191.623 -1.51392 2.53307 0
M  V30 2063 H 191.704 0.253597 2.5454 0
M  V30 2064 H 191.348 0.230011 5.07379 0
M  V30 2065 H 191.278 -1.54966 5.03282 0
M  V30 2066 H 193.769 -0.719998 3.70978 0
M  V30 2067 H 194.082 -0.853727 7.6807 0
M  V30 2068 H 192.427 -0.774687 6.90669 0
M  V30 2069 H 195.618 -0.808998 4.61056 0
M  V30 2070 H 195.791 -0.870206 6.4213 0
M  V30 2071 N 189.197 -1.51736 -0.425897 0
M  V30 2072 C 190.144 -1.73875 -1.51776 0
M  V30 2073 C 191.114 -0.580702 -1.55618 0
M  V30 2074 O 192.299 -0.81641 -1.72451 0
M  V30 2075 C 189.439 -1.88012 -2.89388 0
M  V30 2076 C 188.552 -3.15606 -2.94986 0
M  V30 2077 C 187.687 -3.20271 -4.23793 0
M  V30 2078 C 186.726 -4.42134 -4.23302 0
M  V30 2079 N 185.863 -4.44284 -5.43651 0
M  V30 2080 H 190.703 -2.67071 -1.32201 0
M  V30 2081 H 188.24 -1.32351 -0.642008 0
M  V30 2082 H 190.198 -1.9419 -3.69251 0
M  V30 2083 H 188.828 -0.98213 -3.07496 0
M  V30 2084 H 187.88 -3.18681 -2.07717 0
M  V30 2085 H 189.192 -4.05486 -2.90486 0
M  V30 2086 H 188.346 -3.25428 -5.12036 0
M  V30 2087 H 187.085 -2.28299 -4.30965 0
M  V30 2088 H 186.09 -4.3714 -3.3345 0
M  V30 2089 H 187.315 -5.35382 -4.17783 0
M  V30 2090 H 185.261 -3.55188 -5.51523 0
M  V30 2091 H 185.178 -5.27988 -5.41078 0
M  V30 2092 H 186.446 -4.53649 -6.33895 0
M  V30 2093 N 190.675 0.682077 -1.42076 0
M  V30 2094 C 191.605 1.80796 -1.47767 0
M  V30 2095 C 192.586 1.6677 -0.334954 0
M  V30 2096 O 193.771 1.863 -0.548264 0
M  V30 2097 C 190.901 3.19038 -1.37229 0
M  V30 2098 C 189.855 3.47789 -2.49453 0
M  V30 2099 C 189.181 4.8553 -2.23975 0
M  V30 2100 C 190.481 3.45411 -3.91776 0
M  V30 2101 H 192.175 1.7629 -2.41997 0
M  V30 2102 H 189.721 0.846721 -1.16476 0
M  V30 2103 H 191.674 3.97528 -1.39821 0
M  V30 2104 H 190.398 3.24204 -0.394907 0
M  V30 2105 H 189.057 2.71657 -2.46166 0
M  V30 2106 H 188.705 4.87337 -1.24547 0
M  V30 2107 H 188.405 5.0573 -2.99184 0
M  V30 2108 H 189.929 5.66312 -2.28304 0
M  V30 2109 H 191.343 4.13882 -3.96705 0
M  V30 2110 H 189.74 3.77145 -4.66778 0
M  V30 2111 H 190.81 2.44122 -4.18966 0
M  V30 2112 N 192.153 1.28127 0.917671 0
M  V30 2113 C 193.381 1.17892 1.70026 0
M  V30 2114 C 193.796 -0.262958 1.8696 0
M  V30 2115 O 193.153 -1.17811 1.3938 0
M  V30 2116 C 193.204 1.86872 3.09453 0
M  V30 2117 O 192.925 3.25428 2.93306 0
M  V30 2118 C 194.426 1.8289 4.03815 0
M  V30 2119 H 191.646 0.40942 0.531617 0
M  V30 2120 H 194.19 1.69181 1.14883 0
M  V30 2121 H 192.345 1.39464 3.61426 0
M  V30 2122 H 192.759 3.59918 3.81523 0
M  V30 2123 H 194.233 2.35751 4.99125 0
M  V30 2124 H 194.71 0.800412 4.31845 0
M  V30 2125 H 195.316 2.29959 3.57769 0
M  V30 2126 N 193.631 -1.12557 1.10312 0
M  V30 2127 C 194.878 -1.84038 0.844759 0
M  V30 2128 C 195.206 -1.84026 -0.629668 0
M  V30 2129 O 194.461 -1.28026 -1.48013 0
M  V30 2130 C 194.76 -3.31462 1.33669 0
M  V30 2131 C 194.426 -3.51647 2.82232 0
M  V30 2132 C 193.088 -3.56864 3.22802 0
M  V30 2133 C 195.44 -3.58867 3.77974 0
M  V30 2134 C 192.768 -3.66844 4.57867 0
M  V30 2135 C 195.12 -3.70375 5.1284 0
M  V30 2136 C 193.784 -3.73848 5.52986 0
M  V30 2137 H 193.054 -0.673444 0.309119 0
M  V30 2138 H 195.701 -1.32824 1.37949 0
M  V30 2139 H 194.006 -3.85091 0.721949 0
M  V30 2140 H 195.703 -3.85236 1.11329 0
M  V30 2141 H 192.293 -3.48249 2.49842 0
M  V30 2142 H 196.477 -3.54107 3.47738 0
M  V30 2143 H 191.733 -3.67804 4.88396 0
M  V30 2144 H 195.907 -3.74904 5.86873 0
M  V30 2145 H 193.534 -3.81333 6.57639 0
M  V30 2146 N 195.109 -0.891671 -1.2995 0
M  V30 2147 C 196.339 -0.527893 -1.99742 0
M  V30 2148 C 196.747 0.88979 -1.66971 0
M  V30 2149 O 196.09 1.59766 -0.906667 0
M  V30 2150 C 196.152 -0.630804 -3.53922 0
M  V30 2151 C 195.816 -2.01401 -4.10228 0
M  V30 2152 C 196.813 -2.98422 -4.25724 0
M  V30 2153 C 194.498 -2.32121 -4.45449 0
M  V30 2154 C 196.492 -4.24293 -4.75662 0
M  V30 2155 C 194.179 -3.58237 -4.95086 0
M  V30 2156 C 195.177 -4.54137 -5.10146 0
M  V30 2157 O 194.865 -5.78014 -5.58708 0
M  V30 2158 H 194.597 -0.201953 -0.645129 0
M  V30 2159 H 197.151 -1.20076 -1.66646 0
M  V30 2160 H 195.381 0.0990616 -3.86573 0
M  V30 2161 H 197.07 -0.277338 -4.04951 0
M  V30 2162 H 197.836 -2.76001 -3.98809 0
M  V30 2163 H 193.715 -1.5824 -4.32991 0
M  V30 2164 H 197.259 -4.99153 -4.87332 0
M  V30 2165 H 193.156 -3.80491 -5.21437 0
M  V30 2166 H 193.924 -5.8049 -5.77039 0
M  V30 2167 N 196.587 1.43421 -0.653314 0
M  V30 2168 C 197.517 2.33487 0.0246656 0
M  V30 2169 C 198.498 1.49475 0.811863 0
M  V30 2170 O 199.683 1.78139 0.773322 0
M  V30 2171 C 196.813 3.32841 0.99166 0
M  V30 2172 C 195.767 4.26842 0.314568 0
M  V30 2173 C 195.093 5.16236 1.39302 0
M  V30 2174 C 196.393 5.16243 -0.793095 0
M  V30 2175 H 198.087 2.90427 -0.727481 0
M  V30 2176 H 195.633 1.39649 -0.351287 0
M  V30 2177 H 197.586 3.94747 1.47487 0
M  V30 2178 H 196.31 2.74158 1.77497 0
M  V30 2179 H 194.969 3.663 -0.148199 0
M  V30 2180 H 194.617 4.53891 2.16776 0
M  V30 2181 H 194.317 5.79948 0.945223 0
M  V30 2182 H 195.841 5.81015 1.87759 0
M  V30 2183 H 197.255 5.71958 -0.392039 0
M  V30 2184 H 195.652 5.88676 -1.16536 0
M  V30 2185 H 196.722 4.55927 -1.65103 0
M  V30 2186 N 198.065 0.39524 1.52563 0
M  V30 2187 C 199.012 -0.437036 2.26624 0
M  V30 2188 C 199.982 -1.05281 1.28472 0
M  V30 2189 O 201.167 -1.07971 1.57311 0
M  V30 2190 C 198.307 -1.55524 3.08069 0
M  V30 2191 C 197.42 -0.961745 4.21158 0
M  V30 2192 C 196.555 -2.05149 4.89987 0
M  V30 2193 C 195.594 -1.4342 5.95061 0
M  V30 2194 N 194.731 -2.46351 6.57462 0
M  V30 2195 H 199.571 0.200976 2.97322 0
M  V30 2196 H 197.108 0.110944 1.46681 0
M  V30 2197 H 199.066 -2.21437 3.53584 0
M  V30 2198 H 197.696 -2.16348 2.3957 0
M  V30 2199 H 196.748 -0.192048 3.79915 0
M  V30 2200 H 198.06 -0.470701 4.96574 0
M  V30 2201 H 197.214 -2.78819 5.38837 0
M  V30 2202 H 195.953 -2.57615 4.14109 0
M  V30 2203 H 194.958 -0.682774 5.45544 0
M  V30 2204 H 196.183 -0.917416 6.72875 0
M  V30 2205 H 194.129 -2.97975 5.8442 0
M  V30 2206 H 194.046 -2.02019 7.28508 0
M  V30 2207 H 195.314 -3.19633 7.10954 0
M  V30 2208 N 199.544 -1.57102 0.125237 0
M  V30 2209 C 200.772 -1.99761 -0.538797 0
M  V30 2210 C 201.187 -1.00503 -1.59827 0
M  V30 2211 O 200.544 0.00119474 -1.825 0
M  V30 2212 C 200.595 -3.42408 -1.15927 0
M  V30 2213 O 200.316 -4.37869 -0.142143 0
M  V30 2214 C 201.817 -4.00232 -1.90602 0
M  V30 2215 H 199.037 -0.655772 -0.14214 0
M  V30 2216 H 201.581 -2.03383 0.213413 0
M  V30 2217 H 199.736 -3.39706 -1.86223 0
M  V30 2218 H 200.15 -5.21128 -0.593775 0
M  V30 2219 H 201.624 -5.02105 -2.29335 0
M  V30 2220 H 202.101 -3.39721 -2.78363 0
M  V30 2221 H 202.707 -4.06499 -1.25055 0
M  V30 2222 N 201.022 0.148545 -1.56898 0
M  V30 2223 C 201.952 1.18524 -2.01182 0
M  V30 2224 C 202.933 1.4489 -0.891123 0
M  V30 2225 O 204.118 1.55836 -1.15882 0
M  V30 2226 C 201.248 2.51879 -2.39112 0
M  V30 2227 C 200.202 2.40038 -3.54353 0
M  V30 2228 C 199.528 3.78089 -3.78091 0
M  V30 2229 C 200.828 1.88577 -4.87069 0
M  V30 2230 H 202.522 0.817029 -2.88036 0
M  V30 2231 H 200.068 0.391575 -1.38574 0
M  V30 2232 H 202.021 3.24627 -2.68692 0
M  V30 2233 H 200.745 2.90532 -1.49193 0
M  V30 2234 H 199.404 1.69742 -3.24936 0
M  V30 2235 H 199.052 4.14175 -2.85426 0
M  V30 2236 H 198.752 3.71028 -4.55645 0
M  V30 2237 H 200.276 4.52387 -4.10095 0
M  V30 2238 H 201.69 2.51117 -5.15377 0
M  V30 2239 H 200.087 1.9241 -5.68417 0
M  V30 2240 H 201.157 0.84136 -4.77545 0
M  V30 2241 N 202.5 1.5196 0.417844 0
M  V30 2242 C 203.41 1.77554 1.53336 0
M  V30 2243 C 204.426 0.660655 1.6097 0
M  V30 2244 O 205.602 0.945099 1.77848 0
M  V30 2245 C 202.667 1.91291 2.89152 0
M  V30 2246 C 201.728 3.15183 2.91475 0
M  V30 2247 C 200.961 3.28256 4.20813 0
M  V30 2248 O 201.184 2.46798 5.14244 0
M  V30 2249 O 200.118 4.21356 4.29817 0
M  V30 2250 H 203.944 2.7222 1.34647 0
M  V30 2251 H 201.529 1.36698 0.602828 0
M  V30 2252 H 203.411 2.02199 3.69721 0
M  V30 2253 H 202.086 0.998129 3.07927 0
M  V30 2254 H 200.993 3.09739 2.09791 0
M  V30 2255 H 202.326 4.06414 2.77648 0
M  V30 2256 N 203.978 -0.674533 1.42435 0
M  V30 2257 C 204.926 -1.80934 1.46169 0
M  V30 2258 C 205.92 -1.66006 0.3374 0
M  V30 2259 O 207.126 -1.72611 0.510425 0
M  V30 2260 H 203.501 -0.596594 0.457798 0
M  V30 2261 H 205.472 -1.74903 2.41767 0
M  V30 2262 C 204.221 -3.19088 1.38123 0
M  V30 2263 H 203.544 -3.31203 2.23931 0
M  V30 2264 H 204.984 -3.9851 1.44797 0
M  V30 2265 C 203.443 -3.36763 0.0960517 0
M  V30 2266 O 203.973 -3.92581 -0.851073 0
M  V30 2267 N 202.179 -2.90597 0.0131186 0
M  V30 2268 H 201.726 -2.45359 0.784639 0
M  V30 2269 H 201.684 -3.028 -0.846133 0
M  V30 2270 N 205.456 -1.28612 -0.910864 0
M  V30 2271 C 206.419 -1.12803 -1.9952 0
M  V30 2272 C 207.419 -0.0668264 -1.60661 0
M  V30 2273 O 208.609 -0.312847 -1.71368 0
M  V30 2274 C 205.741 -0.72254 -3.33155 0
M  V30 2275 H 206.934 -2.09109 -2.14973 0
M  V30 2276 H 204.487 -1.11639 -1.09391 0
M  V30 2277 H 205.222 0.241152 -3.23402 0
M  V30 2278 H 205.007 -1.48916 -3.62721 0
M  V30 2279 H 206.497 -0.634666 -4.12749 0
M  V30 2280 N 206.934 1.1197 -1.10907 0
M  V30 2281 C 207.866 2.17592 -0.720175 0
M  V30 2282 C 208.879 1.60938 0.245495 0
M  V30 2283 O 210.068 1.78476 0.0292245 0
M  V30 2284 C 207.168 3.38873 -0.0427917 0
M  V30 2285 C 206.341 4.25006 -1.03388 0
M  V30 2286 C 205.4 5.24774 -0.387075 0
M  V30 2287 O 204.426 5.59631 -1.03934 0
M  V30 2288 N 205.628 5.74208 0.852407 0
M  V30 2289 H 208.393 2.51567 -1.62893 0
M  V30 2290 H 205.954 1.27439 -0.998543 0
M  V30 2291 H 207.946 4.02703 0.401501 0
M  V30 2292 H 206.516 3.03007 0.768456 0
M  V30 2293 H 205.736 3.57716 -1.65629 0
M  V30 2294 H 207.024 4.79397 -1.70458 0
M  V30 2295 H 206.422 5.48062 1.40161 0
M  V30 2296 H 204.979 6.39901 1.23977 0
M  V30 2297 N 208.412 0.89855 1.29475 0
M  V30 2298 C 209.375 0.380272 2.26023 0
M  V30 2299 C 210.375 -0.484891 1.53315 0
M  V30 2300 O 211.565 -0.290108 1.71767 0
M  V30 2301 C 208.697 -0.45651 3.3783 0
M  V30 2302 H 209.89 1.23295 2.73383 0
M  V30 2303 H 207.443 0.676589 1.40897 0
M  V30 2304 H 208.178 -1.32922 2.95808 0
M  V30 2305 H 207.963 0.163393 3.91759 0
M  V30 2306 H 209.453 -0.810466 4.0966 0
M  V30 2307 N 209.89 -1.43072 0.660911 0
M  V30 2308 C 210.822 -2.29108 -0.0647641 0
M  V30 2309 C 211.835 -1.42928 -0.779448 0
M  V30 2310 O 213.024 -1.66788 -0.635921 0
M  V30 2311 C 210.124 -3.20032 -1.11503 0
M  V30 2312 C 209.297 -4.34792 -0.476955 0
M  V30 2313 C 208.356 -5.06534 -1.42513 0
M  V30 2314 O 207.382 -5.61538 -0.930771 0
M  V30 2315 N 208.584 -5.1075 -2.75889 0
M  V30 2316 H 211.349 -2.92029 0.673731 0
M  V30 2317 H 208.91 -1.53846 0.50427 0
M  V30 2318 H 210.902 -3.64892 -1.75032 0
M  V30 2319 H 209.472 -2.58658 -1.75541 0
M  V30 2320 H 208.692 -3.92752 0.337572 0
M  V30 2321 H 209.98 -5.0879 -0.0318525 0
M  V30 2322 H 209.378 -4.67447 -3.18606 0
M  V30 2323 H 207.935 -5.59302 -3.347 0
M  V30 2324 N 211.368 -0.403325 -1.52352 0
M  V30 2325 C 212.3 0.4603 -2.2453 0
M  V30 2326 C 213.313 1.01505 -1.27282 0
M  V30 2327 O 214.502 0.914982 -1.53266 0
M  V30 2328 C 211.602 1.65208 -2.95905 0
M  V30 2329 C 210.775 1.22224 -4.19976 0
M  V30 2330 C 209.834 2.28028 -4.74226 0
M  V30 2331 O 208.86 1.88857 -5.36956 0
M  V30 2332 N 210.062 3.6012 -4.55295 0
M  V30 2333 H 212.827 -0.158156 -2.99282 0
M  V30 2334 H 210.388 -0.230402 -1.60252 0
M  V30 2335 H 212.38 2.35541 -3.29093 0
M  V30 2336 H 210.95 2.17658 -2.24374 0
M  V30 2337 H 210.17 0.34725 -3.92668 0
M  V30 2338 H 211.458 0.911924 -5.00561 0
M  V30 2339 H 210.856 3.94698 -4.05253 0
M  V30 2340 H 209.413 4.26447 -4.92936 0
M  V30 2341 N 212.846 1.57033 -0.133567 0
M  V30 2342 C 214.074 2.00044 0.528195 0
M  V30 2343 C 214.489 1.01349 1.59291 0
M  V30 2344 O 213.846 0.00848369 1.82498 0
M  V30 2345 C 213.897 3.43018 1.1411 0
M  V30 2346 O 213.618 4.37939 0.11892 0
M  V30 2347 C 215.119 4.01237 1.88477 0
M  V30 2348 H 212.339 0.656517 0.138661 0
M  V30 2349 H 214.883 2.03267 -0.224196 0
M  V30 2350 H 213.038 3.40688 1.84418 0
M  V30 2351 H 213.452 5.21436 0.56613 0
M  V30 2352 H 214.926 5.03314 2.26669 0
M  V30 2353 H 215.403 3.41193 2.76558 0
M  V30 2354 H 216.009 4.07156 1.22898 0
M  V30 2355 N 214.325 -0.140222 1.56975 0
M  V30 2356 C 215.553 -0.866437 1.87884 0
M  V30 2357 C 215.968 -1.74428 0.722517 0
M  V30 2358 O 215.325 -1.79891 -0.30749 0
M  V30 2359 C 215.376 -1.71753 3.18093 0
M  V30 2360 O 215.097 -0.875056 4.29272 0
M  V30 2361 C 216.598 -2.55074 3.62563 0
M  V30 2362 H 213.818 -0.25019 0.622612 0
M  V30 2363 H 216.362 -0.130977 2.0408 0
M  V30 2364 H 214.517 -2.40598 3.03631 0
M  V30 2365 H 214.931 -1.46002 5.03769 0
M  V30 2366 H 216.405 -3.10356 4.5649 0
M  V30 2367 H 216.882 -3.31434 2.88181 0
M  V30 2368 H 217.488 -1.91509 3.79743 0
M  V30 2369 N 215.803 -1.52179 -0.40978 0
M  V30 2370 C 216.733 -1.78435 -1.5061 0
M  V30 2371 C 217.714 -0.635295 -1.57791 0
M  V30 2372 O 218.899 -0.880823 -1.73076 0
M  V30 2373 C 216.029 -1.93444 -2.88439 0
M  V30 2374 C 214.983 -3.09038 -2.96108 0
M  V30 2375 C 214.309 -3.09268 -4.36185 0
M  V30 2376 C 215.609 -4.48508 -2.67652 0
M  V30 2377 H 217.303 -2.70237 -1.28889 0
M  V30 2378 H 214.849 -1.30036 -0.618605 0
M  V30 2379 H 216.802 -2.10394 -3.65119 0
M  V30 2380 H 215.526 -0.983129 -3.11452 0
M  V30 2381 H 214.185 -2.91837 -2.21872 0
M  V30 2382 H 213.833 -2.11861 -4.56206 0
M  V30 2383 H 213.533 -3.86907 -4.42241 0
M  V30 2384 H 215.057 -3.28348 -5.14801 0
M  V30 2385 H 216.471 -4.65918 -3.34056 0
M  V30 2386 H 214.868 -5.28059 -2.85085 0
M  V30 2387 H 215.938 -4.56649 -1.63095 0
M  V30 2388 N 217.281 0.66697 -1.42791 0
M  V30 2389 C 218.506 1.46004 -1.47301 0
M  V30 2390 C 218.931 1.87894 -0.0880317 0
M  V30 2391 O 218.289 1.56502 0.915253 0
M  V30 2392 C 218.337 2.68031 -2.41229 0
M  V30 2393 O 217.441 3.6659 -1.88906 0
M  V30 2394 H 216.782 0.43832 -0.49877 0
M  V30 2395 H 219.312 0.817391 -1.87563 0
M  V30 2396 H 219.322 3.1601 -2.58073 0
M  V30 2397 H 217.997 2.36883 -3.41847 0
M  V30 2398 H 216.574 3.25661 -1.81656 0
M  V30 2399 N 218.759 1.29093 0.90403 0
M  V30 2400 C 219.689 1.16401 2.02418 0
M  V30 2401 C 220.67 0.0593085 1.69997 0
M  V30 2402 O 221.855 0.238021 1.92736 0
M  V30 2403 C 218.985 0.835233 3.37107 0
M  V30 2404 C 217.939 1.89578 3.83724 0
M  V30 2405 C 217.265 1.42041 5.15489 0
M  V30 2406 C 218.565 3.30394 4.04521 0
M  V30 2407 H 220.259 2.10109 2.13295 0
M  V30 2408 H 217.805 1.01157 1.02486 0
M  V30 2409 H 219.758 0.733169 4.14973 0
M  V30 2410 H 218.482 -0.137543 3.2631 0
M  V30 2411 H 217.141 1.98715 3.08071 0
M  V30 2412 H 216.789 0.436426 5.01103 0
M  V30 2413 H 216.489 2.12964 5.4765 0
M  V30 2414 H 218.013 1.33176 5.959 0
M  V30 2415 H 219.427 3.24123 4.72882 0
M  V30 2416 H 217.824 3.99237 4.48029 0
M  V30 2417 H 218.894 3.73692 3.09002 0
M  V30 2418 N 220.237 -1.11381 1.11499 0
M  V30 2419 C 221.2 -2.15622 0.777153 0
M  V30 2420 C 222.2 -1.59504 -0.203779 0
M  V30 2421 O 223.39 -1.74188 0.020782 0
M  V30 2422 C 220.522 -3.40556 0.153116 0
M  V30 2423 H 221.715 -2.47021 1.70061 0
M  V30 2424 H 219.268 -1.26577 0.916952 0
M  V30 2425 H 220.003 -3.14767 -0.780536 0
M  V30 2426 H 219.788 -3.8257 0.859238 0
M  V30 2427 H 221.278 -4.17546 -0.0671044 0
M  V30 2428 N 221.715 -0.905404 -1.28997 0
M  V30 2429 C 222.964 -0.530191 -1.94607 0
M  V30 2430 C 223.277 0.929185 -1.72121 0
M  V30 2431 O 224.483 1.41218 -2.31883 0
M  V30 2432 C 222.939 -0.897333 -3.48534 0
M  V30 2433 C 222.547 -2.37587 -3.79811 0
M  V30 2434 C 224.291 -0.592304 -4.20347 0
M  V30 2435 C 222.198 -2.68357 -5.27009 0
M  V30 2436 H 221.128 -0.194558 -0.728466 0
M  V30 2437 H 223.779 -1.10318 -1.46636 0
M  V30 2438 H 222.161 -0.253214 -3.9519 0
M  V30 2439 H 223.335 -3.06602 -3.43994 0
M  V30 2440 H 221.65 -2.6505 -3.2115 0
M  V30 2441 H 224.247 -0.798975 -5.28697 0
M  V30 2442 H 224.59 0.469474 -4.13644 0
M  V30 2443 H 225.123 -1.19452 -3.79442 0
M  V30 2444 H 221.862 -3.73355 -5.38782 0
M  V30 2445 H 221.382 -2.03971 -5.64053 0
M  V30 2446 H 223.061 -2.54922 -5.94663 0
M  V30 2447 N 223.193 1.4272 -0.668489 0
M  V30 2448 C 224.44 2.01624 -0.18814 0
M  V30 2449 C 224.768 1.5282 1.20317 0
M  V30 2450 O 224.023 0.718323 1.8204 0
M  V30 2451 C 224.322 3.57021 -0.164499 0
M  V30 2452 C 223.988 4.25232 -1.49962 0
M  V30 2453 C 222.65 4.4358 -1.8652 0
M  V30 2454 C 225.002 4.63727 -2.37921 0
M  V30 2455 C 222.33 4.97694 -3.10674 0
M  V30 2456 C 224.682 5.19218 -3.6138 0
M  V30 2457 C 223.346 5.3578 -3.98115 0
M  V30 2458 H 222.616 0.737795 -0.0688454 0
M  V30 2459 H 225.263 1.70991 -0.862225 0
M  V30 2460 H 223.568 3.87285 0.593079 0
M  V30 2461 H 225.265 4.00372 0.224271 0
M  V30 2462 H 221.855 4.11306 -1.20522 0
M  V30 2463 H 226.039 4.4923 -2.10964 0
M  V30 2464 H 221.295 5.08702 -3.39164 0
M  V30 2465 H 225.469 5.4799 -4.29743 0
M  V30 2466 H 223.096 5.77475 -4.94395 0
M  V30 2467 O 224.71 0.553536 1.51718 0
M  V30 2468 H 225.401 0.050045 1.93635 0
M  V30 END ATOM
M  V30 BEGIN BOND
M  V30 END BOND
M  V30 END CTAB
M  END
$$$$
