drugbank_target|P0A115 Carboxymethylenebutenolidase (DB01973; DB02153)
 OpenBabel12092119523D

  0  0  0     0  0            999 V3000
M  V30 BEGIN CTAB
M  V30 COUNTS 3575 3623 0 0 0
M  V30 BEGIN ATOM
M  V30 1 H -0.908 1.98254 -0.117106 0
M  V30 2 N 0 1.576 0 0
M  V30 3 C 0.933 2.03868 1.02534 0
M  V30 4 C 1.911 0.928543 1.3348 0
M  V30 5 O 3.095 1.19667 1.45644 0
M  V30 6 C 0.222 2.43627 2.35294 0
M  V30 7 C -0.732 3.65373 2.2001 0
M  V30 8 S 0.101 5.13292 1.52614 0
M  V30 9 C 1.257 5.56322 2.86805 0
M  V30 10 H 1.49 2.90518 0.631377 0
M  V30 11 H -0.977 1.52953 0.210867 0
M  V30 12 H 0.981 2.67203 3.11629 0
M  V30 13 H -0.358 1.57376 2.7183 0
M  V30 14 H -1.165 3.90944 3.18086 0
M  V30 15 H -1.563 3.418 1.51819 0
M  V30 16 H 0.729 5.58782 3.83104 0
M  V30 17 H 1.672 6.56266 2.65933 0
M  V30 18 H 2.08 4.83886 2.90714 0
M  V30 19 N 1.4781 -0.272755 1.55222 0
M  V30 20 C 2.4081 -1.34136 1.91127 0
M  V30 21 C 3.3891 -1.51513 0.773168 0
M  V30 22 O 4.5741 -1.64552 1.03132 0
M  V30 23 C 1.7041 -2.70083 2.1834 0
M  V30 24 C 0.6581 -2.67437 3.34158 0
M  V30 25 C -0.0159 -4.06938 3.46851 0
M  V30 26 C 1.2841 -2.26686 4.70543 0
M  V30 27 H 2.9781 -1.04333 2.80633 0
M  V30 28 H 0.5241 -0.500454 1.35024 0
M  V30 29 H 2.4771 -3.44952 2.42046 0
M  V30 30 H 1.2011 -3.01469 1.25634 0
M  V30 31 H -0.1399 -1.95026 3.1042 0
M  V30 32 H -0.4919 -4.35547 2.51611 0
M  V30 33 H -0.7919 -4.06062 4.2472 0
M  V30 34 H 0.7321 -4.83545 3.72849 0
M  V30 35 H 2.1461 -2.91277 4.93792 0
M  V30 36 H 0.5431 -2.36971 5.5133 0
M  V30 37 H 1.6131 -1.21818 4.69349 0
M  V30 38 N 2.9562 -1.48159 -0.537278 0
M  V30 39 C 4.1842 -1.59454 -1.31841 0
M  V30 40 C 4.5992 -0.252065 -1.8711 0
M  V30 41 O 3.9562 0.757621 -1.66031 0
M  V30 42 C 4.0072 -2.63546 -2.47439 0
M  V30 43 O 3.7282 -3.92583 -1.94449 0
M  V30 44 C 5.2292 -2.85212 -3.39366 0
M  V30 45 H 2.4492 -0.53785 -0.401196 0
M  V30 46 H 4.9932 -1.93932 -0.648891 0
M  V30 47 H 3.1482 -2.31946 -3.1029 0
M  V30 48 H 3.5622 -4.49629 -2.70063 0
M  V30 49 H 5.0362 -3.61863 -4.16844 0
M  V30 50 H 5.5132 -1.93765 -3.94147 0
M  V30 51 H 6.1192 -3.18086 -2.82314 0
M  V30 52 N 4.4343 0.785586 -1.36625 0
M  V30 53 C 5.3443 1.92964 -1.33425 0
M  V30 54 C 6.3603 1.72394 -0.235851 0
M  V30 55 O 7.5363 1.95866 -0.468878 0
M  V30 56 C 4.6013 3.27884 -1.12662 0
M  V30 57 C 3.6623 3.61204 -2.32013 0
M  V30 58 C 2.8953 4.89687 -2.12231 0
M  V30 59 O 3.1183 5.59704 -1.09945 0
M  V30 60 O 2.0523 5.21752 -3.00098 0
M  V30 61 H 5.8783 1.98613 -2.29753 0
M  V30 62 H 3.4633 0.926384 -1.17211 0
M  V30 63 H 5.3453 4.08614 -1.03016 0
M  V30 64 H 4.0203 3.23118 -0.193991 0
M  V30 65 H 2.9273 2.80765 -2.47228 0
M  V30 66 H 4.2603 3.70698 -3.23796 0
M  V30 67 N 5.9124 1.20967 1.01018 0
M  V30 68 C 7.1604 1.02172 1.74371 0
M  V30 69 C 7.4814 -0.446414 1.89821 0
M  V30 70 O 6.7514 -1.32234 1.44537 0
M  V30 71 H 5.3314 0.375066 0.646014 0
M  V30 72 H 7.9934 1.52187 1.21758 0
M  V30 73 H 7.0894 1.48538 2.74487 0
M  V30 74 N 7.3905 -1.2043 1.01659 0
M  V30 75 C 8.6395 -1.89118 0.701237 0
M  V30 76 C 8.9525 -1.79705 -0.772358 0
M  V30 77 O 10.1585 -2.43528 -1.20026 0
M  V30 78 C 8.6145 -3.39168 1.20388 0
M  V30 79 C 8.2225 -3.57166 2.70438 0
M  V30 80 C 9.9665 -4.1341 0.963953 0
M  V30 81 C 7.8735 -5.01042 3.14183 0
M  V30 82 H 6.8035 -0.708267 0.2586 0
M  V30 83 H 9.4545 -1.36239 1.22927 0
M  V30 84 H 7.8365 -3.91369 0.603824 0
M  V30 85 H 9.0105 -3.15351 3.35992 0
M  V30 86 H 7.3255 -2.96294 2.92572 0
M  V30 87 H 9.9225 -5.19491 1.26621 0
M  V30 88 H 10.2655 -4.16181 -0.099578 0
M  V30 89 H 10.7985 -3.67309 1.52738 0
M  V30 90 H 7.5375 -5.03426 4.19812 0
M  V30 91 H 7.0575 -5.43668 2.53348 0
M  V30 92 H 8.7365 -5.69623 3.0682 0
M  V30 93 N 8.8686 -0.792821 -1.36206 0
M  V30 94 C 10.0936 -0.377701 -2.03932 0
M  V30 95 C 10.5186 0.998947 -1.59382 0
M  V30 96 O 9.8766 1.64421 -0.763903 0
M  V30 97 C 9.9246 -0.453635 -3.57735 0
M  V30 98 O 9.0286 0.538151 -4.08874 0
M  V30 99 H 8.3696 -0.159855 -0.644471 0
M  V30 100 H 10.8996 -1.07488 -1.7409 0
M  V30 101 H 10.9096 -0.318464 -4.06755 0
M  V30 102 H 9.5846 -1.45784 -3.89512 0
M  V30 103 H 8.1616 0.364359 -3.71116 0
M  V30 104 N 10.3467 1.47872 -0.545128 0
M  V30 105 C 11.5957 2.01695 -0.0145033 0
M  V30 106 C 11.9087 1.42609 1.33873 0
M  V30 107 O 13.1147 1.88021 1.95858 0
M  V30 108 C 11.5707 3.59892 0.0245068 0
M  V30 109 C 11.1787 4.27966 -1.32475 0
M  V30 110 C 12.9227 4.21507 0.50316 0
M  V30 111 C 10.8297 5.78136 -1.2455 0
M  V30 112 H 9.7597 0.753998 -0.00165172 0
M  V30 113 H 12.4107 1.69985 -0.691175 0
M  V30 114 H 10.7927 3.88509 0.766575 0
M  V30 115 H 11.9667 4.11003 -2.08357 0
M  V30 116 H 10.2817 3.78286 -1.74036 0
M  V30 117 H 12.8787 5.31538 0.580656 0
M  V30 118 H 13.2217 3.87855 1.51243 0
M  V30 119 H 13.7547 3.97376 -0.183681 0
M  V30 120 H 10.4937 6.16388 -2.23039 0
M  V30 121 H 10.0137 5.97469 -0.528282 0
M  V30 122 H 11.6927 6.40099 -0.942488 0
M  V30 123 N 11.8248 0.280983 1.55075 0
M  V30 124 C 12.7568 -0.637268 2.20163 0
M  V30 125 C 13.7698 -1.11298 1.18813 0
M  V30 126 O 14.9588 -1.03388 1.4551 0
M  V30 127 C 12.0588 -1.88199 2.81841 0
M  V30 128 C 11.2318 -1.55211 4.08936 0
M  V30 129 C 10.2908 -2.64991 4.54606 0
M  V30 130 O 9.3168 -2.30929 5.2025 0
M  V30 131 N 10.5188 -3.95161 4.25238 0
M  V30 132 H 13.2838 -0.0801694 2.99593 0
M  V30 133 H 10.8448 0.102329 1.61576 0
M  V30 134 H 12.8368 -2.60948 3.09335 0
M  V30 135 H 11.4068 -2.34799 2.06369 0
M  V30 136 H 10.6268 -0.658185 3.88666 0
M  V30 137 H 11.9148 -1.30681 4.91732 0
M  V30 138 H 11.3128 -4.25653 3.72607 0
M  V30 139 H 9.8698 -4.6427 4.5749 0
M  V30 140 N 13.3029 -1.57598 0.00835791 0
M  V30 141 C 14.5279 -1.95617 -0.689103 0
M  V30 142 C 14.9529 -0.883753 -1.66046 0
M  V30 143 O 14.3109 0.157352 -1.80616 0
M  V30 144 C 14.3589 -3.32736 -1.38994 0
M  V30 145 O 13.4629 -3.27631 -2.50463 0
M  V30 146 H 12.8039 -0.638379 -0.182668 0
M  V30 147 H 15.3339 -2.045 0.064036 0
M  V30 148 H 15.3439 -3.68494 -1.75147 0
M  V30 149 H 14.0189 -4.1034 -0.677778 0
M  V30 150 H 12.5959 -3.03561 -2.16576 0
M  V30 151 N 14.781 0.264519 -1.55364 0
M  V30 152 C 16.011 1.01153 -1.80143 0
M  V30 153 C 16.419 1.80115 -0.579253 0
M  V30 154 O 15.762 1.77813 0.46132 0
M  V30 155 C 15.824 2.01098 -2.97993 0
M  V30 156 C 15.488 1.40995 -4.34706 0
M  V30 157 C 16.485 0.821316 -5.13372 0
M  V30 158 C 14.17 1.43461 -4.81378 0
M  V30 159 C 16.164 0.265339 -6.36847 0
M  V30 160 C 13.851 0.874771 -6.04807 0
M  V30 161 C 14.849 0.291146 -6.82379 0
M  V30 162 O 14.537 -0.260093 -8.03479 0
M  V30 163 H 14.269 0.304125 -0.603725 0
M  V30 164 H 16.823 0.298089 -2.03225 0
M  V30 165 H 15.053 2.76224 -2.70623 0
M  V30 166 H 16.742 2.61997 -3.1002 0
M  V30 167 H 17.508 0.794903 -4.78442 0
M  V30 168 H 13.387 1.87826 -4.21002 0
M  V30 169 H 16.931 -0.190837 -6.97339 0
M  V30 170 H 12.828 0.898452 -6.39217 0
M  V30 171 H 13.596 -0.150265 -8.18362 0
M  V30 172 N 16.2591 1.48442 0.529413 0
M  V30 173 C 17.5361 1.46978 1.29062 0
M  V30 174 C 17.9161 0.181769 2.10316 0
M  V30 175 O 17.2641 -0.836481 2.12639 0
M  V30 176 C 17.4741 2.7321 2.17157 0
M  V30 177 C 18.8221 3.21562 2.77278 0
M  V30 178 O 19.8461 2.74131 2.27444 0
M  V30 179 O 18.7051 4.04094 3.67927 0
M  V30 180 H 15.7991 0.587003 0.582543 0
M  V30 181 H 18.3451 1.60676 0.546021 0
M  V30 182 H 17.1171 3.58465 1.56903 0
M  V30 183 H 16.7401 2.62235 2.98862 0
M  V30 184 N 17.7372 -0.778329 1.37039 0
M  V30 185 C 18.9852 -1.53361 1.31623 0
M  V30 186 C 19.3062 -1.94739 -0.100831 0
M  V30 187 O 18.5762 -1.65797 -1.04347 0
M  V30 188 H 17.1562 -0.568794 0.484234 0
M  V30 189 H 19.8182 -0.926742 1.71457 0
M  V30 190 H 18.9142 -2.43606 1.95096 0
M  V30 191 N 19.2153 -1.21501 -1.00376 0
M  V30 192 C 20.1653 -0.942843 -2.07592 0
M  V30 193 C 21.1493 0.102384 -1.60574 0
M  V30 194 O 22.3413 -0.10671 -1.76678 0
M  V30 195 C 19.4703 -0.510729 -3.3948 0
M  V30 196 C 18.5563 -1.59009 -3.93163 0
M  V30 197 N 18.9473 -2.81544 -4.20198 0
M  V30 198 C 17.2453 -1.45925 -4.21452 0
M  V30 199 C 17.9463 -3.51261 -4.63671 0
M  V30 200 N 16.9223 -2.78703 -4.66718 0
M  V30 201 H 20.7243 -1.87378 -2.26421 0
M  V30 202 H 18.2383 -1.11093 -1.18458 0
M  V30 203 H 20.2353 -0.297101 -4.1584 0
M  V30 204 H 18.8953 0.413436 -3.22057 0
M  V30 205 H 19.9063 -3.18075 -4.08716 0
M  V30 206 H 16.5833 -0.600467 -4.13159 0
M  V30 207 H 17.9733 -4.56183 -4.93302 0
M  V30 208 N 20.6934 1.19889 -1.02296 0
M  V30 209 C 21.9214 1.9339 -0.735399 0
M  V30 210 C 22.3364 1.75148 0.704887 0
M  V30 211 O 21.6934 1.06954 1.47875 0
M  V30 212 C 21.7444 3.45313 -1.06962 0
M  V30 213 O 21.4654 3.62964 -2.45334 0
M  V30 214 C 22.9664 4.35948 -0.804021 0
M  V30 215 H 20.1864 0.61448 -0.269546 0
M  V30 216 H 22.7304 1.522 -1.36585 0
M  V30 217 H 20.8854 3.84359 -0.484455 0
M  V30 218 H 21.2994 4.56886 -2.57595 0
M  V30 219 H 22.7734 5.41174 -1.0879 0
M  V30 220 H 23.2504 4.3842 0.261691 0
M  V30 221 H 23.8564 4.02574 -1.37164 0
M  V30 222 N 22.1715 0.800033 1.35784 0
M  V30 223 C 23.4185 0.377342 1.98953 0
M  V30 224 C 23.7465 -1.05378 1.6348 0
M  V30 225 O 23.0015 -1.74459 0.886707 0
M  V30 226 C 23.3005 0.500276 3.53881 0
M  V30 227 C 22.9665 1.89375 4.09204 0
M  V30 228 C 21.6285 2.27499 4.24025 0
M  V30 229 C 23.9805 2.8057 4.39238 0
M  V30 230 C 21.3085 3.562 4.66195 0
M  V30 231 C 23.6605 4.0871 4.82844 0
M  V30 232 C 22.3245 4.46843 4.95871 0
M  V30 233 H 21.5945 0.138079 0.728021 0
M  V30 234 H 24.2415 1.01955 1.62103 0
M  V30 235 H 22.5465 -0.225405 3.91151 0
M  V30 236 H 24.2435 0.154097 4.00704 0
M  V30 237 H 20.8335 1.58753 3.98115 0
M  V30 238 H 25.0175 2.52367 4.27346 0
M  V30 239 H 20.2735 3.85602 4.74469 0
M  V30 240 H 24.4475 4.79481 5.05046 0
M  V30 241 H 22.0745 5.46623 5.28306 0
M  V30 242 N 23.6496 -1.47581 0.552962 0
M  V30 243 C 24.8976 -2.02082 0.0272703 0
M  V30 244 C 25.2186 -1.4301 -1.32563 0
M  V30 245 O 24.4886 -0.603745 -1.86365 0
M  V30 246 H 23.0686 -0.746966 0.00709182 0
M  V30 247 H 25.7306 -1.81033 0.722008 0
M  V30 248 H 24.8266 -3.12034 -0.0639951 0
M  V30 249 N 25.1277 -0.289203 -1.54924 0
M  V30 250 C 26.0907 0.579144 -2.21762 0
M  V30 251 C 27.0907 1.07047 -1.1999 0
M  V30 252 O 28.2807 0.968384 -1.44803 0
M  V30 253 C 25.4127 1.80055 -2.8947 0
M  V30 254 H 26.6057 -0.00464908 -2.999 0
M  V30 255 H 24.1587 -0.0399306 -1.56249 0
M  V30 256 H 24.8937 2.42449 -2.15381 0
M  V30 257 H 24.6787 1.45602 -3.64064 0
M  V30 258 H 26.1687 2.41773 -3.40493 0
M  V30 259 N 26.6058 1.57591 -0.0167156 0
M  V30 260 C 27.5358 2.12496 0.967858 0
M  V30 261 C 28.5168 1.03807 1.34752 0
M  V30 262 O 29.7018 1.31577 1.42833 0
M  V30 263 C 26.8318 2.64194 2.25431 0
M  V30 264 C 25.7858 3.77559 2.01576 0
M  V30 265 C 25.1118 4.15636 3.36379 0
M  V30 266 C 26.4118 5.04151 1.36489 0
M  V30 267 H 28.1058 2.95013 0.510643 0
M  V30 268 H 25.6518 1.41915 0.244181 0
M  V30 269 H 27.6048 3.01236 2.94678 0
M  V30 270 H 26.3288 1.78821 2.73296 0
M  V30 271 H 24.9878 3.40937 1.34751 0
M  V30 272 H 24.6358 3.27263 3.81979 0
M  V30 273 H 24.3358 4.92022 3.21229 0
M  V30 274 H 25.8598 4.5525 4.06915 0
M  V30 275 H 27.2738 5.38857 1.95718 0
M  V30 276 H 25.6708 5.85453 1.31776 0
M  V30 277 H 26.7408 4.83733 0.336219 0
M  V30 278 N 28.0839 -0.256276 1.55502 0
M  V30 279 C 29.3299 -0.987079 1.77157 0
M  V30 280 C 29.6629 -1.85327 0.580315 0
M  V30 281 O 28.9379 -1.89874 -0.421686 0
M  V30 282 C 29.2209 -1.85553 3.08613 0
M  V30 283 C 29.0739 -1.01816 4.38125 0
M  V30 284 C 30.3929 -2.8397 3.36228 0
M  V30 285 H 27.5119 -0.357428 0.644526 0
M  V30 286 H 30.1539 -0.258239 1.88237 0
M  V30 287 H 28.3039 -2.47695 2.99298 0
M  V30 288 H 29.9759 -0.416159 4.59419 0
M  V30 289 H 28.2189 -0.322178 4.32602 0
M  V30 290 H 28.8899 -1.65939 5.26468 0
M  V30 291 H 31.3659 -2.31964 3.45445 0
M  V30 292 H 30.2419 -3.41864 4.29442 0
M  V30 293 H 30.5029 -3.59955 2.56681 0
M  V30 294 N 29.562 -1.4872 -0.521534 0
M  V30 295 C 30.81 -1.56857 -1.27437 0
M  V30 296 C 31.131 -0.247982 -1.93417 0
M  V30 297 O 30.401 0.731151 -1.81744 0
M  V30 298 H 28.981 -0.577885 -0.473347 0
M  V30 299 H 31.643 -1.85233 -0.606205 0
M  V30 300 H 30.739 -2.35402 -2.0492 0
M  V30 301 N 31.0401 0.771051 -1.3745 0
M  V30 302 C 32.2651 1.56529 -1.36065 0
M  V30 303 C 32.6901 1.88029 0.0515859 0
M  V30 304 O 32.0481 1.49282 1.02882 0
M  V30 305 C 32.0961 2.85187 -2.20683 0
M  V30 306 O 31.2001 3.79593 -1.61193 0
M  V30 307 H 30.5411 0.47411 -0.464883 0
M  V30 308 H 33.0711 0.954269 -1.80983 0
M  V30 309 H 33.0811 3.34283 -2.33921 0
M  V30 310 H 31.7561 2.61588 -3.23334 0
M  V30 311 H 30.3331 3.38239 -1.56999 0
M  V30 312 N 32.5182 1.22032 0.997298 0
M  V30 313 C 33.9292 1.0397 1.55071 0
M  V30 314 C 34.2802 -0.398192 1.92117 0
M  V30 315 O 33.4052 -1.28254 1.74298 0
M  V30 316 C 34.0002 1.88109 2.81781 0
M  V30 317 C 32.5592 1.74357 3.33581 0
M  V30 318 C 31.7062 1.84846 2.06706 0
M  V30 319 H 34.6572 1.35941 0.818883 0
M  V30 320 H 34.6782 1.39589 3.53971 0
M  V30 321 H 34.1902 2.92754 2.54787 0
M  V30 322 H 32.2912 0.72427 3.65493 0
M  V30 323 H 32.4042 2.56772 4.04481 0
M  V30 324 H 30.7682 1.28238 2.20062 0
M  V30 325 H 31.5512 2.91014 1.82114 0
M  V30 326 N 33.9963 -1.19345 1.0293 0
M  V30 327 C 34.9593 -2.20793 0.615069 0
M  V30 328 C 35.9593 -1.57553 -0.321533 0
M  V30 329 O 37.1493 -1.73862 -0.108483 0
M  V30 330 C 34.2813 -3.40754 -0.0999222 0
M  V30 331 H 35.4743 -2.58955 1.51269 0
M  V30 332 H 33.0273 -1.3303 0.820534 0
M  V30 333 H 33.7623 -3.0811 -1.01187 0
M  V30 334 H 33.5473 -3.87889 0.57309 0
M  V30 335 H 35.0373 -4.15898 -0.376645 0
M  V30 336 N 35.4744 -0.807222 -1.35358 0
M  V30 337 C 36.4214 -0.216037 -2.29787 0
M  V30 338 C 37.3914 0.650278 -1.52842 0
M  V30 339 O 38.5764 0.595227 -1.81278 0
M  V30 340 C 35.7164 0.628893 -3.39321 0
M  V30 341 C 34.8294 -0.257927 -4.31229 0
M  V30 342 C 33.9644 0.595069 -5.27856 0
M  V30 343 C 33.0034 -0.292111 -6.11403 0
M  V30 344 N 32.1404 0.520895 -7.00165 0
M  V30 345 H 36.9804 -1.02671 -2.79755 0
M  V30 346 H 34.5174 -0.517839 -1.37684 0
M  V30 347 H 36.4754 1.13393 -4.01494 0
M  V30 348 H 35.1054 1.40482 -2.90628 0
M  V30 349 H 34.1574 -0.881076 -3.70056 0
M  V30 350 H 35.4694 -0.940759 -4.89848 0
M  V30 351 H 34.6234 1.16522 -5.95405 0
M  V30 352 H 33.3624 1.31146 -4.69736 0
M  V30 353 H 32.3674 -0.874525 -5.428 0
M  V30 354 H 33.5924 -1.00638 -6.71602 0
M  V30 355 H 31.5384 1.22125 -6.44532 0
M  V30 356 H 31.4554 -0.103877 -7.55929 0
M  V30 357 H 32.7234 1.0743 -7.72062 0
M  V30 358 N 36.9525 1.47285 -0.560781 0
M  V30 359 C 37.9155 2.28535 0.174488 0
M  V30 360 C 38.9155 1.37153 0.839388 0
M  V30 361 O 40.1055 1.59748 0.694702 0
M  V30 362 C 37.2375 3.16934 1.25561 0
M  V30 363 H 38.4305 2.95012 -0.539262 0
M  V30 364 H 35.9835 1.53034 -0.317865 0
M  V30 365 H 36.7185 2.55157 2.00164 0
M  V30 366 H 36.5035 3.8419 0.783604 0
M  V30 367 H 37.9935 3.78143 1.77193 0
M  V30 368 N 38.4306 0.297415 1.54768 0
M  V30 369 C 39.8416 -0.195947 1.85669 0
M  V30 370 C 40.1926 -1.53707 1.21937 0
M  V30 371 O 39.3176 -2.10164 0.515754 0
M  V30 372 C 39.9126 -0.362318 3.36857 0
M  V30 373 C 38.4716 -0.799901 3.67802 0
M  V30 374 C 37.6186 0.0938578 2.77141 0
M  V30 375 H 40.5696 0.518538 1.4999 0
M  V30 376 H 40.5906 -1.19745 3.61167 0
M  V30 377 H 40.1026 0.613921 3.83214 0
M  V30 378 H 38.2036 -1.78682 3.26961 0
M  V30 379 H 38.3166 -0.621773 4.75048 0
M  V30 380 H 36.6806 -0.426254 2.51108 0
M  V30 381 H 37.4636 1.06639 3.26318 0
M  V30 382 N 39.9087 -1.5758 0.0250728 0
M  V30 383 C 40.8717 -2.08896 -0.943139 0
M  V30 384 C 41.8717 -1.00321 -1.25668 0
M  V30 385 O 43.0617 -1.26495 -1.19769 0
M  V30 386 C 40.1937 -2.55143 -2.26086 0
M  V30 387 H 41.3867 -2.95723 -0.498775 0
M  V30 388 H 38.9397 -1.54703 -0.222888 0
M  V30 389 H 39.6747 -1.71633 -2.75159 0
M  V30 390 H 39.4597 -3.34461 -2.04641 0
M  V30 391 H 40.9497 -2.95083 -2.95492 0
M  V30 392 N 41.3868 0.248026 -1.55636 0
M  V30 393 C 42.7978 0.817177 -1.67866 0
M  V30 394 C 43.1488 1.86069 -0.622322 0
M  V30 395 O 42.2738 2.15157 0.231618 0
M  V30 396 C 42.8688 1.489 -3.04326 0
M  V30 397 C 41.4278 2.00587 -3.185 0
M  V30 398 C 40.5748 0.856573 -2.63739 0
M  V30 399 H 43.5258 0.0238579 -1.58682 0
M  V30 400 H 43.5468 2.35698 -2.98708 0
M  V30 401 H 43.0588 0.729279 -3.81186 0
M  V30 402 H 41.1598 2.79443 -2.4646 0
M  V30 403 H 41.2728 2.20402 -4.25393 0
M  V30 404 H 39.6368 1.25678 -2.21534 0
M  V30 405 H 40.4198 0.109953 -3.43124 0
M  V30 406 N 42.8649 1.48995 0.513639 0
M  V30 407 C 44.1109 1.58076 1.27042 0
M  V30 408 C 44.4439 0.261026 1.92438 0
M  V30 409 O 43.7189 -0.734393 1.80103 0
M  V30 410 C 44.0019 2.73091 2.34719 0
M  V30 411 C 43.8549 4.14821 1.73907 0
M  V30 412 C 45.1739 2.83796 3.36375 0
M  V30 413 H 42.2929 0.575391 0.460536 0
M  V30 414 H 44.9349 1.81232 0.570516 0
M  V30 415 H 43.0849 2.53479 2.94416 0
M  V30 416 H 44.7569 4.45917 1.18135 0
M  V30 417 H 42.9999 4.21058 1.0437 0
M  V30 418 H 43.6709 4.91147 2.51949 0
M  V30 419 H 46.1469 3.01611 2.86653 0
M  V30 420 H 45.0229 3.65971 4.09093 0
M  V30 421 H 45.2839 1.92624 3.9793 0
M  V30 422 N 44.343 -0.763751 1.37857 0
M  V30 423 C 45.592 -1.51789 1.32827 0
M  V30 424 C 45.905 -1.95426 -0.0823719 0
M  V30 425 O 47.111 -2.70298 -0.255172 0
M  V30 426 C 45.567 -2.74133 2.33193 0
M  V30 427 C 45.175 -2.37562 3.79827 0
M  V30 428 C 46.919 -3.52054 2.37188 0
M  V30 429 C 44.826 -3.56456 4.71904 0
M  V30 430 H 43.756 -0.569896 0.493695 0
M  V30 431 H 46.407 -0.835822 1.63359 0
M  V30 432 H 44.789 -3.4427 1.9569 0
M  V30 433 H 45.963 -1.75157 4.26212 0
M  V30 434 H 44.278 -1.72798 3.78853 0
M  V30 435 H 46.875 -4.40437 3.03182 0
M  V30 436 H 47.218 -3.92486 1.38782 0
M  V30 437 H 47.751 -2.88921 2.7344 0
M  V30 438 H 44.49 -3.21099 5.71468 0
M  V30 439 H 44.01 -4.17938 4.30218 0
M  V30 440 H 45.689 -4.23168 4.89426 0
M  V30 441 N 45.8211 -1.22559 -0.990812 0
M  V30 442 C 47.0671 -1.05297 -1.73322 0
M  V30 443 C 47.4001 0.410655 -1.89808 0
M  V30 444 O 46.6751 1.30439 -1.44277 0
M  V30 445 C 46.9581 -1.76713 -3.13759 0
M  V30 446 C 46.8111 -3.30684 -3.04907 0
M  V30 447 C 48.1301 -1.52121 -4.12974 0
M  V30 448 H 45.2491 -0.38392 -0.629106 0
M  V30 449 H 47.8911 -1.50926 -1.15418 0
M  V30 450 H 46.0411 -1.37924 -3.63193 0
M  V30 451 H 47.7131 -3.7893 -2.63077 0
M  V30 452 H 45.9561 -3.60253 -2.41661 0
M  V30 453 H 46.6271 -3.75833 -4.04294 0
M  V30 454 H 49.1031 -1.85819 -3.72304 0
M  V30 455 H 47.9791 -2.04582 -5.0935 0
M  V30 456 H 48.2401 -0.454257 -4.3976 0
M  V30 457 N 47.2992 1.18797 -1.03562 0
M  V30 458 C 48.5482 1.87978 -0.731235 0
M  V30 459 C 48.8612 1.80911 0.743671 0
M  V30 460 O 50.0672 2.45407 1.16137 0
M  V30 461 C 48.5232 3.3721 -1.25768 0
M  V30 462 C 48.1312 3.52818 -2.76085 0
M  V30 463 C 49.8752 4.11825 -1.0296 0
M  V30 464 C 47.7822 4.9598 -3.22114 0
M  V30 465 H 46.7122 0.704063 -0.269835 0
M  V30 466 H 49.3632 1.34266 -1.25079 0
M  V30 467 H 47.7452 3.90359 -0.666011 0
M  V30 468 H 48.9192 3.09965 -3.40966 0
M  V30 469 H 47.2342 2.91602 -2.97249 0
M  V30 470 H 49.8312 5.17411 -1.34869 0
M  V30 471 H 50.1742 4.16287 0.0333546 0
M  V30 472 H 50.7072 3.64833 -1.58562 0
M  V30 473 H 47.4462 4.96684 -4.27768 0
M  V30 474 H 46.9662 5.39569 -2.61965 0
M  V30 475 H 48.6452 5.6467 -3.15844 0
M  V30 476 N 48.7773 0.814389 1.34928 0
M  V30 477 C 49.7403 0.235759 2.27984 0
M  V30 478 C 50.7403 -0.581412 1.49921 0
M  V30 479 O 51.9303 -0.398758 1.69575 0
M  V30 480 C 49.0623 -0.670433 3.34242 0
M  V30 481 H 50.2553 1.05659 2.80671 0
M  V30 482 H 47.8083 0.585614 1.44915 0
M  V30 483 H 48.5433 -1.51466 2.86755 0
M  V30 484 H 48.3283 -0.0860822 3.92005 0
M  V30 485 H 49.8183 -1.06935 4.03676 0
M  V30 486 N 50.2554 -1.46986 0.568584 0
M  V30 487 C 51.1874 -2.28233 -0.210337 0
M  V30 488 C 52.2004 -1.37682 -0.868767 0
M  V30 489 O 53.3894 -1.62406 -0.740705 0
M  V30 490 C 50.4894 -3.12293 -1.3163 0
M  V30 491 C 49.6624 -4.30878 -0.7525 0
M  V30 492 C 48.7214 -4.96445 -1.74439 0
M  V30 493 O 47.7474 -5.54482 -1.286 0
M  V30 494 N 48.9494 -4.92171 -3.07812 0
M  V30 495 H 51.7144 -2.95723 0.486648 0
M  V30 496 H 49.2754 -1.56742 0.405409 0
M  V30 497 H 51.2674 -3.53022 -1.97883 0
M  V30 498 H 49.8374 -2.46971 -1.91636 0
M  V30 499 H 49.0574 -3.94104 0.0871128 0
M  V30 500 H 50.3454 -5.07558 -0.35536 0
M  V30 501 H 49.7434 -4.46239 -3.47688 0
M  V30 502 H 48.3004 -5.36884 -3.69592 0
M  V30 503 N 51.7335 -0.305618 -1.54608 0
M  V30 504 C 52.6435 0.57778 -2.27374 0
M  V30 505 C 53.6595 1.14451 -1.31061 0
M  V30 506 O 54.8355 1.16831 -1.6405 0
M  V30 507 C 51.9005 1.73123 -3.00382 0
M  V30 508 C 50.9615 1.19812 -4.12242 0
M  V30 509 C 50.1945 2.2966 -4.81759 0
M  V30 510 O 50.4175 3.49651 -4.50666 0
M  V30 511 O 49.3515 1.96091 -5.69062 0
M  V30 512 H 53.1775 -0.012624 -3.03697 0
M  V30 513 H 50.7625 -0.0719184 -1.49227 0
M  V30 514 H 52.6445 2.40315 -3.4616 0
M  V30 515 H 51.3195 2.30815 -2.26949 0
M  V30 516 H 50.2265 0.491798 -3.70853 0
M  V30 517 H 51.5595 0.666566 -4.87666 0
M  V30 518 N 53.2116 1.57565 -0.0334293 0
M  V30 519 C 54.4606 1.91155 0.643639 0
M  V30 520 C 54.7736 0.91192 1.73042 0
M  V30 521 O 55.9796 1.13923 2.46442 0
M  V30 522 C 54.4356 3.39443 1.1961 0
M  V30 523 C 54.0436 4.47774 0.142381 0
M  V30 524 C 55.7876 3.82094 1.84944 0
M  V30 525 C 53.6946 5.87162 0.706727 0
M  V30 526 H 52.6246 0.713368 0.244176 0
M  V30 527 H 55.2756 1.8323 -0.0994323 0
M  V30 528 H 53.6576 3.42313 1.99092 0
M  V30 529 H 54.8316 4.56469 -0.630296 0
M  V30 530 H 53.1466 4.14352 -0.412446 0
M  V30 531 H 55.7436 4.83591 2.2813 0
M  V30 532 H 56.0866 3.17386 2.69392 0
M  V30 533 H 56.6196 3.81665 1.12145 0
M  V30 534 H 53.3586 6.55424 -0.0997178 0
M  V30 535 H 52.8786 5.82064 1.44779 0
M  V30 536 H 54.5576 6.35866 1.19514 0
M  V30 537 N 54.6897 -0.239769 1.55765 0
M  V30 538 C 55.9367 -0.966801 1.7793 0
M  V30 539 C 56.2647 -1.85046 0.599015 0
M  V30 540 O 55.5197 -1.91197 -0.417395 0
M  V30 541 C 55.8187 -1.852 3.05672 0
M  V30 542 C 55.4847 -1.1231 4.36689 0
M  V30 543 C 54.1467 -0.921689 4.72291 0
M  V30 544 C 56.4987 -0.607019 5.17653 0
M  V30 545 C 53.8267 -0.191996 5.86386 0
M  V30 546 C 56.1787 0.109241 6.32506 0
M  V30 547 C 54.8427 0.322073 6.66723 0
M  V30 548 H 54.1127 -0.353778 0.651093 0
M  V30 549 H 56.7597 -0.23634 1.90036 0
M  V30 550 H 55.0647 -2.64975 2.8861 0
M  V30 551 H 56.7617 -2.41635 3.20021 0
M  V30 552 H 53.3517 -1.29004 4.08725 0
M  V30 553 H 57.5357 -0.750153 4.90598 0
M  V30 554 H 52.7917 -0.0166949 6.11398 0
M  V30 555 H 56.9657 0.516737 6.9448 0
M  V30 556 H 54.5927 0.88944 7.54979 0
M  V30 557 N 56.1678 -1.49265 -0.50573 0
M  V30 558 C 57.4158 -1.582 -1.25766 0
M  V30 559 C 57.7368 -0.268482 -1.93143 0
M  V30 560 O 57.0068 0.711833 -1.8251 0
M  V30 561 H 55.5868 -0.582873 -0.467191 0
M  V30 562 H 58.2488 -1.85865 -0.586525 0
M  V30 563 H 57.3448 -2.37563 -2.02412 0
M  V30 564 N 57.6459 0.756429 -1.3826 0
M  V30 565 C 58.8919 1.51772 -1.34511 0
M  V30 566 C 59.2249 1.94089 0.0656691 0
M  V30 567 O 58.4999 1.65221 1.02626 0
M  V30 568 C 58.7829 2.77226 -2.29821 0
M  V30 569 C 58.6359 2.41065 -3.79747 0
M  V30 570 C 59.9549 3.79236 -2.23312 0
M  V30 571 H 57.0739 0.550578 -0.489931 0
M  V30 572 H 59.7159 0.866607 -1.69086 0
M  V30 573 H 57.8659 3.32784 -2.00467 0
M  V30 574 H 59.5379 1.91303 -4.19763 0
M  V30 575 H 57.7809 1.7356 -3.97567 0
M  V30 576 H 58.4519 3.3081 -4.41892 0
M  V30 577 H 60.9279 3.3321 -2.49219 0
M  V30 578 H 59.8039 4.64714 -2.92116 0
M  V30 579 H 60.0649 4.24615 -1.23102 0
M  V30 580 N 59.124 1.23083 0.984299 0
M  V30 581 C 60.072 1.00593 2.09723 0
M  V30 582 C 61.066 -0.0538014 1.69315 0
M  V30 583 O 62.272 0.0993719 1.79725 0
M  V30 584 H 58.647 0.30817 0.685956 0
M  V30 585 H 60.618 1.95012 2.2586 0
M  V30 586 C 59.367 0.609601 3.42314 0
M  V30 587 H 58.69 1.41675 3.73856 0
M  V30 588 H 60.13 0.491726 4.21139 0
M  V30 589 C 58.589 -0.681745 3.2993 0
M  V30 590 O 59.119 -1.73192 3.62446 0
M  V30 591 N 57.325 -0.656178 2.83095 0
M  V30 592 H 56.872 0.198759 2.56832 0
M  V30 593 H 56.83 -1.52044 2.75191 0
M  V30 594 N 60.6021 -1.18246 1.0419 0
M  V30 595 C 61.5651 -2.20128 0.638452 0
M  V30 596 C 62.5651 -1.57885 -0.304805 0
M  V30 597 O 63.7551 -1.73967 -0.0900369 0
M  V30 598 C 60.8871 -3.4084 -0.0637751 0
M  V30 599 H 62.0801 -2.57336 1.54007 0
M  V30 600 H 59.6331 -1.32152 0.834598 0
M  V30 601 H 60.3681 -3.09166 -0.979136 0
M  V30 602 H 60.1531 -3.8726 0.614198 0
M  V30 603 H 61.6431 -4.16274 -0.332512 0
M  V30 604 N 62.0802 -0.821533 -1.34494 0
M  V30 605 C 63.3272 -0.408946 -1.98328 0
M  V30 606 C 63.6552 1.02764 -1.65136 0
M  V30 607 O 62.9102 1.73026 -0.914349 0
M  V30 608 C 63.2092 -0.556512 -3.53041 0
M  V30 609 C 62.8752 -1.95861 -4.0614 0
M  V30 610 C 61.5372 -2.34217 -4.20352 0
M  V30 611 C 63.8892 -2.87523 -4.34718 0
M  V30 612 C 61.2172 -3.63572 -4.6047 0
M  V30 613 C 63.5692 -4.1634 -4.76281 0
M  V30 614 C 62.2332 -4.54675 -4.88699 0
M  V30 615 H 61.5032 -0.149644 -0.725732 0
M  V30 616 H 64.1502 -1.04521 -1.6046 0
M  V30 617 H 62.4552 0.163148 -3.9146 0
M  V30 618 H 64.1522 -0.217826 -4.00408 0
M  V30 619 H 60.7422 -1.65066 -3.95539 0
M  V30 620 H 64.9262 -2.59133 -4.23277 0
M  V30 621 H 60.1822 -3.93101 -4.68275 0
M  V30 622 H 64.3562 -4.87455 -4.97354 0
M  V30 623 H 61.9832 -5.54959 -5.19542 0
M  V30 624 N 63.5583 1.46682 -0.576371 0
M  V30 625 C 64.4913 2.27243 0.208731 0
M  V30 626 C 65.4693 1.35238 0.902746 0
M  V30 627 O 66.6533 1.64641 0.917904 0
M  V30 628 C 63.7803 3.12802 1.29896 0
M  V30 629 C 62.8263 4.20524 0.711457 0
M  V30 630 S 63.6593 5.33548 -0.456781 0
M  V30 631 C 64.8153 6.22673 0.634798 0
M  V30 632 H 65.0483 2.93484 -0.474838 0
M  V30 633 H 62.5813 1.50069 -0.363118 0
M  V30 634 H 64.5393 3.62661 1.92321 0
M  V30 635 H 63.2003 2.45887 1.95444 0
M  V30 636 H 62.3933 4.80191 1.53076 0
M  V30 637 H 61.9953 3.73645 0.162999 0
M  V30 638 H 64.2873 6.60181 1.52209 0
M  V30 639 H 65.2303 7.0806 0.0750311 0
M  V30 640 H 65.6383 5.56684 0.936092 0
M  V30 641 N 65.0364 0.313813 1.54444 0
M  V30 642 C 66.4524 -0.0391619 1.59552 0
M  V30 643 C 66.6524 -1.51322 1.33056 0
M  V30 644 O 65.7084 -2.26782 1.11022 0
M  V30 645 C 67.0214 0.370302 2.98411 0
M  V30 646 C 68.5694 0.320139 3.11358 0
M  V30 647 C 69.0444 0.704617 4.52547 0
M  V30 648 N 70.5354 0.657645 4.58508 0
M  V30 649 C 71.2704 0.927453 5.6585 0
M  V30 650 N 70.7664 1.26389 6.81174 0
M  V30 651 N 72.5594 0.853662 5.5558 0
M  V30 652 H 64.7104 1.27433 1.69925 0
M  V30 653 H 66.9734 0.517511 0.794284 0
M  V30 654 H 66.6794 1.39694 3.22767 0
M  V30 655 H 66.5534 -0.269619 3.76235 0
M  V30 656 H 68.9404 -0.697275 2.86744 0
M  V30 657 H 69.0214 0.99486 2.35661 0
M  V30 658 H 68.6654 1.7199 4.77893 0
M  V30 659 H 68.5954 0.00768843 5.26599 0
M  V30 660 H 71.0864 0.409067 3.75679 0
M  V30 661 H 71.3994 1.4554 7.58972 0
M  V30 662 H 69.7444 1.30206 6.82694 0
M  V30 663 H 72.9354 0.590383 4.64362 0
M  V30 664 H 73.1084 1.0673 6.3915 0
M  V30 665 N 66.5145 -1.57545 0.0417849 0
M  V30 666 C 67.4245 -2.14451 -0.951213 0
M  V30 667 C 68.4405 -1.09992 -1.34825 0
M  V30 668 O 69.6165 -1.42114 -1.42708 0
M  V30 669 C 66.6815 -2.67063 -2.21084 0
M  V30 670 C 65.7425 -3.86284 -1.87304 0
M  V30 671 C 64.9755 -4.36378 -3.07261 0
M  V30 672 O 65.1985 -3.85587 -4.20332 0
M  V30 673 O 64.1325 -5.28077 -2.88822 0
M  V30 674 H 67.9585 -2.99601 -0.497287 0
M  V30 675 H 65.5435 -1.48317 -0.179567 0
M  V30 676 H 67.4255 -3.00914 -2.95006 0
M  V30 677 H 66.1005 -1.84989 -2.65633 0
M  V30 678 H 65.0075 -3.57338 -1.10727 0
M  V30 679 H 66.3405 -4.6956 -1.47562 0
M  V30 680 N 67.9926 0.231505 -1.5589 0
M  V30 681 C 69.2206 0.974505 -1.82513 0
M  V30 682 C 69.6356 1.78344 -0.619591 0
M  V30 683 O 68.9926 1.77792 0.411848 0
M  V30 684 C 69.0436 1.90007 -3.07538 0
M  V30 685 O 68.7646 1.12385 -4.2344 0
M  V30 686 C 70.2656 2.75779 -3.47075 0
M  V30 687 H 67.4856 0.286065 -0.606966 0
M  V30 688 H 70.0296 0.249739 -2.02969 0
M  V30 689 H 68.1846 2.57891 -2.89086 0
M  V30 690 H 68.5986 1.75125 -4.944 0
M  V30 691 H 70.0726 3.36443 -4.37619 0
M  V30 692 H 70.5496 3.47672 -2.68367 0
M  V30 693 H 71.1556 2.13323 -3.67931 0
M  V30 694 N 69.4707 1.49531 0.497807 0
M  V30 695 C 70.7167 1.59415 1.25358 0
M  V30 696 C 71.0497 0.281422 1.9215 0
M  V30 697 O 70.3247 -0.715249 1.80871 0
M  V30 698 C 70.6077 2.75566 2.3181 0
M  V30 699 C 70.4607 4.16642 1.69498 0
M  V30 700 C 71.7797 2.87347 3.33346 0
M  V30 701 H 68.8987 0.580244 0.454408 0
M  V30 702 H 71.5407 1.81827 0.551262 0
M  V30 703 H 69.6907 2.56587 2.91711 0
M  V30 704 H 71.3627 4.47145 1.13399 0
M  V30 705 H 69.6057 4.22141 0.998978 0
M  V30 706 H 70.2767 4.93792 2.46725 0
M  V30 707 H 72.7527 3.04634 2.83438 0
M  V30 708 H 71.6287 3.70289 4.05188 0
M  V30 709 H 71.8897 1.96834 3.95865 0
M  V30 710 N 70.9488 -0.749086 1.3866 0
M  V30 711 C 72.1738 -1.54344 1.38538 0
M  V30 712 C 72.5988 -1.88088 -0.0216655 0
M  V30 713 O 71.9568 -1.50899 -1.00494 0
M  V30 714 C 72.0048 -2.8164 2.25192 0
M  V30 715 O 71.1088 -3.7698 1.67212 0
M  V30 716 H 70.4498 -0.466654 0.472367 0
M  V30 717 H 72.9798 -0.925355 1.82478 0
M  V30 718 H 72.9898 -3.30519 2.3921 0
M  V30 719 H 71.6648 -2.56411 3.27454 0
M  V30 720 H 70.2418 -3.35699 1.6236 0
M  V30 721 N 72.4269 -1.23603 -0.977757 0
M  V30 722 C 73.6729 -1.08136 -1.72274 0
M  V30 723 C 74.0279 0.377453 -1.88661 0
M  V30 724 O 73.3209 1.27552 -1.42972 0
M  V30 725 C 73.5149 -1.7433 -3.11999 0
M  V30 726 C 73.3439 -3.26498 -3.0924 0
M  V30 727 C 72.1139 -3.9567 -3.14282 0
M  V30 728 C 74.3119 -4.2323 -2.92201 0
M  V30 729 N 72.2939 -5.34799 -3.01436 0
M  V30 730 C 73.6649 -5.49289 -2.87544 0
M  V30 731 C 75.7199 -4.13931 -2.76705 0
M  V30 732 C 74.4229 -6.67116 -2.68978 0
M  V30 733 C 76.4489 -5.31424 -2.59504 0
M  V30 734 C 75.8109 -6.5641 -2.55548 0
M  V30 735 H 71.9099 -0.450247 -0.639376 0
M  V30 736 H 74.4939 -1.5637 -1.16002 0
M  V30 737 H 72.6649 -1.28624 -3.66484 0
M  V30 738 H 74.3969 -1.51815 -3.75146 0
M  V30 739 H 71.1519 -3.46767 -3.22567 0
M  V30 740 H 71.5759 -6.07748 -2.98281 0
M  V30 741 H 76.2179 -3.1807 -2.78552 0
M  V30 742 H 73.9359 -7.63109 -2.65876 0
M  V30 743 H 77.5219 -5.26072 -2.48474 0
M  V30 744 H 76.4019 -7.45795 -2.42405 0
M  V30 745 N 73.905 1.17692 -1.04816 0
M  V30 746 C 74.835 2.23777 -0.666791 0
M  V30 747 C 75.816 1.66796 0.33361 0
M  V30 748 O 77.001 1.93039 0.212042 0
M  V30 749 C 74.131 3.47281 -0.0367933 0
M  V30 750 C 73.085 4.17059 -0.961546 0
M  V30 751 C 72.411 5.34342 -0.195626 0
M  V30 752 C 73.711 4.69713 -2.28402 0
M  V30 753 H 75.405 2.55933 -1.55367 0
M  V30 754 H 72.951 1.23019 -0.748484 0
M  V30 755 H 74.904 4.20706 0.241775 0
M  V30 756 H 73.628 3.14381 0.885004 0
M  V30 757 H 72.287 3.45541 -1.22462 0
M  V30 758 H 71.935 4.97692 0.728816 0
M  V30 759 H 71.635 5.81966 -0.811775 0
M  V30 760 H 73.159 6.10553 0.0757473 0
M  V30 761 H 74.573 5.34794 -2.06563 0
M  V30 762 H 72.97 5.279 -2.8538 0
M  V30 763 H 74.04 3.86726 -2.92525 0
M  V30 764 N 75.3831 0.828654 1.34056 0
M  V30 765 C 76.6291 0.42008 1.98402 0
M  V30 766 C 76.9621 -1.01564 1.65525 0
M  V30 767 O 76.2371 -1.70834 0.929831 0
M  V30 768 C 76.5201 0.62927 3.54559 0
M  V30 769 C 76.3731 2.11152 3.97159 0
M  V30 770 C 77.6921 0.0688756 4.40046 0
M  V30 771 H 74.8111 0.154104 0.720709 0
M  V30 772 H 77.4531 1.04228 1.5886 0
M  V30 773 H 75.6031 0.0996418 3.88372 0
M  V30 774 H 77.2751 2.70522 3.73651 0
M  V30 775 H 75.5181 2.59985 3.47261 0
M  V30 776 H 76.1891 2.20868 5.05887 0
M  V30 777 H 78.6651 0.521458 4.1282 0
M  V30 778 H 77.5411 0.245006 5.48353 0
M  V30 779 H 77.8021 -1.0266 4.30015 0
M  V30 780 N 76.8612 -1.46375 0.584142 0
M  V30 781 C 78.1382 -1.956 0.0033388 0
M  V30 782 C 78.5182 -1.52679 -1.45782 0
M  V30 783 O 77.8662 -0.77816 -2.14842 0
M  V30 784 C 78.0762 -3.48551 0.176891 0
M  V30 785 C 79.4242 -4.24576 0.0454609 0
M  V30 786 O 80.4482 -3.56043 0.105801 0
M  V30 787 O 79.3072 -5.46427 -0.0890376 0
M  V30 788 H 76.4012 -0.825547 -0.0490066 0
M  V30 789 H 78.9472 -1.56652 0.65256 0
M  V30 790 H 77.7192 -3.72683 1.1926 0
M  V30 791 H 77.3422 -3.94332 -0.508695 0
M  V30 792 N 78.3393 -0.321999 -1.54275 0
M  V30 793 C 79.2713 0.578671 -2.21775 0
M  V30 794 C 80.2843 1.08109 -1.21722 0
M  V30 795 O 81.4733 0.994938 -1.482 0
M  V30 796 C 78.5733 1.80661 -2.86731 0
M  V30 797 C 77.7463 1.44314 -4.12907 0
M  V30 798 C 76.8053 2.52845 -4.61472 0
M  V30 799 O 75.8313 2.17054 -5.2619 0
M  V30 800 N 77.0333 3.83748 -4.35566 0
M  V30 801 H 79.7983 0.000709447 -2.997 0
M  V30 802 H 77.3593 -0.145132 -1.61248 0
M  V30 803 H 79.3513 2.52655 -3.16145 0
M  V30 804 H 77.9213 2.29245 -2.12521 0
M  V30 805 H 77.1413 0.554906 -3.90275 0
M  V30 806 H 78.4293 1.17598 -4.95023 0
M  V30 807 H 77.8273 4.15625 -3.83761 0
M  V30 808 H 76.3843 4.51977 -4.69638 0
M  V30 809 N 79.8174 1.5752 -0.0501392 0
M  V30 810 C 81.0654 1.9227 0.622642 0
M  V30 811 C 81.3864 0.929083 1.71444 0
M  V30 812 O 80.6564 -0.0262186 1.95882 0
M  V30 813 H 79.2364 0.709739 0.232981 0
M  V30 814 H 81.8984 1.94628 -0.102898 0
M  V30 815 H 80.9944 2.93479 1.06191 0
M  V30 816 N 81.2955 -0.223234 1.56011 0
M  V30 817 C 82.5255 -0.963413 1.82762 0
M  V30 818 C 82.9335 -1.78516 0.626804 0
M  V30 819 O 82.2765 -1.78974 -0.414014 0
M  V30 820 C 82.3385 -1.93126 3.0322 0
M  V30 821 C 82.0025 -1.2942 4.38291 0
M  V30 822 C 82.9995 -0.684916 5.15369 0
M  V30 823 C 80.6845 -1.30647 4.85012 0
M  V30 824 C 82.6785 -0.0963971 6.37327 0
M  V30 825 C 80.3655 -0.71411 6.06913 0
M  V30 826 C 81.3635 -0.110123 6.82911 0
M  V30 827 O 81.0515 0.47303 8.02507 0
M  V30 828 H 80.7835 -0.288011 0.611576 0
M  V30 829 H 83.3375 -0.244103 2.03944 0
M  V30 830 H 81.5675 -2.68952 2.77852 0
M  V30 831 H 83.2565 -2.53685 3.16857 0
M  V30 832 H 84.0225 -0.667774 4.80381 0
M  V30 833 H 79.9015 -1.76598 4.25833 0
M  V30 834 H 83.4455 0.375657 6.96588 0
M  V30 835 H 79.3425 -0.728659 6.41374 0
M  V30 836 H 80.1105 0.367186 8.17676 0
M  V30 837 N 82.7736 -1.49793 -0.48987 0
M  V30 838 C 83.7366 -1.66752 -1.57246 0
M  V30 839 C 84.7366 -0.538867 -1.51502 0
M  V30 840 O 85.9266 -0.805545 -1.54456 0
M  V30 841 C 83.0586 -1.67528 -2.96896 0
M  V30 842 H 84.2516 -2.63321 -1.43534 0
M  V30 843 H 81.8046 -1.38992 -0.714914 0
M  V30 844 H 82.5396 -0.725837 -3.16073 0
M  V30 845 H 82.3246 -2.49504 -3.02473 0
M  V30 846 H 83.8146 -1.82667 -3.7553 0
M  V30 847 N 84.2517 0.741722 -1.39055 0
M  V30 848 C 85.2147 1.83733 -1.37021 0
M  V30 849 C 86.2147 1.58542 -0.268534 0
M  V30 850 O 87.4047 1.66067 -0.526076 0
M  V30 851 C 84.5367 3.2141 -1.13617 0
M  V30 852 H 85.7297 1.86941 -2.34506 0
M  V30 853 H 83.2827 0.944676 -1.24521 0
M  V30 854 H 84.0177 3.23865 -0.167863 0
M  V30 855 H 83.8027 3.4109 -1.93391 0
M  V30 856 H 85.2927 4.01477 -1.14918 0
M  V30 857 N 85.7298 1.2412 0.971189 0
M  V30 858 C 86.9758 1.08041 1.71625 0
M  V30 859 C 87.3088 -0.380407 1.90438 0
M  V30 860 O 86.5838 -1.28127 1.46334 0
M  V30 861 C 86.8668 1.81682 3.10908 0
M  V30 862 C 86.7198 3.35493 2.99608 0
M  V30 863 C 88.0388 1.58671 4.10501 0
M  V30 864 H 85.1578 0.39388 0.622919 0
M  V30 865 H 87.7998 1.52743 1.13003 0
M  V30 866 H 85.9498 1.43684 3.60953 0
M  V30 867 H 87.6218 3.83068 2.57015 0
M  V30 868 H 85.8648 3.64052 2.35899 0
M  V30 869 H 86.5358 3.82217 3.98264 0
M  V30 870 H 89.0118 1.91719 3.69301 0
M  V30 871 H 87.8878 2.1266 5.06031 0
M  V30 872 H 88.1488 0.524161 4.38982 0
M  V30 873 N 87.2079 -1.17134 1.05439 0
M  V30 874 C 88.4479 -1.89137 0.77502 0
M  V30 875 C 88.8119 -1.79345 -0.685526 0
M  V30 876 O 90.0129 -2.46188 -1.0791 0
M  V30 877 C 88.2839 -3.35003 1.2453 0
M  V30 878 S 89.8429 -4.24952 1.09367 0
M  V30 879 H 86.6609 -0.652949 0.281387 0
M  V30 880 H 89.2629 -1.4145 1.34953 0
M  V30 881 H 87.9669 -3.39666 2.30338 0
M  V30 882 H 87.4979 -3.87736 0.665166 0
M  V30 883 H 89.5129 -4.96196 0.0193397 0
M  V30 884 N 88.686 -0.835752 -1.33615 0
M  V30 885 C 90.097 -0.487099 -1.80234 0
M  V30 886 C 90.448 0.993627 -1.69179 0
M  V30 887 O 89.573 1.77403 -1.23924 0
M  V30 888 C 90.168 -0.877385 -3.27242 0
M  V30 889 C 88.727 -0.580915 -3.7189 0
M  V30 890 C 87.874 -1.0874 -2.5509 0
M  V30 891 H 90.825 -1.02474 -1.2118 0
M  V30 892 H 90.846 -0.186195 -3.80044 0
M  V30 893 H 90.358 -1.95512 -3.35256 0
M  V30 894 H 88.459 0.486881 -3.69405 0
M  V30 895 H 88.572 -1.13396 -4.65487 0
M  V30 896 H 86.936 -0.508392 -2.49575 0
M  V30 897 H 87.719 -2.17184 -2.65868 0
M  V30 898 N 90.1641 1.46063 -0.591896 0
M  V30 899 C 91.4411 1.95595 -0.0137119 0
M  V30 900 C 91.8211 1.5345 1.4497 0
M  V30 901 O 91.1691 0.789543 2.14426 0
M  V30 902 C 91.3791 3.48453 -0.195373 0
M  V30 903 C 92.7271 4.24546 -0.0679765 0
M  V30 904 O 93.7511 3.55982 -0.124681 0
M  V30 905 O 92.6101 5.46467 0.0600579 0
M  V30 906 H 89.7041 0.825795 0.0446279 0
M  V30 907 H 92.2501 1.56303 -0.660859 0
M  V30 908 H 91.0221 3.72045 -1.21235 0
M  V30 909 H 90.6451 3.94597 0.487775 0
M  V30 910 N 91.6422 0.330177 1.54103 0
M  V30 911 C 92.5722 -0.525353 2.27513 0
M  V30 912 C 93.5532 -1.11383 1.2856 0
M  V30 913 O 94.7382 -1.13773 1.57383 0
M  V30 914 C 91.8682 -1.6831 3.03791 0
M  V30 915 C 90.8222 -1.2236 4.10137 0
M  V30 916 C 90.1482 -2.46882 4.74293 0
M  V30 917 C 91.4482 -0.333697 5.21233 0
M  V30 918 H 93.1422 0.087013 2.99274 0
M  V30 919 H 90.6882 0.0432893 1.43935 0
M  V30 920 H 92.6412 -2.28795 3.5388 0
M  V30 921 H 91.3652 -2.32216 2.29659 0
M  V30 922 H 90.0242 -0.64165 3.60941 0
M  V30 923 H 89.6722 -3.09165 3.96769 0
M  V30 924 H 89.3722 -2.16825 5.46133 0
M  V30 925 H 90.8962 -3.08117 5.27159 0
M  V30 926 H 92.3102 -0.845013 5.67038 0
M  V30 927 H 90.7072 -0.125612 5.99969 0
M  V30 928 H 91.7772 0.633724 4.80741 0
M  V30 929 N 93.1203 -1.57491 0.0584922 0
M  V30 930 C 94.3503 -1.9701 -0.622134 0
M  V30 931 C 94.7583 -0.935034 -1.6448 0
M  V30 932 O 94.1013 0.0882904 -1.83488 0
M  V30 933 C 94.1633 -3.32794 -1.35972 0
M  V30 934 C 93.8273 -4.54343 -0.492043 0
M  V30 935 C 94.8243 -5.19323 0.244901 0
M  V30 936 C 92.5093 -5.00534 -0.420821 0
M  V30 937 C 94.5033 -6.28835 1.04143 0
M  V30 938 C 92.1903 -6.09921 0.379389 0
M  V30 939 C 93.1883 -6.73933 1.10919 0
M  V30 940 O 92.8763 -7.81216 1.89623 0
M  V30 941 H 92.6083 -0.653127 -0.174359 0
M  V30 942 H 95.1623 -2.05029 0.123418 0
M  V30 943 H 93.3923 -3.21351 -2.15105 0
M  V30 944 H 95.0813 -3.5701 -1.93129 0
M  V30 945 H 95.8473 -4.8459 0.19939 0
M  V30 946 H 91.7263 -4.50496 -0.978474 0
M  V30 947 H 95.2703 -6.7873 1.61157 0
M  V30 948 H 91.1673 -6.44089 0.426512 0
M  V30 949 H 91.9353 -7.98029 1.81913 0
M  V30 950 N 94.5984 0.214957 -1.56127 0
M  V30 951 C 95.5614 1.24997 -1.92116 0
M  V30 952 C 96.5614 1.39467 -0.800344 0
M  V30 953 O 97.7514 1.37619 -1.06802 0
M  V30 954 C 94.8834 2.62271 -2.17777 0
M  V30 955 H 96.0764 0.942875 -2.84693 0
M  V30 956 H 93.6294 0.455654 -1.49511 0
M  V30 957 H 94.3644 2.98068 -1.27773 0
M  V30 958 H 94.1494 2.53143 -2.99434 0
M  V30 959 H 95.6394 3.36946 -2.46693 0
M  V30 960 N 96.0765 1.50051 0.48192 0
M  V30 961 C 97.4925 1.37237 0.814756 0
M  V30 962 C 97.6925 0.420109 1.97072 0
M  V30 963 O 96.7485 -0.141246 2.52105 0
M  V30 964 C 98.0615 2.78375 1.13701 0
M  V30 965 C 99.6095 2.87213 1.2441 0
M  V30 966 C 100.084 4.29161 1.59954 0
M  V30 967 N 101.575 4.32061 1.66967 0
M  V30 968 C 102.31 5.38879 1.95952 0
M  V30 969 N 101.806 6.55918 2.23031 0
M  V30 970 N 103.599 5.26312 1.97363 0
M  V30 971 H 95.7505 2.10546 -0.28005 0
M  V30 972 H 98.0135 0.945921 -0.0627454 0
M  V30 973 H 97.7195 3.49845 0.360787 0
M  V30 974 H 97.5935 3.14941 2.07586 0
M  V30 975 H 99.9805 2.15969 2.01101 0
M  V30 976 H 100.061 2.54204 0.285299 0
M  V30 977 H 99.7055 5.00938 0.838067 0
M  V30 978 H 99.6355 4.59648 2.56966 0
M  V30 979 H 102.126 3.47661 1.48123 0
M  V30 980 H 102.439 7.33139 2.44391 0
M  V30 981 H 100.784 6.59112 2.20447 0
M  V30 982 H 103.975 4.33876 1.75697 0
M  V30 983 H 104.148 6.09649 2.19618 0
M  V30 984 N 97.5546 -0.734337 1.39446 0
M  V30 985 C 98.4866 -1.85861 1.34121 0
M  V30 986 C 99.4996 -1.60871 0.249864 0
M  V30 987 O 100.689 -1.71093 0.508865 0
M  V30 988 C 97.7886 -3.21899 1.05991 0
M  V30 989 C 96.9616 -3.74239 2.26415 0
M  V30 990 C 96.0206 -4.88841 1.94733 0
M  V30 991 O 95.0466 -5.02468 2.67422 0
M  V30 992 N 96.2486 -5.73261 0.913884 0
M  V30 993 H 99.0136 -1.90934 2.31007 0
M  V30 994 H 96.5746 -0.915102 1.33557 0
M  V30 995 H 98.5666 -3.96136 0.828147 0
M  V30 996 H 97.1366 -3.12091 0.178361 0
M  V30 997 H 96.3566 -2.91347 2.65539 0
M  V30 998 H 97.6446 -4.05942 3.06738 0
M  V30 999 H 97.0426 -5.64842 0.311476 0
M  V30 1000 H 95.5996 -6.47563 0.742015 0
M  V30 1001 N 99.0327 -1.24633 -0.964593 0
M  V30 1002 C 99.9957 -1.0424 -2.04124 0
M  V30 1003 C 100.996 0.00137563 -1.608 0
M  V30 1004 O 102.186 -0.239883 -1.7254 0
M  V30 1005 C 99.3177 -0.580588 -3.3592 0
M  V30 1006 H 100.511 -1.99803 -2.23649 0
M  V30 1007 H 98.0637 -1.06899 -1.14027 0
M  V30 1008 H 98.7987 0.3781 -3.22088 0
M  V30 1009 H 98.5837 -1.33398 -3.6871 0
M  V30 1010 H 100.074 -0.459034 -4.15069 0
M  V30 1011 N 100.511 1.16574 -1.06058 0
M  V30 1012 C 101.922 1.68662 -0.800632 0
M  V30 1013 C 102.273 1.84184 0.67608 0
M  V30 1014 O 101.398 1.53568 1.52466 0
M  V30 1015 C 101.993 3.06356 -1.44676 0
M  V30 1016 C 100.552 3.55575 -1.23465 0
M  V30 1017 C 99.6988 2.31616 -1.52477 0
M  V30 1018 H 102.65 1.00969 -1.22438 0
M  V30 1019 H 102.671 3.70636 -0.860788 0
M  V30 1020 H 102.183 2.95027 -2.52152 0
M  V30 1021 H 100.284 3.72167 -0.179527 0
M  V30 1022 H 100.397 4.37812 -1.94571 0
M  V30 1023 H 98.7608 2.36512 -0.945209 0
M  V30 1024 H 99.5438 2.22887 -2.61106 0
M  V30 1025 N 101.989 0.842826 1.3317 0
M  V30 1026 C 103.237 0.439577 1.97262 0
M  V30 1027 C 103.558 -1.00548 1.67078 0
M  V30 1028 O 102.828 -1.70098 0.971779 0
M  V30 1029 H 101.408 0.159558 0.72976 0
M  V30 1030 H 104.07 1.07665 1.62463 0
M  V30 1031 H 103.166 0.574886 3.0676 0
M  V30 1032 N 103.467 -1.45747 0.599634 0
M  V30 1033 C 104.695 -2.06668 0.0978551 0
M  V30 1034 C 105.11 -1.44562 -1.21439 0
M  V30 1035 O 104.467 -0.556923 -1.73795 0
M  V30 1036 C 104.518 -3.61456 -0.0567044 0
M  V30 1037 O 104.239 -4.21242 1.20361 0
M  V30 1038 C 105.74 -4.39345 -0.590869 0
M  V30 1039 H 102.96 -0.667825 0.0651943 0
M  V30 1040 H 105.504 -1.87115 0.82511 0
M  V30 1041 H 103.659 -3.80378 -0.734251 0
M  V30 1042 H 104.073 -5.14323 1.02821 0
M  V30 1043 H 105.547 -5.48182 -0.648131 0
M  V30 1044 H 106.024 -4.08568 -1.61147 0
M  V30 1045 H 106.63 -4.25268 0.0523679 0
M  V30 1046 N 104.945 -0.338344 -1.53925 0
M  V30 1047 C 105.908 0.508299 -2.23493 0
M  V30 1048 C 106.908 1.03175 -1.23335 0
M  V30 1049 O 108.098 0.921826 -1.47811 0
M  V30 1050 C 105.23 1.70754 -2.95052 0
M  V30 1051 H 106.423 -0.100058 -2.99733 0
M  V30 1052 H 103.976 -0.0896198 -1.56043 0
M  V30 1053 H 104.711 2.35474 -2.22986 0
M  V30 1054 H 104.496 1.33946 -3.68512 0
M  V30 1055 H 105.986 2.30818 -3.48013 0
M  V30 1056 N 106.423 1.57458 -0.0668435 0
M  V30 1057 C 107.353 2.15468 0.899764 0
M  V30 1058 C 108.334 1.08042 1.31381 0
M  V30 1059 O 109.519 1.36054 1.38574 0
M  V30 1060 C 106.649 2.71232 2.16911 0
M  V30 1061 C 105.603 3.83781 1.89463 0
M  V30 1062 C 104.929 4.26127 3.22986 0
M  V30 1063 C 106.229 5.08238 1.20381 0
M  V30 1064 H 107.923 2.96488 0.416529 0
M  V30 1065 H 105.469 1.4262 0.198908 0
M  V30 1066 H 107.422 3.10458 2.84945 0
M  V30 1067 H 106.146 1.87426 2.67468 0
M  V30 1068 H 104.805 3.45051 1.23836 0
M  V30 1069 H 104.453 3.39249 3.71374 0
M  V30 1070 H 104.153 5.01993 3.05413 0
M  V30 1071 H 105.677 4.67966 3.92225 0
M  V30 1072 H 107.091 5.44811 1.78475 0
M  V30 1073 H 105.488 5.89349 1.13083 0
M  V30 1074 H 106.558 4.84558 0.182153 0
M  V30 1075 N 107.901 -0.206675 1.56239 0
M  V30 1076 C 109.178 -0.954051 1.70755 0
M  V30 1077 C 109.558 -2.01841 0.618353 0
M  V30 1078 O 108.906 -2.25444 -0.372434 0
M  V30 1079 C 109.116 -1.551 3.12642 0
M  V30 1080 C 110.464 -2.03757 3.72516 0
M  V30 1081 O 111.488 -1.64965 3.15698 0
M  V30 1082 O 110.347 -2.75103 4.72208 0
M  V30 1083 H 107.441 -0.446636 0.696021 0
M  V30 1084 H 109.987 -0.197283 1.68549 0
M  V30 1085 H 108.759 -0.783212 3.83382 0
M  V30 1086 H 108.382 -2.37291 3.19028 0
M  V30 1087 N 109.379 -1.50304 -0.473955 0
M  V30 1088 C 110.79 -1.54042 -1.0549 0
M  V30 1089 C 111.141 -0.342248 -1.93192 0
M  V30 1090 O 110.266 0.545157 -2.09421 0
M  V30 1091 C 110.861 -2.79152 -1.91989 0
M  V30 1092 C 109.42 -2.8558 -2.45196 0
M  V30 1093 C 108.567 -2.48295 -1.2347 0
M  V30 1094 H 111.518 -1.5661 -0.256693 0
M  V30 1095 H 111.539 -2.60845 -2.7702 0
M  V30 1096 H 111.051 -3.66339 -1.28131 0
M  V30 1097 H 109.152 -2.02738 -3.12615 0
M  V30 1098 H 109.265 -3.88403 -2.80499 0
M  V30 1099 H 107.629 -2.00669 -1.56856 0
M  V30 1100 H 108.412 -3.37787 -0.612789 0
M  V30 1101 N 110.857 0.726932 -1.39834 0
M  V30 1102 C 111.789 1.85147 -1.35104 0
M  V30 1103 C 112.802 1.60736 -0.258392 0
M  V30 1104 O 113.991 1.70821 -0.517931 0
M  V30 1105 C 111.091 3.21332 -1.07697 0
M  V30 1106 C 110.264 3.73033 -2.28396 0
M  V30 1107 C 109.323 4.87802 -1.97322 0
M  V30 1108 O 108.349 5.01043 -2.70083 0
M  V30 1109 N 109.551 5.72768 -0.944273 0
M  V30 1110 H 112.316 1.89706 -2.32017 0
M  V30 1111 H 109.877 0.908006 -1.3404 0
M  V30 1112 H 111.869 3.95691 -0.849144 0
M  V30 1113 H 110.439 3.11992 -0.194909 0
M  V30 1114 H 109.659 2.89934 -2.6708 0
M  V30 1115 H 110.947 4.0431 -3.08887 0
M  V30 1116 H 110.345 5.64669 -0.341427 0
M  V30 1117 H 108.902 6.4716 -0.776346 0
M  V30 1118 N 112.336 1.25143 0.95797 0
M  V30 1119 C 113.613 1.00472 1.67823 0
M  V30 1120 C 113.993 -0.470056 2.058 0
M  V30 1121 O 113.341 -1.44663 1.76875 0
M  V30 1122 C 113.551 1.9372 2.90299 0
M  V30 1123 C 114.899 2.21371 3.62326 0
M  V30 1124 O 115.923 1.91451 3.00375 0
M  V30 1125 O 114.782 2.72231 4.7387 0
M  V30 1126 H 111.876 0.380752 0.734137 0
M  V30 1127 H 114.422 1.36283 1.01119 0
M  V30 1128 H 113.194 2.93316 2.59001 0
M  V30 1129 H 112.817 1.58286 3.64735 0
M  V30 1130 N 113.814 -1.1601 1.06675 0
M  V30 1131 C 114.724 -2.24156 0.692179 0
M  V30 1132 C 115.74 -1.71507 -0.293513 0
M  V30 1133 O 116.916 -2.009 -0.141861 0
M  V30 1134 C 113.981 -3.46587 0.0884131 0
M  V30 1135 C 113.042 -4.14257 1.12646 0
M  V30 1136 C 112.275 -5.30844 0.551416 0
M  V30 1137 O 112.498 -5.66858 -0.634656 0
M  V30 1138 O 111.432 -5.87848 1.29298 0
M  V30 1139 H 115.258 -2.58513 1.59388 0
M  V30 1140 H 112.843 -1.23599 0.83926 0
M  V30 1141 H 114.725 -4.20679 -0.246361 0
M  V30 1142 H 113.4 -3.13994 -0.786712 0
M  V30 1143 H 112.307 -3.42118 1.51348 0
M  V30 1144 H 113.64 -4.50914 1.97325 0
M  V30 1145 N 115.292 -0.849877 -1.32721 0
M  V30 1146 C 116.708 -0.539102 -1.50219 0
M  V30 1147 C 116.908 0.931271 -1.78689 0
M  V30 1148 O 115.964 1.71455 -1.85363 0
M  V30 1149 C 117.277 -1.42196 -2.64954 0
M  V30 1150 C 118.825 -1.42189 -2.78839 0
M  V30 1151 C 119.3 -2.28985 -3.96648 0
M  V30 1152 N 120.791 -2.26754 -4.03902 0
M  V30 1153 C 121.526 -2.90644 -4.94281 0
M  V30 1154 N 121.022 -3.63629 -5.897 0
M  V30 1155 N 122.815 -2.80057 -4.87365 0
M  V30 1156 H 114.966 -1.80156 -1.12506 0
M  V30 1157 H 117.229 -0.769217 -0.554085 0
M  V30 1158 H 116.935 -2.46733 -2.50631 0
M  V30 1159 H 116.809 -1.10591 -3.60624 0
M  V30 1160 H 119.196 -0.38419 -2.92588 0
M  V30 1161 H 119.277 -1.77807 -1.83898 0
M  V30 1162 H 118.921 -3.32819 -3.83658 0
M  V30 1163 H 118.851 -1.90702 -4.90857 0
M  V30 1164 H 121.342 -1.73688 -3.3562 0
M  V30 1165 H 121.655 -4.09558 -6.55349 0
M  V30 1166 H 120 -3.67737 -5.89741 0
M  V30 1167 H 123.191 -2.22593 -4.11789 0
M  V30 1168 H 123.364 -3.30132 -5.57599 0
M  V30 1169 N 116.77 1.45427 -0.607355 0
M  V30 1170 C 117.702 2.2871 0.149752 0
M  V30 1171 C 118.715 1.39937 0.831958 0
M  V30 1172 O 119.904 1.64313 0.697385 0
M  V30 1173 C 117.004 3.15673 1.23304 0
M  V30 1174 C 116.177 4.32722 0.637996 0
M  V30 1175 C 115.236 5.00895 1.61215 0
M  V30 1176 O 114.262 5.57697 1.13854 0
M  V30 1177 N 115.464 5.00159 2.94655 0
M  V30 1178 H 118.229 2.94328 -0.564882 0
M  V30 1179 H 115.79 1.55612 -0.446823 0
M  V30 1180 H 117.782 3.58144 1.88454 0
M  V30 1181 H 116.352 2.51965 1.8502 0
M  V30 1182 H 115.572 3.93734 -0.191572 0
M  V30 1183 H 116.86 5.08321 0.220665 0
M  V30 1184 H 116.258 4.553 3.35735 0
M  V30 1185 H 114.815 5.46495 3.55228 0
M  V30 1186 N 118.248 0.346503 1.53744 0
M  V30 1187 C 119.664 -0.00530975 1.59599 0
M  V30 1188 C 119.864 -1.48465 1.36236 0
M  V30 1189 O 118.92 -2.24376 1.15808 0
M  V30 1190 C 120.233 0.433516 2.97559 0
M  V30 1191 C 121.781 0.386111 3.10609 0
M  V30 1192 C 122.256 0.800451 4.50951 0
M  V30 1193 N 123.747 0.754753 4.5701 0
M  V30 1194 C 124.482 1.04727 5.63755 0
M  V30 1195 N 123.978 1.4081 6.7834 0
M  V30 1196 N 125.771 0.971316 5.53644 0
M  V30 1197 H 117.922 1.31009 1.67184 0
M  V30 1198 H 120.185 0.534242 0.783128 0
M  V30 1199 H 119.891 1.46509 3.19731 0
M  V30 1200 H 119.765 -0.189753 3.76722 0
M  V30 1201 H 122.152 -0.636295 2.88158 0
M  V30 1202 H 122.233 1.04462 2.33498 0
M  V30 1203 H 121.877 1.82088 4.74137 0
M  V30 1204 H 121.807 0.119386 5.26465 0
M  V30 1205 H 124.298 0.488662 3.74727 0
M  V30 1206 H 124.611 1.61607 7.55714 0
M  V30 1207 H 122.956 1.44657 6.79779 0
M  V30 1208 H 126.147 0.688748 4.63005 0
M  V30 1209 H 126.32 1.20263 6.36742 0
M  V30 1210 N 119.726 -1.57421 0.075193 0
M  V30 1211 C 120.636 -2.1642 -0.905511 0
M  V30 1212 C 121.652 -1.12828 -1.32461 0
M  V30 1213 O 122.828 -1.45109 -1.39661 0
M  V30 1214 C 119.893 -2.71693 -2.15369 0
M  V30 1215 C 118.954 -3.90171 -1.79068 0
M  V30 1216 C 118.187 -4.42798 -2.97936 0
M  V30 1217 O 118.41 -3.94416 -4.12058 0
M  V30 1218 O 117.344 -5.34085 -2.77555 0
M  V30 1219 H 121.17 -3.00588 -0.433626 0
M  V30 1220 H 118.755 -1.48664 -0.148067 0
M  V30 1221 H 120.637 -3.07104 -2.88557 0
M  V30 1222 H 119.312 -1.90582 -2.61649 0
M  V30 1223 H 118.219 -3.59606 -1.03122 0
M  V30 1224 H 119.552 -4.72584 -1.37569 0
M  V30 1225 N 121.204 0.198386 -1.56346 0
M  V30 1226 C 122.136 1.26987 -1.90806 0
M  V30 1227 C 123.149 1.41877 -0.798419 0
M  V30 1228 O 124.338 1.42362 -1.07682 0
M  V30 1229 C 121.438 2.64246 -2.12196 0
M  V30 1230 C 120.611 2.71007 -3.43328 0
M  V30 1231 C 119.67 3.89439 -3.5387 0
M  V30 1232 O 118.696 3.76695 -4.26719 0
M  V30 1233 N 119.898 5.04752 -2.86715 0
M  V30 1234 H 122.663 0.977433 -2.83313 0
M  V30 1235 H 120.224 0.388322 -1.57174 0
M  V30 1236 H 122.216 3.41896 -2.1654 0
M  V30 1237 H 120.786 2.85992 -1.26204 0
M  V30 1238 H 120.006 1.79657 -3.50881 0
M  V30 1239 H 121.294 2.72512 -4.29668 0
M  V30 1240 H 120.692 5.18004 -2.2735 0
M  V30 1241 H 119.249 5.8036 -2.96691 0
M  V30 1242 N 122.682 1.50554 0.465978 0
M  V30 1243 C 123.645 1.69233 1.54574 0
M  V30 1244 C 124.645 0.562901 1.50626 0
M  V30 1245 O 125.835 0.830016 1.53155 0
M  V30 1246 C 122.967 1.7223 2.94193 0
M  V30 1247 H 124.16 2.65571 1.39327 0
M  V30 1248 H 121.713 1.40111 0.692711 0
M  V30 1249 H 122.448 0.77603 3.14878 0
M  V30 1250 H 122.233 2.54285 2.98466 0
M  V30 1251 H 123.723 1.88618 3.72576 0
M  V30 1252 N 124.16 -0.719506 1.40217 0
M  V30 1253 C 125.39 -1.50646 1.41384 0
M  V30 1254 C 125.798 -1.89197 0.0107743 0
M  V30 1255 O 125.141 -1.55709 -0.974708 0
M  V30 1256 C 125.203 -2.81405 2.23722 0
M  V30 1257 C 124.867 -2.65199 3.72181 0
M  V30 1258 C 125.864 -2.32717 4.64907 0
M  V30 1259 C 123.549 -2.81586 4.1595 0
M  V30 1260 C 125.543 -2.16827 5.99387 0
M  V30 1261 C 123.23 -2.65313 5.50502 0
M  V30 1262 C 124.228 -2.32981 6.42035 0
M  V30 1263 O 123.916 -2.16827 7.74107 0
M  V30 1264 H 123.648 -0.471606 0.484318 0
M  V30 1265 H 126.202 -0.895456 1.84853 0
M  V30 1266 H 124.432 -3.44823 1.75026 0
M  V30 1267 H 126.121 -3.43102 2.16878 0
M  V30 1268 H 126.887 -2.19694 4.32388 0
M  V30 1269 H 122.766 -3.0574 3.45027 0
M  V30 1270 H 126.31 -1.91513 6.70797 0
M  V30 1271 H 122.207 -2.7792 5.82607 0
M  V30 1272 H 122.975 -2.31778 7.84998 0
M  V30 1273 N 125.638 -1.25649 -0.95132 0
M  V30 1274 C 126.585 -1.06323 -2.04851 0
M  V30 1275 C 127.555 0.0286491 -1.66075 0
M  V30 1276 O 128.74 -0.12917 -1.90362 0
M  V30 1277 C 125.88 -0.691529 -3.381 0
M  V30 1278 C 124.993 -1.85861 -3.89974 0
M  V30 1279 C 124.128 -1.43096 -5.11563 0
M  V30 1280 C 123.167 -2.56696 -5.55674 0
M  V30 1281 N 122.304 -2.14684 -6.68472 0
M  V30 1282 H 127.144 -2.00222 -2.20715 0
M  V30 1283 H 124.681 -0.997027 -1.08156 0
M  V30 1284 H 126.639 -0.456963 -4.1469 0
M  V30 1285 H 125.269 0.210474 -3.22113 0
M  V30 1286 H 124.321 -2.20639 -3.09875 0
M  V30 1287 H 125.633 -2.71161 -4.18657 0
M  V30 1288 H 124.787 -1.15624 -5.9558 0
M  V30 1289 H 123.526 -0.548722 -4.84603 0
M  V30 1290 H 122.531 -2.84909 -4.7022 0
M  V30 1291 H 123.756 -3.45503 -5.8464 0
M  V30 1292 H 121.702 -1.28881 -6.43215 0
M  V30 1293 H 121.619 -2.9353 -6.96689 0
M  V30 1294 H 122.887 -1.90397 -7.5589 0
M  V30 1295 N 127.117 1.15442 -1.07289 0
M  V30 1296 C 128.047 2.22312 -0.714107 0
M  V30 1297 C 129.028 1.67467 0.298155 0
M  V30 1298 O 130.213 1.93445 0.171048 0
M  V30 1299 C 127.343 3.47124 -0.110448 0
M  V30 1300 C 126.297 4.14926 -1.04979 0
M  V30 1301 C 125.623 5.33807 -0.308924 0
M  V30 1302 C 126.923 4.64762 -2.38314 0
M  V30 1303 H 128.617 2.5258 -1.6076 0
M  V30 1304 H 126.163 1.21404 -0.77441 0
M  V30 1305 H 128.116 4.21124 0.152482 0
M  V30 1306 H 126.84 3.16187 0.81812 0
M  V30 1307 H 125.499 3.42866 -1.29764 0
M  V30 1308 H 125.147 4.99126 0.623084 0
M  V30 1309 H 124.847 5.80113 -0.935036 0
M  V30 1310 H 126.371 6.10576 -0.0537771 0
M  V30 1311 H 127.785 5.30292 -2.1786 0
M  V30 1312 H 126.182 5.21728 -2.96514 0
M  V30 1313 H 127.252 3.80434 -3.00663 0
M  V30 1314 N 128.595 0.856903 1.32268 0
M  V30 1315 C 129.841 0.471355 1.97863 0
M  V30 1316 C 130.196 -0.962896 1.66572 0
M  V30 1317 O 129.489 -1.66686 0.944797 0
M  V30 1318 C 129.683 0.649919 3.51441 0
M  V30 1319 C 129.512 2.09997 3.97657 0
M  V30 1320 C 128.282 2.73893 4.2463 0
M  V30 1321 C 130.48 3.07081 4.1256 0
M  V30 1322 N 128.462 4.09786 4.57109 0
M  V30 1323 C 129.833 4.27968 4.48602 0
M  V30 1324 C 131.888 3.03247 3.949 0
M  V30 1325 C 130.591 5.45521 4.68827 0
M  V30 1326 C 132.617 4.20046 4.16311 0
M  V30 1327 C 131.979 5.39692 4.52672 0
M  V30 1328 H 128.078 0.221263 0.750044 0
M  V30 1329 H 130.662 1.10876 1.60045 0
M  V30 1330 H 128.833 0.0421938 3.88377 0
M  V30 1331 H 130.565 0.234044 4.04023 0
M  V30 1332 H 127.32 2.24918 4.16784 0
M  V30 1333 H 127.744 4.7989 4.7753 0
M  V30 1334 H 132.386 2.11863 3.65888 0
M  V30 1335 H 130.104 6.37434 4.96693 0
M  V30 1336 H 133.69 4.18517 4.04147 0
M  V30 1337 H 132.57 6.28566 4.68907 0
M  V30 1338 N 130.073 -1.45103 0.615059 0
M  V30 1339 C 131.005 -2.28786 -0.13762 0
M  V30 1340 C 132.018 -1.40376 -0.824525 0
M  V30 1341 O 133.207 -1.64681 -0.688662 0
M  V30 1342 C 130.307 -3.16322 -1.21628 0
M  V30 1343 C 129.48 -4.33054 -0.615039 0
M  V30 1344 C 128.539 -5.01743 -1.58556 0
M  V30 1345 O 127.565 -5.58293 -1.10895 0
M  V30 1346 N 128.767 -5.01714 -2.91998 0
M  V30 1347 H 131.532 -2.94025 0.580483 0
M  V30 1348 H 129.093 -1.55373 0.45507 0
M  V30 1349 H 131.085 -3.59139 -1.86552 0
M  V30 1350 H 129.655 -2.52943 -1.83681 0
M  V30 1351 H 128.875 -3.93627 0.21245 0
M  V30 1352 H 130.163 -5.08431 -0.193704 0
M  V30 1353 H 129.561 -4.57075 -3.33316 0
M  V30 1354 H 128.118 -5.48371 -3.52325 0
M  V30 1355 N 131.551 -0.354651 -1.53558 0
M  V30 1356 C 132.514 0.484566 -2.24019 0
M  V30 1357 C 133.514 1.01861 -1.24422 0
M  V30 1358 O 134.704 0.906097 -1.4878 0
M  V30 1359 C 131.836 1.67615 -2.96847 0
M  V30 1360 H 133.029 -0.131843 -2.9961 0
M  V30 1361 H 130.582 -0.106165 -1.55939 0
M  V30 1362 H 131.317 2.33095 -2.25471 0
M  V30 1363 H 131.102 1.30029 -3.69912 0
M  V30 1364 H 132.592 2.27114 -3.50441 0
M  V30 1365 N 133.029 1.57378 -0.0835403 0
M  V30 1366 C 134.276 1.9393 0.58287 0
M  V30 1367 C 134.604 0.964455 1.68904 0
M  V30 1368 O 133.859 -0.0179474 1.95692 0
M  V30 1369 C 134.158 3.37063 1.1884 0
M  V30 1370 C 133.824 4.50424 0.207194 0
M  V30 1371 C 132.486 4.81159 -0.0627115 0
M  V30 1372 C 134.838 5.19136 -0.463426 0
M  V30 1373 C 132.166 5.77939 -1.01012 0
M  V30 1374 C 134.518 6.16931 -1.39924 0
M  V30 1375 C 133.182 6.46078 -1.67749 0
M  V30 1376 H 132.452 0.70964 0.213287 0
M  V30 1377 H 135.099 1.90856 -0.156916 0
M  V30 1378 H 133.404 3.3666 2.00418 0
M  V30 1379 H 135.101 3.6264 1.71153 0
M  V30 1380 H 131.691 4.2646 0.427747 0
M  V30 1381 H 135.875 4.95576 -0.268034 0
M  V30 1382 H 131.131 5.98842 -1.23283 0
M  V30 1383 H 135.305 6.69273 -1.92476 0
M  V30 1384 H 132.932 7.2088 -2.41321 0
M  V30 1385 N 134.507 -0.190092 1.56449 0
M  V30 1386 C 135.784 -0.935886 1.71757 0
M  V30 1387 C 136.164 -2.01173 0.639726 0
M  V30 1388 O 135.512 -2.25827 -0.348502 0
M  V30 1389 C 135.722 -1.51775 3.1427 0
M  V30 1390 C 137.07 -1.99794 3.74656 0
M  V30 1391 O 138.094 -1.61607 3.1743 0
M  V30 1392 O 136.953 -2.70079 4.751 0
M  V30 1393 H 134.047 -0.439229 0.700719 0
M  V30 1394 H 136.593 -0.179395 1.68749 0
M  V30 1395 H 135.365 -0.742505 3.84191 0
M  V30 1396 H 134.988 -2.33894 3.21527 0
M  V30 1397 N 135.985 -1.50799 -0.457987 0
M  V30 1398 C 136.918 -1.65273 -1.57353 0
M  V30 1399 C 137.896 -0.500578 -1.54703 0
M  V30 1400 O 139.08 -0.721781 -1.74134 0
M  V30 1401 C 136.207 -1.64737 -2.95938 0
M  V30 1402 C 135.253 -2.8567 -3.16693 0
M  V30 1403 S 136.086 -4.46791 -2.95191 0
M  V30 1404 C 137.242 -4.48968 -4.36095 0
M  V30 1405 H 137.475 -2.59633 -1.44838 0
M  V30 1406 H 135.008 -1.40225 -0.64625 0
M  V30 1407 H 136.966 -1.65112 -3.7583 0
M  V30 1408 H 135.627 -0.715899 -3.05833 0
M  V30 1409 H 134.82 -2.81637 -4.17967 0
M  V30 1410 H 134.422 -2.8293 -2.44594 0
M  V30 1411 H 136.714 -4.23337 -5.28954 0
M  V30 1412 H 137.657 -5.50664 -4.45168 0
M  V30 1413 H 138.065 -3.78522 -4.18786 0
M  V30 1414 N 137.463 0.71206 -1.40597 0
M  V30 1415 C 138.373 1.8562 -1.43466 0
M  V30 1416 C 139.389 1.70902 -0.326902 0
M  V30 1417 O 140.565 1.93105 -0.572043 0
M  V30 1418 C 137.63 3.21451 -1.29884 0
M  V30 1419 C 136.691 3.48398 -2.50833 0
M  V30 1420 C 135.924 4.77749 -2.3789 0
M  V30 1421 O 136.147 5.53089 -1.39459 0
M  V30 1422 O 135.081 5.05111 -3.27333 0
M  V30 1423 H 138.907 1.86155 -2.39958 0
M  V30 1424 H 136.492 0.86295 -1.21957 0
M  V30 1425 H 138.374 4.02579 -1.24531 0
M  V30 1426 H 137.049 3.21636 -0.364997 0
M  V30 1427 H 135.956 2.67265 -2.61763 0
M  V30 1428 H 137.289 3.53014 -3.4299 0
M  V30 1429 N 138.941 1.26152 0.944643 0
M  V30 1430 C 139.904 1.07474 2.0244 0
M  V30 1431 C 140.904 0.0242064 1.60782 0
M  V30 1432 O 142.094 0.267302 1.72137 0
M  V30 1433 C 139.226 0.633956 3.34953 0
M  V30 1434 H 140.419 2.03336 2.20442 0
M  V30 1435 H 137.972 1.087 1.12312 0
M  V30 1436 H 138.707 -0.326811 3.22649 0
M  V30 1437 H 138.492 1.39247 3.66542 0
M  V30 1438 H 139.982 0.52501 4.14287 0
M  V30 1439 N 140.419 -1.14872 1.07899 0
M  V30 1440 C 141.667 -1.85422 0.803941 0
M  V30 1441 C 141.988 -1.83051 -0.67211 0
M  V30 1442 O 141.258 -1.27532 -1.48703 0
M  V30 1443 H 139.838 -0.686537 0.294408 0
M  V30 1444 H 142.5 -1.39226 1.3639 0
M  V30 1445 H 141.596 -2.90399 1.14346 0
M  V30 1446 N 141.898 -0.863906 -1.31812 0
M  V30 1447 C 143.144 -0.472535 -1.97218 0
M  V30 1448 C 143.477 0.971394 -1.68159 0
M  V30 1449 O 142.752 1.68309 -0.974798 0
M  V30 1450 C 143.035 -0.723054 -3.52766 0
M  V30 1451 C 142.888 -2.21608 -3.91421 0
M  V30 1452 C 144.207 -0.185522 -4.39709 0
M  V30 1453 H 141.326 -0.173158 -0.71637 0
M  V30 1454 H 143.968 -1.08403 -1.56041 0
M  V30 1455 H 142.118 -0.202577 -3.87971 0
M  V30 1456 H 143.79 -2.80334 -3.66347 0
M  V30 1457 H 142.033 -2.691 -3.40246 0
M  V30 1458 H 142.704 -2.34203 -4.99853 0
M  V30 1459 H 145.18 -0.630726 -4.11292 0
M  V30 1460 H 144.056 -0.390306 -5.47511 0
M  V30 1461 H 144.317 0.912229 -4.32586 0
M  V30 1462 N 143.376 1.44774 -0.622745 0
M  V30 1463 C 144.624 2.01721 -0.123655 0
M  V30 1464 C 144.945 1.49172 1.25589 0
M  V30 1465 O 144.215 0.691974 1.83272 0
M  V30 1466 H 142.795 0.745777 -0.0427225 0
M  V30 1467 H 145.457 1.77382 -0.807559 0
M  V30 1468 H 144.553 3.11984 -0.0849534 0
M  V30 1469 N 144.854 0.36279 1.53368 0
M  V30 1470 C 146.131 -0.284021 1.93527 0
M  V30 1471 C 146.511 -1.66628 1.29608 0
M  V30 1472 O 145.859 -2.23942 0.45413 0
M  V30 1473 C 146.069 -0.337028 3.47369 0
M  V30 1474 C 147.417 -0.578708 4.20638 0
M  V30 1475 O 148.441 -0.418352 3.53735 0
M  V30 1476 O 147.3 -0.89074 5.39192 0
M  V30 1477 H 144.394 -0.169743 0.809393 0
M  V30 1478 H 146.94 0.41537 1.64538 0
M  V30 1479 H 145.712 0.632217 3.86159 0
M  V30 1480 H 145.335 -1.08243 3.82582 0
M  V30 1481 N 146.332 -1.57332 0.0918853 0
M  V30 1482 C 147.262 -2.16872 -0.865371 0
M  V30 1483 C 148.243 -1.10118 -1.29646 0
M  V30 1484 O 149.428 -1.38242 -1.36392 0
M  V30 1485 C 146.558 -2.74649 -2.12569 0
M  V30 1486 C 145.512 -3.86747 -1.83333 0
M  V30 1487 C 144.838 -4.31212 -3.16166 0
M  V30 1488 C 146.138 -5.10089 -1.1228 0
M  V30 1489 H 147.832 -2.97114 -0.369307 0
M  V30 1490 H 145.378 -1.42918 -0.176194 0
M  V30 1491 H 147.331 -3.14952 -2.7997 0
M  V30 1492 H 146.055 -1.91657 -2.64452 0
M  V30 1493 H 144.714 -3.46978 -1.18331 0
M  V30 1494 H 144.362 -3.45115 -3.6593 0
M  V30 1495 H 144.062 -5.06788 -2.97388 0
M  V30 1496 H 145.586 -4.74146 -3.84731 0
M  V30 1497 H 147 -5.47582 -1.69785 0
M  V30 1498 H 145.397 -5.91073 -1.03693 0
M  V30 1499 H 146.467 -4.84786 -0.105041 0
M  V30 1500 N 147.81 0.181792 -1.56548 0
M  V30 1501 C 148.72 1.24538 -1.98815 0
M  V30 1502 C 149.736 1.49045 -0.897861 0
M  V30 1503 O 150.912 1.61399 -1.20467 0
M  V30 1504 C 147.977 2.56683 -2.33055 0
M  V30 1505 C 147.038 2.40131 -3.55859 0
M  V30 1506 C 146.271 3.65975 -3.88456 0
M  V30 1507 O 146.494 4.70711 -3.22161 0
M  V30 1508 O 145.428 3.6071 -4.81842 0
M  V30 1509 H 149.254 0.916647 -2.89536 0
M  V30 1510 H 146.839 0.387842 -1.44278 0
M  V30 1511 H 148.721 3.34655 -2.56094 0
M  V30 1512 H 147.396 2.89157 -1.45498 0
M  V30 1513 H 146.303 1.60226 -3.38051 0
M  V30 1514 H 147.636 2.12585 -4.43924 0
M  V30 1515 N 149.288 1.51039 0.449983 0
M  V30 1516 C 150.251 1.70863 1.5277 0
M  V30 1517 C 151.251 0.578846 1.5002 0
M  V30 1518 O 152.441 0.846213 1.52266 0
M  V30 1519 C 149.573 1.75341 2.9235 0
M  V30 1520 H 150.766 2.67034 1.36502 0
M  V30 1521 H 148.319 1.40838 0.677812 0
M  V30 1522 H 149.054 0.809383 3.14037 0
M  V30 1523 H 148.839 2.57436 2.95752 0
M  V30 1524 H 150.329 1.92559 3.70555 0
M  V30 1525 N 150.766 -0.704594 1.40972 0
M  V30 1526 C 151.729 -1.80035 1.41845 0
M  V30 1527 C 152.729 -1.57774 0.310474 0
M  V30 1528 O 153.919 -1.64613 0.56992 0
M  V30 1529 C 151.051 -3.18284 1.22098 0
M  V30 1530 H 152.244 -1.80658 2.3938 0
M  V30 1531 H 149.797 -0.911329 1.26982 0
M  V30 1532 H 150.532 -3.23306 0.253672 0
M  V30 1533 H 150.317 -3.35843 2.02366 0
M  V30 1534 H 151.807 -3.98289 1.25522 0
M  V30 1535 N 152.244 -1.26651 -0.937939 0
M  V30 1536 C 153.493 -1.11775 -1.67897 0
M  V30 1537 C 153.806 0.33794 -1.92659 0
M  V30 1538 O 155.012 0.607434 -2.64618 0
M  V30 1539 C 153.468 -1.9523 -3.02346 0
M  V30 1540 C 153.076 -3.45393 -2.8532 0
M  V30 1541 C 154.82 -1.88972 -3.80118 0
M  V30 1542 C 152.727 -4.21083 -4.15263 0
M  V30 1543 H 151.657 -0.414696 -0.629717 0
M  V30 1544 H 154.308 -1.50988 -1.04283 0
M  V30 1545 H 152.69 -1.48853 -3.66959 0
M  V30 1546 H 153.864 -3.99561 -2.29537 0
M  V30 1547 H 152.179 -3.52921 -2.20988 0
M  V30 1548 H 154.776 -2.42805 -4.76392 0
M  V30 1549 H 155.119 -0.86113 -4.07296 0
M  V30 1550 H 155.652 -2.33189 -3.22285 0
M  V30 1551 H 152.391 -5.24425 -3.93267 0
M  V30 1552 H 151.911 -3.71695 -4.70747 0
M  V30 1553 H 153.59 -4.29706 -4.83696 0
M  V30 1554 N 153.722 1.14298 -1.08507 0
M  V30 1555 C 155.138 1.37347 -0.812901 0
M  V30 1556 C 155.338 1.93052 0.577325 0
M  V30 1557 O 154.394 2.14389 1.33393 0
M  V30 1558 C 155.707 2.33359 -1.89642 0
M  V30 1559 C 157.255 2.46996 -1.92255 0
M  V30 1560 C 157.73 3.46309 -2.99724 0
M  V30 1561 N 159.221 3.53853 -2.98902 0
M  V30 1562 C 159.956 4.3055 -3.787 0
M  V30 1563 N 159.452 5.10482 -4.6838 0
M  V30 1564 N 161.245 4.25757 -3.66998 0
M  V30 1565 H 153.396 0.764867 -1.9815 0
M  V30 1566 H 155.659 0.398966 -0.859959 0
M  V30 1567 H 155.365 1.99565 -2.89597 0
M  V30 1568 H 155.239 3.33274 -1.76659 0
M  V30 1569 H 157.626 2.80081 -0.929445 0
M  V30 1570 H 157.707 1.47039 -2.09316 0
M  V30 1571 H 157.351 3.13957 -3.99241 0
M  V30 1572 H 157.281 4.46049 -2.79907 0
M  V30 1573 H 159.772 2.96812 -2.33904 0
M  V30 1574 H 160.085 5.66284 -5.25873 0
M  V30 1575 H 158.43 5.09747 -4.72422 0
M  V30 1576 H 161.621 3.62383 -2.96304 0
M  V30 1577 H 161.794 4.85279 -4.29427 0
M  V30 1578 N 155.201 0.870884 1.31352 0
M  V30 1579 C 156.431 0.496049 2.00557 0
M  V30 1580 C 156.839 -0.916241 1.65534 0
M  V30 1581 O 156.182 -1.61188 0.881134 0
M  V30 1582 C 156.244 0.574418 3.54881 0
M  V30 1583 C 155.908 1.94849 4.1338 0
M  V30 1584 C 156.905 2.91611 4.30417 0
M  V30 1585 C 154.59 2.25005 4.49086 0
M  V30 1586 C 156.584 4.16672 4.82352 0
M  V30 1587 C 154.271 3.50315 5.00722 0
M  V30 1588 C 155.269 4.45964 5.17306 0
M  V30 1589 O 154.957 5.69052 5.67833 0
M  V30 1590 H 154.689 0.191664 0.64826 0
M  V30 1591 H 157.243 1.17409 1.68536 0
M  V30 1592 H 155.473 -0.160549 3.86367 0
M  V30 1593 H 157.162 0.212879 4.05341 0
M  V30 1594 H 157.928 2.69622 4.03149 0
M  V30 1595 H 153.807 1.51332 4.35453 0
M  V30 1596 H 157.351 4.91336 4.95211 0
M  V30 1597 H 153.248 3.72147 5.27424 0
M  V30 1598 H 154.016 5.71236 5.86201 0
M  V30 1599 N 156.679 -1.44442 0.630414 0
M  V30 1600 C 157.642 -2.29107 -0.0652523 0
M  V30 1601 C 158.642 -1.41002 -0.772995 0
M  V30 1602 O 159.832 -1.62881 -0.617692 0
M  V30 1603 C 156.964 -3.22564 -1.10296 0
M  V30 1604 H 158.157 -2.92103 0.679401 0
M  V30 1605 H 155.71 -1.51343 0.390517 0
M  V30 1606 H 156.445 -2.64416 -1.87762 0
M  V30 1607 H 156.23 -3.87491 -0.59941 0
M  V30 1608 H 157.72 -3.86167 -1.5895 0
M  V30 1609 N 158.157 -0.370918 -1.53173 0
M  V30 1610 C 159.573 -0.0200818 -1.59587 0
M  V30 1611 C 159.773 1.46279 -1.38581 0
M  V30 1612 O 158.829 2.22506 -1.19363 0
M  V30 1613 C 160.142 -0.4808 -2.96831 0
M  V30 1614 C 161.69 -0.435477 -3.09956 0
M  V30 1615 C 162.165 -0.872092 -4.4962 0
M  V30 1616 N 163.656 -0.827364 -4.55751 0
M  V30 1617 C 164.391 -1.13683 -5.62018 0
M  V30 1618 N 163.887 -1.51584 -6.76014 0
M  V30 1619 N 165.68 -1.05927 -5.52029 0
M  V30 1620 H 157.831 -1.33652 -1.65079 0
M  V30 1621 H 160.094 -0.546634 -0.774529 0
M  V30 1622 H 159.8 -1.51577 -3.1736 0
M  V30 1623 H 159.674 0.129796 -3.76977 0
M  V30 1624 H 162.061 0.590371 -2.89134 0
M  V30 1625 H 162.142 -1.08164 -2.31806 0
M  V30 1626 H 161.786 -1.89608 -4.71181 0
M  V30 1627 H 161.716 -0.203127 -5.26208 0
M  V30 1628 H 164.207 -0.548216 -3.73902 0
M  V30 1629 H 164.52 -1.73609 -7.53047 0
M  V30 1630 H 162.865 -1.55454 -6.77391 0
M  V30 1631 H 166.056 -0.762321 -4.61851 0
M  V30 1632 H 166.229 -1.30378 -6.34749 0
M  V30 1633 N 159.635 1.57281 -0.100228 0
M  V30 1634 C 160.585 2.10848 0.86759 0
M  V30 1635 C 161.569 1.02473 1.24049 0
M  V30 1636 O 162.761 1.28739 1.21471 0
M  V30 1637 C 159.89 2.69648 2.12474 0
M  V30 1638 C 158.976 3.85074 1.77704 0
M  V30 1639 N 159.367 4.92897 1.13518 0
M  V30 1640 C 157.665 3.94905 2.07282 0
M  V30 1641 C 158.366 5.73475 0.974735 0
M  V30 1642 N 157.342 5.22675 1.4937 0
M  V30 1643 H 161.144 2.91594 0.367471 0
M  V30 1644 H 158.658 1.62074 0.102829 0
M  V30 1645 H 160.655 3.06356 2.82757 0
M  V30 1646 H 159.315 1.90359 2.63047 0
M  V30 1647 H 160.326 5.11662 0.801381 0
M  V30 1648 H 157.003 3.26633 2.60033 0
M  V30 1649 H 158.393 6.70238 0.472364 0
M  V30 1650 N 161.113 -0.173488 1.56642 0
M  V30 1651 C 162.045 -1.23935 1.92802 0
M  V30 1652 C 163.058 -1.40589 0.820889 0
M  V30 1653 O 164.247 -1.40631 1.09933 0
M  V30 1654 C 161.347 -2.60837 2.16373 0
M  V30 1655 C 160.52 -2.6551 3.47596 0
M  V30 1656 C 159.579 -3.8376 3.60021 0
M  V30 1657 O 158.605 -3.69859 4.32658 0
M  V30 1658 N 159.807 -5.00127 2.94709 0
M  V30 1659 H 162.572 -0.932236 2.84832 0
M  V30 1660 H 160.133 -0.363268 1.57772 0
M  V30 1661 H 162.125 -3.38407 2.21952 0
M  V30 1662 H 160.695 -2.83948 1.30738 0
M  V30 1663 H 159.915 -1.74052 3.53694 0
M  V30 1664 H 161.203 -2.65641 4.33949 0
M  V30 1665 H 160.601 -5.14322 2.35563 0
M  V30 1666 H 159.158 -5.75567 3.05886 0
M  V30 1667 N 162.591 -1.51276 -0.441967 0
M  V30 1668 C 164.002 -1.56244 -1.02199 0
M  V30 1669 C 164.353 -0.383149 -1.92422 0
M  V30 1670 O 163.478 0.500613 -2.1053 0
M  V30 1671 C 164.073 -2.83162 -1.86024 0
M  V30 1672 C 162.632 -2.90716 -2.39084 0
M  V30 1673 C 161.779 -2.50858 -1.18175 0
M  V30 1674 H 164.73 -1.5712 -0.223416 0
M  V30 1675 H 164.751 -2.66663 -2.71425 0
M  V30 1676 H 164.263 -3.68974 -1.20331 0
M  V30 1677 H 162.364 -2.09323 -3.08244 0
M  V30 1678 H 162.477 -3.94266 -2.72198 0
M  V30 1679 H 160.841 -2.03951 -1.52565 0
M  V30 1680 H 161.624 -3.3901 -0.541001 0
M  V30 1681 N 164.069 0.697108 -1.41344 0
M  V30 1682 C 165.299 1.48377 -1.43763 0
M  V30 1683 C 165.707 1.89156 -0.0408726 0
M  V30 1684 O 165.05 1.57239 0.949812 0
M  V30 1685 C 165.112 2.7781 -2.2817 0
M  V30 1686 C 164.776 2.59244 -3.76353 0
M  V30 1687 C 165.773 2.25292 -4.68551 0
M  V30 1688 C 163.458 2.74933 -4.20378 0
M  V30 1689 C 165.452 2.07264 -6.02761 0
M  V30 1690 C 163.139 2.56521 -5.54653 0
M  V30 1691 C 164.137 2.22737 -6.4566 0
M  V30 1692 O 163.825 2.04485 -7.77458 0
M  V30 1693 H 163.557 0.463842 -0.491759 0
M  V30 1694 H 166.111 0.865934 -1.86255 0
M  V30 1695 H 164.341 3.41995 -1.8049 0
M  V30 1696 H 166.03 3.39608 -2.22309 0
M  V30 1697 H 166.796 2.12787 -4.35829 0
M  V30 1698 H 162.675 3.00213 -3.49848 0
M  V30 1699 H 166.219 1.80817 -6.73759 0
M  V30 1700 H 162.116 2.68616 -5.86955 0
M  V30 1701 H 162.884 2.1926 -7.88586 0
M  V30 1702 N 165.547 1.27147 0.931209 0
M  V30 1703 C 166.772 1.16191 1.71797 0
M  V30 1704 C 167.197 -0.278004 1.86034 0
M  V30 1705 O 166.555 -1.20137 1.35782 0
M  V30 1706 C 166.603 1.84673 3.09723 0
M  V30 1707 O 165.707 1.14231 3.96264 0
M  V30 1708 H 165.048 0.404303 0.526721 0
M  V30 1709 H 167.578 1.68152 1.1656 0
M  V30 1710 H 167.588 1.91893 3.60057 0
M  V30 1711 H 166.263 2.89421 2.98677 0
M  V30 1712 H 164.84 1.15056 3.54706 0
M  V30 1713 N 167.025 -1.13721 1.09112 0
M  V30 1714 C 167.973 -2.21103 0.722219 0
M  V30 1715 C 168.967 -1.67147 -0.275374 0
M  V30 1716 O 170.173 -1.79477 -0.137176 0
M  V30 1717 H 166.548 -0.720445 0.215553 0
M  V30 1718 H 168.519 -2.49483 1.63709 0
M  V30 1719 C 167.268 -3.47352 0.15543 0
M  V30 1720 H 166.591 -3.89206 0.914246 0
M  V30 1721 H 168.031 -4.2395 -0.0647967 0
M  V30 1722 C 166.49 -3.1814 -1.10852 0
M  V30 1723 O 167.02 -3.36604 -2.19227 0
M  V30 1724 N 165.226 -2.72045 -1.02176 0
M  V30 1725 H 164.773 -2.57221 -0.139764 0
M  V30 1726 H 164.731 -2.52875 -1.8682 0
M  V30 1727 N 168.503 -0.877838 -1.30888 0
M  V30 1728 C 169.751 -0.491723 -1.96027 0
M  V30 1729 C 170.072 0.960827 -1.69685 0
M  V30 1730 O 169.342 1.67462 -1.01654 0
M  V30 1731 H 167.922 -0.17885 -0.725273 0
M  V30 1732 H 170.584 -1.11935 -1.59551 0
M  V30 1733 H 169.68 -0.656016 -3.05128 0
M  V30 1734 N 169.982 1.44106 -0.638065 0
M  V30 1735 C 170.929 2.30715 0.062701 0
M  V30 1736 C 171.899 1.43882 0.829883 0
M  V30 1737 O 173.084 1.72775 0.809532 0
M  V30 1738 C 170.224 3.29258 1.03358 0
M  V30 1739 C 169.337 4.31192 0.26409 0
M  V30 1740 C 168.472 5.16825 1.22741 0
M  V30 1741 C 167.511 6.10462 0.447475 0
M  V30 1742 N 166.648 6.8877 1.36161 0
M  V30 1743 H 171.488 2.90096 -0.681781 0
M  V30 1744 H 169.025 1.42925 -0.347988 0
M  V30 1745 H 170.983 3.84886 1.60992 0
M  V30 1746 H 169.613 2.71562 1.74511 0
M  V30 1747 H 168.665 3.77981 -0.428295 0
M  V30 1748 H 169.977 4.97619 -0.343052 0
M  V30 1749 H 169.131 5.77004 1.87487 0
M  V30 1750 H 167.87 4.50488 1.86847 0
M  V30 1751 H 166.875 5.49386 -0.213433 0
M  V30 1752 H 168.1 6.78837 -0.188968 0
M  V30 1753 H 166.046 6.25096 1.98975 0
M  V30 1754 H 165.963 7.51663 0.808656 0
M  V30 1755 H 167.231 7.53467 1.99769 0
M  V30 1756 N 171.46 0.379036 1.52974 0
M  V30 1757 C 172.706 -0.206727 2.01744 0
M  V30 1758 C 173.039 -1.47314 1.26539 0
M  V30 1759 O 172.314 -1.91084 0.362903 0
M  V30 1760 C 172.597 -0.485066 3.56818 0
M  V30 1761 C 172.45 0.795919 4.42702 0
M  V30 1762 C 173.769 -1.28003 4.21074 0
M  V30 1763 H 170.888 -0.0736607 0.73331 0
M  V30 1764 H 173.53 0.506581 1.83122 0
M  V30 1765 H 171.68 -1.09272 3.72816 0
M  V30 1766 H 173.352 1.43307 4.38476 0
M  V30 1767 H 171.595 1.41344 4.10127 0
M  V30 1768 H 172.266 0.555947 5.49193 0
M  V30 1769 H 174.742 -0.765867 4.08991 0
M  V30 1770 H 173.618 -1.44352 5.29579 0
M  V30 1771 H 173.879 -2.29236 3.78026 0
M  V30 1772 N 172.938 -1.57226 0.108567 0
M  V30 1773 C 174.186 -1.94448 -0.550853 0
M  V30 1774 C 174.507 -0.992074 -1.67878 0
M  V30 1775 O 173.777 -0.0465 -1.95845 0
M  V30 1776 H 172.357 -0.717897 -0.206479 0
M  V30 1777 H 175.019 -1.94112 0.175062 0
M  V30 1778 H 174.115 -2.97218 -0.952259 0
M  V30 1779 N 174.416 0.165178 -1.56732 0
M  V30 1780 C 175.346 1.20651 -1.99914 0
M  V30 1781 C 176.327 1.45827 -0.875705 0
M  V30 1782 O 177.512 1.57057 -1.14223 0
M  V30 1783 C 174.642 2.54401 -2.36427 0
M  V30 1784 C 173.596 2.43782 -3.51787 0
M  V30 1785 C 172.922 3.82078 -3.7406 0
M  V30 1786 C 174.222 1.93732 -4.85041 0
M  V30 1787 H 175.916 0.847534 -2.87154 0
M  V30 1788 H 173.462 0.40625 -1.38151 0
M  V30 1789 H 175.415 3.27458 -2.65234 0
M  V30 1790 H 174.139 2.92098 -1.46103 0
M  V30 1791 H 172.798 1.73178 -3.23117 0
M  V30 1792 H 172.446 4.17179 -2.81017 0
M  V30 1793 H 172.146 3.7584 -4.51684 0
M  V30 1794 H 173.67 4.56712 -4.05274 0
M  V30 1795 H 175.084 2.56569 -5.12684 0
M  V30 1796 H 173.481 1.98428 -5.66345 0
M  V30 1797 H 174.551 0.891962 -4.76626 0
M  V30 1798 N 175.894 1.51508 0.433938 0
M  V30 1799 C 177.14 1.64588 1.18484 0
M  V30 1800 C 177.473 0.362666 1.90784 0
M  V30 1801 O 176.748 -0.637892 1.83742 0
M  V30 1802 C 177.031 2.85149 2.19913 0
M  V30 1803 C 176.884 4.23456 1.51674 0
M  V30 1804 C 178.203 3.01227 3.20858 0
M  V30 1805 H 175.322 0.598994 0.429389 0
M  V30 1806 H 177.964 1.84002 0.473647 0
M  V30 1807 H 176.114 2.68729 2.80566 0
M  V30 1808 H 177.786 4.51552 0.943322 0
M  V30 1809 H 176.029 4.25998 0.819035 0
M  V30 1810 H 176.7 5.03812 2.2556 0
M  V30 1811 H 179.176 3.16382 2.70263 0
M  V30 1812 H 178.052 3.87141 3.89118 0
M  V30 1813 H 178.313 2.13447 3.8716 0
M  V30 1814 N 177.372 -0.689602 1.41712 0
M  V30 1815 C 178.62 -1.4468 1.4111 0
M  V30 1816 C 178.941 -1.94986 0.0232196 0
M  V30 1817 O 178.211 -1.72097 -0.935913 0
M  V30 1818 H 176.791 -0.536847 0.519427 0
M  V30 1819 H 179.453 -0.815825 1.77004 0
M  V30 1820 H 178.549 -2.30706 2.10193 0
M  V30 1821 N 178.85 -1.27639 -0.924453 0
M  V30 1822 C 180.08 -1.16819 -1.70402 0
M  V30 1823 C 180.488 0.277191 -1.87158 0
M  V30 1824 O 179.831 1.20025 -1.39067 0
M  V30 1825 C 179.893 -1.78305 -3.12166 0
M  V30 1826 C 179.557 -3.27502 -3.18734 0
M  V30 1827 C 180.554 -4.2409 -3.00738 0
M  V30 1828 C 178.239 -3.68269 -3.4159 0
M  V30 1829 C 180.233 -5.59422 -3.05492 0
M  V30 1830 C 177.92 -5.0373 -3.45977 0
M  V30 1831 C 178.918 -5.99116 -3.27946 0
M  V30 1832 O 178.606 -7.32108 -3.32074 0
M  V30 1833 H 178.338 -0.406931 -0.539799 0
M  V30 1834 H 180.892 -1.69078 -1.16626 0
M  V30 1835 H 179.122 -1.20528 -3.67437 0
M  V30 1836 H 180.811 -1.62154 -3.72103 0
M  V30 1837 H 181.577 -3.93931 -2.82919 0
M  V30 1838 H 177.456 -2.94496 -3.54673 0
M  V30 1839 H 181 -6.33852 -2.91337 0
M  V30 1840 H 176.897 -5.33543 -3.63321 0
M  V30 1841 H 177.665 -7.40598 -3.48507 0
M  V30 1842 N 180.328 1.1314 -1.09713 0
M  V30 1843 C 181.568 1.8613 -0.844683 0
M  V30 1844 C 181.932 1.81765 0.618491 0
M  V30 1845 O 183.133 2.50024 0.98699 0
M  V30 1846 C 181.404 3.30151 -1.36877 0
M  V30 1847 S 182.963 4.206 -1.25064 0
M  V30 1848 H 179.781 0.642056 -0.305427 0
M  V30 1849 H 182.383 1.36343 -1.4011 0
M  V30 1850 H 181.087 3.30883 -2.42786 0
M  V30 1851 H 180.618 3.85 -0.808614 0
M  V30 1852 H 182.633 4.95783 -0.203486 0
M  V30 1853 N 181.806 0.884767 1.30421 0
M  V30 1854 C 182.736 0.367574 2.30589 0
M  V30 1855 C 183.717 -0.549464 1.60981 0
M  V30 1856 O 184.902 -0.46336 1.88591 0
M  V30 1857 C 182.032 -0.418944 3.44764 0
M  V30 1858 C 180.986 0.406316 4.26067 0
M  V30 1859 C 180.312 -0.506793 5.32293 0
M  V30 1860 C 181.612 1.64832 4.95608 0
M  V30 1861 H 183.306 1.20462 2.74097 0
M  V30 1862 H 180.852 0.580695 1.31772 0
M  V30 1863 H 182.805 -0.791395 4.13902 0
M  V30 1864 H 181.529 -1.28964 3.0006 0
M  V30 1865 H 180.188 0.760903 3.58617 0
M  V30 1866 H 179.836 -1.37519 4.83836 0
M  V30 1867 H 179.536 0.0415828 5.87585 0
M  V30 1868 H 181.06 -0.875764 6.04287 0
M  V30 1869 H 182.474 1.34646 5.57264 0
M  V30 1870 H 180.871 2.13688 5.60765 0
M  V30 1871 H 181.941 2.39284 4.21748 0
M  V30 1872 N 183.284 -1.43765 0.645699 0
M  V30 1873 C 184.532 -2.01499 0.155731 0
M  V30 1874 C 184.853 -1.51151 -1.232 0
M  V30 1875 O 184.123 -0.721044 -1.82148 0
M  V30 1876 H 182.703 -0.745003 0.0545817 0
M  V30 1877 H 185.365 -1.76075 0.835677 0
M  V30 1878 H 184.461 -3.1181 0.134577 0
M  V30 1879 N 184.763 -0.387143 -1.52771 0
M  V30 1880 C 186.011 0.195349 -2.01154 0
M  V30 1881 C 186.332 1.475 -1.27549 0
M  V30 1882 O 185.602 1.91878 -0.394924 0
M  V30 1883 H 184.182 0.075178 -0.743207 0
M  V30 1884 H 186.844 -0.518337 -1.87881 0
M  V30 1885 H 185.94 0.407096 -3.09434 0
M  V30 1886 N 186.241 1.57166 -0.116904 0
M  V30 1887 C 187.204 2.14039 0.819742 0
M  V30 1888 C 188.204 1.07477 1.19605 0
M  V30 1889 O 189.394 1.33263 1.1219 0
M  V30 1890 C 186.526 2.67891 2.10826 0
M  V30 1891 H 187.719 2.98128 0.325511 0
M  V30 1892 H 185.272 1.55739 0.132312 0
M  V30 1893 H 186.007 1.87384 2.64685 0
M  V30 1894 H 185.792 3.45823 1.84793 0
M  V30 1895 H 187.282 3.11809 2.77785 0
M  V30 1896 N 187.719 -0.156864 1.56817 0
M  V30 1897 C 188.649 -1.19589 2.00551 0
M  V30 1898 C 189.63 -1.4536 0.883426 0
M  V30 1899 O 190.815 -1.56449 1.15054 0
M  V30 1900 C 187.945 -2.53143 2.37773 0
M  V30 1901 C 186.899 -2.41913 3.53075 0
M  V30 1902 C 186.225 -3.80088 3.76081 0
M  V30 1903 C 187.525 -1.91157 4.86062 0
M  V30 1904 H 189.219 -0.832293 2.87599 0
M  V30 1905 H 186.765 -0.398918 1.38364 0
M  V30 1906 H 188.718 -3.26047 2.66967 0
M  V30 1907 H 187.442 -2.91319 1.4765 0
M  V30 1908 H 186.101 -1.71462 3.24031 0
M  V30 1909 H 185.749 -4.15683 2.83225 0
M  V30 1910 H 185.449 -3.73439 4.53671 0
M  V30 1911 H 186.973 -4.54556 4.0769 0
M  V30 1912 H 188.387 -2.53846 5.14038 0
M  V30 1913 H 186.784 -1.95422 5.67389 0
M  V30 1914 H 187.854 -0.866673 4.77092 0
M  V30 1915 N 189.197 -1.51736 -0.425897 0
M  V30 1916 C 190.16 -1.73271 -1.50032 0
M  V30 1917 C 191.16 -0.602639 -1.4908 0
M  V30 1918 O 192.35 -0.87033 -1.509 0
M  V30 1919 C 189.482 -1.79969 -2.89523 0
M  V30 1920 H 190.675 -2.69172 -1.32237 0
M  V30 1921 H 188.228 -1.41899 -0.65532 0
M  V30 1922 H 188.963 -0.859241 -3.1271 0
M  V30 1923 H 188.748 -2.62109 -2.91619 0
M  V30 1924 H 190.238 -1.9843 -3.67444 0
M  V30 1925 N 190.675 0.682077 -1.42076 0
M  V30 1926 C 191.922 1.44215 -1.42156 0
M  V30 1927 C 192.25 1.94468 -0.0354186 0
M  V30 1928 O 191.505 1.70816 0.955002 0
M  V30 1929 C 191.804 2.66036 -2.38662 0
M  V30 1930 C 191.47 2.34366 -3.85206 0
M  V30 1931 C 190.132 2.25439 -4.25124 0
M  V30 1932 C 192.484 2.08513 -4.77673 0
M  V30 1933 C 189.812 1.88775 -5.55501 0
M  V30 1934 C 192.164 1.73354 -6.08384 0
M  V30 1935 C 190.828 1.62933 -6.47309 0
M  V30 1936 H 190.098 0.527718 -0.520187 0
M  V30 1937 H 192.745 0.778387 -1.74967 0
M  V30 1938 H 191.05 3.3741 -1.99152 0
M  V30 1939 H 192.747 3.24205 -2.35991 0
M  V30 1940 H 189.337 2.42213 -3.53597 0
M  V30 1941 H 193.521 2.14346 -4.47626 0
M  V30 1942 H 188.777 1.7927 -5.84527 0
M  V30 1943 H 192.951 1.52373 -6.79526 0
M  V30 1944 H 190.578 1.34292 -7.48244 0
M  V30 1945 N 192.153 1.28127 0.917671 0
M  V30 1946 C 193.083 1.14248 2.03641 0
M  V30 1947 C 194.064 0.0412748 1.7005 0
M  V30 1948 O 195.249 0.217566 1.92977 0
M  V30 1949 C 192.379 0.799431 3.37974 0
M  V30 1950 C 191.333 1.85497 3.85713 0
M  V30 1951 C 190.659 1.36565 5.16966 0
M  V30 1952 C 191.959 3.26085 4.08002 0
M  V30 1953 H 193.653 2.07835 2.15511 0
M  V30 1954 H 191.199 1.00064 1.03553 0
M  V30 1955 H 193.152 0.689114 4.15727 0
M  V30 1956 H 191.876 -0.172145 3.26146 0
M  V30 1957 H 190.535 1.95437 3.10161 0
M  V30 1958 H 190.183 0.383253 5.01538 0
M  V30 1959 H 189.883 2.07143 5.49878 0
M  V30 1960 H 191.407 1.26848 5.97279 0
M  V30 1961 H 192.821 3.19089 4.76293 0
M  V30 1962 H 191.218 3.94462 4.52238 0
M  V30 1963 H 192.288 3.70394 3.12948 0
M  V30 1964 N 193.631 -1.12557 1.10312 0
M  V30 1965 C 194.877 -1.84311 0.846011 0
M  V30 1966 C 195.21 -1.83805 -0.626859 0
M  V30 1967 O 194.485 -1.28268 -1.46211 0
M  V30 1968 C 194.768 -3.32048 1.39341 0
M  V30 1969 C 194.621 -3.41016 2.93305 0
M  V30 1970 C 195.94 -4.27764 1.03468 0
M  V30 1971 H 193.059 -0.669192 0.30879 0
M  V30 1972 H 195.701 -1.32057 1.36605 0
M  V30 1973 H 193.851 -3.76678 0.951087 0
M  V30 1974 H 195.523 -3.05031 3.46055 0
M  V30 1975 H 193.766 -2.81603 3.29973 0
M  V30 1976 H 194.437 -4.44948 3.26689 0
M  V30 1977 H 196.913 -3.91253 1.41633 0
M  V30 1978 H 195.789 -5.29549 1.44463 0
M  V30 1979 H 196.05 -4.42064 -0.0560404 0
M  V30 1980 N 195.109 -0.891671 -1.2995 0
M  V30 1981 C 196.072 -0.36828 -2.26222 0
M  V30 1982 C 197.072 0.493014 -1.53056 0
M  V30 1983 O 198.262 0.299213 -1.71611 0
M  V30 1984 C 195.394 0.47442 -3.37583 0
M  V30 1985 H 196.587 -1.21844 -2.74033 0
M  V30 1986 H 194.14 -0.669107 -1.41254 0
M  V30 1987 H 194.875 1.34489 -2.95099 0
M  V30 1988 H 194.66 -0.142615 -3.91841 0
M  V30 1989 H 196.15 0.83218 -4.09224 0
M  V30 1990 N 196.587 1.43421 -0.653314 0
M  V30 1991 C 197.55 2.29182 0.0287951 0
M  V30 1992 C 198.55 1.42213 0.750465 0
M  V30 1993 O 199.74 1.63843 0.591701 0
M  V30 1994 C 196.872 3.24278 1.05151 0
M  V30 1995 H 198.065 2.90985 -0.725786 0
M  V30 1996 H 195.618 1.50702 -0.414545 0
M  V30 1997 H 196.353 2.6737 1.83532 0
M  V30 1998 H 196.138 3.88396 0.537687 0
M  V30 1999 H 197.628 3.88647 1.52786 0
M  V30 2000 N 198.065 0.39524 1.52563 0
M  V30 2001 C 199.012 -0.437036 2.26624 0
M  V30 2002 C 199.982 -1.05281 1.28472 0
M  V30 2003 O 201.167 -1.07971 1.57311 0
M  V30 2004 C 198.307 -1.55524 3.08069 0
M  V30 2005 C 197.42 -0.961745 4.21158 0
M  V30 2006 C 196.555 -2.05149 4.89987 0
M  V30 2007 C 195.594 -1.4342 5.95061 0
M  V30 2008 N 194.731 -2.46351 6.57462 0
M  V30 2009 H 199.571 0.200976 2.97322 0
M  V30 2010 H 197.108 0.110944 1.46681 0
M  V30 2011 H 199.066 -2.21437 3.53584 0
M  V30 2012 H 197.696 -2.16348 2.3957 0
M  V30 2013 H 196.748 -0.192048 3.79915 0
M  V30 2014 H 198.06 -0.470701 4.96574 0
M  V30 2015 H 197.214 -2.78819 5.38837 0
M  V30 2016 H 195.953 -2.57615 4.14109 0
M  V30 2017 H 194.958 -0.682774 5.45544 0
M  V30 2018 H 196.183 -0.917416 6.72875 0
M  V30 2019 H 194.129 -2.97975 5.8442 0
M  V30 2020 H 194.046 -2.02019 7.28508 0
M  V30 2021 H 195.314 -3.19633 7.10954 0
M  V30 2022 N 199.544 -1.57102 0.125237 0
M  V30 2023 C 200.792 -1.95021 -0.530198 0
M  V30 2024 C 201.113 -1.00982 -1.66816 0
M  V30 2025 O 200.383 -0.0672693 -1.95784 0
M  V30 2026 H 198.963 -0.720046 -0.198853 0
M  V30 2027 H 201.625 -1.93916 0.19564 0
M  V30 2028 H 200.721 -2.98211 -0.920681 0
M  V30 2029 N 201.022 0.148545 -1.56898 0
M  V30 2030 C 202.252 0.875118 -1.8715 0
M  V30 2031 C 202.66 1.75322 -0.711262 0
M  V30 2032 O 202.003 1.80745 0.328151 0
M  V30 2033 C 202.065 1.7844 -3.12089 0
M  V30 2034 C 201.729 1.08361 -4.43967 0
M  V30 2035 C 202.726 0.438247 -5.1805 0
M  V30 2036 C 200.411 1.07358 -4.90693 0
M  V30 2037 C 202.405 -0.20779 -6.37061 0
M  V30 2038 C 200.092 0.42373 -6.09629 0
M  V30 2039 C 201.09 -0.215829 -6.82659 0
M  V30 2040 O 200.778 -0.855378 -7.99336 0
M  V30 2041 H 200.51 0.258504 -0.624621 0
M  V30 2042 H 203.064 0.14652 -2.04877 0
M  V30 2043 H 201.294 2.55389 -2.90367 0
M  V30 2044 H 202.983 2.38279 -3.286 0
M  V30 2045 H 203.749 0.437817 -4.8302 0
M  V30 2046 H 199.628 1.5608 -4.33774 0
M  V30 2047 H 203.172 -0.70758 -6.94002 0
M  V30 2048 H 199.069 0.421822 -6.4412 0
M  V30 2049 H 199.837 -0.756892 -8.14993 0
M  V30 2050 N 202.5 1.5196 0.417844 0
M  V30 2051 C 203.746 1.65836 1.16732 0
M  V30 2052 C 204.079 0.382881 1.90388 0
M  V30 2053 O 203.354 -0.618368 1.84408 0
M  V30 2054 C 203.637 2.87466 2.16876 0
M  V30 2055 C 203.49 4.25041 1.47174 0
M  V30 2056 C 204.809 3.04613 3.17646 0
M  V30 2057 H 201.928 0.603515 0.423011 0
M  V30 2058 H 204.57 1.84494 0.454105 0
M  V30 2059 H 202.72 2.71689 2.777 0
M  V30 2060 H 204.392 4.52527 0.895376 0
M  V30 2061 H 202.635 4.26843 0.773806 0
M  V30 2062 H 203.306 5.06176 2.20204 0
M  V30 2063 H 205.782 3.1923 2.66892 0
M  V30 2064 H 204.658 3.91247 3.8499 0
M  V30 2065 H 204.919 2.17541 3.84874 0
M  V30 2066 N 203.978 -0.674533 1.42435 0
M  V30 2067 C 205.255 -1.4305 1.33402 0
M  V30 2068 C 205.635 -2.11081 -0.0284674 0
M  V30 2069 O 204.983 -2.03257 -1.04397 0
M  V30 2070 C 205.193 -2.43272 2.50239 0
M  V30 2071 C 206.541 -3.07907 2.92367 0
M  V30 2072 O 207.565 -2.53599 2.50132 0
M  V30 2073 O 206.424 -4.0632 3.65467 0
M  V30 2074 H 203.518 -0.638076 0.526106 0
M  V30 2075 H 206.064 -0.703235 1.54443 0
M  V30 2076 H 204.836 -1.91803 3.41068 0
M  V30 2077 H 204.459 -3.23479 2.31186 0
M  V30 2078 N 205.456 -1.28612 -0.910864 0
M  V30 2079 C 206.872 -1.06381 -1.18976 0
M  V30 2080 C 207.072 0.191998 -2.00583 0
M  V30 2081 O 206.128 0.892869 -2.36187 0
M  V30 2082 C 207.441 -2.31295 -1.92154 0
M  V30 2083 C 208.989 -2.36503 -2.05025 0
M  V30 2084 C 209.464 -3.61191 -2.81612 0
M  V30 2085 N 210.955 -3.61847 -2.89172 0
M  V30 2086 C 211.69 -4.55004 -3.4894 0
M  V30 2087 N 211.186 -5.58482 -4.09963 0
M  V30 2088 N 212.979 -4.42594 -3.46506 0
M  V30 2089 H 205.13 -2.09221 -0.366094 0
M  V30 2090 H 207.393 -0.921003 -0.224629 0
M  V30 2091 H 207.099 -3.228 -1.39618 0
M  V30 2092 H 206.973 -2.37934 -2.9269 0
M  V30 2093 H 209.36 -1.45494 -2.5674 0
M  V30 2094 H 209.441 -2.33857 -1.03657 0
M  V30 2095 H 209.085 -4.52545 -2.30576 0
M  V30 2096 H 209.015 -3.61092 -3.83302 0
M  V30 2097 H 211.506 -2.87022 -2.45819 0
M  V30 2098 H 211.819 -6.25704 -4.53557 0
M  V30 2099 H 210.164 -5.62305 -4.08459 0
M  V30 2100 H 213.355 -3.60953 -2.98045 0
M  V30 2101 H 213.528 -5.15381 -3.92793 0
M  V30 2102 N 206.934 1.1197 -1.10907 0
M  V30 2103 C 207.897 2.16031 -0.765707 0
M  V30 2104 C 208.897 1.59393 0.212235 0
M  V30 2105 O 210.087 1.74196 -0.0115441 0
M  V30 2106 C 207.219 3.40632 -0.135053 0
M  V30 2107 H 208.412 2.47919 -1.68748 0
M  V30 2108 H 205.965 1.27061 -0.910226 0
M  V30 2109 H 206.7 3.14348 0.797218 0
M  V30 2110 H 206.485 3.8302 -0.838937 0
M  V30 2111 H 207.975 4.17505 0.0892469 0
M  V30 2112 N 208.412 0.89855 1.29475 0
M  V30 2113 C 209.658 0.524658 1.95896 0
M  V30 2114 C 209.991 -0.926468 1.70676 0
M  V30 2115 O 209.266 -1.65665 1.01908 0
M  V30 2116 C 209.549 0.81633 3.50725 0
M  V30 2117 C 209.402 2.31907 3.85408 0
M  V30 2118 C 210.721 0.302038 4.39062 0
M  V30 2119 H 207.84 0.19209 0.711527 0
M  V30 2120 H 210.482 1.12502 1.53112 0
M  V30 2121 H 208.632 0.305369 3.87298 0
M  V30 2122 H 210.304 2.89949 3.58786 0
M  V30 2123 H 208.547 2.78027 3.32992 0
M  V30 2124 H 209.218 2.47373 4.93468 0
M  V30 2125 H 211.694 0.739551 4.09475 0
M  V30 2126 H 210.57 0.535331 5.46283 0
M  V30 2127 H 210.831 -0.797216 4.34853 0
M  V30 2128 N 209.89 -1.43072 0.660911 0
M  V30 2129 C 211.138 -2.01323 0.177094 0
M  V30 2130 C 211.459 -1.5245 -1.2159 0
M  V30 2131 O 210.729 -0.740322 -1.81373 0
M  V30 2132 H 209.309 -0.744382 0.0624804 0
M  V30 2133 H 211.971 -1.75179 0.854305 0
M  V30 2134 H 211.067 -3.11649 0.167641 0
M  V30 2135 N 211.368 -0.403325 -1.52352 0
M  V30 2136 C 212.598 0.17376 -2.05868 0
M  V30 2137 C 213.006 1.39898 -1.27378 0
M  V30 2138 O 212.349 1.80939 -0.31729 0
M  V30 2139 C 212.411 0.594756 -3.54546 0
M  V30 2140 C 212.075 -0.518926 -4.54044 0
M  V30 2141 C 213.072 -1.3807 -5.01231 0
M  V30 2142 C 210.757 -0.689961 -4.97539 0
M  V30 2143 C 212.751 -2.39852 -5.90551 0
M  V30 2144 C 210.438 -1.71109 -5.86656 0
M  V30 2145 C 211.436 -2.56378 -6.33056 0
M  V30 2146 O 211.124 -3.56743 -7.20409 0
M  V30 2147 H 210.856 0.0264951 -0.675481 0
M  V30 2148 H 213.41 -0.571179 -1.97299 0
M  V30 2149 H 211.64 1.39189 -3.60782 0
M  V30 2150 H 213.329 1.0991 -3.90736 0
M  V30 2151 H 214.095 -1.25994 -4.68349 0
M  V30 2152 H 209.974 -0.035939 -4.60986 0
M  V30 2153 H 213.518 -3.06441 -6.26689 0
M  V30 2154 H 209.415 -1.83218 -6.18952 0
M  V30 2155 H 210.183 -3.52918 -7.38506 0
M  V30 2156 N 212.846 1.57033 -0.133567 0
M  V30 2157 C 214.076 1.99754 0.527429 0
M  V30 2158 C 214.484 1.01245 1.59832 0
M  V30 2159 O 213.827 -0.000645496 1.837 0
M  V30 2160 C 213.889 3.38903 1.19939 0
M  V30 2161 C 213.553 4.56174 0.274709 0
M  V30 2162 C 214.55 5.17563 -0.492398 0
M  V30 2163 C 212.235 5.01972 0.18153 0
M  V30 2164 C 214.229 6.2315 -1.34027 0
M  V30 2165 C 211.916 6.07416 -0.669958 0
M  V30 2166 C 212.914 6.67874 -1.42947 0
M  V30 2167 O 212.602 7.71279 -2.2668 0
M  V30 2168 H 212.334 0.660702 0.142999 0
M  V30 2169 H 214.888 2.04207 -0.221099 0
M  V30 2170 H 213.118 3.31248 1.99528 0
M  V30 2171 H 214.807 3.65818 1.75875 0
M  V30 2172 H 215.573 4.83087 -0.430367 0
M  V30 2173 H 211.452 4.54652 0.762422 0
M  V30 2174 H 214.996 6.70268 -1.93357 0
M  V30 2175 H 210.893 6.41321 -0.73333 0
M  V30 2176 H 211.661 7.88441 -2.1978 0
M  V30 2177 N 214.325 -0.140222 1.56975 0
M  V30 2178 C 215.573 -0.850005 1.83356 0
M  V30 2179 C 215.894 -1.81399 0.71551 0
M  V30 2180 O 215.164 -1.94136 -0.262294 0
M  V30 2181 H 213.744 -0.316886 0.676456 0
M  V30 2182 H 216.406 -0.132608 1.94448 0
M  V30 2183 H 215.502 -1.40814 2.78528 0
M  V30 2184 N 215.803 -1.52179 -0.40978 0
M  V30 2185 C 217.049 -1.66453 -1.15851 0
M  V30 2186 C 217.382 -0.392972 -1.90182 0
M  V30 2187 O 216.657 0.608579 -1.84734 0
M  V30 2188 C 216.94 -2.88612 -2.15349 0
M  V30 2189 C 216.793 -4.25815 -1.44918 0
M  V30 2190 C 218.112 -3.06294 -3.16026 0
M  V30 2191 H 215.231 -0.60575 -0.419805 0
M  V30 2192 H 217.873 -1.84732 -0.444314 0
M  V30 2193 H 216.023 -2.73158 -2.76255 0
M  V30 2194 H 217.695 -4.52995 -0.871365 0
M  V30 2195 H 215.938 -4.27247 -0.751159 0
M  V30 2196 H 216.609 -5.07337 -2.17516 0
M  V30 2197 H 219.085 -3.20641 -2.65195 0
M  V30 2198 H 217.961 -3.93283 -3.8291 0
M  V30 2199 H 218.222 -2.19579 -3.83715 0
M  V30 2200 N 217.281 0.66697 -1.42791 0
M  V30 2201 C 218.529 1.42417 -1.43394 0
M  V30 2202 C 218.85 1.94925 -0.0542373 0
M  V30 2203 O 218.12 1.73564 0.908415 0
M  V30 2204 H 216.7 0.528515 -0.527902 0
M  V30 2205 H 219.362 0.787562 -1.78279 0
M  V30 2206 H 218.458 2.27333 -2.13837 0
M  V30 2207 N 218.759 1.29093 0.90403 0
M  V30 2208 C 219.689 1.16401 2.02418 0
M  V30 2209 C 220.67 0.0593085 1.69997 0
M  V30 2210 O 221.855 0.238021 1.92736 0
M  V30 2211 C 218.985 0.835233 3.37107 0
M  V30 2212 C 217.939 1.89578 3.83724 0
M  V30 2213 C 217.265 1.42041 5.15489 0
M  V30 2214 C 218.565 3.30394 4.04521 0
M  V30 2215 H 220.259 2.10109 2.13295 0
M  V30 2216 H 217.805 1.01157 1.02486 0
M  V30 2217 H 219.758 0.733169 4.14973 0
M  V30 2218 H 218.482 -0.137543 3.2631 0
M  V30 2219 H 217.141 1.98715 3.08071 0
M  V30 2220 H 216.789 0.436426 5.01103 0
M  V30 2221 H 216.489 2.12964 5.4765 0
M  V30 2222 H 218.013 1.33176 5.959 0
M  V30 2223 H 219.427 3.24123 4.72882 0
M  V30 2224 H 217.824 3.99237 4.48029 0
M  V30 2225 H 218.894 3.73692 3.09002 0
M  V30 2226 N 220.237 -1.11381 1.11499 0
M  V30 2227 C 221.147 -2.21019 0.786628 0
M  V30 2228 C 222.163 -1.72597 -0.220507 0
M  V30 2229 O 223.339 -2.01321 -0.0565251 0
M  V30 2230 C 220.404 -3.459 0.235333 0
M  V30 2231 C 219.465 -4.09107 1.30115 0
M  V30 2232 C 218.698 -5.28027 0.776068 0
M  V30 2233 O 218.921 -5.6904 -0.393661 0
M  V30 2234 O 217.855 -5.81835 1.54114 0
M  V30 2235 H 221.681 -2.51521 1.70209 0
M  V30 2236 H 219.266 -1.19928 0.890928 0
M  V30 2237 H 221.148 -4.21346 -0.067715 0
M  V30 2238 H 219.823 -3.17049 -0.652828 0
M  V30 2239 H 218.73 -3.35391 1.65722 0
M  V30 2240 H 220.063 -4.42139 2.16273 0
M  V30 2241 N 221.715 -0.905404 -1.28997 0
M  V30 2242 C 222.662 -0.385892 -2.27551 0
M  V30 2243 C 223.632 0.535113 -1.57244 0
M  V30 2244 O 224.817 0.459119 -1.85194 0
M  V30 2245 C 221.957 0.375461 -3.43051 0
M  V30 2246 C 221.07 -0.577092 -4.28128 0
M  V30 2247 C 220.205 0.201879 -5.30816 0
M  V30 2248 C 219.244 -0.744829 -6.07551 0
M  V30 2249 N 218.381 9.42587e-05 -7.021 0
M  V30 2250 H 223.221 -1.23139 -2.71368 0
M  V30 2251 H 220.758 -0.618542 -1.33463 0
M  V30 2252 H 222.716 0.832992 -4.088 0
M  V30 2253 H 221.346 1.18537 -3.00248 0
M  V30 2254 H 220.398 -1.15315 -3.62501 0
M  V30 2255 H 221.71 -1.30152 -4.8152 0
M  V30 2256 H 220.864 0.720351 -6.02408 0
M  V30 2257 H 219.603 0.959413 -4.7817 0
M  V30 2258 H 218.608 -1.27475 -5.34818 0
M  V30 2259 H 219.833 -1.50178 -6.62286 0
M  V30 2260 H 217.779 0.739791 -6.51815 0
M  V30 2261 H 217.696 -0.664321 -7.53076 0
M  V30 2262 H 218.964 0.498644 -7.77903 0
M  V30 2263 N 223.193 1.4272 -0.668489 0
M  V30 2264 C 224.125 2.2914 0.052613 0
M  V30 2265 C 225.138 1.43339 0.771857 0
M  V30 2266 O 226.327 1.67123 0.627067 0
M  V30 2267 C 223.427 3.20618 1.09804 0
M  V30 2268 C 222.6 4.35039 0.45389 0
M  V30 2269 C 221.659 5.07282 1.39825 0
M  V30 2270 O 220.685 5.62024 0.900978 0
M  V30 2271 N 221.887 5.12206 2.73176 0
M  V30 2272 H 224.652 2.91668 -0.689209 0
M  V30 2273 H 222.213 1.53577 -0.512422 0
M  V30 2274 H 224.205 3.65815 1.73094 0
M  V30 2275 H 222.775 2.59585 1.74167 0
M  V30 2276 H 221.995 3.92567 -0.358396 0
M  V30 2277 H 223.283 5.088 0.00486972 0
M  V30 2278 H 222.681 4.6913 3.16122 0
M  V30 2279 H 221.238 5.61069 3.31729 0
M  V30 2280 N 224.671 0.411399 1.52136 0
M  V30 2281 C 225.601 -0.404015 2.29978 0
M  V30 2282 C 226.582 -1.04412 1.34284 0
M  V30 2283 O 227.767 -1.0527 1.63192 0
M  V30 2284 C 224.897 -1.5197 3.12286 0
M  V30 2285 C 223.851 -1.00448 4.16046 0
M  V30 2286 C 223.177 -2.21393 4.86712 0
M  V30 2287 C 224.477 -0.0569336 5.22269 0
M  V30 2288 H 226.171 0.245529 2.98392 0
M  V30 2289 H 223.717 0.119525 1.43503 0
M  V30 2290 H 225.67 -2.09715 3.6551 0
M  V30 2291 H 224.394 -2.19716 2.41646 0
M  V30 2292 H 223.053 -0.449421 3.63835 0
M  V30 2293 H 222.701 -2.87699 4.12599 0
M  V30 2294 H 222.401 -1.87571 5.56858 0
M  V30 2295 H 223.925 -2.7974 5.4275 0
M  V30 2296 H 225.339 -0.54325 5.7072 0
M  V30 2297 H 223.736 0.192594 5.99791 0
M  V30 2298 H 224.806 0.887663 4.76706 0
M  V30 2299 N 226.149 -1.5696 0.141893 0
M  V30 2300 C 227.096 -2.16501 -0.799737 0
M  V30 2301 C 228.066 -1.09643 -1.24771 0
M  V30 2302 O 229.251 -1.3766 -1.32115 0
M  V30 2303 C 226.391 -2.78679 -2.03549 0
M  V30 2304 C 225.504 -3.99914 -1.6338 0
M  V30 2305 C 224.639 -4.50106 -2.82096 0
M  V30 2306 C 223.678 -5.63819 -2.38275 0
M  V30 2307 N 222.815 -6.08651 -3.49983 0
M  V30 2308 H 227.655 -2.96632 -0.285179 0
M  V30 2309 H 225.192 -1.46533 -0.129053 0
M  V30 2310 H 227.15 -3.1287 -2.75986 0
M  V30 2311 H 225.78 -2.012 -2.52425 0
M  V30 2312 H 224.832 -3.71735 -0.807279 0
M  V30 2313 H 226.144 -4.82311 -1.27192 0
M  V30 2314 H 225.298 -4.86325 -3.62729 0
M  V30 2315 H 224.037 -3.66706 -3.21525 0
M  V30 2316 H 223.042 -5.2718 -1.56081 0
M  V30 2317 H 224.267 -6.49 -1.99938 0
M  V30 2318 H 222.213 -5.28188 -3.89042 0
M  V30 2319 H 222.13 -6.85961 -3.17794 0
M  V30 2320 H 223.398 -6.49515 -4.30988 0
M  V30 2321 N 227.627 0.131896 -1.57047 0
M  V30 2322 C 228.574 1.16236 -1.99393 0
M  V30 2323 C 229.544 1.41863 -0.863943 0
M  V30 2324 O 230.729 1.53946 -1.12718 0
M  V30 2325 C 227.869 2.48708 -2.39245 0
M  V30 2326 C 226.982 2.30127 -3.65603 0
M  V30 2327 C 226.117 3.55738 -3.94492 0
M  V30 2328 C 225.156 3.32259 -5.14073 0
M  V30 2329 N 224.293 4.50039 -5.38896 0
M  V30 2330 H 229.133 0.794251 -2.87221 0
M  V30 2331 H 226.67 0.380707 -1.42088 0
M  V30 2332 H 228.628 3.25969 -2.60384 0
M  V30 2333 H 227.258 2.83437 -1.54478 0
M  V30 2334 H 226.31 1.43845 -3.52154 0
M  V30 2335 H 227.622 2.08746 -4.5302 0
M  V30 2336 H 226.776 4.41423 -4.1621 0
M  V30 2337 H 225.515 3.80138 -3.05526 0
M  V30 2338 H 224.52 2.44963 -4.92212 0
M  V30 2339 H 225.745 3.09242 -6.04604 0
M  V30 2340 H 223.691 4.74584 -4.52886 0
M  V30 2341 H 223.608 4.31716 -6.2061 0
M  V30 2342 H 224.876 5.36895 -5.65123 0
M  V30 2343 N 229.106 1.52395 0.401703 0
M  V30 2344 C 230.352 1.67065 1.14966 0
M  V30 2345 C 230.685 0.403052 1.89971 0
M  V30 2346 O 229.96 -0.598774 1.85054 0
M  V30 2347 C 230.243 2.8975 2.13815 0
M  V30 2348 C 230.096 4.26578 1.42658 0
M  V30 2349 C 231.415 3.07965 3.14397 0
M  V30 2350 H 228.534 0.607968 0.416587 0
M  V30 2351 H 231.176 1.84965 0.434511 0
M  V30 2352 H 229.326 2.74619 2.74803 0
M  V30 2353 H 230.998 4.53451 0.847329 0
M  V30 2354 H 229.241 4.27639 0.72849 0
M  V30 2355 H 229.912 5.08483 2.14823 0
M  V30 2356 H 232.388 3.22043 2.63491 0
M  V30 2357 H 231.264 3.95308 3.80819 0
M  V30 2358 H 231.525 2.21611 3.82545 0
M  V30 2359 N 230.584 -0.659388 1.43143 0
M  V30 2360 C 231.995 -1.24041 1.39537 0
M  V30 2361 C 232.346 -1.95963 0.0963364 0
M  V30 2362 O 231.471 -2.00892 -0.804438 0
M  V30 2363 C 232.066 -2.25601 2.52764 0
M  V30 2364 C 230.625 -2.79195 2.52443 0
M  V30 2365 C 229.772 -1.53743 2.30778 0
M  V30 2366 H 232.723 -0.451792 1.52133 0
M  V30 2367 H 232.744 -3.07651 2.23899 0
M  V30 2368 H 232.256 -1.73226 3.47296 0
M  V30 2369 H 230.357 -3.35649 1.61773 0
M  V30 2370 H 230.47 -3.2716 3.50004 0
M  V30 2371 H 228.834 -1.80869 1.79328 0
M  V30 2372 H 229.617 -1.03312 3.27386 0
M  V30 2373 N 232.062 -1.29571 -0.897171 0
M  V30 2374 C 232.972 -1.16808 -2.03453 0
M  V30 2375 C 233.988 -0.0907471 -1.73763 0
M  V30 2376 O 235.164 -0.303312 -1.99103 0
M  V30 2377 C 232.229 -0.848264 -3.36163 0
M  V30 2378 C 231.29 -2.0097 -3.79354 0
M  V30 2379 C 230.523 -1.70505 -5.05731 0
M  V30 2380 O 230.746 -0.62718 -5.66941 0
M  V30 2381 O 229.68 -2.5538 -5.45036 0
M  V30 2382 H 233.506 -2.12325 -2.17144 0
M  V30 2383 H 231.091 -1.09047 -1.02123 0
M  V30 2384 H 232.973 -0.684581 -4.15802 0
M  V30 2385 H 231.648 0.0771071 -3.23608 0
M  V30 2386 H 230.555 -2.22863 -3.00471 0
M  V30 2387 H 231.888 -2.91636 -3.96496 0
M  V30 2388 N 233.54 1.10788 -1.12088 0
M  V30 2389 C 234.786 1.82942 -0.875226 0
M  V30 2390 C 235.119 1.84779 0.597538 0
M  V30 2391 O 234.394 1.30578 1.44152 0
M  V30 2392 C 234.677 3.29789 -1.44606 0
M  V30 2393 C 234.53 3.36307 -2.98693 0
M  V30 2394 C 235.849 4.26064 -1.10261 0
M  V30 2395 H 232.968 0.664195 -0.319397 0
M  V30 2396 H 235.61 1.29867 -1.38689 0
M  V30 2397 H 233.76 3.75118 -1.01089 0
M  V30 2398 H 235.432 2.99487 -3.50864 0
M  V30 2399 H 233.675 2.76318 -3.34411 0
M  V30 2400 H 234.346 4.39694 -3.33726 0
M  V30 2401 H 236.822 3.88951 -1.4784 0
M  V30 2402 H 235.698 5.27183 -1.52869 0
M  V30 2403 H 235.959 4.42098 -0.0142953 0
M  V30 2404 N 235.018 0.912232 1.28515 0
M  V30 2405 C 235.965 0.397954 2.27343 0
M  V30 2406 C 236.935 -0.526766 1.57526 0
M  V30 2407 O 238.12 -0.449292 1.85435 0
M  V30 2408 C 235.26 -0.357263 3.43246 0
M  V30 2409 C 234.373 0.599788 4.27816 0
M  V30 2410 C 233.508 -0.173725 5.30916 0
M  V30 2411 C 232.547 0.777039 6.07148 0
M  V30 2412 N 231.684 0.0371398 7.0209 0
M  V30 2413 H 236.524 1.24577 2.70711 0
M  V30 2414 H 234.061 0.625612 1.33133 0
M  V30 2415 H 236.019 -0.8113 4.09236 0
M  V30 2416 H 234.649 -1.16943 3.00872 0
M  V30 2417 H 233.701 1.17235 3.61884 0
M  V30 2418 H 235.013 1.32704 4.80823 0
M  V30 2419 H 234.167 -0.688394 6.02782 0
M  V30 2420 H 232.906 -0.934041 4.78672 0
M  V30 2421 H 231.911 1.3031 5.34134 0
M  V30 2422 H 233.136 1.53689 6.61481 0
M  V30 2423 H 231.082 -0.705213 6.52198 0
M  V30 2424 H 230.999 0.704249 7.52713 0
M  V30 2425 H 232.267 -0.457383 7.78157 0
M  V30 2426 N 236.496 -1.42363 0.676048 0
M  V30 2427 C 237.446 -2.27987 -0.0242903 0
M  V30 2428 C 238.43 -1.41153 -0.772319 0
M  V30 2429 O 239.622 -1.64592 -0.651025 0
M  V30 2430 C 236.751 -3.29195 -0.973953 0
M  V30 2431 C 235.837 -4.23512 -0.223202 0
M  V30 2432 N 236.228 -4.99865 0.772589 0
M  V30 2433 C 234.526 -4.43606 -0.461469 0
M  V30 2434 C 235.227 -5.68757 1.22027 0
M  V30 2435 N 234.203 -5.40811 0.549975 0
M  V30 2436 H 238.005 -2.84445 0.73949 0
M  V30 2437 H 235.519 -1.54341 0.50522 0
M  V30 2438 H 237.516 -3.89339 -1.49067 0
M  V30 2439 H 236.176 -2.74298 -1.73755 0
M  V30 2440 H 237.187 -5.04921 1.15217 0
M  V30 2441 H 233.864 -3.99749 -1.20446 0
M  V30 2442 H 235.254 -6.40007 2.0455 0
M  V30 2443 N 237.974 -0.419461 -1.51915 0
M  V30 2444 C 239.385 0.0477853 -1.86639 0
M  V30 2445 C 239.736 1.43531 -1.33766 0
M  V30 2446 O 238.861 2.05401 -0.68113 0
M  V30 2447 C 239.456 0.0934885 -3.38671 0
M  V30 2448 C 238.015 0.505097 -3.72996 0
M  V30 2449 C 237.162 -0.313792 -2.75519 0
M  V30 2450 H 240.113 -0.636088 -1.45395 0
M  V30 2451 H 240.134 0.906667 -3.6954 0
M  V30 2452 H 239.646 -0.916501 -3.77123 0
M  V30 2453 H 237.747 1.52135 -3.40126 0
M  V30 2454 H 237.86 0.242309 -4.78487 0
M  V30 2455 H 236.224 0.225363 -2.53701 0
M  V30 2456 H 237.007 -1.32232 -3.16812 0
M  V30 2457 N 239.452 1.56882 -0.150215 0
M  V30 2458 C 240.415 2.1573 0.774157 0
M  V30 2459 C 241.415 1.0999 1.17298 0
M  V30 2460 O 242.605 1.35613 1.09338 0
M  V30 2461 C 239.737 2.72302 2.05096 0
M  V30 2462 H 240.93 2.98752 0.262201 0
M  V30 2463 H 238.483 1.55985 0.099248 0
M  V30 2464 H 239.218 1.92956 2.6065 0
M  V30 2465 H 239.003 3.49665 1.77416 0
M  V30 2466 H 240.493 3.17632 2.71109 0
M  V30 2467 N 240.93 -0.123565 1.57115 0
M  V30 2468 C 241.86 -1.15309 2.03042 0
M  V30 2469 C 242.841 -1.43454 0.914061 0
M  V30 2470 O 244.026 -1.53973 1.18347 0
M  V30 2471 C 241.156 -2.48043 2.43089 0
M  V30 2472 C 240.11 -2.3437 3.58127 0
M  V30 2473 C 239.436 -3.72026 3.84059 0
M  V30 2474 C 240.736 -1.80804 4.90007 0
M  V30 2475 H 242.43 -0.771102 2.893 0
M  V30 2476 H 239.976 -0.369479 1.39179 0
M  V30 2477 H 241.929 -3.20311 2.73823 0
M  V30 2478 H 240.653 -2.88122 1.53796 0
M  V30 2479 H 239.312 -1.64551 3.27595 0
M  V30 2480 H 238.96 -4.09582 2.91979 0
M  V30 2481 H 238.66 -3.63732 4.6149 0
M  V30 2482 H 240.184 -4.45806 4.1724 0
M  V30 2483 H 241.598 -2.42886 5.19307 0
M  V30 2484 H 239.995 -1.83343 5.71407 0
M  V30 2485 H 241.065 -0.76528 4.78823 0
M  V30 2486 N 242.408 -1.52605 -0.393616 0
M  V30 2487 C 243.655 -1.67424 -1.1391 0
M  V30 2488 C 243.983 -0.411859 -1.90089 0
M  V30 2489 O 243.238 0.605626 -1.86093 0
M  V30 2490 C 243.537 -2.85721 -2.14705 0
M  V30 2491 C 243.203 -4.23342 -1.55218 0
M  V30 2492 C 241.865 -4.60771 -1.3872 0
M  V30 2493 C 244.217 -5.09041 -1.11924 0
M  V30 2494 C 241.545 -5.81563 -0.774689 0
M  V30 2495 C 243.897 -6.30452 -0.520853 0
M  V30 2496 C 242.561 -6.66617 -0.343134 0
M  V30 2497 H 241.831 -0.612648 -0.416826 0
M  V30 2498 H 244.478 -1.8674 -0.424315 0
M  V30 2499 H 242.783 -2.60803 -2.92385 0
M  V30 2500 H 244.48 -2.94382 -2.72288 0
M  V30 2501 H 241.07 -3.93855 -1.69045 0
M  V30 2502 H 245.254 -4.80695 -1.23473 0
M  V30 2503 H 240.51 -6.08196 -0.625154 0
M  V30 2504 H 244.684 -6.96175 -0.177065 0
M  V30 2505 H 242.311 -7.60083 0.133571 0
M  V30 2506 N 243.887 0.651787 -1.4349 0
M  V30 2507 C 244.837 1.75783 -1.45205 0
M  V30 2508 C 245.821 1.57679 -0.320328 0
M  V30 2509 O 247.013 1.67767 -0.564211 0
M  V30 2510 C 244.142 3.14377 -1.3792 0
M  V30 2511 C 243.228 3.38023 -2.56127 0
M  V30 2512 N 243.619 3.32135 -3.81471 0
M  V30 2513 C 241.917 3.68747 -2.50882 0
M  V30 2514 C 242.618 3.55902 -4.60118 0
M  V30 2515 N 241.594 3.77783 -3.90872 0
M  V30 2516 H 245.396 1.69657 -2.39987 0
M  V30 2517 H 242.91 0.853508 -1.38163 0
M  V30 2518 H 244.907 3.93666 -1.37231 0
M  V30 2519 H 243.567 3.21683 -0.441596 0
M  V30 2520 H 244.578 3.11515 -4.13738 0
M  V30 2521 H 241.255 3.8316 -1.65816 0
M  V30 2522 H 242.645 3.57116 -5.69138 0
M  V30 2523 N 245.365 1.30045 0.890287 0
M  V30 2524 C 246.298 1.10301 1.99772 0
M  V30 2525 C 247.276 0.0121631 1.62595 0
M  V30 2526 O 248.46 0.16469 1.87779 0
M  V30 2527 C 245.587 0.681125 3.31781 0
M  V30 2528 C 244.633 1.77206 3.87944 0
M  V30 2529 S 245.466 3.37335 4.15891 0
M  V30 2530 C 246.622 2.97036 5.50927 0
M  V30 2531 H 246.855 2.04057 2.16213 0
M  V30 2532 H 244.388 1.14299 1.03804 0
M  V30 2533 H 246.346 0.444439 4.08087 0
M  V30 2534 H 245.007 -0.236981 3.13205 0
M  V30 2535 H 244.2 1.42903 4.83316 0
M  V30 2536 H 243.802 1.96275 3.18358 0
M  V30 2537 H 246.094 2.44666 6.31779 0
M  V30 2538 H 247.037 3.91296 5.90164 0
M  V30 2539 H 247.445 2.35057 5.13233 0
M  V30 2540 N 246.843 -1.10192 1.12674 0
M  V30 2541 C 248.091 -1.81845 0.881861 0
M  V30 2542 C 248.412 -1.85737 -0.593867 0
M  V30 2543 O 247.682 -1.33724 -1.4316 0
M  V30 2544 H 246.262 -0.673432 0.323261 0
M  V30 2545 H 248.924 -1.33316 1.42172 0
M  V30 2546 H 248.02 -2.85288 1.2656 0
M  V30 2547 N 248.321 -0.919034 -1.28029 0
M  V30 2548 C 249.569 -0.553838 -1.94363 0
M  V30 2549 C 249.89 0.906357 -1.72656 0
M  V30 2550 O 249.16 1.64143 -1.0693 0
M  V30 2551 H 247.74 -0.201834 -0.719216 0
M  V30 2552 H 250.402 -1.16954 -1.55909 0
M  V30 2553 H 249.498 -0.752758 -3.02886 0
M  V30 2554 N 249.799 1.42003 -0.683588 0
M  V30 2555 C 250.731 2.29183 0.0283068 0
M  V30 2556 C 251.744 1.4415 0.756611 0
M  V30 2557 O 252.933 1.67779 0.609306 0
M  V30 2558 C 250.033 3.21765 1.06398 0
M  V30 2559 C 249.206 4.35496 0.407723 0
M  V30 2560 C 248.265 5.08737 1.34437 0
M  V30 2561 O 247.291 5.62948 0.841318 0
M  V30 2562 N 248.493 5.15075 2.67728 0
M  V30 2563 H 251.258 2.9092 -0.720105 0
M  V30 2564 H 248.819 1.53025 -0.528682 0
M  V30 2565 H 250.811 3.6763 1.69204 0
M  V30 2566 H 249.381 2.61418 1.71404 0
M  V30 2567 H 248.601 3.92165 -0.400012 0
M  V30 2568 H 249.889 5.08776 -0.0490956 0
M  V30 2569 H 249.287 4.72457 3.11129 0
M  V30 2570 H 247.844 5.64556 3.2576 0
M  V30 2571 N 251.277 0.427512 1.51691 0
M  V30 2572 C 252.554 -0.201684 1.94557 0
M  V30 2573 C 252.934 -1.60981 1.36559 0
M  V30 2574 O 252.282 -2.21814 0.548702 0
M  V30 2575 C 252.492 -0.189394 3.48486 0
M  V30 2576 C 253.84 -0.39978 4.22714 0
M  V30 2577 O 254.864 -0.267945 3.55191 0
M  V30 2578 O 253.723 -0.661249 5.42485 0
M  V30 2579 H 250.817 -0.135261 0.815864 0
M  V30 2580 H 253.363 0.484782 1.62628 0
M  V30 2581 H 252.135 0.795431 3.8313 0
M  V30 2582 H 251.758 -0.919187 3.86829 0
M  V30 2583 N 252.755 -1.56801 0.158532 0
M  V30 2584 C 253.705 -2.13923 -0.788738 0
M  V30 2585 C 254.689 -1.07006 -1.2016 0
M  V30 2586 O 255.881 -1.33159 -1.1661 0
M  V30 2587 C 253.01 -2.77348 -2.02319 0
M  V30 2588 C 252.096 -3.91404 -1.6329 0
M  V30 2589 N 252.487 -4.9677 -0.951463 0
M  V30 2590 C 250.785 -4.02326 -1.92482 0
M  V30 2591 C 251.486 -5.76698 -0.761221 0
M  V30 2592 N 250.462 -5.27859 -1.29869 0
M  V30 2593 H 254.264 -2.92757 -0.258995 0
M  V30 2594 H 251.778 -1.62344 -0.0426055 0
M  V30 2595 H 253.775 -3.16639 -2.71192 0
M  V30 2596 H 252.435 -1.99991 -2.558 0
M  V30 2597 H 253.446 -5.14284 -0.610928 0
M  V30 2598 H 250.123 -3.36059 -2.47732 0
M  V30 2599 H 251.513 -6.71529 -0.223284 0
M  V30 2600 N 254.233 0.115231 -1.57178 0
M  V30 2601 C 255.48 0.822351 -1.8505 0
M  V30 2602 C 255.808 1.79701 -0.744168 0
M  V30 2603 O 255.063 1.93909 0.26414 0
M  V30 2604 C 255.362 1.60324 -3.19423 0
M  V30 2605 C 255.028 0.772536 -4.44233 0
M  V30 2606 C 253.69 0.543468 -4.78121 0
M  V30 2607 C 256.042 0.193746 -5.2084 0
M  V30 2608 C 253.37 -0.274583 -5.86057 0
M  V30 2609 C 255.722 -0.611517 -6.29637 0
M  V30 2610 C 254.386 -0.850867 -6.62055 0
M  V30 2611 H 253.656 0.30092 -0.677147 0
M  V30 2612 H 256.303 0.0845802 -1.91313 0
M  V30 2613 H 254.608 2.41203 -3.08753 0
M  V30 2614 H 256.305 2.1544 -3.38211 0
M  V30 2615 H 252.895 0.96117 -4.17683 0
M  V30 2616 H 257.079 0.357926 -4.95008 0
M  V30 2617 H 252.335 -0.469206 -6.09597 0
M  V30 2618 H 256.509 -1.06697 -6.88178 0
M  V30 2619 H 254.136 -1.48657 -7.45523 0
M  V30 2620 N 255.711 1.52812 0.385517 0
M  V30 2621 C 256.957 1.68275 1.13188 0
M  V30 2622 C 257.29 0.423179 1.89533 0
M  V30 2623 O 256.565 -0.579113 1.85679 0
M  V30 2624 C 256.848 2.92001 2.1073 0
M  V30 2625 C 256.701 4.28067 1.38125 0
M  V30 2626 C 258.02 3.11283 3.11113 0
M  V30 2627 H 255.139 0.612352 0.410115 0
M  V30 2628 H 257.781 1.85415 0.414869 0
M  V30 2629 H 255.931 2.77519 2.71874 0
M  V30 2630 H 257.603 4.54324 0.799187 0
M  V30 2631 H 255.846 4.28388 0.683092 0
M  V30 2632 H 256.517 5.10733 2.09417 0
M  V30 2633 H 258.993 3.2482 2.6006 0
M  V30 2634 H 257.869 3.99325 3.76605 0
M  V30 2635 H 258.13 2.25656 3.80173 0
M  V30 2636 N 257.189 -0.644168 1.43834 0
M  V30 2637 C 258.6 -1.22554 1.40845 0
M  V30 2638 C 258.951 -1.9585 0.117115 0
M  V30 2639 O 258.076 -2.01734 -0.783086 0
M  V30 2640 C 258.671 -2.22907 2.55143 0
M  V30 2641 C 257.23 -2.76501 2.5539 0
M  V30 2642 C 256.377 -1.51287 2.32396 0
M  V30 2643 H 259.328 -0.43563 1.52604 0
M  V30 2644 H 259.349 -3.05259 2.2715 0
M  V30 2645 H 258.861 -1.69533 3.49114 0
M  V30 2646 H 256.962 -3.33914 1.65324 0
M  V30 2647 H 257.075 -3.23429 3.53455 0
M  V30 2648 H 255.439 -1.78957 1.81236 0
M  V30 2649 H 256.222 -0.998336 3.28463 0
M  V30 2650 N 258.668 -1.30515 -0.883378 0
M  V30 2651 C 259.631 -1.1701 -1.97082 0
M  V30 2652 C 260.631 -0.10089 -1.60483 0
M  V30 2653 O 261.821 -0.349127 -1.70666 0
M  V30 2654 C 258.953 -0.793045 -3.31547 0
M  V30 2655 H 260.146 -2.13622 -2.10489 0
M  V30 2656 H 257.699 -1.13935 -1.06998 0
M  V30 2657 H 258.434 0.172499 -3.23841 0
M  V30 2658 H 258.219 -1.56576 -3.5948 0
M  V30 2659 H 259.709 -0.722073 -4.1131 0
M  V30 2660 N 260.146 1.09593 -1.13257 0
M  V30 2661 C 261.557 1.63229 -0.906274 0
M  V30 2662 C 261.908 1.8811 0.557578 0
M  V30 2663 O 261.033 1.62953 1.42391 0
M  V30 2664 C 261.628 2.96535 -1.63867 0
M  V30 2665 C 260.187 3.47003 -1.45828 0
M  V30 2666 C 259.334 2.2145 -1.66898 0
M  V30 2667 H 262.285 0.92978 -1.28611 0
M  V30 2668 H 262.306 3.64411 -1.09476 0
M  V30 2669 H 261.818 2.78394 -2.70404 0
M  V30 2670 H 259.919 3.70272 -0.415848 0
M  V30 2671 H 260.032 4.24551 -2.2202 0
M  V30 2672 H 258.396 2.30022 -1.09371 0
M  V30 2673 H 259.179 2.0583 -2.74752 0
M  V30 2674 N 261.624 0.925811 1.2754 0
M  V30 2675 C 262.849 0.580924 1.99098 0
M  V30 2676 C 263.274 -0.833555 1.68622 0
M  V30 2677 O 262.632 -1.55903 0.925422 0
M  V30 2678 C 262.68 0.811186 3.51358 0
M  V30 2679 O 261.784 -0.124129 4.12213 0
M  V30 2680 H 261.125 0.223873 0.625122 0
M  V30 2681 H 263.655 1.24455 1.62395 0
M  V30 2682 H 263.665 0.72601 4.01489 0
M  V30 2683 H 262.34 1.84227 3.72872 0
M  V30 2684 H 260.917 0.0108006 3.72898 0
M  V30 2685 N 263.102 -1.41638 0.69111 0
M  V30 2686 C 264.518 -1.55435 0.362224 0
M  V30 2687 C 264.718 -1.66754 -1.13117 0
M  V30 2688 O 263.774 -1.64348 -1.91692 0
M  V30 2689 C 265.087 -2.79588 1.10684 0
M  V30 2690 C 266.635 -2.9338 1.09075 0
M  V30 2691 C 267.11 -4.20414 1.81703 0
M  V30 2692 N 268.601 -4.27362 1.7865 0
M  V30 2693 C 269.336 -5.24507 2.31689 0
M  V30 2694 N 268.832 -6.27708 2.93179 0
M  V30 2695 N 270.625 -5.16416 2.2197 0
M  V30 2696 H 262.776 -1.32536 1.65976 0
M  V30 2697 H 265.039 -0.639115 0.700168 0
M  V30 2698 H 264.745 -2.77419 2.16175 0
M  V30 2699 H 264.619 -3.70973 0.682545 0
M  V30 2700 H 267.006 -2.95067 0.0441238 0
M  V30 2701 H 267.087 -2.0318 1.55407 0
M  V30 2702 H 266.731 -4.19488 2.86343 0
M  V30 2703 H 266.661 -5.09578 1.32808 0
M  V30 2704 H 269.152 -3.53415 1.33815 0
M  V30 2705 H 269.465 -6.98217 3.31229 0
M  V30 2706 H 267.81 -6.28223 2.97255 0
M  V30 2707 H 271.001 -4.34716 1.73607 0
M  V30 2708 H 271.174 -5.91958 2.63609 0
M  V30 2709 N 264.58 -0.43555 -1.51462 0
M  V30 2710 C 265.512 0.41257 -2.25456 0
M  V30 2711 C 266.525 0.987822 -1.29406 0
M  V30 2712 O 267.714 0.882266 -1.55172 0
M  V30 2713 C 264.814 1.58894 -2.99342 0
M  V30 2714 C 263.987 1.13288 -4.22474 0
M  V30 2715 C 263.046 2.17917 -4.78956 0
M  V30 2716 O 262.072 1.77425 -5.40841 0
M  V30 2717 N 263.274 3.50382 -4.62832 0
M  V30 2718 H 266.039 -0.221603 -2.9888 0
M  V30 2719 H 263.6 -0.264342 -1.59727 0
M  V30 2720 H 265.592 2.28508 -3.34015 0
M  V30 2721 H 264.162 2.12849 -2.28941 0
M  V30 2722 H 263.382 0.263881 -3.93316 0
M  V30 2723 H 264.67 0.805542 -5.02383 0
M  V30 2724 H 264.068 3.86013 -4.13534 0
M  V30 2725 H 262.625 4.15895 -5.01871 0
M  V30 2726 N 266.058 1.56714 -0.166846 0
M  V30 2727 C 266.988 2.20754 0.760913 0
M  V30 2728 C 267.969 1.16178 1.24244 0
M  V30 2729 O 269.154 1.44592 1.29641 0
M  V30 2730 C 266.284 2.84478 1.99223 0
M  V30 2731 C 265.238 3.95053 1.64672 0
M  V30 2732 C 264.564 4.45805 2.95232 0
M  V30 2733 C 265.864 5.14865 0.878155 0
M  V30 2734 H 267.558 2.98537 0.22713 0
M  V30 2735 H 265.104 1.43596 0.107805 0
M  V30 2736 H 267.057 3.27951 2.64624 0
M  V30 2737 H 265.781 2.04056 2.55007 0
M  V30 2738 H 264.44 3.52228 1.01641 0
M  V30 2739 H 264.088 3.62181 3.49047 0
M  V30 2740 H 263.788 5.204 2.7287 0
M  V30 2741 H 265.312 4.91962 3.6167 0
M  V30 2742 H 266.726 5.55059 1.43466 0
M  V30 2743 H 265.123 5.95348 0.753738 0
M  V30 2744 H 266.193 4.84735 -0.126377 0
M  V30 2745 N 267.536 -0.106894 1.57237 0
M  V30 2746 C 268.785 -0.811163 1.8467 0
M  V30 2747 C 269.098 -1.80469 0.754342 0
M  V30 2748 O 270.304 -2.55601 0.915439 0
M  V30 2749 C 268.76 -1.49337 3.27454 0
M  V30 2750 C 268.368 -0.540217 4.44731 0
M  V30 2751 C 270.112 -2.18206 3.64124 0
M  V30 2752 C 268.019 -1.22634 5.78545 0
M  V30 2753 H 266.949 -0.306679 0.688813 0
M  V30 2754 H 269.6 -0.0639887 1.83388 0
M  V30 2755 H 267.982 -2.2876 3.23241 0
M  V30 2756 H 269.156 0.221659 4.60267 0
M  V30 2757 H 267.471 0.042146 4.16379 0
M  V30 2758 H 270.068 -2.70253 4.61376 0
M  V30 2759 H 270.411 -2.96562 2.92158 0
M  V30 2760 H 270.944 -1.45658 3.70174 0
M  V30 2761 H 267.683 -0.483832 6.53712 0
M  V30 2762 H 267.203 -1.95993 5.66874 0
M  V30 2763 H 268.882 -1.75615 6.2271 0
M  V30 2764 N 269.014 -1.53014 -0.377408 0
M  V30 2765 C 270.242 -1.72515 -1.14219 0
M  V30 2766 C 270.657 -0.448735 -1.8339 0
M  V30 2767 O 270.014 0.577592 -1.73119 0
M  V30 2768 C 270.065 -2.8826 -2.18148 0
M  V30 2769 O 269.786 -4.10962 -1.51795 0
M  V30 2770 C 271.287 -3.19536 -3.07264 0
M  V30 2771 H 268.507 -0.577301 -0.342001 0
M  V30 2772 H 271.051 -1.99712 -0.439935 0
M  V30 2773 H 269.206 -2.63492 -2.83991 0
M  V30 2774 H 269.62 -4.75693 -2.20945 0
M  V30 2775 H 271.094 -4.03959 -3.76193 0
M  V30 2776 H 271.571 -2.34403 -3.71419 0
M  V30 2777 H 272.177 -3.46186 -2.47053 0
M  V30 2778 N 270.492 0.636531 -1.44174 0
M  V30 2779 C 271.402 1.77754 -1.53103 0
M  V30 2780 C 272.418 1.68928 -0.417034 0
M  V30 2781 O 273.594 1.89801 -0.6736 0
M  V30 2782 C 270.659 3.14115 -1.46741 0
M  V30 2783 C 269.72 3.34612 -2.68948 0
M  V30 2784 C 268.953 4.64467 -2.6288 0
M  V30 2785 O 269.176 5.44919 -1.68581 0
M  V30 2786 O 268.11 4.87049 -3.53648 0
M  V30 2787 H 271.936 1.73174 -2.49489 0
M  V30 2788 H 269.521 0.79709 -1.2636 0
M  V30 2789 H 271.403 3.95412 -1.45696 0
M  V30 2790 H 270.078 3.19249 -0.534975 0
M  V30 2791 H 268.985 2.53014 -2.75562 0
M  V30 2792 H 270.318 3.34336 -3.61221 0
M  V30 2793 N 271.97 1.30982 0.876444 0
M  V30 2794 C 273.218 1.20058 1.62575 0
M  V30 2795 C 273.539 -0.242947 1.93481 0
M  V30 2796 O 272.809 -1.1619 1.57724 0
M  V30 2797 H 271.389 0.44135 0.602677 0
M  V30 2798 H 274.051 1.64222 1.04962 0
M  V30 2799 H 273.147 1.76762 2.57219 0
M  V30 2800 N 273.449 -1.08991 1.13837 0
M  V30 2801 C 274.696 -1.81258 0.902882 0
M  V30 2802 C 275.024 -1.85936 -0.570803 0
M  V30 2803 O 274.279 -1.3267 -1.43865 0
M  V30 2804 C 274.578 -3.27042 1.44147 0
M  V30 2805 C 274.244 -3.4249 2.93276 0
M  V30 2806 C 272.906 -3.46414 3.33992 0
M  V30 2807 C 275.258 -3.4666 3.892 0
M  V30 2808 C 272.586 -3.52091 4.69307 0
M  V30 2809 C 274.938 -3.53872 5.24364 0
M  V30 2810 C 273.602 -3.56066 5.646 0
M  V30 2811 H 272.872 -0.663268 0.330388 0
M  V30 2812 H 275.519 -1.28368 1.42105 0
M  V30 2813 H 273.824 -3.82599 0.844097 0
M  V30 2814 H 275.521 -3.81499 1.23528 0
M  V30 2815 H 272.111 -3.40124 2.60794 0
M  V30 2816 H 276.295 -3.42865 3.58828 0
M  V30 2817 H 271.551 -3.52079 4.9985 0
M  V30 2818 H 275.725 -3.56043 5.98503 0
M  V30 2819 H 273.352 -3.60218 6.69438 0
M  V30 2820 N 274.927 -0.932562 -1.27047 0
M  V30 2821 C 276.175 -0.574422 -1.93765 0
M  V30 2822 C 276.496 0.887993 -1.73608 0
M  V30 2823 O 275.766 1.62999 -1.08665 0
M  V30 2824 H 274.346 -0.209451 -0.717035 0
M  V30 2825 H 277.008 -1.18601 -1.5466 0
M  V30 2826 H 276.104 -0.784841 -3.02071 0
M  V30 2827 N 276.405 1.4127 -0.698611 0
M  V30 2828 C 277.368 2.29158 -0.044132 0
M  V30 2829 C 278.368 1.44529 0.704841 0
M  V30 2830 O 279.558 1.65643 0.539276 0
M  V30 2831 C 276.69 3.27459 0.947809 0
M  V30 2832 H 277.883 2.88529 -0.817994 0
M  V30 2833 H 275.436 1.49307 -0.46228 0
M  V30 2834 H 276.171 2.73073 1.74933 0
M  V30 2835 H 275.956 3.8991 0.41385 0
M  V30 2836 H 277.446 3.93311 1.40344 0
M  V30 2837 N 277.883 0.443576 1.51229 0
M  V30 2838 C 278.831 -0.37904 2.29491 0
M  V30 2839 C 279.825 -1.0153 1.35603 0
M  V30 2840 O 281.031 -0.94955 1.52917 0
M  V30 2841 H 277.406 -0.141053 0.738653 0
M  V30 2842 H 279.377 0.301799 2.9687 0
M  V30 2843 C 278.126 -1.46426 3.15364 0
M  V30 2844 H 277.449 -0.984037 3.87501 0
M  V30 2845 H 278.889 -2.01297 3.7317 0
M  V30 2846 C 277.348 -2.45099 2.31146 0
M  V30 2847 O 277.878 -3.49773 1.9754 0
M  V30 2848 N 276.084 -2.16139 1.94249 0
M  V30 2849 H 275.631 -1.31044 2.21777 0
M  V30 2850 H 275.589 -2.82398 1.38198 0
M  V30 2851 N 279.361 -1.56624 0.175154 0
M  V30 2852 C 280.772 -1.83561 -0.340916 0
M  V30 2853 C 281.123 -1.09511 -1.62794 0
M  V30 2854 O 280.248 -0.349389 -2.13561 0
M  V30 2855 C 280.843 -3.32979 -0.625313 0
M  V30 2856 C 279.402 -3.60399 -1.08581 0
M  V30 2857 C 278.549 -2.77024 -0.123722 0
M  V30 2858 H 281.5 -1.53593 0.399344 0
M  V30 2859 H 281.521 -3.50666 -1.47694 0
M  V30 2860 H 281.033 -3.86847 0.311575 0
M  V30 2861 H 279.134 -3.11945 -2.03767 0
M  V30 2862 H 279.247 -4.68711 -0.992317 0
M  V30 2863 H 277.611 -2.46993 -0.621821 0
M  V30 2864 H 278.394 -3.33674 0.807256 0
M  V30 2865 N 280.839 0.0985539 -1.57292 0
M  V30 2866 C 281.769 1.12064 -2.04851 0
M  V30 2867 C 282.75 1.41981 -0.936767 0
M  V30 2868 O 283.935 1.52071 -1.20781 0
M  V30 2869 C 281.065 2.44144 -2.47004 0
M  V30 2870 C 280.019 2.28643 -3.6181 0
M  V30 2871 C 279.345 3.65869 -3.89929 0
M  V30 2872 C 280.645 1.72986 -4.92822 0
M  V30 2873 H 282.339 0.724979 -2.9049 0
M  V30 2874 H 279.885 0.34729 -1.39749 0
M  V30 2875 H 281.838 3.15914 -2.78884 0
M  V30 2876 H 280.562 2.85639 -1.5836 0
M  V30 2877 H 279.221 1.59318 -3.30172 0
M  V30 2878 H 278.869 4.04885 -2.98458 0
M  V30 2879 H 278.569 3.56344 -4.67218 0
M  V30 2880 H 280.093 4.39112 -4.2428 0
M  V30 2881 H 281.507 2.34593 -5.23105 0
M  V30 2882 H 279.904 1.74229 -5.74251 0
M  V30 2883 H 280.974 0.689007 -4.7998 0
M  V30 2884 N 282.317 1.53212 0.369288 0
M  V30 2885 C 283.247 1.82365 1.45826 0
M  V30 2886 C 284.228 0.676907 1.56051 0
M  V30 2887 O 285.413 0.926401 1.70679 0
M  V30 2888 C 282.543 2.01023 2.83208 0
M  V30 2889 C 281.497 3.1678 2.8781 0
M  V30 2890 C 280.823 3.20724 4.27832 0
M  V30 2891 C 282.123 4.55447 2.55667 0
M  V30 2892 H 283.817 2.73559 1.21678 0
M  V30 2893 H 281.363 1.3163 0.583911 0
M  V30 2894 H 283.316 2.20001 3.59413 0
M  V30 2895 H 282.04 1.06536 3.08736 0
M  V30 2896 H 280.699 2.97616 2.14056 0
M  V30 2897 H 280.347 2.23882 4.50429 0
M  V30 2898 H 280.047 3.98496 4.31827 0
M  V30 2899 H 281.571 3.41881 5.05915 0
M  V30 2900 H 282.985 4.74611 3.21586 0
M  V30 2901 H 281.382 5.35432 2.70984 0
M  V30 2902 H 282.452 4.60812 1.5093 0
M  V30 2903 N 283.795 -0.628877 1.44509 0
M  V30 2904 C 284.727 -1.754 1.47538 0
M  V30 2905 C 285.74 -1.58575 0.368506 0
M  V30 2906 O 286.929 -1.66847 0.634376 0
M  V30 2907 C 284.029 -3.1315 1.29577 0
M  V30 2908 C 283.202 -3.56413 2.53551 0
M  V30 2909 C 282.261 -4.7305 2.30457 0
M  V30 2910 O 281.287 -4.81247 3.03957 0
M  V30 2911 N 282.489 -5.64903 1.3366 0
M  V30 2912 H 285.254 -1.73272 2.44534 0
M  V30 2913 H 282.815 -0.813512 1.39977 0
M  V30 2914 H 284.807 -3.88902 1.11971 0
M  V30 2915 H 283.377 -3.09908 0.409371 0
M  V30 2916 H 282.597 -2.70847 2.86419 0
M  V30 2917 H 283.885 -3.82071 3.36005 0
M  V30 2918 H 283.283 -5.60975 0.729604 0
M  V30 2919 H 281.84 -6.40275 1.22032 0
M  V30 2920 N 285.273 -1.31445 -0.869486 0
M  V30 2921 C 286.519 -1.21337 -1.62496 0
M  V30 2922 C 286.852 0.227872 -1.92858 0
M  V30 2923 O 286.127 1.16094 -1.56053 0
M  V30 2924 C 286.41 -2.05814 -2.95487 0
M  V30 2925 C 286.263 -3.5824 -2.72 0
M  V30 2926 C 287.582 -1.9079 -3.96594 0
M  V30 2927 H 284.701 -0.442135 -0.589649 0
M  V30 2928 H 287.343 -1.6124 -1.00507 0
M  V30 2929 H 285.493 -1.71913 -3.48394 0
M  V30 2930 H 287.165 -4.0228 -2.25762 0
M  V30 2931 H 285.408 -3.81647 -2.06224 0
M  V30 2932 H 286.079 -4.12657 -3.66631 0
M  V30 2933 H 288.555 -2.20459 -3.52898 0
M  V30 2934 H 287.431 -2.52199 -4.87531 0
M  V30 2935 H 287.692 -0.871341 -4.33428 0
M  V30 2936 N 286.751 1.08385 -1.14413 0
M  V30 2937 C 287.701 2.13509 -0.79987 0
M  V30 2938 C 288.685 1.5951 0.211059 0
M  V30 2939 O 289.877 1.76995 0.0133694 0
M  V30 2940 C 287.006 3.42162 -0.279297 0
M  V30 2941 C 286.092 4.03042 -1.31976 0
M  V30 2942 N 286.483 4.38327 -2.52395 0
M  V30 2943 C 284.781 4.30379 -1.17004 0
M  V30 2944 C 285.482 4.86428 -3.19003 0
M  V30 2945 N 284.458 4.84547 -2.46405 0
M  V30 2946 H 288.26 2.38609 -1.7159 0
M  V30 2947 H 285.774 1.2572 -1.02802 0
M  V30 2948 H 287.771 4.16898 -0.0143688 0
M  V30 2949 H 286.431 3.18511 0.630923 0
M  V30 2950 H 287.442 4.29349 -2.89621 0
M  V30 2951 H 284.119 4.16281 -0.318854 0
M  V30 2952 H 285.509 5.23107 -4.21674 0
M  V30 2953 N 288.23 0.939286 1.26551 0
M  V30 2954 C 289.476 0.596234 1.94465 0
M  V30 2955 C 289.831 -0.855013 1.72358 0
M  V30 2956 O 289.124 -1.6034 1.04889 0
M  V30 2957 C 289.318 0.872106 3.46596 0
M  V30 2958 C 289.147 2.34862 3.83497 0
M  V30 2959 C 287.917 3.00344 4.06352 0
M  V30 2960 C 290.115 3.32697 3.92195 0
M  V30 2961 N 288.097 4.38027 4.30123 0
M  V30 2962 C 289.468 4.55631 4.20476 0
M  V30 2963 C 291.523 3.27747 3.74815 0
M  V30 2964 C 290.226 5.74233 4.33185 0
M  V30 2965 C 292.252 4.45672 3.88755 0
M  V30 2966 C 291.614 5.67388 4.17433 0
M  V30 2967 H 287.713 0.268515 0.734455 0
M  V30 2968 H 290.297 1.2083 1.5267 0
M  V30 2969 H 288.468 0.289102 3.87323 0
M  V30 2970 H 290.2 0.490513 4.01716 0
M  V30 2971 H 286.955 2.50969 4.01636 0
M  V30 2972 H 287.379 5.09288 4.46044 0
M  V30 2973 H 292.021 2.34703 3.51673 0
M  V30 2974 H 289.739 6.67731 4.55149 0
M  V30 2975 H 293.325 4.43372 3.76713 0
M  V30 2976 H 292.205 6.57115 4.27983 0
M  V30 2977 N 289.708 -1.40897 0.706093 0
M  V30 2978 C 290.938 -2.05075 0.250523 0
M  V30 2979 C 291.346 -1.53275 -1.10921 0
M  V30 2980 O 290.689 -0.680281 -1.7064 0
M  V30 2981 C 290.751 -3.59219 0.142178 0
M  V30 2982 C 290.415 -4.33864 1.43566 0
M  V30 2983 C 291.412 -4.62448 2.37566 0
M  V30 2984 C 289.097 -4.72946 1.69195 0
M  V30 2985 C 291.091 -5.29088 3.5545 0
M  V30 2986 C 288.778 -5.3932 2.87362 0
M  V30 2987 C 289.776 -5.6732 3.80312 0
M  V30 2988 O 289.464 -6.32325 4.96408 0
M  V30 2989 H 289.196 -0.666645 0.112074 0
M  V30 2990 H 291.75 -1.81467 0.962239 0
M  V30 2991 H 289.98 -3.81609 -0.6254 0
M  V30 2992 H 291.669 -4.0495 -0.277584 0
M  V30 2993 H 292.435 -4.32727 2.19027 0
M  V30 2994 H 288.314 -4.50527 0.977042 0
M  V30 2995 H 291.858 -5.50859 4.28018 0
M  V30 2996 H 287.755 -5.68461 3.05814 0
M  V30 2997 H 288.523 -6.50821 4.9636 0
M  V30 2998 N 291.186 -0.45159 -1.50991 0
M  V30 2999 C 292.096 0.358431 -2.31846 0
M  V30 3000 C 293.112 1.01438 -1.41373 0
M  V30 3001 O 294.288 1.00663 -1.74439 0
M  V30 3002 C 291.353 1.43704 -3.15515 0
M  V30 3003 C 290.414 0.799742 -4.21785 0
M  V30 3004 C 289.647 1.82696 -5.01456 0
M  V30 3005 O 289.87 3.05105 -4.81941 0
M  V30 3006 O 288.804 1.40958 -5.85162 0
M  V30 3007 H 292.63 -0.302032 -3.02194 0
M  V30 3008 H 290.215 -0.213825 -1.47862 0
M  V30 3009 H 292.097 2.06227 -3.67489 0
M  V30 3010 H 290.772 2.08133 -2.47916 0
M  V30 3011 H 289.679 0.136084 -3.73852 0
M  V30 3012 H 291.012 0.198718 -4.91799 0
M  V30 3013 N 292.664 1.56529 -0.183458 0
M  V30 3014 C 293.574 2.22144 0.754272 0
M  V30 3015 C 294.59 1.21684 1.24374 0
M  V30 3016 O 295.766 1.54385 1.29333 0
M  V30 3017 C 292.831 2.85884 1.96141 0
M  V30 3018 C 291.892 4.01579 1.51765 0
M  V30 3019 C 291.125 4.6227 2.66725 0
M  V30 3020 O 291.348 4.21865 3.83909 0
M  V30 3021 O 290.282 5.51936 2.40104 0
M  V30 3022 H 294.108 3.02861 0.225527 0
M  V30 3023 H 291.693 1.49331 0.0453032 0
M  V30 3024 H 293.575 3.26253 2.66715 0
M  V30 3025 H 292.25 2.08154 2.47899 0
M  V30 3026 H 291.157 3.65856 0.781049 0
M  V30 3027 H 292.49 4.80938 1.04686 0
M  V30 3028 N 294.142 -0.090211 1.57342 0
M  V30 3029 C 295.105 -1.09335 2.01441 0
M  V30 3030 C 296.105 -1.32666 0.908641 0
M  V30 3031 O 297.295 -1.28697 1.174 0
M  V30 3032 C 294.427 -2.44136 2.3793 0
M  V30 3033 H 295.62 -0.713662 2.91285 0
M  V30 3034 H 293.173 -0.335404 1.52659 0
M  V30 3035 H 293.908 -2.86972 1.51055 0
M  V30 3036 H 293.693 -2.28548 3.18603 0
M  V30 3037 H 295.183 -3.16277 2.72688 0
M  V30 3038 N 295.62 -1.53406 -0.361157 0
M  V30 3039 C 296.868 -1.69467 -1.10115 0
M  V30 3040 C 297.189 -0.451352 -1.89705 0
M  V30 3041 O 296.459 0.534636 -1.88463 0
M  V30 3042 H 295.039 -0.624749 -0.409508 0
M  V30 3043 H 297.701 -1.90609 -0.406699 0
M  V30 3044 H 296.797 -2.55774 -1.78847 0
M  V30 3045 N 297.098 0.621204 -1.44841 0
M  V30 3046 C 298.048 1.72663 -1.48901 0
M  V30 3047 C 299.032 1.56964 -0.353702 0
M  V30 3048 O 300.224 1.66532 -0.599669 0
M  V30 3049 C 297.353 3.11381 -1.44557 0
M  V30 3050 C 296.439 3.32514 -2.6324 0
M  V30 3051 N 296.83 3.23969 -3.8843 0
M  V30 3052 C 295.128 3.63343 -2.58647 0
M  V30 3053 C 295.829 3.46062 -4.67564 0
M  V30 3054 N 294.805 3.69407 -3.98797 0
M  V30 3055 H 298.607 1.64529 -2.43531 0
M  V30 3056 H 296.121 0.82401 -1.39942 0
M  V30 3057 H 298.118 3.90667 -1.4555 0
M  V30 3058 H 296.778 3.20674 -0.509731 0
M  V30 3059 H 297.789 3.02669 -4.20252 0
M  V30 3060 H 294.466 3.79556 -1.73906 0
M  V30 3061 H 295.856 3.44963 -5.76585 0
M  V30 3062 N 298.576 1.31904 0.862503 0
M  V30 3063 C 299.801 1.25135 1.65397 0
M  V30 3064 C 300.226 -0.179 1.87246 0
M  V30 3065 O 299.584 -1.1277 1.4196 0
M  V30 3066 C 299.632 2.00832 2.99498 0
M  V30 3067 O 298.736 1.35075 3.89652 0
M  V30 3068 H 298.077 0.431655 0.504549 0
M  V30 3069 H 300.607 1.74094 1.07483 0
M  V30 3070 H 300.617 2.10709 3.49379 0
M  V30 3071 H 299.292 3.04847 2.82916 0
M  V30 3072 H 297.869 1.33696 3.48109 0
M  V30 3073 N 300.054 -1.07777 1.14986 0
M  V30 3074 C 301.301 -1.8029 0.922056 0
M  V30 3075 C 301.629 -1.86531 -0.55105 0
M  V30 3076 O 300.884 -1.34189 -1.42449 0
M  V30 3077 C 301.183 -3.25495 1.47608 0
M  V30 3078 C 300.849 -3.39361 2.96893 0
M  V30 3079 C 299.511 -3.42852 3.37647 0
M  V30 3080 C 301.863 -3.42512 3.92854 0
M  V30 3081 C 299.191 -3.47094 4.73015 0
M  V30 3082 C 301.543 -3.4829 5.28088 0
M  V30 3083 C 300.207 -3.50058 5.68345 0
M  V30 3084 H 299.477 -0.659727 0.337404 0
M  V30 3085 H 302.124 -1.26854 1.43459 0
M  V30 3086 H 300.429 -3.81683 0.88463 0
M  V30 3087 H 302.126 -3.80168 1.27568 0
M  V30 3088 H 298.716 -3.37339 2.64387 0
M  V30 3089 H 302.9 -3.3904 3.62444 0
M  V30 3090 H 298.156 -3.46758 5.03556 0
M  V30 3091 H 302.33 -3.49675 6.02246 0
M  V30 3092 H 299.957 -3.53097 6.73221 0
M  V30 3093 N 301.532 -0.945985 -1.26051 0
M  V30 3094 C 302.495 -0.463897 -2.24456 0
M  V30 3095 C 303.495 0.427655 -1.55009 0
M  V30 3096 O 304.685 0.226157 -1.72726 0
M  V30 3097 C 301.817 0.330812 -3.39291 0
M  V30 3098 H 303.01 -1.33357 -2.68619 0
M  V30 3099 H 300.563 -0.728416 -1.38289 0
M  V30 3100 H 301.298 1.21852 -3.00537 0
M  V30 3101 H 301.083 -0.308679 -3.90883 0
M  V30 3102 H 302.573 0.657865 -4.12386 0
M  V30 3103 N 303.011 1.40521 -0.713556 0
M  V30 3104 C 304.427 1.54839 -0.386907 0
M  V30 3105 C 304.627 1.68532 1.1045 0
M  V30 3106 O 303.683 1.67377 1.89053 0
M  V30 3107 C 304.996 2.77792 -1.15118 0
M  V30 3108 C 306.544 2.91607 -1.13729 0
M  V30 3109 C 307.019 4.1747 -1.88368 0
M  V30 3110 N 308.51 4.24466 -1.85427 0
M  V30 3111 C 309.245 5.20755 -2.40004 0
M  V30 3112 N 308.741 6.22965 -3.03129 0
M  V30 3113 N 310.534 5.1282 -2.30158 0
M  V30 3114 H 302.685 1.29879 -1.68063 0
M  V30 3115 H 304.948 0.627896 -0.710247 0
M  V30 3116 H 304.654 2.73944 -2.20561 0
M  V30 3117 H 304.528 3.6984 -0.741477 0
M  V30 3118 H 306.915 2.94959 -0.0910608 0
M  V30 3119 H 306.996 2.00682 -1.5862 0
M  V30 3120 H 306.64 4.1488 -2.9298 0
M  V30 3121 H 306.57 5.074 -1.40898 0
M  V30 3122 H 309.061 3.51241 -1.3942 0
M  V30 3123 H 309.374 6.92859 -3.42295 0
M  V30 3124 H 307.719 6.23415 -3.07212 0
M  V30 3125 H 310.91 4.31899 -1.80501 0
M  V30 3126 H 311.083 5.87689 -2.72993 0
M  V30 3127 N 304.489 0.459591 1.5075 0
M  V30 3128 C 305.717 -0.0973749 2.06671 0
M  V30 3129 C 306.132 -1.34524 1.32472 0
M  V30 3130 O 305.489 -1.7827 0.390634 0
M  V30 3131 C 305.54 -0.39714 3.59312 0
M  V30 3132 O 305.261 0.801214 4.30711 0
M  V30 3133 C 306.762 -1.00234 4.31819 0
M  V30 3134 H 303.982 0.00195854 0.670997 0
M  V30 3135 H 306.526 0.645072 1.94059 0
M  V30 3136 H 304.681 -1.08951 3.71764 0
M  V30 3137 H 305.095 0.538857 5.21725 0
M  V30 3138 H 306.569 -1.16193 5.39632 0
M  V30 3139 H 307.046 -1.98939 3.91561 0
M  V30 3140 H 307.652 -0.348699 4.23868 0
M  V30 3141 N 305.967 -1.56429 0.191757 0
M  V30 3142 C 307.192 -2.02309 -0.456706 0
M  V30 3143 C 307.617 -1.07103 -1.5463 0
M  V30 3144 O 306.975 -0.0539677 -1.8122 0
M  V30 3145 C 307.023 -3.46654 -0.993159 0
M  V30 3146 O 306.127 -3.54559 -2.10622 0
M  V30 3147 H 305.468 -0.655303 -0.107114 0
M  V30 3148 H 307.998 -2.02364 0.301653 0
M  V30 3149 H 308.008 -3.86377 -1.31061 0
M  V30 3150 H 306.683 -4.1544 -0.195504 0
M  V30 3151 H 305.26 -3.26708 -1.79767 0
M  V30 3152 N 307.445 0.0818655 -1.57387 0
M  V30 3153 C 308.67 0.799946 -1.91352 0
M  V30 3154 C 309.095 1.70833 -0.787258 0
M  V30 3155 O 308.453 1.79419 0.26048 0
M  V30 3156 C 308.501 1.57812 -3.24234 0
M  V30 3157 O 307.605 2.68806 -3.12757 0
M  V30 3158 H 306.946 0.21891 -0.626877 0
M  V30 3159 H 309.476 0.0531256 -2.04531 0
M  V30 3160 H 309.486 1.95952 -3.57864 0
M  V30 3161 H 308.161 0.911548 -4.05788 0
M  V30 3162 H 306.738 2.33597 -2.90666 0
M  V30 3163 N 308.923 1.53595 0.353017 0
M  V30 3164 C 310.148 1.7462 1.11904 0
M  V30 3165 C 310.573 0.479721 1.8188 0
M  V30 3166 O 309.931 -0.567066 1.72204 0
M  V30 3167 C 309.979 2.92029 2.11545 0
M  V30 3168 O 309.083 2.61516 3.18878 0
M  V30 3169 H 308.424 0.579531 0.324099 0
M  V30 3170 H 310.954 2.00525 0.406301 0
M  V30 3171 H 310.964 3.18551 2.5493 0
M  V30 3172 H 309.639 3.83888 1.60008 0
M  V30 3173 H 308.216 2.45852 2.80377 0
M  V30 3174 N 310.401 -0.613514 1.45168 0
M  V30 3175 C 311.649 -1.36997 1.48581 0
M  V30 3176 C 311.97 -1.94589 0.126545 0
M  V30 3177 O 311.24 -1.76816 -0.843372 0
M  V30 3178 H 309.82 -0.508558 0.547154 0
M  V30 3179 H 312.482 -0.720853 1.81079 0
M  V30 3180 H 311.578 -2.1924 2.22127 0
M  V30 3181 N 311.879 -1.3236 -0.855495 0
M  V30 3182 C 313.109 -1.25688 -1.6397 0
M  V30 3183 C 313.517 0.177592 -1.88365 0
M  V30 3184 O 312.86 1.12485 -1.45234 0
M  V30 3185 C 312.922 -1.94602 -3.02275 0
M  V30 3186 C 312.586 -3.43937 -3.00926 0
M  V30 3187 C 313.583 -4.39435 -2.77835 0
M  V30 3188 C 311.268 -3.85858 -3.21588 0
M  V30 3189 C 313.262 -5.74829 -2.75409 0
M  V30 3190 C 310.949 -5.21361 -3.18789 0
M  V30 3191 C 311.947 -6.15658 -2.95727 0
M  V30 3192 O 311.635 -7.48681 -2.928 0
M  V30 3193 H 311.367 -0.434972 -0.51747 0
M  V30 3194 H 313.921 -1.75023 -1.075 0
M  V30 3195 H 312.151 -1.39836 -3.60531 0
M  V30 3196 H 313.84 -1.81651 -3.62985 0
M  V30 3197 H 314.606 -4.08374 -2.6164 0
M  V30 3198 H 310.485 -3.12883 -3.38564 0
M  V30 3199 H 314.029 -6.48404 -2.57328 0
M  V30 3200 H 309.926 -5.52052 -3.34528 0
M  V30 3201 H 310.694 -7.5803 -3.0876 0
M  V30 3202 N 313.357 1.07166 -1.15556 0
M  V30 3203 C 314.603 1.80065 -0.932984 0
M  V30 3204 C 314.936 1.86586 0.53845 0
M  V30 3205 O 314.211 1.35098 1.39924 0
M  V30 3206 C 314.494 3.25022 -1.55025 0
M  V30 3207 C 314.347 3.26634 -3.09242 0
M  V30 3208 C 315.666 4.22341 -1.2376 0
M  V30 3209 H 312.785 0.653697 -0.340366 0
M  V30 3210 H 315.427 1.25389 -1.4275 0
M  V30 3211 H 313.577 3.71712 -1.12972 0
M  V30 3212 H 315.249 2.88173 -3.60214 0
M  V30 3213 H 313.492 2.65539 -3.43033 0
M  V30 3214 H 314.163 4.28854 -3.47546 0
M  V30 3215 H 316.639 3.8405 -1.60139 0
M  V30 3216 H 315.515 5.22053 -1.69564 0
M  V30 3217 H 315.776 4.41828 -0.154938 0
M  V30 3218 N 314.835 0.952656 1.25548 0
M  V30 3219 C 315.798 0.475794 2.24207 0
M  V30 3220 C 316.798 -0.419428 1.55234 0
M  V30 3221 O 317.988 -0.216994 1.72843 0
M  V30 3222 C 315.12 -0.312814 3.39462 0
M  V30 3223 H 316.313 1.34779 2.67908 0
M  V30 3224 H 313.866 0.735739 1.37901 0
M  V30 3225 H 314.601 -1.20257 3.01179 0
M  V30 3226 H 314.386 0.329404 3.90714 0
M  V30 3227 H 315.876 -0.635986 4.12729 0
M  V30 3228 N 316.313 -1.40141 0.720998 0
M  V30 3229 C 317.538 -2.05618 0.271258 0
M  V30 3230 C 317.963 -1.53978 -1.08039 0
M  V30 3231 O 317.321 -0.677463 -1.68167 0
M  V30 3232 C 317.369 -3.59609 0.267197 0
M  V30 3233 O 316.473 -4.05526 -0.749814 0
M  V30 3234 H 315.814 -0.651904 0.126162 0
M  V30 3235 H 318.344 -1.79439 0.982997 0
M  V30 3236 H 318.354 -4.0786 0.106744 0
M  V30 3237 H 317.029 -3.96559 1.25354 0
M  V30 3238 H 315.606 -3.68722 -0.556644 0
M  V30 3239 N 317.792 -0.46758 -1.50504 0
M  V30 3240 C 318.755 0.317059 -2.26996 0
M  V30 3241 C 319.755 0.923513 -1.31635 0
M  V30 3242 O 320.945 0.793239 -1.55091 0
M  V30 3243 C 318.077 1.45134 -3.08462 0
M  V30 3244 H 319.27 -0.353723 -2.97807 0
M  V30 3245 H 316.823 -0.221545 -1.54722 0
M  V30 3246 H 317.558 2.15728 -2.4214 0
M  V30 3247 H 317.343 1.02232 -3.78538 0
M  V30 3248 H 318.833 2.00493 -3.66323 0
M  V30 3249 N 319.27 1.56325 -0.20005 0
M  V30 3250 C 320.233 2.18084 0.705132 0
M  V30 3251 C 321.233 1.13666 1.1374 0
M  V30 3252 O 322.423 1.39023 1.04968 0
M  V30 3253 C 319.555 2.78689 1.96329 0
M  V30 3254 H 320.748 2.99435 0.167023 0
M  V30 3255 H 318.301 1.56221 0.0495725 0
M  V30 3256 H 319.036 2.0115 2.5438 0
M  V30 3257 H 318.821 3.55133 1.66202 0
M  V30 3258 H 320.311 3.26096 2.60866 0
M  V30 3259 N 320.748 -0.0735177 1.57428 0
M  V30 3260 C 321.711 -1.07192 2.02589 0
M  V30 3261 C 322.711 -1.31695 0.922661 0
M  V30 3262 O 323.901 -1.27445 1.18758 0
M  V30 3263 C 321.033 -2.41599 2.40506 0
M  V30 3264 H 322.226 -0.682727 2.92025 0
M  V30 3265 H 319.779 -0.319193 1.53006 0
M  V30 3266 H 320.514 -2.85354 1.5409 0
M  V30 3267 H 320.299 -2.25156 3.21009 0
M  V30 3268 H 321.789 -3.13367 2.76027 0
M  V30 3269 N 322.226 -1.5378 -0.344866 0
M  V30 3270 C 323.156 -1.84662 -1.42906 0
M  V30 3271 C 324.137 -0.701648 -1.54955 0
M  V30 3272 O 325.322 -0.953438 -1.69184 0
M  V30 3273 C 322.452 -2.05503 -2.79974 0
M  V30 3274 C 321.406 -3.21318 -2.82734 0
M  V30 3275 C 320.732 -3.2749 -4.22675 0
M  V30 3276 C 322.032 -4.59456 -2.48389 0
M  V30 3277 H 323.726 -2.75461 -1.17311 0
M  V30 3278 H 321.272 -1.32542 -0.562896 0
M  V30 3279 H 323.225 -2.25691 -3.55867 0
M  V30 3280 H 321.949 -1.11434 -3.07002 0
M  V30 3281 H 320.608 -3.00984 -2.09294 0
M  V30 3282 H 320.256 -2.31019 -4.4681 0
M  V30 3283 H 319.956 -4.05316 -4.25433 0
M  V30 3284 H 321.48 -3.49887 -5.00412 0
M  V30 3285 H 322.894 -4.79667 -3.13995 0
M  V30 3286 H 321.291 -5.39675 -2.62432 0
M  V30 3287 H 322.361 -4.63155 -1.4358 0
M  V30 3288 N 323.704 0.605807 -1.45491 0
M  V30 3289 C 324.667 1.69836 -1.5391 0
M  V30 3290 C 325.667 1.55261 -0.418424 0
M  V30 3291 O 326.857 1.60296 -0.681965 0
M  V30 3292 C 323.989 3.09117 -1.43734 0
M  V30 3293 H 325.182 1.63738 -2.51257 0
M  V30 3294 H 322.735 0.821689 -1.32959 0
M  V30 3295 H 323.47 3.20791 -0.475788 0
M  V30 3296 H 323.255 3.21104 -2.25021 0
M  V30 3297 H 324.745 3.88696 -1.52661 0
M  V30 3298 N 325.182 1.32811 0.848464 0
M  V30 3299 C 326.13 1.22231 1.97895 0
M  V30 3300 C 327.124 0.125749 1.68933 0
M  V30 3301 O 328.33 0.289083 1.77663 0
M  V30 3302 H 324.705 0.379058 0.649476 0
M  V30 3303 H 326.676 2.17828 2.03945 0
M  V30 3304 C 325.425 0.968572 3.33937 0
M  V30 3305 H 324.748 1.80458 3.56756 0
M  V30 3306 H 326.188 0.934808 4.13567 0
M  V30 3307 C 324.647 -0.328628 3.35293 0
M  V30 3308 O 325.177 -1.33848 3.78745 0
M  V30 3309 N 323.383 -0.352788 2.88451 0
M  V30 3310 H 322.93 0.469541 2.53285 0
M  V30 3311 H 322.888 -1.22057 2.89741 0
M  V30 3312 N 326.66 -1.06551 1.16123 0
M  V30 3313 C 327.57 -2.17484 0.879662 0
M  V30 3314 C 328.586 -1.73377 -0.147104 0
M  V30 3315 O 329.762 -2.01379 0.0289128 0
M  V30 3316 C 326.827 -3.44591 0.381829 0
M  V30 3317 C 325.888 -4.0322 1.4735 0
M  V30 3318 C 325.121 -5.24261 0.999324 0
M  V30 3319 O 325.344 -5.70198 -0.151957 0
M  V30 3320 O 324.278 -5.74775 1.78653 0
M  V30 3321 H 328.104 -2.44075 1.80724 0
M  V30 3322 H 325.689 -1.16042 0.940992 0
M  V30 3323 H 327.571 -4.21254 0.111053 0
M  V30 3324 H 326.246 -3.19532 -0.51777 0
M  V30 3325 H 325.153 -3.2806 1.79798 0
M  V30 3326 H 326.486 -4.32568 2.34831 0
M  V30 3327 N 328.138 -0.959301 -1.25041 0
M  V30 3328 C 329.554 -0.664474 -1.4511 0
M  V30 3329 C 329.754 0.776481 -1.85938 0
M  V30 3330 O 328.81 1.55128 -1.99227 0
M  V30 3331 C 330.123 -1.64139 -2.5195 0
M  V30 3332 C 331.671 -1.65309 -2.65786 0
M  V30 3333 C 332.146 -2.61777 -3.75815 0
M  V30 3334 N 333.637 -2.60169 -3.83231 0
M  V30 3335 C 334.372 -3.31489 -4.6787 0
M  V30 3336 N 333.868 -4.12298 -5.56761 0
M  V30 3337 N 335.661 -3.20354 -4.61876 0
M  V30 3338 H 327.812 -1.89043 -0.968332 0
M  V30 3339 H 330.075 -0.813408 -0.4869 0
M  V30 3340 H 329.781 -2.67086 -2.28819 0
M  V30 3341 H 329.655 -1.40756 -3.49954 0
M  V30 3342 H 332.042 -0.630778 -2.8828 0
M  V30 3343 H 332.123 -1.92753 -1.68167 0
M  V30 3344 H 331.767 -3.64137 -3.54071 0
M  V30 3345 H 331.697 -2.31616 -4.72929 0
M  V30 3346 H 334.188 -2.01507 -3.19692 0
M  V30 3347 H 334.501 -4.63625 -6.18281 0
M  V30 3348 H 332.846 -4.16395 -5.56454 0
M  V30 3349 H 336.037 -2.56692 -3.91442 0
M  V30 3350 H 336.21 -3.76201 -5.27614 0
M  V30 3351 N 329.616 1.39756 -0.72842 0
M  V30 3352 C 331.032 1.5442 -0.403308 0
M  V30 3353 C 331.232 1.69694 1.08656 0
M  V30 3354 O 330.288 1.69373 1.87267 0
M  V30 3355 C 331.601 2.76555 -1.18058 0
M  V30 3356 C 333.149 2.90384 -1.16815 0
M  V30 3357 C 333.624 4.15449 -1.92785 0
M  V30 3358 N 335.115 4.22475 -1.89918 0
M  V30 3359 C 335.85 5.1818 -2.45514 0
M  V30 3360 N 335.346 6.19714 -3.09719 0
M  V30 3361 N 337.139 5.1035 -2.35584 0
M  V30 3362 H 329.29 1.28089 -1.69431 0
M  V30 3363 H 331.553 0.620327 -0.716867 0
M  V30 3364 H 331.259 2.7159 -2.23455 0
M  V30 3365 H 331.133 3.69033 -0.780662 0
M  V30 3366 H 333.52 2.94846 -0.12234 0
M  V30 3367 H 333.601 1.98988 -1.6074 0
M  V30 3368 H 333.245 4.11749 -2.97364 0
M  V30 3369 H 333.175 5.05877 -1.46272 0
M  V30 3370 H 335.666 3.49743 -1.43138 0
M  V30 3371 H 335.979 6.8919 -3.49625 0
M  V30 3372 H 334.324 6.20121 -3.13807 0
M  V30 3373 H 337.515 4.2996 -1.85072 0
M  V30 3374 H 337.688 5.84761 -2.79211 0
M  V30 3375 N 331.094 0.475555 1.50254 0
M  V30 3376 C 332.024 -0.30611 2.31485 0
M  V30 3377 C 333.005 -0.986228 1.38591 0
M  V30 3378 O 334.19 -0.982541 1.67511 0
M  V30 3379 C 331.32 -1.38588 3.1845 0
M  V30 3380 C 330.274 -0.827115 4.19932 0
M  V30 3381 C 329.6 -2.00551 4.95665 0
M  V30 3382 C 330.9 0.16463 5.2204 0
M  V30 3383 H 332.594 0.371866 2.97082 0
M  V30 3384 H 330.14 0.180282 1.42867 0
M  V30 3385 H 332.093 -1.94023 3.74076 0
M  V30 3386 H 330.817 -2.09269 2.50747 0
M  V30 3387 H 329.476 -0.294702 3.65414 0
M  V30 3388 H 329.124 -2.6994 4.2443 0
M  V30 3389 H 328.824 -1.63784 5.64313 0
M  V30 3390 H 330.348 -2.56468 5.54127 0
M  V30 3391 H 331.762 -0.300699 5.72511 0
M  V30 3392 H 330.159 0.446813 5.98434 0
M  V30 3393 H 331.229 1.08905 4.72512 0
M  V30 3394 N 332.573 -1.56217 0.208337 0
M  V30 3395 C 333.85 -1.89739 -0.475234 0
M  V30 3396 C 334.23 -1.1238 -1.78701 0
M  V30 3397 O 333.578 -0.228979 -2.2735 0
M  V30 3398 C 333.788 -3.42289 -0.681101 0
M  V30 3399 C 335.136 -4.12789 -0.994507 0
M  V30 3400 O 336.16 -3.47814 -0.768357 0
M  V30 3401 O 335.019 -5.27649 -1.42299 0
M  V30 3402 H 332.113 -0.788478 -0.249461 0
M  V30 3403 H 334.659 -1.67855 0.249538 0
M  V30 3404 H 333.431 -3.90534 0.244722 0
M  V30 3405 H 333.054 -3.69909 -1.45785 0
M  V30 3406 N 334.051 0.0651679 -1.57465 0
M  V30 3407 C 335.298 0.763063 -1.87573 0
M  V30 3408 C 335.626 1.77242 -0.800961 0
M  V30 3409 O 334.881 1.94651 0.202316 0
M  V30 3410 C 335.18 1.50081 -3.24362 0
M  V30 3411 C 334.846 0.630816 -4.46466 0
M  V30 3412 C 333.508 0.391082 -4.79608 0
M  V30 3413 C 335.86 0.0279465 -5.21193 0
M  V30 3414 C 333.188 -0.460894 -5.84887 0
M  V30 3415 C 335.54 -0.811522 -6.27373 0
M  V30 3416 C 334.204 -1.06106 -6.59013 0
M  V30 3417 H 333.474 0.279224 -0.686378 0
M  V30 3418 H 336.121 0.0236726 -1.91485 0
M  V30 3419 H 334.426 2.31258 -3.16271 0
M  V30 3420 H 336.123 2.04571 -3.44894 0
M  V30 3421 H 332.713 0.8278 -4.2053 0
M  V30 3422 H 336.897 0.200262 -4.95896 0
M  V30 3423 H 332.153 -0.662907 -6.07796 0
M  V30 3424 H 336.327 -1.28537 -6.84435 0
M  V30 3425 H 333.954 -1.723 -7.40417 0
M  V30 3426 N 335.529 1.53961 0.336706 0
M  V30 3427 C 336.459 1.85417 1.41925 0
M  V30 3428 C 337.44 0.709856 1.5458 0
M  V30 3429 O 338.625 0.962396 1.68676 0
M  V30 3430 C 335.755 2.06985 2.78881 0
M  V30 3431 C 334.709 3.22813 2.81026 0
M  V30 3432 C 334.035 3.29727 4.20932 0
M  V30 3433 C 335.335 4.60767 2.45949 0
M  V30 3434 H 337.029 2.76079 1.15848 0
M  V30 3435 H 334.575 1.32839 0.555859 0
M  V30 3436 H 336.528 2.27575 3.54665 0
M  V30 3437 H 335.252 1.13061 3.06406 0
M  V30 3438 H 333.911 3.0209 2.07695 0
M  V30 3439 H 333.559 2.33385 4.45579 0
M  V30 3440 H 333.259 4.07566 4.23277 0
M  V30 3441 H 334.783 3.52536 4.98549 0
M  V30 3442 H 336.197 4.81325 3.11446 0
M  V30 3443 H 334.594 5.4106 2.59566 0
M  V30 3444 H 335.664 4.6391 1.41122 0
M  V30 3445 N 337.007 -0.598083 1.45811 0
M  V30 3446 C 337.97 -1.69018 1.54808 0
M  V30 3447 C 338.97 -1.55037 0.426652 0
M  V30 3448 O 340.16 -1.59932 0.690456 0
M  V30 3449 C 337.292 -3.0835 1.45371 0
M  V30 3450 H 338.485 -1.62403 2.52121 0
M  V30 3451 H 336.038 -0.814626 1.33392 0
M  V30 3452 H 336.773 -3.20534 0.492793 0
M  V30 3453 H 336.558 -3.19907 2.26721 0
M  V30 3454 H 338.048 -3.8788 1.54721 0
M  V30 3455 N 338.485 -1.33259 -0.841409 0
M  V30 3456 C 339.896 -1.22066 -1.41269 0
M  V30 3457 C 340.247 0.161479 -1.95534 0
M  V30 3458 O 339.372 1.06094 -1.88608 0
M  V30 3459 C 339.967 -2.20996 -2.568 0
M  V30 3460 C 338.526 -2.13649 -3.09888 0
M  V30 3461 C 337.673 -2.08623 -1.82679 0
M  V30 3462 H 340.624 -1.44895 -0.647395 0
M  V30 3463 H 340.645 -1.81621 -3.34356 0
M  V30 3464 H 340.157 -3.2158 -2.17274 0
M  V30 3465 H 338.258 -1.16359 -3.53965 0
M  V30 3466 H 338.371 -3.04079 -3.70234 0
M  V30 3467 H 336.735 -1.54061 -2.02824 0
M  V30 3468 H 337.518 -3.1101 -1.45353 0
M  V30 3469 N 339.963 1.05934 -1.16686 0
M  V30 3470 C 340.893 2.1546 -0.899949 0
M  V30 3471 C 341.874 1.69391 0.155154 0
M  V30 3472 O 343.059 1.94199 0.00648693 0
M  V30 3473 C 340.189 3.44939 -0.404241 0
M  V30 3474 C 339.143 4.04536 -1.39767 0
M  V30 3475 C 338.469 5.29268 -0.760216 0
M  V30 3476 C 339.769 4.42893 -2.76845 0
M  V30 3477 H 341.463 2.38046 -1.81588 0
M  V30 3478 H 339.009 1.14404 -0.874514 0
M  V30 3479 H 340.962 4.20901 -0.204971 0
M  V30 3480 H 339.686 3.21983 0.547206 0
M  V30 3481 H 338.345 3.30635 -1.58355 0
M  V30 3482 H 337.993 5.02611 0.197831 0
M  V30 3483 H 337.693 5.70101 -1.42332 0
M  V30 3484 H 339.217 6.07924 -0.57105 0
M  V30 3485 H 340.631 5.09921 -2.62019 0
M  V30 3486 H 339.028 4.94721 -3.39663 0
M  V30 3487 H 340.098 3.53584 -3.31823 0
M  V30 3488 N 341.441 0.965919 1.2453 0
M  V30 3489 C 342.373 0.452465 2.2469 0
M  V30 3490 C 343.386 -0.437821 1.56802 0
M  V30 3491 O 344.575 -0.244283 1.76821 0
M  V30 3492 C 341.675 -0.366258 3.36915 0
M  V30 3493 C 340.848 0.513701 4.34373 0
M  V30 3494 C 339.907 -0.248716 5.25612 0
M  V30 3495 O 338.933 0.356745 5.68081 0
M  V30 3496 N 340.135 -1.53877 5.59734 0
M  V30 3497 H 342.9 1.31361 2.69378 0
M  V30 3498 H 340.461 0.837541 1.38553 0
M  V30 3499 H 342.453 -0.884297 3.94921 0
M  V30 3500 H 341.023 -1.12832 2.91526 0
M  V30 3501 H 340.243 1.21273 3.75082 0
M  V30 3502 H 341.531 1.11391 4.96457 0
M  V30 3503 H 340.929 -2.05243 5.27154 0
M  V30 3504 H 339.486 -2.00254 6.20275 0
M  V30 3505 N 342.919 -1.39368 0.735821 0
M  V30 3506 C 344.144 -2.05319 0.293052 0
M  V30 3507 C 344.569 -1.55115 -1.064 0
M  V30 3508 O 343.927 -0.695261 -1.67439 0
M  V30 3509 C 343.975 -3.59305 0.305323 0
M  V30 3510 O 343.079 -4.06299 -0.706761 0
M  V30 3511 H 342.42 -0.650529 0.13307 0
M  V30 3512 H 344.95 -1.78386 1.00197 0
M  V30 3513 H 344.96 -4.07724 0.149997 0
M  V30 3514 H 343.635 -3.95207 1.29553 0
M  V30 3515 H 342.212 -3.69292 -0.517504 0
M  V30 3516 N 344.397 -0.483516 -1.5 0
M  V30 3517 C 345.344 0.304164 -2.28787 0
M  V30 3518 C 346.314 0.976114 -1.34392 0
M  V30 3519 O 347.499 0.986156 -1.63339 0
M  V30 3520 C 344.639 1.37298 -3.16612 0
M  V30 3521 C 343.752 0.714561 -4.26049 0
M  V30 3522 C 342.887 1.76232 -5.01114 0
M  V30 3523 C 341.926 1.08483 -6.0241 0
M  V30 3524 N 341.063 2.076 -6.70706 0
M  V30 3525 H 345.903 -0.373981 -2.95644 0
M  V30 3526 H 343.44 -0.196275 -1.45785 0
M  V30 3527 H 345.398 2.00445 -3.65893 0
M  V30 3528 H 344.028 2.02012 -2.51776 0
M  V30 3529 H 343.08 -0.0297798 -3.80388 0
M  V30 3530 H 344.392 0.180383 -4.98474 0
M  V30 3531 H 343.546 2.46929 -5.54176 0
M  V30 3532 H 342.285 2.33033 -4.28424 0
M  V30 3533 H 341.29 0.363545 -5.48597 0
M  V30 3534 H 342.515 0.523551 -6.77079 0
M  V30 3535 H 340.461 2.63394 -6.00799 0
M  V30 3536 H 340.378 1.59201 -7.39047 0
M  V30 3537 H 341.646 2.77639 -7.2838 0
M  V30 3538 N 345.875 1.56104 -0.216619 0
M  V30 3539 C 346.822 2.2007 0.695531 0
M  V30 3540 C 347.792 1.15471 1.19397 0
M  V30 3541 O 348.977 1.43807 1.25396 0
M  V30 3542 C 346.117 2.88073 1.90021 0
M  V30 3543 C 345.23 4.07253 1.44113 0
M  V30 3544 C 344.365 4.63052 2.603 0
M  V30 3545 C 343.404 5.74545 2.11103 0
M  V30 3546 N 342.541 6.24656 3.20545 0
M  V30 3547 H 347.381 2.97655 0.143327 0
M  V30 3548 H 344.918 1.46982 0.0589934 0
M  V30 3549 H 346.876 3.25681 2.60745 0
M  V30 3550 H 345.506 2.13015 2.42538 0
M  V30 3551 H 344.558 3.75164 0.628999 0
M  V30 3552 H 345.87 4.8783 1.04036 0
M  V30 3553 H 345.024 5.03078 3.39113 0
M  V30 3554 H 343.763 3.81628 3.03663 0
M  V30 3555 H 342.768 5.34027 1.3075 0
M  V30 3556 H 343.993 6.57801 1.68746 0
M  V30 3557 H 341.939 5.46148 3.63399 0
M  V30 3558 H 341.856 7.00343 2.84704 0
M  V30 3559 H 343.124 6.69338 3.99508 0
M  V30 3560 N 347.353 -0.0568162 1.57498 0
M  V30 3561 C 348.764 -0.606858 1.76562 0
M  V30 3562 C 349.115 -1.77114 0.844094 0
M  V30 3563 O 348.24 -2.16376 0.0318911 0
M  V30 3564 C 348.835 -1.10766 3.20182 0
M  V30 3565 C 347.394 -1.60344 3.40539 0
M  V30 3566 C 346.541 -0.529311 2.72201 0
M  V30 3567 H 349.492 0.169393 1.57793 0
M  V30 3568 H 349.513 -1.97602 3.25167 0
M  V30 3569 H 349.025 -0.26006 3.87228 0
M  V30 3570 H 347.126 -2.47379 2.78629 0
M  V30 3571 H 347.239 -1.67006 4.4905 0
M  V30 3572 H 345.603 -0.977893 2.35179 0
M  V30 3573 H 346.386 0.308352 3.41912 0
M  V30 3574 O 348.87 -1.60255 -0.200168 0
M  V30 3575 H 349.561 -1.74563 -0.839496 0
M  V30 END ATOM
M  V30 BEGIN BOND
M  V30 END BOND
M  V30 END CTAB
M  END
$$$$
