drugbank_target|P21673 Diamine acetyltransferase 1 (DB04633)
 OpenBabel12092119243D

  0  0  0     0  0            999 V3000
M  V30 BEGIN CTAB
M  V30 COUNTS 2776 2815 0 0 0
M  V30 BEGIN ATOM
M  V30 1 H -0.908 1.98254 -0.117106 0
M  V30 2 N 0 1.576 0 0
M  V30 3 C 0.933 2.03868 1.02534 0
M  V30 4 C 1.911 0.928543 1.3348 0
M  V30 5 O 3.095 1.19667 1.45644 0
M  V30 6 C 0.222 2.43627 2.35294 0
M  V30 7 C -0.732 3.65373 2.2001 0
M  V30 8 S 0.101 5.13292 1.52614 0
M  V30 9 C 1.257 5.56322 2.86805 0
M  V30 10 H 1.49 2.90518 0.631377 0
M  V30 11 H -0.977 1.52953 0.210867 0
M  V30 12 H 0.981 2.67203 3.11629 0
M  V30 13 H -0.358 1.57376 2.7183 0
M  V30 14 H -1.165 3.90944 3.18086 0
M  V30 15 H -1.563 3.418 1.51819 0
M  V30 16 H 0.729 5.58782 3.83104 0
M  V30 17 H 1.672 6.56266 2.65933 0
M  V30 18 H 2.08 4.83886 2.90714 0
M  V30 19 N 1.4781 -0.272755 1.55222 0
M  V30 20 C 2.4411 -1.32041 1.87344 0
M  V30 21 C 3.4411 -1.42342 0.74803 0
M  V30 22 O 4.6311 -1.41488 1.0162 0
M  V30 23 C 1.7631 -2.70173 2.07893 0
M  V30 24 H 2.9561 -1.04789 2.80997 0
M  V30 25 H 0.5091 -0.51083 1.47717 0
M  V30 26 H 1.2441 -3.02605 1.16622 0
M  V30 27 H 1.0291 -2.64082 2.89833 0
M  V30 28 H 2.5191 -3.45869 2.34017 0
M  V30 29 N 2.9562 -1.48159 -0.537278 0
M  V30 30 C 3.9032 -1.62138 -1.64256 0
M  V30 31 C 4.8732 -0.463668 -1.59497 0
M  V30 32 O 6.0582 -0.686241 -1.78032 0
M  V30 33 C 3.1982 -1.66028 -3.02537 0
M  V30 34 C 2.3112 -2.92855 -3.17585 0
M  V30 35 C 1.4462 -2.87952 -4.46382 0
M  V30 36 C 0.4852 -4.09516 -4.54932 0
M  V30 37 N -0.3778 -4.02733 -5.75109 0
M  V30 38 H 4.4622 -2.56529 -1.51647 0
M  V30 39 H 1.9992 -1.27224 -0.738414 0
M  V30 40 H 3.9572 -1.66265 -3.82638 0
M  V30 41 H 2.5872 -0.751331 -3.13934 0
M  V30 42 H 1.6392 -3.02395 -2.30784 0
M  V30 43 H 2.9512 -3.82822 -3.19764 0
M  V30 44 H 2.1052 -2.8655 -5.34765 0
M  V30 45 H 0.8442 -1.95702 -4.46712 0
M  V30 46 H -0.1508 -4.11201 -3.64957 0
M  V30 47 H 1.0742 -5.02917 -4.56346 0
M  V30 48 H -0.9798 -3.13299 -5.76351 0
M  V30 49 H -1.0628 -4.86397 -5.78752 0
M  V30 50 H 0.2052 -4.05379 -6.65799 0
M  V30 51 N 4.4343 0.785586 -1.36625 0
M  V30 52 C 5.6813 1.54362 -1.31067 0
M  V30 53 C 6.0093 1.94195 0.10893 0
M  V30 54 O 5.2643 1.63262 1.07908 0
M  V30 55 C 5.5633 2.83007 -2.1827 0
M  V30 56 C 5.2293 2.62294 -3.6676 0
M  V30 57 C 3.8913 2.56353 -4.0723 0
M  V30 58 C 6.2433 2.43371 -4.6089 0
M  V30 59 C 3.5713 2.29461 -5.39967 0
M  V30 60 C 5.9233 2.18005 -5.93849 0
M  V30 61 C 4.5873 2.105 -6.3344 0
M  V30 62 H 3.8573 0.564851 -0.479609 0
M  V30 63 H 6.5043 0.906028 -1.68711 0
M  V30 64 H 4.8093 3.51253 -1.73576 0
M  V30 65 H 6.5063 3.40817 -2.11292 0
M  V30 66 H 3.0963 2.67774 -3.34656 0
M  V30 67 H 7.2803 2.46959 -4.30494 0
M  V30 68 H 2.5363 2.22135 -5.69619 0
M  V30 69 H 6.7103 2.02359 -6.66351 0
M  V30 70 H 4.3373 1.89425 -7.36222 0
M  V30 71 N 5.9124 1.20967 1.01018 0
M  V30 72 C 7.1584 1.02526 1.74975 0
M  V30 73 C 7.4914 -0.4408 1.89131 0
M  V30 74 O 6.7664 -1.32718 1.42184 0
M  V30 75 C 7.0494 1.71699 3.1653 0
M  V30 76 C 6.9024 3.25791 3.10129 0
M  V30 77 C 8.2214 1.45531 4.15342 0
M  V30 78 H 5.3404 0.373863 0.635134 0
M  V30 79 H 7.9824 1.49071 1.17805 0
M  V30 80 H 6.1324 1.32128 3.65341 0
M  V30 81 H 7.8044 3.74697 2.69072 0
M  V30 82 H 6.0474 3.56363 2.47362 0
M  V30 83 H 6.7184 3.69353 4.10222 0
M  V30 84 H 9.1944 1.79872 3.75213 0
M  V30 85 H 8.0704 1.96453 5.1254 0
M  V30 86 H 8.3314 0.384237 4.40427 0
M  V30 87 N 7.3905 -1.2043 1.01659 0
M  V30 88 C 8.6395 -1.89118 0.701237 0
M  V30 89 C 8.9525 -1.79705 -0.772358 0
M  V30 90 O 10.1585 -2.43528 -1.20026 0
M  V30 91 C 8.6145 -3.39168 1.20388 0
M  V30 92 C 8.2225 -3.57166 2.70438 0
M  V30 93 C 9.9665 -4.1341 0.963953 0
M  V30 94 C 7.8735 -5.01042 3.14183 0
M  V30 95 H 6.8035 -0.708267 0.2586 0
M  V30 96 H 9.4545 -1.36239 1.22927 0
M  V30 97 H 7.8365 -3.91369 0.603824 0
M  V30 98 H 9.0105 -3.15351 3.35992 0
M  V30 99 H 7.3255 -2.96294 2.92572 0
M  V30 100 H 9.9225 -5.19491 1.26621 0
M  V30 101 H 10.2655 -4.16181 -0.099578 0
M  V30 102 H 10.7985 -3.67309 1.52738 0
M  V30 103 H 7.5375 -5.03426 4.19812 0
M  V30 104 H 7.0575 -5.43668 2.53348 0
M  V30 105 H 8.7365 -5.69623 3.0682 0
M  V30 106 N 8.8686 -0.792821 -1.36206 0
M  V30 107 C 10.2846 -0.474903 -1.52371 0
M  V30 108 C 10.4846 1.00622 -1.74578 0
M  V30 109 O 9.5406 1.79162 -1.77924 0
M  V30 110 C 10.8536 -1.3083 -2.70747 0
M  V30 111 C 12.4016 -1.30234 -2.84619 0
M  V30 112 C 12.8766 -2.11956 -4.06004 0
M  V30 113 N 14.3676 -2.09419 -4.13156 0
M  V30 114 C 15.1026 -2.69419 -5.06163 0
M  V30 115 N 14.5986 -3.3829 -6.04592 0
M  V30 116 N 16.3916 -2.59134 -4.98804 0
M  V30 117 H 8.5426 -1.75222 -1.20046 0
M  V30 118 H 10.8056 -0.745024 -0.586211 0
M  V30 119 H 10.5116 -2.35881 -2.6087 0
M  V30 120 H 10.3856 -0.95196 -3.6499 0
M  V30 121 H 12.7726 -0.259748 -2.93955 0
M  V30 122 H 12.8536 -1.69847 -1.91274 0
M  V30 123 H 12.4976 -3.16248 -3.97429 0
M  V30 124 H 12.4276 -1.69711 -4.98503 0
M  V30 125 H 14.9186 -1.59297 -3.42685 0
M  V30 126 H 15.2316 -3.81394 -6.7213 0
M  V30 127 H 13.5766 -3.42393 -6.04807 0
M  V30 128 H 16.7676 -2.04927 -4.20859 0
M  V30 129 H 16.9406 -3.06185 -5.711 0
M  V30 130 N 10.3467 1.47872 -0.545128 0
M  V30 131 C 11.7577 1.86384 -0.108581 0
M  V30 132 C 12.1087 1.45309 1.31832 0
M  V30 133 O 11.2337 0.850641 1.9898 0
M  V30 134 C 11.8287 3.38265 -0.190274 0
M  V30 135 C 10.3877 3.75914 0.191164 0
M  V30 136 C 9.5347 2.71926 -0.543273 0
M  V30 137 H 12.4857 1.39561 -0.755537 0
M  V30 138 H 12.5067 3.75831 0.594217 0
M  V30 139 H 12.0187 3.6813 -1.2289 0
M  V30 140 H 10.1197 3.51665 1.23136 0
M  V30 141 H 10.2327 4.78836 -0.158987 0
M  V30 142 H 8.5967 2.54697 0.0122495 0
M  V30 143 H 9.3797 3.04634 -1.58282 0
M  V30 144 N 11.8248 0.280983 1.55075 0
M  V30 145 C 12.7878 -0.590896 2.21452 0
M  V30 146 C 13.7878 -1.07682 1.19421 0
M  V30 147 O 14.9778 -0.97605 1.44288 0
M  V30 148 C 12.1098 -1.81587 2.88511 0
M  V30 149 H 13.3028 -0.0112554 2.99898 0
M  V30 150 H 10.8558 0.0316438 1.56268 0
M  V30 151 H 11.5908 -2.43587 2.14093 0
M  V30 152 H 11.3758 -1.4753 3.63287 0
M  V30 153 H 12.8658 -2.43575 3.39206 0
M  V30 154 N 13.3029 -1.57598 0.00835791 0
M  V30 155 C 14.5309 -1.95214 -0.68549 0
M  V30 156 C 14.9459 -0.883706 -1.66841 0
M  V30 157 O 14.3029 0.136565 -1.81988 0
M  V30 158 C 14.3539 -3.32865 -1.41007 0
M  V30 159 O 14.0749 -4.35609 -0.466552 0
M  V30 160 C 15.5759 -3.84991 -2.19765 0
M  V30 161 H 12.7959 -0.643422 -0.190392 0
M  V30 162 H 15.3399 -2.04406 0.0619607 0
M  V30 163 H 13.4949 -3.24956 -2.10908 0
M  V30 164 H 13.9089 -5.15288 -0.978699 0
M  V30 165 H 15.3829 -4.8371 -2.65948 0
M  V30 166 H 15.8599 -3.18137 -3.02796 0
M  V30 167 H 16.4659 -3.96103 -1.54864 0
M  V30 168 N 14.781 0.264519 -1.55364 0
M  V30 169 C 15.744 1.31046 -1.88042 0
M  V30 170 C 16.744 1.41943 -0.755569 0
M  V30 171 O 17.934 1.40947 -1.02369 0
M  V30 172 C 15.066 2.69067 -2.09323 0
M  V30 173 H 16.259 1.03297 -2.81549 0
M  V30 174 H 13.812 0.502989 -1.47986 0
M  V30 175 H 14.547 3.01982 -1.18226 0
M  V30 176 H 14.332 2.62542 -2.91229 0
M  V30 177 H 15.822 3.44623 -2.35848 0
M  V30 178 N 16.2591 1.48442 0.529413 0
M  V30 179 C 17.2221 1.62524 1.61612 0
M  V30 180 C 18.2221 0.498509 1.52877 0
M  V30 181 O 19.4121 0.76431 1.56537 0
M  V30 182 C 16.5441 1.59597 3.01233 0
M  V30 183 H 17.7371 2.59423 1.50465 0
M  V30 184 H 15.2901 1.37047 0.751514 0
M  V30 185 H 16.0251 0.641781 3.17886 0
M  V30 186 H 15.8101 2.41397 3.08982 0
M  V30 187 H 17.3001 1.72646 3.80241 0
M  V30 188 N 17.7372 -0.778329 1.37039 0
M  V30 189 C 19.0142 -1.52551 1.22424 0
M  V30 190 C 19.3942 -2.10288 -0.184964 0
M  V30 191 O 18.7422 -1.94953 -1.19187 0
M  V30 192 C 18.9522 -2.61164 2.31504 0
M  V30 193 C 20.3002 -3.28746 2.68721 0
M  V30 194 O 21.3242 -2.71455 2.30631 0
M  V30 195 O 20.1832 -4.3231 3.3432 0
M  V30 196 H 17.2772 -0.675343 0.477326 0
M  V30 197 H 19.8232 -0.815859 1.48801 0
M  V30 198 H 18.5952 -2.16574 3.25901 0
M  V30 199 H 18.2182 -3.39737 2.06554 0
M  V30 200 N 19.2153 -1.21501 -1.00376 0
M  V30 201 C 20.4553 -1.04444 -1.75701 0
M  V30 202 C 20.8193 0.414644 -1.87469 0
M  V30 203 O 22.0203 0.705763 -2.59369 0
M  V30 204 C 20.2913 -1.72389 -3.13077 0
M  V30 205 S 21.8503 -1.70604 -4.04277 0
M  V30 206 H 18.6683 -0.374249 -0.604532 0
M  V30 207 H 21.2703 -1.54267 -1.20091 0
M  V30 208 H 19.9743 -2.77734 -3.02146 0
M  V30 209 H 19.5053 -1.22751 -3.73759 0
M  V30 210 H 21.5203 -0.748012 -4.9053 0
M  V30 211 N 20.6934 1.19889 -1.02296 0
M  V30 212 C 21.9184 1.9393 -0.735237 0
M  V30 213 C 22.3434 1.74639 0.698782 0
M  V30 214 O 21.7014 1.04481 1.48167 0
M  V30 215 C 21.7494 3.43916 -1.08417 0
M  V30 216 O 20.8534 4.11917 -0.199446 0
M  V30 217 H 20.1944 0.605645 -0.272196 0
M  V30 218 H 22.7244 1.52137 -1.36804 0
M  V30 219 H 22.7344 3.9456 -1.03856 0
M  V30 220 H 21.4094 3.5728 -2.12894 0
M  V30 221 H 19.9864 3.71666 -0.303136 0
M  V30 222 N 22.1715 0.800033 1.35784 0
M  V30 223 C 23.4485 0.30088 1.93272 0
M  V30 224 C 23.8285 -1.20857 1.73081 0
M  V30 225 O 23.1765 -2.00502 1.09596 0
M  V30 226 C 23.3865 0.70511 3.41803 0
M  V30 227 C 24.7345 0.690871 4.18942 0
M  V30 228 O 25.7585 0.646244 3.50289 0
M  V30 229 O 24.6175 0.74332 5.41421 0
M  V30 230 H 21.7115 0.0771605 0.823393 0
M  V30 231 H 24.2575 0.88329 1.449 0
M  V30 232 H 23.0295 1.74571 3.50201 0
M  V30 233 H 22.6525 0.0971541 3.97481 0
M  V30 234 N 23.6496 -1.47581 0.552962 0
M  V30 235 C 24.8986 -2.01684 0.0251995 0
M  V30 236 C 25.2116 -1.43317 -1.33115 0
M  V30 237 O 26.4176 -1.89057 -1.94858 0
M  V30 238 C 24.8736 -3.599 -0.00542052 0
M  V30 239 C 24.4816 -4.27257 1.34742 0
M  V30 240 C 26.2256 -4.21768 -0.4808 0
M  V30 241 C 24.1326 -5.77467 1.27614 0
M  V30 242 H 23.0626 -0.753979 0.00565033 0
M  V30 243 H 25.7136 -1.69616 0.70018 0
M  V30 244 H 24.0956 -3.88911 -0.745961 0
M  V30 245 H 25.2696 -4.09893 2.10534 0
M  V30 246 H 23.5846 -3.77358 1.76039 0
M  V30 247 H 26.1816 -5.31838 -0.55246 0
M  V30 248 H 26.5246 -3.88651 -1.49184 0
M  V30 249 H 27.0576 -3.97273 0.204752 0
M  V30 250 H 23.7966 -6.15196 2.26304 0
M  V30 251 H 23.3166 -5.9718 0.55996 0
M  V30 252 H 24.9956 -6.3959 0.976421 0
M  V30 253 N 25.1277 -0.289203 -1.54924 0
M  V30 254 C 26.0577 0.58549 -2.2604 0
M  V30 255 C 27.0387 1.14753 -1.25562 0
M  V30 256 O 28.2237 1.17906 -1.54311 0
M  V30 257 C 25.3537 1.76305 -2.99222 0
M  V30 258 C 24.3077 1.33191 -4.06748 0
M  V30 259 C 23.6337 2.5937 -4.6758 0
M  V30 260 C 24.9337 0.471775 -5.20165 0
M  V30 261 H 26.6277 -0.00763532 -2.99399 0
M  V30 262 H 24.1737 -0.00511229 -1.43999 0
M  V30 263 H 26.1267 2.38097 -3.47689 0
M  V30 264 H 24.8507 2.38223 -2.23422 0
M  V30 265 H 23.5097 0.737121 -3.59113 0
M  V30 266 H 23.1577 3.19576 -3.88433 0
M  V30 267 H 22.8577 2.31228 -5.40192 0
M  V30 268 H 24.3817 3.21985 -5.18804 0
M  V30 269 H 25.7957 0.995056 -5.64599 0
M  V30 270 H 24.1927 0.284639 -5.99425 0
M  V30 271 H 25.2627 -0.506041 -4.82252 0
M  V30 272 N 26.6058 1.57591 -0.0167156 0
M  V30 273 C 28.0218 1.55946 0.339557 0
M  V30 274 C 28.2218 1.02109 1.73713 0
M  V30 275 O 27.2778 0.662303 2.43659 0
M  V30 276 C 28.5908 3.00037 0.199499 0
M  V30 277 C 30.1388 3.11805 0.273193 0
M  V30 278 C 30.6138 4.57713 0.162068 0
M  V30 279 N 32.1048 4.6268 0.219444 0
M  V30 280 C 32.8398 5.73185 0.157054 0
M  V30 281 N 32.3358 6.92786 0.0442936 0
M  V30 282 N 34.1288 5.61707 0.21014 0
M  V30 283 H 26.2798 1.90921 -0.930758 0
M  V30 284 H 28.5428 0.877674 -0.358319 0
M  V30 285 H 28.2488 3.4333 -0.76273 0
M  V30 286 H 28.1228 3.64387 0.974786 0
M  V30 287 H 30.5098 2.68433 1.22587 0
M  V30 288 H 30.5908 2.50201 -0.532256 0
M  V30 289 H 30.2348 5.01763 -0.78714 0
M  V30 290 H 30.1648 5.17283 0.986222 0
M  V30 291 H 32.6558 3.76649 0.307246 0
M  V30 292 H 32.9688 7.728 0.00304069 0
M  V30 293 H 31.3138 6.94999 0.00968457 0
M  V30 294 H 34.5048 4.6716 0.296546 0
M  V30 295 H 34.6778 6.47807 0.158054 0
M  V30 296 N 28.0839 -0.256276 1.55502 0
M  V30 297 C 29.0139 -1.32102 1.92539 0
M  V30 298 C 29.9949 -1.50684 0.789194 0
M  V30 299 O 31.1799 -1.63449 1.04872 0
M  V30 300 C 28.3099 -2.67752 2.21192 0
M  V30 301 C 27.2639 -2.63878 3.36975 0
M  V30 302 C 26.5899 -4.03236 3.51147 0
M  V30 303 C 27.8899 -2.21682 4.72921 0
M  V30 304 H 29.5839 -1.01351 2.81724 0
M  V30 305 H 27.1299 -0.486105 1.35547 0
M  V30 306 H 29.0829 -3.42365 2.45691 0
M  V30 307 H 27.8069 -3.0012 1.28824 0
M  V30 308 H 26.4659 -1.91722 3.12471 0
M  V30 309 H 26.1139 -4.32854 2.56216 0
M  V30 310 H 25.8139 -4.01535 4.29003 0
M  V30 311 H 27.3379 -4.79563 3.77957 0
M  V30 312 H 28.7519 -2.86023 4.96854 0
M  V30 313 H 27.1489 -2.3111 5.53812 0
M  V30 314 H 28.2189 -1.16833 4.70615 0
M  V30 315 N 29.562 -1.4872 -0.521534 0
M  V30 316 C 30.811 -1.56419 -1.27341 0
M  V30 317 C 31.124 -0.246805 -1.94037 0
M  V30 318 O 32.33 -0.202122 -2.70747 0
M  V30 319 C 30.786 -2.75896 -2.31105 0
M  V30 320 C 30.394 -4.14311 -1.70441 0
M  V30 321 C 32.138 -2.92913 -3.07249 0
M  V30 322 C 30.045 -5.25038 -2.72194 0
M  V30 323 H 28.975 -0.582344 -0.478949 0
M  V30 324 H 31.626 -1.75071 -0.549779 0
M  V30 325 H 30.008 -2.50697 -3.06541 0
M  V30 326 H 31.182 -4.49564 -1.01136 0
M  V30 327 H 29.497 -4.02482 -1.06759 0
M  V30 328 H 32.094 -3.72805 -3.83302 0
M  V30 329 H 32.437 -2.02689 -3.63625 0
M  V30 330 H 32.97 -3.18054 -2.38928 0
M  V30 331 H 29.709 -6.17255 -2.20627 0
M  V30 332 H 29.229 -4.94263 -3.39801 0
M  V30 333 H 30.908 -5.53508 -3.35019 0
M  V30 334 N 31.0401 0.771051 -1.3745 0
M  V30 335 C 31.9871 1.88435 -1.3327 0
M  V30 336 C 32.9571 1.64914 -0.198136 0
M  V30 337 O 34.1421 1.86821 -0.387606 0
M  V30 338 C 31.2821 3.25509 -1.14622 0
M  V30 339 C 30.3951 3.60979 -2.37314 0
M  V30 340 C 29.5301 4.87265 -2.11533 0
M  V30 341 C 28.5691 5.15469 -3.30088 0
M  V30 342 N 27.7061 6.32944 -3.03853 0
M  V30 343 H 32.5461 1.91344 -2.28455 0
M  V30 344 H 30.0831 0.935466 -1.13523 0
M  V30 345 H 32.0411 4.04582 -1.01831 0
M  V30 346 H 30.6711 3.21974 -0.230837 0
M  V30 347 H 29.7231 2.76885 -2.60842 0
M  V30 348 H 31.0351 3.77759 -3.25729 0
M  V30 349 H 30.1891 5.74244 -1.95777 0
M  V30 350 H 28.9281 4.7259 -1.20457 0
M  V30 351 H 27.9331 4.26966 -3.46382 0
M  V30 352 H 29.1581 5.32052 -4.22016 0
M  V30 353 H 27.1041 6.19625 -2.15407 0
M  V30 354 H 27.0211 6.50143 -3.85812 0
M  V30 355 H 28.2891 7.22857 -2.91716 0
M  V30 356 N 32.5182 1.22032 0.997298 0
M  V30 357 C 33.4282 1.00271 2.12092 0
M  V30 358 C 34.4442 -0.047621 1.73935 0
M  V30 359 O 35.6202 0.144136 2.00884 0
M  V30 360 C 32.6852 0.578449 3.4184 0
M  V30 361 C 31.7462 1.70189 3.94125 0
M  V30 362 C 30.9792 1.29778 5.17681 0
M  V30 363 O 31.2022 0.174676 5.70132 0
M  V30 364 O 30.1362 2.11261 5.63607 0
M  V30 365 H 33.9622 1.94398 2.3333 0
M  V30 366 H 31.5472 1.00587 1.10465 0
M  V30 367 H 33.4292 0.351998 4.19927 0
M  V30 368 H 32.1042 -0.334019 3.21972 0
M  V30 369 H 31.0112 1.98282 3.1723 0
M  V30 370 H 32.3442 2.59206 4.18417 0
M  V30 371 N 33.9963 -1.19345 1.0293 0
M  V30 372 C 34.9263 -2.2481 0.631105 0
M  V30 373 C 35.9073 -1.66245 -0.360104 0
M  V30 374 O 37.0923 -1.92677 -0.242726 0
M  V30 375 C 34.2223 -3.47295 -0.0184607 0
M  V30 376 C 33.1763 -4.18536 0.895073 0
M  V30 377 C 32.5023 -5.34586 0.110592 0
M  V30 378 C 33.8023 -4.73287 2.209 0
M  V30 379 H 35.4963 -2.58372 1.51275 0
M  V30 380 H 33.0423 -1.24194 0.728818 0
M  V30 381 H 34.9953 -4.20268 -0.308675 0
M  V30 382 H 33.7193 -3.12933 -0.934907 0
M  V30 383 H 32.3783 -3.47446 1.16949 0
M  V30 384 H 32.0263 -4.96469 -0.807902 0
M  V30 385 H 31.7263 -5.83183 0.719087 0
M  V30 386 H 33.2503 -6.10355 -0.172871 0
M  V30 387 H 34.6643 -5.38013 1.98028 0
M  V30 388 H 33.0613 -5.32373 2.76946 0
M  V30 389 H 34.1313 -3.91331 2.86336 0
M  V30 390 N 35.4744 -0.807222 -1.35358 0
M  V30 391 C 36.4374 -0.223665 -2.28106 0
M  V30 392 C 37.4374 0.589354 -1.4961 0
M  V30 393 O 38.6274 0.407745 -1.69361 0
M  V30 394 C 35.7594 0.688149 -3.33882 0
M  V30 395 H 36.9524 -1.04169 -2.81227 0
M  V30 396 H 34.5054 -0.577921 -1.45223 0
M  V30 397 H 35.2404 1.52984 -2.85948 0
M  V30 398 H 35.0254 0.10687 -3.91954 0
M  V30 399 H 36.5154 1.09075 -4.03104 0
M  V30 400 N 36.9525 1.47285 -0.560781 0
M  V30 401 C 37.8995 2.30058 0.18491 0
M  V30 402 C 38.8695 1.39281 0.904986 0
M  V30 403 O 40.0545 1.68241 0.899979 0
M  V30 404 C 37.1945 3.23317 1.20666 0
M  V30 405 C 36.3075 4.29186 0.492285 0
M  V30 406 C 35.4425 5.09592 1.49964 0
M  V30 407 C 34.4815 6.07232 0.770439 0
M  V30 408 N 33.6185 6.80584 1.72479 0
M  V30 409 H 38.4585 2.93302 -0.527048 0
M  V30 410 H 35.9955 1.44568 -0.271738 0
M  V30 411 H 37.9535 3.75811 1.81168 0
M  V30 412 H 36.5835 2.61929 1.88661 0
M  V30 413 H 35.6355 3.7972 -0.227333 0
M  V30 414 H 36.9475 4.98738 -0.0787929 0
M  V30 415 H 36.1015 5.66254 2.17809 0
M  V30 416 H 34.8405 4.3995 2.10464 0
M  V30 417 H 33.8455 5.49745 0.0780846 0
M  V30 418 H 35.0705 6.78884 0.171134 0
M  V30 419 H 33.0165 6.1367 2.3183 0
M  V30 420 H 32.9335 7.46319 1.20596 0
M  V30 421 H 34.2015 7.41818 2.39428 0
M  V30 422 N 38.4306 0.297415 1.54768 0
M  V30 423 C 39.6606 -0.315165 2.04182 0
M  V30 424 C 40.0686 -1.4834 1.17439 0
M  V30 425 O 39.4116 -1.82695 0.191891 0
M  V30 426 C 39.4736 -0.837583 3.49607 0
M  V30 427 C 39.1376 0.204912 4.5654 0
M  V30 428 C 40.1346 1.03214 5.09552 0
M  V30 429 C 37.8196 0.345578 5.0111 0
M  V30 430 C 39.8136 1.986 6.05671 0
M  V30 431 C 37.5006 1.30289 5.97049 0
M  V30 432 C 38.4986 2.12159 6.49213 0
M  V30 433 O 38.1866 3.06268 7.43273 0
M  V30 434 H 37.9186 -0.0729646 0.672051 0
M  V30 435 H 40.4726 0.433907 2.00765 0
M  V30 436 H 38.7026 -1.63712 3.50336 0
M  V30 437 H 40.3916 -1.36566 3.82236 0
M  V30 438 H 41.1576 0.934312 4.75916 0
M  V30 439 H 37.0366 -0.28171 4.60138 0
M  V30 440 H 40.5806 2.62542 6.46311 0
M  V30 441 H 36.4776 1.40145 6.30103 0
M  V30 442 H 37.2456 3.01205 7.61064 0
M  V30 443 N 39.9087 -1.5758 0.0250728 0
M  V30 444 C 40.8187 -2.1343 -0.973905 0
M  V30 445 C 41.8347 -1.08556 -1.35984 0
M  V30 446 O 43.0107 -1.40592 -1.44207 0
M  V30 447 C 40.0757 -2.64703 -2.23904 0
M  V30 448 C 39.1367 -3.84276 -1.91391 0
M  V30 449 C 38.3697 -4.33095 -3.11873 0
M  V30 450 O 38.5927 -3.81107 -4.24398 0
M  V30 451 O 37.5267 -5.24984 -2.94406 0
M  V30 452 H 41.3527 -2.99057 -0.529036 0
M  V30 453 H 38.9377 -1.48118 -0.195288 0
M  V30 454 H 40.8197 -2.97769 -2.98181 0
M  V30 455 H 39.4947 -1.82161 -2.6758 0
M  V30 456 H 38.4017 -3.56143 -1.14511 0
M  V30 457 H 39.7347 -4.67968 -1.52534 0
M  V30 458 N 41.3868 0.248026 -1.55636 0
M  V30 459 C 42.6168 0.992367 -1.81206 0
M  V30 460 C 43.0248 1.7949 -0.598324 0
M  V30 461 O 42.3678 1.78292 0.442434 0
M  V30 462 C 42.4298 1.97926 -3.00109 0
M  V30 463 C 42.0938 1.36377 -4.36177 0
M  V30 464 C 43.0908 0.76682 -5.14214 0
M  V30 465 C 40.7758 1.38347 -4.82872 0
M  V30 466 C 42.7698 0.197778 -6.37093 0
M  V30 467 C 40.4568 0.810574 -6.057 0
M  V30 468 C 41.4548 0.218754 -6.8265 0
M  V30 469 O 41.1428 -0.345298 -8.03158 0
M  V30 470 H 40.8748 0.297704 -0.606917 0
M  V30 471 H 43.4288 0.276517 -2.0353 0
M  V30 472 H 41.6588 2.73339 -2.73538 0
M  V30 473 H 43.3478 2.58694 -3.12781 0
M  V30 474 H 44.1138 0.744114 -4.79258 0
M  V30 475 H 39.9928 1.8335 -4.2297 0
M  V30 476 H 43.5368 -0.264788 -6.97097 0
M  V30 477 H 39.4338 0.830604 -6.40134 0
M  V30 478 H 40.2018 -0.237055 -8.18157 0
M  V30 479 N 42.8649 1.48995 0.513639 0
M  V30 480 C 43.7979 1.59319 1.63379 0
M  V30 481 C 44.7759 0.442816 1.56454 0
M  V30 482 O 45.9599 0.656655 1.76693 0
M  V30 483 C 43.0869 1.5364 3.01848 0
M  V30 484 C 42.1329 2.7372 3.27078 0
M  V30 485 S 42.9659 4.35528 3.1157 0
M  V30 486 C 44.1219 4.32473 4.52458 0
M  V30 487 H 44.3549 2.54079 1.54374 0
M  V30 488 H 41.8879 1.3773 0.697849 0
M  V30 489 H 43.8459 1.51049 3.81699 0
M  V30 490 H 42.5069 0.601898 3.08279 0
M  V30 491 H 41.6999 2.6593 4.28132 0
M  V30 492 H 41.3019 2.73657 2.54927 0
M  V30 493 H 43.5939 4.03414 5.44301 0
M  V30 494 H 44.5369 5.33762 4.65299 0
M  V30 495 H 44.9449 3.62718 4.32546 0
M  V30 496 N 44.343 -0.763751 1.37857 0
M  V30 497 C 45.253 -1.90817 1.36478 0
M  V30 498 C 46.269 -1.71997 0.263248 0
M  V30 499 O 47.445 -1.95095 0.499979 0
M  V30 500 C 44.51 -3.2605 1.17864 0
M  V30 501 C 43.571 -3.57467 2.3773 0
M  V30 502 C 42.804 -4.86249 2.19995 0
M  V30 503 O 43.027 -5.57884 1.18836 0
M  V30 504 O 41.961 -5.16911 3.08361 0
M  V30 505 H 45.787 -1.94933 2.32884 0
M  V30 506 H 43.372 -0.907619 1.1867 0
M  V30 507 H 45.254 -4.06924 1.09504 0
M  V30 508 H 43.929 -3.22769 0.245372 0
M  V30 509 H 42.836 -2.76796 2.51664 0
M  V30 510 H 44.169 -3.655 3.29652 0
M  V30 511 N 45.8211 -1.22559 -0.990812 0
M  V30 512 C 46.7311 -1.01394 -2.11557 0
M  V30 513 C 47.7471 0.0383962 -1.73958 0
M  V30 514 O 48.9231 -0.154787 -2.00804 0
M  V30 515 C 45.9881 -0.596569 -3.41529 0
M  V30 516 C 45.0491 -1.72276 -3.93217 0
M  V30 517 C 44.2821 -1.32521 -5.16985 0
M  V30 518 O 44.5051 -0.204909 -5.70032 0
M  V30 519 O 43.4391 -2.14247 -5.62478 0
M  V30 520 H 47.2651 -1.95633 -2.32296 0
M  V30 521 H 44.8501 -1.01172 -1.0993 0
M  V30 522 H 46.7321 -0.374263 -4.19735 0
M  V30 523 H 45.4071 0.316939 -3.22145 0
M  V30 524 H 44.3141 -1.99961 -3.16174 0
M  V30 525 H 45.6471 -2.61421 -4.17037 0
M  V30 526 N 47.2992 1.18797 -1.03562 0
M  V30 527 C 48.2312 2.21731 -0.580337 0
M  V30 528 C 49.2442 1.59051 0.347349 0
M  V30 529 O 50.4332 1.77929 0.142669 0
M  V30 530 C 47.5332 3.38459 0.172805 0
M  V30 531 C 46.7062 4.3072 -0.761496 0
M  V30 532 C 45.7652 5.26174 -0.0525547 0
M  V30 533 O 44.7912 5.65108 -0.681333 0
M  V30 534 N 45.9932 5.67624 1.21586 0
M  V30 535 H 48.7582 2.61417 -1.46565 0
M  V30 536 H 46.3192 1.33531 -0.915476 0
M  V30 537 H 48.3112 3.99335 0.656793 0
M  V30 538 H 46.8812 2.97507 0.959602 0
M  V30 539 H 46.1012 3.67525 -1.42544 0
M  V30 540 H 47.3892 4.89267 -1.39626 0
M  V30 541 H 46.7872 5.38038 1.74732 0
M  V30 542 H 45.3442 6.30721 1.64421 0
M  V30 543 N 48.7773 0.814389 1.34928 0
M  V30 544 C 50.0233 0.399013 1.98836 0
M  V30 545 C 50.3563 -1.03314 1.64438 0
M  V30 546 O 49.6313 -1.71811 0.911659 0
M  V30 547 C 49.9143 0.591629 3.55207 0
M  V30 548 C 49.7673 2.06928 3.99376 0
M  V30 549 C 51.0863 0.022199 4.40094 0
M  V30 550 H 48.2053 0.146451 0.722303 0
M  V30 551 H 50.8473 1.02537 1.59957 0
M  V30 552 H 48.9973 0.0584441 3.88456 0
M  V30 553 H 50.6693 2.66544 3.76499 0
M  V30 554 H 48.9123 2.56287 3.49999 0
M  V30 555 H 49.5833 2.1549 5.08201 0
M  V30 556 H 52.0593 0.477643 4.13349 0
M  V30 557 H 50.9353 0.186832 5.48582 0
M  V30 558 H 51.1963 -1.07215 4.28902 0
M  V30 559 N 50.2554 -1.46986 0.568584 0
M  V30 560 C 51.5044 -2.01646 0.0465894 0
M  V30 561 C 51.8174 -1.44721 -1.31587 0
M  V30 562 O 53.0234 -1.91113 -1.92842 0
M  V30 563 C 51.4794 -3.59885 0.032752 0
M  V30 564 C 51.0874 -4.25804 1.39266 0
M  V30 565 C 52.8314 -4.22255 -0.436038 0
M  V30 566 C 50.7384 -5.76081 1.33732 0
M  V30 567 H 49.6684 -0.753876 0.013647 0
M  V30 568 H 52.3194 -1.68864 0.718131 0
M  V30 569 H 50.7014 -3.8968 -0.704669 0
M  V30 570 H 51.8754 -4.07637 2.1487 0
M  V30 571 H 50.1904 -3.7547 1.80032 0
M  V30 572 H 52.7874 -5.32394 -0.49602 0
M  V30 573 H 53.1304 -3.90212 -1.45053 0
M  V30 574 H 53.6634 -3.97033 0.246877 0
M  V30 575 H 50.4024 -6.12761 2.32817 0
M  V30 576 H 49.9224 -5.96553 0.623267 0
M  V30 577 H 51.6014 -6.38518 1.0442 0
M  V30 578 N 51.7335 -0.305618 -1.54608 0
M  V30 579 C 52.6635 0.561482 -2.26649 0
M  V30 580 C 53.6445 1.13415 -1.26772 0
M  V30 581 O 54.8295 1.16262 -1.55553 0
M  V30 582 C 51.9595 1.73122 -3.01075 0
M  V30 583 C 50.9135 1.2887 -4.08138 0
M  V30 584 C 50.2395 2.54396 -4.70305 0
M  V30 585 C 51.5395 0.416578 -5.20636 0
M  V30 586 H 53.2335 -0.0393902 -2.99374 0
M  V30 587 H 50.7795 -0.020385 -1.43986 0
M  V30 588 H 52.7325 2.34396 -3.50195 0
M  V30 589 H 51.4565 2.3584 -2.25936 0
M  V30 590 H 50.1155 0.698991 -3.59875 0
M  V30 591 H 49.7635 3.15439 -3.918 0
M  V30 592 H 49.4635 2.25486 -5.42614 0
M  V30 593 H 50.9875 3.16464 -5.2219 0
M  V30 594 H 52.4015 0.935116 -5.65622 0
M  V30 595 H 50.7985 0.221046 -5.99693 0
M  V30 596 H 51.8685 -0.557162 -4.81688 0
M  V30 597 N 53.2116 1.57565 -0.0334293 0
M  V30 598 C 54.4396 1.9628 0.654347 0
M  V30 599 C 54.8546 0.910138 1.65414 0
M  V30 600 O 54.2116 -0.107595 1.82183 0
M  V30 601 C 54.2626 3.35067 1.35693 0
M  V30 602 O 53.9836 4.36296 0.397191 0
M  V30 603 C 55.4846 3.88439 2.13613 0
M  V30 604 H 52.7046 0.646369 0.180132 0
M  V30 605 H 55.2486 2.04282 -0.0944721 0
M  V30 606 H 53.4036 3.2827 2.05712 0
M  V30 607 H 53.8176 5.1678 0.896597 0
M  V30 608 H 55.2916 4.8788 2.58219 0
M  V30 609 H 55.7686 3.22914 2.97696 0
M  V30 610 H 56.3746 3.98516 1.48543 0
M  V30 611 N 54.6897 -0.239769 1.55765 0
M  V30 612 C 55.5997 -1.31831 1.94056 0
M  V30 613 C 56.6157 -1.52275 0.841925 0
M  V30 614 O 57.7917 -1.65759 1.14394 0
M  V30 615 C 54.8567 -2.65156 2.23368 0
M  V30 616 C 53.9177 -2.53173 3.46701 0
M  V30 617 C 53.1507 -3.8014 3.74606 0
M  V30 618 O 53.3737 -4.82343 3.04469 0
M  V30 619 O 52.3077 -3.78344 4.68123 0
M  V30 620 H 56.1337 -1.02347 2.85935 0
M  V30 621 H 53.7187 -0.441123 1.42739 0
M  V30 622 H 55.6007 -3.43929 2.43497 0
M  V30 623 H 54.2757 -2.94358 1.34666 0
M  V30 624 H 53.1827 -1.72662 3.31871 0
M  V30 625 H 54.5157 -2.28915 4.35728 0
M  V30 626 N 56.1678 -1.49265 -0.50573 0
M  V30 627 C 57.1148 -1.65585 -1.6078 0
M  V30 628 C 58.0848 -0.497396 -1.58478 0
M  V30 629 O 59.2698 -0.72385 -1.76536 0
M  V30 630 C 56.4098 -1.72408 -2.98948 0
M  V30 631 C 55.5228 -2.99525 -3.11301 0
M  V30 632 C 54.6578 -2.97356 -4.40174 0
M  V30 633 C 53.6968 -4.19074 -4.46143 0
M  V30 634 N 52.8338 -4.14841 -5.66437 0
M  V30 635 H 57.6738 -2.59688 -1.46172 0
M  V30 636 H 55.2108 -1.28761 -0.711261 0
M  V30 637 H 57.1688 -1.74344 -3.79025 0
M  V30 638 H 55.7988 -0.817753 -3.1227 0
M  V30 639 H 54.8508 -3.07222 -2.24318 0
M  V30 640 H 56.1628 -3.89518 -3.11572 0
M  V30 641 H 55.3168 -2.97829 -5.28567 0
M  V30 642 H 54.0558 -2.05133 -4.42461 0
M  V30 643 H 53.0608 -4.1885 -3.56153 0
M  V30 644 H 54.2858 -5.12483 -4.45575 0
M  V30 645 H 52.2318 -3.25453 -5.69575 0
M  V30 646 H 52.1488 -4.98564 -5.68304 0
M  V30 647 H 53.4168 -4.1941 -6.57051 0
M  V30 648 N 57.6459 0.756429 -1.3826 0
M  V30 649 C 58.9229 1.50584 -1.24835 0
M  V30 650 C 59.3029 2.10556 0.151485 0
M  V30 651 O 58.6509 1.96825 1.1607 0
M  V30 652 C 58.8609 2.57448 -2.3563 0
M  V30 653 C 60.2089 3.24429 -2.73917 0
M  V30 654 O 61.2329 2.67751 -2.34921 0
M  V30 655 O 60.0919 4.26937 -3.41156 0
M  V30 656 H 57.1859 0.667664 -0.48801 0
M  V30 657 H 59.7319 0.792083 -1.5008 0
M  V30 658 H 58.5039 2.11362 -3.29305 0
M  V30 659 H 58.1269 3.36408 -2.11933 0
M  V30 660 N 59.124 1.23083 0.984299 0
M  V30 661 C 60.054 1.03292 2.09411 0
M  V30 662 C 61.035 -0.048923 1.7003 0
M  V30 663 O 62.22 0.114967 1.93859 0
M  V30 664 C 59.35 0.619155 3.41736 0
M  V30 665 C 58.304 1.64791 3.95004 0
M  V30 666 C 57.63 1.0897 5.23478 0
M  V30 667 C 58.93 3.03999 4.24714 0
M  V30 668 H 60.624 1.96119 2.26225 0
M  V30 669 H 58.17 0.944344 1.08711 0
M  V30 670 H 60.123 0.467777 4.18796 0
M  V30 671 H 58.847 -0.344786 3.24775 0
M  V30 672 H 57.506 1.78721 3.20085 0
M  V30 673 H 57.154 0.11686 5.02864 0
M  V30 674 H 56.854 1.77704 5.60085 0
M  V30 675 H 58.378 0.950093 6.03163 0
M  V30 676 H 59.792 2.93393 4.92538 0
M  V30 677 H 58.189 3.69936 4.72512 0
M  V30 678 H 59.259 3.53285 3.32142 0
M  V30 679 N 60.6021 -1.18246 1.0419 0
M  V30 680 C 61.5321 -2.24127 0.654914 0
M  V30 681 C 62.5131 -1.66617 -0.342451 0
M  V30 682 O 63.6981 -1.92924 -0.222277 0
M  V30 683 C 60.8281 -3.47295 0.0183757 0
M  V30 684 C 59.7821 -4.17563 0.939414 0
M  V30 685 C 59.1081 -5.34438 0.167286 0
M  V30 686 C 60.4081 -4.70917 2.25908 0
M  V30 687 H 62.1021 -2.56753 1.54007 0
M  V30 688 H 59.6481 -1.23414 0.74195 0
M  V30 689 H 61.6011 -4.20572 -0.264082 0
M  V30 690 H 60.3251 -3.13907 -0.901664 0
M  V30 691 H 58.9841 -3.46186 1.20628 0
M  V30 692 H 58.6321 -4.97298 -0.7552 0
M  V30 693 H 58.3321 -5.82388 0.780901 0
M  V30 694 H 59.8561 -6.10504 -0.108125 0
M  V30 695 H 61.2701 -5.35882 2.03724 0
M  V30 696 H 59.6671 -5.29406 2.82577 0
M  V30 697 H 60.7371 -3.88272 2.9047 0
M  V30 698 N 62.0802 -0.821533 -1.34494 0
M  V30 699 C 62.9902 -0.244355 -2.33324 0
M  V30 700 C 64.0062 0.620527 -1.62559 0
M  V30 701 O 65.1822 0.528754 -1.94335 0
M  V30 702 C 62.2472 0.585368 -3.41723 0
M  V30 703 C 61.3082 -0.301752 -4.28238 0
M  V30 704 C 60.5412 0.488466 -5.3146 0
M  V30 705 O 60.7642 1.72186 -5.4379 0
M  V30 706 O 59.6982 -0.12848 -6.01763 0
M  V30 707 H 63.5242 -1.06231 -2.84515 0
M  V30 708 H 61.1092 -0.583645 -1.37528 0
M  V30 709 H 62.9912 1.05747 -4.07916 0
M  V30 710 H 61.6662 1.38068 -2.92778 0
M  V30 711 H 60.5732 -0.821315 -3.64973 0
M  V30 712 H 61.9062 -1.06138 -4.8062 0
M  V30 713 N 63.5583 1.46682 -0.576371 0
M  V30 714 C 64.8353 1.95599 0.00703437 0
M  V30 715 C 65.2153 1.51904 1.46589 0
M  V30 716 O 64.5633 0.766755 2.15251 0
M  V30 717 C 64.7733 3.4864 -0.158404 0
M  V30 718 C 66.1213 4.24594 -0.0229439 0
M  V30 719 O 67.1453 3.56094 -0.0869173 0
M  V30 720 O 66.0043 5.46373 0.118015 0
M  V30 721 H 63.0983 0.825275 0.053384 0
M  V30 722 H 65.6443 1.56996 -0.644244 0
M  V30 723 H 64.4163 3.7331 -1.17282 0
M  V30 724 H 64.0393 3.94057 0.5296 0
M  V30 725 N 65.0364 0.313813 1.54444 0
M  V30 726 C 66.2844 -0.291099 1.99993 0
M  V30 727 C 66.6054 -1.53418 1.20366 0
M  V30 728 O 65.8754 -1.93544 0.302927 0
M  V30 729 H 64.4554 -0.110552 0.738774 0
M  V30 730 H 67.1174 0.428106 1.9014 0
M  V30 731 H 66.2134 -0.554268 3.07139 0
M  V30 732 N 66.5145 -1.57545 0.0417849 0
M  V30 733 C 67.7615 -1.92317 -0.634082 0
M  V30 734 C 68.0895 -0.919334 -1.71402 0
M  V30 735 O 67.3445 0.0698253 -1.95575 0
M  V30 736 C 67.6435 -3.33794 -1.27735 0
M  V30 737 C 67.3095 -4.49716 -0.326543 0
M  V30 738 C 65.9715 -4.81156 -0.0648814 0
M  V30 739 C 68.3235 -5.20182 0.325623 0
M  V30 740 C 65.6515 -5.80414 0.856539 0
M  V30 741 C 68.0035 -6.20424 1.23518 0
M  V30 742 C 66.6675 -6.50298 1.5056 0
M  V30 743 H 65.9375 -0.703736 -0.232027 0
M  V30 744 H 68.5845 -1.91205 0.106259 0
M  V30 745 H 66.8895 -3.31228 -2.09274 0
M  V30 746 H 68.5865 -3.57975 -1.80707 0
M  V30 747 H 65.1765 -4.25176 -0.540665 0
M  V30 748 H 69.3605 -4.96112 0.136546 0
M  V30 749 H 64.6165 -6.019 1.07363 0
M  V30 750 H 68.7905 -6.74141 1.74664 0
M  V30 751 H 66.4175 -7.27025 2.22123 0
M  V30 752 N 67.9926 0.231505 -1.5589 0
M  V30 753 C 69.2406 0.955461 -1.78088 0
M  V30 754 C 69.5616 1.85262 -0.608533 0
M  V30 755 O 68.8316 1.92277 0.375035 0
M  V30 756 H 67.4116 0.355787 -0.656829 0
M  V30 757 H 70.0736 0.245751 -1.93344 0
M  V30 758 H 69.1696 1.56814 -2.69844 0
M  V30 759 N 69.4707 1.49531 0.497807 0
M  V30 760 C 70.3807 1.69176 1.62532 0
M  V30 761 C 71.3967 0.5744 1.64246 0
M  V30 762 O 72.5727 0.849497 1.82608 0
M  V30 763 C 69.6377 1.75695 2.98885 0
M  V30 764 C 68.6987 2.9929 3.07773 0
M  V30 765 C 67.9317 3.05488 4.37622 0
M  V30 766 O 68.1547 2.19192 5.26603 0
M  V30 767 O 67.0887 3.9798 4.51548 0
M  V30 768 H 70.9147 2.647 1.48887 0
M  V30 769 H 68.4997 1.3331 0.674441 0
M  V30 770 H 70.3817 1.82317 3.79919 0
M  V30 771 H 69.0567 0.8335 3.12785 0
M  V30 772 H 67.9637 2.98183 2.25915 0
M  V30 773 H 69.2967 3.91125 2.98801 0
M  V30 774 N 70.9488 -0.749086 1.3866 0
M  V30 775 C 71.8988 -1.85368 1.32751 0
M  V30 776 C 72.8828 -1.59511 0.210945 0
M  V30 777 O 74.0748 -1.71255 0.447299 0
M  V30 778 C 71.2038 -3.23131 1.15935 0
M  V30 779 C 70.2898 -3.54864 2.32233 0
M  V30 780 N 70.6808 -3.57625 3.57684 0
M  V30 781 C 68.9788 -3.85154 2.24883 0
M  V30 782 C 69.6798 -3.86753 4.34508 0
M  V30 783 N 68.6558 -4.03812 3.63918 0
M  V30 784 H 72.4578 -1.85787 2.27729 0
M  V30 785 H 69.9718 -0.946658 1.31955 0
M  V30 786 H 71.9688 -4.02185 1.09786 0
M  V30 787 H 70.6288 -3.23961 0.218947 0
M  V30 788 H 71.6398 -3.39276 3.91295 0
M  V30 789 H 68.3168 -3.93672 1.39027 0
M  V30 790 H 69.7068 -3.95474 5.43185 0
M  V30 791 N 72.4269 -1.23603 -0.977757 0
M  V30 792 C 73.8379 -1.06424 -1.53398 0
M  V30 793 C 74.1889 0.367578 -1.92726 0
M  V30 794 O 73.3139 1.25465 -1.76316 0
M  V30 795 C 73.9089 -1.92568 -2.78753 0
M  V30 796 C 72.4679 -1.79642 -3.30765 0
M  V30 797 C 71.6149 -1.88111 -2.03739 0
M  V30 798 H 74.5659 -1.37227 -0.797152 0
M  V30 799 H 74.5869 -1.45203 -3.51705 0
M  V30 800 H 74.0989 -2.96771 -2.50098 0
M  V30 801 H 72.1999 -0.782325 -3.64294 0
M  V30 802 H 72.3129 -2.63174 -4.00345 0
M  V30 803 H 70.6769 -1.31723 -2.17994 0
M  V30 804 H 71.4599 -2.93875 -1.77461 0
M  V30 805 N 73.905 1.17692 -1.04816 0
M  V30 806 C 75.152 1.87859 -0.75599 0
M  V30 807 C 75.48 1.80812 0.716752 0
M  V30 808 O 74.735 1.20819 1.53952 0
M  V30 809 C 75.034 3.37462 -1.17703 0
M  V30 810 C 74.7 3.64713 -2.65133 0
M  V30 811 C 73.362 3.71859 -3.05408 0
M  V30 812 C 75.714 3.76492 -3.60421 0
M  V30 813 C 73.042 3.88271 -4.39843 0
M  V30 814 C 75.394 3.94421 -4.94585 0
M  V30 815 C 74.058 3.99806 -5.3452 0
M  V30 816 H 73.328 0.687425 -0.276636 0
M  V30 817 H 75.975 1.39255 -1.31455 0
M  V30 818 H 74.28 3.88097 -0.537395 0
M  V30 819 H 75.977 3.90109 -0.928218 0
M  V30 820 H 72.567 3.59772 -2.32942 0
M  V30 821 H 76.751 3.70295 -3.30447 0
M  V30 822 H 72.007 3.90687 -4.70291 0
M  V30 823 H 76.181 4.02477 -5.68318 0
M  V30 824 H 73.808 4.12276 -6.38696 0
M  V30 825 N 75.3831 0.828654 1.34056 0
M  V30 826 C 76.6131 0.431993 2.02033 0
M  V30 827 C 77.0211 -0.96844 1.62536 0
M  V30 828 O 76.3641 -1.6391 0.829408 0
M  V30 829 C 76.4261 0.461224 3.56529 0
M  V30 830 C 76.0901 1.81599 4.1937 0
M  V30 831 C 77.0871 2.7777 4.39477 0
M  V30 832 C 74.7721 2.10604 4.56017 0
M  V30 833 C 76.7661 4.01115 4.95364 0
M  V30 834 C 74.4531 3.34207 5.11614 0
M  V30 835 C 75.4511 4.2928 5.31232 0
M  V30 836 O 75.1391 5.50699 5.8565 0
M  V30 837 H 74.8711 0.170943 0.654029 0
M  V30 838 H 77.4251 1.11988 1.72185 0
M  V30 839 H 75.6551 -0.283388 3.8566 0
M  V30 840 H 77.3441 0.0838149 4.05813 0
M  V30 841 H 78.1101 2.56659 4.11523 0
M  V30 842 H 73.9891 1.37402 4.40047 0
M  V30 843 H 77.5331 4.75333 5.10592 0
M  V30 844 H 73.4301 3.55179 5.38997 0
M  V30 845 H 74.1981 5.52298 6.04077 0
M  V30 846 N 76.8612 -1.46375 0.584142 0
M  V30 847 C 77.8112 -2.27371 -0.169232 0
M  V30 848 C 78.7952 -1.35955 -0.860523 0
M  V30 849 O 79.9872 -1.60119 -0.754382 0
M  V30 850 C 77.1162 -3.22334 -1.18134 0
M  V30 851 C 76.2022 -4.21235 -0.492088 0
M  V30 852 N 76.5932 -5.03766 0.453129 0
M  V30 853 C 74.8912 -4.39773 -0.742652 0
M  V30 854 C 75.5922 -5.75366 0.85609 0
M  V30 855 N 74.5682 -5.43214 0.204926 0
M  V30 856 H 78.3702 -2.88572 0.557097 0
M  V30 857 H 75.8842 -1.57242 0.406042 0
M  V30 858 H 77.8812 -3.79071 -1.73525 0
M  V30 859 H 76.5412 -2.62693 -1.90847 0
M  V30 860 H 77.5522 -5.11227 0.828723 0
M  V30 861 H 74.2292 -3.91279 -1.45625 0
M  V30 862 H 75.6192 -6.5172 1.63434 0
M  V30 863 N 78.3393 -0.321999 -1.54275 0
M  V30 864 C 79.5793 0.281657 -2.0245 0
M  V30 865 C 79.9433 1.49468 -1.20513 0
M  V30 866 O 81.1443 2.17109 -1.58484 0
M  V30 867 C 79.4153 0.609014 -3.52173 0
M  V30 868 S 80.9743 1.19255 -4.22284 0
M  V30 869 H 77.7923 0.0852825 -0.705867 0
M  V30 870 H 80.3943 -0.454758 -1.90137 0
M  V30 871 H 79.0983 -0.281982 -4.0943 0
M  V30 872 H 78.6293 1.37567 -3.68563 0
M  V30 873 H 80.6443 2.47944 -4.29812 0
M  V30 874 N 79.8174 1.5752 -0.0501392 0
M  V30 875 C 80.7474 2.14502 0.922566 0
M  V30 876 C 81.7284 1.06642 1.3252 0
M  V30 877 O 82.9134 1.34577 1.4001 0
M  V30 878 C 80.0434 2.68916 2.19776 0
M  V30 879 C 78.9974 3.8175 1.93523 0
M  V30 880 C 78.3234 4.22677 3.27487 0
M  V30 881 C 79.6234 5.06932 1.25765 0
M  V30 882 H 81.3174 2.9603 0.447952 0
M  V30 883 H 78.8634 1.42401 0.214024 0
M  V30 884 H 80.8164 3.07419 2.88222 0
M  V30 885 H 79.5404 1.84578 2.69441 0
M  V30 886 H 78.1994 3.43718 1.27489 0
M  V30 887 H 77.8474 3.35291 3.74952 0
M  V30 888 H 77.5474 4.98725 3.1072 0
M  V30 889 H 79.0714 4.63779 3.97166 0
M  V30 890 H 80.4854 5.42888 1.84244 0
M  V30 891 H 78.8824 5.88116 1.19328 0
M  V30 892 H 79.9524 4.84337 0.233536 0
M  V30 893 N 81.2955 -0.223234 1.56011 0
M  V30 894 C 82.5415 -0.949279 1.79211 0
M  V30 895 C 82.8745 -1.84054 0.619494 0
M  V30 896 O 82.1495 -1.90726 -0.381317 0
M  V30 897 C 82.4325 -1.78965 3.12479 0
M  V30 898 C 82.2855 -0.924997 4.40186 0
M  V30 899 C 83.6045 -2.76774 3.42175 0
M  V30 900 H 80.7235 -0.343676 0.651963 0
M  V30 901 H 83.3655 -0.218253 1.88742 0
M  V30 902 H 81.5155 -2.41291 3.04485 0
M  V30 903 H 83.1875 -0.318615 4.60198 0
M  V30 904 H 81.4305 -0.230344 4.33188 0
M  V30 905 H 82.1015 -1.54735 5.29869 0
M  V30 906 H 84.5775 -2.24584 3.50287 0
M  V30 907 H 83.4535 -3.32678 4.36597 0
M  V30 908 H 83.7145 -3.54429 2.64258 0
M  V30 909 N 82.7736 -1.49793 -0.48987 0
M  V30 910 C 83.7366 -1.66752 -1.57246 0
M  V30 911 C 84.7366 -0.538867 -1.51502 0
M  V30 912 O 85.9266 -0.805545 -1.54456 0
M  V30 913 C 83.0586 -1.67528 -2.96896 0
M  V30 914 H 84.2516 -2.63321 -1.43534 0
M  V30 915 H 81.8046 -1.38992 -0.714914 0
M  V30 916 H 82.5396 -0.725837 -3.16073 0
M  V30 917 H 82.3246 -2.49504 -3.02473 0
M  V30 918 H 83.8146 -1.82667 -3.7553 0
M  V30 919 N 84.2517 0.741722 -1.39055 0
M  V30 920 C 85.1617 1.88621 -1.39496 0
M  V30 921 C 86.1777 1.71557 -0.290578 0
M  V30 922 O 87.3537 1.94275 -0.530954 0
M  V30 923 C 84.4187 3.24134 -1.23037 0
M  V30 924 C 83.4797 3.5364 -2.43387 0
M  V30 925 C 82.7127 4.82687 -2.27703 0
M  V30 926 O 82.9357 5.55922 -1.27696 0
M  V30 927 O 81.8697 5.1194 -3.16545 0
M  V30 928 H 85.6957 1.91203 -2.35956 0
M  V30 929 H 83.2807 0.888625 -1.20099 0
M  V30 930 H 85.1627 4.0513 -1.15964 0
M  V30 931 H 83.8377 3.22337 -0.296691 0
M  V30 932 H 82.7447 2.72758 -2.56035 0
M  V30 933 H 84.0777 3.60209 -3.35425 0
M  V30 934 N 85.7298 1.2412 0.971189 0
M  V30 935 C 86.9758 1.08041 1.71625 0
M  V30 936 C 87.3088 -0.380407 1.90438 0
M  V30 937 O 86.5838 -1.28127 1.46334 0
M  V30 938 C 86.8668 1.81682 3.10908 0
M  V30 939 C 86.7198 3.35493 2.99608 0
M  V30 940 C 88.0388 1.58671 4.10501 0
M  V30 941 H 85.1578 0.39388 0.622919 0
M  V30 942 H 87.7998 1.52743 1.13003 0
M  V30 943 H 85.9498 1.43684 3.60953 0
M  V30 944 H 87.6218 3.83068 2.57015 0
M  V30 945 H 85.8648 3.64052 2.35899 0
M  V30 946 H 86.5358 3.82217 3.98264 0
M  V30 947 H 89.0118 1.91719 3.69301 0
M  V30 948 H 87.8878 2.1266 5.06031 0
M  V30 949 H 88.1488 0.524161 4.38982 0
M  V30 950 N 87.2079 -1.17134 1.05439 0
M  V30 951 C 88.6189 -1.69084 0.791676 0
M  V30 952 C 88.9699 -1.83822 -0.685839 0
M  V30 953 O 88.0949 -1.52757 -1.53278 0
M  V30 954 C 88.6899 -3.07119 1.4305 0
M  V30 955 C 87.2489 -3.56225 1.21577 0
M  V30 956 C 86.3959 -2.32421 1.51247 0
M  V30 957 H 89.3469 -1.01617 1.219 0
M  V30 958 H 89.3679 -3.71087 0.84112 0
M  V30 959 H 88.8799 -2.9636 2.50584 0
M  V30 960 H 86.9809 -3.72257 0.159787 0
M  V30 961 H 87.0939 -4.38837 1.92246 0
M  V30 962 H 85.4579 -2.3701 0.932653 0
M  V30 963 H 86.2409 -2.24268 2.5992 0
M  V30 964 N 88.686 -0.835752 -1.33615 0
M  V30 965 C 89.633 -0.26473 -2.29277 0
M  V30 966 C 90.603 0.617712 -1.54187 0
M  V30 967 O 91.788 0.556641 -1.825 0
M  V30 968 C 88.928 0.556777 -3.40579 0
M  V30 969 C 88.041 -0.349339 -4.30585 0
M  V30 970 C 87.176 0.482969 -5.29 0
M  V30 971 C 86.215 -0.421732 -6.10645 0
M  V30 972 N 85.352 0.372262 -7.01112 0
M  V30 973 H 90.192 -1.08582 -2.77514 0
M  V30 974 H 87.729 -0.546927 -1.36554 0
M  V30 975 H 89.687 1.04852 -4.03809 0
M  V30 976 H 88.317 1.34286 -2.93542 0
M  V30 977 H 87.369 -0.959372 -3.68104 0
M  V30 978 H 88.681 -1.04445 -4.87742 0
M  V30 979 H 87.835 1.03866 -5.97743 0
M  V30 980 H 86.574 1.21153 -4.72412 0
M  V30 981 H 85.579 -0.989464 -5.40823 0
M  V30 982 H 86.804 -1.14861 -6.69316 0
M  V30 983 H 84.75 1.08426 -6.46977 0
M  V30 984 H 84.667 -0.264198 -7.55538 0
M  V30 985 H 85.935 0.910293 -7.74167 0
M  V30 986 N 90.1641 1.46063 -0.591896 0
M  V30 987 C 91.0741 2.34192 0.13831 0
M  V30 988 C 92.0901 1.50305 0.876608 0
M  V30 989 O 93.2661 1.8315 0.837728 0
M  V30 990 C 90.3311 3.27656 1.13326 0
M  V30 991 C 89.3921 4.27445 0.39863 0
M  V30 992 C 88.6251 5.16443 1.34618 0
M  V30 993 O 88.8481 5.08553 2.58321 0
M  V30 994 O 87.7821 5.95843 0.851768 0
M  V30 995 H 91.6081 2.98002 -0.58552 0
M  V30 996 H 89.1931 1.45188 -0.352239 0
M  V30 997 H 91.0751 3.85291 1.70671 0
M  V30 998 H 89.7501 2.6643 1.83839 0
M  V30 999 H 88.6571 3.73471 -0.216895 0
M  V30 1000 H 89.9901 4.91482 -0.265709 0
M  V30 1001 N 91.6422 0.330177 1.54103 0
M  V30 1002 C 92.5922 -0.548456 2.21305 0
M  V30 1003 C 93.5762 -1.07651 1.19583 0
M  V30 1004 O 94.7682 -1.01243 1.45186 0
M  V30 1005 C 91.8972 -1.70559 2.97934 0
M  V30 1006 C 90.9832 -1.19212 4.07 0
M  V30 1007 N 91.3742 -0.398831 5.04225 0
M  V30 1008 C 89.6722 -1.47024 4.2107 0
M  V30 1009 C 90.3732 -0.121761 5.81573 0
M  V30 1010 N 89.3492 -0.709722 5.38947 0
M  V30 1011 H 93.1512 0.0648483 2.93828 0
M  V30 1012 H 90.6652 0.136363 1.61826 0
M  V30 1013 H 92.6622 -2.34688 3.44568 0
M  V30 1014 H 91.3222 -2.32231 2.26934 0
M  V30 1015 H 92.3332 -0.0410869 5.17884 0
M  V30 1016 H 89.0102 -2.09232 3.61287 0
M  V30 1017 H 90.4002 0.517298 6.69906 0
M  V30 1018 N 93.1203 -1.57491 0.0584922 0
M  V30 1019 C 94.3663 -1.94081 -0.608617 0
M  V30 1020 C 94.7213 -0.937438 -1.68017 0
M  V30 1021 O 94.0143 0.0423034 -1.91553 0
M  V30 1022 C 94.2083 -3.3513 -1.24188 0
M  V30 1023 C 94.0373 -4.49095 -0.233187 0
M  V30 1024 C 92.8073 -5.04988 0.177439 0
M  V30 1025 C 95.0053 -5.1162 0.524306 0
M  V30 1026 N 92.9873 -6.02487 1.17823 0
M  V30 1027 C 94.3583 -6.04493 1.37796 0
M  V30 1028 C 96.4133 -4.94489 0.581822 0
M  V30 1029 C 95.1163 -6.82075 2.28399 0
M  V30 1030 C 97.1423 -5.72703 1.47531 0
M  V30 1031 C 96.5043 -6.65214 2.31667 0
M  V30 1032 H 92.6033 -0.75752 -0.194134 0
M  V30 1033 H 95.1873 -1.94248 0.132533 0
M  V30 1034 H 93.3583 -3.35726 -1.95302 0
M  V30 1035 H 95.0903 -3.5899 -1.86838 0
M  V30 1036 H 91.8453 -4.73165 -0.203004 0
M  V30 1037 H 92.2693 -6.55933 1.67573 0
M  V30 1038 H 96.9113 -4.22765 -0.054443 0
M  V30 1039 H 94.6293 -7.53085 2.93067 0
M  V30 1040 H 98.2153 -5.61472 1.52448 0
M  V30 1041 H 97.0953 -7.24679 2.99683 0
M  V30 1042 N 94.5984 0.214957 -1.56127 0
M  V30 1043 C 95.8264 0.955092 -1.83536 0
M  V30 1044 C 96.2414 1.77677 -0.638472 0
M  V30 1045 O 95.5984 1.78219 0.392968 0
M  V30 1046 C 95.6494 1.86734 -3.09536 0
M  V30 1047 O 95.3704 1.07887 -4.24608 0
M  V30 1048 C 96.8714 2.72082 -3.4998 0
M  V30 1049 H 94.0914 0.279611 -0.609966 0
M  V30 1050 H 96.6354 0.228197 -2.03223 0
M  V30 1051 H 94.7904 2.5481 -2.91806 0
M  V30 1052 H 95.2044 1.69872 -4.9623 0
M  V30 1053 H 96.6784 3.31782 -4.41163 0
M  V30 1054 H 97.1554 3.44806 -2.7204 0
M  V30 1055 H 97.7614 2.09409 -3.70173 0
M  V30 1056 N 96.0765 1.50051 0.48192 0
M  V30 1057 C 97.4875 1.5348 1.06305 0
M  V30 1058 C 97.8385 0.331997 1.93371 0
M  V30 1059 O 96.9635 -0.556256 2.09129 0
M  V30 1060 C 97.5585 2.7813 1.93466 0
M  V30 1061 C 96.1175 2.84275 2.46707 0
M  V30 1062 C 95.2645 2.47637 1.24785 0
M  V30 1063 H 98.2155 1.56472 0.264995 0
M  V30 1064 H 98.2365 2.59372 2.78399 0
M  V30 1065 H 97.7485 3.65654 1.30072 0
M  V30 1066 H 95.8495 2.01077 3.13686 0
M  V30 1067 H 95.9625 3.8691 2.82555 0
M  V30 1068 H 94.3265 1.99835 1.57918 0
M  V30 1069 H 95.1095 3.37457 0.630694 0
M  V30 1070 N 97.5546 -0.734337 1.39446 0
M  V30 1071 C 98.4646 -1.87879 1.40495 0
M  V30 1072 C 99.4806 -1.714 0.299672 0
M  V30 1073 O 100.657 -1.93991 0.541249 0
M  V30 1074 C 97.7216 -3.23477 1.24754 0
M  V30 1075 C 96.7826 -3.52344 2.45259 0
M  V30 1076 C 96.0156 -4.81473 2.30259 0
M  V30 1077 O 96.2386 -5.55237 1.30643 0
M  V30 1078 O 95.1726 -5.10254 3.19256 0
M  V30 1079 H 98.9986 -1.89949 2.36966 0
M  V30 1080 H 96.5836 -0.882243 1.20569 0
M  V30 1081 H 98.4656 -4.04509 1.18111 0
M  V30 1082 H 97.1406 -3.22176 0.313781 0
M  V30 1083 H 96.0476 -2.71396 2.57478 0
M  V30 1084 H 97.3806 -3.58426 3.37331 0
M  V30 1085 N 99.0327 -1.24633 -0.964593 0
M  V30 1086 C 100.281 -1.08573 -1.70459 0
M  V30 1087 C 100.602 0.375655 -1.91347 0
M  V30 1088 O 99.8717 1.26779 -1.49345 0
M  V30 1089 H 98.4517 -0.398784 -0.631649 0
M  V30 1090 H 101.114 -1.56601 -1.16026 0
M  V30 1091 H 100.21 -1.58623 -2.68785 0
M  V30 1092 N 100.511 1.16574 -1.06058 0
M  V30 1093 C 101.461 2.18854 -0.63929 0
M  V30 1094 C 102.445 1.57505 0.328798 0
M  V30 1095 O 103.637 1.76408 0.144623 0
M  V30 1096 C 100.766 3.43291 -0.0247203 0
M  V30 1097 C 99.8518 4.11722 -1.01716 0
M  V30 1098 N 100.243 4.55841 -2.19186 0
M  V30 1099 C 98.5408 4.37872 -0.847569 0
M  V30 1100 C 99.2418 5.08751 -2.82042 0
M  V30 1101 N 98.2178 5.01489 -2.09784 0
M  V30 1102 H 102.02 2.5068 -1.53417 0
M  V30 1103 H 99.5338 1.32999 -0.931935 0
M  V30 1104 H 101.531 4.15856 0.294915 0
M  V30 1105 H 100.191 3.12954 0.865448 0
M  V30 1106 H 101.202 4.49649 -2.56975 0
M  V30 1107 H 97.8788 4.17499 -0.00918848 0
M  V30 1108 H 99.2688 5.52944 -3.81709 0
M  V30 1109 N 101.989 0.842826 1.3317 0
M  V30 1110 C 103.214 0.453129 2.02389 0
M  V30 1111 C 103.639 -0.939105 1.6298 0
M  V30 1112 O 102.997 -1.61472 0.8244 0
M  V30 1113 C 103.045 0.586094 3.55805 0
M  V30 1114 O 102.149 -0.386029 4.10589 0
M  V30 1115 H 101.49 0.183664 0.638094 0
M  V30 1116 H 104.02 1.13875 1.69981 0
M  V30 1117 H 104.03 0.469209 4.05293 0
M  V30 1118 H 102.705 1.6014 3.83833 0
M  V30 1119 H 101.282 -0.226371 3.72212 0
M  V30 1120 N 103.467 -1.45747 0.599634 0
M  V30 1121 C 104.716 -2.01502 0.0893511 0
M  V30 1122 C 105.029 -1.4748 -1.28488 0
M  V30 1123 O 106.235 -1.95161 -1.88745 0
M  V30 1124 C 104.691 -3.59735 0.109082 0
M  V30 1125 C 104.299 -4.22754 1.48267 0
M  V30 1126 C 106.043 -4.23085 -0.346374 0
M  V30 1127 C 103.95 -5.73115 1.45921 0
M  V30 1128 H 102.88 -0.753417 0.0296347 0
M  V30 1129 H 105.531 -1.67303 0.753788 0
M  V30 1130 H 103.913 -3.91087 -0.621854 0
M  V30 1131 H 105.087 -4.02987 2.23468 0
M  V30 1132 H 103.402 -3.71567 1.87955 0
M  V30 1133 H 105.999 -5.33327 -0.38298 0
M  V30 1134 H 106.342 -3.93201 -1.36743 0
M  V30 1135 H 106.875 -3.9642 0.331038 0
M  V30 1136 H 103.614 -6.07685 2.45762 0
M  V30 1137 H 103.134 -5.95097 0.749665 0
M  V30 1138 H 104.813 -6.3616 1.17941 0
M  V30 1139 N 104.945 -0.338344 -1.53925 0
M  V30 1140 C 106.191 0.260143 -2.01125 0
M  V30 1141 C 106.524 1.50617 -1.22589 0
M  V30 1142 O 105.799 1.91979 -0.312113 0
M  V30 1143 C 106.082 0.579499 -3.55407 0
M  V30 1144 C 105.935 -0.678264 -4.44657 0
M  V30 1145 C 107.254 1.39122 -4.17532 0
M  V30 1146 H 104.373 0.0930772 -0.731099 0
M  V30 1147 H 107.015 -0.457852 -1.84401 0
M  V30 1148 H 105.165 1.19118 -3.69788 0
M  V30 1149 H 106.837 -1.31631 -4.42121 0
M  V30 1150 H 105.08 -1.3042 -4.13731 0
M  V30 1151 H 105.751 -0.410143 -5.50474 0
M  V30 1152 H 108.227 0.874035 -4.06817 0
M  V30 1153 H 107.103 1.58342 -5.25565 0
M  V30 1154 H 107.364 2.39178 -3.71815 0
M  V30 1155 N 106.423 1.57458 -0.0668435 0
M  V30 1156 C 107.671 1.92919 0.602214 0
M  V30 1157 C 107.992 0.947215 1.70449 0
M  V30 1158 O 107.262 -0.00544117 1.95899 0
M  V30 1159 H 105.842 0.71217 0.22544 0
M  V30 1160 H 108.504 1.94508 -0.123535 0
M  V30 1161 H 107.6 2.94589 1.03073 0
M  V30 1162 N 107.901 -0.206675 1.56239 0
M  V30 1163 C 109.148 -0.928842 1.79941 0
M  V30 1164 C 109.476 -1.83734 0.638131 0
M  V30 1165 O 108.731 -1.92039 -0.376746 0
M  V30 1166 C 109.03 -1.78675 3.09532 0
M  V30 1167 C 108.696 -1.03022 4.38973 0
M  V30 1168 C 107.358 -0.821302 4.74139 0
M  V30 1169 C 109.71 -0.497081 5.18824 0
M  V30 1170 C 107.038 -0.0675719 5.86661 0
M  V30 1171 C 109.39 0.24338 6.32132 0
M  V30 1172 C 108.054 0.463422 6.65889 0
M  V30 1173 H 107.324 -0.339887 0.658451 0
M  V30 1174 H 109.971 -0.195977 1.90495 0
M  V30 1175 H 108.276 -2.58794 2.94165 0
M  V30 1176 H 109.973 -2.34792 3.25075 0
M  V30 1177 H 106.563 -1.20306 4.11369 0
M  V30 1178 H 110.747 -0.645921 4.92079 0
M  V30 1179 H 106.003 0.112995 6.11296 0
M  V30 1180 H 110.177 0.66393 6.93228 0
M  V30 1181 H 107.804 1.04938 7.52922 0
M  V30 1182 N 109.379 -1.50304 -0.473955 0
M  V30 1183 C 110.342 -1.6841 -1.55469 0
M  V30 1184 C 111.342 -0.554905 -1.50922 0
M  V30 1185 O 112.532 -0.821882 -1.53593 0
M  V30 1186 C 109.664 -1.70667 -2.95102 0
M  V30 1187 H 110.857 -2.64828 -1.40733 0
M  V30 1188 H 108.41 -1.39742 -0.700132 0
M  V30 1189 H 109.145 -0.75932 -3.15285 0
M  V30 1190 H 108.93 -2.52698 -2.9981 0
M  V30 1191 H 110.42 -1.8664 -3.73571 0
M  V30 1192 N 110.857 0.726932 -1.39834 0
M  V30 1193 C 111.79 1.8501 -1.33592 0
M  V30 1194 C 112.768 1.61262 -0.208191 0
M  V30 1195 O 113.952 1.84422 -0.389981 0
M  V30 1196 C 111.079 3.21143 -1.07633 0
M  V30 1197 C 110.125 3.63737 -2.22705 0
M  V30 1198 S 110.958 3.72167 -3.85035 0
M  V30 1199 C 112.114 5.11077 -3.61318 0
M  V30 1200 H 112.347 1.90022 -2.28646 0
M  V30 1201 H 109.88 0.892595 -1.25985 0
M  V30 1202 H 111.838 3.99747 -0.933415 0
M  V30 1203 H 110.499 3.13776 -0.142526 0
M  V30 1204 H 109.692 4.62551 -2.00155 0
M  V30 1205 H 109.294 2.9236 -2.33242 0
M  V30 1206 H 111.586 5.97656 -3.19083 0
M  V30 1207 H 112.529 5.38658 -4.59623 0
M  V30 1208 H 112.937 4.81135 -2.95245 0
M  V30 1209 N 112.336 1.25143 0.95797 0
M  V30 1210 C 113.566 1.12261 1.73439 0
M  V30 1211 C 113.974 -0.326715 1.86358 0
M  V30 1212 O 113.317 -1.2367 1.35836 0
M  V30 1213 C 113.379 1.69966 3.16784 0
M  V30 1214 C 113.043 3.18936 3.27305 0
M  V30 1215 C 114.04 4.15968 3.11877 0
M  V30 1216 C 111.725 3.59083 3.51234 0
M  V30 1217 C 113.719 5.51126 3.20217 0
M  V30 1218 C 111.406 4.9438 3.5921 0
M  V30 1219 C 112.404 5.90211 3.43716 0
M  V30 1220 O 112.092 7.23046 3.51368 0
M  V30 1221 H 111.824 0.392476 0.550399 0
M  V30 1222 H 114.378 1.65927 1.21068 0
M  V30 1223 H 112.608 1.10744 3.70503 0
M  V30 1224 H 114.297 1.52232 3.76272 0
M  V30 1225 H 115.063 3.86292 2.93264 0
M  V30 1226 H 110.942 2.84989 3.62356 0
M  V30 1227 H 114.486 6.25905 3.0804 0
M  V30 1228 H 110.383 5.23723 3.77339 0
M  V30 1229 H 111.151 7.31097 3.6802 0
M  V30 1230 N 113.814 -1.1601 1.06675 0
M  V30 1231 C 115.044 -1.90251 0.805497 0
M  V30 1232 C 115.452 -1.77891 -0.64431 0
M  V30 1233 O 114.795 -1.12383 -1.45313 0
M  V30 1234 C 114.857 -3.41419 1.12576 0
M  V30 1235 C 114.521 -3.77564 2.57477 0
M  V30 1236 C 115.518 -3.79161 3.55715 0
M  V30 1237 C 113.203 -4.08079 2.92877 0
M  V30 1238 C 115.197 -4.10767 4.8739 0
M  V30 1239 C 112.884 -4.39351 4.24751 0
M  V30 1240 C 113.882 -4.40675 5.21818 0
M  V30 1241 O 113.57 -4.71202 6.51325 0
M  V30 1242 H 113.302 -0.610018 0.291297 0
M  V30 1243 H 115.856 -1.47958 1.4247 0
M  V30 1244 H 114.086 -3.84079 0.449503 0
M  V30 1245 H 115.775 -3.9694 0.84814 0
M  V30 1246 H 116.541 -3.55693 3.29708 0
M  V30 1247 H 112.42 -4.06211 2.17976 0
M  V30 1248 H 115.964 -4.11715 5.63148 0
M  V30 1249 H 111.861 -4.62285 4.50514 0
M  V30 1250 H 112.629 -4.88996 6.56373 0
M  V30 1251 N 115.292 -0.849877 -1.32721 0
M  V30 1252 C 116.539 -0.450923 -1.97416 0
M  V30 1253 C 116.867 0.992376 -1.67279 0
M  V30 1254 O 116.122 1.71048 -0.950845 0
M  V30 1255 C 116.421 -0.631272 -3.51781 0
M  V30 1256 C 116.087 -2.04432 -4.01894 0
M  V30 1257 C 114.749 -2.4308 -4.1529 0
M  V30 1258 C 117.101 -2.96679 -4.28522 0
M  V30 1259 C 114.429 -3.73257 -4.52654 0
M  V30 1260 C 116.781 -4.26349 -4.67343 0
M  V30 1261 C 115.445 -4.64939 -4.78945 0
M  V30 1262 H 114.715 -0.165004 -0.722395 0
M  V30 1263 H 117.362 -1.07901 -1.58207 0
M  V30 1264 H 115.667 0.0800767 -3.91718 0
M  V30 1265 H 117.364 -0.302709 -3.99856 0
M  V30 1266 H 113.954 -1.73419 -3.91949 0
M  V30 1267 H 118.138 -2.68054 -4.17685 0
M  V30 1268 H 113.394 -4.02946 -4.59831 0
M  V30 1269 H 117.568 -4.97895 -4.86902 0
M  V30 1270 H 115.195 -5.65855 -5.07654 0
M  V30 1271 N 116.77 1.45427 -0.607355 0
M  V30 1272 C 117.998 2.06614 -0.108814 0
M  V30 1273 C 118.413 1.45204 1.2067 0
M  V30 1274 O 117.77 0.566132 1.73497 0
M  V30 1275 C 117.821 3.61481 0.0375347 0
M  V30 1276 O 117.542 4.20598 -1.22593 0
M  V30 1277 C 119.043 4.39652 0.567561 0
M  V30 1278 H 116.263 0.66747 -0.0687351 0
M  V30 1279 H 118.807 1.86675 -0.835022 0
M  V30 1280 H 116.962 3.80762 0.714068 0
M  V30 1281 H 117.376 5.1377 -1.05547 0
M  V30 1282 H 118.85 5.48518 0.61905 0
M  V30 1283 H 119.327 4.09417 1.58978 0
M  V30 1284 H 119.933 4.25234 -0.0749202 0
M  V30 1285 N 118.248 0.346503 1.53744 0
M  V30 1286 C 119.478 -0.250047 2.05081 0
M  V30 1287 C 119.886 -1.44529 1.22098 0
M  V30 1288 O 119.229 -1.81992 0.249917 0
M  V30 1289 C 119.291 -0.725934 3.52094 0
M  V30 1290 C 118.955 0.350053 4.55657 0
M  V30 1291 C 119.952 1.19372 5.0601 0
M  V30 1292 C 117.637 0.504827 4.99757 0
M  V30 1293 C 119.631 2.17768 5.99046 0
M  V30 1294 C 117.318 1.49218 5.92602 0
M  V30 1295 C 118.316 2.32706 6.42135 0
M  V30 1296 O 118.004 3.2976 7.33153 0
M  V30 1297 H 117.736 -0.0515469 0.674032 0
M  V30 1298 H 120.29 0.497559 1.99282 0
M  V30 1299 H 118.52 -1.52483 3.55367 0
M  V30 1300 H 120.209 -1.24336 3.86388 0
M  V30 1301 H 120.975 1.08525 4.72702 0
M  V30 1302 H 116.854 -0.135178 4.60802 0
M  V30 1303 H 120.398 2.82971 6.37631 0
M  V30 1304 H 116.295 1.6012 6.25325 0
M  V30 1305 H 117.063 3.25265 7.51096 0
M  V30 1306 N 119.726 -1.57421 0.075193 0
M  V30 1307 C 121.003 -1.85029 -0.634329 0
M  V30 1308 C 121.383 -0.968305 -1.87582 0
M  V30 1309 O 120.731 -0.0354749 -2.28472 0
M  V30 1310 C 120.941 -3.35286 -0.968742 0
M  V30 1311 C 122.289 -4.02875 -1.34077 0
M  V30 1312 O 123.313 -3.40051 -1.06037 0
M  V30 1313 O 122.172 -5.13691 -1.86506 0
M  V30 1314 H 119.266 -0.7645 -0.315387 0
M  V30 1315 H 121.812 -1.69366 0.106382 0
M  V30 1316 H 120.584 -3.91203 -0.0871376 0
M  V30 1317 H 120.207 -3.56223 -1.7661 0
M  V30 1318 N 121.204 0.198386 -1.56346 0
M  V30 1319 C 122.615 0.763358 -1.70381 0
M  V30 1320 C 122.966 1.83995 -0.681203 0
M  V30 1321 O 122.091 2.15785 0.16305 0
M  V30 1322 C 122.686 1.39143 -3.08909 0
M  V30 1323 C 121.245 1.90352 -3.2472 0
M  V30 1324 C 120.392 0.772233 -2.6633 0
M  V30 1325 H 123.343 -0.0266377 -1.58678 0
M  V30 1326 H 123.364 2.26076 -3.06055 0
M  V30 1327 H 122.876 0.607638 -3.83314 0
M  V30 1328 H 120.977 2.71461 -2.55225 0
M  V30 1329 H 121.09 2.06757 -4.3219 0
M  V30 1330 H 119.454 1.18566 -2.2542 0
M  V30 1331 H 120.237 0.00073556 -3.433 0
M  V30 1332 N 122.682 1.50554 0.465978 0
M  V30 1333 C 123.928 1.63006 1.21658 0
M  V30 1334 C 124.283 0.328613 1.89573 0
M  V30 1335 O 123.576 -0.673813 1.79361 0
M  V30 1336 C 123.77 2.75152 2.28093 0
M  V30 1337 C 123.599 4.16075 1.7062 0
M  V30 1338 C 122.369 4.82408 1.50368 0
M  V30 1339 C 124.567 5.00145 1.1983 0
M  V30 1340 N 122.549 6.07532 0.881924 0
M  V30 1341 C 123.92 6.16035 0.700083 0
M  V30 1342 C 125.975 4.85882 1.08733 0
M  V30 1343 C 124.678 7.19228 0.101835 0
M  V30 1344 C 126.704 5.89257 0.503016 0
M  V30 1345 C 126.066 7.04398 0.0152005 0
M  V30 1346 H 122.165 0.650596 0.433877 0
M  V30 1347 H 124.749 1.8769 0.517746 0
M  V30 1348 H 122.92 2.52181 2.95397 0
M  V30 1349 H 124.652 2.76935 2.95109 0
M  V30 1350 H 121.407 4.39788 1.75737 0
M  V30 1351 H 121.831 6.7443 0.589312 0
M  V30 1352 H 126.473 3.97144 1.4504 0
M  V30 1353 H 124.191 8.07637 -0.273426 0
M  V30 1354 H 127.777 5.80286 0.419451 0
M  V30 1355 H 126.657 7.83021 -0.429856 0
M  V30 1356 N 124.16 -0.719506 1.40217 0
M  V30 1357 C 125.409 -1.47486 1.37589 0
M  V30 1358 C 125.722 -1.9559 -0.0201568 0
M  V30 1359 O 126.928 -2.70973 -0.169049 0
M  V30 1360 C 125.384 -2.66575 2.41796 0
M  V30 1361 C 124.992 -2.25358 3.87192 0
M  V30 1362 C 126.736 -3.4433 2.48269 0
M  V30 1363 C 124.643 -3.41262 4.83005 0
M  V30 1364 H 123.573 -0.553901 0.511576 0
M  V30 1365 H 126.224 -0.783427 1.65936 0
M  V30 1366 H 124.606 -3.3787 2.06543 0
M  V30 1367 H 125.78 -1.61509 4.31569 0
M  V30 1368 H 124.095 -1.60657 3.84159 0
M  V30 1369 H 126.692 -4.30569 3.17041 0
M  V30 1370 H 127.035 -3.87872 1.51198 0
M  V30 1371 H 127.568 -2.80076 2.82493 0
M  V30 1372 H 124.307 -3.02755 5.81394 0
M  V30 1373 H 123.827 -4.0404 4.43297 0
M  V30 1374 H 125.506 -4.07383 5.02641 0
M  V30 1375 N 125.638 -1.25649 -0.95132 0
M  V30 1376 C 126.886 -1.10375 -1.69298 0
M  V30 1377 C 127.207 0.355339 -1.91735 0
M  V30 1378 O 126.477 1.25188 -1.50681 0
M  V30 1379 H 125.057 -0.405461 -0.627384 0
M  V30 1380 H 127.719 -1.57823 -1.14358 0
M  V30 1381 H 126.815 -1.61465 -2.67087 0
M  V30 1382 N 127.117 1.15442 -1.07289 0
M  V30 1383 C 128.064 2.20161 -0.692653 0
M  V30 1384 C 129.034 1.63073 0.31564 0
M  V30 1385 O 130.219 1.89725 0.202235 0
M  V30 1386 C 127.359 3.44967 -0.0959509 0
M  V30 1387 C 126.472 4.16256 -1.15564 0
M  V30 1388 C 125.607 5.28609 -0.524011 0
M  V30 1389 C 124.646 5.91715 -1.56653 0
M  V30 1390 N 123.783 6.9554 -0.957531 0
M  V30 1391 H 128.623 2.52037 -1.59002 0
M  V30 1392 H 126.16 1.2378 -0.794798 0
M  V30 1393 H 128.118 4.16341 0.267628 0
M  V30 1394 H 126.748 3.1361 0.764772 0
M  V30 1395 H 125.8 3.43385 -1.6368 0
M  V30 1396 H 127.112 4.59268 -1.94613 0
M  V30 1397 H 126.266 6.06604 -0.108032 0
M  V30 1398 H 125.005 4.86787 0.29825 0
M  V30 1399 H 124.01 5.12433 -1.9923 0
M  V30 1400 H 125.235 6.35614 -2.39107 0
M  V30 1401 H 123.181 6.55814 -0.156162 0
M  V30 1402 H 123.098 7.36977 -1.68526 0
M  V30 1403 H 124.366 7.77435 -0.567032 0
M  V30 1404 N 128.595 0.856903 1.32268 0
M  V30 1405 C 129.525 0.31858 2.31316 0
M  V30 1406 C 130.506 -0.583487 1.59779 0
M  V30 1407 O 131.691 -0.503259 1.87566 0
M  V30 1408 C 128.821 -0.491979 3.43798 0
M  V30 1409 C 127.775 0.315849 4.26833 0
M  V30 1410 C 127.101 -0.619586 5.31098 0
M  V30 1411 C 128.401 1.54282 4.98993 0
M  V30 1412 H 130.095 1.14621 2.76591 0
M  V30 1413 H 127.641 0.552613 1.32974 0
M  V30 1414 H 129.594 -0.879012 4.1213 0
M  V30 1415 H 128.318 -1.35299 2.97257 0
M  V30 1416 H 126.977 0.684664 3.6015 0
M  V30 1417 H 126.625 -1.47751 4.8081 0
M  V30 1418 H 126.325 -0.0830621 5.87541 0
M  V30 1419 H 127.849 -1.00375 6.02293 0
M  V30 1420 H 129.263 1.22796 5.59995 0
M  V30 1421 H 127.66 2.01745 5.65172 0
M  V30 1422 H 128.73 2.30285 4.26728 0
M  V30 1423 N 130.073 -1.45103 0.615059 0
M  V30 1424 C 131.003 -2.33339 -0.0865619 0
M  V30 1425 C 131.984 -1.4727 -0.851209 0
M  V30 1426 O 133.169 -1.76026 -0.820281 0
M  V30 1427 C 130.299 -3.30095 -1.07956 0
M  V30 1428 C 129.253 -4.25858 -0.427628 0
M  V30 1429 C 128.579 -5.12361 -1.5294 0
M  V30 1430 C 129.879 -5.18165 0.655944 0
M  V30 1431 H 131.573 -2.92254 0.650224 0
M  V30 1432 H 129.119 -1.40532 0.314138 0
M  V30 1433 H 131.072 -3.90698 -1.57901 0
M  V30 1434 H 129.796 -2.69355 -1.84703 0
M  V30 1435 H 128.455 -3.66564 0.0510292 0
M  V30 1436 H 128.103 -4.47984 -2.28734 0
M  V30 1437 H 127.803 -5.77238 -1.09865 0
M  V30 1438 H 129.327 -5.75833 -2.03098 0
M  V30 1439 H 130.741 -5.72796 0.240257 0
M  V30 1440 H 129.138 -5.91559 1.00888 0
M  V30 1441 H 130.208 -4.60144 1.52957 0
M  V30 1442 N 131.551 -0.354651 -1.53558 0
M  V30 1443 C 132.781 0.239167 -2.05211 0
M  V30 1444 C 133.189 1.43879 -1.22863 0
M  V30 1445 O 132.532 1.81857 -0.259565 0
M  V30 1446 C 132.594 0.707251 -3.52474 0
M  V30 1447 C 132.258 -0.374212 -4.55465 0
M  V30 1448 C 133.255 -1.22054 -5.0537 0
M  V30 1449 C 130.94 -0.531323 -4.99482 0
M  V30 1450 C 132.934 -2.20942 -5.97882 0
M  V30 1451 C 130.621 -1.52358 -5.91802 0
M  V30 1452 C 131.619 -2.36108 -6.40892 0
M  V30 1453 O 131.307 -3.33643 -7.31394 0
M  V30 1454 H 131.039 0.0479716 -0.674296 0
M  V30 1455 H 133.593 -0.508121 -1.99016 0
M  V30 1456 H 131.823 1.50596 -3.56171 0
M  V30 1457 H 133.512 1.22285 -3.87042 0
M  V30 1458 H 134.278 -1.1103 -4.7212 0
M  V30 1459 H 130.157 0.110738 -4.60867 0
M  V30 1460 H 133.701 -2.86348 -6.36121 0
M  V30 1461 H 129.598 -1.63434 -6.24467 0
M  V30 1462 H 130.366 -3.29244 -7.4936 0
M  V30 1463 N 133.029 1.57378 -0.0835403 0
M  V30 1464 C 133.959 2.1641 0.87686 0
M  V30 1465 C 134.94 1.09429 1.30228 0
M  V30 1466 O 136.125 1.37516 1.37124 0
M  V30 1467 C 133.255 2.73517 2.14022 0
M  V30 1468 C 132.209 3.85769 1.85381 0
M  V30 1469 C 131.535 4.29529 3.18448 0
M  V30 1470 C 132.835 5.09486 1.14984 0
M  V30 1471 H 134.529 2.96914 0.385059 0
M  V30 1472 H 132.075 1.42823 0.18377 0
M  V30 1473 H 134.028 3.13463 2.81636 0
M  V30 1474 H 132.752 1.90252 2.65465 0
M  V30 1475 H 131.411 3.46345 1.20169 0
M  V30 1476 H 131.059 3.43169 3.67755 0
M  V30 1477 H 130.759 5.05204 3.00071 0
M  V30 1478 H 132.283 4.72099 3.8724 0
M  V30 1479 H 133.697 5.46674 1.72687 0
M  V30 1480 H 132.094 5.90515 1.06826 0
M  V30 1481 H 133.164 4.84724 0.130749 0
M  V30 1482 N 134.507 -0.190092 1.56449 0
M  V30 1483 C 135.417 -1.25591 1.98152 0
M  V30 1484 C 136.433 -1.49519 0.889944 0
M  V30 1485 O 137.609 -1.62036 1.19609 0
M  V30 1486 C 134.674 -2.57916 2.3169 0
M  V30 1487 C 133.735 -2.42015 3.5458 0
M  V30 1488 C 132.968 -3.6803 3.8651 0
M  V30 1489 O 133.191 -4.72413 3.1966 0
M  V30 1490 O 132.125 -3.6326 4.79923 0
M  V30 1491 H 135.951 -0.931988 2.89046 0
M  V30 1492 H 133.536 -0.395488 1.4407 0
M  V30 1493 H 135.418 -3.36008 2.54316 0
M  V30 1494 H 134.093 -2.89925 1.43963 0
M  V30 1495 H 133 -1.62017 3.37196 0
M  V30 1496 H 134.333 -2.14937 4.4279 0
M  V30 1497 N 135.985 -1.50799 -0.457987 0
M  V30 1498 C 137.262 -1.52968 -1.21902 0
M  V30 1499 C 137.642 -0.281906 -2.09209 0
M  V30 1500 O 136.99 0.734076 -2.16388 0
M  V30 1501 C 137.2 -2.8326 -2.03875 0
M  V30 1502 C 138.548 -3.34425 -2.6162 0
M  V30 1503 O 139.572 -2.8467 -2.14106 0
M  V30 1504 O 138.431 -4.21188 -3.48228 0
M  V30 1505 H 135.525 -0.614129 -0.553873 0
M  V30 1506 H 138.071 -1.63098 -0.468739 0
M  V30 1507 H 136.843 -3.65543 -1.39621 0
M  V30 1508 H 136.466 -2.76195 -2.8601 0
M  V30 1509 N 137.463 0.71206 -1.40597 0
M  V30 1510 C 138.71 1.47197 -1.39065 0
M  V30 1511 C 139.038 1.94499 0.00583891 0
M  V30 1512 O 138.293 1.68752 0.99102 0
M  V30 1513 C 138.592 2.71039 -2.32965 0
M  V30 1514 C 138.258 2.42484 -3.80148 0
M  V30 1515 C 136.92 2.34406 -4.20247 0
M  V30 1516 C 139.272 2.18598 -4.73143 0
M  V30 1517 C 136.6 2.00516 -5.51371 0
M  V30 1518 C 138.952 1.8622 -6.0457 0
M  V30 1519 C 137.616 1.76626 -6.43708 0
M  V30 1520 H 136.886 0.538634 -0.508876 0
M  V30 1521 H 139.533 0.815325 -1.73276 0
M  V30 1522 H 137.838 3.41558 -1.91951 0
M  V30 1523 H 139.535 3.29138 -2.29061 0
M  V30 1524 H 136.125 2.49659 -3.4838 0
M  V30 1525 H 140.309 2.23793 -4.42979 0
M  V30 1526 H 135.565 1.91628 -5.80593 0
M  V30 1527 H 139.739 1.66752 -6.76141 0
M  V30 1528 H 137.366 1.50133 -7.45228 0
M  V30 1529 N 138.941 1.26152 0.944643 0
M  V30 1530 C 140.188 1.11492 1.69044 0
M  V30 1531 C 140.516 -0.342366 1.91463 0
M  V30 1532 O 139.771 -1.26812 1.49054 0
M  V30 1533 C 140.07 1.82541 3.07268 0
M  V30 1534 C 139.736 3.32445 3.04616 0
M  V30 1535 C 138.398 3.73337 3.036 0
M  V30 1536 C 140.75 4.28171 2.97185 0
M  V30 1537 C 138.078 5.08348 2.92915 0
M  V30 1538 C 140.43 5.63218 2.88041 0
M  V30 1539 C 139.094 6.03426 2.85366 0
M  V30 1540 H 138.364 0.407977 0.618576 0
M  V30 1541 H 141.011 1.56551 1.10291 0
M  V30 1542 H 139.316 1.29941 3.69625 0
M  V30 1543 H 141.013 1.68642 3.63815 0
M  V30 1544 H 137.603 2.99915 3.06185 0
M  V30 1545 H 141.787 3.97563 2.97081 0
M  V30 1546 H 137.043 5.38667 2.89219 0
M  V30 1547 H 141.217 6.37078 2.81254 0
M  V30 1548 H 138.844 7.07999 2.76842 0
M  V30 1549 N 140.419 -1.14872 1.07899 0
M  V30 1550 C 141.665 -1.86064 0.806725 0
M  V30 1551 C 141.998 -1.82434 -0.665706 0
M  V30 1552 O 141.273 -1.25138 -1.48899 0
M  V30 1553 C 141.556 -3.34929 1.32267 0
M  V30 1554 C 141.409 -3.47161 2.86006 0
M  V30 1555 C 142.728 -4.29863 0.943717 0
M  V30 1556 H 139.847 -0.675591 0.294526 0
M  V30 1557 H 142.489 -1.34925 1.33773 0
M  V30 1558 H 140.639 -3.78611 0.870974 0
M  V30 1559 H 142.311 -3.12302 3.39507 0
M  V30 1560 H 140.554 -2.88539 3.23925 0
M  V30 1561 H 141.225 -4.51777 3.17177 0
M  V30 1562 H 143.701 -3.9417 1.33302 0
M  V30 1563 H 142.577 -5.32494 1.33198 0
M  V30 1564 H 142.838 -4.41846 -0.149796 0
M  V30 1565 N 141.898 -0.863906 -1.31812 0
M  V30 1566 C 142.831 -0.259963 -2.26714 0
M  V30 1567 C 143.809 0.607392 -1.50829 0
M  V30 1568 O 144.993 0.562155 -1.79922 0
M  V30 1569 C 142.12 0.632456 -3.32743 0
M  V30 1570 C 141.166 -0.162743 -4.26189 0
M  V30 1571 S 141.999 -1.53726 -5.12961 0
M  V30 1572 C 143.155 -0.650803 -6.22507 0
M  V30 1573 H 143.388 -1.06445 -2.77591 0
M  V30 1574 H 140.921 -0.662071 -1.39485 0
M  V30 1575 H 142.879 1.14167 -3.94305 0
M  V30 1576 H 141.54 1.41083 -2.80632 0
M  V30 1577 H 140.733 0.517366 -5.01338 0
M  V30 1578 H 140.335 -0.60385 -3.69093 0
M  V30 1579 H 142.627 0.141134 -6.77353 0
M  V30 1580 H 143.57 -1.37322 -6.94657 0
M  V30 1581 H 143.978 -0.221041 -5.64067 0
M  V30 1582 N 143.376 1.44774 -0.622745 0
M  V30 1583 C 144.601 2.06999 -0.128968 0
M  V30 1584 C 145.026 1.4617 1.1839 0
M  V30 1585 O 144.384 0.560007 1.72434 0
M  V30 1586 C 144.432 3.60595 -0.0188351 0
M  V30 1587 O 143.536 3.99398 1.02739 0
M  V30 1588 H 142.877 0.659047 -0.0809544 0
M  V30 1589 H 145.407 1.85784 -0.85705 0
M  V30 1590 H 145.417 4.07627 0.174476 0
M  V30 1591 H 144.092 4.04252 -0.977384 0
M  V30 1592 H 142.669 3.64011 0.809326 0
M  V30 1593 N 144.854 0.36279 1.53368 0
M  V30 1594 C 146.131 -0.284021 1.93527 0
M  V30 1595 C 146.511 -1.66628 1.29608 0
M  V30 1596 O 145.859 -2.23942 0.45413 0
M  V30 1597 C 146.069 -0.337028 3.47369 0
M  V30 1598 C 147.417 -0.578708 4.20638 0
M  V30 1599 O 148.441 -0.418352 3.53735 0
M  V30 1600 O 147.3 -0.89074 5.39192 0
M  V30 1601 H 144.394 -0.169743 0.809393 0
M  V30 1602 H 146.94 0.41537 1.64538 0
M  V30 1603 H 145.712 0.632217 3.86159 0
M  V30 1604 H 145.335 -1.08243 3.82582 0
M  V30 1605 N 146.332 -1.57332 0.0918853 0
M  V30 1606 C 147.562 -1.98286 -0.580205 0
M  V30 1607 C 147.97 -0.969713 -1.6246 0
M  V30 1608 O 147.313 0.0493501 -1.83634 0
M  V30 1609 C 147.375 -3.35603 -1.28882 0
M  V30 1610 C 147.039 -4.55285 -0.395559 0
M  V30 1611 C 148.036 -5.18687 0.355002 0
M  V30 1612 C 145.721 -5.01314 -0.314556 0
M  V30 1613 C 147.715 -6.26484 1.17458 0
M  V30 1614 C 145.402 -6.08979 0.508677 0
M  V30 1615 C 146.4 -6.71429 1.2519 0
M  V30 1616 O 146.088 -7.77018 2.06151 0
M  V30 1617 H 145.82 -0.656678 -0.160466 0
M  V30 1618 H 148.374 -2.04721 0.16688 0
M  V30 1619 H 146.604 -3.25842 -2.08241 0
M  V30 1620 H 148.293 -3.61026 -1.85512 0
M  V30 1621 H 149.059 -4.84058 0.302134 0
M  V30 1622 H 144.938 -4.5247 -0.882697 0
M  V30 1623 H 148.482 -6.75159 1.75518 0
M  V30 1624 H 144.379 -6.4304 0.563037 0
M  V30 1625 H 145.147 -7.93991 1.98799 0
M  V30 1626 N 147.81 0.181792 -1.56548 0
M  V30 1627 C 149.226 0.53316 -1.50431 0
M  V30 1628 C 149.426 1.85184 -0.794297 0
M  V30 1629 O 148.482 2.50058 -0.350318 0
M  V30 1630 C 149.795 0.575597 -2.9514 0
M  V30 1631 C 151.343 0.663519 -3.05886 0
M  V30 1632 C 151.818 0.736946 -4.52032 0
M  V30 1633 N 153.309 0.800118 -4.56237 0
M  V30 1634 C 154.044 0.877327 -5.66649 0
M  V30 1635 N 153.54 0.916016 -6.86718 0
M  V30 1636 N 155.333 0.915542 -5.54594 0
M  V30 1637 H 147.484 -0.683025 -2.01118 0
M  V30 1638 H 149.747 -0.244988 -0.915797 0
M  V30 1639 H 149.453 -0.324482 -3.502 0
M  V30 1640 H 149.327 1.42572 -3.49218 0
M  V30 1641 H 151.714 1.55403 -2.50867 0
M  V30 1642 H 151.795 -0.21307 -2.54911 0
M  V30 1643 H 151.439 -0.149262 -5.07681 0
M  V30 1644 H 151.369 1.62953 -5.00753 0
M  V30 1645 H 153.86 0.778926 -3.69785 0
M  V30 1646 H 154.173 0.975813 -7.66614 0
M  V30 1647 H 152.518 0.884469 -6.89349 0
M  V30 1648 H 155.709 0.882245 -4.59711 0
M  V30 1649 H 155.882 0.972253 -6.40665 0
M  V30 1650 N 149.288 1.51039 0.449983 0
M  V30 1651 C 150.536 1.62759 1.19808 0
M  V30 1652 C 150.857 0.339981 1.92013 0
M  V30 1653 O 150.127 -0.643606 1.85026 0
M  V30 1654 H 148.707 0.599811 0.445237 0
M  V30 1655 H 151.369 1.87914 0.517138 0
M  V30 1656 H 150.465 2.44911 1.93455 0
M  V30 1657 N 150.766 -0.704594 1.40972 0
M  V30 1658 C 152.013 -1.46458 1.39844 0
M  V30 1659 C 152.341 -1.94499 0.00447594 0
M  V30 1660 O 151.596 -1.69275 -0.982057 0
M  V30 1661 C 151.895 -2.698 2.34399 0
M  V30 1662 C 151.561 -2.40464 3.81429 0
M  V30 1663 C 150.223 -2.32174 4.21484 0
M  V30 1664 C 152.575 -2.16086 4.74296 0
M  V30 1665 C 149.903 -1.97589 5.52427 0
M  V30 1666 C 152.255 -1.83011 6.05549 0
M  V30 1667 C 150.919 -1.7321 6.44635 0
M  V30 1668 H 150.189 -0.535927 0.511725 0
M  V30 1669 H 152.836 -0.806124 1.73706 0
M  V30 1670 H 151.141 -3.40536 1.93759 0
M  V30 1671 H 152.838 -3.27919 2.30804 0
M  V30 1672 H 149.428 -2.47808 3.49699 0
M  V30 1673 H 153.612 -2.2144 4.4416 0
M  V30 1674 H 148.868 -1.88547 5.81601 0
M  V30 1675 H 153.042 -1.63164 6.77016 0
M  V30 1676 H 150.669 -1.46179 7.46013 0
M  V30 1677 N 152.244 -1.26651 -0.937939 0
M  V30 1678 C 153.492 -1.12165 -1.68118 0
M  V30 1679 C 153.813 0.334983 -1.92101 0
M  V30 1680 O 153.083 1.23583 -1.52 0
M  V30 1681 H 151.663 -0.412093 -0.623048 0
M  V30 1682 H 154.325 -1.59027 -1.12678 0
M  V30 1683 H 153.421 -1.64289 -2.6536 0
M  V30 1684 N 153.722 1.14298 -1.08507 0
M  V30 1685 C 154.971 1.84708 -0.810305 0
M  V30 1686 C 155.284 1.83903 0.666271 0
M  V30 1687 O 156.49 2.50112 1.05624 0
M  V30 1688 C 154.946 3.31572 -1.39957 0
M  V30 1689 C 154.554 3.40791 -2.90801 0
M  V30 1690 C 156.298 4.07087 -1.20334 0
M  V30 1691 C 154.205 4.81872 -3.4286 0
M  V30 1692 H 153.135 0.691985 -0.299454 0
M  V30 1693 H 155.786 1.28841 -1.30661 0
M  V30 1694 H 154.168 3.87183 -0.830976 0
M  V30 1695 H 155.342 2.95225 -3.53806 0
M  V30 1696 H 153.657 2.78732 -3.0935 0
M  V30 1697 H 156.254 5.11225 -1.56693 0
M  V30 1698 H 156.597 4.16054 -0.143237 0
M  V30 1699 H 157.13 3.57779 -1.73893 0
M  V30 1700 H 153.869 4.78094 -4.48449 0
M  V30 1701 H 153.389 5.27972 -2.84615 0
M  V30 1702 H 155.068 5.50765 -3.39509 0
M  V30 1703 N 155.201 0.870884 1.31352 0
M  V30 1704 C 156.449 0.48132 1.96285 0
M  V30 1705 C 156.77 -0.969813 1.69173 0
M  V30 1706 O 156.04 -1.67998 1.00764 0
M  V30 1707 H 154.62 0.175002 0.726212 0
M  V30 1708 H 157.282 1.11087 1.60143 0
M  V30 1709 H 156.378 0.639825 3.05471 0
M  V30 1710 N 156.679 -1.44442 0.630414 0
M  V30 1711 C 157.904 -2.06927 0.139944 0
M  V30 1712 C 158.329 -1.46795 -1.17613 0
M  V30 1713 O 157.687 -0.569144 -1.72135 0
M  V30 1714 C 157.735 -3.6058 0.0379581 0
M  V30 1715 O 156.839 -3.99937 -1.0062 0
M  V30 1716 H 156.18 -0.658608 0.0844483 0
M  V30 1717 H 158.71 -1.85327 0.866891 0
M  V30 1718 H 158.72 -4.07714 -0.152856 0
M  V30 1719 H 157.395 -4.03728 0.998809 0
M  V30 1720 H 155.972 -3.64436 -0.79001 0
M  V30 1721 N 158.157 -0.370918 -1.53173 0
M  V30 1722 C 159.067 0.480823 -2.2962 0
M  V30 1723 C 160.083 1.08789 -1.35798 0
M  V30 1724 O 161.259 1.09768 -1.68858 0
M  V30 1725 C 158.324 1.60227 -3.07454 0
M  V30 1726 C 157.385 1.0222 -4.16953 0
M  V30 1727 C 156.618 2.0902 -4.91066 0
M  V30 1728 O 156.841 3.30222 -4.65091 0
M  V30 1729 O 155.775 1.71778 -5.76867 0
M  V30 1730 H 159.601 -0.141421 -3.03371 0
M  V30 1731 H 157.186 -0.135146 -1.48787 0
M  V30 1732 H 159.068 2.25417 -3.56041 0
M  V30 1733 H 157.743 2.20982 -2.36535 0
M  V30 1734 H 156.65 0.334064 -3.72605 0
M  V30 1735 H 157.983 0.459131 -4.90054 0
M  V30 1736 N 159.635 1.57281 -0.100228 0
M  V30 1737 C 160.884 1.93713 0.561984 0
M  V30 1738 C 161.197 0.984492 1.69018 0
M  V30 1739 O 162.403 1.24273 2.41389 0
M  V30 1740 C 160.859 3.4421 1.05106 0
M  V30 1741 C 160.467 4.47975 -0.0476628 0
M  V30 1742 C 162.211 3.89595 1.68571 0
M  V30 1743 C 160.118 5.89631 0.457055 0
M  V30 1744 H 159.048 0.723082 0.2137 0
M  V30 1745 H 161.699 1.82644 -0.177057 0
M  V30 1746 H 160.081 3.50449 1.84395 0
M  V30 1747 H 161.255 4.53385 -0.823333 0
M  V30 1748 H 159.57 4.1223 -0.587816 0
M  V30 1749 H 162.167 4.92832 2.07414 0
M  V30 1750 H 162.51 3.28526 2.55688 0
M  V30 1751 H 163.043 3.86078 0.958562 0
M  V30 1752 H 159.782 6.54411 -0.377616 0
M  V30 1753 H 159.302 5.87681 1.19962 0
M  V30 1754 H 160.981 6.40363 0.92437 0
M  V30 1755 N 161.113 -0.173488 1.56642 0
M  V30 1756 C 162.043 -1.2171 1.99271 0
M  V30 1757 C 163.024 -1.46289 0.867959 0
M  V30 1758 O 164.209 -1.5766 1.13388 0
M  V30 1759 C 161.339 -2.55651 2.35074 0
M  V30 1760 C 160.293 -2.45645 3.50489 0
M  V30 1761 C 159.619 -3.84056 3.72028 0
M  V30 1762 C 160.919 -1.96302 4.84007 0
M  V30 1763 H 162.613 -0.86275 2.867 0
M  V30 1764 H 160.159 -0.413571 1.37933 0
M  V30 1765 H 162.112 -3.2886 2.63494 0
M  V30 1766 H 160.836 -2.92869 1.44552 0
M  V30 1767 H 159.495 -1.7489 3.22194 0
M  V30 1768 H 159.143 -4.18664 2.788 0
M  V30 1769 H 158.843 -3.7823 4.49684 0
M  V30 1770 H 160.367 -4.58854 4.02846 0
M  V30 1771 H 161.781 -2.59284 5.11317 0
M  V30 1772 H 160.178 -2.01429 5.65284 0
M  V30 1773 H 161.248 -0.917226 4.76146 0
M  V30 1774 N 162.591 -1.51276 -0.441967 0
M  V30 1775 C 163.538 -1.72256 -1.53612 0
M  V30 1776 C 164.508 -0.564164 -1.56225 0
M  V30 1777 O 165.693 -0.798074 -1.73307 0
M  V30 1778 C 162.833 -1.84932 -2.91366 0
M  V30 1779 C 161.946 -3.12459 -2.98317 0
M  V30 1780 C 161.081 -3.15758 -4.27166 0
M  V30 1781 C 160.12 -4.37619 -4.27967 0
M  V30 1782 N 159.257 -4.38493 -5.48333 0
M  V30 1783 H 164.097 -2.65654 -1.35026 0
M  V30 1784 H 161.634 -1.31662 -0.656009 0
M  V30 1785 H 163.592 -1.90263 -3.7129 0
M  V30 1786 H 162.222 -0.949461 -3.08521 0
M  V30 1787 H 161.274 -3.1646 -2.11086 0
M  V30 1788 H 162.586 -4.02382 -2.94771 0
M  V30 1789 H 161.74 -3.19979 -5.15459 0
M  V30 1790 H 160.479 -2.23715 -4.33362 0
M  V30 1791 H 159.484 -4.33579 -3.38067 0
M  V30 1792 H 160.709 -5.30921 -4.23438 0
M  V30 1793 H 158.655 -3.49318 -5.55259 0
M  V30 1794 H 158.572 -5.22219 -5.46647 0
M  V30 1795 H 159.84 -4.469 -6.38671 0
M  V30 1796 N 164.069 0.697108 -1.41344 0
M  V30 1797 C 165.017 1.83237 -1.43272 0
M  V30 1798 C 166.011 1.66522 -0.310947 0
M  V30 1799 O 167.217 1.73402 -0.482899 0
M  V30 1800 H 163.592 0.603802 -0.448249 0
M  V30 1801 H 165.563 1.78727 -2.38954 0
M  V30 1802 C 164.312 3.21245 -1.33029 0
M  V30 1803 H 163.635 3.34723 -2.18633 0
M  V30 1804 H 165.075 4.00763 -1.38439 0
M  V30 1805 C 163.534 3.36873 -0.0424635 0
M  V30 1806 O 164.064 3.91177 0.913421 0
M  V30 1807 N 162.27 2.90581 0.0331145 0
M  V30 1808 H 161.817 2.46577 -0.745506 0
M  V30 1809 H 161.775 3.01416 0.894199 0
M  V30 1810 N 165.547 1.27147 0.931209 0
M  V30 1811 C 166.477 1.12081 2.04842 0
M  V30 1812 C 167.458 0.0232364 1.70084 0
M  V30 1813 O 168.643 0.197085 1.93197 0
M  V30 1814 C 165.773 0.76354 3.38803 0
M  V30 1815 C 164.727 1.81396 3.87659 0
M  V30 1816 C 164.053 1.31075 5.18385 0
M  V30 1817 C 165.353 3.21739 4.11438 0
M  V30 1818 H 167.047 2.05537 2.17703 0
M  V30 1819 H 164.593 0.989603 1.04608 0
M  V30 1820 H 166.546 0.644982 4.16435 0
M  V30 1821 H 165.27 -0.206727 3.25945 0
M  V30 1822 H 163.929 1.92136 3.12217 0
M  V30 1823 H 163.577 0.330037 5.01916 0
M  V30 1824 H 163.277 2.013 5.52044 0
M  V30 1825 H 164.801 1.20506 5.98591 0
M  V30 1826 H 166.215 3.14019 4.79651 0
M  V30 1827 H 164.612 3.89644 4.56397 0
M  V30 1828 H 165.682 3.67054 3.16859 0
M  V30 1829 N 167.025 -1.13721 1.09112 0
M  V30 1830 C 168.25 -1.89314 0.847053 0
M  V30 1831 C 168.675 -1.78416 -0.595774 0
M  V30 1832 O 168.033 -1.12942 -1.41823 0
M  V30 1833 C 168.081 -3.3701 1.28284 0
M  V30 1834 O 167.185 -4.10054 0.439267 0
M  V30 1835 H 166.526 -0.588745 0.307044 0
M  V30 1836 H 169.056 -1.43902 1.45442 0
M  V30 1837 H 169.066 -3.87834 1.26683 0
M  V30 1838 H 167.741 -3.4426 2.33363 0
M  V30 1839 H 166.318 -3.69266 0.519312 0
M  V30 1840 N 168.503 -0.877838 -1.30888 0
M  V30 1841 C 169.435 -0.296607 -2.27273 0
M  V30 1842 C 170.448 0.544799 -1.53414 0
M  V30 1843 O 171.637 0.365511 -1.74718 0
M  V30 1844 C 168.737 0.597481 -3.33592 0
M  V30 1845 C 167.91 -0.213251 -4.3688 0
M  V30 1846 C 166.969 0.610208 -5.2265 0
M  V30 1847 O 165.995 0.035441 -5.69189 0
M  V30 1848 N 167.197 1.92071 -5.47804 0
M  V30 1849 H 169.962 -1.12492 -2.77787 0
M  V30 1850 H 167.523 -0.740105 -1.43993 0
M  V30 1851 H 169.515 1.15425 -3.87891 0
M  V30 1852 H 168.085 1.32647 -2.83061 0
M  V30 1853 H 167.305 -0.951466 -3.82545 0
M  V30 1854 H 168.593 -0.769262 -5.02951 0
M  V30 1855 H 167.991 2.4107 -5.11763 0
M  V30 1856 H 166.548 2.42508 -6.05007 0
M  V30 1857 N 169.982 1.44106 -0.638065 0
M  V30 1858 C 171.228 2.02277 -0.145546 0
M  V30 1859 C 171.561 1.50125 1.23191 0
M  V30 1860 O 170.836 0.688133 1.8192 0
M  V30 1861 C 171.119 3.59829 -0.139791 0
M  V30 1862 C 170.972 4.22247 -1.55008 0
M  V30 1863 C 172.291 4.36873 0.531966 0
M  V30 1864 H 169.41 0.734992 -0.0543632 0
M  V30 1865 H 172.052 1.71592 -0.815863 0
M  V30 1866 H 170.202 3.86102 0.431007 0
M  V30 1867 H 171.874 4.07057 -2.1703 0
M  V30 1868 H 170.117 3.79476 -2.10191 0
M  V30 1869 H 170.788 5.31284 -1.49804 0
M  V30 1870 H 173.264 4.16074 0.0464781 0
M  V30 1871 H 172.14 5.4657 0.505206 0
M  V30 1872 H 172.401 4.11995 1.60352 0
M  V30 1873 N 171.46 0.379036 1.52974 0
M  V30 1874 C 172.423 -0.448865 2.24762 0
M  V30 1875 C 173.423 -0.998689 1.26027 0
M  V30 1876 O 174.613 -0.882313 1.50203 0
M  V30 1877 C 171.745 -1.62872 2.99476 0
M  V30 1878 H 172.938 0.179491 2.99362 0
M  V30 1879 H 170.491 0.13096 1.5575 0
M  V30 1880 H 171.226 -2.29479 2.29151 0
M  V30 1881 H 171.011 -1.24128 3.71934 0
M  V30 1882 H 172.501 -2.2151 3.5401 0
M  V30 1883 N 172.938 -1.57226 0.108567 0
M  V30 1884 C 173.871 -2.10447 -0.882464 0
M  V30 1885 C 174.849 -1.01829 -1.26766 0
M  V30 1886 O 176.033 -1.29415 -1.37054 0
M  V30 1887 C 173.16 -2.59258 -2.17952 0
M  V30 1888 C 172.206 -3.79662 -1.94318 0
M  V30 1889 S 173.039 -5.22586 -1.16892 0
M  V30 1890 C 174.195 -5.74758 -2.47799 0
M  V30 1891 H 174.428 -2.94178 -0.429745 0
M  V30 1892 H 171.961 -1.54043 -0.105 0
M  V30 1893 H 173.919 -2.88036 -2.92482 0
M  V30 1894 H 172.58 -1.75728 -2.60343 0
M  V30 1895 H 171.773 -4.11928 -2.90399 0
M  V30 1896 H 171.375 -3.51446 -1.27913 0
M  V30 1897 H 173.667 -5.83846 -3.43701 0
M  V30 1898 H 174.61 -6.73027 -2.20093 0
M  V30 1899 H 175.018 -5.02763 -2.56689 0
M  V30 1900 N 174.416 0.165178 -1.56732 0
M  V30 1901 C 175.832 0.517174 -1.50988 0
M  V30 1902 C 176.032 1.84331 -0.813894 0
M  V30 1903 O 175.088 2.49672 -0.37682 0
M  V30 1904 C 176.401 0.544261 -2.95733 0
M  V30 1905 C 177.949 0.631039 -3.06573 0
M  V30 1906 C 178.424 0.68896 -4.52788 0
M  V30 1907 N 179.915 0.751683 -4.5706 0
M  V30 1908 C 180.65 0.817177 -5.67547 0
M  V30 1909 N 180.146 0.843129 -6.8765 0
M  V30 1910 N 181.939 0.856668 -5.55534 0
M  V30 1911 H 174.09 -0.704318 -2.00382 0
M  V30 1912 H 176.353 -0.254687 -0.913148 0
M  V30 1913 H 176.059 -0.361607 -3.49836 0
M  V30 1914 H 175.933 1.3886 -3.5071 0
M  V30 1915 H 178.32 1.52733 -2.52501 0
M  V30 1916 H 178.401 -0.240095 -2.54671 0
M  V30 1917 H 178.045 -0.2031 -5.07494 0
M  V30 1918 H 177.975 1.57633 -5.02454 0
M  V30 1919 H 180.466 0.739661 -3.70591 0
M  V30 1920 H 180.779 0.894448 -7.67606 0
M  V30 1921 H 179.124 0.811304 -6.90248 0
M  V30 1922 H 182.315 0.833437 -4.60621 0
M  V30 1923 H 182.488 0.904247 -6.4166 0
M  V30 1924 N 175.894 1.51508 0.433938 0
M  V30 1925 C 177.134 1.66006 1.19253 0
M  V30 1926 C 177.498 0.369868 1.88404 0
M  V30 1927 O 178.699 0.39066 2.65946 0
M  V30 1928 C 176.97 2.83229 2.17981 0
M  V30 1929 S 178.529 3.18075 3.02281 0
M  V30 1930 H 175.347 0.584821 0.404358 0
M  V30 1931 H 177.949 1.89425 0.48357 0
M  V30 1932 H 176.653 3.75407 1.65824 0
M  V30 1933 H 176.184 2.6201 2.93453 0
M  V30 1934 H 178.199 2.64772 4.19655 0
M  V30 1935 N 177.372 -0.689602 1.41712 0
M  V30 1936 C 178.788 -1.00093 1.24312 0
M  V30 1937 C 178.988 -2.01036 0.136729 0
M  V30 1938 O 178.044 -2.47562 -0.496918 0
M  V30 1939 C 179.357 -1.51985 2.59463 0
M  V30 1940 C 180.905 -1.63838 2.66695 0
M  V30 1941 C 181.38 -2.1913 4.02177 0
M  V30 1942 N 182.871 -2.26483 4.04054 0
M  V30 1943 C 183.606 -2.70306 5.0569 0
M  V30 1944 N 183.102 -3.13691 6.17713 0
M  V30 1945 N 184.895 -2.69923 4.9305 0
M  V30 1946 H 177.046 -0.0210029 2.1239 0
M  V30 1947 H 179.309 -0.0718733 0.945272 0
M  V30 1948 H 179.015 -0.85269 3.41207 0
M  V30 1949 H 178.889 -2.50103 2.82362 0
M  V30 1950 H 181.276 -2.29664 1.85306 0
M  V30 1951 H 181.357 -0.642492 2.476 0
M  V30 1952 H 181.001 -1.53918 4.84016 0
M  V30 1953 H 180.931 -3.19482 4.18615 0
M  V30 1954 H 183.422 -1.95874 3.23174 0
M  V30 1955 H 183.735 -3.45773 6.9113 0
M  V30 1956 H 182.08 -3.11585 6.21241 0
M  V30 1957 H 185.271 -2.35382 4.04614 0
M  V30 1958 H 185.444 -3.03758 5.72394 0
M  V30 1959 N 178.85 -1.27639 -0.924453 0
M  V30 1960 C 180.09 -1.15407 -1.68703 0
M  V30 1961 C 180.454 0.294581 -1.89727 0
M  V30 1962 O 181.655 0.539385 -2.63333 0
M  V30 1963 C 179.926 -1.9195 -3.0148 0
M  V30 1964 S 181.485 -1.95969 -3.92609 0
M  V30 1965 H 178.303 -0.411937 -0.579507 0
M  V30 1966 H 180.905 -1.61592 -1.10038 0
M  V30 1967 H 179.609 -2.96387 -2.83871 0
M  V30 1968 H 179.14 -1.46272 -3.65196 0
M  V30 1969 H 181.155 -1.05846 -4.84779 0
M  V30 1970 N 180.328 1.1314 -1.09713 0
M  V30 1971 C 181.553 1.88862 -0.857081 0
M  V30 1972 C 181.978 1.78729 0.586304 0
M  V30 1973 O 181.336 1.13692 1.41222 0
M  V30 1974 C 181.384 3.36325 -1.30069 0
M  V30 1975 O 180.488 4.09815 -0.461007 0
M  V30 1976 H 179.829 0.587108 -0.310162 0
M  V30 1977 H 182.359 1.43129 -1.46203 0
M  V30 1978 H 182.369 3.87157 -1.28738 0
M  V30 1979 H 181.044 3.43017 -2.35185 0
M  V30 1980 H 179.621 3.68986 -0.538888 0
M  V30 1981 N 181.806 0.884767 1.30421 0
M  V30 1982 C 183.031 0.517288 2.00845 0
M  V30 1983 C 183.456 -0.886779 1.65885 0
M  V30 1984 O 182.814 -1.58768 0.875354 0
M  V30 1985 C 182.862 0.698994 3.5376 0
M  V30 1986 O 181.966 -0.255208 4.1161 0
M  V30 1987 H 181.307 0.203872 0.631927 0
M  V30 1988 H 183.837 1.19225 1.66272 0
M  V30 1989 H 183.847 0.597912 4.03595 0
M  V30 1990 H 182.522 1.72271 3.78544 0
M  V30 1991 H 181.099 -0.10784 3.72744 0
M  V30 1992 N 183.284 -1.43765 0.645699 0
M  V30 1993 C 184.217 -2.2798 -0.100072 0
M  V30 1994 C 185.195 -1.39391 -0.837194 0
M  V30 1995 O 186.379 -1.68833 -0.838306 0
M  V30 1996 C 183.506 -3.18643 -1.14823 0
M  V30 1997 C 182.552 -4.2344 -0.510009 0
M  V30 1998 S 183.385 -5.30761 0.710824 0
M  V30 1999 C 184.541 -6.24992 -0.33699 0
M  V30 2000 H 184.774 -2.90884 0.614322 0
M  V30 2001 H 182.307 -1.48166 0.434304 0
M  V30 2002 H 184.265 -3.71424 -1.74799 0
M  V30 2003 H 182.926 -2.54932 -1.8349 0
M  V30 2004 H 182.119 -4.86948 -1.29991 0
M  V30 2005 H 181.721 -3.73997 0.0154577 0
M  V30 2006 H 184.013 -6.66691 -1.20537 0
M  V30 2007 H 184.956 -7.07612 0.262879 0
M  V30 2008 H 185.364 -5.60517 -0.669425 0
M  V30 2009 N 184.763 -0.387143 -1.52771 0
M  V30 2010 C 185.713 0.465942 -2.23188 0
M  V30 2011 C 186.697 1.03138 -1.23496 0
M  V30 2012 O 187.889 0.957845 -1.48843 0
M  V30 2013 C 185.018 1.59384 -3.04059 0
M  V30 2014 C 184.104 1.04024 -4.11144 0
M  V30 2015 N 184.495 0.211416 -5.05358 0
M  V30 2016 C 182.793 1.31295 -4.26237 0
M  V30 2017 C 183.494 -0.0941698 -5.81624 0
M  V30 2018 N 182.47 0.509207 -5.4121 0
M  V30 2019 H 186.272 -0.173856 -2.93385 0
M  V30 2020 H 183.786 -0.19633 -1.61209 0
M  V30 2021 H 185.783 2.21738 -3.53041 0
M  V30 2022 H 184.443 2.23648 -2.35397 0
M  V30 2023 H 185.454 -0.151151 -5.17679 0
M  V30 2024 H 182.131 1.95679 -3.68803 0
M  V30 2025 H 183.521 -0.765572 -6.67524 0
M  V30 2026 N 186.241 1.57166 -0.116904 0
M  V30 2027 C 187.488 1.95123 0.541603 0
M  V30 2028 C 187.816 1.00006 1.6682 0
M  V30 2029 O 187.071 0.0235658 1.95686 0
M  V30 2030 C 187.37 3.39508 1.11664 0
M  V30 2031 C 187.036 4.50762 0.111606 0
M  V30 2032 C 185.698 4.80918 -0.164758 0
M  V30 2033 C 188.05 5.18036 -0.573438 0
M  V30 2034 C 185.378 5.75666 -1.13249 0
M  V30 2035 C 187.73 6.13824 -1.52978 0
M  V30 2036 C 186.394 6.42374 -1.81415 0
M  V30 2037 H 185.664 0.714005 0.198187 0
M  V30 2038 H 188.311 1.9048 -0.197365 0
M  V30 2039 H 186.616 3.40835 1.93232 0
M  V30 2040 H 188.313 3.66189 1.63422 0
M  V30 2041 H 184.903 4.27272 0.337192 0
M  V30 2042 H 189.087 4.94896 -0.373092 0
M  V30 2043 H 184.343 5.96092 -1.35958 0
M  V30 2044 H 188.517 6.65039 -2.06629 0
M  V30 2045 H 186.144 7.15599 -2.56557 0
M  V30 2046 N 187.719 -0.156864 1.56817 0
M  V30 2047 C 188.649 -1.19589 2.00551 0
M  V30 2048 C 189.63 -1.4536 0.883426 0
M  V30 2049 O 190.815 -1.56449 1.15054 0
M  V30 2050 C 187.945 -2.53143 2.37773 0
M  V30 2051 C 186.899 -2.41913 3.53075 0
M  V30 2052 C 186.225 -3.80088 3.76081 0
M  V30 2053 C 187.525 -1.91157 4.86062 0
M  V30 2054 H 189.219 -0.832293 2.87599 0
M  V30 2055 H 186.765 -0.398918 1.38364 0
M  V30 2056 H 188.718 -3.26047 2.66967 0
M  V30 2057 H 187.442 -2.91319 1.4765 0
M  V30 2058 H 186.101 -1.71462 3.24031 0
M  V30 2059 H 185.749 -4.15683 2.83225 0
M  V30 2060 H 185.449 -3.73439 4.53671 0
M  V30 2061 H 186.973 -4.54556 4.0769 0
M  V30 2062 H 188.387 -2.53846 5.14038 0
M  V30 2063 H 186.784 -1.95422 5.67389 0
M  V30 2064 H 187.854 -0.866673 4.77092 0
M  V30 2065 N 189.197 -1.51736 -0.425897 0
M  V30 2066 C 190.443 -1.65214 -1.1761 0
M  V30 2067 C 190.776 -0.372778 -1.90589 0
M  V30 2068 O 190.051 0.628139 -1.84078 0
M  V30 2069 C 190.334 -2.86312 -2.18398 0
M  V30 2070 C 190.187 -4.24254 -1.49426 0
M  V30 2071 C 191.506 -3.02925 -3.19256 0
M  V30 2072 H 188.625 -0.601263 -0.426206 0
M  V30 2073 H 191.267 -1.8425 -0.463882 0
M  V30 2074 H 189.417 -2.70213 -2.79137 0
M  V30 2075 H 191.089 -4.52046 -0.919362 0
M  V30 2076 H 189.332 -4.26426 -0.796432 0
M  V30 2077 H 190.003 -5.05001 -2.22885 0
M  V30 2078 H 192.479 -3.1781 -2.68581 0
M  V30 2079 H 191.355 -3.89199 -3.8706 0
M  V30 2080 H 191.616 -2.15497 -3.86023 0
M  V30 2081 N 190.675 0.682077 -1.42076 0
M  V30 2082 C 191.638 1.77756 -1.44691 0
M  V30 2083 C 192.638 1.5726 -0.335535 0
M  V30 2084 O 193.828 1.63686 -0.596037 0
M  V30 2085 C 190.96 3.16301 -1.27146 0
M  V30 2086 H 192.153 1.76826 -2.42224 0
M  V30 2087 H 189.706 0.891012 -1.28416 0
M  V30 2088 H 190.441 3.22862 -0.305075 0
M  V30 2089 H 190.226 3.32581 -2.07683 0
M  V30 2090 H 191.716 3.96241 -1.31843 0
M  V30 2091 N 192.153 1.28127 0.917671 0
M  V30 2092 C 193.063 1.13556 2.05286 0
M  V30 2093 C 194.079 0.0630914 1.73886 0
M  V30 2094 O 195.255 0.271598 1.9956 0
M  V30 2095 C 192.32 0.794676 3.3747 0
M  V30 2096 C 191.381 1.94909 3.82504 0
M  V30 2097 C 190.614 1.62437 5.0838 0
M  V30 2098 O 190.837 0.536905 5.67867 0
M  V30 2099 O 189.771 2.46677 5.4903 0
M  V30 2100 H 193.597 2.08844 2.20495 0
M  V30 2101 H 191.182 1.07409 1.03845 0
M  V30 2102 H 193.064 0.618344 4.16839 0
M  V30 2103 H 191.739 -0.128581 3.23445 0
M  V30 2104 H 190.646 2.18055 3.03978 0
M  V30 2105 H 191.979 2.85291 4.01086 0
M  V30 2106 N 193.631 -1.12557 1.10312 0
M  V30 2107 C 194.877 -1.84515 0.855901 0
M  V30 2108 C 195.232 -1.82409 -0.611936 0
M  V30 2109 O 194.525 -1.25778 -1.44535 0
M  V30 2110 C 194.719 -3.31462 1.33669 0
M  V30 2111 C 194.548 -3.47879 2.84974 0
M  V30 2112 C 193.318 -3.61589 3.52961 0
M  V30 2113 C 195.516 -3.43152 3.83081 0
M  V30 2114 N 193.498 -3.66359 4.926 0
M  V30 2115 C 194.869 -3.54401 5.08724 0
M  V30 2116 C 196.924 -3.2661 3.75807 0
M  V30 2117 C 195.627 -3.50815 6.2795 0
M  V30 2118 C 197.653 -3.24335 4.94531 0
M  V30 2119 C 197.015 -3.36144 6.19021 0
M  V30 2120 H 193.114 -0.690967 0.366182 0
M  V30 2121 H 195.698 -1.34763 1.40524 0
M  V30 2122 H 193.869 -3.7976 0.814686 0
M  V30 2123 H 195.601 -3.91272 1.03385 0
M  V30 2124 H 192.356 -3.63652 3.03404 0
M  V30 2125 H 192.78 -3.72411 5.65366 0
M  V30 2126 H 197.422 -3.16375 2.80476 0
M  V30 2127 H 195.14 -3.5982 7.23571 0
M  V30 2128 H 198.726 -3.12719 4.9061 0
M  V30 2129 H 197.606 -3.34357 7.09348 0
M  V30 2130 N 195.109 -0.891671 -1.2995 0
M  V30 2131 C 196.057 -0.353066 -2.29905 0
M  V30 2132 C 197.051 0.543509 -1.60444 0
M  V30 2133 O 198.257 0.4272 -1.74857 0
M  V30 2134 H 194.632 -0.095531 -0.745907 0
M  V30 2135 H 196.603 -1.20961 -2.72784 0
M  V30 2136 C 195.352 0.411475 -3.45257 0
M  V30 2137 H 194.675 -0.269182 -3.98893 0
M  V30 2138 H 196.115 0.753328 -4.17254 0
M  V30 2139 C 194.574 1.6111 -2.9588 0
M  V30 2140 O 195.104 2.71045 -2.96475 0
M  V30 2141 N 193.31 1.45054 -2.51809 0
M  V30 2142 H 192.857 0.556175 -2.51524 0
M  V30 2143 H 192.815 2.25453 -2.1913 0
M  V30 2144 N 196.587 1.43421 -0.653314 0
M  V30 2145 C 197.497 2.34568 0.0388565 0
M  V30 2146 C 198.513 1.53888 0.81207 0
M  V30 2147 O 199.689 1.86539 0.759294 0
M  V30 2148 C 196.754 3.32167 0.993269 0
M  V30 2149 C 195.815 4.28751 0.216977 0
M  V30 2150 C 195.048 5.21688 1.12593 0
M  V30 2151 O 195.271 5.19052 2.36519 0
M  V30 2152 O 194.205 5.98919 0.598284 0
M  V30 2153 H 198.031 2.95251 -0.711386 0
M  V30 2154 H 195.616 1.43564 -0.413502 0
M  V30 2155 H 197.498 3.92183 1.54176 0
M  V30 2156 H 196.173 2.73987 1.72374 0
M  V30 2157 H 195.08 3.72215 -0.375101 0
M  V30 2158 H 196.413 4.89913 -0.473924 0
M  V30 2159 N 198.065 0.39524 1.52563 0
M  V30 2160 C 199.476 -0.0774719 1.86539 0
M  V30 2161 C 199.827 -1.45641 1.31466 0
M  V30 2162 O 198.952 -2.06459 0.648367 0
M  V30 2163 C 199.547 -0.147356 3.38479 0
M  V30 2164 C 198.106 -0.564373 3.72145 0
M  V30 2165 C 197.253 0.269919 2.75983 0
M  V30 2166 H 200.204 0.612876 1.46388 0
M  V30 2167 H 200.225 -0.965343 3.68051 0
M  V30 2168 H 199.737 0.856387 3.78534 0
M  V30 2169 H 197.838 -1.57527 3.37663 0
M  V30 2170 H 197.951 -0.318402 4.78041 0
M  V30 2171 H 196.315 -0.265696 2.5331 0
M  V30 2172 H 197.098 1.27175 3.18875 0
M  V30 2173 N 199.544 -1.57102 0.125237 0
M  V30 2174 C 200.769 -2.0019 -0.542101 0
M  V30 2175 C 201.194 -1.00449 -1.59034 0
M  V30 2176 O 200.552 0.0229423 -1.81285 0
M  V30 2177 C 200.6 -3.42129 -1.13929 0
M  V30 2178 O 199.704 -3.45307 -2.2547 0
M  V30 2179 H 199.045 -0.650171 -0.134812 0
M  V30 2180 H 201.575 -2.03461 0.215553 0
M  V30 2181 H 201.585 -3.80471 -1.4733 0
M  V30 2182 H 200.26 -4.14237 -0.371531 0
M  V30 2183 H 198.837 -3.1879 -1.93462 0
M  V30 2184 N 201.022 0.148545 -1.56898 0
M  V30 2185 C 202.271 0.85984 -1.82454 0
M  V30 2186 C 202.584 1.82406 -0.706229 0
M  V30 2187 O 203.79 2.57938 -0.847349 0
M  V30 2188 C 202.246 1.57967 -3.2338 0
M  V30 2189 C 201.854 0.65794 -4.43142 0
M  V30 2190 C 203.598 2.27784 -3.58211 0
M  V30 2191 C 201.505 1.3793 -5.75091 0
M  V30 2192 H 200.435 0.324834 -0.68044 0
M  V30 2193 H 203.086 0.112588 -1.83154 0
M  V30 2194 H 201.468 2.37249 -3.17063 0
M  V30 2195 H 202.642 -0.0995497 -4.60692 0
M  V30 2196 H 200.957 0.0682643 -4.16344 0
M  V30 2197 H 203.554 2.8239 -4.54048 0
M  V30 2198 H 203.897 3.04204 -2.84193 0
M  V30 2199 H 204.43 1.55421 -3.66182 0
M  V30 2200 H 201.169 0.656982 -6.52199 0
M  V30 2201 H 200.689 2.10954 -5.61479 0
M  V30 2202 H 202.368 1.92063 -6.17835 0
M  V30 2203 N 202.5 1.5196 0.417844 0
M  V30 2204 C 203.448 1.75278 1.52907 0
M  V30 2205 C 204.442 0.619611 1.57662 0
M  V30 2206 O 205.648 0.801457 1.61173 0
M  V30 2207 H 202.023 0.554141 0.508362 0
M  V30 2208 H 203.994 2.68389 1.30422 0
M  V30 2209 C 202.743 1.91262 2.90369 0
M  V30 2210 H 202.066 2.77872 2.8745 0
M  V30 2211 H 203.506 2.11581 3.67436 0
M  V30 2212 C 201.965 0.677431 3.30019 0
M  V30 2213 O 202.495 -0.158799 4.01386 0
M  V30 2214 N 200.701 0.515851 2.85985 0
M  V30 2215 H 200.248 1.19744 2.28077 0
M  V30 2216 H 200.206 -0.309315 3.12875 0
M  V30 2217 N 203.978 -0.674533 1.42435 0
M  V30 2218 C 205.225 -1.43459 1.42919 0
M  V30 2219 C 205.553 -1.94446 0.0457312 0
M  V30 2220 O 204.808 -1.7132 -0.94593 0
M  V30 2221 C 205.107 -2.64767 2.40069 0
M  V30 2222 C 204.773 -2.3232 3.86443 0
M  V30 2223 C 203.435 -2.23182 4.26314 0
M  V30 2224 C 205.787 -2.05977 4.78773 0
M  V30 2225 C 203.115 -1.85827 5.56494 0
M  V30 2226 C 205.467 -1.70125 6.09295 0
M  V30 2227 C 204.131 -1.59498 6.48164 0
M  V30 2228 H 203.401 -0.524952 0.522978 0
M  V30 2229 H 206.048 -0.769097 1.75377 0
M  V30 2230 H 204.353 -3.36349 2.00939 0
M  V30 2231 H 206.05 -3.22949 2.37707 0
M  V30 2232 H 202.64 -2.40334 3.54877 0
M  V30 2233 H 206.824 -2.11969 4.48757 0
M  V30 2234 H 202.08 -1.76168 5.8547 0
M  V30 2235 H 206.254 -1.48767 6.80324 0
M  V30 2236 H 203.881 -1.30322 7.48946 0
M  V30 2237 N 205.456 -1.28612 -0.910864 0
M  V30 2238 C 206.686 -1.1862 -1.69153 0
M  V30 2239 C 207.094 0.257324 -1.87442 0
M  V30 2240 O 206.437 1.18543 -1.40332 0
M  V30 2241 C 206.499 -1.81606 -3.10257 0
M  V30 2242 C 206.163 -3.30864 -3.15243 0
M  V30 2243 C 207.16 -4.27256 -2.96223 0
M  V30 2244 C 204.845 -3.71871 -3.37664 0
M  V30 2245 C 206.839 -5.62631 -2.99541 0
M  V30 2246 C 204.526 -5.07371 -3.40614 0
M  V30 2247 C 205.524 -6.02561 -3.21573 0
M  V30 2248 O 205.212 -7.35589 -3.2429 0
M  V30 2249 H 204.944 -0.412633 -0.535453 0
M  V30 2250 H 207.498 -1.70306 -1.14827 0
M  V30 2251 H 205.728 -1.24418 -3.66138 0
M  V30 2252 H 207.417 -1.66092 -3.70362 0
M  V30 2253 H 208.183 -3.9691 -2.78725 0
M  V30 2254 H 204.062 -2.98241 -3.5153 0
M  V30 2255 H 207.606 -6.36907 -2.84597 0
M  V30 2256 H 203.503 -5.37366 -3.57642 0
M  V30 2257 H 204.271 -7.44252 -3.40633 0
M  V30 2258 N 206.934 1.1197 -1.10907 0
M  V30 2259 C 207.881 2.17846 -0.762345 0
M  V30 2260 C 208.851 1.63995 0.263599 0
M  V30 2261 O 210.036 1.90273 0.141773 0
M  V30 2262 C 207.176 3.44487 -0.205651 0
M  V30 2263 C 206.289 4.12369 -1.28748 0
M  V30 2264 C 205.424 5.26674 -0.691919 0
M  V30 2265 C 204.463 5.86431 -1.75399 0
M  V30 2266 N 203.6 6.92142 -1.17833 0
M  V30 2267 H 208.44 2.46851 -1.6694 0
M  V30 2268 H 205.977 1.21188 -0.833776 0
M  V30 2269 H 207.935 4.16981 0.135037 0
M  V30 2270 H 206.565 3.15884 0.664613 0
M  V30 2271 H 205.617 3.38003 -1.74522 0
M  V30 2272 H 206.929 4.52844 -2.09125 0
M  V30 2273 H 206.083 6.05953 -0.300963 0
M  V30 2274 H 204.822 4.8749 0.143232 0
M  V30 2275 H 203.827 5.05835 -2.15432 0
M  V30 2276 H 205.052 6.27685 -2.59208 0
M  V30 2277 H 202.998 6.54985 -0.364725 0
M  V30 2278 H 202.915 7.31242 -1.91887 0
M  V30 2279 H 204.183 7.75237 -0.81408 0
M  V30 2280 N 208.412 0.89855 1.29475 0
M  V30 2281 C 209.828 0.594483 1.48115 0
M  V30 2282 C 210.028 -0.86431 1.82022 0
M  V30 2283 O 209.084 -1.64457 1.91599 0
M  V30 2284 C 210.397 1.51932 2.59494 0
M  V30 2285 C 211.945 1.5244 2.7337 0
M  V30 2286 C 212.42 2.43548 3.87877 0
M  V30 2287 N 213.911 2.41589 3.95208 0
M  V30 2288 C 214.646 3.08789 4.83153 0
M  V30 2289 N 214.142 3.85265 5.75798 0
M  V30 2290 N 215.935 2.97952 4.76635 0
M  V30 2291 H 208.086 1.84207 1.05742 0
M  V30 2292 H 210.349 0.789251 0.525154 0
M  V30 2293 H 210.055 2.55865 2.41301 0
M  V30 2294 H 209.929 1.23899 3.56271 0
M  V30 2295 H 212.316 0.492518 2.90961 0
M  V30 2296 H 212.397 1.8451 1.77172 0
M  V30 2297 H 212.041 3.46829 3.71041 0
M  V30 2298 H 211.971 2.08788 4.83441 0
M  V30 2299 H 214.462 1.86025 3.28943 0
M  V30 2300 H 214.775 4.33598 6.39697 0
M  V30 2301 H 213.12 3.89371 5.75687 0
M  V30 2302 H 216.311 2.37723 4.03244 0
M  V30 2303 H 216.484 3.50599 5.44962 0
M  V30 2304 N 209.89 -1.43072 0.660911 0
M  V30 2305 C 211.306 -1.56169 0.329173 0
M  V30 2306 C 211.506 -1.64317 -1.16629 0
M  V30 2307 O 210.562 -1.60245 -1.95135 0
M  V30 2308 C 211.875 -2.81873 1.04729 0
M  V30 2309 C 213.423 -2.95627 1.02828 0
M  V30 2310 C 213.898 -4.24174 1.72744 0
M  V30 2311 N 215.389 -4.31055 1.69545 0
M  V30 2312 C 216.124 -5.29304 2.20511 0
M  V30 2313 N 215.62 -6.33786 2.79799 0
M  V30 2314 N 217.413 -5.21008 2.10966 0
M  V30 2315 H 209.564 -1.36027 1.63127 0
M  V30 2316 H 211.827 -0.653823 0.686454 0
M  V30 2317 H 211.533 -2.81942 2.10242 0
M  V30 2318 H 211.407 -3.72338 0.603702 0
M  V30 2319 H 213.794 -2.95094 -0.0184742 0
M  V30 2320 H 213.875 -2.06431 1.51063 0
M  V30 2321 H 213.519 -4.25467 2.7738 0
M  V30 2322 H 213.449 -5.1228 1.2197 0
M  V30 2323 H 215.94 -3.56174 1.26288 0
M  V30 2324 H 216.253 -7.05086 3.16344 0
M  V30 2325 H 214.598 -6.34387 2.83863 0
M  V30 2326 H 217.789 -4.38301 1.64347 0
M  V30 2327 H 217.962 -5.97416 2.50993 0
M  V30 2328 N 211.368 -0.403325 -1.52352 0
M  V30 2329 C 212.616 0.174003 -2.0135 0
M  V30 2330 C 212.937 1.46139 -1.29106 0
M  V30 2331 O 212.207 1.91448 -0.415253 0
M  V30 2332 H 210.787 0.0672911 -0.743963 0
M  V30 2333 H 213.449 -0.538235 -1.87321 0
M  V30 2334 H 212.545 0.374254 -3.09848 0
M  V30 2335 N 212.846 1.57033 -0.133567 0
M  V30 2336 C 213.809 2.14897 0.796995 0
M  V30 2337 C 214.809 1.0874 1.18458 0
M  V30 2338 O 215.999 1.34446 1.1077 0
M  V30 2339 C 213.131 2.70112 2.07973 0
M  V30 2340 H 214.324 2.98457 0.293873 0
M  V30 2341 H 211.877 1.55871 0.115787 0
M  V30 2342 H 212.612 1.9018 2.62682 0
M  V30 2343 H 212.397 3.47764 1.81115 0
M  V30 2344 H 213.887 3.14738 2.74462 0
M  V30 2345 N 214.325 -0.140222 1.56975 0
M  V30 2346 C 215.55 -0.870414 1.88251 0
M  V30 2347 C 215.975 -1.73637 0.723312 0
M  V30 2348 O 215.333 -1.78329 -0.32689 0
M  V30 2349 C 215.381 -1.69737 3.18154 0
M  V30 2350 O 214.485 -2.80229 3.02565 0
M  V30 2351 H 213.826 -0.242025 0.61832 0
M  V30 2352 H 216.356 -0.128999 2.04193 0
M  V30 2353 H 216.366 -2.09099 3.50345 0
M  V30 2354 H 215.041 -1.06152 4.02125 0
M  V30 2355 H 213.618 -2.44224 2.81796 0
M  V30 2356 N 215.803 -1.52179 -0.40978 0
M  V30 2357 C 217.08 -1.56769 -1.16974 0
M  V30 2358 C 217.46 -0.348322 -2.08206 0
M  V30 2359 O 216.808 0.664862 -2.18613 0
M  V30 2360 C 217.018 -2.89603 -1.9476 0
M  V30 2361 C 218.366 -3.42579 -2.50849 0
M  V30 2362 O 219.39 -2.91338 -2.04941 0
M  V30 2363 O 218.249 -4.32054 -3.34652 0
M  V30 2364 H 215.343 -0.631439 -0.534054 0
M  V30 2365 H 217.889 -1.64507 -0.416613 0
M  V30 2366 H 216.661 -3.698 -1.27921 0
M  V30 2367 H 216.284 -2.85155 -2.77079 0
M  V30 2368 N 217.281 0.66697 -1.42791 0
M  V30 2369 C 218.211 1.79218 -1.49677 0
M  V30 2370 C 219.192 1.66405 -0.352623 0
M  V30 2371 O 220.377 1.85708 -0.567993 0
M  V30 2372 C 217.507 3.17565 -1.40605 0
M  V30 2373 C 216.461 3.45124 -2.53127 0
M  V30 2374 C 215.787 4.83127 -2.29112 0
M  V30 2375 C 217.087 3.41236 -3.95418 0
M  V30 2376 H 218.781 1.73713 -2.43853 0
M  V30 2377 H 216.327 0.83432 -1.17367 0
M  V30 2378 H 218.28 3.96022 -1.44029 0
M  V30 2379 H 217.004 3.23767 -0.429271 0
M  V30 2380 H 215.663 2.69031 -2.49034 0
M  V30 2381 H 215.311 4.85988 -1.29709 0
M  V30 2382 H 215.011 5.02528 -3.04531 0
M  V30 2383 H 216.535 5.63859 -2.34297 0
M  V30 2384 H 217.949 4.09651 -4.01073 0
M  V30 2385 H 216.346 3.72173 -4.70752 0
M  V30 2386 H 217.416 2.39665 -4.21532 0
M  V30 2387 N 218.759 1.29093 0.90403 0
M  V30 2388 C 219.984 1.19809 1.69294 0
M  V30 2389 C 220.409 -0.238481 1.86582 0
M  V30 2390 O 219.767 -1.1723 1.383 0
M  V30 2391 C 219.815 1.91202 3.05736 0
M  V30 2392 O 218.919 1.22611 3.93752 0
M  V30 2393 H 218.26 0.415385 0.518027 0
M  V30 2394 H 220.79 1.70586 1.12967 0
M  V30 2395 H 220.8 1.99487 3.55906 0
M  V30 2396 H 219.475 2.95692 2.92471 0
M  V30 2397 H 218.052 1.22554 3.52186 0
M  V30 2398 N 220.237 -1.11381 1.11499 0
M  V30 2399 C 221.462 -1.87475 0.887019 0
M  V30 2400 C 221.887 -1.79639 -0.557796 0
M  V30 2401 O 221.245 -1.15924 -1.39396 0
M  V30 2402 C 221.293 -3.34213 1.35403 0
M  V30 2403 O 220.397 -4.0903 0.526146 0
M  V30 2404 H 219.738 -0.582099 0.319463 0
M  V30 2405 H 222.268 -1.40785 1.48461 0
M  V30 2406 H 222.278 -3.8506 1.34881 0
M  V30 2407 H 220.953 -3.39232 2.40612 0
M  V30 2408 H 219.53 -3.68082 0.597522 0
M  V30 2409 N 221.715 -0.905404 -1.28997 0
M  V30 2410 C 222.625 -0.392246 -2.31298 0
M  V30 2411 C 223.641 0.515889 -1.66176 0
M  V30 2412 O 224.817 0.404093 -1.97304 0
M  V30 2413 C 221.882 0.36686 -3.44754 0
M  V30 2414 C 220.943 -0.573485 -4.25452 0
M  V30 2415 C 220.176 0.149488 -5.33491 0
M  V30 2416 O 220.399 1.37255 -5.5364 0
M  V30 2417 O 219.333 -0.510919 -5.99728 0
M  V30 2418 H 223.159 -1.2411 -2.77183 0
M  V30 2419 H 220.744 -0.669926 -1.33538 0
M  V30 2420 H 222.626 0.795907 -4.13816 0
M  V30 2421 H 221.301 1.19169 -3.00966 0
M  V30 2422 H 220.208 -1.05176 -3.59011 0
M  V30 2423 H 221.541 -1.36489 -4.72897 0
M  V30 2424 N 223.193 1.4272 -0.668489 0
M  V30 2425 C 224.103 2.34596 0.0139753 0
M  V30 2426 C 225.119 1.5474 0.795703 0
M  V30 2427 O 226.295 1.87334 0.739466 0
M  V30 2428 C 223.36 3.33202 0.957982 0
M  V30 2429 C 222.421 4.28957 0.17149 0
M  V30 2430 C 221.654 5.22853 1.07053 0
M  V30 2431 O 221.877 5.21531 2.31001 0
M  V30 2432 O 220.811 5.9952 0.534727 0
M  V30 2433 H 224.637 2.9448 -0.742661 0
M  V30 2434 H 222.222 1.43117 -0.428705 0
M  V30 2435 H 224.104 3.93796 1.50008 0
M  V30 2436 H 222.779 2.758 1.69458 0
M  V30 2437 H 221.686 3.71796 -0.414558 0
M  V30 2438 H 223.019 4.89383 -0.52586 0
M  V30 2439 N 224.671 0.411399 1.52136 0
M  V30 2440 C 225.919 -0.163322 2.01439 0
M  V30 2441 C 226.24 -1.45453 1.29879 0
M  V30 2442 O 225.51 -1.91225 0.4254 0
M  V30 2443 H 224.09 -0.0633447 0.744309 0
M  V30 2444 H 226.752 0.548161 1.87033 0
M  V30 2445 H 225.848 -0.357817 3.10042 0
M  V30 2446 N 226.149 -1.5696 0.141893 0
M  V30 2447 C 227.395 -1.97034 -0.504884 0
M  V30 2448 C 227.75 -1.02518 -1.62812 0
M  V30 2449 O 227.043 -0.0592943 -1.91508 0
M  V30 2450 C 227.237 -3.41242 -1.06249 0
M  V30 2451 C 227.066 -4.497 0.00519653 0
M  V30 2452 C 225.836 -5.03338 0.444873 0
M  V30 2453 C 228.034 -5.08122 0.794767 0
M  V30 2454 N 226.016 -5.95395 1.49593 0
M  V30 2455 C 227.387 -5.96339 1.69645 0
M  V30 2456 C 229.442 -4.9071 0.843122 0
M  V30 2457 C 228.145 -6.69009 2.64233 0
M  V30 2458 C 230.171 -5.64077 1.77681 0
M  V30 2459 C 229.533 -6.51999 2.66603 0
M  V30 2460 H 225.632 -0.766745 -0.153707 0
M  V30 2461 H 228.216 -1.93273 0.235313 0
M  V30 2462 H 226.387 -3.45606 -1.77231 0
M  V30 2463 H 228.119 -3.68389 -1.67546 0
M  V30 2464 H 224.874 -4.73576 0.0480959 0
M  V30 2465 H 225.298 -6.46128 2.02107 0
M  V30 2466 H 229.94 -4.22459 0.169732 0
M  V30 2467 H 227.658 -7.36492 3.32575 0
M  V30 2468 H 231.244 -5.52602 1.81996 0
M  V30 2469 H 230.124 -7.07775 3.37675 0
M  V30 2470 N 227.627 0.131896 -1.57047 0
M  V30 2471 C 229.043 0.485031 -1.52051 0
M  V30 2472 C 229.243 1.82563 -0.85281 0
M  V30 2473 O 228.299 2.48817 -0.429694 0
M  V30 2474 C 229.612 0.481409 -2.96821 0
M  V30 2475 C 231.16 0.565868 -3.07842 0
M  V30 2476 C 231.635 0.592762 -4.54148 0
M  V30 2477 N 233.126 0.654564 -4.58552 0
M  V30 2478 C 233.861 0.696608 -5.69153 0
M  V30 2479 N 233.357 0.697078 -6.89284 0
M  V30 2480 N 235.15 0.738639 -5.57226 0
M  V30 2481 H 227.301 -0.746664 -1.98843 0
M  V30 2482 H 229.564 -0.273999 -0.90754 0
M  V30 2483 H 229.27 -0.435731 -3.4899 0
M  V30 2484 H 229.144 1.3139 -3.53577 0
M  V30 2485 H 231.531 1.47343 -2.55684 0
M  V30 2486 H 231.612 -0.29406 -2.54104 0
M  V30 2487 H 231.256 -0.310701 -5.06949 0
M  V30 2488 H 231.186 1.46939 -5.05684 0
M  V30 2489 H 233.677 0.660887 -3.72076 0
M  V30 2490 H 233.99 0.731426 -7.69331 0
M  V30 2491 H 232.335 0.66471 -6.91814 0
M  V30 2492 H 235.526 0.735545 -4.62285 0
M  V30 2493 H 235.699 0.767938 -6.43434 0
M  V30 2494 N 229.106 1.52395 0.401703 0
M  V30 2495 C 230.036 1.79231 1.49661 0
M  V30 2496 C 231.017 0.643654 1.57452 0
M  V30 2497 O 232.202 0.889989 1.72606 0
M  V30 2498 C 229.332 1.94971 2.87409 0
M  V30 2499 C 228.286 3.10604 2.94465 0
M  V30 2500 C 227.612 3.11577 4.34538 0
M  V30 2501 C 228.912 4.49921 2.6527 0
M  V30 2502 H 230.606 2.70917 1.27454 0
M  V30 2503 H 228.152 1.30362 0.6117 0
M  V30 2504 H 230.105 2.12328 3.63999 0
M  V30 2505 H 228.829 0.999632 3.10926 0
M  V30 2506 H 227.488 2.93009 2.20321 0
M  V30 2507 H 227.136 2.14277 4.55076 0
M  V30 2508 H 226.836 3.89247 4.40183 0
M  V30 2509 H 228.36 3.31073 5.13053 0
M  V30 2510 H 229.774 4.67683 3.31581 0
M  V30 2511 H 228.171 5.29564 2.82281 0
M  V30 2512 H 229.241 4.57507 1.60671 0
M  V30 2513 N 230.584 -0.659388 1.43143 0
M  V30 2514 C 231.831 -1.41935 1.44433 0
M  V30 2515 C 232.159 -1.94387 0.0663522 0
M  V30 2516 O 231.414 -1.72314 -0.927706 0
M  V30 2517 C 231.713 -2.62206 2.42864 0
M  V30 2518 C 231.379 -2.28208 3.88886 0
M  V30 2519 C 230.041 -2.18647 4.28657 0
M  V30 2520 C 232.393 -2.00887 4.8093 0
M  V30 2521 C 229.721 -1.79914 5.58433 0
M  V30 2522 C 232.073 -1.63653 6.11065 0
M  V30 2523 C 230.737 -1.52614 6.49819 0
M  V30 2524 H 230.007 -0.519376 0.528517 0
M  V30 2525 H 232.654 -0.750453 1.76183 0
M  V30 2526 H 230.959 -3.34199 2.04495 0
M  V30 2527 H 232.656 -3.2041 2.41119 0
M  V30 2528 H 229.246 -2.36557 3.57406 0
M  V30 2529 H 233.43 -2.07198 4.5098 0
M  V30 2530 H 228.686 -1.69948 5.87305 0
M  V30 2531 H 232.86 -1.41543 6.81864 0
M  V30 2532 H 230.487 -1.22371 7.50286 0
M  V30 2533 N 232.062 -1.29571 -0.897171 0
M  V30 2534 C 233.009 -1.14916 -2.00158 0
M  V30 2535 C 233.979 -0.0418149 -1.66047 0
M  V30 2536 O 235.164 -0.209793 -1.89643 0
M  V30 2537 C 232.304 -0.834307 -3.34863 0
M  V30 2538 C 231.417 -2.02234 -3.8174 0
M  V30 2539 C 230.552 -1.64664 -5.05034 0
M  V30 2540 C 229.591 -2.80033 -5.44286 0
M  V30 2541 N 228.728 -2.42843 -6.58765 0
M  V30 2542 H 233.568 -2.09403 -2.12025 0
M  V30 2543 H 231.105 -1.042 -1.0383 0
M  V30 2544 H 233.063 -0.632436 -4.12379 0
M  V30 2545 H 231.693 0.0736656 -3.22716 0
M  V30 2546 H 230.745 -2.33583 -3.00238 0
M  V30 2547 H 232.057 -2.88673 -4.06779 0
M  V30 2548 H 231.211 -1.4078 -5.9014 0
M  V30 2549 H 229.95 -0.753766 -4.8184 0
M  V30 2550 H 228.955 -3.04596 -4.57713 0
M  V30 2551 H 230.18 -3.69989 -5.6946 0
M  V30 2552 H 228.126 -1.56046 -6.3717 0
M  V30 2553 H 228.043 -3.22815 -6.83613 0
M  V30 2554 H 229.311 -2.22285 -7.47134 0
M  V30 2555 N 233.54 1.10788 -1.12088 0
M  V30 2556 C 234.789 1.82036 -0.868659 0
M  V30 2557 C 235.102 1.85929 0.607426 0
M  V30 2558 O 236.308 2.53346 0.97613 0
M  V30 2559 C 234.764 3.26951 -1.50435 0
M  V30 2560 C 234.372 3.31367 -3.01496 0
M  V30 2561 C 236.116 4.03053 -1.33225 0
M  V30 2562 C 234.023 4.7072 -3.58017 0
M  V30 2563 H 232.953 0.682108 -0.321318 0
M  V30 2564 H 235.604 1.24618 -1.34694 0
M  V30 2565 H 233.986 3.84343 -0.953735 0
M  V30 2566 H 235.16 2.83819 -3.6302 0
M  V30 2567 H 233.475 2.6875 -3.18061 0
M  V30 2568 H 236.072 5.05981 -1.72878 0
M  V30 2569 H 236.415 4.15387 -0.275529 0
M  V30 2570 H 236.948 3.52066 -1.85188 0
M  V30 2571 H 233.687 4.63585 -4.63432 0
M  V30 2572 H 233.207 5.1865 -3.01268 0
M  V30 2573 H 234.886 5.39685 -3.56859 0
M  V30 2574 N 235.018 0.912232 1.28515 0
M  V30 2575 C 236.295 0.463597 1.90027 0
M  V30 2576 C 236.675 -1.05753 1.82701 0
M  V30 2577 O 236.023 -1.90492 1.26194 0
M  V30 2578 C 236.233 0.992253 3.34597 0
M  V30 2579 C 237.581 1.04344 4.11579 0
M  V30 2580 O 238.605 0.94079 3.43551 0
M  V30 2581 O 237.464 1.1995 5.33174 0
M  V30 2582 H 234.558 0.146666 0.813891 0
M  V30 2583 H 237.104 1.00292 1.36893 0
M  V30 2584 H 235.876 2.03623 3.34146 0
M  V30 2585 H 235.499 0.433672 3.95228 0
M  V30 2586 N 236.496 -1.42363 0.676048 0
M  V30 2587 C 237.443 -2.308 -0.00150904 0
M  V30 2588 C 238.413 -1.46032 -0.791444 0
M  V30 2589 O 239.598 -1.74861 -0.76344 0
M  V30 2590 C 236.738 -3.31883 -0.945919 0
M  V30 2591 C 235.851 -4.31741 -0.149675 0
M  V30 2592 C 234.986 -5.19898 -1.08995 0
M  V30 2593 C 234.025 -6.11434 -0.285465 0
M  V30 2594 N 233.162 -6.92138 -1.17851 0
M  V30 2595 H 238.002 -2.88187 0.758455 0
M  V30 2596 H 235.539 -1.41952 0.38576 0
M  V30 2597 H 237.497 -3.89019 -1.50731 0
M  V30 2598 H 236.127 -2.76093 -1.6725 0
M  V30 2599 H 235.179 -3.76713 0.528359 0
M  V30 2600 H 236.491 -4.96534 0.474866 0
M  V30 2601 H 235.645 -5.81772 -1.72123 0
M  V30 2602 H 234.384 -4.55284 -1.74837 0
M  V30 2603 H 233.389 -5.48627 0.359018 0
M  V30 2604 H 234.614 -6.78097 0.368883 0
M  V30 2605 H 232.56 -6.30152 -1.82332 0
M  V30 2606 H 232.477 -7.53542 -0.609082 0
M  V30 2607 H 233.745 -7.58499 -1.79722 0
M  V30 2608 N 237.974 -0.419461 -1.51915 0
M  V30 2609 C 238.884 0.407528 -2.31033 0
M  V30 2610 C 239.9 1.04413 -1.3919 0
M  V30 2611 O 241.076 1.0434 -1.72265 0
M  V30 2612 C 238.141 1.50365 -3.12396 0
M  V30 2613 C 237.202 0.889029 -4.19994 0
M  V30 2614 C 236.435 1.93291 -4.97468 0
M  V30 2615 O 236.658 3.15259 -4.75361 0
M  V30 2616 O 235.592 1.53339 -5.8204 0
M  V30 2617 H 239.418 -0.237865 -3.02767 0
M  V30 2618 H 237.003 -0.182413 -1.48282 0
M  V30 2619 H 238.885 2.13975 -3.63032 0
M  V30 2620 H 237.56 2.13345 -2.43445 0
M  V30 2621 H 236.467 0.215353 -3.7348 0
M  V30 2622 H 237.8 0.302991 -4.91267 0
M  V30 2623 N 239.452 1.56882 -0.150215 0
M  V30 2624 C 240.682 2.00302 0.506213 0
M  V30 2625 C 241.09 1.02934 1.58749 0
M  V30 2626 O 240.433 0.0188384 1.8369 0
M  V30 2627 C 240.495 3.40156 1.16337 0
M  V30 2628 C 240.159 4.56439 0.226311 0
M  V30 2629 C 241.156 5.17012 -0.547265 0
M  V30 2630 C 238.841 5.02136 0.128279 0
M  V30 2631 C 240.835 6.21693 -1.40629 0
M  V30 2632 C 238.522 6.06672 -0.734345 0
M  V30 2633 C 239.52 6.6632 -1.50023 0
M  V30 2634 O 239.208 7.68831 -2.34848 0
M  V30 2635 H 238.94 0.662182 0.135984 0
M  V30 2636 H 241.494 2.03961 -0.242746 0
M  V30 2637 H 239.724 3.33346 1.96004 0
M  V30 2638 H 241.413 3.67663 1.71985 0
M  V30 2639 H 242.179 4.82603 -0.48158 0
M  V30 2640 H 238.058 4.55435 0.714157 0
M  V30 2641 H 241.602 6.68179 -2.00455 0
M  V30 2642 H 237.499 6.40507 -0.801309 0
M  V30 2643 H 238.267 7.86065 -2.28131 0
M  V30 2644 N 240.93 -0.123565 1.57115 0
M  V30 2645 C 241.86 -1.15309 2.03042 0
M  V30 2646 C 242.841 -1.43454 0.914061 0
M  V30 2647 O 244.026 -1.53973 1.18347 0
M  V30 2648 C 241.156 -2.48043 2.43089 0
M  V30 2649 C 240.11 -2.3437 3.58127 0
M  V30 2650 C 239.436 -3.72026 3.84059 0
M  V30 2651 C 240.736 -1.80804 4.90007 0
M  V30 2652 H 242.43 -0.771102 2.893 0
M  V30 2653 H 239.976 -0.369479 1.39179 0
M  V30 2654 H 241.929 -3.20311 2.73823 0
M  V30 2655 H 240.653 -2.88122 1.53796 0
M  V30 2656 H 239.312 -1.64551 3.27595 0
M  V30 2657 H 238.96 -4.09582 2.91979 0
M  V30 2658 H 238.66 -3.63732 4.6149 0
M  V30 2659 H 240.184 -4.45806 4.1724 0
M  V30 2660 H 241.598 -2.42886 5.19307 0
M  V30 2661 H 239.995 -1.83343 5.71407 0
M  V30 2662 H 241.065 -0.76528 4.78823 0
M  V30 2663 N 242.408 -1.52605 -0.393616 0
M  V30 2664 C 243.338 -1.80022 -1.48709 0
M  V30 2665 C 244.319 -0.651995 -1.57108 0
M  V30 2666 O 245.504 -0.89913 -1.72132 0
M  V30 2667 C 242.634 -1.96492 -2.86371 0
M  V30 2668 C 241.588 -3.12161 -2.92813 0
M  V30 2669 C 240.914 -3.13877 -4.3288 0
M  V30 2670 C 242.214 -4.51322 -2.6288 0
M  V30 2671 H 243.908 -2.71589 -1.26015 0
M  V30 2672 H 241.454 -1.30684 -0.604778 0
M  V30 2673 H 243.407 -2.14255 -3.62867 0
M  V30 2674 H 242.131 -1.01611 -3.10391 0
M  V30 2675 H 240.79 -2.94173 -2.18764 0
M  V30 2676 H 240.438 -2.16687 -4.53933 0
M  V30 2677 H 240.138 -3.91576 -4.38112 0
M  V30 2678 H 241.662 -3.33789 -5.1129 0
M  V30 2679 H 243.076 -4.69435 -3.29096 0
M  V30 2680 H 241.473 -5.31053 -2.79468 0
M  V30 2681 H 242.543 -4.58353 -1.58242 0
M  V30 2682 N 243.887 0.651787 -1.4349 0
M  V30 2683 C 244.834 1.76462 -1.4876 0
M  V30 2684 C 245.804 1.62641 -0.337189 0
M  V30 2685 O 246.989 1.82864 -0.544544 0
M  V30 2686 C 244.129 3.14623 -1.41796 0
M  V30 2687 C 243.242 3.39568 -2.67053 0
M  V30 2688 C 242.377 4.67585 -2.52068 0
M  V30 2689 C 241.416 4.85639 -3.72587 0
M  V30 2690 N 240.553 6.04915 -3.56402 0
M  V30 2691 H 245.393 1.71293 -2.43849 0
M  V30 2692 H 242.93 0.835889 -1.21043 0
M  V30 2693 H 244.888 3.94496 -1.35753 0
M  V30 2694 H 243.518 3.18859 -0.50288 0
M  V30 2695 H 242.57 2.53783 -2.8337 0
M  V30 2696 H 243.882 3.48795 -3.56572 0
M  V30 2697 H 243.036 5.55586 -2.4374 0
M  V30 2698 H 241.775 4.60681 -1.60075 0
M  V30 2699 H 240.78 3.96073 -3.81321 0
M  V30 2700 H 242.005 4.94372 -4.65589 0
M  V30 2701 H 239.951 5.9914 -2.67146 0
M  V30 2702 H 239.868 6.15106 -4.39524 0
M  V30 2703 H 241.136 6.95533 -3.51929 0
M  V30 2704 N 245.365 1.30045 0.890287 0
M  V30 2705 C 246.298 1.10301 1.99772 0
M  V30 2706 C 247.276 0.0121631 1.62595 0
M  V30 2707 O 248.46 0.16469 1.87779 0
M  V30 2708 C 245.587 0.681125 3.31781 0
M  V30 2709 C 244.633 1.77206 3.87944 0
M  V30 2710 S 245.466 3.37335 4.15891 0
M  V30 2711 C 246.622 2.97036 5.50927 0
M  V30 2712 H 246.855 2.04057 2.16213 0
M  V30 2713 H 244.388 1.14299 1.03804 0
M  V30 2714 H 246.346 0.444439 4.08087 0
M  V30 2715 H 245.007 -0.236981 3.13205 0
M  V30 2716 H 244.2 1.42903 4.83316 0
M  V30 2717 H 243.802 1.96275 3.18358 0
M  V30 2718 H 246.094 2.44666 6.31779 0
M  V30 2719 H 247.037 3.91296 5.90164 0
M  V30 2720 H 247.445 2.35057 5.13233 0
M  V30 2721 N 246.843 -1.10192 1.12674 0
M  V30 2722 C 247.806 -2.14786 0.799979 0
M  V30 2723 C 248.806 -1.59711 -0.18685 0
M  V30 2724 O 249.996 -1.74156 0.0392558 0
M  V30 2725 C 247.128 -3.40374 0.189228 0
M  V30 2726 H 248.321 -2.45203 1.72671 0
M  V30 2727 H 245.874 -1.25597 0.930326 0
M  V30 2728 H 246.609 -3.15577 -0.747107 0
M  V30 2729 H 246.394 -3.81637 0.899766 0
M  V30 2730 H 247.884 -4.17594 -0.0228143 0
M  V30 2731 N 248.321 -0.919034 -1.28029 0
M  V30 2732 C 249.549 -0.570971 -1.98866 0
M  V30 2733 C 249.964 0.848996 -1.68634 0
M  V30 2734 O 249.321 1.56307 -0.942036 0
M  V30 2735 C 249.372 -0.776876 -3.53054 0
M  V30 2736 O 249.093 -2.14097 -3.82222 0
M  V30 2737 C 250.594 -0.436356 -4.41147 0
M  V30 2738 H 247.814 -0.217175 -0.634883 0
M  V30 2739 H 250.358 -1.23368 -1.63097 0
M  V30 2740 H 248.513 -0.161085 -3.87065 0
M  V30 2741 H 248.927 -2.18455 -4.76841 0
M  V30 2742 H 250.401 -0.63117 -5.4838 0
M  V30 2743 H 250.878 0.627686 -4.34692 0
M  V30 2744 H 251.484 -1.02991 -4.12641 0
M  V30 2745 N 249.799 1.42003 -0.683588 0
M  V30 2746 C 250.709 2.34597 -0.0109075 0
M  V30 2747 C 251.725 1.55576 0.779245 0
M  V30 2748 O 252.901 1.88107 0.719555 0
M  V30 2749 C 249.966 3.34199 0.922588 0
M  V30 2750 C 249.027 4.29115 0.125984 0
M  V30 2751 C 248.26 5.23959 1.01502 0
M  V30 2752 O 248.483 5.23952 2.25456 0
M  V30 2753 O 247.417 6.00053 0.47111 0
M  V30 2754 H 251.243 2.93675 -0.773853 0
M  V30 2755 H 248.828 1.42654 -0.443861 0
M  V30 2756 H 250.71 3.95365 1.45823 0
M  V30 2757 H 249.385 2.77582 1.66523 0
M  V30 2758 H 248.292 3.71335 -0.453969 0
M  V30 2759 H 249.625 4.88798 -0.577736 0
M  V30 2760 N 251.277 0.427512 1.51691 0
M  V30 2761 C 252.187 -0.39527 2.31246 0
M  V30 2762 C 253.203 -1.03674 1.39742 0
M  V30 2763 O 254.379 -1.03425 1.72816 0
M  V30 2764 C 251.444 -1.48706 3.13189 0
M  V30 2765 C 250.505 -0.866743 4.20459 0
M  V30 2766 C 249.738 -1.90651 4.98486 0
M  V30 2767 O 249.961 -3.12733 4.77026 0
M  V30 2768 O 248.895 -1.5025 5.82845 0
M  V30 2769 H 252.721 0.253918 3.02637 0
M  V30 2770 H 250.306 0.190274 1.48183 0
M  V30 2771 H 252.188 -2.12047 3.64162 0
M  V30 2772 H 250.863 -2.12051 2.44573 0
M  V30 2773 H 249.77 -0.195544 3.73589 0
M  V30 2774 H 251.103 -0.276934 4.9142 0
M  V30 2775 O 252.794 -1.58699 0.299458 0
M  V30 2776 H 253.485 -1.91872 -0.265495 0
M  V30 END ATOM
M  V30 BEGIN BOND
M  V30 END BOND
M  V30 END CTAB
M  END
$$$$
