drugbank_target|P16220 Cyclic AMP-responsive element-binding protein 1 (DB00131; DB01183)
 OpenBabel12092119443D

  0  0  0     0  0            999 V3000
M  V30 BEGIN CTAB
M  V30 COUNTS 5142 5171 0 0 0
M  V30 BEGIN ATOM
M  V30 1 H -0.908 1.98254 -0.117106 0
M  V30 2 N 0 1.576 0 0
M  V30 3 C 0.933 2.03868 1.02534 0
M  V30 4 C 1.911 0.928543 1.3348 0
M  V30 5 O 3.095 1.19667 1.45644 0
M  V30 6 C 0.222 2.43627 2.35294 0
M  V30 7 C -0.732 3.65373 2.2001 0
M  V30 8 S 0.101 5.13292 1.52614 0
M  V30 9 C 1.257 5.56322 2.86805 0
M  V30 10 H 1.49 2.90518 0.631377 0
M  V30 11 H -0.977 1.52953 0.210867 0
M  V30 12 H 0.981 2.67203 3.11629 0
M  V30 13 H -0.358 1.57376 2.7183 0
M  V30 14 H -1.165 3.90944 3.18086 0
M  V30 15 H -1.563 3.418 1.51819 0
M  V30 16 H 0.729 5.58782 3.83104 0
M  V30 17 H 1.672 6.56266 2.65933 0
M  V30 18 H 2.08 4.83886 2.90714 0
M  V30 19 N 1.4781 -0.272755 1.55222 0
M  V30 20 C 2.7061 -1.02255 1.79865 0
M  V30 21 C 3.1211 -1.79924 0.572088 0
M  V30 22 O 2.4781 -1.76638 -0.458842 0
M  V30 23 C 2.5291 -1.98094 3.02392 0
M  V30 24 O 2.2501 -1.23572 4.20311 0
M  V30 25 C 3.7511 -2.84884 3.39641 0
M  V30 26 H 0.9711 -0.302057 0.599168 0
M  V30 27 H 3.5151 -0.303465 2.02236 0
M  V30 28 H 1.6701 -2.65465 2.82147 0
M  V30 29 H 2.0841 -1.88172 4.89583 0
M  V30 30 H 3.5581 -3.47927 4.28545 0
M  V30 31 H 4.0351 -3.54665 2.59055 0
M  V30 32 H 4.6411 -2.23003 3.62146 0
M  V30 33 N 2.9562 -1.48159 -0.537278 0
M  V30 34 C 3.8892 -1.567 -1.65893 0
M  V30 35 C 4.8672 -0.41787 -1.57139 0
M  V30 36 O 6.0512 -0.628461 -1.77715 0
M  V30 37 C 3.1782 -1.48818 -3.04255 0
M  V30 38 C 2.2242 -2.68482 -3.31391 0
M  V30 39 S 3.0572 -4.30516 -3.1846 0
M  V30 40 C 4.2132 -4.2522 -4.59281 0
M  V30 41 H 4.4462 -2.5159 -1.58397 0
M  V30 42 H 1.9792 -1.36602 -0.719672 0
M  V30 43 H 3.9372 -1.44958 -3.84054 0
M  V30 44 H 2.5982 -0.552777 -3.09198 0
M  V30 45 H 1.7912 -2.59085 -4.32309 0
M  V30 46 H 1.3932 -2.69567 -2.59248 0
M  V30 47 H 3.6852 -3.94703 -5.5065 0
M  V30 48 H 4.6282 -5.26292 -4.73732 0
M  V30 49 H 5.0362 -3.55791 -4.38261 0
M  V30 50 N 4.4343 0.785586 -1.36625 0
M  V30 51 C 5.3443 1.92964 -1.33425 0
M  V30 52 C 6.3603 1.72394 -0.235851 0
M  V30 53 O 7.5363 1.95866 -0.468878 0
M  V30 54 C 4.6013 3.27884 -1.12662 0
M  V30 55 C 3.6623 3.61204 -2.32013 0
M  V30 56 C 2.8953 4.89687 -2.12231 0
M  V30 57 O 3.1183 5.59704 -1.09945 0
M  V30 58 O 2.0523 5.21752 -3.00098 0
M  V30 59 H 5.8783 1.98613 -2.29753 0
M  V30 60 H 3.4633 0.926384 -1.17211 0
M  V30 61 H 5.3453 4.08614 -1.03016 0
M  V30 62 H 4.0203 3.23118 -0.193991 0
M  V30 63 H 2.9273 2.80765 -2.47228 0
M  V30 64 H 4.2603 3.70698 -3.23796 0
M  V30 65 N 5.9124 1.20967 1.01018 0
M  V30 66 C 7.1374 1.0503 1.78839 0
M  V30 67 C 7.5624 -0.395752 1.8389 0
M  V30 68 O 6.9204 -1.28529 1.27867 0
M  V30 69 C 6.9684 1.64602 3.2084 0
M  V30 70 O 6.0724 0.887988 4.02726 0
M  V30 71 H 5.4134 0.369987 0.551367 0
M  V30 72 H 7.9434 1.60399 1.27018 0
M  V30 73 H 7.9534 1.68607 3.71532 0
M  V30 74 H 6.6284 2.69841 3.16479 0
M  V30 75 H 5.2054 0.922648 3.61305 0
M  V30 76 N 7.3905 -1.2043 1.01659 0
M  V30 77 C 8.6385 -1.89423 0.704522 0
M  V30 78 C 8.9595 -1.79231 -0.768197 0
M  V30 79 O 8.2295 -1.1947 -1.55254 0
M  V30 80 H 6.8095 -0.701178 0.257602 0
M  V30 81 H 9.4715 -1.4626 1.28818 0
M  V30 82 H 8.5675 -2.96052 0.987916 0
M  V30 83 N 8.8686 -0.792821 -1.36206 0
M  V30 84 C 9.8316 -0.199459 -2.2833 0
M  V30 85 C 10.8316 0.605189 -1.48977 0
M  V30 86 O 12.0216 0.425685 -1.68919 0
M  V30 87 C 9.1536 0.723523 -3.33134 0
M  V30 88 H 10.3466 -1.01181 -2.82316 0
M  V30 89 H 7.8996 -0.562485 -1.45828 0
M  V30 90 H 8.6346 1.56008 -2.84309 0
M  V30 91 H 8.4196 0.148436 -3.91819 0
M  V30 92 H 9.9096 1.13344 -4.01924 0
M  V30 93 N 10.3467 1.47872 -0.545128 0
M  V30 94 C 11.2567 2.33633 0.212746 0
M  V30 95 C 12.2727 1.4744 0.923983 0
M  V30 96 O 13.4487 1.80393 0.895572 0
M  V30 97 C 10.5137 3.23884 1.23693 0
M  V30 98 C 9.5747 4.25961 0.534417 0
M  V30 99 C 8.8077 5.11899 1.5098 0
M  V30 100 O 9.0307 5.00077 2.7437 0
M  V30 101 O 7.9647 5.92831 1.0409 0
M  V30 102 H 11.7907 2.99714 -0.490416 0
M  V30 103 H 9.3757 1.46235 -0.305871 0
M  V30 104 H 11.2577 3.79666 1.82843 0
M  V30 105 H 9.9327 2.60446 1.92222 0
M  V30 106 H 8.8397 3.73972 -0.0979679 0
M  V30 107 H 10.1727 4.92079 -0.109213 0
M  V30 108 N 11.8248 0.280983 1.55075 0
M  V30 109 C 12.7728 -0.619864 2.24188 0
M  V30 110 C 13.7668 -1.15315 1.24092 0
M  V30 111 O 14.9728 -1.1061 1.42005 0
M  V30 112 H 11.3478 -0.218459 0.719569 0
M  V30 113 H 13.3188 -0.0141831 2.98397 0
M  V30 114 C 12.0678 -1.7899 2.98091 0
M  V30 115 H 11.3908 -1.38874 3.74905 0
M  V30 116 H 12.8308 -2.39672 3.49762 0
M  V30 117 C 11.2898 -2.68192 2.03899 0
M  V30 118 O 11.8198 -3.6872 1.594 0
M  V30 119 N 10.0258 -2.35488 1.70275 0
M  V30 120 H 9.5728 -1.53787 2.06658 0
M  V30 121 H 9.5308 -2.95442 1.07524 0
M  V30 122 N 13.3029 -1.57598 0.00835791 0
M  V30 123 C 14.2349 -2.05811 -1.00868 0
M  V30 124 C 15.2479 -0.977579 -1.30182 0
M  V30 125 O 16.4369 -1.25421 -1.27011 0
M  V30 126 C 13.5369 -2.45016 -2.34137 0
M  V30 127 C 12.7099 -3.75903 -2.23643 0
M  V30 128 C 11.7689 -4.01884 -3.3967 0
M  V30 129 O 10.7949 -4.72433 -3.17483 0
M  V30 130 N 11.9969 -3.50432 -4.62793 0
M  V30 131 H 14.7619 -2.93684 -0.597458 0
M  V30 132 H 12.3229 -1.60909 -0.178852 0
M  V30 133 H 14.3149 -2.59506 -3.10546 0
M  V30 134 H 12.8849 -1.62618 -2.66972 0
M  V30 135 H 12.1049 -3.7141 -1.32091 0
M  V30 136 H 13.3929 -4.61695 -2.13812 0
M  V30 137 H 12.7909 -2.93317 -4.83716 0
M  V30 138 H 11.3479 -3.70236 -5.3644 0
M  V30 139 N 14.781 0.264519 -1.55364 0
M  V30 140 C 15.713 1.34965 -1.85248 0
M  V30 141 C 16.726 1.45136 -0.737525 0
M  V30 142 O 17.915 1.46801 -1.01547 0
M  V30 143 C 15.015 2.73008 -2.00797 0
M  V30 144 C 14.188 2.85324 -3.31525 0
M  V30 145 C 13.247 4.04097 -3.37034 0
M  V30 146 O 12.273 3.94455 -4.10358 0
M  V30 147 N 13.475 5.16458 -2.65049 0
M  V30 148 H 16.24 1.09672 -2.78913 0
M  V30 149 H 13.801 0.454635 -1.55386 0
M  V30 150 H 15.793 3.50772 -2.01844 0
M  V30 151 H 14.363 2.91087 -1.1396 0
M  V30 152 H 13.583 1.94377 -3.42945 0
M  V30 153 H 14.871 2.9049 -4.17724 0
M  V30 154 H 14.269 5.27181 -2.05175 0
M  V30 155 H 12.826 5.92422 -2.71809 0
M  V30 156 N 16.2591 1.48442 0.529413 0
M  V30 157 C 17.4841 1.60406 1.31471 0
M  V30 158 C 17.9091 0.264738 1.86228 0
M  V30 159 O 17.2671 -0.763668 1.64432 0
M  V30 160 C 17.3151 2.65419 2.44101 0
M  V30 161 O 16.4191 2.22618 3.47153 0
M  V30 162 H 15.7601 0.537863 0.389357 0
M  V30 163 H 18.2901 1.94432 0.636965 0
M  V30 164 H 18.3001 2.86709 2.90279 0
M  V30 165 H 16.9751 3.62652 2.03608 0
M  V30 166 H 15.5521 2.11543 3.0709 0
M  V30 167 N 17.7372 -0.778329 1.37039 0
M  V30 168 C 18.9852 -1.53361 1.31623 0
M  V30 169 C 19.3062 -1.94739 -0.100831 0
M  V30 170 O 18.5762 -1.65797 -1.04347 0
M  V30 171 H 17.1562 -0.568794 0.484234 0
M  V30 172 H 19.8182 -0.926742 1.71457 0
M  V30 173 H 18.9142 -2.43606 1.95096 0
M  V30 174 N 19.2153 -1.21501 -1.00376 0
M  V30 175 C 20.4923 -0.941745 -1.71437 0
M  V30 176 C 20.8723 0.546114 -2.03914 0
M  V30 177 O 20.2203 1.51128 -1.71384 0
M  V30 178 C 20.4303 -1.82812 -2.97289 0
M  V30 179 C 21.7783 -2.07771 -3.70292 0
M  V30 180 O 22.8023 -1.80171 -3.07273 0
M  V30 181 O 21.6613 -2.54456 -4.83647 0
M  V30 182 H 18.7553 -0.353243 -0.747762 0
M  V30 183 H 21.3013 -1.32436 -1.06108 0
M  V30 184 H 20.0733 -2.83501 -2.69709 0
M  V30 185 H 19.6963 -1.4464 -3.70358 0
M  V30 186 N 20.6934 1.19889 -1.02296 0
M  V30 187 C 21.6564 2.21116 -0.603351 0
M  V30 188 C 22.6564 1.5738 0.329884 0
M  V30 189 O 23.8464 1.73802 0.117702 0
M  V30 190 C 20.9784 3.40696 0.117992 0
M  V30 191 H 22.1714 2.59754 -1.49893 0
M  V30 192 H 19.7244 1.33463 -0.813468 0
M  V30 193 H 20.4594 3.07569 1.0282 0
M  V30 194 H 20.2444 3.88188 -0.552511 0
M  V30 195 H 21.7344 4.15692 0.398696 0
M  V30 196 N 22.1715 0.800033 1.35784 0
M  V30 197 C 23.1345 0.211565 2.28221 0
M  V30 198 C 24.1345 -0.59728 1.49296 0
M  V30 199 O 25.3245 -0.416721 1.69142 0
M  V30 200 C 22.4565 -0.705846 3.33513 0
M  V30 201 H 23.6495 1.02677 2.81776 0
M  V30 202 H 21.2025 0.570211 1.45528 0
M  V30 203 H 21.9375 -1.54498 2.85133 0
M  V30 204 H 21.7225 -0.127655 3.91892 0
M  V30 205 H 23.2125 -1.11211 4.02519 0
M  V30 206 N 23.6496 -1.47581 0.552962 0
M  V30 207 C 24.8956 -2.02782 0.0273648 0
M  V30 208 C 25.2286 -1.42687 -1.31734 0
M  V30 209 O 24.5036 -0.580897 -1.85623 0
M  V30 210 C 24.7866 -3.60031 -0.0702371 0
M  V30 211 C 24.6396 -4.30566 1.30126 0
M  V30 212 C 25.9586 -4.33028 -0.785771 0
M  V30 213 H 23.0776 -0.736912 0.0114185 0
M  V30 214 H 25.7196 -1.76056 0.714432 0
M  V30 215 H 23.8696 -3.82932 -0.655382 0
M  V30 216 H 25.5416 -4.19018 1.92929 0
M  V30 217 H 23.7846 -3.91086 1.87709 0
M  V30 218 H 24.4556 -5.39114 1.18573 0
M  V30 219 H 26.9316 -4.15095 -0.288982 0
M  V30 220 H 25.8076 -5.42695 -0.823013 0
M  V30 221 H 26.0686 -4.01945 -1.841 0
M  V30 222 N 25.1277 -0.289203 -1.54924 0
M  V30 223 C 26.3557 0.326463 -2.04308 0
M  V30 224 C 26.7707 1.48413 -1.16701 0
M  V30 225 O 26.1277 1.81507 -0.190087 0
M  V30 226 C 26.1787 0.794014 -3.52672 0
M  V30 227 O 25.8997 -0.317564 -4.36948 0
M  V30 228 C 27.4007 1.47605 -4.18004 0
M  V30 229 H 24.6207 0.0726272 -0.667058 0
M  V30 230 H 27.1647 -0.425401 -2.00026 0
M  V30 231 H 25.3197 1.49593 -3.57352 0
M  V30 232 H 25.7337 0.0443186 -5.24481 0
M  V30 233 H 27.2077 1.75447 -5.23376 0
M  V30 234 H 27.6847 2.41224 -3.67025 0
M  V30 235 H 28.2907 0.81762 -4.17367 0
M  V30 236 N 26.6058 1.57591 -0.0167156 0
M  V30 237 C 27.5158 2.1291 0.98521 0
M  V30 238 C 28.5318 1.07834 1.36557 0
M  V30 239 O 29.7078 1.39826 1.44951 0
M  V30 240 C 26.7728 2.63512 2.25305 0
M  V30 241 C 25.8338 3.83256 1.93426 0
M  V30 242 C 25.0668 4.31435 3.14165 0
M  V30 243 O 25.2898 3.78851 4.26413 0
M  V30 244 O 24.2238 5.23416 2.97186 0
M  V30 245 H 28.0498 2.98772 0.544888 0
M  V30 246 H 25.6348 1.48012 0.203141 0
M  V30 247 H 27.5168 2.96183 2.99756 0
M  V30 248 H 26.1918 1.8074 2.68542 0
M  V30 249 H 25.0988 3.55531 1.16398 0
M  V30 250 H 26.4318 4.67153 1.55013 0
M  V30 251 N 28.0839 -0.256276 1.55502 0
M  V30 252 C 29.0469 -1.30047 1.88734 0
M  V30 253 C 30.0469 -1.4154 0.763086 0
M  V30 254 O 31.2369 -1.40403 1.03115 0
M  V30 255 C 28.3689 -2.67953 2.10747 0
M  V30 256 H 29.5619 -1.01802 2.82093 0
M  V30 257 H 27.1149 -0.495134 1.4825 0
M  V30 258 H 27.8499 -3.01351 1.19825 0
M  V30 259 H 27.6349 -2.60993 2.92617 0
M  V30 260 H 29.1249 -3.43368 2.37673 0
M  V30 261 N 29.562 -1.4872 -0.521534 0
M  V30 262 C 30.472 -1.66569 -1.65203 0
M  V30 263 C 31.488 -0.548197 -1.65139 0
M  V30 264 O 32.664 -0.820339 -1.83936 0
M  V30 265 C 29.729 -1.70917 -3.01642 0
M  V30 266 C 28.79 -2.94356 -3.12495 0
M  V30 267 C 28.023 -2.98487 -4.42426 0
M  V30 268 O 28.246 -2.10786 -5.30024 0
M  V30 269 O 27.18 -3.90746 -4.57822 0
M  V30 270 H 31.006 -2.62298 -1.5308 0
M  V30 271 H 28.591 -1.3222 -0.695565 0
M  V30 272 H 30.473 -1.7625 -3.82771 0
M  V30 273 H 29.148 -0.783633 -3.14071 0
M  V30 274 H 28.055 -2.94552 -2.3063 0
M  V30 275 H 29.388 -3.86322 -3.04986 0
M  V30 276 N 31.0401 0.771051 -1.3745 0
M  V30 277 C 31.9881 1.90574 -1.33358 0
M  V30 278 C 32.9821 1.67936 -0.22224 0
M  V30 279 O 34.1881 1.75717 -0.390304 0
M  V30 280 H 30.5631 0.626714 -0.415612 0
M  V30 281 H 32.5341 1.91142 -2.29144 0
M  V30 282 C 31.2831 3.27845 -1.15813 0
M  V30 283 H 30.6061 3.45842 -2.00583 0
M  V30 284 H 32.0461 4.07538 -1.17 0
M  V30 285 C 30.5051 3.36625 0.136165 0
M  V30 286 O 31.0351 3.85785 1.11949 0
M  V30 287 N 29.2411 2.89997 0.187099 0
M  V30 288 H 28.7881 2.50182 -0.613753 0
M  V30 289 H 28.7461 2.96252 1.05272 0
M  V30 290 N 32.5182 1.22032 0.997298 0
M  V30 291 C 33.4502 0.944263 2.08845 0
M  V30 292 C 34.4632 -0.0754663 1.62625 0
M  V30 293 O 35.6522 0.157994 1.77799 0
M  V30 294 C 32.7522 0.397723 3.36558 0
M  V30 295 C 31.9252 1.47362 4.11829 0
M  V30 296 C 30.9842 0.934951 5.17827 0
M  V30 297 O 30.0102 1.62016 5.45655 0
M  V30 298 N 31.2122 -0.245895 5.79979 0
M  V30 299 H 33.9772 1.88363 2.33109 0
M  V30 300 H 31.5382 1.12661 1.16272 0
M  V30 301 H 33.5302 0.0227771 4.04694 0
M  V30 302 H 32.1002 -0.446646 3.09393 0
M  V30 303 H 31.3202 2.02208 3.38386 0
M  V30 304 H 32.6082 2.19764 4.58891 0
M  V30 305 H 32.0062 -0.819475 5.59733 0
M  V30 306 H 30.5632 -0.562272 6.4937 0
M  V30 307 N 33.9963 -1.19345 1.0293 0
M  V30 308 C 34.9283 -2.22036 0.56857 0
M  V30 309 C 35.9413 -1.58865 -0.355779 0
M  V30 310 O 37.1303 -1.77851 -0.152103 0
M  V30 311 C 34.2303 -3.38363 -0.190752 0
M  V30 312 C 33.4033 -4.31118 0.738643 0
M  V30 313 C 32.4623 -5.26194 0.0246497 0
M  V30 314 O 31.4883 -5.65461 0.651354 0
M  V30 315 N 32.6903 -5.66971 -1.24594 0
M  V30 316 H 35.4553 -2.6219 1.45177 0
M  V30 317 H 33.0163 -1.34015 0.908381 0
M  V30 318 H 35.0083 -3.98981 -0.677961 0
M  V30 319 H 33.5783 -2.96994 -0.975366 0
M  V30 320 H 32.7983 -3.68276 1.40593 0
M  V30 321 H 34.0863 -4.90001 1.37029 0
M  V30 322 H 33.4843 -5.37104 -1.77583 0
M  V30 323 H 32.0413 -6.2984 -1.67764 0
M  V30 324 N 35.4744 -0.807222 -1.35358 0
M  V30 325 C 36.4074 -0.163572 -2.27613 0
M  V30 326 C 37.3854 0.670817 -1.48118 0
M  V30 327 O 38.5694 0.63796 -1.77376 0
M  V30 328 C 35.6964 0.773015 -3.29761 0
M  V30 329 C 34.7424 0.0181653 -4.26496 0
M  V30 330 S 35.5754 -1.31831 -5.19019 0
M  V30 331 C 36.7314 -0.38619 -6.24707 0
M  V30 332 H 36.9644 -0.945757 -2.81856 0
M  V30 333 H 34.4974 -0.602315 -1.42167 0
M  V30 334 H 36.4554 1.30788 -3.89108 0
M  V30 335 H 35.1164 1.52859 -2.74396 0
M  V30 336 H 34.3094 0.729534 -4.98692 0
M  V30 337 H 33.9114 -0.446761 -3.71322 0
M  V30 338 H 36.2034 0.428295 -6.76145 0
M  V30 339 H 37.1464 -1.07736 -6.99856 0
M  V30 340 H 37.5544 0.018398 -5.64497 0
M  V30 341 N 36.9525 1.47285 -0.560781 0
M  V30 342 C 38.1805 2.06855 -0.0430262 0
M  V30 343 C 38.5955 1.41291 1.25229 0
M  V30 344 O 37.9525 0.510648 1.7521 0
M  V30 345 C 38.0035 3.61178 0.152518 0
M  V30 346 O 37.7245 4.24285 -1.0915 0
M  V30 347 C 39.2255 4.37624 0.707145 0
M  V30 348 H 36.4455 0.669319 -0.0474652 0
M  V30 349 H 38.9895 1.89237 -0.77521 0
M  V30 350 H 37.1445 3.78298 0.834843 0
M  V30 351 H 37.5585 5.16868 -0.891482 0
M  V30 352 H 39.0325 5.46271 0.793244 0
M  V30 353 H 39.5095 4.04152 1.71923 0
M  V30 354 H 40.1155 4.25257 0.0604027 0
M  V30 355 N 38.4306 0.297415 1.54768 0
M  V30 356 C 39.6766 -0.313376 2.00364 0
M  V30 357 C 40.0096 -1.53815 1.18553 0
M  V30 358 O 39.2846 -1.92739 0.261103 0
M  V30 359 C 39.5676 -0.673525 3.53745 0
M  V30 360 C 39.4206 0.560133 4.46299 0
M  V30 361 C 40.7396 -1.50143 4.13697 0
M  V30 362 H 37.8586 -0.112428 0.728374 0
M  V30 363 H 40.5006 0.4088 1.8555 0
M  V30 364 H 38.6506 -1.28881 3.665 0
M  V30 365 H 40.3226 1.19863 4.45455 0
M  V30 366 H 38.5656 1.19405 4.17043 0
M  V30 367 H 39.2366 0.26405 5.51368 0
M  V30 368 H 41.7126 -0.981588 4.04356 0
M  V30 369 H 40.5886 -1.72221 5.21182 0
M  V30 370 H 40.8496 -2.48952 3.65343 0
M  V30 371 N 39.9087 -1.5758 0.0250728 0
M  V30 372 C 40.8407 -2.06869 -0.986796 0
M  V30 373 C 41.8537 -0.991332 -1.29137 0
M  V30 374 O 43.0427 -1.26761 -1.25674 0
M  V30 375 C 40.1427 -2.47486 -2.31525 0
M  V30 376 C 39.3157 -3.78253 -2.19643 0
M  V30 377 C 38.3747 -4.05464 -3.35388 0
M  V30 378 O 37.4007 -4.75774 -3.12454 0
M  V30 379 N 38.6027 -3.55321 -4.59051 0
M  V30 380 H 41.3677 -2.94302 -0.566276 0
M  V30 381 H 38.9287 -1.6109 -0.161776 0
M  V30 382 H 40.9207 -2.62785 -3.07776 0
M  V30 383 H 39.4907 -1.65441 -2.65232 0
M  V30 384 H 38.7107 -3.7279 -1.28144 0
M  V30 385 H 39.9987 -4.63936 -2.08903 0
M  V30 386 H 39.3967 -2.98431 -4.80578 0
M  V30 387 H 37.9537 -3.75905 -5.32483 0
M  V30 388 N 41.3868 0.248026 -1.55636 0
M  V30 389 C 42.3498 1.29044 -1.89421 0
M  V30 390 C 43.3498 1.41134 -0.770581 0
M  V30 391 O 44.5398 1.39854 -1.03858 0
M  V30 392 C 41.6718 2.66831 -2.12165 0
M  V30 393 H 42.8648 1.00305 -2.82629 0
M  V30 394 H 40.4178 0.487265 -1.48511 0
M  V30 395 H 41.1528 3.00711 -1.21422 0
M  V30 396 H 40.9378 2.59438 -2.93997 0
M  V30 397 H 42.4278 3.42103 -2.3949 0
M  V30 398 N 42.8649 1.48995 0.513639 0
M  V30 399 C 43.7969 1.60836 1.63293 0
M  V30 400 C 44.8099 0.491701 1.55197 0
M  V30 401 O 45.9989 0.763238 1.6136 0
M  V30 402 C 43.0989 1.53731 3.02027 0
M  V30 403 C 42.2719 2.80715 3.35437 0
M  V30 404 C 41.3309 2.66837 4.53525 0
M  V30 405 O 40.3569 3.40753 4.55934 0
M  V30 406 N 41.5589 1.77539 5.52684 0
M  V30 407 H 44.3239 2.57366 1.53566 0
M  V30 408 H 41.8849 1.45925 0.701259 0
M  V30 409 H 43.8769 1.42118 3.78926 0
M  V30 410 H 42.4469 0.651092 3.05744 0
M  V30 411 H 41.6669 3.06772 2.47557 0
M  V30 412 H 42.9549 3.64927 3.54551 0
M  V30 413 H 42.3529 1.16719 5.53528 0
M  V30 414 H 40.9099 1.71856 6.28736 0
M  V30 415 N 44.343 -0.763751 1.37857 0
M  V30 416 C 45.754 -1.3405 1.29952 0
M  V30 417 C 46.105 -1.96138 -0.0492898 0
M  V30 418 O 45.23 -1.94372 -0.951239 0
M  V30 419 C 45.825 -2.43729 2.35333 0
M  V30 420 C 44.384 -2.97151 2.31037 0
M  V30 421 C 43.531 -1.70438 2.18738 0
M  V30 422 H 46.482 -0.563396 1.48363 0
M  V30 423 H 46.503 -3.23412 2.00462 0
M  V30 424 H 46.015 -1.9851 3.33489 0
M  V30 425 H 44.116 -3.46724 1.3643 0
M  V30 426 H 44.229 -3.52221 3.24772 0
M  V30 427 H 42.593 -1.93673 1.65418 0
M  V30 428 H 43.376 -1.27312 3.18821 0
M  V30 429 N 45.8211 -1.22559 -0.990812 0
M  V30 430 C 46.7531 -0.955325 -2.08342 0
M  V30 431 C 47.7661 0.0668408 -1.62663 0
M  V30 432 O 48.9551 -0.167421 -1.77713 0
M  V30 433 C 46.0551 -0.415566 -3.36342 0
M  V30 434 C 45.2281 -1.49544 -4.11042 0
M  V30 435 C 44.2871 -0.962399 -5.17324 0
M  V30 436 O 43.3131 -1.64907 -5.44788 0
M  V30 437 N 44.5151 0.215134 -5.80101 0
M  V30 438 H 47.2801 -1.89596 -2.32106 0
M  V30 439 H 44.8411 -1.13276 -1.15673 0
M  V30 440 H 46.8331 -0.0442386 -4.04676 0
M  V30 441 H 45.4031 0.430232 -3.09625 0
M  V30 442 H 44.6231 -2.04 -3.37309 0
M  V30 443 H 45.9111 -2.22195 -4.57719 0
M  V30 444 H 45.3091 0.789779 -5.6016 0
M  V30 445 H 43.8661 0.527826 -6.49659 0
M  V30 446 N 47.2992 1.18797 -1.03562 0
M  V30 447 C 48.5482 1.87978 -0.731235 0
M  V30 448 C 48.8612 1.80911 0.743671 0
M  V30 449 O 50.0672 2.45407 1.16137 0
M  V30 450 C 48.5232 3.3721 -1.25768 0
M  V30 451 C 48.1312 3.52818 -2.76085 0
M  V30 452 C 49.8752 4.11825 -1.0296 0
M  V30 453 C 47.7822 4.9598 -3.22114 0
M  V30 454 H 46.7122 0.704063 -0.269835 0
M  V30 455 H 49.3632 1.34266 -1.25079 0
M  V30 456 H 47.7452 3.90359 -0.666011 0
M  V30 457 H 48.9192 3.09965 -3.40966 0
M  V30 458 H 47.2342 2.91602 -2.97249 0
M  V30 459 H 49.8312 5.17411 -1.34869 0
M  V30 460 H 50.1742 4.16287 0.0333546 0
M  V30 461 H 50.7072 3.64833 -1.58562 0
M  V30 462 H 47.4462 4.96684 -4.27768 0
M  V30 463 H 46.9662 5.39569 -2.61965 0
M  V30 464 H 48.6452 5.6467 -3.15844 0
M  V30 465 N 48.7773 0.814389 1.34928 0
M  V30 466 C 49.7403 0.235759 2.27984 0
M  V30 467 C 50.7403 -0.581412 1.49921 0
M  V30 468 O 51.9303 -0.398758 1.69575 0
M  V30 469 C 49.0623 -0.670433 3.34242 0
M  V30 470 H 50.2553 1.05659 2.80671 0
M  V30 471 H 47.8083 0.585614 1.44915 0
M  V30 472 H 48.5433 -1.51466 2.86755 0
M  V30 473 H 48.3283 -0.0860822 3.92005 0
M  V30 474 H 49.8183 -1.06935 4.03676 0
M  V30 475 N 50.2554 -1.46986 0.568584 0
M  V30 476 C 51.4834 -2.0683 0.0539956 0
M  V30 477 C 51.8984 -1.41953 -1.24478 0
M  V30 478 O 51.2554 -0.519933 -1.74937 0
M  V30 479 C 51.3064 -3.61254 -0.133362 0
M  V30 480 O 51.0274 -4.237 1.11399 0
M  V30 481 C 52.5284 -4.37992 -0.683927 0
M  V30 482 H 49.7484 -0.669058 0.0510141 0
M  V30 483 H 52.2924 -1.88824 0.785234 0
M  V30 484 H 50.4474 -3.78735 -0.81477 0
M  V30 485 H 50.8614 -5.16388 0.91888 0
M  V30 486 H 52.3354 -5.46684 -0.764263 0
M  V30 487 H 52.8124 -4.05058 -1.69778 0
M  V30 488 H 53.4184 -4.25283 -0.0378494 0
M  V30 489 N 51.7335 -0.305618 -1.54608 0
M  V30 490 C 52.6635 0.561482 -2.26649 0
M  V30 491 C 53.6445 1.13415 -1.26772 0
M  V30 492 O 54.8295 1.16262 -1.55553 0
M  V30 493 C 51.9595 1.73122 -3.01075 0
M  V30 494 C 50.9135 1.2887 -4.08138 0
M  V30 495 C 50.2395 2.54396 -4.70305 0
M  V30 496 C 51.5395 0.416578 -5.20636 0
M  V30 497 H 53.2335 -0.0393902 -2.99374 0
M  V30 498 H 50.7795 -0.020385 -1.43986 0
M  V30 499 H 52.7325 2.34396 -3.50195 0
M  V30 500 H 51.4565 2.3584 -2.25936 0
M  V30 501 H 50.1155 0.698991 -3.59875 0
M  V30 502 H 49.7635 3.15439 -3.918 0
M  V30 503 H 49.4635 2.25486 -5.42614 0
M  V30 504 H 50.9875 3.16464 -5.2219 0
M  V30 505 H 52.4015 0.935116 -5.65622 0
M  V30 506 H 50.7985 0.221046 -5.99693 0
M  V30 507 H 51.8685 -0.557162 -4.81688 0
M  V30 508 N 53.2116 1.57565 -0.0334293 0
M  V30 509 C 54.1746 2.09393 0.932048 0
M  V30 510 C 55.1746 1.00986 1.25134 0
M  V30 511 O 56.3646 1.27129 1.19096 0
M  V30 512 C 53.4966 2.56338 2.2473 0
M  V30 513 H 54.6896 2.95984 0.483085 0
M  V30 514 H 52.2426 1.54819 0.21468 0
M  V30 515 H 52.9776 1.7309 2.74245 0
M  V30 516 H 52.7626 3.35542 2.02865 0
M  V30 517 H 54.2526 2.96646 2.93923 0
M  V30 518 N 54.6897 -0.239769 1.55765 0
M  V30 519 C 55.6217 -1.32001 1.87372 0
M  V30 520 C 56.6347 -1.43944 0.760522 0
M  V30 521 O 57.8237 -1.45167 1.0387 0
M  V30 522 C 54.9237 -2.69779 2.05115 0
M  V30 523 C 54.0967 -2.80014 3.36022 0
M  V30 524 C 53.1557 -3.98684 3.4342 0
M  V30 525 O 52.1817 -3.87877 4.16582 0
M  V30 526 N 53.3837 -5.12176 2.73232 0
M  V30 527 H 56.1487 -1.0522 2.80622 0
M  V30 528 H 53.7097 -0.429857 1.56089 0
M  V30 529 H 55.7017 -3.47517 2.07399 0
M  V30 530 H 54.2717 -2.89237 1.18577 0
M  V30 531 H 53.4917 -1.88896 3.45994 0
M  V30 532 H 54.7797 -2.83808 4.22292 0
M  V30 533 H 54.1777 -5.2385 2.13536 0
M  V30 534 H 52.7347 -5.88022 2.81199 0
M  V30 535 N 56.1678 -1.49265 -0.50573 0
M  V30 536 C 57.4138 -1.58748 -1.26202 0
M  V30 537 C 57.7468 -0.271227 -1.92297 0
M  V30 538 O 57.0218 0.724831 -1.80489 0
M  V30 539 C 57.3048 -2.74332 -2.33268 0
M  V30 540 C 57.1578 -4.15737 -1.71705 0
M  V30 541 C 58.4768 -2.85576 -3.34865 0
M  V30 542 H 55.5958 -0.577826 -0.457478 0
M  V30 543 H 58.2378 -1.81532 -0.560897 0
M  V30 544 H 56.3878 -2.55036 -2.93068 0
M  V30 545 H 58.0598 -4.46537 -1.15769 0
M  V30 546 H 56.3028 -4.21605 -1.02135 0
M  V30 547 H 56.9738 -4.92477 -2.49341 0
M  V30 548 H 59.4498 -3.03127 -2.8505 0
M  V30 549 H 58.3258 -3.68135 -4.07146 0
M  V30 550 H 58.5868 -1.94732 -3.96903 0
M  V30 551 N 57.6459 0.756429 -1.3826 0
M  V30 552 C 58.8709 1.55077 -1.37717 0
M  V30 553 C 59.2959 1.88073 0.03164 0
M  V30 554 O 58.6539 1.50364 1.01293 0
M  V30 555 C 58.7019 2.8283 -2.23695 0
M  V30 556 O 57.8059 3.77862 -1.6521 0
M  V30 557 H 57.1469 0.469152 -0.469885 0
M  V30 558 H 59.6769 0.935019 -1.81985 0
M  V30 559 H 59.6869 3.31783 -2.37453 0
M  V30 560 H 58.3619 2.58144 -3.2609 0
M  V30 561 H 56.9389 3.36555 -1.60578 0
M  V30 562 N 59.124 1.23083 0.984299 0
M  V30 563 C 60.057 0.951786 2.07404 0
M  V30 564 C 61.035 -0.10848 1.62238 0
M  V30 565 O 62.219 0.0249467 1.88483 0
M  V30 566 C 59.346 0.433142 3.35919 0
M  V30 567 C 58.392 1.47941 4.0002 0
M  V30 568 S 59.225 3.05556 4.39768 0
M  V30 569 C 60.381 2.55351 5.71442 0
M  V30 570 H 60.614 1.87456 2.30754 0
M  V30 571 H 58.147 1.06284 1.11996 0
M  V30 572 H 60.105 0.140506 4.10259 0
M  V30 573 H 58.766 -0.468656 3.10584 0
M  V30 574 H 57.959 1.06658 4.92585 0
M  V30 575 H 57.561 1.7212 3.3204 0
M  V30 576 H 59.853 1.97128 6.48187 0
M  V30 577 H 60.796 3.46441 6.17563 0
M  V30 578 H 61.204 1.96339 5.29255 0
M  V30 579 N 60.6021 -1.18246 1.0419 0
M  V30 580 C 62.0131 -1.69914 0.773698 0
M  V30 581 C 62.3641 -1.83085 -0.705297 0
M  V30 582 O 61.4891 -1.51123 -1.5489 0
M  V30 583 C 62.0841 -3.08619 1.39784 0
M  V30 584 C 60.6431 -3.57494 1.17792 0
M  V30 585 C 59.7901 -2.34013 1.48773 0
M  V30 586 H 62.7411 -1.02904 1.20816 0
M  V30 587 H 62.7621 -3.71958 0.801714 0
M  V30 588 H 62.2741 -2.99001 2.47426 0
M  V30 589 H 60.3751 -3.72406 0.120295 0
M  V30 590 H 60.4881 -4.40852 1.87581 0
M  V30 591 H 58.8521 -2.37986 0.907463 0
M  V30 592 H 59.6351 -2.27013 2.57527 0
M  V30 593 N 62.0802 -0.821533 -1.34494 0
M  V30 594 C 63.0432 -0.247847 -2.27856 0
M  V30 595 C 64.0432 0.573453 -1.50227 0
M  V30 596 O 65.2332 0.389759 -1.69784 0
M  V30 597 C 62.3652 0.652698 -3.34593 0
M  V30 598 H 63.5582 -1.07146 -2.80107 0
M  V30 599 H 61.1112 -0.593291 -1.44602 0
M  V30 600 H 61.8462 1.49943 -2.87555 0
M  V30 601 H 61.6312 0.065292 -3.92046 0
M  V30 602 H 63.1212 1.04793 -4.04238 0
M  V30 603 N 63.5583 1.46682 -0.576371 0
M  V30 604 C 64.5213 2.28707 0.150239 0
M  V30 605 C 65.5213 1.38035 0.824794 0
M  V30 606 O 66.7113 1.60476 0.677719 0
M  V30 607 C 63.8433 3.18248 1.22192 0
M  V30 608 H 65.0363 2.94423 -0.570521 0
M  V30 609 H 62.5893 1.52688 -0.334078 0
M  V30 610 H 63.3243 2.57265 1.97447 0
M  V30 611 H 63.1093 3.85 0.742812 0
M  V30 612 H 64.5993 3.80001 1.73172 0
M  V30 613 N 65.0364 0.313813 1.54444 0
M  V30 614 C 65.9864 -0.571898 2.20711 0
M  V30 615 C 66.9704 -1.08913 1.18435 0
M  V30 616 O 68.1624 -1.02777 1.44104 0
M  V30 617 C 65.2914 -1.7371 2.96108 0
M  V30 618 C 64.3774 -1.23522 4.05713 0
M  V30 619 N 64.7684 -0.452288 5.03774 0
M  V30 620 C 63.0664 -1.51482 4.19487 0
M  V30 621 C 63.7674 -0.183438 5.81411 0
M  V30 622 N 62.7434 -0.766845 5.38164 0
M  V30 623 H 66.5454 0.0336802 2.93881 0
M  V30 624 H 64.0594 0.119192 1.61962 0
M  V30 625 H 66.0564 -2.38329 3.4206 0
M  V30 626 H 64.7164 -2.34625 2.24458 0
M  V30 627 H 65.7274 -0.0960131 5.17811 0
M  V30 628 H 62.4044 -2.13053 3.59047 0
M  V30 629 H 63.7944 0.446216 6.70417 0
M  V30 630 N 66.5145 -1.57545 0.0417849 0
M  V30 631 C 67.4775 -2.09885 -0.92093 0
M  V30 632 C 68.4775 -1.01648 -1.24596 0
M  V30 633 O 69.6675 -1.27759 -1.1842 0
M  V30 634 C 66.7995 -2.57527 -2.23367 0
M  V30 635 H 67.9925 -2.96236 -0.467382 0
M  V30 636 H 65.5455 -1.5493 -0.206467 0
M  V30 637 H 66.2805 -1.74542 -2.73323 0
M  V30 638 H 66.0655 -3.36613 -2.01083 0
M  V30 639 H 67.5555 -2.98201 -2.92346 0
M  V30 640 N 67.9926 0.231505 -1.5589 0
M  V30 641 C 69.2206 0.974505 -1.82513 0
M  V30 642 C 69.6356 1.78344 -0.619591 0
M  V30 643 O 68.9926 1.77792 0.411848 0
M  V30 644 C 69.0436 1.90007 -3.07538 0
M  V30 645 O 68.7646 1.12385 -4.2344 0
M  V30 646 C 70.2656 2.75779 -3.47075 0
M  V30 647 H 67.4856 0.286065 -0.606966 0
M  V30 648 H 70.0296 0.249739 -2.02969 0
M  V30 649 H 68.1846 2.57891 -2.89086 0
M  V30 650 H 68.5986 1.75125 -4.944 0
M  V30 651 H 70.0726 3.36443 -4.37619 0
M  V30 652 H 70.5496 3.47672 -2.68367 0
M  V30 653 H 71.1556 2.13323 -3.67931 0
M  V30 654 N 69.4707 1.49531 0.497807 0
M  V30 655 C 70.6957 1.63159 1.28039 0
M  V30 656 C 71.1207 0.30418 1.85624 0
M  V30 657 O 70.4787 -0.728618 1.66015 0
M  V30 658 C 70.5267 2.70537 2.38416 0
M  V30 659 O 69.6307 2.29931 3.42353 0
M  V30 660 H 68.9717 0.546001 0.377861 0
M  V30 661 H 71.5017 1.9574 0.59558 0
M  V30 662 H 71.5117 2.92802 2.84132 0
M  V30 663 H 70.1867 3.6689 1.95869 0
M  V30 664 H 68.7637 2.18009 3.02533 0
M  V30 665 N 70.9488 -0.749086 1.3866 0
M  V30 666 C 72.1738 -1.54344 1.38538 0
M  V30 667 C 72.5988 -1.88088 -0.0216655 0
M  V30 668 O 71.9568 -1.50899 -1.00494 0
M  V30 669 C 72.0048 -2.8164 2.25192 0
M  V30 670 O 71.1088 -3.7698 1.67212 0
M  V30 671 H 70.4498 -0.466654 0.472367 0
M  V30 672 H 72.9798 -0.925355 1.82478 0
M  V30 673 H 72.9898 -3.30519 2.3921 0
M  V30 674 H 71.6648 -2.56411 3.27454 0
M  V30 675 H 70.2418 -3.35699 1.6236 0
M  V30 676 N 72.4269 -1.23603 -0.977757 0
M  V30 677 C 73.3899 -1.02069 -2.05218 0
M  V30 678 C 74.3899 0.0184305 -1.60789 0
M  V30 679 O 75.5799 -0.221569 -1.72785 0
M  V30 680 C 72.7119 -0.544926 -3.36517 0
M  V30 681 H 73.9049 -1.9742 -2.25755 0
M  V30 682 H 71.4579 -1.05684 -1.15155 0
M  V30 683 H 72.1929 0.412241 -3.21669 0
M  V30 684 H 71.9779 -1.2948 -3.70105 0
M  V30 685 H 73.4679 -0.414985 -4.15533 0
M  V30 686 N 73.905 1.17692 -1.04816 0
M  V30 687 C 75.316 1.69501 -0.782698 0
M  V30 688 C 75.667 1.83456 0.695577 0
M  V30 689 O 74.792 1.51942 1.54086 0
M  V30 690 C 75.387 3.07874 -1.41419 0
M  V30 691 C 73.946 3.56864 -1.19686 0
M  V30 692 C 73.093 2.3322 -1.50012 0
M  V30 693 H 76.044 1.02262 -1.2136 0
M  V30 694 H 76.065 3.71528 -0.821428 0
M  V30 695 H 75.577 2.97685 -2.49009 0
M  V30 696 H 73.678 3.72337 -0.140043 0
M  V30 697 H 73.791 4.39851 -1.89916 0
M  V30 698 H 72.155 2.37501 -0.920071 0
M  V30 699 H 72.938 2.25644 -2.58727 0
M  V30 700 N 75.3831 0.828654 1.34056 0
M  V30 701 C 76.6111 0.43262 2.02326 0
M  V30 702 C 77.0261 -0.963147 1.62385 0
M  V30 703 O 76.3831 -1.62425 0.832121 0
M  V30 704 C 76.4341 0.53182 3.57567 0
M  V30 705 O 76.1551 1.87258 3.96063 0
M  V30 706 C 77.6561 0.131422 4.43105 0
M  V30 707 H 74.8761 0.172923 0.648335 0
M  V30 708 H 77.4201 1.1184 1.71208 0
M  V30 709 H 75.5751 -0.105938 3.87255 0
M  V30 710 H 75.9891 1.85087 4.90758 0
M  V30 711 H 77.4631 0.251904 5.51425 0
M  V30 712 H 77.9401 -0.925645 4.29335 0
M  V30 713 H 78.5461 0.743207 4.18756 0
M  V30 714 N 76.8612 -1.46375 0.584142 0
M  V30 715 C 78.1072 -2.02678 0.0703716 0
M  V30 716 C 78.4402 -1.4545 -1.28678 0
M  V30 717 O 77.7152 -0.62014 -1.84349 0
M  V30 718 C 77.9982 -3.60099 0.00614674 0
M  V30 719 C 77.8512 -4.27709 1.3923 0
M  V30 720 C 79.1702 -4.34598 -0.693742 0
M  V30 721 H 76.2892 -0.736504 0.027047 0
M  V30 722 H 78.9312 -1.74501 0.751615 0
M  V30 723 H 77.0812 -3.84236 -0.574009 0
M  V30 724 H 78.7532 -4.14832 2.01773 0
M  V30 725 H 76.9962 -3.87016 1.95962 0
M  V30 726 H 77.6672 -5.36478 1.29982 0
M  V30 727 H 80.1432 -4.15615 -0.200869 0
M  V30 728 H 79.0192 -5.44318 -0.707714 0
M  V30 729 H 79.2802 -4.05759 -1.75533 0
M  V30 730 N 78.3393 -0.321999 -1.54275 0
M  V30 731 C 79.5673 0.283052 -2.04955 0
M  V30 732 C 79.9823 1.45904 -1.19823 0
M  V30 733 O 79.3393 1.81063 -0.228545 0
M  V30 734 C 79.3903 0.719028 -3.54277 0
M  V30 735 O 79.1113 -0.410175 -4.36176 0
M  V30 736 C 80.6123 1.38705 -4.21041 0
M  V30 737 H 77.8323 0.0584616 -0.668448 0
M  V30 738 H 80.3763 -0.467734 -1.99079 0
M  V30 739 H 78.5313 1.41979 -3.60445 0
M  V30 740 H 78.9453 -0.0669416 -5.24457 0
M  V30 741 H 80.4193 1.64306 -5.2698 0
M  V30 742 H 80.8963 2.33385 -3.72059 0
M  V30 743 H 81.5023 0.728906 -4.19007 0
M  V30 744 N 79.8174 1.5752 -0.0501392 0
M  V30 745 C 80.7474 2.14502 0.922566 0
M  V30 746 C 81.7284 1.06642 1.3252 0
M  V30 747 O 82.9134 1.34577 1.4001 0
M  V30 748 C 80.0434 2.68916 2.19776 0
M  V30 749 C 78.9974 3.8175 1.93523 0
M  V30 750 C 78.3234 4.22677 3.27487 0
M  V30 751 C 79.6234 5.06932 1.25765 0
M  V30 752 H 81.3174 2.9603 0.447952 0
M  V30 753 H 78.8634 1.42401 0.214024 0
M  V30 754 H 80.8164 3.07419 2.88222 0
M  V30 755 H 79.5404 1.84578 2.69441 0
M  V30 756 H 78.1994 3.43718 1.27489 0
M  V30 757 H 77.8474 3.35291 3.74952 0
M  V30 758 H 77.5474 4.98725 3.1072 0
M  V30 759 H 79.0714 4.63779 3.97166 0
M  V30 760 H 80.4854 5.42888 1.84244 0
M  V30 761 H 78.8824 5.88116 1.19328 0
M  V30 762 H 79.9524 4.84337 0.233536 0
M  V30 763 N 81.2955 -0.223234 1.56011 0
M  V30 764 C 82.5415 -0.949279 1.79211 0
M  V30 765 C 82.8745 -1.84054 0.619494 0
M  V30 766 O 82.1495 -1.90726 -0.381317 0
M  V30 767 C 82.4325 -1.78965 3.12479 0
M  V30 768 C 82.2855 -0.924997 4.40186 0
M  V30 769 C 83.6045 -2.76774 3.42175 0
M  V30 770 H 80.7235 -0.343676 0.651963 0
M  V30 771 H 83.3655 -0.218253 1.88742 0
M  V30 772 H 81.5155 -2.41291 3.04485 0
M  V30 773 H 83.1875 -0.318615 4.60198 0
M  V30 774 H 81.4305 -0.230344 4.33188 0
M  V30 775 H 82.1015 -1.54735 5.29869 0
M  V30 776 H 84.5775 -2.24584 3.50287 0
M  V30 777 H 83.4535 -3.32678 4.36597 0
M  V30 778 H 83.7145 -3.54429 2.64258 0
M  V30 779 N 82.7736 -1.49793 -0.48987 0
M  V30 780 C 83.7056 -1.63413 -1.60713 0
M  V30 781 C 84.7186 -0.516329 -1.54395 0
M  V30 782 O 85.9076 -0.788812 -1.60125 0
M  V30 783 C 83.0076 -1.58516 -2.99543 0
M  V30 784 C 82.1806 -2.86016 -3.30928 0
M  V30 785 C 81.2396 -2.74018 -4.49222 0
M  V30 786 O 80.2656 -3.47964 -4.50455 0
M  V30 787 N 81.4676 -1.86309 -5.4979 0
M  V30 788 H 84.2326 -2.59777 -1.49452 0
M  V30 789 H 81.7936 -1.47022 -0.677955 0
M  V30 790 H 83.7856 -1.48128 -3.76617 0
M  V30 791 H 82.3556 -0.69965 -3.0467 0
M  V30 792 H 81.5756 -3.10672 -2.42645 0
M  V30 793 H 82.8636 -3.70521 -3.487 0
M  V30 794 H 82.2616 -1.2551 -5.51601 0
M  V30 795 H 80.8186 -1.81837 -6.25922 0
M  V30 796 N 84.2517 0.741722 -1.39055 0
M  V30 797 C 85.1817 1.869 -1.39966 0
M  V30 798 C 86.1627 1.6804 -0.26392 0
M  V30 799 O 87.3477 1.88458 -0.468755 0
M  V30 800 C 84.4777 3.24572 -1.23574 0
M  V30 801 C 83.4317 3.58056 -2.34477 0
M  V30 802 C 82.7577 4.94593 -2.0318 0
M  V30 803 C 84.0577 3.61716 -3.76774 0
M  V30 804 H 85.7517 1.86395 -2.34302 0
M  V30 805 H 83.2977 0.895361 -1.1278 0
M  V30 806 H 85.2507 4.031 -1.22834 0
M  V30 807 H 83.9747 3.25587 -0.257045 0
M  V30 808 H 82.6337 2.81854 -2.34423 0
M  V30 809 H 82.2817 4.92181 -1.03765 0
M  V30 810 H 81.9817 5.17964 -2.77465 0
M  V30 811 H 83.5057 5.75486 -2.04079 0
M  V30 812 H 84.9197 4.30335 -3.78794 0
M  V30 813 H 83.3167 3.96603 -4.50362 0
M  V30 814 H 84.3867 2.61672 -4.08235 0
M  V30 815 N 85.7298 1.2412 0.971189 0
M  V30 816 C 87.1408 1.07236 1.52831 0
M  V30 817 C 87.4918 -0.357352 1.92918 0
M  V30 818 O 86.6168 -1.24528 1.76979 0
M  V30 819 C 87.2118 1.94043 2.77728 0
M  V30 820 C 85.7708 1.81394 3.29808 0
M  V30 821 C 84.9178 1.89189 2.02738 0
M  V30 822 H 87.8688 1.37648 0.789864 0
M  V30 823 H 87.8898 1.47066 3.5093 0
M  V30 824 H 87.4018 2.98093 2.4852 0
M  V30 825 H 85.5028 0.801634 3.63874 0
M  V30 826 H 85.6158 2.65294 3.98944 0
M  V30 827 H 83.9798 1.32877 2.17292 0
M  V30 828 H 84.7628 2.94812 1.759 0
M  V30 829 N 87.2079 -1.17134 1.05439 0
M  V30 830 C 88.1559 -2.23289 0.651511 0
M  V30 831 C 89.1499 -1.66186 -0.328411 0
M  V30 832 O 90.3559 -1.78949 -0.194206 0
M  V30 833 H 86.7309 -0.726938 0.192523 0
M  V30 834 H 88.7019 -2.54565 1.55689 0
M  V30 835 C 87.4509 -3.47671 0.0448436 0
M  V30 836 H 86.7739 -3.91918 0.78996 0
M  V30 837 H 88.2139 -4.2353 -0.19964 0
M  V30 838 C 86.6729 -3.14453 -1.20918 0
M  V30 839 O 87.2029 -3.29459 -2.29825 0
M  V30 840 N 85.4089 -2.68657 -1.10779 0
M  V30 841 H 84.9559 -2.56646 -0.221526 0
M  V30 842 H 84.9139 -2.46804 -1.9477 0
M  V30 843 N 88.686 -0.835752 -1.33615 0
M  V30 844 C 89.934 -0.429109 -1.97492 0
M  V30 845 C 90.255 1.01433 -1.66543 0
M  V30 846 O 89.525 1.70611 -0.962744 0
M  V30 847 H 88.105 -0.155686 -0.730596 0
M  V30 848 H 90.767 -1.06802 -1.63031 0
M  V30 849 H 89.863 -0.55861 -3.0706 0
M  V30 850 N 90.1641 1.46063 -0.591896 0
M  V30 851 C 91.0961 2.28539 0.174001 0
M  V30 852 C 92.1091 1.39047 0.846753 0
M  V30 853 O 93.2981 1.63564 0.714774 0
M  V30 854 C 90.3981 3.14347 1.26645 0
M  V30 855 C 89.5711 4.32021 0.683856 0
M  V30 856 C 88.6301 4.99157 1.66518 0
M  V30 857 O 87.6561 5.56458 1.19763 0
M  V30 858 N 88.8581 4.97005 2.99943 0
M  V30 859 H 91.6231 2.94911 -0.533633 0
M  V30 860 H 89.1841 1.56077 -0.430294 0
M  V30 861 H 91.1761 3.56125 1.92242 0
M  V30 862 H 89.7461 2.49988 1.87682 0
M  V30 863 H 88.9661 3.93915 -0.1498 0
M  V30 864 H 90.2541 5.08059 0.274567 0
M  V30 865 H 89.6521 4.51714 3.40545 0
M  V30 866 H 88.2091 5.42696 3.61004 0
M  V30 867 N 91.6422 0.330177 1.54103 0
M  V30 868 C 92.8702 -0.272179 2.05102 0
M  V30 869 C 93.2852 -1.45267 1.20595 0
M  V30 870 O 92.6422 -1.8094 0.238144 0
M  V30 871 C 92.6932 -0.70023 3.54653 0
M  V30 872 O 92.4142 0.433301 4.35952 0
M  V30 873 C 93.9152 -1.3647 4.21771 0
M  V30 874 H 91.1352 -0.0549159 0.668749 0
M  V30 875 H 93.6792 0.478285 1.98828 0
M  V30 876 H 91.8342 -1.40066 3.61193 0
M  V30 877 H 92.2482 0.0947539 5.24414 0
M  V30 878 H 93.7222 -1.61509 5.27843 0
M  V30 879 H 94.1992 -2.31409 3.73292 0
M  V30 880 H 94.8052 -0.706675 4.19388 0
M  V30 881 N 93.1203 -1.57491 0.0584922 0
M  V30 882 C 94.3663 -1.93264 -0.614558 0
M  V30 883 C 94.6993 -0.937717 -1.7006 0
M  V30 884 O 93.9743 0.0351652 -1.94468 0
M  V30 885 C 94.2573 -3.3938 -1.20386 0
M  V30 886 C 94.1103 -4.49625 -0.125375 0
M  V30 887 C 95.4293 -3.86039 -2.11334 0
M  V30 888 H 92.5483 -0.702791 -0.221933 0
M  V30 889 H 95.1903 -1.8961 0.12175 0
M  V30 890 H 93.3403 -3.42626 -1.83139 0
M  V30 891 H 95.0123 -4.58506 0.506971 0
M  V30 892 H 93.2553 -4.30354 0.545672 0
M  V30 893 H 93.9263 -5.48967 -0.577861 0
M  V30 894 H 96.4023 -3.84716 -1.58534 0
M  V30 895 H 95.2783 -4.88914 -2.49507 0
M  V30 896 H 95.5393 -3.23215 -3.01636 0
M  V30 897 N 94.5984 0.214957 -1.56127 0
M  V30 898 C 95.5304 1.29004 -1.89448 0
M  V30 899 C 96.5434 1.42716 -0.783326 0
M  V30 900 O 97.7324 1.43496 -1.06166 0
M  V30 901 C 94.8324 2.66482 -2.09381 0
M  V30 902 C 94.0054 2.74633 -3.40434 0
M  V30 903 C 93.0644 3.9317 -3.49719 0
M  V30 904 O 92.0904 3.812 -4.227 0
M  V30 905 N 93.2924 5.07765 -2.81346 0
M  V30 906 H 96.0574 1.00743 -2.82261 0
M  V30 907 H 93.6184 0.40497 -1.56753 0
M  V30 908 H 95.6104 3.44173 -2.12901 0
M  V30 909 H 94.1804 2.87314 -1.23163 0
M  V30 910 H 93.4004 1.83368 -3.48955 0
M  V30 911 H 94.6884 2.77054 -4.26754 0
M  V30 912 H 94.0864 5.20386 -2.21843 0
M  V30 913 H 92.6434 5.83474 -2.90519 0
M  V30 914 N 96.0765 1.50051 0.48192 0
M  V30 915 C 97.3225 1.60736 1.2366 0
M  V30 916 C 97.6555 0.301786 1.91841 0
M  V30 917 O 96.9305 -0.696025 1.8162 0
M  V30 918 C 97.2135 2.78009 2.28874 0
M  V30 919 C 97.0665 4.18416 1.65069 0
M  V30 920 C 98.3855 2.90867 3.30279 0
M  V30 921 H 95.5045 0.585031 0.448228 0
M  V30 922 H 98.1465 1.82402 0.531946 0
M  V30 923 H 96.2965 2.59667 2.88973 0
M  V30 924 H 97.9685 4.48322 1.0865 0
M  V30 925 H 96.2115 4.23177 0.954148 0
M  V30 926 H 96.8825 4.96381 2.41474 0
M  V30 927 H 99.3585 3.07623 2.80191 0
M  V30 928 H 98.2345 3.74566 4.01238 0
M  V30 929 H 98.4955 2.01021 3.93755 0
M  V30 930 N 97.5546 -0.734337 1.39446 0
M  V30 931 C 98.5046 -1.83949 1.34709 0
M  V30 932 C 99.4886 -1.59279 0.227851 0
M  V30 933 O 100.681 -1.70771 0.465438 0
M  V30 934 C 97.8096 -3.21884 1.19356 0
M  V30 935 C 96.8956 -3.52381 2.35984 0
M  V30 936 N 97.2866 -3.53811 3.61457 0
M  V30 937 C 95.5846 -3.82747 2.28956 0
M  V30 938 C 96.2856 -3.82122 4.38586 0
M  V30 939 N 95.2616 -3.9993 3.68181 0
M  V30 940 H 99.0636 -1.83361 2.29687 0
M  V30 941 H 96.5776 -0.932609 1.32952 0
M  V30 942 H 98.5746 -4.00998 1.14046 0
M  V30 943 H 97.2346 -3.23711 0.253295 0
M  V30 944 H 98.2456 -3.35107 3.94872 0
M  V30 945 H 94.9226 -3.92175 1.43194 0
M  V30 946 H 96.3126 -3.89691 5.47349 0
M  V30 947 N 99.0327 -1.24633 -0.964593 0
M  V30 948 C 100.281 -1.08573 -1.70459 0
M  V30 949 C 100.602 0.375655 -1.91347 0
M  V30 950 O 99.8717 1.26779 -1.49345 0
M  V30 951 H 98.4517 -0.398784 -0.631649 0
M  V30 952 H 101.114 -1.56601 -1.16026 0
M  V30 953 H 100.21 -1.58623 -2.68785 0
M  V30 954 N 100.511 1.16574 -1.06058 0
M  V30 955 C 101.757 1.87324 -0.777022 0
M  V30 956 C 102.09 1.81351 0.694645 0
M  V30 957 O 101.365 1.22753 1.50871 0
M  V30 958 C 101.648 3.36991 -1.26922 0
M  V30 959 C 101.501 3.51667 -2.80447 0
M  V30 960 C 102.82 4.3131 -0.87521 0
M  V30 961 H 99.9388 0.680191 -0.28374 0
M  V30 962 H 102.581 1.37036 -1.3161 0
M  V30 963 H 100.731 3.79949 -0.81063 0
M  V30 964 H 102.403 3.17664 -3.34495 0
M  V30 965 H 100.646 2.93656 -3.19294 0
M  V30 966 H 101.317 4.56766 -3.0995 0
M  V30 967 H 103.793 3.9624 -1.27014 0
M  V30 968 H 102.669 5.34545 -1.2471 0
M  V30 969 H 102.93 4.41552 0.220071 0
M  V30 970 N 101.989 0.842826 1.3317 0
M  V30 971 C 103.238 0.436738 1.96915 0
M  V30 972 C 103.551 -1.01025 1.67491 0
M  V30 973 O 104.757 -1.5212 2.24881 0
M  V30 974 C 103.213 0.730021 3.52418 0
M  V30 975 C 102.821 2.19195 3.90714 0
M  V30 976 C 104.565 0.391076 4.22695 0
M  V30 977 C 102.472 2.42907 5.39212 0
M  V30 978 H 101.402 0.15958 0.736919 0
M  V30 979 H 104.053 1.03196 1.51733 0
M  V30 980 H 102.435 0.0643755 3.95948 0
M  V30 981 H 103.609 2.8984 3.58231 0
M  V30 982 H 101.924 2.49425 3.33431 0
M  V30 983 H 104.521 0.545817 5.31907 0
M  V30 984 H 104.864 -0.666294 4.10933 0
M  V30 985 H 105.397 1.01212 3.84709 0
M  V30 986 H 102.136 3.47224 5.55982 0
M  V30 987 H 101.656 1.76827 5.73142 0
M  V30 988 H 103.335 2.2626 6.06148 0
M  V30 989 N 103.467 -1.45747 0.599634 0
M  V30 990 C 104.399 -2.28628 -0.161879 0
M  V30 991 C 105.412 -1.39494 -0.839367 0
M  V30 992 O 106.601 -1.63941 -0.706089 0
M  V30 993 C 103.701 -3.15014 -1.24976 0
M  V30 994 C 102.874 -4.32378 -0.660935 0
M  V30 995 C 101.933 -5.00033 -1.63869 0
M  V30 996 O 100.959 -5.57085 -1.1681 0
M  V30 997 N 102.161 -4.98589 -2.97303 0
M  V30 998 H 104.926 -2.94624 0.549265 0
M  V30 999 H 102.487 -1.55847 0.438565 0
M  V30 1000 H 104.479 -3.5714 -1.9035 0
M  V30 1001 H 103.049 -2.5098 -1.86354 0
M  V30 1002 H 102.269 -3.9383 0.170688 0
M  V30 1003 H 103.557 -5.08197 -0.247619 0
M  V30 1004 H 102.955 -4.53514 -3.38145 0
M  V30 1005 H 101.512 -5.44603 -3.58121 0
M  V30 1006 N 104.945 -0.338344 -1.53925 0
M  V30 1007 C 105.908 0.508299 -2.23493 0
M  V30 1008 C 106.908 1.03175 -1.23335 0
M  V30 1009 O 108.098 0.921826 -1.47811 0
M  V30 1010 C 105.23 1.70754 -2.95052 0
M  V30 1011 H 106.423 -0.100058 -2.99733 0
M  V30 1012 H 103.976 -0.0896198 -1.56043 0
M  V30 1013 H 104.711 2.35474 -2.22986 0
M  V30 1014 H 104.496 1.33946 -3.68512 0
M  V30 1015 H 105.986 2.30818 -3.48013 0
M  V30 1016 N 106.423 1.57458 -0.0668435 0
M  V30 1017 C 107.386 2.11323 0.887422 0
M  V30 1018 C 108.386 1.03618 1.22964 0
M  V30 1019 O 109.576 1.29626 1.16373 0
M  V30 1020 C 106.708 2.61048 2.19242 0
M  V30 1021 H 107.901 2.96942 0.420194 0
M  V30 1022 H 105.454 1.55239 0.181793 0
M  V30 1023 H 106.189 1.78868 2.70512 0
M  V30 1024 H 105.974 3.39769 1.95702 0
M  V30 1025 H 107.464 3.02814 2.87565 0
M  V30 1026 N 107.901 -0.206675 1.56239 0
M  V30 1027 C 108.833 -1.27997 1.9013 0
M  V30 1028 C 109.846 -1.42299 0.790883 0
M  V30 1029 O 111.035 -1.42931 1.06925 0
M  V30 1030 C 108.135 -2.65368 2.10792 0
M  V30 1031 C 107.308 -2.72824 3.41886 0
M  V30 1032 C 106.367 -3.9131 3.51799 0
M  V30 1033 O 105.393 -3.78953 4.24716 0
M  V30 1034 N 106.595 -5.06265 2.84035 0
M  V30 1035 H 109.36 -0.992444 2.82791 0
M  V30 1036 H 106.921 -0.396652 1.56966 0
M  V30 1037 H 108.913 -3.43039 2.14724 0
M  V30 1038 H 107.483 -2.86657 1.24685 0
M  V30 1039 H 106.703 -1.81515 3.49923 0
M  V30 1040 H 107.991 -2.74786 4.28217 0
M  V30 1041 H 107.389 -5.19203 2.246 0
M  V30 1042 H 105.946 -5.81925 2.93609 0
M  V30 1043 N 109.379 -1.50304 -0.473955 0
M  V30 1044 C 110.79 -1.54042 -1.0549 0
M  V30 1045 C 111.141 -0.342248 -1.93192 0
M  V30 1046 O 110.266 0.545157 -2.09421 0
M  V30 1047 C 110.861 -2.79152 -1.91989 0
M  V30 1048 C 109.42 -2.8558 -2.45196 0
M  V30 1049 C 108.567 -2.48295 -1.2347 0
M  V30 1050 H 111.518 -1.5661 -0.256693 0
M  V30 1051 H 111.539 -2.60845 -2.7702 0
M  V30 1052 H 111.051 -3.66339 -1.28131 0
M  V30 1053 H 109.152 -2.02738 -3.12615 0
M  V30 1054 H 109.265 -3.88403 -2.80499 0
M  V30 1055 H 107.629 -2.00669 -1.56856 0
M  V30 1056 H 108.412 -3.37787 -0.612789 0
M  V30 1057 N 110.857 0.726932 -1.39834 0
M  V30 1058 C 112.082 1.52121 -1.40976 0
M  V30 1059 C 112.507 1.88098 -0.00826029 0
M  V30 1060 O 111.865 1.52479 0.980807 0
M  V30 1061 C 111.913 2.78021 -2.29644 0
M  V30 1062 O 111.017 3.74272 -1.73188 0
M  V30 1063 H 110.358 0.45908 -0.479731 0
M  V30 1064 H 112.888 0.896207 -1.83927 0
M  V30 1065 H 112.898 3.26671 -2.44438 0
M  V30 1066 H 111.573 2.51169 -3.31492 0
M  V30 1067 H 110.15 3.33073 -1.6768 0
M  V30 1068 N 112.336 1.25143 0.95797 0
M  V30 1069 C 113.582 1.09855 1.70469 0
M  V30 1070 C 113.915 -0.360187 1.90831 0
M  V30 1071 O 113.19 -1.26568 1.47685 0
M  V30 1072 C 113.473 1.8497 3.08963 0
M  V30 1073 C 113.326 3.38652 2.96032 0
M  V30 1074 C 114.645 1.63016 4.08795 0
M  V30 1075 H 111.764 0.400465 0.618706 0
M  V30 1076 H 114.406 1.53933 1.11376 0
M  V30 1077 H 112.556 1.47505 3.59409 0
M  V30 1078 H 114.228 3.85772 2.52938 0
M  V30 1079 H 112.471 3.66534 2.32025 0
M  V30 1080 H 113.142 3.8642 3.94187 0
M  V30 1081 H 115.618 1.95625 3.67247 0
M  V30 1082 H 114.494 2.18015 5.03747 0
M  V30 1083 H 114.755 0.570692 4.38401 0
M  V30 1084 N 113.814 -1.1601 1.06675 0
M  V30 1085 C 115.063 -1.85973 0.780818 0
M  V30 1086 C 115.376 -1.82819 -0.695444 0
M  V30 1087 O 116.582 -2.484 -1.09589 0
M  V30 1088 C 115.038 -3.33757 1.34665 0
M  V30 1089 C 114.646 -3.45374 2.85343 0
M  V30 1090 C 116.39 -4.0895 1.13843 0
M  V30 1091 C 114.297 -4.87266 3.35151 0
M  V30 1092 H 113.227 -0.696661 0.288407 0
M  V30 1093 H 115.878 -1.30903 1.28595 0
M  V30 1094 H 114.26 -3.88456 0.769274 0
M  V30 1095 H 115.434 -3.00816 3.49065 0
M  V30 1096 H 113.749 -2.83619 3.04876 0
M  V30 1097 H 116.346 -5.13654 1.4854 0
M  V30 1098 H 116.689 -4.16229 0.0770282 0
M  V30 1099 H 117.222 -3.605 1.68179 0
M  V30 1100 H 113.961 -4.85168 4.40786 0
M  V30 1101 H 113.481 -5.32433 2.76179 0
M  V30 1102 H 115.16 -5.56097 3.30704 0
M  V30 1103 N 115.292 -0.849877 -1.32721 0
M  V30 1104 C 116.224 -0.248332 -2.27851 0
M  V30 1105 C 117.237 0.577218 -1.52224 0
M  V30 1106 O 118.426 0.402489 -1.73903 0
M  V30 1107 C 115.526 0.668107 -3.32249 0
M  V30 1108 C 114.699 -0.120534 -4.37234 0
M  V30 1109 C 113.758 0.720932 -5.21238 0
M  V30 1110 O 112.784 0.156166 -5.68986 0
M  V30 1111 N 113.986 2.03647 -5.43607 0
M  V30 1112 H 116.751 -1.06575 -2.80111 0
M  V30 1113 H 114.312 -0.709395 -1.45531 0
M  V30 1114 H 116.304 1.23627 -3.85355 0
M  V30 1115 H 114.874 1.38621 -2.80184 0
M  V30 1116 H 114.094 -0.870108 -3.84477 0
M  V30 1117 H 115.382 -0.662406 -5.0447 0
M  V30 1118 H 114.78 2.51871 -5.06535 0
M  V30 1119 H 113.337 2.55287 -5.99727 0
M  V30 1120 N 116.77 1.45427 -0.607355 0
M  V30 1121 C 117.995 2.07124 -0.107006 0
M  V30 1122 C 118.42 1.44906 1.19933 0
M  V30 1123 O 117.778 0.541687 1.73019 0
M  V30 1124 C 117.826 3.60595 0.0194119 0
M  V30 1125 O 116.93 3.98285 1.0697 0
M  V30 1126 H 116.271 0.659868 -0.0739597 0
M  V30 1127 H 118.801 1.86683 -0.837297 0
M  V30 1128 H 118.811 4.07419 0.2177 0
M  V30 1129 H 117.486 4.05266 -0.934453 0
M  V30 1130 H 116.063 3.63133 0.847889 0
M  V30 1131 N 118.248 0.346503 1.53744 0
M  V30 1132 C 119.659 -0.136779 1.86198 0
M  V30 1133 C 120.01 -1.49749 1.26766 0
M  V30 1134 O 119.135 -2.08417 0.582355 0
M  V30 1135 C 119.73 -0.254966 3.37839 0
M  V30 1136 C 118.289 -0.682482 3.70161 0
M  V30 1137 C 117.436 0.181981 2.76702 0
M  V30 1138 H 120.387 0.565994 1.48264 0
M  V30 1139 H 120.408 -1.08195 3.64793 0
M  V30 1140 H 119.92 0.735526 3.81066 0
M  V30 1141 H 118.021 -1.68189 3.3248 0
M  V30 1142 H 118.134 -0.470326 4.76786 0
M  V30 1143 H 116.498 -0.34615 2.52337 0
M  V30 1144 H 117.281 1.16966 3.2276 0
M  V30 1145 N 119.726 -1.57421 0.075193 0
M  V30 1146 C 120.658 -2.09904 -0.920483 0
M  V30 1147 C 121.671 -1.03191 -1.25918 0
M  V30 1148 O 122.86 -1.30695 -1.21577 0
M  V30 1149 C 119.96 -2.54726 -2.23534 0
M  V30 1150 C 119.133 -3.8505 -2.07498 0
M  V30 1151 C 118.192 -4.15929 -3.22319 0
M  V30 1152 O 117.218 -4.85474 -2.9716 0
M  V30 1153 N 118.42 -3.69745 -4.47514 0
M  V30 1154 H 121.185 -2.95954 -0.472359 0
M  V30 1155 H 118.746 -1.61523 -0.110444 0
M  V30 1156 H 120.738 -2.72443 -2.9926 0
M  V30 1157 H 119.308 -1.73795 -2.59835 0
M  V30 1158 H 118.528 -3.76679 -1.16219 0
M  V30 1159 H 119.816 -4.70348 -1.94038 0
M  V30 1160 H 119.214 -3.13569 -4.7084 0
M  V30 1161 H 117.771 -3.92655 -5.20255 0
M  V30 1162 N 121.204 0.198386 -1.56346 0
M  V30 1163 C 122.45 0.920648 -1.80698 0
M  V30 1164 C 122.783 1.83045 -0.648697 0
M  V30 1165 O 122.058 1.91308 0.350925 0
M  V30 1166 C 122.341 1.73971 -3.15287 0
M  V30 1167 C 122.194 0.85485 -4.41602 0
M  V30 1168 C 123.513 2.71296 -3.46535 0
M  V30 1169 H 120.632 0.333261 -0.657348 0
M  V30 1170 H 123.274 0.188198 -1.89066 0
M  V30 1171 H 121.424 2.36416 -3.08285 0
M  V30 1172 H 123.096 0.245362 -4.60647 0
M  V30 1173 H 121.339 0.161398 -4.335 0
M  V30 1174 H 122.01 1.46286 -5.32264 0
M  V30 1175 H 124.486 2.18983 -3.53816 0
M  V30 1176 H 123.362 3.2569 -4.41834 0
M  V30 1177 H 123.623 3.5018 -2.69864 0
M  V30 1178 N 122.682 1.50554 0.465978 0
M  V30 1179 C 123.614 1.65949 1.58093 0
M  V30 1180 C 124.627 0.540827 1.53554 0
M  V30 1181 O 125.816 0.814187 1.5885 0
M  V30 1182 C 122.916 1.63261 2.96983 0
M  V30 1183 C 122.089 2.91245 3.26336 0
M  V30 1184 C 121.148 2.8113 4.44806 0
M  V30 1185 O 120.174 3.55086 4.44862 0
M  V30 1186 N 121.376 1.95032 5.46756 0
M  V30 1187 H 124.141 2.62122 1.45301 0
M  V30 1188 H 121.702 1.48082 0.65448 0
M  V30 1189 H 123.694 1.54101 3.74212 0
M  V30 1190 H 122.264 0.748032 3.03518 0
M  V30 1191 H 121.484 3.14493 2.37672 0
M  V30 1192 H 122.772 3.76022 3.42761 0
M  V30 1193 H 122.17 1.3427 5.49534 0
M  V30 1194 H 120.727 1.91772 6.2295 0
M  V30 1195 N 124.16 -0.719506 1.40217 0
M  V30 1196 C 125.388 -1.50864 1.41589 0
M  V30 1197 C 125.803 -1.88794 0.0145275 0
M  V30 1198 O 125.16 -1.55174 -0.960594 0
M  V30 1199 C 125.211 -2.78646 2.30302 0
M  V30 1200 O 124.932 -2.42321 3.64983 0
M  V30 1201 C 126.433 -3.72569 2.40224 0
M  V30 1202 H 123.653 -0.465709 0.48307 0
M  V30 1203 H 126.197 -0.88785 1.84221 0
M  V30 1204 H 124.352 -3.37019 1.91042 0
M  V30 1205 H 124.766 -3.24514 4.12057 0
M  V30 1206 H 126.24 -4.5908 3.06512 0
M  V30 1207 H 126.717 -4.15403 1.42608 0
M  V30 1208 H 127.323 -3.20109 2.80019 0
M  V30 1209 N 125.638 -1.25649 -0.95132 0
M  V30 1210 C 126.884 -1.10757 -1.69884 0
M  V30 1211 C 127.217 0.350061 -1.91019 0
M  V30 1212 O 126.492 1.25783 -1.48354 0
M  V30 1213 C 126.775 -1.86606 -3.07978 0
M  V30 1214 C 126.628 -3.40217 -2.94232 0
M  V30 1215 C 127.947 -1.65182 -4.07925 0
M  V30 1216 H 125.066 -0.40374 -0.616574 0
M  V30 1217 H 127.708 -1.54521 -1.10558 0
M  V30 1218 H 125.858 -1.49409 -3.58621 0
M  V30 1219 H 127.53 -3.87108 -2.50889 0
M  V30 1220 H 125.773 -3.67759 -2.30078 0
M  V30 1221 H 126.444 -3.88505 -3.92133 0
M  V30 1222 H 128.92 -1.9757 -3.66204 0
M  V30 1223 H 127.796 -2.20683 -5.02583 0
M  V30 1224 H 128.057 -0.593933 -4.38092 0
M  V30 1225 N 127.117 1.15442 -1.07289 0
M  V30 1226 C 128.049 2.19773 -0.650585 0
M  V30 1227 C 129.062 1.60076 0.296572 0
M  V30 1228 O 130.251 1.78293 0.0859905 0
M  V30 1229 C 127.351 3.38838 0.0650398 0
M  V30 1230 C 126.524 4.2808 -0.898141 0
M  V30 1231 C 125.583 5.2574 -0.219926 0
M  V30 1232 O 124.609 5.62654 -0.860773 0
M  V30 1233 N 125.811 5.71205 1.03466 0
M  V30 1234 H 128.576 2.56622 -1.54808 0
M  V30 1235 H 126.137 1.30551 -0.957494 0
M  V30 1236 H 128.129 4.01222 0.529415 0
M  V30 1237 H 126.699 3.00409 0.864466 0
M  V30 1238 H 125.919 3.62804 -1.54165 0
M  V30 1239 H 127.207 4.84577 -1.5512 0
M  V30 1240 H 126.605 5.43325 1.57526 0
M  V30 1241 H 125.162 6.35633 1.44272 0
M  V30 1242 N 128.595 0.856903 1.32268 0
M  V30 1243 C 129.82 0.474569 2.01897 0
M  V30 1244 C 130.245 -0.921766 1.63967 0
M  V30 1245 O 129.603 -1.60589 0.84148 0
M  V30 1246 C 129.651 0.623799 3.55164 0
M  V30 1247 O 128.755 -0.342459 4.10976 0
M  V30 1248 H 128.096 0.190422 0.63611 0
M  V30 1249 H 130.626 1.15672 1.68764 0
M  V30 1250 H 130.636 0.512169 4.04773 0
M  V30 1251 H 129.311 1.64202 3.82113 0
M  V30 1252 H 127.888 -0.18688 3.72431 0
M  V30 1253 N 130.073 -1.45103 0.615059 0
M  V30 1254 C 131.298 -2.07064 0.117988 0
M  V30 1255 C 131.723 -1.4554 -1.19163 0
M  V30 1256 O 131.081 -0.550855 -1.72729 0
M  V30 1257 C 131.129 -3.606 -0.000288387 0
M  V30 1258 O 130.233 -3.98847 -1.04856 0
M  V30 1259 H 129.574 -0.659467 0.0774581 0
M  V30 1260 H 132.104 -1.86236 0.847186 0
M  V30 1261 H 132.114 -4.07529 -0.196091 0
M  V30 1262 H 130.789 -4.04765 0.955932 0
M  V30 1263 H 129.366 -3.63577 -0.828619 0
M  V30 1264 N 131.551 -0.354651 -1.53558 0
M  V30 1265 C 132.791 0.238651 -2.03002 0
M  V30 1266 C 133.155 1.46878 -1.23656 0
M  V30 1267 O 134.356 2.13699 -1.63053 0
M  V30 1268 C 132.627 0.534175 -3.53386 0
M  V30 1269 S 134.186 1.10271 -4.24719 0
M  V30 1270 H 131.004 0.0702908 -0.707517 0
M  V30 1271 H 133.606 -0.494987 -1.8913 0
M  V30 1272 H 132.31 -0.368765 -4.0874 0
M  V30 1273 H 131.841 1.29718 -3.71398 0
M  V30 1274 H 133.856 2.38772 -4.34974 0
M  V30 1275 N 133.029 1.57378 -0.0835403 0
M  V30 1276 C 133.976 2.13384 0.879539 0
M  V30 1277 C 134.946 1.04936 1.28754 0
M  V30 1278 O 136.131 1.32662 1.37133 0
M  V30 1279 C 133.271 2.70932 2.13752 0
M  V30 1280 C 132.384 3.93575 1.7811 0
M  V30 1281 C 131.519 4.39326 2.98607 0
M  V30 1282 C 130.558 5.54587 2.59037 0
M  V30 1283 N 129.695 5.95243 3.72331 0
M  V30 1284 H 134.535 2.9537 0.395076 0
M  V30 1285 H 132.072 1.45953 0.183349 0
M  V30 1286 H 134.03 3.02411 2.87408 0
M  V30 1287 H 132.66 1.91693 2.59718 0
M  V30 1288 H 131.712 3.68483 0.94469 0
M  V30 1289 H 133.024 4.77258 1.45005 0
M  V30 1290 H 132.178 4.72528 3.80529 0
M  V30 1291 H 130.917 3.5452 3.34913 0
M  V30 1292 H 129.922 5.21024 1.75539 0
M  V30 1293 H 131.147 6.41133 2.23887 0
M  V30 1294 H 129.093 5.13385 4.08378 0
M  V30 1295 H 129.01 6.73694 3.43034 0
M  V30 1296 H 130.278 6.33072 4.54797 0
M  V30 1297 N 134.507 -0.190092 1.56449 0
M  V30 1298 C 135.784 -0.935886 1.71757 0
M  V30 1299 C 136.164 -2.01173 0.639726 0
M  V30 1300 O 135.512 -2.25827 -0.348502 0
M  V30 1301 C 135.722 -1.51775 3.1427 0
M  V30 1302 C 137.07 -1.99794 3.74656 0
M  V30 1303 O 138.094 -1.61607 3.1743 0
M  V30 1304 O 136.953 -2.70079 4.751 0
M  V30 1305 H 134.047 -0.439229 0.700719 0
M  V30 1306 H 136.593 -0.179395 1.68749 0
M  V30 1307 H 135.365 -0.742505 3.84191 0
M  V30 1308 H 134.988 -2.33894 3.21527 0
M  V30 1309 N 135.985 -1.50799 -0.457987 0
M  V30 1310 C 136.915 -1.73553 -1.5621 0
M  V30 1311 C 137.896 -0.584774 -1.59732 0
M  V30 1312 O 139.081 -0.825314 -1.7579 0
M  V30 1313 C 136.211 -1.84169 -2.94447 0
M  V30 1314 C 135.165 -2.99461 -3.0579 0
M  V30 1315 C 134.491 -2.95235 -4.45803 0
M  V30 1316 C 135.791 -4.39766 -2.81786 0
M  V30 1317 H 137.485 -2.66 -1.37421 0
M  V30 1318 H 135.031 -1.28002 -0.659662 0
M  V30 1319 H 136.984 -1.98672 -3.71628 0
M  V30 1320 H 135.708 -0.883545 -3.14422 0
M  V30 1321 H 134.367 -2.8463 -2.31044 0
M  V30 1322 H 134.015 -1.97239 -4.62715 0
M  V30 1323 H 133.715 -3.72642 -4.54326 0
M  V30 1324 H 135.239 -3.11803 -5.24987 0
M  V30 1325 H 136.653 -4.55054 -3.4871 0
M  V30 1326 H 135.05 -5.18722 -3.0174 0
M  V30 1327 H 136.12 -4.51229 -1.7754 0
M  V30 1328 N 137.463 0.71206 -1.40597 0
M  V30 1329 C 138.41 1.82613 -1.41142 0
M  V30 1330 C 139.38 1.63925 -0.267903 0
M  V30 1331 O 140.565 1.85009 -0.466495 0
M  V30 1332 C 137.705 3.20354 -1.28324 0
M  V30 1333 C 136.818 3.50589 -2.52411 0
M  V30 1334 C 135.953 4.77855 -2.32009 0
M  V30 1335 C 134.992 5.01005 -3.51654 0
M  V30 1336 N 134.129 6.19487 -3.30425 0
M  V30 1337 H 138.969 1.81482 -2.36365 0
M  V30 1338 H 136.506 0.886475 -1.17388 0
M  V30 1339 H 138.464 3.99899 -1.18899 0
M  V30 1340 H 137.094 3.20705 -0.367189 0
M  V30 1341 H 136.146 2.65573 -2.72351 0
M  V30 1342 H 137.458 3.63604 -3.41458 0
M  V30 1343 H 136.612 5.65424 -2.19956 0
M  V30 1344 H 135.351 4.67056 -1.40392 0
M  V30 1345 H 134.356 4.1189 -3.64179 0
M  V30 1346 H 135.581 5.13674 -4.44202 0
M  V30 1347 H 133.527 6.09932 -2.41494 0
M  V30 1348 H 133.444 6.33194 -4.13039 0
M  V30 1349 H 134.712 7.09834 -3.22113 0
M  V30 1350 N 138.941 1.26152 0.944643 0
M  V30 1351 C 140.357 1.03189 1.21754 0
M  V30 1352 C 140.557 -0.245112 2.00004 0
M  V30 1353 O 139.613 -0.955176 2.33736 0
M  V30 1354 C 140.926 2.26119 1.98219 0
M  V30 1355 C 142.474 2.30984 2.11224 0
M  V30 1356 C 142.949 3.53597 2.91089 0
M  V30 1357 N 144.44 3.54053 2.98664 0
M  V30 1358 C 145.175 4.45593 3.60881 0
M  V30 1359 N 144.671 5.47416 4.24626 0
M  V30 1360 N 146.464 4.33252 3.58119 0
M  V30 1361 H 138.615 2.08177 0.421437 0
M  V30 1362 H 140.878 0.914723 0.248969 0
M  V30 1363 H 140.584 3.18984 1.48128 0
M  V30 1364 H 140.458 2.3009 2.98895 0
M  V30 1365 H 142.845 1.38635 2.60508 0
M  V30 1366 H 142.926 2.31026 1.09821 0
M  V30 1367 H 142.57 4.46273 2.42493 0
M  V30 1368 H 142.5 3.50802 3.92741 0
M  V30 1369 H 144.991 2.80403 2.53343 0
M  V30 1370 H 145.304 6.13459 4.69987 0
M  V30 1371 H 143.649 5.51278 4.23223 0
M  V30 1372 H 146.84 3.52924 3.0751 0
M  V30 1373 H 147.013 5.04786 4.06319 0
M  V30 1374 N 140.419 -1.14872 1.07899 0
M  V30 1375 C 141.349 -2.2193 0.725887 0
M  V30 1376 C 142.33 -1.67622 -0.28927 0
M  V30 1377 O 143.515 -1.93533 -0.160787 0
M  V30 1378 C 140.645 -3.47061 0.128856 0
M  V30 1379 C 139.599 -4.14363 1.07178 0
M  V30 1380 C 138.925 -5.33636 0.337229 0
M  V30 1381 C 140.225 -4.63492 2.40775 0
M  V30 1382 H 141.919 -2.51724 1.62097 0
M  V30 1383 H 139.465 -1.20991 0.780838 0
M  V30 1384 H 141.418 -4.21199 -0.130147 0
M  V30 1385 H 140.142 -3.16617 -0.80134 0
M  V30 1386 H 138.801 -3.42173 1.3158 0
M  V30 1387 H 138.449 -4.99449 -0.596606 0
M  V30 1388 H 138.149 -5.79609 0.965788 0
M  V30 1389 H 139.673 -6.10539 0.0861567 0
M  V30 1390 H 141.087 -5.2913 2.20669 0
M  V30 1391 H 139.484 -5.20148 2.99276 0
M  V30 1392 H 140.554 -3.78834 3.02676 0
M  V30 1393 N 141.898 -0.863906 -1.31812 0
M  V30 1394 C 143.145 -0.471836 -1.96926 0
M  V30 1395 C 143.473 0.974578 -1.68322 0
M  V30 1396 O 142.728 1.7003 -0.968933 0
M  V30 1397 C 143.027 -0.668547 -3.51091 0
M  V30 1398 C 142.693 -2.08683 -3.99703 0
M  V30 1399 C 141.355 -2.47471 -4.12688 0
M  V30 1400 C 143.707 -3.01207 -4.25351 0
M  V30 1401 C 141.035 -3.78037 -4.4867 0
M  V30 1402 C 143.387 -4.31282 -4.62794 0
M  V30 1403 C 142.051 -4.69992 -4.73987 0
M  V30 1404 H 141.321 -0.172657 -0.720604 0
M  V30 1405 H 143.968 -1.09573 -1.57054 0
M  V30 1406 H 142.273 0.0385252 -3.91781 0
M  V30 1407 H 143.97 -0.345102 -3.99512 0
M  V30 1408 H 140.56 -1.77566 -3.90087 0
M  V30 1409 H 144.744 -2.72469 -4.14819 0
M  V30 1410 H 140 -4.078 -4.55532 0
M  V30 1411 H 144.174 -5.03031 -4.81594 0
M  V30 1412 H 141.801 -5.71207 -5.01624 0
M  V30 1413 N 143.376 1.44774 -0.622745 0
M  V30 1414 C 144.601 2.06999 -0.128968 0
M  V30 1415 C 145.026 1.4617 1.1839 0
M  V30 1416 O 144.384 0.560007 1.72434 0
M  V30 1417 C 144.432 3.60595 -0.0188351 0
M  V30 1418 O 143.536 3.99398 1.02739 0
M  V30 1419 H 142.877 0.659047 -0.0809544 0
M  V30 1420 H 145.407 1.85784 -0.85705 0
M  V30 1421 H 145.417 4.07627 0.174476 0
M  V30 1422 H 144.092 4.04252 -0.977384 0
M  V30 1423 H 142.669 3.64011 0.809326 0
M  V30 1424 N 144.854 0.36279 1.53368 0
M  V30 1425 C 146.102 -0.227326 2.00817 0
M  V30 1426 C 146.423 -1.49511 1.25186 0
M  V30 1427 O 145.693 -1.92482 0.364348 0
M  V30 1428 H 144.273 -0.0869923 0.741917 0
M  V30 1429 H 146.935 0.488381 1.88682 0
M  V30 1430 H 146.031 -0.456273 3.08747 0
M  V30 1431 N 146.332 -1.57332 0.0918853 0
M  V30 1432 C 147.56 -1.98574 -0.581048 0
M  V30 1433 C 147.975 -0.970903 -1.61923 0
M  V30 1434 O 147.332 0.0399054 -1.82456 0
M  V30 1435 C 147.383 -3.39872 -1.23164 0
M  V30 1436 O 147.104 -4.37469 -0.234989 0
M  V30 1437 C 148.605 -3.96099 -1.99049 0
M  V30 1438 H 145.825 -0.65261 -0.156018 0
M  V30 1439 H 148.369 -2.0379 0.170225 0
M  V30 1440 H 146.524 -3.35679 -1.93386 0
M  V30 1441 H 146.938 -5.19751 -0.70418 0
M  V30 1442 H 148.412 -4.97127 -2.39934 0
M  V30 1443 H 148.889 -3.3374 -2.85507 0
M  V30 1444 H 149.495 -4.03755 -1.3365 0
M  V30 1445 N 147.81 0.181792 -1.56548 0
M  V30 1446 C 148.742 1.24956 -1.92142 0
M  V30 1447 C 149.755 1.41022 -0.813422 0
M  V30 1448 O 150.944 1.41212 -1.09186 0
M  V30 1449 C 148.044 2.61981 -2.14987 0
M  V30 1450 C 147.217 2.6735 -3.46183 0
M  V30 1451 C 146.276 3.85664 -3.5798 0
M  V30 1452 O 145.302 3.72148 -4.30691 0
M  V30 1453 N 146.504 5.01683 -2.92053 0
M  V30 1454 H 149.269 0.947329 -2.84334 0
M  V30 1455 H 146.83 0.371629 -1.57577 0
M  V30 1456 H 148.822 3.3958 -2.20154 0
M  V30 1457 H 147.392 2.84637 -1.2923 0
M  V30 1458 H 146.612 1.75925 -3.52766 0
M  V30 1459 H 147.9 2.67939 -4.32534 0
M  V30 1460 H 147.298 5.15564 -2.32832 0
M  V30 1461 H 145.855 5.77181 -3.0283 0
M  V30 1462 N 149.288 1.51039 0.449983 0
M  V30 1463 C 150.537 1.62317 1.19733 0
M  V30 1464 C 150.85 0.339101 1.92638 0
M  V30 1465 O 152.056 0.331069 2.69474 0
M  V30 1466 C 150.512 2.86608 2.17678 0
M  V30 1467 C 150.12 4.21972 1.50479 0
M  V30 1468 C 151.864 3.07239 2.92924 0
M  V30 1469 C 149.771 5.37426 2.46834 0
M  V30 1470 H 148.701 0.604532 0.450619 0
M  V30 1471 H 151.352 1.77494 0.465625 0
M  V30 1472 H 149.734 2.65037 2.94231 0
M  V30 1473 H 150.908 4.53878 0.795716 0
M  V30 1474 H 149.223 4.07117 0.874344 0
M  V30 1475 H 151.82 3.90668 3.65079 0
M  V30 1476 H 152.163 2.19807 3.5354 0
M  V30 1477 H 152.696 3.29091 2.23481 0
M  V30 1478 H 149.435 6.27079 1.90926 0
M  V30 1479 H 148.955 5.09912 3.15832 0
M  V30 1480 H 150.634 5.68862 3.08228 0
M  V30 1481 N 150.766 -0.704594 1.40972 0
M  V30 1482 C 151.991 -1.49858 1.43378 0
M  V30 1483 C 152.416 -1.88061 0.038184 0
M  V30 1484 O 151.774 -1.5402 -0.956425 0
M  V30 1485 C 151.822 -2.74333 2.34038 0
M  V30 1486 O 150.926 -3.7147 1.7912 0
M  V30 1487 H 150.267 -0.45139 0.486974 0
M  V30 1488 H 152.797 -0.866832 1.8533 0
M  V30 1489 H 152.807 -3.22741 2.49604 0
M  V30 1490 H 151.482 -2.45863 3.35446 0
M  V30 1491 H 150.059 -3.30363 1.72958 0
M  V30 1492 N 152.244 -1.26651 -0.937939 0
M  V30 1493 C 153.472 -1.15173 -1.7188 0
M  V30 1494 C 153.887 0.292668 -1.86518 0
M  V30 1495 O 153.244 1.20014 -1.37488 0
M  V30 1496 C 153.295 -1.81925 -3.12387 0
M  V30 1497 O 153.016 -3.2072 -2.98446 0
M  V30 1498 C 154.517 -1.76442 -4.06673 0
M  V30 1499 H 151.737 -0.400911 -0.538063 0
M  V30 1500 H 154.281 -1.67332 -1.1756 0
M  V30 1501 H 152.436 -1.33696 -3.63599 0
M  V30 1502 H 152.85 -3.53802 -3.872 0
M  V30 1503 H 154.324 -2.27781 -5.02812 0
M  V30 1504 H 154.801 -0.731608 -4.33064 0
M  V30 1505 H 155.407 -2.24238 -3.61382 0
M  V30 1506 N 153.722 1.14298 -1.08507 0
M  V30 1507 C 154.971 1.84708 -0.810305 0
M  V30 1508 C 155.284 1.83903 0.666271 0
M  V30 1509 O 156.49 2.50112 1.05624 0
M  V30 1510 C 154.946 3.31572 -1.39957 0
M  V30 1511 C 154.554 3.40791 -2.90801 0
M  V30 1512 C 156.298 4.07087 -1.20334 0
M  V30 1513 C 154.205 4.81872 -3.4286 0
M  V30 1514 H 153.135 0.691985 -0.299454 0
M  V30 1515 H 155.786 1.28841 -1.30661 0
M  V30 1516 H 154.168 3.87183 -0.830976 0
M  V30 1517 H 155.342 2.95225 -3.53806 0
M  V30 1518 H 153.657 2.78732 -3.0935 0
M  V30 1519 H 156.254 5.11225 -1.56693 0
M  V30 1520 H 156.597 4.16054 -0.143237 0
M  V30 1521 H 157.13 3.57779 -1.73893 0
M  V30 1522 H 153.869 4.78094 -4.48449 0
M  V30 1523 H 153.389 5.27972 -2.84615 0
M  V30 1524 H 155.068 5.50765 -3.39509 0
M  V30 1525 N 155.201 0.870884 1.31352 0
M  V30 1526 C 156.164 0.332243 2.26779 0
M  V30 1527 C 157.164 -0.517302 1.52252 0
M  V30 1528 O 158.354 -0.326477 1.71113 0
M  V30 1529 C 155.486 -0.528066 3.36785 0
M  V30 1530 H 156.679 1.17469 2.75937 0
M  V30 1531 H 154.232 0.64655 1.423 0
M  V30 1532 H 154.967 -1.39167 2.92922 0
M  V30 1533 H 154.752 0.0802582 3.92018 0
M  V30 1534 H 156.242 -0.897179 4.07849 0
M  V30 1535 N 156.679 -1.44442 0.630414 0
M  V30 1536 C 157.589 -2.34476 -0.0761693 0
M  V30 1537 C 158.605 -1.52576 -0.836449 0
M  V30 1538 O 159.781 -1.85307 -0.788874 0
M  V30 1539 C 156.846 -3.30545 -1.04599 0
M  V30 1540 C 155.907 -4.28352 -0.28516 0
M  V30 1541 C 155.14 -5.19831 -1.20878 0
M  V30 1542 O 155.363 -5.15223 -2.44747 0
M  V30 1543 O 154.297 -5.97892 -0.693491 0
M  V30 1544 H 158.123 -2.96345 0.664324 0
M  V30 1545 H 155.708 -1.44203 0.39061 0
M  V30 1546 H 157.59 -3.89681 -1.60396 0
M  V30 1547 H 156.265 -2.7121 -1.76711 0
M  V30 1548 H 155.172 -3.72764 0.315837 0
M  V30 1549 H 156.505 -4.90605 0.395924 0
M  V30 1550 N 158.157 -0.370918 -1.53173 0
M  V30 1551 C 159.382 0.220293 -2.06227 0
M  V30 1552 C 159.807 1.41243 -1.24225 0
M  V30 1553 O 159.165 1.79387 -0.262645 0
M  V30 1554 C 159.213 0.586663 -3.55796 0
M  V30 1555 O 158.317 1.68317 -3.76488 0
M  V30 1556 H 157.658 0.0308099 -0.663285 0
M  V30 1557 H 160.188 -0.533068 -1.97534 0
M  V30 1558 H 160.198 0.85617 -3.98916 0
M  V30 1559 H 158.873 -0.285013 -4.14922 0
M  V30 1560 H 157.45 1.40881 -3.45264 0
M  V30 1561 N 159.635 1.57281 -0.100228 0
M  V30 1562 C 160.545 2.17833 0.870965 0
M  V30 1563 C 161.561 1.14921 1.30649 0
M  V30 1564 O 162.737 1.47313 1.37335 0
M  V30 1565 C 159.802 2.75085 2.1102 0
M  V30 1566 C 158.863 3.9297 1.72838 0
M  V30 1567 C 158.096 4.47482 2.90854 0
M  V30 1568 O 158.319 4.00922 4.05731 0
M  V30 1569 O 157.253 5.38433 2.69023 0
M  V30 1570 H 161.079 3.0124 0.38575 0
M  V30 1571 H 158.664 1.48881 0.124397 0
M  V30 1572 H 160.546 3.11656 2.83634 0
M  V30 1573 H 159.221 1.94721 2.58584 0
M  V30 1574 H 158.128 3.61201 0.973883 0
M  V30 1575 H 159.461 4.74713 1.30033 0
M  V30 1576 N 161.113 -0.173488 1.56642 0
M  V30 1577 C 162.39 -0.917617 1.7274 0
M  V30 1578 C 162.77 -2.00484 0.661027 0
M  V30 1579 O 162.118 -2.26184 -0.32453 0
M  V30 1580 C 162.328 -1.48433 3.15862 0
M  V30 1581 C 163.676 -1.95809 3.76754 0
M  V30 1582 O 164.7 -1.58231 3.19126 0
M  V30 1583 O 163.559 -2.65024 4.77938 0
M  V30 1584 H 160.653 -0.431772 0.705338 0
M  V30 1585 H 163.199 -0.161487 1.6893 0
M  V30 1586 H 161.971 -0.701715 3.84957 0
M  V30 1587 H 161.594 -2.30471 3.23989 0
M  V30 1588 N 162.591 -1.51276 -0.441967 0
M  V30 1589 C 163.816 -1.67799 -1.21895 0
M  V30 1590 C 164.241 -0.372864 -1.84367 0
M  V30 1591 O 163.599 0.666501 -1.68604 0
M  V30 1592 C 163.647 -2.79199 -2.28211 0
M  V30 1593 O 162.751 -2.42479 -3.33583 0
M  V30 1594 H 162.092 -0.559649 -0.357336 0
M  V30 1595 H 164.622 -1.97815 -0.522522 0
M  V30 1596 H 164.632 -3.03146 -2.73069 0
M  V30 1597 H 163.307 -3.73906 -1.82118 0
M  V30 1598 H 161.884 -2.29087 -2.94234 0
M  V30 1599 N 164.069 0.697108 -1.41344 0
M  V30 1600 C 165.001 1.8224 -1.39001 0
M  V30 1601 C 166.014 1.60152 -0.292428 0
M  V30 1602 O 167.203 1.69684 -0.554048 0
M  V30 1603 C 164.303 3.18976 -1.14489 0
M  V30 1604 C 163.476 3.68105 -2.36258 0
M  V30 1605 C 162.535 4.83506 -2.07625 0
M  V30 1606 O 161.561 4.95201 -2.8065 0
M  V30 1607 N 162.763 5.70637 -1.06555 0
M  V30 1608 H 165.528 1.84742 -2.35988 0
M  V30 1609 H 163.089 0.87937 -1.35936 0
M  V30 1610 H 165.081 3.93801 -0.932885 0
M  V30 1611 H 163.651 3.11508 -0.261043 0
M  V30 1612 H 162.871 2.84204 -2.7317 0
M  V30 1613 H 164.159 3.97667 -3.17393 0
M  V30 1614 H 163.557 5.63817 -0.461125 0
M  V30 1615 H 162.114 6.45368 -0.913444 0
M  V30 1616 N 165.547 1.27147 0.931209 0
M  V30 1617 C 166.457 1.11372 2.06478 0
M  V30 1618 C 167.473 0.044645 1.73943 0
M  V30 1619 O 168.649 0.250417 1.99837 0
M  V30 1620 C 165.714 0.758838 3.38294 0
M  V30 1621 C 164.775 1.90841 3.84549 0
M  V30 1622 C 164.008 1.57036 5.10074 0
M  V30 1623 O 164.231 0.476645 5.68405 0
M  V30 1624 O 163.165 2.40839 5.51616 0
M  V30 1625 H 166.991 2.06493 2.22698 0
M  V30 1626 H 164.576 1.06301 1.04978 0
M  V30 1627 H 166.458 0.574098 4.17471 0
M  V30 1628 H 165.133 -0.162879 3.2329 0
M  V30 1629 H 164.04 2.14819 3.06274 0
M  V30 1630 H 165.373 2.81021 4.04089 0
M  V30 1631 N 167.025 -1.13721 1.09112 0
M  V30 1632 C 168.25 -1.89314 0.847053 0
M  V30 1633 C 168.675 -1.78416 -0.595774 0
M  V30 1634 O 168.033 -1.12942 -1.41823 0
M  V30 1635 C 168.081 -3.3701 1.28284 0
M  V30 1636 O 167.185 -4.10054 0.439267 0
M  V30 1637 H 166.526 -0.588745 0.307044 0
M  V30 1638 H 169.056 -1.43902 1.45442 0
M  V30 1639 H 169.066 -3.87834 1.26683 0
M  V30 1640 H 167.741 -3.4426 2.33363 0
M  V30 1641 H 166.318 -3.69266 0.519312 0
M  V30 1642 N 168.503 -0.877838 -1.30888 0
M  V30 1643 C 169.749 -0.493426 -1.96706 0
M  V30 1644 C 170.082 0.953504 -1.6918 0
M  V30 1645 O 169.357 1.67266 -0.992594 0
M  V30 1646 C 169.64 -0.760429 -3.51979 0
M  V30 1647 C 169.493 -2.25747 -3.89048 0
M  V30 1648 C 170.812 -0.232148 -4.39487 0
M  V30 1649 H 167.931 -0.180746 -0.714493 0
M  V30 1650 H 170.573 -1.10052 -1.54882 0
M  V30 1651 H 168.723 -0.243715 -3.87735 0
M  V30 1652 H 170.395 -2.84204 -3.63354 0
M  V30 1653 H 168.638 -2.72694 -3.37373 0
M  V30 1654 H 169.309 -2.39491 -4.97341 0
M  V30 1655 H 171.785 -0.674314 -4.106 0
M  V30 1656 H 170.661 -0.448355 -5.47066 0
M  V30 1657 H 170.922 0.866297 -4.33529 0
M  V30 1658 N 169.982 1.44106 -0.638065 0
M  V30 1659 C 171.259 1.95453 -0.0759321 0
M  V30 1660 C 171.639 1.57984 1.40015 0
M  V30 1661 O 170.987 0.857361 2.11806 0
M  V30 1662 C 171.197 3.47655 -0.306132 0
M  V30 1663 C 172.545 4.24114 -0.203008 0
M  V30 1664 O 173.569 3.55405 -0.237871 0
M  V30 1665 O 172.428 5.46381 -0.113827 0
M  V30 1666 H 169.522 0.826797 0.0183332 0
M  V30 1667 H 172.068 1.54122 -0.710251 0
M  V30 1668 H 170.84 3.68 -1.3301 0
M  V30 1669 H 170.463 3.95949 0.361991 0
M  V30 1670 N 171.46 0.379036 1.52974 0
M  V30 1671 C 172.685 -0.209353 2.06341 0
M  V30 1672 C 173.11 -1.40583 1.24972 0
M  V30 1673 O 172.468 -1.79246 0.272155 0
M  V30 1674 C 172.516 -0.567786 3.56102 0
M  V30 1675 O 171.62 -1.66318 3.77375 0
M  V30 1676 H 170.961 -0.0272919 0.663439 0
M  V30 1677 H 173.491 0.543536 1.97248 0
M  V30 1678 H 173.501 -0.835003 3.99364 0
M  V30 1679 H 172.176 0.307013 4.14765 0
M  V30 1680 H 170.753 -1.39048 3.46006 0
M  V30 1681 N 172.938 -1.57226 0.108567 0
M  V30 1682 C 174.184 -1.95121 -0.552761 0
M  V30 1683 C 174.517 -0.991345 -1.66991 0
M  V30 1684 O 173.792 -0.0267211 -1.94482 0
M  V30 1685 C 174.075 -3.43039 -1.09528 0
M  V30 1686 C 173.928 -4.49797 0.0177332 0
M  V30 1687 C 175.247 -3.92567 -1.98945 0
M  V30 1688 H 172.366 -0.709496 -0.199461 0
M  V30 1689 H 175.008 -1.89126 0.182011 0
M  V30 1690 H 173.158 -3.48279 -1.72146 0
M  V30 1691 H 174.83 -4.56661 0.652584 0
M  V30 1692 H 173.073 -4.284 0.682309 0
M  V30 1693 H 173.744 -5.50528 -0.402919 0
M  V30 1694 H 176.22 -3.89565 -1.46214 0
M  V30 1695 H 175.096 -4.96605 -2.33827 0
M  V30 1696 H 175.357 -3.32648 -2.91201 0
M  V30 1697 N 174.416 0.165178 -1.56732 0
M  V30 1698 C 175.644 0.896218 -1.86482 0
M  V30 1699 C 176.059 1.75555 -0.694675 0
M  V30 1700 O 175.416 1.79379 0.33607 0
M  V30 1701 C 175.467 1.76792 -3.1532 0
M  V30 1702 O 175.188 0.943239 -4.27825 0
M  V30 1703 C 176.689 2.6081 -3.58459 0
M  V30 1704 H 173.909 0.260064 -0.618553 0
M  V30 1705 H 176.453 0.163428 -2.03846 0
M  V30 1706 H 174.608 2.45398 -2.99764 0
M  V30 1707 H 175.022 1.53998 -5.01383 0
M  V30 1708 H 176.496 3.17579 -4.51495 0
M  V30 1709 H 176.973 3.35977 -2.82872 0
M  V30 1710 H 177.579 1.97526 -3.76648 0
M  V30 1711 N 175.894 1.51508 0.433938 0
M  V30 1712 C 177.171 1.54888 1.19453 0
M  V30 1713 C 177.551 0.315154 2.08734 0
M  V30 1714 O 176.899 -0.699558 2.17528 0
M  V30 1715 C 177.109 2.86467 1.99342 0
M  V30 1716 C 178.457 3.38545 2.56267 0
M  V30 1717 O 179.481 2.88041 2.0955 0
M  V30 1718 O 178.34 4.26675 3.41483 0
M  V30 1719 H 175.434 0.622863 0.544032 0
M  V30 1720 H 177.98 1.63823 0.442732 0
M  V30 1721 H 176.752 3.67718 1.33788 0
M  V30 1722 H 176.375 2.8071 2.8158 0
M  V30 1723 N 177.372 -0.689602 1.41712 0
M  V30 1724 C 178.597 -1.48329 1.44959 0
M  V30 1725 C 179.022 -1.8801 0.0581283 0
M  V30 1726 O 178.38 -1.55026 -0.940035 0
M  V30 1727 C 178.428 -2.71835 2.36935 0
M  V30 1728 O 177.532 -3.69549 1.8305 0
M  V30 1729 H 176.873 -0.446199 0.491734 0
M  V30 1730 H 179.403 -0.847127 1.86239 0
M  V30 1731 H 179.413 -3.20076 2.53013 0
M  V30 1732 H 178.088 -2.42291 3.38035 0
M  V30 1733 H 176.665 -3.2851 1.76452 0
M  V30 1734 N 178.85 -1.27639 -0.924453 0
M  V30 1735 C 179.782 -1.06442 -2.02985 0
M  V30 1736 C 180.795 -0.0194771 -1.62788 0
M  V30 1737 O 181.984 -0.261388 -1.76576 0
M  V30 1738 C 179.084 -0.59327 -3.33667 0
M  V30 1739 C 178.257 -1.71123 -4.02537 0
M  V30 1740 C 177.316 -1.23527 -5.11495 0
M  V30 1741 O 176.342 -1.93553 -5.35281 0
M  V30 1742 N 177.544 -0.0926678 -5.80426 0
M  V30 1743 H 180.309 -2.01633 -2.2173 0
M  V30 1744 H 177.87 -1.19248 -1.09505 0
M  V30 1745 H 179.862 -0.258686 -4.03872 0
M  V30 1746 H 178.432 0.265502 -3.1147 0
M  V30 1747 H 177.652 -2.21593 -3.26022 0
M  V30 1748 H 178.94 -2.46145 -4.45298 0
M  V30 1749 H 178.338 0.491741 -5.63559 0
M  V30 1750 H 176.895 0.182714 -6.51544 0
M  V30 1751 N 180.328 1.1314 -1.09713 0
M  V30 1752 C 181.275 2.18642 -0.739196 0
M  V30 1753 C 182.245 1.63706 0.280978 0
M  V30 1754 O 183.43 1.90111 0.161946 0
M  V30 1755 C 180.57 3.44685 -0.169102 0
M  V30 1756 C 179.683 4.13711 -1.24367 0
M  V30 1757 C 178.818 5.27379 -0.636019 0
M  V30 1758 C 177.857 5.88259 -1.69169 0
M  V30 1759 N 176.994 6.93352 -1.10485 0
M  V30 1760 H 181.834 2.48607 -1.64312 0
M  V30 1761 H 179.371 1.22066 -0.820875 0
M  V30 1762 H 181.329 4.16815 0.179256 0
M  V30 1763 H 179.959 3.15161 0.698079 0
M  V30 1764 H 179.011 3.39835 -1.70927 0
M  V30 1765 H 180.323 4.55037 -2.04311 0
M  V30 1766 H 179.477 6.06238 -0.236677 0
M  V30 1767 H 178.216 4.8731 0.194928 0
M  V30 1768 H 177.221 5.08092 -2.10055 0
M  V30 1769 H 178.446 6.30399 -2.52536 0
M  V30 1770 H 176.392 6.55335 -0.295234 0
M  V30 1771 H 176.309 7.33236 -1.84121 0
M  V30 1772 H 177.577 7.76057 -0.73181 0
M  V30 1773 N 181.806 0.884767 1.30421 0
M  V30 1774 C 183.222 0.57874 1.48737 0
M  V30 1775 C 183.422 -0.883567 1.81095 0
M  V30 1776 O 182.478 -1.6648 1.89844 0
M  V30 1777 C 183.791 1.49171 2.61091 0
M  V30 1778 C 185.339 1.49532 2.74971 0
M  V30 1779 C 185.814 2.39421 3.90438 0
M  V30 1780 N 187.305 2.37383 3.97748 0
M  V30 1781 C 188.04 3.03647 4.86401 0
M  V30 1782 N 187.536 3.79136 5.79852 0
M  V30 1783 N 189.329 2.9288 4.79768 0
M  V30 1784 H 181.48 1.83075 1.0769 0
M  V30 1785 H 183.743 0.783637 0.533495 0
M  V30 1786 H 183.449 2.53291 2.44001 0
M  V30 1787 H 183.323 1.20113 3.57565 0
M  V30 1788 H 185.71 0.46163 2.91467 0
M  V30 1789 H 185.791 1.8262 1.79119 0
M  V30 1790 H 185.435 3.42874 3.74699 0
M  V30 1791 H 185.365 2.03649 4.85628 0
M  V30 1792 H 187.856 1.82525 3.30897 0
M  V30 1793 H 188.169 4.26789 6.4426 0
M  V30 1794 H 186.514 3.83243 5.79784 0
M  V30 1795 H 189.705 2.33433 4.05742 0
M  V30 1796 H 189.878 3.448 5.4865 0
M  V30 1797 N 183.284 -1.43765 0.645699 0
M  V30 1798 C 184.7 -1.56509 0.312591 0
M  V30 1799 C 184.9 -1.6307 -1.18365 0
M  V30 1800 O 183.956 -1.58167 -1.96824 0
M  V30 1801 C 185.269 -2.82968 1.01733 0
M  V30 1802 C 186.817 -2.96701 0.996865 0
M  V30 1803 C 187.292 -4.25982 1.68236 0
M  V30 1804 N 188.783 -4.32829 1.64964 0
M  V30 1805 C 189.518 -5.31613 2.14885 0
M  V30 1806 N 189.014 -6.36718 2.73061 0
M  V30 1807 N 190.807 -5.23217 2.05428 0
M  V30 1808 H 182.958 -1.3775 1.61675 0
M  V30 1809 H 185.221 -0.661067 0.679481 0
M  V30 1810 H 184.927 -2.84156 2.0724 0
M  V30 1811 H 184.801 -3.72957 0.564177 0
M  V30 1812 H 187.188 -2.95058 -0.0497719 0
M  V30 1813 H 187.269 -2.08022 1.48865 0
M  V30 1814 H 186.913 -4.28386 2.72852 0
M  V30 1815 H 186.843 -5.13545 1.16529 0
M  V30 1816 H 189.334 -3.57493 1.22503 0
M  V30 1817 H 189.647 -7.08401 3.08848 0
M  V30 1818 H 187.992 -6.37362 2.77118 0
M  V30 1819 H 191.183 -4.40019 1.59689 0
M  V30 1820 H 191.356 -6.00045 2.44643 0
M  V30 1821 N 184.763 -0.387143 -1.52771 0
M  V30 1822 C 185.673 0.456442 -2.30117 0
M  V30 1823 C 186.689 1.07342 -1.36944 0
M  V30 1824 O 187.865 1.07971 -1.70013 0
M  V30 1825 C 184.93 1.56957 -3.09136 0
M  V30 1826 C 183.991 0.977916 -4.18014 0
M  V30 1827 C 183.224 2.038 -4.93256 0
M  V30 1828 O 183.447 3.25271 -4.68567 0
M  V30 1829 O 182.381 1.6565 -5.78657 0
M  V30 1830 H 186.207 -0.17359 -3.03203 0
M  V30 1831 H 183.792 -0.150919 -1.48636 0
M  V30 1832 H 185.674 2.21628 -3.58412 0
M  V30 1833 H 184.349 2.18461 -2.38865 0
M  V30 1834 H 183.256 0.294525 -3.72939 0
M  V30 1835 H 184.589 0.407128 -4.90513 0
M  V30 1836 N 186.241 1.57166 -0.116904 0
M  V30 1837 C 187.49 1.94298 0.541407 0
M  V30 1838 C 187.803 1.00236 1.67964 0
M  V30 1839 O 189.009 1.26826 2.40057 0
M  V30 1840 C 187.465 3.45306 1.01449 0
M  V30 1841 C 187.073 4.47899 -0.0951738 0
M  V30 1842 C 188.817 3.91361 1.6443 0
M  V30 1843 C 186.724 5.90083 0.394491 0
M  V30 1844 H 185.654 0.725308 0.206019 0
M  V30 1845 H 188.305 1.82446 -0.196419 0
M  V30 1846 H 186.687 3.52385 1.80667 0
M  V30 1847 H 187.861 4.52486 -0.871374 0
M  V30 1848 H 186.176 4.11583 -0.631505 0
M  V30 1849 H 188.773 4.95004 2.02176 0
M  V30 1850 H 189.116 3.3122 2.52189 0
M  V30 1851 H 189.649 3.87073 0.917559 0
M  V30 1852 H 186.388 6.53974 -0.447004 0
M  V30 1853 H 185.908 5.88921 1.13722 0
M  V30 1854 H 187.587 6.41307 0.856399 0
M  V30 1855 N 187.719 -0.156864 1.56817 0
M  V30 1856 C 188.649 -1.19589 2.00551 0
M  V30 1857 C 189.63 -1.4536 0.883426 0
M  V30 1858 O 190.815 -1.56449 1.15054 0
M  V30 1859 C 187.945 -2.53143 2.37773 0
M  V30 1860 C 186.899 -2.41913 3.53075 0
M  V30 1861 C 186.225 -3.80088 3.76081 0
M  V30 1862 C 187.525 -1.91157 4.86062 0
M  V30 1863 H 189.219 -0.832293 2.87599 0
M  V30 1864 H 186.765 -0.398918 1.38364 0
M  V30 1865 H 188.718 -3.26047 2.66967 0
M  V30 1866 H 187.442 -2.91319 1.4765 0
M  V30 1867 H 186.101 -1.71462 3.24031 0
M  V30 1868 H 185.749 -4.15683 2.83225 0
M  V30 1869 H 185.449 -3.73439 4.53671 0
M  V30 1870 H 186.973 -4.54556 4.0769 0
M  V30 1871 H 188.387 -2.53846 5.14038 0
M  V30 1872 H 186.784 -1.95422 5.67389 0
M  V30 1873 H 187.854 -0.866673 4.77092 0
M  V30 1874 N 189.197 -1.51736 -0.425897 0
M  V30 1875 C 190.422 -1.69082 -1.20108 0
M  V30 1876 C 190.847 -0.392398 -1.83962 0
M  V30 1877 O 190.205 0.64858 -1.69302 0
M  V30 1878 C 190.253 -2.81604 -2.25237 0
M  V30 1879 O 189.357 -2.46004 -3.30992 0
M  V30 1880 H 188.698 -0.563408 -0.35138 0
M  V30 1881 H 191.228 -1.98358 -0.501512 0
M  V30 1882 H 191.238 -3.06025 -2.69838 0
M  V30 1883 H 189.913 -3.75817 -1.78142 0
M  V30 1884 H 188.49 -2.32195 -2.91787 0
M  V30 1885 N 190.675 0.682077 -1.42076 0
M  V30 1886 C 192.091 0.994324 -1.24841 0
M  V30 1887 C 192.291 2.0096 -0.147389 0
M  V30 1888 O 191.347 2.47822 0.483782 0
M  V30 1889 C 192.66 1.50607 -2.60265 0
M  V30 1890 C 194.208 1.62421 -2.6756 0
M  V30 1891 C 194.683 2.16994 -4.03333 0
M  V30 1892 N 196.174 2.24337 -4.0525 0
M  V30 1893 C 196.909 2.67621 -5.07116 0
M  V30 1894 N 196.405 3.1041 -6.19368 0
M  V30 1895 N 198.198 2.67305 -4.94474 0
M  V30 1896 H 190.349 0.00973908 -2.12398 0
M  V30 1897 H 192.612 0.0668593 -0.945639 0
M  V30 1898 H 192.318 0.834583 -3.41654 0
M  V30 1899 H 192.192 2.48602 -2.83684 0
M  V30 1900 H 194.579 2.28678 -1.86521 0
M  V30 1901 H 194.66 0.629352 -2.47937 0
M  V30 1902 H 194.304 1.51349 -4.84826 0
M  V30 1903 H 194.234 3.17258 -4.20304 0
M  V30 1904 H 196.725 1.94158 -3.24209 0
M  V30 1905 H 197.038 3.42103 -6.92954 0
M  V30 1906 H 195.383 3.08286 -6.22884 0
M  V30 1907 H 198.574 2.33233 -4.05857 0
M  V30 1908 H 198.747 3.00718 -5.73997 0
M  V30 1909 N 192.153 1.28127 0.917671 0
M  V30 1910 C 193.569 1.05749 1.19538 0
M  V30 1911 C 193.769 -0.202633 2.00479 0
M  V30 1912 O 192.825 -0.905382 2.3571 0
M  V30 1913 C 194.138 2.30273 1.93378 0
M  V30 1914 C 195.686 2.35412 2.06277 0
M  V30 1915 C 196.161 3.59692 2.83524 0
M  V30 1916 N 197.652 3.60309 2.91087 0
M  V30 1917 C 198.387 4.53147 3.51348 0
M  V30 1918 N 197.883 5.563 4.12919 0
M  V30 1919 N 199.676 4.40751 3.48849 0
M  V30 1920 H 191.827 2.09024 0.377184 0
M  V30 1921 H 194.09 0.919798 0.22951 0
M  V30 1922 H 193.796 3.22055 1.41328 0
M  V30 1923 H 193.67 2.36378 2.93947 0
M  V30 1924 H 196.057 1.4413 2.57508 0
M  V30 1925 H 196.138 2.33304 1.04895 0
M  V30 1926 H 195.782 4.51316 2.32973 0
M  V30 1927 H 195.712 3.59054 3.85211 0
M  V30 1928 H 198.203 2.85714 2.47338 0
M  V30 1929 H 198.516 6.2329 4.56869 0
M  V30 1930 H 196.861 5.60131 4.11435 0
M  V30 1931 H 200.052 3.59367 2.99955 0
M  V30 1932 H 200.225 5.13291 3.9552 0
M  V30 1933 N 193.631 -1.12557 1.10312 0
M  V30 1934 C 195.042 -1.65574 0.862678 0
M  V30 1935 C 195.393 -1.86566 -0.607256 0
M  V30 1936 O 194.518 -1.59121 -1.46662 0
M  V30 1937 C 195.113 -3.00776 1.55947 0
M  V30 1938 C 193.672 -3.50748 1.36576 0
M  V30 1939 C 192.819 -2.25797 1.60968 0
M  V30 1940 H 195.77 -0.963552 1.26101 0
M  V30 1941 H 195.791 -3.67185 0.997753 0
M  V30 1942 H 195.303 -2.85465 2.62928 0
M  V30 1943 H 193.404 -3.71245 0.317531 0
M  V30 1944 H 193.517 -4.30289 2.10686 0
M  V30 1945 H 191.881 -2.32841 1.03234 0
M  V30 1946 H 192.664 -2.13043 2.69198 0
M  V30 1947 N 195.109 -0.891671 -1.2995 0
M  V30 1948 C 196.334 -0.527932 -2.00568 0
M  V30 1949 C 196.759 0.877969 -1.66353 0
M  V30 1950 O 196.117 1.58301 -0.883762 0
M  V30 1951 C 196.165 -0.717745 -3.53385 0
M  V30 1952 O 195.269 0.233376 -4.11739 0
M  V30 1953 H 194.61 -0.20722 -0.630837 0
M  V30 1954 H 197.14 -1.20105 -1.65638 0
M  V30 1955 H 197.15 -0.619307 -4.03272 0
M  V30 1956 H 195.825 -1.74276 -3.77625 0
M  V30 1957 H 194.402 0.0880706 -3.72796 0
M  V30 1958 N 196.587 1.43421 -0.653314 0
M  V30 1959 C 197.817 2.05864 -0.174238 0
M  V30 1960 C 198.225 1.49052 1.16534 0
M  V30 1961 O 197.568 0.616481 1.73047 0
M  V30 1962 C 197.63 3.59499 -0.00875873 0
M  V30 1963 C 197.294 4.38893 -1.27364 0
M  V30 1964 C 198.291 4.70947 -2.20239 0
M  V30 1965 C 195.976 4.789 -1.51525 0
M  V30 1966 C 197.97 5.41916 -3.35568 0
M  V30 1967 C 195.657 5.49614 -2.67147 0
M  V30 1968 C 196.655 5.81044 -3.58994 0
M  V30 1969 O 196.343 6.50313 -4.72597 0
M  V30 1970 H 196.075 0.670345 -0.0872549 0
M  V30 1971 H 198.629 1.84913 -0.894226 0
M  V30 1972 H 196.859 3.79025 0.7666 0
M  V30 1973 H 198.548 4.0364 0.427687 0
M  V30 1974 H 199.314 4.40558 -2.02815 0
M  V30 1975 H 195.193 4.53843 -0.809158 0
M  V30 1976 H 198.737 5.66365 -4.07279 0
M  V30 1977 H 194.634 5.79419 -2.84505 0
M  V30 1978 H 195.402 6.68795 -4.71864 0
M  V30 1979 N 198.065 0.39524 1.52563 0
M  V30 1980 C 199.481 0.0454682 1.59535 0
M  V30 1981 C 199.681 -1.44056 1.4089 0
M  V30 1982 O 198.737 -2.20579 1.22888 0
M  V30 1983 C 200.05 0.527963 2.96029 0
M  V30 1984 C 201.598 0.484733 3.09224 0
M  V30 1985 C 202.073 0.943512 4.48176 0
M  V30 1986 N 203.564 0.899765 4.54377 0
M  V30 1987 C 204.299 1.22609 5.60138 0
M  V30 1988 N 203.795 1.62319 6.73516 0
M  V30 1989 N 205.588 1.14696 5.50274 0
M  V30 1990 H 197.739 1.36261 1.62931 0
M  V30 1991 H 200.002 0.558887 0.765735 0
M  V30 1992 H 199.708 1.56607 3.14908 0
M  V30 1993 H 199.582 -0.0698056 3.77135 0
M  V30 1994 H 201.969 -0.544298 2.90037 0
M  V30 1995 H 202.05 1.11838 2.30056 0
M  V30 1996 H 201.694 1.9708 4.68104 0
M  V30 1997 H 201.624 0.286817 5.25818 0
M  V30 1998 H 204.115 0.607632 3.72983 0
M  V30 1999 H 204.428 1.85567 7.5019 0
M  V30 2000 H 202.773 1.66211 6.74833 0
M  V30 2001 H 205.964 0.835701 4.6058 0
M  V30 2002 H 206.137 1.40459 6.32594 0
M  V30 2003 N 199.544 -1.57102 0.125237 0
M  V30 2004 C 200.491 -2.15641 -0.822655 0
M  V30 2005 C 201.461 -1.08313 -1.25927 0
M  V30 2006 O 202.646 -1.36251 -1.33567 0
M  V30 2007 C 199.786 -2.76504 -2.06494 0
M  V30 2008 C 198.899 -3.98158 -1.67612 0
M  V30 2009 C 198.034 -4.47088 -2.86854 0
M  V30 2010 C 197.073 -5.6126 -2.44242 0
M  V30 2011 N 196.21 -6.04905 -3.56419 0
M  V30 2012 H 201.05 -2.96313 -0.316625 0
M  V30 2013 H 198.587 -1.46388 -0.144588 0
M  V30 2014 H 200.545 -3.09925 -2.79289 0
M  V30 2015 H 199.175 -1.98512 -2.54545 0
M  V30 2016 H 198.227 -3.70858 -0.846661 0
M  V30 2017 H 199.539 -4.80934 -1.32301 0
M  V30 2018 H 198.693 -4.82451 -3.67867 0
M  V30 2019 H 197.432 -3.63275 -3.25396 0
M  V30 2020 H 196.437 -5.25495 -1.61663 0
M  V30 2021 H 197.662 -6.46843 -2.0681 0
M  V30 2022 H 195.608 -5.24032 -3.94623 0
M  V30 2023 H 195.525 -6.82552 -3.25051 0
M  V30 2024 H 196.793 -6.44907 -4.37853 0
M  V30 2025 N 201.022 0.148545 -1.56898 0
M  V30 2026 C 202.271 0.85984 -1.82454 0
M  V30 2027 C 202.584 1.82406 -0.706229 0
M  V30 2028 O 203.79 2.57938 -0.847349 0
M  V30 2029 C 202.246 1.57967 -3.2338 0
M  V30 2030 C 201.854 0.65794 -4.43142 0
M  V30 2031 C 203.598 2.27784 -3.58211 0
M  V30 2032 C 201.505 1.3793 -5.75091 0
M  V30 2033 H 200.435 0.324834 -0.68044 0
M  V30 2034 H 203.086 0.112588 -1.83154 0
M  V30 2035 H 201.468 2.37249 -3.17063 0
M  V30 2036 H 202.642 -0.0995497 -4.60692 0
M  V30 2037 H 200.957 0.0682643 -4.16344 0
M  V30 2038 H 203.554 2.8239 -4.54048 0
M  V30 2039 H 203.897 3.04204 -2.84193 0
M  V30 2040 H 204.43 1.55421 -3.66182 0
M  V30 2041 H 201.169 0.656982 -6.52199 0
M  V30 2042 H 200.689 2.10954 -5.61479 0
M  V30 2043 H 202.368 1.92063 -6.17835 0
M  V30 2044 N 202.5 1.5196 0.417844 0
M  V30 2045 C 203.43 1.77634 1.51554 0
M  V30 2046 C 204.411 0.626918 1.58126 0
M  V30 2047 O 205.596 0.871632 1.7354 0
M  V30 2048 C 202.726 1.91911 2.8946 0
M  V30 2049 C 201.68 3.07463 2.97743 0
M  V30 2050 C 201.006 3.06951 4.37819 0
M  V30 2051 C 202.306 4.47082 2.70027 0
M  V30 2052 H 204 2.6955 1.3032 0
M  V30 2053 H 201.546 1.29706 0.625492 0
M  V30 2054 H 203.499 2.08455 3.6623 0
M  V30 2055 H 202.223 0.966598 3.11969 0
M  V30 2056 H 200.882 2.90656 2.23416 0
M  V30 2057 H 200.53 2.09438 4.57323 0
M  V30 2058 H 200.23 3.84556 4.44286 0
M  V30 2059 H 201.754 3.25613 5.16535 0
M  V30 2060 H 203.168 4.6414 3.36522 0
M  V30 2061 H 201.565 5.2654 2.87881 0
M  V30 2062 H 202.635 4.55777 1.65514 0
M  V30 2063 N 203.978 -0.674533 1.42435 0
M  V30 2064 C 204.926 -1.80934 1.46169 0
M  V30 2065 C 205.92 -1.66006 0.3374 0
M  V30 2066 O 207.126 -1.72611 0.510425 0
M  V30 2067 H 203.501 -0.596594 0.457798 0
M  V30 2068 H 205.472 -1.74903 2.41767 0
M  V30 2069 C 204.221 -3.19088 1.38123 0
M  V30 2070 H 203.544 -3.31203 2.23931 0
M  V30 2071 H 204.984 -3.9851 1.44797 0
M  V30 2072 C 203.443 -3.36763 0.0960517 0
M  V30 2073 O 203.973 -3.92581 -0.851073 0
M  V30 2074 N 202.179 -2.90597 0.0131186 0
M  V30 2075 H 201.726 -2.45359 0.784639 0
M  V30 2076 H 201.684 -3.028 -0.846133 0
M  V30 2077 N 205.456 -1.28612 -0.910864 0
M  V30 2078 C 206.733 -1.06632 -1.63979 0
M  V30 2079 C 207.113 0.393351 -2.07403 0
M  V30 2080 O 206.461 1.37999 -1.82122 0
M  V30 2081 C 206.671 -2.0436 -2.8291 0
M  V30 2082 C 208.019 -2.34666 -3.5386 0
M  V30 2083 O 209.043 -2.02467 -2.93062 0
M  V30 2084 O 207.902 -2.89631 -4.63439 0
M  V30 2085 H 204.996 -0.407737 -0.7195 0
M  V30 2086 H 207.542 -1.39942 -0.959914 0
M  V30 2087 H 206.314 -3.02727 -2.47936 0
M  V30 2088 H 205.937 -1.71714 -3.58609 0
M  V30 2089 N 206.934 1.1197 -1.10907 0
M  V30 2090 C 207.864 2.19928 -0.784473 0
M  V30 2091 C 208.845 1.6833 0.244726 0
M  V30 2092 O 210.03 1.93892 0.109418 0
M  V30 2093 C 207.16 3.46597 -0.220827 0
M  V30 2094 C 206.114 4.11376 -1.18127 0
M  V30 2095 C 205.44 5.32554 -0.478594 0
M  V30 2096 C 206.74 4.56945 -2.52979 0
M  V30 2097 H 208.434 2.47337 -1.68715 0
M  V30 2098 H 205.98 1.18879 -0.812642 0
M  V30 2099 H 207.933 4.21396 0.0184278 0
M  V30 2100 H 206.657 3.1863 0.717113 0
M  V30 2101 H 205.316 3.38564 -1.40606 0
M  V30 2102 H 204.964 5.00856 0.463976 0
M  V30 2103 H 204.664 5.76844 -1.11912 0
M  V30 2104 H 206.188 6.10096 -0.248 0
M  V30 2105 H 207.602 5.23093 -2.3462 0
M  V30 2106 H 205.999 5.1203 -3.12962 0
M  V30 2107 H 207.069 3.70676 -3.12614 0
M  V30 2108 N 208.412 0.89855 1.29475 0
M  V30 2109 C 209.637 0.538561 2.00285 0
M  V30 2110 C 210.062 -0.869135 1.66816 0
M  V30 2111 O 209.42 -1.57831 0.892145 0
M  V30 2112 C 209.468 0.736475 3.52999 0
M  V30 2113 O 208.572 -0.211537 4.11857 0
M  V30 2114 H 207.913 0.210563 0.62973 0
M  V30 2115 H 210.443 1.20982 1.64998 0
M  V30 2116 H 210.453 0.640685 4.02938 0
M  V30 2117 H 209.128 1.76276 3.76696 0
M  V30 2118 H 207.705 -0.0682991 3.72837 0
M  V30 2119 N 209.89 -1.43072 0.660911 0
M  V30 2120 C 211.115 -2.06584 0.183805 0
M  V30 2121 C 211.54 -1.49257 -1.14472 0
M  V30 2122 O 210.898 -0.605528 -1.70889 0
M  V30 2123 C 210.946 -3.60418 0.114434 0
M  V30 2124 O 210.05 -4.01981 -0.921137 0
M  V30 2125 H 209.391 -0.656669 0.0983994 0
M  V30 2126 H 211.921 -1.83447 0.906006 0
M  V30 2127 H 211.931 -4.07946 -0.0663394 0
M  V30 2128 H 210.606 -4.01519 1.08422 0
M  V30 2129 H 209.183 -3.66029 -0.71253 0
M  V30 2130 N 211.368 -0.403325 -1.52352 0
M  V30 2131 C 212.645 0.232611 -1.94212 0
M  V30 2132 C 213.025 1.63133 -1.33981 0
M  V30 2133 O 212.373 2.22659 -0.513344 0
M  V30 2134 C 212.583 0.244811 -3.4814 0
M  V30 2135 C 213.931 0.46698 -4.22024 0
M  V30 2136 O 214.955 0.324419 -3.5472 0
M  V30 2137 O 213.814 0.74747 -5.41364 0
M  V30 2138 H 210.908 0.148223 -0.813609 0
M  V30 2139 H 213.454 -0.458848 -1.63379 0
M  V30 2140 H 212.226 -0.734378 -3.84347 0
M  V30 2141 H 211.849 0.980611 -3.85318 0
M  V30 2142 N 212.846 1.57033 -0.133567 0
M  V30 2143 C 213.809 2.14897 0.796995 0
M  V30 2144 C 214.809 1.0874 1.18458 0
M  V30 2145 O 215.999 1.34446 1.1077 0
M  V30 2146 C 213.131 2.70112 2.07973 0
M  V30 2147 H 214.324 2.98457 0.293873 0
M  V30 2148 H 211.877 1.55871 0.115787 0
M  V30 2149 H 212.612 1.9018 2.62682 0
M  V30 2150 H 212.397 3.47764 1.81115 0
M  V30 2151 H 213.887 3.14738 2.74462 0
M  V30 2152 N 214.325 -0.140222 1.56975 0
M  V30 2153 C 215.736 -0.699596 1.73097 0
M  V30 2154 C 216.087 -1.8134 0.749022 0
M  V30 2155 O 215.212 -2.16241 -0.0828503 0
M  V30 2156 C 215.807 -1.27582 3.1386 0
M  V30 2157 C 214.366 -1.78169 3.31561 0
M  V30 2158 C 213.513 -0.672855 2.69013 0
M  V30 2159 H 216.464 0.0855115 1.58469 0
M  V30 2160 H 216.485 -2.14561 3.14235 0
M  V30 2161 H 215.997 -0.464955 3.85305 0
M  V30 2162 H 214.098 -2.61801 2.65124 0
M  V30 2163 H 214.211 -1.90574 4.39566 0
M  V30 2164 H 212.575 -1.10118 2.29665 0
M  V30 2165 H 213.358 0.126679 3.43066 0
M  V30 2166 N 215.803 -1.52179 -0.40978 0
M  V30 2167 C 217.051 -1.65878 -1.15451 0
M  V30 2168 C 217.372 -0.390771 -1.91044 0
M  V30 2169 O 216.642 0.594323 -1.86667 0
M  V30 2170 H 215.222 -0.611405 -0.429177 0
M  V30 2171 H 217.884 -1.89219 -0.467134 0
M  V30 2172 H 216.98 -2.49954 -1.86894 0
M  V30 2173 N 217.281 0.66697 -1.42791 0
M  V30 2174 C 218.527 1.4291 -1.43891 0
M  V30 2175 C 218.86 1.94114 -0.0578972 0
M  V30 2176 O 218.135 1.71414 0.91911 0
M  V30 2177 C 218.418 2.62049 -2.46987 0
M  V30 2178 C 218.271 2.16426 -3.94309 0
M  V30 2179 C 219.59 3.64266 -2.46978 0
M  V30 2180 H 216.709 0.518306 -0.523954 0
M  V30 2181 H 219.351 0.757321 -1.74255 0
M  V30 2182 H 217.501 3.19361 -2.21225 0
M  V30 2183 H 219.173 1.64221 -4.31079 0
M  V30 2184 H 217.416 1.47925 -4.078 0
M  V30 2185 H 218.087 3.02038 -4.62036 0
M  V30 2186 H 220.563 3.16686 -2.69906 0
M  V30 2187 H 219.439 4.45196 -3.21079 0
M  V30 2188 H 219.7 4.15927 -1.49857 0
M  V30 2189 N 218.759 1.29093 0.90403 0
M  V30 2190 C 220.17 1.15186 1.46932 0
M  V30 2191 C 220.521 -0.254587 1.94541 0
M  V30 2192 O 219.646 -1.14972 1.83332 0
M  V30 2193 C 220.241 2.08492 2.67051 0
M  V30 2194 C 218.8 1.98621 3.19729 0
M  V30 2195 C 217.947 1.9967 1.92425 0
M  V30 2196 H 220.898 1.41641 0.715789 0
M  V30 2197 H 220.919 1.65461 3.42641 0
M  V30 2198 H 220.431 3.10847 2.3237 0
M  V30 2199 H 218.532 0.993389 3.59114 0
M  V30 2200 H 218.645 2.86068 3.8432 0
M  V30 2201 H 217.009 1.44208 2.09943 0
M  V30 2202 H 217.792 3.03721 1.60026 0
M  V30 2203 N 220.237 -1.11381 1.11499 0
M  V30 2204 C 221.653 -1.35143 0.849031 0
M  V30 2205 C 221.853 -1.94515 -0.525938 0
M  V30 2206 O 220.909 -2.1785 -1.27662 0
M  V30 2207 C 222.222 -2.28249 1.95762 0
M  V30 2208 C 223.77 -2.41812 1.98736 0
M  V30 2209 C 224.245 -3.3824 3.088 0
M  V30 2210 N 225.736 -3.45803 3.08179 0
M  V30 2211 C 226.471 -4.20358 3.89982 0
M  V30 2212 N 225.967 -4.97884 4.8175 0
M  V30 2213 N 227.76 -4.15877 3.78157 0
M  V30 2214 H 219.911 -0.712062 2.00109 0
M  V30 2215 H 222.174 -0.376025 0.870235 0
M  V30 2216 H 221.88 -1.91817 2.94787 0
M  V30 2217 H 221.754 -3.28473 1.85433 0
M  V30 2218 H 224.141 -2.77518 1.00338 0
M  V30 2219 H 224.222 -1.41437 2.13141 0
M  V30 2220 H 223.866 -3.03261 4.07425 0
M  V30 2221 H 223.796 -4.38471 2.91635 0
M  V30 2222 H 226.287 -2.90506 2.41691 0
M  V30 2223 H 226.6 -5.52142 5.40702 0
M  V30 2224 H 224.945 -4.97043 4.85771 0
M  V30 2225 H 228.136 -3.544 3.05808 0
M  V30 2226 H 228.309 -4.73723 4.42143 0
M  V30 2227 N 221.715 -0.905404 -1.28997 0
M  V30 2228 C 222.964 -0.530191 -1.94607 0
M  V30 2229 C 223.277 0.929185 -1.72121 0
M  V30 2230 O 224.483 1.41218 -2.31883 0
M  V30 2231 C 222.939 -0.897333 -3.48534 0
M  V30 2232 C 222.547 -2.37587 -3.79811 0
M  V30 2233 C 224.291 -0.592304 -4.20347 0
M  V30 2234 C 222.198 -2.68357 -5.27009 0
M  V30 2235 H 221.128 -0.194558 -0.728466 0
M  V30 2236 H 223.779 -1.10318 -1.46636 0
M  V30 2237 H 222.161 -0.253214 -3.9519 0
M  V30 2238 H 223.335 -3.06602 -3.43994 0
M  V30 2239 H 221.65 -2.6505 -3.2115 0
M  V30 2240 H 224.247 -0.798975 -5.28697 0
M  V30 2241 H 224.59 0.469474 -4.13644 0
M  V30 2242 H 225.123 -1.19452 -3.79442 0
M  V30 2243 H 221.862 -3.73355 -5.38782 0
M  V30 2244 H 221.382 -2.03971 -5.64053 0
M  V30 2245 H 223.061 -2.54922 -5.94663 0
M  V30 2246 N 223.193 1.4272 -0.668489 0
M  V30 2247 C 224.103 2.34596 0.0139753 0
M  V30 2248 C 225.119 1.5474 0.795703 0
M  V30 2249 O 226.295 1.87334 0.739466 0
M  V30 2250 C 223.36 3.33202 0.957982 0
M  V30 2251 C 222.421 4.28957 0.17149 0
M  V30 2252 C 221.654 5.22853 1.07053 0
M  V30 2253 O 221.877 5.21531 2.31001 0
M  V30 2254 O 220.811 5.9952 0.534727 0
M  V30 2255 H 224.637 2.9448 -0.742661 0
M  V30 2256 H 222.222 1.43117 -0.428705 0
M  V30 2257 H 224.104 3.93796 1.50008 0
M  V30 2258 H 222.779 2.758 1.69458 0
M  V30 2259 H 221.686 3.71796 -0.414558 0
M  V30 2260 H 223.019 4.89383 -0.52586 0
M  V30 2261 N 224.671 0.411399 1.52136 0
M  V30 2262 C 225.581 -0.419774 2.30814 0
M  V30 2263 C 226.597 -1.0515 1.38634 0
M  V30 2264 O 227.773 -1.05252 1.71709 0
M  V30 2265 C 224.838 -1.52019 3.11594 0
M  V30 2266 C 223.899 -0.91129 4.19516 0
M  V30 2267 C 223.132 -1.95927 4.96436 0
M  V30 2268 O 223.355 -3.17775 4.73683 0
M  V30 2269 O 222.289 -1.56423 5.81219 0
M  V30 2270 H 226.115 0.221805 3.02889 0
M  V30 2271 H 223.7 0.174547 1.48377 0
M  V30 2272 H 225.582 -2.15898 3.61892 0
M  V30 2273 H 224.257 -2.14633 2.42311 0
M  V30 2274 H 223.164 -0.235157 3.7336 0
M  V30 2275 H 224.497 -0.32904 4.91099 0
M  V30 2276 N 226.149 -1.5696 0.141893 0
M  V30 2277 C 227.059 -2.20066 -0.812905 0
M  V30 2278 C 228.075 -1.18344 -1.27557 0
M  V30 2279 O 229.251 -1.50902 -1.33381 0
M  V30 2280 C 226.316 -2.80583 -2.03652 0
M  V30 2281 C 225.377 -3.97414 -1.62359 0
M  V30 2282 C 224.61 -4.55036 -2.78887 0
M  V30 2283 O 224.833 -4.11538 -3.94959 0
M  V30 2284 O 223.767 -5.45376 -2.54653 0
M  V30 2285 H 227.593 -3.02157 -0.305746 0
M  V30 2286 H 225.178 -1.49159 -0.0848799 0
M  V30 2287 H 227.06 -3.19067 -2.75272 0
M  V30 2288 H 225.735 -2.01508 -2.5333 0
M  V30 2289 H 224.642 -3.63656 -0.877775 0
M  V30 2290 H 225.975 -4.77994 -1.17401 0
M  V30 2291 N 227.627 0.131896 -1.57047 0
M  V30 2292 C 228.574 1.16236 -1.99393 0
M  V30 2293 C 229.544 1.41863 -0.863943 0
M  V30 2294 O 230.729 1.53946 -1.12718 0
M  V30 2295 C 227.869 2.48708 -2.39245 0
M  V30 2296 C 226.982 2.30127 -3.65603 0
M  V30 2297 C 226.117 3.55738 -3.94492 0
M  V30 2298 C 225.156 3.32259 -5.14073 0
M  V30 2299 N 224.293 4.50039 -5.38896 0
M  V30 2300 H 229.133 0.794251 -2.87221 0
M  V30 2301 H 226.67 0.380707 -1.42088 0
M  V30 2302 H 228.628 3.25969 -2.60384 0
M  V30 2303 H 227.258 2.83437 -1.54478 0
M  V30 2304 H 226.31 1.43845 -3.52154 0
M  V30 2305 H 227.622 2.08746 -4.5302 0
M  V30 2306 H 226.776 4.41423 -4.1621 0
M  V30 2307 H 225.515 3.80138 -3.05526 0
M  V30 2308 H 224.52 2.44963 -4.92212 0
M  V30 2309 H 225.745 3.09242 -6.04604 0
M  V30 2310 H 223.691 4.74584 -4.52886 0
M  V30 2311 H 223.608 4.31716 -6.2061 0
M  V30 2312 H 224.876 5.36895 -5.65123 0
M  V30 2313 N 229.106 1.52395 0.401703 0
M  V30 2314 C 230.331 1.70972 1.17403 0
M  V30 2315 C 230.756 0.421615 1.83314 0
M  V30 2316 O 230.114 -0.621564 1.70312 0
M  V30 2317 C 230.162 2.85151 2.20728 0
M  V30 2318 O 229.266 2.51238 3.27037 0
M  V30 2319 H 228.607 0.568927 0.342372 0
M  V30 2320 H 231.137 1.99131 0.469891 0
M  V30 2321 H 231.147 3.10279 2.64936 0
M  V30 2322 H 229.822 3.78603 1.7214 0
M  V30 2323 H 228.399 2.36808 2.88057 0
M  V30 2324 N 230.584 -0.659388 1.43143 0
M  V30 2325 C 231.494 -1.80167 1.50256 0
M  V30 2326 C 232.51 -1.69571 0.390106 0
M  V30 2327 O 233.686 -1.90849 0.643319 0
M  V30 2328 C 230.751 -3.16409 1.41725 0
M  V30 2329 C 229.812 -3.38848 2.63591 0
M  V30 2330 C 229.045 -4.68591 2.55458 0
M  V30 2331 O 229.268 -5.47532 1.59891 0
M  V30 2332 O 228.202 -4.92614 3.45854 0
M  V30 2333 H 232.028 -1.77121 2.46702 0
M  V30 2334 H 229.613 -0.817092 1.25076 0
M  V30 2335 H 231.495 -3.9768 1.39387 0
M  V30 2336 H 230.17 -3.20059 0.484118 0
M  V30 2337 H 229.077 -2.57366 2.71502 0
M  V30 2338 H 230.41 -3.4004 3.55856 0
M  V30 2339 N 232.062 -1.29571 -0.897171 0
M  V30 2340 C 232.972 -1.16808 -2.03453 0
M  V30 2341 C 233.988 -0.0907471 -1.73763 0
M  V30 2342 O 235.164 -0.303312 -1.99103 0
M  V30 2343 C 232.229 -0.848264 -3.36163 0
M  V30 2344 C 231.29 -2.0097 -3.79354 0
M  V30 2345 C 230.523 -1.70505 -5.05731 0
M  V30 2346 O 230.746 -0.62718 -5.66941 0
M  V30 2347 O 229.68 -2.5538 -5.45036 0
M  V30 2348 H 233.506 -2.12325 -2.17144 0
M  V30 2349 H 231.091 -1.09047 -1.02123 0
M  V30 2350 H 232.973 -0.684581 -4.15802 0
M  V30 2351 H 231.648 0.0771071 -3.23608 0
M  V30 2352 H 230.555 -2.22863 -3.00471 0
M  V30 2353 H 231.888 -2.91636 -3.96496 0
M  V30 2354 N 233.54 1.10788 -1.12088 0
M  V30 2355 C 234.45 2.20599 -0.798338 0
M  V30 2356 C 235.466 1.72712 0.21135 0
M  V30 2357 O 236.642 2.01348 0.0458477 0
M  V30 2358 C 233.707 3.45771 -0.253674 0
M  V30 2359 C 232.768 4.08411 -1.32283 0
M  V30 2360 C 232.001 5.27608 -0.80406 0
M  V30 2361 O 232.224 5.69241 0.363478 0
M  V30 2362 O 231.158 5.8101 -1.57198 0
M  V30 2363 H 234.984 2.50614 -1.7154 0
M  V30 2364 H 232.569 1.19454 -0.897275 0
M  V30 2365 H 234.451 4.21376 0.0453691 0
M  V30 2366 H 233.126 3.1739 0.636005 0
M  V30 2367 H 232.033 3.34507 -1.67499 0
M  V30 2368 H 233.366 4.40986 -2.18614 0
M  V30 2369 N 235.018 0.912232 1.28515 0
M  V30 2370 C 236.246 0.560416 1.99166 0
M  V30 2371 C 236.661 -0.857927 1.68182 0
M  V30 2372 O 236.018 -1.56805 0.933733 0
M  V30 2373 C 236.069 0.758142 3.53461 0
M  V30 2374 O 235.79 2.12067 3.83352 0
M  V30 2375 C 237.291 0.412954 4.41372 0
M  V30 2376 H 234.511 0.213805 0.636026 0
M  V30 2377 H 237.055 1.22502 1.63749 0
M  V30 2378 H 235.21 0.140556 3.87145 0
M  V30 2379 H 235.624 2.15923 4.77993 0
M  V30 2380 H 237.098 0.60208 5.48707 0
M  V30 2381 H 237.575 -0.65073 4.34353 0
M  V30 2382 H 238.181 1.00802 4.13182 0
M  V30 2383 N 236.496 -1.42363 0.676048 0
M  V30 2384 C 237.721 -2.06377 0.205705 0
M  V30 2385 C 238.146 -1.50463 -1.12883 0
M  V30 2386 O 237.504 -0.623619 -1.70237 0
M  V30 2387 C 237.552 -3.60277 0.152655 0
M  V30 2388 O 236.656 -4.02935 -0.87845 0
M  V30 2389 H 235.997 -0.655588 0.105359 0
M  V30 2390 H 238.527 -1.82475 0.925412 0
M  V30 2391 H 238.537 -4.07993 -0.0230675 0
M  V30 2392 H 237.212 -4.00346 1.12675 0
M  V30 2393 H 235.789 -3.66764 -0.673668 0
M  V30 2394 N 237.974 -0.419461 -1.51915 0
M  V30 2395 C 238.937 0.389116 -2.25873 0
M  V30 2396 C 239.937 0.964924 -1.28631 0
M  V30 2397 O 241.127 0.842179 -1.52489 0
M  V30 2398 C 238.259 1.54874 -3.03689 0
M  V30 2399 H 239.452 -0.258799 -2.98781 0
M  V30 2400 H 237.005 -0.172209 -1.55348 0
M  V30 2401 H 237.74 2.23323 -2.35154 0
M  V30 2402 H 237.525 1.14223 -3.75094 0
M  V30 2403 H 239.015 2.12046 -3.59759 0
M  V30 2404 N 239.452 1.56882 -0.150215 0
M  V30 2405 C 240.863 1.82995 0.370076 0
M  V30 2406 C 241.214 1.06907 1.64515 0
M  V30 2407 O 240.339 0.315369 2.1409 0
M  V30 2408 C 240.934 3.31942 0.678208 0
M  V30 2409 C 239.493 3.58625 1.14301 0
M  V30 2410 C 238.64 2.76792 0.167778 0
M  V30 2411 H 241.591 1.54209 -0.374858 0
M  V30 2412 H 241.612 3.48272 1.53254 0
M  V30 2413 H 241.124 3.87294 -0.249991 0
M  V30 2414 H 239.225 3.08664 2.08704 0
M  V30 2415 H 239.338 4.67073 1.06676 0
M  V30 2416 H 237.702 2.45972 0.661037 0
M  V30 2417 H 238.485 3.34916 -0.754069 0
M  V30 2418 N 240.93 -0.123565 1.57115 0
M  V30 2419 C 241.893 -1.13583 1.99076 0
M  V30 2420 C 242.893 -1.34564 0.880296 0
M  V30 2421 O 244.083 -1.31158 1.14644 0
M  V30 2422 C 241.215 -2.49128 2.32698 0
M  V30 2423 H 242.408 -0.775287 2.89706 0
M  V30 2424 H 239.961 -0.36771 1.51913 0
M  V30 2425 H 240.696 -2.90111 1.44934 0
M  V30 2426 H 240.481 -2.35255 3.13684 0
M  V30 2427 H 241.971 -3.2199 2.65918 0
M  V30 2428 N 242.408 -1.52605 -0.393616 0
M  V30 2429 C 243.657 -1.66649 -1.13627 0
M  V30 2430 C 243.97 -0.410364 -1.91247 0
M  V30 2431 O 245.176 -0.430854 -2.68059 0
M  V30 2432 C 243.632 -2.9449 -2.06891 0
M  V30 2433 C 243.24 -4.27266 -1.34714 0
M  V30 2434 C 244.984 -3.17899 -2.81319 0
M  V30 2435 C 242.891 -5.46217 -2.26717 0
M  V30 2436 H 241.821 -0.62084 -0.427871 0
M  V30 2437 H 244.472 -1.791 -0.399428 0
M  V30 2438 H 242.854 -2.75774 -2.84191 0
M  V30 2439 H 244.028 -4.56518 -0.626714 0
M  V30 2440 H 242.343 -4.10081 -0.722643 0
M  V30 2441 H 244.94 -4.03949 -3.50328 0
M  V30 2442 H 245.283 -2.32777 -3.45139 0
M  V30 2443 H 245.816 -3.37159 -2.11113 0
M  V30 2444 H 242.555 -6.33733 -1.67521 0
M  V30 2445 H 242.075 -5.21283 -2.96689 0
M  V30 2446 H 243.754 -5.7991 -2.86903 0
M  V30 2447 N 243.887 0.651787 -1.4349 0
M  V30 2448 C 245.115 1.43937 -1.48626 0
M  V30 2449 C 245.53 1.8851 -0.104587 0
M  V30 2450 O 244.887 1.5958 0.885464 0
M  V30 2451 C 244.938 2.6734 -2.43334 0
M  V30 2452 O 244.659 2.24631 -3.76128 0
M  V30 2453 C 246.16 3.60683 -2.57726 0
M  V30 2454 H 243.38 0.44213 -0.504739 0
M  V30 2455 H 245.924 0.798944 -1.88248 0
M  V30 2456 H 244.079 3.2752 -2.06904 0
M  V30 2457 H 244.493 3.04485 -4.2707 0
M  V30 2458 H 245.967 4.43933 -3.28067 0
M  V30 2459 H 246.444 4.08126 -1.62265 0
M  V30 2460 H 247.05 3.06384 -2.94973 0
M  V30 2461 N 245.365 1.30045 0.890287 0
M  V30 2462 C 246.593 1.21472 1.67487 0
M  V30 2463 C 247.008 -0.223241 1.87476 0
M  V30 2464 O 246.365 -1.14828 1.41847 0
M  V30 2465 C 246.416 1.93394 3.05419 0
M  V30 2466 O 246.137 3.31576 2.86337 0
M  V30 2467 C 247.638 1.91414 3.99844 0
M  V30 2468 H 244.858 0.420604 0.522813 0
M  V30 2469 H 247.402 1.7158 1.11268 0
M  V30 2470 H 245.557 1.47099 3.58386 0
M  V30 2471 H 245.971 3.67929 3.73802 0
M  V30 2472 H 247.445 2.46285 4.94012 0
M  V30 2473 H 247.922 0.891833 4.3005 0
M  V30 2474 H 248.528 2.37496 3.52811 0
M  V30 2475 N 246.843 -1.10192 1.12674 0
M  V30 2476 C 248.089 -1.82475 0.884915 0
M  V30 2477 C 248.422 -1.85093 -0.58773 0
M  V30 2478 O 247.697 -1.3134 -1.43457 0
M  V30 2479 C 247.98 -3.29018 1.46353 0
M  V30 2480 C 247.833 -3.34718 3.00473 0
M  V30 2481 C 249.152 -4.25473 1.12519 0
M  V30 2482 H 246.271 -0.662492 0.322915 0
M  V30 2483 H 248.913 -1.2913 1.39375 0
M  V30 2484 H 247.063 -3.74576 1.03077 0
M  V30 2485 H 248.735 -2.97622 3.52447 0
M  V30 2486 H 246.978 -2.74541 3.35872 0
M  V30 2487 H 247.649 -4.37918 3.36053 0
M  V30 2488 H 250.125 -3.88161 1.499 0
M  V30 2489 H 249.001 -5.26365 1.55663 0
M  V30 2490 H 249.262 -4.42084 0.0377407 0
M  V30 2491 N 248.321 -0.919034 -1.28029 0
M  V30 2492 C 249.549 -0.570971 -1.98866 0
M  V30 2493 C 249.964 0.848996 -1.68634 0
M  V30 2494 O 249.321 1.56307 -0.942036 0
M  V30 2495 C 249.372 -0.776876 -3.53054 0
M  V30 2496 O 249.093 -2.14097 -3.82222 0
M  V30 2497 C 250.594 -0.436356 -4.41147 0
M  V30 2498 H 247.814 -0.217175 -0.634883 0
M  V30 2499 H 250.358 -1.23368 -1.63097 0
M  V30 2500 H 248.513 -0.161085 -3.87065 0
M  V30 2501 H 248.927 -2.18455 -4.76841 0
M  V30 2502 H 250.401 -0.63117 -5.4838 0
M  V30 2503 H 250.878 0.627686 -4.34692 0
M  V30 2504 H 251.484 -1.02991 -4.12641 0
M  V30 2505 N 249.799 1.42003 -0.683588 0
M  V30 2506 C 251.045 2.01712 -0.209825 0
M  V30 2507 C 251.378 1.53968 1.18353 0
M  V30 2508 O 250.653 0.745661 1.79639 0
M  V30 2509 C 250.936 3.59202 -0.254197 0
M  V30 2510 C 250.789 4.17102 -1.68363 0
M  V30 2511 C 252.108 4.38344 0.392709 0
M  V30 2512 H 249.227 0.732891 -0.0777189 0
M  V30 2513 H 251.869 1.68909 -0.87004 0
M  V30 2514 H 250.019 3.87278 0.307954 0
M  V30 2515 H 251.691 3.99946 -2.29871 0
M  V30 2516 H 249.934 3.72597 -2.22157 0
M  V30 2517 H 250.605 5.26249 -1.6663 0
M  V30 2518 H 253.081 4.16011 -0.0859162 0
M  V30 2519 H 251.957 5.47901 0.331063 0
M  V30 2520 H 252.218 4.16887 1.47164 0
M  V30 2521 N 251.277 0.427512 1.51691 0
M  V30 2522 C 252.688 -0.0378867 1.86662 0
M  V30 2523 C 253.039 -1.42819 1.34525 0
M  V30 2524 O 252.164 -2.05037 0.692014 0
M  V30 2525 C 252.759 -0.0755266 3.38716 0
M  V30 2526 C 251.318 -0.485309 3.73258 0
M  V30 2527 C 250.465 0.328399 2.75349 0
M  V30 2528 H 253.416 0.64379 1.45055 0
M  V30 2529 H 253.437 -0.887056 3.70016 0
M  V30 2530 H 252.949 0.936487 3.76632 0
M  V30 2531 H 251.05 -1.50329 3.40928 0
M  V30 2532 H 251.163 -0.21693 4.78609 0
M  V30 2533 H 249.527 -0.211905 2.53817 0
M  V30 2534 H 250.31 1.3391 3.16106 0
M  V30 2535 N 252.755 -1.56801 0.158532 0
M  V30 2536 C 253.983 -2.00859 -0.496303 0
M  V30 2537 C 254.398 -1.03871 -1.57659 0
M  V30 2538 O 253.755 -0.0375165 -1.82461 0
M  V30 2539 C 253.806 -3.4479 -1.08638 0
M  V30 2540 O 253.527 -4.38072 -0.0492322 0
M  V30 2541 C 255.028 -4.04185 -1.8207 0
M  V30 2542 H 252.248 -0.65864 -0.128199 0
M  V30 2543 H 254.792 -2.02885 0.256506 0
M  V30 2544 H 252.947 -3.43579 -1.78975 0
M  V30 2545 H 253.361 -5.2227 -0.483102 0
M  V30 2546 H 254.835 -5.06857 -2.18633 0
M  V30 2547 H 255.312 -3.45549 -2.71095 0
M  V30 2548 H 255.918 -4.0906 -1.16405 0
M  V30 2549 N 254.233 0.115231 -1.57178 0
M  V30 2550 C 255.644 0.67197 -1.74188 0
M  V30 2551 C 255.995 1.80125 -0.777777 0
M  V30 2552 O 255.12 2.16346 0.0484376 0
M  V30 2553 C 255.715 1.22573 -3.1585 0
M  V30 2554 C 254.274 1.72872 -3.34353 0
M  V30 2555 C 253.421 0.629972 -2.70049 0
M  V30 2556 H 256.372 -0.110712 -1.58313 0
M  V30 2557 H 256.393 2.09535 -3.17609 0
M  V30 2558 H 255.905 0.403598 -3.85996 0
M  V30 2559 H 254.006 2.5755 -2.69256 0
M  V30 2560 H 254.119 1.83557 -4.42542 0
M  V30 2561 H 252.483 1.0645 -2.31388 0
M  V30 2562 H 253.266 -0.181241 -3.42821 0
M  V30 2563 N 255.711 1.52812 0.385517 0
M  V30 2564 C 256.96 1.67249 1.12741 0
M  V30 2565 C 257.273 0.4205 1.91027 0
M  V30 2566 O 258.479 0.445064 2.67827 0
M  V30 2567 C 256.935 2.95583 2.05326 0
M  V30 2568 C 256.543 4.27974 1.32447 0
M  V30 2569 C 258.287 3.19386 2.7963 0
M  V30 2570 C 256.194 5.47412 2.23818 0
M  V30 2571 H 255.124 0.6231 0.424573 0
M  V30 2572 H 257.775 1.79309 0.389924 0
M  V30 2573 H 256.157 2.77277 2.82725 0
M  V30 2574 H 257.331 4.56844 0.602495 0
M  V30 2575 H 255.646 4.10459 0.700885 0
M  V30 2576 H 258.243 4.05801 3.48181 0
M  V30 2577 H 258.586 2.34604 3.43899 0
M  V30 2578 H 259.119 3.38274 2.09322 0
M  V30 2579 H 255.858 6.34612 1.64157 0
M  V30 2580 H 255.378 5.22849 2.93921 0
M  V30 2581 H 257.057 5.81423 2.83824 0
M  V30 2582 N 257.189 -0.644168 1.43834 0
M  V30 2583 C 258.419 -1.42939 1.49171 0
M  V30 2584 C 258.827 -1.88874 0.111048 0
M  V30 2585 O 258.17 -1.60656 -0.8908 0
M  V30 2586 C 258.232 -2.69151 2.38324 0
M  V30 2587 C 257.896 -2.45097 3.85715 0
M  V30 2588 C 258.893 -2.07747 4.76589 0
M  V30 2589 C 256.578 -2.59141 4.30292 0
M  V30 2590 C 258.572 -1.8475 6.10038 0
M  V30 2591 C 256.259 -2.35759 5.63792 0
M  V30 2592 C 257.257 -1.9862 6.53482 0
M  V30 2593 O 256.945 -1.75489 7.84512 0
M  V30 2594 H 256.677 -0.445271 0.508635 0
M  V30 2595 H 259.231 -0.79621 1.8934 0
M  V30 2596 H 257.461 -3.3506 1.93058 0
M  V30 2597 H 259.15 -3.31123 2.3476 0
M  V30 2598 H 259.916 -1.96465 4.43426 0
M  V30 2599 H 255.795 -2.87022 3.60749 0
M  V30 2600 H 259.339 -1.55686 6.80006 0
M  V30 2601 H 255.236 -2.46646 5.9652 0
M  V30 2602 H 256.004 -1.89841 7.9618 0
M  V30 2603 N 258.668 -1.30515 -0.883378 0
M  V30 2604 C 259.6 -1.12846 -1.99496 0
M  V30 2605 C 260.613 -0.0712571 -1.62644 0
M  V30 2606 O 261.802 -0.317432 -1.75655 0
M  V30 2607 C 258.902 -0.699123 -3.3161 0
M  V30 2608 C 258.075 -1.83842 -3.96889 0
M  V30 2609 C 257.134 -1.39737 -5.07307 0
M  V30 2610 O 256.16 -2.10485 -5.28852 0
M  V30 2611 N 257.362 -0.277279 -5.79837 0
M  V30 2612 H 260.127 -2.08585 -2.15203 0
M  V30 2613 H 257.688 -1.22672 -1.05656 0
M  V30 2614 H 259.68 -0.387044 -4.02845 0
M  V30 2615 H 258.25 0.166276 -3.12157 0
M  V30 2616 H 257.47 -2.31853 -3.18807 0
M  V30 2617 H 258.758 -2.60187 -4.37241 0
M  V30 2618 H 258.156 0.3122 -5.64838 0
M  V30 2619 H 256.713 -0.0246623 -6.51795 0
M  V30 2620 N 260.146 1.09593 -1.13257 0
M  V30 2621 C 261.374 1.855 -0.916378 0
M  V30 2622 C 261.789 1.81069 0.534738 0
M  V30 2623 O 261.146 1.20562 1.37007 0
M  V30 2624 C 261.197 3.33546 -1.39388 0
M  V30 2625 O 260.918 3.37927 -2.78813 0
M  V30 2626 C 262.419 4.26299 -1.21588 0
M  V30 2627 H 259.639 0.585991 -0.326887 0
M  V30 2628 H 262.183 1.38488 -1.5047 0
M  V30 2629 H 260.338 3.77992 -0.848597 0
M  V30 2630 H 260.752 4.30254 -2.9997 0
M  V30 2631 H 262.226 5.28341 -1.59876 0
M  V30 2632 H 262.703 4.38918 -0.157376 0
M  V30 2633 H 263.309 3.87668 -1.7491 0
M  V30 2634 N 261.624 0.925811 1.2754 0
M  V30 2635 C 262.849 0.580924 1.99098 0
M  V30 2636 C 263.274 -0.833555 1.68622 0
M  V30 2637 O 262.632 -1.55903 0.925422 0
M  V30 2638 C 262.68 0.811186 3.51358 0
M  V30 2639 O 261.784 -0.124129 4.12213 0
M  V30 2640 H 261.125 0.223873 0.625122 0
M  V30 2641 H 263.655 1.24455 1.62395 0
M  V30 2642 H 263.665 0.72601 4.01489 0
M  V30 2643 H 262.34 1.84227 3.72872 0
M  V30 2644 H 260.917 0.0108006 3.72898 0
M  V30 2645 N 263.102 -1.41638 0.69111 0
M  V30 2646 C 264.327 -2.06148 0.227583 0
M  V30 2647 C 264.752 -1.51652 -1.11281 0
M  V30 2648 O 264.11 -0.64164 -1.69566 0
M  V30 2649 C 264.158 -3.60095 0.190858 0
M  V30 2650 O 263.262 -4.03845 -0.835664 0
M  V30 2651 H 262.603 -0.654434 0.112306 0
M  V30 2652 H 265.133 -1.81484 0.944714 0
M  V30 2653 H 265.143 -4.07995 0.020207 0
M  V30 2654 H 263.818 -3.99129 1.16915 0
M  V30 2655 H 262.395 -3.67458 -0.63473 0
M  V30 2656 N 264.58 -0.43555 -1.51462 0
M  V30 2657 C 265.828 0.131254 -2.01673 0
M  V30 2658 C 266.149 1.43368 -1.32177 0
M  V30 2659 O 265.419 1.90524 -0.455769 0
M  V30 2660 H 263.999 0.0514954 -0.745223 0
M  V30 2661 H 266.661 -0.577847 -1.86137 0
M  V30 2662 H 265.757 0.308446 -3.10572 0
M  V30 2663 N 266.058 1.56714 -0.166846 0
M  V30 2664 C 266.99 2.14914 0.796537 0
M  V30 2665 C 268.003 1.10357 1.19688 0
M  V30 2666 O 269.192 1.37561 1.13751 0
M  V30 2667 C 266.292 2.67326 2.08303 0
M  V30 2668 C 265.465 3.96493 1.84696 0
M  V30 2669 C 264.524 4.34014 2.97521 0
M  V30 2670 O 263.55 5.01973 2.6835 0
M  V30 2671 N 264.752 3.95208 4.25196 0
M  V30 2672 H 267.517 2.98205 0.299006 0
M  V30 2673 H 265.078 1.61892 0.0160839 0
M  V30 2674 H 267.07 2.89428 2.82867 0
M  V30 2675 H 265.64 1.88649 2.4926 0
M  V30 2676 H 264.86 3.82814 0.940602 0
M  V30 2677 H 266.148 4.8086 1.66285 0
M  V30 2678 H 265.546 3.40487 4.51758 0
M  V30 2679 H 264.103 4.2232 4.96477 0
M  V30 2680 N 267.536 -0.106894 1.57237 0
M  V30 2681 C 268.766 -0.825191 1.89405 0
M  V30 2682 C 269.174 -1.73374 0.757496 0
M  V30 2683 O 268.517 -1.81552 -0.280115 0
M  V30 2684 C 268.579 -1.70102 3.1671 0
M  V30 2685 C 268.243 -0.965523 4.46684 0
M  V30 2686 C 269.24 -0.300741 5.19029 0
M  V30 2687 C 266.925 -0.943105 4.93367 0
M  V30 2688 C 268.919 0.376622 6.36286 0
M  V30 2689 C 266.606 -0.261949 6.10538 0
M  V30 2690 C 267.604 0.396748 6.81847 0
M  V30 2691 O 267.292 1.06701 7.96787 0
M  V30 2692 H 267.024 -0.241852 0.631255 0
M  V30 2693 H 269.578 -0.0921491 2.05193 0
M  V30 2694 H 267.808 -2.47601 2.97036 0
M  V30 2695 H 269.497 -2.29483 3.34802 0
M  V30 2696 H 270.263 -0.309599 4.84011 0
M  V30 2697 H 266.142 -1.44524 4.3776 0
M  V30 2698 H 269.686 0.891334 6.91882 0
M  V30 2699 H 265.583 -0.250896 6.45012 0
M  V30 2700 H 266.351 0.972707 8.127 0
M  V30 2701 N 269.014 -1.53014 -0.377408 0
M  V30 2702 C 270.263 -1.67845 -1.11853 0
M  V30 2703 C 270.576 -0.430625 -1.90801 0
M  V30 2704 O 271.782 -0.459261 -2.67587 0
M  V30 2705 C 270.238 -2.96668 -2.03756 0
M  V30 2706 C 269.846 -4.28671 -1.30175 0
M  V30 2707 C 271.59 -3.20865 -2.77932 0
M  V30 2708 C 269.497 -5.48591 -2.20911 0
M  V30 2709 H 268.427 -0.625343 -0.421263 0
M  V30 2710 H 271.078 -1.79514 -0.380409 0
M  V30 2711 H 269.46 -2.78773 -2.8125 0
M  V30 2712 H 270.634 -4.57157 -0.578259 0
M  V30 2713 H 268.949 -4.10825 -0.679108 0
M  V30 2714 H 271.546 -4.07642 -3.46024 0
M  V30 2715 H 271.889 -2.36424 -3.4265 0
M  V30 2716 H 272.422 -3.39379 -2.07525 0
M  V30 2717 H 269.161 -6.35474 -1.6079 0
M  V30 2718 H 268.681 -5.244 -2.91144 0
M  V30 2719 H 270.36 -5.8292 -2.80736 0
M  V30 2720 N 270.492 0.636531 -1.44174 0
M  V30 2721 C 271.455 1.73063 -1.50273 0
M  V30 2722 C 272.455 1.56113 -0.385397 0
M  V30 2723 O 273.645 1.61707 -0.64781 0
M  V30 2724 C 270.777 3.12096 -1.37145 0
M  V30 2725 H 271.97 1.69031 -2.47727 0
M  V30 2726 H 269.523 0.849706 -1.31186 0
M  V30 2727 H 270.258 3.21728 -0.407636 0
M  V30 2728 H 270.043 3.25805 -2.18159 0
M  V30 2729 H 271.533 3.91846 -1.44382 0
M  V30 2730 N 271.97 1.30982 0.876444 0
M  V30 2731 C 273.219 1.19658 1.62373 0
M  V30 2732 C 273.532 -0.245636 1.94052 0
M  V30 2733 O 274.738 -0.48049 2.67214 0
M  V30 2734 C 273.194 2.09433 2.92687 0
M  V30 2735 C 272.802 3.58613 2.68516 0
M  V30 2736 C 274.546 2.06893 3.70669 0
M  V30 2737 C 272.453 4.40416 3.94699 0
M  V30 2738 H 271.383 0.444268 0.609214 0
M  V30 2739 H 274.034 1.55791 0.969605 0
M  V30 2740 H 272.416 1.66191 3.59439 0
M  V30 2741 H 273.59 4.10058 2.10212 0
M  V30 2742 H 271.905 3.63063 2.03898 0
M  V30 2743 H 274.502 2.65258 4.64265 0
M  V30 2744 H 274.845 1.05448 4.02724 0
M  V30 2745 H 275.378 2.48301 3.10792 0
M  V30 2746 H 272.117 5.42591 3.67798 0
M  V30 2747 H 271.637 3.93731 4.52477 0
M  V30 2748 H 273.316 4.52294 4.62644 0
M  V30 2749 N 273.449 -1.08991 1.13837 0
M  V30 2750 C 274.677 -1.85011 0.926202 0
M  V30 2751 C 275.092 -1.8135 -0.525127 0
M  V30 2752 O 274.449 -1.21287 -1.36366 0
M  V30 2753 C 274.5 -3.32802 1.41155 0
M  V30 2754 O 274.221 -3.36444 2.80601 0
M  V30 2755 C 275.722 -4.25649 1.23847 0
M  V30 2756 H 272.942 -0.584249 0.32999 0
M  V30 2757 H 275.486 -1.37688 1.51202 0
M  V30 2758 H 273.641 -3.77536 0.868631 0
M  V30 2759 H 274.055 -4.28657 3.02248 0
M  V30 2760 H 275.529 -5.27485 1.62675 0
M  V30 2761 H 276.006 -4.38828 0.18065 0
M  V30 2762 H 276.612 -3.86735 1.76964 0
M  V30 2763 N 274.927 -0.932562 -1.27047 0
M  V30 2764 C 275.859 -0.392734 -2.2581 0
M  V30 2765 C 276.872 0.479241 -1.55586 0
M  V30 2766 O 278.061 0.291078 -1.76111 0
M  V30 2767 C 275.161 0.455456 -3.35826 0
M  V30 2768 C 274.334 -0.398355 -4.35582 0
M  V30 2769 C 273.393 0.387985 -5.24768 0
M  V30 2770 O 272.419 -0.206003 -5.68827 0
M  V30 2771 N 273.621 1.68664 -5.55457 0
M  V30 2772 H 276.386 -1.24173 -2.72766 0
M  V30 2773 H 273.947 -0.800511 -1.40725 0
M  V30 2774 H 275.939 0.988692 -3.92437 0
M  V30 2775 H 274.509 1.20522 -2.88432 0
M  V30 2776 H 273.729 -1.11286 -3.78165 0
M  V30 2777 H 275.017 -0.981889 -4.99236 0
M  V30 2778 H 274.415 2.19147 -5.21528 0
M  V30 2779 H 272.972 2.1663 -6.14748 0
M  V30 2780 N 276.405 1.4127 -0.698611 0
M  V30 2781 C 277.653 2.00782 -0.230409 0
M  V30 2782 C 277.974 1.5562 1.17505 0
M  V30 2783 O 277.244 0.78815 1.79346 0
M  V30 2784 H 275.824 0.742464 -0.0821944 0
M  V30 2785 H 278.486 1.72852 -0.90045 0
M  V30 2786 H 277.582 3.11095 -0.25021 0
M  V30 2787 N 277.883 0.443576 1.51229 0
M  V30 2788 C 279.131 -0.120557 2.0174 0
M  V30 2789 C 279.452 -1.42665 1.32935 0
M  V30 2790 O 278.722 -1.9028 0.465866 0
M  V30 2791 H 277.302 -0.0475426 0.745486 0
M  V30 2792 H 279.964 0.587711 1.85828 0
M  V30 2793 H 279.06 -0.291972 3.10731 0
M  V30 2794 N 279.361 -1.56624 0.175154 0
M  V30 2795 C 280.324 -2.16934 -0.739738 0
M  V30 2796 C 281.324 -1.11842 -1.15533 0
M  V30 2797 O 282.514 -1.37335 -1.07167 0
M  V30 2798 C 279.646 -2.75531 -2.00738 0
M  V30 2799 H 280.839 -2.99131 -0.214639 0
M  V30 2800 H 278.392 -1.56123 -0.0744197 0
M  V30 2801 H 279.127 -1.97078 -2.57548 0
M  V30 2802 H 278.912 -3.52444 -1.71831 0
M  V30 2803 H 280.402 -3.21904 -2.66021 0
M  V30 2804 N 280.839 0.0985539 -1.57292 0
M  V30 2805 C 282.088 0.801358 -1.85098 0
M  V30 2806 C 282.401 1.80066 -0.763902 0
M  V30 2807 O 283.607 2.55112 -0.928981 0
M  V30 2808 C 282.063 1.47599 -3.28242 0
M  V30 2809 C 281.671 0.516624 -4.45011 0
M  V30 2810 C 283.415 2.16272 -3.65276 0
M  V30 2811 C 281.322 1.19564 -5.79188 0
M  V30 2812 H 280.252 0.303022 -0.69043 0
M  V30 2813 H 282.903 0.0542623 -1.8342 0
M  V30 2814 H 281.285 2.27042 -3.2445 0
M  V30 2815 H 282.459 -0.246065 -4.60143 0
M  V30 2816 H 280.774 -0.064227 -4.1635 0
M  V30 2817 H 283.371 2.67802 -4.62803 0
M  V30 2818 H 283.714 2.95009 -2.93727 0
M  V30 2819 H 284.247 1.43693 -3.70941 0
M  V30 2820 H 280.986 0.449157 -6.53959 0
M  V30 2821 H 280.506 1.92984 -5.67906 0
M  V30 2822 H 282.185 1.7231 -6.23633 0
M  V30 2823 N 282.317 1.53212 0.369288 0
M  V30 2824 C 283.249 1.75668 1.47219 0
M  V30 2825 C 284.262 0.637387 1.49804 0
M  V30 2826 O 285.451 0.913561 1.5335 0
M  V30 2827 C 282.551 1.81818 2.85999 0
M  V30 2828 C 281.724 3.11409 3.07153 0
M  V30 2829 C 280.783 3.08849 4.26026 0
M  V30 2830 O 279.809 3.82659 4.2138 0
M  V30 2831 N 281.011 2.29409 5.33246 0
M  V30 2832 H 283.776 2.70832 1.28337 0
M  V30 2833 H 281.337 1.51944 0.55898 0
M  V30 2834 H 283.329 1.77588 3.63655 0
M  V30 2835 H 281.899 0.939544 2.98146 0
M  V30 2836 H 281.119 3.28971 2.1719 0
M  V30 2837 H 282.407 3.97059 3.18154 0
M  V30 2838 H 281.805 1.68946 5.39883 0
M  V30 2839 H 280.362 2.31001 6.09493 0
M  V30 2840 N 283.795 -0.628877 1.44509 0
M  V30 2841 C 284.725 -1.75187 1.54376 0
M  V30 2842 C 285.706 -1.65411 0.396618 0
M  V30 2843 O 286.891 -1.84137 0.617031 0
M  V30 2844 C 284.021 -3.13725 1.48976 0
M  V30 2845 C 282.975 -3.38291 2.62189 0
M  V30 2846 C 282.301 -4.76883 2.41841 0
M  V30 2847 C 283.601 -3.30632 4.04326 0
M  V30 2848 H 285.295 -1.67187 2.48373 0
M  V30 2849 H 282.841 -0.802909 1.19538 0
M  V30 2850 H 284.794 -3.92064 1.54478 0
M  V30 2851 H 283.518 -3.22515 0.514961 0
M  V30 2852 H 282.177 -2.62334 2.56079 0
M  V30 2853 H 281.825 -4.82378 1.42548 0
M  V30 2854 H 281.525 -4.94278 3.17747 0
M  V30 2855 H 283.049 -5.57449 2.49165 0
M  V30 2856 H 284.463 -3.98873 4.11793 0
M  V30 2857 H 282.86 -3.59561 4.80454 0
M  V30 2858 H 283.93 -2.28404 4.27738 0
M  V30 2859 N 285.273 -1.31445 -0.869486 0
M  V30 2860 C 286.236 -1.19094 -1.9583 0
M  V30 2861 C 287.236 -0.117906 -1.60367 0
M  V30 2862 O 288.426 -0.367208 -1.70286 0
M  V30 2863 C 285.558 -0.828165 -3.30688 0
M  V30 2864 H 286.751 -2.15842 -2.08212 0
M  V30 2865 H 284.304 -1.15063 -1.05784 0
M  V30 2866 H 285.039 0.138142 -3.24006 0
M  V30 2867 H 284.824 -1.6038 -3.578 0
M  V30 2868 H 286.314 -0.765658 -4.10521 0
M  V30 2869 N 286.751 1.08385 -1.14413 0
M  V30 2870 C 287.699 2.17406 -0.826888 0
M  V30 2871 C 288.693 1.6827 0.195312 0
M  V30 2872 O 289.899 1.79927 0.0513892 0
M  V30 2873 H 286.274 0.70934 -0.249681 0
M  V30 2874 H 288.245 2.41388 -1.75426 0
M  V30 2875 C 286.994 3.46215 -0.320979 0
M  V30 2876 H 286.317 3.84401 -1.0989 0
M  V30 2877 H 287.757 4.23777 -0.137549 0
M  V30 2878 C 286.216 3.23067 0.955472 0
M  V30 2879 O 286.746 3.4668 2.02918 0
M  V30 2880 N 284.952 2.7661 0.890798 0
M  V30 2881 H 284.499 2.57594 0.0168815 0
M  V30 2882 H 284.457 2.61501 1.74542 0
M  V30 2883 N 288.23 0.939286 1.26551 0
M  V30 2884 C 289.178 0.43815 2.28436 0
M  V30 2885 C 290.172 -0.483587 1.62351 0
M  V30 2886 O 291.378 -0.362009 1.76322 0
M  V30 2887 H 287.753 0.123149 0.741848 0
M  V30 2888 H 289.724 1.31002 2.68106 0
M  V30 2889 C 288.473 -0.283052 3.46546 0
M  V30 2890 H 287.796 0.417043 3.97619 0
M  V30 2891 H 289.236 -0.597948 4.19763 0
M  V30 2892 C 287.695 -1.50018 3.01656 0
M  V30 2893 O 288.225 -2.59855 3.0633 0
M  V30 2894 N 286.431 -1.35608 2.57019 0
M  V30 2895 H 285.978 -0.46244 2.53415 0
M  V30 2896 H 285.936 -2.17165 2.27347 0
M  V30 2897 N 289.708 -1.40897 0.706093 0
M  V30 2898 C 290.956 -2.00657 0.241054 0
M  V30 2899 C 291.277 -1.56241 -1.16678 0
M  V30 2900 O 290.547 -0.79765 -1.78926 0
M  V30 2901 H 289.127 -0.742018 0.0861308 0
M  V30 2902 H 291.789 -1.72372 0.909604 0
M  V30 2903 H 290.885 -3.10958 0.266705 0
M  V30 2904 N 291.186 -0.45159 -1.50991 0
M  V30 2905 C 292.414 0.108334 -2.06616 0
M  V30 2906 C 292.829 1.35224 -1.31757 0
M  V30 2907 O 292.186 1.78475 -0.381174 0
M  V30 2908 C 292.237 0.41619 -3.59096 0
M  V30 2909 O 291.958 -0.778361 -4.3113 0
M  V30 2910 C 293.459 1.02523 -4.31282 0
M  V30 2911 H 290.679 0.00159995 -0.670998 0
M  V30 2912 H 293.223 -0.634771 -1.94399 0
M  V30 2913 H 291.378 1.10921 -3.71181 0
M  V30 2914 H 291.792 -0.511181 -5.22003 0
M  V30 2915 H 293.266 1.19053 -5.39009 0
M  V30 2916 H 293.743 2.01013 -3.905 0
M  V30 2917 H 294.349 0.371173 -4.23677 0
M  V30 2918 N 292.664 1.56529 -0.183458 0
M  V30 2919 C 293.941 1.88959 0.50536 0
M  V30 2920 C 294.321 1.09523 1.80466 0
M  V30 2921 O 293.669 0.19278 2.27685 0
M  V30 2922 C 293.879 3.41162 0.73547 0
M  V30 2923 C 295.227 4.11155 1.06005 0
M  V30 2924 O 296.251 3.46548 0.823594 0
M  V30 2925 O 295.11 5.25318 1.50675 0
M  V30 2926 H 292.204 0.78441 0.261973 0
M  V30 2927 H 294.75 1.68231 -0.222802 0
M  V30 2928 H 293.522 3.90874 -0.182561 0
M  V30 2929 H 293.145 3.67543 1.51651 0
M  V30 2930 N 294.142 -0.090211 1.57342 0
M  V30 2931 C 295.39 -0.791241 1.85967 0
M  V30 2932 C 295.711 -1.7903 0.772859 0
M  V30 2933 O 294.981 -1.94872 -0.200398 0
M  V30 2934 H 293.561 -0.295205 0.686195 0
M  V30 2935 H 296.223 -0.0706782 1.94772 0
M  V30 2936 H 295.319 -1.31882 2.82867 0
M  V30 2937 N 295.62 -1.53406 -0.361157 0
M  V30 2938 C 296.866 -1.70054 -1.10496 0
M  V30 2939 C 297.199 -0.453278 -1.88836 0
M  V30 2940 O 296.474 0.5495 -1.86576 0
M  V30 2941 C 296.757 -2.95317 -2.06058 0
M  V30 2942 C 296.61 -4.3021 -1.31298 0
M  V30 2943 C 297.929 -3.16193 -3.06121 0
M  V30 2944 H 295.048 -0.618799 -0.400321 0
M  V30 2945 H 297.69 -1.86052 -0.385318 0
M  V30 2946 H 295.84 -2.81809 -2.67425 0
M  V30 2947 H 297.512 -4.55538 -0.726807 0
M  V30 2948 H 295.755 -4.29421 -0.614853 0
M  V30 2949 H 296.426 -5.14 -2.01265 0
M  V30 2950 H 298.902 -3.28916 -2.5486 0
M  V30 2951 H 297.778 -4.05266 -3.70204 0
M  V30 2952 H 298.039 -2.31676 -3.76535 0
M  V30 2953 N 297.098 0.621204 -1.44841 0
M  V30 2954 C 298.03 1.74615 -1.48466 0
M  V30 2955 C 299.043 1.58377 -0.37691 0
M  V30 2956 O 300.232 1.66508 -0.643215 0
M  V30 2957 C 297.332 3.12459 -1.31236 0
M  V30 2958 C 296.505 3.55064 -2.55438 0
M  V30 2959 C 295.564 4.71821 -2.32963 0
M  V30 2960 O 294.59 4.79628 -3.06505 0
M  V30 2961 N 295.792 5.64186 -1.36654 0
M  V30 2962 H 298.557 1.71973 -2.45449 0
M  V30 2963 H 296.118 0.806077 -1.40407 0
M  V30 2964 H 298.11 3.88302 -1.14032 0
M  V30 2965 H 296.68 3.09686 -0.4258 0
M  V30 2966 H 295.9 2.69324 -2.87851 0
M  V30 2967 H 297.188 3.80284 -3.38026 0
M  V30 2968 H 296.586 5.6058 -0.759344 0
M  V30 2969 H 295.143 6.39618 -1.25425 0
M  V30 2970 N 298.576 1.31904 0.862503 0
M  V30 2971 C 299.824 1.21776 1.61292 0
M  V30 2972 C 300.145 -0.222413 1.93727 0
M  V30 2973 O 299.415 -1.1451 1.58947 0
M  V30 2974 H 297.995 0.447717 0.597962 0
M  V30 2975 H 300.657 1.65326 1.03215 0
M  V30 2976 H 299.753 1.7948 2.5533 0
M  V30 2977 N 300.054 -1.07777 1.14986 0
M  V30 2978 C 300.984 -2.16865 0.865557 0
M  V30 2979 C 301.965 -1.69123 -0.182083 0
M  V30 2980 O 303.15 -1.94164 -0.0373815 0
M  V30 2981 C 300.28 -3.45539 0.349313 0
M  V30 2982 C 299.234 -4.06708 1.33313 0
M  V30 2983 C 298.56 -5.30411 0.675918 0
M  V30 2984 C 299.86 -4.47241 2.69764 0
M  V30 2985 H 301.554 -2.40905 1.77778 0
M  V30 2986 H 299.1 -1.15781 0.856203 0
M  V30 2987 H 301.053 -4.21174 0.137983 0
M  V30 2988 H 299.777 -3.21072 -0.598362 0
M  V30 2989 H 298.436 -3.33112 1.53075 0
M  V30 2990 H 298.084 -5.02232 -0.277767 0
M  V30 2991 H 297.784 -5.72293 1.33244 0
M  V30 2992 H 299.308 -6.08755 0.474262 0
M  V30 2993 H 300.722 -5.14025 2.53873 0
M  V30 2994 H 299.119 -5.00062 3.3175 0
M  V30 2995 H 300.189 -3.58818 3.26156 0
M  V30 2996 N 301.532 -0.945985 -1.26051 0
M  V30 2997 C 302.464 -0.416662 -2.25381 0
M  V30 2998 C 303.477 0.462712 -1.56086 0
M  V30 2999 O 304.666 0.272383 -1.7641 0
M  V30 3000 C 301.766 0.419812 -3.3629 0
M  V30 3001 C 300.939 -0.444531 -4.35135 0
M  V30 3002 C 299.998 0.332305 -5.2515 0
M  V30 3003 O 299.024 -0.266324 -5.68577 0
M  V30 3004 N 300.226 1.62763 -5.57215 0
M  V30 3005 H 302.991 -1.27059 -2.71433 0
M  V30 3006 H 300.552 -0.815392 -1.39868 0
M  V30 3007 H 302.544 0.947013 -3.93464 0
M  V30 3008 H 301.114 1.17456 -2.89694 0
M  V30 3009 H 300.334 -1.15291 -3.76964 0
M  V30 3010 H 301.622 -1.03478 -4.98166 0
M  V30 3011 H 301.02 2.13603 -5.23823 0
M  V30 3012 H 299.577 2.10097 -6.17011 0
M  V30 3013 N 303.011 1.40521 -0.713556 0
M  V30 3014 C 304.239 2.05237 -0.261775 0
M  V30 3015 C 304.654 1.53755 1.09567 0
M  V30 3016 O 304.011 0.693268 1.6882 0
M  V30 3017 C 304.062 3.60763 -0.230706 0
M  V30 3018 O 303.783 4.10345 -1.53455 0
M  V30 3019 C 305.284 4.42651 0.239874 0
M  V30 3020 H 302.504 0.660533 -0.118057 0
M  V30 3021 H 305.048 1.79967 -0.971192 0
M  V30 3022 H 303.203 3.8501 0.429661 0
M  V30 3023 H 303.617 5.04526 -1.43366 0
M  V30 3024 H 305.091 5.51599 0.210468 0
M  V30 3025 H 305.568 4.20082 1.28171 0
M  V30 3026 H 306.174 4.23507 -0.390142 0
M  V30 3027 N 304.489 0.459591 1.5075 0
M  V30 3028 C 305.419 -0.330644 2.31147 0
M  V30 3029 C 306.4 -1.00087 1.37538 0
M  V30 3030 O 307.585 -1.00025 1.66459 0
M  V30 3031 C 304.715 -1.41958 3.16962 0
M  V30 3032 C 303.669 -0.871608 4.19031 0
M  V30 3033 C 302.995 -2.05797 4.9351 0
M  V30 3034 C 304.295 0.109251 5.22186 0
M  V30 3035 H 305.989 0.340336 2.97459 0
M  V30 3036 H 303.535 0.165119 1.4305 0
M  V30 3037 H 305.488 -1.9798 3.71997 0
M  V30 3038 H 304.212 -2.11917 2.48513 0
M  V30 3039 H 302.871 -0.333442 3.6508 0
M  V30 3040 H 302.519 -2.74427 4.21544 0
M  V30 3041 H 302.219 -1.6976 5.62544 0
M  V30 3042 H 303.743 -2.62331 5.51375 0
M  V30 3043 H 305.157 -0.361405 5.7216 0
M  V30 3044 H 303.554 0.383316 5.98875 0
M  V30 3045 H 304.624 1.03887 4.73641 0
M  V30 3046 N 305.967 -1.56429 0.191757 0
M  V30 3047 C 307.195 -2.01867 -0.453586 0
M  V30 3048 C 307.61 -1.07191 -1.5542 0
M  V30 3049 O 306.967 -0.0762108 -1.82341 0
M  V30 3050 C 307.018 -3.47017 -1.013 0
M  V30 3051 O 306.739 -4.38078 0.0437005 0
M  V30 3052 C 308.24 -4.07956 -1.73456 0
M  V30 3053 H 305.46 -0.661211 -0.114199 0
M  V30 3054 H 308.004 -2.02295 0.299483 0
M  V30 3055 H 306.159 -3.47298 -1.71647 0
M  V30 3056 H 306.573 -5.23178 -0.372212 0
M  V30 3057 H 308.047 -5.1138 -2.07833 0
M  V30 3058 H 308.524 -3.51222 -2.63704 0
M  V30 3059 H 309.13 -4.11437 -1.07702 0
M  V30 3060 N 307.445 0.0818655 -1.57387 0
M  V30 3061 C 308.378 1.12986 -1.98266 0
M  V30 3062 C 309.356 1.38123 -0.857954 0
M  V30 3063 O 310.54 1.51663 -1.1194 0
M  V30 3064 C 307.667 2.47632 -2.31076 0
M  V30 3065 C 306.713 2.38693 -3.53452 0
M  V30 3066 S 307.546 1.79071 -5.04672 0
M  V30 3067 C 308.702 3.15316 -5.40673 0
M  V30 3068 H 308.935 0.781435 -2.86846 0
M  V30 3069 H 306.468 0.290034 -1.51651 0
M  V30 3070 H 308.426 3.25089 -2.50654 0
M  V30 3071 H 307.087 2.79638 -1.43043 0
M  V30 3072 H 306.28 3.37964 -3.73893 0
M  V30 3073 H 305.882 1.69369 -3.33452 0
M  V30 3074 H 308.174 4.11613 -5.38127 0
M  V30 3075 H 309.117 2.99664 -6.41566 0
M  V30 3076 H 309.525 3.15457 -4.68132 0
M  V30 3077 N 308.923 1.53595 0.353017 0
M  V30 3078 C 310.151 1.74311 1.1146 0
M  V30 3079 C 310.566 0.477854 1.82653 0
M  V30 3080 O 309.923 -0.549977 1.74016 0
M  V30 3081 C 309.974 2.91694 2.13534 0
M  V30 3082 O 309.695 4.13325 1.45238 0
M  V30 3083 C 311.196 3.24384 3.02142 0
M  V30 3084 H 308.416 0.582669 0.332773 0
M  V30 3085 H 310.96 2.00386 0.408107 0
M  V30 3086 H 309.115 2.67977 2.79763 0
M  V30 3087 H 309.529 4.79148 2.13349 0
M  V30 3088 H 311.003 4.09893 3.69718 0
M  V30 3089 H 311.48 2.40282 3.67643 0
M  V30 3090 H 312.086 3.50073 2.41514 0
M  V30 3091 N 310.401 -0.613514 1.45168 0
M  V30 3092 C 311.349 -1.74572 1.53712 0
M  V30 3093 C 312.343 -1.64426 0.407505 0
M  V30 3094 O 313.549 -1.70291 0.583176 0
M  V30 3095 H 309.924 -0.576641 0.48269 0
M  V30 3096 H 311.895 -1.64492 2.48968 0
M  V30 3097 C 310.644 -3.12943 1.51532 0
M  V30 3098 H 309.967 -3.21407 2.37776 0
M  V30 3099 H 311.407 -3.9201 1.61569 0
M  V30 3100 C 309.866 -3.36053 0.238798 0
M  V30 3101 O 310.396 -3.95837 -0.6838 0
M  V30 3102 N 308.602 -2.9028 0.136359 0
M  V30 3103 H 308.149 -2.41811 0.887999 0
M  V30 3104 H 308.107 -3.06116 -0.716944 0
M  V30 3105 N 311.879 -1.3236 -0.855495 0
M  V30 3106 C 312.842 -1.21164 -1.94556 0
M  V30 3107 C 313.842 -0.134908 -1.60233 0
M  V30 3108 O 315.032 -0.385249 -1.69887 0
M  V30 3109 C 312.164 -0.863192 -3.29791 0
M  V30 3110 H 313.357 -2.18038 -2.05911 0
M  V30 3111 H 310.91 -1.16179 -1.04557 0
M  V30 3112 H 311.645 0.103769 -3.24134 0
M  V30 3113 H 311.43 -1.64166 -3.56078 0
M  V30 3114 H 312.92 -0.809156 -4.09686 0
M  V30 3115 N 313.357 1.07166 -1.15556 0
M  V30 3116 C 314.32 2.12589 -0.856644 0
M  V30 3117 C 315.32 1.6015 0.14444 0
M  V30 3118 O 316.51 1.7399 -0.0854163 0
M  V30 3119 C 313.642 3.39753 -0.279405 0
M  V30 3120 H 314.835 2.40539 -1.79112 0
M  V30 3121 H 312.388 1.23086 -0.963298 0
M  V30 3122 H 313.123 3.17447 0.663174 0
M  V30 3123 H 312.908 3.79117 -1.00063 0
M  V30 3124 H 314.398 4.17507 -0.0879113 0
M  V30 3125 N 314.835 0.952656 1.25548 0
M  V30 3126 C 315.798 0.475794 2.24207 0
M  V30 3127 C 316.798 -0.419428 1.55234 0
M  V30 3128 O 317.988 -0.216994 1.72843 0
M  V30 3129 C 315.12 -0.312814 3.39462 0
M  V30 3130 H 316.313 1.34779 2.67908 0
M  V30 3131 H 313.866 0.735739 1.37901 0
M  V30 3132 H 314.601 -1.20257 3.01179 0
M  V30 3133 H 314.386 0.329404 3.90714 0
M  V30 3134 H 315.876 -0.635986 4.12729 0
M  V30 3135 N 316.313 -1.40141 0.720998 0
M  V30 3136 C 317.541 -2.05096 0.272656 0
M  V30 3137 C 317.956 -1.54334 -1.0875 0
M  V30 3138 O 317.313 -0.702211 -1.6845 0
M  V30 3139 C 317.364 -3.60636 0.249835 0
M  V30 3140 O 317.085 -4.09526 1.55629 0
M  V30 3141 C 318.586 -4.42772 -0.216396 0
M  V30 3142 H 315.806 -0.659897 0.121558 0
M  V30 3143 H 318.35 -1.79449 0.980723 0
M  V30 3144 H 316.505 -3.85232 -0.409237 0
M  V30 3145 H 316.919 -5.03758 1.4604 0
M  V30 3146 H 318.393 -5.51702 -0.181212 0
M  V30 3147 H 318.87 -4.20756 -1.25941 0
M  V30 3148 H 319.476 -4.23294 0.412596 0
M  V30 3149 N 317.792 -0.46758 -1.50504 0
M  V30 3150 C 318.724 0.364655 -2.26281 0
M  V30 3151 C 319.737 0.960151 -1.31472 0
M  V30 3152 O 320.926 0.849153 -1.57008 0
M  V30 3153 C 318.026 1.52509 -3.02645 0
M  V30 3154 C 317.199 1.04302 -4.24782 0
M  V30 3155 C 316.258 2.07709 -4.8347 0
M  V30 3156 O 315.284 1.65913 -5.44483 0
M  V30 3157 N 316.486 3.40485 -4.70159 0
M  V30 3158 H 319.251 -0.28495 -2.98342 0
M  V30 3159 H 316.812 -0.298163 -1.59131 0
M  V30 3160 H 318.804 2.21371 -3.38787 0
M  V30 3161 H 317.374 2.07945 -2.33404 0
M  V30 3162 H 316.594 0.180393 -3.93787 0
M  V30 3163 H 317.882 0.698798 -5.03978 0
M  V30 3164 H 317.28 3.77155 -4.21629 0
M  V30 3165 H 315.837 4.05156 -5.1058 0
M  V30 3166 N 319.27 1.56325 -0.20005 0
M  V30 3167 C 320.681 1.8408 0.31167 0
M  V30 3168 C 321.032 1.12087 1.61031 0
M  V30 3169 O 320.157 0.38332 2.12978 0
M  V30 3170 C 320.752 3.33932 0.57226 0
M  V30 3171 C 319.311 3.6208 1.02834 0
M  V30 3172 C 318.458 2.77186 0.079634 0
M  V30 3173 H 321.409 1.52939 -0.423729 0
M  V30 3174 H 321.43 3.52971 1.42096 0
M  V30 3175 H 320.942 3.86303 -0.37308 0
M  V30 3176 H 319.043 3.15147 1.98778 0
M  V30 3177 H 319.156 4.7023 0.917624 0
M  V30 3178 H 317.52 2.47951 0.582448 0
M  V30 3179 H 318.303 3.32347 -0.860238 0
M  V30 3180 N 320.748 -0.0735177 1.57428 0
M  V30 3181 C 321.996 -0.771472 1.86796 0
M  V30 3182 C 322.317 -1.78201 0.791804 0
M  V30 3183 O 321.587 -1.95074 -0.179718 0
M  V30 3184 H 320.167 -0.28791 0.689287 0
M  V30 3185 H 322.829 -0.0500161 1.94836 0
M  V30 3186 H 321.925 -1.28874 2.8425 0
M  V30 3187 N 322.226 -1.5378 -0.344866 0
M  V30 3188 C 323.454 -1.74899 -1.10534 0
M  V30 3189 C 323.869 -0.487534 -1.82397 0
M  V30 3190 O 323.226 0.540741 -1.74305 0
M  V30 3191 C 323.277 -2.92822 -2.11984 0
M  V30 3192 O 322.998 -4.14089 -1.43044 0
M  V30 3193 C 324.499 -3.25982 -3.00417 0
M  V30 3194 H 321.719 -0.584426 -0.329678 0
M  V30 3195 H 324.263 -2.006 -0.397474 0
M  V30 3196 H 322.418 -2.69457 -2.78338 0
M  V30 3197 H 322.832 -4.80272 -2.10805 0
M  V30 3198 H 324.306 -4.11848 -3.67539 0
M  V30 3199 H 324.783 -2.42228 -3.66363 0
M  V30 3200 H 325.389 -3.51349 -2.39654 0
M  V30 3201 N 323.704 0.605807 -1.45491 0
M  V30 3202 C 324.932 1.39136 -1.5313 0
M  V30 3203 C 325.347 1.88082 -0.164507 0
M  V30 3204 O 324.704 1.62316 0.834247 0
M  V30 3205 C 324.755 2.59463 -2.51716 0
M  V30 3206 O 324.476 2.12551 -3.83084 0
M  V30 3207 C 325.977 3.52301 -2.6907 0
M  V30 3208 H 323.197 0.425849 -0.51855 0
M  V30 3209 H 325.741 0.73865 -1.90694 0
M  V30 3210 H 323.896 3.20772 -2.17219 0
M  V30 3211 H 324.31 2.90744 -4.36541 0
M  V30 3212 H 325.784 4.33271 -3.42024 0
M  V30 3213 H 326.261 4.02757 -1.75167 0
M  V30 3214 H 326.867 2.96845 -3.04571 0
M  V30 3215 N 325.182 1.32811 0.848464 0
M  V30 3216 C 326.431 1.23075 1.59798 0
M  V30 3217 C 326.744 -0.204419 1.94529 0
M  V30 3218 O 327.95 -0.423701 2.68173 0
M  V30 3219 C 326.406 2.15594 2.88179 0
M  V30 3220 C 326.014 3.64228 2.60849 0
M  V30 3221 C 327.758 2.14709 3.66197 0
M  V30 3222 C 325.665 4.48689 3.85269 0
M  V30 3223 H 324.595 0.457091 0.599653 0
M  V30 3224 H 327.246 1.57813 0.936342 0
M  V30 3225 H 325.628 1.73778 3.55833 0
M  V30 3226 H 326.802 4.14424 2.01467 0
M  V30 3227 H 325.117 3.67306 1.96151 0
M  V30 3228 H 327.714 2.75046 4.58534 0
M  V30 3229 H 328.057 1.13966 4.00397 0
M  V30 3230 H 328.59 2.54837 3.05455 0
M  V30 3231 H 325.329 5.5027 3.56207 0
M  V30 3232 H 324.849 4.03241 4.44024 0
M  V30 3233 H 326.528 4.62006 4.52946 0
M  V30 3234 N 326.66 -1.06551 1.16123 0
M  V30 3235 C 327.59 -2.15935 0.88851 0
M  V30 3236 C 328.571 -1.69306 -0.164135 0
M  V30 3237 O 329.756 -1.94193 -0.0167857 0
M  V30 3238 C 326.886 -3.45149 0.385942 0
M  V30 3239 C 325.84 -4.05271 1.3762 0
M  V30 3240 C 325.166 -5.29664 0.732137 0
M  V30 3241 C 326.466 -4.44355 2.74493 0
M  V30 3242 H 328.16 -2.39006 1.80323 0
M  V30 3243 H 325.706 -1.14866 0.868435 0
M  V30 3244 H 327.659 -4.21004 0.182647 0
M  V30 3245 H 326.383 -3.21689 -0.564274 0
M  V30 3246 H 325.042 -3.3147 1.56599 0
M  V30 3247 H 324.69 -5.02499 -0.224483 0
M  V30 3248 H 324.39 -5.70848 1.39307 0
M  V30 3249 H 325.914 -6.08218 0.538802 0
M  V30 3250 H 327.328 -5.11303 2.59311 0
M  V30 3251 H 325.725 -4.96515 3.37035 0
M  V30 3252 H 326.795 -3.55339 3.29943 0
M  V30 3253 N 328.138 -0.959301 -1.25041 0
M  V30 3254 C 329.07 -0.440543 -2.24926 0
M  V30 3255 C 330.083 0.446131 -1.56568 0
M  V30 3256 O 331.272 0.253657 -1.76689 0
M  V30 3257 C 328.372 0.38412 -3.36716 0
M  V30 3258 C 327.545 -0.490658 -4.34639 0
M  V30 3259 C 326.604 0.276587 -5.25473 0
M  V30 3260 O 325.63 -0.326614 -5.68262 0
M  V30 3261 N 326.832 1.56844 -5.5891 0
M  V30 3262 H 329.597 -1.29931 -2.70071 0
M  V30 3263 H 327.158 -0.830181 -1.38995 0
M  V30 3264 H 329.15 0.905228 -3.94446 0
M  V30 3265 H 327.72 1.14377 -2.90924 0
M  V30 3266 H 326.94 -1.19282 -3.7572 0
M  V30 3267 H 328.228 -1.08756 -4.97041 0
M  V30 3268 H 327.626 2.08036 -5.26059 0
M  V30 3269 H 326.183 2.03541 -6.19205 0
M  V30 3270 N 329.616 1.39756 -0.72842 0
M  V30 3271 C 330.846 2.04651 -0.283117 0
M  V30 3272 C 331.254 1.5502 1.08469 0
M  V30 3273 O 330.597 0.707343 1.69536 0
M  V30 3274 C 330.659 3.58947 -0.199309 0
M  V30 3275 C 330.323 4.31525 -1.5045 0
M  V30 3276 C 331.32 4.5861 -2.44894 0
M  V30 3277 C 329.005 4.70195 -1.76698 0
M  V30 3278 C 330.999 5.23366 -3.63822 0
M  V30 3279 C 328.686 5.3468 -2.95906 0
M  V30 3280 C 329.684 5.61198 -3.89289 0
M  V30 3281 O 329.372 6.24347 -5.06404 0
M  V30 3282 H 329.104 0.664777 -0.122666 0
M  V30 3283 H 331.658 1.79913 -0.990987 0
M  V30 3284 H 329.888 3.82556 0.56461 0
M  V30 3285 H 331.577 4.0534 0.213125 0
M  V30 3286 H 332.343 4.29187 -2.25883 0
M  V30 3287 H 328.222 4.48916 -1.04859 0
M  V30 3288 H 331.766 5.4398 -4.36728 0
M  V30 3289 H 327.663 5.63524 -3.14819 0
M  V30 3290 H 328.431 6.42842 -5.06652 0
M  V30 3291 N 331.094 0.475555 1.50254 0
M  V30 3292 C 332.057 -0.305016 2.27161 0
M  V30 3293 C 333.057 -0.916519 1.32123 0
M  V30 3294 O 334.247 -0.785003 1.5551 0
M  V30 3295 C 331.379 -1.43496 3.09227 0
M  V30 3296 H 332.572 0.369511 2.97615 0
M  V30 3297 H 330.125 0.229747 1.54602 0
M  V30 3298 H 330.86 -2.14441 2.43281 0
M  V30 3299 H 330.645 -1.00223 3.79075 0
M  V30 3300 H 332.135 -1.98548 3.67381 0
M  V30 3301 N 332.573 -1.56217 0.208337 0
M  V30 3302 C 333.505 -2.1695 -0.739276 0
M  V30 3303 C 334.518 -1.13492 -1.1672 0
M  V30 3304 O 335.707 -1.40529 -1.10063 0
M  V30 3305 C 332.807 -2.72755 -2.01142 0
M  V30 3306 C 331.98 -4.0125 -1.74118 0
M  V30 3307 C 331.039 -4.41749 -2.85909 0
M  V30 3308 O 330.065 -5.08912 -2.54946 0
M  V30 3309 N 331.267 -4.06342 -4.14568 0
M  V30 3310 H 334.032 -2.98893 -0.219837 0
M  V30 3311 H 331.593 -1.61878 0.0268445 0
M  V30 3312 H 333.585 -2.96826 -2.75094 0
M  V30 3313 H 332.155 -1.95191 -2.4417 0
M  V30 3314 H 331.375 -3.85173 -0.838775 0
M  V30 3315 H 332.663 -4.851 -1.53477 0
M  V30 3316 H 332.061 -3.52345 -4.42571 0
M  V30 3317 H 330.618 -4.35335 -4.85105 0
M  V30 3318 N 334.051 0.0651679 -1.57465 0
M  V30 3319 C 335.279 0.775808 -1.91804 0
M  V30 3320 C 335.694 1.70782 -0.804916 0
M  V30 3321 O 335.051 1.81153 0.221311 0
M  V30 3322 C 335.102 1.56381 -3.25925 0
M  V30 3323 O 334.823 0.669248 -4.32958 0
M  V30 3324 C 336.324 2.37485 -3.7432 0
M  V30 3325 H 333.544 0.2202 -0.63384 0
M  V30 3326 H 336.088 0.0334587 -2.04473 0
M  V30 3327 H 334.243 2.25837 -3.14764 0
M  V30 3328 H 334.657 1.21801 -5.10162 0
M  V30 3329 H 336.131 2.88223 -4.70778 0
M  V30 3330 H 336.608 3.17307 -3.03666 0
M  V30 3331 H 337.214 1.73173 -3.88447 0
M  V30 3332 N 335.529 1.53961 0.336706 0
M  V30 3333 C 336.757 1.75483 1.09605 0
M  V30 3334 C 337.172 0.4972 1.82136 0
M  V30 3335 O 336.529 -0.53149 1.74589 0
M  V30 3336 C 336.58 2.93943 2.10428 0
M  V30 3337 O 336.301 4.14842 1.40846 0
M  V30 3338 C 337.802 3.27571 2.98684 0
M  V30 3339 H 335.022 0.586166 0.326574 0
M  V30 3340 H 337.566 2.00808 0.38683 0
M  V30 3341 H 335.721 2.70929 2.76905 0
M  V30 3342 H 336.135 4.81383 2.08255 0
M  V30 3343 H 337.609 4.13791 3.6535 0
M  V30 3344 H 338.086 2.44168 3.65074 0
M  V30 3345 H 338.692 3.52615 2.37787 0
M  V30 3346 N 337.007 -0.598083 1.45811 0
M  V30 3347 C 338.284 -1.35777 1.40797 0
M  V30 3348 C 338.664 -2.10935 0.083462 0
M  V30 3349 O 338.012 -2.08505 -0.934763 0
M  V30 3350 C 338.222 -2.29666 2.62783 0
M  V30 3351 C 339.57 -2.91977 3.08277 0
M  V30 3352 O 340.594 -2.39984 2.63223 0
M  V30 3353 O 339.453 -3.86376 3.86491 0
M  V30 3354 H 336.547 -0.609291 0.55919 0
M  V30 3355 H 339.093 -0.620379 1.57954 0
M  V30 3356 H 337.865 -1.73454 3.50756 0
M  V30 3357 H 337.488 -3.1077 2.48008 0
M  V30 3358 N 338.485 -1.33259 -0.841409 0
M  V30 3359 C 339.733 -1.24326 -1.59334 0
M  V30 3360 C 340.054 0.191564 -1.94057 0
M  V30 3361 O 339.324 1.11967 -1.60749 0
M  V30 3362 H 337.904 -0.457174 -0.590763 0
M  V30 3363 H 340.566 -1.66947 -1.00571 0
M  V30 3364 H 339.662 -1.8352 -2.52442 0
M  V30 3365 N 339.963 1.05934 -1.16686 0
M  V30 3366 C 340.895 2.13468 -0.834503 0
M  V30 3367 C 341.908 1.62013 0.15984 0
M  V30 3368 O 343.097 1.7838 -0.0654228 0
M  V30 3369 C 340.197 3.3817 -0.222361 0
M  V30 3370 C 339.37 4.18928 -1.25771 0
M  V30 3371 C 338.429 5.21985 -0.664703 0
M  V30 3372 O 337.455 5.53334 -1.33453 0
M  V30 3373 N 338.657 5.77919 0.546834 0
M  V30 3374 H 341.422 2.42578 -1.75999 0
M  V30 3375 H 338.983 1.21967 -1.06469 0
M  V30 3376 H 340.975 4.04266 0.187472 0
M  V30 3377 H 339.545 3.06655 0.606758 0
M  V30 3378 H 338.765 3.48433 -1.84358 0
M  V30 3379 H 340.053 4.69687 -1.95631 0
M  V30 3380 H 339.451 5.54721 1.10912 0
M  V30 3381 H 338.008 6.45573 0.898829 0
M  V30 3382 N 341.441 0.965919 1.2453 0
M  V30 3383 C 342.373 0.452465 2.2469 0
M  V30 3384 C 343.386 -0.437821 1.56802 0
M  V30 3385 O 344.575 -0.244283 1.76821 0
M  V30 3386 C 341.675 -0.366258 3.36915 0
M  V30 3387 C 340.848 0.513701 4.34373 0
M  V30 3388 C 339.907 -0.248716 5.25612 0
M  V30 3389 O 338.933 0.356745 5.68081 0
M  V30 3390 N 340.135 -1.53877 5.59734 0
M  V30 3391 H 342.9 1.31361 2.69378 0
M  V30 3392 H 340.461 0.837541 1.38553 0
M  V30 3393 H 342.453 -0.884297 3.94921 0
M  V30 3394 H 341.023 -1.12832 2.91526 0
M  V30 3395 H 340.243 1.21273 3.75082 0
M  V30 3396 H 341.531 1.11391 4.96457 0
M  V30 3397 H 340.929 -2.05243 5.27154 0
M  V30 3398 H 339.486 -2.00254 6.20275 0
M  V30 3399 N 342.919 -1.39368 0.735821 0
M  V30 3400 C 344.168 -1.99733 0.281004 0
M  V30 3401 C 344.481 -1.59055 -1.13846 0
M  V30 3402 O 345.687 -2.12262 -1.69284 0
M  V30 3403 C 344.143 -3.57057 0.451462 0
M  V30 3404 C 343.751 -4.06697 1.87886 0
M  V30 3405 C 345.495 -4.2446 0.0584616 0
M  V30 3406 C 343.402 -5.56598 1.99883 0
M  V30 3407 H 342.332 -0.747163 0.101311 0
M  V30 3408 H 344.983 -1.59357 0.909819 0
M  V30 3409 H 343.365 -3.95234 -0.246263 0
M  V30 3410 H 344.539 -3.79853 2.60861 0
M  V30 3411 H 342.854 -3.5196 2.22515 0
M  V30 3412 H 345.451 -5.34549 0.127099 0
M  V30 3413 H 345.794 -4.04444 -0.986433 0
M  V30 3414 H 346.327 -3.9146 0.707374 0
M  V30 3415 H 343.066 -5.81494 3.02564 0
M  V30 3416 H 342.586 -5.85242 1.31346 0
M  V30 3417 H 344.265 -6.22022 1.78039 0
M  V30 3418 N 344.397 -0.483516 -1.5 0
M  V30 3419 C 345.327 0.293829 -2.31644 0
M  V30 3420 C 346.308 0.978864 -1.39112 0
M  V30 3421 O 347.493 0.973644 -1.68029 0
M  V30 3422 C 344.623 1.36897 -3.19181 0
M  V30 3423 C 343.577 0.804833 -4.20365 0
M  V30 3424 C 342.903 1.9792 -4.96721 0
M  V30 3425 C 344.203 -0.192313 -5.21946 0
M  V30 3426 H 345.897 -0.387616 -2.9688 0
M  V30 3427 H 343.443 -0.187856 -1.42769 0
M  V30 3428 H 345.396 1.92037 -3.751 0
M  V30 3429 H 344.12 2.07936 -2.51853 0
M  V30 3430 H 342.779 0.275319 -3.65565 0
M  V30 3431 H 342.427 2.67686 -4.25856 0
M  V30 3432 H 342.127 1.60789 -5.65173 0
M  V30 3433 H 343.651 2.53526 -5.55479 0
M  V30 3434 H 345.065 0.270333 -5.72662 0
M  V30 3435 H 343.462 -0.478543 -5.98189 0
M  V30 3436 H 344.532 -1.11409 -4.71928 0
M  V30 3437 N 345.875 1.56104 -0.216619 0
M  V30 3438 C 347.121 1.98466 0.417033 0
M  V30 3439 C 347.454 1.10403 1.59765 0
M  V30 3440 O 346.729 0.160632 1.93836 0
M  V30 3441 C 347.012 3.49769 0.85637 0
M  V30 3442 C 346.865 4.48606 -0.327546 0
M  V30 3443 C 348.184 4.05339 1.7143 0
M  V30 3444 H 345.303 0.721551 0.150112 0
M  V30 3445 H 347.945 1.87423 -0.311864 0
M  V30 3446 H 346.095 3.5931 1.47745 0
M  V30 3447 H 347.767 4.5108 -0.965618 0
M  V30 3448 H 346.01 4.22682 -0.975805 0
M  V30 3449 H 346.681 5.51995 0.0227149 0
M  V30 3450 H 349.157 3.98712 1.19031 0
M  V30 3451 H 348.033 5.11533 1.99061 0
M  V30 3452 H 348.294 3.51918 2.67593 0
M  V30 3453 N 347.353 -0.0568162 1.57498 0
M  V30 3454 C 348.764 -0.606858 1.76562 0
M  V30 3455 C 349.115 -1.77114 0.844094 0
M  V30 3456 O 348.24 -2.16376 0.0318911 0
M  V30 3457 C 348.835 -1.10766 3.20182 0
M  V30 3458 C 347.394 -1.60344 3.40539 0
M  V30 3459 C 346.541 -0.529311 2.72201 0
M  V30 3460 H 349.492 0.169393 1.57793 0
M  V30 3461 H 349.513 -1.97602 3.25167 0
M  V30 3462 H 349.025 -0.26006 3.87228 0
M  V30 3463 H 347.126 -2.47379 2.78629 0
M  V30 3464 H 347.239 -1.67006 4.4905 0
M  V30 3465 H 345.603 -0.977893 2.35179 0
M  V30 3466 H 346.386 0.308352 3.41912 0
M  V30 3467 N 348.832 -1.54138 -0.328536 0
M  V30 3468 C 350.057 -1.76378 -1.09112 0
M  V30 3469 C 350.482 -0.508596 -1.81094 0
M  V30 3470 O 349.84 0.539598 -1.73084 0
M  V30 3471 C 349.888 -2.95358 -2.06872 0
M  V30 3472 O 348.992 -2.66556 -3.14677 0
M  V30 3473 H 348.333 -0.584614 -0.314838 0
M  V30 3474 H 350.863 -2.01146 -0.374348 0
M  V30 3475 H 350.873 -3.22566 -2.4983 0
M  V30 3476 H 349.548 -3.86385 -1.5388 0
M  V30 3477 H 348.125 -2.50282 -2.7643 0
M  V30 3478 N 350.31 0.590341 -1.46126 0
M  V30 3479 C 351.258 1.72105 -1.5647 0
M  V30 3480 C 352.252 1.63756 -0.433612 0
M  V30 3481 O 353.458 1.69342 -0.610194 0
M  V30 3482 H 349.833 0.568889 -0.491802 0
M  V30 3483 H 351.804 1.6051 -2.51553 0
M  V30 3484 C 350.553 3.10493 -1.56491 0
M  V30 3485 H 349.876 3.17583 -2.4286 0
M  V30 3486 H 351.316 3.8939 -1.67785 0
M  V30 3487 C 349.775 3.3563 -0.292231 0
M  V30 3488 O 350.305 3.96875 0.620739 0
M  V30 3489 N 348.511 2.90026 -0.182523 0
M  V30 3490 H 348.058 2.40367 -0.926356 0
M  V30 3491 H 348.016 3.07218 0.668152 0
M  V30 3492 N 351.788 1.33704 0.83433 0
M  V30 3493 C 352.72 1.20172 1.9517 0
M  V30 3494 C 353.733 0.131572 1.62267 0
M  V30 3495 O 354.922 0.382406 1.74356 0
M  V30 3496 C 352.022 0.821716 3.28787 0
M  V30 3497 C 351.195 1.98446 3.89792 0
M  V30 3498 C 350.254 1.58469 5.01771 0
M  V30 3499 O 349.28 2.29968 5.20676 0
M  V30 3500 N 350.482 0.492291 5.78409 0
M  V30 3501 H 353.247 2.16429 2.07313 0
M  V30 3502 H 350.808 1.26509 1.0103 0
M  V30 3503 H 352.8 0.536291 4.01131 0
M  V30 3504 H 351.37 -0.0503058 3.1256 0
M  V30 3505 H 350.59 2.43526 3.09982 0
M  V30 3506 H 351.878 2.76236 4.27283 0
M  V30 3507 H 351.276 -0.102349 5.65607 0
M  V30 3508 H 349.833 0.266555 6.51255 0
M  V30 3509 N 353.266 -1.05314 1.17247 0
M  V30 3510 C 354.512 -1.78557 0.961513 0
M  V30 3511 C 354.845 -1.87419 -0.508697 0
M  V30 3512 O 354.12 -1.37307 -1.37757 0
M  V30 3513 C 354.403 -3.22514 1.60176 0
M  V30 3514 C 354.256 -3.21673 3.14399 0
M  V30 3515 C 355.575 -4.20318 1.30463 0
M  V30 3516 H 352.694 -0.6482 0.350723 0
M  V30 3517 H 355.336 -1.23102 1.44727 0
M  V30 3518 H 353.486 -3.69867 1.18871 0
M  V30 3519 H 355.158 -2.82405 3.64753 0
M  V30 3520 H 353.401 -2.60048 3.47214 0
M  V30 3521 H 354.072 -4.23271 3.54324 0
M  V30 3522 H 356.548 -3.81454 1.66229 0
M  V30 3523 H 355.424 -5.19289 1.77848 0
M  V30 3524 H 355.685 -4.41526 0.22521 0
M  V30 3525 N 354.744 -0.972509 -1.24016 0
M  V30 3526 C 355.99 -0.637978 -1.92504 0
M  V30 3527 C 356.323 0.825383 -1.75787 0
M  V30 3528 O 355.598 1.59442 -1.11393 0
M  V30 3529 C 355.881 -1.01942 -3.45369 0
M  V30 3530 C 355.734 -2.53983 -3.71231 0
M  V30 3531 C 357.053 -0.55751 -4.36555 0
M  V30 3532 H 354.172 -0.233248 -0.699117 0
M  V30 3533 H 356.814 -1.21238 -1.46292 0
M  V30 3534 H 354.964 -0.530656 -3.84859 0
M  V30 3535 H 356.636 -3.10374 -3.41271 0
M  V30 3536 H 354.879 -2.96968 -3.16216 0
M  V30 3537 H 355.55 -2.75723 -4.78206 0
M  V30 3538 H 358.026 -0.977029 -4.04467 0
M  V30 3539 H 356.902 -0.85292 -5.42233 0
M  V30 3540 H 357.163 0.542328 -4.38761 0
M  V30 3541 N 356.222 1.38976 -0.743202 0
M  V30 3542 C 357.468 2.0064 -0.295189 0
M  V30 3543 C 357.801 1.5885 1.11716 0
M  V30 3544 O 357.076 0.821181 1.76315 0
M  V30 3545 C 357.359 3.578 -0.406318 0
M  V30 3546 C 357.212 4.09586 -1.85903 0
M  V30 3547 C 358.531 4.39616 0.206439 0
M  V30 3548 H 355.65 0.728935 -0.108733 0
M  V30 3549 H 358.292 1.65067 -0.940897 0
M  V30 3550 H 356.442 3.88235 0.143419 0
M  V30 3551 H 358.114 3.89837 -2.46627 0
M  V30 3552 H 356.357 3.6284 -2.3776 0
M  V30 3553 H 357.028 5.18708 -1.888 0
M  V30 3554 H 359.504 4.15273 -0.262283 0
M  V30 3555 H 358.38 5.48812 0.0983819 0
M  V30 3556 H 358.641 4.22754 1.2935 0
M  V30 3557 N 357.7 0.491464 1.49741 0
M  V30 3558 C 358.632 -0.328609 2.26832 0
M  V30 3559 C 359.645 -0.939113 1.32983 0
M  V30 3560 O 360.834 -0.824067 1.58339 0
M  V30 3561 C 357.934 -1.47675 3.05033 0
M  V30 3562 C 357.107 -0.975305 4.26388 0
M  V30 3563 C 356.166 -1.99991 4.86714 0
M  V30 3564 O 355.192 -1.57229 5.47054 0
M  V30 3565 N 356.394 -3.32962 4.75517 0
M  V30 3566 H 359.159 0.332377 2.97851 0
M  V30 3567 H 356.72 0.323441 1.58636 0
M  V30 3568 H 358.712 -2.15954 3.42266 0
M  V30 3569 H 357.282 -2.04206 2.36683 0
M  V30 3570 H 356.502 -0.117723 3.94024 0
M  V30 3571 H 357.79 -0.618531 5.05026 0
M  V30 3572 H 357.188 -3.70399 4.27576 0
M  V30 3573 H 355.745 -3.96982 5.16961 0
M  V30 3574 N 359.178 -1.55987 0.224894 0
M  V30 3575 C 360.141 -2.19178 -0.670348 0
M  V30 3576 C 361.141 -1.15461 -1.11917 0
M  V30 3577 O 362.331 -1.40675 -1.02743 0
M  V30 3578 C 359.463 -2.81777 -1.9187 0
M  V30 3579 H 360.656 -2.99662 -0.119364 0
M  V30 3580 H 358.209 -1.5628 -0.0247128 0
M  V30 3581 H 358.944 -2.05172 -2.51147 0
M  V30 3582 H 358.729 -3.57732 -1.60531 0
M  V30 3583 H 360.219 -3.30205 -2.55645 0
M  V30 3584 N 360.656 0.0484629 -1.57525 0
M  V30 3585 C 361.619 1.03956 -2.04269 0
M  V30 3586 C 362.619 1.30211 -0.943496 0
M  V30 3587 O 363.809 1.25539 -1.20771 0
M  V30 3588 C 360.941 2.37742 -2.44319 0
M  V30 3589 H 362.134 0.636182 -2.93075 0
M  V30 3590 H 359.687 0.294811 -1.53494 0
M  V30 3591 H 360.422 2.82866 -1.5861 0
M  V30 3592 H 360.207 2.20021 -3.24551 0
M  V30 3593 H 361.697 3.08936 -2.80978 0
M  V30 3594 N 362.134 1.5431 0.320358 0
M  V30 3595 C 363.359 1.76954 1.08175 0
M  V30 3596 C 363.784 0.518193 1.80821 0
M  V30 3597 O 363.142 -0.530411 1.73368 0
M  V30 3598 C 363.19 2.96451 2.05303 0
M  V30 3599 O 362.294 2.68221 3.13259 0
M  V30 3600 H 361.635 0.586275 0.311733 0
M  V30 3601 H 364.165 2.01342 0.363676 0
M  V30 3602 H 364.175 3.23887 2.48116 0
M  V30 3603 H 362.85 3.87196 1.51829 0
M  V30 3604 H 361.427 2.51744 2.75099 0
M  V30 3605 N 363.613 -0.582584 1.46437 0
M  V30 3606 C 364.861 -1.33814 1.51453 0
M  V30 3607 C 365.182 -1.94277 0.167792 0
M  V30 3608 O 364.452 -1.78566 -0.805677 0
M  V30 3609 H 363.032 -0.496838 0.557818 0
M  V30 3610 H 365.694 -0.682281 1.82568 0
M  V30 3611 H 364.79 -2.14479 2.26728 0
M  V30 3612 N 365.091 -1.34144 -0.827227 0
M  V30 3613 C 366.368 -1.16844 -1.56865 0
M  V30 3614 C 366.748 0.260654 -2.09485 0
M  V30 3615 O 366.096 1.26138 -1.9053 0
M  V30 3616 C 366.306 -2.21939 -2.6934 0
M  V30 3617 C 367.654 -2.56695 -3.3822 0
M  V30 3618 O 368.678 -2.20695 -2.79593 0
M  V30 3619 O 367.537 -3.18518 -4.44082 0
M  V30 3620 H 364.631 -0.452669 -0.692112 0
M  V30 3621 H 367.177 -1.45763 -0.868973 0
M  V30 3622 H 365.949 -3.17882 -2.28182 0
M  V30 3623 H 365.572 -1.94172 -3.46962 0
M  V30 3624 N 366.569 1.04691 -1.17803 0
M  V30 3625 C 367.815 1.78045 -0.970969 0
M  V30 3626 C 368.148 1.87686 0.498751 0
M  V30 3627 O 367.423 1.38035 1.37027 0
M  V30 3628 C 367.706 3.2166 -1.61884 0
M  V30 3629 C 367.559 3.20001 -3.161 0
M  V30 3630 C 368.878 4.1962 -1.3269 0
M  V30 3631 H 365.997 0.64633 -0.354155 0
M  V30 3632 H 368.639 1.22333 -1.45378 0
M  V30 3633 H 366.789 3.69232 -1.20831 0
M  V30 3634 H 368.461 2.80467 -3.66246 0
M  V30 3635 H 366.704 2.58203 -3.48588 0
M  V30 3636 H 367.375 4.21386 -3.56564 0
M  V30 3637 H 369.851 3.80567 -1.68249 0
M  V30 3638 H 368.727 5.18339 -1.80599 0
M  V30 3639 H 368.988 4.414 -0.248622 0
M  V30 3640 N 368.047 0.979072 1.23499 0
M  V30 3641 C 368.979 0.476271 2.24197 0
M  V30 3642 C 369.992 -0.421166 1.57258 0
M  V30 3643 O 371.181 -0.225515 1.7707 0
M  V30 3644 C 368.281 -0.330503 3.37285 0
M  V30 3645 C 367.454 0.559744 4.33804 0
M  V30 3646 C 366.513 -0.192954 5.25846 0
M  V30 3647 O 365.539 0.416978 5.67671 0
M  V30 3648 N 366.741 -1.47932 5.61334 0
M  V30 3649 H 369.506 1.34211 2.67969 0
M  V30 3650 H 367.067 0.852189 1.37657 0
M  V30 3651 H 369.059 -0.842361 3.95836 0
M  V30 3652 H 367.629 -1.09734 2.92707 0
M  V30 3653 H 366.849 1.25245 3.73775 0
M  V30 3654 H 368.137 1.1665 4.95248 0
M  V30 3655 H 367.535 -1.9964 5.29302 0
M  V30 3656 H 366.092 -1.93664 6.22364 0
M  V30 3657 N 369.525 -1.3858 0.750561 0
M  V30 3658 C 370.753 -2.04471 0.316098 0
M  V30 3659 C 371.168 -1.56606 -1.05452 0
M  V30 3660 O 370.525 -0.737784 -1.66922 0
M  V30 3661 C 370.576 -3.60025 0.326275 0
M  V30 3662 O 370.297 -4.06133 1.6428 0
M  V30 3663 C 371.798 -4.43131 -0.122429 0
M  V30 3664 H 369.018 -0.65717 0.135528 0
M  V30 3665 H 371.562 -1.77329 1.01857 0
M  V30 3666 H 369.717 -3.86014 -0.327431 0
M  V30 3667 H 370.131 -5.00547 1.56693 0
M  V30 3668 H 371.605 -5.51963 -0.0641473 0
M  V30 3669 H 372.082 -4.23333 -1.16988 0
M  V30 3670 H 372.688 -4.22323 0.50229 0
M  V30 3671 N 371.003 -0.499398 -1.49478 0
M  V30 3672 C 372.233 0.0424839 -2.06556 0
M  V30 3673 C 372.641 1.31514 -1.36018 0
M  V30 3674 O 371.984 1.78555 -0.431718 0
M  V30 3675 C 372.046 0.368074 -3.57611 0
M  V30 3676 C 371.71 -0.806631 -4.49825 0
M  V30 3677 C 372.707 -1.69667 -4.91436 0
M  V30 3678 C 370.392 -1.00498 -4.92144 0
M  V30 3679 C 372.386 -2.76923 -5.74101 0
M  V30 3680 C 370.073 -2.08072 -5.74586 0
M  V30 3681 C 371.071 -2.96119 -6.15469 0
M  V30 3682 O 370.759 -4.01836 -6.96264 0
M  V30 3683 H 370.491 -0.0165165 -0.675798 0
M  V30 3684 H 373.045 -0.695497 -1.93267 0
M  V30 3685 H 371.275 1.15963 -3.68903 0
M  V30 3686 H 372.964 0.848381 -3.96935 0
M  V30 3687 H 373.73 -1.55524 -4.59388 0
M  V30 3688 H 369.609 -0.329036 -4.59824 0
M  V30 3689 H 373.153 -3.45676 -6.05932 0
M  V30 3690 H 369.05 -2.22211 -6.06047 0
M  V30 3691 H 369.818 -3.9917 -7.14567 0
M  V30 3692 N 372.481 1.55866 -0.233164 0
M  V30 3693 C 373.413 2.18099 0.704668 0
M  V30 3694 C 374.426 1.15334 1.14899 0
M  V30 3695 O 375.615 1.42262 1.07814 0
M  V30 3696 C 372.715 2.7592 1.96777 0
M  V30 3697 C 371.888 4.03969 1.67713 0
M  V30 3698 C 370.947 4.46242 2.78845 0
M  V30 3699 O 369.973 5.12903 2.46818 0
M  V30 3700 N 371.175 4.12886 4.08051 0
M  V30 3701 H 373.94 2.99205 0.172258 0
M  V30 3702 H 371.501 1.61815 -0.0525945 0
M  V30 3703 H 373.493 3.01165 2.70337 0
M  V30 3704 H 372.063 1.99051 2.41034 0
M  V30 3705 H 371.283 3.86459 0.777391 0
M  V30 3706 H 372.571 4.8748 1.4574 0
M  V30 3707 H 371.969 3.59342 4.3691 0
M  V30 3708 H 370.526 4.42997 4.78118 0
M  V30 3709 N 373.959 -0.0401083 1.57549 0
M  V30 3710 C 375.208 -0.732108 1.87944 0
M  V30 3711 C 375.521 -1.77107 0.830206 0
M  V30 3712 O 376.727 -2.51488 1.02302 0
M  V30 3713 C 375.183 -1.35315 3.33494 0
M  V30 3714 C 374.791 -0.351105 4.46622 0
M  V30 3715 C 376.535 -2.02566 3.73051 0
M  V30 3716 C 374.442 -0.979859 5.83226 0
M  V30 3717 H 373.372 -0.277188 0.701201 0
M  V30 3718 H 376.023 0.0138501 1.83495 0
M  V30 3719 H 374.405 -2.14844 3.32653 0
M  V30 3720 H 375.579 0.416674 4.58912 0
M  V30 3721 H 373.894 0.218708 4.15825 0
M  V30 3722 H 376.491 -2.50441 4.72423 0
M  V30 3723 H 376.834 -2.83904 3.04474 0
M  V30 3724 H 377.367 -1.29827 3.76018 0
M  V30 3725 H 374.106 -0.206135 6.55176 0
M  V30 3726 H 373.626 -1.71774 5.74677 0
M  V30 3727 H 375.305 -1.49046 6.29599 0
M  V30 3728 N 375.437 -1.54477 -0.31217 0
M  V30 3729 C 376.853 -1.45442 -0.657185 0
M  V30 3730 C 377.053 -0.63653 -1.91182 0
M  V30 3731 O 376.109 -0.139815 -2.52113 0
M  V30 3732 C 377.422 -2.89287 -0.82058 0
M  V30 3733 C 378.97 -2.9926 -0.917188 0
M  V30 3734 C 379.445 -4.44279 -1.11267 0
M  V30 3735 N 380.936 -4.4794 -1.17914 0
M  V30 3736 C 381.671 -5.57318 -1.34848 0
M  V30 3737 N 381.167 -6.76642 -1.48752 0
M  V30 3738 N 382.96 -5.44986 -1.37647 0
M  V30 3739 H 375.111 -2.06129 0.512313 0
M  V30 3740 H 377.374 -0.933088 0.167485 0
M  V30 3741 H 377.08 -3.51687 0.0302604 0
M  V30 3742 H 376.954 -3.36061 -1.71298 0
M  V30 3743 H 379.341 -2.36981 -1.75852 0
M  V30 3744 H 379.422 -2.558 -0.00101257 0
M  V30 3745 H 379.066 -5.07149 -0.27614 0
M  V30 3746 H 378.996 -4.85359 -2.04289 0
M  V30 3747 H 381.487 -3.61969 -1.08567 0
M  V30 3748 H 381.8 -7.55758 -1.61397 0
M  V30 3749 H 380.145 -6.79529 -1.45828 0
M  V30 3750 H 383.336 -4.50715 -1.26388 0
M  V30 3751 H 383.509 -6.3028 -1.50501 0
M  V30 3752 N 376.915 0.57481 -1.46744 0
M  V30 3753 C 378.143 1.35856 -1.56047 0
M  V30 3754 C 378.558 1.87691 -0.204365 0
M  V30 3755 O 377.915 1.64049 0.79963 0
M  V30 3756 C 377.966 2.54066 -2.57163 0
M  V30 3757 O 377.687 2.04377 -3.87507 0
M  V30 3758 C 379.188 3.46514 -2.76483 0
M  V30 3759 H 376.408 0.414754 -0.527466 0
M  V30 3760 H 378.952 0.698035 -1.92218 0
M  V30 3761 H 377.107 3.16092 -2.23974 0
M  V30 3762 H 377.521 2.81419 -4.4261 0
M  V30 3763 H 378.995 4.25919 -3.51137 0
M  V30 3764 H 379.472 3.98951 -1.83671 0
M  V30 3765 H 380.078 2.90318 -3.10799 0
M  V30 3766 N 378.394 1.34581 0.820102 0
M  V30 3767 C 379.357 1.2628 1.91275 0
M  V30 3768 C 380.357 0.177344 1.59819 0
M  V30 3769 O 381.547 0.430156 1.68806 0
M  V30 3770 C 378.679 0.950327 3.27386 0
M  V30 3771 H 379.872 2.23421 2.00057 0
M  V30 3772 H 377.425 1.1891 1.0144 0
M  V30 3773 H 378.16 -0.0177938 3.24295 0
M  V30 3774 H 377.945 1.73549 3.51601 0
M  V30 3775 H 379.435 0.917492 4.07396 0
M  V30 3776 N 379.872 -1.04064 1.18357 0
M  V30 3777 C 381.283 -1.58719 0.98312 0
M  V30 3778 C 381.634 -1.90556 -0.467193 0
M  V30 3779 O 380.759 -1.69561 -1.34454 0
M  V30 3780 C 381.354 -2.88379 1.77828 0
M  V30 3781 C 379.913 -3.3965 1.62218 0
M  V30 3782 C 379.06 -2.13235 1.77274 0
M  V30 3783 H 382.011 -0.867359 1.32901 0
M  V30 3784 H 382.032 -3.58773 1.26737 0
M  V30 3785 H 381.544 -2.65176 2.83379 0
M  V30 3786 H 379.645 -3.67866 0.592036 0
M  V30 3787 H 379.758 -4.13475 2.42023 0
M  V30 3788 H 378.122 -2.24542 1.20221 0
M  V30 3789 H 378.905 -1.92487 2.8426 0
M  V30 3790 N 381.35 -0.985608 -1.22978 0
M  V30 3791 C 382.578 -0.675582 -1.95559 0
M  V30 3792 C 382.993 0.758413 -1.72897 0
M  V30 3793 O 382.35 1.51094 -1.02357 0
M  V30 3794 C 382.401 -0.96293 -3.48439 0
M  V30 3795 O 382.122 -2.34057 -3.70336 0
M  V30 3796 C 383.623 -0.669585 -4.38214 0
M  V30 3797 H 380.843 -0.250523 -0.622478 0
M  V30 3798 H 383.387 -1.3184 -1.56328 0
M  V30 3799 H 381.542 -0.366033 -3.85667 0
M  V30 3800 H 381.956 -2.43424 -4.64591 0
M  V30 3801 H 383.43 -0.920967 -5.44263 0
M  V30 3802 H 383.907 0.396383 -4.37408 0
M  V30 3803 H 384.513 -1.2472 -4.06602 0
M  V30 3804 N 382.828 1.3818 -0.7579 0
M  V30 3805 C 384.053 2.04827 -0.325679 0
M  V30 3806 C 384.478 1.56788 1.03919 0
M  V30 3807 O 383.836 0.721811 1.66312 0
M  V30 3808 C 383.884 3.58774 -0.362447 0
M  V30 3809 O 382.988 4.07372 0.642033 0
M  V30 3810 H 382.329 0.64833 -0.143402 0
M  V30 3811 H 384.859 1.7677 -1.03023 0
M  V30 3812 H 384.869 4.07434 -0.214844 0
M  V30 3813 H 383.544 3.93096 -1.35824 0
M  V30 3814 H 382.121 3.70068 0.458688 0
M  V30 3815 N 384.306 0.507319 1.49211 0
M  V30 3816 C 385.534 -0.0315749 2.06876 0
M  V30 3817 C 385.949 -1.30241 1.36685 0
M  V30 3818 O 385.306 -1.76937 0.447152 0
M  V30 3819 C 385.357 -0.282627 3.60393 0
M  V30 3820 O 385.078 0.937835 4.27944 0
M  V30 3821 C 386.579 -0.864453 4.3479 0
M  V30 3822 H 383.799 0.0233048 0.670595 0
M  V30 3823 H 386.343 0.706484 1.91909 0
M  V30 3824 H 384.498 -0.97068 3.75042 0
M  V30 3825 H 384.912 0.704567 5.19746 0
M  V30 3826 H 386.386 -0.989664 5.43056 0
M  V30 3827 H 386.863 -1.86382 3.97692 0
M  V30 3828 H 387.469 -0.213672 4.24763 0
M  V30 3829 N 385.784 -1.5574 0.241426 0
M  V30 3830 C 387.033 -1.97986 -0.385295 0
M  V30 3831 C 387.346 -1.13267 -1.59468 0
M  V30 3832 O 388.552 -1.45501 -2.2922 0
M  V30 3833 C 387.008 -3.52275 -0.736884 0
M  V30 3834 C 386.616 -4.45726 0.450796 0
M  V30 3835 C 388.36 -4.03189 -1.3281 0
M  V30 3836 C 386.267 -5.91352 0.0756662 0
M  V30 3837 H 385.197 -0.739386 -0.147731 0
M  V30 3838 H 387.848 -1.80308 0.340779 0
M  V30 3839 H 386.23 -3.65628 -1.52094 0
M  V30 3840 H 387.404 -4.44131 1.22819 0
M  V30 3841 H 385.719 -4.05264 0.956573 0
M  V30 3842 H 388.316 -5.09505 -1.62201 0
M  V30 3843 H 388.659 -3.50212 -2.25071 0
M  V30 3844 H 389.192 -3.93141 -0.607069 0
M  V30 3845 H 385.931 -6.48354 0.965272 0
M  V30 3846 H 385.451 -5.96095 -0.665635 0
M  V30 3847 H 387.13 -6.46084 -0.344075 0
M  V30 3848 N 387.262 0.0317525 -1.57568 0
M  V30 3849 C 388.225 1.01783 -2.0536 0
M  V30 3850 C 389.225 1.29203 -0.957253 0
M  V30 3851 O 390.415 1.24251 -1.22095 0
M  V30 3852 C 387.547 2.35137 -2.46827 0
M  V30 3853 H 388.74 0.605062 -2.93733 0
M  V30 3854 H 386.293 0.278514 -1.53799 0
M  V30 3855 H 387.028 2.81168 -1.61602 0
M  V30 3856 H 386.813 2.16566 -3.26866 0
M  V30 3857 H 388.303 3.05938 -2.84239 0
M  V30 3858 N 388.74 1.54641 0.303973 0
M  V30 3859 C 390.151 1.64811 0.877163 0
M  V30 3860 C 390.502 0.554838 1.88191 0
M  V30 3861 O 389.627 -0.309033 2.14182 0
M  V30 3862 C 390.222 2.9876 1.59775 0
M  V30 3863 C 388.781 3.11061 2.11938 0
M  V30 3864 C 387.928 2.60479 0.951097 0
M  V30 3865 H 390.879 1.58493 0.0810486 0
M  V30 3866 H 390.9 2.90017 2.46314 0
M  V30 3867 H 390.412 3.7831 0.866226 0
M  V30 3868 H 388.513 2.36225 2.88146 0
M  V30 3869 H 388.626 4.17171 2.35595 0
M  V30 3870 H 386.99 2.16859 1.33583 0
M  V30 3871 H 387.773 3.42504 0.233581 0
M  V30 3872 N 390.218 -0.567019 1.47046 0
M  V30 3873 C 391.466 -1.322 1.52864 0
M  V30 3874 C 391.787 -1.94088 0.188388 0
M  V30 3875 O 391.057 -1.7941 -0.786693 0
M  V30 3876 H 389.637 -0.490894 0.563056 0
M  V30 3877 H 392.299 -0.662879 1.83281 0
M  V30 3878 H 391.395 -2.12062 2.2899 0
M  V30 3879 N 391.696 -1.35014 -0.812953 0
M  V30 3880 C 392.942 -1.2812 -1.57204 0
M  V30 3881 C 393.275 0.145869 -1.93651 0
M  V30 3882 O 392.55 1.0937 -1.60836 0
M  V30 3883 C 392.833 -2.18162 -2.86492 0
M  V30 3884 C 392.686 -3.69454 -2.56561 0
M  V30 3885 C 394.005 -2.07439 -3.88145 0
M  V30 3886 H 391.124 -0.466746 -0.570366 0
M  V30 3887 H 393.766 -1.65357 -0.935783 0
M  V30 3888 H 391.916 -1.86535 -3.40789 0
M  V30 3889 H 393.588 -4.11493 -2.08497 0
M  V30 3890 H 391.831 -3.9005 -1.89851 0
M  V30 3891 H 392.502 -4.27835 -3.48799 0
M  V30 3892 H 394.978 -2.35228 -3.4323 0
M  V30 3893 H 393.854 -2.7265 -4.76396 0
M  V30 3894 H 394.115 -1.05439 -4.29343 0
M  V30 3895 N 393.175 1.03435 -1.18907 0
M  V30 3896 C 394.421 1.77005 -0.989798 0
M  V30 3897 C 394.754 1.88205 0.478816 0
M  V30 3898 O 394.029 1.39481 1.35556 0
M  V30 3899 C 394.312 3.19925 -1.65287 0
M  V30 3900 C 394.165 3.1663 -3.19477 0
M  V30 3901 C 395.484 4.18189 -1.37134 0
M  V30 3902 H 392.603 0.642538 -0.360991 0
M  V30 3903 H 395.245 1.20784 -1.46667 0
M  V30 3904 H 393.395 3.67929 -1.24741 0
M  V30 3905 H 395.067 2.76567 -3.692 0
M  V30 3906 H 393.31 2.54491 -3.51307 0
M  V30 3907 H 393.981 4.1758 -3.61013 0
M  V30 3908 H 396.457 3.78761 -1.72276 0
M  V30 3909 H 395.333 5.16394 -1.86087 0
M  V30 3910 H 395.594 4.41112 -0.295424 0
M  V30 3911 N 394.653 0.992116 1.22453 0
M  V30 3912 C 395.586 0.486701 2.22949 0
M  V30 3913 C 396.564 -0.45259 1.56174 0
M  V30 3914 O 397.748 -0.378317 1.84665 0
M  V30 3915 C 394.875 -0.294537 3.37417 0
M  V30 3916 C 393.921 0.590628 4.22391 0
M  V30 3917 S 394.754 2.04546 4.94895 0
M  V30 3918 C 395.91 1.27369 6.12803 0
M  V30 3919 H 396.143 1.33828 2.65475 0
M  V30 3920 H 393.676 0.799023 1.32117 0
M  V30 3921 H 395.634 -0.739241 4.03789 0
M  V30 3922 H 394.295 -1.12139 2.934 0
M  V30 3923 H 393.488 -0.0104375 5.03999 0
M  V30 3924 H 393.09 0.972064 3.61147 0
M  V30 3925 H 395.382 0.540943 6.75337 0
M  V30 3926 H 396.325 2.06502 6.7732 0
M  V30 3927 H 396.733 0.787324 5.58983 0
M  V30 3928 N 396.131 -1.37776 0.765217 0
M  V30 3929 C 397.094 -2.28686 0.153416 0
M  V30 3930 C 398.094 -1.47727 -0.635081 0
M  V30 3931 O 399.284 -1.68027 -0.459632 0
M  V30 3932 C 396.416 -3.31608 -0.790495 0
M  V30 3933 H 397.609 -2.84297 0.954723 0
M  V30 3934 H 395.162 -1.46932 0.53299 0
M  V30 3935 H 395.897 -2.81109 -1.61705 0
M  V30 3936 H 395.682 -3.9144 -0.227348 0
M  V30 3937 H 397.172 -3.99559 -1.21419 0
M  V30 3938 N 397.609 -0.515225 -1.4894 0
M  V30 3939 C 398.834 0.022727 -2.07388 0
M  V30 3940 C 399.259 1.2876 -1.37122 0
M  V30 3941 O 398.617 1.76067 -0.432431 0
M  V30 3942 C 398.665 0.244869 -3.59768 0
M  V30 3943 O 397.769 1.31667 -3.90817 0
M  V30 3944 H 397.11 -0.0325506 -0.663202 0
M  V30 3945 H 399.64 -0.718918 -1.91553 0
M  V30 3946 H 399.65 0.47205 -4.0526 0
M  V30 3947 H 398.325 -0.679194 -4.10317 0
M  V30 3948 H 396.902 1.07331 -3.5712 0
M  V30 3949 N 399.087 1.5561 -0.249682 0
M  V30 3950 C 400.312 2.03865 0.381305 0
M  V30 3951 C 400.737 1.12769 1.50548 0
M  V30 3952 O 400.095 0.121189 1.80895 0
M  V30 3953 C 400.143 3.50101 0.863816 0
M  V30 3954 O 399.247 3.62132 1.97318 0
M  V30 3955 H 398.588 0.658827 0.0827194 0
M  V30 3956 H 401.118 2.01105 -0.376552 0
M  V30 3957 H 401.128 3.90975 1.1663 0
M  V30 3958 H 399.803 4.1588 0.0411816 0
M  V30 3959 H 398.38 3.33155 1.67517 0
M  V30 3960 N 400.565 -0.0233959 1.57583 0
M  V30 3961 C 401.976 -0.56927 1.77809 0
M  V30 3962 C 402.327 -1.75284 0.881472 0
M  V30 3963 O 401.452 -2.1626 0.0777805 0
M  V30 3964 C 402.047 -1.03949 3.22459 0
M  V30 3965 C 400.606 -1.53084 3.43864 0
M  V30 3966 C 399.753 -0.471454 2.73263 0
M  V30 3967 H 402.704 0.202825 1.57399 0
M  V30 3968 H 402.725 -1.90661 3.29285 0
M  V30 3969 H 402.237 -0.177865 3.87692 0
M  V30 3970 H 400.338 -2.41414 2.83814 0
M  V30 3971 H 400.451 -1.57443 4.52491 0
M  V30 3972 H 398.815 -0.927788 2.37201 0
M  V30 3973 H 399.598 0.380808 3.41181 0
M  V30 3974 N 402.043 -1.548 -0.295768 0
M  V30 3975 C 403.006 -1.85363 -1.34808 0
M  V30 3976 C 404.006 -0.726817 -1.43436 0
M  V30 3977 O 405.196 -0.995088 -1.42981 0
M  V30 3978 C 402.328 -2.03859 -2.73229 0
M  V30 3979 H 403.521 -2.7941 -1.08949 0
M  V30 3980 H 401.074 -1.46942 -0.532702 0
M  V30 3981 H 401.809 -1.12117 -3.04303 0
M  V30 3982 H 401.594 -2.8588 -2.68356 0
M  V30 3983 H 403.084 -2.28857 -3.49305 0
M  V30 3984 N 403.521 0.559213 -1.47345 0
M  V30 3985 C 404.451 1.67622 -1.62558 0
M  V30 3986 C 405.432 1.63331 -0.475087 0
M  V30 3987 O 406.617 1.80983 -0.704182 0
M  V30 3988 C 403.747 3.0626 -1.63774 0
M  V30 3989 C 402.701 3.25397 -2.7803 0
M  V30 3990 C 402.027 4.64801 -2.64318 0
M  V30 3991 C 403.327 3.10965 -4.19641 0
M  V30 3992 H 405.021 1.55146 -2.56067 0
M  V30 3993 H 402.567 0.744961 -1.23233 0
M  V30 3994 H 404.52 3.84247 -1.73008 0
M  V30 3995 H 403.244 3.1969 -0.66825 0
M  V30 3996 H 401.903 2.49817 -2.68304 0
M  V30 3997 H 401.551 4.75028 -1.65401 0
M  V30 3998 H 401.251 4.78555 -3.40968 0
M  V30 3999 H 402.775 5.44926 -2.75478 0
M  V30 4000 H 404.189 3.78772 -4.30354 0
M  V30 4001 H 402.586 3.36229 -4.97062 0
M  V30 4002 H 403.656 2.07736 -4.38148 0
M  V30 4003 N 404.999 1.35443 0.805782 0
M  V30 4004 C 406.41 1.25768 1.37983 0
M  V30 4005 C 406.761 -0.10958 1.95894 0
M  V30 4006 O 405.886 -1.01056 1.91355 0
M  V30 4007 C 406.481 2.27727 2.5085 0
M  V30 4008 C 405.04 2.2179 3.04115 0
M  V30 4009 C 404.187 2.13393 1.77084 0
M  V30 4010 H 407.138 1.4656 0.608752 0
M  V30 4011 H 407.159 1.90422 3.29424 0
M  V30 4012 H 406.671 3.27227 2.08671 0
M  V30 4013 H 404.772 1.25703 3.50756 0
M  V30 4014 H 404.885 3.13788 3.62042 0
M  V30 4015 H 403.249 1.59384 1.98668 0
M  V30 4016 H 404.032 3.14755 1.37056 0
M  V30 4017 N 406.477 -1.02803 1.19454 0
M  V30 4018 C 407.705 -1.79841 1.02297 0
M  V30 4019 C 408.12 -1.83879 -0.428259 0
M  V30 4020 O 407.477 -1.28345 -1.29745 0
M  V30 4021 C 407.528 -3.24852 1.58598 0
M  V30 4022 O 407.249 -3.21097 2.98041 0
M  V30 4023 C 408.75 -4.18485 1.46236 0
M  V30 4024 H 405.97 -0.565936 0.360496 0
M  V30 4025 H 408.514 -1.2948 1.58288 0
M  V30 4026 H 406.669 -3.72401 1.06753 0
M  V30 4027 H 407.083 -4.12033 3.24545 0
M  V30 4028 H 408.557 -5.18121 1.90407 0
M  V30 4029 H 409.034 -4.37254 0.41301 0
M  V30 4030 H 409.64 -3.76811 1.97215 0
M  V30 4031 N 407.956 -0.998596 -1.21925 0
M  V30 4032 C 408.888 -0.511879 -2.23411 0
M  V30 4033 C 409.901 0.396094 -1.57908 0
M  V30 4034 O 411.09 0.197316 -1.77406 0
M  V30 4035 C 408.19 0.276802 -3.37768 0
M  V30 4036 C 407.363 -0.628687 -4.32858 0
M  V30 4037 C 406.422 0.109272 -5.26087 0
M  V30 4038 O 405.448 -0.507237 -5.66935 0
M  V30 4039 N 406.65 1.38983 -5.63617 0
M  V30 4040 H 409.415 -1.38457 -2.658 0
M  V30 4041 H 406.976 -0.873981 -1.36283 0
M  V30 4042 H 408.968 0.77928 -3.97126 0
M  V30 4043 H 407.538 1.05063 -2.94415 0
M  V30 4044 H 406.758 -1.31175 -3.71735 0
M  V30 4045 H 408.046 -1.24514 -4.93329 0
M  V30 4046 H 407.444 1.91194 -5.32411 0
M  V30 4047 H 406.001 1.83739 -6.25367 0
M  V30 4048 N 409.434 1.37368 -0.772513 0
M  V30 4049 C 410.845 1.8231 -0.402493 0
M  V30 4050 C 411.196 1.6436 1.07146 0
M  V30 4051 O 410.321 1.15514 1.82991 0
M  V30 4052 C 410.916 3.30979 -0.723776 0
M  V30 4053 C 409.475 3.74195 -0.406802 0
M  V30 4054 C 408.622 2.59885 -0.967218 0
M  V30 4055 H 411.573 1.25829 -0.967099 0
M  V30 4056 H 411.594 3.80499 -0.00870832 0
M  V30 4057 H 411.106 3.44011 -1.7966 0
M  V30 4058 H 409.207 3.66732 0.658673 0
M  V30 4059 H 409.32 4.7027 -0.915588 0
M  V30 4060 H 407.684 2.51674 -0.391416 0
M  V30 4061 H 408.467 2.7571 -2.04546 0
M  V30 4062 N 410.912 0.523116 1.48665 0
M  V30 4063 C 411.875 -0.232592 2.28017 0
M  V30 4064 C 412.875 -0.874021 1.34972 0
M  V30 4065 O 414.065 -0.735132 1.57929 0
M  V30 4066 C 411.197 -1.33586 3.13636 0
M  V30 4067 H 412.39 0.464008 2.96289 0
M  V30 4068 H 409.943 0.278816 1.53793 0
M  V30 4069 H 410.678 -2.06593 2.4998 0
M  V30 4070 H 410.463 -0.881125 3.82071 0
M  V30 4071 H 411.953 -1.86759 3.73511 0
M  V30 4072 N 412.39 -1.55475 0.257931 0
M  V30 4073 C 413.3 -2.2549 -0.647425 0
M  V30 4074 C 414.316 -1.2748 -1.18427 0
M  V30 4075 O 415.492 -1.6038 -1.2182 0
M  V30 4076 C 412.557 -2.94916 -1.82278 0
M  V30 4077 C 411.618 -4.08363 -1.32432 0
M  V30 4078 C 410.851 -4.74469 -2.44366 0
M  V30 4079 O 411.074 -4.39701 -3.63344 0
M  V30 4080 O 410.008 -5.62763 -2.13497 0
M  V30 4081 H 413.834 -3.03593 -0.0807707 0
M  V30 4082 H 411.419 -1.49377 0.0259962 0
M  V30 4083 H 413.301 -3.38606 -2.50846 0
M  V30 4084 H 411.976 -2.19744 -2.37685 0
M  V30 4085 H 410.883 -3.69166 -0.605605 0
M  V30 4086 H 412.216 -4.85385 -0.816211 0
M  V30 4087 N 413.868 0.0150385 -1.57593 0
M  V30 4088 C 414.778 1.02791 -2.10882 0
M  V30 4089 C 415.794 1.38702 -1.0506 0
M  V30 4090 O 416.97 1.47739 -1.36877 0
M  V30 4091 C 414.035 2.30568 -2.58919 0
M  V30 4092 C 413.096 2.01108 -3.79281 0
M  V30 4093 C 412.329 3.22794 -4.25018 0
M  V30 4094 O 412.552 4.33959 -3.70183 0
M  V30 4095 O 411.486 3.07672 -5.17322 0
M  V30 4096 H 415.312 0.604973 -2.97613 0
M  V30 4097 H 412.897 0.23292 -1.47573 0
M  V30 4098 H 414.779 3.05662 -2.90084 0
M  V30 4099 H 413.454 2.72129 -1.75293 0
M  V30 4100 H 412.361 1.23537 -3.53114 0
M  V30 4101 H 413.694 1.64394 -4.63935 0
M  V30 4102 N 415.346 1.54954 0.287554 0
M  V30 4103 C 416.309 1.86076 1.33823 0
M  V30 4104 C 417.309 0.734414 1.43049 0
M  V30 4105 O 418.499 1.00266 1.42452 0
M  V30 4106 C 415.631 2.05305 2.72144 0
M  V30 4107 H 416.824 2.79984 1.07465 0
M  V30 4108 H 414.377 1.47223 0.524902 0
M  V30 4109 H 415.112 1.1373 3.03704 0
M  V30 4110 H 414.897 2.873 2.66836 0
M  V30 4111 H 416.387 2.30706 3.48087 0
M  V30 4112 N 416.824 -0.551391 1.4764 0
M  V30 4113 C 417.787 -1.64007 1.60107 0
M  V30 4114 C 418.787 -1.53601 0.47576 0
M  V30 4115 O 419.977 -1.57655 0.740988 0
M  V30 4116 C 417.109 -3.03569 1.55108 0
M  V30 4117 H 418.302 -1.543 2.57161 0
M  V30 4118 H 415.855 -0.771776 1.35917 0
M  V30 4119 H 416.59 -3.18804 0.594519 0
M  V30 4120 H 416.375 -3.12532 2.36783 0
M  V30 4121 H 417.865 -3.82762 1.66982 0
M  V30 4122 N 418.302 -1.35869 -0.798587 0
M  V30 4123 C 419.718 -1.16082 -1.09532 0
M  V30 4124 C 419.918 0.0213124 -2.01489 0
M  V30 4125 O 418.974 0.689488 -2.42904 0
M  V30 4126 C 420.287 -2.46748 -1.7186 0
M  V30 4127 C 421.835 -2.53028 -1.84244 0
M  V30 4128 C 422.31 -3.83758 -2.49988 0
M  V30 4129 N 423.801 -3.85053 -2.57465 0
M  V30 4130 C 424.536 -4.8294 -3.09122 0
M  V30 4131 N 424.032 -5.91217 -3.61157 0
M  V30 4132 N 425.825 -4.70369 -3.0775 0
M  V30 4133 H 417.976 -2.11571 -0.187461 0
M  V30 4134 H 420.239 -0.936726 -0.145765 0
M  V30 4135 H 419.945 -3.33471 -1.11759 0
M  V30 4136 H 419.819 -2.61883 -2.71472 0
M  V30 4137 H 422.206 -1.66729 -2.43486 0
M  V30 4138 H 422.287 -2.418 -0.834643 0
M  V30 4139 H 421.931 -4.70459 -1.91393 0
M  V30 4140 H 421.861 -3.92278 -3.5132 0
M  V30 4141 H 424.352 -3.06822 -2.20609 0
M  V30 4142 H 424.665 -6.61892 -3.98896 0
M  V30 4143 H 423.01 -5.94899 -3.59333 0
M  V30 4144 H 426.201 -3.84914 -2.66381 0
M  V30 4145 H 426.374 -5.46816 -3.47701 0
M  V30 4146 N 419.78 1.02168 -1.19998 0
M  V30 4147 C 420.727 2.10601 -0.944228 0
M  V30 4148 C 421.697 1.65639 0.123664 0
M  V30 4149 O 422.882 1.9079 -0.0199941 0
M  V30 4150 C 420.022 3.41504 -0.496865 0
M  V30 4151 C 419.135 3.99973 -1.63234 0
M  V30 4152 C 418.27 5.18915 -1.13579 0
M  V30 4153 C 417.309 5.69456 -2.24468 0
M  V30 4154 N 416.446 6.79665 -1.76068 0
M  V30 4155 H 421.286 2.31814 -1.8726 0
M  V30 4156 H 418.823 1.13686 -0.933483 0
M  V30 4157 H 420.781 4.16626 -0.218843 0
M  V30 4158 H 419.411 3.2038 0.394508 0
M  V30 4159 H 418.463 3.21997 -2.0254 0
M  V30 4160 H 419.775 4.33492 -2.46752 0
M  V30 4161 H 418.929 6.01222 -0.813429 0
M  V30 4162 H 417.668 4.8695 -0.270434 0
M  V30 4163 H 416.673 4.85757 -2.57526 0
M  V30 4164 H 417.898 6.03459 -3.11472 0
M  V30 4165 H 415.844 6.49538 -0.918516 0
M  V30 4166 H 415.761 7.12349 -2.5317 0
M  V30 4167 H 417.029 7.65549 -1.46817 0
M  V30 4168 N 421.258 1.00505 1.21394 0
M  V30 4169 C 422.674 0.717873 1.42544 0
M  V30 4170 C 422.874 -0.706936 1.88692 0
M  V30 4171 O 421.93 -1.47627 2.04847 0
M  V30 4172 C 423.243 1.73377 2.45684 0
M  V30 4173 C 424.791 1.75059 2.59467 0
M  V30 4174 C 425.266 2.75545 3.6584 0
M  V30 4175 N 426.757 2.74213 3.73311 0
M  V30 4176 C 427.492 3.48626 4.55245 0
M  V30 4177 N 426.988 4.32678 5.41075 0
M  V30 4178 N 428.781 3.37276 4.49668 0
M  V30 4179 H 420.932 1.92506 0.897503 0
M  V30 4180 H 423.195 0.830919 0.456375 0
M  V30 4181 H 422.901 2.75395 2.18748 0
M  V30 4182 H 422.775 1.53647 3.44489 0
M  V30 4183 H 425.162 0.737337 2.8574 0
M  V30 4184 H 425.243 1.98861 1.60897 0
M  V30 4185 H 424.887 3.77028 3.40313 0
M  V30 4186 H 424.817 2.49009 4.64007 0
M  V30 4187 H 427.308 2.13234 3.11993 0
M  V30 4188 H 427.621 4.86253 6.00648 0
M  V30 4189 H 425.966 4.3676 5.40616 0
M  V30 4190 H 429.157 2.71043 3.81646 0
M  V30 4191 H 429.33 3.95524 5.13288 0
M  V30 4192 N 422.737 -1.36956 0.779787 0
M  V30 4193 C 423.647 -2.33965 0.172491 0
M  V30 4194 C 424.663 -1.60574 -0.670222 0
M  V30 4195 O 425.839 -1.92617 -0.588263 0
M  V30 4196 C 422.904 -3.39761 -0.690173 0
M  V30 4197 C 421.965 -4.28964 0.169924 0
M  V30 4198 C 421.198 -5.29707 -0.651662 0
M  V30 4199 O 421.421 -5.38238 -1.88827 0
M  V30 4200 O 420.355 -6.01873 -0.0566264 0
M  V30 4201 H 424.181 -2.87647 0.974321 0
M  V30 4202 H 421.766 -1.39258 0.541078 0
M  V30 4203 H 423.648 -4.04471 -1.1824 0
M  V30 4204 H 422.323 -2.88394 -1.47006 0
M  V30 4205 H 421.23 -3.67326 0.708696 0
M  V30 4206 H 422.563 -4.83656 0.913085 0
M  V30 4207 N 424.215 -0.530993 -1.48385 0
M  V30 4208 C 425.461 0.00274135 -2.028 0
M  V30 4209 C 425.794 1.33838 -1.40716 0
M  V30 4210 O 425.069 1.86465 -0.553277 0
M  V30 4211 C 425.352 0.123676 -3.59888 0
M  V30 4212 C 425.205 -1.2372 -4.3245 0
M  V30 4213 C 426.524 0.849967 -4.31814 0
M  V30 4214 H 423.643 -0.000477758 -0.737 0
M  V30 4215 H 426.285 -0.688217 -1.77098 0
M  V30 4216 H 424.435 0.712157 -3.81917 0
M  V30 4217 H 426.107 -1.86687 -4.21836 0
M  V30 4218 H 424.35 -1.81882 -3.93829 0
M  V30 4219 H 425.021 -1.10557 -5.40815 0
M  V30 4220 H 427.497 0.350572 -4.14621 0
M  V30 4221 H 426.373 0.903486 -5.41413 0
M  V30 4222 H 426.634 1.90047 -3.99167 0
M  V30 4223 N 425.693 1.55336 -0.266172 0
M  V30 4224 C 427.109 1.59356 0.0882065 0
M  V30 4225 C 427.309 1.2834 1.55342 0
M  V30 4226 O 426.365 1.03996 2.30089 0
M  V30 4227 C 427.678 2.99409 -0.278364 0
M  V30 4228 C 429.226 3.12196 -0.224243 0
M  V30 4229 C 429.701 4.545 -0.565123 0
M  V30 4230 N 431.192 4.60313 -0.51634 0
M  V30 4231 C 431.927 5.68434 -0.753013 0
M  V30 4232 N 431.423 6.84738 -1.05383 0
M  V30 4233 N 433.216 5.57942 -0.682414 0
M  V30 4234 H 425.367 1.73764 -1.22147 0
M  V30 4235 H 427.63 0.809822 -0.492841 0
M  V30 4236 H 427.336 3.2691 -1.29703 0
M  V30 4237 H 427.21 3.75228 0.385186 0
M  V30 4238 H 429.597 2.84464 0.78512 0
M  V30 4239 H 429.678 2.38609 -0.921922 0
M  V30 4240 H 429.322 4.82956 -1.57213 0
M  V30 4241 H 429.252 5.26374 0.154248 0
M  V30 4242 H 431.743 3.7676 -0.29335 0
M  V30 4243 H 432.056 7.63088 -1.22133 0
M  V30 4244 H 430.401 6.86375 -1.09151 0
M  V30 4245 H 433.592 4.65958 -0.44731 0
M  V30 4246 H 433.765 6.4213 -0.870248 0
M  V30 4247 N 427.171 -0.0066808 1.57599 0
M  V30 4248 C 428.101 -0.999296 2.11036 0
M  V30 4249 C 429.082 -1.36278 1.01795 0
M  V30 4250 O 430.267 -1.4477 1.29442 0
M  V30 4251 C 427.397 -2.29328 2.60818 0
M  V30 4252 C 426.351 -2.07159 3.74525 0
M  V30 4253 C 425.677 -3.42512 4.10596 0
M  V30 4254 C 426.977 -1.43959 5.02069 0
M  V30 4255 H 428.671 -0.554382 2.94223 0
M  V30 4256 H 426.217 -0.265221 1.41536 0
M  V30 4257 H 428.17 -2.99117 2.96828 0
M  V30 4258 H 426.894 -2.7592 1.74745 0
M  V30 4259 H 425.553 -1.39797 3.38899 0
M  V30 4260 H 425.201 -3.86795 3.21556 0
M  V30 4261 H 424.901 -3.28498 4.87199 0
M  V30 4262 H 426.425 -4.13628 4.4916 0
M  V30 4263 H 427.839 -2.03696 5.35893 0
M  V30 4264 H 426.236 -1.40452 5.83432 0
M  V30 4265 H 427.306 -0.407992 4.83181 0
M  V30 4266 N 428.649 -1.55105 -0.279332 0
M  V30 4267 C 429.582 -1.82467 -1.37044 0
M  V30 4268 C 430.56 -0.677261 -1.47824 0
M  V30 4269 O 431.744 -0.919578 -1.64548 0
M  V30 4270 C 428.871 -1.98066 -2.7475 0
M  V30 4271 C 427.917 -3.20594 -2.81286 0
M  V30 4272 S 428.75 -4.78116 -2.41175 0
M  V30 4273 C 429.906 -4.9668 -3.80867 0
M  V30 4274 H 430.139 -2.74728 -1.1363 0
M  V30 4275 H 427.672 -1.46794 -0.478625 0
M  V30 4276 H 429.63 -2.07739 -3.54055 0
M  V30 4277 H 428.291 -1.06704 -2.9542 0
M  V30 4278 H 427.484 -3.28376 -3.82341 0
M  V30 4279 H 427.086 -3.09479 -2.09996 0
M  V30 4280 H 429.378 -4.82033 -4.76078 0
M  V30 4281 H 430.321 -5.98741 -3.78041 0
M  V30 4282 H 430.729 -4.24698 -3.71876 0
M  V30 4283 N 430.127 0.543554 -1.4793 0
M  V30 4284 C 431.074 1.64942 -1.6144 0
M  V30 4285 C 432.044 1.59692 -0.456903 0
M  V30 4286 O 433.229 1.78321 -0.678688 0
M  V30 4287 C 430.369 3.03238 -1.64744 0
M  V30 4288 C 429.482 3.18823 -2.91506 0
M  V30 4289 C 428.617 4.47599 -2.86057 0
M  V30 4290 C 427.656 4.56664 -4.07584 0
M  V30 4291 N 426.793 5.76811 -4.00292 0
M  V30 4292 H 431.633 1.52733 -2.55884 0
M  V30 4293 H 429.17 0.7438 -1.2691 0
M  V30 4294 H 431.128 3.83339 -1.64641 0
M  V30 4295 H 429.758 3.1425 -0.738017 0
M  V30 4296 H 428.81 2.32064 -3.01414 0
M  V30 4297 H 430.122 3.21384 -3.81463 0
M  V30 4298 H 429.276 5.35975 -2.84281 0
M  V30 4299 H 428.015 4.47538 -1.93807 0
M  V30 4300 H 427.02 3.66697 -4.09651 0
M  V30 4301 H 428.245 4.58474 -5.00978 0
M  V30 4302 H 426.191 5.77673 -3.10853 0
M  V30 4303 H 426.108 5.80808 -4.8394 0
M  V30 4304 H 427.376 6.67512 -4.02553 0
M  V30 4305 N 431.605 1.3629 0.791371 0
M  V30 4306 C 432.553 1.30514 1.92533 0
M  V30 4307 C 433.547 0.197285 1.68247 0
M  V30 4308 O 434.753 0.364176 1.76278 0
M  V30 4309 H 431.128 0.406263 0.632815 0
M  V30 4310 H 433.099 2.26282 1.94523 0
M  V30 4311 C 431.848 1.10933 3.29529 0
M  V30 4312 H 431.171 1.95427 3.48781 0
M  V30 4313 H 432.611 1.10937 4.0923 0
M  V30 4314 C 431.07 -0.186123 3.36385 0
M  V30 4315 O 431.6 -1.17664 3.84081 0
M  V30 4316 N 429.806 -0.230128 2.89687 0
M  V30 4317 H 429.353 0.576545 2.51065 0
M  V30 4318 H 429.311 -1.09658 2.94657 0
M  V30 4319 N 433.083 -1.0153 1.20538 0
M  V30 4320 C 434.499 -1.27461 0.96051 0
M  V30 4321 C 434.699 -1.98273 -0.359193 0
M  V30 4322 O 433.755 -2.27886 -1.0874 0
M  V30 4323 C 435.068 -2.10837 2.14402 0
M  V30 4324 C 436.616 -2.24099 2.18515 0
M  V30 4325 C 437.091 -3.10852 3.36355 0
M  V30 4326 N 438.582 -3.18441 3.36377 0
M  V30 4327 C 439.317 -3.85795 4.24205 0
M  V30 4328 N 438.813 -4.55264 5.22213 0
M  V30 4329 N 440.606 -3.82331 4.12043 0
M  V30 4330 H 432.757 -0.539907 2.05423 0
M  V30 4331 H 435.02 -0.30092 0.898972 0
M  V30 4332 H 434.726 -1.66144 3.09983 0
M  V30 4333 H 434.6 -3.11576 2.12604 0
M  V30 4334 H 436.987 -2.68016 1.23497 0
M  V30 4335 H 437.068 -1.22865 2.24361 0
M  V30 4336 H 436.712 -2.6764 4.31661 0
M  V30 4337 H 436.642 -4.12177 3.27746 0
M  V30 4338 H 439.133 -2.68978 2.65442 0
M  V30 4339 H 439.446 -5.04331 5.85551 0
M  V30 4340 H 437.791 -4.54085 5.26148 0
M  V30 4341 H 440.982 -3.27207 3.34743 0
M  V30 4342 H 441.155 -4.34547 4.807 0
M  V30 4343 N 434.561 -1.01147 -1.20859 0
M  V30 4344 C 435.471 -0.58686 -2.27141 0
M  V30 4345 C 436.487 0.373198 -1.69951 0
M  V30 4346 O 437.663 0.235423 -2.00019 0
M  V30 4347 C 434.728 0.0733602 -3.46622 0
M  V30 4348 C 433.789 -0.931995 -4.19061 0
M  V30 4349 C 433.022 -0.303186 -5.32838 0
M  V30 4350 O 433.245 0.898395 -5.63281 0
M  V30 4351 O 432.179 -1.01735 -5.9324 0
M  V30 4352 H 436.005 -1.47155 -2.65667 0
M  V30 4353 H 433.59 -0.780689 -1.2738 0
M  V30 4354 H 435.472 0.442333 -4.19072 0
M  V30 4355 H 434.147 0.932329 -3.09983 0
M  V30 4356 H 433.054 -1.35224 -3.48805 0
M  V30 4357 H 434.387 -1.76076 -4.59628 0
M  V30 4358 N 436.039 1.36541 -0.78704 0
M  V30 4359 C 437.002 2.28413 -0.189778 0
M  V30 4360 C 438.002 1.48719 0.611499 0
M  V30 4361 O 439.192 1.68737 0.432842 0
M  V30 4362 C 436.324 3.32824 0.737638 0
M  V30 4363 H 437.517 2.82743 -0.999831 0
M  V30 4364 H 435.07 1.46065 -0.556298 0
M  V30 4365 H 435.805 2.83646 1.57212 0
M  V30 4366 H 435.59 3.91752 0.165044 0
M  V30 4367 H 437.08 4.0144 1.15047 0
M  V30 4368 N 437.518 0.538854 1.48102 0
M  V30 4369 C 438.481 -0.208395 2.28251 0
M  V30 4370 C 439.481 -0.859656 1.35892 0
M  V30 4371 O 440.671 -0.71834 1.58699 0
M  V30 4372 C 437.803 -1.30252 3.15035 0
M  V30 4373 H 438.996 0.495407 2.9578 0
M  V30 4374 H 436.549 0.295112 1.53489 0
M  V30 4375 H 437.284 -2.0393 2.52157 0
M  V30 4376 H 437.069 -0.840551 3.82985 0
M  V30 4377 H 438.559 -1.82787 3.75471 0
M  V30 4378 N 438.996 -1.55193 0.274407 0
M  V30 4379 C 440.412 -1.59401 -0.0797543 0
M  V30 4380 C 440.612 -1.29162 -1.54659 0
M  V30 4381 O 439.668 -1.05215 -2.29534 0
M  V30 4382 C 440.981 -2.99257 0.294238 0
M  V30 4383 C 442.529 -3.12072 0.240796 0
M  V30 4384 C 443.004 -4.54194 0.589218 0
M  V30 4385 N 444.495 -4.60033 0.540744 0
M  V30 4386 C 445.23 -5.68027 0.783147 0
M  V30 4387 N 444.726 -6.8417 1.09013 0
M  V30 4388 N 446.519 -5.57572 0.711993 0
M  V30 4389 H 438.67 -1.73113 1.23067 0
M  V30 4390 H 440.933 -0.807197 0.497129 0
M  V30 4391 H 440.639 -3.26217 1.31435 0
M  V30 4392 H 440.513 -3.75427 -0.365281 0
M  V30 4393 H 442.9 -2.84877 -0.770024 0
M  V30 4394 H 442.981 -2.38117 0.934563 0
M  V30 4395 H 442.625 -4.82115 1.59772 0
M  V30 4396 H 442.555 -5.26448 -0.126331 0
M  V30 4397 H 445.046 -3.76599 0.313327 0
M  V30 4398 H 445.359 -7.6243 1.26178 0
M  V30 4399 H 443.704 -6.85787 1.12789 0
M  V30 4400 H 446.895 -4.65714 0.472014 0
M  V30 4401 H 447.068 -6.41659 0.90429 0
M  V30 4402 N 440.474 -0.00167713 -1.576 0
M  V30 4403 C 441.384 1.00548 -2.1196 0
M  V30 4404 C 442.4 1.3758 -1.06526 0
M  V30 4405 O 443.576 1.46278 -1.38436 0
M  V30 4406 C 440.641 2.27809 -2.6135 0
M  V30 4407 C 439.702 1.97074 -3.81393 0
M  V30 4408 C 438.935 3.18267 -4.28417 0
M  V30 4409 O 439.158 4.30009 -3.74765 0
M  V30 4410 O 438.092 3.02167 -5.20556 0
M  V30 4411 H 441.918 0.573373 -2.98238 0
M  V30 4412 H 439.503 0.217255 -1.47812 0
M  V30 4413 H 441.385 3.02568 -2.93309 0
M  V30 4414 H 440.06 2.70254 -1.78169 0
M  V30 4415 H 438.967 1.19785 -3.54404 0
M  V30 4416 H 440.3 1.59464 -4.65652 0
M  V30 4417 N 441.952 1.55251 0.271103 0
M  V30 4418 C 443.192 1.77698 1.01008 0
M  V30 4419 C 443.556 0.567246 1.83429 0
M  V30 4420 O 444.757 0.670013 2.60316 0
M  V30 4421 C 443.028 3.04715 1.86772 0
M  V30 4422 S 444.587 3.48289 2.66909 0
M  V30 4423 H 441.405 0.624343 0.340172 0
M  V30 4424 H 444.007 1.9348 0.280315 0
M  V30 4425 H 442.711 3.90853 1.25149 0
M  V30 4426 H 442.242 2.91604 2.64066 0
M  V30 4427 H 444.257 3.07712 3.89266 0
M  V30 4428 N 443.43 -0.535701 1.48216 0
M  V30 4429 C 444.846 -0.863701 1.3421 0
M  V30 4430 C 445.046 -1.98458 0.34879 0
M  V30 4431 O 444.102 -2.51432 -0.23204 0
M  V30 4432 C 445.415 -1.23662 2.74095 0
M  V30 4433 C 446.963 -1.34683 2.82541 0
M  V30 4434 C 447.438 -1.75322 4.23115 0
M  V30 4435 N 448.929 -1.82434 4.2576 0
M  V30 4436 C 449.664 -2.15252 5.31464 0
M  V30 4437 N 449.16 -2.46533 6.47452 0
M  V30 4438 N 450.953 -2.16209 5.18855 0
M  V30 4439 H 443.104 0.203965 2.11418 0
M  V30 4440 H 445.367 0.0286033 0.947568 0
M  V30 4441 H 445.073 -0.486674 3.48316 0
M  V30 4442 H 444.947 -2.18805 3.07253 0
M  V30 4443 H 447.334 -2.08756 2.08579 0
M  V30 4444 H 447.415 -0.376756 2.5301 0
M  V30 4445 H 447.059 -1.01812 4.97591 0
M  V30 4446 H 446.989 -2.7337 4.50085 0
M  V30 4447 H 449.48 -1.6056 3.42095 0
M  V30 4448 H 449.793 -2.70662 7.23852 0
M  V30 4449 H 448.138 -2.44065 6.50736 0
M  V30 4450 H 451.329 -1.91224 4.2726 0
M  V30 4451 H 451.502 -2.41453 6.01335 0
M  V30 4452 N 444.908 -1.36708 -0.784132 0
M  V30 4453 C 446.324 -1.17237 -1.08294 0
M  V30 4454 C 446.524 -5.93947e-05 -2.015 0
M  V30 4455 O 445.58 0.663686 -2.43622 0
M  V30 4456 C 446.893 -2.48557 -1.69233 0
M  V30 4457 C 448.441 -2.54968 -1.8155 0
M  V30 4458 C 448.916 -3.86388 -2.45904 0
M  V30 4459 N 450.407 -3.87762 -2.53367 0
M  V30 4460 C 451.142 -4.86191 -3.03983 0
M  V30 4461 N 450.638 -5.95015 -3.54866 0
M  V30 4462 N 452.431 -4.73606 -3.02743 0
M  V30 4463 H 444.582 -2.11758 -0.16501 0
M  V30 4464 H 446.845 -0.93822 -0.135822 0
M  V30 4465 H 446.551 -3.34638 -1.08215 0
M  V30 4466 H 446.425 -2.64748 -2.68679 0
M  V30 4467 H 448.812 -1.69302 -2.41704 0
M  V30 4468 H 448.893 -2.42672 -0.80895 0
M  V30 4469 H 448.537 -4.72462 -1.86392 0
M  V30 4470 H 448.467 -3.95982 -3.4714 0
M  V30 4471 H 450.958 -3.09145 -2.17343 0
M  V30 4472 H 451.271 -6.66086 -3.91854 0
M  V30 4473 H 449.616 -5.98676 -3.53003 0
M  V30 4474 H 452.807 -3.87717 -2.62284 0
M  V30 4475 H 452.98 -5.50473 -3.41881 0
M  V30 4476 N 446.386 1.0089 -1.21074 0
M  V30 4477 C 447.333 2.09588 -0.966512 0
M  V30 4478 C 448.303 1.65761 0.106089 0
M  V30 4479 O 449.488 1.90758 -0.0402287 0
M  V30 4480 C 446.628 3.40958 -0.533058 0
M  V30 4481 C 445.741 3.9822 -1.67467 0
M  V30 4482 C 444.876 5.17682 -1.19076 0
M  V30 4483 C 443.915 5.67043 -2.30496 0
M  V30 4484 N 443.052 6.77759 -1.83267 0
M  V30 4485 H 447.892 2.29815 -1.89708 0
M  V30 4486 H 445.429 1.12689 -0.945489 0
M  V30 4487 H 447.387 4.1637 -0.263019 0
M  V30 4488 H 446.017 3.20781 0.360505 0
M  V30 4489 H 445.069 3.1983 -2.05944 0
M  V30 4490 H 446.381 4.3085 -2.51336 0
M  V30 4491 H 445.535 6.00326 -0.877151 0
M  V30 4492 H 444.274 4.86635 -0.322066 0
M  V30 4493 H 443.279 4.82999 -2.62664 0
M  V30 4494 H 444.504 6.00121 -3.17855 0
M  V30 4495 H 442.45 6.48527 -0.987356 0
M  V30 4496 H 442.367 7.09624 -2.60711 0
M  V30 4497 H 443.635 7.63949 -1.54928 0
M  V30 4498 N 447.864 1.01787 1.20321 0
M  V30 4499 C 448.811 0.589197 2.23153 0
M  V30 4500 C 449.781 -0.391367 1.61423 0
M  V30 4501 O 450.966 -0.290518 1.88575 0
M  V30 4502 C 448.106 -0.0650747 3.45039 0
M  V30 4503 C 447.219 0.960207 4.21194 0
M  V30 4504 C 446.354 0.276854 5.30478 0
M  V30 4505 C 445.393 1.2888 5.98378 0
M  V30 4506 N 444.53 0.632031 6.99249 0
M  V30 4507 H 449.37 1.47071 2.59179 0
M  V30 4508 H 446.907 0.736192 1.27352 0
M  V30 4509 H 448.865 -0.461552 4.14639 0
M  V30 4510 H 447.495 -0.910233 3.09701 0
M  V30 4511 H 446.547 1.47484 3.50646 0
M  V30 4512 H 447.859 1.72977 4.67847 0
M  V30 4513 H 447.013 -0.175056 6.06447 0
M  V30 4514 H 445.752 -0.525004 4.84866 0
M  V30 4515 H 444.757 1.75109 5.21169 0
M  V30 4516 H 445.982 2.09196 6.46076 0
M  V30 4517 H 443.928 -0.149935 6.55829 0
M  V30 4518 H 443.845 1.33964 7.44036 0
M  V30 4519 H 445.113 0.203755 7.79234 0
M  V30 4520 N 449.342 -1.36122 0.79427 0
M  V30 4521 C 450.289 -2.29982 0.194101 0
M  V30 4522 C 451.259 -1.52214 -0.664833 0
M  V30 4523 O 452.444 -1.80702 -0.612498 0
M  V30 4524 C 449.584 -3.38706 -0.661244 0
M  V30 4525 C 448.697 -4.31456 0.216766 0
M  V30 4526 C 447.832 -5.27265 -0.645411 0
M  V30 4527 C 446.871 -6.11653 0.233756 0
M  V30 4528 N 446.008 -6.99636 -0.587682 0
M  V30 4529 H 450.848 -2.80722 0.999965 0
M  V30 4530 H 448.385 -1.38172 0.504677 0
M  V30 4531 H 450.343 -4.00394 -1.17219 0
M  V30 4532 H 448.973 -2.89274 -1.43249 0
M  V30 4533 H 448.025 -3.7088 0.845724 0
M  V30 4534 H 449.337 -4.90724 0.893973 0
M  V30 4535 H 448.491 -5.94266 -1.22198 0
M  V30 4536 H 447.23 -4.68463 -1.35623 0
M  V30 4537 H 446.235 -5.4361 0.82269 0
M  V30 4538 H 447.46 -6.72531 0.942247 0
M  V30 4539 H 445.406 -6.43337 -1.2827 0
M  V30 4540 H 445.323 -7.55993 0.0317402 0
M  V30 4541 H 446.591 -7.71001 -1.14792 0
M  V30 4542 N 450.82 -0.546701 -1.47814 0
M  V30 4543 C 451.73 0.21026 -2.33656 0
M  V30 4544 C 452.746 0.922413 -1.47538 0
M  V30 4545 O 453.922 0.893652 -1.80488 0
M  V30 4546 C 450.987 1.23348 -3.24016 0
M  V30 4547 C 450.048 0.529883 -4.26017 0
M  V30 4548 C 449.281 1.50435 -5.12059 0
M  V30 4549 O 449.504 2.73837 -5.00369 0
M  V30 4550 O 448.438 1.03459 -5.92942 0
M  V30 4551 H 452.264 -0.493605 -2.99662 0
M  V30 4552 H 449.849 -0.307427 -1.46203 0
M  V30 4553 H 451.731 1.82438 -3.79861 0
M  V30 4554 H 450.406 1.91945 -2.60651 0
M  V30 4555 H 449.313 -0.101948 -3.73961 0
M  V30 4556 H 450.646 -0.11445 -4.92067 0
M  V30 4557 N 452.299 1.55045 -0.282633 0
M  V30 4558 C 453.529 2.03872 0.334635 0
M  V30 4559 C 453.937 1.16018 1.49454 0
M  V30 4560 O 453.28 0.174449 1.8287 0
M  V30 4561 C 453.342 3.48791 0.870905 0
M  V30 4562 C 453.006 4.56715 -0.161338 0
M  V30 4563 C 454.003 5.10513 -0.983466 0
M  V30 4564 C 451.688 5.01417 -0.297745 0
M  V30 4565 C 453.682 6.07538 -1.92811 0
M  V30 4566 C 451.369 5.98265 -1.24586 0
M  V30 4567 C 452.367 6.51208 -2.05954 0
M  V30 4568 O 452.055 7.46162 -2.99162 0
M  V30 4569 H 451.787 0.671324 0.0793742 0
M  V30 4570 H 454.341 2.01169 -0.41473 0
M  V30 4571 H 452.571 3.48758 1.67047 0
M  V30 4572 H 454.26 3.80916 1.40207 0
M  V30 4573 H 455.026 4.76785 -0.888856 0
M  V30 4574 H 450.905 4.59849 0.325604 0
M  V30 4575 H 454.449 6.48787 -2.56363 0
M  V30 4576 H 450.346 6.31412 -1.34126 0
M  V30 4577 H 451.114 7.63903 -2.93929 0
M  V30 4578 N 453.777 0.010035 1.57597 0
M  V30 4579 C 455.023 -0.673697 1.91283 0
M  V30 4580 C 455.356 -1.72863 0.884979 0
M  V30 4581 O 454.631 -1.94268 -0.0949487 0
M  V30 4582 C 454.914 -1.30766 3.35518 0
M  V30 4583 C 454.767 -0.263578 4.49027 0
M  V30 4584 C 456.086 -2.23105 3.79358 0
M  V30 4585 H 453.205 -0.243439 0.695634 0
M  V30 4586 H 455.847 0.0633864 1.89894 0
M  V30 4587 H 453.997 -1.93588 3.36832 0
M  V30 4588 H 455.669 0.365738 4.59848 0
M  V30 4589 H 453.912 0.413077 4.31829 0
M  V30 4590 H 454.583 -0.746398 5.4693 0
M  V30 4591 H 457.059 -1.70289 3.79659 0
M  V30 4592 H 455.935 -2.64424 4.81011 0
M  V30 4593 H 456.196 -3.11433 3.13787 0
M  V30 4594 N 455.255 -1.55392 -0.262866 0
M  V30 4595 C 456.202 -1.88966 -1.32516 0
M  V30 4596 C 457.172 -0.742187 -1.48596 0
M  V30 4597 O 458.357 -0.99439 -1.62839 0
M  V30 4598 C 455.497 -2.17592 -2.67858 0
M  V30 4599 C 454.61 -3.45061 -2.59917 0
M  V30 4600 C 453.745 -3.63336 -3.87505 0
M  V30 4601 C 452.784 -4.84462 -3.74116 0
M  V30 4602 N 451.921 -4.99342 -4.93561 0
M  V30 4603 H 456.761 -2.79566 -1.03184 0
M  V30 4604 H 454.298 -1.38404 -0.498285 0
M  V30 4605 H 456.256 -2.3219 -3.46617 0
M  V30 4606 H 454.886 -1.30215 -2.95371 0
M  V30 4607 H 453.938 -3.38881 -1.72812 0
M  V30 4608 H 455.25 -4.3396 -2.45926 0
M  V30 4609 H 454.404 -3.77807 -4.74707 0
M  V30 4610 H 453.143 -2.72641 -4.04374 0
M  V30 4611 H 452.148 -4.69985 -2.85297 0
M  V30 4612 H 453.373 -5.76603 -3.58757 0
M  V30 4613 H 451.319 -4.1158 -5.10821 0
M  V30 4614 H 451.236 -5.82303 -4.82141 0
M  V30 4615 H 452.504 -5.18208 -5.82306 0
M  V30 4616 N 456.733 0.527833 -1.48498 0
M  V30 4617 C 457.973 1.29401 -1.58224 0
M  V30 4618 C 458.337 1.90348 -0.251327 0
M  V30 4619 O 459.538 2.67868 -0.223588 0
M  V30 4620 C 457.809 2.35266 -2.69044 0
M  V30 4621 S 459.368 3.2158 -2.98549 0
M  V30 4622 H 456.186 0.440138 -0.558391 0
M  V30 4623 H 458.788 0.601079 -1.8603 0
M  V30 4624 H 457.492 1.88975 -3.64303 0
M  V30 4625 H 457.023 3.09263 -2.43146 0
M  V30 4626 H 459.038 4.35391 -2.38011 0
M  V30 4627 N 458.211 1.37122 0.776871 0
M  V30 4628 C 459.141 1.35164 1.90402 0
M  V30 4629 C 460.122 0.221069 1.68657 0
M  V30 4630 O 461.307 0.420642 1.8959 0
M  V30 4631 C 458.437 1.15274 3.27611 0
M  V30 4632 C 457.391 2.25289 3.63908 0
M  V30 4633 C 456.717 1.90527 4.99603 0
M  V30 4634 C 458.017 3.67446 3.71188 0
M  V30 4635 H 459.711 2.29482 1.92297 0
M  V30 4636 H 457.257 1.10465 0.923773 0
M  V30 4637 H 459.21 1.12536 4.06096 0
M  V30 4638 H 457.934 0.174102 3.26136 0
M  V30 4639 H 456.593 2.27174 2.87728 0
M  V30 4640 H 456.241 0.91206 4.94662 0
M  V30 4641 H 455.941 2.64193 5.24858 0
M  V30 4642 H 457.465 1.89367 5.80493 0
M  V30 4643 H 458.879 3.67719 4.39836 0
M  V30 4644 H 457.276 4.40123 4.07936 0
M  V30 4645 H 458.346 4.01443 2.71977 0
M  V30 4646 N 459.689 -1.00246 1.21608 0
M  V30 4647 C 460.599 -2.12515 0.993709 0
M  V30 4648 C 461.615 -1.73913 -0.0549939 0
M  V30 4649 O 462.791 -2.00943 0.135619 0
M  V30 4650 C 459.856 -3.42083 0.563953 0
M  V30 4651 C 458.917 -3.94843 1.68516 0
M  V30 4652 C 458.15 -5.18226 1.27582 0
M  V30 4653 O 458.373 -5.70201 0.150506 0
M  V30 4654 O 457.307 -5.64497 2.0887 0
M  V30 4655 H 461.133 -2.34152 1.93407 0
M  V30 4656 H 458.718 -1.10891 1.00118 0
M  V30 4657 H 460.6 -4.20073 0.334194 0
M  V30 4658 H 459.275 -3.21828 -0.347665 0
M  V30 4659 H 458.182 -3.18068 1.96935 0
M  V30 4660 H 459.515 -4.19512 2.5743 0
M  V30 4661 N 461.167 -1.02423 -1.1978 0
M  V30 4662 C 462.115 -0.594474 -2.24875 0
M  V30 4663 C 463.109 0.370598 -1.65296 0
M  V30 4664 O 464.315 0.239684 -1.78397 0
M  V30 4665 H 460.69 -0.173961 -0.731602 0
M  V30 4666 H 462.661 -1.4916 -2.58445 0
M  V30 4667 C 461.41 0.0436512 -3.47673 0
M  V30 4668 H 460.733 -0.689963 -3.93801 0
M  V30 4669 H 462.173 0.307362 -4.22884 0
M  V30 4670 C 460.632 1.28881 -3.11274 0
M  V30 4671 O 461.162 2.38135 -3.23503 0
M  V30 4672 N 459.368 1.1758 -2.6575 0
M  V30 4673 H 458.915 0.286769 -2.55999 0
M  V30 4674 H 458.873 2.00988 -2.41767 0
M  V30 4675 N 462.645 1.35699 -0.801477 0
M  V30 4676 C 464.061 1.52065 -0.484596 0
M  V30 4677 C 464.261 1.75215 0.995084 0
M  V30 4678 O 463.317 1.79061 1.78026 0
M  V30 4679 C 464.63 2.69908 -1.32552 0
M  V30 4680 C 466.178 2.83784 -1.32044 0
M  V30 4681 C 466.653 4.04646 -2.14536 0
M  V30 4682 N 468.144 4.11814 -2.12046 0
M  V30 4683 C 468.879 5.04437 -2.72636 0
M  V30 4684 N 468.375 6.02426 -3.42133 0
M  V30 4685 N 470.168 4.97144 -2.62305 0
M  V30 4686 H 462.319 1.18928 -1.75983 0
M  V30 4687 H 464.582 0.581455 -0.748741 0
M  V30 4688 H 464.288 2.59363 -2.37537 0
M  V30 4689 H 464.162 3.64376 -0.975181 0
M  V30 4690 H 466.549 2.93783 -0.27846 0
M  V30 4691 H 466.63 1.90188 -1.71062 0
M  V30 4692 H 466.274 3.95407 -3.18772 0
M  V30 4693 H 466.204 4.97413 -1.72882 0
M  V30 4694 H 468.695 3.41664 -1.61476 0
M  V30 4695 H 469.008 6.69688 -3.85666 0
M  V30 4696 H 467.353 6.02615 -3.46237 0
M  V30 4697 H 470.544 4.19546 -2.07603 0
M  V30 4698 H 470.717 5.69138 -3.09815 0
M  V30 4699 N 464.123 0.554532 1.47522 0
M  V30 4700 C 465.369 0.0295227 2.02779 0
M  V30 4701 C 465.702 -1.31582 1.42828 0
M  V30 4702 O 464.977 -1.85561 0.582872 0
M  V30 4703 C 465.26 -0.0664057 3.60039 0
M  V30 4704 C 465.113 1.30585 4.30427 0
M  V30 4705 C 466.432 -0.781162 4.33112 0
M  V30 4706 H 463.551 0.0122027 0.736899 0
M  V30 4707 H 466.193 0.716305 1.7598 0
M  V30 4708 H 464.343 -0.651307 3.83002 0
M  V30 4709 H 466.015 1.93374 4.18813 0
M  V30 4710 H 464.258 1.88125 3.90886 0
M  V30 4711 H 464.929 1.19147 5.38988 0
M  V30 4712 H 467.405 -0.284565 4.15126 0
M  V30 4713 H 466.281 -0.817237 5.42782 0
M  V30 4714 H 466.542 -1.83672 4.0214 0
M  V30 4715 N 465.601 -1.54893 0.290851 0
M  V30 4716 C 466.564 -2.21824 -0.576784 0
M  V30 4717 C 467.564 -1.20104 -1.06919 0
M  V30 4718 O 468.754 -1.44906 -0.966843 0
M  V30 4719 C 465.886 -2.89662 -1.79747 0
M  V30 4720 H 467.079 -2.99899 0.00784051 0
M  V30 4721 H 464.632 -1.56245 0.0415934 0
M  V30 4722 H 465.367 -2.15639 -2.42219 0
M  V30 4723 H 465.152 -3.64219 -1.45214 0
M  V30 4724 H 466.642 -3.4075 -2.4141 0
M  V30 4725 N 467.08 -0.0183926 -1.57589 0
M  V30 4726 C 468.326 0.663543 -1.91638 0
M  V30 4727 C 468.659 1.72392 -0.894134 0
M  V30 4728 O 467.934 1.94316 0.0846449 0
M  V30 4729 C 468.217 1.28984 -3.36207 0
M  V30 4730 C 468.07 0.239761 -4.49161 0
M  V30 4731 C 469.389 2.2109 -3.80536 0
M  V30 4732 H 466.508 0.239746 -0.696915 0
M  V30 4733 H 469.15 -0.073456 -1.89858 0
M  V30 4734 H 467.3 1.91799 -3.37854 0
M  V30 4735 H 468.972 -0.390119 -4.59647 0
M  V30 4736 H 467.215 -0.435972 -4.31604 0
M  V30 4737 H 467.886 0.717383 -5.47319 0
M  V30 4738 H 470.362 1.68273 -3.80557 0
M  V30 4739 H 469.238 2.61869 -4.82406 0
M  V30 4740 H 469.499 3.09764 -3.15434 0
M  V30 4741 N 468.558 1.5553 0.254621 0
M  V30 4742 C 469.488 1.9268 1.31897 0
M  V30 4743 C 470.469 0.790797 1.506 0
M  V30 4744 O 471.654 1.05045 1.63337 0
M  V30 4745 C 468.784 2.21477 2.67517 0
M  V30 4746 C 467.738 3.37256 2.63519 0
M  V30 4747 C 467.064 3.51576 4.02862 0
M  V30 4748 C 468.364 4.73157 2.21179 0
M  V30 4749 H 470.058 2.81832 1.01051 0
M  V30 4750 H 467.604 1.35599 0.484662 0
M  V30 4751 H 469.557 2.46055 3.42104 0
M  V30 4752 H 468.281 1.29144 2.99982 0
M  V30 4753 H 466.94 3.12675 1.9139 0
M  V30 4754 H 466.588 2.56676 4.32581 0
M  V30 4755 H 466.288 4.2943 4.01078 0
M  V30 4756 H 467.812 3.78467 4.79161 0
M  V30 4757 H 469.226 4.97158 2.85494 0
M  V30 4758 H 467.623 5.54058 2.30521 0
M  V30 4759 H 468.693 4.70739 1.16332 0
M  V30 4760 N 470.036 -0.519951 1.48776 0
M  V30 4761 C 470.946 -1.65025 1.66745 0
M  V30 4762 C 471.962 -1.6508 0.549954 0
M  V30 4763 O 473.138 -1.83848 0.822295 0
M  V30 4764 C 470.203 -3.0146 1.71238 0
M  V30 4765 C 469.264 -3.12182 2.94688 0
M  V30 4766 C 468.497 -4.42109 2.98958 0
M  V30 4767 O 468.72 -5.29799 2.1135 0
M  V30 4768 O 467.654 -4.57406 3.91233 0
M  V30 4769 H 471.48 -1.52801 2.62461 0
M  V30 4770 H 469.065 -0.694157 1.32294 0
M  V30 4771 H 470.947 -3.82584 1.76657 0
M  V30 4772 H 469.622 -3.13988 0.786975 0
M  V30 4773 H 468.529 -2.30316 2.94797 0
M  V30 4774 H 469.862 -3.04574 3.86646 0
M  V30 4775 N 471.514 -1.37532 -0.769588 0
M  V30 4776 C 472.462 -1.33561 -1.90432 0
M  V30 4777 C 473.456 -0.224027 -1.67912 0
M  V30 4778 O 474.662 -0.392174 -1.75676 0
M  V30 4779 H 471.037 -0.416279 -0.626271 0
M  V30 4780 H 473.008 -2.29348 -1.90899 0
M  V30 4781 C 471.757 -1.16162 -3.27722 0
M  V30 4782 H 471.08 -2.00951 -3.45628 0
M  V30 4783 H 472.52 -1.17434 -4.07413 0
M  V30 4784 C 470.979 0.132583 -3.36639 0
M  V30 4785 O 471.509 1.11539 -3.85904 0
M  V30 4786 N 469.715 0.184013 -2.90017 0
M  V30 4787 H 469.262 -0.616415 -2.50116 0
M  V30 4788 H 469.22 1.04956 -2.96364 0
M  V30 4789 N 472.992 0.995999 -1.22138 0
M  V30 4790 C 473.924 2.08745 -0.946485 0
M  V30 4791 C 474.937 1.62633 0.0737356 0
M  V30 4792 O 476.126 1.77782 -0.159886 0
M  V30 4793 C 473.226 3.36516 -0.401305 0
M  V30 4794 C 472.399 4.11672 -1.47801 0
M  V30 4795 C 471.458 5.17728 -0.940461 0
M  V30 4796 O 470.484 5.45482 -1.62596 0
M  V30 4797 N 471.686 5.80005 0.239723 0
M  V30 4798 H 474.451 2.32908 -1.88611 0
M  V30 4799 H 472.012 1.16152 -1.12785 0
M  V30 4800 H 474.004 4.04691 -0.0270837 0
M  V30 4801 H 472.574 3.0944 0.443354 0
M  V30 4802 H 471.794 3.38171 -2.02568 0
M  V30 4803 H 473.082 4.58657 -2.20253 0
M  V30 4804 H 472.48 5.5982 0.813518 0
M  V30 4805 H 471.037 6.4943 0.555361 0
M  V30 4806 N 474.47 1.03057 1.19235 0
M  V30 4807 C 475.418 0.606391 2.24557 0
M  V30 4808 C 476.412 -0.361826 1.65491 0
M  V30 4809 O 477.618 -0.23022 1.78522 0
M  V30 4810 H 473.993 0.177838 0.730669 0
M  V30 4811 H 475.964 1.50529 2.5765 0
M  V30 4812 C 474.713 -0.0252127 3.47691 0
M  V30 4813 H 474.036 0.710838 3.9343 0
M  V30 4814 H 475.476 -0.284931 4.23042 0
M  V30 4815 C 473.935 -1.27229 3.11953 0
M  V30 4816 O 474.465 -2.36416 3.24762 0
M  V30 4817 N 472.671 -1.16169 2.6637 0
M  V30 4818 H 472.218 -0.273189 2.56147 0
M  V30 4819 H 472.176 -1.99703 2.42829 0
M  V30 4820 N 475.948 -1.35272 0.808662 0
M  V30 4821 C 476.895 -2.29764 0.218482 0
M  V30 4822 C 477.865 -1.52911 -0.648652 0
M  V30 4823 O 479.05 -1.81341 -0.593297 0
M  V30 4824 C 476.19 -3.39388 -0.625282 0
M  V30 4825 C 475.303 -4.31202 0.262516 0
M  V30 4826 C 474.438 -5.27919 -0.589451 0
M  V30 4827 C 473.477 -6.11371 0.298617 0
M  V30 4828 N 472.614 -7.0022 -0.513443 0
M  V30 4829 H 477.454 -2.79645 1.02968 0
M  V30 4830 H 474.991 -1.37629 0.519303 0
M  V30 4831 H 476.949 -4.01615 -1.12966 0
M  V30 4832 H 475.579 -2.90777 -1.40173 0
M  V30 4833 H 474.631 -3.69962 0.885013 0
M  V30 4834 H 475.943 -4.89748 0.945971 0
M  V30 4835 H 475.097 -5.95529 -1.15888 0
M  V30 4836 H 473.836 -4.69875 -1.30647 0
M  V30 4837 H 472.841 -5.42707 0.880301 0
M  V30 4838 H 474.066 -6.71494 1.01352 0
M  V30 4839 H 472.012 -6.44662 -1.21439 0
M  V30 4840 H 471.929 -7.55917 0.111922 0
M  V30 4841 H 473.197 -7.72175 -1.06608 0
M  V30 4842 N 477.426 -0.562348 -1.47226 0
M  V30 4843 C 478.654 -0.0452275 -2.06851 0
M  V30 4844 C 479.069 1.25078 -1.41424 0
M  V30 4845 O 478.426 1.75156 -0.512513 0
M  V30 4846 C 478.477 0.148674 -3.61194 0
M  V30 4847 O 478.198 -1.09602 -4.24169 0
M  V30 4848 C 479.699 0.702488 -4.37699 0
M  V30 4849 H 476.919 -0.0481775 -0.669268 0
M  V30 4850 H 479.463 -0.777223 -1.89155 0
M  V30 4851 H 477.618 0.830817 -3.78386 0
M  V30 4852 H 478.032 -0.896982 -5.16773 0
M  V30 4853 H 479.506 0.78743 -5.46355 0
M  V30 4854 H 479.983 1.71493 -4.04335 0
M  V30 4855 H 480.589 0.0558772 -4.25263 0
M  V30 4856 N 478.904 1.54736 -0.299062 0
M  V30 4857 C 479.834 2.26409 0.571085 0
M  V30 4858 C 480.815 1.2629 1.13951 0
M  V30 4859 O 482 1.55059 1.16921 0
M  V30 4860 C 479.13 3.00338 1.74396 0
M  V30 4861 C 478.084 4.07588 1.30599 0
M  V30 4862 C 477.41 4.69222 2.56387 0
M  V30 4863 C 478.71 5.20455 0.438645 0
M  V30 4864 H 480.404 2.99388 -0.0266991 0
M  V30 4865 H 477.95 1.43993 -0.0142812 0
M  V30 4866 H 479.903 3.49198 2.35878 0
M  V30 4867 H 478.627 2.24934 2.36796 0
M  V30 4868 H 477.286 3.59575 0.71424 0
M  V30 4869 H 476.934 3.9046 3.17097 0
M  V30 4870 H 476.634 5.41653 2.27784 0
M  V30 4871 H 478.158 5.20844 3.18675 0
M  V30 4872 H 479.572 5.65221 0.959085 0
M  V30 4873 H 477.969 5.99594 0.246466 0
M  V30 4874 H 479.039 4.8192 -0.536738 0
M  V30 4875 N 480.382 0.0267497 1.57577 0
M  V30 4876 C 481.631 -0.651736 1.9088 0
M  V30 4877 C 481.944 -1.73427 0.904576 0
M  V30 4878 O 483.15 -2.46923 1.12877 0
M  V30 4879 C 481.606 -1.21048 3.38933 0
M  V30 4880 C 481.214 -0.161362 4.47709 0
M  V30 4881 C 482.958 -1.86562 3.81307 0
M  V30 4882 C 480.865 -0.731611 5.86857 0
M  V30 4883 H 479.795 -0.247198 0.712326 0
M  V30 4884 H 482.446 0.0916641 1.83271 0
M  V30 4885 H 480.828 -2.00542 3.41466 0
M  V30 4886 H 482.002 0.61094 4.56732 0
M  V30 4887 H 480.317 0.394877 4.14523 0
M  V30 4888 H 482.914 -2.30178 4.8262 0
M  V30 4889 H 483.257 -2.70735 3.16241 0
M  V30 4890 H 483.79 -1.13762 3.81186 0
M  V30 4891 H 480.529 0.0719329 6.55461 0
M  V30 4892 H 480.049 -1.47245 5.81445 0
M  V30 4893 H 481.728 -1.22208 6.35354 0
M  V30 4894 N 481.861 -1.55662 -0.24637 0
M  V30 4895 C 482.771 -1.93495 -1.32653 0
M  V30 4896 C 483.787 -0.835462 -1.5263 0
M  V30 4897 O 484.963 -1.1369 -1.66242 0
M  V30 4898 C 482.028 -2.22242 -2.66101 0
M  V30 4899 C 481.089 -3.45625 -2.54641 0
M  V30 4900 C 480.322 -3.72991 -3.81724 0
M  V30 4901 O 480.545 -3.02421 -4.8363 0
M  V30 4902 O 479.479 -4.66515 -3.80325 0
M  V30 4903 H 483.305 -2.85498 -1.03559 0
M  V30 4904 H 480.89 -1.42551 -0.44717 0
M  V30 4905 H 482.772 -2.42037 -3.44958 0
M  V30 4906 H 481.447 -1.33417 -2.94926 0
M  V30 4907 H 480.354 -3.31136 -1.74067 0
M  V30 4908 H 481.687 -4.34754 -2.3076 0
M  V30 4909 N 483.339 0.512053 -1.4905 0
M  V30 4910 C 484.249 1.64139 -1.67617 0
M  V30 4911 C 485.265 1.64786 -0.558701 0
M  V30 4912 O 486.441 1.8341 -0.832034 0
M  V30 4913 C 483.506 3.00548 -1.72835 0
M  V30 4914 C 482.567 3.10615 -2.96339 0
M  V30 4915 C 481.8 4.40517 -3.01298 0
M  V30 4916 O 482.023 5.28671 -2.14157 0
M  V30 4917 O 480.957 4.55325 -3.93653 0
M  V30 4918 H 484.783 1.51407 -2.63267 0
M  V30 4919 H 482.368 0.687131 -1.32661 0
M  V30 4920 H 484.25 3.81641 -1.78683 0
M  V30 4921 H 482.925 3.13566 -0.803616 0
M  V30 4922 H 481.832 2.2875 -2.96014 0
M  V30 4923 H 483.165 3.0252 -3.88256 0
M  V30 4924 N 484.817 1.37938 0.762283 0
M  V30 4925 C 485.747 1.37176 1.88958 0
M  V30 4926 C 486.728 0.238945 1.68413 0
M  V30 4927 O 487.913 0.440726 1.89133 0
M  V30 4928 C 485.043 1.18742 3.2637 0
M  V30 4929 C 483.997 2.29136 3.61498 0
M  V30 4930 C 483.323 1.95816 4.97554 0
M  V30 4931 C 484.623 3.71363 3.6727 0
M  V30 4932 H 486.317 2.31509 1.89853 0
M  V30 4933 H 483.863 1.11438 0.912005 0
M  V30 4934 H 485.816 1.16837 4.04879 0
M  V30 4935 H 484.54 0.208683 3.25933 0
M  V30 4936 H 483.199 2.30213 2.85303 0
M  V30 4937 H 482.847 0.964475 4.93667 0
M  V30 4938 H 482.547 2.69745 5.22026 0
M  V30 4939 H 484.071 1.95513 5.78452 0
M  V30 4940 H 485.485 3.72364 4.35911 0
M  V30 4941 H 483.882 4.44425 4.03245 0
M  V30 4942 H 484.952 4.04305 2.67704 0
M  V30 4943 N 486.295 -0.989507 1.22664 0
M  V30 4944 C 487.242 -2.08024 0.999733 0
M  V30 4945 C 488.212 -1.65909 -0.0797047 0
M  V30 4946 O 489.397 -1.90669 0.0705715 0
M  V30 4947 C 486.537 -3.40067 0.587234 0
M  V30 4948 C 485.65 -3.95505 1.73781 0
M  V30 4949 C 484.785 -5.15722 1.27297 0
M  V30 4950 C 483.824 -5.63305 2.39488 0
M  V30 4951 N 482.961 -6.74758 1.94026 0
M  V30 4952 H 487.801 -2.26768 1.9334 0
M  V30 4953 H 485.338 -1.11171 0.963297 0
M  V30 4954 H 487.296 -4.15899 0.329227 0
M  V30 4955 H 485.926 -3.21314 -0.309426 0
M  V30 4956 H 484.978 -3.16513 2.11006 0
M  V30 4957 H 486.29 -4.26797 2.58158 0
M  V30 4958 H 485.444 -5.98854 0.972546 0
M  V30 4959 H 484.183 -4.86061 0.399445 0
M  V30 4960 H 483.188 -4.78759 2.70315 0
M  V30 4961 H 484.413 -5.94988 3.27362 0
M  V30 4962 H 482.359 -6.46874 1.09041 0
M  V30 4963 H 482.276 -7.05386 2.71968 0
M  V30 4964 H 483.544 -7.61387 1.67062 0
M  V30 4965 N 487.773 -1.03688 -1.18687 0
M  V30 4966 C 488.736 -0.629115 -2.20397 0
M  V30 4967 C 489.736 0.311495 -1.57754 0
M  V30 4968 O 490.926 0.0974107 -1.73927 0
M  V30 4969 C 488.058 0.0782231 -3.4081 0
M  V30 4970 H 489.251 -1.52915 -2.57987 0
M  V30 4971 H 486.804 -0.828988 -1.32505 0
M  V30 4972 H 487.539 0.992233 -3.08748 0
M  V30 4973 H 487.324 -0.597776 -3.87517 0
M  V30 4974 H 488.814 0.350156 -4.16129 0
M  V30 4975 N 489.251 1.34841 -0.815825 0
M  V30 4976 C 490.181 2.32187 -0.247298 0
M  V30 4977 C 491.162 1.5791 0.632344 0
M  V30 4978 O 492.347 1.8593 0.560698 0
M  V30 4979 C 489.477 3.42122 0.597466 0
M  V30 4980 C 488.431 4.27602 -0.184446 0
M  V30 4981 C 487.757 5.28942 0.782609 0
M  V30 4982 C 489.057 5.03502 -1.38865 0
M  V30 4983 H 490.751 2.79985 -1.06061 0
M  V30 4984 H 488.297 1.34611 -0.511461 0
M  V30 4985 H 490.25 4.09232 1.00533 0
M  V30 4986 H 488.974 2.92956 1.44376 0
M  V30 4987 H 487.633 3.62085 -0.573592 0
M  V30 4988 H 487.281 4.7604 1.62466 0
M  V30 4989 H 486.981 5.87008 0.263695 0
M  V30 4990 H 488.505 5.98922 1.18848 0
M  V30 4991 H 489.919 5.63506 -1.05518 0
M  V30 4992 H 488.316 5.71108 -1.8427 0
M  V30 4993 H 489.386 4.33608 -2.17054 0
M  V30 4994 N 490.729 0.570148 1.46925 0
M  V30 4995 C 491.676 -0.170257 2.30171 0
M  V30 4996 C 492.646 -0.896099 1.39855 0
M  V30 4997 O 493.831 -0.889248 1.68811 0
M  V30 4998 C 490.971 -1.18605 3.24079 0
M  V30 4999 C 490.084 -0.464947 4.29491 0
M  V30 5000 C 489.219 -1.46716 5.10537 0
M  V30 5001 C 488.258 -0.731758 6.0771 0
M  V30 5002 N 487.395 -1.68142 6.81669 0
M  V30 5003 H 492.235 0.545713 2.92961 0
M  V30 5004 H 489.772 0.280938 1.44392 0
M  V30 5005 H 491.73 -1.78771 3.76957 0
M  V30 5006 H 490.36 -1.86989 2.63125 0
M  V30 5007 H 489.412 0.251506 3.79568 0
M  V30 5008 H 490.724 0.110548 4.98677 0
M  V30 5009 H 489.878 -2.14199 5.6763 0
M  V30 5010 H 488.617 -2.07658 4.41282 0
M  V30 5011 H 487.622 -0.0430787 5.49783 0
M  V30 5012 H 488.847 -0.127904 6.7898 0
M  V30 5013 H 486.793 -2.27918 6.15134 0
M  V30 5014 H 486.71 -1.15841 7.47072 0
M  V30 5015 H 487.978 -2.347 7.43328 0
M  V30 5016 N 492.207 -1.54576 0.307264 0
M  V30 5017 C 493.484 -1.92377 -0.353605 0
M  V30 5018 C 493.864 -1.23517 -1.71192 0
M  V30 5019 O 493.212 -0.373101 -2.25433 0
M  V30 5020 C 493.422 -3.45928 -0.462039 0
M  V30 5021 C 494.77 -4.18278 -0.729975 0
M  V30 5022 O 495.794 -3.51997 -0.545605 0
M  V30 5023 O 494.653 -5.3563 -1.08454 0
M  V30 5024 H 491.747 -0.802747 -0.198812 0
M  V30 5025 H 494.293 -1.65929 0.355783 0
M  V30 5026 H 493.065 -3.88187 0.492592 0
M  V30 5027 H 492.688 -3.78431 -1.21965 0
M  V30 5028 N 493.685 -0.035106 -1.57561 0
M  V30 5029 C 494.615 0.942993 -2.13612 0
M  V30 5030 C 495.596 1.33531 -1.05373 0
M  V30 5031 O 496.781 1.41287 -1.33235 0
M  V30 5032 C 493.911 2.22332 -2.66807 0
M  V30 5033 C 492.865 1.97156 -3.79886 0
M  V30 5034 C 492.191 3.31506 -4.19533 0
M  V30 5035 C 493.491 1.30596 -5.05709 0
M  V30 5036 H 495.185 0.476179 -2.95589 0
M  V30 5037 H 492.731 0.227602 -1.4219 0
M  V30 5038 H 494.684 2.91142 -3.04654 0
M  V30 5039 H 493.408 2.7119 -1.81999 0
M  V30 5040 H 492.067 1.30763 -3.42486 0
M  V30 5041 H 491.715 3.78134 -3.31698 0
M  V30 5042 H 491.415 3.15465 -4.95738 0
M  V30 5043 H 492.939 4.01574 -4.59968 0
M  V30 5044 H 494.353 1.89416 -5.41105 0
M  V30 5045 H 492.75 1.24934 -5.86951 0
M  V30 5046 H 493.82 0.279742 -4.84092 0
M  V30 5047 N 495.163 1.55791 0.238111 0
M  V30 5048 C 496.393 1.81834 0.980809 0
M  V30 5049 C 496.801 0.609741 1.79106 0
M  V30 5050 O 496.144 -0.431073 1.78571 0
M  V30 5051 C 496.206 3.01363 1.96011 0
M  V30 5052 C 495.87 4.37037 1.33597 0
M  V30 5053 C 496.867 5.14692 0.734063 0
M  V30 5054 C 494.552 4.83743 1.3527 0
M  V30 5055 C 496.546 6.37206 0.157208 0
M  V30 5056 C 494.233 6.06204 0.77199 0
M  V30 5057 C 495.231 6.82775 0.175282 0
M  V30 5058 O 494.919 8.02922 -0.396432 0
M  V30 5059 H 494.651 0.6088 0.293834 0
M  V30 5060 H 497.205 2.03702 0.263552 0
M  V30 5061 H 495.435 2.75273 2.71591 0
M  V30 5062 H 497.124 3.14422 2.56697 0
M  V30 5063 H 497.89 4.79722 0.713582 0
M  V30 5064 H 493.769 4.24129 1.80653 0
M  V30 5065 H 497.313 6.96915 -0.30917 0
M  V30 5066 H 493.21 6.4065 0.789828 0
M  V30 5067 H 493.978 8.17989 -0.289145 0
M  V30 5068 N 496.642 -0.504142 1.49319 0
M  V30 5069 C 497.882 -1.26867 1.60263 0
M  V30 5070 C 498.246 -1.89924 0.281578 0
M  V30 5071 O 499.447 -2.67479 0.266176 0
M  V30 5072 C 497.718 -2.30956 2.72753 0
M  V30 5073 S 499.277 -3.1679 3.03628 0
M  V30 5074 H 496.095 -0.431198 0.565322 0
M  V30 5075 H 498.697 -0.571407 1.86963 0
M  V30 5076 H 497.401 -1.83156 3.67263 0
M  V30 5077 H 496.932 -3.05356 2.48035 0
M  V30 5078 H 498.947 -4.31549 2.44908 0
M  V30 5079 N 498.12 -1.38341 -0.754957 0
M  V30 5080 C 499.07 -1.31964 -1.85929 0
M  V30 5081 C 500.054 -0.204181 -1.59599 0
M  V30 5082 O 501.246 -0.440036 -1.71443 0
M  V30 5083 C 498.375 -1.14565 -3.2362 0
M  V30 5084 C 497.461 -2.30727 -3.55846 0
M  V30 5085 N 497.852 -3.56165 -3.59138 0
M  V30 5086 C 496.15 -2.23249 -3.86104 0
M  V30 5087 C 496.851 -4.32865 -3.88591 0
M  V30 5088 N 495.827 -3.62203 -4.05351 0
M  V30 5089 H 499.629 -2.2694 -1.8675 0
M  V30 5090 H 497.143 -1.31553 -0.952243 0
M  V30 5091 H 499.14 -1.0808 -4.02647 0
M  V30 5092 H 497.8 -0.205212 -3.24051 0
M  V30 5093 H 498.811 -3.89854 -3.40932 0
M  V30 5094 H 495.488 -1.37357 -3.94258 0
M  V30 5095 H 496.878 -5.41504 -3.97773 0
M  V30 5096 N 499.598 0.982988 -1.23187 0
M  V30 5097 C 500.545 2.07491 -1.01075 0
M  V30 5098 C 501.515 1.65949 0.070905 0
M  V30 5099 O 502.7 1.90629 -0.0806822 0
M  V30 5100 C 499.84 3.39751 -0.605261 0
M  V30 5101 C 498.953 3.94578 -1.75876 0
M  V30 5102 C 498.088 5.15039 -1.3003 0
M  V30 5103 C 497.127 5.62027 -2.42472 0
M  V30 5104 N 496.264 6.73719 -1.97602 0
M  V30 5105 H 501.104 2.25739 -1.9454 0
M  V30 5106 H 498.641 1.10659 -0.969179 0
M  V30 5107 H 500.599 4.15719 -0.351279 0
M  V30 5108 H 499.229 3.21473 0.292382 0
M  V30 5109 H 498.281 3.1539 -2.12681 0
M  V30 5110 H 499.593 4.25422 -2.60418 0
M  V30 5111 H 498.747 5.9833 -1.00429 0
M  V30 5112 H 497.486 4.85843 -0.425216 0
M  V30 5113 H 496.491 4.77318 -2.7285 0
M  V30 5114 H 497.716 5.93244 -3.30512 0
M  V30 5115 H 495.662 6.46287 -1.1247 0
M  V30 5116 H 495.579 7.03934 -2.75705 0
M  V30 5117 H 496.847 7.6049 -1.71098 0
M  V30 5118 N 501.076 1.04316 1.18135 0
M  V30 5119 C 502.301 0.768047 1.92655 0
M  V30 5120 C 502.726 -0.66904 1.758 0
M  V30 5121 O 502.084 -1.46372 1.06981 0
M  V30 5122 C 502.132 1.14239 3.42026 0
M  V30 5123 O 501.236 0.269333 4.1152 0
M  V30 5124 H 500.577 0.282436 0.600937 0
M  V30 5125 H 503.107 1.39367 1.49793 0
M  V30 5126 H 503.117 1.10538 3.92741 0
M  V30 5127 H 501.792 2.18928 3.53615 0
M  V30 5128 H 500.369 0.366175 3.71098 0
M  V30 5129 N 502.554 -1.34406 0.822964 0
M  V30 5130 C 503.831 -1.92733 0.333641 0
M  V30 5131 C 504.211 -1.75107 -1.17901 0
M  V30 5132 O 503.559 -1.12983 -1.98613 0
M  V30 5133 C 503.769 -3.40557 0.763023 0
M  V30 5134 C 505.117 -4.17709 0.761879 0
M  V30 5135 O 506.141 -3.49141 0.705606 0
M  V30 5136 O 505 -5.40082 0.835109 0
M  V30 5137 H 502.094 -0.821964 0.0911249 0
M  V30 5138 H 504.64 -1.4338 0.907757 0
M  V30 5139 H 503.412 -3.47187 1.8049 0
M  V30 5140 H 503.035 -3.97259 0.164605 0
M  V30 5141 O 504.071 -0.718724 -1.44626 0
M  V30 5142 H 504.762 -0.264938 -1.9188 0
M  V30 END ATOM
M  V30 BEGIN BOND
M  V30 END BOND
M  V30 END CTAB
M  END
$$$$
