drugbank_target|P07110 Outer membrane usher protein PapC (DB04147; DB04233)
 OpenBabel12092120443D

  0  0  0     0  0            999 V3000
M  V30 BEGIN CTAB
M  V30 COUNTS 12696 12836 0 0 0
M  V30 BEGIN ATOM
M  V30 1 H -0.908 1.98254 -0.117106 0
M  V30 2 N 0 1.576 0 0
M  V30 3 C 0.933 2.03868 1.02534 0
M  V30 4 C 1.911 0.928543 1.3348 0
M  V30 5 O 3.095 1.19667 1.45644 0
M  V30 6 C 0.222 2.43627 2.35294 0
M  V30 7 C -0.732 3.65373 2.2001 0
M  V30 8 S 0.101 5.13292 1.52614 0
M  V30 9 C 1.257 5.56322 2.86805 0
M  V30 10 H 1.49 2.90518 0.631377 0
M  V30 11 H -0.977 1.52953 0.210867 0
M  V30 12 H 0.981 2.67203 3.11629 0
M  V30 13 H -0.358 1.57376 2.7183 0
M  V30 14 H -1.165 3.90944 3.18086 0
M  V30 15 H -1.563 3.418 1.51819 0
M  V30 16 H 0.729 5.58782 3.83104 0
M  V30 17 H 1.672 6.56266 2.65933 0
M  V30 18 H 2.08 4.83886 2.90714 0
M  V30 19 N 1.4781 -0.272755 1.55222 0
M  V30 20 C 2.4251 -1.33716 1.88119 0
M  V30 21 C 3.3951 -1.49066 0.73271 0
M  V30 22 O 4.5801 -1.63469 0.984002 0
M  V30 23 C 1.7201 -2.69238 2.15882 0
M  V30 24 C 0.8331 -2.62108 3.43399 0
M  V30 25 C -0.0319 -3.89811 3.60861 0
M  V30 26 C -0.9929 -3.77193 4.8207 0
M  V30 27 N -1.8559 -4.9673 4.96189 0
M  V30 28 H 2.9841 -1.04962 2.78903 0
M  V30 29 H 0.5211 -0.507088 1.38083 0
M  V30 30 H 2.4791 -3.48089 2.29978 0
M  V30 31 H 1.1091 -2.96194 1.28331 0
M  V30 32 H 0.1611 -1.74967 3.37773 0
M  V30 33 H 1.4731 -2.48685 4.32386 0
M  V30 34 H 0.6271 -4.77103 3.74777 0
M  V30 35 H -0.6339 -4.06102 2.7006 0
M  V30 36 H -1.6289 -2.88284 4.68159 0
M  V30 37 H -0.4039 -3.62421 5.74307 0
M  V30 38 H -2.4579 -5.13431 4.08319 0
M  V30 39 H -2.5409 -4.85839 5.79221 0
M  V30 40 H -1.2729 -5.85594 5.1449 0
M  V30 41 N 2.9562 -1.48159 -0.537278 0
M  V30 42 C 4.2332 -1.46291 -1.29839 0
M  V30 43 C 4.6132 -0.170613 -2.10409 0
M  V30 44 O 3.9612 0.847746 -2.12192 0
M  V30 45 C 4.1712 -2.72055 -2.18603 0
M  V30 46 C 5.5192 -3.20087 -2.7898 0
M  V30 47 O 6.5432 -2.72921 -2.28894 0
M  V30 48 O 5.4022 -4.02138 -3.70064 0
M  V30 49 H 2.4962 -0.583906 -0.585647 0
M  V30 50 H 5.0422 -1.60384 -0.554534 0
M  V30 51 H 3.8142 -3.57628 -1.58801 0
M  V30 52 H 3.4372 -2.60646 -3.00249 0
M  V30 53 N 4.4343 0.785586 -1.36625 0
M  V30 54 C 5.8503 1.08419 -1.17122 0
M  V30 55 C 6.0503 2.015 0.00208491 0
M  V30 56 O 5.1063 2.43551 0.666278 0
M  V30 57 C 6.4193 1.69498 -2.48377 0
M  V30 58 C 7.9673 1.81821 -2.54775 0
M  V30 59 C 8.4423 2.46315 -3.86126 0
M  V30 60 N 9.9333 2.53779 -3.87492 0
M  V30 61 C 10.6683 3.045 -4.85868 0
M  V30 62 N 10.1643 3.55499 -5.94637 0
M  V30 63 N 11.9573 3.03247 -4.73284 0
M  V30 64 H 4.1083 0.167264 -2.1174 0
M  V30 65 H 6.3713 0.13682 -0.938075 0
M  V30 66 H 6.0773 1.08571 -3.34522 0
M  V30 67 H 5.9513 2.6896 -2.64462 0
M  V30 68 H 8.3383 2.41884 -1.69045 0
M  V30 69 H 8.4193 0.811532 -2.42586 0
M  V30 70 H 8.0633 1.86895 -4.72263 0
M  V30 71 H 7.9933 3.47561 -3.95612 0
M  V30 72 H 10.4843 2.17672 -3.08913 0
M  V30 73 H 10.7973 3.92562 -6.65669 0
M  V30 74 H 9.1423 3.5364 -5.98301 0
M  V30 75 H 12.3333 2.62696 -3.87438 0
M  V30 76 H 12.5063 3.42467 -5.50109 0
M  V30 77 N 5.9124 1.20967 1.01018 0
M  V30 78 C 7.1614 1.01796 1.74128 0
M  V30 79 C 7.4744 -0.449691 1.90361 0
M  V30 80 O 8.6804 -0.76068 2.60626 0
M  V30 81 C 7.1364 1.7727 3.13215 0
M  V30 82 C 6.7444 3.28171 3.04972 0
M  V30 83 C 8.4884 1.66489 3.90489 0
M  V30 84 C 6.3954 3.96156 4.39107 0
M  V30 85 H 5.3254 0.377276 0.652824 0
M  V30 86 H 7.9764 1.44651 1.12909 0
M  V30 87 H 6.3584 1.27205 3.75013 0
M  V30 88 H 7.5324 3.85499 2.52443 0
M  V30 89 H 5.8474 3.39437 2.41188 0
M  V30 90 H 8.4444 2.14617 4.89738 0
M  V30 91 H 8.7874 0.6222 4.11624 0
M  V30 92 H 9.3204 2.14003 3.35332 0
M  V30 93 H 6.0594 5.00604 4.23174 0
M  V30 94 H 5.5794 3.43617 4.91617 0
M  V30 95 H 7.2584 4.00774 5.07926 0
M  V30 96 N 7.3905 -1.2043 1.01659 0
M  V30 97 C 8.8015 -1.71517 0.737482 0
M  V30 98 C 9.1525 -1.81547 -0.743973 0
M  V30 99 O 8.2775 -1.47803 -1.58061 0
M  V30 100 C 8.8725 -3.11515 1.33206 0
M  V30 101 C 7.4315 -3.59912 1.10183 0
M  V30 102 C 6.5785 -2.37116 1.43776 0
M  V30 103 H 9.5295 -1.05444 1.18606 0
M  V30 104 H 9.5505 -3.73575 0.722636 0
M  V30 105 H 9.0625 -3.04182 2.41028 0
M  V30 106 H 7.1635 -3.72577 0.0412756 0
M  V30 107 H 7.2765 -4.44731 1.78188 0
M  V30 108 H 5.6405 -2.39857 0.856778 0
M  V30 109 H 6.4235 -2.32424 2.52654 0
M  V30 110 N 8.8686 -0.792821 -1.36206 0
M  V30 111 C 10.1156 -0.366786 -1.99151 0
M  V30 112 C 10.4436 1.06243 -1.62919 0
M  V30 113 O 9.6986 1.74927 -0.877442 0
M  V30 114 C 9.9976 -0.481501 -3.54142 0
M  V30 115 C 9.6636 -1.87202 -4.10203 0
M  V30 116 C 8.3256 -2.25248 -4.25226 0
M  V30 117 C 10.6776 -2.78237 -4.40719 0
M  V30 118 C 8.0056 -3.53723 -4.68078 0
M  V30 119 C 10.3576 -4.06144 -4.85005 0
M  V30 120 C 9.0216 -4.44207 -4.98234 0
M  V30 121 H 8.2916 -0.134217 -0.728743 0
M  V30 122 H 10.9386 -1.01094 -1.62641 0
M  V30 123 H 9.2436 0.246146 -3.91026 0
M  V30 124 H 10.9406 -0.132844 -4.0078 0
M  V30 125 H 7.5306 -1.56639 -3.98951 0
M  V30 126 H 11.7146 -2.50097 -4.28679 0
M  V30 127 H 6.9706 -3.8308 -4.76508 0
M  V30 128 H 11.1446 -4.76796 -5.07581 0
M  V30 129 H 8.7716 -5.43814 -5.31197 0
M  V30 130 N 10.3467 1.47872 -0.545128 0
M  V30 131 C 11.3097 2.28337 0.198717 0
M  V30 132 C 12.3097 1.36255 0.853888 0
M  V30 133 O 13.4997 1.59003 0.711606 0
M  V30 134 C 10.6317 3.15585 1.28915 0
M  V30 135 H 11.8247 2.95567 -0.507941 0
M  V30 136 H 9.3777 1.53362 -0.301616 0
M  V30 137 H 10.1127 2.53019 2.02859 0
M  V30 138 H 9.8977 3.83337 0.824309 0
M  V30 139 H 11.3877 3.76243 1.81194 0
M  V30 140 N 11.8248 0.280983 1.55075 0
M  V30 141 C 13.0708 -0.33461 2.00021 0
M  V30 142 C 13.4038 -1.55063 1.16915 0
M  V30 143 O 12.6788 -1.93006 0.240646 0
M  V30 144 C 12.9618 -0.711007 3.53011 0
M  V30 145 C 12.8148 0.512766 4.46868 0
M  V30 146 C 14.1338 -1.54522 4.12081 0
M  V30 147 H 11.2528 -0.120147 0.727141 0
M  V30 148 H 13.8948 0.389097 1.85973 0
M  V30 149 H 12.0448 -1.32761 3.65112 0
M  V30 150 H 13.7168 1.15131 4.46702 0
M  V30 151 H 11.9598 1.14975 4.18286 0
M  V30 152 H 12.6308 0.205556 5.51617 0
M  V30 153 H 15.1068 -1.02442 4.03293 0
M  V30 154 H 13.9828 -1.77739 5.19327 0
M  V30 155 H 14.2438 -2.52813 3.62682 0
M  V30 156 N 13.3029 -1.57598 0.00835791 0
M  V30 157 C 14.2509 -2.10078 -0.998508 0
M  V30 158 C 15.2449 -1.02262 -1.35051 0
M  V30 159 O 16.4509 -1.20719 -1.33518 0
M  V30 160 H 12.8259 -0.670903 -0.339696 0
M  V30 161 H 14.7969 -2.93648 -0.530398 0
M  V30 162 C 13.5459 -2.62615 -2.27879 0
M  V30 163 H 12.8689 -3.45213 -2.01662 0
M  V30 164 H 14.3089 -3.03004 -2.96588 0
M  V30 165 C 12.7679 -1.54407 -2.99433 0
M  V30 166 O 13.2979 -0.931812 -3.90743 0
M  V30 167 N 11.5039 -1.2695 -2.61404 0
M  V30 168 H 11.0509 -1.76924 -1.87232 0
M  V30 169 H 11.0089 -0.547704 -3.09593 0
M  V30 170 N 14.781 0.264519 -1.55364 0
M  V30 171 C 15.729 1.34702 -1.89626 0
M  V30 172 C 16.723 1.50712 -0.773459 0
M  V30 173 O 17.929 1.52395 -0.957897 0
M  V30 174 H 14.304 0.450682 -0.601988 0
M  V30 175 H 16.275 1.0306 -2.80038 0
M  V30 176 C 15.024 2.6989 -2.19214 0
M  V30 177 H 14.347 2.58365 -3.05103 0
M  V30 178 H 15.787 3.44553 -2.47102 0
M  V30 179 C 14.246 3.21637 -1.00254 0
M  V30 180 O 14.776 4.00973 -0.241501 0
M  V30 181 N 12.982 2.7943 -0.797938 0
M  V30 182 H 12.529 2.15026 -1.4185 0
M  V30 183 H 12.487 3.144 -0.00363422 0
M  V30 184 N 16.2591 1.48442 0.529413 0
M  V30 185 C 17.5081 1.55742 1.28169 0
M  V30 186 C 17.8211 0.236511 1.94165 0
M  V30 187 O 19.0271 0.187761 2.7085 0
M  V30 188 C 17.4831 2.74667 2.32564 0
M  V30 189 C 17.0911 4.13402 1.72636 0
M  V30 190 C 18.8351 2.9128 3.08798 0
M  V30 191 C 16.7421 5.23587 2.74975 0
M  V30 192 H 15.6721 0.579796 0.48203 0
M  V30 193 H 18.3231 1.74776 0.559056 0
M  V30 194 H 16.7051 2.49067 3.07866 0
M  V30 195 H 17.8791 4.49022 1.03519 0
M  V30 196 H 16.1941 4.0191 1.08892 0
M  V30 197 H 18.7911 3.70767 3.85274 0
M  V30 198 H 19.1341 2.00757 3.64695 0
M  V30 199 H 19.6671 3.16782 2.40611 0
M  V30 200 H 16.4061 6.16076 2.23897 0
M  V30 201 H 15.9261 4.92454 3.42417 0
M  V30 202 H 17.6051 5.51724 3.37949 0
M  V30 203 N 17.7372 -0.778329 1.37039 0
M  V30 204 C 18.9652 -1.56734 1.35063 0
M  V30 205 C 19.3802 -1.88686 -0.0655597 0
M  V30 206 O 18.7372 -1.5096 -1.02554 0
M  V30 207 C 18.7882 -2.88163 2.18276 0
M  V30 208 O 18.5092 -2.57583 3.54376 0
M  V30 209 C 20.0102 -3.82422 2.24206 0
M  V30 210 H 17.2302 -0.485778 0.462883 0
M  V30 211 H 19.7742 -0.965185 1.8029 0
M  V30 212 H 17.9292 -3.44818 1.76576 0
M  V30 213 H 18.3432 -3.41699 3.97922 0
M  V30 214 H 19.8172 -4.71667 2.86765 0
M  V30 215 H 20.2942 -4.21078 1.24861 0
M  V30 216 H 20.9002 -3.31697 2.6619 0
M  V30 217 N 19.2153 -1.21501 -1.00376 0
M  V30 218 C 20.4553 -1.04444 -1.75701 0
M  V30 219 C 20.8193 0.414644 -1.87469 0
M  V30 220 O 22.0203 0.705763 -2.59369 0
M  V30 221 C 20.2913 -1.72389 -3.13077 0
M  V30 222 S 21.8503 -1.70604 -4.04277 0
M  V30 223 H 18.6683 -0.374249 -0.604532 0
M  V30 224 H 21.2703 -1.54267 -1.20091 0
M  V30 225 H 19.9743 -2.77734 -3.02146 0
M  V30 226 H 19.5053 -1.22751 -3.73759 0
M  V30 227 H 21.5203 -0.748012 -4.9053 0
M  V30 228 N 20.6934 1.19889 -1.02296 0
M  V30 229 C 21.9394 1.89701 -0.717033 0
M  V30 230 C 22.2724 1.7905 0.751989 0
M  V30 231 O 21.5474 1.17891 1.547 0
M  V30 232 C 21.8304 3.40858 -1.16136 0
M  V30 233 C 21.6834 3.60411 -2.69117 0
M  V30 234 C 23.0024 4.33876 -0.737549 0
M  V30 235 H 20.1214 0.688874 -0.261957 0
M  V30 236 H 22.7634 1.41154 -1.27183 0
M  V30 237 H 20.9134 3.82335 -0.689342 0
M  V30 238 H 22.5854 3.28145 -3.2422 0
M  V30 239 H 20.8284 3.03665 -3.0979 0
M  V30 240 H 21.4994 4.66396 -2.95261 0
M  V30 241 H 23.9754 4.00081 -1.14344 0
M  V30 242 H 22.8514 5.38242 -1.0764 0
M  V30 243 H 23.1124 4.40628 0.360436 0
M  V30 244 N 22.1715 0.800033 1.35784 0
M  V30 245 C 23.4205 0.37387 1.98205 0
M  V30 246 C 23.7335 -1.06302 1.64193 0
M  V30 247 O 24.9395 -1.59198 2.19928 0
M  V30 248 C 23.3955 0.617532 3.54562 0
M  V30 249 C 23.0035 2.06654 3.9749 0
M  V30 250 C 24.7475 0.256401 4.23725 0
M  V30 251 C 22.6545 2.2563 5.46667 0
M  V30 252 H 21.5845 0.136055 0.741623 0
M  V30 253 H 24.2355 0.983166 1.54939 0
M  V30 254 H 22.6175 -0.0616248 3.95952 0
M  V30 255 H 23.7915 2.78296 3.67271 0
M  V30 256 H 22.1065 2.38691 3.41197 0
M  V30 257 H 24.7035 0.376318 5.33374 0
M  V30 258 H 25.0465 -0.796692 4.08606 0
M  V30 259 H 25.5795 0.889214 3.87734 0
M  V30 260 H 22.3185 3.2936 5.66747 0
M  V30 261 H 21.8385 1.58504 5.78478 0
M  V30 262 H 23.5175 2.06861 6.1304 0
M  V30 263 N 23.6496 -1.47581 0.552962 0
M  V30 264 C 24.5796 -2.32762 -0.185451 0
M  V30 265 C 25.5606 -1.43527 -0.912905 0
M  V30 266 O 26.7456 -1.72388 -0.894201 0
M  V30 267 C 23.8756 -3.25219 -1.21859 0
M  V30 268 C 22.8296 -4.23661 -0.607864 0
M  V30 269 C 22.1556 -5.05413 -1.74533 0
M  V30 270 C 23.4556 -5.20481 0.435582 0
M  V30 271 H 25.1496 -2.94749 0.525684 0
M  V30 272 H 22.6956 -1.41738 0.254251 0
M  V30 273 H 24.6486 -3.8365 -1.7433 0
M  V30 274 H 23.3726 -2.61279 -1.95961 0
M  V30 275 H 22.0316 -3.66451 -0.104489 0
M  V30 276 H 21.6796 -4.3788 -2.47529 0
M  V30 277 H 21.3796 -5.72059 -1.34249 0
M  V30 278 H 22.9036 -5.66701 -2.27338 0
M  V30 279 H 24.3176 -5.733 -0.00290157 0
M  V30 280 H 22.7146 -5.95305 0.757067 0
M  V30 281 H 23.7846 -4.66217 1.33303 0
M  V30 282 N 25.1277 -0.289203 -1.54924 0
M  V30 283 C 26.0577 0.58549 -2.2604 0
M  V30 284 C 27.0387 1.14753 -1.25562 0
M  V30 285 O 28.2237 1.17906 -1.54311 0
M  V30 286 C 25.3537 1.76305 -2.99222 0
M  V30 287 C 24.3077 1.33191 -4.06748 0
M  V30 288 C 23.6337 2.5937 -4.6758 0
M  V30 289 C 24.9337 0.471775 -5.20165 0
M  V30 290 H 26.6277 -0.00763532 -2.99399 0
M  V30 291 H 24.1737 -0.00511229 -1.43999 0
M  V30 292 H 26.1267 2.38097 -3.47689 0
M  V30 293 H 24.8507 2.38223 -2.23422 0
M  V30 294 H 23.5097 0.737121 -3.59113 0
M  V30 295 H 23.1577 3.19576 -3.88433 0
M  V30 296 H 22.8577 2.31228 -5.40192 0
M  V30 297 H 24.3817 3.21985 -5.18804 0
M  V30 298 H 25.7957 0.995056 -5.64599 0
M  V30 299 H 24.1927 0.284639 -5.99425 0
M  V30 300 H 25.2627 -0.506041 -4.82252 0
M  V30 301 N 26.6058 1.57591 -0.0167156 0
M  V30 302 C 27.8308 1.9598 0.67872 0
M  V30 303 C 28.2558 0.892546 1.65575 0
M  V30 304 O 27.6138 -0.147772 1.80697 0
M  V30 305 C 27.6618 3.33468 1.37227 0
M  V30 306 O 26.7658 3.28954 2.48722 0
M  V30 307 H 26.1068 0.639339 0.17928 0
M  V30 308 H 28.6368 2.04463 -0.0748802 0
M  V30 309 H 28.6468 3.69417 1.7319 0
M  V30 310 H 27.3218 4.10694 0.656007 0
M  V30 311 H 25.8988 3.04705 2.14963 0
M  V30 312 N 28.0839 -0.256276 1.55502 0
M  V30 313 C 29.0139 -1.32102 1.92539 0
M  V30 314 C 29.9949 -1.50684 0.789194 0
M  V30 315 O 31.1799 -1.63449 1.04872 0
M  V30 316 C 28.3099 -2.67752 2.21192 0
M  V30 317 C 27.2639 -2.63878 3.36975 0
M  V30 318 C 26.5899 -4.03236 3.51147 0
M  V30 319 C 27.8899 -2.21682 4.72921 0
M  V30 320 H 29.5839 -1.01351 2.81724 0
M  V30 321 H 27.1299 -0.486105 1.35547 0
M  V30 322 H 29.0829 -3.42365 2.45691 0
M  V30 323 H 27.8069 -3.0012 1.28824 0
M  V30 324 H 26.4659 -1.91722 3.12471 0
M  V30 325 H 26.1139 -4.32854 2.56216 0
M  V30 326 H 25.8139 -4.01535 4.29003 0
M  V30 327 H 27.3379 -4.79563 3.77957 0
M  V30 328 H 28.7519 -2.86023 4.96854 0
M  V30 329 H 27.1489 -2.3111 5.53812 0
M  V30 330 H 28.2189 -1.16833 4.70615 0
M  V30 331 N 29.562 -1.4872 -0.521534 0
M  V30 332 C 30.809 -1.57168 -1.27689 0
M  V30 333 C 31.137 -0.249275 -1.92896 0
M  V30 334 O 30.392 0.761162 -1.80291 0
M  V30 335 C 30.691 -2.66497 -2.38148 0
M  V30 336 C 30.357 -4.08664 -1.90538 0
M  V30 337 C 29.019 -4.47357 -1.77271 0
M  V30 338 C 31.371 -4.97724 -1.54663 0
M  V30 339 C 28.699 -5.72905 -1.26478 0
M  V30 340 C 31.051 -6.2377 -1.05329 0
M  V30 341 C 29.715 -6.61311 -0.906861 0
M  V30 342 H 28.985 -0.575117 -0.467249 0
M  V30 343 H 31.632 -1.82472 -0.581051 0
M  V30 344 H 29.937 -2.35085 -3.13437 0
M  V30 345 H 31.634 -2.70246 -2.96257 0
M  V30 346 H 28.224 -3.78111 -2.01816 0
M  V30 347 H 32.408 -4.68501 -1.63768 0
M  V30 348 H 27.664 -6.00709 -1.13835 0
M  V30 349 H 31.838 -6.9217 -0.76644 0
M  V30 350 H 29.465 -7.5848 -0.511083 0
M  V30 351 N 31.0401 0.771051 -1.3745 0
M  V30 352 C 32.2801 1.54264 -1.34096 0
M  V30 353 C 32.6441 1.91858 0.0737639 0
M  V30 354 O 33.8451 2.67797 0.23203 0
M  V30 355 C 32.1161 2.77326 -2.25445 0
M  V30 356 S 33.6751 3.67383 -2.39948 0
M  V30 357 H 30.4931 0.528122 -0.476034 0
M  V30 358 H 33.0951 0.906633 -1.73206 0
M  V30 359 H 31.7991 2.47788 -3.27153 0
M  V30 360 H 31.3301 3.45886 -1.87421 0
M  V30 361 H 33.3451 4.69334 -1.61059 0
M  V30 362 N 32.5182 1.22032 0.997298 0
M  V30 363 C 33.4662 0.983634 2.10778 0
M  V30 364 C 34.4602 -0.0717564 1.69248 0
M  V30 365 O 35.6662 0.080304 1.79821 0
M  V30 366 H 32.0412 0.300877 0.689186 0
M  V30 367 H 34.0122 1.92606 2.27916 0
M  V30 368 C 32.7612 0.57326 3.42942 0
M  V30 369 H 32.0842 1.37702 3.75338 0
M  V30 370 H 33.5242 0.447031 4.21637 0
M  V30 371 C 31.9832 -0.7167 3.29188 0
M  V30 372 O 32.5132 -1.77027 3.60589 0
M  V30 373 N 30.7192 -0.686167 2.82383 0
M  V30 374 H 30.2662 0.171507 2.57028 0
M  V30 375 H 30.2242 -1.54955 2.73562 0
M  V30 376 N 33.9963 -1.19345 1.0293 0
M  V30 377 C 34.9593 -2.20793 0.615069 0
M  V30 378 C 35.9593 -1.57553 -0.321533 0
M  V30 379 O 37.1493 -1.73862 -0.108483 0
M  V30 380 C 34.2813 -3.40754 -0.0999222 0
M  V30 381 H 35.4743 -2.58955 1.51269 0
M  V30 382 H 33.0273 -1.3303 0.820534 0
M  V30 383 H 33.7623 -3.0811 -1.01187 0
M  V30 384 H 33.5473 -3.87889 0.57309 0
M  V30 385 H 35.0373 -4.15898 -0.376645 0
M  V30 386 N 35.4744 -0.807222 -1.35358 0
M  V30 387 C 36.4374 -0.223665 -2.28106 0
M  V30 388 C 37.4374 0.589354 -1.4961 0
M  V30 389 O 38.6274 0.407745 -1.69361 0
M  V30 390 C 35.7594 0.688149 -3.33882 0
M  V30 391 H 36.9524 -1.04169 -2.81227 0
M  V30 392 H 34.5054 -0.577921 -1.45223 0
M  V30 393 H 35.2404 1.52984 -2.85948 0
M  V30 394 H 35.0254 0.10687 -3.91954 0
M  V30 395 H 36.5154 1.09075 -4.03104 0
M  V30 396 N 36.9525 1.47285 -0.560781 0
M  V30 397 C 38.1775 2.07359 -0.0410566 0
M  V30 398 C 38.6025 1.41017 1.24483 0
M  V30 399 O 37.9605 0.486368 1.74654 0
M  V30 400 C 38.0085 3.6035 0.134123 0
M  V30 401 O 37.1125 3.94681 1.19587 0
M  V30 402 H 36.4535 0.661887 -0.0529291 0
M  V30 403 H 38.9835 1.89252 -0.777482 0
M  V30 404 H 38.9935 4.0652 0.347207 0
M  V30 405 H 37.6685 4.08034 -0.805047 0
M  V30 406 H 36.2455 3.60251 0.962987 0
M  V30 407 N 38.4306 0.297415 1.54768 0
M  V30 408 C 39.3936 -0.567375 2.22066 0
M  V30 409 C 40.3936 -1.06409 1.20556 0
M  V30 410 O 41.5836 -0.960691 1.45315 0
M  V30 411 C 38.7156 -1.78517 2.90421 0
M  V30 412 H 39.9086 0.0205534 2.99893 0
M  V30 413 H 37.4616 0.0482163 1.56226 0
M  V30 414 H 38.1966 -2.41303 2.16664 0
M  V30 415 H 37.9816 -1.43669 3.64831 0
M  V30 416 H 39.4716 -2.39964 3.41771 0
M  V30 417 N 39.9087 -1.5758 0.0250728 0
M  V30 418 C 41.1547 -1.91917 -0.655413 0
M  V30 419 C 41.4877 -0.901433 -1.72011 0
M  V30 420 O 40.7627 0.0764069 -1.9435 0
M  V30 421 C 41.0457 -3.36751 -1.27558 0
M  V30 422 C 40.8987 -4.49258 -0.220719 0
M  V30 423 C 42.2177 -3.81469 -2.19475 0
M  V30 424 H 39.3367 -0.697925 -0.23679 0
M  V30 425 H 41.9787 -1.89825 0.0815036 0
M  V30 426 H 40.1287 -3.38664 -1.90365 0
M  V30 427 H 41.8007 -4.59478 0.409601 0
M  V30 428 H 40.0437 -4.31415 0.454264 0
M  V30 429 H 40.7147 -5.47618 -0.694175 0
M  V30 430 H 43.1907 -3.81266 -1.66659 0
M  V30 431 H 42.0667 -4.83512 -2.59822 0
M  V30 432 H 42.3277 -3.16744 -3.08424 0
M  V30 433 N 41.3868 0.248026 -1.55636 0
M  V30 434 C 42.2968 1.32859 -1.93354 0
M  V30 435 C 43.3128 1.52719 -0.833838 0
M  V30 436 O 44.4888 1.66363 -1.13513 0
M  V30 437 C 41.5538 2.66337 -2.21958 0
M  V30 438 C 40.6148 2.55008 -3.45354 0
M  V30 439 C 39.8478 3.82121 -3.72584 0
M  V30 440 O 40.0708 4.83951 -3.01907 0
M  V30 441 O 39.0048 3.80822 -4.6611 0
M  V30 442 H 42.8308 1.03862 -2.85388 0
M  V30 443 H 40.4158 0.448686 -1.42503 0
M  V30 444 H 42.2978 3.45216 -2.4167 0
M  V30 445 H 40.9728 2.95068 -1.33103 0
M  V30 446 H 39.8798 1.7442 -3.30951 0
M  V30 447 H 41.2128 2.31222 -4.34508 0
M  V30 448 N 42.8649 1.48995 0.513639 0
M  V30 449 C 44.1119 1.57843 1.26854 0
M  V30 450 C 44.4399 0.259501 1.92761 0
M  V30 451 O 43.6949 -0.75159 1.80692 0
M  V30 452 C 43.9939 2.67756 2.36731 0
M  V30 453 C 43.6599 4.09669 1.88368 0
M  V30 454 C 42.3219 4.48291 1.74896 0
M  V30 455 C 44.6739 4.98537 1.52021 0
M  V30 456 C 42.0019 5.73568 1.23438 0
M  V30 457 C 44.3539 6.24319 1.0202 0
M  V30 458 C 43.0179 6.61783 0.871778 0
M  V30 459 H 42.2879 0.577587 0.464192 0
M  V30 460 H 44.9349 1.82778 0.571366 0
M  V30 461 H 43.2399 2.36743 3.12185 0
M  V30 462 H 44.9369 2.71813 2.9482 0
M  V30 463 H 41.5269 3.79176 1.99808 0
M  V30 464 H 45.7109 4.69363 1.61281 0
M  V30 465 H 40.9669 6.01304 1.10648 0
M  V30 466 H 45.1409 6.92566 0.729722 0
M  V30 467 H 42.7679 7.5874 0.470852 0
M  V30 468 N 44.343 -0.763751 1.37857 0
M  V30 469 C 45.291 -1.89864 1.34367 0
M  V30 470 C 46.285 -1.67816 0.231143 0
M  V30 471 O 47.491 -1.75508 0.399617 0
M  V30 472 H 43.866 -0.624501 0.41893 0
M  V30 473 H 45.837 -1.89925 2.30155 0
M  V30 474 C 44.586 -3.27227 1.1755 0
M  V30 475 H 43.909 -3.44773 2.02414 0
M  V30 476 H 45.349 -4.06911 1.1916 0
M  V30 477 C 43.808 -3.36692 -0.118311 0
M  V30 478 O 44.338 -3.86374 -1.09902 0
M  V30 479 N 42.544 -2.90092 -0.171717 0
M  V30 480 H 42.091 -2.49853 0.627012 0
M  V30 481 H 42.049 -2.96806 -1.03699 0
M  V30 482 N 45.8211 -1.22559 -0.990812 0
M  V30 483 C 47.0491 -1.07779 -1.76611 0
M  V30 484 C 47.4641 0.371513 -1.85109 0
M  V30 485 O 46.8211 1.25737 -1.32274 0
M  V30 486 C 46.8721 -1.68512 -3.19822 0
M  V30 487 O 46.5931 -3.07774 -3.1178 0
M  V30 488 C 48.0941 -1.59035 -4.13791 0
M  V30 489 H 45.3141 -0.377729 -0.554583 0
M  V30 490 H 47.8581 -1.62195 -1.24551 0
M  V30 491 H 46.0131 -1.18154 -3.68942 0
M  V30 492 H 46.4271 -3.37062 -4.01858 0
M  V30 493 H 47.9011 -2.0625 -5.1202 0
M  V30 494 H 48.3781 -0.547273 -4.35777 0
M  V30 495 H 48.9841 -2.08709 -3.70568 0
M  V30 496 N 47.2992 1.18797 -1.03562 0
M  V30 497 C 48.5762 1.84469 -0.650434 0
M  V30 498 C 48.9562 1.92319 0.870433 0
M  V30 499 O 48.3042 1.44528 1.76986 0
M  V30 500 C 48.5142 3.2306 -1.32036 0
M  V30 501 C 49.8622 3.9915 -1.44792 0
M  V30 502 O 50.8862 3.32481 -1.27806 0
M  V30 503 O 49.7452 5.18587 -1.72423 0
M  V30 504 H 46.8392 0.795251 -0.226946 0
M  V30 505 H 49.3852 1.26231 -1.13419 0
M  V30 506 H 48.1572 3.1222 -2.3587 0
M  V30 507 H 47.7802 3.88949 -0.8249 0
M  V30 508 N 48.7773 0.814389 1.34928 0
M  V30 509 C 50.0233 0.399013 1.98836 0
M  V30 510 C 50.3563 -1.03314 1.64438 0
M  V30 511 O 49.6313 -1.71811 0.911659 0
M  V30 512 C 49.9143 0.591629 3.55207 0
M  V30 513 C 49.7673 2.06928 3.99376 0
M  V30 514 C 51.0863 0.022199 4.40094 0
M  V30 515 H 48.2053 0.146451 0.722303 0
M  V30 516 H 50.8473 1.02537 1.59957 0
M  V30 517 H 48.9973 0.0584441 3.88456 0
M  V30 518 H 50.6693 2.66544 3.76499 0
M  V30 519 H 48.9123 2.56287 3.49999 0
M  V30 520 H 49.5833 2.1549 5.08201 0
M  V30 521 H 52.0593 0.477643 4.13349 0
M  V30 522 H 50.9353 0.186832 5.48582 0
M  V30 523 H 51.1963 -1.07215 4.28902 0
M  V30 524 N 50.2554 -1.46986 0.568584 0
M  V30 525 C 51.1854 -2.32946 -0.160753 0
M  V30 526 C 52.1664 -1.44487 -0.897631 0
M  V30 527 O 53.3514 -1.73327 -0.875867 0
M  V30 528 C 50.4814 -3.26494 -1.18403 0
M  V30 529 C 49.4354 -4.24282 -0.562895 0
M  V30 530 C 48.7614 -5.07236 -1.69163 0
M  V30 531 C 50.0614 -5.19989 0.490761 0
M  V30 532 H 51.7554 -2.94175 0.556916 0
M  V30 533 H 49.3014 -1.4146 0.26927 0
M  V30 534 H 51.2544 -3.85477 -1.70251 0
M  V30 535 H 49.9784 -2.63343 -1.93179 0
M  V30 536 H 48.6374 -3.66541 -0.0656164 0
M  V30 537 H 48.2854 -4.4048 -2.42871 0
M  V30 538 H 47.9854 -5.7345 -1.28174 0
M  V30 539 H 49.5094 -5.6908 -2.21314 0
M  V30 540 H 50.9234 -5.73271 0.0579047 0
M  V30 541 H 49.3204 -5.94469 0.820165 0
M  V30 542 H 50.3904 -4.64777 1.3824 0
M  V30 543 N 51.7335 -0.305618 -1.54608 0
M  V30 544 C 53.0105 0.355652 -1.92339 0
M  V30 545 C 53.3905 1.71324 -1.23335 0
M  V30 546 O 52.7385 2.25473 -0.370702 0
M  V30 547 C 52.9485 0.46572 -3.45879 0
M  V30 548 C 54.2965 0.734426 -4.182 0
M  V30 549 O 55.3205 0.54935 -3.51938 0
M  V30 550 O 54.1795 1.09024 -5.35515 0
M  V30 551 H 51.2735 0.199666 -0.802535 0
M  V30 552 H 53.8195 -0.354017 -1.65966 0
M  V30 553 H 52.5915 -0.488461 -3.88239 0
M  V30 554 H 52.2145 1.22367 -3.78301 0
M  V30 555 N 53.2116 1.57565 -0.0334293 0
M  V30 556 C 54.1746 2.09393 0.932048 0
M  V30 557 C 55.1746 1.00986 1.25134 0
M  V30 558 O 56.3646 1.27129 1.19096 0
M  V30 559 C 53.4966 2.56338 2.2473 0
M  V30 560 H 54.6896 2.95984 0.483085 0
M  V30 561 H 52.2426 1.54819 0.21468 0
M  V30 562 H 52.9776 1.7309 2.74245 0
M  V30 563 H 52.7626 3.35542 2.02865 0
M  V30 564 H 54.2526 2.96646 2.93923 0
M  V30 565 N 54.6897 -0.239769 1.55765 0
M  V30 566 C 55.6527 -1.28038 1.90103 0
M  V30 567 C 56.6527 -1.40723 0.778055 0
M  V30 568 O 57.8427 -1.39301 1.04599 0
M  V30 569 C 54.9747 -2.65702 2.13577 0
M  V30 570 H 56.1677 -0.988048 2.83157 0
M  V30 571 H 53.7207 -0.479382 1.48767 0
M  V30 572 H 54.4557 -3.00063 1.23015 0
M  V30 573 H 54.2407 -2.57875 2.95369 0
M  V30 574 H 55.7307 -3.40828 2.41301 0
M  V30 575 N 56.1678 -1.49265 -0.50573 0
M  V30 576 C 57.4448 -1.49012 -1.26707 0
M  V30 577 C 57.8248 -0.215205 -2.1 0
M  V30 578 O 57.1728 0.802547 -2.13943 0
M  V30 579 C 57.3828 -2.7663 -2.12783 0
M  V30 580 C 58.7308 -3.25932 -2.72127 0
M  V30 581 O 59.7548 -2.77715 -2.23054 0
M  V30 582 O 58.6138 -4.09897 -3.61451 0
M  V30 583 H 55.7078 -0.596197 -0.57313 0
M  V30 584 H 58.2538 -1.61524 -0.52039 0
M  V30 585 H 57.0258 -3.60916 -1.5118 0
M  V30 586 H 56.6488 -2.66956 -2.94653 0
M  V30 587 N 57.6459 0.756429 -1.3826 0
M  V30 588 C 58.5929 1.87011 -1.35261 0
M  V30 589 C 59.5629 1.64695 -0.215616 0
M  V30 590 O 60.7479 1.864 -0.407399 0
M  V30 591 C 57.8879 3.24275 -1.18068 0
M  V30 592 C 57.0009 3.58442 -2.41129 0
M  V30 593 C 56.1359 4.84994 -2.16689 0
M  V30 594 C 55.1749 5.11939 -3.35537 0
M  V30 595 N 54.3119 6.29685 -3.10549 0
M  V30 596 H 59.1519 1.8891 -2.30472 0
M  V30 597 H 56.6889 0.923373 -1.14509 0
M  V30 598 H 58.6469 4.03479 -1.06116 0
M  V30 599 H 57.2769 3.21711 -0.264973 0
M  V30 600 H 56.3289 2.74103 -2.63764 0
M  V30 601 H 57.6409 3.74283 -3.29717 0
M  V30 602 H 56.7949 5.72135 -2.01857 0
M  V30 603 H 55.5339 4.71286 -1.25462 0
M  V30 604 H 54.5389 4.23268 -3.50891 0
M  V30 605 H 55.7639 5.27546 -4.27635 0
M  V30 606 H 53.7099 6.17306 -2.21967 0
M  V30 607 H 53.6269 6.46014 -3.92686 0
M  V30 608 H 54.8949 7.19722 -2.99367 0
M  V30 609 N 59.124 1.23083 0.984299 0
M  V30 610 C 60.071 1.00854 2.07598 0
M  V30 611 C 61.041 -0.0726709 1.65941 0
M  V30 612 O 62.226 0.0786535 1.90638 0
M  V30 613 C 59.366 0.601645 3.39815 0
M  V30 614 C 58.479 1.75456 3.94765 0
M  V30 615 C 57.614 1.29482 5.15177 0
M  V30 616 C 56.653 2.41873 5.62284 0
M  V30 617 N 55.79 1.96885 6.73929 0
M  V30 618 H 60.63 1.943 2.25946 0
M  V30 619 H 58.167 0.968001 1.10762 0
M  V30 620 H 60.125 0.346854 4.15756 0
M  V30 621 H 58.755 -0.295803 3.21442 0
M  V30 622 H 57.807 2.12346 3.15616 0
M  V30 623 H 59.119 2.59965 4.25699 0
M  V30 624 H 58.273 0.997923 5.98437 0
M  V30 625 H 57.012 0.420046 4.85888 0
M  V30 626 H 56.017 2.72342 4.77608 0
M  V30 627 H 57.242 3.29881 5.93595 0
M  V30 628 H 55.188 1.11782 6.46406 0
M  V30 629 H 55.105 2.74956 7.04227 0
M  V30 630 H 56.373 1.70289 7.60672 0
M  V30 631 N 60.6021 -1.18246 1.0419 0
M  V30 632 C 61.5501 -2.23968 0.627792 0
M  V30 633 C 62.5441 -1.65828 -0.346019 0
M  V30 634 O 63.7501 -1.78733 -0.213175 0
M  V30 635 H 60.1251 -0.728939 0.184802 0
M  V30 636 H 62.0961 -2.56202 1.52981 0
M  V30 637 C 60.8451 -3.47699 0.00796591 0
M  V30 638 H 60.1681 -3.92734 0.748347 0
M  V30 639 H 61.6081 -4.23294 -0.24455 0
M  V30 640 C 60.0671 -3.13153 -1.24246 0
M  V30 641 O 60.5971 -3.27003 -2.33307 0
M  V30 642 N 58.8031 -2.67467 -1.13622 0
M  V30 643 H 58.3501 -2.56396 -0.248734 0
M  V30 644 H 58.3081 -2.44724 -1.97377 0
M  V30 645 N 62.0802 -0.821533 -1.34494 0
M  V30 646 C 63.3292 -0.405355 -1.97585 0
M  V30 647 C 63.6422 1.03677 -1.65863 0
M  V30 648 O 64.8482 1.55679 -2.22433 0
M  V30 649 C 63.3042 -0.673861 -3.53535 0
M  V30 650 C 62.9122 -2.12951 -3.94152 0
M  V30 651 C 64.6562 -0.32378 -4.23263 0
M  V30 652 C 62.5632 -2.34298 -5.43009 0
M  V30 653 H 61.4932 -0.147836 -0.739365 0
M  V30 654 H 64.1442 -1.00769 -1.53355 0
M  V30 655 H 62.5262 -0.00137554 -3.96 0
M  V30 656 H 63.7002 -2.84104 -3.62797 0
M  V30 657 H 62.0152 -2.44089 -3.37356 0
M  V30 658 H 64.6122 -0.461126 -5.32708 0
M  V30 659 H 64.9552 0.731586 -4.09821 0
M  V30 660 H 65.4882 -0.950786 -3.8627 0
M  V30 661 H 62.2272 -3.38335 -5.61435 0
M  V30 662 H 61.7472 -1.67687 -5.75883 0
M  V30 663 H 63.4262 -2.16588 -6.09671 0
M  V30 664 N 63.5583 1.46682 -0.576371 0
M  V30 665 C 64.8353 1.95599 0.00703437 0
M  V30 666 C 65.2153 1.51904 1.46589 0
M  V30 667 O 64.5633 0.766755 2.15251 0
M  V30 668 C 64.7733 3.4864 -0.158404 0
M  V30 669 C 66.1213 4.24594 -0.0229439 0
M  V30 670 O 67.1453 3.56094 -0.0869173 0
M  V30 671 O 66.0043 5.46373 0.118015 0
M  V30 672 H 63.0983 0.825275 0.053384 0
M  V30 673 H 65.6443 1.56996 -0.644244 0
M  V30 674 H 64.4163 3.7331 -1.17282 0
M  V30 675 H 64.0393 3.94057 0.5296 0
M  V30 676 N 65.0364 0.313813 1.54444 0
M  V30 677 C 66.2834 -0.291675 2.00388 0
M  V30 678 C 66.6114 -1.52904 1.2021 0
M  V30 679 O 65.8664 -1.93833 0.269707 0
M  V30 680 C 66.1654 -0.680386 3.50864 0
M  V30 681 C 65.8314 0.456699 4.48581 0
M  V30 682 C 64.4934 0.768824 4.75018 0
M  V30 683 C 66.8454 1.22098 5.06697 0
M  V30 684 C 64.1734 1.84812 5.56831 0
M  V30 685 C 66.5254 2.29029 5.89685 0
M  V30 686 C 65.1894 2.60834 6.14428 0
M  V30 687 H 64.4594 -0.106732 0.733273 0
M  V30 688 H 67.1064 0.43557 1.86481 0
M  V30 689 H 65.4114 -1.48791 3.62448 0
M  V30 690 H 67.1084 -1.16026 3.83847 0
M  V30 691 H 63.6984 0.203337 4.28117 0
M  V30 692 H 67.8824 0.993096 4.86263 0
M  V30 693 H 63.1384 2.09912 5.74236 0
M  V30 694 H 67.3124 2.887 6.33739 0
M  V30 695 H 64.9394 3.44596 6.77612 0
M  V30 696 N 66.5145 -1.57545 0.0417849 0
M  V30 697 C 67.7425 -1.96624 -0.643928 0
M  V30 698 C 68.1575 -0.918897 -1.64929 0
M  V30 699 O 67.5145 0.0979323 -1.82237 0
M  V30 700 C 67.5655 -3.35781 -1.33914 0
M  V30 701 O 67.2865 -4.365 -0.374048 0
M  V30 702 C 68.7875 -3.89566 -2.1155 0
M  V30 703 H 66.0075 -0.647316 -0.176702 0
M  V30 704 H 68.5515 -2.04229 0.105304 0
M  V30 705 H 66.7065 -3.29357 -2.03968 0
M  V30 706 H 67.1205 -5.17248 -0.869179 0
M  V30 707 H 68.5945 -4.89242 -2.55628 0
M  V30 708 H 69.0715 -3.24488 -2.9598 0
M  V30 709 H 69.6775 -3.99298 -1.46427 0
M  V30 710 N 67.9926 0.231505 -1.5589 0
M  V30 711 C 69.4086 0.580748 -1.48659 0
M  V30 712 C 69.6086 1.87617 -0.73498 0
M  V30 713 O 68.6646 2.51046 -0.270586 0
M  V30 714 C 69.9776 0.669202 -2.93159 0
M  V30 715 C 71.5256 0.760499 -3.03621 0
M  V30 716 C 72.0006 0.880383 -4.49459 0
M  V30 717 N 73.4916 0.944861 -4.53461 0
M  V30 718 C 74.2266 1.05716 -5.63571 0
M  V30 719 N 73.7226 1.13403 -6.83456 0
M  V30 720 N 75.5156 1.09152 -5.514 0
M  V30 721 H 67.6666 -0.618695 -2.03189 0
M  V30 722 H 69.9296 -0.215728 -0.923128 0
M  V30 723 H 69.6356 -0.212904 -3.51055 0
M  V30 724 H 69.5096 1.5361 -3.44505 0
M  V30 725 H 71.8966 1.63305 -2.45796 0
M  V30 726 H 71.9776 -0.131864 -2.5546 0
M  V30 727 H 71.6216 0.0123284 -5.07899 0
M  V30 728 H 71.5516 1.78802 -4.95316 0
M  V30 729 H 74.0426 0.896176 -3.6712 0
M  V30 730 H 74.3556 1.21921 -7.63122 0
M  V30 731 H 72.7006 1.10333 -6.86186 0
M  V30 732 H 75.8916 1.02805 -4.56671 0
M  V30 733 H 76.0646 1.17558 -6.37247 0
M  V30 734 N 69.4707 1.49531 0.497807 0
M  V30 735 C 70.7177 1.59179 1.25173 0
M  V30 736 C 71.0457 0.279932 1.92475 0
M  V30 737 O 70.3007 -0.732383 1.81479 0
M  V30 738 C 70.5997 2.70252 2.33878 0
M  V30 739 C 70.2657 4.11644 1.84012 0
M  V30 740 C 68.9277 4.50121 1.70132 0
M  V30 741 C 71.2797 5.00121 1.46725 0
M  V30 742 C 68.6077 5.74845 1.17348 0
M  V30 743 C 70.9597 6.25366 0.95392 0
M  V30 744 C 69.6237 6.6267 0.801538 0
M  V30 745 H 68.8937 0.582478 0.45804 0
M  V30 746 H 71.5407 1.83373 0.551948 0
M  V30 747 H 69.8457 2.40041 3.09657 0
M  V30 748 H 71.5427 2.74925 2.9192 0
M  V30 749 H 68.1327 3.81274 1.95775 0
M  V30 750 H 72.3167 4.71048 1.56294 0
M  V30 751 H 67.5727 6.02444 1.04264 0
M  V30 752 H 71.7467 6.93301 0.656225 0
M  V30 753 H 69.3737 7.59197 0.390351 0
M  V30 754 N 70.9488 -0.749086 1.3866 0
M  V30 755 C 72.1738 -1.54344 1.38538 0
M  V30 756 C 72.5988 -1.88088 -0.0216655 0
M  V30 757 O 71.9568 -1.50899 -1.00494 0
M  V30 758 C 72.0048 -2.8164 2.25192 0
M  V30 759 O 71.1088 -3.7698 1.67212 0
M  V30 760 H 70.4498 -0.466654 0.472367 0
M  V30 761 H 72.9798 -0.925355 1.82478 0
M  V30 762 H 72.9898 -3.30519 2.3921 0
M  V30 763 H 71.6648 -2.56411 3.27454 0
M  V30 764 H 70.2418 -3.35699 1.6236 0
M  V30 765 N 72.4269 -1.23603 -0.977757 0
M  V30 766 C 73.3369 -1.03632 -2.1047 0
M  V30 767 C 74.3529 0.0199435 -1.73989 0
M  V30 768 O 75.5289 -0.176076 -2.00629 0
M  V30 769 C 72.5939 -0.63276 -3.40877 0
M  V30 770 C 71.6549 -1.76437 -3.91367 0
M  V30 771 C 70.8879 -1.37997 -5.15551 0
M  V30 772 O 71.1109 -0.265357 -5.69782 0
M  V30 773 O 70.0449 -2.20201 -5.60174 0
M  V30 774 H 73.8709 -1.98086 -2.30208 0
M  V30 775 H 71.4559 -1.02332 -1.08851 0
M  V30 776 H 73.3379 -0.418761 -4.19314 0
M  V30 777 H 72.0129 0.282754 -3.22463 0
M  V30 778 H 70.9199 -2.03304 -3.14036 0
M  V30 779 H 72.2529 -2.6583 -4.14241 0
M  V30 780 N 73.905 1.17692 -1.04816 0
M  V30 781 C 74.868 2.19787 -0.650117 0
M  V30 782 C 75.868 1.58044 0.296427 0
M  V30 783 O 77.058 1.74012 0.0808097 0
M  V30 784 C 74.19 3.40869 0.0456987 0
M  V30 785 H 75.383 2.56516 -1.5537 0
M  V30 786 H 72.936 1.31708 -0.841594 0
M  V30 787 H 73.671 3.09681 0.962726 0
M  V30 788 H 73.456 3.86928 -0.634727 0
M  V30 789 H 74.946 4.16445 0.310432 0
M  V30 790 N 75.3831 0.828654 1.34056 0
M  V30 791 C 76.6311 0.41863 1.97717 0
M  V30 792 C 76.9521 -1.02314 1.66002 0
M  V30 793 O 76.2221 -1.71119 0.953683 0
M  V30 794 H 74.8021 0.151809 0.731412 0
M  V30 795 H 77.4641 1.05936 1.63596 0
M  V30 796 H 76.5601 0.542318 3.07352 0
M  V30 797 N 76.8612 -1.46375 0.584142 0
M  V30 798 C 78.0912 -2.06461 0.0758195 0
M  V30 799 C 78.4992 -1.43322 -1.23512 0
M  V30 800 O 77.8422 -0.533216 -1.75791 0
M  V30 801 C 77.9042 -3.59131 -0.162773 0
M  V30 802 C 77.5682 -4.4447 1.06279 0
M  V30 803 C 78.5652 -4.80918 1.97519 0
M  V30 804 C 76.2502 -4.85584 1.28504 0
M  V30 805 C 78.2442 -5.57309 3.09331 0
M  V30 806 C 75.9312 -5.61734 2.4062 0
M  V30 807 C 76.9292 -5.9751 3.30863 0
M  V30 808 O 76.6172 -6.72121 4.41032 0
M  V30 809 H 76.3492 -0.673745 0.0551725 0
M  V30 810 H 78.9032 -1.88969 0.804984 0
M  V30 811 H 77.1332 -3.74936 -0.946565 0
M  V30 812 H 78.8222 -4.0114 -0.619782 0
M  V30 813 H 79.5882 -4.49732 1.81565 0
M  V30 814 H 75.4672 -4.57187 0.591702 0
M  V30 815 H 79.0112 -5.85152 3.79793 0
M  V30 816 H 74.9082 -5.92334 2.56537 0
M  V30 817 H 75.6762 -6.90547 4.39417 0
M  V30 818 N 78.3393 -0.321999 -1.54275 0
M  V30 819 C 79.5853 0.281461 -2.00837 0
M  V30 820 C 79.9183 1.51909 -1.20985 0
M  V30 821 O 79.1933 1.923 -0.291733 0
M  V30 822 C 79.4763 0.617162 -3.54772 0
M  V30 823 C 79.3293 -0.631064 -4.45351 0
M  V30 824 C 80.6483 1.43542 -4.16033 0
M  V30 825 H 77.7673 0.100826 -0.730071 0
M  V30 826 H 80.4093 -0.438268 -1.84876 0
M  V30 827 H 78.5593 1.23034 -3.68504 0
M  V30 828 H 80.2313 -1.26934 -4.43492 0
M  V30 829 H 78.4743 -1.26025 -4.15091 0
M  V30 830 H 79.1453 -0.351735 -5.50878 0
M  V30 831 H 81.6213 0.917134 -4.05867 0
M  V30 832 H 80.4973 1.63907 -5.23856 0
M  V30 833 H 80.7583 2.43108 -3.69257 0
M  V30 834 N 79.8174 1.5752 -0.0501392 0
M  V30 835 C 80.7474 2.14502 0.922566 0
M  V30 836 C 81.7284 1.06642 1.3252 0
M  V30 837 O 82.9134 1.34577 1.4001 0
M  V30 838 C 80.0434 2.68916 2.19776 0
M  V30 839 C 78.9974 3.8175 1.93523 0
M  V30 840 C 78.3234 4.22677 3.27487 0
M  V30 841 C 79.6234 5.06932 1.25765 0
M  V30 842 H 81.3174 2.9603 0.447952 0
M  V30 843 H 78.8634 1.42401 0.214024 0
M  V30 844 H 80.8164 3.07419 2.88222 0
M  V30 845 H 79.5404 1.84578 2.69441 0
M  V30 846 H 78.1994 3.43718 1.27489 0
M  V30 847 H 77.8474 3.35291 3.74952 0
M  V30 848 H 77.5474 4.98725 3.1072 0
M  V30 849 H 79.0714 4.63779 3.97166 0
M  V30 850 H 80.4854 5.42888 1.84244 0
M  V30 851 H 78.8824 5.88116 1.19328 0
M  V30 852 H 79.9524 4.84337 0.233536 0
M  V30 853 N 81.2955 -0.223234 1.56011 0
M  V30 854 C 82.7065 -0.790368 1.69145 0
M  V30 855 C 83.0575 -1.85055 0.651845 0
M  V30 856 O 82.1825 -2.15498 -0.197359 0
M  V30 857 C 82.7775 -1.4404 3.06656 0
M  V30 858 C 81.3365 -1.95494 3.2165 0
M  V30 859 C 80.4835 -0.814506 2.65068 0
M  V30 860 H 83.4345 0.00139011 1.587 0
M  V30 861 H 83.4555 -2.30916 3.0242 0
M  V30 862 H 82.9675 -0.668543 3.82298 0
M  V30 863 H 81.0685 -2.75487 2.50874 0
M  V30 864 H 81.1815 -2.13607 4.28846 0
M  V30 865 H 79.5455 -1.22137 2.23505 0
M  V30 866 H 80.3285 -0.0553515 3.43255 0
M  V30 867 N 82.7736 -1.49793 -0.48987 0
M  V30 868 C 84.0216 -1.59525 -1.24081 0
M  V30 869 C 84.3426 -0.288953 -1.92847 0
M  V30 870 O 83.6126 0.692436 -1.83254 0
M  V30 871 H 82.1926 -0.587796 -0.460983 0
M  V30 872 H 84.8546 -1.86477 -0.566778 0
M  V30 873 H 83.9506 -2.39696 -1.99881 0
M  V30 874 N 84.2517 0.741722 -1.39055 0
M  V30 875 C 85.1837 1.8657 -1.33133 0
M  V30 876 C 86.1967 1.61001 -0.241329 0
M  V30 877 O 87.3857 1.7136 -0.499784 0
M  V30 878 C 84.4857 3.22457 -1.04283 0
M  V30 879 C 83.6587 3.75435 -2.24427 0
M  V30 880 C 82.7177 4.89867 -1.92138 0
M  V30 881 O 81.7437 5.03879 -2.64754 0
M  V30 882 N 82.9457 5.73738 -0.88347 0
M  V30 883 H 85.7107 1.92156 -2.29991 0
M  V30 884 H 83.2717 0.922172 -1.3307 0
M  V30 885 H 85.2637 3.9657 -0.807128 0
M  V30 886 H 83.8337 3.12181 -0.161807 0
M  V30 887 H 83.0537 2.92751 -2.6399 0
M  V30 888 H 84.3417 4.07563 -3.04581 0
M  V30 889 H 83.7397 5.64999 -0.281517 0
M  V30 890 H 82.2967 6.47947 -0.707662 0
M  V30 891 N 85.7298 1.2412 0.971189 0
M  V30 892 C 86.9598 1.10415 1.7462 0
M  V30 893 C 87.3678 -0.346462 1.86001 0
M  V30 894 O 86.7108 -1.25104 1.34517 0
M  V30 895 C 86.7728 1.66596 3.18568 0
M  V30 896 C 86.4368 3.15446 3.3067 0
M  V30 897 C 87.4338 4.12636 3.16271 0
M  V30 898 C 85.1188 3.55337 3.55022 0
M  V30 899 C 87.1128 5.47699 3.26044 0
M  V30 900 C 84.7998 4.90542 3.64434 0
M  V30 901 C 85.7978 5.86532 3.49956 0
M  V30 902 O 85.4858 7.19279 3.59017 0
M  V30 903 H 85.2178 0.386616 0.55453 0
M  V30 904 H 87.7718 1.64633 1.22821 0
M  V30 905 H 86.0018 1.06808 3.71657 0
M  V30 906 H 87.6908 1.48232 3.77865 0
M  V30 907 H 88.4568 3.8316 2.97344 0
M  V30 908 H 84.3358 2.8113 3.65359 0
M  V30 909 H 87.8798 6.22603 3.14661 0
M  V30 910 H 83.7768 5.19691 3.82873 0
M  V30 911 H 84.5448 7.27153 3.75754 0
M  V30 912 N 87.2079 -1.17134 1.05439 0
M  V30 913 C 88.1379 -2.2342 0.678649 0
M  V30 914 C 89.1189 -1.66971 -0.32476 0
M  V30 915 O 90.3039 -1.93149 -0.201802 0
M  V30 916 C 87.4339 -3.47256 0.0552099 0
M  V30 917 C 86.3879 -4.16543 0.98365 0
M  V30 918 C 85.7139 -5.34231 0.223961 0
M  V30 919 C 87.0139 -4.68495 2.3089 0
M  V30 920 H 88.7079 -2.55105 1.56722 0
M  V30 921 H 86.2539 -1.2262 0.754998 0
M  V30 922 H 88.2069 -4.20828 -0.21946 0
M  V30 923 H 86.9309 -3.14846 -0.868319 0
M  V30 924 H 85.5899 -3.44887 1.24293 0
M  V30 925 H 85.2379 -4.98071 -0.702412 0
M  V30 926 H 84.9379 -5.81527 0.842627 0
M  V30 927 H 86.4619 -6.10585 -0.0433671 0
M  V30 928 H 87.8759 -5.33691 2.09396 0
M  V30 929 H 86.2729 -5.26379 2.88176 0
M  V30 930 H 87.3429 -3.85169 2.94572 0
M  V30 931 N 88.686 -0.835752 -1.33615 0
M  V30 932 C 89.616 -0.281739 -2.31794 0
M  V30 933 C 90.597 0.608833 -1.58831 0
M  V30 934 O 91.782 0.533035 -1.86741 0
M  V30 935 C 88.912 0.546612 -3.42971 0
M  V30 936 C 87.866 -0.247904 -4.27281 0
M  V30 937 C 87.192 0.704001 -5.30045 0
M  V30 938 C 88.492 -1.46324 -5.01385 0
M  V30 939 H 90.186 -1.10206 -2.78379 0
M  V30 940 H 87.732 -0.531388 -1.33837 0
M  V30 941 H 89.685 0.944467 -4.1068 0
M  V30 942 H 88.409 1.40011 -2.95067 0
M  V30 943 H 87.068 -0.627281 -3.61194 0
M  V30 944 H 86.716 1.55381 -4.78399 0
M  V30 945 H 86.416 0.176524 -5.87335 0
M  V30 946 H 87.94 1.09944 -6.0062 0
M  V30 947 H 89.354 -1.13871 -5.61877 0
M  V30 948 H 87.751 -1.92728 -5.6831 0
M  V30 949 H 88.821 -2.23467 -4.30338 0
M  V30 950 N 90.1641 1.46063 -0.591896 0
M  V30 951 C 91.4411 1.95595 -0.0137119 0
M  V30 952 C 91.8211 1.5345 1.4497 0
M  V30 953 O 91.1691 0.789543 2.14426 0
M  V30 954 C 91.3791 3.48453 -0.195373 0
M  V30 955 C 92.7271 4.24546 -0.0679765 0
M  V30 956 O 93.7511 3.55982 -0.124681 0
M  V30 957 O 92.6101 5.46467 0.0600579 0
M  V30 958 H 89.7041 0.825795 0.0446279 0
M  V30 959 H 92.2501 1.56303 -0.660859 0
M  V30 960 H 91.0221 3.72045 -1.21235 0
M  V30 961 H 90.6451 3.94597 0.487775 0
M  V30 962 N 91.6422 0.330177 1.54103 0
M  V30 963 C 92.8882 -0.270806 2.00984 0
M  V30 964 C 93.2212 -1.51265 1.21789 0
M  V30 965 O 92.4962 -1.92142 0.301927 0
M  V30 966 C 92.7792 -0.598339 3.55094 0
M  V30 967 C 92.6322 0.654674 4.4501 0
M  V30 968 C 93.9512 -1.41334 4.16789 0
M  V30 969 H 91.0702 -0.0969531 0.730595 0
M  V30 970 H 93.7122 0.448066 1.84641 0
M  V30 971 H 91.8622 -1.21078 3.69151 0
M  V30 972 H 93.5342 1.29285 4.42813 0
M  V30 973 H 91.7772 1.28224 4.14416 0
M  V30 974 H 92.4482 0.380944 5.50684 0
M  V30 975 H 94.9242 -0.895597 4.06347 0
M  V30 976 H 93.8002 -1.61127 5.24718 0
M  V30 977 H 94.0612 -2.41146 3.70541 0
M  V30 978 N 93.1203 -1.57491 0.0584922 0
M  V30 979 C 94.3693 -1.92155 -0.613146 0
M  V30 980 C 94.6823 -0.939334 -1.71569 0
M  V30 981 O 95.8883 -1.17829 -2.44599 0
M  V30 982 C 94.3443 -3.41303 -1.14195 0
M  V30 983 C 93.9523 -4.47944 -0.0711265 0
M  V30 984 C 95.6963 -3.84988 -1.78841 0
M  V30 985 C 93.6033 -5.88212 -0.613225 0
M  V30 986 H 92.5333 -0.717162 -0.232796 0
M  V30 987 H 95.1843 -1.83049 0.12857 0
M  V30 988 H 93.5663 -3.45437 -1.93621 0
M  V30 989 H 94.7403 -4.55408 0.702836 0
M  V30 990 H 93.0553 -4.13644 0.478313 0
M  V30 991 H 95.6523 -4.87159 -2.20408 0
M  V30 992 H 95.9953 -3.21632 -2.64308 0
M  V30 993 H 96.5283 -3.83401 -1.06059 0
M  V30 994 H 93.2673 -6.55183 0.203978 0
M  V30 995 H 92.7873 -5.84294 -1.35501 0
M  V30 996 H 94.4663 -6.37687 -1.09383 0
M  V30 997 N 94.5984 0.214957 -1.56127 0
M  V30 998 C 95.8444 0.939762 -1.79712 0
M  V30 999 C 96.1774 1.83723 -0.629247 0
M  V30 1000 O 95.4524 1.90925 0.371197 0
M  V30 1001 C 95.7354 1.77306 -3.13424 0
M  V30 1002 C 95.5884 0.90164 -4.40671 0
M  V30 1003 C 96.9074 2.74956 -3.43638 0
M  V30 1004 H 94.0264 0.340214 -0.653776 0
M  V30 1005 H 96.6684 0.20824 -1.88855 0
M  V30 1006 H 94.8184 2.39673 -3.0576 0
M  V30 1007 H 96.4904 0.294206 -4.60361 0
M  V30 1008 H 94.7334 0.207368 -4.33304 0
M  V30 1009 H 95.4044 1.51923 -5.30682 0
M  V30 1010 H 97.8804 2.22724 -3.51473 0
M  V30 1011 H 96.7564 3.30358 -4.38355 0
M  V30 1012 H 97.0174 3.53023 -2.66134 0
M  V30 1013 N 96.0765 1.50051 0.48192 0
M  V30 1014 C 97.0245 1.68635 1.60203 0
M  V30 1015 C 98.0185 0.552184 1.60148 0
M  V30 1016 O 99.2245 0.732377 1.64427 0
M  V30 1017 H 95.5995 0.532081 0.531407 0
M  V30 1018 H 97.5705 2.62616 1.41688 0
M  V30 1019 C 96.3195 1.78775 2.9822 0
M  V30 1020 H 95.6425 2.6543 2.98976 0
M  V30 1021 H 97.0825 1.95806 3.7608 0
M  V30 1022 C 95.5415 0.536849 3.32595 0
M  V30 1023 O 96.0715 -0.328897 4.00351 0
M  V30 1024 N 94.2775 0.394091 2.87915 0
M  V30 1025 H 93.8245 1.09962 2.32951 0
M  V30 1026 H 93.7825 -0.441737 3.11281 0
M  V30 1027 N 97.5546 -0.734337 1.39446 0
M  V30 1028 C 98.8026 -1.49096 1.36436 0
M  V30 1029 C 99.1236 -1.94961 -0.0388255 0
M  V30 1030 O 98.3936 -1.69033 -0.990191 0
M  V30 1031 H 96.9736 -0.5531 0.502085 0
M  V30 1032 H 99.6356 -0.871725 1.74319 0
M  V30 1033 H 98.7316 -2.37276 2.02747 0
M  V30 1034 N 99.0327 -1.24633 -0.964593 0
M  V30 1035 C 99.9647 -0.999302 -2.06268 0
M  V30 1036 C 100.978 0.0323226 -1.62768 0
M  V30 1037 O 102.167 -0.205079 -1.77318 0
M  V30 1038 C 99.2667 -0.486816 -3.35385 0
M  V30 1039 C 98.4397 -1.5823 -4.07777 0
M  V30 1040 C 97.4987 -1.07191 -5.15166 0
M  V30 1041 O 96.5247 -1.76426 -5.41168 0
M  V30 1042 N 97.7267 0.0920373 -5.80427 0
M  V30 1043 H 100.492 -1.94477 -2.28033 0
M  V30 1044 H 98.0527 -1.15704 -1.13244 0
M  V30 1045 H 100.045 -0.130066 -4.04491 0
M  V30 1046 H 98.6147 0.364459 -3.10468 0
M  V30 1047 H 97.8347 -2.11109 -3.32906 0
M  V30 1048 H 99.1227 -2.31854 -4.52903 0
M  V30 1049 H 98.5207 0.670784 -5.61709 0
M  V30 1050 H 97.0777 0.389905 -6.50633 0
M  V30 1051 N 100.511 1.16574 -1.06058 0
M  V30 1052 C 101.736 1.91493 -0.796562 0
M  V30 1053 C 102.161 1.76773 0.642868 0
M  V30 1054 O 101.519 1.09142 1.44768 0
M  V30 1055 C 101.567 3.40293 -1.19303 0
M  V30 1056 O 100.671 4.11074 -0.330394 0
M  V30 1057 H 100.012 0.596678 -0.291326 0
M  V30 1058 H 102.542 1.47708 -1.41575 0
M  V30 1059 H 102.552 3.91057 -1.16356 0
M  V30 1060 H 101.227 3.50326 -2.24153 0
M  V30 1061 H 99.8038 3.70513 -0.421225 0
M  V30 1062 N 101.989 0.842826 1.3317 0
M  V30 1063 C 103.238 0.436738 1.96915 0
M  V30 1064 C 103.551 -1.01025 1.67491 0
M  V30 1065 O 104.757 -1.5212 2.24881 0
M  V30 1066 C 103.213 0.730021 3.52418 0
M  V30 1067 C 102.821 2.19195 3.90714 0
M  V30 1068 C 104.565 0.391076 4.22695 0
M  V30 1069 C 102.472 2.42907 5.39212 0
M  V30 1070 H 101.402 0.15958 0.736919 0
M  V30 1071 H 104.053 1.03196 1.51733 0
M  V30 1072 H 102.435 0.0643755 3.95948 0
M  V30 1073 H 103.609 2.8984 3.58231 0
M  V30 1074 H 101.924 2.49425 3.33431 0
M  V30 1075 H 104.521 0.545817 5.31907 0
M  V30 1076 H 104.864 -0.666294 4.10933 0
M  V30 1077 H 105.397 1.01212 3.84709 0
M  V30 1078 H 102.136 3.47224 5.55982 0
M  V30 1079 H 101.656 1.76827 5.73142 0
M  V30 1080 H 103.335 2.2626 6.06148 0
M  V30 1081 N 103.467 -1.45747 0.599634 0
M  V30 1082 C 104.692 -2.07178 0.0960198 0
M  V30 1083 C 105.117 -1.44268 -1.207 0
M  V30 1084 O 104.475 -0.532503 -1.73303 0
M  V30 1085 C 104.523 -3.60579 -0.0385348 0
M  V30 1086 O 103.627 -3.97713 -1.0908 0
M  V30 1087 H 102.968 -0.660251 0.0704593 0
M  V30 1088 H 105.498 -1.87124 0.827385 0
M  V30 1089 H 105.508 -4.07298 -0.239304 0
M  V30 1090 H 104.183 -4.05756 0.912947 0
M  V30 1091 H 102.76 -3.62678 -0.867135 0
M  V30 1092 N 104.945 -0.338344 -1.53925 0
M  V30 1093 C 106.356 0.146651 -1.86123 0
M  V30 1094 C 106.707 1.5042 -1.2597 0
M  V30 1095 O 105.832 2.08723 -0.571294 0
M  V30 1096 C 106.427 0.272879 -3.37699 0
M  V30 1097 C 104.986 0.702103 -3.69794 0
M  V30 1098 C 104.133 -0.167304 -2.76795 0
M  V30 1099 H 107.084 -0.558123 -1.48562 0
M  V30 1100 H 107.105 1.10128 -3.64214 0
M  V30 1101 H 106.617 -0.715307 -3.81451 0
M  V30 1102 H 104.718 1.6995 -3.31584 0
M  V30 1103 H 104.831 0.495604 -4.7653 0
M  V30 1104 H 103.195 0.359527 -2.5215 0
M  V30 1105 H 103.978 -1.15253 -3.23375 0
M  V30 1106 N 106.423 1.57458 -0.0668435 0
M  V30 1107 C 107.386 2.11323 0.887422 0
M  V30 1108 C 108.386 1.03618 1.22964 0
M  V30 1109 O 109.576 1.29626 1.16373 0
M  V30 1110 C 106.708 2.61048 2.19242 0
M  V30 1111 H 107.901 2.96942 0.420194 0
M  V30 1112 H 105.454 1.55239 0.181793 0
M  V30 1113 H 106.189 1.78868 2.70512 0
M  V30 1114 H 105.974 3.39769 1.95702 0
M  V30 1115 H 107.464 3.02814 2.87565 0
M  V30 1116 N 107.901 -0.206675 1.56239 0
M  V30 1117 C 109.126 -0.949474 1.8439 0
M  V30 1118 C 109.551 -1.76549 0.649016 0
M  V30 1119 O 108.909 -1.76782 -0.402231 0
M  V30 1120 C 108.957 -1.83078 3.10668 0
M  V30 1121 O 108.061 -2.9281 2.90407 0
M  V30 1122 H 107.402 -0.268033 0.607499 0
M  V30 1123 H 109.932 -0.215488 2.03462 0
M  V30 1124 H 109.942 -2.2377 3.41161 0
M  V30 1125 H 108.617 -1.23112 3.97261 0
M  V30 1126 H 107.194 -2.55956 2.71184 0
M  V30 1127 N 109.379 -1.50304 -0.473955 0
M  V30 1128 C 110.309 -1.71886 -1.58042 0
M  V30 1129 C 111.29 -0.567799 -1.60344 0
M  V30 1130 O 112.475 -0.806623 -1.76656 0
M  V30 1131 C 109.605 -1.81036 -2.96384 0
M  V30 1132 C 108.559 -2.962 -3.08949 0
M  V30 1133 C 107.885 -2.9049 -4.48909 0
M  V30 1134 C 109.185 -4.36752 -2.86434 0
M  V30 1135 H 110.879 -2.64527 -1.40234 0
M  V30 1136 H 108.425 -1.27295 -0.673201 0
M  V30 1137 H 110.378 -1.94719 -3.73714 0
M  V30 1138 H 109.102 -0.850147 -3.15341 0
M  V30 1139 H 107.761 -2.82164 -2.3405 0
M  V30 1140 H 107.409 -1.92321 -4.64781 0
M  V30 1141 H 107.109 -3.67802 -4.58253 0
M  V30 1142 H 108.633 -3.06218 -5.28264 0
M  V30 1143 H 110.047 -4.5133 -3.53517 0
M  V30 1144 H 108.444 -5.15493 -3.07225 0
M  V30 1145 H 109.514 -4.49321 -1.82316 0
M  V30 1146 N 110.857 0.726932 -1.39834 0
M  V30 1147 C 111.789 1.85147 -1.35104 0
M  V30 1148 C 112.802 1.60736 -0.258392 0
M  V30 1149 O 113.991 1.70821 -0.517931 0
M  V30 1150 C 111.091 3.21332 -1.07697 0
M  V30 1151 C 110.264 3.73033 -2.28396 0
M  V30 1152 C 109.323 4.87802 -1.97322 0
M  V30 1153 O 108.349 5.01043 -2.70083 0
M  V30 1154 N 109.551 5.72768 -0.944273 0
M  V30 1155 H 112.316 1.89706 -2.32017 0
M  V30 1156 H 109.877 0.908006 -1.3404 0
M  V30 1157 H 111.869 3.95691 -0.849144 0
M  V30 1158 H 110.439 3.11992 -0.194909 0
M  V30 1159 H 109.659 2.89934 -2.6708 0
M  V30 1160 H 110.947 4.0431 -3.08887 0
M  V30 1161 H 110.345 5.64669 -0.341427 0
M  V30 1162 H 108.902 6.4716 -0.776346 0
M  V30 1163 N 112.336 1.25143 0.95797 0
M  V30 1164 C 113.585 1.0909 1.69654 0
M  V30 1165 C 113.898 -0.368548 1.92097 0
M  V30 1166 O 115.104 -0.649455 2.63618 0
M  V30 1167 C 113.56 1.90395 3.05414 0
M  V30 1168 C 113.168 3.4081 2.90779 0
M  V30 1169 C 114.912 1.82901 3.83076 0
M  V30 1170 C 112.819 4.14423 4.21909 0
M  V30 1171 H 111.749 0.404625 0.636235 0
M  V30 1172 H 114.4 1.4931 1.06672 0
M  V30 1173 H 112.782 1.42996 3.69281 0
M  V30 1174 H 113.956 3.95859 2.35865 0
M  V30 1175 H 112.271 3.49361 2.26575 0
M  V30 1176 H 114.868 2.35196 4.80195 0
M  V30 1177 H 115.211 0.796224 4.08615 0
M  V30 1178 H 115.744 2.28033 3.25954 0
M  V30 1179 H 112.483 5.18102 4.01561 0
M  V30 1180 H 112.003 3.64159 4.76601 0
M  V30 1181 H 113.682 4.21956 4.90471 0
M  V30 1182 N 113.814 -1.1601 1.06675 0
M  V30 1183 C 115.039 -1.91068 0.806706 0
M  V30 1184 C 115.464 -1.77112 -0.633485 0
M  V30 1185 O 114.822 -1.09908 -1.44187 0
M  V30 1186 C 114.87 -3.39655 1.21106 0
M  V30 1187 O 113.974 -4.10893 0.352189 0
M  V30 1188 H 113.315 -0.595125 0.294486 0
M  V30 1189 H 115.845 -1.46955 1.42356 0
M  V30 1190 H 115.855 -3.90434 1.18428 0
M  V30 1191 H 114.53 -3.49132 2.26008 0
M  V30 1192 H 113.107 -3.70285 0.440868 0
M  V30 1193 N 115.292 -0.849877 -1.32721 0
M  V30 1194 C 116.539 -0.450923 -1.97416 0
M  V30 1195 C 116.867 0.992376 -1.67279 0
M  V30 1196 O 116.122 1.71048 -0.950845 0
M  V30 1197 C 116.421 -0.631272 -3.51781 0
M  V30 1198 C 116.087 -2.04432 -4.01894 0
M  V30 1199 C 114.749 -2.4308 -4.1529 0
M  V30 1200 C 117.101 -2.96679 -4.28522 0
M  V30 1201 C 114.429 -3.73257 -4.52654 0
M  V30 1202 C 116.781 -4.26349 -4.67343 0
M  V30 1203 C 115.445 -4.64939 -4.78945 0
M  V30 1204 H 114.715 -0.165004 -0.722395 0
M  V30 1205 H 117.362 -1.07901 -1.58207 0
M  V30 1206 H 115.667 0.0800767 -3.91718 0
M  V30 1207 H 117.364 -0.302709 -3.99856 0
M  V30 1208 H 113.954 -1.73419 -3.91949 0
M  V30 1209 H 118.138 -2.68054 -4.17685 0
M  V30 1210 H 113.394 -4.02946 -4.59831 0
M  V30 1211 H 117.568 -4.97895 -4.86902 0
M  V30 1212 H 115.195 -5.65855 -5.07654 0
M  V30 1213 N 116.77 1.45427 -0.607355 0
M  V30 1214 C 118.016 2.0254 -0.102607 0
M  V30 1215 C 118.349 1.47478 1.26348 0
M  V30 1216 O 117.624 0.64939 1.83339 0
M  V30 1217 C 117.907 3.60044 -0.0634347 0
M  V30 1218 C 117.76 4.2544 -1.46017 0
M  V30 1219 C 119.079 4.35646 0.624514 0
M  V30 1220 H 116.198 0.73598 -0.0387607 0
M  V30 1221 H 118.84 1.73284 -0.779282 0
M  V30 1222 H 116.99 3.85101 0.512808 0
M  V30 1223 H 118.662 4.11569 -2.08347 0
M  V30 1224 H 116.905 3.83849 -2.02094 0
M  V30 1225 H 117.576 5.34342 -1.385 0
M  V30 1226 H 120.052 4.15882 0.134723 0
M  V30 1227 H 118.928 5.45376 0.621028 0
M  V30 1228 H 119.189 4.08501 1.69055 0
M  V30 1229 N 118.248 0.346503 1.53744 0
M  V30 1230 C 119.158 -0.517293 2.28826 0
M  V30 1231 C 120.174 -1.10935 1.3405 0
M  V30 1232 O 121.35 -1.1244 1.6709 0
M  V30 1233 C 118.415 -1.65098 3.04866 0
M  V30 1234 C 117.476 -1.0884 4.15274 0
M  V30 1235 C 116.709 -2.16806 4.87679 0
M  V30 1236 O 116.932 -3.3758 4.59778 0
M  V30 1237 O 115.866 -1.80934 5.74061 0
M  V30 1238 H 119.692 0.0931396 3.03557 0
M  V30 1239 H 117.277 0.111458 1.48984 0
M  V30 1240 H 119.159 -2.31053 3.5241 0
M  V30 1241 H 117.834 -2.24717 2.32989 0
M  V30 1242 H 116.741 -0.3933 3.72027 0
M  V30 1243 H 118.074 -0.537036 4.89261 0
M  V30 1244 N 119.726 -1.57421 0.075193 0
M  V30 1245 C 121.137 -1.81021 -0.456964 0
M  V30 1246 C 121.488 -0.98936 -1.69429 0
M  V30 1247 O 120.613 -0.212865 -2.15351 0
M  V30 1248 C 121.208 -3.28329 -0.83581 0
M  V30 1249 C 119.767 -3.52764 -1.31281 0
M  V30 1250 C 118.914 -2.75676 -0.299648 0
M  V30 1251 H 121.865 -1.55822 0.300856 0
M  V30 1252 H 121.886 -3.40564 -1.69696 0
M  V30 1253 H 121.398 -3.88046 0.0649238 0
M  V30 1254 H 119.499 -2.98355 -2.23193 0
M  V30 1255 H 119.612 -4.61451 -1.28839 0
M  V30 1256 H 117.976 -2.42538 -0.777641 0
M  V30 1257 H 118.759 -3.38132 0.593417 0
M  V30 1258 N 121.204 0.198386 -1.56346 0
M  V30 1259 C 122.167 1.22952 -1.93431 0
M  V30 1260 C 123.167 1.38611 -0.815092 0
M  V30 1261 O 124.357 1.36479 -1.08255 0
M  V30 1262 C 121.489 2.59946 -2.20546 0
M  V30 1263 H 122.682 0.912626 -2.85677 0
M  V30 1264 H 120.235 0.43977 -1.49986 0
M  V30 1265 H 120.97 2.96696 -1.30927 0
M  V30 1266 H 120.755 2.49953 -3.02102 0
M  V30 1267 H 122.245 3.3431 -2.50253 0
M  V30 1268 N 122.682 1.50554 0.465978 0
M  V30 1269 C 123.612 1.72722 1.57128 0
M  V30 1270 C 124.593 0.576294 1.6004 0
M  V30 1271 O 125.778 0.81598 1.76225 0
M  V30 1272 C 122.908 1.82605 2.95419 0
M  V30 1273 C 121.862 2.97835 3.07373 0
M  V30 1274 C 121.188 2.92867 4.47363 0
M  V30 1275 C 122.488 4.38265 2.84114 0
M  V30 1276 H 124.182 2.65267 1.38829 0
M  V30 1277 H 121.728 1.2765 0.666441 0
M  V30 1278 H 123.681 1.96698 3.72677 0
M  V30 1279 H 122.405 0.866858 3.14886 0
M  V30 1280 H 121.064 2.83401 2.3255 0
M  V30 1281 H 120.712 1.94783 4.63755 0
M  V30 1282 H 120.412 3.70227 4.56296 0
M  V30 1283 H 121.936 3.09015 5.26633 0
M  V30 1284 H 123.35 4.53198 3.51118 0
M  V30 1285 H 121.747 5.17115 3.04487 0
M  V30 1286 H 122.817 4.50281 1.7993 0
M  V30 1287 N 124.16 -0.719506 1.40217 0
M  V30 1288 C 125.385 -1.51371 1.4178 0
M  V30 1289 C 125.81 -1.88091 0.0182355 0
M  V30 1290 O 125.168 -1.52997 -0.972707 0
M  V30 1291 C 125.216 -2.768 2.31115 0
M  V30 1292 O 124.32 -3.73349 1.7517 0
M  V30 1293 H 123.661 -0.456529 0.482159 0
M  V30 1294 H 126.191 -0.88644 1.844 0
M  V30 1295 H 126.201 -3.25371 2.46167 0
M  V30 1296 H 124.876 -2.49407 3.3282 0
M  V30 1297 H 123.453 -3.32179 1.69444 0
M  V30 1298 N 125.638 -1.25649 -0.95132 0
M  V30 1299 C 126.886 -1.10375 -1.69298 0
M  V30 1300 C 127.207 0.355339 -1.91735 0
M  V30 1301 O 126.477 1.25188 -1.50681 0
M  V30 1302 H 125.057 -0.405461 -0.627384 0
M  V30 1303 H 127.719 -1.57823 -1.14358 0
M  V30 1304 H 126.815 -1.61465 -2.67087 0
M  V30 1305 N 127.117 1.15442 -1.07289 0
M  V30 1306 C 128.394 1.82306 -0.708792 0
M  V30 1307 C 128.774 1.94991 0.808807 0
M  V30 1308 O 128.122 1.50085 1.72298 0
M  V30 1309 C 128.332 3.18695 -1.42247 0
M  V30 1310 C 129.68 3.94341 -1.57417 0
M  V30 1311 O 130.704 3.28247 -1.38319 0
M  V30 1312 O 129.563 5.12839 -1.88834 0
M  V30 1313 H 126.657 0.787628 -0.252132 0
M  V30 1314 H 129.203 1.22559 -1.17377 0
M  V30 1315 H 127.975 3.04557 -2.45684 0
M  V30 1316 H 127.598 3.86128 -0.948223 0
M  V30 1317 N 128.595 0.856903 1.32268 0
M  V30 1318 C 129.542 0.301172 2.28827 0
M  V30 1319 C 130.512 -0.593104 1.5515 0
M  V30 1320 O 131.697 -0.527537 1.83362 0
M  V30 1321 C 128.837 -0.502523 3.41422 0
M  V30 1322 C 127.95 0.417797 4.29975 0
M  V30 1323 C 127.085 -0.398749 5.29701 0
M  V30 1324 C 126.124 0.518827 6.09897 0
M  V30 1325 N 125.261 -0.260674 7.01616 0
M  V30 1326 H 130.101 1.12983 2.75751 0
M  V30 1327 H 127.638 0.568582 1.35667 0
M  V30 1328 H 129.596 -0.984141 4.05426 0
M  V30 1329 H 128.226 -1.29599 2.95642 0
M  V30 1330 H 127.278 1.01781 3.66531 0
M  V30 1331 H 128.59 1.12191 4.86019 0
M  V30 1332 H 127.744 -0.943435 5.9932 0
M  V30 1333 H 126.483 -1.13622 4.7428 0
M  V30 1334 H 125.488 1.07538 5.39181 0
M  V30 1335 H 126.713 1.25495 6.67404 0
M  V30 1336 H 124.659 -0.981198 6.4862 0
M  V30 1337 H 124.576 0.384364 7.55022 0
M  V30 1338 H 125.844 -0.787014 7.75517 0
M  V30 1339 N 130.073 -1.45103 0.615059 0
M  V30 1340 C 131.036 -2.29025 -0.0895485 0
M  V30 1341 C 132.036 -1.40174 -0.787906 0
M  V30 1342 O 133.226 -1.62217 -0.634933 0
M  V30 1343 C 130.358 -3.21376 -1.13711 0
M  V30 1344 H 131.551 -2.92807 0.648382 0
M  V30 1345 H 129.104 -1.51749 0.374444 0
M  V30 1346 H 129.839 -2.6241 -1.90556 0
M  V30 1347 H 129.624 -3.86834 -0.640475 0
M  V30 1348 H 131.114 -3.84459 -1.63036 0
M  V30 1349 N 131.551 -0.354651 -1.53558 0
M  V30 1350 C 132.461 0.50515 -2.29097 0
M  V30 1351 C 133.477 1.10223 -1.34636 0
M  V30 1352 O 134.653 1.11553 -1.67684 0
M  V30 1353 C 131.718 1.63479 -3.05738 0
M  V30 1354 C 130.779 1.06636 -4.15845 0
M  V30 1355 C 130.012 2.14217 -4.88822 0
M  V30 1356 O 130.235 3.35137 -4.61562 0
M  V30 1357 O 129.169 1.77887 -5.75013 0
M  V30 1358 H 132.995 -0.109237 -3.03503 0
M  V30 1359 H 130.58 -0.119357 -1.48922 0
M  V30 1360 H 132.462 2.2918 -3.5363 0
M  V30 1361 H 131.137 2.23478 -2.34178 0
M  V30 1362 H 130.044 0.373565 -3.7223 0
M  V30 1363 H 131.377 0.511081 -4.89539 0
M  V30 1364 N 133.029 1.57378 -0.0835403 0
M  V30 1365 C 133.976 2.13384 0.879539 0
M  V30 1366 C 134.946 1.04936 1.28754 0
M  V30 1367 O 136.131 1.32662 1.37133 0
M  V30 1368 C 133.271 2.70932 2.13752 0
M  V30 1369 C 132.384 3.93575 1.7811 0
M  V30 1370 C 131.519 4.39326 2.98607 0
M  V30 1371 C 130.558 5.54587 2.59037 0
M  V30 1372 N 129.695 5.95243 3.72331 0
M  V30 1373 H 134.535 2.9537 0.395076 0
M  V30 1374 H 132.072 1.45953 0.183349 0
M  V30 1375 H 134.03 3.02411 2.87408 0
M  V30 1376 H 132.66 1.91693 2.59718 0
M  V30 1377 H 131.712 3.68483 0.94469 0
M  V30 1378 H 133.024 4.77258 1.45005 0
M  V30 1379 H 132.178 4.72528 3.80529 0
M  V30 1380 H 130.917 3.5452 3.34913 0
M  V30 1381 H 129.922 5.21024 1.75539 0
M  V30 1382 H 131.147 6.41133 2.23887 0
M  V30 1383 H 129.093 5.13385 4.08378 0
M  V30 1384 H 129.01 6.73694 3.43034 0
M  V30 1385 H 130.278 6.33072 4.54797 0
M  V30 1386 N 134.507 -0.190092 1.56449 0
M  V30 1387 C 135.454 -1.23557 1.94942 0
M  V30 1388 C 136.424 -1.44972 0.810696 0
M  V30 1389 O 137.609 -1.58023 1.06927 0
M  V30 1390 C 134.749 -2.57416 2.2985 0
M  V30 1391 C 133.862 -2.43537 3.5681 0
M  V30 1392 C 132.997 -3.70134 3.81017 0
M  V30 1393 C 132.036 -3.51109 5.01387 0
M  V30 1394 N 131.173 -4.6973 5.21822 0
M  V30 1395 H 136.013 -0.900304 2.84075 0
M  V30 1396 H 133.55 -0.43318 1.40577 0
M  V30 1397 H 135.508 -3.35409 2.48106 0
M  V30 1398 H 134.138 -2.88975 1.43852 0
M  V30 1399 H 133.19 -1.56816 3.46573 0
M  V30 1400 H 134.502 -2.25415 4.4496 0
M  V30 1401 H 133.656 -4.56566 3.9954 0
M  V30 1402 H 132.395 -3.91215 2.91207 0
M  V30 1403 H 131.4 -2.63063 4.82782 0
M  V30 1404 H 132.625 -3.31468 5.9271 0
M  V30 1405 H 130.571 -4.91065 4.34961 0
M  V30 1406 H 130.488 -4.54452 6.0416 0
M  V30 1407 H 131.756 -5.57499 5.44808 0
M  V30 1408 N 135.985 -1.50799 -0.457987 0
M  V30 1409 C 136.915 -1.73553 -1.5621 0
M  V30 1410 C 137.896 -0.584774 -1.59732 0
M  V30 1411 O 139.081 -0.825314 -1.7579 0
M  V30 1412 C 136.211 -1.84169 -2.94447 0
M  V30 1413 C 135.165 -2.99461 -3.0579 0
M  V30 1414 C 134.491 -2.95235 -4.45803 0
M  V30 1415 C 135.791 -4.39766 -2.81786 0
M  V30 1416 H 137.485 -2.66 -1.37421 0
M  V30 1417 H 135.031 -1.28002 -0.659662 0
M  V30 1418 H 136.984 -1.98672 -3.71628 0
M  V30 1419 H 135.708 -0.883545 -3.14422 0
M  V30 1420 H 134.367 -2.8463 -2.31044 0
M  V30 1421 H 134.015 -1.97239 -4.62715 0
M  V30 1422 H 133.715 -3.72642 -4.54326 0
M  V30 1423 H 135.239 -3.11803 -5.24987 0
M  V30 1424 H 136.653 -4.55054 -3.4871 0
M  V30 1425 H 135.05 -5.18722 -3.0174 0
M  V30 1426 H 136.12 -4.51229 -1.7754 0
M  V30 1427 N 137.463 0.71206 -1.40597 0
M  V30 1428 C 138.874 1.29135 -1.34837 0
M  V30 1429 C 139.225 1.96186 -0.0235395 0
M  V30 1430 O 138.35 1.97768 0.878444 0
M  V30 1431 C 138.945 2.34827 -2.44217 0
M  V30 1432 C 137.504 2.88371 -2.41907 0
M  V30 1433 C 136.651 1.62202 -2.24913 0
M  V30 1434 H 139.602 0.507944 -1.50352 0
M  V30 1435 H 139.623 3.15749 -2.12327 0
M  V30 1436 H 139.135 1.85996 -3.40627 0
M  V30 1437 H 137.236 3.41422 -1.49204 0
M  V30 1438 H 137.349 3.39925 -3.37621 0
M  V30 1439 H 135.713 1.874 -1.72492 0
M  V30 1440 H 136.496 1.15391 -3.23326 0
M  V30 1441 N 138.941 1.26152 0.944643 0
M  V30 1442 C 139.873 1.03199 2.04652 0
M  V30 1443 C 140.886 -0.00642356 1.62799 0
M  V30 1444 O 142.075 0.233263 1.76969 0
M  V30 1445 C 139.175 0.540111 3.34568 0
M  V30 1446 C 138.348 1.64697 4.05208 0
M  V30 1447 C 137.407 1.15374 5.13396 0
M  V30 1448 O 136.433 1.85013 5.38293 0
M  V30 1449 N 137.635 0.00031529 5.805 0
M  V30 1450 H 140.4 1.9808 2.2491 0
M  V30 1451 H 137.961 1.17491 1.11389 0
M  V30 1452 H 139.953 0.194401 4.04233 0
M  V30 1453 H 138.523 -0.315021 3.11009 0
M  V30 1454 H 137.743 2.16379 3.29506 0
M  V30 1455 H 139.031 2.3903 4.49157 0
M  V30 1456 H 138.429 -0.581336 5.62705 0
M  V30 1457 H 136.986 -0.286346 6.51171 0
M  V30 1458 N 140.419 -1.14872 1.07899 0
M  V30 1459 C 141.382 -2.17986 0.708161 0
M  V30 1460 C 142.382 -1.58775 -0.25442 0
M  V30 1461 O 143.572 -1.74166 -0.034645 0
M  V30 1462 C 140.704 -3.40871 0.0446929 0
M  V30 1463 H 141.897 -2.52306 1.62116 0
M  V30 1464 H 139.45 -1.2943 0.876218 0
M  V30 1465 H 140.185 -3.12124 -0.880281 0
M  V30 1466 H 139.97 -3.8511 0.737091 0
M  V30 1467 H 141.46 -4.17121 -0.19991 0
M  V30 1468 N 141.898 -0.863906 -1.31812 0
M  V30 1469 C 143.138 -0.47825 -1.98726 0
M  V30 1470 C 143.502 0.950397 -1.66828 0
M  V30 1471 O 144.703 1.44109 -2.26905 0
M  V30 1472 C 142.974 -0.721134 -3.50049 0
M  V30 1473 S 144.533 -0.434432 -4.36644 0
M  V30 1474 H 141.351 -0.178773 -0.688158 0
M  V30 1475 H 143.953 -1.11862 -1.60334 0
M  V30 1476 H 142.657 -1.75981 -3.70755 0
M  V30 1477 H 142.188 -0.0675315 -3.93342 0
M  V30 1478 H 144.203 0.735786 -4.90714 0
M  V30 1479 N 143.376 1.44774 -0.622745 0
M  V30 1480 C 144.306 2.33382 0.0741861 0
M  V30 1481 C 145.287 1.47719 0.843387 0
M  V30 1482 O 146.472 1.76458 0.810934 0
M  V30 1483 C 143.602 3.30663 1.06204 0
M  V30 1484 C 142.556 4.26079 0.405037 0
M  V30 1485 C 141.882 5.13165 1.5022 0
M  V30 1486 C 143.182 5.1781 -0.683414 0
M  V30 1487 H 144.876 2.91905 -0.665713 0
M  V30 1488 H 142.422 1.40363 -0.321587 0
M  V30 1489 H 144.375 3.9153 1.55827 0
M  V30 1490 H 143.099 2.70331 1.83272 0
M  V30 1491 H 141.758 3.66532 -0.0704683 0
M  V30 1492 H 141.406 4.49191 2.26355 0
M  V30 1493 H 141.106 5.77812 1.06803 0
M  V30 1494 H 142.63 5.76902 2.00041 0
M  V30 1495 H 144.044 5.72661 -0.270631 0
M  V30 1496 H 142.441 5.91015 -1.04023 0
M  V30 1497 H 143.511 4.59326 -1.55395 0
M  V30 1498 N 144.854 0.36279 1.53368 0
M  V30 1499 C 146.082 -0.228613 2.05633 0
M  V30 1500 C 146.497 -1.42676 1.23649 0
M  V30 1501 O 145.854 -1.80394 0.27647 0
M  V30 1502 C 145.905 -0.624845 3.56059 0
M  V30 1503 O 145.626 0.525675 4.34935 0
M  V30 1504 C 147.127 -1.27493 4.24571 0
M  V30 1505 H 144.347 -0.0407183 0.669763 0
M  V30 1506 H 146.891 0.520352 1.97769 0
M  V30 1507 H 145.046 -1.32373 3.64083 0
M  V30 1508 H 145.46 0.205969 5.24095 0
M  V30 1509 H 146.934 -1.50277 5.31151 0
M  V30 1510 H 147.411 -2.23439 3.78116 0
M  V30 1511 H 148.017 -0.617558 4.20792 0
M  V30 1512 N 146.332 -1.57332 0.0918853 0
M  V30 1513 C 147.557 -1.98995 -0.584442 0
M  V30 1514 C 147.982 -0.970528 -1.61128 0
M  V30 1515 O 147.34 0.0613904 -1.81196 0
M  V30 1516 C 147.388 -3.39636 -1.21161 0
M  V30 1517 O 146.492 -3.40447 -2.32744 0
M  V30 1518 H 145.833 -0.647165 -0.148572 0
M  V30 1519 H 148.363 -2.03873 0.172347 0
M  V30 1520 H 148.373 -3.7726 -1.55367 0
M  V30 1521 H 147.048 -4.13356 -0.459313 0
M  V30 1522 H 145.625 -3.14614 -2.0018 0
M  V30 1523 N 147.81 0.181792 -1.56548 0
M  V30 1524 C 149.087 0.926765 -1.72251 0
M  V30 1525 C 149.467 2.00831 -0.650386 0
M  V30 1526 O 148.815 2.26008 0.336521 0
M  V30 1527 C 149.025 1.50106 -3.1507 0
M  V30 1528 C 150.373 1.97805 -3.75711 0
M  V30 1529 O 151.397 1.59922 -3.18282 0
M  V30 1530 O 150.256 2.67555 -4.76525 0
M  V30 1531 H 147.35 0.435506 -0.703039 0
M  V30 1532 H 149.896 0.170443 -1.68842 0
M  V30 1533 H 148.668 0.72212 -3.84579 0
M  V30 1534 H 148.291 2.32186 -3.22763 0
M  V30 1535 N 149.288 1.51039 0.449983 0
M  V30 1536 C 150.221 1.66105 1.56474 0
M  V30 1537 C 151.199 0.508776 1.54435 0
M  V30 1538 O 152.383 0.731005 1.73749 0
M  V30 1539 C 149.51 1.66304 2.9506 0
M  V30 1540 C 148.556 2.87346 3.15174 0
M  V30 1541 S 149.389 4.4835 2.92818 0
M  V30 1542 C 150.545 4.51274 4.33708 0
M  V30 1543 H 150.778 2.60397 1.43459 0
M  V30 1544 H 148.311 1.40565 0.638805 0
M  V30 1545 H 150.269 1.67103 3.74949 0
M  V30 1546 H 148.93 0.732108 3.05449 0
M  V30 1547 H 148.123 2.83849 4.16468 0
M  V30 1548 H 147.725 2.84223 2.43091 0
M  V30 1549 H 150.017 4.26136 5.26701 0
M  V30 1550 H 150.96 5.53017 4.42242 0
M  V30 1551 H 151.368 3.80738 4.16772 0
M  V30 1552 N 150.766 -0.704594 1.40972 0
M  V30 1553 C 152.012 -1.46675 1.40051 0
M  V30 1554 C 152.345 -1.94199 0.00641102 0
M  V30 1555 O 151.62 -1.68916 -0.964235 0
M  V30 1556 C 151.903 -2.68505 2.39952 0
M  V30 1557 C 151.756 -2.26805 3.88432 0
M  V30 1558 C 153.075 -3.70686 2.37233 0
M  V30 1559 H 150.194 -0.532015 0.510028 0
M  V30 1560 H 152.836 -0.803255 1.72185 0
M  V30 1561 H 150.986 -3.25114 2.1268 0
M  V30 1562 H 152.658 -1.75592 4.26574 0
M  V30 1563 H 150.901 -1.58685 4.03734 0
M  V30 1564 H 151.572 -3.14181 4.53866 0
M  V30 1565 H 154.048 -3.23731 2.61415 0
M  V30 1566 H 152.924 -4.53553 3.09162 0
M  V30 1567 H 153.185 -4.19754 1.38777 0
M  V30 1568 N 152.244 -1.26651 -0.937939 0
M  V30 1569 C 153.66 -1.03834 -1.21205 0
M  V30 1570 C 153.86 0.234502 -2.00131 0
M  V30 1571 O 152.916 0.942767 -2.3424 0
M  V30 1572 C 154.229 -2.27167 -1.97017 0
M  V30 1573 C 155.777 -2.32101 -2.09996 0
M  V30 1574 C 156.252 -3.55136 -2.8921 0
M  V30 1575 N 157.743 -3.55632 -2.96783 0
M  V30 1576 C 158.478 -4.475 -3.58512 0
M  V30 1577 N 157.974 -5.4966 -4.21717 0
M  V30 1578 N 159.767 -4.35145 -3.55816 0
M  V30 1579 H 151.918 -2.08398 -0.410391 0
M  V30 1580 H 154.181 -0.916031 -0.244114 0
M  V30 1581 H 153.887 -3.19765 -1.46434 0
M  V30 1582 H 153.761 -2.31672 -2.97671 0
M  V30 1583 H 156.148 -1.40015 -2.59769 0
M  V30 1584 H 156.229 -2.31605 -1.08594 0
M  V30 1585 H 155.873 -4.47553 -2.40123 0
M  V30 1586 H 155.803 -3.5288 -3.90875 0
M  V30 1587 H 158.294 -2.81743 -2.51852 0
M  V30 1588 H 158.607 -6.15943 -4.66727 0
M  V30 1589 H 156.952 -5.53514 -4.20294 0
M  V30 1590 H 160.143 -3.5455 -3.05634 0
M  V30 1591 H 160.316 -5.06934 -4.03636 0
M  V30 1592 N 153.722 1.14298 -1.08507 0
M  V30 1593 C 154.652 2.21542 -0.737646 0
M  V30 1594 C 155.633 1.67773 0.280377 0
M  V30 1595 O 156.818 1.93616 0.150521 0
M  V30 1596 C 153.948 3.46988 -0.147259 0
M  V30 1597 C 152.902 4.13789 -1.09374 0
M  V30 1598 C 152.228 5.33449 -0.365524 0
M  V30 1599 C 153.528 4.62208 -2.4323 0
M  V30 1600 H 155.222 2.5086 -1.6343 0
M  V30 1601 H 152.768 1.20576 -0.787243 0
M  V30 1602 H 154.721 4.21262 0.107808 0
M  V30 1603 H 153.445 3.17037 0.784538 0
M  V30 1604 H 152.104 3.4147 -1.33393 0
M  V30 1605 H 151.752 4.99759 0.57011 0
M  V30 1606 H 151.452 5.79088 -0.996512 0
M  V30 1607 H 152.976 6.10485 -0.118534 0
M  V30 1608 H 154.39 5.27952 -2.23472 0
M  V30 1609 H 152.787 5.18553 -3.02031 0
M  V30 1610 H 153.857 3.77224 -3.04681 0
M  V30 1611 N 155.201 0.870884 1.31352 0
M  V30 1612 C 156.134 0.271983 2.26573 0
M  V30 1613 C 157.112 -0.599385 1.51149 0
M  V30 1614 O 158.296 -0.552605 1.80218 0
M  V30 1615 C 155.423 -0.614801 3.33073 0
M  V30 1616 C 154.469 0.185342 4.26097 0
M  V30 1617 S 155.302 1.56444 5.12138 0
M  V30 1618 C 156.458 0.683807 6.22153 0
M  V30 1619 H 156.691 1.07916 2.77023 0
M  V30 1620 H 154.224 0.669459 1.39132 0
M  V30 1621 H 156.182 -1.12074 3.94905 0
M  V30 1622 H 154.843 -1.39593 2.81376 0
M  V30 1623 H 154.036 -0.490771 5.01605 0
M  V30 1624 H 153.638 0.623415 3.68768 0
M  V30 1625 H 155.93 -0.10521 6.77418 0
M  V30 1626 H 156.873 1.41004 6.93919 0
M  V30 1627 H 157.281 0.250952 5.63942 0
M  V30 1628 N 156.679 -1.44442 0.630414 0
M  V30 1629 C 157.927 -2.01653 0.134351 0
M  V30 1630 C 158.248 -1.49836 -1.24796 0
M  V30 1631 O 157.518 -0.701684 -1.82902 0
M  V30 1632 H 156.098 -0.74554 0.0466769 0
M  V30 1633 H 158.76 -1.76952 0.816955 0
M  V30 1634 H 157.856 -3.11935 0.101498 0
M  V30 1635 N 158.157 -0.370918 -1.53173 0
M  V30 1636 C 159.087 0.464847 -2.28826 0
M  V30 1637 C 160.068 1.07936 -1.31468 0
M  V30 1638 O 161.253 1.0956 -1.60344 0
M  V30 1639 C 158.383 1.60196 -3.08147 0
M  V30 1640 C 157.337 1.11443 -4.13237 0
M  V30 1641 C 156.663 2.3422 -4.80672 0
M  V30 1642 C 157.963 0.195384 -5.21934 0
M  V30 1643 H 159.657 -0.166329 -2.98938 0
M  V30 1644 H 157.203 -0.0814359 -1.4377 0
M  V30 1645 H 159.156 2.19332 -3.59822 0
M  V30 1646 H 157.88 2.26045 -2.35735 0
M  V30 1647 H 156.539 0.545727 -3.62515 0
M  V30 1648 H 156.187 2.98537 -4.04827 0
M  V30 1649 H 155.887 2.02269 -5.51689 0
M  V30 1650 H 157.411 2.94032 -5.35143 0
M  V30 1651 H 158.825 0.694375 -5.69079 0
M  V30 1652 H 157.222 -0.0335027 -6.00091 0
M  V30 1653 H 158.292 -0.760961 -4.78892 0
M  V30 1654 N 159.635 1.57281 -0.100228 0
M  V30 1655 C 160.863 1.98879 0.570509 0
M  V30 1656 C 161.278 0.979476 1.61405 0
M  V30 1657 O 160.635 -0.0302288 1.82475 0
M  V30 1658 C 160.686 3.4052 1.2136 0
M  V30 1659 O 160.407 4.37588 0.211786 0
M  V30 1660 C 161.908 3.97149 1.96945 0
M  V30 1661 H 159.128 0.653428 0.152555 0
M  V30 1662 H 161.672 2.03697 -0.18103 0
M  V30 1663 H 159.827 3.367 1.91603 0
M  V30 1664 H 160.241 5.20118 0.676607 0
M  V30 1665 H 161.715 4.98393 2.37294 0
M  V30 1666 H 162.192 3.3525 2.83733 0
M  V30 1667 H 162.798 4.04458 1.31506 0
M  V30 1668 N 161.113 -0.173488 1.56642 0
M  V30 1669 C 162.076 -1.19859 1.95362 0
M  V30 1670 C 163.076 -1.37296 0.83704 0
M  V30 1671 O 164.266 -1.34739 1.10413 0
M  V30 1672 C 161.398 -2.56405 2.24654 0
M  V30 1673 H 162.591 -0.867062 2.87092 0
M  V30 1674 H 160.144 -0.415853 1.50666 0
M  V30 1675 H 160.879 -2.94576 1.35631 0
M  V30 1676 H 160.664 -2.45115 3.06041 0
M  V30 1677 H 162.154 -3.30287 2.5554 0
M  V30 1678 N 162.591 -1.51276 -0.441967 0
M  V30 1679 C 163.501 -1.75092 -1.56141 0
M  V30 1680 C 164.517 -0.634963 -1.62001 0
M  V30 1681 O 165.693 -0.916686 -1.79329 0
M  V30 1682 C 162.758 -1.86666 -2.92158 0
M  V30 1683 C 161.819 -3.10506 -2.96453 0
M  V30 1684 C 161.052 -3.21519 -4.25982 0
M  V30 1685 O 161.275 -2.38586 -5.18105 0
M  V30 1686 O 160.209 -4.14465 -4.36466 0
M  V30 1687 H 164.035 -2.70044 -1.38961 0
M  V30 1688 H 161.62 -1.35722 -0.624499 0
M  V30 1689 H 163.502 -1.96292 -3.72891 0
M  V30 1690 H 162.177 -0.949014 -3.09476 0
M  V30 1691 H 161.084 -3.06363 -2.14692 0
M  V30 1692 H 162.417 -4.01945 -2.84079 0
M  V30 1693 N 164.069 0.697108 -1.41344 0
M  V30 1694 C 165.294 1.49096 -1.44171 0
M  V30 1695 C 165.719 1.88038 -0.0481568 0
M  V30 1696 O 165.077 1.54525 0.948243 0
M  V30 1697 C 165.125 2.73088 -2.3549 0
M  V30 1698 O 164.229 3.70514 -1.81088 0
M  V30 1699 H 163.57 0.448801 -0.489361 0
M  V30 1700 H 166.1 0.856992 -1.85787 0
M  V30 1701 H 166.11 3.21413 -2.51312 0
M  V30 1702 H 164.785 2.44081 -3.36745 0
M  V30 1703 H 163.362 3.29441 -1.74708 0
M  V30 1704 N 165.547 1.27147 0.931209 0
M  V30 1705 C 166.477 1.12081 2.04842 0
M  V30 1706 C 167.458 0.0232364 1.70084 0
M  V30 1707 O 168.643 0.197085 1.93197 0
M  V30 1708 C 165.773 0.76354 3.38803 0
M  V30 1709 C 164.727 1.81396 3.87659 0
M  V30 1710 C 164.053 1.31075 5.18385 0
M  V30 1711 C 165.353 3.21739 4.11438 0
M  V30 1712 H 167.047 2.05537 2.17703 0
M  V30 1713 H 164.593 0.989603 1.04608 0
M  V30 1714 H 166.546 0.644982 4.16435 0
M  V30 1715 H 165.27 -0.206727 3.25945 0
M  V30 1716 H 163.929 1.92136 3.12217 0
M  V30 1717 H 163.577 0.330037 5.01916 0
M  V30 1718 H 163.277 2.013 5.52044 0
M  V30 1719 H 164.801 1.20506 5.98591 0
M  V30 1720 H 166.215 3.14019 4.79651 0
M  V30 1721 H 164.612 3.89644 4.56397 0
M  V30 1722 H 165.682 3.67054 3.16859 0
M  V30 1723 N 167.025 -1.13721 1.09112 0
M  V30 1724 C 168.302 -1.81155 0.737706 0
M  V30 1725 C 168.682 -1.96253 -0.777683 0
M  V30 1726 O 168.03 -1.52807 -1.69889 0
M  V30 1727 C 168.24 -3.16392 1.47299 0
M  V30 1728 C 169.588 -3.91787 1.63671 0
M  V30 1729 O 170.612 -3.26005 1.43524 0
M  V30 1730 O 169.471 -5.0977 1.96969 0
M  V30 1731 H 166.565 -0.783518 0.26463 0
M  V30 1732 H 169.111 -1.20676 1.19312 0
M  V30 1733 H 167.883 -3.0061 2.50498 0
M  V30 1734 H 167.506 -3.8457 1.00953 0
M  V30 1735 N 168.503 -0.877838 -1.30888 0
M  V30 1736 C 169.45 -0.337538 -2.28318 0
M  V30 1737 C 170.42 0.568346 -1.56074 0
M  V30 1738 O 171.605 0.498298 -1.84178 0
M  V30 1739 C 168.745 0.448142 -3.42178 0
M  V30 1740 C 167.858 -0.48615 -4.29256 0
M  V30 1741 C 166.993 0.314427 -5.30269 0
M  V30 1742 C 166.032 -0.615791 -6.08995 0
M  V30 1743 N 165.169 0.14902 -7.01942 0
M  V30 1744 H 170.009 -1.17356 -2.73919 0
M  V30 1745 H 167.546 -0.590094 -1.34745 0
M  V30 1746 H 169.504 0.919517 -4.06941 0
M  V30 1747 H 168.134 1.24879 -2.97666 0
M  V30 1748 H 167.186 -1.076 -3.64865 0
M  V30 1749 H 168.498 -1.19909 -4.84173 0
M  V30 1750 H 167.652 0.847969 -6.00745 0
M  V30 1751 H 166.391 1.06062 -4.76027 0
M  V30 1752 H 165.396 -1.16102 -5.37401 0
M  V30 1753 H 166.621 -1.36097 -6.65323 0
M  V30 1754 H 164.567 0.877884 -6.50099 0
M  V30 1755 H 164.484 -0.504433 -7.54315 0
M  V30 1756 H 165.752 0.663537 -7.76671 0
M  V30 1757 N 169.982 1.44106 -0.638065 0
M  V30 1758 C 171.228 2.02277 -0.145546 0
M  V30 1759 C 171.561 1.50125 1.23191 0
M  V30 1760 O 170.836 0.688133 1.8192 0
M  V30 1761 C 171.119 3.59829 -0.139791 0
M  V30 1762 C 170.972 4.22247 -1.55008 0
M  V30 1763 C 172.291 4.36873 0.531966 0
M  V30 1764 H 169.41 0.734992 -0.0543632 0
M  V30 1765 H 172.052 1.71592 -0.815863 0
M  V30 1766 H 170.202 3.86102 0.431007 0
M  V30 1767 H 171.874 4.07057 -2.1703 0
M  V30 1768 H 170.117 3.79476 -2.10191 0
M  V30 1769 H 170.788 5.31284 -1.49804 0
M  V30 1770 H 173.264 4.16074 0.0464781 0
M  V30 1771 H 172.14 5.4657 0.505206 0
M  V30 1772 H 172.401 4.11995 1.60352 0
M  V30 1773 N 171.46 0.379036 1.52974 0
M  V30 1774 C 172.706 -0.206727 2.01744 0
M  V30 1775 C 173.039 -1.47314 1.26539 0
M  V30 1776 O 172.314 -1.91084 0.362903 0
M  V30 1777 C 172.597 -0.485066 3.56818 0
M  V30 1778 C 172.45 0.795919 4.42702 0
M  V30 1779 C 173.769 -1.28003 4.21074 0
M  V30 1780 H 170.888 -0.0736607 0.73331 0
M  V30 1781 H 173.53 0.506581 1.83122 0
M  V30 1782 H 171.68 -1.09272 3.72816 0
M  V30 1783 H 173.352 1.43307 4.38476 0
M  V30 1784 H 171.595 1.41344 4.10127 0
M  V30 1785 H 172.266 0.555947 5.49193 0
M  V30 1786 H 174.742 -0.765867 4.08991 0
M  V30 1787 H 173.618 -1.44352 5.29579 0
M  V30 1788 H 173.879 -2.29236 3.78026 0
M  V30 1789 N 172.938 -1.57226 0.108567 0
M  V30 1790 C 174.168 -1.9889 -0.559142 0
M  V30 1791 C 174.576 -0.986889 -1.61422 0
M  V30 1792 O 173.919 0.0298705 -1.83676 0
M  V30 1793 C 173.981 -3.36952 -1.25315 0
M  V30 1794 C 173.645 -4.55679 -0.347248 0
M  V30 1795 C 174.642 -5.18281 0.409996 0
M  V30 1796 C 172.327 -5.0162 -0.261367 0
M  V30 1797 C 174.321 -6.25203 1.24096 0
M  V30 1798 C 172.008 -6.08405 0.573238 0
M  V30 1799 C 173.006 -6.70063 1.32304 0
M  V30 1800 O 172.694 -7.74788 2.14381 0
M  V30 1801 H 172.426 -0.658343 -0.153492 0
M  V30 1802 H 174.98 -2.04532 0.188584 0
M  V30 1803 H 173.21 -3.28032 -2.04773 0
M  V30 1804 H 174.899 -3.62974 -1.81673 0
M  V30 1805 H 175.665 -4.8371 0.353457 0
M  V30 1806 H 171.544 -4.53381 -0.834656 0
M  V30 1807 H 175.088 -6.73259 1.82669 0
M  V30 1808 H 170.985 -6.42406 0.631208 0
M  V30 1809 H 171.753 -7.91837 2.07209 0
M  V30 1810 N 174.416 0.165178 -1.56732 0
M  V30 1811 C 175.662 0.877389 -1.83503 0
M  V30 1812 C 176.017 1.79602 -0.689996 0
M  V30 1813 O 175.31 1.89023 0.313205 0
M  V30 1814 C 175.504 1.70405 -3.1416 0
M  V30 1815 C 175.333 0.866961 -4.41264 0
M  V30 1816 C 174.103 0.539646 -5.0241 0
M  V30 1817 C 176.301 0.205671 -5.13889 0
M  V30 1818 N 174.283 -0.312946 -6.13102 0
M  V30 1819 C 175.654 -0.507823 -6.17917 0
M  V30 1820 C 177.709 0.124468 -4.97744 0
M  V30 1821 C 176.412 -1.29483 -7.0755 0
M  V30 1822 C 178.438 -0.649222 -5.87826 0
M  V30 1823 C 177.8 -1.35106 -6.91322 0
M  V30 1824 H 173.899 0.299477 -0.722383 0
M  V30 1825 H 176.483 0.143949 -1.94167 0
M  V30 1826 H 174.654 2.40887 -3.04677 0
M  V30 1827 H 176.386 2.35804 -3.28905 0
M  V30 1828 H 173.141 0.871176 -4.65519 0
M  V30 1829 H 173.565 -0.729731 -6.73056 0
M  V30 1830 H 178.207 0.652724 -4.17731 0
M  V30 1831 H 175.925 -1.83441 -7.87004 0
M  V30 1832 H 179.511 -0.713804 -5.77405 0
M  V30 1833 H 178.391 -1.94013 -7.59821 0
M  V30 1834 N 175.894 1.51508 0.433938 0
M  V30 1835 C 176.844 1.69451 1.52546 0
M  V30 1836 C 177.828 0.548474 1.51263 0
M  V30 1837 O 179.02 0.804529 1.57659 0
M  V30 1838 C 176.149 1.82604 2.90707 0
M  V30 1839 C 175.235 3.03002 2.96733 0
M  V30 1840 N 175.626 4.26121 2.72496 0
M  V30 1841 C 173.924 3.02327 3.27894 0
M  V30 1842 C 174.625 5.07407 2.84452 0
M  V30 1843 N 173.601 4.42126 3.16269 0
M  V30 1844 H 177.403 2.62305 1.32564 0
M  V30 1845 H 174.917 1.49202 0.641297 0
M  V30 1846 H 176.914 1.93569 3.69238 0
M  V30 1847 H 175.574 0.909339 3.11707 0
M  V30 1848 H 176.585 4.55009 2.4736 0
M  V30 1849 H 173.262 2.20301 3.54646 0
M  V30 1850 H 174.652 6.15422 2.69639 0
M  V30 1851 N 177.372 -0.689602 1.41712 0
M  V30 1852 C 178.649 -1.44457 1.31877 0
M  V30 1853 C 179.029 -2.11039 -0.0508537 0
M  V30 1854 O 178.377 -2.02138 -1.06547 0
M  V30 1855 C 178.587 -2.45913 2.47645 0
M  V30 1856 C 179.935 -3.10991 2.89084 0
M  V30 1857 O 180.959 -2.56238 2.47428 0
M  V30 1858 O 179.818 -4.10174 3.61137 0
M  V30 1859 H 176.912 -0.64362 0.519309 0
M  V30 1860 H 179.458 -0.719576 1.53689 0
M  V30 1861 H 178.23 -1.95409 3.39015 0
M  V30 1862 H 177.853 -3.25913 2.27742 0
M  V30 1863 N 178.85 -1.27639 -0.924453 0
M  V30 1864 C 180.098 -1.13941 -1.66918 0
M  V30 1865 C 180.419 0.314589 -1.92446 0
M  V30 1866 O 179.689 1.21964 -1.53303 0
M  V30 1867 H 178.269 -0.418678 -0.618642 0
M  V30 1868 H 180.931 -1.60213 -1.10985 0
M  V30 1869 H 180.027 -1.67094 -2.63602 0
M  V30 1870 N 180.328 1.1314 -1.09713 0
M  V30 1871 C 181.26 2.18343 -0.697056 0
M  V30 1872 C 182.273 1.60669 0.262551 0
M  V30 1873 O 183.462 1.78435 0.0481527 0
M  V30 1874 C 180.562 3.38899 -0.00684728 0
M  V30 1875 C 179.735 4.26078 -0.988741 0
M  V30 1876 C 178.794 5.25155 -0.331394 0
M  V30 1877 O 177.82 5.60701 -0.979926 0
M  V30 1878 N 179.022 5.73271 0.913261 0
M  V30 1879 H 181.787 2.5328 -1.60216 0
M  V30 1880 H 179.348 1.28491 -0.984971 0
M  V30 1881 H 181.34 4.02255 0.444191 0
M  V30 1882 H 179.91 3.02175 0.800551 0
M  V30 1883 H 179.13 3.59453 -1.61826 0
M  V30 1884 H 180.418 4.81178 -1.65364 0
M  V30 1885 H 179.816 5.46544 1.45966 0
M  V30 1886 H 178.373 6.3855 1.30757 0
M  V30 1887 N 181.806 0.884767 1.30421 0
M  V30 1888 C 183.046 0.509806 1.9794 0
M  V30 1889 C 183.41 -0.923736 1.68319 0
M  V30 1890 O 184.611 -1.40481 2.29169 0
M  V30 1891 C 182.882 0.776732 3.48858 0
M  V30 1892 S 184.441 0.503843 4.35898 0
M  V30 1893 H 181.259 0.189699 0.685227 0
M  V30 1894 H 183.861 1.14399 1.58535 0
M  V30 1895 H 182.565 1.81857 3.67908 0
M  V30 1896 H 182.096 0.1301 3.93185 0
M  V30 1897 H 184.111 -0.657625 4.91823 0
M  V30 1898 N 183.284 -1.43765 0.645699 0
M  V30 1899 C 184.247 -2.29163 -0.0409488 0
M  V30 1900 C 185.247 -1.41813 -0.757996 0
M  V30 1901 O 186.437 -1.63527 -0.600382 0
M  V30 1902 C 183.569 -3.23716 -1.06869 0
M  V30 1903 H 184.762 -2.91366 0.710345 0
M  V30 1904 H 182.315 -1.5092 0.406547 0
M  V30 1905 H 183.05 -2.66393 -1.84947 0
M  V30 1906 H 182.835 -3.88105 -0.558277 0
M  V30 1907 H 184.325 -3.87831 -1.54845 0
M  V30 1908 N 184.763 -0.387143 -1.52771 0
M  V30 1909 C 186.04 0.253197 -1.93954 0
M  V30 1910 C 186.42 1.64545 -1.32243 0
M  V30 1911 O 185.768 2.23191 -0.489699 0
M  V30 1912 C 185.978 0.281722 -3.47861 0
M  V30 1913 C 187.326 0.511715 -4.21505 0
M  V30 1914 O 188.35 0.362023 -3.54356 0
M  V30 1915 O 187.209 0.804847 -5.40541 0
M  V30 1916 H 184.303 0.156845 -0.811991 0
M  V30 1917 H 186.849 -0.441494 -1.63856 0
M  V30 1918 H 185.621 -0.693571 -3.85104 0
M  V30 1919 H 185.244 1.02142 -3.84256 0
M  V30 1920 N 186.241 1.57166 -0.116904 0
M  V30 1921 C 187.488 1.95123 0.541603 0
M  V30 1922 C 187.816 1.00006 1.6682 0
M  V30 1923 O 187.071 0.0235658 1.95686 0
M  V30 1924 C 187.37 3.39508 1.11664 0
M  V30 1925 C 187.036 4.50762 0.111606 0
M  V30 1926 C 185.698 4.80918 -0.164758 0
M  V30 1927 C 188.05 5.18036 -0.573438 0
M  V30 1928 C 185.378 5.75666 -1.13249 0
M  V30 1929 C 187.73 6.13824 -1.52978 0
M  V30 1930 C 186.394 6.42374 -1.81415 0
M  V30 1931 H 185.664 0.714005 0.198187 0
M  V30 1932 H 188.311 1.9048 -0.197365 0
M  V30 1933 H 186.616 3.40835 1.93232 0
M  V30 1934 H 188.313 3.66189 1.63422 0
M  V30 1935 H 184.903 4.27272 0.337192 0
M  V30 1936 H 189.087 4.94896 -0.373092 0
M  V30 1937 H 184.343 5.96092 -1.35958 0
M  V30 1938 H 188.517 6.65039 -2.06629 0
M  V30 1939 H 186.144 7.15599 -2.56557 0
M  V30 1940 N 187.719 -0.156864 1.56817 0
M  V30 1941 C 188.669 -1.19891 1.93934 0
M  V30 1942 C 189.653 -1.39061 0.809372 0
M  V30 1943 O 190.845 -1.40789 1.07273 0
M  V30 1944 C 187.974 -2.53493 2.31508 0
M  V30 1945 C 187.06 -2.37957 3.51052 0
M  V30 1946 N 187.451 -1.92158 4.67877 0
M  V30 1947 C 185.749 -2.68739 3.55943 0
M  V30 1948 C 186.45 -1.8943 5.49992 0
M  V30 1949 N 185.426 -2.32375 4.91429 0
M  V30 1950 H 189.228 -0.836746 2.81737 0
M  V30 1951 H 186.742 -0.365012 1.58245 0
M  V30 1952 H 188.739 -3.28811 2.56299 0
M  V30 1953 H 187.399 -2.905 1.45051 0
M  V30 1954 H 188.41 -1.62274 4.91821 0
M  V30 1955 H 185.087 -3.09687 2.80001 0
M  V30 1956 H 186.477 -1.55596 6.53636 0
M  V30 1957 N 189.197 -1.51736 -0.425897 0
M  V30 1958 C 190.445 -1.64644 -1.17204 0
M  V30 1959 C 190.766 -0.370486 -1.91448 0
M  V30 1960 O 190.036 0.614088 -1.86026 0
M  V30 1961 H 188.616 -0.606819 -0.435638 0
M  V30 1962 H 191.278 -1.88713 -0.487177 0
M  V30 1963 H 190.374 -2.47958 -1.89534 0
M  V30 1964 N 190.675 0.682077 -1.42076 0
M  V30 1965 C 191.605 1.80796 -1.47767 0
M  V30 1966 C 192.586 1.6677 -0.334954 0
M  V30 1967 O 193.771 1.863 -0.548264 0
M  V30 1968 C 190.901 3.19038 -1.37229 0
M  V30 1969 C 189.855 3.47789 -2.49453 0
M  V30 1970 C 189.181 4.8553 -2.23975 0
M  V30 1971 C 190.481 3.45411 -3.91776 0
M  V30 1972 H 192.175 1.7629 -2.41997 0
M  V30 1973 H 189.721 0.846721 -1.16476 0
M  V30 1974 H 191.674 3.97528 -1.39821 0
M  V30 1975 H 190.398 3.24204 -0.394907 0
M  V30 1976 H 189.057 2.71657 -2.46166 0
M  V30 1977 H 188.705 4.87337 -1.24547 0
M  V30 1978 H 188.405 5.0573 -2.99184 0
M  V30 1979 H 189.929 5.66312 -2.28304 0
M  V30 1980 H 191.343 4.13882 -3.96705 0
M  V30 1981 H 189.74 3.77145 -4.66778 0
M  V30 1982 H 190.81 2.44122 -4.18966 0
M  V30 1983 N 192.153 1.28127 0.917671 0
M  V30 1984 C 193.564 1.13622 1.48145 0
M  V30 1985 C 193.915 -0.275207 1.9426 0
M  V30 1986 O 193.04 -1.1691 1.82102 0
M  V30 1987 C 193.635 2.05648 2.69248 0
M  V30 1988 C 192.194 1.95219 3.21818 0
M  V30 1989 C 191.341 1.97618 1.94532 0
M  V30 1990 H 194.292 1.40874 0.730772 0
M  V30 1991 H 194.313 1.61818 3.44377 0
M  V30 1992 H 193.825 3.08365 2.35653 0
M  V30 1993 H 191.926 0.955244 3.60147 0
M  V30 1994 H 192.039 2.81976 3.87333 0
M  V30 1995 H 190.403 1.41973 2.11461 0
M  V30 1996 H 191.186 3.02007 1.63238 0
M  V30 1997 N 193.631 -1.12557 1.10312 0
M  V30 1998 C 194.879 -1.83675 0.843091 0
M  V30 1999 C 195.2 -1.84435 -0.633131 0
M  V30 2000 O 194.47 -1.30657 -1.45964 0
M  V30 2001 H 193.05 -0.680138 0.308904 0
M  V30 2002 H 195.712 -1.36301 1.39313 0
M  V30 2003 H 194.808 -2.87908 1.2048 0
M  V30 2004 N 195.109 -0.891671 -1.2995 0
M  V30 2005 C 196.355 -0.514261 -1.96171 0
M  V30 2006 C 196.688 0.935506 -1.70182 0
M  V30 2007 O 195.963 1.66204 -1.01028 0
M  V30 2008 C 196.246 -0.797719 -3.51153 0
M  V30 2009 C 196.099 -2.2986 -3.86632 0
M  V30 2010 C 197.418 -0.278749 -4.39216 0
M  V30 2011 H 194.537 -0.188314 -0.712535 0
M  V30 2012 H 197.179 -1.11689 -1.53706 0
M  V30 2013 H 195.329 -0.284826 -3.87455 0
M  V30 2014 H 197.001 -2.88042 -3.60319 0
M  V30 2015 H 195.244 -2.76257 -3.34462 0
M  V30 2016 H 195.915 -2.44753 -4.94773 0
M  V30 2017 H 198.391 -0.717825 -4.09862 0
M  V30 2018 H 197.267 -0.506353 -5.46559 0
M  V30 2019 H 197.528 0.820266 -4.34424 0
M  V30 2020 N 196.587 1.43421 -0.653314 0
M  V30 2021 C 197.864 1.95361 -0.0966581 0
M  V30 2022 C 198.244 1.59461 1.38331 0
M  V30 2023 O 197.592 0.879777 2.10884 0
M  V30 2024 C 197.802 3.47311 -0.342988 0
M  V30 2025 C 199.15 4.23875 -0.24798 0
M  V30 2026 O 200.174 3.55133 -0.275553 0
M  V30 2027 O 199.033 5.4623 -0.171771 0
M  V30 2028 H 196.127 0.826945 0.00956291 0
M  V30 2029 H 198.673 1.5336 -0.726558 0
M  V30 2030 H 197.445 3.66569 -1.36906 0
M  V30 2031 H 197.068 3.9631 0.319975 0
M  V30 2032 N 198.065 0.39524 1.52563 0
M  V30 2033 C 199.314 -0.186321 2.00838 0
M  V30 2034 C 199.627 -1.47402 1.28577 0
M  V30 2035 O 200.833 -2.13599 1.67593 0
M  V30 2036 C 199.289 -0.382595 3.57861 0
M  V30 2037 C 198.897 0.892202 4.39026 0
M  V30 2038 C 200.641 -0.9202 4.14406 0
M  V30 2039 C 198.548 0.66388 5.87662 0
M  V30 2040 H 197.478 -0.0734041 0.750418 0
M  V30 2041 H 200.129 0.518552 1.76021 0
M  V30 2042 H 198.511 -1.14946 3.7895 0
M  V30 2043 H 199.685 1.66414 4.29701 0
M  V30 2044 H 198 1.35519 3.9373 0
M  V30 2045 H 200.597 -1.10683 5.23119 0
M  V30 2046 H 200.94 -1.89096 3.70875 0
M  V30 2047 H 201.473 -0.212751 3.97231 0
M  V30 2048 H 198.212 1.6058 6.35527 0
M  V30 2049 H 197.732 -0.0690193 5.9976 0
M  V30 2050 H 199.411 0.300699 6.46301 0
M  V30 2051 N 199.544 -1.57102 0.125237 0
M  V30 2052 C 200.96 -1.57915 -0.231322 0
M  V30 2053 C 201.16 -1.13833 -1.66266 0
M  V30 2054 O 200.216 -0.828581 -2.38518 0
M  V30 2055 C 201.529 -3.00699 0.00766489 0
M  V30 2056 C 203.077 -3.12947 -0.0577483 0
M  V30 2057 C 203.552 -4.57742 0.153626 0
M  V30 2058 N 205.043 -4.63092 0.0998073 0
M  V30 2059 C 205.778 -5.72905 0.238174 0
M  V30 2060 N 205.274 -6.91445 0.433057 0
M  V30 2061 N 207.067 -5.6182 0.177308 0
M  V30 2062 H 199.218 -1.84055 1.06007 0
M  V30 2063 H 201.481 -0.850905 0.417929 0
M  V30 2064 H 201.187 -3.3726 0.997431 0
M  V30 2065 H 201.061 -3.70236 -0.721452 0
M  V30 2066 H 203.448 -2.7624 -1.03804 0
M  V30 2067 H 203.529 -2.4594 0.70335 0
M  V30 2068 H 203.173 -4.95149 1.13092 0
M  V30 2069 H 203.103 -5.22848 -0.627534 0
M  V30 2070 H 205.594 -3.77871 -0.047051 0
M  V30 2071 H 205.907 -7.70985 0.529332 0
M  V30 2072 H 204.252 -6.93415 0.469109 0
M  V30 2073 H 207.443 -4.68093 0.0259748 0
M  V30 2074 H 207.616 -6.47357 0.288582 0
M  V30 2075 N 201.022 0.148545 -1.56898 0
M  V30 2076 C 202.433 0.708766 -1.72723 0
M  V30 2077 C 202.784 1.81734 -0.739395 0
M  V30 2078 O 201.909 2.16194 0.0943169 0
M  V30 2079 C 202.504 1.29245 -3.13179 0
M  V30 2080 C 201.063 1.79925 -3.30611 0
M  V30 2081 C 200.21 0.687111 -2.68652 0
M  V30 2082 H 203.161 -0.0771063 -1.58513 0
M  V30 2083 H 203.182 2.16224 -3.13093 0
M  V30 2084 H 202.694 0.485382 -3.85053 0
M  V30 2085 H 200.795 2.63203 -2.63732 0
M  V30 2086 H 200.908 1.92903 -4.38549 0
M  V30 2087 H 199.272 1.11335 -2.29078 0
M  V30 2088 H 200.055 -0.108483 -3.43129 0
M  V30 2089 N 202.5 1.5196 0.417844 0
M  V30 2090 C 203.777 1.56146 1.17803 0
M  V30 2091 C 204.157 0.337275 2.08388 0
M  V30 2092 O 203.505 -0.676447 2.18258 0
M  V30 2093 C 203.715 2.88566 1.96293 0
M  V30 2094 C 205.063 3.41244 2.52662 0
M  V30 2095 O 206.087 2.90247 2.06483 0
M  V30 2096 O 204.946 4.30273 3.36938 0
M  V30 2097 H 202.04 0.628598 0.537395 0
M  V30 2098 H 204.586 1.64283 0.425331 0
M  V30 2099 H 203.358 3.69116 1.2988 0
M  V30 2100 H 202.981 2.83681 2.78587 0
M  V30 2101 N 203.978 -0.674533 1.42435 0
M  V30 2102 C 205.206 -1.46283 1.46317 0
M  V30 2103 C 205.621 -1.88653 0.0745836 0
M  V30 2104 O 204.978 -1.58151 -0.91074 0
M  V30 2105 C 205.029 -2.71178 2.3905 0
M  V30 2106 O 204.75 -2.30586 3.72507 0
M  V30 2107 C 206.251 -3.64738 2.51955 0
M  V30 2108 H 203.471 -0.450104 0.497642 0
M  V30 2109 H 206.015 -0.828792 1.86953 0
M  V30 2110 H 204.17 -3.3077 2.01667 0
M  V30 2111 H 204.584 -3.11241 4.22172 0
M  V30 2112 H 206.058 -4.49096 3.20962 0
M  V30 2113 H 206.535 -4.10656 1.55752 0
M  V30 2114 H 207.141 -3.11038 2.90061 0
M  V30 2115 N 205.456 -1.28612 -0.910864 0
M  V30 2116 C 206.704 -1.15705 -1.65701 0
M  V30 2117 C 207.025 0.29416 -1.92769 0
M  V30 2118 O 206.295 1.20331 -1.54588 0
M  V30 2119 H 204.875 -0.425216 -0.614167 0
M  V30 2120 H 207.537 -1.61381 -1.0928 0
M  V30 2121 H 206.633 -1.6988 -2.61815 0
M  V30 2122 N 206.934 1.1197 -1.10907 0
M  V30 2123 C 207.897 2.16031 -0.765707 0
M  V30 2124 C 208.897 1.59393 0.212235 0
M  V30 2125 O 210.087 1.74196 -0.0115441 0
M  V30 2126 C 207.219 3.40632 -0.135053 0
M  V30 2127 H 208.412 2.47919 -1.68748 0
M  V30 2128 H 205.965 1.27061 -0.910226 0
M  V30 2129 H 206.7 3.14348 0.797218 0
M  V30 2130 H 206.485 3.8302 -0.838937 0
M  V30 2131 H 207.975 4.17505 0.0892469 0
M  V30 2132 N 208.412 0.89855 1.29475 0
M  V30 2133 C 209.66 0.522847 1.9522 0
M  V30 2134 C 209.981 -0.93371 1.71192 0
M  V30 2135 O 209.251 -1.65823 1.04305 0
M  V30 2136 H 207.831 0.190366 0.722336 0
M  V30 2137 H 210.493 1.14459 1.5775 0
M  V30 2138 H 209.589 0.704476 3.04045 0
M  V30 2139 N 209.89 -1.43072 0.660911 0
M  V30 2140 C 211.136 -2.0202 0.177708 0
M  V30 2141 C 211.469 -1.52066 -1.20787 0
M  V30 2142 O 210.744 -0.716987 -1.80802 0
M  V30 2143 C 211.027 -3.59561 0.197019 0
M  V30 2144 C 210.88 -4.19727 1.61706 0
M  V30 2145 C 212.199 -4.37664 -0.462396 0
M  V30 2146 H 209.318 -0.734034 0.0660494 0
M  V30 2147 H 211.96 -1.70272 0.843058 0
M  V30 2148 H 210.11 -3.86739 -0.369527 0
M  V30 2149 H 211.782 -4.03553 2.23479 0
M  V30 2150 H 210.025 -3.76084 2.16201 0
M  V30 2151 H 210.696 -5.28834 1.58237 0
M  V30 2152 H 213.172 -4.16095 0.0197215 0
M  V30 2153 H 212.048 -5.47305 -0.418188 0
M  V30 2154 H 212.309 -4.14493 -1.53778 0
M  V30 2155 N 211.368 -0.403325 -1.52352 0
M  V30 2156 C 212.298 0.416205 -2.29761 0
M  V30 2157 C 213.279 1.05123 -1.33728 0
M  V30 2158 O 214.464 1.06134 -1.62632 0
M  V30 2159 C 211.594 1.53624 -3.11475 0
M  V30 2160 C 210.548 1.02653 -4.15507 0
M  V30 2161 C 209.874 2.23971 -4.85532 0
M  V30 2162 C 211.174 0.08463 -5.22231 0
M  V30 2163 H 212.868 -0.229701 -2.98518 0
M  V30 2164 H 210.414 -0.111913 -1.43564 0
M  V30 2165 H 212.367 2.1165 -3.64393 0
M  V30 2166 H 211.091 2.20994 -2.40477 0
M  V30 2167 H 209.75 0.46871 -3.63591 0
M  V30 2168 H 209.398 2.89883 -4.11068 0
M  V30 2169 H 209.098 1.90521 -5.55856 0
M  V30 2170 H 210.622 2.82614 -5.41259 0
M  V30 2171 H 212.036 0.573509 -5.70424 0
M  V30 2172 H 210.433 -0.160783 -5.99885 0
M  V30 2173 H 211.503 -0.86237 -4.7717 0
M  V30 2174 N 212.846 1.57033 -0.133567 0
M  V30 2175 C 214.262 1.58035 0.222944 0
M  V30 2176 C 214.462 1.14713 1.6566 0
M  V30 2177 O 213.518 0.841218 2.38075 0
M  V30 2178 C 214.831 3.00691 -0.0236116 0
M  V30 2179 C 216.379 3.12973 0.0411512 0
M  V30 2180 C 216.854 4.57654 -0.177899 0
M  V30 2181 N 218.345 4.63033 -0.124365 0
M  V30 2182 C 219.08 5.72771 -0.268553 0
M  V30 2183 N 218.576 6.91206 -0.46972 0
M  V30 2184 N 220.369 5.61718 -0.2071 0
M  V30 2185 H 212.52 1.8349 -1.06981 0
M  V30 2186 H 214.783 0.848677 -0.422436 0
M  V30 2187 H 214.489 3.36726 -1.0153 0
M  V30 2188 H 214.363 3.70614 0.701808 0
M  V30 2189 H 216.75 2.76787 1.02338 0
M  V30 2190 H 216.831 2.45564 -0.716383 0
M  V30 2191 H 216.475 4.94542 -1.15717 0
M  V30 2192 H 216.405 5.23173 0.599797 0
M  V30 2193 H 218.896 3.7789 0.027011 0
M  V30 2194 H 219.209 7.70693 -0.570212 0
M  V30 2195 H 217.554 6.93156 -0.505876 0
M  V30 2196 H 220.745 4.68072 -0.0507986 0
M  V30 2197 H 220.918 6.47195 -0.322909 0
M  V30 2198 N 214.325 -0.140222 1.56975 0
M  V30 2199 C 215.574 -0.850152 1.82908 0
M  V30 2200 C 215.887 -1.82028 0.715892 0
M  V30 2201 O 217.093 -2.57485 0.861016 0
M  V30 2202 C 215.549 -1.5625 3.24213 0
M  V30 2203 C 215.157 -0.63443 4.43485 0
M  V30 2204 C 216.901 -2.25881 3.59413 0
M  V30 2205 C 214.808 -1.34879 5.75814 0
M  V30 2206 H 213.738 -0.321221 0.682153 0
M  V30 2207 H 216.389 -0.102874 1.83211 0
M  V30 2208 H 214.771 -2.35565 3.18316 0
M  V30 2209 H 215.945 0.12398 4.60633 0
M  V30 2210 H 214.26 -0.0461836 4.16374 0
M  V30 2211 H 216.857 -2.79978 4.5554 0
M  V30 2212 H 217.2 -3.02693 2.85802 0
M  V30 2213 H 217.733 -1.53477 3.67001 0
M  V30 2214 H 214.472 -0.622385 6.52539 0
M  V30 2215 H 213.992 -2.07974 5.6259 0
M  V30 2216 H 215.671 -1.88784 6.18845 0
M  V30 2217 N 215.803 -1.52179 -0.40978 0
M  V30 2218 C 216.751 -1.76086 -1.51975 0
M  V30 2219 C 217.745 -0.627964 -1.57331 0
M  V30 2220 O 218.951 -0.809993 -1.60745 0
M  V30 2221 H 215.326 -0.556829 -0.505416 0
M  V30 2222 H 217.297 -2.69077 -1.28996 0
M  V30 2223 C 216.046 -1.92799 -2.8935 0
M  V30 2224 H 215.369 -2.79392 -2.85972 0
M  V30 2225 H 216.809 -2.13527 -3.66309 0
M  V30 2226 C 215.268 -0.694923 -3.29655 0
M  V30 2227 O 215.798 0.13751 -4.01465 0
M  V30 2228 N 214.004 -0.53101 -2.85707 0
M  V30 2229 H 213.551 -1.20952 -2.27439 0
M  V30 2230 H 213.509 0.292718 -3.13034 0
M  V30 2231 N 217.281 0.66697 -1.42791 0
M  V30 2232 C 218.214 1.79177 -1.41318 0
M  V30 2233 C 219.192 1.60234 -0.276401 0
M  V30 2234 O 220.376 1.82602 -0.46785 0
M  V30 2235 C 217.503 3.16289 -1.21157 0
M  V30 2236 C 216.549 3.53964 -2.37932 0
M  V30 2237 S 217.382 3.55501 -4.00474 0
M  V30 2238 C 218.538 4.95292 -3.8267 0
M  V30 2239 H 218.771 1.80153 -2.365 0
M  V30 2240 H 216.304 0.838357 -1.29657 0
M  V30 2241 H 218.262 3.95428 -1.10212 0
M  V30 2242 H 216.923 3.1289 -0.275481 0
M  V30 2243 H 216.116 4.53646 -2.19594 0
M  V30 2244 H 215.718 2.82204 -2.45432 0
M  V30 2245 H 218.01 5.83584 -3.44145 0
M  V30 2246 H 218.953 5.18679 -4.82055 0
M  V30 2247 H 219.361 4.68179 -3.15386 0
M  V30 2248 N 218.759 1.29093 0.90403 0
M  V30 2249 C 220.17 1.15186 1.46932 0
M  V30 2250 C 220.521 -0.254587 1.94541 0
M  V30 2251 O 219.646 -1.14972 1.83332 0
M  V30 2252 C 220.241 2.08492 2.67051 0
M  V30 2253 C 218.8 1.98621 3.19729 0
M  V30 2254 C 217.947 1.9967 1.92425 0
M  V30 2255 H 220.898 1.41641 0.715789 0
M  V30 2256 H 220.919 1.65461 3.42641 0
M  V30 2257 H 220.431 3.10847 2.3237 0
M  V30 2258 H 218.532 0.993389 3.59114 0
M  V30 2259 H 218.645 2.86068 3.8432 0
M  V30 2260 H 217.009 1.44208 2.09943 0
M  V30 2261 H 217.792 3.03721 1.60026 0
M  V30 2262 N 220.237 -1.11381 1.11499 0
M  V30 2263 C 221.169 -2.17207 0.731704 0
M  V30 2264 C 222.182 -1.61066 -0.236957 0
M  V30 2265 O 223.371 -1.78489 -0.0197591 0
M  V30 2266 C 220.471 -3.38846 0.0607624 0
M  V30 2267 C 219.644 -4.24451 1.0564 0
M  V30 2268 C 218.703 -5.24562 0.4149 0
M  V30 2269 O 217.729 -5.59071 1.069 0
M  V30 2270 N 218.931 -5.74651 -0.821943 0
M  V30 2271 H 221.696 -2.50699 1.64225 0
M  V30 2272 H 219.257 -1.26908 1.00529 0
M  V30 2273 H 221.249 -4.02911 -0.380139 0
M  V30 2274 H 219.819 -3.03411 -0.752376 0
M  V30 2275 H 219.039 -3.56833 1.67524 0
M  V30 2276 H 220.327 -4.78486 1.72998 0
M  V30 2277 H 219.725 -5.48797 -1.37252 0
M  V30 2278 H 218.282 -6.40549 -1.20582 0
M  V30 2279 N 221.715 -0.905404 -1.28997 0
M  V30 2280 C 222.678 -0.392253 -2.25819 0
M  V30 2281 C 223.678 0.476753 -1.5357 0
M  V30 2282 O 224.868 0.280994 -1.71919 0
M  V30 2283 C 222 0.438588 -3.38067 0
M  V30 2284 H 223.193 -1.24743 -2.72725 0
M  V30 2285 H 220.746 -0.684051 -1.40536 0
M  V30 2286 H 221.481 1.31352 -2.96508 0
M  V30 2287 H 221.266 -0.184167 -3.91667 0
M  V30 2288 H 222.756 0.78873 -4.10084 0
M  V30 2289 N 223.193 1.4272 -0.668489 0
M  V30 2290 C 224.439 2.02443 -0.197076 0
M  V30 2291 C 224.794 1.51882 1.18109 0
M  V30 2292 O 224.087 0.708618 1.78015 0
M  V30 2293 C 224.281 3.57021 -0.164499 0
M  V30 2294 C 224.11 4.22583 -1.53797 0
M  V30 2295 C 222.88 4.58019 -2.13416 0
M  V30 2296 C 225.078 4.50588 -2.47941 0
M  V30 2297 N 223.06 5.08729 -3.4361 0
M  V30 2298 C 224.431 5.02782 -3.62782 0
M  V30 2299 C 226.486 4.32571 -2.46551 0
M  V30 2300 C 225.189 5.38852 -4.76478 0
M  V30 2301 C 227.215 4.69713 -3.59338 0
M  V30 2302 C 226.577 5.22053 -4.72906 0
M  V30 2303 H 222.676 0.773214 -0.116894 0
M  V30 2304 H 225.26 1.73673 -0.880108 0
M  V30 2305 H 223.431 3.85323 0.487925 0
M  V30 2306 H 225.163 4.03439 0.319207 0
M  V30 2307 H 221.918 4.43566 -1.65969 0
M  V30 2308 H 222.342 5.38521 -4.10273 0
M  V30 2309 H 226.984 3.91365 -1.59978 0
M  V30 2310 H 224.702 5.78993 -5.63731 0
M  V30 2311 H 228.288 4.57454 -3.59482 0
M  V30 2312 H 227.168 5.50258 -5.58736 0
M  V30 2313 N 224.671 0.411399 1.52136 0
M  V30 2314 C 225.601 -0.404015 2.29978 0
M  V30 2315 C 226.582 -1.04412 1.34284 0
M  V30 2316 O 227.767 -1.0527 1.63192 0
M  V30 2317 C 224.897 -1.5197 3.12286 0
M  V30 2318 C 223.851 -1.00448 4.16046 0
M  V30 2319 C 223.177 -2.21393 4.86712 0
M  V30 2320 C 224.477 -0.0569336 5.22269 0
M  V30 2321 H 226.171 0.245529 2.98392 0
M  V30 2322 H 223.717 0.119525 1.43503 0
M  V30 2323 H 225.67 -2.09715 3.6551 0
M  V30 2324 H 224.394 -2.19716 2.41646 0
M  V30 2325 H 223.053 -0.449421 3.63835 0
M  V30 2326 H 222.701 -2.87699 4.12599 0
M  V30 2327 H 222.401 -1.87571 5.56858 0
M  V30 2328 H 223.925 -2.7974 5.4275 0
M  V30 2329 H 225.339 -0.54325 5.7072 0
M  V30 2330 H 223.736 0.192594 5.99791 0
M  V30 2331 H 224.806 0.887663 4.76706 0
M  V30 2332 N 226.149 -1.5696 0.141893 0
M  V30 2333 C 227.059 -2.20066 -0.812905 0
M  V30 2334 C 228.075 -1.18344 -1.27557 0
M  V30 2335 O 229.251 -1.50902 -1.33381 0
M  V30 2336 C 226.316 -2.80583 -2.03652 0
M  V30 2337 C 225.377 -3.97414 -1.62359 0
M  V30 2338 C 224.61 -4.55036 -2.78887 0
M  V30 2339 O 224.833 -4.11538 -3.94959 0
M  V30 2340 O 223.767 -5.45376 -2.54653 0
M  V30 2341 H 227.593 -3.02157 -0.305746 0
M  V30 2342 H 225.178 -1.49159 -0.0848799 0
M  V30 2343 H 227.06 -3.19067 -2.75272 0
M  V30 2344 H 225.735 -2.01508 -2.5333 0
M  V30 2345 H 224.642 -3.63656 -0.877775 0
M  V30 2346 H 225.975 -4.77994 -1.17401 0
M  V30 2347 N 227.627 0.131896 -1.57047 0
M  V30 2348 C 228.857 0.855219 -1.88068 0
M  V30 2349 C 229.265 1.74557 -0.729817 0
M  V30 2350 O 228.608 1.81083 0.308962 0
M  V30 2351 C 228.67 1.75119 -3.13964 0
M  V30 2352 C 228.334 1.03646 -4.45091 0
M  V30 2353 C 229.331 0.383276 -5.18485 0
M  V30 2354 C 227.016 1.02148 -4.91804 0
M  V30 2355 C 229.01 -0.275347 -6.36805 0
M  V30 2356 C 226.697 0.359047 -6.10044 0
M  V30 2357 C 227.695 -0.288222 -6.82392 0
M  V30 2358 O 227.383 -0.94011 -7.98384 0
M  V30 2359 H 227.115 0.251864 -0.627328 0
M  V30 2360 H 229.669 0.124782 -2.05021 0
M  V30 2361 H 227.899 2.52295 -2.9306 0
M  V30 2362 H 229.588 2.3478 -3.31109 0
M  V30 2363 H 230.354 0.386562 -4.83457 0
M  V30 2364 H 226.233 1.5147 -4.35405 0
M  V30 2365 H 229.777 -0.781148 -6.93213 0
M  V30 2366 H 225.674 0.35348 -6.44531 0
M  V30 2367 H 226.442 -0.84329 -8.14144 0
M  V30 2368 N 229.106 1.52395 0.401703 0
M  V30 2369 C 230.331 1.70972 1.17403 0
M  V30 2370 C 230.756 0.421615 1.83314 0
M  V30 2371 O 230.114 -0.621564 1.70312 0
M  V30 2372 C 230.162 2.85151 2.20728 0
M  V30 2373 O 229.266 2.51238 3.27037 0
M  V30 2374 H 228.607 0.568927 0.342372 0
M  V30 2375 H 231.137 1.99131 0.469891 0
M  V30 2376 H 231.147 3.10279 2.64936 0
M  V30 2377 H 229.822 3.78603 1.7214 0
M  V30 2378 H 228.399 2.36808 2.88057 0
M  V30 2379 N 230.584 -0.659388 1.43143 0
M  V30 2380 C 231.861 -1.41627 1.34912 0
M  V30 2381 C 232.241 -2.11099 -0.00607785 0
M  V30 2382 O 231.589 -2.04353 -1.02236 0
M  V30 2383 C 231.799 -2.40604 2.52805 0
M  V30 2384 C 233.147 -3.04789 2.95616 0
M  V30 2385 O 234.171 -2.50932 2.52807 0
M  V30 2386 O 233.03 -4.02421 3.69756 0
M  V30 2387 H 230.124 -0.63246 0.532844 0
M  V30 2388 H 232.67 -0.686814 1.5518 0
M  V30 2389 H 231.442 -1.88174 3.43083 0
M  V30 2390 H 231.065 -3.21009 2.34604 0
M  V30 2391 N 232.062 -1.29571 -0.897171 0
M  V30 2392 C 233.025 -1.14913 -1.98312 0
M  V30 2393 C 234.025 -0.0838629 -1.60581 0
M  V30 2394 O 235.215 -0.331006 -1.71026 0
M  V30 2395 C 232.347 -0.757835 -3.3237 0
M  V30 2396 H 233.54 -2.11377 -2.12743 0
M  V30 2397 H 231.093 -1.12793 -1.08201 0
M  V30 2398 H 231.828 0.206837 -3.2364 0
M  V30 2399 H 231.613 -1.52755 -3.61121 0
M  V30 2400 H 233.103 -0.678408 -4.12053 0
M  V30 2401 N 233.54 1.10788 -1.12088 0
M  V30 2402 C 234.768 1.86461 -0.896651 0
M  V30 2403 C 235.183 1.80492 0.553912 0
M  V30 2404 O 234.54 1.19102 1.38278 0
M  V30 2405 C 234.591 3.35006 -1.35843 0
M  V30 2406 O 234.312 3.40866 -2.75213 0
M  V30 2407 C 235.813 4.27565 -1.1706 0
M  V30 2408 H 233.033 0.589425 -0.320654 0
M  V30 2409 H 235.577 1.40076 -1.48993 0
M  V30 2410 H 233.732 3.7887 -0.808458 0
M  V30 2411 H 234.146 4.33411 -2.9539 0
M  V30 2412 H 235.62 5.30007 -1.54263 0
M  V30 2413 H 236.097 4.3906 -0.110814 0
M  V30 2414 H 236.703 3.89501 -1.70789 0
M  V30 2415 N 235.018 0.912232 1.28515 0
M  V30 2416 C 236.264 0.554851 1.95686 0
M  V30 2417 C 236.619 -0.89138 1.70506 0
M  V30 2418 O 235.912 -1.62529 1.01464 0
M  V30 2419 C 236.106 0.798392 3.48368 0
M  V30 2420 C 235.935 2.26674 3.88393 0
M  V30 2421 C 234.705 2.91657 4.12631 0
M  V30 2422 C 236.903 3.24303 3.99164 0
M  V30 2423 N 234.885 4.28805 4.39317 0
M  V30 2424 C 236.256 4.4661 4.30046 0
M  V30 2425 C 238.311 3.19723 3.81683 0
M  V30 2426 C 237.014 5.64915 4.45268 0
M  V30 2427 C 239.04 4.37325 3.98121 0
M  V30 2428 C 238.402 5.58406 4.29375 0
M  V30 2429 H 234.501 0.252876 0.739985 0
M  V30 2430 H 237.085 1.17565 1.55199 0
M  V30 2431 H 235.256 0.20688 3.87849 0
M  V30 2432 H 236.988 0.405193 4.02666 0
M  V30 2433 H 233.743 2.42393 4.06869 0
M  V30 2434 H 234.167 4.99712 4.56746 0
M  V30 2435 H 238.809 2.27191 3.56573 0
M  V30 2436 H 236.527 6.57927 4.6921 0
M  V30 2437 H 240.113 4.35282 3.86033 0
M  V30 2438 H 238.993 6.47889 4.41825 0
M  V30 2439 N 236.496 -1.42363 0.676048 0
M  V30 2440 C 237.426 -2.33497 0.0124832 0
M  V30 2441 C 238.407 -1.50748 -0.787981 0
M  V30 2442 O 239.592 -1.79346 -0.744884 0
M  V30 2443 C 236.722 -3.34377 -0.938582 0
M  V30 2444 C 235.676 -4.27289 -0.246622 0
M  V30 2445 C 235.002 -5.18386 -1.31071 0
M  V30 2446 C 236.302 -5.14916 0.875125 0
M  V30 2447 H 237.996 -2.89233 0.773593 0
M  V30 2448 H 235.542 -1.39073 0.37346 0
M  V30 2449 H 237.495 -3.97044 -1.41188 0
M  V30 2450 H 236.219 -2.76947 -1.73113 0
M  V30 2451 H 234.878 -3.66018 0.206456 0
M  V30 2452 H 234.526 -4.57282 -2.09528 0
M  V30 2453 H 234.226 -5.81378 -0.852839 0
M  V30 2454 H 235.75 -5.83929 -1.78492 0
M  V30 2455 H 237.164 -5.71262 0.482983 0
M  V30 2456 H 235.561 -5.86747 1.25887 0
M  V30 2457 H 236.631 -4.53242 1.72335 0
M  V30 2458 N 237.974 -0.419461 -1.51915 0
M  V30 2459 C 239.385 0.0477853 -1.86639 0
M  V30 2460 C 239.736 1.43531 -1.33766 0
M  V30 2461 O 238.861 2.05401 -0.68113 0
M  V30 2462 C 239.456 0.0934885 -3.38671 0
M  V30 2463 C 238.015 0.505097 -3.72996 0
M  V30 2464 C 237.162 -0.313792 -2.75519 0
M  V30 2465 H 240.113 -0.636088 -1.45395 0
M  V30 2466 H 240.134 0.906667 -3.6954 0
M  V30 2467 H 239.646 -0.916501 -3.77123 0
M  V30 2468 H 237.747 1.52135 -3.40126 0
M  V30 2469 H 237.86 0.242309 -4.78487 0
M  V30 2470 H 236.224 0.225363 -2.53701 0
M  V30 2471 H 237.007 -1.32232 -3.16812 0
M  V30 2472 N 239.452 1.56882 -0.150215 0
M  V30 2473 C 240.863 1.82995 0.370076 0
M  V30 2474 C 241.214 1.06907 1.64515 0
M  V30 2475 O 240.339 0.315369 2.1409 0
M  V30 2476 C 240.934 3.31942 0.678208 0
M  V30 2477 C 239.493 3.58625 1.14301 0
M  V30 2478 C 238.64 2.76792 0.167778 0
M  V30 2479 H 241.591 1.54209 -0.374858 0
M  V30 2480 H 241.612 3.48272 1.53254 0
M  V30 2481 H 241.124 3.87294 -0.249991 0
M  V30 2482 H 239.225 3.08664 2.08704 0
M  V30 2483 H 239.338 4.67073 1.06676 0
M  V30 2484 H 237.702 2.45972 0.661037 0
M  V30 2485 H 238.485 3.34916 -0.754069 0
M  V30 2486 N 240.93 -0.123565 1.57115 0
M  V30 2487 C 242.155 -0.850398 1.89164 0
M  V30 2488 C 242.58 -1.7286 0.741688 0
M  V30 2489 O 241.938 -1.78665 -0.307958 0
M  V30 2490 C 241.986 -1.66353 3.19936 0
M  V30 2491 O 241.09 -2.77004 3.0552 0
M  V30 2492 H 240.431 -0.235454 0.620852 0
M  V30 2493 H 242.961 -0.107335 2.04318 0
M  V30 2494 H 242.971 -2.05372 3.52543 0
M  V30 2495 H 241.646 -1.01881 4.03228 0
M  V30 2496 H 240.223 -2.41221 2.84371 0
M  V30 2497 N 242.408 -1.52605 -0.393616 0
M  V30 2498 C 243.824 -1.41753 -0.733357 0
M  V30 2499 C 244.024 -0.534293 -1.94287 0
M  V30 2500 O 243.08 -0.0059787 -2.52499 0
M  V30 2501 C 244.393 -2.84531 -0.972772 0
M  V30 2502 C 245.941 -2.93978 -1.07453 0
M  V30 2503 C 246.416 -4.37756 -1.3466 0
M  V30 2504 N 247.907 -4.4106 -1.41492 0
M  V30 2505 C 248.642 -5.49387 -1.642 0
M  V30 2506 N 248.138 -6.67806 -1.8441 0
M  V30 2507 N 249.931 -5.36923 -1.66342 0
M  V30 2508 H 242.082 -2.08555 0.402328 0
M  V30 2509 H 244.345 -0.940654 0.117789 0
M  V30 2510 H 244.051 -3.51353 -0.156204 0
M  V30 2511 H 243.925 -3.26508 -1.88871 0
M  V30 2512 H 246.312 -2.27326 -1.88167 0
M  V30 2513 H 246.393 -2.55435 -0.136605 0
M  V30 2514 H 246.037 -5.04972 -0.544581 0
M  V30 2515 H 245.967 -4.73848 -2.2973 0
M  V30 2516 H 248.458 -3.55705 -1.27601 0
M  V30 2517 H 248.771 -7.46141 -2.01231 0
M  V30 2518 H 247.116 -6.70843 -1.81644 0
M  V30 2519 H 250.307 -4.43381 -1.50102 0
M  V30 2520 H 250.48 -6.21416 -1.837 0
M  V30 2521 N 243.887 0.651787 -1.4349 0
M  V30 2522 C 245.133 1.4121 -1.46395 0
M  V30 2523 C 245.488 1.92202 -0.087366 0
M  V30 2524 O 244.781 1.69452 0.894231 0
M  V30 2525 C 244.975 2.60914 -2.44251 0
M  V30 2526 C 244.804 2.21639 -3.91288 0
M  V30 2527 C 243.574 2.09897 -4.59643 0
M  V30 2528 C 245.772 1.81835 -4.81083 0
M  V30 2529 N 243.754 1.63967 -5.91598 0
M  V30 2530 C 245.125 1.46998 -6.02322 0
M  V30 2531 C 247.18 1.69031 -4.6833 0
M  V30 2532 C 245.883 1.00638 -7.12225 0
M  V30 2533 C 247.909 1.24077 -5.78238 0
M  V30 2534 C 247.271 0.901772 -6.98604 0
M  V30 2535 H 243.37 0.512322 -0.590805 0
M  V30 2536 H 245.954 0.74989 -1.7968 0
M  V30 2537 H 244.125 3.24792 -2.1299 0
M  V30 2538 H 245.857 3.27622 -2.37584 0
M  V30 2539 H 242.612 2.297 -4.14168 0
M  V30 2540 H 243.036 1.43359 -6.61647 0
M  V30 2541 H 247.678 1.93878 -3.75727 0
M  V30 2542 H 245.396 0.745399 -8.04655 0
M  V30 2543 H 248.982 1.14657 -5.7039 0
M  V30 2544 H 247.862 0.559226 -7.82203 0
M  V30 2545 N 245.365 1.30045 0.890287 0
M  V30 2546 C 246.642 1.09227 1.62262 0
M  V30 2547 C 247.022 -0.360305 2.08002 0
M  V30 2548 O 246.37 -1.35084 1.84295 0
M  V30 2549 C 246.58 2.08835 2.79623 0
M  V30 2550 C 247.928 2.40266 3.50082 0
M  V30 2551 O 248.952 2.07104 2.89804 0
M  V30 2552 O 247.811 2.96967 4.58773 0
M  V30 2553 H 244.905 0.419132 0.712922 0
M  V30 2554 H 247.451 1.41451 0.937529 0
M  V30 2555 H 246.223 3.06633 2.43089 0
M  V30 2556 H 245.846 1.77397 3.55832 0
M  V30 2557 N 246.843 -1.10192 1.12674 0
M  V30 2558 C 248.12 -1.78717 0.794965 0
M  V30 2559 C 248.5 -1.98628 -0.714853 0
M  V30 2560 O 247.848 -1.58135 -1.64941 0
M  V30 2561 C 248.058 -3.11546 1.5729 0
M  V30 2562 C 249.406 -3.86382 1.76052 0
M  V30 2563 O 250.43 -3.21274 1.53823 0
M  V30 2564 O 249.289 -5.03246 2.13087 0
M  V30 2565 H 246.383 -0.774702 0.289423 0
M  V30 2566 H 248.929 -1.16819 1.23091 0
M  V30 2567 H 247.701 -2.92489 2.59935 0
M  V30 2568 H 247.324 -3.81164 1.13137 0
M  V30 2569 N 248.321 -0.919034 -1.28029 0
M  V30 2570 C 249.569 -0.553838 -1.94363 0
M  V30 2571 C 249.89 0.906357 -1.72656 0
M  V30 2572 O 249.16 1.64143 -1.0693 0
M  V30 2573 H 247.74 -0.201834 -0.719216 0
M  V30 2574 H 250.402 -1.16954 -1.55909 0
M  V30 2575 H 249.498 -0.752758 -3.02886 0
M  V30 2576 N 249.799 1.42003 -0.683588 0
M  V30 2577 C 251.048 2.00638 -0.206681 0
M  V30 2578 C 251.361 1.5472 1.19671 0
M  V30 2579 O 252.567 2.05833 1.77045 0
M  V30 2580 C 251.023 3.58487 -0.318632 0
M  V30 2581 C 250.631 4.1339 -1.72663 0
M  V30 2582 C 252.375 4.24384 0.0991141 0
M  V30 2583 C 250.282 5.63633 -1.79087 0
M  V30 2584 H 249.212 0.750408 -0.0735107 0
M  V30 2585 H 251.863 1.62624 -0.850048 0
M  V30 2586 H 250.245 3.94047 0.392781 0
M  V30 2587 H 251.419 3.89273 -2.46583 0
M  V30 2588 H 249.734 3.59976 -2.09299 0
M  V30 2589 H 252.331 5.34652 0.0713833 0
M  V30 2590 H 252.674 4.00505 1.13586 0
M  V30 2591 H 253.207 3.93816 -0.561599 0
M  V30 2592 H 249.946 5.92323 -2.80774 0
M  V30 2593 H 249.466 5.89714 -1.09535 0
M  V30 2594 H 251.145 6.28201 -1.5483 0
M  V30 2595 N 251.277 0.427512 1.51691 0
M  V30 2596 C 252.688 -0.0378867 1.86662 0
M  V30 2597 C 253.039 -1.42819 1.34525 0
M  V30 2598 O 252.164 -2.05037 0.692014 0
M  V30 2599 C 252.759 -0.0755266 3.38716 0
M  V30 2600 C 251.318 -0.485309 3.73258 0
M  V30 2601 C 250.465 0.328399 2.75349 0
M  V30 2602 H 253.416 0.64379 1.45055 0
M  V30 2603 H 253.437 -0.887056 3.70016 0
M  V30 2604 H 252.949 0.936487 3.76632 0
M  V30 2605 H 251.05 -1.50329 3.40928 0
M  V30 2606 H 251.163 -0.21693 4.78609 0
M  V30 2607 H 249.527 -0.211905 2.53817 0
M  V30 2608 H 250.31 1.3391 3.16106 0
M  V30 2609 N 252.755 -1.56801 0.158532 0
M  V30 2610 C 254.003 -1.96102 -0.488712 0
M  V30 2611 C 254.324 -1.04498 -1.64636 0
M  V30 2612 O 253.594 -0.108783 -1.95598 0
M  V30 2613 H 252.174 -0.724102 -0.183535 0
M  V30 2614 H 254.836 -1.93457 0.236728 0
M  V30 2615 H 253.932 -3.00097 -0.857219 0
M  V30 2616 N 254.233 0.115231 -1.57178 0
M  V30 2617 C 255.163 1.1423 -2.03651 0
M  V30 2618 C 256.144 1.42967 -0.921655 0
M  V30 2619 O 257.329 1.53343 -1.19162 0
M  V30 2620 C 254.459 2.4675 -2.44401 0
M  V30 2621 C 253.413 2.32467 -3.59365 0
M  V30 2622 C 252.739 3.69984 -3.86026 0
M  V30 2623 C 254.039 1.78203 -4.90959 0
M  V30 2624 H 255.733 0.755749 -2.89705 0
M  V30 2625 H 253.279 0.362093 -1.39373 0
M  V30 2626 H 255.232 3.18854 -2.75517 0
M  V30 2627 H 253.956 2.87302 -1.55322 0
M  V30 2628 H 252.615 1.62811 -3.28463 0
M  V30 2629 H 252.263 4.08028 -2.94147 0
M  V30 2630 H 251.963 3.61279 -4.63412 0
M  V30 2631 H 253.487 4.43587 -4.19599 0
M  V30 2632 H 254.901 2.40128 -5.20587 0
M  V30 2633 H 253.298 1.8031 -5.72371 0
M  V30 2634 H 254.368 0.739876 -4.79222 0
M  V30 2635 N 255.711 1.52812 0.385517 0
M  V30 2636 C 256.644 1.72592 1.49289 0
M  V30 2637 C 257.622 0.573819 1.52138 0
M  V30 2638 O 258.806 0.80404 1.70492 0
M  V30 2639 C 255.933 1.78669 2.87741 0
M  V30 2640 C 254.979 3.00455 3.02703 0
M  V30 2641 S 255.812 4.60366 2.73538 0
M  V30 2642 C 256.968 4.69263 4.14177 0
M  V30 2643 H 257.201 2.66248 1.32285 0
M  V30 2644 H 254.734 1.43148 0.578611 0
M  V30 2645 H 256.692 1.82855 3.67524 0
M  V30 2646 H 255.353 0.861 3.02069 0
M  V30 2647 H 254.546 3.01258 4.04054 0
M  V30 2648 H 254.148 2.94278 2.30817 0
M  V30 2649 H 256.44 4.48092 5.08153 0
M  V30 2650 H 257.383 5.71276 4.18388 0
M  V30 2651 H 257.791 3.98072 4.00249 0
M  V30 2652 N 257.189 -0.644168 1.43834 0
M  V30 2653 C 258.119 -1.76814 1.52509 0
M  V30 2654 C 259.1 -1.65823 0.379052 0
M  V30 2655 O 260.285 -1.84781 0.597466 0
M  V30 2656 C 257.415 -3.15288 1.4564 0
M  V30 2657 C 256.369 -3.41053 2.58586 0
M  V30 2658 C 255.695 -4.79421 2.36769 0
M  V30 2659 C 256.995 -3.34902 4.00797 0
M  V30 2660 H 258.689 -1.69812 2.46586 0
M  V30 2661 H 256.235 -0.815542 1.1868 0
M  V30 2662 H 258.188 -3.93681 1.50311 0
M  V30 2663 H 256.912 -3.23043 0.480725 0
M  V30 2664 H 255.571 -2.65035 2.53282 0
M  V30 2665 H 255.219 -4.83863 1.37424 0
M  V30 2666 H 254.919 -4.9762 3.12487 0
M  V30 2667 H 256.443 -5.6006 2.43238 0
M  V30 2668 H 257.857 -4.03218 4.07539 0
M  V30 2669 H 256.254 -3.64637 4.76613 0
M  V30 2670 H 257.324 -2.32928 4.25291 0
M  V30 2671 N 258.668 -1.30515 -0.883378 0
M  V30 2672 C 259.945 -1.10086 -1.6168 0
M  V30 2673 C 260.325 0.349269 -2.08191 0
M  V30 2674 O 259.673 1.34105 -1.85008 0
M  V30 2675 C 259.883 -2.10315 -2.78511 0
M  V30 2676 C 261.231 -2.42119 -3.48803 0
M  V30 2677 O 262.255 -2.08638 -2.88702 0
M  V30 2678 O 261.114 -2.99396 -4.57192 0
M  V30 2679 H 258.208 -0.422907 -0.710689 0
M  V30 2680 H 260.754 -1.41947 -0.930015 0
M  V30 2681 H 259.526 -3.07917 -2.41459 0
M  V30 2682 H 259.149 -1.79282 -3.54886 0
M  V30 2683 N 260.146 1.09593 -1.13257 0
M  V30 2684 C 261.376 1.85231 -0.915049 0
M  V30 2685 C 261.784 1.81345 0.539498 0
M  V30 2686 O 261.127 1.20664 1.38513 0
M  V30 2687 C 261.189 3.34275 -1.3229 0
M  V30 2688 C 260.853 3.6191 -2.79052 0
M  V30 2689 C 261.85 3.57777 -3.77216 0
M  V30 2690 C 259.535 3.90309 -3.16171 0
M  V30 2691 C 261.529 3.81652 -5.1051 0
M  V30 2692 C 259.216 4.13839 -4.49644 0
M  V30 2693 C 260.214 4.09502 -5.46623 0
M  V30 2694 O 259.902 4.32426 -6.77689 0
M  V30 2695 H 259.634 0.591997 -0.326367 0
M  V30 2696 H 262.188 1.394 -1.50854 0
M  V30 2697 H 260.418 3.80805 -0.672667 0
M  V30 2698 H 262.107 3.9132 -1.07812 0
M  V30 2699 H 262.873 3.35865 -3.49885 0
M  V30 2700 H 258.752 3.92811 -2.41289 0
M  V30 2701 H 262.296 3.78182 -5.86195 0
M  V30 2702 H 258.193 4.35232 -4.767 0
M  V30 2703 H 258.961 4.49896 -6.83766 0
M  V30 2704 N 261.624 0.925811 1.2754 0
M  V30 2705 C 262.572 0.413897 2.28888 0
M  V30 2706 C 263.566 -0.500779 1.61829 0
M  V30 2707 O 264.772 -0.38069 1.75928 0
M  V30 2708 H 261.147 0.115274 0.743112 0
M  V30 2709 H 263.118 1.28151 2.69481 0
M  V30 2710 C 261.867 -0.319792 3.46226 0
M  V30 2711 H 261.19 0.374846 3.98039 0
M  V30 2712 H 262.63 -0.642435 4.19105 0
M  V30 2713 C 261.089 -1.53209 3.00048 0
M  V30 2714 O 261.619 -2.6309 3.03557 0
M  V30 2715 N 259.825 -1.38326 2.55566 0
M  V30 2716 H 259.372 -0.489292 2.5291 0
M  V30 2717 H 259.33 -2.19564 2.25031 0
M  V30 2718 N 263.102 -1.41638 0.69111 0
M  V30 2719 C 264.032 -2.3347 0.037248 0
M  V30 2720 C 265.013 -1.51575 -0.771947 0
M  V30 2721 O 266.198 -1.80126 -0.72582 0
M  V30 2722 C 263.328 -3.35354 -0.903064 0
M  V30 2723 C 262.282 -4.27526 -0.201288 0
M  V30 2724 C 261.608 -5.19747 -1.25565 0
M  V30 2725 C 262.908 -5.13959 0.929689 0
M  V30 2726 H 264.602 -2.88397 0.804227 0
M  V30 2727 H 262.148 -1.38669 0.388189 0
M  V30 2728 H 264.101 -3.98519 -1.36969 0
M  V30 2729 H 262.825 -2.78767 -1.70166 0
M  V30 2730 H 261.484 -3.65779 0.245265 0
M  V30 2731 H 261.132 -4.59479 -2.04666 0
M  V30 2732 H 260.832 -5.8225 -0.791128 0
M  V30 2733 H 262.356 -5.85789 -1.72288 0
M  V30 2734 H 263.77 -5.70718 0.543546 0
M  V30 2735 H 262.167 -5.85379 1.32103 0
M  V30 2736 H 263.237 -4.51389 1.77133 0
M  V30 2737 N 264.58 -0.43555 -1.51462 0
M  V30 2738 C 265.528 0.391205 -2.29287 0
M  V30 2739 C 266.522 1.02247 -1.35062 0
M  V30 2740 O 267.728 0.957646 -1.52411 0
M  V30 2741 H 264.103 0.144968 -0.737895 0
M  V30 2742 H 266.074 -0.286051 -2.97026 0
M  V30 2743 C 264.823 1.48096 -3.14583 0
M  V30 2744 H 264.146 1.00457 -3.86973 0
M  V30 2745 H 265.586 2.03273 -3.72097 0
M  V30 2746 C 264.045 2.46321 -2.29843 0
M  V30 2747 O 264.575 3.50815 -1.95682 0
M  V30 2748 N 262.781 2.17166 -1.931 0
M  V30 2749 H 262.328 1.32218 -2.21079 0
M  V30 2750 H 262.286 2.83127 -1.36698 0
M  V30 2751 N 266.058 1.56714 -0.166846 0
M  V30 2752 C 267.306 1.96358 0.478305 0
M  V30 2753 C 267.627 1.0537 1.6408 0
M  V30 2754 O 266.897 0.119154 1.95537 0
M  V30 2755 H 265.477 0.725065 0.179692 0
M  V30 2756 H 268.139 1.93329 -0.246985 0
M  V30 2757 H 267.235 3.00547 0.841292 0
M  V30 2758 N 267.536 -0.106894 1.57237 0
M  V30 2759 C 268.764 -0.826389 1.8968 0
M  V30 2760 C 269.179 -1.72856 0.759353 0
M  V30 2761 O 268.536 -1.80503 -0.269263 0
M  V30 2762 C 268.587 -1.64967 3.21665 0
M  V30 2763 O 268.308 -0.783804 4.31031 0
M  V30 2764 C 269.809 -2.47326 3.67892 0
M  V30 2765 H 267.029 -0.236927 0.627779 0
M  V30 2766 H 269.573 -0.0876593 2.04312 0
M  V30 2767 H 267.728 -2.34103 3.08666 0
M  V30 2768 H 268.142 -1.35284 5.06753 0
M  V30 2769 H 269.616 -3.00604 4.6297 0
M  V30 2770 H 270.093 -3.25247 2.95146 0
M  V30 2771 H 270.699 -1.83411 3.83719 0
M  V30 2772 N 269.014 -1.53014 -0.377408 0
M  V30 2773 C 270.26 -1.68872 -1.12294 0
M  V30 2774 C 270.593 -0.433224 -1.89306 0
M  V30 2775 O 269.868 0.569258 -1.85983 0
M  V30 2776 C 270.151 -2.93115 -2.09179 0
M  V30 2777 C 270.004 -4.28794 -1.35853 0
M  V30 2778 C 271.323 -3.12928 -3.09458 0
M  V30 2779 H 268.442 -0.614518 -0.406862 0
M  V30 2780 H 271.084 -1.85633 -0.40503 0
M  V30 2781 H 269.234 -2.78956 -2.70399 0
M  V30 2782 H 270.906 -4.54742 -0.775082 0
M  V30 2783 H 269.149 -4.28744 -0.660364 0
M  V30 2784 H 269.82 -5.11837 -2.06706 0
M  V30 2785 H 272.296 -3.26194 -2.58334 0
M  V30 2786 H 271.172 -4.01316 -3.74482 0
M  V30 2787 H 271.433 -2.27669 -3.78971 0
M  V30 2788 N 270.492 0.636531 -1.44174 0
M  V30 2789 C 271.717 1.42847 -1.50364 0
M  V30 2790 C 272.142 1.87665 -0.127867 0
M  V30 2791 O 271.5 1.58408 0.88185 0
M  V30 2792 C 271.548 2.62854 -2.4686 0
M  V30 2793 O 270.652 3.62501 -1.9664 0
M  V30 2794 H 269.993 0.427642 -0.507955 0
M  V30 2795 H 272.523 0.777422 -1.89255 0
M  V30 2796 H 272.533 3.10465 -2.64718 0
M  V30 2797 H 271.208 2.29578 -3.46795 0
M  V30 2798 H 269.785 3.21735 -1.88523 0
M  V30 2799 N 271.97 1.30982 0.876444 0
M  V30 2800 C 273.386 1.09498 1.16113 0
M  V30 2801 C 273.586 -0.13875 2.01022 0
M  V30 2802 O 272.642 -0.829935 2.38471 0
M  V30 2803 C 273.955 2.36308 1.85954 0
M  V30 2804 C 275.503 2.41856 1.98683 0
M  V30 2805 C 275.978 3.6853 2.71937 0
M  V30 2806 N 277.469 3.69387 2.79477 0
M  V30 2807 C 278.204 4.64096 3.36753 0
M  V30 2808 N 277.7 5.69155 3.95012 0
M  V30 2809 N 279.493 4.51626 3.3465 0
M  V30 2810 H 271.644 2.10118 0.310494 0
M  V30 2811 H 273.907 0.926634 0.200131 0
M  V30 2812 H 273.613 3.26388 1.31011 0
M  V30 2813 H 273.487 2.4561 2.86278 0
M  V30 2814 H 275.874 1.52249 2.52793 0
M  V30 2815 H 275.955 2.36523 0.9742 0
M  V30 2816 H 275.599 4.58499 2.18496 0
M  V30 2817 H 275.529 3.71127 3.73593 0
M  V30 2818 H 278.02 2.93438 2.38123 0
M  V30 2819 H 278.333 6.3751 4.36808 0
M  V30 2820 H 276.678 5.72937 3.93406 0
M  V30 2821 H 279.869 3.68728 2.8837 0
M  V30 2822 H 280.042 5.25614 3.7899 0
M  V30 2823 N 273.449 -1.08991 1.13837 0
M  V30 2824 C 274.397 -2.17841 0.815347 0
M  V30 2825 C 275.391 -1.68164 -0.204233 0
M  V30 2826 O 276.597 -1.79897 -0.0609304 0
M  V30 2827 H 272.972 -0.710654 0.245915 0
M  V30 2828 H 274.943 -2.42315 1.74143 0
M  V30 2829 C 273.692 -3.46381 0.302614 0
M  V30 2830 H 273.015 -3.84979 1.0785 0
M  V30 2831 H 274.455 -4.23844 0.115074 0
M  V30 2832 C 272.914 -3.22556 -0.972591 0
M  V30 2833 O 273.444 -3.45599 -2.04754 0
M  V30 2834 N 271.65 -2.76134 -0.905455 0
M  V30 2835 H 271.197 -2.57582 -0.0305421 0
M  V30 2836 H 271.155 -2.60571 -1.75926 0
M  V30 2837 N 274.927 -0.932562 -1.27047 0
M  V30 2838 C 276.157 -0.591173 -1.97961 0
M  V30 2839 C 276.565 0.836219 -1.69717 0
M  V30 2840 O 275.908 1.56801 -0.957036 0
M  V30 2841 C 275.97 -0.743082 -3.51736 0
M  V30 2842 C 275.634 -2.1435 -4.03613 0
M  V30 2843 C 276.631 -3.11815 -4.16014 0
M  V30 2844 C 274.316 -2.46175 -4.37839 0
M  V30 2845 C 276.31 -4.39211 -4.61923 0
M  V30 2846 C 273.997 -3.73806 -4.83438 0
M  V30 2847 C 274.995 -4.70137 -4.95439 0
M  V30 2848 O 274.683 -5.95496 -5.40037 0
M  V30 2849 H 274.415 -0.222375 -0.638377 0
M  V30 2850 H 276.969 -1.25317 -1.62742 0
M  V30 2851 H 275.199 -0.0239739 -3.86693 0
M  V30 2852 H 276.888 -0.40603 -4.03864 0
M  V30 2853 H 277.654 -2.88549 -3.89826 0
M  V30 2854 H 273.533 -1.71936 -4.27737 0
M  V30 2855 H 277.077 -5.14404 -4.71205 0
M  V30 2856 H 272.974 -3.96888 -5.09068 0
M  V30 2857 H 273.742 -5.98554 -5.58279 0
M  V30 2858 N 276.405 1.4127 -0.698611 0
M  V30 2859 C 277.337 2.292 0.00399731 0
M  V30 2860 C 278.35 1.44944 0.741279 0
M  V30 2861 O 279.539 1.68416 0.591477 0
M  V30 2862 C 276.639 3.22875 1.02979 0
M  V30 2863 C 275.812 4.35904 0.36151 0
M  V30 2864 C 274.871 5.10134 1.29033 0
M  V30 2865 O 273.897 5.63809 0.781562 0
M  V30 2866 N 275.099 5.17885 2.6225 0
M  V30 2867 H 277.864 2.9014 -0.750921 0
M  V30 2868 H 275.425 1.52455 -0.544882 0
M  V30 2869 H 277.417 3.69404 1.65296 0
M  V30 2870 H 275.987 2.63221 1.68622 0
M  V30 2871 H 275.207 3.91719 -0.441584 0
M  V30 2872 H 276.495 5.08696 -0.103055 0
M  V30 2873 H 275.893 4.7573 3.061 0
M  V30 2874 H 274.45 5.6798 3.19754 0
M  V30 2875 N 277.883 0.443576 1.51229 0
M  V30 2876 C 279.131 -0.120557 2.0174 0
M  V30 2877 C 279.452 -1.42665 1.32935 0
M  V30 2878 O 278.722 -1.9028 0.465866 0
M  V30 2879 H 277.302 -0.0475426 0.745486 0
M  V30 2880 H 279.964 0.587711 1.85828 0
M  V30 2881 H 279.06 -0.291972 3.10731 0
M  V30 2882 N 279.361 -1.56624 0.175154 0
M  V30 2883 C 280.609 -1.96609 -0.467885 0
M  V30 2884 C 280.93 -1.06238 -1.63519 0
M  V30 2885 O 280.2 -0.129523 -1.95471 0
M  V30 2886 H 278.78 -0.726008 -0.175845 0
M  V30 2887 H 281.442 -1.93195 0.257234 0
M  V30 2888 H 280.538 -3.00989 -0.825342 0
M  V30 2889 N 280.839 0.0985539 -1.57292 0
M  V30 2890 C 282.116 0.834155 -1.76921 0
M  V30 2891 C 282.496 1.97101 -0.755928 0
M  V30 2892 O 281.844 2.27474 0.216245 0
M  V30 2893 C 282.054 1.33194 -3.22584 0
M  V30 2894 C 283.402 1.77611 -3.85668 0
M  V30 2895 O 284.426 1.42825 -3.26312 0
M  V30 2896 O 283.285 2.4192 -4.90038 0
M  V30 2897 H 280.379 0.397628 -0.725135 0
M  V30 2898 H 282.925 0.0807044 -1.69508 0
M  V30 2899 H 281.697 0.517248 -3.87866 0
M  V30 2900 H 281.32 2.1475 -3.34616 0
M  V30 2901 N 282.317 1.53212 0.369288 0
M  V30 2902 C 283.542 1.73423 1.1375 0
M  V30 2903 C 283.967 0.460404 1.82378 0
M  V30 2904 O 283.325 -0.585298 1.71592 0
M  V30 2905 C 283.373 2.89769 2.1463 0
M  V30 2906 O 282.477 2.58119 3.21634 0
M  V30 2907 H 281.818 0.576061 0.330227 0
M  V30 2908 H 284.348 2.00083 0.427547 0
M  V30 2909 H 284.358 3.15829 2.58294 0
M  V30 2910 H 283.033 3.8217 1.64071 0
M  V30 2911 H 281.61 2.42864 2.82969 0
M  V30 2912 N 283.795 -0.628877 1.44509 0
M  V30 2913 C 284.745 -1.7345 1.47983 0
M  V30 2914 C 285.729 -1.5715 0.345373 0
M  V30 2915 O 286.921 -1.66848 0.590829 0
M  V30 2916 C 284.05 -3.12143 1.42904 0
M  V30 2917 C 283.136 -3.33906 2.61472 0
M  V30 2918 N 283.527 -3.26024 3.86706 0
M  V30 2919 C 281.825 -3.64709 2.56716 0
M  V30 2920 C 282.526 -3.48536 4.65722 0
M  V30 2921 N 281.502 -3.71517 3.96832 0
M  V30 2922 H 285.304 -1.65818 2.42655 0
M  V30 2923 H 282.818 -0.831419 1.39503 0
M  V30 2924 H 284.815 -3.91433 1.43476 0
M  V30 2925 H 283.475 -3.2094 0.492717 0
M  V30 2926 H 284.486 -3.04893 4.18641 0
M  V30 2927 H 281.163 -3.80473 1.71891 0
M  V30 2928 H 282.553 -3.48016 5.74747 0
M  V30 2929 N 285.273 -1.31445 -0.869486 0
M  V30 2930 C 286.205 -1.14955 -1.98287 0
M  V30 2931 C 287.218 -0.0885037 -1.62559 0
M  V30 2932 O 288.407 -0.336044 -1.75308 0
M  V30 2933 C 285.507 -0.734255 -3.3085 0
M  V30 2934 C 284.68 -1.88042 -3.94917 0
M  V30 2935 C 283.739 -1.4511 -5.05796 0
M  V30 2936 O 282.765 -2.16082 -5.2659 0
M  V30 2937 N 283.967 -0.338763 -5.79511 0
M  V30 2938 H 286.732 -2.10856 -2.12979 0
M  V30 2939 H 284.293 -1.23786 -1.04349 0
M  V30 2940 H 286.285 -0.42975 -4.02412 0
M  V30 2941 H 284.855 0.133158 -3.12316 0
M  V30 2942 H 284.075 -2.35222 -3.1633 0
M  V30 2943 H 285.363 -2.6481 -4.34457 0
M  V30 2944 H 284.761 0.252274 -5.65137 0
M  V30 2945 H 283.318 -0.0937925 -6.51733 0
M  V30 2946 N 286.751 1.08385 -1.14413 0
M  V30 2947 C 287.998 1.80776 -0.912482 0
M  V30 2948 C 288.326 1.86236 0.560934 0
M  V30 2949 O 287.581 1.33431 1.43159 0
M  V30 2950 C 287.88 3.26273 -1.45879 0
M  V30 2951 C 287.546 3.4093 -2.95089 0
M  V30 2952 C 286.208 3.44638 -3.35824 0
M  V30 2953 C 288.56 3.44591 -3.91033 0
M  V30 2954 C 285.888 3.49597 -4.71167 0
M  V30 2955 C 288.24 3.51086 -5.26233 0
M  V30 2956 C 286.904 3.53067 -5.6648 0
M  V30 2957 H 286.174 0.661507 -0.333901 0
M  V30 2958 H 288.821 1.27613 -1.42784 0
M  V30 2959 H 287.126 3.82146 -0.864376 0
M  V30 2960 H 288.823 3.80839 -1.2555 0
M  V30 2961 H 285.413 3.38736 -2.62594 0
M  V30 2962 H 289.597 3.40957 -3.60641 0
M  V30 2963 H 284.853 3.49424 -5.0171 0
M  V30 2964 H 289.027 3.52864 -6.00383 0
M  V30 2965 H 286.654 3.56662 -6.71339 0
M  V30 2966 N 288.23 0.939286 1.26551 0
M  V30 2967 C 289.455 0.602008 1.98471 0
M  V30 2968 C 289.88 -0.815624 1.69497 0
M  V30 2969 O 289.238 -1.54912 0.941905 0
M  V30 2970 C 289.286 0.848407 3.50477 0
M  V30 2971 O 288.39 -0.0804009 4.12322 0
M  V30 2972 H 287.731 0.23049 0.622712 0
M  V30 2973 H 290.261 1.2617 1.61066 0
M  V30 2974 H 290.271 0.768553 4.00696 0
M  V30 2975 H 288.946 1.88171 3.70897 0
M  V30 2976 H 287.523 0.0503508 3.72866 0
M  V30 2977 N 289.708 -1.40897 0.706093 0
M  V30 2978 C 290.938 -2.05075 0.250523 0
M  V30 2979 C 291.346 -1.53275 -1.10921 0
M  V30 2980 O 290.689 -0.680281 -1.7064 0
M  V30 2981 C 290.751 -3.59219 0.142178 0
M  V30 2982 C 290.415 -4.33864 1.43566 0
M  V30 2983 C 291.412 -4.62448 2.37566 0
M  V30 2984 C 289.097 -4.72946 1.69195 0
M  V30 2985 C 291.091 -5.29088 3.5545 0
M  V30 2986 C 288.778 -5.3932 2.87362 0
M  V30 2987 C 289.776 -5.6732 3.80312 0
M  V30 2988 O 289.464 -6.32325 4.96408 0
M  V30 2989 H 289.196 -0.666645 0.112074 0
M  V30 2990 H 291.75 -1.81467 0.962239 0
M  V30 2991 H 289.98 -3.81609 -0.6254 0
M  V30 2992 H 291.669 -4.0495 -0.277584 0
M  V30 2993 H 292.435 -4.32727 2.19027 0
M  V30 2994 H 288.314 -4.50527 0.977042 0
M  V30 2995 H 291.858 -5.50859 4.28018 0
M  V30 2996 H 287.755 -5.68461 3.05814 0
M  V30 2997 H 288.523 -6.50821 4.9636 0
M  V30 2998 N 291.186 -0.45159 -1.50991 0
M  V30 2999 C 292.134 0.366864 -2.29689 0
M  V30 3000 C 293.128 1.00809 -1.36139 0
M  V30 3001 O 294.334 0.941427 -1.53418 0
M  V30 3002 H 290.709 0.137133 -0.739391 0
M  V30 3003 H 292.68 -0.317538 -2.96706 0
M  V30 3004 C 291.429 1.44751 -3.16137 0
M  V30 3005 H 290.752 0.963473 -3.88017 0
M  V30 3006 H 292.192 1.99315 -3.74232 0
M  V30 3007 C 290.651 2.43869 -2.32442 0
M  V30 3008 O 291.181 3.4872 -1.99392 0
M  V30 3009 N 289.387 2.15105 -1.95392 0
M  V30 3010 H 288.934 1.29866 -2.22469 0
M  V30 3011 H 288.892 2.81661 -1.39693 0
M  V30 3012 N 292.664 1.56529 -0.183458 0
M  V30 3013 C 293.912 1.96855 0.457452 0
M  V30 3014 C 294.233 1.07104 1.62953 0
M  V30 3015 O 293.503 0.139887 1.954 0
M  V30 3016 H 292.083 0.72693 0.171992 0
M  V30 3017 H 294.745 1.93056 -0.267476 0
M  V30 3018 H 293.841 3.01423 0.809368 0
M  V30 3019 N 294.142 -0.090211 1.57342 0
M  V30 3020 C 295.37 -0.806224 1.90546 0
M  V30 3021 C 295.785 -1.72041 0.777644 0
M  V30 3022 O 295.142 -1.80778 -0.250103 0
M  V30 3023 C 295.193 -1.61546 3.23396 0
M  V30 3024 O 294.914 -0.738043 4.31839 0
M  V30 3025 C 296.415 -2.4341 3.70495 0
M  V30 3026 H 293.635 -0.230256 0.630257 0
M  V30 3027 H 296.179 -0.0659843 2.04394 0
M  V30 3028 H 294.334 -2.30816 3.11131 0
M  V30 3029 H 294.748 -1.29901 5.08159 0
M  V30 3030 H 296.222 -2.95676 4.66133 0
M  V30 3031 H 296.699 -3.22098 2.98579 0
M  V30 3032 H 297.305 -1.79331 3.85643 0
M  V30 3033 N 295.62 -1.53406 -0.361157 0
M  V30 3034 C 296.866 -1.70054 -1.10496 0
M  V30 3035 C 297.199 -0.453278 -1.88836 0
M  V30 3036 O 296.474 0.5495 -1.86576 0
M  V30 3037 C 296.757 -2.95317 -2.06058 0
M  V30 3038 C 296.61 -4.3021 -1.31298 0
M  V30 3039 C 297.929 -3.16193 -3.06121 0
M  V30 3040 H 295.048 -0.618799 -0.400321 0
M  V30 3041 H 297.69 -1.86052 -0.385318 0
M  V30 3042 H 295.84 -2.81809 -2.67425 0
M  V30 3043 H 297.512 -4.55538 -0.726807 0
M  V30 3044 H 295.755 -4.29421 -0.614853 0
M  V30 3045 H 296.426 -5.14 -2.01265 0
M  V30 3046 H 298.902 -3.28916 -2.5486 0
M  V30 3047 H 297.778 -4.05266 -3.70204 0
M  V30 3048 H 298.039 -2.31676 -3.76535 0
M  V30 3049 N 297.098 0.621204 -1.44841 0
M  V30 3050 C 298.346 1.37783 -1.47852 0
M  V30 3051 C 298.667 1.94653 -0.116224 0
M  V30 3052 O 297.937 1.76367 0.852737 0
M  V30 3053 H 296.517 0.511453 -0.544449 0
M  V30 3054 H 299.179 0.730446 -1.80694 0
M  V30 3055 H 298.275 2.20414 -2.20961 0
M  V30 3056 N 298.576 1.31904 0.862503 0
M  V30 3057 C 299.824 1.21776 1.61292 0
M  V30 3058 C 300.145 -0.222413 1.93727 0
M  V30 3059 O 299.415 -1.1451 1.58947 0
M  V30 3060 H 297.995 0.447717 0.597962 0
M  V30 3061 H 300.657 1.65326 1.03215 0
M  V30 3062 H 299.753 1.7948 2.5533 0
M  V30 3063 N 300.054 -1.07777 1.14986 0
M  V30 3064 C 301.002 -2.16964 0.838406 0
M  V30 3065 C 301.996 -1.68372 -0.186386 0
M  V30 3066 O 303.202 -1.79951 -0.0418465 0
M  V30 3067 H 299.577 -0.708006 0.253439 0
M  V30 3068 H 301.548 -2.40454 1.76704 0
M  V30 3069 C 300.297 -3.4604 0.339335 0
M  V30 3070 H 299.62 -3.83813 1.11927 0
M  V30 3071 H 301.06 -4.23698 0.160021 0
M  V30 3072 C 299.519 -3.23569 -0.938325 0
M  V30 3073 O 300.049 -3.47752 -2.01077 0
M  V30 3074 N 298.255 -2.77079 -0.876117 0
M  V30 3075 H 297.802 -2.576 -0.00322037 0
M  V30 3076 H 297.76 -2.62422 -1.73153 0
M  V30 3077 N 301.532 -0.945985 -1.26051 0
M  V30 3078 C 302.462 -0.477172 -2.28572 0
M  V30 3079 C 303.443 0.472032 -1.63419 0
M  V30 3080 O 304.628 0.372853 -1.90587 0
M  V30 3081 C 301.758 0.253975 -3.4637 0
M  V30 3082 C 300.712 -0.609135 -4.23643 0
M  V30 3083 C 300.038 0.252252 -5.34105 0
M  V30 3084 C 301.338 -1.8829 -4.8718 0
M  V30 3085 H 303.032 -1.33402 -2.68038 0
M  V30 3086 H 300.578 -0.642904 -1.28852 0
M  V30 3087 H 302.531 0.593016 -4.17207 0
M  V30 3088 H 301.255 1.145 -3.05871 0
M  V30 3089 H 299.914 -0.931138 -3.54578 0
M  V30 3090 H 299.562 1.14278 -4.89846 0
M  V30 3091 H 299.262 -0.32188 -5.86718 0
M  V30 3092 H 300.786 0.586454 -6.07777 0
M  V30 3093 H 302.2 -1.61081 -5.50205 0
M  V30 3094 H 300.597 -2.40199 -5.49931 0
M  V30 3095 H 301.667 -2.59134 -4.09851 0
M  V30 3096 N 303.011 1.40521 -0.713556 0
M  V30 3097 C 304.259 2.00527 -0.251692 0
M  V30 3098 C 304.58 1.56857 1.15848 0
M  V30 3099 O 303.85 0.807127 1.785 0
M  V30 3100 H 302.43 0.741551 -0.0900646 0
M  V30 3101 H 305.092 1.71887 -0.918733 0
M  V30 3102 H 304.188 3.10813 -0.283192 0
M  V30 3103 N 304.489 0.459591 1.5075 0
M  V30 3104 C 305.9 0.00171547 1.867 0
M  V30 3105 C 306.251 -1.39934 1.37525 0
M  V30 3106 O 305.376 -2.03523 0.735349 0
M  V30 3107 C 305.971 -0.00366298 3.388 0
M  V30 3108 C 304.53 -0.406026 3.74204 0
M  V30 3109 C 303.677 0.38673 2.7459 0
M  V30 3110 H 306.628 0.674413 1.43657 0
M  V30 3111 H 306.649 -0.808371 3.71814 0
M  V30 3112 H 306.161 1.01617 3.74561 0
M  V30 3113 H 304.262 -1.43063 3.4404 0
M  V30 3114 H 304.375 -0.115362 4.78961 0
M  V30 3115 H 302.739 -0.158019 2.54209 0
M  V30 3116 H 303.522 1.40585 3.13194 0
M  V30 3117 N 305.967 -1.56429 0.191757 0
M  V30 3118 C 307.213 -1.98541 -0.441943 0
M  V30 3119 C 307.568 -1.07646 -1.59468 0
M  V30 3120 O 306.861 -0.120191 -1.91223 0
M  V30 3121 C 307.055 -3.44449 -0.953384 0
M  V30 3122 C 306.884 -4.49456 0.148262 0
M  V30 3123 C 305.654 -5.01668 0.604781 0
M  V30 3124 C 307.852 -5.05336 0.95602 0
M  V30 3125 N 305.834 -5.90334 1.6846 0
M  V30 3126 C 307.205 -5.9064 1.88531 0
M  V30 3127 C 309.26 -4.87779 0.998811 0
M  V30 3128 C 307.963 -6.60264 2.85383 0
M  V30 3129 C 309.989 -5.58139 1.95537 0
M  V30 3130 C 309.351 -6.43187 2.8721 0
M  V30 3131 H 305.45 -0.771247 -0.129236 0
M  V30 3132 H 308.034 -1.92426 0.296682 0
M  V30 3133 H 306.205 -3.5107 -1.66146 0
M  V30 3134 H 307.937 -3.73533 -1.55741 0
M  V30 3135 H 304.692 -4.73183 0.198736 0
M  V30 3136 H 305.116 -6.39371 2.22561 0
M  V30 3137 H 309.758 -4.21705 0.304048 0
M  V30 3138 H 307.476 -7.25538 3.55837 0
M  V30 3139 H 311.062 -5.46532 1.99484 0
M  V30 3140 H 309.942 -6.96674 3.60022 0
M  V30 3141 N 307.445 0.0818655 -1.57387 0
M  V30 3142 C 308.861 0.436412 -1.53517 0
M  V30 3143 C 309.061 1.79758 -0.910459 0
M  V30 3144 O 308.117 2.47324 -0.508636 0
M  V30 3145 C 309.43 0.386734 -2.98203 0
M  V30 3146 C 310.978 0.467644 -3.09487 0
M  V30 3147 C 311.453 0.447978 -4.55804 0
M  V30 3148 N 312.944 0.508348 -4.60402 0
M  V30 3149 C 313.679 0.515184 -5.71081 0
M  V30 3150 N 313.175 0.477435 -6.91153 0
M  V30 3151 N 314.968 0.560988 -5.59294 0
M  V30 3152 H 307.119 -0.809546 -1.96367 0
M  V30 3153 H 309.382 -0.302733 -0.898363 0
M  V30 3154 H 309.088 -0.546539 -3.47427 0
M  V30 3155 H 308.962 1.20075 -3.57578 0
M  V30 3156 H 311.349 1.39134 -2.60242 0
M  V30 3157 H 311.43 -0.374753 -2.5304 0
M  V30 3158 H 311.074 -0.471826 -5.05704 0
M  V30 3159 H 311.004 1.30777 -5.10103 0
M  V30 3160 H 313.495 0.54218 -3.7399 0
M  V30 3161 H 313.808 0.486299 -7.71268 0
M  V30 3162 H 312.153 0.444278 -6.93579 0
M  V30 3163 H 315.344 0.5881 -4.64391 0
M  V30 3164 H 315.517 0.562846 -6.45551 0
M  V30 3165 N 308.923 1.53595 0.353017 0
M  V30 3166 C 309.853 1.83902 1.43883 0
M  V30 3167 C 310.834 0.693421 1.55324 0
M  V30 3168 O 312.019 0.944452 1.69687 0
M  V30 3169 C 309.149 2.04016 2.8106 0
M  V30 3170 C 308.103 3.19814 2.84434 0
M  V30 3171 C 307.429 3.25244 4.24406 0
M  V30 3172 C 308.729 4.58133 2.50822 0
M  V30 3173 H 310.423 2.74835 1.1877 0
M  V30 3174 H 307.969 1.32242 0.569917 0
M  V30 3175 H 309.922 2.238 3.57059 0
M  V30 3176 H 308.646 1.09804 3.07588 0
M  V30 3177 H 307.305 2.9987 2.10887 0
M  V30 3178 H 306.953 2.28646 4.48029 0
M  V30 3179 H 306.653 4.03054 4.27576 0
M  V30 3180 H 308.177 3.47228 5.0226 0
M  V30 3181 H 309.591 4.77995 3.16534 0
M  V30 3182 H 307.988 5.38276 2.6529 0
M  V30 3183 H 309.058 4.62387 1.46034 0
M  V30 3184 N 310.401 -0.613514 1.45168 0
M  V30 3185 C 311.817 -0.933629 1.29443 0
M  V30 3186 C 312.017 -2.00028 0.243101 0
M  V30 3187 O 311.073 -2.49848 -0.364992 0
M  V30 3188 C 312.386 -1.38018 2.67155 0
M  V30 3189 C 313.934 -1.49471 2.75004 0
M  V30 3190 C 314.409 -1.97503 4.13227 0
M  V30 3191 N 315.9 -2.04746 4.15491 0
M  V30 3192 C 316.635 -2.43121 5.19307 0
M  V30 3193 N 316.131 -2.80506 6.33473 0
M  V30 3194 N 317.924 -2.43408 5.06664 0
M  V30 3195 H 310.075 0.0916097 2.12202 0
M  V30 3196 H 312.338 -0.0216655 0.947752 0
M  V30 3197 H 312.044 -0.670625 3.45247 0
M  V30 3198 H 311.918 -2.34784 2.95222 0
M  V30 3199 H 314.305 -2.19519 1.9722 0
M  V30 3200 H 314.386 -0.510342 2.50657 0
M  V30 3201 H 314.03 -1.28045 4.91495 0
M  V30 3202 H 313.96 -2.96843 4.34962 0
M  V30 3203 H 316.451 -1.78468 3.33103 0
M  V30 3204 H 316.764 -3.08652 7.08487 0
M  V30 3205 H 315.109 -2.78216 6.36884 0
M  V30 3206 H 318.3 -2.13604 4.16523 0
M  V30 3207 H 318.473 -2.72989 5.87691 0
M  V30 3208 N 311.879 -1.3236 -0.855495 0
M  V30 3209 C 312.842 -1.21164 -1.94556 0
M  V30 3210 C 313.842 -0.134908 -1.60233 0
M  V30 3211 O 315.032 -0.385249 -1.69887 0
M  V30 3212 C 312.164 -0.863192 -3.29791 0
M  V30 3213 H 313.357 -2.18038 -2.05911 0
M  V30 3214 H 310.91 -1.16179 -1.04557 0
M  V30 3215 H 311.645 0.103769 -3.24134 0
M  V30 3216 H 311.43 -1.64166 -3.56078 0
M  V30 3217 H 312.92 -0.809156 -4.09686 0
M  V30 3218 N 313.357 1.07166 -1.15556 0
M  V30 3219 C 314.634 1.76546 -0.842069 0
M  V30 3220 C 315.014 2.00453 0.661939 0
M  V30 3221 O 314.362 1.62452 1.60691 0
M  V30 3222 C 314.572 3.07266 -1.65495 0
M  V30 3223 C 315.92 3.81578 -1.86234 0
M  V30 3224 O 316.944 3.17083 -1.62287 0
M  V30 3225 O 315.803 4.97419 -2.26355 0
M  V30 3226 H 312.897 0.766756 -0.309862 0
M  V30 3227 H 315.443 1.13514 -1.26145 0
M  V30 3228 H 314.215 2.85494 -2.67598 0
M  V30 3229 H 313.838 3.7803 -1.23203 0
M  V30 3230 N 314.835 0.952656 1.25548 0
M  V30 3231 C 316.065 0.622592 1.96996 0
M  V30 3232 C 316.473 -0.809112 1.71026 0
M  V30 3233 O 315.816 -1.55258 0.981861 0
M  V30 3234 C 315.878 0.798946 3.5051 0
M  V30 3235 C 315.542 2.20744 4.00151 0
M  V30 3236 C 316.539 3.18394 4.11001 0
M  V30 3237 C 314.224 2.5311 4.33867 0
M  V30 3238 C 316.218 4.46504 4.54877 0
M  V30 3239 C 313.905 3.8145 4.7743 0
M  V30 3240 C 314.903 4.77959 4.87897 0
M  V30 3241 O 314.591 6.04012 5.30494 0
M  V30 3242 H 314.323 0.232503 0.634758 0
M  V30 3243 H 316.877 1.2789 1.60728 0
M  V30 3244 H 315.107 0.0854903 3.86605 0
M  V30 3245 H 316.796 0.47023 4.03167 0
M  V30 3246 H 317.562 2.94715 3.85186 0
M  V30 3247 H 313.441 1.78719 4.24948 0
M  V30 3248 H 316.985 5.21835 4.62962 0
M  V30 3249 H 312.882 4.04936 5.0269 0
M  V30 3250 H 313.65 6.0736 5.48685 0
M  V30 3251 N 316.313 -1.40141 0.720998 0
M  V30 3252 C 317.245 -2.29177 0.0324669 0
M  V30 3253 C 318.258 -1.46105 -0.718126 0
M  V30 3254 O 319.447 -1.69335 -0.564608 0
M  V30 3255 C 316.547 -3.24473 -0.978292 0
M  V30 3256 C 315.72 -4.36423 -0.292115 0
M  V30 3257 C 314.779 -5.12122 -1.20901 0
M  V30 3258 O 313.805 -5.64981 -0.691766 0
M  V30 3259 N 315.007 -5.21992 -2.53978 0
M  V30 3260 H 317.772 -2.88909 0.796984 0
M  V30 3261 H 315.333 -1.51569 0.569068 0
M  V30 3262 H 317.325 -3.71987 -1.59398 0
M  V30 3263 H 315.895 -2.65871 -1.64413 0
M  V30 3264 H 315.115 -3.90967 0.503847 0
M  V30 3265 H 316.403 -5.08467 0.183971 0
M  V30 3266 H 315.801 -4.8054 -2.98493 0
M  V30 3267 H 314.358 -5.72995 -3.10677 0
M  V30 3268 N 317.792 -0.46758 -1.50504 0
M  V30 3269 C 319.04 0.0884469 -2.01906 0
M  V30 3270 C 319.361 1.40532 -1.35188 0
M  V30 3271 O 318.631 1.89515 -0.496079 0
M  V30 3272 H 317.211 0.0356765 -0.746148 0
M  V30 3273 H 319.873 -0.6172 -1.84869 0
M  V30 3274 H 318.969 0.2425 -3.11156 0
M  V30 3275 N 319.27 1.56325 -0.20005 0
M  V30 3276 C 320.495 2.02548 0.44597 0
M  V30 3277 C 320.92 1.07922 1.5406 0
M  V30 3278 O 320.278 0.0635775 1.81188 0
M  V30 3279 C 320.326 3.47175 0.974761 0
M  V30 3280 O 319.43 3.55671 2.08739 0
M  V30 3281 H 318.771 0.655862 0.103638 0
M  V30 3282 H 321.301 2.02201 -0.312381 0
M  V30 3283 H 321.311 3.87067 1.2901 0
M  V30 3284 H 319.986 4.15538 0.17347 0
M  V30 3285 H 318.563 3.27657 1.78032 0
M  V30 3286 N 320.748 -0.0735177 1.57428 0
M  V30 3287 C 321.68 -1.11423 2.00294 0
M  V30 3288 C 322.693 -1.35084 0.908637 0
M  V30 3289 O 323.882 -1.33355 1.18654 0
M  V30 3290 C 320.982 -2.46548 2.32523 0
M  V30 3291 C 320.155 -2.42867 3.63778 0
M  V30 3292 C 319.214 -3.60087 3.83697 0
M  V30 3293 O 318.24 -3.41595 4.55304 0
M  V30 3294 N 319.442 -4.80372 3.25919 0
M  V30 3295 H 322.207 -0.749206 2.90184 0
M  V30 3296 H 319.768 -0.262195 1.59763 0
M  V30 3297 H 321.76 -3.23607 2.43024 0
M  V30 3298 H 320.33 -2.75059 1.48531 0
M  V30 3299 H 319.55 -1.51206 3.64047 0
M  V30 3300 H 320.838 -2.37506 4.49965 0
M  V30 3301 H 320.236 -4.983 2.67795 0
M  V30 3302 H 318.793 -5.54948 3.41871 0
M  V30 3303 N 322.226 -1.5378 -0.344866 0
M  V30 3304 C 323.136 -1.84667 -1.4469 0
M  V30 3305 C 324.152 -0.736704 -1.57635 0
M  V30 3306 O 325.328 -1.02888 -1.73136 0
M  V30 3307 C 322.393 -2.04869 -2.79696 0
M  V30 3308 C 321.454 -3.28731 -2.76106 0
M  V30 3309 C 320.687 -3.4796 -4.04673 0
M  V30 3310 O 320.91 -2.71052 -5.01883 0
M  V30 3311 O 319.844 -4.41383 -4.09224 0
M  V30 3312 H 323.67 -2.78334 -1.21506 0
M  V30 3313 H 321.255 -1.39418 -0.536921 0
M  V30 3314 H 323.137 -2.19609 -3.59652 0
M  V30 3315 H 321.812 -1.14391 -3.02814 0
M  V30 3316 H 320.719 -3.19396 -1.94774 0
M  V30 3317 H 322.052 -4.19198 -2.57941 0
M  V30 3318 N 323.704 0.605807 -1.45491 0
M  V30 3319 C 324.636 1.73031 -1.5031 0
M  V30 3320 C 325.649 1.57968 -0.393687 0
M  V30 3321 O 326.838 1.65817 -0.660839 0
M  V30 3322 C 323.938 3.11049 -1.34543 0
M  V30 3323 C 323.111 3.52334 -2.59189 0
M  V30 3324 C 322.17 4.69323 -2.37954 0
M  V30 3325 O 321.196 4.7635 -3.11575 0
M  V30 3326 N 322.398 5.62705 -1.4263 0
M  V30 3327 H 325.163 1.6936 -2.4726 0
M  V30 3328 H 322.724 0.79114 -1.41254 0
M  V30 3329 H 324.716 3.87071 -1.18144 0
M  V30 3330 H 323.286 3.09217 -0.458623 0
M  V30 3331 H 322.506 2.66256 -2.90691 0
M  V30 3332 H 323.794 3.76677 -3.42041 0
M  V30 3333 H 323.192 5.59744 -0.818758 0
M  V30 3334 H 321.749 6.38252 -1.32202 0
M  V30 3335 N 325.182 1.32811 0.848464 0
M  V30 3336 C 326.407 1.26882 1.6406 0
M  V30 3337 C 326.832 -0.15913 1.87426 0
M  V30 3338 O 326.19 -1.11258 1.43148 0
M  V30 3339 C 326.238 2.03997 2.97351 0
M  V30 3340 O 325.342 1.39201 3.88197 0
M  V30 3341 H 324.683 0.436982 0.499943 0
M  V30 3342 H 327.213 1.75224 1.0563 0
M  V30 3343 H 327.223 2.14403 3.47124 0
M  V30 3344 H 325.898 3.0783 2.79666 0
M  V30 3345 H 324.475 1.37381 3.46671 0
M  V30 3346 N 326.66 -1.06551 1.16123 0
M  V30 3347 C 328.076 -1.3142 0.905585 0
M  V30 3348 C 328.276 -1.96571 -0.442964 0
M  V30 3349 O 327.332 -2.23068 -1.18308 0
M  V30 3350 C 328.645 -2.19741 2.05267 0
M  V30 3351 C 330.193 -2.33165 2.08813 0
M  V30 3352 C 330.668 -3.24838 3.22868 0
M  V30 3353 N 332.159 -3.32421 3.22568 0
M  V30 3354 C 332.894 -4.0344 4.0746 0
M  V30 3355 N 332.39 -4.77003 5.02434 0
M  V30 3356 N 334.183 -3.99464 3.95456 0
M  V30 3357 H 326.334 -0.626548 2.02949 0
M  V30 3358 H 328.597 -0.338777 0.8854 0
M  V30 3359 H 328.303 -1.79142 3.02657 0
M  V30 3360 H 328.177 -3.20313 1.99198 0
M  V30 3361 H 330.564 -2.73013 1.12018 0
M  V30 3362 H 330.645 -1.3227 2.18948 0
M  V30 3363 H 330.289 -2.85708 4.19921 0
M  V30 3364 H 330.219 -4.25707 3.0997 0
M  V30 3365 H 332.71 -2.79994 2.53795 0
M  V30 3366 H 333.023 -5.28712 5.63634 0
M  V30 3367 H 331.368 -4.75992 5.06415 0
M  V30 3368 H 334.559 -3.4111 3.20564 0
M  V30 3369 H 334.732 -4.54544 4.61837 0
M  V30 3370 N 328.138 -0.959301 -1.25041 0
M  V30 3371 C 329.368 -0.63303 -1.96663 0
M  V30 3372 C 329.776 0.800031 -1.71453 0
M  V30 3373 O 329.119 1.54736 -0.99008 0
M  V30 3374 C 329.181 -0.817523 -3.50081 0
M  V30 3375 C 328.845 -2.22863 -3.98975 0
M  V30 3376 C 329.842 -3.20569 -4.09306 0
M  V30 3377 C 327.527 -2.55407 -4.32519 0
M  V30 3378 C 329.521 -4.4891 -4.52503 0
M  V30 3379 C 327.208 -3.83976 -4.754 0
M  V30 3380 C 328.206 -4.8054 -4.85356 0
M  V30 3381 O 327.894 -6.06817 -5.27284 0
M  V30 3382 H 327.626 -0.235866 -0.633516 0
M  V30 3383 H 330.18 -1.2874 -1.60047 0
M  V30 3384 H 328.41 -0.105992 -3.86555 0
M  V30 3385 H 330.099 -0.491604 -4.02912 0
M  V30 3386 H 330.865 -2.96753 -3.83618 0
M  V30 3387 H 326.744 -1.8097 -4.23994 0
M  V30 3388 H 330.288 -5.24283 -4.60188 0
M  V30 3389 H 326.185 -4.07596 -5.00535 0
M  V30 3390 H 326.953 -6.10262 -5.45457 0
M  V30 3391 N 329.616 1.39756 -0.72842 0
M  V30 3392 C 330.564 2.32485 -0.0731849 0
M  V30 3393 C 331.558 1.52717 0.733063 0
M  V30 3394 O 332.764 1.68428 0.634988 0
M  V30 3395 H 329.139 0.751984 -0.00486469 0
M  V30 3396 H 331.11 2.85382 -0.871761 0
M  V30 3397 C 329.859 3.37773 0.824908 0
M  V30 3398 H 329.182 3.99227 0.213915 0
M  V30 3399 H 330.622 4.05121 1.25111 0
M  V30 3400 C 329.081 2.74287 1.95622 0
M  V30 3401 O 329.611 2.61618 3.04826 0
M  V30 3402 N 327.817 2.32475 1.74367 0
M  V30 3403 H 327.364 2.4298 0.855494 0
M  V30 3404 H 327.322 1.90337 2.50238 0
M  V30 3405 N 331.094 0.475555 1.50254 0
M  V30 3406 C 332.342 -0.077738 2.0195 0
M  V30 3407 C 332.663 -1.39813 1.35931 0
M  V30 3408 O 331.933 -1.89249 0.506123 0
M  V30 3409 H 330.513 -0.031719 0.746326 0
M  V30 3410 H 333.175 0.626995 1.84539 0
M  V30 3411 H 332.271 -0.225995 3.11281 0
M  V30 3412 N 332.573 -1.56217 0.208337 0
M  V30 3413 C 333.483 -2.23316 -0.718836 0
M  V30 3414 C 334.499 -1.23648 -1.22422 0
M  V30 3415 O 335.675 -1.56423 -1.26861 0
M  V30 3416 C 332.74 -2.88968 -1.91568 0
M  V30 3417 C 331.801 -4.03943 -1.45357 0
M  V30 3418 C 331.034 -4.66455 -2.59337 0
M  V30 3419 O 331.257 -4.27919 -3.77149 0
M  V30 3420 O 330.191 -5.55686 -2.31293 0
M  V30 3421 H 334.017 -3.03182 -0.177315 0
M  V30 3422 H 331.602 -1.49384 -0.0215402 0
M  V30 3423 H 333.484 -3.30455 -2.61491 0
M  V30 3424 H 332.159 -2.12071 -2.44556 0
M  V30 3425 H 331.066 -3.67052 -0.722746 0
M  V30 3426 H 332.399 -4.82543 -0.970219 0
M  V30 3427 N 334.051 0.0651679 -1.57465 0
M  V30 3428 C 334.998 1.07675 -2.04144 0
M  V30 3429 C 335.968 1.38071 -0.923335 0
M  V30 3430 O 337.153 1.49026 -1.19146 0
M  V30 3431 C 334.293 2.38337 -2.49579 0
M  V30 3432 C 333.406 2.14413 -3.75035 0
M  V30 3433 C 332.541 3.38686 -4.09225 0
M  V30 3434 C 331.58 3.10156 -5.27702 0
M  V30 3435 N 330.717 4.26778 -5.57499 0
M  V30 3436 H 335.557 0.671716 -2.90331 0
M  V30 3437 H 333.094 0.3201 -1.43575 0
M  V30 3438 H 335.052 3.14632 -2.73975 0
M  V30 3439 H 333.682 2.7663 -1.6636 0
M  V30 3440 H 332.734 1.2878 -3.57939 0
M  V30 3441 H 334.046 1.89344 -4.61466 0
M  V30 3442 H 333.2 4.23373 -4.34558 0
M  V30 3443 H 331.939 3.66837 -3.21374 0
M  V30 3444 H 330.944 2.23866 -5.02159 0
M  V30 3445 H 332.169 2.8332 -6.17176 0
M  V30 3446 H 330.115 4.54948 -4.72608 0
M  V30 3447 H 330.032 4.05005 -6.38362 0
M  V30 3448 H 331.3 5.12443 -5.87386 0
M  V30 3449 N 335.529 1.53961 0.336706 0
M  V30 3450 C 336.757 1.75483 1.09605 0
M  V30 3451 C 337.172 0.4972 1.82136 0
M  V30 3452 O 336.529 -0.53149 1.74589 0
M  V30 3453 C 336.58 2.93943 2.10428 0
M  V30 3454 O 336.301 4.14842 1.40846 0
M  V30 3455 C 337.802 3.27571 2.98684 0
M  V30 3456 H 335.022 0.586166 0.326574 0
M  V30 3457 H 337.566 2.00808 0.38683 0
M  V30 3458 H 335.721 2.70929 2.76905 0
M  V30 3459 H 336.135 4.81383 2.08255 0
M  V30 3460 H 337.609 4.13791 3.6535 0
M  V30 3461 H 338.086 2.44168 3.65074 0
M  V30 3462 H 338.692 3.52615 2.37787 0
M  V30 3463 N 337.007 -0.598083 1.45811 0
M  V30 3464 C 338.235 -1.38322 1.53866 0
M  V30 3465 C 338.65 -1.87992 0.174479 0
M  V30 3466 O 338.007 -1.62756 -0.825627 0
M  V30 3467 C 338.058 -2.58125 2.53089 0
M  V30 3468 O 337.779 -2.10516 3.84206 0
M  V30 3469 C 339.28 -3.50869 2.70935 0
M  V30 3470 H 336.5 -0.423093 0.520801 0
M  V30 3471 H 339.044 -0.728527 1.91083 0
M  V30 3472 H 337.199 -3.19615 2.18917 0
M  V30 3473 H 337.613 -2.88425 4.38077 0
M  V30 3474 H 339.087 -4.31451 3.44317 0
M  V30 3475 H 339.564 -4.01822 1.77301 0
M  V30 3476 H 340.17 -2.95225 3.06141 0
M  V30 3477 N 338.485 -1.33259 -0.841409 0
M  V30 3478 C 339.433 -1.23279 -1.97244 0
M  V30 3479 C 340.427 -0.134706 -1.68864 0
M  V30 3480 O 341.633 -0.298501 -1.77508 0
M  V30 3481 H 338.008 -0.382497 -0.647457 0
M  V30 3482 H 339.979 -2.18906 -2.02787 0
M  V30 3483 C 338.728 -0.986268 -3.33419 0
M  V30 3484 H 338.051 -1.82347 -3.55794 0
M  V30 3485 H 339.491 -0.956728 -4.13065 0
M  V30 3486 C 337.95 0.310842 -3.35463 0
M  V30 3487 O 338.48 1.31838 -3.79449 0
M  V30 3488 N 336.686 0.337485 -2.88634 0
M  V30 3489 H 336.233 -0.482967 -2.53032 0
M  V30 3490 H 336.191 1.20518 -2.90384 0
M  V30 3491 N 339.963 1.05934 -1.16686 0
M  V30 3492 C 341.379 1.30938 -0.912542 0
M  V30 3493 C 341.579 1.96803 0.432533 0
M  V30 3494 O 340.635 2.23693 1.17123 0
M  V30 3495 C 341.948 2.18649 -2.06429 0
M  V30 3496 C 343.496 2.32055 -2.10047 0
M  V30 3497 C 343.971 3.23122 -3.24586 0
M  V30 3498 N 345.462 3.30706 -3.24327 0
M  V30 3499 C 346.197 4.01273 -4.09594 0
M  V30 3500 N 345.693 4.74332 -5.04956 0
M  V30 3501 N 347.486 3.97361 -3.97569 0
M  V30 3502 H 339.637 0.615777 -2.03278 0
M  V30 3503 H 341.9 0.334077 -0.887185 0
M  V30 3504 H 341.606 1.77534 -3.03603 0
M  V30 3505 H 341.48 3.19252 -2.00894 0
M  V30 3506 H 343.867 2.72415 -1.13464 0
M  V30 3507 H 343.948 1.31107 -2.19647 0
M  V30 3508 H 343.592 2.83477 -4.2143 0
M  V30 3509 H 343.522 4.24057 -3.12223 0
M  V30 3510 H 346.013 2.78644 -2.55276 0
M  V30 3511 H 346.326 5.25716 -5.6643 0
M  V30 3512 H 344.671 4.733 -5.08933 0
M  V30 3513 H 347.862 3.39405 -3.22369 0
M  V30 3514 H 348.035 4.52089 -4.64241 0
M  V30 3515 N 341.441 0.965919 1.2453 0
M  V30 3516 C 342.389 0.486506 2.27455 0
M  V30 3517 C 343.383 -0.449041 1.6334 0
M  V30 3518 O 344.589 -0.324527 1.7705 0
M  V30 3519 H 340.964 0.138857 0.739069 0
M  V30 3520 H 342.935 1.3666 2.65267 0
M  V30 3521 C 341.684 -0.209481 3.47068 0
M  V30 3522 H 341.007 0.50129 3.96645 0
M  V30 3523 H 342.447 -0.508775 4.20936 0
M  V30 3524 C 340.906 -1.43586 3.0477 0
M  V30 3525 O 341.436 -2.53299 3.11773 0
M  V30 3526 N 339.642 -1.30126 2.59838 0
M  V30 3527 H 339.189 -0.408583 2.54339 0
M  V30 3528 H 339.147 -2.12294 2.31902 0
M  V30 3529 N 342.919 -1.39368 0.735821 0
M  V30 3530 C 344.166 -2.00497 0.284123 0
M  V30 3531 C 344.494 -1.58387 -1.12889 0
M  V30 3532 O 343.749 -0.804359 -1.78406 0
M  V30 3533 C 344.048 -3.5583 0.334651 0
M  V30 3534 C 343.714 -4.17593 1.7008 0
M  V30 3535 C 342.376 -4.34176 2.07472 0
M  V30 3536 C 344.728 -4.51848 2.59775 0
M  V30 3537 C 342.056 -4.82304 3.34065 0
M  V30 3538 C 344.408 -5.01384 3.85741 0
M  V30 3539 C 343.072 -5.16175 4.23225 0
M  V30 3540 H 342.342 -0.73367 0.103968 0
M  V30 3541 H 344.989 -1.66683 0.942825 0
M  V30 3542 H 343.294 -3.89674 -0.407625 0
M  V30 3543 H 344.991 -4.00986 -0.0329927 0
M  V30 3544 H 341.581 -4.05087 1.40008 0
M  V30 3545 H 345.765 -4.38653 2.32157 0
M  V30 3546 H 341.021 -4.91941 3.63049 0
M  V30 3547 H 345.195 -5.26863 4.55399 0
M  V30 3548 H 342.822 -5.5323 5.21384 0
M  V30 3549 N 344.397 -0.483516 -1.5 0
M  V30 3550 C 345.625 0.0644831 -2.06799 0
M  V30 3551 C 346.04 1.32399 -1.34596 0
M  V30 3552 O 345.397 1.77626 -0.418946 0
M  V30 3553 C 345.448 0.339927 -3.59898 0
M  V30 3554 O 345.169 -0.869635 -4.29382 0
M  V30 3555 C 346.67 0.933515 -4.33359 0
M  V30 3556 H 343.89 -0.0126333 -0.670881 0
M  V30 3557 H 346.434 -0.675864 -1.93009 0
M  V30 3558 H 344.589 1.03022 -3.7345 0
M  V30 3559 H 345.003 -0.62179 -5.20801 0
M  V30 3560 H 346.477 1.07593 -5.41413 0
M  V30 3561 H 346.954 1.92685 -3.94676 0
M  V30 3562 H 347.56 0.281221 -4.24369 0
M  V30 3563 N 345.875 1.56104 -0.216619 0
M  V30 3564 C 347.121 1.99219 0.410301 0
M  V30 3565 C 347.476 1.10169 1.57735 0
M  V30 3566 O 346.769 0.150598 1.91007 0
M  V30 3567 C 346.963 3.45923 0.898464 0
M  V30 3568 C 346.792 4.49163 -0.219748 0
M  V30 3569 C 345.562 5.00642 -0.684516 0
M  V30 3570 C 347.76 5.03751 -1.03629 0
M  V30 3571 N 345.742 5.87579 -1.7783 0
M  V30 3572 C 347.113 5.87566 -1.97904 0
M  V30 3573 C 349.168 4.86128 -1.07629 0
M  V30 3574 C 347.871 6.5564 -2.95851 0
M  V30 3575 C 349.897 5.54958 -2.04392 0
M  V30 3576 C 349.259 6.38536 -2.97407 0
M  V30 3577 H 345.358 0.773206 0.11695 0
M  V30 3578 H 347.942 1.9193 -0.327258 0
M  V30 3579 H 346.113 3.53669 1.6054 0
M  V30 3580 H 347.845 3.75963 1.49779 0
M  V30 3581 H 344.6 4.72807 -0.27399 0
M  V30 3582 H 345.024 6.3575 -2.32705 0
M  V30 3583 H 349.666 4.21168 -0.371099 0
M  V30 3584 H 347.384 7.19785 -3.67335 0
M  V30 3585 H 350.97 5.43289 -2.08154 0
M  V30 3586 H 349.85 6.90858 -3.71059 0
M  V30 3587 N 347.353 -0.0568162 1.57498 0
M  V30 3588 C 348.578 -0.769402 1.92601 0
M  V30 3589 C 349.003 -1.69559 0.814336 0
M  V30 3590 O 348.361 -1.79811 -0.231903 0
M  V30 3591 C 348.409 -1.52634 3.26704 0
M  V30 3592 O 347.513 -2.63797 3.16994 0
M  V30 3593 H 346.854 -0.208909 0.63028 0
M  V30 3594 H 349.384 -0.0205798 2.0459 0
M  V30 3595 H 349.394 -1.90234 3.60936 0
M  V30 3596 H 348.069 -0.846875 4.07186 0
M  V30 3597 H 346.646 -2.28943 2.94346 0
M  V30 3598 N 348.832 -1.54138 -0.328536 0
M  V30 3599 C 350.248 -1.44736 -0.672574 0
M  V30 3600 C 350.448 -0.616217 -1.91846 0
M  V30 3601 O 349.504 -0.113067 -2.52247 0
M  V30 3602 C 350.817 -2.884 -0.851217 0
M  V30 3603 C 352.365 -2.98271 -0.948877 0
M  V30 3604 C 352.84 -4.43074 -1.15973 0
M  V30 3605 N 354.331 -4.46665 -1.22658 0
M  V30 3606 C 355.066 -5.55857 -1.40751 0
M  V30 3607 N 354.562 -6.75026 -1.5592 0
M  V30 3608 N 356.355 -5.43495 -1.4342 0
M  V30 3609 H 348.506 -2.06661 0.490421 0
M  V30 3610 H 350.769 -0.934812 0.157579 0
M  V30 3611 H 350.475 -3.51699 -0.00704236 0
M  V30 3612 H 350.349 -3.34225 -1.74853 0
M  V30 3613 H 352.736 -2.35102 -1.78356 0
M  V30 3614 H 352.817 -2.55785 -0.0281435 0
M  V30 3615 H 352.461 -5.06827 -0.329915 0
M  V30 3616 H 352.391 -4.83165 -2.09426 0
M  V30 3617 H 354.882 -3.60797 -1.124 0
M  V30 3618 H 355.195 -7.54004 -1.69404 0
M  V30 3619 H 353.54 -6.77944 -1.53027 0
M  V30 3620 H 356.731 -4.49349 -1.31162 0
M  V30 3621 H 356.904 -6.28649 -1.57178 0
M  V30 3622 N 350.31 0.590341 -1.46126 0
M  V30 3623 C 351.557 1.34882 -1.5104 0
M  V30 3624 C 351.885 1.93849 -0.159021 0
M  V30 3625 O 351.14 1.76544 0.844436 0
M  V30 3626 C 351.439 2.5032 -2.55097 0
M  V30 3627 C 351.105 2.09394 -3.99331 0
M  V30 3628 C 349.767 1.97947 -4.38601 0
M  V30 3629 C 352.119 1.77712 -4.89967 0
M  V30 3630 C 349.447 1.53065 -5.66381 0
M  V30 3631 C 351.799 1.34312 -6.18177 0
M  V30 3632 C 350.463 1.21436 -6.56361 0
M  V30 3633 H 349.733 0.493568 -0.552695 0
M  V30 3634 H 352.38 0.665539 -1.79563 0
M  V30 3635 H 350.685 3.24062 -2.20207 0
M  V30 3636 H 352.382 3.08541 -2.56132 0
M  V30 3637 H 348.972 2.19235 -3.68285 0
M  V30 3638 H 353.156 1.85445 -4.60352 0
M  V30 3639 H 348.412 1.41733 -5.94745 0
M  V30 3640 H 352.586 1.08849 -6.87841 0
M  V30 3641 H 350.213 0.864345 -7.5527 0
M  V30 3642 N 351.788 1.33704 0.83433 0
M  V30 3643 C 353.018 1.28281 1.6195 0
M  V30 3644 C 353.426 -0.147603 1.88623 0
M  V30 3645 O 352.769 -1.1016 1.47005 0
M  V30 3646 C 352.831 1.99386 2.99141 0
M  V30 3647 C 352.495 3.48681 2.95416 0
M  V30 3648 C 353.492 4.438 2.70809 0
M  V30 3649 C 351.177 3.90925 3.15409 0
M  V30 3650 C 353.171 5.79138 2.66229 0
M  V30 3651 C 350.858 5.26366 3.10454 0
M  V30 3652 C 351.856 6.20284 2.85895 0
M  V30 3653 O 351.544 7.53245 2.80852 0
M  V30 3654 H 351.276 0.44315 0.510484 0
M  V30 3655 H 353.83 1.76711 1.04702 0
M  V30 3656 H 352.06 1.45554 3.58261 0
M  V30 3657 H 353.749 1.87403 3.60049 0
M  V30 3658 H 354.515 4.12485 2.5511 0
M  V30 3659 H 350.394 3.18229 3.33543 0
M  V30 3660 H 353.938 6.52416 2.4698 0
M  V30 3661 H 349.835 5.57304 3.25703 0
M  V30 3662 H 350.603 7.62846 2.96661 0
M  V30 3663 N 353.266 -1.05314 1.17247 0
M  V30 3664 C 354.196 -2.1498 0.911362 0
M  V30 3665 C 355.177 -1.69471 -0.146169 0
M  V30 3666 O 356.362 -1.942 0.003812 0
M  V30 3667 C 353.492 -3.4472 0.422528 0
M  V30 3668 C 352.446 -4.03789 1.4191 0
M  V30 3669 C 351.772 -5.28858 0.788274 0
M  V30 3670 C 353.072 -4.41418 2.7919 0
M  V30 3671 H 354.766 -2.3708 1.82848 0
M  V30 3672 H 352.312 -1.13938 0.880569 0
M  V30 3673 H 354.265 -4.20787 0.227289 0
M  V30 3674 H 352.989 -3.22269 -0.530123 0
M  V30 3675 H 351.648 -3.2979 1.60106 0
M  V30 3676 H 351.296 -5.02709 -0.171173 0
M  V30 3677 H 350.996 -5.69338 1.45353 0
M  V30 3678 H 352.52 -6.07612 0.603282 0
M  V30 3679 H 353.934 -5.08524 2.64719 0
M  V30 3680 H 352.331 -4.92913 3.42282 0
M  V30 3681 H 353.401 -3.51819 3.33693 0
M  V30 3682 N 354.744 -0.972509 -1.24016 0
M  V30 3683 C 355.991 -0.637034 -1.92219 0
M  V30 3684 C 356.319 0.828418 -1.75976 0
M  V30 3685 O 355.574 1.61206 -1.10955 0
M  V30 3686 C 355.873 -0.963694 -3.44162 0
M  V30 3687 C 355.539 -2.41807 -3.80579 0
M  V30 3688 C 354.201 -2.81556 -3.9023 0
M  V30 3689 C 356.553 -3.36172 -3.98293 0
M  V30 3690 C 353.881 -4.14702 -4.15017 0
M  V30 3691 C 356.233 -4.68952 -4.24578 0
M  V30 3692 C 354.897 -5.08472 -4.32449 0
M  V30 3693 H 354.167 -0.233107 -0.703379 0
M  V30 3694 H 356.814 -1.2249 -1.47202 0
M  V30 3695 H 355.119 -0.29365 -3.90698 0
M  V30 3696 H 356.816 -0.682449 -3.9515 0
M  V30 3697 H 353.406 -2.09988 -3.73635 0
M  V30 3698 H 357.59 -3.06644 -3.90234 0
M  V30 3699 H 352.846 -4.4494 -4.19331 0
M  V30 3700 H 357.02 -5.42037 -4.37229 0
M  V30 3701 H 354.647 -6.11665 -4.51409 0
M  V30 3702 N 356.222 1.38976 -0.743202 0
M  V30 3703 C 357.638 1.53984 -0.419664 0
M  V30 3704 C 357.838 1.70837 1.0685 0
M  V30 3705 O 356.894 1.7135 1.8546 0
M  V30 3706 C 358.207 2.75287 -1.20985 0
M  V30 3707 C 359.755 2.89129 -1.19889 0
M  V30 3708 C 360.23 4.13381 -1.97181 0
M  V30 3709 N 361.721 4.20437 -1.94389 0
M  V30 3710 C 362.456 5.15547 -2.50996 0
M  V30 3711 N 361.952 6.16395 -3.16274 0
M  V30 3712 N 363.745 5.07822 -2.40984 0
M  V30 3713 H 355.896 1.26285 -1.7078 0
M  V30 3714 H 358.159 0.612689 -0.723406 0
M  V30 3715 H 357.865 2.69204 -2.26323 0
M  V30 3716 H 357.739 3.68184 -0.819759 0
M  V30 3717 H 360.126 2.947 -0.153606 0
M  V30 3718 H 360.207 1.97272 -1.62841 0
M  V30 3719 H 359.851 4.08572 -3.01714 0
M  V30 3720 H 359.781 5.04298 -1.51629 0
M  V30 3721 H 362.272 3.48205 -1.46839 0
M  V30 3722 H 362.585 6.85443 -3.56915 0
M  V30 3723 H 360.93 6.16758 -3.20367 0
M  V30 3724 H 364.121 4.27973 -1.89622 0
M  V30 3725 H 364.294 5.81767 -2.85397 0
M  V30 3726 N 357.7 0.491464 1.49741 0
M  V30 3727 C 358.663 -0.280906 2.27472 0
M  V30 3728 C 359.663 -0.902454 1.33088 0
M  V30 3729 O 360.853 -0.768465 1.56334 0
M  V30 3730 C 357.985 -1.40209 3.10732 0
M  V30 3731 H 359.178 0.401056 2.97206 0
M  V30 3732 H 356.731 0.246131 1.5435 0
M  V30 3733 H 357.466 -2.11849 2.45541 0
M  V30 3734 H 357.251 -0.961969 3.80117 0
M  V30 3735 H 358.741 -1.9464 3.69466 0
M  V30 3736 N 359.178 -1.55987 0.224894 0
M  V30 3737 C 360.427 -1.97566 -0.406273 0
M  V30 3738 C 360.74 -1.11569 -1.6066 0
M  V30 3739 O 361.946 -1.43062 -2.3075 0
M  V30 3740 C 360.402 -3.51474 -0.774207 0
M  V30 3741 C 360.01 -4.46179 0.403496 0
M  V30 3742 C 361.754 -4.01758 -1.37079 0
M  V30 3743 C 359.661 -5.91399 0.0129412 0
M  V30 3744 H 358.591 -0.737777 -0.155565 0
M  V30 3745 H 361.242 -1.80659 0.321635 0
M  V30 3746 H 359.624 -3.63994 -1.55963 0
M  V30 3747 H 360.798 -4.45409 1.18101 0
M  V30 3748 H 359.113 -4.06255 0.913536 0
M  V30 3749 H 361.71 -5.07756 -1.67596 0
M  V30 3750 H 362.053 -3.47805 -2.28773 0
M  V30 3751 H 362.586 -3.92475 -0.648733 0
M  V30 3752 H 359.325 -6.49341 0.896451 0
M  V30 3753 H 358.845 -5.95356 -0.728821 0
M  V30 3754 H 360.524 -6.45683 -0.412582 0
M  V30 3755 N 360.656 0.0484629 -1.57525 0
M  V30 3756 C 362.067 0.597486 -1.76881 0
M  V30 3757 C 362.418 1.76664 -0.853475 0
M  V30 3758 O 361.543 2.16357 -0.0433656 0
M  V30 3759 C 362.138 1.09066 -3.20765 0
M  V30 3760 C 360.697 1.58535 -3.41385 0
M  V30 3761 C 359.844 0.514868 -2.72478 0
M  V30 3762 H 362.795 -0.177758 -1.57701 0
M  V30 3763 H 362.816 1.95875 -3.2621 0
M  V30 3764 H 362.328 0.239521 -3.8736 0
M  V30 3765 H 360.429 2.45898 -2.79937 0
M  V30 3766 H 360.542 1.64622 -4.49929 0
M  V30 3767 H 358.906 0.965407 -2.35695 0
M  V30 3768 H 359.689 -0.32648 -3.41744 0
M  V30 3769 N 362.134 1.5431 0.320358 0
M  V30 3770 C 363.55 1.45091 0.664889 0
M  V30 3771 C 363.75 0.626382 1.91517 0
M  V30 3772 O 362.806 0.126443 2.52183 0
M  V30 3773 C 364.119 2.88848 0.83591 0
M  V30 3774 C 365.667 2.9877 0.933046 0
M  V30 3775 C 366.142 4.43683 1.13621 0
M  V30 3776 N 367.633 4.47309 1.20287 0
M  V30 3777 C 368.368 5.56595 1.37801 0
M  V30 3778 N 367.864 6.75844 1.52338 0
M  V30 3779 N 369.657 5.44248 1.40535 0
M  V30 3780 H 361.808 2.06398 -0.501374 0
M  V30 3781 H 364.071 0.933963 -0.162534 0
M  V30 3782 H 363.777 3.51698 -0.0116092 0
M  V30 3783 H 363.651 3.35148 1.73078 0
M  V30 3784 H 366.038 2.36045 1.77107 0
M  V30 3785 H 366.119 2.55796 0.0145782 0
M  V30 3786 H 365.763 5.06995 0.303032 0
M  V30 3787 H 365.693 4.84269 2.0686 0
M  V30 3788 H 368.184 3.61388 1.10485 0
M  V30 3789 H 368.497 7.54892 1.65403 0
M  V30 3790 H 366.842 6.78746 1.4943 0
M  V30 3791 H 370.033 4.50038 1.28777 0
M  V30 3792 H 370.206 6.29473 1.53842 0
M  V30 3793 N 363.613 -0.582584 1.46437 0
M  V30 3794 C 364.859 -1.34064 1.52965 0
M  V30 3795 C 365.214 -1.91566 0.178968 0
M  V30 3796 O 364.507 -1.73526 -0.812365 0
M  V30 3797 C 364.701 -2.48964 2.56421 0
M  V30 3798 C 364.53 -2.02717 4.01417 0
M  V30 3799 C 363.3 -1.87728 4.69134 0
M  V30 3800 C 365.498 -1.58675 4.8921 0
M  V30 3801 N 363.48 -1.35554 5.98747 0
M  V30 3802 C 364.851 -1.18093 6.08649 0
M  V30 3803 C 366.906 -1.46494 4.75861 0
M  V30 3804 C 365.609 -0.665427 7.16215 0
M  V30 3805 C 367.635 -0.96347 5.83499 0
M  V30 3806 C 366.997 -0.567432 7.02111 0
M  V30 3807 H 363.096 -0.483551 0.614575 0
M  V30 3808 H 365.68 -0.663309 1.83053 0
M  V30 3809 H 363.851 -3.1426 2.28244 0
M  V30 3810 H 365.583 -3.15913 2.52944 0
M  V30 3811 H 362.338 -2.09678 4.24655 0
M  V30 3812 H 362.762 -1.11628 6.67734 0
M  V30 3813 H 367.404 -1.75731 3.8455 0
M  V30 3814 H 365.122 -0.360639 8.07295 0
M  V30 3815 H 368.708 -0.873129 5.75211 0
M  V30 3816 H 367.588 -0.185389 7.83981 0
M  V30 3817 N 365.091 -1.34144 -0.827227 0
M  V30 3818 C 366.507 -1.13732 -1.11969 0
M  V30 3819 C 366.707 0.0640463 -2.01398 0
M  V30 3820 O 365.763 0.740856 -2.41387 0
M  V30 3821 C 367.076 -2.43047 -1.77055 0
M  V30 3822 C 368.624 -2.49063 -1.89569 0
M  V30 3823 C 369.099 -3.78369 -2.58072 0
M  V30 3824 N 370.59 -3.79505 -2.65575 0
M  V30 3825 C 371.325 -4.76274 -3.19297 0
M  V30 3826 N 370.821 -5.83424 -3.73616 0
M  V30 3827 N 372.614 -4.63735 -3.17658 0
M  V30 3828 H 364.765 -2.11126 -0.232296 0
M  V30 3829 H 367.028 -0.933424 -0.165602 0
M  V30 3830 H 366.734 -3.31025 -1.18807 0
M  V30 3831 H 366.608 -2.56066 -2.76966 0
M  V30 3832 H 368.995 -1.61527 -2.46968 0
M  V30 3833 H 369.076 -2.39975 -0.885745 0
M  V30 3834 H 368.72 -4.66293 -2.01329 0
M  V30 3835 H 368.65 -3.84737 -3.59562 0
M  V30 3836 H 371.141 -3.02074 -2.27068 0
M  V30 3837 H 371.454 -6.53282 -4.12846 0
M  V30 3838 H 369.799 -5.87143 -3.71871 0
M  V30 3839 H 372.99 -3.79177 -2.74486 0
M  V30 3840 H 373.163 -5.39318 -3.59221 0
M  V30 3841 N 366.569 1.04691 -1.17803 0
M  V30 3842 C 367.532 2.10724 -0.901545 0
M  V30 3843 C 368.532 1.6042 0.110437 0
M  V30 3844 O 369.722 1.7377 -0.122303 0
M  V30 3845 C 366.854 3.39084 -0.351409 0
M  V30 3846 H 368.047 2.36686 -1.84174 0
M  V30 3847 H 365.6 1.21015 -0.98919 0
M  V30 3848 H 366.335 3.18782 0.59569 0
M  V30 3849 H 366.12 3.76909 -1.08083 0
M  V30 3850 H 367.61 4.17227 -0.176451 0
M  V30 3851 N 368.047 0.979072 1.23499 0
M  V30 3852 C 368.995 0.510604 2.26926 0
M  V30 3853 C 369.989 -0.431691 1.63807 0
M  V30 3854 O 371.195 -0.30573 1.77385 0
M  V30 3855 H 367.57 0.146688 0.737554 0
M  V30 3856 H 369.541 1.39466 2.63803 0
M  V30 3857 C 368.29 -0.172658 3.47271 0
M  V30 3858 H 367.613 0.543331 3.96091 0
M  V30 3859 H 369.053 -0.464101 4.21452 0
M  V30 3860 C 367.512 -1.40345 3.06276 0
M  V30 3861 O 368.042 -2.49978 3.14442 0
M  V30 3862 N 366.248 -1.27362 2.61203 0
M  V30 3863 H 365.795 -0.381584 2.54758 0
M  V30 3864 H 365.753 -2.09822 2.34141 0
M  V30 3865 N 369.525 -1.3858 0.750561 0
M  V30 3866 C 370.455 -2.33102 0.136237 0
M  V30 3867 C 371.436 -1.54713 -0.706965 0
M  V30 3868 O 372.621 -1.83043 -0.648769 0
M  V30 3869 C 369.751 -3.38882 -0.760017 0
M  V30 3870 C 368.705 -4.27995 -0.0197785 0
M  V30 3871 C 368.031 -5.24605 -1.03408 0
M  V30 3872 C 369.331 -5.09554 1.14684 0
M  V30 3873 H 371.025 -2.84726 0.925822 0
M  V30 3874 H 368.571 -1.36898 0.446654 0
M  V30 3875 H 370.524 -4.0397 -1.19943 0
M  V30 3876 H 369.248 -2.85734 -1.58189 0
M  V30 3877 H 367.907 -3.64409 0.400184 0
M  V30 3878 H 367.555 -4.67746 -1.84994 0
M  V30 3879 H 367.255 -5.85081 -0.543464 0
M  V30 3880 H 368.779 -5.9257 -1.47288 0
M  V30 3881 H 370.193 -5.67899 0.785118 0
M  V30 3882 H 368.59 -5.7925 1.56812 0
M  V30 3883 H 369.66 -4.4347 1.96118 0
M  V30 3884 N 371.003 -0.499398 -1.49478 0
M  V30 3885 C 372.231 0.0425456 -2.06856 0
M  V30 3886 C 372.646 1.30964 -1.35992 0
M  V30 3887 O 372.003 1.77172 -0.437762 0
M  V30 3888 C 372.054 0.301735 -3.60239 0
M  V30 3889 O 371.775 -0.915127 -4.28436 0
M  V30 3890 C 373.276 0.887499 -4.34325 0
M  V30 3891 H 370.496 -0.0197482 -0.670709 0
M  V30 3892 H 373.04 -0.696297 -1.92281 0
M  V30 3893 H 371.195 0.990556 -3.74522 0
M  V30 3894 H 371.609 -0.676993 -5.20113 0
M  V30 3895 H 373.083 1.01845 -5.42523 0
M  V30 3896 H 373.56 1.88488 -3.96698 0
M  V30 3897 H 374.166 0.236196 -4.24644 0
M  V30 3898 N 372.481 1.55866 -0.233164 0
M  V30 3899 C 373.411 2.23783 0.666599 0
M  V30 3900 C 374.392 1.21343 1.19205 0
M  V30 3901 O 375.577 1.4996 1.23392 0
M  V30 3902 C 372.707 2.92671 1.86978 0
M  V30 3903 C 371.661 4.01682 1.47768 0
M  V30 3904 C 370.987 4.57926 2.76058 0
M  V30 3905 C 372.287 5.18126 0.658993 0
M  V30 3906 H 373.981 2.99232 0.100306 0
M  V30 3907 H 371.527 1.43924 0.046804 0
M  V30 3908 H 373.48 3.3888 2.50476 0
M  V30 3909 H 372.204 2.14688 2.46123 0
M  V30 3910 H 370.863 3.56222 0.866106 0
M  V30 3911 H 370.511 3.76659 3.33372 0
M  V30 3912 H 370.211 5.31505 2.50552 0
M  V30 3913 H 371.735 5.06859 3.40479 0
M  V30 3914 H 373.149 5.60644 1.19795 0
M  V30 3915 H 371.546 5.98009 0.500552 0
M  V30 3916 H 372.616 4.83763 -0.331856 0
M  V30 3917 N 373.959 -0.0401083 1.57549 0
M  V30 3918 C 375.207 -0.731677 1.8839 0
M  V30 3919 C 375.528 -1.76481 0.829425 0
M  V30 3920 O 374.798 -1.95411 -0.1383 0
M  V30 3921 H 373.378 -0.273225 0.695239 0
M  V30 3922 H 376.04 -0.00867725 1.94898 0
M  V30 3923 H 375.136 -1.22816 2.86919 0
M  V30 3924 N 375.437 -1.54477 -0.31217 0
M  V30 3925 C 376.347 -1.87695 -1.4074 0
M  V30 3926 C 377.363 -0.769975 -1.56036 0
M  V30 3927 O 378.539 -1.06537 -1.70915 0
M  V30 3928 C 375.604 -2.10755 -2.75287 0
M  V30 3929 C 374.665 -3.34514 -2.69071 0
M  V30 3930 C 373.898 -3.56465 -3.97201 0
M  V30 3931 O 374.121 -2.81637 -4.96021 0
M  V30 3932 O 373.055 -4.49964 -3.9977 0
M  V30 3933 H 376.881 -2.80849 -1.15574 0
M  V30 3934 H 374.466 -1.40526 -0.507228 0
M  V30 3935 H 376.348 -2.27188 -3.54913 0
M  V30 3936 H 375.023 -1.20788 -3.0032 0
M  V30 3937 H 373.93 -3.23456 -1.87955 0
M  V30 3938 H 375.263 -4.24575 -2.48992 0
M  V30 3939 N 376.915 0.57481 -1.46744 0
M  V30 3940 C 377.863 1.70435 -1.58286 0
M  V30 3941 C 378.857 1.63287 -0.450956 0
M  V30 3942 O 380.063 1.68685 -0.628121 0
M  V30 3943 H 376.438 0.56364 -0.497809 0
M  V30 3944 H 378.409 1.57833 -2.53242 0
M  V30 3945 C 377.158 3.08815 -1.59776 0
M  V30 3946 H 376.481 3.1499 -2.46214 0
M  V30 3947 H 377.921 3.87588 -1.71905 0
M  V30 3948 C 376.38 3.35301 -0.327812 0
M  V30 3949 O 376.91 3.97511 0.57861 0
M  V30 3950 N 375.116 2.89816 -0.213274 0
M  V30 3951 H 374.663 2.39371 -0.951798 0
M  V30 3952 H 374.621 3.0791 0.63553 0
M  V30 3953 N 378.394 1.34581 0.820102 0
M  V30 3954 C 379.342 1.26401 1.95258 0
M  V30 3955 C 380.336 0.161553 1.68628 0
M  V30 3956 O 381.542 0.326703 1.7701 0
M  V30 3957 H 377.917 0.392749 0.64129 0
M  V30 3958 H 379.888 2.22105 1.99279 0
M  V30 3959 C 378.637 1.03919 3.31807 0
M  V30 3960 H 377.96 1.87984 3.52848 0
M  V30 3961 H 379.4 1.02232 4.11491 0
M  V30 3962 C 377.859 -0.257433 3.35915 0
M  V30 3963 O 378.389 -1.25784 3.81499 0
M  V30 3964 N 376.595 -0.291524 2.89134 0
M  V30 3965 H 376.142 0.523161 2.52232 0
M  V30 3966 H 376.1 -1.15883 2.92264 0
M  V30 3967 N 379.872 -1.04064 1.18357 0
M  V30 3968 C 381.121 -1.76662 0.973313 0
M  V30 3969 C 381.434 -1.89154 -0.497991 0
M  V30 3970 O 382.64 -2.58606 -0.826762 0
M  V30 3971 C 381.096 -3.17624 1.69242 0
M  V30 3972 C 380.704 -3.13225 3.20303 0
M  V30 3973 C 382.448 -3.946 1.56497 0
M  V30 3974 C 380.355 -4.49046 3.84853 0
M  V30 3975 H 379.285 -0.662214 0.36054 0
M  V30 3976 H 381.936 -1.16553 1.41731 0
M  V30 3977 H 380.318 -3.78129 1.1762 0
M  V30 3978 H 381.492 -2.62172 3.78949 0
M  V30 3979 H 379.807 -2.49749 3.33189 0
M  V30 3980 H 382.404 -4.95042 2.02084 0
M  V30 3981 H 382.747 -4.13074 0.517243 0
M  V30 3982 H 383.28 -3.4067 2.05399 0
M  V30 3983 H 380.019 -4.35777 4.89672 0
M  V30 3984 H 379.539 -5.00203 3.30994 0
M  V30 3985 H 381.218 -5.17961 3.87718 0
M  V30 3986 N 381.35 -0.985608 -1.22978 0
M  V30 3987 C 382.298 -0.522631 -2.26652 0
M  V30 3988 C 383.292 0.422998 -1.64034 0
M  V30 3989 O 384.498 0.296319 -1.77544 0
M  V30 3990 H 380.873 -0.150597 -0.736766 0
M  V30 3991 H 382.844 -1.40863 -2.63059 0
M  V30 3992 C 381.593 0.154238 -3.47358 0
M  V30 3993 H 380.916 -0.564329 -3.95797 0
M  V30 3994 H 382.356 0.441744 -4.21693 0
M  V30 3995 C 380.815 1.38719 -3.07016 0
M  V30 3996 O 381.345 2.48307 -3.15764 0
M  V30 3997 N 379.551 1.25975 -2.61875 0
M  V30 3998 H 379.098 0.368068 -2.54957 0
M  V30 3999 H 379.056 2.08578 -2.3525 0
M  V30 4000 N 382.828 1.3818 -0.7579 0
M  V30 4001 C 384.053 2.04827 -0.325679 0
M  V30 4002 C 384.478 1.56788 1.03919 0
M  V30 4003 O 383.836 0.721811 1.66312 0
M  V30 4004 C 383.884 3.58774 -0.362447 0
M  V30 4005 O 382.988 4.07372 0.642033 0
M  V30 4006 H 382.329 0.64833 -0.143402 0
M  V30 4007 H 384.859 1.7677 -1.03023 0
M  V30 4008 H 384.869 4.07434 -0.214844 0
M  V30 4009 H 383.544 3.93096 -1.35824 0
M  V30 4010 H 382.121 3.70068 0.458688 0
M  V30 4011 N 384.306 0.507319 1.49211 0
M  V30 4012 C 385.583 -0.0982702 1.95353 0
M  V30 4013 C 385.963 -1.53516 1.449 0
M  V30 4014 O 385.311 -2.18594 0.66551 0
M  V30 4015 C 385.521 -0.00440283 3.49 0
M  V30 4016 C 386.869 -0.175147 4.24239 0
M  V30 4017 O 387.893 -0.0792891 3.56112 0
M  V30 4018 O 386.752 -0.37276 5.45227 0
M  V30 4019 H 383.846 -0.0918236 0.821887 0
M  V30 4020 H 386.392 0.570307 1.5983 0
M  V30 4021 H 385.164 0.997402 3.78375 0
M  V30 4022 H 384.787 -0.712845 3.91158 0
M  V30 4023 N 385.784 -1.5574 0.241426 0
M  V30 4024 C 387.033 -1.97986 -0.385295 0
M  V30 4025 C 387.346 -1.13267 -1.59468 0
M  V30 4026 O 388.552 -1.45501 -2.2922 0
M  V30 4027 C 387.008 -3.52275 -0.736884 0
M  V30 4028 C 386.616 -4.45726 0.450796 0
M  V30 4029 C 388.36 -4.03189 -1.3281 0
M  V30 4030 C 386.267 -5.91352 0.0756662 0
M  V30 4031 H 385.197 -0.739386 -0.147731 0
M  V30 4032 H 387.848 -1.80308 0.340779 0
M  V30 4033 H 386.23 -3.65628 -1.52094 0
M  V30 4034 H 387.404 -4.44131 1.22819 0
M  V30 4035 H 385.719 -4.05264 0.956573 0
M  V30 4036 H 388.316 -5.09505 -1.62201 0
M  V30 4037 H 388.659 -3.50212 -2.25071 0
M  V30 4038 H 389.192 -3.93141 -0.607069 0
M  V30 4039 H 385.931 -6.48354 0.965272 0
M  V30 4040 H 385.451 -5.96095 -0.665635 0
M  V30 4041 H 387.13 -6.46084 -0.344075 0
M  V30 4042 N 387.262 0.0317525 -1.57568 0
M  V30 4043 C 388.509 0.723104 -1.89149 0
M  V30 4044 C 388.837 1.75504 -0.838377 0
M  V30 4045 O 388.092 1.95037 0.160982 0
M  V30 4046 C 388.391 1.43167 -3.27472 0
M  V30 4047 C 388.057 0.535972 -4.47703 0
M  V30 4048 C 386.719 0.289262 -4.8033 0
M  V30 4049 C 389.071 -0.0826125 -5.21135 0
M  V30 4050 C 386.399 -0.584853 -5.83778 0
M  V30 4051 C 388.751 -0.944414 -6.25511 0
M  V30 4052 C 387.415 -1.20061 -6.56614 0
M  V30 4053 H 386.685 0.264602 -0.692146 0
M  V30 4054 H 389.332 -0.0169496 -1.91492 0
M  V30 4055 H 387.637 2.24497 -3.21105 0
M  V30 4056 H 389.334 1.97209 -3.49155 0
M  V30 4057 H 385.924 0.738414 -4.22191 0
M  V30 4058 H 390.108 0.0950302 -4.96209 0
M  V30 4059 H 385.364 -0.79168 -6.06253 0
M  V30 4060 H 389.538 -1.43026 -6.81554 0
M  V30 4061 H 387.165 -1.87967 -7.36595 0
M  V30 4062 N 388.74 1.54641 0.303973 0
M  V30 4063 C 390.156 1.45788 0.649463 0
M  V30 4064 C 390.356 0.64666 1.90842 0
M  V30 4065 O 389.412 0.153183 2.52035 0
M  V30 4066 C 390.725 2.89718 0.805227 0
M  V30 4067 C 392.273 2.99742 0.901305 0
M  V30 4068 C 392.748 4.44863 1.08909 0
M  V30 4069 N 394.239 4.48559 1.15536 0
M  V30 4070 C 394.974 5.58026 1.3189 0
M  V30 4071 N 394.47 6.77422 1.45161 0
M  V30 4072 N 396.263 5.45708 1.34755 0
M  V30 4073 H 388.414 2.05854 -0.523237 0
M  V30 4074 H 390.677 0.932186 -0.172431 0
M  V30 4075 H 390.383 3.51666 -0.0489108 0
M  V30 4076 H 390.257 3.36964 1.69513 0
M  V30 4077 H 392.644 2.3791 1.74593 0
M  V30 4078 H 392.725 2.55797 -0.0125531 0
M  V30 4079 H 392.369 5.07288 0.249241 0
M  V30 4080 H 392.299 4.86436 2.01713 0
M  V30 4081 H 394.79 3.6254 1.06646 0
M  V30 4082 H 395.103 7.56604 1.57387 0
M  V30 4083 H 393.448 6.80292 1.42223 0
M  V30 4084 H 396.639 4.51378 1.23996 0
M  V30 4085 H 396.812 6.3107 1.47157 0
M  V30 4086 N 390.218 -0.567019 1.47046 0
M  V30 4087 C 391.443 -1.3551 1.57009 0
M  V30 4088 C 391.868 -1.86841 0.217259 0
M  V30 4089 O 391.226 -1.62435 -0.805268 0
M  V30 4090 C 391.274 -2.50777 2.5912 0
M  V30 4091 O 390.378 -3.52706 2.13711 0
M  V30 4092 H 389.719 -0.402919 0.52778 0
M  V30 4093 H 392.249 -0.686241 1.92748 0
M  V30 4094 H 392.259 -2.97481 2.79229 0
M  V30 4095 H 390.934 -2.12771 3.57353 0
M  V30 4096 H 389.511 -3.12374 2.03659 0
M  V30 4097 N 391.696 -1.35014 -0.812953 0
M  V30 4098 C 392.942 -1.29129 -1.57154 0
M  V30 4099 C 393.297 0.134922 -1.91926 0
M  V30 4100 O 392.59 1.08373 -1.58006 0
M  V30 4101 C 392.784 -2.12524 -2.87347 0
M  V30 4102 C 392.613 -3.6311 -2.65294 0
M  V30 4103 C 391.383 -4.32363 -2.61516 0
M  V30 4104 C 393.581 -4.56897 -2.36114 0
M  V30 4105 N 391.563 -5.68735 -2.31113 0
M  V30 4106 C 392.934 -5.81345 -2.15494 0
M  V30 4107 C 394.989 -4.45706 -2.21925 0
M  V30 4108 C 393.692 -6.95862 -1.82122 0
M  V30 4109 C 395.718 -5.60066 -1.89948 0
M  V30 4110 C 395.08 -6.83539 -1.7016 0
M  V30 4111 H 391.179 -0.527764 -0.577052 0
M  V30 4112 H 393.763 -1.6983 -0.952146 0
M  V30 4113 H 391.934 -1.74104 -3.47192 0
M  V30 4114 H 393.666 -1.98207 -3.5284 0
M  V30 4115 H 390.421 -3.84907 -2.75941 0
M  V30 4116 H 390.845 -6.40694 -2.18724 0
M  V30 4117 H 395.487 -3.50855 -2.35925 0
M  V30 4118 H 393.205 -7.90685 -1.6686 0
M  V30 4119 H 396.791 -5.53357 -1.79687 0
M  V30 4120 H 395.671 -7.70531 -1.45777 0
M  V30 4121 N 393.175 1.03435 -1.18907 0
M  V30 4122 C 394.4 1.80919 -1.01406 0
M  V30 4123 C 394.825 1.83055 0.432721 0
M  V30 4124 O 394.183 1.25252 1.31079 0
M  V30 4125 C 394.231 3.24091 -1.58105 0
M  V30 4126 O 393.335 4.04434 -0.806669 0
M  V30 4127 H 392.676 0.558709 -0.358803 0
M  V30 4128 H 395.206 1.30223 -1.57807 0
M  V30 4129 H 395.216 3.74853 -1.61087 0
M  V30 4130 H 393.891 3.21851 -2.6341 0
M  V30 4131 H 392.468 3.63091 -0.849666 0
M  V30 4132 N 394.653 0.992116 1.22453 0
M  V30 4133 C 395.883 0.684949 1.94915 0
M  V30 4134 C 396.291 -0.754292 1.73514 0
M  V30 4135 O 395.634 -1.52056 1.03076 0
M  V30 4136 C 395.696 0.910054 3.47791 0
M  V30 4137 C 395.36 2.33363 3.92926 0
M  V30 4138 C 396.357 3.31308 4.00663 0
M  V30 4139 C 394.042 2.66785 4.25595 0
M  V30 4140 C 396.036 4.6075 4.40441 0
M  V30 4141 C 393.723 3.96446 4.65053 0
M  V30 4142 C 394.721 4.9324 4.72444 0
M  V30 4143 O 394.409 6.20584 5.1101 0
M  V30 4144 H 394.141 0.25258 0.62704 0
M  V30 4145 H 396.695 1.32939 1.56577 0
M  V30 4146 H 394.925 0.208443 3.86138 0
M  V30 4147 H 396.614 0.598257 4.01467 0
M  V30 4148 H 397.38 3.0682 3.75615 0
M  V30 4149 H 393.259 1.92148 4.19047 0
M  V30 4150 H 396.803 5.363 4.46126 0
M  V30 4151 H 392.7 4.20724 4.89552 0
M  V30 4152 H 393.468 6.24509 5.29085 0
M  V30 4153 N 396.131 -1.37776 0.765217 0
M  V30 4154 C 397.359 -2.04124 0.337767 0
M  V30 4155 C 397.774 -1.57715 -1.03785 0
M  V30 4156 O 397.131 -0.755447 -1.6613 0
M  V30 4157 C 397.182 -3.59658 0.364442 0
M  V30 4158 O 396.903 -4.04367 1.68579 0
M  V30 4159 C 398.404 -4.43236 -0.0754221 0
M  V30 4160 H 395.624 -0.655696 0.142491 0
M  V30 4161 H 398.168 -1.76238 1.03732 0
M  V30 4162 H 396.323 -3.86339 -0.286471 0
M  V30 4163 H 396.737 -4.98857 1.61993 0
M  V30 4164 H 398.211 -5.52 -0.00560067 0
M  V30 4165 H 398.688 -4.2455 -1.12491 0
M  V30 4166 H 399.294 -4.21767 0.547055 0
M  V30 4167 N 397.609 -0.515225 -1.4894 0
M  V30 4168 C 398.857 0.0241671 -2.02086 0
M  V30 4169 C 399.178 1.3616 -1.3959 0
M  V30 4170 O 398.448 1.87841 -0.556121 0
M  V30 4171 H 397.028 0.0119203 -0.746905 0
M  V30 4172 H 399.69 -0.675702 -1.82812 0
M  V30 4173 H 398.786 0.143385 -3.1177 0
M  V30 4174 N 399.087 1.5561 -0.249682 0
M  V30 4175 C 400.05 2.20217 0.635394 0
M  V30 4176 C 401.05 1.17227 1.10066 0
M  V30 4177 O 402.24 1.42292 1.00492 0
M  V30 4178 C 399.372 2.84794 1.87363 0
M  V30 4179 H 400.565 2.99814 0.0716752 0
M  V30 4180 H 398.118 1.563 -0.000153234 0
M  V30 4181 H 398.853 2.09142 2.47851 0
M  V30 4182 H 398.638 3.60241 1.5482 0
M  V30 4183 H 400.128 3.3423 2.5036 0
M  V30 4184 N 400.565 -0.0233959 1.57583 0
M  V30 4185 C 401.79 -0.728376 1.94189 0
M  V30 4186 C 402.215 -1.67793 0.850119 0
M  V30 4187 O 401.573 -1.80262 -0.19371 0
M  V30 4188 C 401.621 -1.45669 3.29868 0
M  V30 4189 O 400.725 -2.57013 3.22518 0
M  V30 4190 H 400.066 -0.195493 0.63457 0
M  V30 4191 H 402.596 0.0228214 2.04587 0
M  V30 4192 H 402.606 -1.82535 3.6489 0
M  V30 4193 H 401.281 -0.760314 4.08891 0
M  V30 4194 H 399.858 -2.22648 2.99136 0
M  V30 4195 N 402.043 -1.548 -0.295768 0
M  V30 4196 C 402.973 -1.89115 -1.36959 0
M  V30 4197 C 403.954 -0.75059 -1.52644 0
M  V30 4198 O 405.139 -1.00678 -1.66065 0
M  V30 4199 C 402.269 -2.14307 -2.73295 0
M  V30 4200 C 401.223 -3.30151 -2.72368 0
M  V30 4201 C 400.549 -3.40772 -4.12042 0
M  V30 4202 C 401.849 -4.67126 -2.33646 0
M  V30 4203 H 403.543 -2.79053 -1.08488 0
M  V30 4204 H 401.089 -1.34266 -0.520443 0
M  V30 4205 H 403.042 -2.36898 -3.48507 0
M  V30 4206 H 401.766 -1.21145 -3.03301 0
M  V30 4207 H 400.425 -3.0749 -1.99613 0
M  V30 4208 H 400.073 -2.45117 -4.39234 0
M  V30 4209 H 399.773 -4.18645 -4.12322 0
M  V30 4210 H 401.297 -3.6563 -4.89027 0
M  V30 4211 H 402.711 -4.89414 -2.98575 0
M  V30 4212 H 401.108 -5.47751 -2.45129 0
M  V30 4213 H 402.178 -4.67489 -1.28772 0
M  V30 4214 N 403.521 0.559213 -1.47345 0
M  V30 4215 C 404.431 1.69388 -1.62311 0
M  V30 4216 C 405.447 1.6648 -0.505993 0
M  V30 4217 O 406.623 1.85964 -0.773262 0
M  V30 4218 C 403.688 3.05894 -1.63185 0
M  V30 4219 C 402.749 3.19885 -2.86307 0
M  V30 4220 C 401.982 4.49879 -2.87131 0
M  V30 4221 O 402.205 5.35217 -1.97229 0
M  V30 4222 O 401.139 4.67618 -3.78968 0
M  V30 4223 H 404.965 1.59706 -2.58317 0
M  V30 4224 H 402.55 0.728989 -1.30407 0
M  V30 4225 H 404.432 3.87133 -1.66451 0
M  V30 4226 H 403.107 3.15964 -0.70345 0
M  V30 4227 H 402.014 2.38052 -2.88587 0
M  V30 4228 H 403.347 3.14718 -3.78435 0
M  V30 4229 N 404.999 1.35443 0.805782 0
M  V30 4230 C 406.224 1.32037 1.59941 0
M  V30 4231 C 406.649 -0.0994215 1.87837 0
M  V30 4232 O 406.007 -1.06648 1.46615 0
M  V30 4233 C 406.055 2.13354 2.90711 0
M  V30 4234 O 405.159 1.5148 3.83572 0
M  V30 4235 H 404.5 0.452666 0.485787 0
M  V30 4236 H 407.03 1.78496 1.00002 0
M  V30 4237 H 407.04 2.25338 3.40128 0
M  V30 4238 H 405.715 3.16572 2.69732 0
M  V30 4239 H 404.292 1.4834 3.42125 0
M  V30 4240 N 406.477 -1.02803 1.19454 0
M  V30 4241 C 407.754 -1.73299 0.907013 0
M  V30 4242 C 408.134 -2.02772 -0.587086 0
M  V30 4243 O 407.482 -1.68304 -1.54551 0
M  V30 4244 C 407.692 -3.00912 1.76785 0
M  V30 4245 C 409.04 -3.74403 2.00268 0
M  V30 4246 O 410.064 -3.10841 1.73943 0
M  V30 4247 O 408.923 -4.88675 2.4466 0
M  V30 4248 H 406.017 -0.754727 0.338106 0
M  V30 4249 H 408.563 -1.08754 1.30271 0
M  V30 4250 H 407.335 -2.75366 2.7801 0
M  V30 4251 H 406.958 -3.73197 1.37149 0
M  V30 4252 N 407.956 -0.998596 -1.21925 0
M  V30 4253 C 409.233 -0.593401 -1.86382 0
M  V30 4254 C 409.613 0.92916 -1.89552 0
M  V30 4255 O 408.961 1.81347 -1.39017 0
M  V30 4256 C 409.171 -1.22039 -3.26967 0
M  V30 4257 C 410.519 -1.32449 -4.03413 0
M  V30 4258 O 411.543 -1.17522 -3.36254 0
M  V30 4259 O 410.402 -1.56395 -5.23644 0
M  V30 4260 H 407.496 -0.202385 -0.801854 0
M  V30 4261 H 410.042 -1.09484 -1.29659 0
M  V30 4262 H 408.814 -2.26158 -3.19325 0
M  V30 4263 H 408.437 -0.704906 -3.91301 0
M  V30 4264 N 409.434 1.37368 -0.772513 0
M  V30 4265 C 410.85 1.53059 -0.452231 0
M  V30 4266 C 411.05 1.73065 1.03203 0
M  V30 4267 O 410.106 1.75245 1.81784 0
M  V30 4268 C 411.419 2.72659 -1.26797 0
M  V30 4269 C 412.967 2.86521 -1.25995 0
M  V30 4270 C 413.442 4.09105 -2.05905 0
M  V30 4271 N 414.933 4.16219 -2.03263 0
M  V30 4272 C 415.668 5.10107 -2.61875 0
M  V30 4273 N 415.164 6.09547 -3.29278 0
M  V30 4274 N 416.957 5.02596 -2.51701 0
M  V30 4275 H 409.108 1.22634 -1.7342 0
M  V30 4276 H 411.371 0.597206 -0.736239 0
M  V30 4277 H 411.077 2.64343 -2.31982 0
M  V30 4278 H 410.951 3.66363 -0.897672 0
M  V30 4279 H 413.338 2.94308 -0.216081 0
M  V30 4280 H 413.419 1.93774 -1.66989 0
M  V30 4281 H 413.063 4.0208 -3.10313 0
M  V30 4282 H 412.993 5.00968 -1.62292 0
M  V30 4283 H 415.484 3.45012 -1.54192 0
M  V30 4284 H 415.797 6.77718 -3.71374 0
M  V30 4285 H 414.142 6.09824 -3.33377 0
M  V30 4286 H 417.333 4.23855 -1.98657 0
M  V30 4287 H 417.506 5.75582 -2.97673 0
M  V30 4288 N 410.912 0.523116 1.48665 0
M  V30 4289 C 411.845 -0.290518 2.26343 0
M  V30 4290 C 412.823 -0.950913 1.31895 0
M  V30 4291 O 414.007 -0.976662 1.61225 0
M  V30 4292 C 411.134 -1.41088 3.07915 0
M  V30 4293 C 410.18 -0.862597 4.17686 0
M  V30 4294 S 411.013 0.264135 5.34848 0
M  V30 4295 C 412.169 -0.858864 6.19979 0
M  V30 4296 H 412.402 0.368726 2.95005 0
M  V30 4297 H 409.935 0.30878 1.51281 0
M  V30 4298 H 411.893 -2.0527 3.55492 0
M  V30 4299 H 410.554 -2.04182 2.38681 0
M  V30 4300 H 409.747 -1.70287 4.74361 0
M  V30 4301 H 409.349 -0.297595 3.72814 0
M  V30 4302 H 411.641 -1.7591 6.54264 0
M  V30 4303 H 412.584 -0.330244 7.07329 0
M  V30 4304 H 412.992 -1.13617 5.52948 0
M  V30 4305 N 412.39 -1.55475 0.257931 0
M  V30 4306 C 413.32 -2.24815 -0.630912 0
M  V30 4307 C 414.301 -1.23224 -1.17259 0
M  V30 4308 O 415.486 -1.51904 -1.20991 0
M  V30 4309 C 412.616 -2.95609 -1.82298 0
M  V30 4310 C 411.57 -4.03982 -1.41359 0
M  V30 4311 C 410.896 -4.6226 -2.68738 0
M  V30 4312 C 412.196 -5.19109 -0.57648 0
M  V30 4313 H 413.89 -2.99354 -0.0526878 0
M  V30 4314 H 411.436 -1.4398 -0.023901 0
M  V30 4315 H 413.389 -3.42822 -2.45054 0
M  V30 4316 H 412.113 -2.18577 -2.42676 0
M  V30 4317 H 410.772 -3.57555 -0.809324 0
M  V30 4318 H 410.42 -3.81915 -3.27338 0
M  V30 4319 H 410.12 -5.35424 -2.42065 0
M  V30 4320 H 411.644 -5.12212 -3.32372 0
M  V30 4321 H 413.058 -5.62479 -1.10861 0
M  V30 4322 H 411.455 -5.98729 -0.405351 0
M  V30 4323 H 412.525 -4.83174 0.408776 0
M  V30 4324 N 413.868 0.0150385 -1.57593 0
M  V30 4325 C 415.279 0.559832 -1.78109 0
M  V30 4326 C 415.63 1.74814 -0.890756 0
M  V30 4327 O 414.755 2.16216 -0.0892482 0
M  V30 4328 C 415.35 1.02238 -3.23006 0
M  V30 4329 C 413.909 1.51258 -3.44671 0
M  V30 4330 C 413.056 0.456955 -2.73509 0
M  V30 4331 H 416.007 -0.211169 -1.57289 0
M  V30 4332 H 416.028 1.88912 -3.30292 0
M  V30 4333 H 415.54 0.157302 -3.87781 0
M  V30 4334 H 413.641 2.39905 -2.8509 0
M  V30 4335 H 413.754 1.55042 -4.5332 0
M  V30 4336 H 412.118 0.915196 -2.37689 0
M  V30 4337 H 412.901 -0.398896 -3.40975 0
M  V30 4338 N 415.346 1.54954 0.287554 0
M  V30 4339 C 416.757 1.65732 0.859634 0
M  V30 4340 C 417.108 0.574767 1.87592 0
M  V30 4341 O 416.233 -0.286299 2.14498 0
M  V30 4342 C 416.828 3.00438 1.56597 0
M  V30 4343 C 415.387 3.13292 2.08627 0
M  V30 4344 C 414.534 2.61473 0.923416 0
M  V30 4345 H 417.485 1.5857 0.0642338 0
M  V30 4346 H 417.506 2.92613 2.43224 0
M  V30 4347 H 417.018 3.79207 0.826053 0
M  V30 4348 H 415.119 2.39268 2.85625 0
M  V30 4349 H 415.232 4.19647 2.31157 0
M  V30 4350 H 413.596 2.18264 1.31275 0
M  V30 4351 H 414.379 3.42733 0.197241 0
M  V30 4352 N 416.824 -0.551391 1.4764 0
M  V30 4353 C 418.24 -0.877887 1.33287 0
M  V30 4354 C 418.44 -1.98817 0.327721 0
M  V30 4355 O 417.496 -2.51171 -0.258695 0
M  V30 4356 C 418.809 -1.26563 2.72768 0
M  V30 4357 C 420.357 -1.37673 2.81097 0
M  V30 4358 C 420.832 -1.79799 4.21232 0
M  V30 4359 N 422.323 -1.8694 4.23802 0
M  V30 4360 C 423.058 -2.20876 5.29151 0
M  V30 4361 N 422.554 -2.53386 6.448 0
M  V30 4362 N 424.347 -2.217 5.16532 0
M  V30 4363 H 416.498 0.18153 2.11623 0
M  V30 4364 H 418.761 0.0185514 0.947818 0
M  V30 4365 H 418.467 -0.523591 3.47781 0
M  V30 4366 H 418.341 -2.22052 3.04915 0
M  V30 4367 H 420.728 -2.10956 2.06353 0
M  V30 4368 H 420.809 -0.40357 2.52596 0
M  V30 4369 H 420.453 -1.07083 4.96483 0
M  V30 4370 H 420.383 -2.78128 4.4716 0
M  V30 4371 H 422.874 -1.64179 3.40373 0
M  V30 4372 H 423.187 -2.78325 7.20941 0
M  V30 4373 H 421.532 -2.50953 6.48111 0
M  V30 4374 H 424.723 -1.95745 4.25207 0
M  V30 4375 H 424.896 -2.47818 5.98741 0
M  V30 4376 N 418.302 -1.35869 -0.798587 0
M  V30 4377 C 419.232 -1.32118 -1.92528 0
M  V30 4378 C 420.213 -0.194209 -1.68988 0
M  V30 4379 O 421.398 -0.390426 -1.90235 0
M  V30 4380 C 418.528 -1.10047 -3.29404 0
M  V30 4381 C 417.482 -2.19471 -3.67446 0
M  V30 4382 C 416.808 -1.82555 -5.02571 0
M  V30 4383 C 418.108 -3.61495 -3.76987 0
M  V30 4384 H 419.802 -2.26394 -1.95924 0
M  V30 4385 H 417.348 -1.08981 -0.94123 0
M  V30 4386 H 419.301 -1.06061 -4.07835 0
M  V30 4387 H 418.025 -0.122195 -3.26371 0
M  V30 4388 H 416.684 -2.22568 -2.91306 0
M  V30 4389 H 416.332 -0.833249 -4.9605 0
M  V30 4390 H 416.032 -2.5581 -5.28995 0
M  V30 4391 H 417.556 -1.80108 -5.83432 0
M  V30 4392 H 418.97 -3.60676 -4.4563 0
M  V30 4393 H 417.367 -4.33577 -4.14887 0
M  V30 4394 H 418.437 -3.97065 -2.78329 0
M  V30 4395 N 419.78 1.02168 -1.19998 0
M  V30 4396 C 421.196 1.27969 -0.953737 0
M  V30 4397 C 421.396 1.98079 0.369703 0
M  V30 4398 O 420.452 2.27306 1.09947 0
M  V30 4399 C 421.765 2.11971 -2.13281 0
M  V30 4400 C 423.313 2.25255 -2.17323 0
M  V30 4401 C 423.788 3.12632 -3.34702 0
M  V30 4402 N 425.279 3.2022 -3.34684 0
M  V30 4403 C 426.014 3.88039 -4.22153 0
M  V30 4404 N 425.51 4.58027 -5.19791 0
M  V30 4405 N 427.303 3.84511 -4.10009 0
M  V30 4406 H 419.454 0.550794 -2.05134 0
M  V30 4407 H 421.717 0.305683 -0.897364 0
M  V30 4408 H 421.423 1.67785 -3.09097 0
M  V30 4409 H 421.297 3.12699 -2.10949 0
M  V30 4410 H 423.684 2.68667 -1.22073 0
M  V30 4411 H 423.765 1.24053 -2.23706 0
M  V30 4412 H 423.409 2.69926 -4.30235 0
M  V30 4413 H 423.339 4.13909 -3.25556 0
M  V30 4414 H 425.83 2.70382 -2.64012 0
M  V30 4415 H 426.143 5.07429 -5.82868 0
M  V30 4416 H 424.488 4.56869 -5.23733 0
M  V30 4417 H 427.679 3.28978 -3.33003 0
M  V30 4418 H 427.852 4.3709 -4.78389 0
M  V30 4419 N 421.258 1.00505 1.21394 0
M  V30 4420 C 422.506 0.686415 1.90086 0
M  V30 4421 C 422.827 -0.785264 1.7849 0
M  V30 4422 O 422.097 -1.56387 1.17983 0
M  V30 4423 H 420.677 0.2509 0.703604 0
M  V30 4424 H 423.339 1.27417 1.47482 0
M  V30 4425 H 422.435 0.959621 2.96981 0
M  V30 4426 N 422.737 -1.36956 0.779787 0
M  V30 4427 C 423.967 -2.03459 0.358877 0
M  V30 4428 C 424.375 -1.58939 -1.02641 0
M  V30 4429 O 423.718 -0.769777 -1.66794 0
M  V30 4430 C 423.78 -3.5796 0.332393 0
M  V30 4431 C 423.444 -4.25644 1.66362 0
M  V30 4432 C 424.441 -4.49205 2.61746 0
M  V30 4433 C 422.126 -4.63313 1.94027 0
M  V30 4434 C 424.12 -5.09503 3.82996 0
M  V30 4435 C 421.807 -5.2333 3.15546 0
M  V30 4436 C 422.805 -5.46363 4.0985 0
M  V30 4437 O 422.493 -6.05122 5.29228 0
M  V30 4438 H 422.225 -0.659767 0.147254 0
M  V30 4439 H 424.779 -1.76111 1.05708 0
M  V30 4440 H 423.009 -3.84388 -0.422237 0
M  V30 4441 H 424.698 -4.05852 -0.0625389 0
M  V30 4442 H 425.464 -4.20508 2.41657 0
M  V30 4443 H 421.343 -4.44715 1.21448 0
M  V30 4444 H 424.887 -5.27397 4.56617 0
M  V30 4445 H 420.784 -5.51451 3.35517 0
M  V30 4446 H 421.552 -6.23595 5.30161 0
M  V30 4447 N 424.215 -0.530993 -1.48385 0
M  V30 4448 C 425.178 0.220497 -2.28137 0
M  V30 4449 C 426.178 0.866851 -1.35434 0
M  V30 4450 O 427.368 0.726746 -1.58316 0
M  V30 4451 C 424.5 1.31921 -3.1434 0
M  V30 4452 H 425.693 -0.479714 -2.96038 0
M  V30 4453 H 423.246 -0.286968 -1.53643 0
M  V30 4454 H 423.981 2.05264 -2.51072 0
M  V30 4455 H 423.766 0.86085 -3.82533 0
M  V30 4456 H 425.256 1.84776 -3.74497 0
M  V30 4457 N 425.693 1.55336 -0.266172 0
M  V30 4458 C 427.104 1.85236 0.233315 0
M  V30 4459 C 427.455 1.18816 1.56132 0
M  V30 4460 O 426.58 0.473307 2.11161 0
M  V30 4461 C 427.175 3.36059 0.430113 0
M  V30 4462 C 425.734 3.66116 0.873842 0
M  V30 4463 C 424.881 2.77274 -0.0380016 0
M  V30 4464 H 427.832 1.51004 -0.488214 0
M  V30 4465 H 427.853 3.58681 1.26998 0
M  V30 4466 H 427.365 3.84373 -0.536588 0
M  V30 4467 H 425.466 3.23295 1.85233 0
M  V30 4468 H 425.579 4.73699 0.717358 0
M  V30 4469 H 423.943 2.50198 0.476759 0
M  V30 4470 H 424.726 3.284 -1.00042 0
M  V30 4471 N 427.171 -0.0066808 1.57599 0
M  V30 4472 C 428.103 -1.02827 2.04839 0
M  V30 4473 C 429.116 -1.31108 0.965113 0
M  V30 4474 O 430.305 -1.28202 1.24203 0
M  V30 4475 C 427.405 -2.36464 2.42771 0
M  V30 4476 C 426.578 -2.27219 3.73751 0
M  V30 4477 C 425.637 -3.43489 3.98625 0
M  V30 4478 O 424.663 -3.21976 4.69382 0
M  V30 4479 N 425.865 -4.66116 3.46 0
M  V30 4480 H 428.63 -0.625455 2.93101 0
M  V30 4481 H 426.191 -0.194198 1.60731 0
M  V30 4482 H 428.183 -3.13008 2.56531 0
M  V30 4483 H 426.753 -2.68512 1.60063 0
M  V30 4484 H 425.973 -1.35629 3.70133 0
M  V30 4485 H 427.261 -2.18208 4.59633 0
M  V30 4486 H 426.659 -4.86493 2.88688 0
M  V30 4487 H 425.216 -5.39949 3.65101 0
M  V30 4488 N 428.649 -1.55105 -0.279332 0
M  V30 4489 C 429.898 -1.74618 -1.00952 0
M  V30 4490 C 430.211 -0.551096 -1.87676 0
M  V30 4491 O 431.417 -0.628507 -2.64125 0
M  V30 4492 C 429.873 -3.09025 -1.84476 0
M  V30 4493 C 429.481 -4.36081 -1.0265 0
M  V30 4494 C 431.225 -3.37891 -2.56963 0
M  V30 4495 C 429.132 -5.6153 -1.85576 0
M  V30 4496 H 428.062 -0.650868 -0.38064 0
M  V30 4497 H 430.713 -1.81569 -0.265475 0
M  V30 4498 H 429.095 -2.96095 -2.62952 0
M  V30 4499 H 430.269 -4.59909 -0.286354 0
M  V30 4500 H 428.584 -4.14312 -0.416464 0
M  V30 4501 H 431.181 -4.28822 -3.19399 0
M  V30 4502 H 431.524 -2.57737 -3.26921 0
M  V30 4503 H 432.057 -3.5189 -1.85522 0
M  V30 4504 H 428.796 -6.44413 -1.2005 0
M  V30 4505 H 428.316 -5.41854 -2.57204 0
M  V30 4506 H 429.995 -5.99594 -2.43096 0
M  V30 4507 N 430.127 0.543554 -1.4793 0
M  V30 4508 C 431.355 1.32516 -1.58894 0
M  V30 4509 C 431.77 1.87215 -0.244131 0
M  V30 4510 O 431.127 1.65709 0.764652 0
M  V30 4511 C 431.178 2.48554 -2.62494 0
M  V30 4512 O 430.899 1.96112 -3.91755 0
M  V30 4513 C 432.4 3.40572 -2.8377 0
M  V30 4514 H 429.62 0.403472 -0.536145 0
M  V30 4515 H 432.164 0.657106 -1.93655 0
M  V30 4516 H 430.319 3.1127 -2.30629 0
M  V30 4517 H 430.733 2.71967 -4.4848 0
M  V30 4518 H 432.207 4.18375 -3.60093 0
M  V30 4519 H 432.684 3.94965 -1.92092 0
M  V30 4520 H 433.29 2.8366 -3.16887 0
M  V30 4521 N 431.605 1.3629 0.791371 0
M  V30 4522 C 432.853 1.30154 1.5461 0
M  V30 4523 C 433.174 -0.119409 1.94634 0
M  V30 4524 O 432.444 -1.05924 1.64794 0
M  V30 4525 H 431.024 0.478784 0.573389 0
M  V30 4526 H 433.686 1.70565 0.94306 0
M  V30 4527 H 432.782 1.92762 2.45457 0
M  V30 4528 N 433.083 -1.0153 1.20538 0
M  V30 4529 C 434.332 -1.74558 1.01057 0
M  V30 4530 C 434.645 -1.90168 -0.457756 0
M  V30 4531 O 435.851 -2.60301 -0.771722 0
M  V30 4532 C 434.307 -3.13963 1.75941 0
M  V30 4533 C 433.915 -3.06361 3.26875 0
M  V30 4534 C 435.659 -3.91191 1.64832 0
M  V30 4535 C 433.566 -4.40782 3.94291 0
M  V30 4536 H 432.496 -0.654417 0.374505 0
M  V30 4537 H 435.147 -1.13521 1.44171 0
M  V30 4538 H 433.529 -3.75549 1.25614 0
M  V30 4539 H 434.703 -2.54074 3.84425 0
M  V30 4540 H 433.018 -2.42625 3.38411 0
M  V30 4541 H 435.615 -4.90644 2.12539 0
M  V30 4542 H 435.958 -4.11884 0.604745 0
M  V30 4543 H 436.491 -3.36236 2.12579 0
M  V30 4544 H 433.23 -4.25292 4.98805 0
M  V30 4545 H 432.75 -4.9307 3.41529 0
M  V30 4546 H 434.429 -5.09621 3.98617 0
M  V30 4547 N 434.561 -1.01147 -1.20859 0
M  V30 4548 C 435.524 -0.582224 -2.21682 0
M  V30 4549 C 436.524 0.344887 -1.57058 0
M  V30 4550 O 437.714 0.134281 -1.73682 0
M  V30 4551 C 434.846 0.150496 -3.40568 0
M  V30 4552 H 436.039 -1.47408 -2.61172 0
M  V30 4553 H 433.592 -0.800695 -1.34233 0
M  V30 4554 H 434.327 1.0575 -3.06574 0
M  V30 4555 H 434.112 -0.515444 -3.88697 0
M  V30 4556 H 435.602 0.438344 -4.15293 0
M  V30 4557 N 436.039 1.36541 -0.78704 0
M  V30 4558 C 436.949 2.3387 -0.184896 0
M  V30 4559 C 437.965 1.60927 0.661697 0
M  V30 4560 O 439.141 1.92927 0.57804 0
M  V30 4561 C 436.206 3.40122 0.672145 0
M  V30 4562 C 435.267 4.28867 -0.19267 0
M  V30 4563 C 434.5 5.30045 0.623561 0
M  V30 4564 O 434.723 5.39232 1.8597 0
M  V30 4565 O 433.657 6.01895 0.0247068 0
M  V30 4566 H 437.483 2.87126 -0.989562 0
M  V30 4567 H 435.068 1.38969 -0.548455 0
M  V30 4568 H 436.95 4.05093 1.16094 0
M  V30 4569 H 435.625 2.89169 1.45474 0
M  V30 4570 H 434.532 3.66945 -0.728166 0
M  V30 4571 H 435.865 4.83165 -0.938722 0
M  V30 4572 N 437.518 0.538854 1.48102 0
M  V30 4573 C 438.746 0.0123136 2.06896 0
M  V30 4574 C 439.161 -1.27312 1.39417 0
M  V30 4575 O 438.518 -1.75949 0.484582 0
M  V30 4576 C 438.569 -0.206118 3.60912 0
M  V30 4577 O 438.29 1.0284 4.25859 0
M  V30 4578 C 439.791 -0.772033 4.36526 0
M  V30 4579 H 437.011 0.0375239 0.66995 0
M  V30 4580 H 439.555 0.747032 1.90367 0
M  V30 4581 H 437.71 -0.89091 3.77017 0
M  V30 4582 H 438.124 0.814654 5.18135 0
M  V30 4583 H 439.598 -0.874251 5.45033 0
M  V30 4584 H 440.075 -1.77904 4.01555 0
M  V30 4585 H 440.681 -0.123526 4.25121 0
M  V30 4586 N 438.996 -1.55193 0.274407 0
M  V30 4587 C 439.944 -2.23924 -0.629362 0
M  V30 4588 C 440.938 -1.23602 -1.1584 0
M  V30 4589 O 442.144 -1.41535 -1.11211 0
M  V30 4590 H 438.519 -0.718637 -0.221507 0
M  V30 4591 H 440.49 -2.98388 -0.0268322 0
M  V30 4592 C 439.239 -2.97329 -1.80252 0
M  V30 4593 H 438.562 -3.74313 -1.40462 0
M  V30 4594 H 440.002 -3.48743 -2.41152 0
M  V30 4595 C 438.461 -2.0276 -2.69054 0
M  V30 4596 O 438.991 -1.57836 -3.69392 0
M  V30 4597 N 437.197 -1.69275 -2.36208 0
M  V30 4598 H 436.744 -2.06004 -1.54661 0
M  V30 4599 H 436.702 -1.06271 -2.95895 0
M  V30 4600 N 440.474 -0.00167713 -1.576 0
M  V30 4601 C 441.437 0.974046 -2.07473 0
M  V30 4602 C 442.437 1.27143 -0.984444 0
M  V30 4603 O 443.627 1.21633 -1.24703 0
M  V30 4604 C 440.759 2.29849 -2.51759 0
M  V30 4605 H 441.952 0.54262 -2.9495 0
M  V30 4606 H 439.505 0.245829 -1.54355 0
M  V30 4607 H 440.24 2.77677 -1.67529 0
M  V30 4608 H 440.025 2.09584 -3.31386 0
M  V30 4609 H 441.515 2.9984 -2.90664 0
M  V30 4610 N 441.952 1.55251 0.271103 0
M  V30 4611 C 443.368 1.47133 0.618393 0
M  V30 4612 C 443.568 0.686994 1.89427 0
M  V30 4613 O 442.624 0.206609 2.51653 0
M  V30 4614 C 443.937 2.91361 0.743593 0
M  V30 4615 C 445.485 3.01587 0.837522 0
M  V30 4616 C 445.96 4.47073 0.994483 0
M  V30 4617 N 447.451 4.50909 1.05996 0
M  V30 4618 C 448.186 5.60698 1.20024 0
M  V30 4619 N 447.682 6.80348 1.30759 0
M  V30 4620 N 449.475 5.48444 1.23149 0
M  V30 4621 H 441.626 2.04698 -0.566784 0
M  V30 4622 H 443.889 0.928319 -0.192165 0
M  V30 4623 H 443.595 3.51483 -0.123493 0
M  V30 4624 H 443.469 3.40484 1.62328 0
M  V30 4625 H 445.856 2.4156 1.69507 0
M  V30 4626 H 445.937 2.55713 -0.0668086 0
M  V30 4627 H 445.581 5.07703 0.141582 0
M  V30 4628 H 445.511 4.90605 1.91349 0
M  V30 4629 H 448.002 3.6472 0.989316 0
M  V30 4630 H 448.315 7.59772 1.41303 0
M  V30 4631 H 446.66 6.83156 1.27761 0
M  V30 4632 H 449.851 4.53907 1.14394 0
M  V30 4633 H 450.024 6.34049 1.33738 0
M  V30 4634 N 443.43 -0.535701 1.48216 0
M  V30 4635 C 444.676 -1.29375 1.56173 0
M  V30 4636 C 445.009 -1.92804 0.232429 0
M  V30 4637 O 444.284 -1.78992 -0.761048 0
M  V30 4638 C 444.567 -2.38747 2.69577 0
M  V30 4639 C 444.42 -1.80046 4.12193 0
M  V30 4640 C 445.739 -3.40551 2.78771 0
M  V30 4641 H 442.858 -0.469027 0.568491 0
M  V30 4642 H 445.5 -0.597358 1.80365 0
M  V30 4643 H 443.65 -2.98147 2.4908 0
M  V30 4644 H 445.322 -1.24742 4.44114 0
M  V30 4645 H 443.565 -1.10609 4.19462 0
M  V30 4646 H 444.236 -2.59212 4.87353 0
M  V30 4647 H 446.712 -2.91099 2.97322 0
M  V30 4648 H 445.588 -4.1448 3.59857 0
M  V30 4649 H 445.849 -4.00746 1.86696 0
M  V30 4650 N 444.908 -1.36708 -0.784132 0
M  V30 4651 C 446.154 -1.31426 -1.54451 0
M  V30 4652 C 446.487 0.10476 -1.93917 0
M  V30 4653 O 445.762 1.05934 -1.6312 0
M  V30 4654 C 446.045 -2.24189 -2.818 0
M  V30 4655 C 445.898 -3.74813 -2.48667 0
M  V30 4656 C 447.217 -2.15626 -3.83658 0
M  V30 4657 H 444.336 -0.478739 -0.560337 0
M  V30 4658 H 446.978 -1.67305 -0.900498 0
M  V30 4659 H 445.128 -1.93722 -3.36755 0
M  V30 4660 H 446.8 -4.15823 -1.99722 0
M  V30 4661 H 445.043 -3.93989 -1.81535 0
M  V30 4662 H 445.714 -4.35138 -3.39646 0
M  V30 4663 H 448.19 -2.42456 -3.38163 0
M  V30 4664 H 447.066 -2.82694 -4.70506 0
M  V30 4665 H 447.327 -1.14522 -4.27009 0
M  V30 4666 N 446.386 1.0089 -1.21074 0
M  V30 4667 C 447.632 1.74866 -1.02712 0
M  V30 4668 C 447.965 1.89178 0.438787 0
M  V30 4669 O 447.24 1.42325 1.32567 0
M  V30 4670 C 447.523 3.16347 -1.72036 0
M  V30 4671 C 447.376 3.09782 -3.26121 0
M  V30 4672 C 448.695 4.15187 -1.45973 0
M  V30 4673 H 445.814 0.634736 -0.374539 0
M  V30 4674 H 448.456 1.17646 -1.49196 0
M  V30 4675 H 446.606 3.65201 -1.32517 0
M  V30 4676 H 448.278 2.68673 -3.74983 0
M  V30 4677 H 446.521 2.46982 -3.56626 0
M  V30 4678 H 447.192 4.09829 -3.6979 0
M  V30 4679 H 449.668 3.75022 -1.80272 0
M  V30 4680 H 448.544 5.12331 -1.96999 0
M  V30 4681 H 448.805 4.40386 -0.388924 0
M  V30 4682 N 447.864 1.01787 1.20321 0
M  V30 4683 C 449.089 0.727009 1.9424 0
M  V30 4684 C 449.514 -0.706179 1.74341 0
M  V30 4685 O 448.872 -1.48609 1.03852 0
M  V30 4686 C 448.92 1.06958 3.44372 0
M  V30 4687 O 448.024 0.181983 4.11998 0
M  V30 4688 H 447.365 0.269626 0.606793 0
M  V30 4689 H 449.895 1.36158 1.52716 0
M  V30 4690 H 449.905 1.02182 3.94997 0
M  V30 4691 H 448.58 2.11378 3.58179 0
M  V30 4692 H 447.157 0.287378 3.71791 0
M  V30 4693 N 449.342 -1.36122 0.79427 0
M  V30 4694 C 450.274 -2.28683 0.153903 0
M  V30 4695 C 451.287 -1.49707 -0.639669 0
M  V30 4696 O 452.476 -1.7209 -0.474054 0
M  V30 4697 C 449.576 -3.29202 -0.804921 0
M  V30 4698 C 448.749 -4.37358 -0.060366 0
M  V30 4699 C 447.808 -5.17811 -0.935849 0
M  V30 4700 O 446.834 -5.67853 -0.391309 0
M  V30 4701 N 448.036 -5.34721 -2.25951 0
M  V30 4702 H 450.801 -2.84278 0.949008 0
M  V30 4703 H 448.362 -1.4834 0.648611 0
M  V30 4704 H 450.354 -3.79914 -1.39455 0
M  V30 4705 H 448.924 -2.74212 -1.50088 0
M  V30 4706 H 448.144 -3.87746 0.710382 0
M  V30 4707 H 449.432 -5.06777 0.45324 0
M  V30 4708 H 448.83 -4.95687 -2.72601 0
M  V30 4709 H 447.387 -5.88657 -2.79867 0
M  V30 4710 N 450.82 -0.546701 -1.47814 0
M  V30 4711 C 451.752 0.244196 -2.27895 0
M  V30 4712 C 452.765 0.88911 -1.36377 0
M  V30 4713 O 453.954 0.764733 -1.61289 0
M  V30 4714 C 451.054 1.36252 -3.10304 0
M  V30 4715 C 450.227 0.816382 -4.29714 0
M  V30 4716 C 449.286 1.81789 -4.93801 0
M  V30 4717 O 448.312 1.36818 -5.52512 0
M  V30 4718 N 449.514 3.15085 -4.87547 0
M  V30 4719 H 452.279 -0.442694 -2.96412 0
M  V30 4720 H 449.84 -0.382095 -1.57327 0
M  V30 4721 H 451.832 2.03102 -3.50045 0
M  V30 4722 H 450.402 1.95281 -2.44099 0
M  V30 4723 H 449.622 -0.0285981 -3.9419 0
M  V30 4724 H 450.91 0.430668 -5.06974 0
M  V30 4725 H 450.308 3.54275 -4.41028 0
M  V30 4726 H 448.865 3.77522 -5.31339 0
M  V30 4727 N 452.299 1.55045 -0.282633 0
M  V30 4728 C 453.547 1.99365 0.331334 0
M  V30 4729 C 453.868 1.1725 1.55812 0
M  V30 4730 O 453.138 0.263871 1.94115 0
M  V30 4731 H 451.718 0.736397 0.125414 0
M  V30 4732 H 454.38 1.90964 -0.389711 0
M  V30 4733 H 453.476 3.0596 0.616036 0
M  V30 4734 N 453.777 0.010035 1.57597 0
M  V30 4735 C 455.193 -0.346164 1.55801 0
M  V30 4736 C 455.393 -1.74144 1.01371 0
M  V30 4737 O 454.449 -2.43938 0.651968 0
M  V30 4738 C 455.762 -0.212216 2.9995 0
M  V30 4739 C 457.31 -0.286409 3.11687 0
M  V30 4740 C 457.785 -0.18147 4.5764 0
M  V30 4741 N 459.276 -0.239056 4.62583 0
M  V30 4742 C 460.011 -0.181351 5.73113 0
M  V30 4743 N 459.507 -0.073661 6.92761 0
M  V30 4744 N 461.3 -0.233949 5.61613 0
M  V30 4745 H 453.451 0.922657 1.91313 0
M  V30 4746 H 455.714 0.354595 0.879185 0
M  V30 4747 H 455.42 0.748169 3.4365 0
M  V30 4748 H 455.294 -0.990224 3.6397 0
M  V30 4749 H 457.681 -1.23724 2.67911 0
M  V30 4750 H 457.762 0.521645 2.50425 0
M  V30 4751 H 457.406 0.765863 5.02093 0
M  V30 4752 H 457.336 -1.00814 5.1686 0
M  V30 4753 H 459.827 -0.32321 3.76515 0
M  V30 4754 H 460.14 -0.0358003 7.72792 0
M  V30 4755 H 458.485 -0.0391461 6.94989 0
M  V30 4756 H 461.676 -0.316347 4.6703 0
M  V30 4757 H 461.849 -0.185514 6.47734 0
M  V30 4758 N 455.255 -1.55392 -0.262866 0
M  V30 4759 C 456.501 -1.76737 -0.99458 0
M  V30 4760 C 456.834 -0.572453 -1.85571 0
M  V30 4761 O 456.109 0.429732 -1.89693 0
M  V30 4762 C 456.392 -3.07824 -1.8686 0
M  V30 4763 C 456.245 -4.3769 -1.03672 0
M  V30 4764 C 457.564 -3.35021 -2.85393 0
M  V30 4765 H 454.683 -0.643005 -0.360157 0
M  V30 4766 H 457.325 -1.88126 -0.266216 0
M  V30 4767 H 455.475 -2.98245 -2.48962 0
M  V30 4768 H 457.147 -4.59238 -0.43563 0
M  V30 4769 H 455.39 -4.32461 -0.340513 0
M  V30 4770 H 456.061 -5.25759 -1.6817 0
M  V30 4771 H 458.537 -3.44458 -2.33426 0
M  V30 4772 H 457.413 -4.27989 -3.43681 0
M  V30 4773 H 457.674 -2.55153 -3.61039 0
M  V30 4774 N 456.733 0.527833 -1.48498 0
M  V30 4775 C 457.663 1.64136 -1.66077 0
M  V30 4776 C 458.644 1.62286 -0.509625 0
M  V30 4777 O 459.829 1.79449 -0.742413 0
M  V30 4778 C 456.959 3.02717 -1.70234 0
M  V30 4779 C 455.913 3.19426 -2.8487 0
M  V30 4780 C 455.239 4.5909 -2.74118 0
M  V30 4781 C 456.539 3.01993 -4.26142 0
M  V30 4782 H 458.233 1.4968 -2.593 0
M  V30 4783 H 455.779 0.718654 -1.24785 0
M  V30 4784 H 457.732 3.80491 -1.8112 0
M  V30 4785 H 456.456 3.18201 -0.735911 0
M  V30 4786 H 455.115 2.4407 -2.73542 0
M  V30 4787 H 454.763 4.71413 -1.7544 0
M  V30 4788 H 454.463 4.71214 -3.51042 0
M  V30 4789 H 455.987 5.3896 -2.86974 0
M  V30 4790 H 457.401 3.69558 -4.38292 0
M  V30 4791 H 455.798 3.2561 -5.04082 0
M  V30 4792 H 456.868 1.98396 -4.42456 0
M  V30 4793 N 458.211 1.37122 0.776871 0
M  V30 4794 C 459.441 1.35034 1.56363 0
M  V30 4795 C 459.849 -0.0674681 1.8908 0
M  V30 4796 O 459.192 -1.03826 1.51545 0
M  V30 4797 C 459.254 2.11894 2.90415 0
M  V30 4798 C 458.918 3.60897 2.80362 0
M  V30 4799 C 459.915 4.54887 2.51742 0
M  V30 4800 C 457.6 4.03951 2.98545 0
M  V30 4801 C 459.594 5.89909 2.41426 0
M  V30 4802 C 457.281 5.3906 2.87849 0
M  V30 4803 C 458.279 6.31852 2.5933 0
M  V30 4804 O 457.967 7.64479 2.48651 0
M  V30 4805 H 457.699 0.464402 0.49123 0
M  V30 4806 H 460.253 1.80992 0.971127 0
M  V30 4807 H 458.483 1.60618 3.51765 0
M  V30 4808 H 460.172 2.02505 3.51776 0
M  V30 4809 H 460.938 4.22934 2.37385 0
M  V30 4810 H 456.817 3.3209 3.19746 0
M  V30 4811 H 460.361 6.62304 2.19086 0
M  V30 4812 H 456.258 5.70617 3.01773 0
M  V30 4813 H 457.026 7.74742 2.64039 0
M  V30 4814 N 459.689 -1.00246 1.21608 0
M  V30 4815 C 460.966 -1.71336 0.943568 0
M  V30 4816 C 461.346 -2.03972 -0.543943 0
M  V30 4817 O 460.694 -1.71545 -1.50946 0
M  V30 4818 C 460.904 -2.97094 1.83128 0
M  V30 4819 C 462.252 -3.70071 2.08165 0
M  V30 4820 O 463.276 -3.07081 1.80498 0
M  V30 4821 O 462.135 -4.83376 2.54971 0
M  V30 4822 H 459.229 -0.747386 0.354039 0
M  V30 4823 H 461.775 -1.05967 1.32549 0
M  V30 4824 H 460.547 -2.69407 2.83788 0
M  V30 4825 H 460.17 -3.70204 1.45034 0
M  V30 4826 N 461.167 -1.02423 -1.1978 0
M  V30 4827 C 462.392 -0.7373 -1.93852 0
M  V30 4828 C 462.817 0.696923 -1.74713 0
M  V30 4829 O 462.175 1.48056 -1.04638 0
M  V30 4830 C 462.223 -1.08783 -3.438 0
M  V30 4831 O 461.327 -0.20383 -4.11896 0
M  V30 4832 H 460.668 -0.27284 -0.605355 0
M  V30 4833 H 463.198 -1.36966 -1.51992 0
M  V30 4834 H 463.208 -1.04276 -3.9445 0
M  V30 4835 H 461.883 -2.13274 -3.57053 0
M  V30 4836 H 460.46 -0.307091 -3.71633 0
M  V30 4837 N 462.645 1.35699 -0.801477 0
M  V30 4838 C 463.578 2.2768 -0.153922 0
M  V30 4839 C 464.556 1.47832 0.67709 0
M  V30 4840 O 465.74 1.77104 0.645474 0
M  V30 4841 C 462.867 3.2943 0.786986 0
M  V30 4842 C 461.913 4.26485 0.0362447 0
M  V30 4843 S 462.746 5.19573 -1.2963 0
M  V30 4844 C 463.902 6.24866 -0.359705 0
M  V30 4845 H 464.135 2.82254 -0.9338 0
M  V30 4846 H 461.668 1.42421 -0.596283 0
M  V30 4847 H 463.626 3.8855 1.32436 0
M  V30 4848 H 462.287 2.73745 1.54021 0
M  V30 4849 H 461.48 4.98378 0.750668 0
M  V30 4850 H 461.082 3.71508 -0.431017 0
M  V30 4851 H 463.374 6.75957 0.456954 0
M  V30 4852 H 464.317 7.00307 -1.04768 0
M  V30 4853 H 464.725 5.64484 0.0423274 0
M  V30 4854 N 464.123 0.554532 1.47522 0
M  V30 4855 C 465.369 0.0295227 2.02779 0
M  V30 4856 C 465.702 -1.31582 1.42828 0
M  V30 4857 O 464.977 -1.85561 0.582872 0
M  V30 4858 C 465.26 -0.0664057 3.60039 0
M  V30 4859 C 465.113 1.30585 4.30427 0
M  V30 4860 C 466.432 -0.781162 4.33112 0
M  V30 4861 H 463.551 0.0122027 0.736899 0
M  V30 4862 H 466.193 0.716305 1.7598 0
M  V30 4863 H 464.343 -0.651307 3.83002 0
M  V30 4864 H 466.015 1.93374 4.18813 0
M  V30 4865 H 464.258 1.88125 3.90886 0
M  V30 4866 H 464.929 1.19147 5.38988 0
M  V30 4867 H 467.405 -0.284565 4.15126 0
M  V30 4868 H 466.281 -0.817237 5.42782 0
M  V30 4869 H 466.542 -1.83672 4.0214 0
M  V30 4870 N 465.601 -1.54893 0.290851 0
M  V30 4871 C 467.012 -1.85584 -0.203816 0
M  V30 4872 C 467.363 -1.21285 -1.54222 0
M  V30 4873 O 466.488 -0.506841 -2.10381 0
M  V30 4874 C 467.083 -3.367 -0.376595 0
M  V30 4875 C 465.642 -3.6746 -0.815485 0
M  V30 4876 C 464.789 -2.77178 0.0821087 0
M  V30 4877 H 467.74 -1.50208 0.512175 0
M  V30 4878 H 467.761 -3.60656 -1.21275 0
M  V30 4879 H 467.273 -3.8347 0.59767 0
M  V30 4880 H 465.374 -3.26201 -1.80066 0
M  V30 4881 H 465.487 -4.7478 -0.641905 0
M  V30 4882 H 463.851 -2.50925 -0.436895 0
M  V30 4883 H 464.634 -3.26767 1.05254 0
M  V30 4884 N 467.08 -0.0183926 -1.57589 0
M  V30 4885 C 468.043 0.951986 -2.08494 0
M  V30 4886 C 469.043 1.26092 -0.997874 0
M  V30 4887 O 470.233 1.20304 -1.25987 0
M  V30 4888 C 467.365 2.27165 -2.54182 0
M  V30 4889 H 468.558 0.511307 -2.95509 0
M  V30 4890 H 466.111 0.229444 -1.54607 0
M  V30 4891 H 466.846 2.75884 -1.70465 0
M  V30 4892 H 466.631 2.06057 -3.33591 0
M  V30 4893 H 468.121 2.9674 -2.93828 0
M  V30 4894 N 468.558 1.5553 0.254621 0
M  V30 4895 C 469.806 1.7665 0.981793 0
M  V30 4896 C 470.127 0.580963 1.86145 0
M  V30 4897 O 469.397 -0.403537 1.91699 0
M  V30 4898 H 467.977 0.651475 0.365498 0
M  V30 4899 H 470.639 1.92958 0.274426 0
M  V30 4900 H 469.735 2.67486 1.60802 0
M  V30 4901 N 470.036 -0.519951 1.48776 0
M  V30 4902 C 471.447 -1.10177 1.50725 0
M  V30 4903 C 471.798 -1.94153 0.282678 0
M  V30 4904 O 470.923 -2.07645 -0.609298 0
M  V30 4905 C 471.518 -2.00482 2.73116 0
M  V30 4906 C 470.077 -2.53862 2.77905 0
M  V30 4907 C 469.224 -1.31047 2.44381 0
M  V30 4908 H 472.175 -0.30473 1.55747 0
M  V30 4909 H 472.196 -2.8491 2.52203 0
M  V30 4910 H 471.708 -1.39335 3.62225 0
M  V30 4911 H 469.809 -3.18702 1.93029 0
M  V30 4912 H 469.922 -2.9231 3.79594 0
M  V30 4913 H 468.286 -1.62953 1.95751 0
M  V30 4914 H 469.069 -0.71637 3.35743 0
M  V30 4915 N 471.514 -1.37532 -0.769588 0
M  V30 4916 C 472.761 -1.3286 -1.52822 0
M  V30 4917 C 473.089 0.0862597 -1.94309 0
M  V30 4918 O 472.344 1.05995 -1.6451 0
M  V30 4919 C 472.643 -2.21558 -2.8044 0
M  V30 4920 C 472.309 -3.69796 -2.57996 0
M  V30 4921 C 470.971 -4.10194 -2.51583 0
M  V30 4922 C 473.323 -4.63699 -2.37976 0
M  V30 4923 C 470.651 -5.42608 -2.23144 0
M  V30 4924 C 473.003 -5.96353 -2.1106 0
M  V30 4925 C 471.667 -6.35853 -2.03093 0
M  V30 4926 H 470.937 -0.486168 -0.559215 0
M  V30 4927 H 473.584 -1.69757 -0.886277 0
M  V30 4928 H 471.889 -1.77663 -3.49204 0
M  V30 4929 H 473.586 -2.15256 -3.38328 0
M  V30 4930 H 470.176 -3.37759 -2.63851 0
M  V30 4931 H 474.36 -4.33346 -2.41919 0
M  V30 4932 H 469.616 -5.72173 -2.15472 0
M  V30 4933 H 473.79 -6.68667 -1.94568 0
M  V30 4934 H 471.417 -7.38382 -1.8082 0
M  V30 4935 N 472.992 0.995999 -1.22138 0
M  V30 4936 C 474.217 1.77601 -1.0711 0
M  V30 4937 C 474.642 1.84339 0.374264 0
M  V30 4938 O 474 1.29359 1.27028 0
M  V30 4939 C 474.048 3.18897 -1.68336 0
M  V30 4940 O 473.152 4.01663 -0.934928 0
M  V30 4941 H 472.493 0.547011 -0.376397 0
M  V30 4942 H 475.023 1.25137 -1.6187 0
M  V30 4943 H 475.033 3.69539 -1.72931 0
M  V30 4944 H 473.708 3.13308 -2.73516 0
M  V30 4945 H 472.285 3.60204 -0.964751 0
M  V30 4946 N 474.47 1.03057 1.19235 0
M  V30 4947 C 475.719 0.72326 1.88287 0
M  V30 4948 C 476.032 -0.751333 1.80594 0
M  V30 4949 O 477.238 -1.17176 2.44912 0
M  V30 4950 C 475.694 1.24338 3.3774 0
M  V30 4951 C 475.302 2.74587 3.53986 0
M  V30 4952 C 477.046 1.01213 4.12257 0
M  V30 4953 C 474.953 3.20009 4.97341 0
M  V30 4954 H 473.883 0.266848 0.705201 0
M  V30 4955 H 476.534 1.24509 1.34795 0
M  V30 4956 H 474.916 0.649457 3.90638 0
M  V30 4957 H 476.09 3.39649 3.11408 0
M  V30 4958 H 474.405 2.9601 2.9286 0
M  V30 4959 H 477.002 1.32675 5.17978 0
M  V30 4960 H 477.345 -0.051001 4.16269 0
M  V30 4961 H 477.878 1.57014 3.65501 0
M  V30 4962 H 474.617 4.25659 4.98493 0
M  V30 4963 H 474.137 2.59676 5.40674 0
M  V30 4964 H 475.816 3.13447 5.66003 0
M  V30 4965 N 475.948 -1.35272 0.808662 0
M  V30 4966 C 476.88 -2.28507 0.178149 0
M  V30 4967 C 477.893 -1.50377 -0.623754 0
M  V30 4968 O 479.082 -1.72583 -0.455774 0
M  V30 4969 C 476.182 -3.30038 -0.769959 0
M  V30 4970 C 475.355 -4.37398 -0.0139749 0
M  V30 4971 C 474.414 -5.18775 -0.880875 0
M  V30 4972 O 473.44 -5.68236 -0.331059 0
M  V30 4973 N 474.642 -5.37087 -2.20267 0
M  V30 4974 H 477.407 -2.83255 0.979106 0
M  V30 4975 H 474.968 -1.47643 0.664308 0
M  V30 4976 H 476.96 -3.81371 -1.35418 0
M  V30 4977 H 475.53 -2.75789 -1.47171 0
M  V30 4978 H 474.75 -3.86971 0.751468 0
M  V30 4979 H 476.038 -5.06268 0.506965 0
M  V30 4980 H 475.436 -4.9855 -2.67328 0
M  V30 4981 H 473.993 -5.91593 -2.73608 0
M  V30 4982 N 477.426 -0.562348 -1.47226 0
M  V30 4983 C 478.703 0.0256985 -1.95583 0
M  V30 4984 C 479.083 1.48032 -1.50498 0
M  V30 4985 O 478.431 2.15973 -0.746181 0
M  V30 4986 C 478.641 -0.125129 -3.48776 0
M  V30 4987 C 479.989 0.0175728 -4.24596 0
M  V30 4988 O 481.013 -0.0529341 -3.56161 0
M  V30 4989 O 479.872 0.170145 -5.46235 0
M  V30 4990 H 476.966 0.0612565 -0.824728 0
M  V30 4991 H 479.512 -0.629233 -1.57603 0
M  V30 4992 H 478.284 -1.13715 -3.74412 0
M  V30 4993 H 477.907 0.567178 -3.93534 0
M  V30 4994 N 478.904 1.54736 -0.299062 0
M  V30 4995 C 479.834 2.26409 0.571085 0
M  V30 4996 C 480.815 1.2629 1.13951 0
M  V30 4997 O 482 1.55059 1.16921 0
M  V30 4998 C 479.13 3.00338 1.74396 0
M  V30 4999 C 478.084 4.07588 1.30599 0
M  V30 5000 C 477.41 4.69222 2.56387 0
M  V30 5001 C 478.71 5.20455 0.438645 0
M  V30 5002 H 480.404 2.99388 -0.0266991 0
M  V30 5003 H 477.95 1.43993 -0.0142812 0
M  V30 5004 H 479.903 3.49198 2.35878 0
M  V30 5005 H 478.627 2.24934 2.36796 0
M  V30 5006 H 477.286 3.59575 0.71424 0
M  V30 5007 H 476.934 3.9046 3.17097 0
M  V30 5008 H 476.634 5.41653 2.27784 0
M  V30 5009 H 478.158 5.20844 3.18675 0
M  V30 5010 H 479.572 5.65221 0.959085 0
M  V30 5011 H 477.969 5.99594 0.246466 0
M  V30 5012 H 479.039 4.8192 -0.536738 0
M  V30 5013 N 480.382 0.0267497 1.57577 0
M  V30 5014 C 481.659 -0.690926 1.82991 0
M  V30 5015 C 482.039 -1.90471 0.910164 0
M  V30 5016 O 481.387 -2.28474 -0.0347985 0
M  V30 5017 C 481.597 -1.07139 3.32148 0
M  V30 5018 C 482.945 -1.46402 3.98562 0
M  V30 5019 O 483.969 -1.16443 3.36629 0
M  V30 5020 O 482.828 -2.02214 5.07712 0
M  V30 5021 H 479.922 -0.338747 0.75444 0
M  V30 5022 H 482.468 0.0542506 1.69613 0
M  V30 5023 H 481.24 -0.207394 3.9075 0
M  V30 5024 H 480.863 -1.87481 3.50623 0
M  V30 5025 N 481.861 -1.55662 -0.24637 0
M  V30 5026 C 483.086 -1.81914 -0.996093 0
M  V30 5027 C 483.511 -0.603875 -1.78143 0
M  V30 5028 O 482.869 0.447091 -1.75701 0
M  V30 5029 C 482.917 -3.05908 -1.90925 0
M  V30 5030 O 482.021 -2.82861 -3.00105 0
M  V30 5031 H 481.362 -0.600481 -0.283406 0
M  V30 5032 H 483.892 -2.02848 -0.267199 0
M  V30 5033 H 483.902 -3.35356 -2.3238 0
M  V30 5034 H 482.577 -3.93999 -1.33183 0
M  V30 5035 H 481.154 -2.64583 -2.62775 0
M  V30 5036 N 483.339 0.512053 -1.4905 0
M  V30 5037 C 484.564 1.2959 -1.6193 0
M  V30 5038 C 484.989 1.85906 -0.286454 0
M  V30 5039 O 484.347 1.65312 0.744426 0
M  V30 5040 C 484.395 2.40987 -2.68249 0
M  V30 5041 O 483.499 3.44531 -2.26654 0
M  V30 5042 H 482.84 0.383053 -0.542371 0
M  V30 5043 H 485.37 0.614231 -1.95162 0
M  V30 5044 H 485.38 2.86913 -2.90078 0
M  V30 5045 H 484.055 1.99361 -3.65004 0
M  V30 5046 H 482.632 3.046 -2.15112 0
M  V30 5047 N 484.817 1.37938 0.762283 0
M  V30 5048 C 486.063 1.33866 1.52341 0
M  V30 5049 C 486.396 -0.0738961 1.94059 0
M  V30 5050 O 485.671 -1.03326 1.64785 0
M  V30 5051 C 485.954 2.28644 2.78197 0
M  V30 5052 C 485.807 3.78722 2.42672 0
M  V30 5053 C 487.126 2.21702 3.80179 0
M  V30 5054 H 484.245 0.487593 0.55265 0
M  V30 5055 H 486.887 1.68717 0.873767 0
M  V30 5056 H 485.037 1.99055 3.33631 0
M  V30 5057 H 486.709 4.18948 1.93081 0
M  V30 5058 H 484.952 3.96827 1.75244 0
M  V30 5059 H 485.623 4.40486 3.3268 0
M  V30 5060 H 488.099 2.47805 3.34263 0
M  V30 5061 H 486.975 2.90143 4.65949 0
M  V30 5062 H 487.236 1.21301 4.25133 0
M  V30 5063 N 486.295 -0.989507 1.22664 0
M  V30 5064 C 487.711 -1.25395 0.987331 0
M  V30 5065 C 487.911 -1.9899 -0.317056 0
M  V30 5066 O 486.967 -2.30141 -1.03882 0
M  V30 5067 C 488.28 -2.06242 2.18826 0
M  V30 5068 C 489.828 -2.19413 2.23219 0
M  V30 5069 C 490.303 -3.03648 3.42873 0
M  V30 5070 N 491.794 -3.11234 3.43056 0
M  V30 5071 C 492.529 -3.7671 4.32293 0
M  V30 5072 N 492.025 -4.44085 5.31752 0
M  V30 5073 N 493.818 -3.73505 4.2006 0
M  V30 5074 H 485.969 -0.496212 2.06522 0
M  V30 5075 H 488.232 -0.281784 0.905153 0
M  V30 5076 H 487.938 -1.59531 3.13437 0
M  V30 5077 H 487.812 -3.06996 2.19165 0
M  V30 5078 H 490.199 -2.65336 1.29154 0
M  V30 5079 H 490.28 -1.18078 2.26917 0
M  V30 5080 H 489.924 -2.58424 4.37241 0
M  V30 5081 H 489.854 -4.05132 3.36416 0
M  V30 5082 H 492.345 -2.63287 2.71088 0
M  V30 5083 H 492.658 -4.91797 5.96117 0
M  V30 5084 H 491.003 -4.42822 5.35662 0
M  V30 5085 H 494.194 -3.20033 3.41609 0
M  V30 5086 H 494.367 -4.24253 4.8981 0
M  V30 5087 N 487.773 -1.03688 -1.18687 0
M  V30 5088 C 489.021 -0.736572 -1.88199 0
M  V30 5089 C 489.342 0.737665 -1.80509 0
M  V30 5090 O 488.612 1.53204 -1.22088 0
M  V30 5091 H 487.192 -0.269466 -0.696704 0
M  V30 5092 H 489.854 -1.31282 -1.44052 0
M  V30 5093 H 488.95 -1.03802 -2.94332 0
M  V30 5094 N 489.251 1.34841 -0.815825 0
M  V30 5095 C 490.667 1.51543 -0.500697 0
M  V30 5096 C 490.867 1.76261 0.976444 0
M  V30 5097 O 489.923 1.8094 1.76117 0
M  V30 5098 C 491.236 2.68487 -1.35407 0
M  V30 5099 C 492.784 2.82368 -1.35046 0
M  V30 5100 C 493.259 4.02347 -2.18816 0
M  V30 5101 N 494.75 4.09542 -2.16402 0
M  V30 5102 C 495.485 5.01517 -2.77971 0
M  V30 5103 N 494.981 5.98763 -3.48503 0
M  V30 5104 N 496.774 4.94334 -2.67563 0
M  V30 5105 H 488.925 1.17055 -1.77234 0
M  V30 5106 H 491.188 0.573481 -0.754866 0
M  V30 5107 H 490.894 2.56829 -2.40274 0
M  V30 5108 H 490.768 3.63321 -1.01377 0
M  V30 5109 H 493.155 2.93471 -0.309604 0
M  V30 5110 H 493.236 1.88363 -1.73069 0
M  V30 5111 H 492.88 3.92004 -3.22948 0
M  V30 5112 H 492.81 4.95551 -1.78148 0
M  V30 5113 H 495.301 3.39932 -1.65091 0
M  V30 5114 H 495.614 6.6556 -3.92747 0
M  V30 5115 H 493.959 5.98909 -3.52609 0
M  V30 5116 H 497.15 4.1732 -2.12041 0
M  V30 5117 H 497.323 5.6582 -3.15834 0
M  V30 5118 N 490.729 0.570148 1.46925 0
M  V30 5119 C 491.659 -0.158274 2.32963 0
M  V30 5120 C 492.64 -0.896093 1.44583 0
M  V30 5121 O 493.825 -0.874022 1.7342 0
M  V30 5122 C 490.955 -1.18055 3.26619 0
M  V30 5123 C 489.909 -0.558379 4.24342 0
M  V30 5124 C 489.235 -1.68623 5.07415 0
M  V30 5125 C 490.535 0.496295 5.19937 0
M  V30 5126 H 492.229 0.560046 2.94115 0
M  V30 5127 H 489.775 0.270775 1.41431 0
M  V30 5128 H 491.728 -1.69841 3.85658 0
M  V30 5129 H 490.452 -1.92899 2.63548 0
M  V30 5130 H 489.111 -0.0617157 3.66548 0
M  V30 5131 H 488.759 -2.42402 4.40738 0
M  V30 5132 H 488.459 -1.27564 5.73586 0
M  V30 5133 H 489.983 -2.20709 5.69315 0
M  V30 5134 H 491.397 0.0640052 5.73264 0
M  V30 5135 H 489.794 0.82649 5.94381 0
M  V30 5136 H 490.864 1.38735 4.6463 0
M  V30 5137 N 492.207 -1.54576 0.307264 0
M  V30 5138 C 493.484 -1.92377 -0.353605 0
M  V30 5139 C 493.864 -1.23517 -1.71192 0
M  V30 5140 O 493.212 -0.373101 -2.25433 0
M  V30 5141 C 493.422 -3.45928 -0.462039 0
M  V30 5142 C 494.77 -4.18278 -0.729975 0
M  V30 5143 O 495.794 -3.51997 -0.545605 0
M  V30 5144 O 494.653 -5.3563 -1.08454 0
M  V30 5145 H 491.747 -0.802747 -0.198812 0
M  V30 5146 H 494.293 -1.65929 0.355783 0
M  V30 5147 H 493.065 -3.88187 0.492592 0
M  V30 5148 H 492.688 -3.78431 -1.21965 0
M  V30 5149 N 493.685 -0.035106 -1.57561 0
M  V30 5150 C 494.931 0.64318 -1.92331 0
M  V30 5151 C 495.264 1.71434 -0.912368 0
M  V30 5152 O 494.539 1.94395 0.0640303 0
M  V30 5153 C 494.822 1.25411 -3.37556 0
M  V30 5154 C 494.675 0.192109 -4.4939 0
M  V30 5155 C 495.994 2.17041 -3.82859 0
M  V30 5156 H 493.113 0.232341 -0.699419 0
M  V30 5157 H 495.755 -0.0935889 -1.89769 0
M  V30 5158 H 493.905 1.88205 -3.39869 0
M  V30 5159 H 495.577 -0.438849 -4.59208 0
M  V30 5160 H 493.82 -0.481725 -4.31117 0
M  V30 5161 H 494.491 0.659292 -5.48049 0
M  V30 5162 H 496.967 1.64228 -3.8232 0
M  V30 5163 H 495.843 2.56738 -4.85157 0
M  V30 5164 H 496.104 3.06401 -3.18702 0
M  V30 5165 N 495.163 1.55791 0.238111 0
M  V30 5166 C 496.073 1.94196 1.31625 0
M  V30 5167 C 497.089 0.843545 1.52185 0
M  V30 5168 O 498.265 1.1457 1.65637 0
M  V30 5169 C 495.33 2.2365 2.64918 0
M  V30 5170 C 494.391 3.46971 2.52804 0
M  V30 5171 C 493.624 3.7501 3.79741 0
M  V30 5172 O 493.847 3.04982 4.82019 0
M  V30 5173 O 492.781 4.68525 3.77846 0
M  V30 5174 H 496.607 2.86044 1.02043 0
M  V30 5175 H 494.192 1.42786 0.439603 0
M  V30 5176 H 496.074 2.43863 3.4367 0
M  V30 5177 H 494.749 1.34979 2.94215 0
M  V30 5178 H 493.656 3.32055 1.72309 0
M  V30 5179 H 494.989 4.35971 2.28451 0
M  V30 5180 N 496.642 -0.504142 1.49319 0
M  V30 5181 C 497.888 -1.26033 1.58882 0
M  V30 5182 C 498.221 -1.92268 0.273274 0
M  V30 5183 O 497.496 -1.80567 -0.72291 0
M  V30 5184 C 497.779 -2.32976 2.7458 0
M  V30 5185 C 497.632 -1.71263 4.1592 0
M  V30 5186 C 498.951 -3.34561 2.85932 0
M  V30 5187 H 496.07 -0.456863 0.578312 0
M  V30 5188 H 498.712 -0.558965 1.81592 0
M  V30 5189 H 496.862 -2.92796 2.55348 0
M  V30 5190 H 498.534 -1.15294 4.4666 0
M  V30 5191 H 496.777 -1.01686 4.21714 0
M  V30 5192 H 497.448 -2.48816 4.92742 0
M  V30 5193 H 499.924 -2.84727 3.0343 0
M  V30 5194 H 498.8 -4.06754 3.68568 0
M  V30 5195 H 499.061 -3.96695 1.95154 0
M  V30 5196 N 498.12 -1.38341 -0.754957 0
M  V30 5197 C 499.369 -1.33791 -1.5094 0
M  V30 5198 C 499.682 0.0699267 -1.95475 0
M  V30 5199 O 500.888 0.237956 -2.70455 0
M  V30 5200 C 499.344 -2.34934 -2.72643 0
M  V30 5201 C 498.952 -3.81332 -2.35138 0
M  V30 5202 C 500.696 -2.39425 -3.50536 0
M  V30 5203 C 498.603 -4.74164 -3.53444 0
M  V30 5204 H 497.533 -0.497314 -0.566741 0
M  V30 5205 H 500.184 -1.63888 -0.825403 0
M  V30 5206 H 498.566 -1.97878 -3.43017 0
M  V30 5207 H 499.74 -4.27319 -1.7244 0
M  V30 5208 H 498.055 -3.79946 -1.70382 0
M  V30 5209 H 500.652 -3.0598 -4.38498 0
M  V30 5210 H 500.995 -1.41278 -3.91594 0
M  V30 5211 H 501.528 -2.75274 -2.87174 0
M  V30 5212 H 498.267 -5.73501 -3.17453 0
M  V30 5213 H 497.787 -4.3287 -4.15191 0
M  V30 5214 H 499.466 -4.92111 -4.20043 0
M  V30 5215 N 499.598 0.982988 -1.23187 0
M  V30 5216 C 500.508 2.10907 -1.02739 0
M  V30 5217 C 501.524 1.73979 0.0273188 0
M  V30 5218 O 502.7 2.00702 -0.16757 0
M  V30 5219 C 499.765 3.41142 -0.618304 0
M  V30 5220 C 498.826 3.92112 -1.74777 0
M  V30 5221 C 498.059 5.16131 -1.3581 0
M  V30 5222 O 498.282 5.6989 -0.241201 0
M  V30 5223 O 497.216 5.61103 -2.17824 0
M  V30 5224 H 501.042 2.31046 -1.97108 0
M  V30 5225 H 498.627 1.09284 -1.01869 0
M  V30 5226 H 500.509 4.19488 -0.400982 0
M  V30 5227 H 499.184 3.2234 0.296421 0
M  V30 5228 H 498.091 3.14895 -2.0197 0
M  V30 5229 H 499.424 4.15364 -2.64071 0
M  V30 5230 N 501.076 1.04316 1.18135 0
M  V30 5231 C 502.008 0.594444 2.21357 0
M  V30 5232 C 503.021 -0.337215 1.59269 0
M  V30 5233 O 504.21 -0.131337 1.78016 0
M  V30 5234 C 501.31 -0.151251 3.38562 0
M  V30 5235 C 500.483 0.788907 4.30227 0
M  V30 5236 C 499.542 0.0860572 5.2613 0
M  V30 5237 O 498.568 0.717302 5.64662 0
M  V30 5238 N 499.77 -1.17969 5.68387 0
M  V30 5239 H 502.535 1.48227 2.60478 0
M  V30 5240 H 500.096 0.92396 1.32946 0
M  V30 5241 H 502.088 -0.631352 3.99745 0
M  V30 5242 H 500.658 -0.940639 2.98112 0
M  V30 5243 H 499.878 1.44882 3.6661 0
M  V30 5244 H 501.166 1.42738 4.88368 0
M  V30 5245 H 500.564 -1.71302 5.3914 0
M  V30 5246 H 499.121 -1.60402 6.31755 0
M  V30 5247 N 502.554 -1.34406 0.822964 0
M  V30 5248 C 503.502 -2.31428 0.233165 0
M  V30 5249 C 504.496 -1.57404 -0.626118 0
M  V30 5250 O 505.702 -1.72402 -0.517453 0
M  V30 5251 H 502.077 -0.749863 0.0566557 0
M  V30 5252 H 504.048 -2.78699 1.06628 0
M  V30 5253 C 502.797 -3.42653 -0.590264 0
M  V30 5254 H 502.12 -3.99753 0.0616129 0
M  V30 5255 H 503.56 -4.12778 -0.969054 0
M  V30 5256 C 502.019 -2.87112 -1.76262 0
M  V30 5257 O 502.549 -2.81995 -2.8608 0
M  V30 5258 N 500.755 -2.43934 -1.57938 0
M  V30 5259 H 500.302 -2.48296 -0.686078 0
M  V30 5260 H 500.26 -2.07123 -2.36532 0
M  V30 5261 N 504.032 -0.577932 -1.46621 0
M  V30 5262 C 505.28 -0.061566 -2.02006 0
M  V30 5263 C 505.601 1.30117 -1.4524 0
M  V30 5264 O 504.871 1.85313 -0.63529 0
M  V30 5265 H 503.451 -0.0197692 -0.746738 0
M  V30 5266 H 506.113 -0.752631 -1.79782 0
M  V30 5267 H 505.209 0.0110238 -3.12098 0
M  V30 5268 N 505.51 1.54411 -0.315457 0
M  V30 5269 C 506.926 1.59556 0.037464 0
M  V30 5270 C 507.126 1.33217 1.5118 0
M  V30 5271 O 506.182 1.11264 2.26664 0
M  V30 5272 C 507.495 2.98372 -0.373477 0
M  V30 5273 C 509.043 3.11324 -0.323452 0
M  V30 5274 C 509.518 4.52472 -0.709433 0
M  V30 5275 N 511.009 4.58437 -0.662524 0
M  V30 5276 C 511.744 5.65751 -0.933474 0
M  V30 5277 N 511.24 6.81039 -1.27114 0
M  V30 5278 N 513.033 5.55489 -0.859573 0
M  V30 5279 H 505.184 1.6979 -1.27614 0
M  V30 5280 H 507.447 0.793732 -0.518356 0
M  V30 5281 H 507.153 3.22618 -1.40037 0
M  V30 5282 H 507.027 3.76264 0.265615 0
M  V30 5283 H 509.414 2.86818 0.694223 0
M  V30 5284 H 509.495 2.35555 -0.997367 0
M  V30 5285 H 509.139 4.7771 -1.72498 0
M  V30 5286 H 509.069 5.26598 -0.0132923 0
M  V30 5287 H 511.56 3.75636 -0.413065 0
M  V30 5288 H 511.873 7.58816 -1.46348 0
M  V30 5289 H 510.218 6.82555 -1.30932 0
M  V30 5290 H 513.409 4.64299 -0.595324 0
M  V30 5291 H 513.582 6.39036 -1.0741 0
M  V30 5292 N 506.988 0.0434614 1.5754 0
M  V30 5293 C 507.935 -0.93356 2.11077 0
M  V30 5294 C 508.905 -1.31383 1.01626 0
M  V30 5295 O 510.09 -1.40465 1.29129 0
M  V30 5296 C 507.23 -2.20578 2.65404 0
M  V30 5297 C 506.343 -1.88068 3.88914 0
M  V30 5298 C 505.478 -3.09691 4.31584 0
M  V30 5299 C 504.517 -2.73067 5.47815 0
M  V30 5300 N 503.654 -3.87359 5.85574 0
M  V30 5301 H 508.494 -0.470118 2.94268 0
M  V30 5302 H 506.031 -0.220434 1.45439 0
M  V30 5303 H 507.989 -2.95011 2.94999 0
M  V30 5304 H 506.619 -2.64513 1.85021 0
M  V30 5305 H 505.671 -1.03816 3.6596 0
M  V30 5306 H 506.983 -1.57104 4.73413 0
M  V30 5307 H 506.137 -3.92431 4.62691 0
M  V30 5308 H 504.876 -3.43827 3.45882 0
M  V30 5309 H 503.881 -1.88742 5.16388 0
M  V30 5310 H 505.106 -2.40131 6.35227 0
M  V30 5311 H 503.052 -4.21311 5.02825 0
M  V30 5312 H 502.969 -3.60068 6.64746 0
M  V30 5313 H 504.237 -4.70761 6.21292 0
M  V30 5314 N 508.466 -1.55915 -0.229846 0
M  V30 5315 C 509.413 -1.91734 -1.28478 0
M  V30 5316 C 510.383 -0.773539 -1.46988 0
M  V30 5317 O 511.568 -1.02871 -1.60693 0
M  V30 5318 C 508.708 -2.23224 -2.63182 0
M  V30 5319 C 507.821 -3.50497 -2.52539 0
M  V30 5320 C 506.956 -3.71474 -3.79711 0
M  V30 5321 C 505.995 -4.92289 -3.63755 0
M  V30 5322 N 505.132 -5.09698 -4.82858 0
M  V30 5323 H 509.972 -2.81692 -0.972308 0
M  V30 5324 H 507.509 -1.39429 -0.468815 0
M  V30 5325 H 509.467 -2.3949 -3.41614 0
M  V30 5326 H 508.097 -1.36451 -2.92542 0
M  V30 5327 H 507.149 -3.4247 -1.65585 0
M  V30 5328 H 508.461 -4.39079 -2.36666 0
M  V30 5329 H 507.615 -3.87791 -4.66586 0
M  V30 5330 H 506.354 -2.81157 -3.985 0
M  V30 5331 H 505.359 -4.7593 -2.75264 0
M  V30 5332 H 506.584 -5.84083 -3.46445 0
M  V30 5333 H 504.53 -4.22322 -5.01976 0
M  V30 5334 H 504.447 -5.92399 -4.69681 0
M  V30 5335 H 505.715 -5.30443 -5.71183 0
M  V30 5336 N 509.944 0.496216 -1.49584 0
M  V30 5337 C 511.172 1.27394 -1.63029 0
M  V30 5338 C 511.587 1.86344 -0.303569 0
M  V30 5339 O 510.944 1.68057 0.711547 0
M  V30 5340 C 510.995 2.40077 -2.70269 0
M  V30 5341 O 510.716 1.83549 -3.97796 0
M  V30 5342 C 512.217 3.31372 -2.94462 0
M  V30 5343 H 509.437 0.386211 -0.54871 0
M  V30 5344 H 511.981 0.595163 -1.95648 0
M  V30 5345 H 510.136 3.03775 -2.40415 0
M  V30 5346 H 510.55 2.57561 -4.56905 0
M  V30 5347 H 512.024 4.06707 -3.73221 0
M  V30 5348 H 512.501 3.88654 -2.0456 0
M  V30 5349 H 513.107 2.73435 -3.25751 0
M  V30 5350 N 511.423 1.38739 0.74761 0
M  V30 5351 C 512.67 1.35274 1.50689 0
M  V30 5352 C 512.998 -0.0553359 1.94421 0
M  V30 5353 O 512.253 -1.03365 1.66175 0
M  V30 5354 C 512.552 2.25992 2.7688 0
M  V30 5355 C 512.218 3.73854 2.5208 0
M  V30 5356 C 510.88 4.14145 2.45025 0
M  V30 5357 C 513.232 4.67427 2.30568 0
M  V30 5358 C 510.56 5.4609 2.14483 0
M  V30 5359 C 512.912 5.99635 2.01545 0
M  V30 5360 C 511.576 6.39004 1.92951 0
M  V30 5361 H 510.846 0.495003 0.55141 0
M  V30 5362 H 513.493 1.71145 0.859158 0
M  V30 5363 H 511.798 1.83196 3.46333 0
M  V30 5364 H 513.495 2.20611 3.34861 0
M  V30 5365 H 510.085 3.41913 2.58444 0
M  V30 5366 H 514.269 4.3714 2.34994 0
M  V30 5367 H 509.525 5.75528 2.06342 0
M  V30 5368 H 513.699 6.71678 1.83906 0
M  V30 5369 H 511.326 7.41165 1.6905 0
M  V30 5370 N 512.901 -0.976442 1.23707 0
M  V30 5371 C 513.833 -2.07212 0.979574 0
M  V30 5372 C 514.846 -1.6273 -0.0478528 0
M  V30 5373 O 516.035 -1.77506 0.18815 0
M  V30 5374 C 513.135 -3.35835 0.45479 0
M  V30 5375 C 512.308 -4.09268 1.54331 0
M  V30 5376 C 511.367 -5.16166 1.02271 0
M  V30 5377 O 510.393 -5.42827 1.71254 0
M  V30 5378 N 511.595 -5.80313 -0.147419 0
M  V30 5379 H 514.36 -2.29878 1.92292 0
M  V30 5380 H 511.921 -1.14343 1.14618 0
M  V30 5381 H 513.913 -4.04597 0.0914631 0
M  V30 5382 H 512.483 -3.10106 -0.394068 0
M  V30 5383 H 511.703 -3.34906 2.07923 0
M  V30 5384 H 512.991 -4.55095 2.27522 0
M  V30 5385 H 512.389 -5.61043 -0.724353 0
M  V30 5386 H 510.946 -6.50231 -0.451972 0
M  V30 5387 N 514.379 -1.04941 -1.1758 0
M  V30 5388 C 515.625 -0.759112 -1.88057 0
M  V30 5389 C 515.958 0.711918 -1.8068 0
M  V30 5390 O 515.233 1.52035 -1.21308 0
M  V30 5391 C 515.516 -1.237 -3.38187 0
M  V30 5392 C 515.369 -2.77078 -3.54327 0
M  V30 5393 C 516.688 -0.834014 -4.32125 0
M  V30 5394 H 513.807 -0.277237 -0.682868 0
M  V30 5395 H 516.449 -1.30296 -1.38286 0
M  V30 5396 H 514.599 -0.774337 -3.80705 0
M  V30 5397 H 516.271 -3.31449 -3.20842 0
M  V30 5398 H 514.514 -3.16477 -2.96689 0
M  V30 5399 H 515.185 -3.05577 -4.59703 0
M  V30 5400 H 517.661 -1.23228 -3.97434 0
M  V30 5401 H 516.537 -1.19603 -5.35711 0
M  V30 5402 H 516.798 0.262195 -4.41322 0
M  V30 5403 N 515.857 1.33968 -0.830081 0
M  V30 5404 C 517.134 1.92554 -0.343858 0
M  V30 5405 C 517.514 1.7573 1.16971 0
M  V30 5406 O 516.862 1.14035 1.98011 0
M  V30 5407 C 517.072 3.40147 -0.781073 0
M  V30 5408 C 518.42 4.17299 -0.78402 0
M  V30 5409 O 519.444 3.48762 -0.724112 0
M  V30 5410 O 518.303 5.39631 -0.863739 0
M  V30 5411 H 515.397 0.821469 -0.0954827 0
M  V30 5412 H 517.943 1.42897 -0.915348 0
M  V30 5413 H 516.715 3.46225 -1.82329 0
M  V30 5414 H 516.338 3.97166 -0.18567 0
M  V30 5415 N 517.335 0.585699 1.46312 0
M  V30 5416 C 518.563 0.0781299 2.06752 0
M  V30 5417 C 518.978 -1.22812 1.43396 0
M  V30 5418 O 518.335 -1.74318 0.540314 0
M  V30 5419 C 518.386 -0.0911927 3.61385 0
M  V30 5420 O 518.107 1.16336 4.22371 0
M  V30 5421 C 519.608 -0.632765 4.38761 0
M  V30 5422 H 516.828 0.0588188 0.668417 0
M  V30 5423 H 519.372 0.807218 1.87894 0
M  V30 5424 H 517.527 -0.770514 3.7966 0
M  V30 5425 H 517.941 0.979082 5.15281 0
M  V30 5426 H 519.415 -0.70041 5.47538 0
M  V30 5427 H 519.892 -1.65039 4.07012 0
M  V30 5428 H 520.498 0.0117856 4.25298 0
M  V30 5429 N 518.813 -1.54241 0.323641 0
M  V30 5430 C 519.776 -2.22997 -0.529602 0
M  V30 5431 C 520.776 -1.22345 -1.04347 0
M  V30 5432 O 521.966 -1.46924 -0.935889 0
M  V30 5433 C 519.098 -2.93409 -1.73562 0
M  V30 5434 H 520.291 -2.99815 0.0714518 0
M  V30 5435 H 517.844 -1.56121 0.0747258 0
M  V30 5436 H 518.579 -2.20729 -2.37591 0
M  V30 5437 H 518.364 -3.67217 -1.37456 0
M  V30 5438 H 519.854 -3.45794 -2.34128 0
M  V30 5439 N 520.291 -0.0518155 -1.57515 0
M  V30 5440 C 521.516 0.634896 -1.97443 0
M  V30 5441 C 521.941 1.63546 -0.929207 0
M  V30 5442 O 521.299 1.80981 0.107484 0
M  V30 5443 C 521.347 1.29765 -3.36442 0
M  V30 5444 O 520.451 2.41333 -3.34413 0
M  V30 5445 H 519.792 0.164994 -0.643174 0
M  V30 5446 H 522.322 -0.120407 -2.04245 0
M  V30 5447 H 522.332 1.64918 -3.73184 0
M  V30 5448 H 521.007 0.564361 -4.12053 0
M  V30 5449 H 519.584 2.08122 -3.09418 0
M  V30 5450 N 521.769 1.56035 0.221574 0
M  V30 5451 C 523.015 1.79312 0.947372 0
M  V30 5452 C 523.348 0.621453 1.83988 0
M  V30 5453 O 522.623 -0.379287 1.90766 0
M  V30 5454 C 522.906 3.1267 1.78633 0
M  V30 5455 C 522.759 4.40284 0.920312 0
M  V30 5456 C 524.078 3.4247 2.7641 0
M  V30 5457 H 521.197 0.652328 0.342982 0
M  V30 5458 H 523.839 1.88765 0.216244 0
M  V30 5459 H 521.989 3.04741 2.40967 0
M  V30 5460 H 523.661 4.60232 0.313718 0
M  V30 5461 H 521.904 4.33212 0.225734 0
M  V30 5462 H 522.575 5.30033 1.54171 0
M  V30 5463 H 525.051 3.50526 2.24211 0
M  V30 5464 H 523.927 4.3695 3.32213 0
M  V30 5465 H 524.188 2.64635 3.54148 0
M  V30 5466 N 523.247 -0.488276 1.49845 0
M  V30 5467 C 524.658 -1.06955 1.53028 0
M  V30 5468 C 525.009 -1.9351 0.323797 0
M  V30 5469 O 524.134 -2.08891 -0.565116 0
M  V30 5470 C 524.729 -1.94643 2.77307 0
M  V30 5471 C 523.288 -2.4791 2.83227 0
M  V30 5472 C 522.435 -1.25833 2.47106 0
M  V30 5473 H 525.386 -0.271626 1.56358 0
M  V30 5474 H 525.407 -2.79496 2.5819 0
M  V30 5475 H 524.919 -1.31621 3.65099 0
M  V30 5476 H 523.02 -3.14535 1.99745 0
M  V30 5477 H 523.133 -2.84193 3.85709 0
M  V30 5478 H 521.497 -1.58764 1.99163 0
M  V30 5479 H 522.28 -0.644993 3.37186 0
M  V30 5480 N 524.725 -1.39134 -0.740242 0
M  V30 5481 C 525.955 -1.39132 -1.52728 0
M  V30 5482 C 526.363 0.0173133 -1.89192 0
M  V30 5483 O 525.706 0.997715 -1.54244 0
M  V30 5484 C 525.768 -2.1952 -2.84695 0
M  V30 5485 C 525.432 -3.68203 -2.70695 0
M  V30 5486 C 526.429 -4.61401 -2.39593 0
M  V30 5487 C 524.114 -4.11724 -2.8773 0
M  V30 5488 C 526.108 -5.96102 -2.25701 0
M  V30 5489 C 523.795 -5.46503 -2.73456 0
M  V30 5490 C 524.793 -6.38506 -2.42486 0
M  V30 5491 O 524.481 -7.70803 -2.28295 0
M  V30 5492 H 524.213 -0.477263 -0.478744 0
M  V30 5493 H 526.767 -1.83504 -0.922799 0
M  V30 5494 H 524.997 -1.69888 -3.47383 0
M  V30 5495 H 526.686 -2.1176 -3.46284 0
M  V30 5496 H 527.452 -4.29079 -2.26088 0
M  V30 5497 H 523.331 -3.4045 -3.10829 0
M  V30 5498 H 526.875 -6.6788 -2.0145 0
M  V30 5499 H 522.772 -5.78417 -2.86538 0
M  V30 5500 H 523.54 -7.8147 -2.43405 0
M  V30 5501 N 526.204 0.969867 -1.24223 0
M  V30 5502 C 527.134 2.08191 -1.05729 0
M  V30 5503 C 528.115 1.70075 0.0290765 0
M  V30 5504 O 529.3 1.93712 -0.137583 0
M  V30 5505 C 526.43 3.40991 -0.658995 0
M  V30 5506 C 525.384 3.93054 -1.69389 0
M  V30 5507 C 524.71 5.22171 -1.15072 0
M  V30 5508 C 526.01 4.21137 -3.08935 0
M  V30 5509 H 527.704 2.23921 -1.98746 0
M  V30 5510 H 525.25 1.07602 -0.956967 0
M  V30 5511 H 527.203 4.18221 -0.51662 0
M  V30 5512 H 525.927 3.25155 0.30686 0
M  V30 5513 H 524.586 3.17977 -1.82444 0
M  V30 5514 H 524.234 5.02694 -0.175539 0
M  V30 5515 H 523.934 5.57973 -1.84229 0
M  V30 5516 H 525.458 6.02013 -1.02042 0
M  V30 5517 H 526.872 4.8908 -2.99121 0
M  V30 5518 H 525.269 4.68163 -3.75425 0
M  V30 5519 H 526.339 3.27996 -3.57137 0
M  V30 5520 N 527.682 1.05563 1.17022 0
M  V30 5521 C 528.91 0.78845 1.91288 0
M  V30 5522 C 529.325 -0.656318 1.77025 0
M  V30 5523 O 528.682 -1.44869 1.10992 0
M  V30 5524 C 528.733 1.16444 3.42232 0
M  V30 5525 O 528.454 2.5525 3.5606 0
M  V30 5526 C 529.955 0.923937 4.33565 0
M  V30 5527 H 527.175 0.286389 0.606813 0
M  V30 5528 H 529.719 1.4073 1.48375 0
M  V30 5529 H 527.874 0.590266 3.82877 0
M  V30 5530 H 528.288 2.70097 4.49609 0
M  V30 5531 H 529.762 1.23672 5.37968 0
M  V30 5532 H 530.239 -0.140688 4.38975 0
M  V30 5533 H 530.845 1.48214 3.98639 0
M  V30 5534 N 529.16 -1.33526 0.837174 0
M  V30 5535 C 530.576 -1.50727 0.524743 0
M  V30 5536 C 530.776 -1.77792 -0.948279 0
M  V30 5537 O 529.832 -1.83719 -1.73216 0
M  V30 5538 C 531.145 -2.66299 1.39661 0
M  V30 5539 C 532.693 -2.80183 1.39521 0
M  V30 5540 C 533.168 -3.98815 2.25189 0
M  V30 5541 N 534.659 -4.06047 2.2289 0
M  V30 5542 C 535.394 -4.97032 2.85915 0
M  V30 5543 N 534.89 -5.93143 3.57985 0
M  V30 5544 N 536.683 -4.90015 2.75394 0
M  V30 5545 H 528.834 -1.1422 1.79074 0
M  V30 5546 H 531.097 -0.561399 0.763894 0
M  V30 5547 H 530.803 -2.52974 2.4433 0
M  V30 5548 H 530.677 -3.61663 1.07145 0
M  V30 5549 H 533.064 -2.92942 0.356253 0
M  V30 5550 H 533.145 -1.85586 1.76044 0
M  V30 5551 H 532.789 -3.86817 3.29143 0
M  V30 5552 H 532.719 -4.92654 1.86009 0
M  V30 5553 H 535.21 -3.37262 1.70478 0
M  V30 5554 H 535.523 -6.59227 4.03286 0
M  V30 5555 H 533.868 -5.93223 3.62093 0
M  V30 5556 H 537.059 -4.13894 2.18654 0
M  V30 5557 H 537.232 -5.60724 3.24796 0
M  V30 5558 N 530.638 -0.59345 -1.46 0
M  V30 5559 C 532.049 -0.169801 -1.85926 0
M  V30 5560 C 532.4 1.26984 -1.49565 0
M  V30 5561 O 531.525 1.96076 -0.915602 0
M  V30 5562 C 532.12 -0.301385 -3.37457 0
M  V30 5563 C 530.679 0.0674684 -3.7634 0
M  V30 5564 C 529.826 -0.632383 -2.69993 0
M  V30 5565 H 532.777 -0.801014 -1.37002 0
M  V30 5566 H 532.798 0.470331 -3.77582 0
M  V30 5567 H 532.31 -1.34927 -3.63891 0
M  V30 5568 H 530.411 1.11507 -3.55523 0
M  V30 5569 H 530.524 -0.316332 -4.78055 0
M  V30 5570 H 528.888 -0.0714961 -2.546 0
M  V30 5571 H 529.671 -1.68212 -2.99265 0
M  V30 5572 N 532.116 1.54067 -0.331816 0
M  V30 5573 C 533.364 2.00319 0.267739 0
M  V30 5574 C 533.685 1.22148 1.52003 0
M  V30 5575 O 532.955 0.325494 1.93177 0
M  V30 5576 H 531.535 0.740014 0.101922 0
M  V30 5577 H 534.197 1.89628 -0.450267 0
M  V30 5578 H 533.293 3.07765 0.518385 0
M  V30 5579 N 533.594 0.0601682 1.57485 0
M  V30 5580 C 534.526 -0.94047 2.09016 0
M  V30 5581 C 535.539 -1.26897 1.01985 0
M  V30 5582 O 536.728 -1.22819 1.29529 0
M  V30 5583 C 533.828 -2.25955 2.52582 0
M  V30 5584 C 533.001 -2.11163 3.83052 0
M  V30 5585 C 532.06 -3.26273 4.12835 0
M  V30 5586 O 531.086 -3.01779 4.82616 0
M  V30 5587 N 532.288 -4.51022 3.65458 0
M  V30 5588 H 535.053 -0.500578 2.9549 0
M  V30 5589 H 532.614 -0.125852 1.6141 0
M  V30 5590 H 534.606 -3.01846 2.69575 0
M  V30 5591 H 533.176 -2.61481 1.71308 0
M  V30 5592 H 532.396 -1.19808 3.75552 0
M  V30 5593 H 533.684 -1.98517 4.68475 0
M  V30 5594 H 533.082 -4.73811 3.09062 0
M  V30 5595 H 531.639 -5.23978 3.87673 0
M  V30 5596 N 535.072 -1.5615 -0.213296 0
M  V30 5597 C 536.318 -1.79812 -0.937849 0
M  V30 5598 C 536.651 -0.631201 -1.83656 0
M  V30 5599 O 535.926 0.369165 -1.90964 0
M  V30 5600 C 536.209 -3.13613 -1.76972 0
M  V30 5601 C 536.062 -4.40766 -0.89695 0
M  V30 5602 C 537.381 -3.43931 -2.7459 0
M  V30 5603 H 534.5 -0.654138 -0.339518 0
M  V30 5604 H 537.142 -1.88877 -0.20623 0
M  V30 5605 H 535.292 -3.06015 -2.39347 0
M  V30 5606 H 536.964 -4.60392 -0.289306 0
M  V30 5607 H 535.207 -4.33326 -0.202756 0
M  V30 5608 H 535.878 -5.30843 -1.51358 0
M  V30 5609 H 538.354 -3.5171 -2.22349 0
M  V30 5610 H 537.23 -4.38706 -3.29891 0
M  V30 5611 H 537.491 -2.6651 -3.52739 0
M  V30 5612 N 536.55 0.480323 -1.50102 0
M  V30 5613 C 537.966 0.813295 -1.37323 0
M  V30 5614 C 538.166 1.97027 -0.422206 0
M  V30 5615 O 537.222 2.5212 0.138563 0
M  V30 5616 C 538.535 1.13404 -2.78496 0
M  V30 5617 C 540.083 1.24104 -2.87345 0
M  V30 5618 C 540.558 1.59497 -4.29331 0
M  V30 5619 N 542.049 1.66507 -4.32238 0
M  V30 5620 C 542.784 1.95378 -5.39087 0
M  V30 5621 N 542.28 2.22333 -6.56155 0
M  V30 5622 N 544.073 1.96803 -5.26522 0
M  V30 5623 H 536.224 -0.282291 -2.10516 0
M  V30 5624 H 538.487 -0.063752 -0.945854 0
M  V30 5625 H 538.193 0.357064 -3.49883 0
M  V30 5626 H 538.067 2.07251 -3.15162 0
M  V30 5627 H 540.454 2.00871 -2.16183 0
M  V30 5628 H 540.535 0.282593 -2.54234 0
M  V30 5629 H 540.179 0.832736 -5.01027 0
M  V30 5630 H 540.109 2.56477 -4.59921 0
M  V30 5631 H 542.6 1.47753 -3.47818 0
M  V30 5632 H 542.913 2.43611 -7.33399 0
M  V30 5633 H 541.258 2.19745 -6.59346 0
M  V30 5634 H 544.449 1.75235 -4.34062 0
M  V30 5635 H 544.622 2.18969 -6.09883 0
M  V30 5636 N 538.028 1.39524 0.732853 0
M  V30 5637 C 539.258 1.3994 1.51988 0
M  V30 5638 C 539.666 -0.00727973 1.89199 0
M  V30 5639 O 539.009 -0.989521 1.54771 0
M  V30 5640 C 539.071 2.21026 2.83527 0
M  V30 5641 C 538.735 3.69633 2.68738 0
M  V30 5642 C 539.732 4.62665 2.37143 0
M  V30 5643 C 537.417 4.13244 2.85542 0
M  V30 5644 C 539.411 5.97291 2.22536 0
M  V30 5645 C 537.098 5.47945 2.70554 0
M  V30 5646 C 538.096 6.39783 2.39097 0
M  V30 5647 O 537.784 7.72002 2.24204 0
M  V30 5648 H 537.516 0.479795 0.476206 0
M  V30 5649 H 540.07 1.8399 0.913054 0
M  V30 5650 H 538.3 1.71728 3.46477 0
M  V30 5651 H 539.989 2.13594 3.45156 0
M  V30 5652 H 540.755 4.30272 2.2381 0
M  V30 5653 H 536.634 3.42094 3.09019 0
M  V30 5654 H 540.178 6.68939 1.97905 0
M  V30 5655 H 536.075 5.79928 2.83466 0
M  V30 5656 H 536.843 7.8275 2.39258 0
M  V30 5657 N 539.506 -0.963266 1.24736 0
M  V30 5658 C 540.453 -2.05857 1.04363 0
M  V30 5659 C 541.423 -1.6604 -0.0444951 0
M  V30 5660 O 542.608 -1.90477 0.110999 0
M  V30 5661 C 539.748 -3.38745 0.659235 0
M  V30 5662 C 538.861 -3.9173 1.82131 0
M  V30 5663 C 537.996 -5.12906 1.38208 0
M  V30 5664 C 537.035 -5.58098 2.51382 0
M  V30 5665 N 536.172 -6.7049 2.08295 0
M  V30 5666 H 541.012 -2.22616 1.98107 0
M  V30 5667 H 538.549 -1.09103 0.986661 0
M  V30 5668 H 540.507 -4.15107 0.417371 0
M  V30 5669 H 539.137 -3.21898 -0.241201 0
M  V30 5670 H 538.189 -3.11966 2.17672 0
M  V30 5671 H 539.501 -4.21225 2.67153 0
M  V30 5672 H 538.655 -5.96657 1.09935 0
M  V30 5673 H 537.394 -4.85105 0.502456 0
M  V30 5674 H 536.399 -4.72917 2.80409 0
M  V30 5675 H 537.624 -5.87911 3.39909 0
M  V30 5676 H 535.57 -6.44416 1.22737 0
M  V30 5677 H 535.487 -6.99458 2.86869 0
M  V30 5678 H 536.755 -7.57672 1.83175 0
M  V30 5679 N 540.985 -1.06182 -1.16461 0
M  V30 5680 C 541.915 -0.692861 -2.22984 0
M  V30 5681 C 542.896 0.314122 -1.67174 0
M  V30 5682 O 544.081 0.189499 -1.93273 0
M  V30 5683 C 541.211 -0.07732 -3.47214 0
M  V30 5684 C 540.165 -1.01015 -4.15909 0
M  V30 5685 C 539.491 -0.257973 -5.34077 0
M  V30 5686 C 540.791 -2.33868 -4.67015 0
M  V30 5687 H 542.485 -1.58343 -2.54102 0
M  V30 5688 H 540.031 -0.76279 -1.22137 0
M  V30 5689 H 541.984 0.19266 -4.20959 0
M  V30 5690 H 540.708 0.848254 -3.15392 0
M  V30 5691 H 539.367 -1.26486 -3.44088 0
M  V30 5692 H 539.015 0.670684 -4.98509 0
M  V30 5693 H 538.715 -0.879638 -5.80979 0
M  V30 5694 H 540.239 0.00448788 -6.106 0
M  V30 5695 H 541.653 -2.1279 -5.32347 0
M  V30 5696 H 540.05 -2.91522 -5.24533 0
M  V30 5697 H 541.12 -2.97019 -3.83286 0
M  V30 5698 N 542.463 1.3308 -0.844243 0
M  V30 5699 C 543.709 1.97898 -0.443206 0
M  V30 5700 C 544.042 1.66699 0.99625 0
M  V30 5701 O 543.317 0.949704 1.69738 0
M  V30 5702 C 543.6 3.53801 -0.670606 0
M  V30 5703 C 543.453 3.94667 -2.15772 0
M  V30 5704 C 544.772 4.39936 -0.120226 0
M  V30 5705 H 541.891 0.718861 -0.162504 0
M  V30 5706 H 544.533 1.57633 -1.06075 0
M  V30 5707 H 542.683 3.88229 -0.14496 0
M  V30 5708 H 544.355 3.70469 -2.74865 0
M  V30 5709 H 542.598 3.44203 -2.6402 0
M  V30 5710 H 543.269 5.03275 -2.26757 0
M  V30 5711 H 545.745 4.12183 -0.5696 0
M  V30 5712 H 544.621 5.4803 -0.308984 0
M  V30 5713 H 544.882 4.31184 0.976347 0
M  V30 5714 N 543.941 0.601185 1.45683 0
M  V30 5715 C 545.166 0.0982245 2.07167 0
M  V30 5716 C 545.591 -1.20546 1.44396 0
M  V30 5717 O 544.949 -1.73247 0.534347 0
M  V30 5718 C 544.997 -0.0346976 3.60583 0
M  V30 5719 O 544.101 -1.08657 3.97828 0
M  V30 5720 H 543.442 0.0711618 0.660176 0
M  V30 5721 H 545.972 0.829376 1.87036 0
M  V30 5722 H 545.982 -0.234969 4.07323 0
M  V30 5723 H 544.657 0.917265 4.05659 0
M  V30 5724 H 543.234 -0.863275 3.6277 0
M  V30 5725 N 545.419 -1.53889 0.339982 0
M  V30 5726 C 546.667 -2.00458 -0.257112 0
M  V30 5727 C 546.988 -1.22953 -1.51353 0
M  V30 5728 O 546.258 -0.335734 -1.93002 0
M  V30 5729 H 544.838 -0.740544 -0.0979965 0
M  V30 5730 H 547.5 -1.89386 0.460317 0
M  V30 5731 H 546.596 -3.08035 -0.502057 0
M  V30 5732 N 546.897 -0.0685191 -1.57451 0
M  V30 5733 C 548.313 0.288101 -1.56978 0
M  V30 5734 C 548.513 1.70262 -1.07765 0
M  V30 5735 O 547.569 2.4135 -0.742054 0
M  V30 5736 C 548.882 0.100745 -3.00531 0
M  V30 5737 C 550.43 0.170531 -3.12535 0
M  V30 5738 C 550.905 0.0114944 -4.57999 0
M  V30 5739 N 552.396 0.0672065 -4.63151 0
M  V30 5740 C 553.131 -0.0314813 -5.73391 0
M  V30 5741 N 552.627 -0.183503 -6.92557 0
M  V30 5742 N 554.42 0.0253489 -5.62094 0
M  V30 5743 H 546.571 -0.993026 -1.87757 0
M  V30 5744 H 548.834 -0.386981 -0.865419 0
M  V30 5745 H 548.54 -0.875197 -3.40636 0
M  V30 5746 H 548.414 0.854457 -3.67395 0
M  V30 5747 H 550.801 1.13696 -2.72318 0
M  V30 5748 H 550.882 -0.614229 -2.48316 0
M  V30 5749 H 550.526 -0.951684 -4.98904 0
M  V30 5750 H 550.456 0.815617 -5.20245 0
M  V30 5751 H 552.947 0.183246 -3.77455 0
M  V30 5752 H 553.26 -0.251041 -7.72392 0
M  V30 5753 H 551.605 -0.218822 -6.94655 0
M  V30 5754 H 554.796 0.142794 -4.67882 0
M  V30 5755 H 554.969 -0.0550166 -6.47977 0
M  V30 5756 N 548.375 1.56261 0.205012 0
M  V30 5757 C 549.6 1.84491 0.947512 0
M  V30 5758 C 550.025 0.650894 1.76479 0
M  V30 5759 O 549.383 -0.40035 1.76824 0
M  V30 5760 C 549.431 3.10863 1.82747 0
M  V30 5761 O 548.535 2.90719 2.925 0
M  V30 5762 H 547.876 0.607783 0.267386 0
M  V30 5763 H 550.406 2.03485 0.213323 0
M  V30 5764 H 550.416 3.41399 2.23407 0
M  V30 5765 H 549.091 3.97392 1.2269 0
M  V30 5766 H 547.668 2.71457 2.55667 0
M  V30 5767 N 549.853 -0.472356 1.50355 0
M  V30 5768 C 551.269 -0.806001 1.37753 0
M  V30 5769 C 551.469 -1.968 0.432649 0
M  V30 5770 O 550.525 -2.52189 -0.12519 0
M  V30 5771 C 551.838 -1.11926 2.79093 0
M  V30 5772 C 553.386 -1.22579 2.87999 0
M  V30 5773 C 553.861 -1.57218 4.3017 0
M  V30 5774 N 555.352 -1.64212 4.33115 0
M  V30 5775 C 556.087 -1.92517 5.40116 0
M  V30 5776 N 555.583 -2.1885 6.57325 0
M  V30 5777 N 557.376 -1.94008 5.27558 0
M  V30 5778 H 549.527 0.293451 2.10363 0
M  V30 5779 H 551.79 0.0687672 0.945503 0
M  V30 5780 H 551.496 -0.338504 3.50067 0
M  V30 5781 H 551.37 -2.05577 3.16256 0
M  V30 5782 H 553.757 -1.99722 2.17245 0
M  V30 5783 H 553.838 -0.269107 2.54381 0
M  V30 5784 H 553.482 -0.806154 5.01461 0
M  V30 5785 H 553.412 -2.54034 4.61275 0
M  V30 5786 H 555.903 -1.45906 3.48597 0
M  V30 5787 H 556.216 -2.39718 7.3468 0
M  V30 5788 H 554.561 -2.16245 6.60502 0
M  V30 5789 H 557.752 -1.72931 4.34986 0
M  V30 5790 H 557.925 -2.15731 6.11035 0
M  V30 5791 N 551.331 -1.39911 -0.725443 0
M  V30 5792 C 552.579 -1.37382 -1.48224 0
M  V30 5793 C 552.9 0.0264107 -1.94982 0
M  V30 5794 O 552.17 0.979408 -1.6966 0
M  V30 5795 H 550.75 -0.505596 -0.549892 0
M  V30 5796 H 553.412 -1.7487 -0.860608 0
M  V30 5797 H 552.508 -2.04254 -2.3598 0
M  V30 5798 N 552.809 0.956637 -1.25245 0
M  V30 5799 C 554.039 1.7332 -1.12445 0
M  V30 5800 C 554.447 1.86392 0.324732 0
M  V30 5801 O 553.79 1.35967 1.23526 0
M  V30 5802 C 553.852 3.16603 -1.70303 0
M  V30 5803 C 553.516 3.26966 -3.19284 0
M  V30 5804 C 554.513 3.11434 -4.16299 0
M  V30 5805 C 552.198 3.50851 -3.59456 0
M  V30 5806 C 554.192 3.1963 -5.51467 0
M  V30 5807 C 551.879 3.58684 -4.94761 0
M  V30 5808 C 552.877 3.43087 -5.90576 0
M  V30 5809 O 552.565 3.50598 -7.2342 0
M  V30 5810 H 552.297 0.549981 -0.393061 0
M  V30 5811 H 554.851 1.20892 -1.66055 0
M  V30 5812 H 553.081 3.70385 -1.11138 0
M  V30 5813 H 554.77 3.76109 -1.52632 0
M  V30 5814 H 555.536 2.92853 -3.86604 0
M  V30 5815 H 551.415 3.62053 -2.85375 0
M  V30 5816 H 554.959 3.07373 -6.26233 0
M  V30 5817 H 550.856 3.76782 -5.24124 0
M  V30 5818 H 551.624 3.67242 -7.31489 0
M  V30 5819 N 554.287 1.06798 1.15896 0
M  V30 5820 C 555.535 0.786211 1.8618 0
M  V30 5821 C 555.856 -0.689547 1.82401 0
M  V30 5822 O 555.126 -1.49913 1.26107 0
M  V30 5823 H 553.706 0.287843 0.689315 0
M  V30 5824 H 556.368 1.35055 1.40521 0
M  V30 5825 H 555.464 1.1157 2.91477 0
M  V30 5826 N 555.766 -1.3263 0.851289 0
M  V30 5827 C 556.716 -2.26451 0.265302 0
M  V30 5828 C 557.7 -1.49814 -0.586899 0
M  V30 5829 O 558.892 -1.71525 -0.436834 0
M  V30 5830 C 556.021 -3.38895 -0.548212 0
M  V30 5831 C 555.107 -4.2292 0.316189 0
M  V30 5832 N 555.498 -4.86014 1.40084 0
M  V30 5833 C 553.796 -4.45876 0.105356 0
M  V30 5834 C 554.497 -5.48667 1.93235 0
M  V30 5835 N 553.473 -5.29455 1.232 0
M  V30 5836 H 557.275 -2.72757 1.09457 0
M  V30 5837 H 554.789 -1.4668 0.697047 0
M  V30 5838 H 556.786 -4.05111 -0.984402 0
M  V30 5839 H 555.446 -2.94135 -1.37531 0
M  V30 5840 H 556.457 -4.86212 1.78377 0
M  V30 5841 H 553.134 -4.11804 -0.687299 0
M  V30 5842 H 554.524 -6.08865 2.84135 0
M  V30 5843 N 557.244 -0.608902 -1.45362 0
M  V30 5844 C 558.154 0.110969 -2.34337 0
M  V30 5845 C 559.17 0.859007 -1.51318 0
M  V30 5846 O 560.346 0.816296 -1.84116 0
M  V30 5847 C 557.411 1.09494 -3.28956 0
M  V30 5848 C 556.472 0.348718 -4.27881 0
M  V30 5849 C 555.705 1.28582 -5.17979 0
M  V30 5850 O 555.928 2.52369 -5.11533 0
M  V30 5851 O 554.862 0.782172 -5.96796 0
M  V30 5852 H 558.688 -0.620258 -2.97299 0
M  V30 5853 H 556.273 -0.36916 -1.44767 0
M  V30 5854 H 558.155 1.66163 -3.87257 0
M  V30 5855 H 556.83 1.80717 -2.68557 0
M  V30 5856 H 555.737 -0.260465 -3.73192 0
M  V30 5857 H 557.07 -0.323049 -4.91139 0
M  V30 5858 N 558.722 1.53707 -0.348139 0
M  V30 5859 C 559.95 2.05406 0.248224 0
M  V30 5860 C 560.365 1.22282 1.43849 0
M  V30 5861 O 559.722 0.259244 1.80649 0
M  V30 5862 C 559.773 3.55446 0.658793 0
M  V30 5863 O 559.494 4.35417 -0.484149 0
M  V30 5864 C 560.995 4.23335 1.31539 0
M  V30 5865 H 558.215 0.669344 0.0471075 0
M  V30 5866 H 560.759 1.98257 -0.501456 0
M  V30 5867 H 558.914 3.62803 1.35841 0
M  V30 5868 H 559.328 5.24268 -0.155949 0
M  V30 5869 H 560.802 5.29692 1.55338 0
M  V30 5870 H 561.279 3.75967 2.27036 0
M  V30 5871 H 561.885 4.20184 0.657683 0
M  V30 5872 N 560.2 0.0768682 1.57412 0
M  V30 5873 C 561.11 -0.903207 2.16516 0
M  V30 5874 C 562.126 -1.32341 1.12968 0
M  V30 5875 O 563.302 -1.39507 1.45258 0
M  V30 5876 C 560.367 -2.1508 2.71922 0
M  V30 5877 C 559.428 -1.78653 3.90361 0
M  V30 5878 C 558.661 -2.97465 4.43114 0
M  V30 5879 O 558.884 -4.11638 3.94854 0
M  V30 5880 O 557.818 -2.76987 5.3438 0
M  V30 5881 H 561.644 -0.430427 3.00634 0
M  V30 5882 H 559.229 -0.146485 1.4868 0
M  V30 5883 H 561.111 -2.8823 3.07411 0
M  V30 5884 H 559.786 -2.61446 1.9086 0
M  V30 5885 H 558.693 -1.0274 3.59716 0
M  V30 5886 H 560.026 -1.37066 4.7273 0
M  V30 5887 N 561.678 -1.56367 -0.196722 0
M  V30 5888 C 562.926 -1.80172 -0.915554 0
M  V30 5889 C 563.247 -0.649649 -1.8386 0
M  V30 5890 O 562.517 0.332111 -1.93064 0
M  V30 5891 H 561.097 -0.664592 -0.341067 0
M  V30 5892 H 563.759 -1.93844 -0.202622 0
M  V30 5893 H 562.855 -2.7327 -1.50764 0
M  V30 5894 N 563.156 0.464375 -1.50603 0
M  V30 5895 C 564.567 1.04507 -1.5471 0
M  V30 5896 C 564.918 1.9297 -0.354542 0
M  V30 5897 O 564.043 2.09763 0.531812 0
M  V30 5898 C 564.638 1.90207 -2.80369 0
M  V30 5899 C 563.197 2.43373 -2.87135 0
M  V30 5900 C 562.344 1.21886 -2.49076 0
M  V30 5901 H 565.295 0.246716 -1.56771 0
M  V30 5902 H 565.316 2.75353 -2.62604 0
M  V30 5903 H 564.828 1.25796 -3.67147 0
M  V30 5904 H 562.929 3.11318 -2.04724 0
M  V30 5905 H 563.042 2.7802 -3.90181 0
M  V30 5906 H 561.406 1.55575 -2.01664 0
M  V30 5907 H 562.189 0.591268 -3.3817 0
M  V30 5908 N 564.634 1.40294 0.718013 0
M  V30 5909 C 565.88 1.38645 1.48005 0
M  V30 5910 C 566.213 -0.0121202 1.94196 0
M  V30 5911 O 565.488 -0.980309 1.67989 0
M  V30 5912 C 565.771 2.37379 2.70782 0
M  V30 5913 C 565.624 3.8625 2.30501 0
M  V30 5914 C 566.943 2.33685 3.72933 0
M  V30 5915 H 564.062 0.504928 0.536858 0
M  V30 5916 H 566.704 1.71411 0.819649 0
M  V30 5917 H 564.854 2.09568 3.27129 0
M  V30 5918 H 566.526 4.24879 1.79655 0
M  V30 5919 H 564.769 4.02202 1.6253 0
M  V30 5920 H 565.44 4.50847 3.18498 0
M  V30 5921 H 567.916 2.58314 3.2621 0
M  V30 5922 H 566.792 3.0482 4.56482 0
M  V30 5923 H 567.053 1.34765 4.21059 0
M  V30 5924 N 566.112 -0.949982 1.2575 0
M  V30 5925 C 567.359 -1.69515 1.10774 0
M  V30 5926 C 567.687 -1.91316 -0.350479 0
M  V30 5927 O 566.942 -1.48515 -1.27443 0
M  V30 5928 C 567.241 -3.08039 1.81237 0
M  V30 5929 C 566.907 -3.06023 3.31151 0
M  V30 5930 C 565.569 -3.0518 3.72047 0
M  V30 5931 C 567.921 -2.98998 4.26907 0
M  V30 5932 C 565.249 -2.95067 5.07102 0
M  V30 5933 C 567.601 -2.90426 5.61992 0
M  V30 5934 C 566.265 -2.87922 6.0221 0
M  V30 5935 H 565.535 -0.6203 0.405351 0
M  V30 5936 H 568.182 -1.10953 1.56082 0
M  V30 5937 H 566.487 -3.70172 1.28373 0
M  V30 5938 H 568.184 -3.64526 1.67098 0
M  V30 5939 H 564.774 -3.07453 2.98614 0
M  V30 5940 H 568.958 -2.98764 3.963 0
M  V30 5941 H 564.214 -2.915 5.37436 0
M  V30 5942 H 568.388 -2.83952 6.35881 0
M  V30 5943 H 566.015 -2.79841 7.06819 0
M  V30 5944 N 567.59 -1.07411 -1.15328 0
M  V30 5945 C 568.553 -0.698914 -2.18284 0
M  V30 5946 C 569.553 0.261149 -1.58665 0
M  V30 5947 O 570.743 0.0420277 -1.74149 0
M  V30 5948 C 567.875 -0.0302427 -3.40887 0
M  V30 5949 H 569.068 -1.61045 -2.52991 0
M  V30 5950 H 566.621 -0.870724 -1.298 0
M  V30 5951 H 567.356 0.893505 -3.11748 0
M  V30 5952 H 567.141 -0.720759 -3.85419 0
M  V30 5953 H 568.631 0.21759 -4.17033 0
M  V30 5954 N 569.068 1.32177 -0.85831 0
M  V30 5955 C 570.296 2.01313 -0.477582 0
M  V30 5956 C 570.711 1.6449 0.926736 0
M  V30 5957 O 570.068 0.868096 1.60531 0
M  V30 5958 C 570.119 3.56293 -0.611337 0
M  V30 5959 O 569.84 3.91794 -1.96034 0
M  V30 5960 C 571.341 4.42702 -0.230093 0
M  V30 5961 H 568.561 0.644323 -0.187322 0
M  V30 5962 H 571.105 1.68674 -1.15626 0
M  V30 5963 H 569.26 3.87395 0.0196494 0
M  V30 5964 H 569.674 4.86513 -1.95973 0
M  V30 5965 H 571.148 5.50727 -0.374674 0
M  V30 5966 H 571.625 4.3129 0.829779 0
M  V30 5967 H 572.231 4.16997 -0.836302 0
M  V30 5968 N 570.547 0.616602 1.45037 0
M  V30 5969 C 571.795 0.115103 2.01772 0
M  V30 5970 C 572.116 -1.2622 1.48639 0
M  V30 5971 O 571.386 -1.83563 0.684199 0
M  V30 5972 H 569.966 0.0395607 0.745952 0
M  V30 5973 H 572.628 0.800032 1.77723 0
M  V30 5974 H 571.724 0.0717274 3.12018 0
M  V30 5975 N 572.025 -1.5352 0.356285 0
M  V30 5976 C 572.935 -2.29151 -0.502712 0
M  V30 5977 C 573.951 -1.34753 -1.1008 0
M  V30 5978 O 575.127 -1.67803 -1.11374 0
M  V30 5979 C 572.192 -3.05911 -1.63154 0
M  V30 5980 C 571.253 -4.15958 -1.06194 0
M  V30 5981 C 570.486 -4.8905 -2.13696 0
M  V30 5982 O 570.709 -4.61919 -3.34645 0
M  V30 5983 O 569.643 -5.75202 -1.77275 0
M  V30 5984 H 573.469 -3.03492 0.112466 0
M  V30 5985 H 571.054 -1.4891 0.120942 0
M  V30 5986 H 572.936 -3.53874 -2.28804 0
M  V30 5987 H 571.611 -2.34415 -2.23229 0
M  V30 5988 H 570.518 -3.7227 -0.369603 0
M  V30 5989 H 571.851 -4.89593 -0.505872 0
M  V30 5990 N 573.503 -0.0852151 -1.57369 0
M  V30 5991 C 574.466 0.8627 -2.12344 0
M  V30 5992 C 575.466 1.21746 -1.05046 0
M  V30 5993 O 576.656 1.14852 -1.30976 0
M  V30 5994 C 573.788 2.1618 -2.63589 0
M  V30 5995 H 574.981 0.385511 -2.97412 0
M  V30 5996 H 572.534 0.163663 -1.55441 0
M  V30 5997 H 573.269 2.68406 -1.82013 0
M  V30 5998 H 573.054 1.91723 -3.4203 0
M  V30 5999 H 574.544 2.84011 -3.06149 0
M  V30 6000 N 574.981 1.5647 0.188427 0
M  V30 6001 C 576.206 1.85486 0.927891 0
M  V30 6002 C 576.631 0.669575 1.75779 0
M  V30 6003 O 575.989 -0.381573 1.77239 0
M  V30 6004 C 576.037 3.12784 1.7944 0
M  V30 6005 O 575.141 2.93805 2.894 0
M  V30 6006 H 574.482 0.610585 0.260925 0
M  V30 6007 H 577.012 2.037 0.191729 0
M  V30 6008 H 577.022 3.43749 2.19774 0
M  V30 6009 H 575.697 3.98671 1.18468 0
M  V30 6010 H 574.274 2.74153 2.52774 0
M  V30 6011 N 576.459 -0.456382 1.50847 0
M  V30 6012 C 577.705 -1.20618 1.63777 0
M  V30 6013 C 578.06 -1.8936 0.340677 0
M  V30 6014 O 577.353 -1.79786 -0.662378 0
M  V30 6015 C 577.547 -2.26336 2.76599 0
M  V30 6016 C 577.376 -1.67968 4.17153 0
M  V30 6017 C 576.146 -1.47293 4.83356 0
M  V30 6018 C 578.344 -1.16643 5.00898 0
M  V30 6019 N 576.326 -0.843222 6.08081 0
M  V30 6020 C 577.697 -0.660843 6.16468 0
M  V30 6021 C 579.752 -1.05637 4.86565 0
M  V30 6022 C 578.455 -0.0560365 7.19278 0
M  V30 6023 C 580.481 -0.465485 5.89565 0
M  V30 6024 C 579.843 0.0296516 7.04394 0
M  V30 6025 H 575.942 -0.429725 0.653345 0
M  V30 6026 H 578.526 -0.505784 1.88016 0
M  V30 6027 H 576.697 -2.93785 2.54056 0
M  V30 6028 H 578.429 -2.9334 2.78808 0
M  V30 6029 H 575.184 -1.72934 4.40898 0
M  V30 6030 H 575.608 -0.546357 6.74792 0
M  V30 6031 H 580.25 -1.42508 3.98059 0
M  V30 6032 H 577.968 0.324845 8.07447 0
M  V30 6033 H 581.554 -0.382493 5.80541 0
M  V30 6034 H 580.434 0.479705 7.82731 0
M  V30 6035 N 577.937 -1.40673 -0.710563 0
M  V30 6036 C 579.185 -1.38947 -1.46759 0
M  V30 6037 C 579.506 0.00572879 -1.94999 0
M  V30 6038 O 578.776 0.961358 -1.70689 0
M  V30 6039 H 577.356 -0.5114 -0.544499 0
M  V30 6040 H 580.018 -1.75773 -0.842012 0
M  V30 6041 H 579.114 -2.06745 -2.33801 0
M  V30 6042 N 579.415 0.9433 -1.26252 0
M  V30 6043 C 580.345 2.05902 -1.10122 0
M  V30 6044 C 581.326 1.70099 -0.00700552 0
M  V30 6045 O 582.511 1.93377 -0.178641 0
M  V30 6046 C 579.641 3.39516 -0.731175 0
M  V30 6047 C 578.595 3.89372 -1.77688 0
M  V30 6048 C 577.921 5.19613 -1.26122 0
M  V30 6049 C 579.221 4.14489 -3.17799 0
M  V30 6050 H 580.915 2.19655 -2.03451 0
M  V30 6051 H 578.461 1.05548 -0.979576 0
M  V30 6052 H 580.414 4.17031 -0.605215 0
M  V30 6053 H 579.138 3.25733 0.23782 0
M  V30 6054 H 577.797 3.14036 -1.89148 0
M  V30 6055 H 577.445 5.02208 -0.282128 0
M  V30 6056 H 577.145 5.53939 -1.96023 0
M  V30 6057 H 578.669 5.99713 -1.14789 0
M  V30 6058 H 580.083 4.82625 -3.09428 0
M  V30 6059 H 578.48 4.60094 -3.85271 0
M  V30 6060 H 579.55 3.20347 -3.64014 0
M  V30 6061 N 580.893 1.08022 1.14757 0
M  V30 6062 C 582.118 0.82895 1.90114 0
M  V30 6063 C 582.543 -0.612772 1.77839 0
M  V30 6064 O 581.901 -1.42895 1.11583 0
M  V30 6065 C 581.949 1.25062 3.38219 0
M  V30 6066 O 581.053 0.400119 4.10454 0
M  V30 6067 H 580.394 0.301412 0.591648 0
M  V30 6068 H 582.924 1.44062 1.45284 0
M  V30 6069 H 582.934 1.22977 3.89025 0
M  V30 6070 H 581.609 2.30067 3.46471 0
M  V30 6071 H 580.186 0.484052 3.69745 0
M  V30 6072 N 582.371 -1.3172 0.865308 0
M  V30 6073 C 583.319 -2.30569 0.306674 0
M  V30 6074 C 584.313 -1.59317 -0.575724 0
M  V30 6075 O 585.519 -1.73961 -0.462343 0
M  V30 6076 H 581.894 -0.747681 0.0804834 0
M  V30 6077 H 583.865 -2.75165 1.15441 0
M  V30 6078 C 582.614 -3.44358 -0.480952 0
M  V30 6079 H 581.937 -3.99354 0.18876 0
M  V30 6080 H 583.377 -4.15652 -0.837241 0
M  V30 6081 C 581.836 -2.92574 -1.67039 0
M  V30 6082 O 582.366 -2.90954 -2.76964 0
M  V30 6083 N 580.572 -2.48835 -1.50097 0
M  V30 6084 H 580.119 -2.50353 -0.606738 0
M  V30 6085 H 580.077 -2.14543 -2.29823 0
M  V30 6086 N 583.85 -0.624285 -1.44708 0
M  V30 6087 C 584.782 0.12305 -2.28869 0
M  V30 6088 C 585.795 0.81557 -1.40898 0
M  V30 6089 O 586.984 0.678162 -1.65116 0
M  V30 6090 C 584.084 1.19612 -3.1709 0
M  V30 6091 C 583.257 0.587452 -4.33437 0
M  V30 6092 C 582.316 1.55358 -5.02743 0
M  V30 6093 O 581.341 1.07338 -5.58988 0
M  V30 6094 N 582.543 2.88798 -5.03563 0
M  V30 6095 H 585.308 -0.599193 -2.93649 0
M  V30 6096 H 582.87 -0.464954 -1.5508 0
M  V30 6097 H 584.861 1.84261 -3.60319 0
M  V30 6098 H 583.432 1.82067 -2.54107 0
M  V30 6099 H 582.652 -0.237509 -3.93484 0
M  V30 6100 H 583.94 0.161326 -5.08544 0
M  V30 6101 H 583.338 3.30399 -4.59188 0
M  V30 6102 H 581.894 3.48826 -5.50603 0
M  V30 6103 N 585.328 1.53329 -0.364422 0
M  V30 6104 C 586.574 2.02222 0.21855 0
M  V30 6105 C 586.929 1.24702 1.46517 0
M  V30 6106 O 586.222 0.331969 1.88702 0
M  V30 6107 C 586.416 3.52911 0.564661 0
M  V30 6108 C 586.245 4.45023 -0.646862 0
M  V30 6109 C 585.015 4.91838 -1.15858 0
M  V30 6110 C 587.213 4.91581 -1.51172 0
M  V30 6111 N 585.195 5.67955 -2.33025 0
M  V30 6112 C 586.566 5.66028 -2.53006 0
M  V30 6113 C 588.621 4.73656 -1.53473 0
M  V30 6114 C 587.324 6.24457 -3.56996 0
M  V30 6115 C 589.35 5.3295 -2.56356 0
M  V30 6116 C 588.712 6.07282 -3.56914 0
M  V30 6117 H 584.811 0.780832 0.0427199 0
M  V30 6118 H 587.395 1.87937 -0.508704 0
M  V30 6119 H 585.566 3.6736 1.26099 0
M  V30 6120 H 587.298 3.88528 1.13262 0
M  V30 6121 H 584.053 4.68043 -0.723393 0
M  V30 6122 H 584.477 6.10675 -2.92241 0
M  V30 6123 H 589.119 4.15714 -0.770842 0
M  V30 6124 H 586.837 6.81496 -4.34268 0
M  V30 6125 H 590.423 5.20976 -2.58989 0
M  V30 6126 H 589.303 6.52345 -4.35218 0
M  V30 6127 N 586.806 0.0935595 1.57322 0
M  V30 6128 C 588.031 -0.582324 1.99057 0
M  V30 6129 C 588.456 -1.61025 0.972242 0
M  V30 6130 O 587.814 -1.81202 -0.0594622 0
M  V30 6131 C 587.862 -1.20799 3.39765 0
M  V30 6132 O 586.966 -2.32382 3.40694 0
M  V30 6133 H 586.307 -0.147884 0.647323 0
M  V30 6134 H 588.837 0.174516 2.03854 0
M  V30 6135 H 588.847 -1.54966 3.77425 0
M  V30 6136 H 587.522 -0.454914 4.13405 0
M  V30 6137 H 586.099 -1.99845 3.14827 0
M  V30 6138 N 588.284 -1.56567 -0.180126 0
M  V30 6139 C 589.214 -1.98753 -1.22553 0
M  V30 6140 C 590.195 -0.86175 -1.46656 0
M  V30 6141 O 591.38 -1.12719 -1.58139 0
M  V30 6142 C 588.51 -2.33988 -2.56645 0
M  V30 6143 C 587.464 -3.49445 -2.47128 0
M  V30 6144 C 586.79 -3.70397 -3.8563 0
M  V30 6145 C 588.09 -4.83171 -1.98352 0
M  V30 6146 H 589.784 -2.86332 -0.874896 0
M  V30 6147 H 587.33 -1.37757 -0.419414 0
M  V30 6148 H 589.283 -2.62097 -3.29974 0
M  V30 6149 H 588.007 -1.43309 -2.93479 0
M  V30 6150 H 586.666 -3.2145 -1.76254 0
M  V30 6151 H 586.314 -2.77023 -4.19842 0
M  V30 6152 H 586.014 -4.48077 -3.80132 0
M  V30 6153 H 587.538 -4.00897 -4.60558 0
M  V30 6154 H 588.952 -5.10213 -2.61449 0
M  V30 6155 H 587.349 -5.64425 -2.03823 0
M  V30 6156 H 588.419 -4.75753 -0.937402 0
M  V30 6157 N 589.762 0.448376 -1.51087 0
M  V30 6158 C 590.992 1.21965 -1.66757 0
M  V30 6159 C 591.4 1.85748 -0.359753 0
M  V30 6160 O 590.743 1.71022 0.670604 0
M  V30 6161 C 590.805 2.35284 -2.71812 0
M  V30 6162 C 590.469 1.91957 -4.1473 0
M  V30 6163 C 591.466 1.42921 -4.9987 0
M  V30 6164 C 589.151 1.99985 -4.60772 0
M  V30 6165 C 591.145 1.02485 -6.29107 0
M  V30 6166 C 588.832 1.5916 -5.90009 0
M  V30 6167 C 589.83 1.10491 -6.74004 0
M  V30 6168 O 589.518 0.702413 -8.00825 0
M  V30 6169 H 589.25 0.374125 -0.563034 0
M  V30 6170 H 591.804 0.538927 -1.98204 0
M  V30 6171 H 590.034 3.06599 -2.35657 0
M  V30 6172 H 591.723 2.97184 -2.76472 0
M  V30 6173 H 592.489 1.36123 -4.65506 0
M  V30 6174 H 588.368 2.36814 -3.95525 0
M  V30 6175 H 591.912 0.644271 -6.94619 0
M  V30 6176 H 587.809 1.65626 -6.2389 0
M  V30 6177 H 588.577 0.829248 -8.14288 0
M  V30 6178 N 591.24 1.41047 0.703093 0
M  V30 6179 C 592.488 1.39723 1.4602 0
M  V30 6180 C 592.809 0.00461257 1.94999 0
M  V30 6181 O 592.079 -0.952292 1.71196 0
M  V30 6182 H 590.659 0.514281 0.541779 0
M  V30 6183 H 593.321 1.76217 0.832678 0
M  V30 6184 H 592.417 2.07982 2.32701 0
M  V30 6185 N 592.718 -0.936591 1.26751 0
M  V30 6186 C 593.966 -1.67998 1.12343 0
M  V30 6187 C 594.287 -1.92137 -0.332938 0
M  V30 6188 O 593.557 -1.52132 -1.23421 0
M  V30 6189 H 592.137 -0.622609 0.412756 0
M  V30 6190 H 594.799 -1.12509 1.59147 0
M  V30 6191 H 593.895 -2.65185 1.64571 0
M  V30 6192 N 594.196 -1.08629 -1.14182 0
M  V30 6193 C 595.159 -0.722027 -2.1753 0
M  V30 6194 C 596.159 0.244305 -1.58933 0
M  V30 6195 O 597.349 0.0235545 -1.74184 0
M  V30 6196 C 594.481 -0.0663966 -3.40835 0
M  V30 6197 H 595.674 -1.63719 -2.51269 0
M  V30 6198 H 593.227 -0.884442 -1.28869 0
M  V30 6199 H 593.962 0.860389 -3.12678 0
M  V30 6200 H 593.747 -0.761598 -3.84632 0
M  V30 6201 H 595.237 0.173346 -4.1724 0
M  V30 6202 N 595.674 1.31259 -0.872281 0
M  V30 6203 C 596.92 1.96913 -0.485083 0
M  V30 6204 C 597.253 1.68774 0.960667 0
M  V30 6205 O 596.528 0.985495 1.67685 0
M  V30 6206 C 596.811 3.52299 -0.745502 0
M  V30 6207 C 596.664 3.90002 -2.24095 0
M  V30 6208 C 597.983 4.39582 -0.213516 0
M  V30 6209 H 595.102 0.715252 -0.177716 0
M  V30 6210 H 597.744 1.55347 -1.09395 0
M  V30 6211 H 595.894 3.87835 -0.227276 0
M  V30 6212 H 597.566 3.64555 -2.82661 0
M  V30 6213 H 595.809 3.38526 -2.71261 0
M  V30 6214 H 596.48 4.98352 -2.37381 0
M  V30 6215 H 598.956 4.10882 -0.656902 0
M  V30 6216 H 597.832 5.47251 -0.42516 0
M  V30 6217 H 598.093 4.33158 0.884666 0
M  V30 6218 N 597.152 0.631951 1.44375 0
M  V30 6219 C 598.082 -0.0593243 2.33425 0
M  V30 6220 C 599.063 -0.833964 1.48253 0
M  V30 6221 O 600.248 -0.799682 1.76971 0
M  V30 6222 C 597.378 -1.04096 3.31333 0
M  V30 6223 C 596.332 -0.377899 4.26328 0
M  V30 6224 C 595.658 -1.4695 5.14111 0
M  V30 6225 C 596.958 0.716371 5.17364 0
M  V30 6226 H 598.652 0.684287 2.91475 0
M  V30 6227 H 596.198 0.330518 1.40156 0
M  V30 6228 H 598.151 -1.53331 3.92514 0
M  V30 6229 H 596.875 -1.81547 2.71493 0
M  V30 6230 H 595.534 0.0938054 3.6648 0
M  V30 6231 H 595.182 -2.2349 4.50623 0
M  V30 6232 H 594.882 -1.03121 5.78481 0
M  V30 6233 H 596.406 -1.96363 5.78164 0
M  V30 6234 H 597.82 0.307089 5.72477 0
M  V30 6235 H 596.217 1.07784 5.90341 0
M  V30 6236 H 597.287 1.58316 4.58327 0
M  V30 6237 N 598.631 -1.53133 0.372548 0
M  V30 6238 C 599.594 -2.24569 -0.458389 0
M  V30 6239 C 600.594 -1.25603 -1.00402 0
M  V30 6240 O 601.784 -1.49827 -0.888672 0
M  V30 6241 C 598.916 -2.98783 -1.6414 0
M  V30 6242 H 600.109 -2.99436 0.166799 0
M  V30 6243 H 597.662 -1.55805 0.124357 0
M  V30 6244 H 598.397 -2.28176 -2.30448 0
M  V30 6245 H 598.182 -3.71404 -1.25704 0
M  V30 6246 H 599.672 -3.53068 -2.23008 0
M  V30 6247 N 600.109 -0.101901 -1.5727 0
M  V30 6248 C 601.357 0.559091 -1.94213 0
M  V30 6249 C 601.678 1.68297 -0.984948 0
M  V30 6250 O 600.948 1.95863 -0.0381975 0
M  V30 6251 H 599.528 0.20952 -0.717015 0
M  V30 6252 H 602.19 -0.166831 -1.94185 0
M  V30 6253 H 601.286 0.96485 -2.96811 0
M  V30 6254 N 601.587 1.56661 0.17182 0
M  V30 6255 C 602.864 1.72838 0.915778 0
M  V30 6256 C 603.244 0.66316 2.00413 0
M  V30 6257 O 602.592 -0.322123 2.26218 0
M  V30 6258 C 602.802 3.16019 1.48097 0
M  V30 6259 C 604.15 3.76962 1.95408 0
M  V30 6260 O 605.174 3.19294 1.57892 0
M  V30 6261 O 604.033 4.78219 2.64516 0
M  V30 6262 H 601.127 0.705797 0.431021 0
M  V30 6263 H 603.673 1.68947 0.159689 0
M  V30 6264 H 602.445 3.85031 0.697618 0
M  V30 6265 H 602.068 3.24234 2.30126 0
M  V30 6266 N 603.065 -0.440357 1.51323 0
M  V30 6267 C 604.295 -1.21079 1.67402 0
M  V30 6268 C 604.703 -1.85555 0.369599 0
M  V30 6269 O 604.046 -1.71375 -0.661525 0
M  V30 6270 C 604.108 -2.33839 2.73056 0
M  V30 6271 C 603.772 -1.89755 4.15743 0
M  V30 6272 C 604.769 -1.40268 5.0062 0
M  V30 6273 C 602.454 -1.97539 4.61826 0
M  V30 6274 C 604.448 -0.991474 6.29642 0
M  V30 6275 C 602.135 -1.56029 5.90845 0
M  V30 6276 C 603.133 -1.06915 6.7458 0
M  V30 6277 O 602.821 -0.659933 8.01187 0
M  V30 6278 H 602.553 -0.371133 0.56501 0
M  V30 6279 H 605.107 -0.528409 1.98487 0
M  V30 6280 H 603.337 -3.05345 2.37279 0
M  V30 6281 H 605.026 -2.95713 2.78044 0
M  V30 6282 H 605.792 -1.33652 4.66221 0
M  V30 6283 H 601.671 -2.34713 3.96776 0
M  V30 6284 H 605.215 -0.607425 6.9495 0
M  V30 6285 H 601.112 -1.62315 6.24759 0
M  V30 6286 H 601.88 -0.786052 8.14717 0
M  V30 6287 N 604.543 -1.41418 -0.695603 0
M  V30 6288 C 605.491 -1.43467 -1.83084 0
M  V30 6289 C 606.485 -0.312719 -1.66489 0
M  V30 6290 O 607.691 -0.484744 -1.7335 0
M  V30 6291 H 604.066 -0.448891 -0.603325 0
M  V30 6292 H 606.037 -2.39144 -1.78473 0
M  V30 6293 C 604.786 -1.3337 -3.21104 0
M  V30 6294 H 604.109 -2.18989 -3.3449 0
M  V30 6295 H 605.549 -1.38865 -4.00615 0
M  V30 6296 C 604.008 -0.0460484 -3.36869 0
M  V30 6297 O 604.538 0.909258 -3.91274 0
M  V30 6298 N 602.744 0.0300222 -2.90584 0
M  V30 6299 H 602.291 -0.748129 -2.46497 0
M  V30 6300 H 602.249 0.890991 -3.01511 0
M  V30 6301 N 606.021 0.929856 -1.27246 0
M  V30 6302 C 606.984 2.01172 -1.09829 0
M  V30 6303 C 607.984 1.60743 -0.0429687 0
M  V30 6304 O 609.174 1.71813 -0.287373 0
M  V30 6305 C 606.306 3.34191 -0.673003 0
M  V30 6306 H 607.499 2.18054 -2.05895 0
M  V30 6307 H 605.052 1.11036 -1.10003 0
M  V30 6308 H 605.787 3.23009 0.289134 0
M  V30 6309 H 605.572 3.64892 -1.43515 0
M  V30 6310 H 607.062 4.13646 -0.573323 0
M  V30 6311 N 607.499 1.09233 1.13605 0
M  V30 6312 C 608.429 0.751738 2.21068 0
M  V30 6313 C 609.41 -0.269688 1.67948 0
M  V30 6314 O 610.595 -0.13819 1.93708 0
M  V30 6315 C 607.725 0.16935 3.46887 0
M  V30 6316 C 606.679 1.12007 4.13084 0
M  V30 6317 C 606.005 0.399483 5.33206 0
M  V30 6318 C 607.305 2.46168 4.6065 0
M  V30 6319 H 608.999 1.65024 2.49815 0
M  V30 6320 H 606.545 0.794905 1.20072 0
M  V30 6321 H 608.498 -0.0809824 4.21322 0
M  V30 6322 H 607.222 -0.764335 3.1753 0
M  V30 6323 H 605.881 1.35564 3.40614 0
M  V30 6324 H 605.529 -0.538277 5.00112 0
M  V30 6325 H 605.229 1.03337 5.78442 0
M  V30 6326 H 606.753 0.157403 6.10397 0
M  V30 6327 H 608.167 2.26829 5.26518 0
M  V30 6328 H 606.564 3.05326 5.1662 0
M  V30 6329 H 607.634 3.07076 3.75276 0
M  V30 6330 N 608.977 -1.30795 0.87923 0
M  V30 6331 C 609.94 -2.26563 0.346676 0
M  V30 6332 C 610.94 -1.52578 -0.507597 0
M  V30 6333 O 612.13 -1.71318 -0.315575 0
M  V30 6334 C 609.262 -3.37115 -0.506611 0
M  V30 6335 H 610.455 -2.75183 1.19223 0
M  V30 6336 H 608.008 -1.41886 0.655598 0
M  V30 6337 H 608.743 -2.93802 -1.37299 0
M  V30 6338 H 608.528 -3.91959 0.105218 0
M  V30 6339 H 610.018 -4.08412 -0.871192 0
M  V30 6340 N 610.455 -0.639598 -1.44038 0
M  V30 6341 C 611.418 0.0506628 -2.29144 0
M  V30 6342 C 612.418 0.764001 -1.41491 0
M  V30 6343 O 613.608 0.607309 -1.63271 0
M  V30 6344 C 610.74 1.0824 -3.2326 0
M  V30 6345 H 611.933 -0.697987 -2.91664 0
M  V30 6346 H 609.486 -0.400146 -1.51091 0
M  V30 6347 H 610.221 1.86075 -2.65606 0
M  V30 6348 H 610.006 0.574725 -3.87865 0
M  V30 6349 H 611.496 1.56487 -3.87171 0
M  V30 6350 N 611.933 1.52934 -0.380664 0
M  V30 6351 C 613.181 2.01069 0.203874 0
M  V30 6352 C 613.502 1.26922 1.4804 0
M  V30 6353 O 612.772 0.386787 1.92044 0
M  V30 6354 H 611.352 0.742882 0.0783279 0
M  V30 6355 H 614.014 1.88099 -0.510368 0
M  V30 6356 H 613.11 3.09258 0.42021 0
M  V30 6357 N 613.412 0.11024 1.57214 0
M  V30 6358 C 614.375 -0.828808 2.1369 0
M  V30 6359 C 615.375 -1.20059 1.06969 0
M  V30 6360 O 616.565 -1.12754 1.32786 0
M  V30 6361 C 613.697 -2.11959 2.66994 0
M  V30 6362 H 614.89 -0.338146 2.97988 0
M  V30 6363 H 612.443 -0.138913 1.55681 0
M  V30 6364 H 613.178 -2.65476 1.8626 0
M  V30 6365 H 612.963 -1.86258 3.45037 0
M  V30 6366 H 614.453 -2.79105 3.10629 0
M  V30 6367 N 614.89 -1.56749 -0.16351 0
M  V30 6368 C 616.138 -1.82074 -0.87713 0
M  V30 6369 C 616.459 -0.688503 -1.82441 0
M  V30 6370 O 615.729 0.291085 -1.93725 0
M  V30 6371 H 614.309 -0.671677 -0.326893 0
M  V30 6372 H 616.971 -1.9423 -0.161459 0
M  V30 6373 H 616.067 -2.76407 -1.44934 0
M  V30 6374 N 616.368 0.432326 -1.51554 0
M  V30 6375 C 617.614 1.17997 -1.65675 0
M  V30 6376 C 617.969 1.88794 -0.37076 0
M  V30 6377 O 617.262 1.80817 0.633692 0
M  V30 6378 C 617.456 2.21907 -2.80164 0
M  V30 6379 C 617.285 1.6131 -4.19773 0
M  V30 6380 C 616.055 1.39585 -4.85638 0
M  V30 6381 C 618.253 1.08659 -5.0269 0
M  V30 6382 N 616.235 0.746374 -6.09346 0
M  V30 6383 C 617.606 0.562685 -6.17441 0
M  V30 6384 C 619.661 0.978831 -4.88184 0
M  V30 6385 C 618.364 -0.0584015 -7.19276 0
M  V30 6386 C 620.39 0.371631 -5.90231 0
M  V30 6387 C 619.752 -0.141711 -7.04257 0
M  V30 6388 H 615.851 0.419277 -0.660099 0
M  V30 6389 H 618.435 0.475809 -1.88797 0
M  V30 6390 H 616.606 2.89706 -2.58698 0
M  V30 6391 H 618.338 2.88867 -2.8344 0
M  V30 6392 H 615.093 1.65897 -4.43593 0
M  V30 6393 H 615.517 0.438934 -6.75576 0
M  V30 6394 H 620.159 1.36157 -4.00276 0
M  V30 6395 H 617.877 -0.453262 -8.06828 0
M  V30 6396 H 621.463 0.290086 -5.81076 0
M  V30 6397 H 620.343 -0.60417 -7.81869 0
M  V30 6398 N 617.846 1.41785 0.688094 0
M  V30 6399 C 619.123 1.32031 1.44316 0
M  V30 6400 C 619.503 -0.0486079 2.11044 0
M  V30 6401 O 618.851 -1.06332 2.02252 0
M  V30 6402 C 619.061 2.47906 2.45649 0
M  V30 6403 C 620.409 2.89415 3.10683 0
M  V30 6404 O 621.433 2.477 2.55975 0
M  V30 6405 O 620.292 3.61573 4.09789 0
M  V30 6406 H 617.386 0.519994 0.643067 0
M  V30 6407 H 619.932 1.53765 0.71794 0
M  V30 6408 H 618.704 3.39222 1.95048 0
M  V30 6409 H 618.327 2.28089 3.25671 0
M  V30 6410 N 619.324 -0.923095 1.27737 0
M  V30 6411 C 620.254 -2.04124 1.13383 0
M  V30 6412 C 621.235 -1.70066 0.0340658 0
M  V30 6413 O 622.42 -1.93068 0.209383 0
M  V30 6414 C 619.55 -3.3831 0.785097 0
M  V30 6415 C 618.504 -3.86496 1.8386 0
M  V30 6416 C 617.83 -5.1754 1.34373 0
M  V30 6417 C 619.13 -4.09381 3.24353 0
M  V30 6418 H 620.824 -2.1639 2.06919 0
M  V30 6419 H 618.37 -1.03976 0.996243 0
M  V30 6420 H 620.323 -4.16016 0.671485 0
M  V30 6421 H 619.047 -3.2607 -0.185969 0
M  V30 6422 H 617.706 -3.10987 1.9412 0
M  V30 6423 H 617.354 -5.01696 0.361989 0
M  V30 6424 H 617.054 -5.50751 2.04811 0
M  V30 6425 H 618.578 -5.97811 1.24315 0
M  V30 6426 H 619.992 -4.77641 3.17067 0
M  V30 6427 H 618.389 -4.53906 3.92542 0
M  V30 6428 H 619.459 -3.14515 3.69064 0
M  V30 6429 N 620.802 -1.09834 -1.13024 0
M  V30 6430 C 622.05 -0.835297 -1.8403 0
M  V30 6431 C 622.371 0.640944 -1.84165 0
M  V30 6432 O 621.641 1.46517 -1.30037 0
M  V30 6433 H 620.221 -0.306018 -0.681441 0
M  V30 6434 H 622.883 -1.38734 -1.36891 0
M  V30 6435 H 621.979 -1.19258 -2.88416 0
M  V30 6436 N 622.28 1.30327 -0.886154 0
M  V30 6437 C 623.526 1.96388 -0.505941 0
M  V30 6438 C 623.859 1.69784 0.942712 0
M  V30 6439 O 623.134 1.00322 1.6663 0
M  V30 6440 C 623.417 3.51488 -0.782826 0
M  V30 6441 C 623.27 3.87603 -2.28219 0
M  V30 6442 C 624.589 4.39331 -0.260128 0
M  V30 6443 H 621.708 0.713327 -0.185292 0
M  V30 6444 H 624.35 1.54178 -1.11036 0
M  V30 6445 H 622.5 3.87572 -0.268399 0
M  V30 6446 H 624.172 3.61537 -2.86512 0
M  V30 6447 H 622.415 3.3563 -2.74837 0
M  V30 6448 H 623.086 4.95806 -2.42653 0
M  V30 6449 H 625.562 4.10162 -0.700444 0
M  V30 6450 H 624.438 5.46769 -0.483179 0
M  V30 6451 H 624.699 4.34072 0.838674 0
M  V30 6452 N 623.758 0.647228 1.43697 0
M  V30 6453 C 625.169 0.238689 1.85168 0
M  V30 6454 C 625.52 -1.21345 1.54175 0
M  V30 6455 O 624.645 -1.92542 0.987743 0
M  V30 6456 C 625.24 0.426422 3.36106 0
M  V30 6457 C 623.799 0.0722541 3.76331 0
M  V30 6458 C 622.946 0.732153 2.6746 0
M  V30 6459 H 625.897 0.851309 1.33934 0
M  V30 6460 H 625.918 -0.32987 3.79067 0
M  V30 6461 H 625.43 1.48339 3.58632 0
M  V30 6462 H 623.531 -0.982355 3.59417 0
M  V30 6463 H 623.644 0.493541 4.76551 0
M  V30 6464 H 622.008 0.16594 2.54159 0
M  V30 6465 H 622.791 1.79204 2.92816 0
M  V30 6466 N 625.236 -1.5273 0.388769 0
M  V30 6467 C 626.484 -2.01174 -0.193208 0
M  V30 6468 C 626.805 -1.27705 -1.47365 0
M  V30 6469 O 626.075 -0.396966 -1.91836 0
M  V30 6470 H 624.655 -0.743287 -0.0743871 0
M  V30 6471 H 627.317 -1.87826 0.520336 0
M  V30 6472 H 626.413 -3.09477 -0.403803 0
M  V30 6473 N 626.714 -0.118576 -1.57153 0
M  V30 6474 C 627.942 0.54726 -1.99531 0
M  V30 6475 C 628.357 1.60251 -0.998246 0
M  V30 6476 O 627.714 1.82498 0.00893106 0
M  V30 6477 C 627.765 1.17378 -3.41913 0
M  V30 6478 O 627.486 0.160703 -4.37805 0
M  V30 6479 C 628.987 1.92297 -3.9942 0
M  V30 6480 H 626.207 0.144919 -0.655164 0
M  V30 6481 H 628.751 -0.20479 -2.03472 0
M  V30 6482 H 626.906 1.87661 -3.38913 0
M  V30 6483 H 627.32 0.61586 -5.20872 0
M  V30 6484 H 628.794 2.31462 -5.01128 0
M  V30 6485 H 629.271 2.79801 -3.38538 0
M  V30 6486 H 629.877 1.26777 -4.05965 0
M  V30 6487 N 628.193 1.56834 0.155195 0
M  V30 6488 C 629.123 2.00678 1.19376 0
M  V30 6489 C 630.104 0.884973 1.45266 0
M  V30 6490 O 631.289 1.1522 1.56326 0
M  V30 6491 C 628.419 2.38042 2.5289 0
M  V30 6492 C 627.373 3.53332 2.41538 0
M  V30 6493 C 626.699 3.76485 3.79688 0
M  V30 6494 C 627.999 4.86265 1.9064 0
M  V30 6495 H 629.693 2.87688 0.829232 0
M  V30 6496 H 627.239 1.38407 0.397445 0
M  V30 6497 H 629.192 2.67314 3.25763 0
M  V30 6498 H 627.916 1.4796 2.91162 0
M  V30 6499 H 626.575 3.24213 1.71117 0
M  V30 6500 H 626.223 2.83667 4.15382 0
M  V30 6501 H 625.923 4.54068 3.72956 0
M  V30 6502 H 627.447 4.08174 4.54122 0
M  V30 6503 H 628.861 5.14308 2.53299 0
M  V30 6504 H 627.258 5.67597 1.94818 0
M  V30 6505 H 628.328 4.77184 0.861596 0
M  V30 6506 N 629.671 -0.424282 1.51781 0
M  V30 6507 C 630.896 -1.19928 1.6921 0
M  V30 6508 C 631.321 -1.8392 0.394355 0
M  V30 6509 O 630.679 -1.69371 -0.646778 0
M  V30 6510 C 630.727 -2.24937 2.81843 0
M  V30 6511 O 629.831 -3.3073 2.46356 0
M  V30 6512 H 629.172 -0.35078 0.563781 0
M  V30 6513 H 631.702 -0.499401 1.98412 0
M  V30 6514 H 631.712 -2.69512 3.06312 0
M  V30 6515 H 630.387 -1.77742 3.76006 0
M  V30 6516 H 628.964 -2.9154 2.32505 0
M  V30 6517 N 631.149 -1.42148 -0.680565 0
M  V30 6518 C 632.112 -1.4488 -1.77602 0
M  V30 6519 C 633.112 -0.337209 -1.57224 0
M  V30 6520 O 634.302 -0.597778 -1.63622 0
M  V30 6521 C 631.434 -1.27483 -3.16166 0
M  V30 6522 H 632.627 -2.42412 -1.76568 0
M  V30 6523 H 630.18 -1.28511 -0.889645 0
M  V30 6524 H 630.915 -0.30851 -3.22829 0
M  V30 6525 H 630.7 -2.08037 -3.3236 0
M  V30 6526 H 632.19 -1.32265 -3.96101 0
M  V30 6527 N 632.627 0.916307 -1.28225 0
M  V30 6528 C 633.904 1.64429 -1.05936 0
M  V30 6529 C 634.284 2.07234 0.402139 0
M  V30 6530 O 633.632 1.81535 1.3877 0
M  V30 6531 C 633.842 2.83773 -2.03159 0
M  V30 6532 C 635.19 3.54852 -2.33164 0
M  V30 6533 O 636.214 2.93918 -2.01223 0
M  V30 6534 O 635.073 4.64663 -2.87664 0
M  V30 6535 H 632.167 0.721221 -0.404683 0
M  V30 6536 H 634.713 0.965838 -1.39534 0
M  V30 6537 H 633.485 2.49217 -3.01673 0
M  V30 6538 H 633.108 3.59333 -1.70192 0
M  V30 6539 N 634.105 1.10431 1.1244 0
M  V30 6540 C 635.354 0.841539 1.83306 0
M  V30 6541 C 635.667 -0.634961 1.85007 0
M  V30 6542 O 636.873 -1.01363 2.51869 0
M  V30 6543 C 635.329 1.45565 3.29149 0
M  V30 6544 C 634.937 2.96544 3.35806 0
M  V30 6545 C 636.681 1.27227 4.04986 0
M  V30 6546 C 634.588 3.5099 4.75983 0
M  V30 6547 H 633.518 0.311156 0.686803 0
M  V30 6548 H 636.169 1.32829 1.26604 0
M  V30 6549 H 634.551 0.896574 3.85717 0
M  V30 6550 H 635.725 3.58766 2.89177 0
M  V30 6551 H 634.04 3.14036 2.73442 0
M  V30 6552 H 636.637 1.65348 5.08492 0
M  V30 6553 H 636.98 0.213834 4.1575 0
M  V30 6554 H 637.513 1.79941 3.54776 0
M  V30 6555 H 634.252 4.56499 4.70413 0
M  V30 6556 H 633.772 2.93535 5.23065 0
M  V30 6557 H 635.451 3.48808 5.44924 0
M  V30 6558 N 635.583 -1.29855 0.893053 0
M  V30 6559 C 636.811 -1.99976 0.530788 0
M  V30 6560 C 637.226 -1.66889 -0.882799 0
M  V30 6561 O 636.583 -0.910352 -1.58173 0
M  V30 6562 C 636.634 -3.54547 0.705587 0
M  V30 6563 O 636.355 -3.86458 2.06353 0
M  V30 6564 C 637.856 -4.41937 0.347387 0
M  V30 6565 H 635.076 -0.639129 0.204339 0
M  V30 6566 H 637.62 -1.65549 1.20057 0
M  V30 6567 H 635.775 -3.87311 0.0830685 0
M  V30 6568 H 636.189 -4.81146 2.08803 0
M  V30 6569 H 637.663 -5.4954 0.520557 0
M  V30 6570 H 638.14 -4.33339 -0.715139 0
M  V30 6571 H 638.746 -4.14633 0.946567 0
M  V30 6572 N 637.061 -0.65484 -1.43351 0
M  V30 6573 C 637.993 0.0744757 -2.29079 0
M  V30 6574 C 639.006 0.7855 -1.42596 0
M  V30 6575 O 640.195 0.642986 -1.66517 0
M  V30 6576 C 637.295 1.12859 -3.19556 0
M  V30 6577 C 636.468 0.495381 -4.34586 0
M  V30 6578 C 635.527 1.44659 -5.05925 0
M  V30 6579 O 634.553 0.954567 -5.61139 0
M  V30 6580 N 635.755 2.78051 -5.09576 0
M  V30 6581 H 638.52 -0.661346 -2.92312 0
M  V30 6582 H 636.081 -0.497744 -1.54059 0
M  V30 6583 H 638.073 1.76577 -3.64147 0
M  V30 6584 H 636.643 1.76636 -2.57912 0
M  V30 6585 H 635.863 -0.32092 -3.92892 0
M  V30 6586 H 637.151 0.0534203 -5.08772 0
M  V30 6587 H 636.549 3.20584 -4.66093 0
M  V30 6588 H 635.106 3.37068 -5.57878 0
M  V30 6589 N 638.539 1.52521 -0.396863 0
M  V30 6590 C 639.764 2.06571 0.185258 0
M  V30 6591 C 640.189 1.26605 1.39115 0
M  V30 6592 O 639.547 0.293055 1.78916 0
M  V30 6593 C 639.595 3.5674 0.526189 0
M  V30 6594 O 638.699 3.7929 1.61903 0
M  V30 6595 H 638.04 0.663712 0.0195474 0
M  V30 6596 H 640.57 1.966 -0.566519 0
M  V30 6597 H 640.58 4.00311 0.788338 0
M  V30 6598 H 639.255 4.14379 -0.355397 0
M  V30 6599 H 637.832 3.47605 1.35 0
M  V30 6600 N 640.017 0.126909 1.57088 0
M  V30 6601 C 641.263 -0.529952 1.95753 0
M  V30 6602 C 641.596 -1.65823 1.01077 0
M  V30 6603 O 640.871 -1.94437 0.0494162 0
M  V30 6604 C 641.154 -1.05517 3.44294 0
M  V30 6605 C 641.007 0.0702253 4.49745 0
M  V30 6606 C 642.326 -1.9435 3.94862 0
M  V30 6607 H 639.445 -0.191168 0.711775 0
M  V30 6608 H 642.087 0.204071 1.88901 0
M  V30 6609 H 640.237 -1.68069 3.50264 0
M  V30 6610 H 641.909 0.705834 4.55868 0
M  V30 6611 H 640.152 0.732259 4.27575 0
M  V30 6612 H 640.823 -0.338642 5.5096 0
M  V30 6613 H 643.299 -1.41658 3.91244 0
M  V30 6614 H 642.175 -2.28015 4.993 0
M  V30 6615 H 642.436 -2.87299 3.36024 0
M  V30 6616 N 641.495 -1.56914 -0.146875 0
M  V30 6617 C 642.458 -1.97368 -1.16526 0
M  V30 6618 C 643.458 -0.860223 -1.35856 0
M  V30 6619 O 644.648 -1.12684 -1.32846 0
M  V30 6620 C 641.78 -2.28974 -2.52555 0
M  V30 6621 H 642.973 -2.88523 -0.818209 0
M  V30 6622 H 640.526 -1.5135 -0.390221 0
M  V30 6623 H 641.261 -1.40611 -2.92231 0
M  V30 6624 H 641.046 -3.10157 -2.39886 0
M  V30 6625 H 642.536 -2.61109 -3.25902 0
M  V30 6626 N 642.974 0.416227 -1.52004 0
M  V30 6627 C 644.39 0.754319 -1.40649 0
M  V30 6628 C 644.59 1.95059 -0.505392 0
M  V30 6629 O 643.646 2.5248 0.0315057 0
M  V30 6630 C 644.959 1.0149 -2.83055 0
M  V30 6631 C 646.507 1.11805 -2.9235 0
M  V30 6632 C 646.982 1.41144 -4.35709 0
M  V30 6633 N 648.473 1.48024 -4.38911 0
M  V30 6634 C 649.208 1.72338 -5.46889 0
M  V30 6635 N 648.704 1.94303 -6.64995 0
M  V30 6636 N 650.497 1.74294 -5.34395 0
M  V30 6637 H 642.648 -0.371324 -2.09129 0
M  V30 6638 H 644.911 -0.103811 -0.942299 0
M  V30 6639 H 644.617 0.208345 -3.51082 0
M  V30 6640 H 644.491 1.93697 -3.23668 0
M  V30 6641 H 646.878 1.91521 -2.24508 0
M  V30 6642 H 646.959 0.17451 -2.55204 0
M  V30 6643 H 646.603 0.619484 -5.04108 0
M  V30 6644 H 646.533 2.36739 -4.70385 0
M  V30 6645 H 649.024 1.32868 -3.53772 0
M  V30 6646 H 649.337 2.12286 -7.43071 0
M  V30 6647 H 647.682 1.91582 -6.68073 0
M  V30 6648 H 650.873 1.56667 -4.41104 0
M  V30 6649 H 651.046 1.92904 -6.18621 0
M  V30 6650 N 644.452 1.42507 0.673017 0
M  V30 6651 C 645.701 1.42364 1.42883 0
M  V30 6652 C 646.014 0.0441598 1.9555 0
M  V30 6653 O 647.22 -0.0798679 2.71382 0
M  V30 6654 C 645.676 2.5043 2.58482 0
M  V30 6655 C 645.284 3.94392 2.12506 0
M  V30 6656 C 647.028 2.59455 3.35981 0
M  V30 6657 C 644.935 4.93964 3.25198 0
M  V30 6658 H 643.865 0.52951 0.536782 0
M  V30 6659 H 646.516 1.68422 0.728448 0
M  V30 6660 H 644.898 2.1754 3.30896 0
M  V30 6661 H 646.072 4.36645 1.47233 0
M  V30 6662 H 644.387 3.89233 1.4794 0
M  V30 6663 H 646.984 3.31025 4.19912 0
M  V30 6664 H 647.327 1.63869 3.82691 0
M  V30 6665 H 647.86 2.91549 2.70637 0
M  V30 6666 H 644.599 5.91034 2.83477 0
M  V30 6667 H 644.119 4.56341 3.89247 0
M  V30 6668 H 645.798 5.15763 3.90637 0
M  V30 6669 N 645.93 -0.909495 1.28709 0
M  V30 6670 C 646.84 -2.04558 1.14861 0
M  V30 6671 C 647.856 -1.73842 0.0741621 0
M  V30 6672 O 649.032 -1.99383 0.2843 0
M  V30 6673 C 646.097 -3.36957 0.816148 0
M  V30 6674 C 645.158 -3.81255 1.97341 0
M  V30 6675 C 644.391 -5.07335 1.65671 0
M  V30 6676 O 644.614 -5.67514 0.573053 0
M  V30 6677 O 643.548 -5.47449 2.50167 0
M  V30 6678 H 647.374 -2.19161 2.10243 0
M  V30 6679 H 644.959 -1.03159 1.08068 0
M  V30 6680 H 646.841 -4.16436 0.644873 0
M  V30 6681 H 645.516 -3.2352 -0.107983 0
M  V30 6682 H 644.423 -3.02584 2.19986 0
M  V30 6683 H 645.756 -3.99261 2.87839 0
M  V30 6684 N 647.408 -1.11026 -1.11852 0
M  V30 6685 C 648.656 -0.854769 -1.83134 0
M  V30 6686 C 648.977 0.621375 -1.84835 0
M  V30 6687 O 648.247 1.45129 -1.31584 0
M  V30 6688 H 646.827 -0.313229 -0.678157 0
M  V30 6689 H 649.489 -1.40178 -1.35411 0
M  V30 6690 H 648.585 -1.22311 -2.87135 0
M  V30 6691 N 648.886 1.2938 -0.899927 0
M  V30 6692 C 649.796 2.31462 -0.382437 0
M  V30 6693 C 650.812 1.65956 0.522929 0
M  V30 6694 O 651.988 1.97131 0.412454 0
M  V30 6695 C 649.053 3.44595 0.381472 0
M  V30 6696 C 648.114 4.25692 -0.555444 0
M  V30 6697 C 647.347 5.33422 0.172102 0
M  V30 6698 O 647.57 5.53053 1.396 0
M  V30 6699 O 646.504 5.99939 -0.485491 0
M  V30 6700 H 650.33 2.77706 -1.22934 0
M  V30 6701 H 647.915 1.33821 -0.664259 0
M  V30 6702 H 649.797 4.13474 0.813442 0
M  V30 6703 H 648.472 3.00458 1.20443 0
M  V30 6704 H 647.379 3.59453 -1.03653 0
M  V30 6705 H 648.712 4.73471 -1.34483 0
M  V30 6706 N 650.364 0.662433 1.43002 0
M  V30 6707 C 651.78 0.330835 1.56133 0
M  V30 6708 C 651.98 -1.16454 1.64441 0
M  V30 6709 O 651.036 -1.94964 1.60453 0
M  V30 6710 C 652.349 1.05029 2.81761 0
M  V30 6711 C 653.897 1.03142 2.95518 0
M  V30 6712 C 654.372 1.73196 4.2399 0
M  V30 6713 N 655.863 1.70004 4.30875 0
M  V30 6714 C 656.598 2.21074 5.29069 0
M  V30 6715 N 656.094 2.80473 6.33488 0
M  V30 6716 N 657.887 2.1152 5.20784 0
M  V30 6717 H 650.038 1.63272 1.35853 0
M  V30 6718 H 652.301 0.687149 0.653092 0
M  V30 6719 H 652.007 2.10542 2.81718 0
M  V30 6720 H 651.881 0.607664 3.72273 0
M  V30 6721 H 654.268 -0.0153339 2.95096 0
M  V30 6722 H 654.349 1.51282 2.0627 0
M  V30 6723 H 653.993 2.77833 4.25172 0
M  V30 6724 H 653.923 1.22515 5.1215 0
M  V30 6725 H 656.414 1.26667 3.56039 0
M  V30 6726 H 656.727 3.17094 7.04749 0
M  V30 6727 H 655.072 2.84538 6.34085 0
M  V30 6728 H 658.263 1.64814 4.38126 0
M  V30 6729 H 658.436 2.51629 5.97149 0
M  V30 6730 N 651.842 -1.52309 0.404946 0
M  V30 6731 C 653.07 -2.06185 -0.171818 0
M  V30 6732 C 653.485 -1.27536 -1.39212 0
M  V30 6733 O 652.842 -0.326112 -1.79563 0
M  V30 6734 C 652.893 -3.57647 -0.526417 0
M  V30 6735 O 652.614 -4.3332 0.645417 0
M  V30 6736 C 654.115 -4.27925 -1.15736 0
M  V30 6737 H 651.335 -0.670632 -0.0222328 0
M  V30 6738 H 653.879 -1.96259 0.574692 0
M  V30 6739 H 652.034 -3.67595 -1.22282 0
M  V30 6740 H 652.448 -5.23328 0.35042 0
M  V30 6741 H 653.922 -5.35093 -1.35572 0
M  V30 6742 H 654.399 -3.84134 -2.12926 0
M  V30 6743 H 655.005 -4.22335 -0.501281 0
M  V30 6744 N 653.32 -0.135238 -1.57019 0
M  V30 6745 C 654.567 0.518794 -1.95742 0
M  V30 6746 C 654.895 1.65642 -1.01947 0
M  V30 6747 O 654.15 1.95645 -0.0464016 0
M  V30 6748 C 654.449 1.07694 -3.40788 0
M  V30 6749 C 654.115 0.058992 -4.50861 0
M  V30 6750 C 652.777 -0.220872 -4.80693 0
M  V30 6751 C 655.129 -0.633856 -5.17331 0
M  V30 6752 C 652.457 -1.19959 -5.74305 0
M  V30 6753 C 654.809 -1.60131 -6.11997 0
M  V30 6754 C 653.473 -1.889 -6.40213 0
M  V30 6755 H 652.743 0.18984 -0.716269 0
M  V30 6756 H 655.39 -0.219581 -1.90237 0
M  V30 6757 H 653.695 1.89241 -3.43067 0
M  V30 6758 H 655.392 1.59137 -3.68071 0
M  V30 6759 H 651.982 0.287304 -4.27636 0
M  V30 6760 H 656.166 -0.430823 -4.94427 0
M  V30 6761 H 651.422 -1.42905 -5.94465 0
M  V30 6762 H 655.596 -2.14376 -6.62583 0
M  V30 6763 H 653.223 -2.64891 -7.12556 0
M  V30 6764 N 654.798 1.5699 0.138552 0
M  V30 6765 C 655.73 1.95515 1.1961 0
M  V30 6766 C 656.743 0.852002 1.38726 0
M  V30 6767 O 657.932 1.13038 1.38147 0
M  V30 6768 C 655.032 2.2213 2.55952 0
M  V30 6769 C 654.205 3.53424 2.57702 0
M  V30 6770 C 653.264 3.6848 3.75645 0
M  V30 6771 O 652.29 4.4079 3.60129 0
M  V30 6772 N 653.492 3.05777 4.93438 0
M  V30 6773 H 656.257 2.86838 0.868557 0
M  V30 6774 H 653.818 1.58542 0.328033 0
M  V30 6775 H 655.81 2.29435 3.33379 0
M  V30 6776 H 654.38 1.3703 2.80965 0
M  V30 6777 H 653.6 3.57484 1.6613 0
M  V30 6778 H 654.888 4.39759 2.55909 0
M  V30 6779 H 654.286 2.46961 5.08947 0
M  V30 6780 H 652.843 3.18631 5.6861 0
M  V30 6781 N 656.276 -0.40816 1.52223 0
M  V30 6782 C 657.524 -1.15274 1.66001 0
M  V30 6783 C 657.845 -1.91003 0.392803 0
M  V30 6784 O 657.115 -1.8673 -0.592336 0
M  V30 6785 H 655.695 -0.428526 0.611861 0
M  V30 6786 H 658.357 -0.46512 1.89269 0
M  V30 6787 H 657.453 -1.86628 2.50153 0
M  V30 6788 N 657.755 -1.42862 -0.66545 0
M  V30 6789 C 658.702 -1.4707 -1.77874 0
M  V30 6790 C 659.672 -0.321654 -1.62956 0
M  V30 6791 O 660.857 -0.52707 -1.83376 0
M  V30 6792 C 657.997 -1.38788 -3.15962 0
M  V30 6793 C 657.11 -2.63801 -3.42101 0
M  V30 6794 C 656.245 -2.47594 -4.69969 0
M  V30 6795 C 655.284 -3.67936 -4.89172 0
M  V30 6796 N 654.421 -3.50614 -6.08288 0
M  V30 6797 H 659.261 -2.42204 -1.73613 0
M  V30 6798 H 656.798 -1.20239 -0.847401 0
M  V30 6799 H 658.756 -1.31982 -3.95773 0
M  V30 6800 H 657.386 -0.472431 -3.19324 0
M  V30 6801 H 656.438 -2.80935 -2.56475 0
M  V30 6802 H 657.75 -3.53228 -3.52181 0
M  V30 6803 H 656.904 -2.38427 -5.57886 0
M  V30 6804 H 655.643 -1.55672 -4.62188 0
M  V30 6805 H 654.648 -3.77525 -3.99694 0
M  V30 6806 H 655.873 -4.60851 -4.98792 0
M  V30 6807 H 653.819 -2.61417 -6.01662 0
M  V30 6808 H 653.736 -4.33634 -6.19272 0
M  V30 6809 H 655.004 -3.45276 -6.98859 0
M  V30 6810 N 659.233 0.902656 -1.29189 0
M  V30 6811 C 660.458 1.69167 -1.19989 0
M  V30 6812 C 660.883 1.86607 0.236495 0
M  V30 6813 O 660.241 1.38425 1.17082 0
M  V30 6814 C 660.289 3.05532 -1.91527 0
M  V30 6815 O 659.393 3.93621 -1.2303 0
M  V30 6816 H 658.734 0.517584 -0.415936 0
M  V30 6817 H 661.264 1.12785 -1.70706 0
M  V30 6818 H 661.274 3.55693 -1.99866 0
M  V30 6819 H 659.949 2.92156 -2.96003 0
M  V30 6820 H 658.526 3.52055 -1.22928 0
M  V30 6821 N 660.711 1.11618 1.11262 0
M  V30 6822 C 661.957 0.877377 1.83504 0
M  V30 6823 C 662.312 -0.590606 1.83111 0
M  V30 6824 O 661.605 -1.43057 1.27456 0
M  V30 6825 C 661.799 1.37529 3.2988 0
M  V30 6826 C 661.628 2.89014 3.4453 0
M  V30 6827 C 660.398 3.57157 3.57445 0
M  V30 6828 C 662.596 3.8706 3.38658 0
M  V30 6829 N 660.578 4.96842 3.60585 0
M  V30 6830 C 661.949 5.12825 3.4844 0
M  V30 6831 C 664.004 3.79593 3.22201 0
M  V30 6832 C 662.707 6.32002 3.43462 0
M  V30 6833 C 664.733 4.98282 3.18542 0
M  V30 6834 C 664.095 6.22901 3.28897 0
M  V30 6835 H 660.194 0.37422 0.686646 0
M  V30 6836 H 662.778 1.42087 1.33114 0
M  V30 6837 H 660.949 0.85895 3.78783 0
M  V30 6838 H 662.681 1.07944 3.90039 0
M  V30 6839 H 659.436 3.07628 3.60086 0
M  V30 6840 H 659.86 5.69674 3.65788 0
M  V30 6841 H 664.502 2.84149 3.1308 0
M  V30 6842 H 662.22 7.27721 3.51352 0
M  V30 6843 H 665.806 4.94226 3.06972 0
M  V30 6844 H 664.686 7.13202 3.26056 0
M  V30 6845 N 662.189 -1.289 0.906776 0
M  V30 6846 C 663.605 -1.47733 0.603902 0
M  V30 6847 C 663.805 -1.82568 -0.852702 0
M  V30 6848 O 662.861 -1.92642 -1.63234 0
M  V30 6849 C 664.174 -2.58522 1.53581 0
M  V30 6850 C 665.722 -2.72394 1.54177 0
M  V30 6851 C 666.197 -3.86318 2.46013 0
M  V30 6852 N 667.688 -3.93661 2.441 0
M  V30 6853 C 668.423 -4.81177 3.11859 0
M  V30 6854 N 667.919 -5.73333 3.88923 0
M  V30 6855 N 669.712 -4.74728 3.00981 0
M  V30 6856 H 661.863 -1.04567 1.84877 0
M  V30 6857 H 664.126 -0.520118 0.792579 0
M  V30 6858 H 663.832 -2.39667 2.57396 0
M  V30 6859 H 663.706 -3.55475 1.26165 0
M  V30 6860 H 666.093 -2.90641 0.511034 0
M  V30 6861 H 666.174 -1.75993 1.85634 0
M  V30 6862 H 665.818 -3.68826 3.49185 0
M  V30 6863 H 665.748 -4.82102 2.11862 0
M  V30 6864 H 668.239 -3.27751 1.88115 0
M  V30 6865 H 668.552 -6.36923 4.37663 0
M  V30 6866 H 666.897 -5.73196 3.93029 0
M  V30 6867 H 670.088 -4.01722 2.40286 0
M  V30 6868 H 670.261 -5.42719 3.54062 0
M  V30 6869 N 663.667 -0.670007 -1.42649 0
M  V30 6870 C 664.597 -0.00258501 -2.335 0
M  V30 6871 C 665.578 0.794364 -1.50412 0
M  V30 6872 O 666.763 0.75248 -1.79029 0
M  V30 6873 C 663.893 0.952748 -3.33976 0
M  V30 6874 C 662.847 0.264733 -4.2718 0
M  V30 6875 C 662.173 1.33267 -5.17826 0
M  V30 6876 C 663.473 -0.853289 -5.15283 0
M  V30 6877 H 665.167 -0.761326 -2.89559 0
M  V30 6878 H 662.713 -0.367561 -1.3923 0
M  V30 6879 H 664.666 1.4287 -3.96442 0
M  V30 6880 H 663.39 1.74285 -2.7621 0
M  V30 6881 H 662.049 -0.190938 -3.66102 0
M  V30 6882 H 661.697 2.11464 -4.5639 0
M  V30 6883 H 661.397 0.877476 -5.81011 0
M  V30 6884 H 662.921 1.80965 -5.83167 0
M  V30 6885 H 664.335 -0.458763 -5.71462 0
M  V30 6886 H 662.732 -1.23398 -5.87276 0
M  V30 6887 H 663.802 -1.70412 -4.53969 0
M  V30 6888 N 665.145 1.52092 -0.413018 0
M  V30 6889 C 666.37 2.06756 0.163338 0
M  V30 6890 C 666.795 1.28073 1.37764 0
M  V30 6891 O 666.153 0.312015 1.78595 0
M  V30 6892 C 666.201 3.57278 0.488322 0
M  V30 6893 O 665.305 3.80986 1.57871 0
M  V30 6894 H 664.646 0.663882 0.0125068 0
M  V30 6895 H 667.176 1.95988 -0.587339 0
M  V30 6896 H 667.186 4.01125 0.745836 0
M  V30 6897 H 665.861 4.13978 -0.399327 0
M  V30 6898 H 664.438 3.49017 1.31306 0
M  V30 6899 N 666.623 0.143563 1.56945 0
M  V30 6900 C 667.853 -0.514699 2.00086 0
M  V30 6901 C 668.261 -1.59184 1.0226 0
M  V30 6902 O 667.604 -1.83697 0.0110514 0
M  V30 6903 C 667.666 -1.17778 3.39659 0
M  V30 6904 C 667.33 -0.245657 4.56339 0
M  V30 6905 C 668.327 0.525343 5.17239 0
M  V30 6906 C 666.012 -0.149564 5.02077 0
M  V30 6907 C 668.006 1.37992 6.22284 0
M  V30 6908 C 665.693 0.708621 6.06978 0
M  V30 6909 C 666.691 1.47197 6.6695 0
M  V30 6910 O 666.379 2.31586 7.6982 0
M  V30 6911 H 666.111 -0.138789 0.661599 0
M  V30 6912 H 668.665 0.234098 2.04062 0
M  V30 6913 H 666.895 -1.97415 3.32512 0
M  V30 6914 H 668.584 -1.73542 3.6693 0
M  V30 6915 H 669.35 0.461118 4.82803 0
M  V30 6916 H 665.229 -0.733457 4.55128 0
M  V30 6917 H 668.773 1.97621 6.69023 0
M  V30 6918 H 664.67 0.77415 6.40841 0
M  V30 6919 H 665.438 2.24796 7.87025 0
M  V30 6920 N 668.101 -1.57061 -0.130224 0
M  V30 6921 C 669.326 -1.88802 -0.858409 0
M  V30 6922 C 669.751 -0.734353 -1.73173 0
M  V30 6923 O 669.109 0.315529 -1.78533 0
M  V30 6924 C 669.157 -3.19228 -1.67708 0
M  V30 6925 O 668.261 -3.04343 -2.78297 0
M  V30 6926 H 667.602 -0.619849 -0.238083 0
M  V30 6927 H 670.132 -2.04271 -0.115995 0
M  V30 6928 H 670.142 -3.51669 -2.06864 0
M  V30 6929 H 668.817 -4.02793 -1.0359 0
M  V30 6930 H 667.394 -2.83346 -2.42425 0
M  V30 6931 N 669.579 0.400081 -1.52437 0
M  V30 6932 C 670.526 1.48803 -1.76426 0
M  V30 6933 C 671.496 1.5461 -0.607032 0
M  V30 6934 O 672.681 1.71041 -0.845563 0
M  V30 6935 C 669.821 2.86156 -1.92896 0
M  V30 6936 C 668.934 2.89587 -3.20567 0
M  V30 6937 C 668.069 4.18296 -3.27417 0
M  V30 6938 C 667.108 4.15736 -4.49255 0
M  V30 6939 N 666.245 5.36032 -4.53447 0
M  V30 6940 H 671.085 1.27649 -2.69276 0
M  V30 6941 H 668.622 0.619451 -1.33421 0
M  V30 6942 H 670.58 3.65901 -2.00429 0
M  V30 6943 H 669.21 3.05785 -1.03418 0
M  V30 6944 H 668.262 2.02278 -3.22161 0
M  V30 6945 H 669.574 2.83562 -4.10358 0
M  V30 6946 H 668.728 5.06439 -3.34072 0
M  V30 6947 H 667.467 4.27028 -2.35581 0
M  V30 6948 H 666.472 3.25982 -4.42737 0
M  V30 6949 H 667.697 4.08636 -5.42396 0
M  V30 6950 H 665.643 5.45415 -3.64498 0
M  V30 6951 H 665.56 5.32038 -5.37096 0
M  V30 6952 H 666.828 6.26104 -4.64343 0
M  V30 6953 N 671.057 1.43213 0.657864 0
M  V30 6954 C 672.473 1.26511 0.972992 0
M  V30 6955 C 672.673 0.181477 2.00681 0
M  V30 6956 O 671.729 -0.441649 2.48608 0
M  V30 6957 C 673.042 2.62784 1.46168 0
M  V30 6958 C 674.59 2.70278 1.57857 0
M  V30 6959 C 675.065 4.06958 2.10117 0
M  V30 6960 N 676.556 4.08999 2.17426 0
M  V30 6961 C 677.291 5.11585 2.58975 0
M  V30 6962 N 676.787 6.24548 2.99853 0
M  V30 6963 N 678.58 4.9894 2.58873 0
M  V30 6964 H 670.731 2.12384 -0.0263129 0
M  V30 6965 H 672.994 0.946638 0.0507992 0
M  V30 6966 H 672.7 3.43022 0.776474 0
M  V30 6967 H 672.574 2.87863 2.43751 0
M  V30 6968 H 674.961 1.90376 2.25479 0
M  V30 6969 H 675.042 2.4897 0.587179 0
M  V30 6970 H 674.686 4.87325 1.43098 0
M  V30 6971 H 674.616 4.25628 3.10078 0
M  V30 6972 H 677.107 3.27457 1.88627 0
M  V30 6973 H 677.42 6.98661 3.30292 0
M  V30 6974 H 675.765 6.28027 2.97669 0
M  V30 6975 H 678.956 4.09757 2.26311 0
M  V30 6976 H 679.129 5.79019 2.90932 0
M  V30 6977 N 672.536 -0.895792 1.29666 0
M  V30 6978 C 673.783 -1.64664 1.17864 0
M  V30 6979 C 674.111 -1.92631 -0.26902 0
M  V30 6980 O 673.366 -1.53787 -1.21029 0
M  V30 6981 C 673.665 -3.00075 1.94139 0
M  V30 6982 C 673.331 -2.91702 3.43833 0
M  V30 6983 C 671.993 -2.89126 3.84656 0
M  V30 6984 C 674.345 -2.80622 4.39205 0
M  V30 6985 C 671.673 -2.73293 5.1916 0
M  V30 6986 C 674.025 -2.66329 5.73805 0
M  V30 6987 C 672.689 -2.62121 6.1388 0
M  V30 6988 H 671.959 -0.602549 0.431295 0
M  V30 6989 H 674.606 -1.04234 1.60648 0
M  V30 6990 H 672.911 -3.64394 1.43958 0
M  V30 6991 H 674.608 -3.57111 1.82408 0
M  V30 6992 H 671.198 -2.94511 3.11386 0
M  V30 6993 H 675.382 -2.81686 4.08615 0
M  V30 6994 H 670.638 -2.68443 5.49316 0
M  V30 6995 H 674.812 -2.56727 6.47352 0
M  V30 6996 H 672.439 -2.49611 7.18052 0
M  V30 6997 N 674.014 -1.12206 -1.10668 0
M  V30 6998 C 675.291 -0.787382 -1.79052 0
M  V30 6999 C 675.671 0.723267 -1.98323 0
M  V30 7000 O 675.019 1.6561 -1.57434 0
M  V30 7001 C 675.229 -1.55968 -3.1221 0
M  V30 7002 C 676.577 -1.74413 -3.87125 0
M  V30 7003 O 677.601 -1.5246 -3.21923 0
M  V30 7004 O 676.46 -2.10952 -5.04144 0
M  V30 7005 H 673.554 -0.286137 -0.775922 0
M  V30 7006 H 676.1 -1.22595 -1.1734 0
M  V30 7007 H 674.872 -2.58692 -2.93588 0
M  V30 7008 H 674.495 -1.1152 -3.8164 0
M  V30 7009 N 675.492 1.28418 -0.913599 0
M  V30 7010 C 676.44 2.29272 -0.392037 0
M  V30 7011 C 677.434 1.61344 0.516198 0
M  V30 7012 O 678.64 1.75557 0.39746 0
M  V30 7013 H 675.015 0.744178 -0.108178 0
M  V30 7014 H 676.986 2.70691 -1.25574 0
M  V30 7015 C 675.735 3.45905 0.352815 0
M  V30 7016 H 675.058 3.98378 -0.336848 0
M  V30 7017 H 676.498 4.18473 0.682398 0
M  V30 7018 C 674.957 2.98572 1.56065 0
M  V30 7019 O 675.487 3.01033 2.65974 0
M  V30 7020 N 673.693 2.54235 1.40759 0
M  V30 7021 H 673.24 2.52432 0.513403 0
M  V30 7022 H 673.198 2.22925 2.21702 0
M  V30 7023 N 676.97 0.677563 1.42291 0
M  V30 7024 C 677.933 0.0101085 2.29198 0
M  V30 7025 C 678.933 -0.726219 1.43467 0
M  V30 7026 O 680.123 -0.563807 1.64824 0
M  V30 7027 C 677.255 -0.996316 3.26016 0
M  V30 7028 H 678.448 0.775071 2.89711 0
M  V30 7029 H 676.001 0.440065 1.49977 0
M  V30 7030 H 676.736 -1.78967 2.70446 0
M  V30 7031 H 676.521 -0.471687 3.89253 0
M  V30 7032 H 678.011 -1.46167 3.91184 0
M  V30 7033 N 678.448 -1.51871 0.421078 0
M  V30 7034 C 679.725 -1.9447 -0.20993 0
M  V30 7035 C 680.105 -1.35875 -1.61558 0
M  V30 7036 O 679.453 -0.539294 -2.22045 0
M  V30 7037 C 679.663 -3.48402 -0.204165 0
M  V30 7038 C 681.011 -4.2254 -0.417696 0
M  V30 7039 O 682.035 -3.55074 -0.282999 0
M  V30 7040 O 680.894 -5.422 -0.684239 0
M  V30 7041 H 677.988 -0.815283 -0.138718 0
M  V30 7042 H 680.534 -1.62832 0.477884 0
M  V30 7043 H 679.306 -3.83464 0.779183 0
M  V30 7044 H 678.929 -3.86436 -0.935576 0
M  V30 7045 N 679.926 -0.151884 -1.56866 0
M  V30 7046 C 680.889 0.771861 -2.15812 0
M  V30 7047 C 681.889 1.17181 -1.10115 0
M  V30 7048 O 683.079 1.09194 -1.35729 0
M  V30 7049 C 680.211 2.04806 -2.7252 0
M  V30 7050 H 681.404 0.259021 -2.98779 0
M  V30 7051 H 678.957 0.097588 -1.55995 0
M  V30 7052 H 679.692 2.60445 -1.93233 0
M  V30 7053 H 679.477 1.77044 -3.49854 0
M  V30 7054 H 680.967 2.70771 -3.1792 0
M  V30 7055 N 681.404 1.57128 0.121893 0
M  V30 7056 C 682.681 1.75664 0.860327 0
M  V30 7057 C 683.061 0.726585 1.98202 0
M  V30 7058 O 682.409 -0.24999 2.27128 0
M  V30 7059 C 682.619 3.20571 1.37968 0
M  V30 7060 C 683.967 3.82988 1.83317 0
M  V30 7061 O 684.991 3.24156 1.47654 0
M  V30 7062 O 683.85 4.86393 2.49168 0
M  V30 7063 H 680.944 0.719153 0.408348 0
M  V30 7064 H 683.49 1.6937 0.105859 0
M  V30 7065 H 682.262 3.87056 0.57477 0
M  V30 7066 H 681.885 3.31392 2.19694 0
M  V30 7067 N 682.882 -0.391992 1.52647 0
M  V30 7068 C 684.131 -1.13449 1.6677 0
M  V30 7069 C 684.444 -1.91203 0.412399 0
M  V30 7070 O 685.65 -2.68013 0.433707 0
M  V30 7071 C 684.106 -2.06577 2.9471 0
M  V30 7072 C 683.714 -1.3426 4.27409 0
M  V30 7073 C 685.458 -2.80981 3.18198 0
M  V30 7074 C 683.365 -2.26136 5.46458 0
M  V30 7075 H 682.295 -0.427211 0.621295 0
M  V30 7076 H 684.946 -0.397522 1.79142 0
M  V30 7077 H 683.328 -2.83898 2.76076 0
M  V30 7078 H 684.502 -0.621856 4.56585 0
M  V30 7079 H 682.817 -0.718279 4.10158 0
M  V30 7080 H 685.414 -3.49898 4.04321 0
M  V30 7081 H 685.757 -3.44891 2.33144 0
M  V30 7082 H 686.29 -2.10754 3.37383 0
M  V30 7083 H 683.029 -1.66846 6.33911 0
M  V30 7084 H 682.549 -2.96134 5.21598 0
M  V30 7085 H 684.228 -2.86286 5.80215 0
M  V30 7086 N 684.36 -1.4356 -0.65026 0
M  V30 7087 C 685.588 -1.48779 -1.43779 0
M  V30 7088 C 686.003 -0.106593 -1.88499 0
M  V30 7089 O 685.36 0.883766 -1.59674 0
M  V30 7090 C 685.411 -2.43618 -2.67081 0
M  V30 7091 O 685.132 -3.76367 -2.24231 0
M  V30 7092 C 686.633 -2.5811 -3.60409 0
M  V30 7093 H 683.853 -0.50521 -0.441593 0
M  V30 7094 H 686.397 -1.88332 -0.796941 0
M  V30 7095 H 684.552 -2.07253 -3.273 0
M  V30 7096 H 684.966 -4.27394 -3.0403 0
M  V30 7097 H 686.44 -3.28539 -4.43583 0
M  V30 7098 H 686.917 -1.627 -4.07953 0
M  V30 7099 H 687.523 -2.95298 -3.0607 0
M  V30 7100 N 685.838 0.888903 -1.30139 0
M  V30 7101 C 687.085 1.64037 -1.18736 0
M  V30 7102 C 687.413 1.92771 0.258801 0
M  V30 7103 O 686.668 1.54427 1.20212 0
M  V30 7104 C 686.967 2.99041 -1.95728 0
M  V30 7105 C 686.633 2.89874 -3.45375 0
M  V30 7106 C 685.295 2.87082 -3.86183 0
M  V30 7107 C 687.647 2.78289 -4.40687 0
M  V30 7108 C 684.975 2.70536 -5.20603 0
M  V30 7109 C 687.327 2.63282 -5.75209 0
M  V30 7110 C 685.991 2.58861 -6.15262 0
M  V30 7111 H 685.261 0.600253 -0.434485 0
M  V30 7112 H 687.908 1.0338 -1.61198 0
M  V30 7113 H 686.213 3.63626 -1.45888 0
M  V30 7114 H 687.91 3.56139 -1.843 0
M  V30 7115 H 684.5 2.92856 -3.12943 0
M  V30 7116 H 688.684 2.79516 -4.10103 0
M  V30 7117 H 683.94 2.65526 -5.50732 0
M  V30 7118 H 688.114 2.5329 -6.48704 0
M  V30 7119 H 685.741 2.45799 -7.19366 0
M  V30 7120 N 687.317 1.12792 1.10072 0
M  V30 7121 C 688.28 0.802264 2.14701 0
M  V30 7122 C 689.28 -0.18515 1.59731 0
M  V30 7123 O 690.47 0.041109 1.74151 0
M  V30 7124 C 687.602 0.19285 3.40354 0
M  V30 7125 H 688.795 1.72932 2.45019 0
M  V30 7126 H 686.348 0.931662 1.25498 0
M  V30 7127 H 687.083 -0.743748 3.15656 0
M  V30 7128 H 686.868 0.903827 3.81541 0
M  V30 7129 H 688.358 -0.0183704 4.17596 0
M  V30 7130 N 688.795 -1.27931 0.920396 0
M  V30 7131 C 690.043 -1.94304 0.555906 0
M  V30 7132 C 690.364 -1.72753 -0.904519 0
M  V30 7133 O 689.634 -1.07104 -1.64029 0
M  V30 7134 H 688.214 -0.719001 0.202599 0
M  V30 7135 H 690.876 -1.55785 1.1712 0
M  V30 7136 H 689.972 -3.02806 0.755981 0
M  V30 7137 N 690.273 -0.685099 -1.4193 0
M  V30 7138 C 691.503 -0.220052 -2.05425 0
M  V30 7139 C 691.911 1.13185 -1.51611 0
M  V30 7140 O 691.254 1.71631 -0.654875 0
M  V30 7141 C 691.316 -0.0888364 -3.5939 0
M  V30 7142 C 690.98 -1.37109 -4.35947 0
M  V30 7143 C 691.977 -2.30675 -4.65924 0
M  V30 7144 C 689.662 -1.62155 -4.75406 0
M  V30 7145 C 691.656 -3.47556 -5.34306 0
M  V30 7146 C 689.343 -2.79324 -5.43527 0
M  V30 7147 C 690.341 -3.71848 -5.72903 0
M  V30 7148 O 690.029 -4.86966 -6.39624 0
M  V30 7149 H 689.761 -0.102165 -0.668235 0
M  V30 7150 H 692.315 -0.935194 -1.82875 0
M  V30 7151 H 690.545 0.681981 -3.80639 0
M  V30 7152 H 692.234 0.337669 -4.04493 0
M  V30 7153 H 693 -2.12579 -4.3593 0
M  V30 7154 H 688.879 -0.910053 -4.51928 0
M  V30 7155 H 692.423 -4.19794 -5.57153 0
M  V30 7156 H 688.32 -2.97342 -5.72938 0
M  V30 7157 H 689.088 -4.86644 -6.58118 0
M  V30 7158 N 691.751 1.51645 -0.429126 0
M  V30 7159 C 693.167 1.59394 -0.080994 0
M  V30 7160 C 693.367 1.44064 1.40882 0
M  V30 7161 O 692.423 1.27771 2.17786 0
M  V30 7162 C 693.736 2.94779 -0.593773 0
M  V30 7163 C 695.284 3.08067 -0.553494 0
M  V30 7164 C 695.759 4.45963 -1.04311 0
M  V30 7165 N 697.25 4.5226 -1.00076 0
M  V30 7166 C 697.985 5.57268 -1.35056 0
M  V30 7167 N 697.481 6.69734 -1.77282 0
M  V30 7168 N 699.274 5.47582 -1.26925 0
M  V30 7169 H 691.425 1.59856 -1.39857 0
M  V30 7170 H 693.688 0.753095 -0.575805 0
M  V30 7171 H 693.394 3.11342 -1.63583 0
M  V30 7172 H 693.268 3.77197 -0.0142202 0
M  V30 7173 H 695.655 2.91177 0.479556 0
M  V30 7174 H 695.736 2.27508 -1.16935 0
M  V30 7175 H 695.38 4.63598 -2.07459 0
M  V30 7176 H 695.31 5.25049 -0.403873 0
M  V30 7177 H 697.801 3.71537 -0.690564 0
M  V30 7178 H 698.114 7.4587 -2.02232 0
M  V30 7179 H 696.459 6.70963 -1.81202 0
M  V30 7180 H 699.65 4.58604 -0.93809 0
M  V30 7181 H 699.823 6.29308 -1.54516 0
M  V30 7182 N 693.229 0.160201 1.56784 0
M  V30 7183 C 694.476 -0.487588 1.96542 0
M  V30 7184 C 694.804 -1.63999 1.04569 0
M  V30 7185 O 694.059 -1.95546 0.0775211 0
M  V30 7186 C 694.358 -1.02259 3.42459 0
M  V30 7187 C 694.024 0.0127436 4.50898 0
M  V30 7188 C 692.686 0.297318 4.80281 0
M  V30 7189 C 695.038 0.716078 5.16257 0
M  V30 7190 C 692.366 1.29081 5.72324 0
M  V30 7191 C 694.718 1.69847 6.09372 0
M  V30 7192 C 693.382 1.99061 6.37127 0
M  V30 7193 H 692.652 -0.178421 0.719199 0
M  V30 7194 H 695.299 0.249818 1.89864 0
M  V30 7195 H 693.604 -1.8376 3.46034 0
M  V30 7196 H 695.301 -1.53261 3.70556 0
M  V30 7197 H 691.891 -0.219235 4.28039 0
M  V30 7198 H 696.075 0.509428 4.93679 0
M  V30 7199 H 691.331 1.52344 5.92116 0
M  V30 7200 H 695.505 2.2489 6.59088 0
M  V30 7201 H 693.132 2.76194 7.08252 0
M  V30 7202 N 694.707 -1.5719 -0.113559 0
M  V30 7203 C 695.932 -1.89702 -0.838336 0
M  V30 7204 C 696.357 -0.752679 -1.72384 0
M  V30 7205 O 695.715 0.296575 -1.78858 0
M  V30 7206 C 695.763 -3.20989 -1.64312 0
M  V30 7207 O 694.867 -3.07278 -2.75053 0
M  V30 7208 H 694.208 -0.622339 -0.231496 0
M  V30 7209 H 696.738 -2.04382 -0.0943228 0
M  V30 7210 H 696.748 -3.53843 -2.03123 0
M  V30 7211 H 695.423 -4.03869 -0.993119 0
M  V30 7212 H 694 -2.85901 -2.39406 0
M  V30 7213 N 696.185 0.383891 -1.52853 0
M  V30 7214 C 697.095 1.49343 -1.80925 0
M  V30 7215 C 698.111 1.59458 -0.696348 0
M  V30 7216 O 699.287 1.75698 -0.984481 0
M  V30 7217 C 696.352 2.84819 -1.97684 0
M  V30 7218 C 695.413 2.84382 -3.21598 0
M  V30 7219 C 694.646 4.13397 -3.37548 0
M  V30 7220 O 694.869 5.08619 -2.58192 0
M  V30 7221 O 693.803 4.20325 -4.30826 0
M  V30 7222 H 697.629 1.2855 -2.75152 0
M  V30 7223 H 695.214 0.572229 -1.38007 0
M  V30 7224 H 697.096 3.65125 -2.10385 0
M  V30 7225 H 695.771 3.05627 -1.06647 0
M  V30 7226 H 694.678 2.0284 -3.14336 0
M  V30 7227 H 696.011 2.68526 -4.12498 0
M  V30 7228 N 697.663 1.43903 0.642637 0
M  V30 7229 C 699.079 1.27536 0.959519 0
M  V30 7230 C 699.279 0.202751 2.00477 0
M  V30 7231 O 698.335 -0.415256 2.49062 0
M  V30 7232 C 699.648 2.6432 1.43372 0
M  V30 7233 C 701.196 2.71937 1.54981 0
M  V30 7234 C 701.671 4.09164 2.05789 0
M  V30 7235 N 703.162 4.11282 2.13076 0
M  V30 7236 C 703.897 5.14303 2.53534 0
M  V30 7237 N 703.393 6.27693 2.93212 0
M  V30 7238 N 705.186 5.01657 2.53567 0
M  V30 7239 H 697.337 2.12344 -0.0488376 0
M  V30 7240 H 699.6 0.947124 0.0407559 0
M  V30 7241 H 699.306 3.43826 0.740048 0
M  V30 7242 H 699.18 2.90432 2.40685 0
M  V30 7243 H 701.567 1.92757 2.23448 0
M  V30 7244 H 701.648 2.49578 0.560739 0
M  V30 7245 H 701.292 4.88815 1.37921 0
M  V30 7246 H 701.222 4.28893 3.05546 0
M  V30 7247 H 703.713 3.2944 1.85143 0
M  V30 7248 H 704.026 7.02125 3.22863 0
M  V30 7249 H 702.371 6.31149 2.90991 0
M  V30 7250 H 705.562 4.12134 2.21952 0
M  V30 7251 H 705.735 5.82072 2.84774 0
M  V30 7252 N 699.141 -0.881989 1.30609 0
M  V30 7253 C 700.089 -2.00942 1.17155 0
M  V30 7254 C 701.083 -1.69198 0.0827154 0
M  V30 7255 O 702.289 -1.78342 0.243775 0
M  V30 7256 H 698.664 -0.658913 0.362406 0
M  V30 7257 H 700.635 -2.09423 2.12567 0
M  V30 7258 C 699.384 -3.36294 0.883273 0
M  V30 7259 H 698.707 -3.61233 1.7132 0
M  V30 7260 H 700.147 -4.15812 0.829255 0
M  V30 7261 C 698.606 -3.34348 -0.413851 0
M  V30 7262 O 699.136 -3.75216 -1.43444 0
M  V30 7263 N 697.342 -2.87459 -0.426082 0
M  V30 7264 H 696.889 -2.54397 0.40493 0
M  V30 7265 H 696.847 -2.8654 -1.29391 0
M  V30 7266 N 700.619 -1.13374 -1.09472 0
M  V30 7267 C 701.849 -0.917019 -1.85133 0
M  V30 7268 C 702.257 0.537568 -1.81402 0
M  V30 7269 O 701.6 1.38385 -1.20811 0
M  V30 7270 C 701.662 -1.32646 -3.34134 0
M  V30 7271 C 701.326 -2.79437 -3.61613 0
M  V30 7272 C 702.323 -3.77596 -3.57375 0
M  V30 7273 C 700.008 -3.16586 -3.89973 0
M  V30 7274 C 702.002 -5.10916 -3.81108 0
M  V30 7275 C 699.689 -4.50085 -4.13361 0
M  V30 7276 C 700.687 -5.47059 -4.0892 0
M  V30 7277 O 700.375 -6.78149 -4.31705 0
M  V30 7278 H 700.107 -0.326997 -0.591649 0
M  V30 7279 H 702.661 -1.51002 -1.39239 0
M  V30 7280 H 700.891 -0.676719 -3.80733 0
M  V30 7281 H 702.58 -1.08229 -3.91205 0
M  V30 7282 H 703.346 -3.50242 -3.35493 0
M  V30 7283 H 699.225 -2.41707 -3.92554 0
M  V30 7284 H 702.769 -5.86597 -3.77558 0
M  V30 7285 H 698.666 -4.77163 -4.34724 0
M  V30 7286 H 699.434 -6.84244 -4.49168 0
M  V30 7287 N 702.098 1.27442 -0.927168 0
M  V30 7288 C 703.031 2.25177 -0.370232 0
M  V30 7289 C 704.009 1.53612 0.533103 0
M  V30 7290 O 705.193 1.8245 0.47373 0
M  V30 7291 C 702.32 3.35431 0.469411 0
M  V30 7292 C 701.366 4.24888 -0.370419 0
M  V30 7293 S 702.199 5.04852 -1.78562 0
M  V30 7294 C 703.355 6.18592 -0.953651 0
M  V30 7295 H 703.588 2.72069 -1.19858 0
M  V30 7296 H 701.121 1.36089 -0.729316 0
M  V30 7297 H 703.079 3.99404 0.947992 0
M  V30 7298 H 701.74 2.87179 1.27228 0
M  V30 7299 H 700.933 5.03264 0.272226 0
M  V30 7300 H 700.535 3.65709 -0.783153 0
M  V30 7301 H 702.827 6.77235 -0.189408 0
M  V30 7302 H 703.77 6.87132 -1.7104 0
M  V30 7303 H 704.178 5.62318 -0.495897 0
M  V30 7304 N 703.576 0.692616 1.41565 0
M  V30 7305 C 704.804 0.231279 2.05603 0
M  V30 7306 C 705.219 -1.11837 1.52111 0
M  V30 7307 O 704.576 -1.6983 0.66813 0
M  V30 7308 C 704.627 0.177125 3.61066 0
M  V30 7309 O 704.348 1.47346 4.12578 0
M  V30 7310 C 705.849 -0.30556 4.42246 0
M  V30 7311 H 703.069 0.108238 0.662213 0
M  V30 7312 H 705.613 0.944369 1.81389 0
M  V30 7313 H 703.768 -0.486769 3.8433 0
M  V30 7314 H 704.182 1.35861 5.06599 0
M  V30 7315 H 705.656 -0.29233 5.51225 0
M  V30 7316 H 706.133 -1.34393 4.18133 0
M  V30 7317 H 706.739 0.327229 4.24039 0
M  V30 7318 N 705.054 -1.51416 0.437162 0
M  V30 7319 C 705.987 -2.24309 -0.419602 0
M  V30 7320 C 706.965 -1.26236 -1.02485 0
M  V30 7321 O 708.149 -1.5537 -1.06735 0
M  V30 7322 C 705.276 -2.99335 -1.58482 0
M  V30 7323 C 704.322 -4.12064 -1.10027 0
M  V30 7324 S 705.155 -5.35483 -0.0424476 0
M  V30 7325 C 706.311 -6.14047 -1.21234 0
M  V30 7326 H 706.544 -2.96632 0.199259 0
M  V30 7327 H 704.077 -1.528 0.22168 0
M  V30 7328 H 706.035 -3.43159 -2.25282 0
M  V30 7329 H 704.696 -2.26602 -2.17509 0
M  V30 7330 H 703.889 -4.63836 -1.97161 0
M  V30 7331 H 703.491 -3.70499 -0.510507 0
M  V30 7332 H 705.783 -6.43123 -2.13072 0
M  V30 7333 H 706.726 -7.04279 -0.734582 0
M  V30 7334 H 707.134 -5.45538 -1.45082 0
M  V30 7335 N 706.532 -0.168513 -1.56696 0
M  V30 7336 C 707.442 0.775435 -2.21414 0
M  V30 7337 C 708.458 1.25529 -1.20492 0
M  V30 7338 O 709.634 1.30801 -1.53144 0
M  V30 7339 C 706.699 1.9886 -2.83999 0
M  V30 7340 C 705.76 1.5559 -4.00113 0
M  V30 7341 C 704.993 2.71124 -4.59704 0
M  V30 7342 O 705.216 3.87917 -4.18182 0
M  V30 7343 O 704.15 2.4536 -5.4962 0
M  V30 7344 H 707.976 0.254416 -3.02632 0
M  V30 7345 H 705.561 0.0595507 -1.49281 0
M  V30 7346 H 707.443 2.69816 -3.23693 0
M  V30 7347 H 706.118 2.49874 -2.05779 0
M  V30 7348 H 705.025 0.815924 -3.65094 0
M  V30 7349 H 706.358 1.09271 -4.79917 0
M  V30 7350 N 708.01 1.57248 0.105221 0
M  V30 7351 C 708.942 1.98008 1.15436 0
M  V30 7352 C 709.955 0.881236 1.36887 0
M  V30 7353 O 711.144 1.15943 1.35718 0
M  V30 7354 C 708.244 2.27509 2.51183 0
M  V30 7355 C 707.417 3.58811 2.50147 0
M  V30 7356 C 706.476 3.76365 3.67745 0
M  V30 7357 O 705.502 4.48329 3.50699 0
M  V30 7358 N 706.704 3.16174 4.86841 0
M  V30 7359 H 709.469 2.88616 0.807519 0
M  V30 7360 H 707.03 1.59202 0.29433 0
M  V30 7361 H 709.022 2.36455 3.28438 0
M  V30 7362 H 707.592 1.42959 2.77995 0
M  V30 7363 H 706.812 3.60927 1.5851 0
M  V30 7364 H 708.1 4.45088 2.46524 0
M  V30 7365 H 707.498 2.57701 5.03594 0
M  V30 7366 H 706.055 3.30621 5.61723 0
M  V30 7367 N 709.488 -0.375779 1.53054 0
M  V30 7368 C 710.718 -1.1387 1.72386 0
M  V30 7369 C 711.126 -1.8382 0.447966 0
M  V30 7370 O 710.469 -1.74027 -0.588244 0
M  V30 7371 C 710.531 -2.22047 2.82728 0
M  V30 7372 C 710.195 -1.71951 4.23417 0
M  V30 7373 C 711.192 -1.18909 5.06119 0
M  V30 7374 C 708.877 -1.77773 4.69789 0
M  V30 7375 C 710.871 -0.723529 6.3328 0
M  V30 7376 C 708.558 -1.30829 5.96931 0
M  V30 7377 C 709.556 -0.782077 6.78508 0
M  V30 7378 O 709.244 -0.319529 8.03265 0
M  V30 7379 H 708.976 -0.346835 0.580242 0
M  V30 7380 H 711.53 -0.443748 2.00549 0
M  V30 7381 H 709.76 -2.95006 2.50017 0
M  V30 7382 H 711.449 -2.83654 2.90336 0
M  V30 7383 H 712.215 -1.13758 4.7147 0
M  V30 7384 H 708.094 -2.17673 4.06373 0
M  V30 7385 H 711.638 -0.312126 6.96901 0
M  V30 7386 H 707.535 -1.3567 6.31081 0
M  V30 7387 H 708.303 -0.439796 8.17318 0
M  V30 7388 N 710.966 -1.44241 -0.634997 0
M  V30 7389 C 711.896 -1.53632 -1.7584 0
M  V30 7390 C 712.877 -0.389603 -1.65578 0
M  V30 7391 O 714.062 -0.609219 -1.84397 0
M  V30 7392 C 711.192 -1.47644 -3.14354 0
M  V30 7393 C 710.146 -2.60752 -3.394 0
M  V30 7394 C 709.472 -2.39817 -4.77904 0
M  V30 7395 C 710.772 -4.02921 -3.32343 0
M  V30 7396 H 712.466 -2.47662 -1.68238 0
M  V30 7397 H 710.012 -1.19197 -0.807969 0
M  V30 7398 H 711.965 -1.52815 -3.92716 0
M  V30 7399 H 710.689 -0.501284 -3.2273 0
M  V30 7400 H 709.348 -2.54965 -2.63417 0
M  V30 7401 H 708.996 -1.40502 -4.82978 0
M  V30 7402 H 708.696 -3.15649 -4.9562 0
M  V30 7403 H 710.22 -2.46799 -5.585 0
M  V30 7404 H 711.634 -4.10098 -4.00615 0
M  V30 7405 H 710.031 -4.78925 -3.61595 0
M  V30 7406 H 711.101 -4.26766 -2.30215 0
M  V30 7407 N 712.444 0.87505 -1.31075 0
M  V30 7408 C 713.392 2.00317 -1.18219 0
M  V30 7409 C 714.386 1.69152 -0.0916872 0
M  V30 7410 O 715.592 1.7821 -0.253229 0
M  V30 7411 H 711.967 0.656981 -0.365895 0
M  V30 7412 H 713.938 2.08293 -2.13674 0
M  V30 7413 C 712.687 3.35821 -0.901095 0
M  V30 7414 H 712.01 3.6032 -1.73233 0
M  V30 7415 H 713.45 4.15366 -0.851295 0
M  V30 7416 C 711.909 3.34563 0.396114 0
M  V30 7417 O 712.439 3.75971 1.41452 0
M  V30 7418 N 710.645 2.87681 0.410832 0
M  V30 7419 H 710.192 2.54179 -0.418415 0
M  V30 7420 H 710.15 2.87223 1.27869 0
M  V30 7421 N 713.922 1.13953 1.08869 0
M  V30 7422 C 714.885 0.824991 2.13838 0
M  V30 7423 C 715.885 -0.168198 1.59918 0
M  V30 7424 O 717.075 0.0595778 1.74098 0
M  V30 7425 C 714.207 0.228938 3.4013 0
M  V30 7426 H 715.4 1.75521 2.43171 0
M  V30 7427 H 712.953 0.94492 1.24503 0
M  V30 7428 H 713.688 -0.710227 3.16427 0
M  V30 7429 H 713.473 0.944243 3.80561 0
M  V30 7430 H 714.963 0.0259223 4.17592 0
M  V30 7431 N 715.4 -1.26948 0.933913 0
M  V30 7432 C 716.816 -1.46419 0.635103 0
M  V30 7433 C 717.016 -1.84336 -0.813785 0
M  V30 7434 O 716.072 -1.96061 -1.59111 0
M  V30 7435 C 717.385 -2.55206 1.5903 0
M  V30 7436 C 718.933 -2.69062 1.5992 0
M  V30 7437 C 719.408 -3.81013 2.54152 0
M  V30 7438 N 720.899 -3.88395 2.52395 0
M  V30 7439 C 721.634 -4.74454 3.21996 0
M  V30 7440 N 721.13 -5.64954 4.00997 0
M  V30 7441 N 722.923 -4.68237 3.10983 0
M  V30 7442 H 715.074 -1.00622 1.87053 0
M  V30 7443 H 717.337 -0.503189 0.803433 0
M  V30 7444 H 717.043 -2.34153 2.62422 0
M  V30 7445 H 716.917 -3.52719 1.33677 0
M  V30 7446 H 719.304 -2.89492 0.572569 0
M  V30 7447 H 719.385 -1.72016 1.89325 0
M  V30 7448 H 719.029 -3.61336 3.5693 0
M  V30 7449 H 718.959 -4.77499 2.22041 0
M  V30 7450 H 721.45 -3.23687 1.95025 0
M  V30 7451 H 721.763 -6.27496 4.51074 0
M  V30 7452 H 720.108 -5.6473 4.05099 0
M  V30 7453 H 723.299 -3.96535 2.48753 0
M  V30 7454 H 723.472 -5.35087 3.65494 0
M  V30 7455 N 716.879 -0.700114 -1.41195 0
M  V30 7456 C 718.109 -0.241828 -2.0518 0
M  V30 7457 C 718.517 1.1157 -1.52803 0
M  V30 7458 O 717.86 1.70926 -0.673042 0
M  V30 7459 C 717.922 -0.12695 -3.59276 0
M  V30 7460 C 717.586 -1.41725 -4.34469 0
M  V30 7461 C 718.583 -2.35604 -4.63451 0
M  V30 7462 C 716.268 -1.67189 -4.73659 0
M  V30 7463 C 718.262 -3.53204 -5.3059 0
M  V30 7464 C 715.949 -2.85073 -5.40534 0
M  V30 7465 C 716.947 -3.77904 -5.68927 0
M  V30 7466 O 716.635 -4.93723 -6.34424 0
M  V30 7467 H 716.367 -0.109247 -0.667114 0
M  V30 7468 H 718.921 -0.954538 -1.81873 0
M  V30 7469 H 717.151 0.641571 -3.81341 0
M  V30 7470 H 718.84 0.294748 -4.04828 0
M  V30 7471 H 719.606 -2.1719 -4.33651 0
M  V30 7472 H 715.485 -0.957935 -4.50937 0
M  V30 7473 H 719.029 -4.25679 -5.52669 0
M  V30 7474 H 714.926 -3.03402 -5.69752 0
M  V30 7475 H 715.694 -4.93597 -6.5292 0
M  V30 7476 N 718.357 1.51182 -0.445186 0
M  V30 7477 C 719.773 1.59299 -0.0978954 0
M  V30 7478 C 719.973 1.4555 1.39346 0
M  V30 7479 O 719.029 1.30073 2.16419 0
M  V30 7480 C 720.342 2.94133 -0.625005 0
M  V30 7481 C 721.89 3.07463 -0.586137 0
M  V30 7482 C 722.365 4.44832 -1.09035 0
M  V30 7483 N 723.856 4.51173 -1.04867 0
M  V30 7484 C 724.591 5.55804 -1.40959 0
M  V30 7485 N 724.087 6.67816 -1.84375 0
M  V30 7486 N 725.88 5.46205 -1.32726 0
M  V30 7487 H 718.031 1.58363 -1.41544 0
M  V30 7488 H 720.294 0.746946 -0.58376 0
M  V30 7489 H 720 3.09589 -1.66876 0
M  V30 7490 H 719.874 3.77161 -0.0542262 0
M  V30 7491 H 722.261 2.9167 0.448646 0
M  V30 7492 H 722.342 2.26255 -1.19341 0
M  V30 7493 H 721.986 4.61372 -2.12364 0
M  V30 7494 H 721.916 5.24591 -0.459539 0
M  V30 7495 H 724.407 3.70783 -0.729932 0
M  V30 7496 H 724.72 7.43683 -2.10131 0
M  V30 7497 H 723.065 6.69003 -1.88308 0
M  V30 7498 H 726.256 4.57583 -0.986678 0
M  V30 7499 H 726.429 6.27634 -1.61182 0
M  V30 7500 N 719.835 0.176821 1.56605 0
M  V30 7501 C 720.783 -0.768159 2.1955 0
M  V30 7502 C 721.777 -1.23343 1.16116 0
M  V30 7503 O 722.983 -1.19844 1.34303 0
M  V30 7504 H 719.358 -0.266013 0.703378 0
M  V30 7505 H 721.329 -0.213374 2.97636 0
M  V30 7506 C 720.078 -1.98492 2.85475 0
M  V30 7507 H 719.401 -1.63595 3.64797 0
M  V30 7508 H 720.841 -2.62489 3.3298 0
M  V30 7509 C 719.3 -2.81207 1.85538 0
M  V30 7510 O 719.83 -3.7854 1.34427 0
M  V30 7511 N 718.036 -2.46331 1.54173 0
M  V30 7512 H 717.583 -1.67241 1.95929 0
M  V30 7513 H 717.541 -3.01961 0.875595 0
M  V30 7514 N 721.313 -1.57302 -0.09688 0
M  V30 7515 C 722.59 -1.7701 -0.832272 0
M  V30 7516 C 722.97 -0.758025 -1.97021 0
M  V30 7517 O 722.318 0.213824 -2.27497 0
M  V30 7518 C 722.528 -3.22725 -1.32851 0
M  V30 7519 C 723.876 -3.85856 -1.772 0
M  V30 7520 O 724.9 -3.26464 -1.42478 0
M  V30 7521 O 723.759 -4.90295 -2.41398 0
M  V30 7522 H 720.853 -0.725558 -0.396856 0
M  V30 7523 H 723.399 -1.69516 -0.0789005 0
M  V30 7524 H 722.171 -3.87921 -0.51312 0
M  V30 7525 H 721.794 -3.34845 -2.14394 0
M  V30 7526 N 722.791 0.367657 -1.53252 0
M  V30 7527 C 724.021 1.12955 -1.72988 0
M  V30 7528 C 724.429 1.8358 -0.457708 0
M  V30 7529 O 723.772 1.74336 0.579006 0
M  V30 7530 C 723.834 2.20545 -2.83902 0
M  V30 7531 C 723.498 1.69704 -4.24323 0
M  V30 7532 C 724.495 1.16223 -5.06743 0
M  V30 7533 C 722.18 1.7528 -4.70725 0
M  V30 7534 C 724.174 0.689935 -6.33655 0
M  V30 7535 C 721.861 1.27662 -5.97617 0
M  V30 7536 C 722.859 0.746083 -6.78913 0
M  V30 7537 O 722.547 0.276925 -8.03423 0
M  V30 7538 H 722.279 0.343753 -0.582074 0
M  V30 7539 H 724.833 0.433106 -2.00782 0
M  V30 7540 H 723.063 2.93676 -2.51577 0
M  V30 7541 H 724.752 2.82111 -2.91836 0
M  V30 7542 H 725.518 1.11256 -4.72067 0
M  V30 7543 H 721.397 2.15515 -4.07522 0
M  V30 7544 H 724.941 0.275164 -6.97057 0
M  V30 7545 H 720.838 1.32322 -6.31792 0
M  V30 7546 H 721.606 0.396445 -8.17539 0
M  V30 7547 N 724.269 1.44576 0.627338 0
M  V30 7548 C 725.494 1.51271 1.41887 0
M  V30 7549 C 725.919 0.139814 1.8758 0
M  V30 7550 O 725.277 -0.871746 1.58966 0
M  V30 7551 C 725.325 2.48529 2.61277 0
M  V30 7552 O 724.429 1.98944 3.61241 0
M  V30 7553 H 723.77 0.510668 0.424399 0
M  V30 7554 H 726.3 1.89746 0.765356 0
M  V30 7555 H 726.31 2.66689 3.08773 0
M  V30 7556 H 724.985 3.48249 2.27366 0
M  V30 7557 H 723.562 1.90568 3.20528 0
M  V30 7558 N 725.747 -0.868086 1.31537 0
M  V30 7559 C 726.972 -1.65926 1.24432 0
M  V30 7560 C 727.397 -1.87169 -0.186936 0
M  V30 7561 O 726.755 -1.4148 -1.13371 0
M  V30 7562 C 726.803 -3.00347 1.9956 0
M  V30 7563 O 725.907 -3.90221 1.33422 0
M  V30 7564 H 725.248 -0.506375 0.429512 0
M  V30 7565 H 727.778 -1.0822 1.73637 0
M  V30 7566 H 727.788 -3.50269 2.09226 0
M  V30 7567 H 726.463 -2.84205 3.03645 0
M  V30 7568 H 725.04 -3.48672 1.32219 0
M  V30 7569 N 727.225 -1.14528 -1.08264 0
M  V30 7570 C 728.641 -0.885976 -1.3275 0
M  V30 7571 C 728.841 0.472096 -1.95892 0
M  V30 7572 O 727.897 1.21606 -2.21288 0
M  V30 7573 C 729.21 -2.01982 -2.22764 0
M  V30 7574 C 730.758 -2.05329 -2.36239 0
M  V30 7575 C 731.233 -3.1801 -3.29596 0
M  V30 7576 N 732.724 -3.17598 -3.37173 0
M  V30 7577 C 733.459 -4.01426 -4.09444 0
M  V30 7578 N 732.955 -4.95297 -4.8441 0
M  V30 7579 N 734.748 -3.89482 -4.0529 0
M  V30 7580 H 726.899 -2.01996 -0.656607 0
M  V30 7581 H 729.162 -0.880274 -0.351884 0
M  V30 7582 H 728.868 -2.99964 -1.83615 0
M  V30 7583 H 728.742 -1.94421 -3.23234 0
M  V30 7584 H 731.129 -1.07953 -2.74646 0
M  V30 7585 H 731.21 -2.1696 -1.35506 0
M  V30 7586 H 730.854 -4.15633 -2.9191 0
M  V30 7587 H 730.784 -3.03616 -4.30261 0
M  V30 7588 H 733.275 -2.4961 -2.83731 0
M  V30 7589 H 733.588 -5.55723 -5.37021 0
M  V30 7590 H 731.933 -4.99293 -4.83457 0
M  V30 7591 H 735.124 -3.15465 -3.45832 0
M  V30 7592 H 735.297 -4.55039 -4.6135 0
M  V30 7593 N 728.703 1.26451 -0.940633 0
M  V30 7594 C 729.613 2.30128 -0.455881 0
M  V30 7595 C 730.629 1.67536 0.469867 0
M  V30 7596 O 731.805 1.98344 0.349529 0
M  V30 7597 C 728.87 3.45634 0.271648 0
M  V30 7598 C 727.931 4.23709 -0.690594 0
M  V30 7599 C 727.164 5.337 0.00231047 0
M  V30 7600 O 727.387 5.57215 1.21935 0
M  V30 7601 O 726.321 5.98091 -0.676111 0
M  V30 7602 H 730.147 2.73655 -1.31707 0
M  V30 7603 H 727.732 1.3164 -0.706497 0
M  V30 7604 H 729.614 4.15853 0.681486 0
M  V30 7605 H 728.289 3.04138 1.10824 0
M  V30 7606 H 727.196 3.55974 -1.15037 0
M  V30 7607 H 728.529 4.68953 -1.49478 0
M  V30 7608 N 730.181 0.707592 1.40822 0
M  V30 7609 C 731.128 0.0499029 2.30746 0
M  V30 7610 C 732.098 -0.758718 1.47759 0
M  V30 7611 O 733.283 -0.724299 1.76518 0
M  V30 7612 C 730.423 -0.871756 3.33908 0
M  V30 7613 C 729.536 -0.0534655 4.31967 0
M  V30 7614 C 728.671 -0.973869 5.22197 0
M  V30 7615 C 727.71 -0.149194 6.11918 0
M  V30 7616 N 726.847 -1.02404 6.94592 0
M  V30 7617 H 731.687 0.822461 2.86426 0
M  V30 7618 H 729.224 0.417285 1.41057 0
M  V30 7619 H 731.182 -1.42028 3.9228 0
M  V30 7620 H 729.812 -1.61058 2.7975 0
M  V30 7621 H 728.864 0.612142 3.75442 0
M  V30 7622 H 730.176 0.585354 4.95353 0
M  V30 7623 H 729.33 -1.59121 5.85462 0
M  V30 7624 H 728.069 -1.64652 4.59065 0
M  V30 7625 H 727.074 0.481137 5.47691 0
M  V30 7626 H 728.299 0.519841 6.77107 0
M  V30 7627 H 726.245 -1.6825 6.34057 0
M  V30 7628 H 726.162 -0.441076 7.54712 0
M  V30 7629 H 727.43 -1.62782 7.62314 0
M  V30 7630 N 731.66 -1.50943 0.453197 0
M  V30 7631 C 732.57 -2.31884 -0.355963 0
M  V30 7632 C 733.586 -1.41481 -1.01287 0
M  V30 7633 O 734.762 -1.74546 -1.00477 0
M  V30 7634 C 731.827 -3.15668 -1.43369 0
M  V30 7635 C 730.888 -4.2187 -0.795253 0
M  V30 7636 C 730.121 -5.0165 -1.82162 0
M  V30 7637 O 730.344 -4.82266 -3.04592 0
M  V30 7638 O 729.278 -5.85311 -1.40336 0
M  V30 7639 H 733.104 -3.02162 0.305248 0
M  V30 7640 H 730.689 -1.47839 0.215398 0
M  V30 7641 H 732.571 -3.67709 -2.05836 0
M  V30 7642 H 731.246 -2.48137 -2.07869 0
M  V30 7643 H 730.153 -3.73867 -0.132106 0
M  V30 7644 H 731.486 -4.9182 -0.193484 0
M  V30 7645 N 733.138 -0.185124 -1.56509 0
M  V30 7646 C 734.071 0.77877 -2.145 0
M  V30 7647 C 735.049 1.21649 -1.07891 0
M  V30 7648 O 736.233 1.30579 -1.35946 0
M  V30 7649 C 733.36 2.05048 -2.69579 0
M  V30 7650 C 732.406 1.75569 -3.88687 0
M  V30 7651 S 733.239 0.912642 -5.27666 0
M  V30 7652 C 734.395 2.19471 -5.8616 0
M  V30 7653 H 734.628 0.285751 -2.95924 0
M  V30 7654 H 732.161 0.0297417 -1.54371 0
M  V30 7655 H 734.119 2.78085 -3.01958 0
M  V30 7656 H 732.78 2.51462 -1.88216 0
M  V30 7657 H 731.973 2.69962 -4.25601 0
M  V30 7658 H 731.575 1.10619 -3.57267 0
M  V30 7659 H 733.867 3.14815 -5.99915 0
M  V30 7660 H 734.81 1.87005 -6.8296 0
M  V30 7661 H 735.218 2.31862 -5.14685 0
M  V30 7662 N 734.616 1.57351 0.0885366 0
M  V30 7663 C 735.846 1.90355 0.80303 0
M  V30 7664 C 736.254 0.777678 1.72478 0
M  V30 7665 O 735.597 -0.258908 1.81866 0
M  V30 7666 C 735.659 3.18674 1.66395 0
M  V30 7667 C 735.323 4.4778 0.913327 0
M  V30 7668 C 736.32 5.19345 0.240148 0
M  V30 7669 C 734.005 4.94434 0.885462 0
M  V30 7670 C 735.999 6.35803 -0.450854 0
M  V30 7671 C 733.686 6.10802 0.190679 0
M  V30 7672 C 734.684 6.81337 -0.476295 0
M  V30 7673 O 734.372 7.95488 -1.15992 0
M  V30 7674 H 734.104 0.634035 0.234469 0
M  V30 7675 H 736.658 2.05287 0.0681959 0
M  V30 7676 H 734.888 2.99906 2.44117 0
M  V30 7677 H 736.577 3.37458 2.2556 0
M  V30 7678 H 737.343 4.84339 0.253092 0
M  V30 7679 H 733.222 4.39417 1.39406 0
M  V30 7680 H 736.766 6.90795 -0.972019 0
M  V30 7681 H 732.663 6.45261 0.175603 0
M  V30 7682 H 733.431 8.11509 -1.06749 0
M  V30 7683 N 736.094 -0.359525 1.53444 0
M  V30 7684 C 737.322 -1.12198 1.73837 0
M  V30 7685 C 737.737 -1.82854 0.470107 0
M  V30 7686 O 737.094 -1.73781 -0.557349 0
M  V30 7687 C 737.145 -2.14769 2.90786 0
M  V30 7688 O 736.866 -1.46989 4.12706 0
M  V30 7689 C 738.367 -3.03514 3.231 0
M  V30 7690 H 735.587 -0.33524 0.581253 0
M  V30 7691 H 738.131 -0.416598 2.00212 0
M  V30 7692 H 736.286 -2.80896 2.66788 0
M  V30 7693 H 736.7 -2.15378 4.78239 0
M  V30 7694 H 738.174 -3.71453 4.08322 0
M  V30 7695 H 738.651 -3.68658 2.38721 0
M  V30 7696 H 739.257 -2.42996 3.49046 0
M  V30 7697 N 737.572 -1.44907 -0.619662 0
M  V30 7698 C 738.818 -1.48512 -1.38102 0
M  V30 7699 C 739.151 -0.121686 -1.93818 0
M  V30 7700 O 738.426 0.862256 -1.74343 0
M  V30 7701 C 738.709 -2.55469 -2.53787 0
M  V30 7702 C 738.562 -4.01212 -2.03345 0
M  V30 7703 C 739.881 -2.58821 -3.55949 0
M  V30 7704 H 737 -0.540712 -0.500799 0
M  V30 7705 H 739.642 -1.7665 -0.69962 0
M  V30 7706 H 737.792 -2.31606 -3.11915 0
M  V30 7707 H 739.464 -4.36245 -1.49959 0
M  V30 7708 H 737.707 -4.12443 -1.34438 0
M  V30 7709 H 738.378 -4.71717 -2.86683 0
M  V30 7710 H 740.854 -2.80172 -3.07641 0
M  V30 7711 H 739.73 -3.35542 -4.34399 0
M  V30 7712 H 739.991 -1.63451 -4.10775 0
M  V30 7713 N 739.05 0.861098 -1.31996 0
M  V30 7714 C 740.278 1.6474 -1.25173 0
M  V30 7715 C 740.693 1.87926 0.181425 0
M  V30 7716 O 740.05 1.4437 1.1164 0
M  V30 7717 C 740.101 3.01036 -2.0015 0
M  V30 7718 O 739.822 2.7888 -3.37872 0
M  V30 7719 C 741.323 3.95481 -2.00273 0
M  V30 7720 H 738.543 0.513314 -0.432146 0
M  V30 7721 H 741.087 1.07419 -1.74016 0
M  V30 7722 H 739.242 3.55021 -1.55046 0
M  V30 7723 H 739.656 3.65514 -3.76165 0
M  V30 7724 H 741.13 4.88403 -2.57229 0
M  V30 7725 H 741.607 4.27957 -0.987407 0
M  V30 7726 H 742.213 3.47433 -2.45296 0
M  V30 7727 N 740.528 1.15101 1.07655 0
M  V30 7728 C 741.458 0.867864 2.16773 0
M  V30 7729 C 742.439 -0.180283 1.69142 0
M  V30 7730 O 743.624 -0.0353152 1.94168 0
M  V30 7731 C 740.754 0.35299 3.45501 0
M  V30 7732 C 739.708 1.33746 4.06566 0
M  V30 7733 C 739.034 0.681562 5.30338 0
M  V30 7734 C 740.334 2.7024 4.46954 0
M  V30 7735 H 742.028 1.78034 2.40716 0
M  V30 7736 H 739.574 0.857435 1.15689 0
M  V30 7737 H 741.527 0.142465 4.21159 0
M  V30 7738 H 740.251 -0.594945 3.21135 0
M  V30 7739 H 738.91 1.53429 3.32949 0
M  V30 7740 H 738.558 -0.272422 5.02262 0
M  V30 7741 H 738.258 1.33853 5.72151 0
M  V30 7742 H 739.782 0.48074 6.08705 0
M  V30 7743 H 741.196 2.5442 5.13754 0
M  V30 7744 H 739.593 3.32282 4.99709 0
M  V30 7745 H 740.663 3.26537 3.58471 0
M  V30 7746 N 742.006 -1.2595 0.947325 0
M  V30 7747 C 742.954 -2.28152 0.452687 0
M  V30 7748 C 743.948 -1.62655 -0.473239 0
M  V30 7749 O 745.154 -1.76549 -0.350774 0
M  V30 7750 H 741.529 -0.741049 0.12787 0
M  V30 7751 H 743.5 -2.67267 1.32707 0
M  V30 7752 C 742.249 -3.46719 -0.26098 0
M  V30 7753 H 741.572 -3.97345 0.442352 0
M  V30 7754 H 743.012 -4.20135 -0.571208 0
M  V30 7755 C 741.471 -3.02605 -1.48094 0
M  V30 7756 O 742.001 -3.07979 -2.57899 0
M  V30 7757 N 740.207 -2.57877 -1.33969 0
M  V30 7758 H 739.754 -2.53704 -0.446295 0
M  V30 7759 H 739.712 -2.28725 -2.15713 0
M  V30 7760 N 743.484 -0.715051 -1.40445 0
M  V30 7761 C 744.431 -0.0621393 -2.30716 0
M  V30 7762 C 745.401 0.750871 -1.48159 0
M  V30 7763 O 746.586 0.714928 -1.76899 0
M  V30 7764 C 743.726 0.854036 -3.34365 0
M  V30 7765 C 742.839 0.0305565 -4.31989 0
M  V30 7766 C 741.974 0.946162 -5.22706 0
M  V30 7767 C 741.013 0.116741 -6.11989 0
M  V30 7768 N 740.15 0.987194 -6.95125 0
M  V30 7769 H 744.99 -0.83764 -2.85985 0
M  V30 7770 H 742.527 -0.424759 -1.40834 0
M  V30 7771 H 744.485 1.39946 -3.93028 0
M  V30 7772 H 743.115 1.59572 -2.806 0
M  V30 7773 H 742.167 -0.632044 -3.75112 0
M  V30 7774 H 743.479 -0.611615 -4.95036 0
M  V30 7775 H 742.633 1.56014 -5.86297 0
M  V30 7776 H 741.372 1.62216 -4.59932 0
M  V30 7777 H 740.377 -0.510176 -5.47428 0
M  V30 7778 H 741.602 -0.555742 -6.76822 0
M  V30 7779 H 739.548 1.64885 -6.3494 0
M  V30 7780 H 739.465 0.401046 -7.54936 0
M  V30 7781 H 740.733 1.58737 -7.63166 0
M  V30 7782 N 744.962 1.50701 -0.461195 0
M  V30 7783 C 745.91 2.29918 0.352231 0
M  V30 7784 C 746.904 1.36778 0.999403 0
M  V30 7785 O 748.11 1.54015 0.931639 0
M  V30 7786 H 744.485 0.740249 0.132423 0
M  V30 7787 H 746.456 2.96497 -0.336424 0
M  V30 7788 C 745.205 3.17052 1.42736 0
M  V30 7789 H 744.528 3.88623 0.938747 0
M  V30 7790 H 745.968 3.75493 1.96928 0
M  V30 7791 C 744.427 2.3399 2.42384 0
M  V30 7792 O 744.957 2.01608 3.47444 0
M  V30 7793 N 743.163 1.96758 2.13857 0
M  V30 7794 H 742.71 2.23292 1.28447 0
M  V30 7795 H 742.668 1.41484 2.80766 0
M  V30 7796 N 746.441 0.193421 1.56409 0
M  V30 7797 C 747.687 -0.446449 1.97825 0
M  V30 7798 C 748.02 -1.61386 1.08019 0
M  V30 7799 O 747.295 -1.94053 0.131839 0
M  V30 7800 C 747.578 -0.908199 3.48459 0
M  V30 7801 C 747.431 0.260914 4.49043 0
M  V30 7802 C 748.75 -1.77428 4.0275 0
M  V30 7803 H 745.869 -0.160807 0.719243 0
M  V30 7804 H 748.511 0.284006 1.87865 0
M  V30 7805 H 746.661 -1.53062 3.57077 0
M  V30 7806 H 748.333 0.898548 4.52464 0
M  V30 7807 H 746.576 0.912949 4.24085 0
M  V30 7808 H 747.247 -0.104657 5.51901 0
M  V30 7809 H 749.723 -1.24936 3.96901 0
M  V30 7810 H 748.599 -2.06633 5.08521 0
M  V30 7811 H 748.86 -2.72788 3.47907 0
M  V30 7812 N 747.919 -1.57396 -0.0801906 0
M  V30 7813 C 748.882 -2.02133 -1.0805 0
M  V30 7814 C 749.882 -0.91707 -1.32085 0
M  V30 7815 O 751.072 -1.18217 -1.27947 0
M  V30 7816 C 748.204 -2.39479 -2.42616 0
M  V30 7817 H 749.397 -2.91733 -0.6951 0
M  V30 7818 H 746.95 -1.52869 -0.325677 0
M  V30 7819 H 747.685 -1.52879 -2.86004 0
M  V30 7820 H 747.47 -3.20052 -2.26515 0
M  V30 7821 H 748.96 -2.74697 -3.14534 0
M  V30 7822 N 749.397 0.351382 -1.53633 0
M  V30 7823 C 750.674 1.10903 -1.6112 0
M  V30 7824 C 751.054 2.06725 -0.427556 0
M  V30 7825 O 750.402 2.20992 0.580916 0
M  V30 7826 C 750.612 1.83561 -2.96827 0
M  V30 7827 C 751.96 2.37587 -3.51906 0
M  V30 7828 O 752.984 1.93669 -2.9895 0
M  V30 7829 O 751.843 3.17913 -4.44515 0
M  V30 7830 H 748.937 0.509558 -0.651368 0
M  V30 7831 H 751.483 0.353504 -1.65977 0
M  V30 7832 H 750.255 1.1371 -3.74414 0
M  V30 7833 H 749.878 2.6599 -2.95525 0
M  V30 7834 N 750.875 1.45233 0.611969 0
M  V30 7835 C 752.121 1.50233 1.37119 0
M  V30 7836 C 752.476 0.140336 1.91888 0
M  V30 7837 O 751.769 -0.847161 1.71854 0
M  V30 7838 C 751.963 2.51353 2.54079 0
M  V30 7839 C 751.792 3.97251 2.10764 0
M  V30 7840 C 750.562 4.65256 1.97141 0
M  V30 7841 C 752.76 4.85914 1.68499 0
M  V30 7842 N 750.742 5.95895 1.4759 0
M  V30 7843 C 752.113 6.06147 1.30331 0
M  V30 7844 C 754.168 4.72813 1.56051 0
M  V30 7845 C 752.871 7.14729 0.809591 0
M  V30 7846 C 754.897 5.8144 1.08083 0
M  V30 7847 C 754.259 7.00825 0.708775 0
M  V30 7848 H 750.358 0.604708 0.495835 0
M  V30 7849 H 752.942 1.81679 0.700055 0
M  V30 7850 H 751.113 2.21866 3.18795 0
M  V30 7851 H 752.845 2.46528 3.20945 0
M  V30 7852 H 749.6 4.20345 2.18191 0
M  V30 7853 H 750.024 6.65349 1.25059 0
M  V30 7854 H 754.666 3.80931 1.83443 0
M  V30 7855 H 752.384 8.06404 0.523215 0
M  V30 7856 H 755.97 5.73335 0.988842 0
M  V30 7857 H 754.85 7.83448 0.343305 0
M  V30 7858 N 752.353 -0.854086 1.3245 0
M  V30 7859 C 753.301 -1.98411 1.21391 0
M  V30 7860 C 754.295 -1.68984 0.118586 0
M  V30 7861 O 755.501 -1.77784 0.281549 0
M  V30 7862 H 751.876 -0.651077 0.376301 0
M  V30 7863 H 753.847 -2.04867 2.16961 0
M  V30 7864 C 752.596 -3.34345 0.954407 0
M  V30 7865 H 751.919 -3.57518 1.78944 0
M  V30 7866 H 753.359 -4.13959 0.917269 0
M  V30 7867 C 751.818 -3.35151 -0.342838 0
M  V30 7868 O 752.348 -3.78174 -1.35452 0
M  V30 7869 N 750.554 -2.88298 -0.365012 0
M  V30 7870 H 750.101 -2.53481 0.4588 0
M  V30 7871 H 750.059 -2.8922 -1.23284 0
M  V30 7872 N 753.831 -1.1567 -1.07043 0
M  V30 7873 C 755.059 -0.957471 -1.83412 0
M  V30 7874 C 755.474 0.494271 -1.82215 0
M  V30 7875 O 754.831 1.34288 -1.23584 0
M  V30 7876 C 754.882 -1.46784 -3.30359 0
M  V30 7877 O 754.603 -2.86271 -3.31633 0
M  V30 7878 C 756.104 -1.31054 -4.23485 0
M  V30 7879 H 753.324 -0.33986 -0.578564 0
M  V30 7880 H 755.868 -1.53518 -1.35102 0
M  V30 7881 H 754.023 -0.932586 -3.76007 0
M  V30 7882 H 754.437 -3.0948 -4.23465 0
M  V30 7883 H 755.911 -1.71605 -5.24648 0
M  V30 7884 H 756.388 -0.255107 -4.38458 0
M  V30 7885 H 756.994 -1.83503 -3.83676 0
M  V30 7886 N 755.309 1.25446 -0.953992 0
M  V30 7887 C 756.534 1.97755 -0.625129 0
M  V30 7888 C 756.959 1.70437 0.795787 0
M  V30 7889 O 756.317 0.95992 1.53803 0
M  V30 7890 C 756.365 3.49463 -0.889251 0
M  V30 7891 O 755.469 4.12387 0.0322757 0
M  V30 7892 H 754.81 0.61998 -0.237742 0
M  V30 7893 H 757.34 1.59582 -1.28041 0
M  V30 7894 H 757.35 3.99772 -0.815263 0
M  V30 7895 H 756.025 3.68676 -1.92487 0
M  V30 7896 H 754.602 3.72782 -0.0938625 0
M  V30 7897 N 756.787 0.722489 1.40064 0
M  V30 7898 C 758.034 0.264979 2.00759 0
M  V30 7899 C 758.362 -1.14395 1.57302 0
M  V30 7900 O 757.617 -1.79165 0.787298 0
M  V30 7901 C 757.916 0.300682 3.56133 0
M  V30 7902 C 757.582 1.66087 4.19197 0
M  V30 7903 C 756.244 2.03319 4.36136 0
M  V30 7904 C 758.596 2.55452 4.54306 0
M  V30 7905 C 755.924 3.29448 4.8547 0
M  V30 7906 C 758.276 3.8094 5.05042 0
M  V30 7907 C 756.94 4.1828 5.2019 0
M  V30 7908 H 756.21 0.0969625 0.734629 0
M  V30 7909 H 758.857 0.926877 1.67575 0
M  V30 7910 H 757.162 -0.44479 3.89267 0
M  V30 7911 H 758.859 -0.0712542 4.00937 0
M  V30 7912 H 755.449 1.36137 4.06405 0
M  V30 7913 H 759.633 2.27961 4.40849 0
M  V30 7914 H 754.889 3.58338 4.95382 0
M  V30 7915 H 759.063 4.50351 5.31184 0
M  V30 7916 H 756.69 5.16081 5.58179 0
M  V30 7917 N 758.265 -1.50454 0.469181 0
M  V30 7918 C 759.213 -2.30101 -0.340033 0
M  V30 7919 C 760.207 -1.37306 -0.992135 0
M  V30 7920 O 761.413 -1.54506 -0.923458 0
M  V30 7921 H 757.788 -0.740941 -0.128495 0
M  V30 7922 H 759.759 -2.96315 0.352144 0
M  V30 7923 C 758.508 -3.17804 -1.41052 0
M  V30 7924 H 757.831 -3.89115 -0.918124 0
M  V30 7925 H 759.271 -3.76533 -1.94934 0
M  V30 7926 C 757.73 -2.35272 -2.4114 0
M  V30 7927 O 758.26 -2.03448 -3.4637 0
M  V30 7928 N 756.466 -1.97889 -2.1281 0
M  V30 7929 H 756.013 -2.2397 -1.27261 0
M  V30 7930 H 755.971 -1.42971 -2.80012 0
M  V30 7931 N 759.743 -0.201713 -1.56304 0
M  V30 7932 C 760.673 0.71155 -2.22394 0
M  V30 7933 C 761.654 1.21625 -1.18917 0
M  V30 7934 O 762.839 1.26388 -1.47444 0
M  V30 7935 C 759.969 1.92837 -2.88845 0
M  V30 7936 C 758.923 1.55831 -3.98623 0
M  V30 7937 C 758.249 2.85228 -4.52271 0
M  V30 7938 C 759.549 0.763249 -5.16693 0
M  V30 7939 H 761.243 0.160573 -2.98969 0
M  V30 7940 H 758.789 0.0757916 -1.438 0
M  V30 7941 H 760.742 2.57253 -3.33764 0
M  V30 7942 H 759.466 2.50398 -2.09686 0
M  V30 7943 H 758.125 0.9377 -3.54405 0
M  V30 7944 H 757.773 3.40893 -3.69866 0
M  V30 7945 H 757.473 2.6121 -5.26349 0
M  V30 7946 H 758.997 3.50622 -4.99897 0
M  V30 7947 H 760.411 1.31066 -5.58117 0
M  V30 7948 H 758.808 0.620935 -5.96879 0
M  V30 7949 H 759.878 -0.234322 -4.84334 0
M  V30 7950 N 761.222 1.57436 0.0718424 0
M  V30 7951 C 762.154 2.00412 1.1121 0
M  V30 7952 C 763.167 0.910074 1.34987 0
M  V30 7953 O 764.356 1.18796 1.33228 0
M  V30 7954 C 761.456 2.32786 2.46301 0
M  V30 7955 C 760.629 3.64036 2.4248 0
M  V30 7956 C 759.688 3.8408 3.59679 0
M  V30 7957 O 758.714 4.55667 3.4111 0
M  V30 7958 N 759.916 3.2643 4.80025 0
M  V30 7959 H 762.681 2.90264 0.746118 0
M  V30 7960 H 760.242 1.59791 0.260495 0
M  V30 7961 H 762.234 2.43368 3.23348 0
M  V30 7962 H 760.804 1.48824 2.74901 0
M  V30 7963 H 760.024 3.64208 1.50818 0
M  V30 7964 H 761.312 4.50217 2.37027 0
M  V30 7965 H 760.71 2.68325 4.98014 0
M  V30 7966 H 759.267 3.42461 5.54584 0
M  V30 7967 N 762.7 -0.34323 1.53817 0
M  V30 7968 C 763.93 -1.10188 1.74763 0
M  V30 7969 C 764.338 -1.82829 0.486856 0
M  V30 7970 O 763.681 -1.75236 -0.551198 0
M  V30 7971 C 763.743 -2.16 2.87375 0
M  V30 7972 C 763.407 -1.62931 4.26969 0
M  V30 7973 C 764.404 -1.08147 5.08528 0
M  V30 7974 C 762.089 -1.67769 4.73454 0
M  V30 7975 C 764.083 -0.589039 6.34672 0
M  V30 7976 C 761.77 -1.18138 5.99572 0
M  V30 7977 C 762.768 -0.637979 6.80014 0
M  V30 7978 O 762.456 -0.149073 8.03762 0
M  V30 7979 H 762.188 -0.33445 0.587469 0
M  V30 7980 H 764.742 -0.401109 2.01445 0
M  V30 7981 H 762.972 -2.89637 2.56218 0
M  V30 7982 H 764.661 -2.77432 2.96287 0
M  V30 7983 H 765.427 -1.03732 4.73777 0
M  V30 7984 H 761.306 -2.09004 4.10899 0
M  V30 7985 H 764.85 -0.164233 6.97407 0
M  V30 7986 H 760.747 -1.22254 6.33817 0
M  V30 7987 H 761.515 -0.266332 8.18067 0
M  V30 7988 N 764.178 -1.45556 -0.604258 0
M  V30 7989 C 765.403 -1.53509 -1.39462 0
M  V30 7990 C 765.828 -0.169638 -1.87333 0
M  V30 7991 O 765.186 0.846346 -1.60333 0
M  V30 7992 C 765.234 -2.52654 -2.5729 0
M  V30 7993 O 764.338 -2.04666 -3.5803 0
M  V30 7994 H 763.679 -0.517355 -0.416221 0
M  V30 7995 H 766.209 -1.90939 -0.735072 0
M  V30 7996 H 766.219 -2.71568 -3.04491 0
M  V30 7997 H 764.894 -3.51823 -2.21797 0
M  V30 7998 H 763.471 -1.95643 -3.17456 0
M  V30 7999 N 765.656 0.84705 -1.32902 0
M  V30 8000 C 767.072 1.13645 -1.12058 0
M  V30 8001 C 767.272 2.01281 0.093937 0
M  V30 8002 O 766.328 2.4026 0.776608 0
M  V30 8003 C 767.641 1.80644 -2.40392 0
M  V30 8004 C 769.189 1.93246 -2.46221 0
M  V30 8005 C 769.664 2.6366 -3.74496 0
M  V30 8006 N 771.155 2.71179 -3.75521 0
M  V30 8007 C 771.89 3.26332 -4.71482 0
M  V30 8008 N 771.386 3.82236 -5.77813 0
M  V30 8009 N 773.179 3.24507 -4.58968 0
M  V30 8010 H 765.33 0.263612 -2.10758 0
M  V30 8011 H 767.593 0.17944 -0.930863 0
M  V30 8012 H 767.299 1.23708 -3.29225 0
M  V30 8013 H 767.173 2.80736 -2.51926 0
M  V30 8014 H 769.56 2.49338 -1.57843 0
M  V30 8015 H 769.641 0.921272 -2.38634 0
M  V30 8016 H 769.285 2.08229 -4.63253 0
M  V30 8017 H 769.215 3.65234 -3.79357 0
M  V30 8018 H 771.706 2.31527 -2.9867 0
M  V30 8019 H 772.019 4.22499 -6.47082 0
M  V30 8020 H 770.364 3.80546 -5.81558 0
M  V30 8021 H 773.555 2.80085 -3.7506 0
M  V30 8022 H 773.728 3.67188 -5.33926 0
M  V30 8023 N 767.134 1.16236 1.06428 0
M  V30 8024 C 768.066 0.825446 2.1382 0
M  V30 8025 C 769.079 -0.166707 1.61944 0
M  V30 8026 O 770.268 0.0578606 1.78406 0
M  V30 8027 C 767.368 0.208023 3.38261 0
M  V30 8028 C 766.541 1.23994 4.19457 0
M  V30 8029 C 765.6 0.642569 5.22262 0
M  V30 8030 O 764.626 1.31106 5.53895 0
M  V30 8031 N 765.828 -0.571327 5.77682 0
M  V30 8032 H 768.593 1.7497 2.43322 0
M  V30 8033 H 766.154 1.05951 1.22417 0
M  V30 8034 H 768.146 -0.204608 4.04182 0
M  V30 8035 H 766.716 -0.619752 3.06395 0
M  V30 8036 H 765.936 1.82879 3.49212 0
M  V30 8037 H 767.224 1.93638 4.70512 0
M  V30 8038 H 766.622 -1.13263 5.54245 0
M  V30 8039 H 765.179 -0.926187 6.45186 0
M  V30 8040 N 768.612 -1.24939 0.960631 0
M  V30 8041 C 769.84 -1.96881 0.636045 0
M  V30 8042 C 770.255 -1.71334 -0.793093 0
M  V30 8043 O 769.612 -0.992917 -1.53125 0
M  V30 8044 C 769.663 -3.50309 0.892533 0
M  V30 8045 O 769.384 -3.74977 2.26548 0
M  V30 8046 C 770.885 -4.39474 0.581159 0
M  V30 8047 H 768.105 -0.627399 0.237931 0
M  V30 8048 H 770.649 -1.58952 1.28664 0
M  V30 8049 H 768.804 -3.86326 0.288257 0
M  V30 8050 H 769.218 -4.69401 2.34014 0
M  V30 8051 H 770.692 -5.46008 0.811125 0
M  V30 8052 H 771.169 -4.3652 -0.48443 0
M  V30 8053 H 771.775 -4.09032 1.16502 0
M  V30 8054 N 770.09 -0.729906 -1.39679 0
M  V30 8055 C 771.32 -0.285295 -2.04621 0
M  V30 8056 C 771.728 1.08304 -1.55135 0
M  V30 8057 O 771.071 1.6946 -0.709146 0
M  V30 8058 C 771.133 -0.203129 -3.58926 0
M  V30 8059 C 770.797 -1.50909 -4.31365 0
M  V30 8060 C 771.794 -2.45381 -4.58349 0
M  V30 8061 C 769.479 -1.77198 -4.70007 0
M  V30 8062 C 771.473 -3.64379 -5.22979 0
M  V30 8063 C 769.16 -2.96474 -5.34365 0
M  V30 8064 C 770.158 -3.89886 -5.60783 0
M  V30 8065 O 769.846 -5.07069 -6.23808 0
M  V30 8066 H 769.578 -0.123373 -0.664647 0
M  V30 8067 H 772.132 -0.992901 -1.79807 0
M  V30 8068 H 770.362 0.560538 -3.82616 0
M  V30 8069 H 772.051 0.208811 -4.05363 0
M  V30 8070 H 772.817 -2.2634 -4.28947 0
M  V30 8071 H 768.696 -1.05337 -4.48804 0
M  V30 8072 H 772.24 -4.37307 -5.43515 0
M  V30 8073 H 768.137 -3.15419 -5.63188 0
M  V30 8074 H 768.905 -5.07335 -6.42303 0
M  V30 8075 N 771.568 1.50203 -0.477153 0
M  V30 8076 C 772.814 2.03286 0.0679442 0
M  V30 8077 C 773.169 1.35227 1.36863 0
M  V30 8078 O 772.462 0.471029 1.8572 0
M  V30 8079 C 772.656 3.56127 0.301325 0
M  V30 8080 C 772.485 4.38999 -0.975188 0
M  V30 8081 C 771.255 4.81889 -1.52022 0
M  V30 8082 C 773.453 4.79013 -1.8722 0
M  V30 8083 N 771.435 5.49105 -2.74513 0
M  V30 8084 C 772.806 5.45701 -2.94296 0
M  V30 8085 C 774.861 4.60967 -1.88185 0
M  V30 8086 C 773.564 5.96255 -4.02333 0
M  V30 8087 C 775.59 5.12466 -2.95183 0
M  V30 8088 C 774.952 5.79134 -4.00977 0
M  V30 8089 H 771.051 0.78185 -0.015318 0
M  V30 8090 H 773.635 1.83646 -0.64671 0
M  V30 8091 H 771.806 3.75702 0.985021 0
M  V30 8092 H 773.538 3.95859 0.841304 0
M  V30 8093 H 770.293 4.61387 -1.06858 0
M  V30 8094 H 770.717 5.87315 -3.36734 0
M  V30 8095 H 775.359 4.0885 -1.07708 0
M  V30 8096 H 773.077 6.47406 -4.83623 0
M  V30 8097 H 776.663 5.00329 -2.96921 0
M  V30 8098 H 775.543 6.18265 -4.82409 0
M  V30 8099 N 773.046 0.209999 1.56195 0
M  V30 8100 C 774.323 -0.473214 1.89789 0
M  V30 8101 C 774.703 -1.78581 1.1257 0
M  V30 8102 O 774.051 -2.27325 0.231398 0
M  V30 8103 C 774.261 -0.677458 3.42362 0
M  V30 8104 C 775.609 -0.990114 4.12895 0
M  V30 8105 O 776.633 -0.764655 3.47896 0
M  V30 8106 O 775.492 -1.41737 5.278 0
M  V30 8107 H 772.586 -0.248622 0.788743 0
M  V30 8108 H 775.132 0.251324 1.67829 0
M  V30 8109 H 773.904 0.248878 3.90508 0
M  V30 8110 H 773.527 -1.45391 3.70064 0
M  V30 8111 N 774.524 -1.57472 -0.0634922 0
M  V30 8112 C 775.773 -1.86837 -0.759928 0
M  V30 8113 C 776.086 -0.803823 -1.7832 0
M  V30 8114 O 777.292 -0.985578 -2.52979 0
M  V30 8115 C 775.748 -3.31448 -1.4025 0
M  V30 8116 C 775.356 -4.46052 -0.417368 0
M  V30 8117 C 777.1 -3.70003 -2.08082 0
M  V30 8118 C 775.007 -5.81707 -1.06633 0
M  V30 8119 H 773.937 -0.697009 -0.287567 0
M  V30 8120 H 776.588 -1.83495 -0.0133914 0
M  V30 8121 H 774.97 -3.29427 -2.19759 0
M  V30 8122 H 776.144 -4.5948 0.348503 0
M  V30 8123 H 774.459 -4.16104 0.156955 0
M  V30 8124 H 777.056 -4.68653 -2.57426 0
M  V30 8125 H 777.399 -3.00226 -2.88393 0
M  V30 8126 H 777.932 -3.7405 -1.35394 0
M  V30 8127 H 774.671 -6.54798 -0.303374 0
M  V30 8128 H 774.191 -5.72064 -1.80286 0
M  V30 8129 H 775.87 -6.27317 -1.58376 0
M  V30 8130 N 776.003 0.335068 -1.53997 0
M  V30 8131 C 777.419 0.678704 -1.4445 0
M  V30 8132 C 777.619 1.92106 -0.608078 0
M  V30 8133 O 776.675 2.52292 -0.102373 0
M  V30 8134 C 777.988 0.863435 -2.88037 0
M  V30 8135 C 779.536 0.961513 -2.97866 0
M  V30 8136 C 780.011 1.1785 -4.42578 0
M  V30 8137 N 781.502 1.2455 -4.46141 0
M  V30 8138 C 782.237 1.43106 -5.55255 0
M  V30 8139 N 781.733 1.5878 -6.74359 0
M  V30 8140 N 783.526 1.45722 -5.42883 0
M  V30 8141 H 775.677 -0.481656 -2.06867 0
M  V30 8142 H 777.94 -0.153615 -0.935471 0
M  V30 8143 H 777.646 0.0219511 -3.51693 0
M  V30 8144 H 777.52 1.76268 -3.33481 0
M  V30 8145 H 779.907 1.79351 -2.34344 0
M  V30 8146 H 779.988 0.0389862 -2.5577 0
M  V30 8147 H 779.632 0.351397 -5.06683 0
M  V30 8148 H 779.562 2.11472 -4.82273 0
M  V30 8149 H 782.053 1.13928 -3.60318 0
M  V30 8150 H 782.366 1.72599 -7.53279 0
M  V30 8151 H 780.711 1.559 -6.77289 0
M  V30 8152 H 783.902 1.33065 -4.48789 0
M  V30 8153 H 784.075 1.59841 -6.27977 0
M  V30 8154 N 777.481 1.45874 0.596531 0
M  V30 8155 C 778.428 1.55389 1.70655 0
M  V30 8156 C 779.398 0.399036 1.61236 0
M  V30 8157 O 780.583 0.61396 1.80652 0
M  V30 8158 C 777.723 1.53705 3.0898 0
M  V30 8159 C 776.836 2.79823 3.29125 0
M  V30 8160 C 775.971 2.69735 4.5762 0
M  V30 8161 C 775.01 3.90856 4.71061 0
M  V30 8162 N 774.147 3.79237 5.90867 0
M  V30 8163 H 778.987 2.50211 1.61859 0
M  V30 8164 H 776.524 1.24146 0.789069 0
M  V30 8165 H 778.482 1.50715 3.89026 0
M  V30 8166 H 777.112 0.624247 3.16706 0
M  V30 8167 H 776.164 2.92852 2.42779 0
M  V30 8168 H 777.476 3.69628 3.34927 0
M  V30 8169 H 776.63 2.64773 5.45875 0
M  V30 8170 H 775.369 1.77547 4.54234 0
M  V30 8171 H 774.374 3.96164 3.81227 0
M  V30 8172 H 775.599 4.84124 4.76236 0
M  V30 8173 H 773.545 2.89825 5.88504 0
M  V30 8174 H 773.462 4.62686 5.97877 0
M  V30 8175 H 774.73 3.78227 6.8159 0
M  V30 8176 N 778.959 -0.83999 1.33349 0
M  V30 8177 C 780.187 -1.62728 1.27778 0
M  V30 8178 C 780.602 -1.88191 -0.151505 0
M  V30 8179 O 779.959 -1.46128 -1.09329 0
M  V30 8180 C 780.01 -2.97813 2.04913 0
M  V30 8181 O 779.731 -2.73469 3.42266 0
M  V30 8182 C 781.232 -3.92245 2.0654 0
M  V30 8183 H 778.452 -0.506374 0.440257 0
M  V30 8184 H 780.996 -1.04637 1.75703 0
M  V30 8185 H 779.151 -3.52509 1.60674 0
M  V30 8186 H 779.565 -3.59483 3.81932 0
M  V30 8187 H 781.039 -4.84249 2.64966 0
M  V30 8188 H 781.516 -4.26332 1.05537 0
M  V30 8189 H 782.122 -3.43487 2.50793 0
M  V30 8190 N 780.437 -1.16799 -1.0581 0
M  V30 8191 C 781.714 -0.862616 -1.75551 0
M  V30 8192 C 782.094 0.6385 -2.01212 0
M  V30 8193 O 781.442 1.58784 -1.64317 0
M  V30 8194 C 781.652 -1.6907 -3.05314 0
M  V30 8195 C 783 -1.90675 -3.79379 0
M  V30 8196 O 784.024 -1.65976 -3.15167 0
M  V30 8197 O 782.883 -2.32145 -4.94743 0
M  V30 8198 H 779.977 -0.318789 -0.763088 0
M  V30 8199 H 782.523 -1.27461 -1.12034 0
M  V30 8200 H 781.295 -2.70912 -2.82352 0
M  V30 8201 H 780.918 -1.27606 -3.76567 0
M  V30 8202 N 781.915 1.24427 -0.967243 0
M  V30 8203 C 783.145 1.96256 -0.64554 0
M  V30 8204 C 783.553 1.71959 0.789098 0
M  V30 8205 O 782.896 0.999913 1.54102 0
M  V30 8206 C 782.958 3.49553 -0.839798 0
M  V30 8207 C 782.622 3.97548 -2.25399 0
M  V30 8208 C 783.619 4.07257 -3.23168 0
M  V30 8209 C 781.304 4.30884 -2.58156 0
M  V30 8210 C 783.298 4.49635 -4.51782 0
M  V30 8211 C 780.985 4.72946 -3.86996 0
M  V30 8212 C 781.983 4.82286 -4.83621 0
M  V30 8213 O 781.671 5.23409 -6.10162 0
M  V30 8214 H 781.403 0.632002 -0.239895 0
M  V30 8215 H 783.957 1.59224 -1.29757 0
M  V30 8216 H 782.187 3.86479 -0.130603 0
M  V30 8217 H 783.876 4.02591 -0.517249 0
M  V30 8218 H 784.642 3.8172 -2.9919 0
M  V30 8219 H 780.521 4.22833 -1.83666 0
M  V30 8220 H 784.065 4.5684 -5.27203 0
M  V30 8221 H 779.962 4.9793 -4.10775 0
M  V30 8222 H 780.73 5.4156 -6.13722 0
M  V30 8223 N 783.393 0.737304 1.3929 0
M  V30 8224 C 784.623 0.296143 2.04467 0
M  V30 8225 C 785.031 -1.0748 1.55707 0
M  V30 8226 O 784.374 -1.69082 0.718123 0
M  V30 8227 C 784.436 0.222161 3.58813 0
M  V30 8228 C 784.1 1.53195 4.30558 0
M  V30 8229 C 785.097 2.47809 4.57041 0
M  V30 8230 C 782.782 1.79688 4.6906 0
M  V30 8231 C 784.776 3.67147 5.21039 0
M  V30 8232 C 782.463 2.99304 5.32785 0
M  V30 8233 C 783.461 3.92855 5.58708 0
M  V30 8234 O 783.149 5.1037 6.2111 0
M  V30 8235 H 782.881 0.126896 0.663983 0
M  V30 8236 H 785.435 1.00242 1.79278 0
M  V30 8237 H 783.665 -0.540239 3.82908 0
M  V30 8238 H 785.354 -0.187311 4.05468 0
M  V30 8239 H 786.12 2.28611 4.2774 0
M  V30 8240 H 781.999 1.07716 4.48239 0
M  V30 8241 H 785.543 4.40183 5.41188 0
M  V30 8242 H 781.44 3.18401 5.61508 0
M  V30 8243 H 782.208 5.10735 6.39603 0
M  V30 8244 N 784.871 -1.49948 0.485112 0
M  V30 8245 C 786.099 -2.06806 -0.0622824 0
M  V30 8246 C 786.514 -1.34736 -1.32256 0
M  V30 8247 O 785.871 -0.420836 -1.77582 0
M  V30 8248 C 785.922 -3.59934 -0.336096 0
M  V30 8249 O 785.643 -4.29289 0.874203 0
M  V30 8250 C 787.144 -4.33459 -0.928903 0
M  V30 8251 H 784.364 -0.670867 0.0133472 0
M  V30 8252 H 786.908 -1.92937 0.677917 0
M  V30 8253 H 785.063 -3.7356 -1.02625 0
M  V30 8254 H 785.477 -5.20735 0.627332 0
M  V30 8255 H 786.951 -5.41527 -1.07017 0
M  V30 8256 H 787.428 -3.94881 -1.92265 0
M  V30 8257 H 788.034 -4.24399 -0.276705 0
M  V30 8258 N 786.349 -0.21828 -1.56081 0
M  V30 8259 C 787.595 0.414921 -1.9851 0
M  V30 8260 C 787.928 1.59648 -1.10573 0
M  V30 8261 O 787.203 1.93818 -0.162695 0
M  V30 8262 C 787.486 0.852647 -3.4986 0
M  V30 8263 C 787.339 -0.33232 -4.48571 0
M  V30 8264 C 788.658 1.70998 -4.05521 0
M  V30 8265 H 785.777 0.149344 -0.72171 0
M  V30 8266 H 788.419 -0.313858 -1.8739 0
M  V30 8267 H 786.569 1.47362 -3.59467 0
M  V30 8268 H 788.241 -0.970418 -4.50977 0
M  V30 8269 H 786.484 -0.980302 -4.22578 0
M  V30 8270 H 787.155 0.0168407 -5.51997 0
M  V30 8271 H 789.631 1.18606 -3.98838 0
M  V30 8272 H 788.507 1.98517 -5.11744 0
M  V30 8273 H 788.768 2.67219 -3.52202 0
M  V30 8274 N 787.827 1.57504 0.0551401 0
M  V30 8275 C 789.052 1.92682 0.767352 0
M  V30 8276 C 789.477 0.81614 1.69472 0
M  V30 8277 O 788.835 -0.229989 1.79835 0
M  V30 8278 C 788.883 3.26866 1.52286 0
M  V30 8279 O 787.987 3.17274 2.63459 0
M  V30 8280 H 787.328 0.630502 0.208238 0
M  V30 8281 H 789.858 2.04592 0.0184026 0
M  V30 8282 H 789.868 3.61138 1.8985 0
M  V30 8283 H 788.543 4.07276 0.842541 0
M  V30 8284 H 787.12 2.94589 2.2863 0
M  V30 8285 N 789.305 -0.326896 1.54172 0
M  V30 8286 C 790.551 -1.06681 1.72473 0
M  V30 8287 C 790.884 -1.87779 0.49523 0
M  V30 8288 O 790.159 -1.87754 -0.507803 0
M  V30 8289 C 790.442 -1.99429 2.99834 0
M  V30 8290 C 790.295 -1.21682 4.33028 0
M  V30 8291 C 791.614 -2.99002 3.22933 0
M  V30 8292 H 788.733 -0.386438 0.627563 0
M  V30 8293 H 791.375 -0.343779 1.86864 0
M  V30 8294 H 789.525 -2.61081 2.87696 0
M  V30 8295 H 791.197 -0.625153 4.57044 0
M  V30 8296 H 789.44 -0.519045 4.30684 0
M  V30 8297 H 790.111 -1.89766 5.18356 0
M  V30 8298 H 792.587 -2.4747 3.34511 0
M  V30 8299 H 791.463 -3.61085 4.13412 0
M  V30 8300 H 791.724 -3.71281 2.40006 0
M  V30 8301 N 790.784 -1.46188 -0.588786 0
M  V30 8302 C 791.732 -1.56653 -1.71938 0
M  V30 8303 C 792.726 -0.435354 -1.6371 0
M  V30 8304 O 793.932 -0.611996 -1.69277 0
M  V30 8305 H 790.307 -0.492408 -0.568365 0
M  V30 8306 H 792.278 -2.51724 -1.60242 0
M  V30 8307 C 791.027 -1.56822 -3.10326 0
M  V30 8308 H 790.35 -2.43198 -3.17325 0
M  V30 8309 H 791.79 -1.68199 -3.89211 0
M  V30 8310 C 790.249 -0.295802 -3.35599 0
M  V30 8311 O 790.779 0.616515 -3.96941 0
M  V30 8312 N 788.985 -0.185609 -2.90007 0
M  V30 8313 H 788.532 -0.928914 -2.40269 0
M  V30 8314 H 788.49 0.664883 -3.07289 0
M  V30 8315 N 792.262 0.832906 -1.33792 0
M  V30 8316 C 793.678 1.1245 -1.13257 0
M  V30 8317 C 793.878 2.01369 0.0725832 0
M  V30 8318 O 792.934 2.41071 0.751082 0
M  V30 8319 C 794.247 1.78084 -2.42294 0
M  V30 8320 C 795.795 1.90624 -2.48257 0
M  V30 8321 C 796.27 2.59673 -3.77271 0
M  V30 8322 N 797.761 2.67181 -3.78376 0
M  V30 8323 C 798.496 3.21313 -4.74916 0
M  V30 8324 N 797.992 3.76086 -5.81835 0
M  V30 8325 N 799.785 3.19621 -4.62384 0
M  V30 8326 H 791.936 0.241244 -2.11026 0
M  V30 8327 H 794.199 0.169557 -0.932713 0
M  V30 8328 H 793.905 1.20209 -3.30519 0
M  V30 8329 H 793.779 2.78049 -2.5489 0
M  V30 8330 H 796.166 2.4765 -1.60478 0
M  V30 8331 H 796.247 0.89591 -2.39598 0
M  V30 8332 H 795.891 2.03304 -4.65435 0
M  V30 8333 H 795.821 3.61189 -3.8321 0
M  V30 8334 H 798.312 2.28346 -3.01108 0
M  V30 8335 H 798.625 4.15612 -6.51526 0
M  V30 8336 H 796.97 3.74357 -5.85561 0
M  V30 8337 H 800.161 2.76091 -3.7801 0
M  V30 8338 H 800.334 3.61504 -5.37791 0
M  V30 8339 N 793.74 1.17359 1.05189 0
M  V30 8340 C 794.97 0.985099 1.81602 0
M  V30 8341 C 795.378 -0.469872 1.83273 0
M  V30 8342 O 794.721 -1.33806 1.25864 0
M  V30 8343 C 794.783 1.44956 3.2898 0
M  V30 8344 C 794.447 2.92666 3.50993 0
M  V30 8345 C 795.444 3.906 3.43115 0
M  V30 8346 C 793.129 3.30841 3.77954 0
M  V30 8347 C 795.123 5.24709 3.61883 0
M  V30 8348 C 792.81 4.65116 3.96371 0
M  V30 8349 C 793.808 5.61859 3.88335 0
M  V30 8350 O 793.496 6.93704 4.06238 0
M  V30 8351 H 793.228 0.348731 0.579105 0
M  V30 8352 H 795.782 1.56066 1.33539 0
M  V30 8353 H 794.012 0.817559 3.77959 0
M  V30 8354 H 795.701 1.22674 3.86919 0
M  V30 8355 H 796.467 3.62453 3.22262 0
M  V30 8356 H 792.346 2.5611 3.83313 0
M  V30 8357 H 795.89 6.00205 3.55527 0
M  V30 8358 H 791.787 4.92969 4.16715 0
M  V30 8359 H 792.555 7.00443 4.23463 0
M  V30 8360 N 795.218 -1.23913 0.973828 0
M  V30 8361 C 796.465 -1.92151 0.639079 0
M  V30 8362 C 796.793 -1.76064 -0.826545 0
M  V30 8363 O 796.048 -1.11126 -1.61088 0
M  V30 8364 C 796.347 -3.4406 0.967356 0
M  V30 8365 C 796.013 -3.80321 2.42212 0
M  V30 8366 C 794.675 -3.8993 2.81971 0
M  V30 8367 C 797.027 -3.97935 3.36596 0
M  V30 8368 C 794.355 -4.14575 4.15144 0
M  V30 8369 C 796.707 -4.24079 4.69404 0
M  V30 8370 C 795.371 -4.31908 5.08932 0
M  V30 8371 H 794.641 -0.70313 0.233856 0
M  V30 8372 H 797.288 -1.47072 1.22646 0
M  V30 8373 H 795.593 -3.90667 0.297807 0
M  V30 8374 H 797.29 -3.95077 0.686654 0
M  V30 8375 H 793.88 -3.73411 2.10385 0
M  V30 8376 H 798.064 -3.89908 3.07059 0
M  V30 8377 H 793.32 -4.18858 4.45385 0
M  V30 8378 H 797.494 -4.36652 5.42502 0
M  V30 8379 H 795.121 -4.50758 6.12145 0
M  V30 8380 N 796.696 -0.74468 -1.38897 0
M  V30 8381 C 797.644 -0.100312 -2.32384 0
M  V30 8382 C 798.638 0.715191 -1.53562 0
M  V30 8383 O 799.844 0.615288 -1.69157 0
M  V30 8384 H 796.219 -0.0136403 -0.751876 0
M  V30 8385 H 798.19 -0.905007 -2.84345 0
M  V30 8386 C 796.939 0.785432 -3.38713 0
M  V30 8387 H 796.262 0.167308 -3.9945 0
M  V30 8388 H 797.702 1.20374 -4.06554 0
M  V30 8389 C 796.161 1.92408 -2.76552 0
M  V30 8390 O 796.691 3.01752 -2.65157 0
M  V30 8391 N 794.897 1.71642 -2.34494 0
M  V30 8392 H 794.444 0.827079 -2.43961 0
M  V30 8393 H 794.402 2.48 -1.93244 0
M  V30 8394 N 798.174 1.49689 -0.493057 0
M  V30 8395 C 799.42 2.02727 0.0543518 0
M  V30 8396 C 799.753 1.37264 1.37376 0
M  V30 8397 O 799.028 0.505644 1.87812 0
M  V30 8398 C 799.311 3.59456 0.215226 0
M  V30 8399 C 799.164 4.35459 -1.12675 0
M  V30 8400 C 800.483 4.29511 0.959586 0
M  V30 8401 H 797.602 0.736773 0.0182786 0
M  V30 8402 H 800.244 1.78792 -0.642924 0
M  V30 8403 H 798.394 3.79981 0.809122 0
M  V30 8404 H 800.066 4.2645 -1.75891 0
M  V30 8405 H 798.309 3.9833 -1.71801 0
M  V30 8406 H 798.98 5.43454 -0.967578 0
M  V30 8407 H 801.456 4.13594 0.455977 0
M  V30 8408 H 800.332 5.38939 1.04098 0
M  V30 8409 H 800.593 3.94202 2.00144 0
M  V30 8410 N 799.652 0.226554 1.55963 0
M  V30 8411 C 800.899 -0.403789 1.98433 0
M  V30 8412 C 801.227 -1.59416 1.1143 0
M  V30 8413 O 800.482 -1.95042 0.160389 0
M  V30 8414 C 800.781 -0.87642 3.46488 0
M  V30 8415 C 800.447 0.203973 4.50438 0
M  V30 8416 C 799.109 0.500754 4.78587 0
M  V30 8417 C 801.461 0.934396 5.12756 0
M  V30 8418 C 798.789 1.53239 5.66334 0
M  V30 8419 C 801.141 1.9554 6.0162 0
M  V30 8420 C 799.805 2.25905 6.28111 0
M  V30 8421 H 799.075 -0.147757 0.726119 0
M  V30 8422 H 801.722 0.330121 1.88633 0
M  V30 8423 H 800.027 -1.68918 3.53517 0
M  V30 8424 H 801.724 -1.37407 3.76723 0
M  V30 8425 H 798.314 -0.0374917 4.28584 0
M  V30 8426 H 802.498 0.718355 4.91074 0
M  V30 8427 H 797.754 1.77321 5.85122 0
M  V30 8428 H 801.928 2.52642 6.48957 0
M  V30 8429 H 799.555 3.05985 6.959 0
M  V30 8430 N 801.13 -1.57531 -0.0467866 0
M  V30 8431 C 802.378 -1.88078 -0.739656 0
M  V30 8432 C 802.699 -0.821936 -1.76831 0
M  V30 8433 O 801.969 0.146582 -1.95351 0
M  V30 8434 H 800.549 -0.694075 -0.276169 0
M  V30 8435 H 803.211 -1.94893 -0.0169391 0
M  V30 8436 H 802.307 -2.86396 -1.24031 0
M  V30 8437 N 802.608 0.318715 -1.54344 0
M  V30 8438 C 803.538 1.39751 -1.87061 0
M  V30 8439 C 804.519 1.53741 -0.727848 0
M  V30 8440 O 805.704 1.67541 -0.982016 0
M  V30 8441 C 802.834 2.76446 -2.10226 0
M  V30 8442 C 801.788 2.77239 -3.26071 0
M  V30 8443 C 801.114 4.17056 -3.34617 0
M  V30 8444 C 802.414 2.40555 -4.63606 0
M  V30 8445 H 804.108 1.12619 -2.77412 0
M  V30 8446 H 801.654 0.540318 -1.33479 0
M  V30 8447 H 803.607 3.51985 -2.31699 0
M  V30 8448 H 802.331 3.05066 -1.16629 0
M  V30 8449 H 800.99 2.04155 -3.04493 0
M  V30 8450 H 800.638 4.42824 -2.3857 0
M  V30 8451 H 800.338 4.18492 -4.12478 0
M  V30 8452 H 801.862 4.94401 -3.5833 0
M  V30 8453 H 803.276 3.05808 -4.84927 0
M  V30 8454 H 801.673 2.53234 -5.44052 0
M  V30 8455 H 802.743 1.35698 -4.65526 0
M  V30 8456 N 804.086 1.46499 0.581025 0
M  V30 8457 C 805.018 1.53225 1.70455 0
M  V30 8458 C 806.031 0.420443 1.57277 0
M  V30 8459 O 807.22 0.688888 1.64671 0
M  V30 8460 C 804.32 1.39803 3.08721 0
M  V30 8461 C 803.493 2.65132 3.47884 0
M  V30 8462 C 802.552 2.45886 4.65217 0
M  V30 8463 O 801.578 3.19615 4.70993 0
M  V30 8464 N 802.78 1.5216 5.60203 0
M  V30 8465 H 805.545 2.50098 1.65139 0
M  V30 8466 H 803.106 1.42576 0.76705 0
M  V30 8467 H 805.098 1.24697 3.8501 0
M  V30 8468 H 803.668 0.51104 3.08394 0
M  V30 8469 H 802.888 2.95169 2.61284 0
M  V30 8470 H 804.176 3.48385 3.70817 0
M  V30 8471 H 803.574 0.913646 5.58273 0
M  V30 8472 H 802.131 1.43017 6.35916 0
M  V30 8473 N 805.565 -0.825799 1.34232 0
M  V30 8474 C 806.813 -1.57873 1.26177 0
M  V30 8475 C 807.134 -1.94267 -0.168904 0
M  V30 8476 O 806.404 -1.62045 -1.10084 0
M  V30 8477 H 804.984 -0.585388 0.464037 0
M  V30 8478 H 807.646 -0.986163 1.6811 0
M  V30 8479 H 806.742 -2.50283 1.86453 0
M  V30 8480 N 807.043 -1.17915 -1.04565 0
M  V30 8481 C 808.289 -0.972863 -1.77942 0
M  V30 8482 C 808.622 0.496753 -1.87739 0
M  V30 8483 O 807.897 1.3688 -1.38181 0
M  V30 8484 C 808.18 -1.62227 -3.21488 0
M  V30 8485 C 808.033 -3.16441 -3.19664 0
M  V30 8486 C 809.352 -1.33137 -4.19479 0
M  V30 8487 H 806.471 -0.354843 -0.645953 0
M  V30 8488 H 809.113 -1.45508 -1.22178 0
M  V30 8489 H 807.263 -1.21224 -3.69103 0
M  V30 8490 H 808.935 -3.66544 -2.80077 0
M  V30 8491 H 807.178 -3.48863 -2.57832 0
M  V30 8492 H 807.849 -3.57012 -4.21006 0
M  V30 8493 H 810.325 -1.68654 -3.80388 0
M  V30 8494 H 809.201 -1.81151 -5.18146 0
M  V30 8495 H 809.462 -0.253319 -4.41374 0
M  V30 8496 N 808.521 1.23394 -0.980386 0
M  V30 8497 C 809.484 2.23092 -0.525619 0
M  V30 8498 C 810.484 1.56129 0.384745 0
M  V30 8499 O 811.674 1.73284 0.178439 0
M  V30 8500 C 808.806 3.40074 0.23712 0
M  V30 8501 H 809.999 2.64839 -1.40714 0
M  V30 8502 H 807.552 1.36227 -0.766275 0
M  V30 8503 H 808.287 3.03783 1.13518 0
M  V30 8504 H 808.072 3.89883 -0.416356 0
M  V30 8505 H 809.562 4.14043 0.543892 0
M  V30 8506 N 809.999 0.752036 1.385 0
M  V30 8507 C 811.245 0.307958 2.00448 0
M  V30 8508 C 811.578 -1.10702 1.59558 0
M  V30 8509 O 810.853 -1.75788 0.832391 0
M  V30 8510 C 811.136 0.429092 3.57534 0
M  V30 8511 C 810.989 1.88507 4.08393 0
M  V30 8512 C 812.308 -0.178442 4.39738 0
M  V30 8513 H 809.427 0.113373 0.728228 0
M  V30 8514 H 812.069 0.951389 1.64465 0
M  V30 8515 H 810.219 -0.118695 3.88319 0
M  V30 8516 H 811.891 2.49104 3.88259 0
M  V30 8517 H 810.134 2.40066 3.61318 0
M  V30 8518 H 810.805 1.92099 5.17496 0
M  V30 8519 H 813.281 0.28872 4.15097 0
M  V30 8520 H 812.157 -0.0634349 5.48863 0
M  V30 8521 H 812.418 -1.26655 4.23569 0
M  V30 8522 N 811.477 -1.49425 0.500989 0
M  V30 8523 C 812.725 -2.02053 -0.0434495 0
M  V30 8524 C 813.046 -1.38285 -1.37486 0
M  V30 8525 O 812.316 -0.538171 -1.88363 0
M  V30 8526 H 810.896 -0.746757 -0.0190469 0
M  V30 8527 H 813.558 -1.83449 0.658227 0
M  V30 8528 H 812.654 -3.11619 -0.173129 0
M  V30 8529 N 812.955 -0.234822 -1.55841 0
M  V30 8530 C 813.885 0.664217 -2.23854 0
M  V30 8531 C 814.866 1.19076 -1.2147 0
M  V30 8532 O 816.051 1.23232 -1.50091 0
M  V30 8533 C 813.181 1.86666 -2.9287 0
M  V30 8534 C 812.135 1.47341 -4.01839 0
M  V30 8535 C 811.461 2.75571 -4.58219 0
M  V30 8536 C 812.761 0.653479 -5.18196 0
M  V30 8537 H 814.455 0.0971213 -2.99242 0
M  V30 8538 H 812.001 0.0452724 -1.43929 0
M  V30 8539 H 813.954 2.50116 -3.39146 0
M  V30 8540 H 812.678 2.45894 -2.1495 0
M  V30 8541 H 811.337 0.862314 -3.56314 0
M  V30 8542 H 810.985 3.32971 -3.77014 0
M  V30 8543 H 810.685 2.49987 -5.31771 0
M  V30 8544 H 812.209 3.39939 -5.07221 0
M  V30 8545 H 813.623 1.19198 -5.60771 0
M  V30 8546 H 812.02 0.494188 -5.98062 0
M  V30 8547 H 813.09 -0.337004 -4.83728 0
M  V30 8548 N 814.433 1.57553 0.0384317 0
M  V30 8549 C 815.658 1.93485 0.746872 0
M  V30 8550 C 816.083 0.834069 1.68597 0
M  V30 8551 O 815.441 -0.210902 1.80069 0
M  V30 8552 C 815.489 3.28463 1.4881 0
M  V30 8553 O 814.593 3.20051 2.60079 0
M  V30 8554 H 813.934 0.632675 0.201539 0
M  V30 8555 H 816.464 2.046 -0.00329815 0
M  V30 8556 H 816.474 3.63132 1.86009 0
M  V30 8557 H 815.149 4.08147 0.799297 0
M  V30 8558 H 813.726 2.96998 2.25492 0
M  V30 8559 N 815.911 -0.310526 1.54511 0
M  V30 8560 C 816.874 -1.3657 1.84068 0
M  V30 8561 C 817.874 -1.44123 0.713097 0
M  V30 8562 O 819.064 -1.43924 0.981399 0
M  V30 8563 C 816.196 -2.75162 2.01243 0
M  V30 8564 H 817.389 -1.1161 2.78358 0
M  V30 8565 H 814.942 -0.546699 1.46427 0
M  V30 8566 H 815.677 -3.05359 1.09208 0
M  V30 8567 H 815.462 -2.71071 2.83307 0
M  V30 8568 H 816.952 -3.51473 2.25514 0
M  V30 8569 N 817.389 -1.46805 -0.573248 0
M  V30 8570 C 818.614 -1.56433 -1.36175 0
M  V30 8571 C 819.039 -0.209336 -1.86932 0
M  V30 8572 O 818.397 0.812146 -1.62092 0
M  V30 8573 C 818.445 -2.58055 -2.51873 0
M  V30 8574 O 817.549 -2.12214 -3.53609 0
M  V30 8575 H 816.89 -0.526068 -0.405153 0
M  V30 8576 H 819.42 -1.92456 -0.694405 0
M  V30 8577 H 819.43 -2.77966 -2.98662 0
M  V30 8578 H 818.105 -3.56448 -2.14284 0
M  V30 8579 H 816.682 -2.02333 -3.13234 0
M  V30 8580 N 818.867 0.818669 -1.34668 0
M  V30 8581 C 820.283 1.11243 -1.14443 0
M  V30 8582 C 820.483 2.01435 0.0512212 0
M  V30 8583 O 819.539 2.41854 0.725471 0
M  V30 8584 C 820.852 1.75504 -2.4417 0
M  V30 8585 C 822.4 1.8798 -2.50265 0
M  V30 8586 C 822.875 2.55657 -3.80004 0
M  V30 8587 N 824.366 2.63153 -3.81189 0
M  V30 8588 C 825.101 3.16258 -4.78298 0
M  V30 8589 N 824.597 3.69893 -5.85791 0
M  V30 8590 N 826.39 3.14698 -4.65748 0
M  V30 8591 H 818.541 0.218848 -2.1127 0
M  V30 8592 H 820.804 0.159655 -0.934459 0
M  V30 8593 H 820.51 1.16697 -3.31775 0
M  V30 8594 H 820.384 2.75329 -2.57825 0
M  V30 8595 H 822.771 2.45934 -1.63096 0
M  V30 8596 H 822.852 0.870447 -2.40535 0
M  V30 8597 H 822.496 1.98356 -4.67565 0
M  V30 8598 H 822.426 3.57105 -3.87019 0
M  V30 8599 H 824.917 2.2514 -3.03513 0
M  V30 8600 H 825.23 4.08678 -6.55898 0
M  V30 8601 H 823.575 3.68125 -5.89499 0
M  V30 8602 H 826.766 2.72066 -3.80917 0
M  V30 8603 H 826.939 3.5578 -5.41594 0
M  V30 8604 N 820.346 1.18468 1.03938 0
M  V30 8605 C 821.571 1.00638 1.81347 0
M  V30 8606 C 821.996 -0.440477 1.8287 0
M  V30 8607 O 821.354 -1.31609 1.24695 0
M  V30 8608 C 821.402 1.5673 3.24759 0
M  V30 8609 O 820.506 0.789517 4.04772 0
M  V30 8610 H 819.847 0.356432 0.560225 0
M  V30 8611 H 822.377 1.57253 1.30891 0
M  V30 8612 H 822.387 1.59496 3.75533 0
M  V30 8613 H 821.062 2.62043 3.22965 0
M  V30 8614 H 819.639 0.834267 3.63448 0
M  V30 8615 N 821.824 -1.22873 0.986916 0
M  V30 8616 C 822.771 -2.2458 0.532215 0
M  V30 8617 C 823.741 -1.60375 -0.432322 0
M  V30 8618 O 824.926 -1.87775 -0.338416 0
M  V30 8619 C 822.066 -3.44761 -0.152864 0
M  V30 8620 C 821.179 -4.23501 0.852704 0
M  V30 8621 C 820.314 -5.31011 0.14176 0
M  V30 8622 C 819.353 -6.01464 1.1361 0
M  V30 8623 N 818.49 -7.00631 0.453871 0
M  V30 8624 H 823.33 -2.62838 1.40428 0
M  V30 8625 H 820.867 -1.29185 0.703543 0
M  V30 8626 H 822.825 -4.1333 -0.566926 0
M  V30 8627 H 821.455 -3.07284 -0.988756 0
M  V30 8628 H 820.507 -3.54286 1.38512 0
M  V30 8629 H 821.819 -4.72097 1.61014 0
M  V30 8630 H 820.973 -6.05805 -0.329337 0
M  V30 8631 H 819.712 -4.83373 -0.648229 0
M  V30 8632 H 818.717 -5.25456 1.61789 0
M  V30 8633 H 819.942 -6.5119 1.92686 0
M  V30 8634 H 817.888 -6.55235 -0.316791 0
M  V30 8635 H 817.805 -7.47204 1.14986 0
M  V30 8636 H 819.073 -7.795 0.00537823 0
M  V30 8637 N 823.302 -0.75937 -1.38099 0
M  V30 8638 C 824.532 -0.328634 -2.0397 0
M  V30 8639 C 824.94 1.04989 -1.57398 0
M  V30 8640 O 824.283 1.67918 -0.744932 0
M  V30 8641 C 824.345 -0.279216 -3.58414 0
M  V30 8642 C 824.009 -1.60025 -4.28067 0
M  V30 8643 C 825.006 -2.55048 -4.53041 0
M  V30 8644 C 822.691 -1.87128 -4.66142 0
M  V30 8645 C 824.685 -3.7539 -5.15132 0
M  V30 8646 C 822.372 -3.07742 -5.27956 0
M  V30 8647 C 823.37 -4.01694 -5.52387 0
M  V30 8648 O 823.058 -5.20186 -6.12912 0
M  V30 8649 H 822.79 -0.137443 -0.66188 0
M  V30 8650 H 825.344 -1.03082 -1.77661 0
M  V30 8651 H 823.574 0.479254 -3.83719 0
M  V30 8652 H 825.263 0.122781 -4.05714 0
M  V30 8653 H 826.029 -2.35387 -4.24049 0
M  V30 8654 H 821.908 -1.14833 -4.46469 0
M  V30 8655 H 825.452 -4.48737 -5.34117 0
M  V30 8656 H 821.349 -3.27294 -5.56371 0
M  V30 8657 H 822.117 -5.20846 -6.31397 0
M  V30 8658 N 824.78 1.49157 -0.508906 0
M  V30 8659 C 825.71 2.32109 0.254469 0
M  V30 8660 C 826.691 1.40754 0.955111 0
M  V30 8661 O 827.876 1.69658 0.944983 0
M  V30 8662 C 825.006 3.21458 1.3146 0
M  V30 8663 C 823.96 4.2167 0.733368 0
M  V30 8664 C 823.286 5.00009 1.8946 0
M  V30 8665 C 824.586 5.21544 -0.280875 0
M  V30 8666 H 826.28 2.9618 -0.43795 0
M  V30 8667 H 823.826 1.4243 -0.212062 0
M  V30 8668 H 825.779 3.78305 1.85643 0
M  V30 8669 H 824.503 2.55346 2.03632 0
M  V30 8670 H 823.162 3.65979 0.213231 0
M  V30 8671 H 822.81 4.30338 2.60419 0
M  V30 8672 H 822.51 5.67821 1.51173 0
M  V30 8673 H 824.034 5.59702 2.44061 0
M  V30 8674 H 825.448 5.73039 0.173095 0
M  V30 8675 H 823.845 5.97291 -0.580006 0
M  V30 8676 H 824.915 4.69969 -1.19404 0
M  V30 8677 N 826.258 0.243083 1.55714 0
M  V30 8678 C 827.506 -0.381964 1.98458 0
M  V30 8679 C 827.827 -1.58745 1.13247 0
M  V30 8680 O 827.097 -1.94723 0.214384 0
M  V30 8681 H 825.677 -0.144114 0.732967 0
M  V30 8682 H 828.339 0.340985 1.91894 0
M  V30 8683 H 827.435 -0.693702 3.04293 0
M  V30 8684 N 827.736 -1.57571 -0.0300757 0
M  V30 8685 C 829.152 -1.54869 -0.385703 0
M  V30 8686 C 829.352 -0.969068 -1.76667 0
M  V30 8687 O 828.408 -0.589676 -2.45518 0
M  V30 8688 C 829.721 -2.99313 -0.288482 0
M  V30 8689 C 831.269 -3.10857 -0.365638 0
M  V30 8690 C 831.744 -4.5703 -0.297878 0
M  V30 8691 N 833.235 -4.61825 -0.356703 0
M  V30 8692 C 833.97 -5.72466 -0.327146 0
M  V30 8693 N 833.466 -6.92349 -0.249941 0
M  V30 8694 N 835.259 -5.60836 -0.376801 0
M  V30 8695 H 827.41 -1.936 0.87367 0
M  V30 8696 H 829.673 -0.887924 0.332106 0
M  V30 8697 H 829.379 -3.45443 0.66047 0
M  V30 8698 H 829.253 -3.61332 -1.08253 0
M  V30 8699 H 831.64 -2.64676 -1.30502 0
M  V30 8700 H 831.721 -2.51671 0.457744 0
M  V30 8701 H 831.365 -5.03879 0.637835 0
M  V30 8702 H 831.295 -5.14127 -1.13935 0
M  V30 8703 H 833.786 -3.75571 -0.418926 0
M  V30 8704 H 834.099 -7.7245 -0.23246 0
M  V30 8705 H 832.444 -6.94664 -0.216004 0
M  V30 8706 H 835.635 -4.66073 -0.435101 0
M  V30 8707 H 835.808 -6.47052 -0.350298 0
M  V30 8708 N 829.214 0.302327 -1.54673 0
M  V30 8709 C 830.491 1.05721 -1.64567 0
M  V30 8710 C 830.871 2.0526 -0.493108 0
M  V30 8711 O 830.219 2.22729 0.510315 0
M  V30 8712 C 830.429 1.74025 -3.02517 0
M  V30 8713 C 831.777 2.26271 -3.59286 0
M  V30 8714 O 832.801 1.8406 -3.0496 0
M  V30 8715 O 831.66 3.0361 -4.54404 0
M  V30 8716 H 828.754 0.488577 -0.667249 0
M  V30 8717 H 831.3 0.300521 -1.67018 0
M  V30 8718 H 830.072 1.0174 -3.77842 0
M  V30 8719 H 829.695 2.56454 -3.03838 0
M  V30 8720 N 830.692 1.47107 0.565454 0
M  V30 8721 C 831.64 1.59368 1.69424 0
M  V30 8722 C 832.634 0.461344 1.62997 0
M  V30 8723 O 833.84 0.638849 1.68282 0
M  V30 8724 H 830.215 0.501387 0.560459 0
M  V30 8725 H 832.186 2.54242 1.56217 0
M  V30 8726 C 830.935 1.61739 3.07792 0
M  V30 8727 H 830.258 2.48215 3.13416 0
M  V30 8728 H 831.698 1.7437 3.86486 0
M  V30 8729 C 830.157 0.349156 3.35086 0
M  V30 8730 O 830.687 -0.553287 3.97871 0
M  V30 8731 N 828.893 0.231723 2.89675 0
M  V30 8732 H 828.44 0.967021 2.3876 0
M  V30 8733 H 828.398 -0.615911 3.08308 0
M  V30 8734 N 832.17 -0.811516 1.35101 0
M  V30 8735 C 833.447 -1.55491 1.18667 0
M  V30 8736 C 833.827 -2.09775 -0.236189 0
M  V30 8737 O 833.175 -1.91989 -1.23905 0
M  V30 8738 C 833.385 -2.66732 2.25067 0
M  V30 8739 C 834.733 -3.35201 2.60625 0
M  V30 8740 O 835.757 -2.76998 2.23943 0
M  V30 8741 O 834.616 -4.40334 3.23679 0
M  V30 8742 H 831.71 -0.686783 0.460716 0
M  V30 8743 H 834.256 -0.851903 1.46768 0
M  V30 8744 H 833.028 -2.24457 3.20523 0
M  V30 8745 H 832.651 -3.44673 1.98208 0
M  V30 8746 N 833.648 -1.19017 -1.03309 0
M  V30 8747 C 834.873 -1.01598 -1.80811 0
M  V30 8748 C 835.298 0.430773 -1.83101 0
M  V30 8749 O 834.656 1.30946 -1.25391 0
M  V30 8750 C 834.704 -1.5845 -3.23923 0
M  V30 8751 O 833.808 -0.810972 -4.04348 0
M  V30 8752 H 833.149 -0.359398 -0.558327 0
M  V30 8753 H 835.679 -1.57945 -1.30055 0
M  V30 8754 H 835.689 -1.61486 -3.74682 0
M  V30 8755 H 834.364 -2.63752 -3.21571 0
M  V30 8756 H 832.941 -0.85353 -3.63 0
M  V30 8757 N 835.127 1.22348 -0.993418 0
M  V30 8758 C 836.09 2.22522 -0.549251 0
M  V30 8759 C 837.09 1.56529 0.368164 0
M  V30 8760 O 838.28 1.73463 0.16005 0
M  V30 8761 C 835.412 3.40307 0.201037 0
M  V30 8762 H 836.605 2.63332 -1.43515 0
M  V30 8763 H 834.158 1.35407 -0.78068 0
M  V30 8764 H 834.893 3.0497 1.10289 0
M  V30 8765 H 834.678 3.8942 -0.457685 0
M  V30 8766 H 836.168 4.14597 0.499946 0
M  V30 8767 N 836.605 0.766683 1.37694 0
M  V30 8768 C 837.835 0.339446 2.03792 0
M  V30 8769 C 838.243 -1.04153 1.57952 0
M  V30 8770 O 837.586 -1.67521 0.753826 0
M  V30 8771 C 837.648 0.29822 3.58261 0
M  V30 8772 C 837.312 1.62293 4.27212 0
M  V30 8773 C 838.309 2.57447 4.51682 0
M  V30 8774 C 835.994 1.89597 4.65143 0
M  V30 8775 C 837.988 3.78117 5.13134 0
M  V30 8776 C 835.675 3.10538 5.26317 0
M  V30 8777 C 836.673 4.04617 5.50249 0
M  V30 8778 O 836.361 5.23429 6.10145 0
M  V30 8779 H 836.093 0.140952 0.661142 0
M  V30 8780 H 838.647 1.04022 1.77111 0
M  V30 8781 H 836.877 -0.458897 3.83967 0
M  V30 8782 H 838.566 -0.101263 4.05774 0
M  V30 8783 H 839.332 2.37633 4.22795 0
M  V30 8784 H 835.211 1.17199 4.45854 0
M  V30 8785 H 838.755 4.51563 5.3173 0
M  V30 8786 H 834.652 3.3024 5.54628 0
M  V30 8787 H 835.42 5.24187 6.28626 0
M  V30 8788 N 838.083 -1.48885 0.516809 0
M  V30 8789 C 839.013 -2.32241 -0.242157 0
M  V30 8790 C 839.994 -1.41258 -0.947633 0
M  V30 8791 O 841.179 -1.70156 -0.935973 0
M  V30 8792 C 838.309 -3.22151 -1.29754 0
M  V30 8793 C 837.263 -4.22053 -0.710995 0
M  V30 8794 C 836.589 -5.01007 -1.86806 0
M  V30 8795 C 837.889 -5.21388 0.30853 0
M  V30 8796 H 839.583 -2.95943 0.453651 0
M  V30 8797 H 837.129 -1.42316 0.219612 0
M  V30 8798 H 839.082 -3.79284 -1.83634 0
M  V30 8799 H 837.806 -2.56423 -2.02274 0
M  V30 8800 H 836.465 -3.66087 -0.193819 0
M  V30 8801 H 836.113 -4.31713 -2.58133 0
M  V30 8802 H 835.813 -5.68615 -1.48159 0
M  V30 8803 H 837.337 -5.60989 -2.4109 0
M  V30 8804 H 838.751 -5.73122 -0.142703 0
M  V30 8805 H 837.148 -5.96975 0.611673 0
M  V30 8806 H 838.218 -4.69329 1.21894 0
M  V30 8807 N 839.561 -0.251338 -1.55583 0
M  V30 8808 C 840.977 0.103409 -1.59265 0
M  V30 8809 C 841.177 1.56559 -1.26852 0
M  V30 8810 O 840.233 2.31071 -1.01796 0
M  V30 8811 C 841.546 -0.249781 -2.99661 0
M  V30 8812 C 843.094 -0.194442 -3.12395 0
M  V30 8813 C 843.569 -0.521728 -4.55019 0
M  V30 8814 N 845.06 -0.472393 -4.60785 0
M  V30 8815 C 845.795 -0.698737 -5.69127 0
M  V30 8816 N 845.291 -0.988443 -6.85713 0
M  V30 8817 N 847.084 -0.629143 -5.58568 0
M  V30 8818 H 839.235 -1.20484 -1.74921 0
M  V30 8819 H 841.498 -0.485092 -0.814488 0
M  V30 8820 H 841.204 -1.26577 -3.28133 0
M  V30 8821 H 841.078 0.420973 -3.74844 0
M  V30 8822 H 843.465 0.812229 -2.83702 0
M  V30 8823 H 843.546 -0.899111 -2.39478 0
M  V30 8824 H 843.19 -1.52597 -4.84434 0
M  V30 8825 H 843.12 0.204468 -5.26203 0
M  V30 8826 H 845.611 -0.257386 -3.77022 0
M  V30 8827 H 845.924 -1.14846 -7.64219 0
M  V30 8828 H 844.269 -1.02596 -6.87386 0
M  V30 8829 H 847.46 -0.402826 -4.66364 0
M  V30 8830 H 847.633 -0.808935 -6.42931 0
M  V30 8831 N 841.039 1.57585 0.0217189 0
M  V30 8832 C 842.288 1.88786 0.710125 0
M  V30 8833 C 842.601 0.850819 1.76126 0
M  V30 8834 O 843.807 1.0523 2.50277 0
M  V30 8835 C 842.263 3.3505 1.31413 0
M  V30 8836 C 841.871 4.47001 0.298959 0
M  V30 8837 C 843.615 3.7539 1.98199 0
M  V30 8838 C 841.522 5.8433 0.911727 0
M  V30 8839 H 840.452 0.704388 0.268986 0
M  V30 8840 H 843.103 1.83466 -0.0352638 0
M  V30 8841 H 841.485 3.35138 2.10947 0
M  V30 8842 H 842.659 4.58395 -0.470203 0
M  V30 8843 H 840.974 4.15542 -0.267222 0
M  V30 8844 H 843.571 4.75314 2.4491 0
M  V30 8845 H 843.914 3.07766 2.80331 0
M  V30 8846 H 844.447 3.77508 1.2543 0
M  V30 8847 H 841.186 6.55372 0.129659 0
M  V30 8848 H 840.706 5.76643 1.65056 0
M  V30 8849 H 842.385 6.31295 1.41688 0
M  V30 8850 N 842.517 -0.29412 1.54831 0
M  V30 8851 C 843.742 -1.05156 1.78765 0
M  V30 8852 C 844.167 -1.79916 0.548809 0
M  V30 8853 O 843.525 -1.74243 -0.500909 0
M  V30 8854 C 843.573 -2.00242 2.99893 0
M  V30 8855 O 842.677 -3.08662 2.73499 0
M  V30 8856 H 842.018 -0.301737 0.591482 0
M  V30 8857 H 844.548 -0.329449 2.0193 0
M  V30 8858 H 844.558 -2.42583 3.28051 0
M  V30 8859 H 843.233 -1.45235 3.89717 0
M  V30 8860 H 841.81 -2.70786 2.56377 0
M  V30 8861 N 843.995 -1.47404 -0.557645 0
M  V30 8862 C 845.241 -1.54235 -1.31679 0
M  V30 8863 C 845.574 -0.203782 -1.93128 0
M  V30 8864 O 844.849 0.787536 -1.77843 0
M  V30 8865 C 845.132 -2.66003 -2.42723 0
M  V30 8866 C 844.985 -4.09475 -1.86145 0
M  V30 8867 C 846.304 -2.73685 -3.44652 0
M  V30 8868 H 843.423 -0.561466 -0.477415 0
M  V30 8869 H 846.065 -1.79459 -0.624067 0
M  V30 8870 H 844.215 -2.44627 -3.01811 0
M  V30 8871 H 845.887 -4.42213 -1.31321 0
M  V30 8872 H 844.13 -4.17774 -1.16823 0
M  V30 8873 H 844.801 -4.83451 -2.66418 0
M  V30 8874 H 847.277 -2.92968 -2.95481 0
M  V30 8875 H 846.153 -3.53665 -4.19777 0
M  V30 8876 H 846.414 -1.80726 -4.03473 0
M  V30 8877 N 845.473 0.80434 -1.35529 0
M  V30 8878 C 846.884 1.37849 -1.25915 0
M  V30 8879 C 847.235 1.95905 0.107495 0
M  V30 8880 O 846.36 1.91462 1.00852 0
M  V30 8881 C 846.955 2.50608 -2.27994 0
M  V30 8882 C 845.514 3.03879 -2.22114 0
M  V30 8883 C 844.661 1.76856 -2.13582 0
M  V30 8884 H 847.612 0.607192 -1.46625 0
M  V30 8885 H 847.633 3.29221 -1.90772 0
M  V30 8886 H 847.145 2.08323 -3.27449 0
M  V30 8887 H 845.246 3.50622 -1.26077 0
M  V30 8888 H 845.359 3.61707 -3.14173 0
M  V30 8889 H 843.723 1.98498 -1.59595 0
M  V30 8890 H 844.506 1.36721 -3.14901 0
M  V30 8891 N 846.951 1.19563 1.02676 0
M  V30 8892 C 847.881 0.959024 2.12897 0
M  V30 8893 C 848.862 -0.108382 1.69754 0
M  V30 8894 O 850.047 0.0470698 1.94143 0
M  V30 8895 C 847.177 0.499211 3.43693 0
M  V30 8896 C 846.131 1.5087 4.00528 0
M  V30 8897 C 845.457 0.905884 5.2697 0
M  V30 8898 C 846.757 2.88954 4.3509 0
M  V30 8899 H 848.451 1.88084 2.32948 0
M  V30 8900 H 845.997 0.905731 1.11949 0
M  V30 8901 H 847.95 0.320965 4.20176 0
M  V30 8902 H 846.674 -0.458205 3.2337 0
M  V30 8903 H 845.333 1.67413 3.26142 0
M  V30 8904 H 844.981 -0.0591506 5.02965 0
M  V30 8905 H 844.681 1.58 5.65959 0
M  V30 8906 H 846.205 0.73848 6.06118 0
M  V30 8907 H 847.619 2.75981 5.02501 0
M  V30 8908 H 846.016 3.53177 4.85166 0
M  V30 8909 H 847.086 3.41447 3.44299 0
M  V30 8910 N 848.429 -1.21819 0.999893 0
M  V30 8911 C 849.677 -1.90375 0.678351 0
M  V30 8912 C 849.998 -1.78155 -0.792824 0
M  V30 8913 O 849.268 -1.17319 -1.56885 0
M  V30 8914 H 847.848 -0.704661 0.247915 0
M  V30 8915 H 850.51 -1.48021 1.2679 0
M  V30 8916 H 849.606 -2.97385 0.947023 0
M  V30 8917 N 849.908 -0.773975 -1.37286 0
M  V30 8918 C 851.136 -0.350758 -2.03905 0
M  V30 8919 C 851.551 1.02779 -1.58373 0
M  V30 8920 O 850.908 1.65646 -0.766009 0
M  V30 8921 C 850.959 -0.387335 -3.59419 0
M  V30 8922 O 850.68 -1.7115 -4.03286 0
M  V30 8923 C 852.181 0.047198 -4.43275 0
M  V30 8924 H 849.401 -0.146663 -0.654775 0
M  V30 8925 H 851.945 -1.04852 -1.75574 0
M  V30 8926 H 850.1 0.261865 -3.86514 0
M  V30 8927 H 850.514 -1.65166 -4.97816 0
M  V30 8928 H 851.988 -0.0295474 -5.51992 0
M  V30 8929 H 852.465 1.09786 -4.25257 0
M  V30 8930 H 853.071 -0.573899 -4.2141 0
M  V30 8931 N 851.386 1.48609 -0.524698 0
M  V30 8932 C 852.634 2.02097 0.0112991 0
M  V30 8933 C 852.955 1.40455 1.35268 0
M  V30 8934 O 852.225 0.56807 1.87483 0
M  V30 8935 H 850.805 0.746966 0.00716426 0
M  V30 8936 H 853.467 1.82378 -0.687329 0
M  V30 8937 H 852.563 3.11855 0.123531 0
M  V30 8938 N 852.864 0.259585 1.55447 0
M  V30 8939 C 854.092 -0.365392 2.03648 0
M  V30 8940 C 854.507 -1.50613 1.13847 0
M  V30 8941 O 853.864 -1.81837 0.155414 0
M  V30 8942 C 853.915 -0.861172 3.51093 0
M  V30 8943 O 853.636 0.234121 4.37474 0
M  V30 8944 C 855.137 -1.55555 4.15111 0
M  V30 8945 H 852.357 -0.0853439 0.66555 0
M  V30 8946 H 854.901 0.387151 2.00802 0
M  V30 8947 H 853.056 -1.56385 3.54433 0
M  V30 8948 H 853.47 -0.1444 5.24301 0
M  V30 8949 H 854.944 -1.85403 5.19932 0
M  V30 8950 H 855.421 -2.48185 3.62355 0
M  V30 8951 H 856.027 -0.89712 4.15731 0
M  V30 8952 N 854.342 -1.57594 -0.0133615 0
M  V30 8953 C 855.305 -2.06534 -0.993799 0
M  V30 8954 C 856.305 -0.972267 -1.28077 0
M  V30 8955 O 857.495 -1.23537 -1.22818 0
M  V30 8956 C 854.627 -2.49554 -2.3224 0
M  V30 8957 H 855.82 -2.94419 -0.570741 0
M  V30 8958 H 853.373 -1.54113 -0.260546 0
M  V30 8959 H 854.108 -1.64872 -2.79263 0
M  V30 8960 H 853.893 -3.29371 -2.12737 0
M  V30 8961 H 855.383 -2.8779 -3.026 0
M  V30 8962 N 855.82 0.285905 -1.54985 0
M  V30 8963 C 857.045 1.04207 -1.7932 0
M  V30 8964 C 857.47 1.79622 -0.558343 0
M  V30 8965 O 856.828 1.74506 0.491661 0
M  V30 8966 C 856.876 1.98648 -3.0095 0
M  V30 8967 O 855.98 3.07207 -2.75132 0
M  V30 8968 H 855.321 0.298596 -0.593074 0
M  V30 8969 H 857.851 0.318736 -2.02102 0
M  V30 8970 H 857.861 2.4084 -3.29333 0
M  V30 8971 H 856.536 1.43167 -3.90482 0
M  V30 8972 H 855.113 2.69423 -2.57809 0
M  V30 8973 N 857.298 1.47698 0.54982 0
M  V30 8974 C 858.528 1.58101 1.32995 0
M  V30 8975 C 858.936 0.232939 1.87761 0
M  V30 8976 O 858.279 -0.785058 1.6608 0
M  V30 8977 C 858.341 2.55228 2.53178 0
M  V30 8978 C 858.005 4.00756 2.19645 0
M  V30 8979 C 859.002 4.89025 1.76496 0
M  V30 8980 C 856.687 4.46147 2.30777 0
M  V30 8981 C 858.681 6.20707 1.44919 0
M  V30 8982 C 856.368 5.77856 1.98812 0
M  V30 8983 C 857.366 6.64957 1.55952 0
M  V30 8984 O 857.054 7.94217 1.24396 0
M  V30 8985 H 856.786 0.536362 0.411451 0
M  V30 8986 H 859.34 1.94092 0.67212 0
M  V30 8987 H 857.57 2.14319 3.21876 0
M  V30 8988 H 859.259 2.55678 3.15251 0
M  V30 8989 H 860.025 4.55201 1.67383 0
M  V30 8990 H 855.904 3.78552 2.63096 0
M  V30 8991 H 859.448 6.88649 1.11392 0
M  V30 8992 H 855.345 6.11219 2.0756 0
M  V30 8993 H 856.113 8.06789 1.37964 0
M  V30 8994 N 858.776 -0.797141 1.35954 0
M  V30 8995 C 860.001 -1.59097 1.33053 0
M  V30 8996 C 860.426 -1.87897 -0.0874592 0
M  V30 8997 O 859.784 -1.47291 -1.05712 0
M  V30 8998 C 859.832 -2.89346 2.152 0
M  V30 8999 O 858.936 -3.826 1.5392 0
M  V30 9000 H 858.277 -0.482895 0.45575 0
M  V30 9001 H 860.807 -0.988633 1.79129 0
M  V30 9002 H 860.817 -3.38686 2.27499 0
M  V30 9003 H 859.492 -2.6771 3.18283 0
M  V30 9004 H 858.069 -3.41174 1.50516 0
M  V30 9005 N 860.254 -1.20106 -1.0204 0
M  V30 9006 C 861.502 -1.0069 -1.75231 0
M  V30 9007 C 861.823 0.462491 -1.89436 0
M  V30 9008 O 861.093 1.33455 -1.4341 0
M  V30 9009 H 859.673 -0.369576 -0.649171 0
M  V30 9010 H 862.335 -1.51149 -1.23044 0
M  V30 9011 H 861.431 -1.46205 -2.75736 0
M  V30 9012 N 861.732 1.21287 -1.00634 0
M  V30 9013 C 862.957 1.94925 -0.708441 0
M  V30 9014 C 863.382 1.73659 0.722783 0
M  V30 9015 O 862.74 1.02429 1.49593 0
M  V30 9016 C 862.788 3.45377 -1.03667 0
M  V30 9017 O 861.892 4.12153 -0.142661 0
M  V30 9018 H 861.233 0.609338 -0.263824 0
M  V30 9019 H 863.763 1.54008 -1.34695 0
M  V30 9020 H 863.773 3.95954 -0.984086 0
M  V30 9021 H 862.448 3.6018 -2.0795 0
M  V30 9022 H 861.025 3.72048 -0.251888 0
M  V30 9023 N 863.21 0.781244 1.36873 0
M  V30 9024 C 864.143 0.120106 2.27884 0
M  V30 9025 C 865.121 -0.698961 1.4681 0
M  V30 9026 O 866.305 -0.671694 1.76126 0
M  V30 9027 C 863.432 -0.835804 3.28226 0
M  V30 9028 C 862.478 -0.0995527 4.26384 0
M  V30 9029 S 863.311 1.21903 5.2144 0
M  V30 9030 C 864.467 0.266904 6.25331 0
M  V30 9031 H 864.7 0.891796 2.83609 0
M  V30 9032 H 862.233 0.575075 1.43291 0
M  V30 9033 H 864.191 -1.3819 3.86541 0
M  V30 9034 H 862.852 -1.58068 2.71428 0
M  V30 9035 H 862.045 -0.82457 4.97209 0
M  V30 9036 H 861.647 0.375818 3.72107 0
M  V30 9037 H 863.939 -0.55725 6.75204 0
M  V30 9038 H 864.882 0.943603 7.01785 0
M  V30 9039 H 865.29 -0.126121 5.64359 0
M  V30 9040 N 864.689 -1.48329 0.532571 0
M  V30 9041 C 865.914 -2.074 0.00147755 0
M  V30 9042 C 866.339 -1.38615 -1.27151 0
M  V30 9043 O 865.697 -0.452949 -1.75551 0
M  V30 9044 C 865.745 -3.60029 -0.202866 0
M  V30 9045 O 864.849 -3.92327 -1.27097 0
M  V30 9046 H 864.19 -0.662777 0.0402883 0
M  V30 9047 H 866.72 -1.90701 0.741224 0
M  V30 9048 H 866.73 -4.05783 -0.424722 0
M  V30 9049 H 865.405 -4.09496 0.727033 0
M  V30 9050 H 863.982 -3.58348 -1.03156 0
M  V30 9051 N 866.167 -0.267825 -1.55308 0
M  V30 9052 C 867.115 0.638848 -2.23655 0
M  V30 9053 C 868.109 1.16363 -1.2311 0
M  V30 9054 O 869.315 1.1181 -1.41062 0
M  V30 9055 H 865.69 0.224551 -0.717691 0
M  V30 9056 H 867.661 0.0394809 -2.98374 0
M  V30 9057 C 866.41 1.8151 -2.96562 0
M  V30 9058 H 865.733 1.42048 -3.73715 0
M  V30 9059 H 867.173 2.42629 -3.47717 0
M  V30 9060 C 865.632 2.69911 -2.01618 0
M  V30 9061 O 866.162 3.70058 -1.56268 0
M  V30 9062 N 864.368 2.36924 -1.68272 0
M  V30 9063 H 863.915 1.55533 -2.05347 0
M  V30 9064 H 863.873 2.96343 -1.05016 0
M  V30 9065 N 867.645 1.57599 0.00500368 0
M  V30 9066 C 868.922 1.81561 0.727654 0
M  V30 9067 C 869.302 0.871604 1.92266 0
M  V30 9068 O 868.65 -0.0808232 2.28357 0
M  V30 9069 C 868.86 3.29922 1.13809 0
M  V30 9070 C 870.208 3.95531 1.54403 0
M  V30 9071 O 871.232 3.34215 1.23202 0
M  V30 9072 O 870.091 5.03535 2.12402 0
M  V30 9073 H 867.185 0.747462 0.353878 0
M  V30 9074 H 869.731 1.69688 -0.0200667 0
M  V30 9075 H 868.503 3.90253 0.286078 0
M  V30 9076 H 868.126 3.46775 1.94507 0
M  V30 9077 N 869.123 -0.277682 1.55134 0
M  V30 9078 C 870.539 -0.624625 1.46869 0
M  V30 9079 C 870.739 -1.89717 0.678958 0
M  V30 9080 O 869.795 -2.51739 0.195939 0
M  V30 9081 C 871.108 -0.755937 2.91043 0
M  V30 9082 C 872.656 -0.850299 3.01229 0
M  V30 9083 C 873.131 -1.01343 4.46647 0
M  V30 9084 N 874.622 -1.07906 4.50456 0
M  V30 9085 C 875.357 -1.224 5.60184 0
M  V30 9086 N 874.853 -1.33642 6.79788 0
M  V30 9087 N 876.646 -1.25473 5.47917 0
M  V30 9088 H 868.797 0.558102 2.04937 0
M  V30 9089 H 871.06 0.188228 0.929125 0
M  V30 9090 H 870.766 0.108593 3.51532 0
M  V30 9091 H 870.64 -1.6377 3.39793 0
M  V30 9092 H 873.027 -1.7053 2.40839 0
M  V30 9093 H 873.108 0.0559681 2.55739 0
M  V30 9094 H 872.752 -0.163102 5.07638 0
M  V30 9095 H 872.682 -1.93427 4.89789 0
M  V30 9096 H 875.173 -1.00477 3.64298 0
M  V30 9097 H 875.486 -1.44522 7.59166 0
M  V30 9098 H 873.831 -1.30655 6.82608 0
M  V30 9099 H 877.022 -1.16317 4.53418 0
M  V30 9100 H 877.195 -1.36424 6.33476 0
M  V30 9101 N 870.601 -1.47988 -0.541979 0
M  V30 9102 C 871.831 -1.58804 -1.32155 0
M  V30 9103 C 872.239 -0.242893 -1.87634 0
M  V30 9104 O 871.582 0.776239 -1.66494 0
M  V30 9105 C 871.644 -2.56567 -2.51821 0
M  V30 9106 C 871.308 -4.01915 -2.17517 0
M  V30 9107 C 872.305 -4.89954 -1.73901 0
M  V30 9108 C 869.99 -4.47365 -2.28408 0
M  V30 9109 C 871.984 -6.21467 -1.41625 0
M  V30 9110 C 869.671 -5.78902 -1.95745 0
M  V30 9111 C 870.669 -6.65775 -1.52423 0
M  V30 9112 O 870.357 -7.94866 -1.20183 0
M  V30 9113 H 870.089 -0.538536 -0.408601 0
M  V30 9114 H 872.643 -1.94446 -0.661818 0
M  V30 9115 H 870.873 -2.16023 -3.20735 0
M  V30 9116 H 872.562 -2.57347 -3.13891 0
M  V30 9117 H 873.328 -4.56082 -1.64966 0
M  V30 9118 H 869.207 -3.79942 -2.61084 0
M  V30 9119 H 872.751 -6.8923 -1.07738 0
M  V30 9120 H 868.648 -6.12311 -2.04316 0
M  V30 9121 H 869.416 -8.07509 -1.33683 0
M  V30 9122 N 872.079 0.78992 -1.36375 0
M  V30 9123 C 873.325 1.55007 -1.3077 0
M  V30 9124 C 873.658 1.93871 0.112979 0
M  V30 9125 O 872.933 1.6267 1.06625 0
M  V30 9126 C 873.216 2.82748 -2.22993 0
M  V30 9127 C 873.069 2.50253 -3.73756 0
M  V30 9128 C 874.388 3.84569 -2.13998 0
M  V30 9129 H 871.507 0.562362 -0.476359 0
M  V30 9130 H 874.149 0.907582 -1.66922 0
M  V30 9131 H 872.299 3.37573 -1.92292 0
M  V30 9132 H 873.971 2.01482 -4.14973 0
M  V30 9133 H 872.214 1.83203 -3.93216 0
M  V30 9134 H 872.885 3.41487 -4.33694 0
M  V30 9135 H 875.361 3.39188 -2.4102 0
M  V30 9136 H 874.237 4.717 -2.80697 0
M  V30 9137 H 874.498 4.27491 -1.12711 0
M  V30 9138 N 873.557 1.20646 1.01402 0
M  V30 9139 C 874.505 0.954493 2.12114 0
M  V30 9140 C 875.499 -0.0950737 1.69133 0
M  V30 9141 O 876.705 0.0555153 1.79914 0
M  V30 9142 H 873.08 0.29135 0.693267 0
M  V30 9143 H 875.051 1.89447 2.30548 0
M  V30 9144 C 873.8 0.525944 3.43699 0
M  V30 9145 H 873.123 1.32516 3.772 0
M  V30 9146 H 874.563 0.388883 4.22213 0
M  V30 9147 C 873.022 -0.761997 3.28169 0
M  V30 9148 O 873.552 -1.81979 3.58115 0
M  V30 9149 N 871.758 -0.725017 2.8141 0
M  V30 9150 H 871.305 0.13607 2.5724 0
M  V30 9151 H 871.263 -1.5871 2.71401 0
M  V30 9152 N 875.035 -1.20752 1.01276 0
M  V30 9153 C 875.968 -2.22091 0.524472 0
M  V30 9154 C 876.946 -1.5692 -0.426017 0
M  V30 9155 O 878.13 -1.8528 -0.346919 0
M  V30 9156 C 875.257 -3.37868 -0.237224 0
M  V30 9157 C 874.303 -4.21327 0.662236 0
M  V30 9158 S 875.136 -4.91352 2.12916 0
M  V30 9159 C 876.292 -6.10553 1.37752 0
M  V30 9160 H 876.525 -2.63166 1.38315 0
M  V30 9161 H 874.058 -1.30742 0.821332 0
M  V30 9162 H 876.016 -4.04985 -0.670599 0
M  V30 9163 H 874.677 -2.95261 -1.07143 0
M  V30 9164 H 873.87 -5.03944 0.0751085 0
M  V30 9165 H 873.472 -3.59445 1.03322 0
M  V30 9166 H 875.764 -6.74322 0.655491 0
M  V30 9167 H 876.707 -6.73717 2.17969 0
M  V30 9168 H 877.115 -5.57566 0.882088 0
M  V30 9169 N 876.513 -0.788492 -1.36457 0
M  V30 9170 C 877.476 -0.192209 -2.28393 0
M  V30 9171 C 878.476 0.609916 -1.48784 0
M  V30 9172 O 879.666 0.431046 -1.68783 0
M  V30 9173 C 876.798 0.734096 -3.32902 0
M  V30 9174 H 877.991 -1.00284 -2.82636 0
M  V30 9175 H 875.544 -0.557852 -1.46006 0
M  V30 9176 H 876.279 1.5691 -2.83813 0
M  V30 9177 H 876.064 0.160875 -3.9177 0
M  V30 9178 H 877.554 1.1462 -4.01562 0
M  V30 9179 N 877.991 1.48044 -0.54043 0
M  V30 9180 C 879.239 2.02097 -0.0101367 0
M  V30 9181 C 879.56 1.41881 1.33771 0
M  V30 9182 O 878.83 0.587923 1.8687 0
M  V30 9183 H 877.41 0.747 -0.000758716 0
M  V30 9184 H 880.072 1.81639 -0.706634 0
M  V30 9185 H 879.168 3.11969 0.0904474 0
M  V30 9186 N 879.47 0.276058 1.55163 0
M  V30 9187 C 880.7 -0.343274 2.03728 0
M  V30 9188 C 881.108 -1.49945 1.15383 0
M  V30 9189 O 880.451 -1.82942 0.166696 0
M  V30 9190 C 880.513 -0.885683 3.48419 0
M  V30 9191 C 880.177 0.141976 4.56779 0
M  V30 9192 C 881.174 0.961816 5.10926 0
M  V30 9193 C 878.859 0.276487 5.01538 0
M  V30 9194 C 880.853 1.90234 6.0835 0
M  V30 9195 C 878.54 1.22049 5.98788 0
M  V30 9196 C 879.538 2.03192 6.52075 0
M  V30 9197 O 879.226 2.95996 7.47423 0
M  V30 9198 H 878.958 -0.0822192 0.670981 0
M  V30 9199 H 881.512 0.406199 2.01343 0
M  V30 9200 H 879.742 -1.68524 3.48047 0
M  V30 9201 H 881.431 -1.4182 3.80318 0
M  V30 9202 H 882.197 0.868637 4.77158 0
M  V30 9203 H 878.076 -0.345095 4.59707 0
M  V30 9204 H 881.62 2.5361 6.49867 0
M  V30 9205 H 877.517 1.31448 6.31974 0
M  V30 9206 H 878.285 2.90688 7.65142 0
M  V30 9207 N 880.948 -1.576 0.00335426 0
M  V30 9208 C 882.176 -1.94996 -0.691685 0
M  V30 9209 C 882.591 -0.878405 -1.67121 0
M  V30 9210 O 881.948 0.142343 -1.81944 0
M  V30 9211 C 881.999 -3.32416 -1.42063 0
M  V30 9212 O 881.72 -4.35458 -0.48038 0
M  V30 9213 C 883.221 -3.84291 -2.20987 0
M  V30 9214 H 880.441 -0.642814 -0.192434 0
M  V30 9215 H 882.985 -2.04425 0.0554706 0
M  V30 9216 H 881.14 -3.24285 -2.11939 0
M  V30 9217 H 881.554 -5.14975 -0.995054 0
M  V30 9218 H 883.028 -4.82863 -2.67483 0
M  V30 9219 H 883.505 -3.17174 -3.03805 0
M  V30 9220 H 884.111 -3.95609 -1.56121 0
M  V30 9221 N 882.426 0.269451 -1.5528 0
M  V30 9222 C 883.703 1.02207 -1.66773 0
M  V30 9223 C 884.083 2.04168 -0.536536 0
M  V30 9224 O 883.431 2.23761 0.462956 0
M  V30 9225 C 883.641 1.67569 -3.0614 0
M  V30 9226 C 884.989 2.18599 -3.64005 0
M  V30 9227 O 886.013 1.7755 -3.08795 0
M  V30 9228 O 884.872 2.93903 -4.60742 0
M  V30 9229 H 881.966 0.474314 -0.677462 0
M  V30 9230 H 884.512 0.265026 -1.67618 0
M  V30 9231 H 883.284 0.937029 -3.79915 0
M  V30 9232 H 882.907 2.49951 -3.09209 0
M  V30 9233 N 883.904 1.48273 0.534124 0
M  V30 9234 C 885.132 1.59734 1.31501 0
M  V30 9235 C 885.547 0.256047 1.87056 0
M  V30 9236 O 884.904 -0.754086 1.66192 0
M  V30 9237 C 884.955 2.64072 2.46877 0
M  V30 9238 O 884.676 3.92995 1.93613 0
M  V30 9239 C 886.177 2.85933 3.38758 0
M  V30 9240 H 883.397 0.538703 0.40005 0
M  V30 9241 H 885.941 1.9407 0.644762 0
M  V30 9242 H 884.096 2.32606 3.09795 0
M  V30 9243 H 884.51 4.50203 2.69106 0
M  V30 9244 H 885.984 3.62749 4.16073 0
M  V30 9245 H 886.461 1.94603 3.93734 0
M  V30 9246 H 887.067 3.18687 2.81636 0
M  V30 9247 N 885.382 -0.782676 1.36792 0
M  V30 9248 C 886.629 -1.54083 1.31395 0
M  V30 9249 C 886.957 -1.94217 -0.104797 0
M  V30 9250 O 886.212 -1.63491 -1.0756 0
M  V30 9251 C 886.511 -2.82542 2.18872 0
M  V30 9252 C 886.177 -2.61512 3.67317 0
M  V30 9253 C 884.839 -2.55486 4.07775 0
M  V30 9254 C 887.191 -2.42389 4.61407 0
M  V30 9255 C 884.519 -2.28311 5.40454 0
M  V30 9256 C 886.871 -2.1674 5.94312 0
M  V30 9257 C 885.535 -2.09151 6.33887 0
M  V30 9258 H 884.805 -0.563829 0.48081 0
M  V30 9259 H 887.452 -0.902436 1.68903 0
M  V30 9260 H 885.757 -3.50883 1.74323 0
M  V30 9261 H 887.454 -3.40367 2.12017 0
M  V30 9262 H 884.044 -2.67062 3.35225 0
M  V30 9263 H 888.228 -2.46043 4.31018 0
M  V30 9264 H 883.484 -2.20922 5.70091 0
M  V30 9265 H 887.658 -2.0094 6.6678 0
M  V30 9266 H 885.285 -1.87857 7.36623 0
M  V30 9267 N 886.86 -1.21182 -1.00761 0
M  V30 9268 C 887.808 -0.965728 -2.11604 0
M  V30 9269 C 888.802 0.0861028 -1.69181 0
M  V30 9270 O 890.008 -0.0650558 -1.79882 0
M  V30 9271 H 886.383 -0.295023 -0.691712 0
M  V30 9272 H 888.354 -1.90667 -2.2954 0
M  V30 9273 C 887.103 -0.544164 -3.43415 0
M  V30 9274 H 886.426 -1.34515 -3.76491 0
M  V30 9275 H 887.866 -0.411268 -4.22001 0
M  V30 9276 C 886.325 0.744583 -3.28569 0
M  V30 9277 O 886.855 1.80078 -3.59075 0
M  V30 9278 N 885.061 0.710083 -2.81791 0
M  V30 9279 H 884.608 -0.14971 -2.57165 0
M  V30 9280 H 884.566 1.57268 -2.72239 0
M  V30 9281 N 888.338 1.20213 -1.01915 0
M  V30 9282 C 889.615 1.85348 -0.62495 0
M  V30 9283 C 889.995 1.91101 0.896854 0
M  V30 9284 O 889.343 1.42075 1.78961 0
M  V30 9285 C 889.553 3.24849 -1.27571 0
M  V30 9286 C 890.901 4.01107 -1.39277 0
M  V30 9287 O 891.925 3.34211 -1.23212 0
M  V30 9288 O 890.784 5.20914 -1.6526 0
M  V30 9289 H 887.878 0.798303 -0.215965 0
M  V30 9290 H 890.424 1.27782 -1.11669 0
M  V30 9291 H 889.196 3.1544 -2.31545 0
M  V30 9292 H 888.819 3.90049 -0.77122 0
M  V30 9293 N 889.816 0.795718 1.36037 0
M  V30 9294 C 891.064 0.370291 1.98679 0
M  V30 9295 C 891.385 -1.06332 1.63458 0
M  V30 9296 O 890.655 -1.73394 0.911671 0
M  V30 9297 H 889.235 0.133928 0.734896 0
M  V30 9298 H 891.897 1.01915 1.6613 0
M  V30 9299 H 890.993 0.467207 3.08583 0
M  V30 9300 N 891.294 -1.47756 0.548274 0
M  V30 9301 C 892.224 -2.32702 -0.19284 0
M  V30 9302 C 893.205 -1.43237 -0.917457 0
M  V30 9303 O 894.39 -1.72103 -0.89967 0
M  V30 9304 C 891.52 -3.24831 -1.22891 0
M  V30 9305 C 890.474 -4.23466 -0.621312 0
M  V30 9306 C 889.8 -5.04856 -1.76137 0
M  V30 9307 C 891.1 -5.20616 0.419055 0
M  V30 9308 H 892.794 -2.94914 0.516323 0
M  V30 9309 H 890.34 -1.41818 0.24975 0
M  V30 9310 H 892.293 -3.83094 -1.75547 0
M  V30 9311 H 891.017 -2.60656 -1.9679 0
M  V30 9312 H 889.676 -3.66416 -0.116123 0
M  V30 9313 H 889.324 -4.37091 -2.48918 0
M  V30 9314 H 889.024 -5.71629 -1.36065 0
M  V30 9315 H 890.548 -5.65976 -2.29136 0
M  V30 9316 H 891.962 -5.73296 -0.0211034 0
M  V30 9317 H 890.359 -5.95543 0.738163 0
M  V30 9318 H 891.429 -4.66638 1.31822 0
M  V30 9319 N 892.772 -0.284283 -1.55015 0
M  V30 9320 C 894.049 0.382125 -1.91831 0
M  V30 9321 C 894.429 1.73007 -1.20962 0
M  V30 9322 O 893.777 2.25962 -0.339594 0
M  V30 9323 C 893.987 0.513341 -3.45204 0
M  V30 9324 C 895.335 0.791989 -4.17148 0
M  V30 9325 O 896.359 0.597799 -3.51148 0
M  V30 9326 O 895.218 1.16394 -5.33961 0
M  V30 9327 H 892.312 0.210707 -0.799707 0
M  V30 9328 H 894.858 -0.331111 -1.66438 0
M  V30 9329 H 893.63 -0.434911 -3.88876 0
M  V30 9330 H 893.253 1.27569 -3.76579 0
M  V30 9331 N 894.251 1.57596 -0.0117121 0
M  V30 9332 C 895.476 1.95764 0.684938 0
M  V30 9333 C 895.901 0.887285 1.65858 0
M  V30 9334 O 895.259 -0.153508 1.80649 0
M  V30 9335 C 895.307 3.33031 1.38285 0
M  V30 9336 O 894.411 3.28163 2.49765 0
M  V30 9337 H 893.752 0.638767 0.181309 0
M  V30 9338 H 896.282 2.04486 -0.0683883 0
M  V30 9339 H 896.292 3.68866 1.74362 0
M  V30 9340 H 894.967 4.10483 0.669043 0
M  V30 9341 H 893.544 3.04021 2.15929 0
M  V30 9342 N 895.729 -0.261212 1.5542 0
M  V30 9343 C 896.959 -1.00769 1.80358 0
M  V30 9344 C 897.367 -1.79991 0.583085 0
M  V30 9345 O 896.71 -1.77911 -0.457534 0
M  V30 9346 C 896.772 -2.00463 2.9842 0
M  V30 9347 C 896.436 -1.4007 4.35005 0
M  V30 9348 C 897.433 -0.810388 5.13545 0
M  V30 9349 C 895.118 -1.42436 4.81682 0
M  V30 9350 C 897.112 -0.251784 6.36903 0
M  V30 9351 C 894.799 -0.861897 6.04991 0
M  V30 9352 C 895.797 -0.276622 6.8244 0
M  V30 9353 O 895.485 0.277194 8.03422 0
M  V30 9354 H 895.217 -0.302839 0.604371 0
M  V30 9355 H 897.771 -0.293763 2.03288 0
M  V30 9356 H 896.001 -2.75648 2.71211 0
M  V30 9357 H 897.69 -2.61336 3.10577 0
M  V30 9358 H 898.456 -0.784719 4.7861 0
M  V30 9359 H 894.335 -1.8693 4.214 0
M  V30 9360 H 897.879 0.205678 6.97297 0
M  V30 9361 H 893.776 -0.884846 6.39407 0
M  V30 9362 H 894.544 0.167682 8.18328 0
M  V30 9363 N 897.207 -1.48554 -0.526253 0
M  V30 9364 C 898.432 -1.60686 -1.31129 0
M  V30 9365 C 898.857 -0.268701 -1.86171 0
M  V30 9366 O 898.215 0.760167 -1.64594 0
M  V30 9367 C 898.263 -2.65938 -2.43536 0
M  V30 9368 O 897.367 -2.23356 -3.46678 0
M  V30 9369 H 896.708 -0.538691 -0.388211 0
M  V30 9370 H 899.238 -1.94567 -0.632826 0
M  V30 9371 H 899.248 -2.87327 -2.89668 0
M  V30 9372 H 897.923 -3.63085 -2.02835 0
M  V30 9373 H 896.5 -2.12196 -3.06639 0
M  V30 9374 N 898.685 0.775411 -1.37205 0
M  V30 9375 C 899.615 1.90258 -1.35367 0
M  V30 9376 C 900.596 1.68634 -0.222864 0
M  V30 9377 O 901.781 1.89545 -0.422659 0
M  V30 9378 C 898.911 3.27488 -1.15623 0
M  V30 9379 C 897.865 3.63668 -2.25676 0
M  V30 9380 C 897.191 4.994 -1.91059 0
M  V30 9381 C 898.491 3.70797 -3.67841 0
M  V30 9382 H 900.185 1.92053 -2.29687 0
M  V30 9383 H 897.731 0.922597 -1.10563 0
M  V30 9384 H 899.684 4.05976 -1.12968 0
M  V30 9385 H 898.408 3.26117 -0.177573 0
M  V30 9386 H 897.067 2.87486 -2.2748 0
M  V30 9387 H 896.715 4.94565 -0.917324 0
M  V30 9388 H 896.415 5.24576 -2.64751 0
M  V30 9389 H 897.939 5.80291 -1.89985 0
M  V30 9390 H 899.353 4.39444 -3.68187 0
M  V30 9391 H 897.75 4.07468 -4.40556 0
M  V30 9392 H 898.82 2.71549 -4.01732 0
M  V30 9393 N 900.163 1.21714 1.00117 0
M  V30 9394 C 901.111 0.976937 2.11089 0
M  V30 9395 C 902.105 -0.0771295 1.69224 0
M  V30 9396 O 903.311 0.0745945 1.79845 0
M  V30 9397 H 899.686 0.298687 0.690138 0
M  V30 9398 H 901.657 1.91881 2.28526 0
M  V30 9399 C 900.406 0.562369 3.43122 0
M  V30 9400 H 899.729 1.36509 3.75773 0
M  V30 9401 H 901.169 0.433642 4.21777 0
M  V30 9402 C 899.628 -0.727148 3.28959 0
M  V30 9403 O 900.158 -1.78171 3.60025 0
M  V30 9404 N 898.364 -0.695129 2.82164 0
M  V30 9405 H 897.911 0.163346 2.57082 0
M  V30 9406 H 897.869 -1.55822 2.73069 0
M  V30 9407 N 901.641 -1.19671 1.02551 0
M  V30 9408 C 902.604 -2.20987 0.608055 0
M  V30 9409 C 903.604 -1.5745 -0.326534 0
M  V30 9410 O 904.794 -1.73827 -0.114003 0
M  V30 9411 C 901.926 -3.4072 -0.11074 0
M  V30 9412 H 903.119 -2.59434 1.50446 0
M  V30 9413 H 900.672 -1.3329 0.816307 0
M  V30 9414 H 901.407 -3.07787 -1.02165 0
M  V30 9415 H 901.192 -3.88069 0.560772 0
M  V30 9416 H 902.682 -4.15776 -0.389848 0
M  V30 9417 N 903.119 -0.802921 -1.35613 0
M  V30 9418 C 904.367 -0.380822 -1.9848 0
M  V30 9419 C 904.688 1.05464 -1.6402 0
M  V30 9420 O 903.958 1.72908 -0.920854 0
M  V30 9421 H 902.538 -0.137824 -0.734176 0
M  V30 9422 H 905.2 -1.02795 -1.65587 0
M  V30 9423 H 904.296 -0.483565 -3.08331 0
M  V30 9424 N 904.597 1.47463 -0.556102 0
M  V30 9425 C 905.527 2.32801 0.180497 0
M  V30 9426 C 906.508 1.43721 0.909848 0
M  V30 9427 O 907.693 1.72578 0.89053 0
M  V30 9428 C 904.823 3.25478 1.21167 0
M  V30 9429 C 903.777 4.2379 0.598846 0
M  V30 9430 C 903.103 5.05783 1.73457 0
M  V30 9431 C 904.403 5.20387 -0.446659 0
M  V30 9432 H 906.097 2.94636 -0.531956 0
M  V30 9433 H 903.643 1.41683 -0.257267 0
M  V30 9434 H 905.596 3.8402 1.73513 0
M  V30 9435 H 904.32 2.61695 1.95405 0
M  V30 9436 H 902.979 3.66472 0.0966897 0
M  V30 9437 H 902.627 4.38405 2.46596 0
M  V30 9438 H 902.327 5.72343 1.33031 0
M  V30 9439 H 903.851 5.67183 2.26131 0
M  V30 9440 H 905.265 5.73299 -0.00930019 0
M  V30 9441 H 903.662 5.95143 -0.769735 0
M  V30 9442 H 904.732 4.65932 -1.34295 0
M  V30 9443 N 906.075 0.2925 1.54862 0
M  V30 9444 C 907.023 -0.603186 2.24643 0
M  V30 9445 C 908.017 -1.1439 1.24946 0
M  V30 9446 O 909.223 -1.09552 1.42823 0
M  V30 9447 H 905.598 -0.213105 0.721173 0
M  V30 9448 H 907.569 0.00799278 2.98399 0
M  V30 9449 C 906.318 -1.76769 2.99413 0
M  V30 9450 H 905.641 -1.36084 3.75927 0
M  V30 9451 H 907.081 -2.37066 3.51533 0
M  V30 9452 C 905.54 -2.66669 2.05886 0
M  V30 9453 O 906.07 -3.67525 1.62136 0
M  V30 9454 N 904.276 -2.34216 1.7202 0
M  V30 9455 H 903.823 -1.52246 2.07795 0
M  V30 9456 H 903.781 -2.94635 1.09717 0
M  V30 9457 N 907.553 -1.57587 0.0200696 0
M  V30 9458 C 908.778 -1.96124 -0.674547 0
M  V30 9459 C 909.203 -0.896068 -1.65385 0
M  V30 9460 O 908.561 0.143925 -1.80728 0
M  V30 9461 C 908.609 -3.3376 -1.36517 0
M  V30 9462 O 907.713 -3.29483 -2.48022 0
M  V30 9463 H 907.054 -0.639719 -0.177919 0
M  V30 9464 H 909.584 -2.04447 0.0792317 0
M  V30 9465 H 909.594 -3.69785 -1.72403 0
M  V30 9466 H 908.269 -4.10832 -0.647265 0
M  V30 9467 H 906.846 -3.05162 -2.14314 0
M  V30 9468 N 909.032 0.252966 -1.55557 0
M  V30 9469 C 910.28 0.979912 -1.76754 0
M  V30 9470 C 910.601 1.86083 -0.582944 0
M  V30 9471 O 909.871 1.91742 0.401497 0
M  V30 9472 H 908.451 0.364805 -0.651864 0
M  V30 9473 H 911.113 0.272372 -1.92987 0
M  V30 9474 H 910.209 1.60518 -2.67657 0
M  V30 9475 N 910.51 1.48831 0.518367 0
M  V30 9476 C 911.758 1.57128 1.27103 0
M  V30 9477 C 912.079 0.252098 1.93364 0
M  V30 9478 O 911.349 -0.727281 1.819 0
M  V30 9479 H 909.929 0.578891 0.472116 0
M  V30 9480 H 912.591 1.85361 0.602262 0
M  V30 9481 H 911.687 2.35838 2.04418 0
M  V30 9482 N 911.988 -0.768124 1.37614 0
M  V30 9483 C 913.236 -1.52379 1.3276 0
M  V30 9484 C 913.557 -1.94809 -0.0863564 0
M  V30 9485 O 912.827 -1.66568 -1.03112 0
M  V30 9486 H 911.407 -0.565179 0.488448 0
M  V30 9487 H 914.069 -0.913974 1.72141 0
M  V30 9488 H 913.165 -2.4215 1.96901 0
M  V30 9489 N 913.466 -1.22244 -0.994698 0
M  V30 9490 C 914.396 -1.01513 -2.10279 0
M  V30 9491 C 915.377 0.0633365 -1.69982 0
M  V30 9492 O 916.562 -0.0985268 -1.9395 0
M  V30 9493 C 913.692 -0.59016 -3.42249 0
M  V30 9494 C 912.646 -1.61436 -3.96387 0
M  V30 9495 C 911.972 -1.04528 -5.24383 0
M  V30 9496 C 913.272 -3.00388 -4.27276 0
M  V30 9497 H 914.966 -1.94194 -2.2788 0
M  V30 9498 H 912.512 -0.935094 -1.09508 0
M  V30 9499 H 914.465 -0.432254 -4.19177 0
M  V30 9500 H 913.189 0.372308 -3.24471 0
M  V30 9501 H 911.848 -1.76001 -3.21589 0
M  V30 9502 H 911.496 -0.0742225 -5.02945 0
M  V30 9503 H 911.196 -1.72949 -5.61571 0
M  V30 9504 H 912.72 -0.898922 -6.03947 0
M  V30 9505 H 914.134 -2.89207 -4.95007 0
M  V30 9506 H 912.531 -3.65916 -4.75631 0
M  V30 9507 H 913.601 -3.50456 -3.35125 0
M  V30 9508 N 914.944 1.19125 -1.03184 0
M  V30 9509 C 916.172 1.92838 -0.74975 0
M  V30 9510 C 916.587 1.75667 0.691851 0
M  V30 9511 O 915.944 1.0805 1.47076 0
M  V30 9512 C 915.995 3.44509 -1.09525 0
M  V30 9513 O 915.716 3.6113 -2.48025 0
M  V30 9514 C 917.217 4.35338 -0.836397 0
M  V30 9515 H 914.437 0.61246 -0.274105 0
M  V30 9516 H 916.981 1.5118 -1.37712 0
M  V30 9517 H 915.136 3.83988 -0.513006 0
M  V30 9518 H 915.55 4.54959 -2.60984 0
M  V30 9519 H 917.024 5.4035 -1.12808 0
M  V30 9520 H 917.501 4.38602 0.229102 0
M  V30 9521 H 918.107 4.01544 -1.40152 0
M  V30 9522 N 916.422 0.810101 1.35185 0
M  V30 9523 C 917.647 0.40364 2.03434 0
M  V30 9524 C 918.072 -0.97857 1.60641 0
M  V30 9525 O 917.43 -1.63435 0.784779 0
M  V30 9526 C 917.478 0.499154 3.57129 0
M  V30 9527 O 916.582 -0.486039 4.09526 0
M  V30 9528 H 915.923 0.168049 0.642383 0
M  V30 9529 H 918.453 1.09696 1.72708 0
M  V30 9530 H 918.463 0.370236 4.06317 0
M  V30 9531 H 917.138 1.50733 3.87624 0
M  V30 9532 H 915.715 -0.31707 3.7155 0
M  V30 9533 N 917.9 -1.47166 0.563914 0
M  V30 9534 C 918.832 -2.28165 -0.217583 0
M  V30 9535 C 919.845 -1.37405 -0.873134 0
M  V30 9536 O 921.034 -1.6217 -0.745857 0
M  V30 9537 C 918.134 -3.11873 -1.32621 0
M  V30 9538 C 917.307 -4.30637 -0.766177 0
M  V30 9539 C 916.366 -4.95889 -1.76014 0
M  V30 9540 O 915.392 -5.54071 -1.3036 0
M  V30 9541 N 916.594 -4.91191 -3.09373 0
M  V30 9542 H 919.359 -2.95876 0.477256 0
M  V30 9543 H 916.92 -1.5687 0.40043 0
M  V30 9544 H 918.912 -3.52392 -1.99003 0
M  V30 9545 H 917.482 -2.46361 -1.92419 0
M  V30 9546 H 916.702 -3.94129 0.0745998 0
M  V30 9547 H 917.99 -5.07442 -0.371472 0
M  V30 9548 H 917.388 -4.45133 -3.49104 0
M  V30 9549 H 915.945 -5.35708 -3.71295 0
M  V30 9550 N 919.378 -0.300708 -1.54705 0
M  V30 9551 C 920.794 0.0526874 -1.59513 0
M  V30 9552 C 920.994 1.52444 -1.31769 0
M  V30 9553 O 920.05 2.27716 -1.09096 0
M  V30 9554 C 921.363 -0.344989 -2.98714 0
M  V30 9555 C 922.911 -0.29373 -3.11619 0
M  V30 9556 C 923.386 -0.666225 -4.53129 0
M  V30 9557 N 924.877 -0.618749 -4.59049 0
M  V30 9558 C 925.612 -0.879447 -5.66616 0
M  V30 9559 N 925.108 -1.2061 -6.82221 0
M  V30 9560 N 926.901 -0.806528 -5.56284 0
M  V30 9561 H 919.052 -1.25988 -1.71 0
M  V30 9562 H 921.315 -0.510758 -0.798643 0
M  V30 9563 H 921.021 -1.36953 -3.2394 0
M  V30 9564 H 920.895 0.301507 -3.75993 0
M  V30 9565 H 923.282 0.72156 -2.86142 0
M  V30 9566 H 923.363 -0.974844 -2.36496 0
M  V30 9567 H 923.007 -1.67932 -4.79334 0
M  V30 9568 H 922.937 0.0369575 -5.26587 0
M  V30 9569 H 925.428 -0.377202 -3.76013 0
M  V30 9570 H 925.741 -1.391 -7.60178 0
M  V30 9571 H 924.086 -1.24413 -6.83774 0
M  V30 9572 H 927.277 -0.550993 -4.64846 0
M  V30 9573 H 927.45 -1.01307 -6.40032 0
M  V30 9574 N 920.856 1.57574 -0.0284266 0
M  V30 9575 C 921.788 2.07079 0.982391 0
M  V30 9576 C 922.801 0.994078 1.28926 0
M  V30 9577 O 923.99 1.27028 1.25404 0
M  V30 9578 C 921.09 2.47978 2.30998 0
M  V30 9579 C 920.263 3.7872 2.18838 0
M  V30 9580 C 919.322 4.06177 3.34524 0
M  V30 9581 O 918.348 4.76438 3.11441 0
M  V30 9582 N 919.55 3.56297 4.58293 0
M  V30 9583 H 922.315 2.94421 0.560011 0
M  V30 9584 H 919.876 1.61124 0.158347 0
M  V30 9585 H 921.868 2.63439 3.07216 0
M  V30 9586 H 920.438 1.66005 2.64879 0
M  V30 9587 H 919.658 3.73062 1.27351 0
M  V30 9588 H 920.946 4.6438 2.07915 0
M  V30 9589 H 920.344 2.99453 4.79942 0
M  V30 9590 H 918.901 3.77038 5.31682 0
M  V30 9591 N 922.334 -0.244713 1.55689 0
M  V30 9592 C 923.583 -0.970373 1.76824 0
M  V30 9593 C 923.896 -1.86402 0.592764 0
M  V30 9594 O 925.102 -2.62659 0.687186 0
M  V30 9595 C 923.558 -1.77547 3.13058 0
M  V30 9596 C 923.166 -0.929104 4.3826 0
M  V30 9597 C 924.91 -2.49373 3.43531 0
M  V30 9598 C 922.817 -1.73021 5.65524 0
M  V30 9599 H 921.747 -0.366048 0.659185 0
M  V30 9600 H 924.398 -0.224964 1.82116 0
M  V30 9601 H 922.78 -2.56291 3.01879 0
M  V30 9602 H 923.954 -0.183836 4.60433 0
M  V30 9603 H 922.269 -0.324071 4.15137 0
M  V30 9604 H 924.866 -3.09767 4.35831 0
M  V30 9605 H 925.209 -3.21099 2.64955 0
M  V30 9606 H 925.742 -1.77637 3.55935 0
M  V30 9607 H 922.481 -1.05666 6.46927 0
M  V30 9608 H 922.001 -2.45071 5.47449 0
M  V30 9609 H 923.68 -2.2968 6.0486 0
M  V30 9610 N 923.813 -1.49104 -0.510467 0
M  V30 9611 C 924.761 -1.65547 -1.63392 0
M  V30 9612 C 925.755 -0.521522 -1.61172 0
M  V30 9613 O 926.961 -0.700865 -1.65795 0
M  V30 9614 H 923.336 -0.521843 -0.541464 0
M  V30 9615 H 925.307 -2.59864 -1.46673 0
M  V30 9616 C 924.056 -1.73051 -3.01577 0
M  V30 9617 H 923.379 -2.59676 -3.03987 0
M  V30 9618 H 924.819 -1.88594 -3.79748 0
M  V30 9619 C 923.278 -0.47328 -3.33559 0
M  V30 9620 O 923.808 0.405239 -3.99651 0
M  V30 9621 N 922.014 -0.339074 -2.88615 0
M  V30 9622 H 921.561 -1.05497 -2.35007 0
M  V30 9623 H 921.519 0.501061 -3.10382 0
M  V30 9624 N 925.291 0.760815 -1.38019 0
M  V30 9625 C 926.254 1.85604 -1.34476 0
M  V30 9626 C 927.254 1.58897 -0.24666 0
M  V30 9627 O 928.444 1.66776 -0.50314 0
M  V30 9628 C 925.576 3.22945 -1.09176 0
M  V30 9629 H 926.769 1.90155 -2.31908 0
M  V30 9630 H 924.322 0.961746 -1.23208 0
M  V30 9631 H 925.057 3.24066 -0.123216 0
M  V30 9632 H 924.842 3.43723 -1.88672 0
M  V30 9633 H 926.332 4.03022 -1.09375 0
M  V30 9634 N 926.769 1.22769 0.988202 0
M  V30 9635 C 927.999 1.07998 1.76125 0
M  V30 9636 C 928.407 -0.372062 1.85506 0
M  V30 9637 O 927.75 -1.26946 1.3278 0
M  V30 9638 C 927.812 1.6219 3.20834 0
M  V30 9639 C 927.476 3.1086 3.34986 0
M  V30 9640 C 928.473 4.08239 3.21927 0
M  V30 9641 C 926.158 3.50411 3.59886 0
M  V30 9642 C 928.152 5.43154 3.33561 0
M  V30 9643 C 925.839 4.85473 3.71159 0
M  V30 9644 C 926.837 5.81653 3.58006 0
M  V30 9645 O 926.525 7.14263 3.68895 0
M  V30 9646 H 926.257 0.378937 0.559806 0
M  V30 9647 H 928.811 1.62925 1.25078 0
M  V30 9648 H 927.041 1.01676 3.73094 0
M  V30 9649 H 928.73 1.43011 3.79872 0
M  V30 9650 H 929.496 3.79025 3.02597 0
M  V30 9651 H 925.375 2.76068 3.69198 0
M  V30 9652 H 928.919 6.18207 3.23211 0
M  V30 9653 H 924.816 5.14365 3.89998 0
M  V30 9654 H 925.584 7.21906 3.85739 0
M  V30 9655 N 928.247 -1.18576 1.03814 0
M  V30 9656 C 929.477 -1.92158 0.758864 0
M  V30 9657 C 929.885 -1.76267 -0.687498 0
M  V30 9658 O 929.228 -1.08806 -1.4801 0
M  V30 9659 C 929.29 -3.44063 1.04217 0
M  V30 9660 C 928.954 -3.8373 2.48193 0
M  V30 9661 C 929.951 -3.87722 3.46363 0
M  V30 9662 C 927.636 -4.151 2.82838 0
M  V30 9663 C 929.63 -4.2253 4.77229 0
M  V30 9664 C 927.317 -4.49578 4.13911 0
M  V30 9665 C 928.315 -4.53269 5.10917 0
M  V30 9666 O 928.003 -4.86945 6.39641 0
M  V30 9667 H 927.735 -0.61694 0.276335 0
M  V30 9668 H 930.289 -1.51388 1.38819 0
M  V30 9669 H 928.519 -3.85061 0.355709 0
M  V30 9670 H 930.208 -3.9889 0.751091 0
M  V30 9671 H 930.974 -3.63627 3.20936 0
M  V30 9672 H 926.853 -4.11406 2.08006 0
M  V30 9673 H 930.397 -4.25326 5.52941 0
M  V30 9674 H 926.294 -4.73133 4.39107 0
M  V30 9675 H 927.062 -5.04857 6.44253 0
M  V30 9676 N 929.725 -0.817259 -1.34754 0
M  V30 9677 C 930.95 -0.414423 -2.03217 0
M  V30 9678 C 931.375 0.970037 -1.61158 0
M  V30 9679 O 930.733 1.63016 -0.793436 0
M  V30 9680 C 930.781 -0.518087 -3.56859 0
M  V30 9681 O 929.885 0.464314 -4.09778 0
M  V30 9682 H 929.226 -0.171454 -0.641482 0
M  V30 9683 H 931.756 -1.10611 -1.72123 0
M  V30 9684 H 931.766 -0.391779 -4.06115 0
M  V30 9685 H 930.441 -1.52786 -3.86819 0
M  V30 9686 H 929.018 0.297361 -3.71712 0
M  V30 9687 N 931.203 1.46865 -0.571711 0
M  V30 9688 C 932.153 2.27219 0.188503 0
M  V30 9689 C 933.137 1.35221 0.872019 0
M  V30 9690 O 934.329 1.59474 0.76793 0
M  V30 9691 C 931.458 3.21321 1.20862 0
M  V30 9692 C 930.544 4.20803 0.527783 0
M  V30 9693 N 930.935 5.04132 -0.410403 0
M  V30 9694 C 929.233 4.39128 0.779909 0
M  V30 9695 C 929.934 5.76071 -0.80728 0
M  V30 9696 N 928.91 5.43368 -0.158865 0
M  V30 9697 H 932.712 2.89034 -0.532611 0
M  V30 9698 H 930.226 1.57581 -0.392696 0
M  V30 9699 H 932.223 3.77586 1.76733 0
M  V30 9700 H 930.883 2.61065 1.93067 0
M  V30 9701 H 931.894 5.11911 -0.785351 0
M  V30 9702 H 928.571 3.90031 1.48937 0
M  V30 9703 H 929.961 6.53082 -1.57903 0
M  V30 9704 N 932.681 0.308908 1.54543 0
M  V30 9705 C 934.097 -0.0442273 1.59539 0
M  V30 9706 C 934.297 -1.51743 1.32575 0
M  V30 9707 O 933.353 -2.27134 1.10302 0
M  V30 9708 C 934.666 0.360826 2.98527 0
M  V30 9709 C 936.214 0.310252 3.11459 0
M  V30 9710 C 936.689 0.690246 4.52769 0
M  V30 9711 N 938.18 0.643084 4.58714 0
M  V30 9712 C 938.915 0.909483 5.66141 0
M  V30 9713 N 938.411 1.24226 6.81572 0
M  V30 9714 N 940.204 0.836018 5.55848 0
M  V30 9715 H 932.355 1.26893 1.70329 0
M  V30 9716 H 934.618 0.514986 0.795923 0
M  V30 9717 H 934.324 1.38669 3.23209 0
M  V30 9718 H 934.198 -0.281563 3.76148 0
M  V30 9719 H 936.585 -0.706375 2.86521 0
M  V30 9720 H 936.666 0.987373 2.35976 0
M  V30 9721 H 936.31 1.70472 4.78437 0
M  V30 9722 H 936.24 -0.00903075 5.26599 0
M  V30 9723 H 938.731 0.397138 3.75807 0
M  V30 9724 H 939.044 1.4313 7.5943 0
M  V30 9725 H 937.389 1.28038 6.83104 0
M  V30 9726 H 940.58 0.575637 4.64547 0
M  V30 9727 H 940.753 1.047 6.39486 0
M  V30 9728 N 934.159 -1.57557 0.0367827 0
M  V30 9729 C 935.384 -1.96828 -0.653707 0
M  V30 9730 C 935.809 -0.913559 -1.64425 0
M  V30 9731 O 935.167 0.124749 -1.8087 0
M  V30 9732 C 935.215 -3.35189 -1.32969 0
M  V30 9733 O 934.319 -3.32095 -2.44513 0
M  V30 9734 H 933.66 -0.64157 -0.171124 0
M  V30 9735 H 936.19 -2.04351 0.100912 0
M  V30 9736 H 936.2 -3.71593 -1.68472 0
M  V30 9737 H 934.875 -4.11496 -0.603654 0
M  V30 9738 H 933.452 -3.07418 -2.11065 0
M  V30 9739 N 935.637 0.236453 -1.55816 0
M  V30 9740 C 937.048 0.80468 -1.68469 0
M  V30 9741 C 937.399 1.85601 -0.636133 0
M  V30 9742 O 936.524 2.15323 0.215622 0
M  V30 9743 C 937.119 1.46634 -3.05424 0
M  V30 9744 C 935.678 1.98214 -3.19981 0
M  V30 9745 C 934.825 0.83695 -2.64368 0
M  V30 9746 H 937.776 0.0120647 -1.58695 0
M  V30 9747 H 937.797 2.33472 -3.00451 0
M  V30 9748 H 937.309 0.700931 -3.81718 0
M  V30 9749 H 935.41 2.77604 -2.4853 0
M  V30 9750 H 935.523 2.17235 -4.2702 0
M  V30 9751 H 933.887 1.24028 -2.22462 0
M  V30 9752 H 934.67 0.084451 -3.43196 0
M  V30 9753 N 937.115 1.49373 0.502552 0
M  V30 9754 C 938.045 1.68839 1.61294 0
M  V30 9755 C 939.026 0.537096 1.61398 0
M  V30 9756 O 940.211 0.772764 1.78163 0
M  V30 9757 C 937.341 1.75347 2.99784 0
M  V30 9758 C 936.295 2.90251 3.14545 0
M  V30 9759 C 935.621 2.8187 4.54371 0
M  V30 9760 C 936.921 4.31207 2.94717 0
M  V30 9761 H 938.615 2.61803 1.45257 0
M  V30 9762 H 936.161 1.25987 0.697371 0
M  V30 9763 H 938.114 1.87552 3.77362 0
M  V30 9764 H 936.838 0.789814 3.16906 0
M  V30 9765 H 935.497 2.77646 2.39392 0
M  V30 9766 H 935.145 1.83416 4.68367 0
M  V30 9767 H 934.845 3.5899 4.65188 0
M  V30 9768 H 936.369 2.96081 5.34012 0
M  V30 9769 H 937.783 4.44501 3.62065 0
M  V30 9770 H 936.18 5.09536 3.17007 0
M  V30 9771 H 937.25 4.45759 1.90857 0
M  V30 9772 N 938.594 -0.753485 1.38421 0
M  V30 9773 C 939.557 -1.84888 1.35459 0
M  V30 9774 C 940.557 -1.58764 0.255083 0
M  V30 9775 O 941.747 -1.66507 0.511978 0
M  V30 9776 C 938.879 -3.22361 1.10888 0
M  V30 9777 H 940.072 -1.88922 2.32913 0
M  V30 9778 H 937.625 -0.955199 1.23716 0
M  V30 9779 H 938.36 -3.23996 0.1404 0
M  V30 9780 H 938.145 -3.42717 1.90492 0
M  V30 9781 H 939.635 -4.02437 1.1151 0
M  V30 9782 N 940.072 -1.23292 -0.981677 0
M  V30 9783 C 941.02 -1.0104 -2.09508 0
M  V30 9784 C 942.014 0.0501977 -1.69326 0
M  V30 9785 O 943.22 -0.103197 -1.79704 0
M  V30 9786 H 939.595 -0.309629 -0.685298 0
M  V30 9787 H 941.566 -1.95493 -2.25444 0
M  V30 9788 C 940.315 -0.616885 -3.42184 0
M  V30 9789 H 939.638 -1.4247 -3.73554 0
M  V30 9790 H 941.078 -0.500688 -4.21033 0
M  V30 9791 C 939.537 0.674721 -3.30074 0
M  V30 9792 O 940.067 1.72421 -3.62814 0
M  V30 9793 N 938.273 0.650151 -2.83234 0
M  V30 9794 H 937.82 -0.204225 -2.56789 0
M  V30 9795 H 937.778 1.51458 -2.75514 0
M  V30 9796 N 941.55 1.18024 -1.04442 0
M  V30 9797 C 942.48 2.23988 -0.659683 0
M  V30 9798 C 943.461 1.6669 0.338904 0
M  V30 9799 O 944.646 1.92971 0.21817 0
M  V30 9800 C 941.776 3.4729 -0.0257672 0
M  V30 9801 C 940.73 4.17362 -0.948299 0
M  V30 9802 C 940.056 5.34401 -0.17866 0
M  V30 9803 C 941.356 4.70435 -2.26909 0
M  V30 9804 H 943.05 2.56425 -1.54553 0
M  V30 9805 H 940.596 1.23256 -0.744575 0
M  V30 9806 H 942.549 4.20627 0.255131 0
M  V30 9807 H 941.273 3.14098 0.894981 0
M  V30 9808 H 939.932 3.45928 -1.21364 0
M  V30 9809 H 939.58 4.97458 0.744614 0
M  V30 9810 H 939.28 5.8222 -0.793294 0
M  V30 9811 H 940.804 6.10526 0.0951315 0
M  V30 9812 H 942.218 5.35447 -2.04864 0
M  V30 9813 H 940.615 5.28803 -2.83703 0
M  V30 9814 H 941.685 3.87653 -2.91296 0
M  V30 9815 N 943.028 0.824394 1.34319 0
M  V30 9816 C 944.253 0.425194 2.02995 0
M  V30 9817 C 944.678 -0.961476 1.6167 0
M  V30 9818 O 944.036 -1.62593 0.80207 0
M  V30 9819 C 944.084 0.537004 3.56579 0
M  V30 9820 O 943.188 -0.442576 4.10018 0
M  V30 9821 H 942.529 0.174853 0.640564 0
M  V30 9822 H 945.059 1.11522 1.71534 0
M  V30 9823 H 945.069 0.413311 4.05901 0
M  V30 9824 H 943.744 1.54836 3.86004 0
M  V30 9825 H 942.321 -0.277644 3.71865 0
M  V30 9826 N 944.506 -1.46559 0.579492 0
M  V30 9827 C 945.469 -2.28739 -0.145371 0
M  V30 9828 C 946.469 -1.38211 -0.821854 0
M  V30 9829 O 947.659 -1.6062 -0.674302 0
M  V30 9830 C 944.791 -3.18507 -1.21515 0
M  V30 9831 H 945.984 -2.94301 0.576786 0
M  V30 9832 H 943.537 -1.52616 0.337327 0
M  V30 9833 H 944.272 -2.57685 -1.96899 0
M  V30 9834 H 944.057 -3.85157 -0.734616 0
M  V30 9835 H 945.547 -3.80369 -1.72363 0
M  V30 9836 N 945.984 -0.3171 -1.54377 0
M  V30 9837 C 946.932 0.567371 -2.25574 0
M  V30 9838 C 947.926 1.12387 -1.2675 0
M  V30 9839 O 949.132 1.07266 -1.44548 0
M  V30 9840 H 945.507 0.201605 -0.724472 0
M  V30 9841 H 947.478 -0.0554644 -2.98348 0
M  V30 9842 C 946.227 1.71984 -3.02187 0
M  V30 9843 H 945.55 1.30086 -3.78044 0
M  V30 9844 H 946.99 2.31443 -3.5526 0
M  V30 9845 C 945.449 2.6336 -2.10103 0
M  V30 9846 O 945.979 3.64899 -1.67962 0
M  V30 9847 N 944.185 2.3145 -1.75725 0
M  V30 9848 H 943.732 1.48921 -2.10191 0
M  V30 9849 H 943.69 2.92852 -1.14391 0
M  V30 9850 N 947.462 1.57535 -0.0451378 0
M  V30 9851 C 948.711 1.91628 0.629415 0
M  V30 9852 C 949.024 0.924754 1.72359 0
M  V30 9853 O 950.23 1.15751 2.45589 0
M  V30 9854 C 948.686 3.40322 1.17084 0
M  V30 9855 C 948.294 4.47867 0.109101 0
M  V30 9856 C 950.038 3.83458 1.82099 0
M  V30 9857 C 947.945 5.87671 0.663072 0
M  V30 9858 H 946.875 0.715163 0.238868 0
M  V30 9859 H 949.526 1.83151 -0.113046 0
M  V30 9860 H 947.908 3.43783 1.96543 0
M  V30 9861 H 949.082 4.55988 -0.664201 0
M  V30 9862 H 947.397 4.14034 -0.443227 0
M  V30 9863 H 949.994 4.85273 2.2453 0
M  V30 9864 H 950.337 3.19379 2.67026 0
M  V30 9865 H 950.87 3.82488 1.09305 0
M  V30 9866 H 947.609 6.55332 -0.148423 0
M  V30 9867 H 947.129 5.83124 1.4045 0
M  V30 9868 H 948.808 6.36737 1.14785 0
M  V30 9869 N 948.94 -0.228186 1.55939 0
M  V30 9870 C 949.903 -1.26621 1.91049 0
M  V30 9871 C 950.903 -1.40141 0.788491 0
M  V30 9872 O 952.093 -1.3852 1.05631 0
M  V30 9873 C 949.225 -2.64108 2.15545 0
M  V30 9874 H 950.418 -0.966978 2.83883 0
M  V30 9875 H 947.971 -0.468313 1.49119 0
M  V30 9876 H 948.706 -2.99141 1.25241 0
M  V30 9877 H 948.491 -2.55673 2.97277 0
M  V30 9878 H 949.981 -3.39025 2.43827 0
M  V30 9879 N 950.418 -1.49637 -0.494624 0
M  V30 9880 C 951.643 -1.63431 -1.27691 0
M  V30 9881 C 952.068 -0.30813 -1.85559 0
M  V30 9882 O 951.426 0.725083 -1.66169 0
M  V30 9883 C 951.474 -2.71043 -2.3784 0
M  V30 9884 O 950.578 -2.3066 -3.41862 0
M  V30 9885 H 949.919 -0.546804 -0.376698 0
M  V30 9886 H 952.449 -1.95866 -0.591413 0
M  V30 9887 H 952.459 -2.93406 -2.83508 0
M  V30 9888 H 951.134 -3.67306 -1.95088 0
M  V30 9889 H 949.711 -2.18652 -3.02069 0
M  V30 9890 N 951.896 0.746133 -1.38819 0
M  V30 9891 C 952.826 1.87344 -1.39372 0
M  V30 9892 C 953.807 1.68123 -0.258583 0
M  V30 9893 O 954.992 1.88606 -0.462769 0
M  V30 9894 C 952.122 3.24962 -1.22543 0
M  V30 9895 C 951.076 3.58799 -2.33339 0
M  V30 9896 C 950.402 4.95235 -2.01609 0
M  V30 9897 C 951.702 3.62911 -3.75624 0
M  V30 9898 H 953.396 1.87138 -2.33709 0
M  V30 9899 H 950.942 0.898937 -1.12495 0
M  V30 9900 H 952.895 4.03488 -1.21554 0
M  V30 9901 H 951.619 3.25667 -0.246707 0
M  V30 9902 H 950.278 2.82596 -2.33527 0
M  V30 9903 H 949.926 4.92508 -1.02202 0
M  V30 9904 H 949.626 5.18843 -2.75819 0
M  V30 9905 H 951.15 5.76131 -2.02251 0
M  V30 9906 H 952.564 4.31535 -3.77426 0
M  V30 9907 H 950.961 3.98031 -4.491 0
M  V30 9908 H 952.031 2.62967 -4.07402 0
M  V30 9909 N 953.375 1.23811 0.975125 0
M  V30 9910 C 954.307 0.981779 2.07108 0
M  V30 9911 C 955.32 -0.0461211 1.62735 0
M  V30 9912 O 956.509 0.190039 1.77486 0
M  V30 9913 C 953.609 0.458364 3.35786 0
M  V30 9914 C 952.782 1.54767 4.09104 0
M  V30 9915 C 951.841 1.0282 5.16057 0
M  V30 9916 O 950.867 1.71831 5.42644 0
M  V30 9917 N 952.069 -0.141243 5.80328 0
M  V30 9918 H 954.834 1.92537 2.29673 0
M  V30 9919 H 952.395 1.1474 1.14221 0
M  V30 9920 H 954.387 0.0957686 4.04587 0
M  V30 9921 H 952.957 -0.390768 3.10148 0
M  V30 9922 H 952.177 2.08279 3.34684 0
M  V30 9923 H 953.465 2.28006 4.54853 0
M  V30 9924 H 952.863 -0.718382 5.6112 0
M  V30 9925 H 951.42 -0.445052 6.50279 0
M  V30 9926 N 954.853 -1.17469 1.05066 0
M  V30 9927 C 955.8 -2.21443 0.650512 0
M  V30 9928 C 956.77 -1.62441 -0.346702 0
M  V30 9929 O 957.955 -1.89305 -0.238404 0
M  V30 9930 C 955.095 -3.45087 0.0301014 0
M  V30 9931 C 954.208 -4.18385 1.07599 0
M  V30 9932 C 953.343 -5.29513 0.423038 0
M  V30 9933 C 952.382 -5.94596 1.45333 0
M  V30 9934 N 951.519 -6.97241 0.824623 0
M  V30 9935 H 956.359 -2.55025 1.54163 0
M  V30 9936 H 953.896 -1.25274 0.771032 0
M  V30 9937 H 955.854 -4.15754 -0.347032 0
M  V30 9938 H 954.484 -3.12093 -0.824481 0
M  V30 9939 H 953.536 -3.46446 1.57097 0
M  V30 9940 H 954.848 -4.62899 1.85813 0
M  V30 9941 H 954.002 -6.067 -0.00774975 0
M  V30 9942 H 952.741 -4.86129 -0.391092 0
M  V30 9943 H 951.746 -5.16142 1.89415 0
M  V30 9944 H 952.971 -6.40061 2.26934 0
M  V30 9945 H 950.917 -6.55993 0.0309804 0
M  V30 9946 H 950.834 -7.40059 1.54432 0
M  V30 9947 H 952.102 -7.78375 0.418567 0
M  V30 9948 N 956.331 -0.831506 -1.3388 0
M  V30 9949 C 957.579 -0.422837 -1.97627 0
M  V30 9950 C 957.9 1.01961 -1.6622 0
M  V30 9951 O 957.17 1.70916 -0.957323 0
M  V30 9952 H 955.75 -0.153365 -0.731087 0
M  V30 9953 H 958.412 -1.06284 -1.6337 0
M  V30 9954 H 957.508 -0.548858 -3.07236 0
M  V30 9955 N 957.809 1.4625 -0.587256 0
M  V30 9956 C 959.039 2.06444 -0.0802135 0
M  V30 9957 C 959.447 1.43585 1.23207 0
M  V30 9958 O 958.79 0.536956 1.75677 0
M  V30 9959 C 958.852 3.59165 0.155129 0
M  V30 9960 C 958.516 4.44243 -1.07225 0
M  V30 9961 C 959.513 4.80497 -1.98542 0
M  V30 9962 C 957.198 4.8531 -1.29537 0
M  V30 9963 C 959.192 5.56649 -3.10516 0
M  V30 9964 C 956.879 5.61221 -2.41815 0
M  V30 9965 C 957.877 5.96805 -3.32134 0
M  V30 9966 O 957.565 6.71181 -4.42461 0
M  V30 9967 H 957.297 0.673626 -0.0566063 0
M  V30 9968 H 959.851 1.88797 -0.809004 0
M  V30 9969 H 958.081 3.75137 0.938583 0
M  V30 9970 H 959.77 4.01271 0.611243 0
M  V30 9971 H 960.536 4.49345 -1.82522 0
M  V30 9972 H 956.415 4.5706 -0.601431 0
M  V30 9973 H 959.959 5.84343 -3.81037 0
M  V30 9974 H 955.856 5.91786 -2.57797 0
M  V30 9975 H 956.624 6.8961 -4.40886 0
M  V30 9976 N 959.287 0.325282 1.54207 0
M  V30 9977 C 960.515 -0.27869 2.05014 0
M  V30 9978 C 960.93 -1.45649 1.20133 0
M  V30 9979 O 960.287 -1.81014 0.232398 0
M  V30 9980 C 960.338 -0.711486 3.54429 0
M  V30 9981 O 960.059 0.419458 4.36087 0
M  V30 9982 C 961.56 -1.37809 4.21336 0
M  V30 9983 H 958.78 -0.0570388 0.668571 0
M  V30 9984 H 961.324 0.47197 1.98979 0
M  V30 9985 H 959.479 -1.41212 3.60746 0
M  V30 9986 H 959.893 0.0781037 5.24442 0
M  V30 9987 H 961.367 -1.63184 5.27328 0
M  V30 9988 H 961.844 -2.32593 3.72555 0
M  V30 9989 H 962.45 -0.719987 4.19161 0
M  V30 9990 N 960.765 -1.57509 0.0534917 0
M  V30 9991 C 961.99 -1.97511 -0.632794 0
M  V30 9992 C 962.415 -0.930947 -1.63447 0
M  V30 9993 O 961.773 0.105558 -1.80992 0
M  V30 9994 C 961.821 -3.3658 -1.29407 0
M  V30 9995 O 960.925 -3.3467 -2.40977 0
M  V30 9996 H 960.266 -0.643349 -0.16431 0
M  V30 9997 H 962.796 -2.04232 0.12258 0
M  V30 9998 H 962.806 -3.73359 -1.64521 0
M  V30 9999 H 961.481 -4.12113 -0.559976 0
M  V30 10000 H 960.058 -3.09639 -2.07793 0
M  V30 10001 N 962.243 0.219913 -1.56058 0
M  V30 10002 C 963.49 0.944064 -1.79147 0
M  V30 10003 C 963.818 1.84268 -0.622531 0
M  V30 10004 O 963.073 1.91713 0.393013 0
M  V30 10005 C 963.372 1.81293 -3.08006 0
M  V30 10006 C 963.038 1.0674 -4.38084 0
M  V30 10007 C 961.7 0.86147 -4.73426 0
M  V30 10008 C 964.052 0.541049 -5.18384 0
M  V30 10009 C 961.38 0.117307 -5.86583 0
M  V30 10010 C 963.732 -0.189779 -6.32315 0
M  V30 10011 C 962.396 -0.406951 -6.66258 0
M  V30 10012 H 961.666 0.345458 -0.655546 0
M  V30 10013 H 964.313 0.212121 -1.90322 0
M  V30 10014 H 962.618 2.61278 -2.9196 0
M  V30 10015 H 964.315 2.3754 -3.23072 0
M  V30 10016 H 960.905 1.23789 -4.10334 0
M  V30 10017 H 965.089 0.687617 -4.91514 0
M  V30 10018 H 960.345 -0.0611651 -6.11369 0
M  V30 10019 H 964.519 -0.605134 -6.93766 0
M  V30 10020 H 962.146 -0.985511 -7.53785 0
M  V30 10021 N 963.721 1.49897 0.486681 0
M  V30 10022 C 964.969 1.59789 1.23742 0
M  V30 10023 C 965.29 0.293056 1.92785 0
M  V30 10024 O 964.56 -0.688534 1.83401 0
M  V30 10025 H 963.14 0.588775 0.459731 0
M  V30 10026 H 965.802 1.86597 0.562808 0
M  V30 10027 H 964.898 2.40121 1.9937 0
M  V30 10028 N 965.199 -0.738761 1.39212 0
M  V30 10029 C 966.445 -1.50046 1.36433 0
M  V30 10030 C 966.778 -1.94157 -0.0409474 0
M  V30 10031 O 966.053 -1.66515 -1.00514 0
M  V30 10032 C 966.336 -2.74277 2.33333 0
M  V30 10033 C 966.189 -2.36209 3.82786 0
M  V30 10034 C 967.508 -3.76361 2.28123 0
M  V30 10035 H 964.627 -0.544294 0.496903 0
M  V30 10036 H 967.269 -0.845005 1.70175 0
M  V30 10037 H 965.419 -3.30204 2.04689 0
M  V30 10038 H 967.091 -1.85942 4.22165 0
M  V30 10039 H 965.334 -1.68483 3.99745 0
M  V30 10040 H 966.005 -3.25156 4.46069 0
M  V30 10041 H 968.481 -3.30009 2.53443 0
M  V30 10042 H 967.357 -4.60957 2.9801 0
M  V30 10043 H 967.618 -4.23013 1.28499 0
M  V30 10044 N 966.677 -1.24326 -0.968545 0
M  V30 10045 C 967.902 -1.1104 -1.75171 0
M  V30 10046 C 968.327 0.333109 -1.85127 0
M  V30 10047 O 967.685 1.24115 -1.32156 0
M  V30 10048 C 967.733 -1.75397 -3.15068 0
M  V30 10049 O 966.837 -1.02417 -3.9948 0
M  V30 10050 H 966.178 -0.388488 -0.538491 0
M  V30 10051 H 968.708 -1.64617 -1.215 0
M  V30 10052 H 968.718 -1.8112 -3.65595 0
M  V30 10053 H 967.393 -2.80427 -3.07138 0
M  V30 10054 H 965.97 -1.04475 -3.57966 0
M  V30 10055 N 968.156 1.1691 -1.05688 0
M  V30 10056 C 969.119 2.19297 -0.666433 0
M  V30 10057 C 970.119 1.5826 0.284674 0
M  V30 10058 O 971.309 1.74068 0.0678757 0
M  V30 10059 C 968.441 3.40894 0.0203656 0
M  V30 10060 H 969.634 2.55354 -1.57272 0
M  V30 10061 H 967.187 1.31078 -0.851359 0
M  V30 10062 H 967.922 3.10388 0.939686 0
M  V30 10063 H 967.707 3.86446 -0.663464 0
M  V30 10064 H 969.197 4.16664 0.279475 0
M  V30 10065 N 969.634 0.838594 1.33437 0
M  V30 10066 C 970.859 0.446701 2.02532 0
M  V30 10067 C 971.284 -0.944275 1.62681 0
M  V30 10068 O 970.642 -1.61733 0.81927 0
M  V30 10069 C 970.69 0.574794 3.55989 0
M  V30 10070 O 969.794 -0.399063 4.10465 0
M  V30 10071 H 969.135 0.181637 0.638674 0
M  V30 10072 H 971.665 1.13335 1.70342 0
M  V30 10073 H 971.675 0.456339 4.0544 0
M  V30 10074 H 970.35 1.58921 3.8434 0
M  V30 10075 H 968.927 -0.238187 3.72139 0
M  V30 10076 N 971.112 -1.45937 0.595003 0
M  V30 10077 C 972.36 -2.01921 0.0851368 0
M  V30 10078 C 972.681 -1.46748 -1.28413 0
M  V30 10079 O 971.951 -0.656873 -1.84559 0
M  V30 10080 H 970.531 -0.746457 0.0284826 0
M  V30 10081 H 973.193 -1.78891 0.773561 0
M  V30 10082 H 972.289 -3.1209 0.0254002 0
M  V30 10083 N 972.59 -0.333456 -1.54032 0
M  V30 10084 C 973.838 0.265608 -2.00347 0
M  V30 10085 C 974.159 1.51873 -1.2231 0
M  V30 10086 O 973.429 1.93142 -0.327549 0
M  V30 10087 H 972.009 0.101135 -0.740122 0
M  V30 10088 H 974.671 -0.452285 -1.8958 0
M  V30 10089 H 973.767 0.51511 -3.0782 0
M  V30 10090 N 974.068 1.57479 -0.061844 0
M  V30 10091 C 975.031 2.1104 0.894127 0
M  V30 10092 C 976.031 1.03227 1.23292 0
M  V30 10093 O 977.221 1.29256 1.16784 0
M  V30 10094 C 974.353 2.6035 2.20069 0
M  V30 10095 H 975.546 2.96807 0.429619 0
M  V30 10096 H 973.099 1.55181 0.18672 0
M  V30 10097 H 973.834 1.78008 2.71079 0
M  V30 10098 H 973.619 3.39146 1.9678 0
M  V30 10099 H 975.109 3.019 2.88525 0
M  V30 10100 N 975.546 -0.211634 1.56173 0
M  V30 10101 C 976.774 -0.951184 1.83739 0
M  V30 10102 C 977.189 -1.7754 0.642252 0
M  V30 10103 O 976.546 -1.78302 -0.389174 0
M  V30 10104 C 976.597 -1.86075 3.09933 0
M  V30 10105 O 976.318 -1.06983 4.24837 0
M  V30 10106 C 977.819 -2.71337 3.50559 0
M  V30 10107 H 975.039 -0.278312 0.61056 0
M  V30 10108 H 977.583 -0.223871 2.03271 0
M  V30 10109 H 975.738 -2.54189 2.92347 0
M  V30 10110 H 976.152 -1.68815 4.9659 0
M  V30 10111 H 977.626 -3.30843 4.41868 0
M  V30 10112 H 978.103 -3.44226 2.72773 0
M  V30 10113 H 978.709 -2.0862 3.70618 0
M  V30 10114 N 977.024 -1.50153 -0.478725 0
M  V30 10115 C 978.273 -1.60002 -1.22809 0
M  V30 10116 C 978.586 -0.302277 -1.9325 0
M  V30 10117 O 979.792 -0.279583 -2.70057 0
M  V30 10118 C 978.248 -2.82402 -2.23108 0
M  V30 10119 C 977.856 -4.19023 -1.58505 0
M  V30 10120 C 979.6 -3.01593 -2.98734 0
M  V30 10121 C 977.507 -5.32618 -2.57045 0
M  V30 10122 H 976.437 -0.595822 -0.462073 0
M  V30 10123 H 979.088 -1.76573 -0.499412 0
M  V30 10124 H 977.47 -2.59373 -2.99235 0
M  V30 10125 H 978.644 -4.52277 -0.882187 0
M  V30 10126 H 976.959 -4.05374 -0.951877 0
M  V30 10127 H 979.556 -3.8363 -3.72468 0
M  V30 10128 H 979.899 -2.1302 -3.57671 0
M  V30 10129 H 980.432 -3.24766 -2.29721 0
M  V30 10130 H 977.171 -6.23321 -2.02858 0
M  V30 10131 H 976.691 -5.03792 -3.25505 0
M  V30 10132 H 978.37 -5.62877 -3.19028 0
M  V30 10133 N 978.502 0.731368 -1.39602 0
M  V30 10134 C 979.73 1.52059 -1.40305 0
M  V30 10135 C 980.145 1.888 0.00147921 0
M  V30 10136 O 979.502 1.54354 0.973715 0
M  V30 10137 C 979.553 2.80588 -2.27931 0
M  V30 10138 O 979.274 2.45406 -3.62915 0
M  V30 10139 C 980.775 3.74592 -2.37056 0
M  V30 10140 H 977.995 0.469787 -0.479104 0
M  V30 10141 H 980.539 0.903436 -1.83462 0
M  V30 10142 H 978.694 3.38626 -1.88178 0
M  V30 10143 H 979.108 3.27996 -4.09291 0
M  V30 10144 H 980.582 4.61662 -3.02609 0
M  V30 10145 H 981.059 4.16597 -1.39081 0
M  V30 10146 H 981.665 3.22471 -2.77295 0
M  V30 10147 N 979.98 1.24838 0.961938 0
M  V30 10148 C 981.228 1.08936 1.70227 0
M  V30 10149 C 981.549 -0.371582 1.91427 0
M  V30 10150 O 980.819 -1.26461 1.49614 0
M  V30 10151 H 979.399 0.400128 0.630799 0
M  V30 10152 H 982.061 1.56848 1.15692 0
M  V30 10153 H 981.157 1.59195 2.68446 0
M  V30 10154 N 981.458 -1.16348 1.06306 0
M  V30 10155 C 982.405 -2.20741 0.673962 0
M  V30 10156 C 983.375 -1.628 -0.329454 0
M  V30 10157 O 984.56 -1.89547 -0.218313 0
M  V30 10158 C 981.7 -3.45036 0.0667008 0
M  V30 10159 C 980.813 -4.17221 1.12031 0
M  V30 10160 C 979.948 -5.29034 0.479176 0
M  V30 10161 C 978.987 -5.93021 1.51631 0
M  V30 10162 N 978.124 -6.96327 0.898528 0
M  V30 10163 H 982.964 -2.53376 1.56859 0
M  V30 10164 H 980.501 -1.24449 0.784276 0
M  V30 10165 H 982.459 -4.16099 -0.302916 0
M  V30 10166 H 981.089 -3.1295 -0.791333 0
M  V30 10167 H 980.141 -3.4476 1.60763 0
M  V30 10168 H 981.453 -4.60902 1.90712 0
M  V30 10169 H 980.607 -6.06674 0.0565993 0
M  V30 10170 H 979.346 -4.86517 -0.33951 0
M  V30 10171 H 978.351 -5.14104 1.94878 0
M  V30 10172 H 979.576 -6.37618 2.3371 0
M  V30 10173 H 977.522 -6.55923 0.100555 0
M  V30 10174 H 977.439 -7.38379 1.62272 0
M  V30 10175 H 978.707 -7.77888 0.5011 0
M  V30 10176 N 982.937 -0.845659 -1.3299 0
M  V30 10177 C 984.185 -0.443774 -1.97168 0
M  V30 10178 C 984.506 1.00192 -1.67292 0
M  V30 10179 O 983.776 1.69891 -0.975397 0
M  V30 10180 H 982.356 -0.161111 -0.729419 0
M  V30 10181 H 985.018 -1.08011 -1.62233 0
M  V30 10182 H 984.114 -0.581414 -3.06637 0
M  V30 10183 N 984.415 1.45619 -0.602734 0
M  V30 10184 C 985.378 2.28941 0.108962 0
M  V30 10185 C 986.378 1.39501 0.799762 0
M  V30 10186 O 987.568 1.61673 0.648663 0
M  V30 10187 C 984.7 3.204 1.16432 0
M  V30 10188 H 985.893 2.93346 -0.623534 0
M  V30 10189 H 983.446 1.52061 -0.361565 0
M  V30 10190 H 984.181 2.60785 1.92774 0
M  V30 10191 H 983.966 3.86277 0.673248 0
M  V30 10192 H 985.456 3.83063 1.6629 0
M  V30 10193 N 985.893 0.34162 1.53853 0
M  V30 10194 C 986.856 -0.503541 2.236 0
M  V30 10195 C 987.856 -1.02912 1.23554 0
M  V30 10196 O 989.046 -0.918678 1.48007 0
M  V30 10197 C 986.178 -1.70126 2.95415 0
M  V30 10198 H 987.371 0.106437 2.99711 0
M  V30 10199 H 984.924 0.0929408 1.56023 0
M  V30 10200 H 985.659 -2.34999 2.23486 0
M  V30 10201 H 985.444 -1.33161 3.68796 0
M  V30 10202 H 986.934 -2.30077 3.48503 0
M  V30 10203 N 987.371 -1.57444 0.0701946 0
M  V30 10204 C 988.301 -2.15659 -0.895176 0
M  V30 10205 C 989.282 -1.08321 -1.31151 0
M  V30 10206 O 990.467 -1.36349 -1.38284 0
M  V30 10207 C 987.597 -2.71693 -2.16334 0
M  V30 10208 C 986.551 -3.84183 -1.88645 0
M  V30 10209 C 985.877 -4.26814 -3.22078 0
M  V30 10210 C 987.177 -5.08493 -1.19299 0
M  V30 10211 H 988.871 -2.96576 -0.410217 0
M  V30 10212 H 986.417 -1.42662 -0.195872 0
M  V30 10213 H 988.37 -3.11064 -2.84284 0
M  V30 10214 H 987.094 -1.87994 -2.67069 0
M  V30 10215 H 985.753 -3.45314 -1.23101 0
M  V30 10216 H 985.401 -3.40039 -3.70651 0
M  V30 10217 H 985.101 -5.02642 -3.04344 0
M  V30 10218 H 986.625 -4.68799 -3.91228 0
M  V30 10219 H 988.039 -5.4519 -1.77316 0
M  V30 10220 H 986.436 -5.89588 -1.11828 0
M  V30 10221 H 987.506 -4.84595 -0.171839 0
M  V30 10222 N 988.849 0.203349 -1.56283 0
M  V30 10223 C 989.799 1.25595 -1.90289 0
M  V30 10224 C 990.783 1.41403 -0.767732 0
M  V30 10225 O 991.975 1.43912 -1.03046 0
M  V30 10226 C 989.104 2.60255 -2.23881 0
M  V30 10227 C 988.19 2.48274 -3.43833 0
M  V30 10228 N 988.581 2.05963 -4.61966 0
M  V30 10229 C 986.879 2.79188 -3.47808 0
M  V30 10230 C 987.58 2.05674 -5.44126 0
M  V30 10231 N 986.556 2.46862 -4.84314 0
M  V30 10232 H 990.358 0.920016 -2.79129 0
M  V30 10233 H 987.872 0.411829 -1.57091 0
M  V30 10234 H 989.869 3.36274 -2.46425 0
M  V30 10235 H 988.529 2.94678 -1.36363 0
M  V30 10236 H 989.54 1.76803 -4.86787 0
M  V30 10237 H 986.217 3.17863 -2.70684 0
M  V30 10238 H 987.607 1.74932 -6.48728 0
M  V30 10239 N 990.327 1.50405 0.470755 0
M  V30 10240 C 991.29 1.68741 1.5511 0
M  V30 10241 C 992.29 0.558116 1.50804 0
M  V30 10242 O 993.48 0.825149 1.53418 0
M  V30 10243 C 990.612 1.71295 2.94739 0
M  V30 10244 H 991.805 2.65127 1.40169 0
M  V30 10245 H 989.358 1.39891 0.697156 0
M  V30 10246 H 990.093 0.766029 3.15123 0
M  V30 10247 H 989.878 2.53336 2.99271 0
M  V30 10248 H 991.368 1.87434 3.73173 0
M  V30 10249 N 991.805 -0.723954 1.39988 0
M  V30 10250 C 993.053 -1.48078 1.3754 0
M  V30 10251 C 993.374 -1.94985 -0.0243358 0
M  V30 10252 O 992.644 -1.69764 -0.977602 0
M  V30 10253 H 991.224 -0.549354 0.506181 0
M  V30 10254 H 993.886 -0.858746 1.74962 0
M  V30 10255 H 992.982 -2.35763 2.04505 0
M  V30 10256 N 993.283 -1.25346 -0.955304 0
M  V30 10257 C 994.531 -1.09837 -1.69647 0
M  V30 10258 C 994.852 0.361425 -1.91621 0
M  V30 10259 O 994.122 1.25666 -1.50283 0
M  V30 10260 H 992.702 -0.403467 -0.628668 0
M  V30 10261 H 995.364 -1.57459 -1.14859 0
M  V30 10262 H 994.46 -1.60616 -2.67598 0
M  V30 10263 N 994.761 1.15782 -1.06922 0
M  V30 10264 C 995.694 2.19336 -0.629837 0
M  V30 10265 C 996.672 1.58774 0.350663 0
M  V30 10266 O 997.856 1.86724 0.258124 0
M  V30 10267 C 994.983 3.38615 0.0757526 0
M  V30 10268 C 994.029 4.17688 -0.862503 0
M  V30 10269 S 994.862 4.80634 -2.36117 0
M  V30 10270 C 996.018 6.03286 -1.66725 0
M  V30 10271 H 996.251 2.56267 -1.50714 0
M  V30 10272 H 993.784 1.26674 -0.882776 0
M  V30 10273 H 995.742 4.07724 0.476611 0
M  V30 10274 H 994.403 3.00037 0.929332 0
M  V30 10275 H 993.596 5.03012 -0.315461 0
M  V30 10276 H 993.198 3.54106 -1.20354 0
M  V30 10277 H 995.49 6.70426 -0.976472 0
M  V30 10278 H 996.433 6.62551 -2.49864 0
M  V30 10279 H 996.841 5.52722 -1.14711 0
M  V30 10280 N 996.239 0.8527 1.3254 0
M  V30 10281 C 997.464 0.468157 2.02047 0
M  V30 10282 C 997.889 -0.926967 1.63673 0
M  V30 10283 O 997.247 -1.60855 0.836378 0
M  V30 10284 C 997.295 0.612519 3.5536 0
M  V30 10285 O 996.399 -0.355506 4.10865 0
M  V30 10286 H 995.74 0.188401 0.636711 0
M  V30 10287 H 998.27 1.15135 1.6913 0
M  V30 10288 H 998.28 0.499315 4.04933 0
M  V30 10289 H 996.955 1.62988 3.82632 0
M  V30 10290 H 995.532 -0.198703 3.7237 0
M  V30 10291 N 997.718 -1.45297 0.610449 0
M  V30 10292 C 998.966 -2.01819 0.106548 0
M  V30 10293 C 999.287 -1.48102 -1.26849 0
M  V30 10294 O 998.557 -0.676411 -1.83852 0
M  V30 10295 H 997.137 -0.746113 0.0363982 0
M  V30 10296 H 999.799 -1.78061 0.792491 0
M  V30 10297 H 998.895 -3.12045 0.0585 0
M  V30 10298 N 999.196 -0.349774 -1.5367 0
M  V30 10299 C 1000.44 0.244343 -2.00617 0
M  V30 10300 C 1000.76 1.50567 -1.23914 0
M  V30 10301 O 1000.03 1.92784 -0.348016 0
M  V30 10302 H 998.615 0.0932792 -0.741153 0
M  V30 10303 H 1001.28 -0.472367 -1.89089 0
M  V30 10304 H 1000.37 0.482433 -3.08349 0
M  V30 10305 N 1000.67 1.57404 -0.0785433 0
M  V30 10306 C 1001.9 1.98074 0.597862 0
M  V30 10307 C 1002.32 0.95714 1.6274 0
M  V30 10308 O 1001.67 -0.0553728 1.82416 0
M  V30 10309 C 1001.72 3.38815 1.26041 0
M  V30 10310 O 1001.45 4.37254 0.27207 0
M  V30 10311 C 1002.95 3.94397 2.024 0
M  V30 10312 H 1000.17 0.651263 0.161546 0
M  V30 10313 H 1002.71 2.03927 -0.152941 0
M  V30 10314 H 1000.87 3.34028 1.96225 0
M  V30 10315 H 1001.28 5.19136 0.74822 0
M  V30 10316 H 1002.75 4.95075 2.4414 0
M  V30 10317 H 1003.23 3.31308 2.88326 0
M  V30 10318 H 1003.84 4.02607 1.37068 0
M  V30 10319 N 1002.15 -0.195058 1.56388 0
M  V30 10320 C 1003.57 -0.545894 1.49974 0
M  V30 10321 C 1003.77 -1.85851 0.778568 0
M  V30 10322 O 1002.82 -2.50346 0.329105 0
M  V30 10323 C 1004.14 -0.600599 2.94641 0
M  V30 10324 C 1005.68 -0.689429 3.05313 0
M  V30 10325 C 1006.16 -0.775243 4.51391 0
M  V30 10326 N 1007.65 -0.838769 4.55542 0
M  V30 10327 C 1008.39 -0.925337 5.65884 0
M  V30 10328 N 1007.88 -0.974204 6.85916 0
M  V30 10329 N 1009.67 -0.962528 5.53798 0
M  V30 10330 H 1001.83 0.66595 2.0169 0
M  V30 10331 H 1004.09 0.237215 0.917842 0
M  V30 10332 H 1003.79 0.29478 3.50462 0
M  V30 10333 H 1003.67 -1.45528 3.47996 0
M  V30 10334 H 1006.06 -1.57524 2.4954 0
M  V30 10335 H 1006.14 0.191451 2.55083 0
M  V30 10336 H 1005.78 0.106215 5.07789 0
M  V30 10337 H 1005.71 -1.67193 4.99354 0
M  V30 10338 H 1008.2 -0.810249 3.69112 0
M  V30 10339 H 1008.51 -1.04077 7.6576 0
M  V30 10340 H 1006.86 -0.942881 6.88574 0
M  V30 10341 H 1010.05 -0.921188 4.58946 0
M  V30 10342 H 1010.22 -1.02653 6.39817 0
M  V30 10343 N 1003.63 -1.50653 -0.462772 0
M  V30 10344 C 1004.56 -1.73056 -1.5676 0
M  V30 10345 C 1005.54 -0.579699 -1.59917 0
M  V30 10346 O 1006.73 -0.819729 -1.76051 0
M  V30 10347 C 1003.86 -1.83234 -2.9503 0
M  V30 10348 C 1002.81 -2.98488 -3.06739 0
M  V30 10349 C 1002.14 -2.93818 -4.46738 0
M  V30 10350 C 1003.44 -4.38869 -2.83181 0
M  V30 10351 H 1005.13 -2.65562 -1.38265 0
M  V30 10352 H 1002.68 -1.27792 -0.663722 0
M  V30 10353 H 1004.63 -1.97491 -3.72257 0
M  V30 10354 H 1003.35 -0.873558 -3.14701 0
M  V30 10355 H 1002.01 -2.83895 -2.31946 0
M  V30 10356 H 1001.66 -1.95769 -4.63339 0
M  V30 10357 H 1001.36 -3.71197 -4.55507 0
M  V30 10358 H 1002.88 -3.10135 -5.25974 0
M  V30 10359 H 1004.3 -4.53945 -3.50153 0
M  V30 10360 H 1002.69 -5.17762 -3.03386 0
M  V30 10361 H 1003.76 -4.50663 -1.78972 0
M  V30 10362 N 1005.11 0.71652 -1.4037 0
M  V30 10363 C 1006.04 1.84345 -1.43315 0
M  V30 10364 C 1007.02 1.67537 -0.294186 0
M  V30 10365 O 1008.2 1.87582 -0.502671 0
M  V30 10366 C 1005.33 3.2229 -1.29408 0
M  V30 10367 C 1004.29 3.53769 -2.40897 0
M  V30 10368 C 1003.61 4.90847 -2.12068 0
M  V30 10369 C 1004.91 3.54862 -3.83237 0
M  V30 10370 H 1006.61 1.82138 -2.37626 0
M  V30 10371 H 1004.15 0.874873 -1.14376 0
M  V30 10372 H 1006.11 4.00819 -1.30085 0
M  V30 10373 H 1004.83 3.2507 -0.31573 0
M  V30 10374 H 1003.49 2.77579 -2.39469 0
M  V30 10375 H 1003.14 4.90229 -1.12626 0
M  V30 10376 H 1002.84 5.12875 -2.86762 0
M  V30 10377 H 1004.36 5.71711 -2.14426 0
M  V30 10378 H 1005.78 4.23432 -3.86494 0
M  V30 10379 H 1004.17 3.88416 -4.57442 0
M  V30 10380 H 1005.24 2.54266 -4.12888 0
M  V30 10381 N 1006.59 1.25851 0.948643 0
M  V30 10382 C 1007.83 1.11119 1.69648 0
M  V30 10383 C 1008.17 -0.345995 1.91093 0
M  V30 10384 O 1007.44 -1.25467 1.48621 0
M  V30 10385 C 1007.72 1.87261 3.0758 0
M  V30 10386 C 1007.58 3.40842 2.93507 0
M  V30 10387 C 1008.9 1.6605 4.07573 0
M  V30 10388 H 1006.01 0.405052 0.615713 0
M  V30 10389 H 1008.66 1.54756 1.10229 0
M  V30 10390 H 1006.81 1.50172 3.58303 0
M  V30 10391 H 1008.48 3.87641 2.50064 0
M  V30 10392 H 1006.72 3.68248 2.29294 0
M  V30 10393 H 1007.39 3.89339 3.91305 0
M  V30 10394 H 1009.87 1.98348 3.65783 0
M  V30 10395 H 1008.74 2.21753 5.02113 0
M  V30 10396 H 1009.01 0.603256 4.37965 0
M  V30 10397 N 1008.06 -1.15214 1.07534 0
M  V30 10398 C 1009.34 -1.82155 0.71267 0
M  V30 10399 C 1009.72 -1.95163 -0.804655 0
M  V30 10400 O 1009.07 -1.50451 -1.71979 0
M  V30 10401 C 1009.28 -3.18392 1.42925 0
M  V30 10402 C 1010.63 -3.94005 1.58256 0
M  V30 10403 O 1011.65 -3.27952 1.39018 0
M  V30 10404 O 1010.51 -5.12436 1.89925 0
M  V30 10405 H 1007.6 -0.78709 0.253808 0
M  V30 10406 H 1010.15 -1.22309 1.17638 0
M  V30 10407 H 1008.92 -3.04034 2.46331 0
M  V30 10408 H 1008.55 -3.85925 0.956439 0
M  V30 10409 N 1009.54 -0.859717 -1.32086 0
M  V30 10410 C 1010.77 -0.479724 -2.01262 0
M  V30 10411 C 1011.19 0.924985 -1.64589 0
M  V30 10412 O 1010.54 1.60439 -0.869803 0
M  V30 10413 C 1010.59 -0.615128 -3.56228 0
M  V30 10414 O 1010.31 -1.96451 -3.91585 0
M  V30 10415 C 1011.82 -0.234804 -4.42678 0
M  V30 10416 H 1009.04 -0.188007 -0.644123 0
M  V30 10417 H 1011.58 -1.15805 -1.68551 0
M  V30 10418 H 1009.73 0.0155268 -3.87397 0
M  V30 10419 H 1010.15 -1.96491 -4.86304 0
M  V30 10420 H 1011.62 -0.380534 -5.50687 0
M  V30 10421 H 1012.1 0.825189 -4.31378 0
M  V30 10422 H 1012.71 -0.840739 -4.16907 0
M  V30 10423 N 1011.02 1.44971 -0.618145 0
M  V30 10424 C 1012.3 1.95539 -0.0489895 0
M  V30 10425 C 1012.68 1.5604 1.42179 0
M  V30 10426 O 1012.03 0.82809 2.12967 0
M  V30 10427 C 1012.24 3.48044 -0.258193 0
M  V30 10428 C 1013.58 4.24354 -0.144541 0
M  V30 10429 O 1014.61 3.55699 -0.18887 0
M  V30 10430 O 1013.47 5.46486 -0.038519 0
M  V30 10431 H 1010.56 0.826466 0.0297256 0
M  V30 10432 H 1013.11 1.55086 -0.688944 0
M  V30 10433 H 1011.88 3.69798 -1.27926 0
M  V30 10434 H 1011.5 3.95412 0.416522 0
M  V30 10435 N 1012.5 0.357919 1.53482 0
M  V30 10436 C 1013.75 -0.2337 2.00744 0
M  V30 10437 C 1014.07 -1.49908 1.2471 0
M  V30 10438 O 1013.34 -1.92597 0.358235 0
M  V30 10439 H 1011.92 -0.0893474 0.741637 0
M  V30 10440 H 1014.58 0.482388 1.88836 0
M  V30 10441 H 1013.68 -0.466073 3.086 0
M  V30 10442 N 1013.98 -1.5736 0.0868897 0
M  V30 10443 C 1015.22 -1.94341 -0.579598 0
M  V30 10444 C 1015.56 -0.968238 -1.68341 0
M  V30 10445 O 1014.83 8.29649e-05 -1.945 0
M  V30 10446 C 1015.11 -3.41497 -1.14245 0
M  V30 10447 C 1014.97 -4.49778 -0.044255 0
M  V30 10448 C 1016.29 -3.89788 -2.04336 0
M  V30 10449 H 1013.4 -0.70668 -0.20922 0
M  V30 10450 H 1016.05 -1.89359 0.15593 0
M  V30 10451 H 1014.2 -3.45873 -1.76929 0
M  V30 10452 H 1015.87 -4.57517 0.58959 0
M  V30 10453 H 1014.11 -4.293 0.623207 0
M  V30 10454 H 1014.78 -5.4992 -0.478749 0
M  V30 10455 H 1017.26 -3.87513 -1.51569 0
M  V30 10456 H 1016.13 -4.93335 -2.40648 0
M  V30 10457 H 1016.4 -3.28603 -2.95757 0
M  V30 10458 N 1015.45 0.186762 -1.56489 0
M  V30 10459 C 1016.7 0.904063 -1.80752 0
M  V30 10460 C 1017.02 1.83443 -0.661343 0
M  V30 10461 O 1016.29 1.93272 0.319811 0
M  V30 10462 H 1014.87 0.336828 -0.66675 0
M  V30 10463 H 1017.54 0.190275 -1.93969 0
M  V30 10464 H 1016.63 1.49021 -2.74225 0
M  V30 10465 N 1016.93 1.50896 0.454776 0
M  V30 10466 C 1018.18 1.62378 1.20324 0
M  V30 10467 C 1018.5 0.333883 1.9212 0
M  V30 10468 O 1017.77 -0.649477 1.8482 0
M  V30 10469 H 1016.35 0.598395 0.447139 0
M  V30 10470 H 1019.01 1.87749 0.523102 0
M  V30 10471 H 1018.11 2.44296 1.94232 0
M  V30 10472 N 1018.41 -0.709066 1.40748 0
M  V30 10473 C 1019.66 -1.47119 1.39585 0
M  V30 10474 C 1019.99 -1.942 0.000245323 0
M  V30 10475 O 1019.26 -1.68609 -0.969593 0
M  V30 10476 C 1019.55 -2.69266 2.39099 0
M  V30 10477 C 1019.4 -2.28037 3.8771 0
M  V30 10478 C 1020.72 -3.71438 2.36055 0
M  V30 10479 H 1017.84 -0.533632 0.508336 0
M  V30 10480 H 1020.48 -0.808718 1.7193 0
M  V30 10481 H 1018.63 -3.25788 2.11647 0
M  V30 10482 H 1020.3 -1.76946 4.26014 0
M  V30 10483 H 1018.55 -1.59966 4.03229 0
M  V30 10484 H 1019.22 -3.15621 4.52866 0
M  V30 10485 H 1021.69 -3.24559 2.60385 0
M  V30 10486 H 1020.57 -4.54532 3.07721 0
M  V30 10487 H 1020.83 -4.20193 1.37443 0
M  V30 10488 N 1019.89 -1.26353 -0.941956 0
M  V30 10489 C 1021.3 -1.10774 -1.50287 0
M  V30 10490 C 1021.65 0.312229 -1.937 0
M  V30 10491 O 1020.78 1.20364 -1.79838 0
M  V30 10492 C 1021.37 -2.00473 -2.73123 0
M  V30 10493 C 1019.93 -1.89042 -3.25485 0
M  V30 10494 C 1019.08 -1.93869 -1.98267 0
M  V30 10495 H 1022.03 -1.39454 -0.757523 0
M  V30 10496 H 1022.05 -1.55216 -3.47402 0
M  V30 10497 H 1021.56 -3.03812 -2.41495 0
M  V30 10498 H 1019.66 -0.886341 -3.61904 0
M  V30 10499 H 1019.78 -2.74533 -3.92643 0
M  V30 10500 H 1018.14 -1.37912 -2.14132 0
M  V30 10501 H 1018.92 -2.98837 -1.68972 0
M  V30 10502 N 1021.37 1.14642 -1.08144 0
M  V30 10503 C 1022.61 1.85892 -0.810683 0
M  V30 10504 C 1022.95 1.82575 0.661821 0
M  V30 10505 O 1022.22 1.25454 1.48632 0
M  V30 10506 C 1022.5 3.34647 -1.32979 0
M  V30 10507 C 1022.36 3.46551 -2.86744 0
M  V30 10508 C 1023.68 4.29661 -0.952864 0
M  V30 10509 H 1020.8 0.674963 -0.295963 0
M  V30 10510 H 1023.44 1.3464 -1.3406 0
M  V30 10511 H 1021.59 3.78425 -0.87903 0
M  V30 10512 H 1023.26 3.11579 -3.40171 0
M  V30 10513 H 1021.5 2.87849 -3.24539 0
M  V30 10514 H 1022.17 4.51101 -3.18138 0
M  V30 10515 H 1024.65 3.93885 -1.34141 0
M  V30 10516 H 1023.53 5.32209 -1.34331 0
M  V30 10517 H 1023.79 4.41877 0.140392 0
M  V30 10518 N 1022.85 0.866709 1.31628 0
M  V30 10519 C 1024.12 0.396828 1.91532 0
M  V30 10520 C 1024.5 -1.12081 1.78889 0
M  V30 10521 O 1023.85 -1.94791 1.19452 0
M  V30 10522 C 1024.06 0.874578 3.37864 0
M  V30 10523 C 1025.41 0.8988 4.14978 0
M  V30 10524 O 1026.43 0.820014 3.46633 0
M  V30 10525 O 1025.29 1.01223 5.37044 0
M  V30 10526 H 1022.39 0.1181 0.818524 0
M  V30 10527 H 1024.93 0.954407 1.40318 0
M  V30 10528 H 1023.7 1.91807 3.41066 0
M  V30 10529 H 1023.33 0.295126 3.96503 0
M  V30 10530 N 1024.32 -1.44642 0.625825 0
M  V30 10531 C 1025.57 -2.01695 0.127948 0
M  V30 10532 C 1025.89 -1.49439 -1.25271 0
M  V30 10533 O 1025.16 -0.695873 -1.83124 0
M  V30 10534 H 1023.74 -0.745685 0.0443096 0
M  V30 10535 H 1026.4 -1.7721 0.811332 0
M  V30 10536 H 1025.5 -3.11966 0.0915933 0
M  V30 10537 N 1025.8 -0.366053 -1.5329 0
M  V30 10538 C 1027.05 0.223051 -2.00865 0
M  V30 10539 C 1027.37 1.49244 -1.25504 0
M  V30 10540 O 1026.64 1.92404 -0.368444 0
M  V30 10541 H 1025.22 0.085413 -0.742101 0
M  V30 10542 H 1027.88 -0.492396 -1.88578 0
M  V30 10543 H 1026.98 0.449701 -3.08843 0
M  V30 10544 N 1027.28 1.57312 -0.0952337 0
M  V30 10545 C 1028.21 2.11059 0.893678 0
M  V30 10546 C 1029.22 1.04787 1.24594 0
M  V30 10547 O 1030.41 1.32233 1.19903 0
M  V30 10548 C 1027.51 2.57552 2.20272 0
M  V30 10549 C 1026.69 3.87661 2.02578 0
M  V30 10550 C 1025.75 4.2 3.16996 0
M  V30 10551 O 1024.77 4.89219 2.90953 0
M  V30 10552 N 1025.97 3.75414 4.42769 0
M  V30 10553 H 1028.74 2.96532 0.434632 0
M  V30 10554 H 1026.3 1.6165 0.0898661 0
M  V30 10555 H 1028.29 2.76232 2.95766 0
M  V30 10556 H 1026.86 1.7709 2.576 0
M  V30 10557 H 1026.08 3.78128 1.11413 0
M  V30 10558 H 1027.37 4.7278 1.88032 0
M  V30 10559 H 1026.77 3.1954 4.66809 0
M  V30 10560 H 1025.32 3.99249 5.15212 0
M  V30 10561 N 1028.76 -0.17846 1.56586 0
M  V30 10562 C 1030 -0.897562 1.81856 0
M  V30 10563 C 1030.34 -1.82204 0.671955 0
M  V30 10564 O 1029.61 -1.91739 -0.326535 0
M  V30 10565 C 1029.89 -1.69942 3.17477 0
M  V30 10566 C 1029.75 -0.798545 4.42655 0
M  V30 10567 C 1031.07 -2.66861 3.49962 0
M  V30 10568 H 1028.19 -0.324863 0.661539 0
M  V30 10569 H 1030.83 -0.164106 1.8929 0
M  V30 10570 H 1028.98 -2.32471 3.11271 0
M  V30 10571 H 1030.65 -0.18668 4.60922 0
M  V30 10572 H 1028.89 -0.106181 4.3367 0
M  V30 10573 H 1029.56 -1.39496 5.34083 0
M  V30 10574 H 1032.04 -2.1446 3.56576 0
M  V30 10575 H 1030.92 -3.20037 4.45946 0
M  V30 10576 H 1031.18 -3.46715 2.74301 0
M  V30 10577 N 1030.24 -1.51135 -0.446768 0
M  V30 10578 C 1031.48 -1.63578 -1.19875 0
M  V30 10579 C 1031.81 -0.346478 -1.91084 0
M  V30 10580 O 1031.09 0.653447 -1.83195 0
M  V30 10581 C 1031.37 -2.83275 -2.22323 0
M  V30 10582 C 1031.23 -4.22155 -1.55259 0
M  V30 10583 C 1032.54 -2.98496 -3.23401 0
M  V30 10584 H 1029.66 -0.595333 -0.434452 0
M  V30 10585 H 1032.31 -1.83593 -0.48923 0
M  V30 10586 H 1030.46 -2.6634 -2.82834 0
M  V30 10587 H 1032.13 -4.50736 -0.981571 0
M  V30 10588 H 1030.37 -4.25288 -0.855122 0
M  V30 10589 H 1031.04 -5.01882 -2.29823 0
M  V30 10590 H 1033.52 -3.14079 -2.72935 0
M  V30 10591 H 1032.39 -3.83828 -3.92386 0
M  V30 10592 H 1032.65 -2.10157 -3.88956 0
M  V30 10593 N 1031.71 0.701592 -1.41122 0
M  V30 10594 C 1032.94 1.49049 -1.43499 0
M  V30 10595 C 1033.36 1.88761 -0.0385684 0
M  V30 10596 O 1032.71 1.56384 0.940755 0
M  V30 10597 C 1032.76 2.7569 -2.33832 0
M  V30 10598 O 1032.49 2.37653 -3.68039 0
M  V30 10599 C 1033.99 3.69479 -2.44949 0
M  V30 10600 H 1031.21 0.459519 -0.488961 0
M  V30 10601 H 1033.75 0.864318 -1.85337 0
M  V30 10602 H 1031.91 3.34559 -1.95318 0
M  V30 10603 H 1032.32 3.19241 -4.16156 0
M  V30 10604 H 1033.79 4.55139 -3.12334 0
M  V30 10605 H 1034.27 4.13553 -1.47887 0
M  V30 10606 H 1034.88 3.16517 -2.84072 0
M  V30 10607 N 1033.19 1.2685 0.935242 0
M  V30 10608 C 1034.14 1.08746 2.05614 0
M  V30 10609 C 1035.13 0.012681 1.69395 0
M  V30 10610 O 1036.34 0.169822 1.79197 0
M  V30 10611 H 1032.71 0.33485 0.673335 0
M  V30 10612 H 1034.69 2.03725 2.18033 0
M  V30 10613 C 1033.43 0.74346 3.39659 0
M  V30 10614 H 1032.76 1.56236 3.68008 0
M  V30 10615 H 1034.2 0.656607 4.18885 0
M  V30 10616 C 1032.66 -0.551751 3.32351 0
M  V30 10617 O 1033.19 -1.58836 3.68963 0
M  V30 10618 N 1031.39 -0.544583 2.85452 0
M  V30 10619 H 1030.94 0.29939 2.55854 0
M  V30 10620 H 1030.9 -1.41129 2.80945 0
M  V30 10621 N 1034.67 -1.14067 1.0875 0
M  V30 10622 C 1036.09 -1.37173 0.815823 0
M  V30 10623 C 1036.29 -1.93175 -0.573215 0
M  V30 10624 O 1035.34 -2.14672 -1.32937 0
M  V30 10625 C 1036.66 -2.32955 1.90138 0
M  V30 10626 C 1038.2 -2.46586 1.9278 0
M  V30 10627 C 1038.68 -3.4567 3.0046 0
M  V30 10628 N 1040.17 -3.53216 2.99655 0
M  V30 10629 C 1040.9 -4.29743 3.79616 0
M  V30 10630 N 1040.4 -5.09484 4.69466 0
M  V30 10631 N 1042.19 -4.24975 3.67903 0
M  V30 10632 H 1034.34 -0.760648 1.98313 0
M  V30 10633 H 1036.61 -0.397135 0.860807 0
M  V30 10634 H 1036.31 -1.98949 2.90021 0
M  V30 10635 H 1036.19 -3.32897 1.77368 0
M  V30 10636 H 1038.57 -2.79882 0.935404 0
M  V30 10637 H 1038.66 -1.46593 2.09629 0
M  V30 10638 H 1038.3 -3.13106 3.99909 0
M  V30 10639 H 1038.23 -4.45452 2.80856 0
M  V30 10640 H 1040.72 -2.96314 2.34535 0
M  V30 10641 H 1041.03 -5.65163 5.27077 0
M  V30 10642 H 1039.38 -5.08741 4.73506 0
M  V30 10643 H 1042.57 -3.61751 2.97075 0
M  V30 10644 H 1042.74 -4.84364 4.30459 0
M  V30 10645 N 1036.15 -0.873678 -1.31166 0
M  V30 10646 C 1037.39 -0.496513 -1.97247 0
M  V30 10647 C 1037.75 0.941605 -1.67784 0
M  V30 10648 O 1037.04 1.65469 -0.965947 0
M  V30 10649 C 1037.24 -0.69462 -3.50585 0
M  V30 10650 C 1037.07 -2.15044 -3.94951 0
M  V30 10651 C 1035.84 -2.79278 -4.21108 0
M  V30 10652 C 1038.03 -3.1231 -4.08616 0
M  V30 10653 N 1036.02 -4.15574 -4.51853 0
M  V30 10654 C 1037.39 -4.33646 -4.43115 0
M  V30 10655 C 1039.44 -3.08251 -3.91006 0
M  V30 10656 C 1038.14 -5.51447 -4.61842 0
M  V30 10657 C 1040.17 -4.25314 -4.10929 0
M  V30 10658 C 1039.53 -5.45413 -4.45763 0
M  V30 10659 H 1035.63 -0.230797 -0.747166 0
M  V30 10660 H 1038.22 -1.12905 -1.58621 0
M  V30 10661 H 1036.39 -0.0916484 -3.88292 0
M  V30 10662 H 1038.12 -0.285475 -4.03692 0
M  V30 10663 H 1034.87 -2.30207 -4.13886 0
M  V30 10664 H 1035.3 -4.85932 -4.7138 0
M  V30 10665 H 1039.94 -2.16505 -3.6316 0
M  V30 10666 H 1037.66 -6.43707 -4.88535 0
M  V30 10667 H 1041.24 -4.2363 -3.98785 0
M  V30 10668 H 1040.12 -6.34487 -4.60865 0
M  V30 10669 N 1037.63 1.44308 -0.633487 0
M  V30 10670 C 1038.87 2.01624 -0.138643 0
M  V30 10671 C 1039.2 1.50101 1.24477 0
M  V30 10672 O 1038.47 0.705575 1.82752 0
M  V30 10673 H 1037.05 0.745439 -0.0482636 0
M  V30 10674 H 1039.71 1.76777 -0.820719 0
M  V30 10675 H 1038.8 3.11913 -0.108136 0
M  V30 10676 N 1039.1 0.374177 1.53094 0
M  V30 10677 C 1040.33 -0.213325 2.05797 0
M  V30 10678 C 1040.75 -1.41753 1.24706 0
M  V30 10679 O 1040.1 -1.80183 0.289868 0
M  V30 10680 C 1040.16 -0.598367 3.56513 0
M  V30 10681 O 1039.88 0.557983 4.34532 0
M  V30 10682 C 1041.38 -1.24334 4.25507 0
M  V30 10683 H 1038.6 -0.0357398 0.670048 0
M  V30 10684 H 1041.14 0.535035 1.97377 0
M  V30 10685 H 1039.3 -1.29663 3.65056 0
M  V30 10686 H 1039.71 0.244911 5.23928 0
M  V30 10687 H 1041.18 -1.46325 5.32253 0
M  V30 10688 H 1041.66 -2.20622 3.79766 0
M  V30 10689 H 1042.27 -0.586269 4.2124 0
M  V30 10690 N 1040.58 -1.57259 0.103575 0
M  V30 10691 C 1041.83 -1.94272 -0.557024 0
M  V30 10692 C 1042.15 -0.986739 -1.68192 0
M  V30 10693 O 1041.42 -0.0402818 -1.95859 0
M  V30 10694 H 1040 -0.717237 -0.208757 0
M  V30 10695 H 1042.66 -1.94167 0.168898 0
M  V30 10696 H 1041.76 -2.96914 -0.961691 0
M  V30 10697 N 1042.06 0.170153 -1.56679 0
M  V30 10698 C 1043.31 0.887906 -1.8233 0
M  V30 10699 C 1043.64 1.81845 -0.681608 0
M  V30 10700 O 1042.91 1.9191 0.316362 0
M  V30 10701 C 1043.2 1.68256 -3.18374 0
M  V30 10702 C 1043.05 0.775059 -4.43072 0
M  V30 10703 C 1044.37 2.65001 -3.51372 0
M  V30 10704 H 1041.49 0.32135 -0.663252 0
M  V30 10705 H 1044.13 0.154065 -1.89374 0
M  V30 10706 H 1042.28 2.30817 -3.12499 0
M  V30 10707 H 1043.95 0.162234 -4.61015 0
M  V30 10708 H 1042.2 0.0831809 -4.3372 0
M  V30 10709 H 1042.87 1.36661 -5.34816 0
M  V30 10710 H 1045.34 2.12566 -3.57708 0
M  V30 10711 H 1044.22 3.17667 -4.47637 0
M  V30 10712 H 1044.48 3.45255 -2.76136 0
M  V30 10713 N 1043.54 1.5137 0.438746 0
M  V30 10714 C 1044.78 1.64211 1.19006 0
M  V30 10715 C 1045.12 0.356607 1.90898 0
M  V30 10716 O 1044.39 -0.643722 1.83539 0
M  V30 10717 C 1044.68 2.8445 2.20817 0
M  V30 10718 C 1044.53 4.22972 1.53018 0
M  V30 10719 C 1045.85 3.00207 3.21813 0
M  V30 10720 H 1042.97 0.597628 0.431288 0
M  V30 10721 H 1045.61 1.8385 0.479487 0
M  V30 10722 H 1043.76 2.67836 2.81418 0
M  V30 10723 H 1045.43 4.5125 0.957654 0
M  V30 10724 H 1043.67 4.25736 0.832556 0
M  V30 10725 H 1044.34 5.03094 2.27158 0
M  V30 10726 H 1046.82 3.15522 2.71266 0
M  V30 10727 H 1045.7 3.85904 3.90345 0
M  V30 10728 H 1045.96 2.12216 3.87836 0
M  V30 10729 N 1045.02 -0.694098 1.41492 0
M  V30 10730 C 1046.24 -1.48286 1.44288 0
M  V30 10731 C 1046.66 -1.88737 0.0485783 0
M  V30 10732 O 1046.02 -1.56881 -0.932449 0
M  V30 10733 C 1046.07 -2.74446 2.3529 0
M  V30 10734 O 1045.79 -2.35698 3.69294 0
M  V30 10735 C 1047.29 -3.68175 2.46905 0
M  V30 10736 H 1044.51 -0.45692 0.491391 0
M  V30 10737 H 1047.05 -0.854477 1.85793 0
M  V30 10738 H 1045.21 -3.33518 1.9709 0
M  V30 10739 H 1045.62 -3.17029 4.17843 0
M  V30 10740 H 1047.1 -4.53476 3.14743 0
M  V30 10741 H 1047.57 -4.12763 1.50078 0
M  V30 10742 H 1048.18 -3.15006 2.85747 0
M  V30 10743 N 1046.49 -1.27344 -0.928501 0
M  V30 10744 C 1047.77 -1.04362 -1.65433 0
M  V30 10745 C 1048.15 0.421896 -2.06841 0
M  V30 10746 O 1047.5 1.40496 -1.80203 0
M  V30 10747 C 1047.71 -2.00442 -2.85699 0
M  V30 10748 C 1049.06 -2.29767 -3.57061 0
M  V30 10749 O 1050.08 -1.98409 -2.95825 0
M  V30 10750 O 1048.94 -2.83217 -4.67387 0
M  V30 10751 H 1046.03 -0.397783 -0.72505 0
M  V30 10752 H 1048.58 -1.38606 -0.979109 0
M  V30 10753 H 1047.35 -2.99281 -2.52085 0
M  V30 10754 H 1046.98 -1.66755 -3.60941 0
M  V30 10755 N 1047.97 1.13488 -1.09353 0
M  V30 10756 C 1049.22 1.841 -0.82401 0
M  V30 10757 C 1049.53 1.84393 0.652586 0
M  V30 10758 O 1050.74 2.5089 1.03762 0
M  V30 10759 C 1049.2 3.30523 -1.42418 0
M  V30 10760 C 1048.8 3.38621 -2.93326 0
M  V30 10761 C 1050.55 4.06182 -1.23356 0
M  V30 10762 C 1048.46 4.79311 -3.46432 0
M  V30 10763 H 1047.39 0.68974 -0.304589 0
M  V30 10764 H 1050.04 1.27866 -1.31615 0
M  V30 10765 H 1048.42 3.86555 -0.859727 0
M  V30 10766 H 1049.59 2.92587 -3.5599 0
M  V30 10767 H 1047.91 2.76426 -3.11412 0
M  V30 10768 H 1050.5 5.10047 -1.60488 0
M  V30 10769 H 1050.85 4.15936 -0.174152 0
M  V30 10770 H 1051.38 3.56477 -1.76547 0
M  V30 10771 H 1048.12 4.74748 -4.5199 0
M  V30 10772 H 1047.64 5.25842 -2.8853 0
M  V30 10773 H 1049.32 5.48227 -3.43593 0
M  V30 10774 N 1049.45 0.880621 1.30701 0
M  V30 10775 C 1050.68 0.510909 2.01009 0
M  V30 10776 C 1051.1 -0.892041 1.65603 0
M  V30 10777 O 1050.46 -1.59045 0.870309 0
M  V30 10778 C 1050.51 0.687759 3.53981 0
M  V30 10779 O 1049.61 -0.268275 4.11526 0
M  V30 10780 H 1048.95 0.201864 0.632572 0
M  V30 10781 H 1051.48 1.18697 1.6665 0
M  V30 10782 H 1051.49 0.585095 4.03783 0
M  V30 10783 H 1050.17 1.71068 3.79089 0
M  V30 10784 H 1048.74 -0.119673 3.72708 0
M  V30 10785 N 1050.93 -1.4397 0.641131 0
M  V30 10786 C 1052.15 -2.06818 0.155318 0
M  V30 10787 C 1052.58 -1.47665 -1.16519 0
M  V30 10788 O 1051.94 -0.58192 -1.71707 0
M  V30 10789 C 1051.99 -3.60542 0.0647537 0
M  V30 10790 O 1051.09 -4.00674 -0.976447 0
M  V30 10791 H 1050.43 -0.657962 0.0893404 0
M  V30 10792 H 1052.96 -1.84678 0.88064 0
M  V30 10793 H 1052.97 -4.07816 -0.122552 0
M  V30 10794 H 1051.65 -4.02975 1.02878 0
M  V30 10795 H 1050.22 -3.65013 -0.762905 0
M  V30 10796 N 1052.41 -0.382291 -1.52893 0
M  V30 10797 C 1053.64 0.202114 -2.05609 0
M  V30 10798 C 1054.05 1.4164 -1.25438 0
M  V30 10799 O 1053.39 1.81359 -0.292324 0
M  V30 10800 C 1053.45 0.64356 -3.53693 0
M  V30 10801 C 1053.11 -0.456305 -4.54716 0
M  V30 10802 C 1054.11 -1.3115 -5.03086 0
M  V30 10803 C 1051.8 -0.621329 -4.98442 0
M  V30 10804 C 1053.79 -2.3169 -5.938 0
M  V30 10805 C 1051.48 -1.63008 -5.88958 0
M  V30 10806 C 1052.48 -2.47629 -6.36529 0
M  V30 10807 O 1052.16 -3.46781 -7.25257 0
M  V30 10808 H 1051.9 0.0358014 -0.675051 0
M  V30 10809 H 1054.45 -0.543935 -1.98067 0
M  V30 10810 H 1052.68 1.44148 -3.58829 0
M  V30 10811 H 1054.37 1.15284 -3.89184 0
M  V30 10812 H 1055.13 -1.19528 -4.70041 0
M  V30 10813 H 1051.01 0.027593 -4.60992 0
M  V30 10814 H 1054.56 -2.97776 -6.30853 0
M  V30 10815 H 1050.45 -1.74671 -6.21418 0
M  V30 10816 H 1051.22 -3.42707 -7.433 0
M  V30 10817 N 1053.89 1.57202 -0.111913 0
M  V30 10818 C 1055.12 1.99008 0.554907 0
M  V30 10819 C 1055.52 0.990323 1.61212 0
M  V30 10820 O 1054.87 -0.0259612 1.83682 0
M  V30 10821 C 1054.93 3.37218 1.24598 0
M  V30 10822 C 1054.59 4.55752 0.337549 0
M  V30 10823 C 1055.59 5.18192 -0.421026 0
M  V30 10824 C 1053.27 5.01674 0.25069 0
M  V30 10825 C 1055.27 6.24938 -1.25426 0
M  V30 10826 C 1052.96 6.08282 -0.586186 0
M  V30 10827 C 1053.95 6.6978 -1.3373 0
M  V30 10828 O 1053.64 7.7433 -2.16029 0
M  V30 10829 H 1053.37 0.658669 0.152091 0
M  V30 10830 H 1055.93 2.04492 -0.192937 0
M  V30 10831 H 1054.16 3.28467 2.04074 0
M  V30 10832 H 1055.85 3.63359 1.809 0
M  V30 10833 H 1056.61 4.83634 -0.363752 0
M  V30 10834 H 1052.49 4.53558 0.825005 0
M  V30 10835 H 1056.04 6.72869 -1.84102 0
M  V30 10836 H 1051.93 6.42271 -0.64488 0
M  V30 10837 H 1052.7 7.91395 -2.08894 0
M  V30 10838 N 1055.36 -0.161842 1.56767 0
M  V30 10839 C 1056.78 -0.51396 1.51098 0
M  V30 10840 C 1056.98 -1.84158 0.817815 0
M  V30 10841 O 1056.04 -2.49592 0.382133 0
M  V30 10842 C 1057.35 -0.537966 2.95849 0
M  V30 10843 C 1058.9 -0.624512 3.06706 0
M  V30 10844 C 1059.37 -0.679322 4.52934 0
M  V30 10845 N 1060.86 -0.741953 4.57219 0
M  V30 10846 C 1061.6 -0.805096 5.6772 0
M  V30 10847 N 1061.09 -0.828492 6.87828 0
M  V30 10848 N 1062.89 -0.844843 5.55715 0
M  V30 10849 H 1055.04 0.708581 2.00232 0
M  V30 10850 H 1057.3 0.25663 0.912603 0
M  V30 10851 H 1057.01 0.369052 3.49758 0
M  V30 10852 H 1056.88 -1.38113 3.51005 0
M  V30 10853 H 1059.27 -1.52195 2.52825 0
M  V30 10854 H 1059.35 0.245515 2.54619 0
M  V30 10855 H 1058.99 0.213901 5.07449 0
M  V30 10856 H 1058.92 -1.56563 5.02788 0
M  V30 10857 H 1061.41 -0.731772 3.70747 0
M  V30 10858 H 1061.73 -0.878109 7.67795 0
M  V30 10859 H 1060.07 -0.796612 6.9042 0
M  V30 10860 H 1063.26 -0.823632 4.60797 0
M  V30 10861 H 1063.44 -0.890588 6.41851 0
M  V30 10862 N 1056.84 -1.516 -0.430713 0
M  V30 10863 C 1057.79 -1.73975 -1.54387 0
M  V30 10864 C 1058.78 -0.606222 -1.58181 0
M  V30 10865 O 1059.99 -0.787764 -1.61846 0
M  V30 10866 H 1056.36 -0.549811 -0.513041 0
M  V30 10867 H 1058.34 -2.67274 -1.32692 0
M  V30 10868 C 1057.08 -1.88794 -2.9198 0
M  V30 10869 H 1056.41 -2.75425 -2.89795 0
M  V30 10870 H 1057.85 -2.08458 -3.69217 0
M  V30 10871 C 1056.31 -0.649427 -3.30581 0
M  V30 10872 O 1056.84 0.192823 -4.01237 0
M  V30 10873 N 1055.04 -0.491586 -2.86412 0
M  V30 10874 H 1054.59 -1.17806 -2.29084 0
M  V30 10875 H 1054.55 0.33583 -3.12601 0
M  V30 10876 N 1058.32 0.686584 -1.41858 0
M  V30 10877 C 1059.55 1.47519 -1.45072 0
M  V30 10878 C 1059.96 1.88709 -0.0585868 0
M  V30 10879 O 1059.32 1.57373 0.924116 0
M  V30 10880 C 1059.37 2.73195 -2.36742 0
M  V30 10881 O 1059.09 2.33736 -3.70539 0
M  V30 10882 C 1060.59 3.66861 -2.48854 0
M  V30 10883 H 1057.81 0.454307 -0.493808 0
M  V30 10884 H 1060.36 0.844612 -1.86243 0
M  V30 10885 H 1058.51 3.32468 -1.98856 0
M  V30 10886 H 1058.93 3.14809 -4.19518 0
M  V30 10887 H 1060.4 4.51801 -3.17143 0
M  V30 10888 H 1060.88 4.11961 -1.52265 0
M  V30 10889 H 1061.48 3.13486 -2.87414 0
M  V30 10890 N 1059.8 1.27835 0.921735 0
M  V30 10891 C 1061.03 1.17352 1.704 0
M  V30 10892 C 1061.44 -0.268892 1.86875 0
M  V30 10893 O 1060.8 -1.18253 1.39005 0
M  V30 10894 C 1060.85 1.85889 3.10045 0
M  V30 10895 O 1060.57 3.24495 2.94338 0
M  V30 10896 C 1062.07 1.81607 4.04393 0
M  V30 10897 H 1059.29 0.40773 0.532914 0
M  V30 10898 H 1061.83 1.68815 1.15419 0
M  V30 10899 H 1059.99 1.38316 3.61867 0
M  V30 10900 H 1060.4 3.58705 3.82663 0
M  V30 10901 H 1061.88 2.34165 4.99871 0
M  V30 10902 H 1062.35 0.786697 4.32097 0
M  V30 10903 H 1062.96 2.28822 3.58498 0
M  V30 10904 N 1061.28 -1.12907 1.09954 0
M  V30 10905 C 1062.5 -1.88679 0.861099 0
M  V30 10906 C 1062.93 -1.78853 -0.582499 0
M  V30 10907 O 1062.28 -1.13992 -1.4098 0
M  V30 10908 C 1062.33 -3.36047 1.30785 0
M  V30 10909 O 1061.44 -4.09716 0.469728 0
M  V30 10910 H 1060.78 -0.586447 0.31141 0
M  V30 10911 H 1063.31 -1.42818 1.46507 0
M  V30 10912 H 1063.32 -3.86882 1.29562 0
M  V30 10913 H 1061.99 -3.42516 2.35914 0
M  V30 10914 H 1060.57 -3.6887 0.54674 0
M  V30 10915 N 1062.75 -0.88754 -1.30232 0
M  V30 10916 C 1064 -0.508031 -1.96334 0
M  V30 10917 C 1064.33 0.940905 -1.69884 0
M  V30 10918 O 1063.61 1.66523 -1.005 0
M  V30 10919 C 1063.89 -0.786566 -3.51405 0
M  V30 10920 C 1063.74 -2.28632 -3.8736 0
M  V30 10921 C 1065.06 -0.264803 -4.39303 0
M  V30 10922 H 1062.18 -0.186051 -0.71313 0
M  V30 10923 H 1064.82 -1.112 -1.5406 0
M  V30 10924 H 1062.97 -0.272523 -3.87543 0
M  V30 10925 H 1064.65 -2.86896 -3.61231 0
M  V30 10926 H 1062.89 -2.75194 -3.35337 0
M  V30 10927 H 1063.56 -2.43181 -4.95547 0
M  V30 10928 H 1066.04 -0.704809 -4.10087 0
M  V30 10929 H 1064.91 -0.488998 -5.46717 0
M  V30 10930 H 1065.17 0.834055 -4.34161 0
M  V30 10931 N 1064.23 1.43628 -0.648757 0
M  V30 10932 C 1065.51 1.95391 -0.0904551 0
M  V30 10933 C 1065.89 1.59021 1.38837 0
M  V30 10934 O 1065.24 0.873078 2.11163 0
M  V30 10935 C 1065.45 3.47418 -0.33196 0
M  V30 10936 C 1066.8 4.23952 -0.234521 0
M  V30 10937 O 1067.82 3.55218 -0.264276 0
M  V30 10938 O 1066.68 5.46282 -0.154428 0
M  V30 10939 H 1063.77 0.82691 0.0121884 0
M  V30 10940 H 1066.32 1.5359 -0.721685 0
M  V30 10941 H 1065.09 3.67001 -1.35741 0
M  V30 10942 H 1064.71 3.96207 0.332556 0
M  V30 10943 N 1065.71 0.390394 1.52688 0
M  V30 10944 C 1066.64 -0.43567 2.294 0
M  V30 10945 C 1067.62 -1.06253 1.32832 0
M  V30 10946 O 1068.81 -1.07509 1.61726 0
M  V30 10947 C 1065.94 -1.56259 3.10162 0
M  V30 10948 C 1064.89 -1.06172 4.14622 0
M  V30 10949 C 1064.22 -2.2808 4.83615 0
M  V30 10950 C 1065.52 -0.128902 5.22141 0
M  V30 10951 H 1067.21 0.204384 2.98702 0
M  V30 10952 H 1064.76 0.0997377 1.43654 0
M  V30 10953 H 1066.71 -2.14732 3.62585 0
M  V30 10954 H 1065.43 -2.23025 2.38595 0
M  V30 10955 H 1064.09 -0.499518 3.63181 0
M  V30 10956 H 1063.74 -2.93358 4.08595 0
M  V30 10957 H 1063.44 -1.95227 5.5422 0
M  V30 10958 H 1064.96 -2.87193 5.38844 0
M  V30 10959 H 1066.38 -0.621849 5.69917 0
M  V30 10960 H 1064.78 0.109919 5.99999 0
M  V30 10961 H 1065.85 0.821884 4.77884 0
M  V30 10962 N 1067.19 -1.57141 0.120249 0
M  V30 10963 C 1068.14 -2.15379 -0.829497 0
M  V30 10964 C 1069.11 -1.07913 -1.2627 0
M  V30 10965 O 1070.29 -1.35827 -1.33999 0
M  V30 10966 C 1067.43 -2.75847 -2.0737 0
M  V30 10967 C 1066.54 -3.97624 -1.68875 0
M  V30 10968 C 1065.68 -4.46175 -2.88272 0
M  V30 10969 C 1064.72 -5.60481 -2.46023 0
M  V30 10970 N 1063.85 -6.0377 -3.58337 0
M  V30 10971 H 1068.69 -2.96211 -0.326031 0
M  V30 10972 H 1066.23 -1.46341 -0.149235 0
M  V30 10973 H 1068.19 -3.09037 -2.80272 0
M  V30 10974 H 1066.82 -1.97703 -2.55174 0
M  V30 10975 H 1065.87 -3.70588 -0.858431 0
M  V30 10976 H 1067.18 -4.80512 -1.33827 0
M  V30 10977 H 1066.34 -4.8128 -3.69397 0
M  V30 10978 H 1065.08 -3.6224 -3.26548 0
M  V30 10979 H 1064.08 -5.24979 -1.63331 0
M  V30 10980 H 1065.31 -6.46184 -2.08863 0
M  V30 10981 H 1063.25 -5.22776 -3.96284 0
M  V30 10982 H 1063.17 -6.81517 -3.27217 0
M  V30 10983 H 1064.44 -6.43514 -4.39898 0
M  V30 10984 N 1068.67 0.153526 -1.5685 0
M  V30 10985 C 1070.08 0.505939 -1.51368 0
M  V30 10986 C 1070.28 1.83721 -0.82757 0
M  V30 10987 O 1069.34 2.49385 -0.395364 0
M  V30 10988 C 1070.65 0.522269 -2.9613 0
M  V30 10989 C 1072.2 0.608238 -3.07033 0
M  V30 10990 C 1072.67 0.655292 -4.53288 0
M  V30 10991 N 1074.17 0.717695 -4.57606 0
M  V30 10992 C 1074.9 0.774977 -5.68139 0
M  V30 10993 N 1074.4 0.792003 -6.88258 0
M  V30 10994 N 1076.19 0.81536 -5.56155 0
M  V30 10995 H 1068.34 -0.71919 -1.99853 0
M  V30 10996 H 1070.6 -0.261466 -0.91123 0
M  V30 10997 H 1070.31 -0.387595 -3.49558 0
M  V30 10998 H 1070.18 1.3625 -3.51733 0
M  V30 10999 H 1072.57 1.50852 -2.53629 0
M  V30 11000 H 1072.65 -0.259014 -2.54485 0
M  V30 11001 H 1072.3 -0.240809 -5.07329 0
M  V30 11002 H 1072.23 1.53894 -5.03611 0
M  V30 11003 H 1074.72 0.7121 -3.7113 0
M  V30 11004 H 1075.03 0.837378 -7.6825 0
M  V30 11005 H 1073.37 0.759986 -6.90832 0
M  V30 11006 H 1076.57 0.799183 -4.61227 0
M  V30 11007 H 1076.74 0.856537 -6.42314 0
M  V30 11008 N 1070.14 1.51827 0.422667 0
M  V30 11009 C 1071.07 1.77152 1.52117 0
M  V30 11010 C 1072.06 0.621895 1.58324 0
M  V30 11011 O 1073.24 0.866118 1.73816 0
M  V30 11012 C 1070.37 1.90991 2.90068 0
M  V30 11013 C 1069.32 3.06516 2.98717 0
M  V30 11014 C 1068.65 3.05559 4.38791 0
M  V30 11015 C 1069.95 4.46223 2.71445 0
M  V30 11016 H 1071.64 2.69135 1.31175 0
M  V30 11017 H 1069.19 1.29507 0.629607 0
M  V30 11018 H 1071.14 2.07291 3.6689 0
M  V30 11019 H 1069.87 0.956688 3.12274 0
M  V30 11020 H 1068.53 2.89945 2.24338 0
M  V30 11021 H 1068.17 2.07985 4.57986 0
M  V30 11022 H 1067.87 3.83144 4.45505 0
M  V30 11023 H 1069.4 3.23971 5.17566 0
M  V30 11024 H 1070.81 4.63069 3.37994 0
M  V30 11025 H 1069.21 5.25623 2.89552 0
M  V30 11026 H 1070.28 4.5525 1.6696 0
M  V30 11027 N 1071.62 -0.679052 1.4222 0
M  V30 11028 C 1073.03 -1.25953 1.37815 0
M  V30 11029 C 1073.38 -1.96077 0.0693215 0
M  V30 11030 O 1072.51 -1.99765 -0.832047 0
M  V30 11031 C 1073.1 -2.29063 2.49631 0
M  V30 11032 C 1071.66 -2.82647 2.48571 0
M  V30 11033 C 1070.81 -1.56909 2.28637 0
M  V30 11034 H 1073.76 -0.472714 1.51496 0
M  V30 11035 H 1073.78 -3.10708 2.19638 0
M  V30 11036 H 1073.29 -1.77996 3.44876 0
M  V30 11037 H 1071.4 -3.37846 1.57132 0
M  V30 11038 H 1071.51 -3.31952 3.45463 0
M  V30 11039 H 1069.87 -1.83323 1.76819 0
M  V30 11040 H 1070.66 -1.07814 3.25931 0
M  V30 11041 N 1073.1 -1.28322 -0.914942 0
M  V30 11042 C 1074.38 -1.06111 -1.64316 0
M  V30 11043 C 1074.76 0.399934 -2.07277 0
M  V30 11044 O 1074.11 1.38577 -1.81683 0
M  V30 11045 C 1074.32 -2.03461 -2.83557 0
M  V30 11046 C 1075.66 -2.33541 -3.54604 0
M  V30 11047 O 1076.69 -2.01536 -2.93704 0
M  V30 11048 O 1075.55 -2.88158 -4.64357 0
M  V30 11049 H 1072.64 -0.405451 -0.72079 0
M  V30 11050 H 1075.19 -1.39636 -0.964352 0
M  V30 11051 H 1073.96 -3.01938 -2.48896 0
M  V30 11052 H 1073.58 -1.70574 -3.59152 0
M  V30 11053 N 1074.58 1.12322 -1.10551 0
M  V30 11054 C 1075.86 1.80201 -0.760715 0
M  V30 11055 C 1076.24 1.97228 0.752628 0
M  V30 11056 O 1075.58 1.54958 1.67929 0
M  V30 11057 C 1075.79 3.14491 -1.51316 0
M  V30 11058 C 1077.14 3.89671 -1.68647 0
M  V30 11059 O 1078.17 3.24151 -1.47664 0
M  V30 11060 O 1077.02 5.0722 -2.03445 0
M  V30 11061 H 1074.12 0.780084 -0.274587 0
M  V30 11062 H 1076.66 1.19147 -1.20839 0
M  V30 11063 H 1075.44 2.97396 -2.54306 0
M  V30 11064 H 1075.06 3.83253 -1.05842 0
M  V30 11065 N 1076.06 0.894434 1.2976 0
M  V30 11066 C 1077.3 0.518435 1.96061 0
M  V30 11067 C 1077.64 -0.931882 1.70381 0
M  V30 11068 O 1076.91 -1.65988 1.01381 0
M  V30 11069 C 1077.19 0.80519 3.50982 0
M  V30 11070 C 1077.05 2.30683 3.86142 0
M  V30 11071 C 1078.37 0.288096 4.39156 0
M  V30 11072 H 1075.48 0.18983 0.712133 0
M  V30 11073 H 1078.13 1.12016 1.53468 0
M  V30 11074 H 1076.28 0.293071 3.87393 0
M  V30 11075 H 1077.95 2.88808 3.59705 0
M  V30 11076 H 1076.19 2.76968 3.33873 0
M  V30 11077 H 1076.86 2.45805 4.94251 0
M  V30 11078 H 1079.34 0.726547 4.09708 0
M  V30 11079 H 1078.21 0.517985 5.4645 0
M  V30 11080 H 1078.48 -0.811018 4.34597 0
M  V30 11081 N 1077.53 -1.43282 0.656365 0
M  V30 11082 C 1078.44 -2.34576 -0.033864 0
M  V30 11083 C 1079.46 -1.5406 -0.808793 0
M  V30 11084 O 1080.64 -1.867 -0.755322 0
M  V30 11085 C 1077.7 -3.32378 -0.986197 0
M  V30 11086 C 1076.76 -4.28797 -0.207851 0
M  V30 11087 C 1076 -5.21927 -1.11482 0
M  V30 11088 O 1076.22 -5.19554 -2.35414 0
M  V30 11089 O 1075.15 -5.99045 -0.585536 0
M  V30 11090 H 1078.98 -2.95099 0.717668 0
M  V30 11091 H 1076.56 -1.43475 0.416556 0
M  V30 11092 H 1078.45 -3.9251 -1.53341 0
M  V30 11093 H 1077.12 -2.74354 -1.7179 0
M  V30 11094 H 1076.03 -3.72134 0.383022 0
M  V30 11095 H 1077.36 -4.89811 0.48435 0
M  V30 11096 N 1079.01 -0.398486 -1.52479 0
M  V30 11097 C 1079.98 0.420206 -2.25315 0
M  V30 11098 C 1080.98 0.982559 -1.27289 0
M  V30 11099 O 1082.17 0.863113 -1.51314 0
M  V30 11100 C 1079.3 1.59045 -3.01525 0
M  V30 11101 H 1080.49 -0.217599 -2.9911 0
M  V30 11102 H 1078.04 -0.150784 -1.55571 0
M  V30 11103 H 1078.78 2.26542 -2.32054 0
M  V30 11104 H 1078.56 1.19382 -3.73484 0
M  V30 11105 H 1080.05 2.16984 -3.56802 0
M  V30 11106 N 1080.49 1.57075 -0.12858 0
M  V30 11107 C 1081.72 1.99876 0.534544 0
M  V30 11108 C 1082.13 1.00843 1.59612 0
M  V30 11109 O 1081.49 0.00268947 1.825 0
M  V30 11110 C 1081.54 3.42654 1.15198 0
M  V30 11111 O 1081.26 4.37899 0.132823 0
M  V30 11112 C 1082.76 4.00637 1.8975 0
M  V30 11113 H 1079.98 0.656073 0.140744 0
M  V30 11114 H 1082.53 2.03337 -0.217742 0
M  V30 11115 H 1080.68 3.40101 1.85499 0
M  V30 11116 H 1081.1 5.21253 0.582682 0
M  V30 11117 H 1082.57 5.02592 2.28266 0
M  V30 11118 H 1083.05 3.40313 2.7764 0
M  V30 11119 H 1083.65 4.06764 1.2419 0
M  V30 11120 N 1081.97 -0.145205 1.5693 0
M  V30 11121 C 1083.39 -0.497905 1.51635 0
M  V30 11122 C 1083.59 -1.8328 0.837301 0
M  V30 11123 O 1082.64 -2.49172 0.408584 0
M  V30 11124 C 1083.95 -0.506557 2.96403 0
M  V30 11125 C 1085.5 -0.591947 3.07352 0
M  V30 11126 C 1085.98 -0.631244 4.53629 0
M  V30 11127 N 1087.47 -0.693417 4.5798 0
M  V30 11128 C 1088.2 -0.744836 5.68542 0
M  V30 11129 N 1087.7 -0.755492 6.88668 0
M  V30 11130 N 1089.49 -0.785854 5.5658 0
M  V30 11131 H 1081.64 0.729779 1.99469 0
M  V30 11132 H 1083.91 0.266295 0.90983 0
M  V30 11133 H 1083.61 0.406127 3.49347 0
M  V30 11134 H 1083.49 -1.34383 3.5245 0
M  V30 11135 H 1085.87 -1.49505 2.54425 0
M  V30 11136 H 1085.95 0.272507 2.54344 0
M  V30 11137 H 1085.6 0.26771 5.07194 0
M  V30 11138 H 1085.53 -1.51221 5.0442 0
M  V30 11139 H 1088.02 -0.692408 3.71503 0
M  V30 11140 H 1088.33 -0.796624 7.68683 0
M  V30 11141 H 1086.68 -0.723339 6.91226 0
M  V30 11142 H 1089.87 -0.774712 4.61645 0
M  V30 11143 H 1090.04 -0.822461 6.42759 0
M  V30 11144 N 1083.45 -1.52049 -0.414609 0
M  V30 11145 C 1084.67 -1.6997 -1.18848 0
M  V30 11146 C 1085.1 -0.406058 -1.83665 0
M  V30 11147 O 1084.46 0.635981 -1.69779 0
M  V30 11148 C 1084.5 -2.8327 -2.23138 0
M  V30 11149 O 1083.61 -2.48457 -3.29155 0
M  V30 11150 H 1082.95 -0.566003 -0.347183 0
M  V30 11151 H 1085.48 -1.98726 -0.486757 0
M  V30 11152 H 1085.49 -3.08022 -2.67557 0
M  V30 11153 H 1084.16 -3.7713 -1.75344 0
M  V30 11154 H 1082.74 -2.34357 -2.90054 0
M  V30 11155 N 1084.93 0.6715 -1.42579 0
M  V30 11156 C 1086.17 1.43366 -1.43436 0
M  V30 11157 C 1086.5 1.94131 -0.0517339 0
M  V30 11158 O 1085.78 1.71121 0.924548 0
M  V30 11159 C 1086.06 2.62832 -2.46154 0
M  V30 11160 C 1085.92 2.17677 -3.9362 0
M  V30 11161 C 1087.23 3.65049 -2.4582 0
M  V30 11162 H 1084.35 0.519967 -0.522306 0
M  V30 11163 H 1087 0.762849 -1.74013 0
M  V30 11164 H 1085.15 3.20062 -2.2021 0
M  V30 11165 H 1086.82 1.65588 -4.30556 0
M  V30 11166 H 1085.06 1.49219 -4.07328 0
M  V30 11167 H 1085.73 3.03503 -4.61075 0
M  V30 11168 H 1088.21 3.17541 -2.68899 0
M  V30 11169 H 1087.08 4.46213 -3.19664 0
M  V30 11170 H 1087.34 4.16401 -1.48536 0
M  V30 11171 N 1086.4 1.28806 0.908124 0
M  V30 11172 C 1087.65 1.1646 1.66027 0
M  V30 11173 C 1087.98 -0.285025 1.92097 0
M  V30 11174 O 1087.26 -1.20675 1.52538 0
M  V30 11175 C 1087.54 1.96951 3.01467 0
M  V30 11176 C 1087.39 3.50007 2.82515 0
M  V30 11177 C 1088.71 1.78932 4.02084 0
M  V30 11178 H 1085.83 0.424435 0.602515 0
M  V30 11179 H 1088.47 1.58185 1.0525 0
M  V30 11180 H 1086.62 1.61495 3.53344 0
M  V30 11181 H 1088.3 3.95401 2.37605 0
M  V30 11182 H 1086.54 3.75356 2.17463 0
M  V30 11183 H 1087.21 4.01591 3.7872 0
M  V30 11184 H 1089.69 2.09885 3.59287 0
M  V30 11185 H 1088.56 2.37615 4.94803 0
M  V30 11186 H 1088.82 0.742286 4.35824 0
M  V30 11187 N 1087.88 -1.11734 1.11145 0
M  V30 11188 C 1088.79 -2.21267 0.779607 0
M  V30 11189 C 1089.81 -1.72526 -0.225986 0
M  V30 11190 O 1090.98 -2.01302 -0.0629166 0
M  V30 11191 C 1088.05 -3.45973 0.22435 0
M  V30 11192 C 1087.11 -4.09518 1.28816 0
M  V30 11193 C 1086.34 -5.28271 0.7593 0
M  V30 11194 O 1086.57 -5.68912 -0.411725 0
M  V30 11195 O 1085.5 -5.82322 1.52266 0
M  V30 11196 H 1089.33 -2.5206 1.6941 0
M  V30 11197 H 1086.91 -1.20211 0.887115 0
M  V30 11198 H 1088.79 -4.21322 -0.0810921 0
M  V30 11199 H 1087.47 -3.1684 -0.662891 0
M  V30 11200 H 1086.37 -3.35915 1.64657 0
M  V30 11201 H 1087.71 -4.42824 2.14868 0
M  V30 11202 N 1089.36 -0.901303 -1.29284 0
M  V30 11203 C 1090.58 -0.542823 -2.0017 0
M  V30 11204 C 1091.01 0.865583 -1.67001 0
M  V30 11205 O 1090.37 1.5764 -0.895502 0
M  V30 11206 C 1090.42 -0.743987 -3.52842 0
M  V30 11207 O 1089.52 0.202771 -4.11901 0
M  V30 11208 H 1088.86 -0.211903 -0.62928 0
M  V30 11209 H 1091.39 -1.21333 -1.64741 0
M  V30 11210 H 1091.4 -0.64926 -4.02801 0
M  V30 11211 H 1090.08 -1.77077 -3.7632 0
M  V30 11212 H 1088.65 0.0603637 -3.72851 0
M  V30 11213 N 1090.84 1.42931 -0.663954 0
M  V30 11214 C 1091.8 2.29197 0.0117626 0
M  V30 11215 C 1092.8 1.42767 0.739875 0
M  V30 11216 O 1093.99 1.64278 0.579509 0
M  V30 11217 C 1091.12 3.2505 1.02738 0
M  V30 11218 H 1092.32 2.90438 -0.747391 0
M  V30 11219 H 1089.87 1.5039 -0.425733 0
M  V30 11220 H 1090.6 2.68726 1.8154 0
M  V30 11221 H 1090.39 3.88785 0.508809 0
M  V30 11222 H 1091.88 3.89771 1.49893 0
M  V30 11223 N 1092.32 0.406567 1.52266 0
M  V30 11224 C 1093.25 -0.411314 2.29849 0
M  V30 11225 C 1094.23 -1.04838 1.33952 0
M  V30 11226 O 1095.41 -1.05788 1.62857 0
M  V30 11227 C 1092.54 -1.52961 3.11802 0
M  V30 11228 C 1091.5 -1.01768 4.15725 0
M  V30 11229 C 1090.82 -2.22938 4.86007 0
M  V30 11230 C 1092.12 -0.073515 5.22248 0
M  V30 11231 H 1093.82 0.236054 2.98468 0
M  V30 11232 H 1091.36 0.114968 1.4354 0
M  V30 11233 H 1093.31 -2.10874 3.64843 0
M  V30 11234 H 1092.04 -2.20482 2.40947 0
M  V30 11235 H 1090.7 -0.46097 3.6369 0
M  V30 11236 H 1090.35 -2.89007 4.11684 0
M  V30 11237 H 1090.05 -1.89338 5.5626 0
M  V30 11238 H 1091.57 -2.81462 5.41859 0
M  V30 11239 H 1092.98 -0.561367 5.70545 0
M  V30 11240 H 1091.38 0.173551 5.99849 0
M  V30 11241 H 1092.45 0.872524 4.76985 0
M  V30 11242 N 1093.79 -1.57004 0.136909 0
M  V30 11243 C 1095.02 -2.00156 -0.523936 0
M  V30 11244 C 1095.44 -1.01688 -1.59075 0
M  V30 11245 O 1094.79 -0.0123678 -1.82496 0
M  V30 11246 C 1094.85 -3.4326 -1.13379 0
M  V30 11247 O 1094.57 -4.37963 -0.109598 0
M  V30 11248 C 1096.07 -4.01637 -1.87623 0
M  V30 11249 H 1093.29 -0.65681 -0.137263 0
M  V30 11250 H 1095.83 -2.03219 0.228522 0
M  V30 11251 H 1093.99 -3.4108 -1.83693 0
M  V30 11252 H 1094.4 -5.21555 -0.55503 0
M  V30 11253 H 1095.87 -5.03795 -2.25597 0
M  V30 11254 H 1096.35 -3.41781 -2.75831 0
M  V30 11255 H 1096.96 -4.07417 -1.22031 0
M  V30 11256 N 1095.27 0.136881 -1.57004 0
M  V30 11257 C 1096.18 1.18793 -2.023 0
M  V30 11258 C 1097.2 1.46412 -0.94018 0
M  V30 11259 O 1098.37 1.57883 -1.2504 0
M  V30 11260 C 1095.44 2.49903 -2.40311 0
M  V30 11261 C 1094.5 2.29841 -3.6259 0
M  V30 11262 C 1093.73 3.54699 -3.98779 0
M  V30 11263 O 1093.96 4.61291 -3.3551 0
M  V30 11264 O 1092.89 3.46761 -4.91976 0
M  V30 11265 H 1096.72 0.833345 -2.92043 0
M  V30 11266 H 1094.3 0.346361 -1.4533 0
M  V30 11267 H 1096.18 3.27183 -2.65574 0
M  V30 11268 H 1094.86 2.84872 -1.5372 0
M  V30 11269 H 1093.77 1.50478 -3.42501 0
M  V30 11270 H 1095.1 1.99784 -4.4983 0
M  V30 11271 N 1096.75 1.52266 0.40654 0
M  V30 11272 C 1098 1.66123 1.15097 0
M  V30 11273 C 1098.32 0.394836 1.90961 0
M  V30 11274 O 1097.59 -0.590349 1.86793 0
M  V30 11275 H 1096.17 0.612317 0.427875 0
M  V30 11276 H 1098.83 1.89318 0.463106 0
M  V30 11277 H 1097.93 2.50351 1.86361 0
M  V30 11278 N 1098.23 -0.663929 1.42933 0
M  V30 11279 C 1099.19 -1.75899 1.46943 0
M  V30 11280 C 1100.19 -1.5682 0.355535 0
M  V30 11281 O 1101.38 -1.62914 0.616833 0
M  V30 11282 C 1098.51 -3.14657 1.31164 0
M  V30 11283 H 1099.71 -1.73727 2.44456 0
M  V30 11284 H 1097.26 -0.874587 1.2954 0
M  V30 11285 H 1097.99 -3.22447 0.346165 0
M  V30 11286 H 1097.78 -3.29909 2.11902 0
M  V30 11287 H 1099.27 -3.9453 1.36878 0
M  V30 11288 N 1099.71 -1.29285 -0.901281 0
M  V30 11289 C 1100.96 -1.16538 -1.64626 0
M  V30 11290 C 1101.27 0.282623 -1.93547 0
M  V30 11291 O 1102.47 0.531396 -2.66249 0
M  V30 11292 C 1100.93 -2.03809 -2.96631 0
M  V30 11293 C 1100.54 -3.53423 -2.75311 0
M  V30 11294 C 1102.28 -1.99782 -3.7455 0
M  V30 11295 C 1100.19 -4.32804 -4.03032 0
M  V30 11296 H 1099.12 -0.432561 -0.617581 0
M  V30 11297 H 1101.77 -1.53912 -0.999159 0
M  V30 11298 H 1100.15 -1.59302 -3.62545 0
M  V30 11299 H 1101.33 -4.05971 -2.18 0
M  V30 11300 H 1099.64 -3.59106 -2.10789 0
M  V30 11301 H 1102.24 -2.5635 -4.69243 0
M  V30 11302 H 1102.58 -0.97743 -4.04663 0
M  V30 11303 H 1103.11 -2.42324 -3.15474 0
M  V30 11304 H 1099.85 -5.35473 -3.78086 0
M  V30 11305 H 1099.37 -3.85025 -4.59909 0
M  V30 11306 H 1101.05 -4.43383 -4.71191 0
M  V30 11307 N 1101.18 1.11143 -1.11736 0
M  V30 11308 C 1102.43 1.82586 -0.866412 0
M  V30 11309 C 1102.75 1.85227 0.609593 0
M  V30 11310 O 1102.02 1.32505 1.44288 0
M  V30 11311 H 1100.6 0.676149 -0.31754 0
M  V30 11312 H 1103.27 1.34516 -1.41037 0
M  V30 11313 H 1102.36 2.8635 -1.24136 0
M  V30 11314 N 1102.66 0.908147 1.28804 0
M  V30 11315 C 1103.89 0.553287 1.99054 0
M  V30 11316 C 1104.3 -0.868455 1.68091 0
M  V30 11317 O 1103.64 -1.58599 0.926939 0
M  V30 11318 C 1103.71 0.675823 3.5309 0
M  V30 11319 C 1103.37 2.06608 4.0763 0
M  V30 11320 C 1104.37 3.03819 4.21889 0
M  V30 11321 C 1102.05 2.37775 4.42457 0
M  V30 11322 C 1104.05 4.30316 4.7022 0
M  V30 11323 C 1101.73 3.64512 4.90484 0
M  V30 11324 C 1102.73 4.60597 5.04321 0
M  V30 11325 O 1102.42 5.85082 5.51302 0
M  V30 11326 H 1102.15 0.210152 0.642504 0
M  V30 11327 H 1104.7 1.22188 1.65104 0
M  V30 11328 H 1102.93 -0.0498253 3.86668 0
M  V30 11329 H 1104.62 0.328884 4.04565 0
M  V30 11330 H 1105.39 2.81057 3.95262 0
M  V30 11331 H 1101.27 1.63742 4.3094 0
M  V30 11332 H 1104.81 5.05318 4.80936 0
M  V30 11333 H 1100.71 3.87101 5.1655 0
M  V30 11334 H 1101.48 5.87791 5.69599 0
M  V30 11335 N 1104.14 -1.42577 0.671525 0
M  V30 11336 C 1105.56 -1.5592 0.340769 0
M  V30 11337 C 1105.76 -1.65179 -1.15405 0
M  V30 11338 O 1104.81 -1.61691 -1.93939 0
M  V30 11339 C 1106.13 -2.81087 1.06821 0
M  V30 11340 C 1107.67 -2.94855 1.05022 0
M  V30 11341 C 1108.15 -4.22878 1.75892 0
M  V30 11342 N 1109.64 -4.29783 1.72744 0
M  V30 11343 C 1110.37 -5.2765 2.24439 0
M  V30 11344 N 1109.87 -6.31689 2.84501 0
M  V30 11345 N 1111.66 -5.19426 2.14832 0
M  V30 11346 H 1103.81 -1.34811 1.64133 0
M  V30 11347 H 1106.08 -0.648704 0.691294 0
M  V30 11348 H 1105.78 -2.80371 2.12332 0
M  V30 11349 H 1105.66 -3.71879 0.631356 0
M  V30 11350 H 1108.04 -2.951 0.00345633 0
M  V30 11351 H 1108.13 -2.05303 1.52592 0
M  V30 11352 H 1107.77 -4.23394 2.80535 0
M  V30 11353 H 1107.7 -5.1136 1.25773 0
M  V30 11354 H 1110.19 -3.55225 1.28932 0
M  V30 11355 H 1110.5 -7.02715 3.21575 0
M  V30 11356 H 1108.85 -6.3226 2.88569 0
M  V30 11357 H 1112.04 -4.37067 1.676 0
M  V30 11358 H 1112.21 -5.95535 2.55426 0
M  V30 11359 N 1105.62 -0.414636 -1.52048 0
M  V30 11360 C 1106.57 0.408141 -2.27163 0
M  V30 11361 C 1107.54 1.03636 -1.29803 0
M  V30 11362 O 1108.72 1.05959 -1.58674 0
M  V30 11363 C 1105.86 1.51588 -3.10024 0
M  V30 11364 C 1104.97 0.908034 -4.22349 0
M  V30 11365 C 1104.11 1.98893 -4.9256 0
M  V30 11366 C 1103.15 1.35831 -5.96839 0
M  V30 11367 N 1102.28 2.37958 -6.60545 0
M  V30 11368 H 1107.12 -0.238822 -2.97041 0
M  V30 11369 H 1104.66 -0.129614 -1.46528 0
M  V30 11370 H 1106.62 2.16916 -3.56375 0
M  V30 11371 H 1105.25 2.13279 -2.42305 0
M  V30 11372 H 1104.3 0.143652 -3.80129 0
M  V30 11373 H 1105.61 0.407426 -4.97133 0
M  V30 11374 H 1104.77 2.71935 -5.42343 0
M  V30 11375 H 1103.51 2.5232 -4.17356 0
M  V30 11376 H 1102.51 0.613246 -5.46369 0
M  V30 11377 H 1103.74 0.831655 -6.73988 0
M  V30 11378 H 1101.68 2.90508 -5.88167 0
M  V30 11379 H 1101.6 1.92725 -7.31022 0
M  V30 11380 H 1102.87 3.10553 -7.14966 0
M  V30 11381 N 1107.1 1.56929 -0.145233 0
M  V30 11382 C 1108.34 1.96068 0.50632 0
M  V30 11383 C 1108.67 1.02999 1.64989 0
M  V30 11384 O 1107.93 0.0588581 1.95611 0
M  V30 11385 C 1108.23 3.41467 1.05522 0
M  V30 11386 C 1107.89 4.5089 0.0302827 0
M  V30 11387 C 1106.55 4.80542 -0.251475 0
M  V30 11388 C 1108.91 5.16917 -0.666783 0
M  V30 11389 C 1106.23 5.7353 -1.23614 0
M  V30 11390 C 1108.59 6.10965 -1.64025 0
M  V30 11391 C 1107.25 6.38998 -1.92973 0
M  V30 11392 H 1106.52 0.717464 0.185276 0
M  V30 11393 H 1109.17 1.90093 -0.23169 0
M  V30 11394 H 1107.47 3.44265 1.87053 0
M  V30 11395 H 1109.17 3.69077 1.5679 0
M  V30 11396 H 1105.76 4.2781 0.260069 0
M  V30 11397 H 1109.94 4.94142 -0.462297 0
M  V30 11398 H 1105.2 5.93543 -1.46687 0
M  V30 11399 H 1109.37 6.61204 -2.18591 0
M  V30 11400 H 1107 7.10855 -2.69423 0
M  V30 11401 N 1108.58 -0.128553 1.57075 0
M  V30 11402 C 1109.8 -0.8564 1.88893 0
M  V30 11403 C 1110.23 -1.73095 0.736196 0
M  V30 11404 O 1109.58 -1.78567 -0.313629 0
M  V30 11405 C 1109.63 -1.67368 3.19406 0
M  V30 11406 O 1108.74 -2.77973 3.04639 0
M  V30 11407 H 1108.08 -0.237424 0.620102 0
M  V30 11408 H 1110.61 -0.113821 2.04283 0
M  V30 11409 H 1110.62 -2.0649 3.51889 0
M  V30 11410 H 1109.29 -1.03161 4.02903 0
M  V30 11411 H 1107.87 -2.42123 2.83603 0
M  V30 11412 N 1110.05 -1.5248 -0.398459 0
M  V30 11413 C 1111.3 -1.67309 -1.1461 0
M  V30 11414 C 1111.63 -0.407095 -1.89885 0
M  V30 11415 O 1110.91 0.594834 -1.85181 0
M  V30 11416 C 1111.19 -2.90204 -2.13198 0
M  V30 11417 C 1111.04 -4.26881 -1.4175 0
M  V30 11418 C 1112.36 -3.08634 -3.13741 0
M  V30 11419 H 1109.48 -0.608853 -0.415292 0
M  V30 11420 H 1112.12 -1.85057 -0.430573 0
M  V30 11421 H 1110.27 -2.75204 -2.74218 0
M  V30 11422 H 1111.95 -4.53631 -0.837676 0
M  V30 11423 H 1110.19 -4.27793 -0.719387 0
M  V30 11424 H 1110.86 -5.08939 -2.1374 0
M  V30 11425 H 1113.34 -3.22603 -2.62805 0
M  V30 11426 H 1112.21 -3.96117 -3.79977 0
M  V30 11427 H 1112.47 -2.22425 -3.82073 0
M  V30 11428 N 1111.53 0.65634 -1.43283 0
M  V30 11429 C 1112.46 1.78101 -1.51004 0
M  V30 11430 C 1113.44 1.66138 -0.36498 0
M  V30 11431 O 1114.63 1.85281 -0.581778 0
M  V30 11432 C 1111.76 3.16511 -1.42961 0
M  V30 11433 C 1110.71 3.43233 -2.55685 0
M  V30 11434 C 1110.04 4.81411 -2.32696 0
M  V30 11435 C 1111.34 3.38288 -3.97943 0
M  V30 11436 H 1113.03 1.71896 -2.45137 0
M  V30 11437 H 1110.58 0.825575 -1.17984 0
M  V30 11438 H 1112.53 3.94941 -1.46968 0
M  V30 11439 H 1111.25 3.23439 -0.45332 0
M  V30 11440 H 1109.91 2.67173 -2.51026 0
M  V30 11441 H 1109.56 4.85011 -1.33317 0
M  V30 11442 H 1109.26 5.00251 -3.08257 0
M  V30 11443 H 1110.79 5.62102 -2.38481 0
M  V30 11444 H 1112.2 4.06659 -4.04106 0
M  V30 11445 H 1110.6 3.68664 -4.73505 0
M  V30 11446 H 1111.67 2.36525 -4.23301 0
M  V30 11447 N 1113.01 1.29761 0.894412 0
M  V30 11448 C 1113.96 1.15341 1.99912 0
M  V30 11449 C 1114.93 0.0453488 1.66038 0
M  V30 11450 O 1116.11 0.213829 1.89598 0
M  V30 11451 C 1113.25 0.841432 3.34685 0
M  V30 11452 C 1112.36 2.03046 3.81309 0
M  V30 11453 C 1111.5 1.65739 5.04682 0
M  V30 11454 C 1110.54 2.81191 5.43689 0
M  V30 11455 N 1109.68 2.44244 6.58247 0
M  V30 11456 H 1114.52 2.09854 2.11578 0
M  V30 11457 H 1112.05 1.04421 1.03608 0
M  V30 11458 H 1114.01 0.641211 4.12243 0
M  V30 11459 H 1112.64 -0.066797 3.22731 0
M  V30 11460 H 1111.69 2.34222 2.9974 0
M  V30 11461 H 1113 2.89538 4.06164 0
M  V30 11462 H 1112.16 1.42036 5.8984 0
M  V30 11463 H 1110.9 0.764019 4.81678 0
M  V30 11464 H 1109.9 3.0557 4.57064 0
M  V30 11465 H 1111.13 3.712 5.68672 0
M  V30 11466 H 1109.07 1.57402 6.36837 0
M  V30 11467 H 1108.99 3.24269 6.82924 0
M  V30 11468 H 1110.26 2.23875 7.46659 0
M  V30 11469 N 1114.49 -1.10549 1.12324 0
M  V30 11470 C 1115.74 -1.82124 0.876083 0
M  V30 11471 C 1116.06 -1.85547 -0.599761 0
M  V30 11472 O 1115.33 -1.33269 -1.43584 0
M  V30 11473 H 1113.91 -0.674455 0.321122 0
M  V30 11474 H 1116.57 -1.33766 1.41748 0
M  V30 11475 H 1115.66 -2.85688 1.25653 0
M  V30 11476 N 1115.97 -0.914965 -1.28321 0
M  V30 11477 C 1116.91 -0.402792 -2.27258 0
M  V30 11478 C 1117.88 0.523412 -1.57638 0
M  V30 11479 O 1119.07 0.445344 -1.8553 0
M  V30 11480 C 1116.21 0.349956 -3.43321 0
M  V30 11481 C 1115.32 -0.608892 -4.27687 0
M  V30 11482 C 1114.46 0.162425 -5.30952 0
M  V30 11483 C 1113.49 -0.789959 -6.06981 0
M  V30 11484 N 1112.63 -0.0520826 -7.02081 0
M  V30 11485 H 1117.47 -1.25153 -2.70446 0
M  V30 11486 H 1115.01 -0.628444 -1.33 0
M  V30 11487 H 1116.97 0.802589 -4.09407 0
M  V30 11488 H 1115.6 1.16303 -3.01121 0
M  V30 11489 H 1114.65 -1.18005 -3.61634 0
M  V30 11490 H 1115.96 -1.33727 -4.8054 0
M  V30 11491 H 1115.11 0.675563 -6.02927 0
M  V30 11492 H 1113.85 0.923851 -4.7887 0
M  V30 11493 H 1112.86 -1.31446 -5.33856 0
M  V30 11494 H 1114.08 -1.55096 -6.61152 0
M  V30 11495 H 1112.03 0.691331 -6.52347 0
M  V30 11496 H 1111.95 -0.720267 -7.52561 0
M  V30 11497 H 1113.21 0.44082 -7.78253 0
M  V30 11498 N 1117.44 1.42219 -0.679077 0
M  V30 11499 C 1118.86 1.55737 -0.349034 0
M  V30 11500 C 1119.06 1.65789 1.14527 0
M  V30 11501 O 1118.12 1.62717 1.93079 0
M  V30 11502 C 1119.43 2.80516 -1.0831 0
M  V30 11503 C 1120.98 2.94294 -1.06584 0
M  V30 11504 C 1121.45 4.2194 -1.78132 0
M  V30 11505 N 1122.94 4.28861 -1.75021 0
M  V30 11506 C 1123.68 5.26453 -2.27234 0
M  V30 11507 N 1123.17 6.30171 -2.87847 0
M  V30 11508 N 1124.97 5.1828 -2.17584 0
M  V30 11509 H 1117.12 1.33939 -1.64846 0
M  V30 11510 H 1119.38 0.645029 -0.694725 0
M  V30 11511 H 1119.09 2.79241 -2.13816 0
M  V30 11512 H 1118.96 3.71539 -0.651069 0
M  V30 11513 H 1121.35 2.95094 -0.0191061 0
M  V30 11514 H 1121.43 2.04491 -1.53679 0
M  V30 11515 H 1121.07 4.21901 -2.82776 0
M  V30 11516 H 1121 5.10685 -1.28483 0
M  V30 11517 H 1123.49 3.54537 -1.30814 0
M  V30 11518 H 1123.81 7.01 -3.25298 0
M  V30 11519 H 1122.15 6.30721 -2.91918 0
M  V30 11520 H 1125.34 4.36172 -1.69916 0
M  V30 11521 H 1125.52 5.94172 -2.58581 0
M  V30 11522 N 1118.92 0.422693 1.51826 0
M  V30 11523 C 1119.85 -0.386913 2.30272 0
M  V30 11524 C 1120.83 -1.03411 1.35056 0
M  V30 11525 O 1122.02 -1.04055 1.6397 0
M  V30 11526 C 1119.15 -1.49645 3.13407 0
M  V30 11527 C 1118.1 -0.973532 4.16781 0
M  V30 11528 C 1117.43 -2.1777 4.88344 0
M  V30 11529 C 1118.73 -0.0181194 5.22297 0
M  V30 11530 H 1120.42 0.267697 2.98201 0
M  V30 11531 H 1117.97 0.130186 1.4341 0
M  V30 11532 H 1119.92 -2.06993 3.67059 0
M  V30 11533 H 1118.64 -2.17914 2.43272 0
M  V30 11534 H 1117.3 -0.42237 3.64159 0
M  V30 11535 H 1116.95 -2.84625 4.14726 0
M  V30 11536 H 1116.65 -1.83427 5.58237 0
M  V30 11537 H 1118.18 -2.75699 5.44814 0
M  V30 11538 H 1119.59 -0.500822 5.71108 0
M  V30 11539 H 1117.99 0.237163 5.99631 0
M  V30 11540 H 1119.06 0.923065 4.76033 0
M  V30 11541 N 1120.4 -1.5685 0.153553 0
M  V30 11542 C 1121.65 -1.96334 -0.495915 0
M  V30 11543 C 1121.97 -1.03873 -1.64441 0
M  V30 11544 O 1121.23 -0.069231 -1.95578 0
M  V30 11545 C 1121.53 -3.42022 -1.0371 0
M  V30 11546 C 1121.19 -4.509 -0.00637049 0
M  V30 11547 C 1119.86 -4.80402 0.276956 0
M  V30 11548 C 1122.21 -5.16556 0.694187 0
M  V30 11549 C 1119.54 -5.72866 1.26653 0
M  V30 11550 C 1121.89 -6.10087 1.67263 0
M  V30 11551 C 1120.55 -6.37965 1.96359 0
M  V30 11552 H 1119.82 -0.718436 -0.181468 0
M  V30 11553 H 1122.47 -1.89968 0.241768 0
M  V30 11554 H 1120.77 -3.45252 -1.85225 0
M  V30 11555 H 1122.47 -3.69903 -1.54831 0
M  V30 11556 H 1119.06 -4.27942 -0.237378 0
M  V30 11557 H 1123.25 -4.9389 0.488496 0
M  V30 11558 H 1118.5 -5.92756 1.49833 0
M  V30 11559 H 1122.68 -6.60036 2.22094 0
M  V30 11560 H 1120.3 -7.09416 2.73189 0
M  V30 11561 N 1121.88 0.120221 -1.57141 0
M  V30 11562 C 1122.84 1.13159 -1.99318 0
M  V30 11563 C 1123.84 1.34376 -0.883158 0
M  V30 11564 O 1125.03 1.30914 -1.14922 0
M  V30 11565 C 1122.16 2.48632 -2.33227 0
M  V30 11566 H 1123.36 0.769119 -2.8987 0
M  V30 11567 H 1120.91 0.364475 -1.51991 0
M  V30 11568 H 1121.64 2.89802 -1.45551 0
M  V30 11569 H 1121.43 2.34587 -3.14184 0
M  V30 11570 H 1122.92 3.21423 -2.66603 0
M  V30 11571 N 1123.36 1.52689 0.390367 0
M  V30 11572 C 1124.61 1.6689 1.13272 0
M  V30 11573 C 1124.92 0.414433 1.91159 0
M  V30 11574 O 1126.12 0.436559 2.67967 0
M  V30 11575 C 1124.58 2.94929 2.06264 0
M  V30 11576 C 1124.19 4.27551 1.33805 0
M  V30 11577 C 1125.93 3.18497 2.80642 0
M  V30 11578 C 1123.84 5.46698 2.25554 0
M  V30 11579 H 1122.77 0.621749 0.426549 0
M  V30 11580 H 1125.42 1.79185 0.395615 0
M  V30 11581 H 1123.8 2.76378 2.83604 0
M  V30 11582 H 1124.98 4.56651 0.616997 0
M  V30 11583 H 1123.29 4.10234 0.713913 0
M  V30 11584 H 1125.89 4.04693 3.49467 0
M  V30 11585 H 1126.23 2.33511 3.44642 0
M  V30 11586 H 1126.76 3.37607 2.10395 0
M  V30 11587 H 1123.5 6.34088 1.66171 0
M  V30 11588 H 1123.02 5.21913 2.95579 0
M  V30 11589 H 1124.7 5.80519 2.85668 0
M  V30 11590 N 1124.83 -0.648732 1.43629 0
M  V30 11591 C 1125.76 -1.77298 1.51947 0
M  V30 11592 C 1126.75 -1.65942 0.373785 0
M  V30 11593 O 1127.93 -1.8497 0.591596 0
M  V30 11594 C 1125.06 -3.15749 1.44638 0
M  V30 11595 C 1124.01 -3.41872 2.57502 0
M  V30 11596 C 1123.34 -4.8017 2.35246 0
M  V30 11597 C 1124.64 -3.36173 3.99731 0
M  V30 11598 H 1126.33 -1.70594 2.46045 0
M  V30 11599 H 1123.88 -0.819306 1.1842 0
M  V30 11600 H 1125.83 -3.94156 1.4906 0
M  V30 11601 H 1124.56 -3.23194 0.470466 0
M  V30 11602 H 1123.22 -2.65838 2.5244 0
M  V30 11603 H 1122.86 -4.84297 1.35887 0
M  V30 11604 H 1122.56 -4.9861 3.10906 0
M  V30 11605 H 1124.09 -5.6083 2.41459 0
M  V30 11606 H 1125.5 -4.0451 4.06257 0
M  V30 11607 H 1123.9 -3.66148 4.75453 0
M  V30 11608 H 1124.97 -2.34277 4.24549 0
M  V30 11609 N 1126.31 -1.30234 -0.887518 0
M  V30 11610 C 1127.73 -1.0851 -1.17037 0
M  V30 11611 C 1127.93 0.155788 -2.00897 0
M  V30 11612 O 1126.98 0.850123 -2.37759 0
M  V30 11613 C 1128.3 -2.34723 -1.87951 0
M  V30 11614 C 1129.85 -2.40163 -2.00726 0
M  V30 11615 C 1130.32 -3.66211 -2.75051 0
M  V30 11616 N 1131.81 -3.67004 -2.82599 0
M  V30 11617 C 1132.55 -4.61224 -3.40676 0
M  V30 11618 N 1132.04 -5.65786 -3.99823 0
M  V30 11619 N 1133.84 -4.48772 -3.38467 0
M  V30 11620 H 1125.99 -2.09847 -0.328297 0
M  V30 11621 H 1128.25 -0.924904 -0.20798 0
M  V30 11622 H 1127.96 -3.25265 -1.33773 0
M  V30 11623 H 1127.83 -2.43175 -2.8835 0
M  V30 11624 H 1130.22 -1.50101 -2.54074 0
M  V30 11625 H 1130.3 -2.35688 -0.994218 0
M  V30 11626 H 1129.94 -4.56631 -2.22376 0
M  V30 11627 H 1129.87 -3.67947 -3.76726 0
M  V30 11628 H 1132.36 -2.91409 -2.40602 0
M  V30 11629 H 1132.68 -6.33783 -4.42197 0
M  V30 11630 H 1131.02 -5.69581 -3.9825 0
M  V30 11631 H 1134.21 -3.6627 -2.91485 0
M  V30 11632 H 1134.38 -5.22382 -3.83433 0
M  V30 11633 N 1127.79 1.09952 -1.12909 0
M  V30 11634 C 1128.72 2.18477 -0.824014 0
M  V30 11635 C 1129.7 1.68744 0.214324 0
M  V30 11636 O 1130.89 1.94057 0.0744281 0
M  V30 11637 C 1128.02 3.46143 -0.283308 0
M  V30 11638 C 1126.97 4.09178 -1.25528 0
M  V30 11639 C 1126.3 5.31604 -0.574574 0
M  V30 11640 C 1127.6 4.52308 -2.6118 0
M  V30 11641 H 1129.29 2.44254 -1.73148 0
M  V30 11642 H 1126.84 1.17394 -0.833952 0
M  V30 11643 H 1128.79 4.21361 -0.057583 0
M  V30 11644 H 1127.51 3.19872 0.659525 0
M  V30 11645 H 1126.17 3.35973 -1.4669 0
M  V30 11646 H 1125.82 5.01611 0.37356 0
M  V30 11647 H 1125.52 5.74732 -1.22299 0
M  V30 11648 H 1127.04 6.0955 -0.358004 0
M  V30 11649 H 1128.46 5.18776 -2.44017 0
M  V30 11650 H 1126.86 5.06302 -3.22147 0
M  V30 11651 H 1127.93 3.64977 -3.19249 0
M  V30 11652 N 1129.27 0.921757 1.27833 0
M  V30 11653 C 1130.23 0.420978 2.25301 0
M  V30 11654 C 1131.23 -0.457158 1.54165 0
M  V30 11655 O 1132.42 -0.259079 1.72263 0
M  V30 11656 C 1129.55 -0.395501 3.38598 0
M  V30 11657 H 1130.75 1.28206 2.71115 0
M  V30 11658 H 1128.3 0.701893 1.39654 0
M  V30 11659 H 1129.03 -1.27565 2.98157 0
M  V30 11660 H 1128.82 0.234029 3.91401 0
M  V30 11661 H 1130.31 -0.736444 4.11055 0
M  V30 11662 N 1130.75 -1.41857 0.686609 0
M  V30 11663 C 1132.02 -1.95082 0.142228 0
M  V30 11664 C 1132.4 -1.62646 -1.34572 0
M  V30 11665 O 1131.75 -0.928757 -2.08773 0
M  V30 11666 C 1131.96 -3.46415 0.423955 0
M  V30 11667 C 1133.31 -4.23181 0.346842 0
M  V30 11668 O 1134.33 -3.54393 0.358363 0
M  V30 11669 O 1133.19 -5.4568 0.299211 0
M  V30 11670 H 1130.29 -0.826943 0.00974 0
M  V30 11671 H 1132.83 -1.51622 0.762153 0
M  V30 11672 H 1131.6 -3.63273 1.45424 0
M  V30 11673 H 1131.23 -3.96949 -0.227391 0
M  V30 11674 N 1132.22 -0.430739 -1.51599 0
M  V30 11675 C 1133.47 0.137657 -2.01631 0
M  V30 11676 C 1133.79 1.43787 -1.31721 0
M  V30 11677 O 1133.06 1.90668 -0.449717 0
M  V30 11678 H 1131.64 0.0538611 -0.745056 0
M  V30 11679 H 1134.31 -0.571935 -1.86319 0
M  V30 11680 H 1133.4 0.318305 -3.10473 0
M  V30 11681 N 1133.7 1.56767 -0.161869 0
M  V30 11682 C 1134.93 2.01401 0.49523 0
M  V30 11683 C 1135.35 1.04133 1.56646 0
M  V30 11684 O 1134.71 0.0193747 1.8129 0
M  V30 11685 C 1134.76 3.44695 1.05913 0
M  V30 11686 O 1133.86 3.50475 2.1735 0
M  V30 11687 H 1133.2 0.65314 0.1196 0
M  V30 11688 H 1135.73 2.02903 -0.26298 0
M  V30 11689 H 1135.74 3.83805 1.3841 0
M  V30 11690 H 1134.42 4.14991 0.274749 0
M  V30 11691 H 1133 3.23218 1.85969 0
M  V30 11692 N 1135.18 -0.111886 1.57202 0
M  V30 11693 C 1136.11 -1.16274 1.97517 0
M  V30 11694 C 1137.13 -1.37259 0.875425 0
M  V30 11695 O 1138.31 -1.36208 1.15367 0
M  V30 11696 C 1135.41 -2.52145 2.26442 0
M  V30 11697 C 1134.59 -2.51666 3.57747 0
M  V30 11698 C 1133.65 -3.69337 3.74802 0
M  V30 11699 O 1132.67 -3.52596 4.46839 0
M  V30 11700 N 1133.87 -4.88177 3.14108 0
M  V30 11701 H 1136.64 -0.819747 2.88271 0
M  V30 11702 H 1134.2 -0.301076 1.59076 0
M  V30 11703 H 1136.19 -3.29437 2.3506 0
M  V30 11704 H 1134.76 -2.78599 1.41779 0
M  V30 11705 H 1133.98 -1.60038 3.60252 0
M  V30 11706 H 1135.27 -2.48408 4.44039 0
M  V30 11707 H 1134.67 -5.04682 2.55564 0
M  V30 11708 H 1133.23 -5.6312 3.28237 0
M  V30 11709 N 1136.66 -1.52894 -0.382264 0
M  V30 11710 C 1138.07 -1.60135 -0.959887 0
M  V30 11711 C 1138.42 -0.458363 -1.90771 0
M  V30 11712 O 1137.55 0.417614 -2.12332 0
M  V30 11713 C 1138.14 -2.90243 -1.74769 0
M  V30 11714 C 1136.7 -2.99874 -2.27491 0
M  V30 11715 C 1135.85 -2.55302 -1.0824 0
M  V30 11716 H 1138.8 -1.57875 -0.161589 0
M  V30 11717 H 1138.82 -2.77108 -2.60751 0
M  V30 11718 H 1138.33 -3.73412 -1.0576 0
M  V30 11719 H 1136.43 -2.21258 -2.99793 0
M  V30 11720 H 1136.54 -4.04643 -2.56516 0
M  V30 11721 H 1134.91 -2.09781 -1.44444 0
M  V30 11722 H 1135.69 -3.40872 -0.407553 0
M  V30 11723 N 1138.14 0.641106 -1.43971 0
M  V30 11724 C 1139.55 1.22254 -1.41106 0
M  V30 11725 C 1139.9 1.95825 -0.121284 0
M  V30 11726 O 1139.02 2.01901 0.77879 0
M  V30 11727 C 1139.62 2.22364 -2.55617 0
M  V30 11728 C 1138.18 2.75957 -2.55978 0
M  V30 11729 C 1137.33 1.50792 -2.32717 0
M  V30 11730 H 1140.28 0.432381 -1.52696 0
M  V30 11731 H 1140.3 3.04775 -2.27799 0
M  V30 11732 H 1139.81 1.68789 -3.49474 0
M  V30 11733 H 1137.91 3.33562 -1.66034 0
M  V30 11734 H 1138.02 3.22676 -3.54142 0
M  V30 11735 H 1136.39 1.7857 -1.81617 0
M  V30 11736 H 1137.17 0.991343 -3.28675 0
M  V30 11737 N 1139.62 1.30703 0.880598 0
M  V30 11738 C 1140.86 1.19778 1.63277 0
M  V30 11739 C 1141.19 -0.246521 1.92931 0
M  V30 11740 O 1140.45 -1.19226 1.55189 0
M  V30 11741 C 1140.74 1.97628 2.97789 0
M  V30 11742 C 1140.41 3.47213 2.87669 0
M  V30 11743 C 1139.07 3.88004 2.84617 0
M  V30 11744 C 1141.42 4.4245 2.75477 0
M  V30 11745 C 1138.75 5.22315 2.67216 0
M  V30 11746 C 1141.1 5.76874 2.59614 0
M  V30 11747 C 1139.77 6.16898 2.54939 0
M  V30 11748 H 1139.04 0.438298 0.597475 0
M  V30 11749 H 1141.69 1.61853 1.02352 0
M  V30 11750 H 1139.99 1.48201 3.6269 0
M  V30 11751 H 1141.69 1.86563 3.54958 0
M  V30 11752 H 1138.28 3.14802 2.90857 0
M  V30 11753 H 1142.46 4.11875 2.76899 0
M  V30 11754 H 1137.72 5.52412 2.62014 0
M  V30 11755 H 1141.89 6.50304 2.49155 0
M  V30 11756 H 1139.52 7.20916 2.41214 0
M  V30 11757 N 1141.09 -1.09351 1.1349 0
M  V30 11758 C 1142.34 -1.81185 0.89535 0
M  V30 11759 C 1142.66 -1.86173 -0.580048 0
M  V30 11760 O 1141.93 -1.34784 -1.42162 0
M  V30 11761 H 1140.51 -0.671011 0.328257 0
M  V30 11762 H 1143.17 -1.32255 1.43159 0
M  V30 11763 H 1142.27 -2.84339 1.28676 0
M  V30 11764 N 1142.57 -0.928524 -1.27343 0
M  V30 11765 C 1143.53 -0.43292 -2.25074 0
M  V30 11766 C 1144.53 0.448976 -1.54405 0
M  V30 11767 O 1145.72 0.249939 -1.72398 0
M  V30 11768 C 1142.86 0.377539 -3.38803 0
M  V30 11769 H 1144.05 -1.29642 -2.70431 0
M  V30 11770 H 1141.6 -0.709289 -1.3928 0
M  V30 11771 H 1142.34 1.25982 -2.98829 0
M  V30 11772 H 1142.12 -0.254782 -3.91271 0
M  V30 11773 H 1143.61 0.714634 -4.1144 0
M  V30 11774 N 1144.05 1.41491 -0.694123 0
M  V30 11775 C 1145.27 2.06099 -0.23197 0
M  V30 11776 C 1145.7 1.51888 1.10958 0
M  V30 11777 O 1145.06 0.645247 1.69429 0
M  V30 11778 C 1145.11 3.60053 -0.198522 0
M  V30 11779 O 1144.21 4.04021 0.827067 0
M  V30 11780 H 1143.55 0.654193 -0.113699 0
M  V30 11781 H 1146.08 1.81282 -0.948575 0
M  V30 11782 H 1146.09 4.0799 -0.0288904 0
M  V30 11783 H 1144.77 3.98879 -1.17764 0
M  V30 11784 H 1143.34 3.67593 0.626908 0
M  V30 11785 N 1145.53 0.438773 1.51369 0
M  V30 11786 C 1146.77 -0.127401 2.02399 0
M  V30 11787 C 1147.11 -1.42235 1.32223 0
M  V30 11788 O 1146.38 -1.89513 0.437607 0
M  V30 11789 C 1146.66 -0.344673 3.58447 0
M  V30 11790 C 1146.52 0.969027 4.39238 0
M  V30 11791 C 1147.84 -1.11381 4.25773 0
M  V30 11792 H 1144.96 -0.0448281 0.735635 0
M  V30 11793 H 1147.6 0.57805 1.80993 0
M  V30 11794 H 1145.75 -0.945582 3.76817 0
M  V30 11795 H 1147.42 1.60403 4.32514 0
M  V30 11796 H 1145.66 1.57329 4.04265 0
M  V30 11797 H 1146.33 0.771029 5.46589 0
M  V30 11798 H 1148.81 -0.604785 4.11681 0
M  V30 11799 H 1147.69 -1.23459 5.34835 0
M  V30 11800 H 1147.95 -2.14225 3.8673 0
M  V30 11801 N 1147.01 -1.56678 0.170181 0
M  V30 11802 C 1148.23 -2.01223 -0.481362 0
M  V30 11803 C 1148.65 -1.05039 -1.56883 0
M  V30 11804 O 1148.01 -0.0510751 -1.82429 0
M  V30 11805 C 1148.06 -3.45588 -1.06073 0
M  V30 11806 O 1147.78 -4.38097 -0.0166754 0
M  V30 11807 C 1149.28 -4.05527 -1.79061 0
M  V30 11808 H 1146.5 -0.659574 -0.1233 0
M  V30 11809 H 1149.04 -2.02689 0.271576 0
M  V30 11810 H 1147.2 -3.449 -1.76417 0
M  V30 11811 H 1147.61 -5.22615 -0.444276 0
M  V30 11812 H 1149.09 -5.08467 -2.1486 0
M  V30 11813 H 1149.56 -3.47554 -2.68519 0
M  V30 11814 H 1150.17 -4.09914 -1.13361 0
M  V30 11815 N 1148.48 0.103547 -1.57259 0
M  V30 11816 C 1149.71 0.82624 -1.90232 0
M  V30 11817 C 1150.13 1.71902 -0.763641 0
M  V30 11818 O 1149.49 1.79043 0.285181 0
M  V30 11819 C 1149.54 1.62265 -3.22029 0
M  V30 11820 O 1148.64 2.73091 -3.09023 0
M  V30 11821 H 1147.98 0.227528 -0.6238 0
M  V30 11822 H 1150.51 0.081307 -2.04438 0
M  V30 11823 H 1150.52 2.00865 -3.5513 0
M  V30 11824 H 1149.2 0.967383 -4.04493 0
M  V30 11825 H 1147.78 2.3758 -2.8742 0
M  V30 11826 N 1149.96 1.53094 0.37415 0
M  V30 11827 C 1150.87 1.81872 1.48188 0
M  V30 11828 C 1151.89 0.706487 1.59012 0
M  V30 11829 O 1153.06 0.995648 1.75068 0
M  V30 11830 C 1150.13 1.99494 2.83554 0
M  V30 11831 C 1149.19 3.23402 2.82329 0
M  V30 11832 C 1148.42 3.40174 4.11239 0
M  V30 11833 O 1148.65 2.61425 5.06965 0
M  V30 11834 O 1147.58 4.33493 4.17573 0
M  V30 11835 H 1151.41 2.75965 1.26795 0
M  V30 11836 H 1148.99 1.38368 0.56343 0
M  V30 11837 H 1150.87 2.12705 3.63778 0
M  V30 11838 H 1149.55 1.08591 3.04942 0
M  V30 11839 H 1148.45 3.15621 2.00834 0
M  V30 11840 H 1149.79 4.14199 2.65894 0
M  V30 11841 N 1151.44 -0.633461 1.44309 0
M  V30 11842 C 1152.39 -1.74554 1.50995 0
M  V30 11843 C 1153.36 -1.62199 0.357873 0
M  V30 11844 O 1154.54 -1.82156 0.567787 0
M  V30 11845 C 1151.68 -3.12792 1.45791 0
M  V30 11846 C 1150.79 -3.3614 2.71356 0
M  V30 11847 C 1149.93 -4.64337 2.58002 0
M  V30 11848 C 1148.97 -4.80855 3.78741 0
M  V30 11849 N 1148.11 -6.00327 3.64077 0
M  V30 11850 H 1152.95 -1.68174 2.46011 0
M  V30 11851 H 1150.48 -0.820407 1.22097 0
M  V30 11852 H 1152.44 -3.92735 1.40765 0
M  V30 11853 H 1151.07 -3.18193 0.543445 0
M  V30 11854 H 1150.12 -2.50154 2.86579 0
M  V30 11855 H 1151.43 -3.44226 3.60985 0
M  V30 11856 H 1150.59 -5.52437 2.50795 0
M  V30 11857 H 1149.33 -4.58605 1.65929 0
M  V30 11858 H 1148.33 -3.91185 3.86334 0
M  V30 11859 H 1149.56 -4.88403 4.71847 0
M  V30 11860 H 1147.5 -5.9569 2.74754 0
M  V30 11861 H 1147.42 -6.09459 4.47321 0
M  V30 11862 H 1148.69 -6.90995 3.60758 0
M  V30 11863 N 1152.92 -1.31168 -0.873655 0
M  V30 11864 C 1154.17 -1.20404 -1.62319 0
M  V30 11865 C 1154.49 0.238829 -1.93532 0
M  V30 11866 O 1153.76 1.15854 -1.57971 0
M  V30 11867 H 1152.34 -0.442632 -0.601736 0
M  V30 11868 H 1155 -1.64445 -1.04613 0
M  V30 11869 H 1154.1 -1.77309 -2.56842 0
M  V30 11870 N 1154.4 1.08748 -1.14068 0
M  V30 11871 C 1155.81 1.33125 -0.880341 0
M  V30 11872 C 1156.01 1.9569 0.480396 0
M  V30 11873 O 1155.07 2.2077 1.22543 0
M  V30 11874 C 1156.38 2.23618 -2.01036 0
M  V30 11875 C 1157.93 2.37108 -2.04326 0
M  V30 11876 C 1158.4 3.30941 -3.1661 0
M  V30 11877 N 1159.9 3.38517 -3.16166 0
M  V30 11878 C 1160.63 4.11142 -3.99687 0
M  V30 11879 N 1160.13 4.86505 -4.93239 0
M  V30 11880 N 1161.92 4.06938 -3.87761 0
M  V30 11881 H 1154.07 0.665164 -2.01716 0
M  V30 11882 H 1156.33 0.355612 -0.878774 0
M  V30 11883 H 1156.04 1.84885 -2.99183 0
M  V30 11884 H 1155.91 3.24056 -1.93049 0
M  V30 11885 H 1158.3 2.75101 -1.06787 0
M  V30 11886 H 1158.38 1.36424 -2.16384 0
M  V30 11887 H 1158.03 2.93669 -4.14392 0
M  V30 11888 H 1157.96 4.31545 -3.01789 0
M  V30 11889 H 1160.45 2.84786 -2.48405 0
M  V30 11890 H 1160.76 5.39372 -5.53441 0
M  V30 11891 H 1159.1 4.8557 -4.9724 0
M  V30 11892 H 1162.3 3.47166 -3.13996 0
M  V30 11893 H 1162.47 4.63275 -4.53079 0
M  V30 11894 N 1155.87 0.935264 1.26849 0
M  V30 11895 C 1156.78 0.446122 2.30319 0
M  V30 11896 C 1157.8 -0.476965 1.67335 0
M  V30 11897 O 1158.98 -0.357934 1.98194 0
M  V30 11898 C 1156.04 -0.286297 3.45516 0
M  V30 11899 C 1155.1 0.672626 4.23998 0
M  V30 11900 C 1154.34 -0.0249345 5.33694 0
M  V30 11901 O 1154.56 -1.24296 5.56693 0
M  V30 11902 O 1153.49 0.650752 5.98372 0
M  V30 11903 H 1157.32 1.30546 2.74211 0
M  V30 11904 H 1154.9 0.70091 1.31938 0
M  V30 11905 H 1156.79 -0.699109 4.1556 0
M  V30 11906 H 1155.46 -1.12112 3.03665 0
M  V30 11907 H 1154.37 1.13527 3.56458 0
M  V30 11908 H 1155.7 1.47489 4.69583 0
M  V30 11909 N 1157.35 -1.41121 0.701616 0
M  V30 11910 C 1158.28 -2.33436 0.0545974 0
M  V30 11911 C 1159.26 -1.52144 -0.760662 0
M  V30 11912 O 1160.45 -1.80661 -0.712414 0
M  V30 11913 C 1157.58 -3.36015 -0.878117 0
M  V30 11914 C 1156.53 -4.27664 -0.169511 0
M  V30 11915 C 1155.86 -5.20666 -1.21699 0
M  V30 11916 C 1157.16 -5.13254 0.967859 0
M  V30 11917 H 1158.85 -2.87791 0.825637 0
M  V30 11918 H 1156.4 -1.38377 0.398484 0
M  V30 11919 H 1158.35 -3.99526 -1.34004 0
M  V30 11920 H 1157.08 -2.80024 -1.68089 0
M  V30 11921 H 1155.73 -3.65586 0.272441 0
M  V30 11922 H 1155.38 -4.60987 -2.01246 0
M  V30 11923 H 1155.08 -5.82822 -0.747836 0
M  V30 11924 H 1156.61 -5.87053 -1.6793 0
M  V30 11925 H 1158.02 -5.70298 0.585944 0
M  V30 11926 H 1156.42 -5.84381 1.3645 0
M  V30 11927 H 1157.49 -4.5006 1.80483 0
M  V30 11928 N 1158.83 -0.446794 -1.51134 0
M  V30 11929 C 1160.08 0.116263 -2.01765 0
M  V30 11930 C 1160.4 1.42382 -1.33238 0
M  V30 11931 O 1159.67 1.9018 -0.469915 0
M  V30 11932 H 1158.25 0.0459558 -0.745585 0
M  V30 11933 H 1160.91 -0.591664 -1.85702 0
M  V30 11934 H 1160.01 0.285358 -3.10793 0
M  V30 11935 N 1160.31 1.56586 -0.178487 0
M  V30 11936 C 1161.24 2.14168 0.787856 0
M  V30 11937 C 1162.22 1.07374 1.22105 0
M  V30 11938 O 1163.4 1.35391 1.31154 0
M  V30 11939 C 1160.53 2.68708 2.06189 0
M  V30 11940 C 1159.58 3.8794 1.77215 0
M  V30 11941 S 1160.41 5.27274 0.935002 0
M  V30 11942 C 1161.57 5.85224 2.21954 0
M  V30 11943 H 1161.8 2.958 0.298293 0
M  V30 11944 H 1159.33 1.54357 0.0362853 0
M  V30 11945 H 1161.29 3.00777 2.79363 0
M  V30 11946 H 1159.95 1.87149 2.52258 0
M  V30 11947 H 1159.14 4.24453 2.71764 0
M  V30 11948 H 1158.75 3.56795 1.12132 0
M  V30 11949 H 1161.04 5.98575 3.17355 0
M  V30 11950 H 1161.98 6.82162 1.89898 0
M  V30 11951 H 1162.39 5.13697 2.34042 0
M  V30 11952 N 1161.79 -0.095206 1.57312 0
M  V30 11953 C 1163.03 -0.799903 1.86358 0
M  V30 11954 C 1163.37 -1.78386 0.767593 0
M  V30 11955 O 1162.64 -1.93201 -0.224439 0
M  V30 11956 C 1162.92 -1.52875 3.26039 0
M  V30 11957 C 1162.78 -0.562781 4.46265 0
M  V30 11958 C 1164.1 -2.47935 3.63616 0
M  V30 11959 H 1161.21 -0.289339 0.677829 0
M  V30 11960 H 1163.86 -0.0635369 1.89894 0
M  V30 11961 H 1162.01 -2.15645 3.23156 0
M  V30 11962 H 1163.68 0.0579068 4.61264 0
M  V30 11963 H 1161.92 0.123847 4.33623 0
M  V30 11964 H 1162.59 -1.10989 5.40727 0
M  V30 11965 H 1165.07 -1.95257 3.67442 0
M  V30 11966 H 1163.94 -2.95948 4.62283 0
M  V30 11967 H 1164.21 -3.31687 2.92294 0
M  V30 11968 N 1163.26 -1.53291 -0.366026 0
M  V30 11969 C 1164.23 -1.79025 -1.43117 0
M  V30 11970 C 1165.23 -0.660676 -1.46601 0
M  V30 11971 O 1166.42 -0.928875 -1.47369 0
M  V30 11972 C 1163.55 -1.91192 -2.82238 0
M  V30 11973 H 1164.74 -2.74154 -1.21572 0
M  V30 11974 H 1162.3 -1.44361 -0.599132 0
M  V30 11975 H 1163.03 -0.98129 -3.09097 0
M  V30 11976 H 1162.82 -2.7335 -2.81109 0
M  V30 11977 H 1164.31 -2.12696 -3.59375 0
M  V30 11978 N 1164.74 0.6258 -1.44643 0
M  V30 11979 C 1166.02 1.38439 -1.38181 0
M  V30 11980 C 1166.4 2.11056 -0.0431928 0
M  V30 11981 O 1165.75 2.06683 0.974383 0
M  V30 11982 C 1165.96 2.34639 -2.58352 0
M  V30 11983 C 1167.31 2.97807 -3.02649 0
M  V30 11984 O 1168.33 2.44963 -2.58595 0
M  V30 11985 O 1167.19 3.93682 -3.79048 0
M  V30 11986 H 1164.28 0.619852 -0.54746 0
M  V30 11987 H 1166.83 0.650409 -1.56741 0
M  V30 11988 H 1165.6 1.80116 -3.47382 0
M  V30 11989 H 1165.22 3.15446 -2.42032 0
M  V30 11990 N 1166.22 1.31629 0.866686 0
M  V30 11991 C 1167.13 1.21524 2.00671 0
M  V30 11992 C 1168.15 0.131277 1.73504 0
M  V30 11993 O 1169.32 0.349699 1.98341 0
M  V30 11994 C 1166.39 0.926491 3.34091 0
M  V30 11995 C 1165.45 2.09769 3.7456 0
M  V30 11996 C 1164.68 1.82262 5.01614 0
M  V30 11997 O 1164.9 0.759329 5.65323 0
M  V30 11998 O 1163.84 2.68031 5.38928 0
M  V30 11999 H 1167.66 2.17335 2.1213 0
M  V30 12000 H 1165.25 1.11401 0.995499 0
M  V30 12001 H 1167.13 0.78144 4.14091 0
M  V30 12002 H 1165.81 -0.00155829 3.237 0
M  V30 12003 H 1164.71 2.29816 2.95187 0
M  V30 12004 H 1166.05 3.0081 3.89582 0
M  V30 12005 N 1167.7 -1.08142 1.14644 0
M  V30 12006 C 1168.95 -1.80225 0.914517 0
M  V30 12007 C 1169.27 -1.86778 -0.560269 0
M  V30 12008 O 1168.54 -1.36284 -1.40724 0
M  V30 12009 H 1167.12 -0.667492 0.335356 0
M  V30 12010 H 1169.78 -1.30729 1.44554 0
M  V30 12011 H 1168.88 -2.82958 1.31685 0
M  V30 12012 N 1169.18 -0.941978 -1.26351 0
M  V30 12013 C 1170.11 -0.469913 -2.28723 0
M  V30 12014 C 1171.09 0.477218 -1.63269 0
M  V30 12015 O 1172.27 0.378902 -1.90468 0
M  V30 12016 C 1169.4 0.264971 -3.46288 0
M  V30 12017 C 1168.36 -0.595682 -4.23834 0
M  V30 12018 C 1167.68 0.269208 -5.34022 0
M  V30 12019 C 1168.98 -1.86743 -4.87775 0
M  V30 12020 H 1170.68 -1.32551 -2.6846 0
M  V30 12021 H 1168.22 -0.638809 -1.29055 0
M  V30 12022 H 1170.18 0.606259 -4.17016 0
M  V30 12023 H 1168.9 1.15471 -3.05506 0
M  V30 12024 H 1167.56 -0.919875 -3.54872 0
M  V30 12025 H 1167.21 1.15832 -4.89481 0
M  V30 12026 H 1166.91 -0.30325 -5.86817 0
M  V30 12027 H 1168.43 0.605748 -6.07588 0
M  V30 12028 H 1169.85 -1.59333 -5.50714 0
M  V30 12029 H 1168.24 -2.38452 -5.50691 0
M  V30 12030 H 1169.31 -2.57831 -4.10671 0
M  V30 12031 N 1170.66 1.40747 -0.709091 0
M  V30 12032 C 1171.62 2.29118 -0.0611607 0
M  V30 12033 C 1172.62 1.45049 0.694081 0
M  V30 12034 O 1173.81 1.66039 0.526952 0
M  V30 12035 C 1170.94 3.28154 0.923447 0
M  V30 12036 H 1172.13 2.87913 -0.839413 0
M  V30 12037 H 1169.69 1.4896 -0.473363 0
M  V30 12038 H 1170.42 2.74366 1.72899 0
M  V30 12039 H 1170.21 3.90207 0.384862 0
M  V30 12040 H 1171.7 3.94343 1.37417 0
M  V30 12041 N 1172.13 0.454803 1.50895 0
M  V30 12042 C 1173.38 -0.0981148 2.03163 0
M  V30 12043 C 1173.73 -1.38855 1.3318 0
M  V30 12044 O 1173.03 -1.86399 0.443407 0
M  V30 12045 C 1173.22 -0.354159 3.55641 0
M  V30 12046 C 1173.05 0.90991 4.40398 0
M  V30 12047 C 1171.82 1.44852 4.84093 0
M  V30 12048 C 1174.02 1.80088 4.81739 0
M  V30 12049 N 1172 2.66331 5.53119 0
M  V30 12050 C 1173.37 2.86162 5.5001 0
M  V30 12051 C 1175.43 1.81321 4.6371 0
M  V30 12052 C 1174.13 3.93438 6.02162 0
M  V30 12053 C 1176.16 2.87543 5.16791 0
M  V30 12054 C 1175.52 3.92336 5.85023 0
M  V30 12055 H 1171.62 0.00370972 0.781991 0
M  V30 12056 H 1174.2 0.619376 1.84586 0
M  V30 12057 H 1172.37 -1.04069 3.74198 0
M  V30 12058 H 1174.1 -0.899976 3.94566 0
M  V30 12059 H 1170.86 0.999972 4.62923 0
M  V30 12060 H 1171.28 3.27978 5.92249 0
M  V30 12061 H 1175.92 1.01627 4.10404 0
M  V30 12062 H 1173.64 4.73959 6.54514 0
M  V30 12063 H 1177.23 2.8946 5.04682 0
M  V30 12064 H 1176.11 4.73178 6.25358 0
M  V30 12065 N 1173.61 -1.56489 0.186789 0
M  V30 12066 C 1174.54 -2.21705 -0.732739 0
M  V30 12067 C 1175.52 -1.17751 -1.22755 0
M  V30 12068 O 1176.71 -1.46231 -1.27789 0
M  V30 12069 C 1173.84 -2.86992 -1.95584 0
M  V30 12070 C 1172.79 -3.97118 -1.59628 0
M  V30 12071 C 1172.12 -4.49529 -2.89531 0
M  V30 12072 C 1173.42 -5.15941 -0.812518 0
M  V30 12073 H 1175.11 -2.98802 -0.189094 0
M  V30 12074 H 1172.66 -1.43722 -0.0895099 0
M  V30 12075 H 1174.61 -3.31295 -2.60426 0
M  V30 12076 H 1173.33 -2.07287 -2.52388 0
M  V30 12077 H 1171.99 -3.53494 -0.971475 0
M  V30 12078 H 1171.64 -3.66596 -3.44407 0
M  V30 12079 H 1171.34 -5.23832 -2.66221 0
M  V30 12080 H 1172.87 -4.96528 -3.55376 0
M  V30 12081 H 1174.28 -5.56841 -1.36386 0
M  V30 12082 H 1172.68 -5.96259 -0.677862 0
M  V30 12083 H 1173.75 -4.84535 0.188095 0
M  V30 12084 N 1175.09 0.086862 -1.5736 0
M  V30 12085 C 1176.31 0.806017 -1.91097 0
M  V30 12086 C 1176.74 1.71082 -0.78183 0
M  V30 12087 O 1176.1 1.79335 0.266175 0
M  V30 12088 C 1176.15 1.5884 -3.23732 0
M  V30 12089 O 1175.25 2.69798 -3.11902 0
M  V30 12090 H 1174.59 0.220899 -0.626179 0
M  V30 12091 H 1177.12 0.059619 -2.04513 0
M  V30 12092 H 1177.13 1.97088 -3.5724 0
M  V30 12093 H 1175.81 0.924426 -4.05496 0
M  V30 12094 H 1174.38 2.34519 -2.89923 0
M  V30 12095 N 1176.57 1.53483 0.357892 0
M  V30 12096 C 1177.82 1.69701 1.09754 0
M  V30 12097 C 1178.14 0.455389 1.89608 0
M  V30 12098 O 1177.41 -0.530623 1.88577 0
M  V30 12099 H 1175.99 0.62562 0.408178 0
M  V30 12100 H 1178.65 1.90696 0.402641 0
M  V30 12101 H 1177.74 2.56154 1.78302 0
M  V30 12102 N 1178.05 -0.61812 1.44973 0
M  V30 12103 C 1179.29 -1.37944 1.48658 0
M  V30 12104 C 1179.62 -1.93805 0.123749 0
M  V30 12105 O 1178.9 -1.74434 -0.860401 0
M  V30 12106 C 1179.18 -2.53515 2.55739 0
M  V30 12107 C 1179.04 -2.02918 4.01428 0
M  V30 12108 C 1180.35 -3.55674 2.59199 0
M  V30 12109 H 1177.47 -0.500223 0.541244 0
M  V30 12110 H 1180.12 -0.69774 1.76725 0
M  V30 12111 H 1178.27 -3.11669 2.31937 0
M  V30 12112 H 1179.94 -1.49494 4.36405 0
M  V30 12113 H 1178.18 -1.33999 4.12586 0
M  V30 12114 H 1178.85 -2.86181 4.72021 0
M  V30 12115 H 1181.33 -3.07343 2.80499 0
M  V30 12116 H 1180.2 -4.34042 3.36004 0
M  V30 12117 H 1180.46 -4.10601 1.63888 0
M  V30 12118 N 1179.52 -1.32087 -0.859693 0
M  V30 12119 C 1180.75 -1.25348 -1.64607 0
M  V30 12120 C 1181.17 0.179425 -1.87945 0
M  V30 12121 O 1180.52 1.11487 -1.44489 0
M  V30 12122 C 1180.57 -2.0047 -3.00822 0
M  V30 12123 O 1180.3 -3.38169 -2.7852 0
M  V30 12124 C 1181.8 -2.00694 -3.95268 0
M  V30 12125 H 1179.02 -0.432692 -0.512854 0
M  V30 12126 H 1181.56 -1.7413 -1.07234 0
M  V30 12127 H 1179.72 -1.55423 -3.54855 0
M  V30 12128 H 1180.13 -3.76553 -3.65113 0
M  V30 12129 H 1181.6 -2.57748 -4.88129 0
M  V30 12130 H 1182.08 -0.99196 -4.27851 0
M  V30 12131 H 1182.69 -2.45666 -3.47172 0
M  V30 12132 N 1181 1.07532 -1.15215 0
M  V30 12133 C 1182.41 1.61567 -0.935568 0
M  V30 12134 C 1182.76 1.89085 0.523557 0
M  V30 12135 O 1181.89 1.65495 1.39429 0
M  V30 12136 C 1182.48 2.93531 -1.69189 0
M  V30 12137 C 1181.04 3.44316 -1.52063 0
M  V30 12138 C 1180.19 2.18404 -1.70866 0
M  V30 12139 H 1183.14 0.906431 -1.30267 0
M  V30 12140 H 1183.16 3.62377 -1.16031 0
M  V30 12141 H 1182.67 2.73471 -2.75381 0
M  V30 12142 H 1180.77 3.69462 -0.482567 0
M  V30 12143 H 1180.89 4.20478 -2.29642 0
M  V30 12144 H 1179.25 2.28012 -1.13502 0
M  V30 12145 H 1180.03 2.00841 -2.7842 0
M  V30 12146 N 1182.48 0.948665 1.2585 0
M  V30 12147 C 1183.73 0.59905 1.93018 0
M  V30 12148 C 1184.05 -0.865813 1.74725 0
M  V30 12149 O 1183.32 -1.61602 1.10732 0
M  V30 12150 H 1181.9 0.218565 0.71431 0
M  V30 12151 H 1184.56 1.20561 1.53137 0
M  V30 12152 H 1183.66 0.823244 3.01047 0
M  V30 12153 N 1183.96 -1.40369 0.716545 0
M  V30 12154 C 1184.87 -2.34508 0.065658 0
M  V30 12155 C 1185.88 -1.57352 -0.742723 0
M  V30 12156 O 1187.06 -1.89735 -0.675456 0
M  V30 12157 C 1184.13 -3.36262 -0.844337 0
M  V30 12158 C 1183.19 -4.29292 -0.0257971 0
M  V30 12159 C 1182.42 -5.26185 -0.892452 0
M  V30 12160 O 1182.64 -5.29071 -2.13166 0
M  V30 12161 O 1181.58 -6.0099 -0.330933 0
M  V30 12162 H 1185.4 -2.91789 0.842184 0
M  V30 12163 H 1182.99 -1.41579 0.477034 0
M  V30 12164 H 1184.87 -3.98661 -1.36555 0
M  V30 12165 H 1183.54 -2.81393 -1.59999 0
M  V30 12166 H 1182.45 -3.70175 0.540512 0
M  V30 12167 H 1183.78 -4.87316 0.69166 0
M  V30 12168 N 1185.44 -0.462799 -1.50652 0
M  V30 12169 C 1186.66 0.0929761 -2.06691 0
M  V30 12170 C 1187.08 1.34241 -1.32758 0
M  V30 12171 O 1186.44 1.78187 -0.394427 0
M  V30 12172 C 1186.49 0.389492 -3.59396 0
M  V30 12173 O 1186.21 -0.810379 -4.3054 0
M  V30 12174 C 1187.71 0.993147 -4.32032 0
M  V30 12175 H 1184.93 -0.00338664 -0.670991 0
M  V30 12176 H 1187.47 -0.649201 -1.93922 0
M  V30 12177 H 1185.63 1.08159 -3.71995 0
M  V30 12178 H 1186.04 -0.54996 -5.21609 0
M  V30 12179 H 1187.52 1.15044 -5.39878 0
M  V30 12180 H 1187.99 1.98106 -3.91983 0
M  V30 12181 H 1188.6 0.339677 -4.23941 0
M  V30 12182 N 1186.91 1.56388 -0.195085 0
M  V30 12183 C 1187.84 2.22091 0.720971 0
M  V30 12184 C 1188.83 1.184 1.22128 0
M  V30 12185 O 1190.01 1.46907 1.27012 0
M  V30 12186 C 1187.14 2.88025 1.94059 0
M  V30 12187 C 1186.09 3.97959 1.5752 0
M  V30 12188 C 1185.42 4.51058 2.87143 0
M  V30 12189 C 1186.72 5.16365 0.785145 0
M  V30 12190 H 1188.41 2.98898 0.173245 0
M  V30 12191 H 1185.96 1.43767 0.0818868 0
M  V30 12192 H 1187.91 3.32671 2.58666 0
M  V30 12193 H 1186.64 2.08623 2.51285 0
M  V30 12194 H 1185.3 3.54004 0.952715 0
M  V30 12195 H 1184.94 3.68418 3.42458 0
M  V30 12196 H 1184.64 5.25237 2.63439 0
M  V30 12197 H 1186.17 4.98406 3.52738 0
M  V30 12198 H 1187.58 5.57556 1.33431 0
M  V30 12199 H 1185.98 5.9661 0.646231 0
M  V30 12200 H 1187.05 4.84428 -0.213789 0
M  V30 12201 N 1188.39 -0.0785156 1.57404 0
M  V30 12202 C 1189.62 -0.795871 1.91522 0
M  V30 12203 C 1190.04 -1.70665 0.790892 0
M  V30 12204 O 1189.4 -1.79474 -0.25666 0
M  V30 12205 C 1189.45 -1.57121 3.24569 0
M  V30 12206 O 1188.55 -2.6814 3.13328 0
M  V30 12207 H 1187.89 -0.217575 0.627341 0
M  V30 12208 H 1190.42 -0.0487724 2.04542 0
M  V30 12209 H 1190.43 -1.9519 3.5828 0
M  V30 12210 H 1189.11 -0.902909 4.05981 0
M  V30 12211 H 1187.69 -2.32978 2.91163 0
M  V30 12212 N 1189.87 -1.5367 -0.349747 0
M  V30 12213 C 1191.12 -1.7087 -1.0923 0
M  V30 12214 C 1191.45 -0.467299 -1.88494 0
M  V30 12215 O 1190.72 0.535619 -1.8698 0
M  V30 12216 C 1191.01 -2.9684 -2.03858 0
M  V30 12217 C 1190.86 -4.31174 -1.28097 0
M  V30 12218 C 1192.18 -3.18459 -3.03763 0
M  V30 12219 H 1189.3 -0.621757 -0.395711 0
M  V30 12220 H 1191.94 -1.86333 -0.371481 0
M  V30 12221 H 1190.09 -2.83788 -2.65323 0
M  V30 12222 H 1191.76 -4.56066 -0.692933 0
M  V30 12223 H 1190.01 -4.29866 -0.582924 0
M  V30 12224 H 1190.68 -5.15482 -1.9744 0
M  V30 12225 H 1193.15 -3.30801 -2.52409 0
M  V30 12226 H 1192.03 -4.08006 -3.67182 0
M  V30 12227 H 1192.29 -2.34467 -3.74803 0
M  V30 12228 N 1191.35 0.610423 -1.45298 0
M  V30 12229 C 1192.3 1.74245 -1.54083 0
M  V30 12230 C 1193.29 1.64338 -0.411003 0
M  V30 12231 O 1194.5 1.70167 -0.586799 0
M  V30 12232 H 1190.87 0.575612 -0.483916 0
M  V30 12233 H 1192.84 1.63961 -2.49318 0
M  V30 12234 C 1191.59 3.1262 -1.52198 0
M  V30 12235 H 1190.91 3.209 -2.3846 0
M  V30 12236 H 1192.35 3.91665 -1.62403 0
M  V30 12237 C 1190.81 3.36001 -0.24595 0
M  V30 12238 O 1191.34 3.95982 0.675374 0
M  V30 12239 N 1189.55 2.9025 -0.142537 0
M  V30 12240 H 1189.1 2.41621 -0.893143 0
M  V30 12241 H 1189.05 3.06268 0.710427 0
M  V30 12242 N 1192.83 1.32541 0.852676 0
M  V30 12243 C 1194.07 1.24406 1.60918 0
M  V30 12244 C 1194.43 -0.19184 1.91441 0
M  V30 12245 O 1193.72 -1.13016 1.54719 0
M  V30 12246 C 1193.91 2.039 2.9353 0
M  V30 12247 C 1193.74 3.55074 2.75957 0
M  V30 12248 C 1192.51 4.24409 2.74236 0
M  V30 12249 C 1194.71 4.49686 2.49574 0
M  V30 12250 N 1192.69 5.61624 2.47895 0
M  V30 12251 C 1194.06 5.74692 2.32658 0
M  V30 12252 C 1196.12 4.38921 2.35058 0
M  V30 12253 C 1194.82 6.90149 2.027 0
M  V30 12254 C 1196.85 5.5418 2.06491 0
M  V30 12255 C 1196.21 6.78186 1.90377 0
M  V30 12256 H 1192.31 0.510401 0.592465 0
M  V30 12257 H 1194.89 1.66929 1.00214 0
M  V30 12258 H 1193.06 1.6372 3.52208 0
M  V30 12259 H 1194.8 1.87644 3.58569 0
M  V30 12260 H 1191.55 3.76546 2.87246 0
M  V30 12261 H 1191.98 6.33918 2.37648 0
M  V30 12262 H 1196.62 3.43697 2.46236 0
M  V30 12263 H 1194.34 7.85383 1.90259 0
M  V30 12264 H 1197.92 5.47779 1.96035 0
M  V30 12265 H 1196.8 7.65864 1.68587 0
M  V30 12266 N 1194.3 -1.0692 1.15784 0
M  V30 12267 C 1195.58 -1.76367 0.845825 0
M  V30 12268 C 1195.96 -2.00594 -0.657672 0
M  V30 12269 O 1195.31 -1.62794 -1.60345 0
M  V30 12270 C 1195.52 -3.06913 1.66149 0
M  V30 12271 C 1196.87 -3.81181 1.87046 0
M  V30 12272 O 1197.89 -3.16737 1.62961 0
M  V30 12273 O 1196.75 -4.96936 2.27413 0
M  V30 12274 H 1193.84 -0.766095 0.311493 0
M  V30 12275 H 1196.39 -1.13246 1.26386 0
M  V30 12276 H 1195.16 -2.84924 2.68205 0
M  V30 12277 H 1194.79 -3.77767 1.24007 0
M  V30 12278 N 1195.78 -0.955326 -1.25345 0
M  V30 12279 C 1197.03 -0.609278 -1.92697 0
M  V30 12280 C 1197.35 0.856535 -1.75181 0
M  V30 12281 O 1196.62 1.61013 -1.11587 0
M  V30 12282 H 1195.2 -0.22235 -0.713141 0
M  V30 12283 H 1197.86 -1.21372 -1.52496 0
M  V30 12284 H 1196.96 -0.839198 -3.00606 0
M  V30 12285 N 1197.26 1.39987 -0.723979 0
M  V30 12286 C 1198.21 2.30672 -0.0768286 0
M  V30 12287 C 1199.18 1.48634 0.741422 0
M  V30 12288 O 1200.36 1.77351 0.703649 0
M  V30 12289 C 1197.5 3.34902 0.832729 0
M  V30 12290 C 1196.62 4.32 0.00304942 0
M  V30 12291 C 1195.75 5.23298 0.91286 0
M  V30 12292 C 1194.79 6.12051 0.0777706 0
M  V30 12293 N 1193.93 6.9574 0.942912 0
M  V30 12294 H 1198.77 2.85446 -0.855832 0
M  V30 12295 H 1196.3 1.40561 -0.433718 0
M  V30 12296 H 1198.26 3.93911 1.37441 0
M  V30 12297 H 1196.89 2.81611 1.57782 0
M  V30 12298 H 1195.94 3.74702 -0.655916 0
M  V30 12299 H 1197.26 4.94637 -0.643124 0
M  V30 12300 H 1196.41 5.87279 1.52277 0
M  V30 12301 H 1195.15 4.60956 1.59284 0
M  V30 12302 H 1194.15 5.47092 -0.545022 0
M  V30 12303 H 1195.38 6.76455 -0.598827 0
M  V30 12304 H 1193.33 6.35977 1.60838 0
M  V30 12305 H 1193.24 7.55176 0.352968 0
M  V30 12306 H 1194.51 7.64162 1.53874 0
M  V30 12307 N 1198.74 0.470782 1.50404 0
M  V30 12308 C 1199.99 -0.0859981 2.01517 0
M  V30 12309 C 1200.3 -1.40811 1.35763 0
M  V30 12310 O 1201.51 -2.04982 1.7803 0
M  V30 12311 C 1199.96 -0.203773 3.59323 0
M  V30 12312 C 1199.57 1.10989 4.34034 0
M  V30 12313 C 1201.32 -0.712528 4.18477 0
M  V30 12314 C 1199.22 0.955928 5.83623 0
M  V30 12315 H 1198.15 -0.0359142 0.753144 0
M  V30 12316 H 1200.8 0.605631 1.73218 0
M  V30 12317 H 1199.19 -0.959177 3.84208 0
M  V30 12318 H 1200.36 1.87623 4.20873 0
M  V30 12319 H 1198.67 1.54973 3.86487 0
M  V30 12320 H 1201.27 -0.844745 5.27985 0
M  V30 12321 H 1201.61 -1.70377 3.79838 0
M  V30 12322 H 1202.15 -0.0145179 3.97797 0
M  V30 12323 H 1198.89 1.92054 6.26734 0
M  V30 12324 H 1198.41 0.22997 5.99359 0
M  V30 12325 H 1200.09 0.622423 6.43999 0
M  V30 12326 N 1200.22 -1.56282 0.203376 0
M  V30 12327 C 1201.15 -2.16714 -0.74616 0
M  V30 12328 C 1202.16 -1.13121 -1.17079 0
M  V30 12329 O 1203.35 -1.40179 -1.10509 0
M  V30 12330 C 1200.45 -2.72115 -2.02007 0
M  V30 12331 C 1199.62 -4.00695 -1.75391 0
M  V30 12332 C 1198.68 -4.40839 -2.8731 0
M  V30 12333 O 1197.71 -5.081 -2.56561 0
M  V30 12334 N 1198.91 -4.05024 -4.15856 0
M  V30 12335 H 1201.68 -2.98821 -0.229326 0
M  V30 12336 H 1199.24 -1.61885 0.0217049 0
M  V30 12337 H 1201.23 -2.95951 -2.76035 0
M  V30 12338 H 1199.8 -1.94415 -2.44789 0
M  V30 12339 H 1199.02 -3.84905 -0.851 0
M  V30 12340 H 1200.31 -4.8461 -1.55017 0
M  V30 12341 H 1199.71 -3.50938 -4.43688 0
M  V30 12342 H 1198.26 -4.33792 -4.86485 0
M  V30 12343 N 1201.7 0.070167 -1.57444 0
M  V30 12344 C 1202.94 0.774338 -1.89165 0
M  V30 12345 C 1203.3 1.7466 -0.797353 0
M  V30 12346 O 1204.5 2.49599 -0.997682 0
M  V30 12347 C 1202.77 1.46235 -3.26114 0
M  V30 12348 S 1204.33 2.20136 -3.79586 0
M  V30 12349 H 1201.15 0.257464 -0.662747 0
M  V30 12350 H 1203.75 0.0303734 -1.95476 0
M  V30 12351 H 1202.45 0.740942 -4.03656 0
M  V30 12352 H 1201.99 2.24571 -3.23004 0
M  V30 12353 H 1204 3.4668 -3.55003 0
M  V30 12354 N 1203.17 1.53854 0.341593 0
M  V30 12355 C 1204.11 1.78295 1.44027 0
M  V30 12356 C 1205.12 0.664303 1.4863 0
M  V30 12357 O 1206.31 0.941073 1.51678 0
M  V30 12358 C 1203.41 1.86947 2.82673 0
M  V30 12359 C 1202.58 3.16898 3.01487 0
M  V30 12360 C 1201.64 3.16483 4.20386 0
M  V30 12361 O 1200.67 3.90197 4.14409 0
M  V30 12362 N 1201.87 2.3899 5.29022 0
M  V30 12363 H 1204.63 2.73102 1.23431 0
M  V30 12364 H 1202.19 1.52928 0.531483 0
M  V30 12365 H 1204.19 1.84118 3.60392 0
M  V30 12366 H 1202.76 0.993169 2.96403 0
M  V30 12367 H 1201.98 3.32835 2.11221 0
M  V30 12368 H 1203.26 4.02733 3.1094 0
M  V30 12369 H 1202.66 1.78657 5.36748 0
M  V30 12370 H 1201.22 2.41957 6.05227 0
M  V30 12371 N 1204.65 -0.602709 1.4562 0
M  V30 12372 C 1205.9 -1.36359 1.50113 0
M  V30 12373 C 1206.23 -1.93663 0.144297 0
M  V30 12374 O 1205.51 -1.75337 -0.841851 0
M  V30 12375 C 1205.79 -2.50788 2.58413 0
M  V30 12376 C 1205.64 -1.98649 4.03557 0
M  V30 12377 C 1206.96 -3.52905 2.62957 0
M  V30 12378 H 1204.08 -0.494455 0.54652 0
M  V30 12379 H 1206.72 -0.678957 1.77455 0
M  V30 12380 H 1204.87 -3.09191 2.3523 0
M  V30 12381 H 1206.54 -1.44857 4.37966 0
M  V30 12382 H 1204.79 -1.29615 4.13984 0
M  V30 12383 H 1205.46 -2.81159 4.7503 0
M  V30 12384 H 1207.93 -3.0435 2.83743 0
M  V30 12385 H 1206.81 -4.30454 3.40589 0
M  V30 12386 H 1207.07 -4.0884 1.68233 0
M  V30 12387 N 1206.13 -1.32992 -0.845635 0
M  V30 12388 C 1207.08 -1.22652 -1.97634 0
M  V30 12389 C 1208.07 -0.129344 -1.68905 0
M  V30 12390 O 1209.28 -0.292863 -1.77602 0
M  V30 12391 H 1205.65 -0.380439 -0.648668 0
M  V30 12392 H 1207.62 -2.18261 -2.03481 0
M  V30 12393 C 1206.37 -0.975677 -3.3373 0
M  V30 12394 H 1205.7 -1.81217 -3.56371 0
M  V30 12395 H 1207.14 -0.943608 -4.13367 0
M  V30 12396 C 1205.59 0.321491 -3.35363 0
M  V30 12397 O 1206.12 1.33042 -3.79029 0
M  V30 12398 N 1204.33 0.346648 -2.88525 0
M  V30 12399 H 1203.88 -0.474931 -2.53184 0
M  V30 12400 H 1203.84 1.2144 -2.9 0
M  V30 12401 N 1207.61 1.06304 -1.1635 0
M  V30 12402 C 1208.85 1.79366 -0.94634 0
M  V30 12403 C 1209.19 1.86981 0.524569 0
M  V30 12404 O 1208.46 1.36134 1.38917 0
M  V30 12405 C 1208.74 3.23861 -1.57436 0
M  V30 12406 C 1208.6 3.24327 -3.1166 0
M  V30 12407 C 1209.92 4.21409 -1.26895 0
M  V30 12408 H 1207.04 0.65115 -0.345215 0
M  V30 12409 H 1209.68 1.24325 -1.43678 0
M  V30 12410 H 1207.83 3.70862 -1.15731 0
M  V30 12411 H 1209.5 2.85488 -3.62346 0
M  V30 12412 H 1207.74 2.62983 -3.44997 0
M  V30 12413 H 1208.41 4.2626 -3.50723 0
M  V30 12414 H 1210.89 3.8285 -1.62989 0
M  V30 12415 H 1209.77 5.20778 -1.73439 0
M  V30 12416 H 1210.03 4.41701 -0.187768 0
M  V30 12417 N 1209.09 0.96196 1.24836 0
M  V30 12418 C 1210.5 0.660388 1.7463 0
M  V30 12419 C 1210.85 -0.824064 1.78055 0
M  V30 12420 O 1209.97 -1.64485 1.40619 0
M  V30 12421 C 1210.57 1.19205 3.17137 0
M  V30 12422 C 1209.13 0.940493 3.64461 0
M  V30 12423 C 1208.27 1.33076 2.43282 0
M  V30 12424 H 1211.22 1.13794 1.1062 0
M  V30 12425 H 1211.25 0.555595 3.76422 0
M  V30 12426 H 1210.76 2.27247 3.14612 0
M  V30 12427 H 1208.86 -0.124645 3.72391 0
M  V30 12428 H 1208.97 1.5821 4.52224 0
M  V30 12429 H 1207.34 0.749139 2.43434 0
M  V30 12430 H 1208.12 2.42055 2.43442 0
M  V30 12431 N 1210.56 -1.39601 0.731392 0
M  V30 12432 C 1211.47 -2.34425 0.090527 0
M  V30 12433 C 1212.49 -1.58131 -0.725992 0
M  V30 12434 O 1213.67 -1.90441 -0.655294 0
M  V30 12435 C 1210.73 -3.37138 -0.808624 0
M  V30 12436 C 1209.79 -4.29295 0.0197365 0
M  V30 12437 C 1209.02 -5.27102 -0.836593 0
M  V30 12438 O 1209.25 -5.31302 -2.07543 0
M  V30 12439 O 1208.18 -6.01307 -0.267172 0
M  V30 12440 H 1212.01 -2.9088 0.873084 0
M  V30 12441 H 1209.59 -1.41066 0.492024 0
M  V30 12442 H 1211.47 -4.00087 -1.32319 0
M  V30 12443 H 1210.15 -2.83074 -1.57006 0
M  V30 12444 H 1209.06 -3.69581 0.579744 0
M  V30 12445 H 1210.39 -4.86555 0.743308 0
M  V30 12446 N 1212.04 -0.478751 -1.50152 0
M  V30 12447 C 1213.27 0.0710485 -2.06778 0
M  V30 12448 C 1213.69 1.32826 -1.34174 0
M  V30 12449 O 1213.04 1.77758 -0.413304 0
M  V30 12450 C 1213.09 0.351351 -3.59789 0
M  V30 12451 O 1212.81 -0.855998 -4.29656 0
M  V30 12452 C 1214.32 0.947269 -4.33061 0
M  V30 12453 H 1211.54 -0.0105032 -0.670918 0
M  V30 12454 H 1214.08 -0.669732 -1.93222 0
M  V30 12455 H 1212.23 1.04207 -3.73121 0
M  V30 12456 H 1212.65 -0.605252 -5.20996 0
M  V30 12457 H 1214.12 1.09312 -5.41068 0
M  V30 12458 H 1214.6 1.93937 -3.94062 0
M  V30 12459 H 1215.21 0.294693 -4.24278 0
M  V30 12460 N 1213.52 1.56172 -0.211661 0
M  V30 12461 C 1214.48 2.18602 0.688906 0
M  V30 12462 C 1215.48 1.14508 1.12892 0
M  V30 12463 O 1216.67 1.39799 1.03932 0
M  V30 12464 C 1213.81 2.80141 1.94253 0
M  V30 12465 H 1215 2.9955 0.144765 0
M  V30 12466 H 1212.55 1.56254 0.0379615 0
M  V30 12467 H 1213.29 2.03035 2.52878 0
M  V30 12468 H 1213.07 3.56358 1.63558 0
M  V30 12469 H 1214.56 3.28026 2.58436 0
M  V30 12470 N 1215 -0.0618163 1.57479 0
M  V30 12471 C 1216.25 -0.75794 1.86918 0
M  V30 12472 C 1216.56 -1.78234 0.80572 0
M  V30 12473 O 1217.77 -2.52874 0.98827 0
M  V30 12474 C 1216.22 -1.39898 3.31597 0
M  V30 12475 C 1215.83 -0.412621 4.46096 0
M  V30 12476 C 1217.57 -2.07688 3.70224 0
M  V30 12477 C 1215.48 -1.06014 5.8182 0
M  V30 12478 H 1214.41 -0.286825 0.697314 0
M  V30 12479 H 1217.06 -0.0114386 1.83496 0
M  V30 12480 H 1215.44 -2.19408 3.29661 0
M  V30 12481 H 1216.62 0.353392 4.59443 0
M  V30 12482 H 1214.93 0.161383 4.16087 0
M  V30 12483 H 1217.53 -2.56928 4.68927 0
M  V30 12484 H 1217.87 -2.88073 3.00532 0
M  V30 12485 H 1218.41 -1.34996 3.74194 0
M  V30 12486 H 1215.15 -0.296405 6.5483 0
M  V30 12487 H 1214.67 -1.79677 5.72255 0
M  V30 12488 H 1216.34 -1.57708 6.27485 0
M  V30 12489 N 1216.48 -1.54033 -0.333429 0
M  V30 12490 C 1217.7 -1.76031 -1.09672 0
M  V30 12491 C 1218.13 -0.502844 -1.81254 0
M  V30 12492 O 1217.48 0.54509 -1.72912 0
M  V30 12493 C 1217.53 -2.947 -2.07809 0
M  V30 12494 O 1216.64 -2.65555 -3.15522 0
M  V30 12495 H 1215.98 -0.583611 -0.316692 0
M  V30 12496 H 1218.51 -2.01026 -0.380732 0
M  V30 12497 H 1218.52 -3.21771 -2.50853 0
M  V30 12498 H 1217.19 -3.85895 -1.55106 0
M  V30 12499 H 1215.77 -2.49403 -2.77223 0
M  V30 12500 N 1217.95 0.594978 -1.45938 0
M  V30 12501 C 1219.23 1.35477 -1.41086 0
M  V30 12502 C 1219.61 2.10917 -0.0879512 0
M  V30 12503 O 1218.96 2.08704 0.930323 0
M  V30 12504 C 1219.17 2.29106 -2.63271 0
M  V30 12505 C 1220.52 2.9132 -3.08898 0
M  V30 12506 O 1221.54 2.39423 -2.63733 0
M  V30 12507 O 1220.4 3.85553 -3.87313 0
M  V30 12508 H 1217.49 0.6081 -0.560485 0
M  V30 12509 H 1220.04 0.617016 -1.58085 0
M  V30 12510 H 1218.81 1.72707 -3.51124 0
M  V30 12511 H 1218.44 3.10241 -2.48669 0
M  V30 12512 N 1219.43 1.33438 0.838571 0
M  V30 12513 C 1220.36 1.19552 1.9555 0
M  V30 12514 C 1221.38 0.12642 1.62308 0
M  V30 12515 O 1222.57 0.376868 1.74476 0
M  V30 12516 C 1219.67 0.811273 3.29046 0
M  V30 12517 C 1218.84 1.97207 3.9042 0
M  V30 12518 C 1217.9 1.56875 5.02271 0
M  V30 12519 O 1216.92 2.28314 5.21403 0
M  V30 12520 N 1218.13 0.473924 5.78562 0
M  V30 12521 H 1220.89 2.15769 2.07999 0
M  V30 12522 H 1218.45 1.26187 1.01432 0
M  V30 12523 H 1220.44 0.523553 4.01299 0
M  V30 12524 H 1219.01 -0.0602291 3.12542 0
M  V30 12525 H 1218.23 2.4254 3.10754 0
M  V30 12526 H 1219.52 2.74878 4.28158 0
M  V30 12527 H 1218.92 -0.120306 5.65572 0
M  V30 12528 H 1217.48 0.245877 6.51336 0
M  V30 12529 N 1220.91 -1.05686 1.16912 0
M  V30 12530 C 1221.84 -2.1329 0.839044 0
M  V30 12531 C 1222.86 -1.62047 -0.156392 0
M  V30 12532 O 1224.04 -1.78366 0.0692192 0
M  V30 12533 C 1221.14 -3.38122 0.229558 0
M  V30 12534 C 1220.32 -4.18659 1.26662 0
M  V30 12535 C 1219.38 -5.21842 0.675811 0
M  V30 12536 O 1218.4 -5.53049 1.3463 0
M  V30 12537 N 1219.6 -5.78034 -0.534532 0
M  V30 12538 H 1222.37 -2.42203 1.76515 0
M  V30 12539 H 1219.93 -1.2174 1.06729 0
M  V30 12540 H 1221.92 -4.04305 -0.178868 0
M  V30 12541 H 1220.49 -3.06783 -0.60023 0
M  V30 12542 H 1219.71 -3.4804 1.85099 0
M  V30 12543 H 1221 -4.6927 1.9663 0
M  V30 12544 H 1220.4 -5.54955 -1.09731 0
M  V30 12545 H 1218.96 -6.45763 -0.885087 0
M  V30 12546 N 1222.39 -0.968567 -1.24324 0
M  V30 12547 C 1223.32 -0.518323 -2.27674 0
M  V30 12548 C 1224.3 0.442479 -1.64244 0
M  V30 12549 O 1225.48 0.338416 -1.91229 0
M  V30 12550 C 1222.61 0.191459 -3.46772 0
M  V30 12551 C 1221.57 -0.685449 -4.22476 0
M  V30 12552 C 1220.89 0.155873 -5.34473 0
M  V30 12553 C 1222.19 -1.97047 -4.83704 0
M  V30 12554 H 1223.89 -1.38215 -2.65588 0
M  V30 12555 H 1221.43 -0.66604 -1.27671 0
M  V30 12556 H 1223.39 0.517667 -4.18208 0
M  V30 12557 H 1222.11 1.08965 -3.07887 0
M  V30 12558 H 1220.77 -0.994942 -3.52841 0
M  V30 12559 H 1220.42 1.05424 -4.91828 0
M  V30 12560 H 1220.12 -0.427655 -5.86042 0
M  V30 12561 H 1221.64 0.476733 -6.08736 0
M  V30 12562 H 1223.06 -1.70979 -5.4721 0
M  V30 12563 H 1221.45 -2.50079 -5.45509 0
M  V30 12564 H 1222.52 -2.66484 -4.0511 0
M  V30 12565 N 1223.87 1.39211 -0.738786 0
M  V30 12566 C 1224.8 2.33209 -0.11647 0
M  V30 12567 C 1225.78 1.54108 0.720056 0
M  V30 12568 O 1226.96 1.82486 0.664264 0
M  V30 12569 C 1224.09 3.38226 0.78872 0
M  V30 12570 C 1223.05 4.27963 0.0560636 0
M  V30 12571 C 1222.37 5.2371 1.07852 0
M  V30 12572 C 1223.67 5.10508 -1.1036 0
M  V30 12573 H 1225.37 2.85501 -0.901649 0
M  V30 12574 H 1222.91 1.37272 -0.435032 0
M  V30 12575 H 1224.87 4.02938 1.23364 0
M  V30 12576 H 1223.59 2.84382 1.60606 0
M  V30 12577 H 1222.25 3.64735 -0.369274 0
M  V30 12578 H 1221.9 4.66161 1.88953 0
M  V30 12579 H 1221.6 5.846 0.593048 0
M  V30 12580 H 1223.12 5.91299 1.52307 0
M  V30 12581 H 1224.53 5.68544 -0.736943 0
M  V30 12582 H 1222.93 5.80558 -1.51895 0
M  V30 12583 H 1224 4.45117 -1.92352 0
M  V30 12584 N 1225.34 0.486708 1.49896 0
M  V30 12585 C 1226.27 -0.288898 2.31706 0
M  V30 12586 C 1227.26 -0.975901 1.3932 0
M  V30 12587 O 1228.44 -0.970065 1.68236 0
M  V30 12588 C 1225.57 -1.36218 3.19471 0
M  V30 12589 C 1224.52 -0.795884 4.20535 0
M  V30 12590 C 1223.85 -1.96862 4.97141 0
M  V30 12591 C 1225.15 0.203421 5.21904 0
M  V30 12592 H 1226.84 0.393934 2.96797 0
M  V30 12593 H 1224.39 0.190894 1.42729 0
M  V30 12594 H 1226.34 -1.91238 3.75508 0
M  V30 12595 H 1225.07 -2.074 2.52295 0
M  V30 12596 H 1223.73 -0.267538 3.65622 0
M  V30 12597 H 1223.37 -2.66779 4.26425 0
M  V30 12598 H 1223.07 -1.59585 5.65514 0
M  V30 12599 H 1224.6 -2.52343 5.56017 0
M  V30 12600 H 1226.01 -0.258144 5.72719 0
M  V30 12601 H 1224.41 0.491273 5.98086 0
M  V30 12602 H 1225.48 1.12414 4.7169 0
M  V30 12603 N 1226.82 -1.56058 0.219941 0
M  V30 12604 C 1228.23 -1.84462 -0.288203 0
M  V30 12605 C 1228.59 -1.14128 -1.59591 0
M  V30 12606 O 1227.71 -0.410411 -2.12473 0
M  V30 12607 C 1228.31 -3.34634 -0.529689 0
M  V30 12608 C 1226.86 -3.63361 -0.982145 0
M  V30 12609 C 1226.01 -2.77265 -0.0443292 0
M  V30 12610 H 1228.96 -1.52387 0.44317 0
M  V30 12611 H 1228.98 -3.54752 -1.3759 0
M  V30 12612 H 1228.5 -3.85796 0.422243 0
M  V30 12613 H 1226.6 -3.17653 -1.94749 0
M  V30 12614 H 1226.71 -4.71361 -0.857668 0
M  V30 12615 H 1225.07 -2.48672 -0.550825 0
M  V30 12616 H 1225.86 -3.31225 0.902491 0
M  V30 12617 N 1228.3 0.053464 -1.57509 0
M  V30 12618 C 1229.54 0.754231 -1.89976 0
M  V30 12619 C 1229.91 1.73805 -0.815833 0
M  V30 12620 O 1231.11 2.48527 -1.0241 0
M  V30 12621 C 1229.38 1.42768 -3.27646 0
M  V30 12622 S 1230.94 2.16098 -3.81899 0
M  V30 12623 H 1227.75 0.250421 -0.66544 0
M  V30 12624 H 1230.36 0.00963883 -1.95498 0
M  V30 12625 H 1229.06 0.698087 -4.04419 0
M  V30 12626 H 1228.59 2.21133 -3.25367 0
M  V30 12627 H 1230.61 3.42895 -3.5866 0
M  V30 12628 N 1229.78 1.54207 0.325255 0
M  V30 12629 C 1231.01 1.76293 1.08298 0
M  V30 12630 C 1231.42 0.510722 1.81761 0
M  V30 12631 O 1230.78 -0.5185 1.7498 0
M  V30 12632 C 1230.83 2.95498 2.08238 0
M  V30 12633 O 1230.55 4.15877 1.37759 0
M  V30 12634 C 1232.05 3.29781 2.96242 0
M  V30 12635 H 1229.27 0.588576 0.322209 0
M  V30 12636 H 1231.82 2.0109 0.371896 0
M  V30 12637 H 1229.97 2.72979 2.74884 0
M  V30 12638 H 1230.39 4.82918 2.04672 0
M  V30 12639 H 1231.86 4.16495 3.62265 0
M  V30 12640 H 1232.34 2.46874 3.63249 0
M  V30 12641 H 1232.94 3.54372 2.3516 0
M  V30 12642 N 1231.26 -0.58723 1.46251 0
M  V30 12643 C 1232.67 -1.16933 1.45546 0
M  V30 12644 C 1233.02 -1.9524 0.193879 0
M  V30 12645 O 1232.14 -2.04652 -0.70332 0
M  V30 12646 C 1232.74 -2.12723 2.63693 0
M  V30 12647 C 1231.3 -2.66267 2.66043 0
M  V30 12648 C 1230.45 -1.42051 2.38153 0
M  V30 12649 H 1233.4 -0.375411 1.54196 0
M  V30 12650 H 1233.42 -2.96111 2.38953 0
M  V30 12651 H 1232.93 -1.55703 3.55497 0
M  V30 12652 H 1231.03 -3.2717 1.783 0
M  V30 12653 H 1231.14 -3.0931 3.65874 0
M  V30 12654 H 1229.51 -1.71707 1.88119 0
M  V30 12655 H 1230.29 -0.868675 3.32128 0
M  V30 12656 N 1232.74 -1.33881 -0.831482 0
M  V30 12657 C 1233.67 -1.20587 -1.94914 0
M  V30 12658 C 1234.68 -0.135026 -1.62239 0
M  V30 12659 O 1235.87 -0.386116 -1.74274 0
M  V30 12660 C 1232.97 -0.828712 -3.28612 0
M  V30 12661 C 1232.14 -1.99275 -3.89369 0
M  V30 12662 C 1231.2 -1.59537 -5.01432 0
M  V30 12663 O 1230.23 -2.31076 -5.20185 0
M  V30 12664 N 1231.43 -0.5046 -5.78303 0
M  V30 12665 H 1234.19 -2.16869 -2.06852 0
M  V30 12666 H 1231.76 -1.26723 -1.00761 0
M  V30 12667 H 1233.75 -0.544827 -4.01016 0
M  V30 12668 H 1232.32 0.0436534 -3.1257 0
M  V30 12669 H 1231.54 -2.44185 -3.09463 0
M  V30 12670 H 1232.83 -2.77145 -4.26694 0
M  V30 12671 H 1232.22 0.0903105 -5.65628 0
M  V30 12672 H 1230.78 -0.280415 -6.51197 0
M  V30 12673 N 1234.21 1.05064 -1.1747 0
M  V30 12674 C 1235.16 2.12841 -0.89259 0
M  V30 12675 C 1236.13 1.65288 0.16402 0
M  V30 12676 O 1237.32 1.90782 0.026537 0
M  V30 12677 C 1234.46 3.42614 -0.41344 0
M  V30 12678 C 1233.57 4.03835 -1.53432 0
M  V30 12679 C 1232.7 5.21531 -1.00891 0
M  V30 12680 C 1231.74 5.74761 -2.10515 0
M  V30 12681 N 1230.88 6.83756 -1.59442 0
M  V30 12682 H 1235.72 2.36312 -1.81551 0
M  V30 12683 H 1233.26 1.15929 -0.905483 0
M  V30 12684 H 1235.21 4.17035 -0.117181 0
M  V30 12685 H 1233.84 3.19323 0.472517 0
M  V30 12686 H 1232.9 3.2684 -1.94627 0
M  V30 12687 H 1234.21 4.3938 -2.36108 0
M  V30 12688 H 1233.36 6.03027 -0.666575 0
M  V30 12689 H 1232.1 4.87464 -0.151608 0
M  V30 12690 H 1231.11 4.91893 -2.45604 0
M  V30 12691 H 1232.33 6.10875 -2.96663 0
M  V30 12692 H 1230.28 6.51584 -0.759849 0
M  V30 12693 H 1230.19 7.18311 -2.35724 0
M  V30 12694 H 1231.46 7.68901 -1.28105 0
M  V30 12695 O 1235.73 1.10425 1.17849 0
M  V30 12696 H 1236.42 0.80552 1.76156 0
M  V30 END ATOM
M  V30 BEGIN BOND
M  V30 END BOND
M  V30 END CTAB
M  END
$$$$
