drugbank_target|P00451 Coagulation factor VIII (DB00055; DB00100; DB06050; DB11300; DB11312; DB11571; DB11572; DB12872; DB13133; DB13151; DB13152; DB13933; DB14700)
 OpenBabel12092119223D

  0  0  0     0  0            999 V3000
M  V30 BEGIN CTAB
M  V30 COUNTS 37274 37738 0 0 0
M  V30 BEGIN ATOM
M  V30 1 H -0.908 1.98254 -0.117106 0
M  V30 2 N 0 1.576 0 0
M  V30 3 C 0.933 2.03868 1.02534 0
M  V30 4 C 1.911 0.928543 1.3348 0
M  V30 5 O 3.095 1.19667 1.45644 0
M  V30 6 C 0.222 2.43627 2.35294 0
M  V30 7 C -0.732 3.65373 2.2001 0
M  V30 8 S 0.101 5.13292 1.52614 0
M  V30 9 C 1.257 5.56322 2.86805 0
M  V30 10 H 1.49 2.90518 0.631377 0
M  V30 11 H -0.977 1.52953 0.210867 0
M  V30 12 H 0.981 2.67203 3.11629 0
M  V30 13 H -0.358 1.57376 2.7183 0
M  V30 14 H -1.165 3.90944 3.18086 0
M  V30 15 H -1.563 3.418 1.51819 0
M  V30 16 H 0.729 5.58782 3.83104 0
M  V30 17 H 1.672 6.56266 2.65933 0
M  V30 18 H 2.08 4.83886 2.90714 0
M  V30 19 N 1.4781 -0.272755 1.55222 0
M  V30 20 C 2.4101 -1.35946 1.8453 0
M  V30 21 C 3.4231 -1.45525 0.729818 0
M  V30 22 O 4.6121 -1.47337 1.00767 0
M  V30 23 C 1.7121 -2.74069 1.99347 0
M  V30 24 C 0.8851 -2.87079 3.30007 0
M  V30 25 C -0.0559 -4.05879 3.34886 0
M  V30 26 O -1.0299 -3.96626 4.08261 0
M  V30 27 N 0.1721 -5.17857 2.62307 0
M  V30 28 H 2.9371 -1.11149 2.78327 0
M  V30 29 H 0.4981 -0.462869 1.55142 0
M  V30 30 H 2.4901 -3.51838 1.99981 0
M  V30 31 H 1.0601 -2.91688 1.12415 0
M  V30 32 H 0.2801 -1.96193 3.41909 0
M  V30 33 H 1.5681 -2.92701 4.16177 0
M  V30 34 H 0.9661 -5.28261 2.02377 0
M  V30 35 H -0.4769 -5.93855 2.68663 0
M  V30 36 N 2.9562 -1.48159 -0.537278 0
M  V30 37 C 4.2052 -1.5506 -1.28993 0
M  V30 38 C 4.5182 -0.226211 -1.94288 0
M  V30 39 O 5.7242 -0.173395 -2.70946 0
M  V30 40 C 4.1802 -2.73429 -2.34018 0
M  V30 41 C 3.7882 -4.1248 -1.74825 0
M  V30 42 C 5.5322 -2.89638 -3.10339 0
M  V30 43 C 3.4392 -5.22121 -2.77747 0
M  V30 44 H 2.3692 -0.577231 -0.485098 0
M  V30 45 H 5.0202 -1.74478 -0.568317 0
M  V30 46 H 3.4022 -2.47431 -3.09182 0
M  V30 47 H 4.5762 -4.48466 -1.05899 0
M  V30 48 H 2.8912 -4.01327 -1.11022 0
M  V30 49 H 5.4882 -3.68718 -3.87235 0
M  V30 50 H 5.8312 -1.9882 -3.65754 0
M  V30 51 H 6.3642 -3.15502 -2.42288 0
M  V30 52 H 3.1032 -6.1488 -2.27161 0
M  V30 53 H 2.6232 -4.90631 -3.45024 0
M  V30 54 H 4.3022 -5.49924 -3.4087 0
M  V30 55 N 4.4343 0.785586 -1.36625 0
M  V30 56 C 5.3443 1.92964 -1.33425 0
M  V30 57 C 6.3603 1.72394 -0.235851 0
M  V30 58 O 7.5363 1.95866 -0.468878 0
M  V30 59 C 4.6013 3.27884 -1.12662 0
M  V30 60 C 3.6623 3.61204 -2.32013 0
M  V30 61 C 2.8953 4.89687 -2.12231 0
M  V30 62 O 3.1183 5.59704 -1.09945 0
M  V30 63 O 2.0523 5.21752 -3.00098 0
M  V30 64 H 5.8783 1.98613 -2.29753 0
M  V30 65 H 3.4633 0.926384 -1.17211 0
M  V30 66 H 5.3453 4.08614 -1.03016 0
M  V30 67 H 4.0203 3.23118 -0.193991 0
M  V30 68 H 2.9273 2.80765 -2.47228 0
M  V30 69 H 4.2603 3.70698 -3.23796 0
M  V30 70 N 5.9124 1.20967 1.01018 0
M  V30 71 C 6.8424 0.988272 2.11555 0
M  V30 72 C 7.8234 -0.0849778 1.69888 0
M  V30 73 O 9.0084 0.0738202 1.9406 0
M  V30 74 C 6.1384 0.546528 3.42973 0
M  V30 75 C 5.0924 1.56375 3.9841 0
M  V30 76 C 4.4184 0.97842 5.25672 0
M  V30 77 C 5.7184 2.94922 4.31066 0
M  V30 78 H 7.4124 1.91276 2.30334 0
M  V30 79 H 4.9584 0.921073 1.1069 0
M  V30 80 H 6.9114 0.378839 4.19694 0
M  V30 81 H 5.6354 -0.413598 3.23971 0
M  V30 82 H 4.2944 1.71891 3.23804 0
M  V30 83 H 3.9424 0.0101688 5.02999 0
M  V30 84 H 3.6424 1.65784 5.63728 0
M  V30 85 H 5.1664 0.821939 6.05043 0
M  V30 86 H 6.5804 2.8288 4.9865 0
M  V30 87 H 4.9774 3.5983 4.80253 0
M  V30 88 H 6.0474 3.4616 3.39561 0
M  V30 89 N 7.3905 -1.2043 1.01659 0
M  V30 90 C 8.6155 -1.94318 0.724942 0
M  V30 91 C 9.0405 -1.74266 -0.708034 0
M  V30 92 O 8.3985 -1.03694 -1.48719 0
M  V30 93 C 8.4465 -3.44486 1.06591 0
M  V30 94 O 7.5505 -4.12017 0.177599 0
M  V30 95 H 6.8915 -0.60708 0.26898 0
M  V30 96 H 9.4215 -1.52861 1.35995 0
M  V30 97 H 9.4315 -3.95106 1.01762 0
M  V30 98 H 8.1065 -3.58404 2.10997 0
M  V30 99 H 6.6835 -3.71821 0.283421 0
M  V30 100 N 8.8686 -0.792821 -1.36206 0
M  V30 101 C 10.0966 -0.378825 -2.03402 0
M  V30 102 C 10.5116 1.00586 -1.59774 0
M  V30 103 O 9.8686 1.64574 -0.788764 0
M  V30 104 C 9.9196 -0.43683 -3.58851 0
M  V30 105 O 9.6406 -1.76691 -4.00889 0
M  V30 106 C 11.1416 -0.0138943 -4.43298 0
M  V30 107 H 8.3616 -0.155673 -0.652692 0
M  V30 108 H 10.9056 -1.07261 -1.74113 0
M  V30 109 H 9.0606 0.208575 -3.86838 0
M  V30 110 H 9.4746 -1.72011 -4.95492 0
M  V30 111 H 10.9486 -0.105615 -5.51899 0
M  V30 112 H 11.4256 1.03915 -4.2673 0
M  V30 113 H 12.0316 -0.63192 -4.20579 0
M  V30 114 N 10.3467 1.47872 -0.545128 0
M  V30 115 C 11.5867 2.04391 -0.0187854 0
M  V30 116 C 11.9507 1.41162 1.30144 0
M  V30 117 O 13.1517 1.88656 1.91474 0
M  V30 118 C 11.4227 3.57299 0.0850867 0
M  V30 119 S 12.9817 4.35221 0.559302 0
M  V30 120 H 9.7997 0.710737 -0.0193301 0
M  V30 121 H 12.4017 1.81395 -0.729125 0
M  V30 122 H 11.1057 4.00847 -0.880351 0
M  V30 123 H 10.6367 3.84773 0.819348 0
M  V30 124 H 12.6517 4.61571 1.82118 0
M  V30 125 N 11.8248 0.280983 1.55075 0
M  V30 126 C 13.0718 -0.334115 1.99725 0
M  V30 127 C 13.3998 -1.5542 1.1694 0
M  V30 128 O 12.6548 -1.94361 0.228531 0
M  V30 129 C 12.9538 -0.754656 3.49342 0
M  V30 130 C 12.6198 0.361445 4.49449 0
M  V30 131 C 11.2818 0.667893 4.76542 0
M  V30 132 C 13.6338 1.11322 5.09173 0
M  V30 133 C 10.9618 1.7296 5.60626 0
M  V30 134 C 13.3138 2.1647 5.9441 0
M  V30 135 C 11.9778 2.47742 6.19822 0
M  V30 136 H 11.2478 -0.122261 0.730844 0
M  V30 137 H 13.8948 0.395917 1.87363 0
M  V30 138 H 12.1998 -1.56446 3.5921 0
M  V30 139 H 13.8968 -1.24142 3.813 0
M  V30 140 H 10.4868 0.112481 4.28452 0
M  V30 141 H 14.6708 0.88973 4.8826 0
M  V30 142 H 9.9268 1.97684 5.78559 0
M  V30 143 H 14.1008 2.75193 6.3972 0
M  V30 144 H 11.7278 3.30145 6.84769 0
M  V30 145 N 13.3029 -1.57598 0.00835791 0
M  V30 146 C 14.5499 -1.90928 -0.674732 0
M  V30 147 C 14.8779 -0.88277 -1.73313 0
M  V30 148 O 14.1329 0.111294 -1.95383 0
M  V30 149 C 14.4319 -3.3101 -1.34787 0
M  V30 150 C 14.0979 -4.48922 -0.421861 0
M  V30 151 C 12.7599 -4.8091 -0.166927 0
M  V30 152 C 15.1119 -5.20755 0.215211 0
M  V30 153 C 12.4399 -5.821 0.733232 0
M  V30 154 C 14.7919 -6.22905 1.1033 0
M  V30 155 C 13.4559 -6.53346 1.36733 0
M  V30 156 H 12.7259 -0.698656 -0.246902 0
M  V30 157 H 15.3729 -1.91387 0.0656779 0
M  V30 158 H 13.6779 -3.26714 -2.16253 0
M  V30 159 H 15.3749 -3.54061 -1.8826 0
M  V30 160 H 11.9649 -4.23934 -0.630729 0
M  V30 161 H 16.1489 -4.9629 0.0312829 0
M  V30 162 H 11.4049 -6.04042 0.945712 0
M  V30 163 H 15.5789 -6.77694 1.60325 0
M  V30 164 H 13.2059 -7.31573 2.06652 0
M  V30 165 N 14.781 0.264519 -1.55364 0
M  V30 166 C 15.711 1.33121 -1.91836 0
M  V30 167 C 16.692 1.51101 -0.781192 0
M  V30 168 O 17.877 1.64003 -1.04003 0
M  V30 169 C 15.007 2.68921 -2.19769 0
M  V30 170 C 13.961 2.65661 -3.35571 0
M  V30 171 C 13.287 4.05093 -3.49004 0
M  V30 172 C 14.587 2.24187 -4.71739 0
M  V30 173 H 16.281 1.02844 -2.81182 0
M  V30 174 H 13.827 0.493286 -1.35287 0
M  V30 175 H 15.78 3.43663 -2.43872 0
M  V30 176 H 14.504 3.00799 -1.27231 0
M  V30 177 H 13.163 1.93377 -3.1145 0
M  V30 178 H 12.811 4.34206 -2.53917 0
M  V30 179 H 12.511 4.03804 -4.26868 0
M  V30 180 H 14.035 4.81561 -3.75408 0
M  V30 181 H 15.449 2.88654 -4.9533 0
M  V30 182 H 13.846 2.34044 -5.52579 0
M  V30 183 H 14.916 1.19327 -4.69988 0
M  V30 184 N 16.2591 1.48442 0.529413 0
M  V30 185 C 17.4991 1.58086 1.29569 0
M  V30 186 C 17.8631 0.249302 1.90375 0
M  V30 187 O 19.0641 0.220738 2.67892 0
M  V30 188 C 17.3351 2.68793 2.35552 0
M  V30 189 S 18.8941 2.98207 3.21898 0
M  V30 190 H 15.7121 0.557922 0.440732 0
M  V30 191 H 18.3141 1.85966 0.603059 0
M  V30 192 H 17.0181 3.64102 1.89363 0
M  V30 193 H 16.5491 2.42817 3.09522 0
M  V30 194 H 18.5641 2.37548 4.35644 0
M  V30 195 N 17.7372 -0.778329 1.37039 0
M  V30 196 C 18.6672 -1.90546 1.34962 0
M  V30 197 C 19.6482 -1.68681 0.219274 0
M  V30 198 O 20.8332 -1.89634 0.418624 0
M  V30 199 C 17.9632 -3.27734 1.14925 0
M  V30 200 C 16.9172 -3.64147 2.24902 0
M  V30 201 C 16.2432 -4.99806 1.89996 0
M  V30 202 C 17.5432 -3.71579 3.67051 0
M  V30 203 H 19.2372 -1.92541 2.29277 0
M  V30 204 H 16.7832 -0.924948 1.10366 0
M  V30 205 H 18.7362 -4.06215 1.12104 0
M  V30 206 H 17.4602 -3.26154 0.170631 0
M  V30 207 H 16.1192 -2.8797 2.26868 0
M  V30 208 H 15.7672 -4.94759 0.906796 0
M  V30 209 H 15.4672 -5.25139 2.63634 0
M  V30 210 H 16.9912 -5.80694 1.88749 0
M  V30 211 H 18.4052 -4.40227 3.67251 0
M  V30 212 H 16.8022 -4.08405 4.39688 0
M  V30 213 H 17.8722 -2.72404 4.01154 0
M  V30 214 N 19.2153 -1.21501 -1.00376 0
M  V30 215 C 20.1453 -0.999478 -2.11028 0
M  V30 216 C 21.1263 0.0759671 -1.6993 0
M  V30 217 O 22.3113 -0.0841106 -1.94018 0
M  V30 218 C 19.4413 -0.564709 -3.42678 0
M  V30 219 C 18.3953 -1.58486 -3.97576 0
M  V30 220 C 17.7213 -1.00628 -5.25146 0
M  V30 221 C 19.0213 -2.97204 -4.29496 0
M  V30 222 H 20.7153 -1.92495 -2.29317 0
M  V30 223 H 18.2613 -0.92693 -1.102 0
M  V30 224 H 20.2143 -0.401091 -4.19487 0
M  V30 225 H 18.9383 0.396411 -3.24185 0
M  V30 226 H 17.5973 -1.73606 -3.22888 0
M  V30 227 H 17.2453 -0.0368439 -5.02987 0
M  V30 228 H 16.9453 -1.68771 -5.62841 0
M  V30 229 H 18.4693 -0.854015 -6.04598 0
M  V30 230 H 19.8833 -2.8552 -4.97143 0
M  V30 231 H 18.2803 -3.62372 -4.78338 0
M  V30 232 H 19.3503 -3.47956 -3.3772 0
M  V30 233 N 20.6934 1.19889 -1.02296 0
M  V30 234 C 22.1094 1.41462 -0.738954 0
M  V30 235 C 22.3094 1.89721 0.678846 0
M  V30 236 O 21.3654 2.07016 1.4457 0
M  V30 237 C 22.6784 2.43083 -1.77005 0
M  V30 238 C 24.2264 2.5684 -1.78892 0
M  V30 239 C 24.7014 3.61709 -2.80945 0
M  V30 240 N 26.1924 3.69199 -2.79725 0
M  V30 241 C 26.9274 4.50019 -3.55345 0
M  V30 242 N 26.4234 5.34592 -4.40662 0
M  V30 243 N 28.2164 4.44612 -3.43914 0
M  V30 244 H 20.3674 0.868827 -1.93817 0
M  V30 245 H 22.6304 0.44399 -0.837602 0
M  V30 246 H 22.3364 2.14636 -2.78612 0
M  V30 247 H 22.2104 3.4217 -1.58744 0
M  V30 248 H 24.5974 2.84614 -0.779674 0
M  V30 249 H 24.6784 1.57927 -2.01228 0
M  V30 250 H 24.3224 3.34678 -3.82038 0
M  V30 251 H 24.2524 4.60259 -2.5587 0
M  V30 252 H 26.7434 3.08794 -2.17842 0
M  V30 253 H 27.0564 5.93363 -4.95116 0
M  V30 254 H 25.4014 5.34073 -4.44737 0
M  V30 255 H 28.5924 3.7758 -2.76679 0
M  V30 256 H 28.7654 5.0736 -4.031 0
M  V30 257 N 22.1715 0.800033 1.35784 0
M  V30 258 C 23.4185 0.377342 1.98953 0
M  V30 259 C 23.7465 -1.05378 1.6348 0
M  V30 260 O 23.0015 -1.74459 0.886707 0
M  V30 261 C 23.3005 0.500276 3.53881 0
M  V30 262 C 22.9665 1.89375 4.09204 0
M  V30 263 C 21.6285 2.27499 4.24025 0
M  V30 264 C 23.9805 2.8057 4.39238 0
M  V30 265 C 21.3085 3.562 4.66195 0
M  V30 266 C 23.6605 4.0871 4.82844 0
M  V30 267 C 22.3245 4.46843 4.95871 0
M  V30 268 H 21.5945 0.138079 0.728021 0
M  V30 269 H 24.2415 1.01955 1.62103 0
M  V30 270 H 22.5465 -0.225405 3.91151 0
M  V30 271 H 24.2435 0.154097 4.00704 0
M  V30 272 H 20.8335 1.58753 3.98115 0
M  V30 273 H 25.0175 2.52367 4.27346 0
M  V30 274 H 20.2735 3.85602 4.74469 0
M  V30 275 H 24.4475 4.79481 5.05046 0
M  V30 276 H 22.0745 5.46623 5.28306 0
M  V30 277 N 23.6496 -1.47581 0.552962 0
M  V30 278 C 24.8896 -2.04379 0.0296245 0
M  V30 279 C 25.2536 -1.4185 -1.29393 0
M  V30 280 O 26.4546 -1.89669 -1.90471 0
M  V30 281 C 24.7256 -3.57339 -0.0661371 0
M  V30 282 S 26.2846 -4.35511 -0.536213 0
M  V30 283 H 23.1026 -0.710625 0.0230991 0
M  V30 284 H 25.7046 -1.81005 0.738734 0
M  V30 285 H 24.4086 -4.00374 0.901596 0
M  V30 286 H 23.9396 -3.85202 -0.798931 0
M  V30 287 H 25.9546 -4.6253 -1.79668 0
M  V30 288 N 25.1277 -0.289203 -1.54924 0
M  V30 289 C 26.3747 0.323519 -1.99899 0
M  V30 290 C 26.7027 1.54797 -1.17762 0
M  V30 291 O 25.9577 1.94237 -0.238835 0
M  V30 292 C 26.2567 0.736119 -3.49737 0
M  V30 293 C 25.9227 -0.385276 -4.49251 0
M  V30 294 C 24.5847 -0.693156 -4.76181 0
M  V30 295 C 26.9367 -1.14021 -5.08575 0
M  V30 296 C 24.2647 -1.7593 -5.59701 0
M  V30 297 C 26.6167 -2.19619 -5.93254 0
M  V30 298 C 25.2807 -2.51026 -6.185 0
M  V30 299 H 24.5507 0.118384 -0.731482 0
M  V30 300 H 27.1977 -0.405847 -1.8715 0
M  V30 301 H 25.5027 1.54539 -3.60035 0
M  V30 302 H 27.1997 1.22118 -3.81953 0
M  V30 303 H 23.7897 -0.135202 -4.28387 0
M  V30 304 H 27.9737 -0.915611 -4.87781 0
M  V30 305 H 23.2297 -2.0075 -5.77503 0
M  V30 306 H 27.4037 -2.78581 -6.38252 0
M  V30 307 H 25.0307 -3.33772 -6.83008 0
M  V30 308 N 26.6058 1.57591 -0.0167156 0
M  V30 309 C 27.8308 1.9598 0.67872 0
M  V30 310 C 28.2558 0.892546 1.65575 0
M  V30 311 O 27.6138 -0.147772 1.80697 0
M  V30 312 C 27.6618 3.33468 1.37227 0
M  V30 313 O 26.7658 3.28954 2.48722 0
M  V30 314 H 26.1068 0.639339 0.17928 0
M  V30 315 H 28.6368 2.04463 -0.0748802 0
M  V30 316 H 28.6468 3.69417 1.7319 0
M  V30 317 H 27.3218 4.10694 0.656007 0
M  V30 318 H 25.8988 3.04705 2.14963 0
M  V30 319 N 28.0839 -0.256276 1.55502 0
M  V30 320 C 29.0469 -1.30047 1.88734 0
M  V30 321 C 30.0469 -1.4154 0.763086 0
M  V30 322 O 31.2369 -1.40403 1.03115 0
M  V30 323 C 28.3689 -2.67953 2.10747 0
M  V30 324 H 29.5619 -1.01802 2.82093 0
M  V30 325 H 27.1149 -0.495134 1.4825 0
M  V30 326 H 27.8499 -3.01351 1.19825 0
M  V30 327 H 27.6349 -2.60993 2.92617 0
M  V30 328 H 29.1249 -3.43368 2.37673 0
M  V30 329 N 29.562 -1.4872 -0.521534 0
M  V30 330 C 30.79 -1.60843 -1.30142 0
M  V30 331 C 31.205 -0.271897 -1.86832 0
M  V30 332 O 30.562 0.739969 -1.66825 0
M  V30 333 C 30.613 -2.66155 -2.4463 0
M  V30 334 O 30.334 -3.94623 -1.90275 0
M  V30 335 C 31.835 -2.88795 -3.36322 0
M  V30 336 H 29.055 -0.542075 -0.395468 0
M  V30 337 H 31.599 -1.94609 -0.628285 0
M  V30 338 H 29.754 -2.35224 -3.07812 0
M  V30 339 H 30.168 -4.52468 -2.65279 0
M  V30 340 H 31.642 -3.66264 -4.12983 0
M  V30 341 H 32.119 -1.97934 -3.9207 0
M  V30 342 H 32.725 -3.21063 -2.78924 0
M  V30 343 N 31.0401 0.771051 -1.3745 0
M  V30 344 C 32.4561 1.07171 -1.18265 0
M  V30 345 C 32.6561 2.01491 -0.019287 0
M  V30 346 O 31.7121 2.44244 0.640408 0
M  V30 347 C 33.0251 1.66854 -2.50161 0
M  V30 348 C 34.5731 1.79109 -2.56689 0
M  V30 349 C 35.0481 2.42205 -3.88717 0
M  V30 350 N 36.5391 2.49655 -3.90162 0
M  V30 351 C 37.2741 2.9933 -4.8907 0
M  V30 352 N 36.7701 3.49172 -5.98374 0
M  V30 353 N 38.5631 2.9821 -4.76474 0
M  V30 354 H 30.7141 0.144796 -2.11906 0
M  V30 355 H 32.9771 0.126863 -0.939473 0
M  V30 356 H 32.6831 1.05017 -3.35655 0
M  V30 357 H 32.5571 2.6614 -2.673 0
M  V30 358 H 34.9441 2.40077 -1.71601 0
M  V30 359 H 35.0251 0.785757 -2.43433 0
M  V30 360 H 34.6691 1.81875 -4.74219 0
M  V30 361 H 34.5991 3.43345 -3.99276 0
M  V30 362 H 37.0901 2.14383 -3.11205 0
M  V30 363 H 37.4031 3.8548 -6.69795 0
M  V30 364 H 35.7481 3.47275 -6.02018 0
M  V30 365 H 38.9391 2.58572 -3.90203 0
M  V30 366 H 39.1121 3.36613 -5.53711 0
M  V30 367 N 32.5182 1.22032 0.997298 0
M  V30 368 C 33.9342 0.979326 1.26021 0
M  V30 369 C 34.1342 -0.32972 1.98784 0
M  V30 370 O 33.1902 -1.05345 2.29475 0
M  V30 371 C 34.5032 2.17509 2.07631 0
M  V30 372 C 36.0512 2.21817 2.2083 0
M  V30 373 C 36.5262 3.40933 3.05825 0
M  V30 374 N 38.0172 3.41067 3.13412 0
M  V30 375 C 38.7522 4.29885 3.79455 0
M  V30 376 N 38.2482 5.28914 4.47462 0
M  V30 377 N 40.0412 4.17673 3.76173 0
M  V30 378 H 32.1922 2.06202 0.509352 0
M  V30 379 H 34.4552 0.90334 0.287541 0
M  V30 380 H 34.1612 3.12415 1.61524 0
M  V30 381 H 34.0352 2.17206 3.08385 0
M  V30 382 H 36.4222 1.27462 2.66153 0
M  V30 383 H 36.5032 2.2616 1.1952 0
M  V30 384 H 36.1472 4.35586 2.61203 0
M  V30 385 H 36.0772 3.33829 4.07266 0
M  V30 386 H 38.5682 2.69406 2.65007 0
M  V30 387 H 38.8812 5.92973 4.95583 0
M  V30 388 H 37.2262 5.32831 4.46224 0
M  V30 389 H 40.4172 3.39564 3.22202 0
M  V30 390 H 40.5902 4.87098 4.27363 0
M  V30 391 N 33.9963 -1.19345 1.0293 0
M  V30 392 C 35.2263 -1.92717 0.744563 0
M  V30 393 C 35.6343 -1.75751 -0.700579 0
M  V30 394 O 34.9773 -1.07703 -1.48815 0
M  V30 395 C 35.0393 -3.44828 1.01657 0
M  V30 396 C 34.7033 -3.85564 2.45335 0
M  V30 397 C 35.7003 -3.90286 3.43472 0
M  V30 398 C 33.3853 -4.1719 2.79746 0
M  V30 399 C 35.3793 -4.26065 4.74075 0
M  V30 400 C 33.0663 -4.52642 4.10559 0
M  V30 401 C 34.0643 -4.57054 5.07534 0
M  V30 402 O 33.7523 -4.91685 6.36004 0
M  V30 403 H 33.4843 -0.618977 0.271742 0
M  V30 404 H 36.0383 -1.52415 1.37691 0
M  V30 405 H 34.2683 -3.85314 0.327084 0
M  V30 406 H 35.9573 -3.99437 0.721427 0
M  V30 407 H 36.7233 -3.66002 3.18225 0
M  V30 408 H 32.6023 -4.1294 2.04943 0
M  V30 409 H 36.1463 -4.29423 5.49765 0
M  V30 410 H 32.0433 -4.76383 4.35579 0
M  V30 411 H 32.8113 -5.09631 6.40483 0
M  V30 412 N 35.4744 -0.807222 -1.35358 0
M  V30 413 C 36.7044 -0.399796 -2.02695 0
M  V30 414 C 37.1124 0.994176 -1.60974 0
M  V30 415 O 36.4554 1.65209 -0.803226 0
M  V30 416 C 36.5174 -0.404445 -3.57218 0
M  V30 417 C 36.1814 -1.74904 -4.22206 0
M  V30 418 C 37.1784 -2.70743 -4.4384 0
M  V30 419 C 34.8634 -2.03322 -4.5931 0
M  V30 420 C 36.8574 -3.93183 -5.01683 0
M  V30 421 C 34.5444 -3.26026 -5.16866 0
M  V30 422 C 35.5424 -4.20774 -5.37994 0
M  V30 423 O 35.2304 -5.41312 -5.94337 0
M  V30 424 H 34.9624 -0.160517 -0.656666 0
M  V30 425 H 37.5164 -1.09235 -1.73945 0
M  V30 426 H 35.7464 0.344707 -3.85161 0
M  V30 427 H 37.4354 -0.0192429 -4.05895 0
M  V30 428 H 38.2014 -2.5008 -4.15554 0
M  V30 429 H 34.0804 -1.30384 -4.42178 0
M  V30 430 H 37.6244 -4.6715 -5.1809 0
M  V30 431 H 33.5214 -3.46559 -5.44579 0
M  V30 432 H 34.2894 -5.42618 -6.12787 0
M  V30 433 N 36.9525 1.47285 -0.560781 0
M  V30 434 C 37.8825 2.32857 0.173105 0
M  V30 435 C 38.8635 1.44009 0.905281 0
M  V30 436 O 40.0485 1.7286 0.885046 0
M  V30 437 C 37.1785 3.25861 1.20133 0
M  V30 438 C 36.1325 4.23978 0.585388 0
M  V30 439 C 35.4585 5.06332 1.7185 0
M  V30 440 C 36.7585 5.20242 -0.463178 0
M  V30 441 H 38.4525 2.94466 -0.541307 0
M  V30 442 H 35.9985 1.41601 -0.261764 0
M  V30 443 H 37.9515 3.84569 1.72293 0
M  V30 444 H 36.6755 2.62315 1.94573 0
M  V30 445 H 35.3345 3.66501 0.085054 0
M  V30 446 H 34.9825 4.39186 2.45203 0
M  V30 447 H 34.6825 5.72762 1.31213 0
M  V30 448 H 36.2065 5.67899 2.24329 0
M  V30 449 H 37.6205 5.73293 -0.027502 0
M  V30 450 H 36.0175 5.94896 -0.788627 0
M  V30 451 H 37.0875 4.65504 -1.35773 0
M  V30 452 N 38.4306 0.297415 1.54768 0
M  V30 453 C 39.6786 -0.312295 1.99673 0
M  V30 454 C 39.9996 -1.54686 1.18732 0
M  V30 455 O 39.2696 -1.93854 0.282382 0
M  V30 456 H 37.8496 -0.118381 0.73756 0
M  V30 457 H 40.5116 0.407915 1.90583 0
M  V30 458 H 39.6076 -0.586813 3.06534 0
M  V30 459 N 39.9087 -1.5758 0.0250728 0
M  V30 460 C 40.8717 -2.08896 -0.943139 0
M  V30 461 C 41.8717 -1.00321 -1.25668 0
M  V30 462 O 43.0617 -1.26495 -1.19769 0
M  V30 463 C 40.1937 -2.55143 -2.26086 0
M  V30 464 H 41.3867 -2.95723 -0.498775 0
M  V30 465 H 38.9397 -1.54703 -0.222888 0
M  V30 466 H 39.6747 -1.71633 -2.75159 0
M  V30 467 H 39.4597 -3.34461 -2.04641 0
M  V30 468 H 40.9497 -2.95083 -2.95492 0
M  V30 469 N 41.3868 0.248026 -1.55636 0
M  V30 470 C 42.6328 0.97767 -1.77678 0
M  V30 471 C 42.9658 1.85016 -0.590135 0
M  V30 472 O 42.2408 1.90095 0.411611 0
M  V30 473 C 42.5238 1.83914 -3.09593 0
M  V30 474 C 42.3768 0.99491 -4.38659 0
M  V30 475 C 43.6958 2.82183 -3.37729 0
M  V30 476 H 40.8148 0.354005 -0.646413 0
M  V30 477 H 43.4568 0.248253 -1.88371 0
M  V30 478 H 41.6068 2.46104 -3.00608 0
M  V30 479 H 43.2788 0.391789 -4.59633 0
M  V30 480 H 41.5218 0.299231 -4.32767 0
M  V30 481 H 42.1928 1.63145 -5.2734 0
M  V30 482 H 44.6688 2.30129 -3.4667 0
M  V30 483 H 43.5448 3.39582 -4.31249 0
M  V30 484 H 43.8058 3.58588 -2.58586 0
M  V30 485 N 42.8649 1.48995 0.513639 0
M  V30 486 C 43.7749 1.67443 1.64317 0
M  V30 487 C 44.7909 0.556947 1.64846 0
M  V30 488 O 45.9669 0.830082 1.83498 0
M  V30 489 C 43.0319 1.72515 3.00732 0
M  V30 490 C 42.0929 2.96009 3.1093 0
M  V30 491 C 41.3259 3.00829 4.40837 0
M  V30 492 O 41.5489 2.13594 5.28898 0
M  V30 493 O 40.4829 3.93168 4.55744 0
M  V30 494 H 44.3089 2.63106 1.51687 0
M  V30 495 H 41.8939 1.32588 0.688543 0
M  V30 496 H 43.7759 1.78277 3.81831 0
M  V30 497 H 42.4509 0.800278 3.13651 0
M  V30 498 H 41.3579 2.9577 2.29065 0
M  V30 499 H 42.6909 3.87934 3.02933 0
M  V30 500 N 44.343 -0.763751 1.37857 0
M  V30 501 C 45.273 -1.89103 1.36975 0
M  V30 502 C 46.254 -1.68439 0.237152 0
M  V30 503 O 47.439 -1.8918 0.438713 0
M  V30 504 C 44.569 -3.26496 1.18395 0
M  V30 505 C 43.523 -3.61741 2.28751 0
M  V30 506 C 42.849 -4.97762 1.95286 0
M  V30 507 C 44.149 -3.67665 3.70972 0
M  V30 508 H 45.843 -1.90099 2.31307 0
M  V30 509 H 43.389 -0.91319 1.11341 0
M  V30 510 H 45.342 -4.05003 1.16406 0
M  V30 511 H 44.066 -3.25955 0.205215 0
M  V30 512 H 42.725 -2.85547 2.29909 0
M  V30 513 H 42.373 -4.93769 0.959221 0
M  V30 514 H 42.073 -5.22313 2.69189 0
M  V30 515 H 43.597 -5.7866 1.94898 0
M  V30 516 H 45.011 -4.36307 3.719 0
M  V30 517 H 43.408 -4.03718 4.43995 0
M  V30 518 H 44.478 -2.68134 4.0402 0
M  V30 519 N 45.8211 -1.22559 -0.990812 0
M  V30 520 C 47.0461 -1.07862 -1.77145 0
M  V30 521 C 47.4711 0.366447 -1.84496 0
M  V30 522 O 46.8291 1.26478 -1.29896 0
M  V30 523 C 46.8771 -1.69686 -3.18181 0
M  V30 524 O 45.9811 -0.951946 -4.01263 0
M  V30 525 H 45.3221 -0.378712 -0.545411 0
M  V30 526 H 47.8521 -1.62399 -1.2445 0
M  V30 527 H 47.8621 -1.74496 -3.68802 0
M  V30 528 H 46.5371 -2.74841 -3.12146 0
M  V30 529 H 45.1141 -0.980011 -3.59792 0
M  V30 530 N 47.2992 1.18797 -1.03562 0
M  V30 531 C 48.5452 1.89192 -0.746867 0
M  V30 532 C 48.9002 1.78531 0.717245 0
M  V30 533 O 48.1932 1.17137 1.51622 0
M  V30 534 C 48.3872 3.38692 -1.14117 0
M  V30 535 C 48.2162 3.63902 -2.64207 0
M  V30 536 C 46.9862 3.81553 -3.31279 0
M  V30 537 C 49.1842 3.64903 -3.62423 0
M  V30 538 N 47.1662 3.94455 -4.70402 0
M  V30 539 C 48.5372 3.83458 -4.87196 0
M  V30 540 C 50.5922 3.47965 -3.56125 0
M  V30 541 C 49.2952 3.86829 -6.06429 0
M  V30 542 C 51.3212 3.52616 -4.7478 0
M  V30 543 C 50.6832 3.71663 -5.9837 0
M  V30 544 H 46.7822 0.711141 -0.325273 0
M  V30 545 H 49.3662 1.42727 -1.32428 0
M  V30 546 H 47.5372 3.83864 -0.591889 0
M  V30 547 H 49.2692 3.96634 -0.803966 0
M  V30 548 H 46.0242 3.80723 -2.81686 0
M  V30 549 H 46.4482 4.0474 -5.42692 0
M  V30 550 H 51.0902 3.32189 -2.61553 0
M  V30 551 H 48.8082 4.01395 -7.01362 0
M  V30 552 H 52.3942 3.40791 -4.71543 0
M  V30 553 H 51.2742 3.75145 -6.88648 0
M  V30 554 N 48.7773 0.814389 1.34928 0
M  V30 555 C 50.0543 0.321363 1.92942 0
M  V30 556 C 50.4343 -1.19014 1.74353 0
M  V30 557 O 49.7823 -1.99328 1.11716 0
M  V30 558 C 49.9923 0.741323 3.41036 0
M  V30 559 C 51.3403 0.735266 4.18185 0
M  V30 560 O 52.3643 0.68336 3.49584 0
M  V30 561 O 51.2233 0.800703 5.40602 0
M  V30 562 H 48.3173 0.0858893 0.822528 0
M  V30 563 H 50.8633 0.898609 1.43955 0
M  V30 564 H 49.6353 1.78276 3.4833 0
M  V30 565 H 49.2583 0.139307 3.97356 0
M  V30 566 N 50.2554 -1.46986 0.568584 0
M  V30 567 C 51.4854 -2.0653 0.0539173 0
M  V30 568 C 51.8934 -1.42004 -1.25026 0
M  V30 569 O 51.2364 -0.514541 -1.76347 0
M  V30 570 C 51.2984 -3.58938 -0.200854 0
M  V30 571 C 50.9624 -4.45572 1.01559 0
M  V30 572 C 51.9594 -4.82986 1.92407 0
M  V30 573 C 49.6444 -4.8692 1.23346 0
M  V30 574 C 51.6384 -5.60559 3.03402 0
M  V30 575 C 49.3254 -5.64255 2.34649 0
M  V30 576 C 50.3234 -6.00986 3.24507 0
M  V30 577 O 50.0114 -6.76761 4.33878 0
M  V30 578 H 49.7434 -0.674292 0.0480234 0
M  V30 579 H 52.2974 -1.89812 0.784896 0
M  V30 580 H 50.5274 -3.73911 -0.986279 0
M  V30 581 H 52.2164 -4.0046 -0.662294 0
M  V30 582 H 52.9824 -4.51633 1.76785 0
M  V30 583 H 48.8614 -4.57789 0.543178 0
M  V30 584 H 52.4054 -5.89147 3.73565 0
M  V30 585 H 48.3024 -5.95021 2.5024 0
M  V30 586 H 49.0704 -6.95168 4.32068 0
M  V30 587 N 51.7335 -0.305618 -1.54608 0
M  V30 588 C 52.6665 0.610536 -2.19881 0
M  V30 589 C 53.6445 1.1294 -1.16976 0
M  V30 590 O 54.8285 1.19673 -1.45638 0
M  V30 591 C 51.9555 1.83583 -2.84631 0
M  V30 592 C 51.0015 1.4498 -4.01102 0
M  V30 593 S 51.8345 0.501793 -5.33144 0
M  V30 594 C 52.9905 1.73478 -6.01379 0
M  V30 595 H 53.2235 0.0560177 -2.97247 0
M  V30 596 H 50.7565 -0.0897434 -1.54139 0
M  V30 597 H 52.7145 2.53898 -3.22562 0
M  V30 598 H 51.3755 2.36152 -2.07102 0
M  V30 599 H 50.5685 2.36236 -4.45206 0
M  V30 600 H 50.1705 0.826553 -3.64752 0
M  V30 601 H 52.4625 2.67473 -6.22467 0
M  V30 602 H 53.4055 1.33622 -6.95378 0
M  V30 603 H 53.8135 1.9136 -5.31076 0
M  V30 604 N 53.2116 1.57565 -0.0334293 0
M  V30 605 C 54.1436 2.0739 0.975811 0
M  V30 606 C 55.1566 0.998166 1.2861 0
M  V30 607 O 56.3456 1.27426 1.25 0
M  V30 608 C 53.4456 2.4871 2.30209 0
M  V30 609 C 52.6186 3.79413 2.17634 0
M  V30 610 C 51.6776 4.07237 3.33233 0
M  V30 611 O 50.7036 4.77425 3.09927 0
M  V30 612 N 51.9056 3.5775 4.5716 0
M  V30 613 H 54.6706 2.94598 0.55066 0
M  V30 614 H 52.2316 1.61173 0.15323 0
M  V30 615 H 54.2236 2.64413 3.06378 0
M  V30 616 H 52.7936 1.66845 2.64351 0
M  V30 617 H 52.0136 3.73465 1.26165 0
M  V30 618 H 53.3016 4.65038 2.0644 0
M  V30 619 H 52.6996 3.00976 4.78989 0
M  V30 620 H 51.2566 3.78724 5.30482 0
M  V30 621 N 54.6897 -0.239769 1.55765 0
M  V30 622 C 55.9147 -0.988373 1.82335 0
M  V30 623 C 56.3397 -1.77886 0.611421 0
M  V30 624 O 55.6977 -1.75889 -0.439639 0
M  V30 625 C 55.7457 -1.89627 3.06715 0
M  V30 626 O 54.8497 -2.98904 2.84131 0
M  V30 627 H 54.1907 -0.280858 0.601677 0
M  V30 628 H 56.7207 -0.258597 2.02959 0
M  V30 629 H 56.7307 -2.30957 3.36338 0
M  V30 630 H 55.4057 -1.31511 3.9456 0
M  V30 631 H 53.9827 -2.61651 2.65694 0
M  V30 632 N 56.1678 -1.49265 -0.50573 0
M  V30 633 C 57.4448 -1.49012 -1.26707 0
M  V30 634 C 57.8248 -0.215205 -2.1 0
M  V30 635 O 57.1728 0.802547 -2.13943 0
M  V30 636 C 57.3828 -2.7663 -2.12783 0
M  V30 637 C 58.7308 -3.25932 -2.72127 0
M  V30 638 O 59.7548 -2.77715 -2.23054 0
M  V30 639 O 58.6138 -4.09897 -3.61451 0
M  V30 640 H 55.7078 -0.596197 -0.57313 0
M  V30 641 H 58.2538 -1.61524 -0.52039 0
M  V30 642 H 57.0258 -3.60916 -1.5118 0
M  V30 643 H 56.6488 -2.66956 -2.94653 0
M  V30 644 N 57.6459 0.756429 -1.3826 0
M  V30 645 C 58.5759 1.88374 -1.37976 0
M  V30 646 C 59.5569 1.68311 -0.246082 0
M  V30 647 O 60.7419 1.88944 -0.44874 0
M  V30 648 C 57.8719 3.25864 -1.20125 0
M  V30 649 C 56.8259 3.60523 -2.30666 0
M  V30 650 C 56.1519 4.9672 -1.97923 0
M  V30 651 C 57.4519 3.65692 -3.72916 0
M  V30 652 H 59.1459 1.88869 -2.32312 0
M  V30 653 H 56.6919 0.907272 -1.11824 0
M  V30 654 H 58.6449 4.0438 -1.18552 0
M  V30 655 H 57.3689 3.25841 -0.222498 0
M  V30 656 H 56.0279 2.84324 -2.3142 0
M  V30 657 H 55.6759 4.93253 -0.985393 0
M  V30 658 H 55.3759 5.20878 -2.71955 0
M  V30 659 H 56.8999 5.77618 -1.97964 0
M  V30 660 H 58.3139 4.34328 -3.74208 0
M  V30 661 H 56.7109 4.01358 -4.4613 0
M  V30 662 H 57.7809 2.65987 -4.05436 0
M  V30 663 N 59.124 1.23083 0.984299 0
M  V30 664 C 60.372 1.05848 1.72165 0
M  V30 665 C 60.693 -0.406049 1.90726 0
M  V30 666 O 59.963 -1.29139 1.47309 0
M  V30 667 H 58.543 0.388685 0.637913 0
M  V30 668 H 61.205 1.54736 1.18503 0
M  V30 669 H 60.301 1.54327 2.71274 0
M  V30 670 N 60.6021 -1.18246 1.0419 0
M  V30 671 C 61.5121 -2.25574 0.644476 0
M  V30 672 C 62.5281 -1.70845 -0.329826 0
M  V30 673 O 63.7041 -2.00554 -0.184443 0
M  V30 674 C 60.7691 -3.46697 0.014877 0
M  V30 675 C 59.8301 -4.16554 1.03834 0
M  V30 676 C 59.0631 -5.31894 0.438692 0
M  V30 677 O 59.2861 -5.65385 -0.754752 0
M  V30 678 O 58.2201 -5.90459 1.168 0
M  V30 679 H 62.0461 -2.61836 1.53869 0
M  V30 680 H 59.6311 -1.25352 0.812854 0
M  V30 681 H 61.5131 -4.20062 -0.335538 0
M  V30 682 H 60.1881 -3.12255 -0.853138 0
M  V30 683 H 59.0951 -3.45251 1.44057 0
M  V30 684 H 60.4281 -4.54998 1.87716 0
M  V30 685 N 62.0802 -0.821533 -1.34494 0
M  V30 686 C 63.0102 -0.257138 -2.3208 0
M  V30 687 C 63.9912 0.625645 -1.58176 0
M  V30 688 O 65.1762 0.552811 -1.86166 0
M  V30 689 C 62.3062 0.582958 -3.42372 0
M  V30 690 C 61.2602 -0.202571 -4.2752 0
M  V30 691 C 60.5862 0.760179 -5.29269 0
M  V30 692 C 61.8862 -1.40998 -5.02908 0
M  V30 693 H 63.5802 -1.07247 -2.79532 0
M  V30 694 H 61.1262 -0.517163 -1.34393 0
M  V30 695 H 63.0792 0.987972 -4.09655 0
M  V30 696 H 61.8032 1.43133 -2.93565 0
M  V30 697 H 60.4622 -0.588936 -3.61838 0
M  V30 698 H 60.1102 1.60447 -4.76724 0
M  V30 699 H 59.8102 0.238809 -5.87115 0
M  V30 700 H 61.3342 1.16308 -5.9942 0
M  V30 701 H 62.7482 -1.07905 -5.63054 0
M  V30 702 H 61.1452 -1.86689 -5.70322 0
M  V30 703 H 62.2152 -2.1889 -4.32684 0
M  V30 704 N 63.5583 1.46682 -0.576371 0
M  V30 705 C 64.9693 1.86112 -0.148091 0
M  V30 706 C 65.3203 1.48073 1.2872 0
M  V30 707 O 64.4453 0.892656 1.97131 0
M  V30 708 C 65.0403 3.37786 -0.261982 0
M  V30 709 C 63.5993 3.76235 0.111384 0
M  V30 710 C 62.7463 2.70713 -0.60083 0
M  V30 711 H 65.6973 1.37927 -0.78497 0
M  V30 712 H 65.7183 3.77007 0.514364 0
M  V30 713 H 65.2303 3.6544 -1.30671 0
M  V30 714 H 63.3313 3.54198 1.15649 0
M  V30 715 H 63.4443 4.78391 -0.26052 0
M  V30 716 H 61.8083 2.54666 -0.0417783 0
M  V30 717 H 62.5913 3.01208 -1.64708 0
M  V30 718 N 65.0364 0.313813 1.54444 0
M  V30 719 C 66.2824 -0.292108 2.00685 0
M  V30 720 C 66.6154 -1.52548 1.20177 0
M  V30 721 O 65.8904 -1.92452 0.281531 0
M  V30 722 C 66.1734 -0.635968 3.5444 0
M  V30 723 C 66.0264 0.607437 4.4568 0
M  V30 724 C 67.3454 -1.45747 4.15266 0
M  V30 725 H 64.4644 -0.104697 0.729526 0
M  V30 726 H 67.1064 0.428457 1.85106 0
M  V30 727 H 65.2564 -1.24986 3.67846 0
M  V30 728 H 66.9284 1.24581 4.44159 0
M  V30 729 H 65.1714 1.23822 4.15753 0
M  V30 730 H 65.8424 0.322515 5.51057 0
M  V30 731 H 68.3184 -0.938645 4.05375 0
M  V30 732 H 67.1944 -1.66683 5.2298 0
M  V30 733 H 67.4554 -2.45063 3.67963 0
M  V30 734 N 66.5145 -1.57545 0.0417849 0
M  V30 735 C 67.7915 -1.83642 -0.673433 0
M  V30 736 C 68.1715 -0.928298 -1.89594 0
M  V30 737 O 67.5195 0.0129955 -2.28496 0
M  V30 738 C 67.7295 -3.33155 -1.03964 0
M  V30 739 C 69.0775 -3.99941 -1.42592 0
M  V30 740 O 70.1015 -3.37725 -1.13226 0
M  V30 741 O 68.9605 -5.09619 -1.9736 0
M  V30 742 H 66.0545 -0.757638 -0.331533 0
M  V30 743 H 68.6005 -1.69554 0.070433 0
M  V30 744 H 67.3725 -3.9093 -0.170098 0
M  V30 745 H 66.9955 -3.52396 -1.84126 0
M  V30 746 N 67.9926 0.231505 -1.5589 0
M  V30 747 C 68.9556 1.27028 -1.90779 0
M  V30 748 C 69.9556 1.40308 -0.785507 0
M  V30 749 O 71.1456 1.38744 -1.05336 0
M  V30 750 C 68.2776 2.64566 -2.14983 0
M  V30 751 H 69.4706 0.973017 -2.83677 0
M  V30 752 H 67.0236 0.471486 -1.49019 0
M  V30 753 H 67.7586 2.99406 -1.24604 0
M  V30 754 H 67.5436 2.56305 -2.96732 0
M  V30 755 H 69.0336 3.39543 -2.43105 0
M  V30 756 N 69.4707 1.49531 0.497807 0
M  V30 757 C 70.8867 1.36365 0.829266 0
M  V30 758 C 71.0867 0.399184 1.97506 0
M  V30 759 O 70.1427 -0.167977 2.51941 0
M  V30 760 C 71.4557 2.77153 1.16647 0
M  V30 761 C 73.0037 2.85877 1.27449 0
M  V30 762 C 73.4787 4.2744 1.64497 0
M  V30 763 N 74.9697 4.30265 1.7154 0
M  V30 764 C 75.7047 5.3677 2.01656 0
M  V30 765 N 75.2007 6.53516 2.29976 0
M  V30 766 N 76.9937 5.24189 2.02934 0
M  V30 767 H 69.1447 2.10831 -0.257703 0
M  V30 768 H 71.4077 0.946534 -0.0527091 0
M  V30 769 H 71.1137 3.49442 0.397872 0
M  V30 770 H 70.9877 3.12722 2.10915 0
M  V30 771 H 73.3747 2.13824 2.0338 0
M  V30 772 H 73.4557 2.53887 0.312244 0
M  V30 773 H 73.0997 5.00021 0.891151 0
M  V30 774 H 73.0297 4.56896 2.61827 0
M  V30 775 H 75.5207 3.4607 1.51802 0
M  V30 776 H 75.8337 7.30506 2.52153 0
M  V30 777 H 74.1787 6.56737 2.27425 0
M  V30 778 H 77.3697 4.31988 1.80289 0
M  V30 779 H 77.5427 6.07286 2.26071 0
M  V30 780 N 70.9488 -0.749086 1.3866 0
M  V30 781 C 72.1958 -1.50833 1.35114 0
M  V30 782 C 72.5238 -1.94415 -0.0574049 0
M  V30 783 O 71.7788 -1.66065 -1.03541 0
M  V30 784 C 72.0778 -2.7712 2.25697 0
M  V30 785 C 71.7438 -2.52477 3.73585 0
M  V30 786 C 70.4058 -2.45466 4.13884 0
M  V30 787 C 72.7578 -2.31066 4.67181 0
M  V30 788 C 70.0858 -2.15064 5.45861 0
M  V30 789 C 72.4378 -2.02183 5.9942 0
M  V30 790 C 71.1018 -1.93631 6.38798 0
M  V30 791 H 70.3718 -0.551936 0.494416 0
M  V30 792 H 73.0188 -0.860979 1.71054 0
M  V30 793 H 71.3238 -3.46528 1.82827 0
M  V30 794 H 73.0208 -3.35096 2.20254 0
M  V30 795 H 69.6108 -2.58807 3.41638 0
M  V30 796 H 73.7948 -2.35459 4.3689 0
M  V30 797 H 69.0508 -2.06954 5.75308 0
M  V30 798 H 73.2248 -1.8462 6.71482 0
M  V30 799 H 70.8518 -1.69839 7.40985 0
M  V30 800 N 72.4269 -1.23603 -0.977757 0
M  V30 801 C 73.8379 -1.06424 -1.53398 0
M  V30 802 C 74.1889 0.367578 -1.92726 0
M  V30 803 O 73.3139 1.25465 -1.76316 0
M  V30 804 C 73.9089 -1.92568 -2.78753 0
M  V30 805 C 72.4679 -1.79642 -3.30765 0
M  V30 806 C 71.6149 -1.88111 -2.03739 0
M  V30 807 H 74.5659 -1.37227 -0.797152 0
M  V30 808 H 74.5869 -1.45203 -3.51705 0
M  V30 809 H 74.0989 -2.96771 -2.50098 0
M  V30 810 H 72.1999 -0.782325 -3.64294 0
M  V30 811 H 72.3129 -2.63174 -4.00345 0
M  V30 812 H 70.6769 -1.31723 -2.17994 0
M  V30 813 H 71.4599 -2.93875 -1.77461 0
M  V30 814 N 73.905 1.17692 -1.04816 0
M  V30 815 C 75.316 1.69501 -0.782698 0
M  V30 816 C 75.667 1.83456 0.695577 0
M  V30 817 O 74.792 1.51942 1.54086 0
M  V30 818 C 75.387 3.07874 -1.41419 0
M  V30 819 C 73.946 3.56864 -1.19686 0
M  V30 820 C 73.093 2.3322 -1.50012 0
M  V30 821 H 76.044 1.02262 -1.2136 0
M  V30 822 H 76.065 3.71528 -0.821428 0
M  V30 823 H 75.577 2.97685 -2.49009 0
M  V30 824 H 73.678 3.72337 -0.140043 0
M  V30 825 H 73.791 4.39851 -1.89916 0
M  V30 826 H 72.155 2.37501 -0.920071 0
M  V30 827 H 72.938 2.25644 -2.58727 0
M  V30 828 N 75.3831 0.828654 1.34056 0
M  V30 829 C 76.7991 0.515135 1.51058 0
M  V30 830 C 76.9991 -0.959581 1.77184 0
M  V30 831 O 76.0551 -1.74382 1.82612 0
M  V30 832 C 77.3681 1.37963 2.67183 0
M  V30 833 C 78.9161 1.37735 2.81066 0
M  V30 834 C 79.3911 2.22645 4.00241 0
M  V30 835 N 80.8821 2.203 4.07458 0
M  V30 836 C 81.6171 2.82744 4.98842 0
M  V30 837 N 81.1131 3.54201 5.9541 0
M  V30 838 N 82.9061 2.72268 4.91759 0
M  V30 839 H 75.0571 1.78343 1.15358 0
M  V30 840 H 77.3201 0.760304 0.566252 0
M  V30 841 H 77.0261 2.42714 2.54525 0
M  V30 842 H 76.9001 1.0484 3.62338 0
M  V30 843 H 79.2871 0.337593 2.93163 0
M  V30 844 H 79.3681 1.74859 1.86703 0
M  V30 845 H 79.0121 3.26674 3.88905 0
M  V30 846 H 78.9421 1.82869 4.93829 0
M  V30 847 H 81.4331 1.68327 3.38341 0
M  V30 848 H 81.7461 3.9908 6.61782 0
M  V30 849 H 80.0911 3.58308 5.95517 0
M  V30 850 H 83.2821 2.16014 4.15278 0
M  V30 851 H 83.4551 3.21219 5.62781 0
M  V30 852 N 76.8612 -1.46375 0.584142 0
M  V30 853 C 78.1072 -2.02678 0.0703716 0
M  V30 854 C 78.4402 -1.4545 -1.28678 0
M  V30 855 O 77.7152 -0.62014 -1.84349 0
M  V30 856 C 77.9982 -3.60099 0.00614674 0
M  V30 857 C 77.8512 -4.27709 1.3923 0
M  V30 858 C 79.1702 -4.34598 -0.693742 0
M  V30 859 H 76.2892 -0.736504 0.027047 0
M  V30 860 H 78.9312 -1.74501 0.751615 0
M  V30 861 H 77.0812 -3.84236 -0.574009 0
M  V30 862 H 78.7532 -4.14832 2.01773 0
M  V30 863 H 76.9962 -3.87016 1.95962 0
M  V30 864 H 77.6672 -5.36478 1.29982 0
M  V30 865 H 80.1432 -4.15615 -0.200869 0
M  V30 866 H 79.0192 -5.44318 -0.707714 0
M  V30 867 H 79.2802 -4.05759 -1.75533 0
M  V30 868 N 78.3393 -0.321999 -1.54275 0
M  V30 869 C 79.7503 0.166384 -1.85957 0
M  V30 870 C 80.1013 1.51747 -1.24367 0
M  V30 871 O 79.2263 2.09317 -0.549124 0
M  V30 872 C 79.8213 0.308681 -3.37391 0
M  V30 873 C 78.3803 0.741286 -3.69028 0
M  V30 874 C 77.5273 -0.137937 -2.76957 0
M  V30 875 H 80.4783 -0.542335 -1.49146 0
M  V30 876 H 80.4993 1.13984 -3.63026 0
M  V30 877 H 80.0113 -0.674809 -3.82188 0
M  V30 878 H 78.1123 1.73458 -3.29762 0
M  V30 879 H 78.2253 0.546118 -4.75977 0
M  V30 880 H 76.5893 0.386251 -2.51754 0
M  V30 881 H 77.3723 -1.11816 -3.2458 0
M  V30 882 N 79.8174 1.5752 -0.0501392 0
M  V30 883 C 80.7644 2.1147 0.924603 0
M  V30 884 C 81.7344 1.02182 1.30951 0
M  V30 885 O 82.9194 1.29723 1.39916 0
M  V30 886 C 80.0594 2.66337 2.19451 0
M  V30 887 C 79.1724 3.89708 1.86418 0
M  V30 888 C 78.3074 4.32893 3.07859 0
M  V30 889 C 77.3464 5.48967 2.70742 0
M  V30 890 N 76.4834 5.87211 3.84874 0
M  V30 891 H 81.3234 2.94465 0.457639 0
M  V30 892 H 78.8604 1.45531 0.214266 0
M  V30 893 H 80.8184 2.96247 2.93758 0
M  V30 894 H 79.4484 1.86141 2.63726 0
M  V30 895 H 78.5004 3.66396 1.02264 0
M  V30 896 H 79.8124 4.74074 1.55096 0
M  V30 897 H 78.9664 4.6435 3.90466 0
M  V30 898 H 77.7054 3.47336 3.42358 0
M  V30 899 H 76.7104 5.17183 1.86551 0
M  V30 900 H 77.9354 6.3624 2.37436 0
M  V30 901 H 75.8814 5.04607 4.19175 0
M  V30 902 H 75.7984 6.66266 3.57247 0
M  V30 903 H 77.0664 6.23282 4.68123 0
M  V30 904 N 81.2955 -0.223234 1.56011 0
M  V30 905 C 82.5205 -0.968978 1.83373 0
M  V30 906 C 82.9455 -1.77227 0.630254 0
M  V30 907 O 82.3035 -1.76345 -0.420959 0
M  V30 908 C 82.3515 -1.86363 3.08709 0
M  V30 909 O 81.4555 -2.95873 2.87285 0
M  V30 910 H 80.7965 -0.274461 0.604622 0
M  V30 911 H 83.3265 -0.237056 2.03222 0
M  V30 912 H 83.3365 -2.27376 3.38768 0
M  V30 913 H 82.0115 -1.27319 3.95933 0
M  V30 914 H 80.5885 -2.58818 2.68454 0
M  V30 915 N 82.7736 -1.49793 -0.48987 0
M  V30 916 C 84.0206 -1.59841 -1.24327 0
M  V30 917 C 84.3486 -0.290135 -1.92324 0
M  V30 918 O 83.6036 0.722749 -1.81865 0
M  V30 919 C 83.9026 -2.71488 -2.32441 0
M  V30 920 C 83.5686 -4.12614 -1.81826 0
M  V30 921 C 82.2306 -4.51017 -1.67742 0
M  V30 922 C 84.5826 -5.00892 -1.4407 0
M  V30 923 C 81.9106 -5.75459 -1.14297 0
M  V30 924 C 84.2626 -6.25863 -0.920742 0
M  V30 925 C 82.9266 -6.63086 -0.766383 0
M  V30 926 H 82.1966 -0.584899 -0.454944 0
M  V30 927 H 84.8436 -1.83663 -0.542215 0
M  V30 928 H 83.1486 -2.4168 -3.0838 0
M  V30 929 H 84.8456 -2.76469 -2.90458 0
M  V30 930 H 81.4356 -3.82307 -1.93751 0
M  V30 931 H 85.6196 -4.7187 -1.53794 0
M  V30 932 H 80.8756 -6.02989 -1.01068 0
M  V30 933 H 85.0496 -6.9364 -0.619448 0
M  V30 934 H 82.6766 -7.59393 -0.350083 0
M  V30 935 N 84.2517 0.741722 -1.39055 0
M  V30 936 C 85.6627 1.31966 -1.32068 0
M  V30 937 C 86.0137 1.96192 0.0180797 0
M  V30 938 O 85.1387 1.95861 0.920196 0
M  V30 939 C 85.7337 2.39954 -2.39181 0
M  V30 940 C 84.2927 2.93438 -2.35735 0
M  V30 941 C 83.4397 1.66936 -2.21422 0
M  V30 942 H 86.3907 0.539721 -1.4924 0
M  V30 943 H 86.4117 3.20182 -2.05581 0
M  V30 944 H 85.9237 1.9318 -3.36605 0
M  V30 945 H 84.0247 3.4451 -1.41929 0
M  V30 946 H 84.1377 3.4701 -3.30335 0
M  V30 947 H 82.5017 1.91016 -1.68478 0
M  V30 948 H 83.2847 1.22224 -3.20806 0
M  V30 949 N 85.7298 1.2412 0.971189 0
M  V30 950 C 86.9768 1.07881 1.71371 0
M  V30 951 C 87.3048 -0.382901 1.90694 0
M  V30 952 O 86.5598 -1.29945 1.46331 0
M  V30 953 C 86.8588 1.75983 3.11071 0
M  V30 954 C 86.5248 3.25909 3.11599 0
M  V30 955 C 85.1868 3.66813 3.11451 0
M  V30 956 C 87.5388 4.21771 3.062 0
M  V30 957 C 84.8668 5.02021 3.03631 0
M  V30 958 C 87.2188 5.56982 2.99923 0
M  V30 959 C 85.8828 5.97237 2.98102 0
M  V30 960 H 85.1528 0.394764 0.62709 0
M  V30 961 H 87.7998 1.54176 1.13587 0
M  V30 962 H 86.1048 1.22072 3.72298 0
M  V30 963 H 87.8018 1.60887 3.6731 0
M  V30 964 H 84.3918 2.93353 3.12477 0
M  V30 965 H 88.5758 3.91172 3.05447 0
M  V30 966 H 83.8318 5.32411 3.0058 0
M  V30 967 H 88.0058 6.30969 2.94704 0
M  V30 968 H 85.6328 7.01967 2.91798 0
M  V30 969 N 87.2079 -1.17134 1.05439 0
M  V30 970 C 88.1559 -2.23289 0.651511 0
M  V30 971 C 89.1499 -1.66186 -0.328411 0
M  V30 972 O 90.3559 -1.78949 -0.194206 0
M  V30 973 H 86.7309 -0.726938 0.192523 0
M  V30 974 H 88.7019 -2.54565 1.55689 0
M  V30 975 C 87.4509 -3.47671 0.0448436 0
M  V30 976 H 86.7739 -3.91918 0.78996 0
M  V30 977 H 88.2139 -4.2353 -0.19964 0
M  V30 978 C 86.6729 -3.14453 -1.20918 0
M  V30 979 O 87.2029 -3.29459 -2.29825 0
M  V30 980 N 85.4089 -2.68657 -1.10779 0
M  V30 981 H 84.9559 -2.56646 -0.221526 0
M  V30 982 H 84.9139 -2.46804 -1.9477 0
M  V30 983 N 88.686 -0.835752 -1.33615 0
M  V30 984 C 89.914 -0.443344 -2.02094 0
M  V30 985 C 90.329 0.954522 -1.62894 0
M  V30 986 O 89.686 1.61982 -0.840723 0
M  V30 987 C 89.737 -0.550775 -3.5728 0
M  V30 988 O 89.458 -1.89356 -3.95065 0
M  V30 989 C 90.959 -0.154919 -4.43029 0
M  V30 990 H 88.179 -0.176359 -0.647409 0
M  V30 991 H 90.723 -1.12746 -1.70612 0
M  V30 992 H 88.878 0.0853997 -3.87306 0
M  V30 993 H 89.292 -1.87687 -4.89769 0
M  V30 994 H 90.766 -0.281144 -5.51284 0
M  V30 995 H 91.243 0.902863 -4.2982 0
M  V30 996 H 91.849 -0.765404 -4.18356 0
M  V30 997 N 90.1641 1.46063 -0.591896 0
M  V30 998 C 91.3891 2.07226 -0.0850314 0
M  V30 999 C 91.8141 1.43625 1.21463 0
M  V30 1000 O 91.1721 0.523305 1.73583 0
M  V30 1001 C 91.2201 3.60554 0.0576567 0
M  V30 1002 O 90.3241 3.97128 1.11188 0
M  V30 1003 H 89.6651 0.660615 -0.0669568 0
M  V30 1004 H 92.1951 1.8756 -0.81745 0
M  V30 1005 H 92.2051 4.07165 0.2609 0
M  V30 1006 H 90.8801 4.06235 -0.891416 0
M  V30 1007 H 89.4571 3.62213 0.886356 0
M  V30 1008 N 91.6422 0.330177 1.54103 0
M  V30 1009 C 92.8882 -0.270806 2.00984 0
M  V30 1010 C 93.2212 -1.51265 1.21789 0
M  V30 1011 O 92.4962 -1.92142 0.301927 0
M  V30 1012 C 92.7792 -0.598339 3.55094 0
M  V30 1013 C 92.6322 0.654674 4.4501 0
M  V30 1014 C 93.9512 -1.41334 4.16789 0
M  V30 1015 H 91.0702 -0.0969531 0.730595 0
M  V30 1016 H 93.7122 0.448066 1.84641 0
M  V30 1017 H 91.8622 -1.21078 3.69151 0
M  V30 1018 H 93.5342 1.29285 4.42813 0
M  V30 1019 H 91.7772 1.28224 4.14416 0
M  V30 1020 H 92.4482 0.380944 5.50684 0
M  V30 1021 H 94.9242 -0.895597 4.06347 0
M  V30 1022 H 93.8002 -1.61127 5.24718 0
M  V30 1023 H 94.0612 -2.41146 3.70541 0
M  V30 1024 N 93.1203 -1.57491 0.0584922 0
M  V30 1025 C 94.3663 -1.93264 -0.614558 0
M  V30 1026 C 94.6993 -0.937717 -1.7006 0
M  V30 1027 O 93.9743 0.0351652 -1.94468 0
M  V30 1028 C 94.2573 -3.3938 -1.20386 0
M  V30 1029 C 94.1103 -4.49625 -0.125375 0
M  V30 1030 C 95.4293 -3.86039 -2.11334 0
M  V30 1031 H 92.5483 -0.702791 -0.221933 0
M  V30 1032 H 95.1903 -1.8961 0.12175 0
M  V30 1033 H 93.3403 -3.42626 -1.83139 0
M  V30 1034 H 95.0123 -4.58506 0.506971 0
M  V30 1035 H 93.2553 -4.30354 0.545672 0
M  V30 1036 H 93.9263 -5.48967 -0.577861 0
M  V30 1037 H 96.4023 -3.84716 -1.58534 0
M  V30 1038 H 95.2783 -4.88914 -2.49507 0
M  V30 1039 H 95.5393 -3.23215 -3.01636 0
M  V30 1040 N 94.5984 0.214957 -1.56127 0
M  V30 1041 C 95.8284 0.953707 -1.8327 0
M  V30 1042 C 96.2364 1.78181 -0.636262 0
M  V30 1043 O 95.5794 1.79191 0.404516 0
M  V30 1044 C 95.6414 1.91516 -3.0424 0
M  V30 1045 C 95.3054 1.27094 -4.38972 0
M  V30 1046 C 96.3024 0.657575 -5.15725 0
M  V30 1047 C 93.9874 1.28073 -4.85698 0
M  V30 1048 C 95.9814 0.0625968 -6.37369 0
M  V30 1049 C 93.6684 0.681914 -6.07283 0
M  V30 1050 C 94.6664 0.0739046 -6.8296 0
M  V30 1051 O 94.3544 -0.515582 -8.02245 0
M  V30 1052 H 94.0864 0.284764 -0.613095 0
M  V30 1053 H 96.6404 0.233283 -2.04071 0
M  V30 1054 H 94.8704 2.67475 -2.79274 0
M  V30 1055 H 96.5594 2.52001 -3.18198 0
M  V30 1056 H 97.3254 0.642288 -4.80728 0
M  V30 1057 H 93.2044 1.74337 -4.26764 0
M  V30 1058 H 96.7484 -0.412593 -6.96379 0
M  V30 1059 H 92.6454 0.694636 -6.41752 0
M  V30 1060 H 93.4134 -0.410544 -8.1747 0
M  V30 1061 N 96.0765 1.50051 0.48192 0
M  V30 1062 C 97.0235 1.68122 1.58125 0
M  V30 1063 C 97.9935 0.522545 1.57666 0
M  V30 1064 O 99.1785 0.751844 1.75362 0
M  V30 1065 C 96.3185 1.77142 2.96167 0
M  V30 1066 C 95.4315 3.0444 3.06497 0
M  V30 1067 C 94.5665 3.04321 4.35387 0
M  V30 1068 C 93.6055 4.26118 4.3942 0
M  V30 1069 N 92.7425 4.238 5.59766 0
M  V30 1070 H 97.5825 2.6198 1.42022 0
M  V30 1071 H 95.1195 1.29877 0.690687 0
M  V30 1072 H 97.0775 1.80352 3.76203 0
M  V30 1073 H 95.7075 0.867329 3.1093 0
M  V30 1074 H 94.7595 3.10752 2.19402 0
M  V30 1075 H 96.0715 3.94426 3.05336 0
M  V30 1076 H 95.2255 3.062 5.23762 0
M  V30 1077 H 93.9645 2.12147 4.39141 0
M  V30 1078 H 92.9695 4.24463 3.49444 0
M  V30 1079 H 94.1945 5.19507 4.37366 0
M  V30 1080 H 92.1405 3.34474 5.64326 0
M  V30 1081 H 92.0575 5.07542 5.60301 0
M  V30 1082 H 93.3255 4.2981 6.50295 0
M  V30 1083 N 97.5546 -0.734337 1.39446 0
M  V30 1084 C 98.5016 -1.84835 1.38219 0
M  V30 1085 C 99.4716 -1.64331 0.24179 0
M  V30 1086 O 100.657 -1.85728 0.437002 0
M  V30 1087 C 97.7966 -3.22355 1.23212 0
M  V30 1088 C 96.9096 -3.5456 2.46801 0
M  V30 1089 C 96.0446 -4.81485 2.24377 0
M  V30 1090 C 95.0836 -5.06536 3.43639 0
M  V30 1091 N 94.2206 -6.24665 3.20528 0
M  V30 1092 H 99.0606 -1.85219 2.33448 0
M  V30 1093 H 96.5976 -0.905039 1.15963 0
M  V30 1094 H 98.5556 -4.0174 1.12522 0
M  V30 1095 H 97.1856 -3.21248 0.316121 0
M  V30 1096 H 96.2376 -2.69872 2.68092 0
M  V30 1097 H 97.5496 -3.6899 3.3563 0
M  V30 1098 H 96.7036 -5.68852 2.10933 0
M  V30 1099 H 95.4426 -4.6923 1.32944 0
M  V30 1100 H 94.4476 -4.17632 3.5758 0
M  V30 1101 H 95.6726 -5.20676 4.35974 0
M  V30 1102 H 93.6186 -6.13696 2.3176 0
M  V30 1103 H 93.5356 -6.39685 4.02913 0
M  V30 1104 H 94.8036 -7.14868 3.10779 0
M  V30 1105 N 99.0327 -1.24633 -0.964593 0
M  V30 1106 C 100.261 -1.11501 -1.74285 0
M  V30 1107 C 100.676 0.332165 -1.85855 0
M  V30 1108 O 100.033 1.22903 -1.34911 0
M  V30 1109 C 100.084 -1.75258 -3.16175 0
M  V30 1110 O 99.8047 -3.14318 -3.05182 0
M  V30 1111 C 101.306 -1.67776 -4.10324 0
M  V30 1112 H 98.5257 -0.389407 -0.546446 0
M  V30 1113 H 101.07 -1.64801 -1.21083 0
M  V30 1114 H 99.2247 -1.25954 -3.66353 0
M  V30 1115 H 99.6387 -3.4551 -3.94618 0
M  V30 1116 H 101.113 -2.17064 -5.0753 0
M  V30 1117 H 101.59 -0.639584 -4.34518 0
M  V30 1118 H 102.196 -2.16522 -3.66058 0
M  V30 1119 N 100.511 1.16574 -1.06058 0
M  V30 1120 C 101.441 2.23057 -0.690488 0
M  V30 1121 C 102.422 1.67141 0.315901 0
M  V30 1122 O 103.607 1.93253 0.191556 0
M  V30 1123 C 100.737 3.47222 -0.073625 0
M  V30 1124 C 99.6908 4.16016 -1.00573 0
M  V30 1125 C 99.0168 5.34104 -0.252289 0
M  V30 1126 C 100.317 4.67264 -2.33371 0
M  V30 1127 H 102.011 2.54271 -1.58072 0
M  V30 1128 H 99.5568 1.22218 -0.76149 0
M  V30 1129 H 101.51 4.20939 0.19714 0
M  V30 1130 H 100.234 3.15302 0.85161 0
M  V30 1131 H 98.8928 3.44223 -1.2612 0
M  V30 1132 H 98.5408 4.98437 0.675988 0
M  V30 1133 H 98.2408 5.81072 -0.873455 0
M  V30 1134 H 99.7648 6.10599 0.0109857 0
M  V30 1135 H 101.179 5.32573 -2.12223 0
M  V30 1136 H 99.5758 5.24843 -2.90963 0
M  V30 1137 H 100.646 3.83602 -2.96611 0
M  V30 1138 N 101.989 0.842826 1.3317 0
M  V30 1139 C 103.236 0.440447 1.97652 0
M  V30 1140 C 103.564 -1.00123 1.6675 0
M  V30 1141 O 102.819 -1.7155 0.941761 0
M  V30 1142 C 103.118 0.612607 3.52111 0
M  V30 1143 C 102.784 2.02297 4.02972 0
M  V30 1144 C 101.446 2.40874 4.16573 0
M  V30 1145 C 103.798 2.94402 4.30089 0
M  V30 1146 C 101.126 3.70852 4.54627 0
M  V30 1147 C 103.478 4.23865 4.69597 0
M  V30 1148 C 102.142 4.62392 4.81404 0
M  V30 1149 H 101.412 0.161171 0.72326 0
M  V30 1150 H 104.059 1.07061 1.58777 0
M  V30 1151 H 102.364 -0.100849 3.9167 0
M  V30 1152 H 104.061 0.2815 4.00011 0
M  V30 1153 H 100.651 1.71338 3.92863 0
M  V30 1154 H 104.835 2.65835 4.19101 0
M  V30 1155 H 100.091 4.00501 4.61962 0
M  V30 1156 H 104.265 4.95306 4.89536 0
M  V30 1157 H 101.892 5.63154 5.10648 0
M  V30 1158 N 103.467 -1.45747 0.599634 0
M  V30 1159 C 104.713 -2.02592 0.0918643 0
M  V30 1160 C 105.046 -1.46806 -1.27128 0
M  V30 1161 O 104.321 -0.639658 -1.83681 0
M  V30 1162 C 104.604 -3.60073 0.0443398 0
M  V30 1163 C 104.457 -4.26208 1.43759 0
M  V30 1164 C 105.776 -4.35309 -0.647608 0
M  V30 1165 H 102.895 -0.736175 0.034857 0
M  V30 1166 H 105.537 -1.73694 0.770081 0
M  V30 1167 H 103.687 -3.84823 -0.533224 0
M  V30 1168 H 105.359 -4.12668 2.06162 0
M  V30 1169 H 103.602 -3.84916 2.00056 0
M  V30 1170 H 104.273 -5.35069 1.35665 0
M  V30 1171 H 106.749 -4.15805 -0.156776 0
M  V30 1172 H 105.625 -5.45038 -0.649942 0
M  V30 1173 H 105.886 -4.07598 -1.71219 0
M  V30 1174 N 104.945 -0.338344 -1.53925 0
M  V30 1175 C 105.855 0.529421 -2.28548 0
M  V30 1176 C 106.871 1.11645 -1.3346 0
M  V30 1177 O 108.047 1.13325 -1.66492 0
M  V30 1178 C 105.112 1.66713 -3.03987 0
M  V30 1179 C 104.173 1.11041 -4.14691 0
M  V30 1180 C 103.406 2.19389 -4.86522 0
M  V30 1181 O 103.629 3.40013 -4.57982 0
M  V30 1182 O 102.563 1.83976 -5.73094 0
M  V30 1183 H 106.389 -0.0770399 -3.03602 0
M  V30 1184 H 103.974 -0.103555 -1.49041 0
M  V30 1185 H 105.856 2.32918 -3.5118 0
M  V30 1186 H 104.531 2.25949 -2.31794 0
M  V30 1187 H 103.438 0.413024 -3.71813 0
M  V30 1188 H 104.771 0.562975 -4.8897 0
M  V30 1189 N 106.423 1.57458 -0.0668435 0
M  V30 1190 C 107.67 1.93301 0.603406 0
M  V30 1191 C 107.998 0.946486 1.69917 0
M  V30 1192 O 107.253 -0.0387021 1.95662 0
M  V30 1193 C 107.552 3.35784 1.22409 0
M  V30 1194 C 107.218 4.50179 0.254955 0
M  V30 1195 C 105.88 4.81199 -0.0116746 0
M  V30 1196 C 108.232 5.19598 -0.408338 0
M  V30 1197 C 105.56 5.78978 -0.94877 0
M  V30 1198 C 107.912 6.18381 -1.33372 0
M  V30 1199 C 106.576 6.47821 -1.60887 0
M  V30 1200 H 105.846 0.707338 0.220802 0
M  V30 1201 H 108.493 1.91012 -0.136665 0
M  V30 1202 H 106.798 3.34515 2.03978 0
M  V30 1203 H 108.495 3.60804 1.74989 0
M  V30 1204 H 105.085 4.25983 0.472954 0
M  V30 1205 H 109.269 4.95832 -0.215456 0
M  V30 1206 H 104.525 6.00115 -1.16925 0
M  V30 1207 H 108.699 6.71277 -1.85367 0
M  V30 1208 H 106.326 7.23399 -2.33661 0
M  V30 1209 N 107.901 -0.206675 1.56239 0
M  V30 1210 C 109.129 -0.945345 1.8404 0
M  V30 1211 C 109.544 -1.77336 0.647885 0
M  V30 1212 O 108.901 -1.78425 -0.383511 0
M  V30 1213 C 108.952 -1.8509 3.10522 0
M  V30 1214 O 108.673 -1.05634 4.25174 0
M  V30 1215 C 110.174 -2.70222 3.51418 0
M  V30 1216 H 107.394 -0.276372 0.61144 0
M  V30 1217 H 109.938 -0.217417 2.03341 0
M  V30 1218 H 108.093 -2.53259 2.93153 0
M  V30 1219 H 108.507 -1.67238 4.97124 0
M  V30 1220 H 109.981 -3.29438 4.42916 0
M  V30 1221 H 110.458 -3.43358 2.73864 0
M  V30 1222 H 111.064 -2.07443 3.71278 0
M  V30 1223 N 109.379 -1.50304 -0.473955 0
M  V30 1224 C 110.656 -1.51667 -1.23518 0
M  V30 1225 C 111.036 -0.259701 -2.09496 0
M  V30 1226 O 110.384 0.756986 -2.15597 0
M  V30 1227 C 110.594 -2.81082 -2.06868 0
M  V30 1228 C 111.942 -3.31631 -2.65153 0
M  V30 1229 O 112.966 -2.82384 -2.17113 0
M  V30 1230 O 111.825 -4.17471 -3.52675 0
M  V30 1231 H 108.919 -0.60822 -0.560355 0
M  V30 1232 H 111.465 -1.62592 -0.486011 0
M  V30 1233 H 110.237 -3.64041 -1.4349 0
M  V30 1234 H 109.86 -2.73146 -2.88924 0
M  V30 1235 N 110.857 0.726932 -1.39834 0
M  V30 1236 C 111.807 1.83232 -1.35683 0
M  V30 1237 C 112.791 1.59155 -0.236295 0
M  V30 1238 O 113.983 1.70522 -0.474488 0
M  V30 1239 C 111.112 3.21246 -1.21062 0
M  V30 1240 C 110.198 3.51125 -2.37849 0
M  V30 1241 N 110.589 3.51889 -3.63329 0
M  V30 1242 C 108.887 3.81527 -2.30982 0
M  V30 1243 C 109.588 3.79791 -4.40606 0
M  V30 1244 N 108.564 3.97971 -3.70297 0
M  V30 1245 H 112.366 1.8214 -2.30656 0
M  V30 1246 H 109.88 0.925545 -1.33444 0
M  V30 1247 H 111.877 4.00387 -1.16171 0
M  V30 1248 H 110.537 3.23572 -0.270458 0
M  V30 1249 H 111.548 3.33008 -3.96643 0
M  V30 1250 H 108.225 3.91411 -1.45272 0
M  V30 1251 H 109.615 3.86783 -5.49408 0
M  V30 1252 N 112.336 1.25143 0.95797 0
M  V30 1253 C 113.266 1.07711 2.07173 0
M  V30 1254 C 114.247 -0.0128462 1.70095 0
M  V30 1255 O 115.432 0.156061 1.93572 0
M  V30 1256 C 112.562 0.691503 3.40346 0
M  V30 1257 C 111.516 1.73132 3.9142 0
M  V30 1258 C 110.842 1.20049 5.21049 0
M  V30 1259 C 112.142 3.1294 4.1817 0
M  V30 1260 H 113.836 2.00873 2.22014 0
M  V30 1261 H 111.382 0.967191 1.06684 0
M  V30 1262 H 113.335 0.556505 4.17709 0
M  V30 1263 H 112.059 -0.275819 3.25433 0
M  V30 1264 H 110.718 1.8547 3.16222 0
M  V30 1265 H 110.366 0.223499 5.02503 0
M  V30 1266 H 110.066 1.89545 5.56189 0
M  V30 1267 H 111.59 1.07782 6.01012 0
M  V30 1268 H 113.004 3.03775 4.86203 0
M  V30 1269 H 111.401 3.79875 4.64559 0
M  V30 1270 H 112.471 3.6025 3.24573 0
M  V30 1271 N 113.814 -1.1601 1.06675 0
M  V30 1272 C 115.061 -1.86633 0.785781 0
M  V30 1273 C 115.389 -1.81929 -0.687896 0
M  V30 1274 O 114.644 -1.23253 -1.52011 0
M  V30 1275 C 114.943 -3.35547 1.23057 0
M  V30 1276 C 114.609 -3.60448 2.70902 0
M  V30 1277 C 113.271 -3.66954 3.11285 0
M  V30 1278 C 115.623 -3.7071 3.66365 0
M  V30 1279 C 112.951 -3.81225 4.45965 0
M  V30 1280 C 115.303 -3.86503 5.00797 0
M  V30 1281 C 113.967 -3.91252 5.40813 0
M  V30 1282 H 113.237 -0.682937 0.287538 0
M  V30 1283 H 115.884 -1.37146 1.33654 0
M  V30 1284 H 114.189 -3.87193 0.59907 0
M  V30 1285 H 115.886 -3.88583 0.990163 0
M  V30 1286 H 112.476 -3.56021 2.38636 0
M  V30 1287 H 116.66 -3.64991 3.36296 0
M  V30 1288 H 111.916 -3.83155 4.76447 0
M  V30 1289 H 116.09 -3.93385 5.74649 0
M  V30 1290 H 113.717 -4.02062 6.45174 0
M  V30 1291 N 115.292 -0.849877 -1.32721 0
M  V30 1292 C 116.24 -0.279745 -2.30912 0
M  V30 1293 C 117.234 0.594278 -1.58634 0
M  V30 1294 O 118.44 0.482613 -1.73409 0
M  V30 1295 H 114.815 -0.0717521 -0.748569 0
M  V30 1296 H 116.786 -1.12222 -2.76494 0
M  V30 1297 C 115.535 0.521108 -3.43773 0
M  V30 1298 H 114.858 -0.142141 -3.99547 0
M  V30 1299 H 116.298 0.885693 -4.14646 0
M  V30 1300 C 114.757 1.70442 -2.90605 0
M  V30 1301 O 115.287 2.8034 -2.87702 0
M  V30 1302 N 113.493 1.52991 -2.47067 0
M  V30 1303 H 113.04 0.635914 -2.49628 0
M  V30 1304 H 112.998 2.32311 -2.11847 0
M  V30 1305 N 116.77 1.45427 -0.607355 0
M  V30 1306 C 118.019 2.01452 -0.100036 0
M  V30 1307 C 118.332 1.48159 1.27704 0
M  V30 1308 O 119.538 1.96159 1.87707 0
M  V30 1309 C 117.994 3.59672 -0.128158 0
M  V30 1310 C 117.602 4.21962 -1.50507 0
M  V30 1311 C 119.346 4.23262 0.323932 0
M  V30 1312 C 117.253 5.72333 -1.48959 0
M  V30 1313 H 116.183 0.75325 -0.0336299 0
M  V30 1314 H 118.834 1.66901 -0.76265 0
M  V30 1315 H 117.216 3.91411 0.601105 0
M  V30 1316 H 118.39 4.01796 -2.25602 0
M  V30 1317 H 116.705 3.70565 -1.89923 0
M  V30 1318 H 119.302 5.33522 0.354691 0
M  V30 1319 H 119.645 3.93921 1.34656 0
M  V30 1320 H 120.178 3.96239 -0.352056 0
M  V30 1321 H 116.917 6.06373 -2.48981 0
M  V30 1322 H 116.437 5.94691 -0.781214 0
M  V30 1323 H 118.116 6.35525 -1.21313 0
M  V30 1324 N 118.248 0.346503 1.53744 0
M  V30 1325 C 119.211 -0.496439 2.23759 0
M  V30 1326 C 120.211 -1.0252 1.2388 0
M  V30 1327 O 121.401 -0.913974 1.48297 0
M  V30 1328 C 118.533 -1.69187 2.95954 0
M  V30 1329 H 119.726 0.115952 2.99676 0
M  V30 1330 H 117.279 0.0978939 1.55993 0
M  V30 1331 H 118.014 -2.34288 2.24231 0
M  V30 1332 H 117.799 -1.31989 3.69217 0
M  V30 1333 H 119.289 -2.28969 3.49232 0
M  V30 1334 N 119.726 -1.57421 0.075193 0
M  V30 1335 C 120.673 -2.12915 -0.890843 0
M  V30 1336 C 121.643 -1.04252 -1.29309 0
M  V30 1337 O 122.828 -1.31933 -1.37834 0
M  V30 1338 C 119.968 -2.69795 -2.15186 0
M  V30 1339 C 119.081 -3.92624 -1.80194 0
M  V30 1340 C 118.216 -4.37736 -3.00933 0
M  V30 1341 C 117.255 -5.53205 -2.61974 0
M  V30 1342 N 116.392 -5.9326 -3.75483 0
M  V30 1343 H 121.232 -2.95156 -0.410735 0
M  V30 1344 H 118.769 -1.45854 -0.191086 0
M  V30 1345 H 120.727 -3.00883 -2.89008 0
M  V30 1346 H 119.357 -1.90313 -2.60731 0
M  V30 1347 H 118.409 -3.67977 -0.964218 0
M  V30 1348 H 119.721 -4.76482 -1.47534 0
M  V30 1349 H 118.875 -4.70503 -3.8303 0
M  V30 1350 H 117.614 -3.52739 -3.36789 0
M  V30 1351 H 116.619 -5.20086 -1.783 0
M  V30 1352 H 117.844 -6.39936 -2.27284 0
M  V30 1353 H 115.79 -5.11212 -4.11094 0
M  V30 1354 H 115.707 -6.71865 -3.46602 0
M  V30 1355 H 116.975 -6.30651 -4.58148 0
M  V30 1356 N 121.204 0.198386 -1.56346 0
M  V30 1357 C 122.615 0.763358 -1.70381 0
M  V30 1358 C 122.966 1.83995 -0.681203 0
M  V30 1359 O 122.091 2.15785 0.16305 0
M  V30 1360 C 122.686 1.39143 -3.08909 0
M  V30 1361 C 121.245 1.90352 -3.2472 0
M  V30 1362 C 120.392 0.772233 -2.6633 0
M  V30 1363 H 123.343 -0.0266377 -1.58678 0
M  V30 1364 H 123.364 2.26076 -3.06055 0
M  V30 1365 H 122.876 0.607638 -3.83314 0
M  V30 1366 H 120.977 2.71461 -2.55225 0
M  V30 1367 H 121.09 2.06757 -4.3219 0
M  V30 1368 H 119.454 1.18566 -2.2542 0
M  V30 1369 H 120.237 0.00073556 -3.433 0
M  V30 1370 N 122.682 1.50554 0.465978 0
M  V30 1371 C 124.098 1.38093 0.800154 0
M  V30 1372 C 124.298 0.440988 1.96615 0
M  V30 1373 O 123.354 -0.114499 2.5224 0
M  V30 1374 C 124.667 2.79565 1.10742 0
M  V30 1375 C 126.215 2.88516 1.21357 0
M  V30 1376 C 126.69 4.30833 1.55393 0
M  V30 1377 N 128.181 4.33807 1.62375 0
M  V30 1378 C 128.916 5.40927 1.90225 0
M  V30 1379 N 128.412 6.58247 2.16062 0
M  V30 1380 N 130.205 5.28376 1.9177 0
M  V30 1381 H 122.356 2.10237 -0.302366 0
M  V30 1382 H 124.619 0.945203 -0.0727746 0
M  V30 1383 H 124.325 3.50208 0.323661 0
M  V30 1384 H 124.199 3.17125 2.04234 0
M  V30 1385 H 126.586 2.1809 1.98799 0
M  V30 1386 H 126.667 2.54492 0.258321 0
M  V30 1387 H 126.311 5.01799 0.784889 0
M  V30 1388 H 126.241 4.62347 2.52076 0
M  V30 1389 H 128.732 3.49212 1.44427 0
M  V30 1390 H 129.045 7.3569 2.36601 0
M  V30 1391 H 127.39 6.61413 2.13444 0
M  V30 1392 H 130.581 4.35715 1.71085 0
M  V30 1393 H 130.754 6.11944 2.13139 0
M  V30 1394 N 124.16 -0.719506 1.40217 0
M  V30 1395 C 125.571 -1.29848 1.34151 0
M  V30 1396 C 125.922 -1.96196 0.0131349 0
M  V30 1397 O 125.047 -1.973 -0.88892 0
M  V30 1398 C 125.642 -2.36118 2.42968 0
M  V30 1399 C 124.201 -2.8965 2.40374 0
M  V30 1400 C 123.348 -1.63393 2.24049 0
M  V30 1401 H 126.299 -0.51591 1.5008 0
M  V30 1402 H 126.32 -3.16871 2.10649 0
M  V30 1403 H 125.832 -1.878 3.39636 0
M  V30 1404 H 123.933 -3.42208 1.47392 0
M  V30 1405 H 124.046 -3.4171 3.35814 0
M  V30 1406 H 122.41 -1.88312 1.71495 0
M  V30 1407 H 123.193 -1.17104 3.2271 0
M  V30 1408 N 125.638 -1.25649 -0.95132 0
M  V30 1409 C 127.049 -1.09654 -1.51106 0
M  V30 1410 C 127.4 0.326615 -1.93462 0
M  V30 1411 O 126.525 1.21697 -1.78938 0
M  V30 1412 C 127.12 -1.98437 -2.74605 0
M  V30 1413 C 125.679 -1.86618 -3.2688 0
M  V30 1414 C 124.826 -1.9239 -1.99703 0
M  V30 1415 H 127.777 -1.38887 -0.767865 0
M  V30 1416 H 127.798 -1.5263 -3.48546 0
M  V30 1417 H 127.31 -3.02009 -2.43746 0
M  V30 1418 H 125.411 -0.859421 -3.62553 0
M  V30 1419 H 125.524 -2.71607 -3.94673 0
M  V30 1420 H 123.888 -1.36317 -2.15151 0
M  V30 1421 H 124.671 -2.97573 -1.71188 0
M  V30 1422 N 127.117 1.15442 -1.07289 0
M  V30 1423 C 128.363 1.8672 -0.806679 0
M  V30 1424 C 128.718 1.80723 0.660084 0
M  V30 1425 O 128.011 1.21902 1.47819 0
M  V30 1426 C 128.205 3.3489 -1.24834 0
M  V30 1427 C 128.034 3.55313 -2.7565 0
M  V30 1428 C 126.804 3.7082 -3.4325 0
M  V30 1429 C 129.002 3.53188 -3.73848 0
M  V30 1430 N 126.984 3.7929 -4.82713 0
M  V30 1431 C 128.355 3.67765 -4.99149 0
M  V30 1432 C 130.41 3.36459 -3.67015 0
M  V30 1433 C 129.113 3.6734 -6.18428 0
M  V30 1434 C 131.139 3.37333 -4.85758 0
M  V30 1435 C 130.501 3.52438 -6.09891 0
M  V30 1436 H 126.6 0.700433 -0.347733 0
M  V30 1437 H 129.184 1.38441 -1.36902 0
M  V30 1438 H 127.355 3.81786 -0.713713 0
M  V30 1439 H 129.087 3.93875 -0.929745 0
M  V30 1440 H 125.842 3.71568 -2.93656 0
M  V30 1441 H 126.266 3.8727 -5.55294 0
M  V30 1442 H 130.908 3.237 -2.71989 0
M  V30 1443 H 128.626 3.78878 -7.13777 0
M  V30 1444 H 132.212 3.25617 -4.82146 0
M  V30 1445 H 131.092 3.53047 -7.00234 0
M  V30 1446 N 128.595 0.856903 1.32268 0
M  V30 1447 C 129.528 0.247937 2.26849 0
M  V30 1448 C 130.506 -0.615382 1.50505 0
M  V30 1449 O 131.69 -0.571689 1.79622 0
M  V30 1450 C 128.817 -0.650093 3.32403 0
M  V30 1451 C 127.863 0.140138 4.2627 0
M  V30 1452 S 128.696 1.51004 5.13769 0
M  V30 1453 C 129.852 0.61778 6.22844 0
M  V30 1454 H 130.085 1.04971 2.78152 0
M  V30 1455 H 127.618 0.654665 1.39834 0
M  V30 1456 H 129.576 -1.16256 3.93694 0
M  V30 1457 H 128.237 -1.4257 2.7988 0
M  V30 1458 H 127.43 -0.543945 5.01056 0
M  V30 1459 H 127.032 0.584267 3.69408 0
M  V30 1460 H 129.324 -0.177053 6.77269 0
M  V30 1461 H 130.267 1.33636 6.95375 0
M  V30 1462 H 130.675 0.191124 5.64176 0
M  V30 1463 N 130.073 -1.45103 0.615059 0
M  V30 1464 C 131.321 -2.01784 0.112955 0
M  V30 1465 C 131.642 -1.48504 -1.26378 0
M  V30 1466 O 130.912 -0.682245 -1.83636 0
M  V30 1467 H 129.492 -0.745993 0.0387668 0
M  V30 1468 H 132.154 -1.77808 0.798141 0
M  V30 1469 H 131.25 -3.12025 0.0684069 0
M  V30 1470 N 131.551 -0.354651 -1.53558 0
M  V30 1471 C 132.481 0.489091 -2.2832 0
M  V30 1472 C 133.462 1.09324 -1.30316 0
M  V30 1473 O 134.647 1.11255 -1.59173 0
M  V30 1474 C 131.777 1.63456 -3.0643 0
M  V30 1475 C 130.731 1.1582 -4.12031 0
M  V30 1476 C 130.057 2.39305 -4.7816 0
M  V30 1477 C 131.357 0.250731 -5.21698 0
M  V30 1478 H 133.051 -0.134614 -2.99097 0
M  V30 1479 H 130.597 -0.0661826 -1.43848 0
M  V30 1480 H 132.55 2.23136 -3.57475 0
M  V30 1481 H 131.274 2.28533 -2.33325 0
M  V30 1482 H 129.933 0.584146 -3.61916 0
M  V30 1483 H 129.581 3.02814 -4.01637 0
M  V30 1484 H 129.281 2.08109 -5.49513 0
M  V30 1485 H 130.805 2.99691 -5.31994 0
M  V30 1486 H 132.219 0.754695 -5.68311 0
M  V30 1487 H 130.616 0.0301468 -6.00092 0
M  V30 1488 H 131.686 -0.710125 -4.79672 0
M  V30 1489 N 133.029 1.57378 -0.0835403 0
M  V30 1490 C 133.959 2.1641 0.87686 0
M  V30 1491 C 134.94 1.09429 1.30228 0
M  V30 1492 O 136.125 1.37516 1.37124 0
M  V30 1493 C 133.255 2.73517 2.14022 0
M  V30 1494 C 132.209 3.85769 1.85381 0
M  V30 1495 C 131.535 4.29529 3.18448 0
M  V30 1496 C 132.835 5.09486 1.14984 0
M  V30 1497 H 134.529 2.96914 0.385059 0
M  V30 1498 H 132.075 1.42823 0.18377 0
M  V30 1499 H 134.028 3.13463 2.81636 0
M  V30 1500 H 132.752 1.90252 2.65465 0
M  V30 1501 H 131.411 3.46345 1.20169 0
M  V30 1502 H 131.059 3.43169 3.67755 0
M  V30 1503 H 130.759 5.05204 3.00071 0
M  V30 1504 H 132.283 4.72099 3.8724 0
M  V30 1505 H 133.697 5.46674 1.72687 0
M  V30 1506 H 132.094 5.90515 1.06826 0
M  V30 1507 H 133.164 4.84724 0.130749 0
M  V30 1508 N 134.507 -0.190092 1.56449 0
M  V30 1509 C 135.755 -0.907908 1.80559 0
M  V30 1510 C 136.076 -1.83583 0.657438 0
M  V30 1511 O 135.346 -1.93203 -0.323924 0
M  V30 1512 H 133.926 -0.338247 0.666032 0
M  V30 1513 H 136.588 -0.194403 1.93928 0
M  V30 1514 H 135.684 -1.49604 2.73907 0
M  V30 1515 N 135.985 -1.50799 -0.457987 0
M  V30 1516 C 137.396 -1.55152 -1.0385 0
M  V30 1517 C 137.747 -0.362719 -1.92818 0
M  V30 1518 O 136.872 0.522915 -2.09987 0
M  V30 1519 C 137.467 -2.81173 -1.89017 0
M  V30 1520 C 136.026 -2.88164 -2.42154 0
M  V30 1521 C 135.173 -2.49591 -1.20829 0
M  V30 1522 H 138.124 -1.56874 -0.240068 0
M  V30 1523 H 138.145 -2.63769 -2.74238 0
M  V30 1524 H 137.657 -3.67677 -1.24238 0
M  V30 1525 H 135.758 -2.06042 -3.10447 0
M  V30 1526 H 135.871 -3.91356 -2.76364 0
M  V30 1527 H 134.235 -2.02322 -1.54719 0
M  V30 1528 H 135.018 -3.38418 -0.576927 0
M  V30 1529 N 137.463 0.71206 -1.40597 0
M  V30 1530 C 138.691 1.50111 -1.42388 0
M  V30 1531 C 139.106 1.88784 -0.0245395 0
M  V30 1532 O 138.463 1.55681 0.952351 0
M  V30 1533 C 138.514 2.7742 -2.31776 0
M  V30 1534 O 138.235 2.40382 -3.66262 0
M  V30 1535 C 139.736 3.7129 -2.42196 0
M  V30 1536 H 136.956 0.46314 -0.485533 0
M  V30 1537 H 139.5 0.878068 -1.8469 0
M  V30 1538 H 137.655 3.36001 -1.92827 0
M  V30 1539 H 138.069 3.22324 -4.13772 0
M  V30 1540 H 139.543 4.57448 -3.08943 0
M  V30 1541 H 140.02 4.14641 -1.44809 0
M  V30 1542 H 140.626 3.18619 -2.81712 0
M  V30 1543 N 138.941 1.26152 0.944643 0
M  V30 1544 C 140.19 1.10883 1.68487 0
M  V30 1545 C 140.503 -0.348153 1.92477 0
M  V30 1546 O 141.709 -0.621459 2.64292 0
M  V30 1547 C 140.165 1.93624 3.03377 0
M  V30 1548 C 139.773 3.43875 2.87148 0
M  V30 1549 C 141.517 1.86954 3.81115 0
M  V30 1550 C 139.424 4.18875 4.1749 0
M  V30 1551 H 138.354 0.41135 0.631907 0
M  V30 1552 H 141.005 1.50433 1.05082 0
M  V30 1553 H 139.387 1.46904 3.67743 0
M  V30 1554 H 140.561 3.98338 2.31653 0
M  V30 1555 H 138.876 3.51744 2.22856 0
M  V30 1556 H 141.473 2.40275 4.77673 0
M  V30 1557 H 141.816 0.839518 4.07747 0
M  V30 1558 H 142.349 2.31477 3.23517 0
M  V30 1559 H 139.088 5.22332 3.96043 0
M  V30 1560 H 138.608 3.69193 4.72712 0
M  V30 1561 H 140.287 4.27134 4.85968 0
M  V30 1562 N 140.419 -1.14872 1.07899 0
M  V30 1563 C 141.351 -2.19425 0.662231 0
M  V30 1564 C 142.364 -1.60231 -0.288079 0
M  V30 1565 O 143.553 -1.78336 -0.076534 0
M  V30 1566 C 140.653 -3.38867 -0.0470695 0
M  V30 1567 C 139.826 -4.27597 0.920831 0
M  V30 1568 C 138.885 -5.25616 0.247805 0
M  V30 1569 O 137.911 -5.62189 0.890599 0
M  V30 1570 N 139.113 -5.71746 -1.00435 0
M  V30 1571 H 141.878 -2.55797 1.56166 0
M  V30 1572 H 139.439 -1.30042 0.964404 0
M  V30 1573 H 141.431 -4.01497 -0.50813 0
M  V30 1574 H 140.001 -3.00864 -0.848523 0
M  V30 1575 H 139.221 -3.61982 1.56087 0
M  V30 1576 H 140.509 -4.83748 1.57688 0
M  V30 1577 H 139.907 -5.44153 -1.54642 0
M  V30 1578 H 138.464 -6.36389 -1.40899 0
M  V30 1579 N 141.898 -0.863906 -1.31812 0
M  V30 1580 C 142.861 -0.320212 -2.26952 0
M  V30 1581 C 143.861 0.525369 -1.51975 0
M  V30 1582 O 145.051 0.335547 -1.70938 0
M  V30 1583 C 142.183 0.545919 -3.365 0
M  V30 1584 H 143.376 -1.16004 -2.76556 0
M  V30 1585 H 140.929 -0.638995 -1.42641 0
M  V30 1586 H 141.664 1.40718 -2.92179 0
M  V30 1587 H 141.449 -0.0594674 -3.92055 0
M  V30 1588 H 142.939 0.918796 -4.07367 0
M  V30 1589 N 143.376 1.44774 -0.622745 0
M  V30 1590 C 144.286 2.34433 0.0886031 0
M  V30 1591 C 145.302 1.52131 0.844529 0
M  V30 1592 O 146.478 1.84886 0.798691 0
M  V30 1593 C 143.543 3.29986 1.0635 0
M  V30 1594 C 142.604 4.28195 0.307873 0
M  V30 1595 C 141.837 5.19183 1.23633 0
M  V30 1596 O 142.06 5.13918 2.47476 0
M  V30 1597 O 140.994 5.97515 0.725189 0
M  V30 1598 H 144.82 2.96693 -0.648599 0
M  V30 1599 H 142.405 1.44408 -0.382957 0
M  V30 1600 H 144.287 3.88825 1.6246 0
M  V30 1601 H 142.962 2.70269 1.78146 0
M  V30 1602 H 141.869 3.72927 -0.296064 0
M  V30 1603 H 143.202 4.90808 -0.3699 0
M  V30 1604 N 144.854 0.36279 1.53368 0
M  V30 1605 C 146.1 -0.228113 2.01513 0
M  V30 1606 C 146.433 -1.48648 1.2497 0
M  V30 1607 O 145.708 -1.91459 0.342616 0
M  V30 1608 C 145.991 -0.522884 3.56284 0
M  V30 1609 C 145.844 0.74892 4.43521 0
M  V30 1610 C 147.163 -1.32461 4.19693 0
M  V30 1611 H 144.282 -0.0814343 0.732487 0
M  V30 1612 H 146.924 0.48713 1.83649 0
M  V30 1613 H 145.074 -1.1322 3.71636 0
M  V30 1614 H 146.746 1.38648 4.39971 0
M  V30 1615 H 144.989 1.36986 4.11603 0
M  V30 1616 H 145.66 0.497667 5.49752 0
M  V30 1617 H 148.136 -0.809203 4.08156 0
M  V30 1618 H 147.012 -1.49961 5.28018 0
M  V30 1619 H 147.273 -2.33232 3.75573 0
M  V30 1620 N 146.332 -1.57332 0.0918853 0
M  V30 1621 C 147.562 -1.98286 -0.580205 0
M  V30 1622 C 147.97 -0.969713 -1.6246 0
M  V30 1623 O 147.313 0.0493501 -1.83634 0
M  V30 1624 C 147.375 -3.35603 -1.28882 0
M  V30 1625 C 147.039 -4.55285 -0.395559 0
M  V30 1626 C 148.036 -5.18687 0.355002 0
M  V30 1627 C 145.721 -5.01314 -0.314556 0
M  V30 1628 C 147.715 -6.26484 1.17458 0
M  V30 1629 C 145.402 -6.08979 0.508677 0
M  V30 1630 C 146.4 -6.71429 1.2519 0
M  V30 1631 O 146.088 -7.77018 2.06151 0
M  V30 1632 H 145.82 -0.656678 -0.160466 0
M  V30 1633 H 148.374 -2.04721 0.16688 0
M  V30 1634 H 146.604 -3.25842 -2.08241 0
M  V30 1635 H 148.293 -3.61026 -1.85512 0
M  V30 1636 H 149.059 -4.84058 0.302134 0
M  V30 1637 H 144.938 -4.5247 -0.882697 0
M  V30 1638 H 148.482 -6.75159 1.75518 0
M  V30 1639 H 144.379 -6.4304 0.563037 0
M  V30 1640 H 145.147 -7.93991 1.98799 0
M  V30 1641 N 147.81 0.181792 -1.56548 0
M  V30 1642 C 149.087 0.926765 -1.72251 0
M  V30 1643 C 149.467 2.00831 -0.650386 0
M  V30 1644 O 148.815 2.26008 0.336521 0
M  V30 1645 C 149.025 1.50106 -3.1507 0
M  V30 1646 C 150.373 1.97805 -3.75711 0
M  V30 1647 O 151.397 1.59922 -3.18282 0
M  V30 1648 O 150.256 2.67555 -4.76525 0
M  V30 1649 H 147.35 0.435506 -0.703039 0
M  V30 1650 H 149.896 0.170443 -1.68842 0
M  V30 1651 H 148.668 0.72212 -3.84579 0
M  V30 1652 H 148.291 2.32186 -3.22763 0
M  V30 1653 N 149.288 1.51039 0.449983 0
M  V30 1654 C 150.516 1.66869 1.2232 0
M  V30 1655 C 150.931 0.360727 1.85322 0
M  V30 1656 O 150.288 -0.659531 1.70166 0
M  V30 1657 C 150.339 2.77524 2.31652 0
M  V30 1658 O 150.06 4.03252 1.7123 0
M  V30 1659 C 151.561 3.04512 3.2216 0
M  V30 1660 H 148.781 0.560326 0.369155 0
M  V30 1661 H 151.325 1.97385 0.534719 0
M  V30 1662 H 149.48 2.49642 2.96239 0
M  V30 1663 H 149.894 4.64609 2.43389 0
M  V30 1664 H 151.368 3.85551 3.95038 0
M  V30 1665 H 151.845 2.16415 3.8218 0
M  V30 1666 H 152.451 3.34005 2.63288 0
M  V30 1667 N 150.766 -0.704594 1.40972 0
M  V30 1668 C 152.012 -1.46675 1.40051 0
M  V30 1669 C 152.345 -1.94199 0.00641102 0
M  V30 1670 O 151.62 -1.68916 -0.964235 0
M  V30 1671 C 151.903 -2.68505 2.39952 0
M  V30 1672 C 151.756 -2.26805 3.88432 0
M  V30 1673 C 153.075 -3.70686 2.37233 0
M  V30 1674 H 150.194 -0.532015 0.510028 0
M  V30 1675 H 152.836 -0.803255 1.72185 0
M  V30 1676 H 150.986 -3.25114 2.1268 0
M  V30 1677 H 152.658 -1.75592 4.26574 0
M  V30 1678 H 150.901 -1.58685 4.03734 0
M  V30 1679 H 151.572 -3.14181 4.53866 0
M  V30 1680 H 154.048 -3.23731 2.61415 0
M  V30 1681 H 152.924 -4.53553 3.09162 0
M  V30 1682 H 153.185 -4.19754 1.38777 0
M  V30 1683 N 152.244 -1.26651 -0.937939 0
M  V30 1684 C 153.49 -1.12553 -1.687 0
M  V30 1685 C 153.823 0.329782 -1.91379 0
M  V30 1686 O 153.098 1.24202 -1.4968 0
M  V30 1687 C 153.381 -1.89862 -3.05981 0
M  V30 1688 C 153.234 -3.43318 -2.90607 0
M  V30 1689 C 154.553 -1.69499 -4.0615 0
M  V30 1690 H 151.672 -0.410257 -0.612257 0
M  V30 1691 H 154.314 -1.55685 -1.08913 0
M  V30 1692 H 152.464 -1.53204 -3.57017 0
M  V30 1693 H 154.136 -3.89747 -2.46769 0
M  V30 1694 H 152.379 -3.70179 -2.26164 0
M  V30 1695 H 153.05 -3.92642 -3.8799 0
M  V30 1696 H 155.526 -2.01442 -3.64088 0
M  V30 1697 H 154.402 -2.26002 -5.00214 0
M  V30 1698 H 154.663 -0.640365 -4.37438 0
M  V30 1699 N 153.722 1.14298 -1.08507 0
M  V30 1700 C 154.971 1.84708 -0.810305 0
M  V30 1701 C 155.284 1.83903 0.666271 0
M  V30 1702 O 156.49 2.50112 1.05624 0
M  V30 1703 C 154.946 3.31572 -1.39957 0
M  V30 1704 C 154.554 3.40791 -2.90801 0
M  V30 1705 C 156.298 4.07087 -1.20334 0
M  V30 1706 C 154.205 4.81872 -3.4286 0
M  V30 1707 H 153.135 0.691985 -0.299454 0
M  V30 1708 H 155.786 1.28841 -1.30661 0
M  V30 1709 H 154.168 3.87183 -0.830976 0
M  V30 1710 H 155.342 2.95225 -3.53806 0
M  V30 1711 H 153.657 2.78732 -3.0935 0
M  V30 1712 H 156.254 5.11225 -1.56693 0
M  V30 1713 H 156.597 4.16054 -0.143237 0
M  V30 1714 H 157.13 3.57779 -1.73893 0
M  V30 1715 H 153.869 4.78094 -4.48449 0
M  V30 1716 H 153.389 5.27972 -2.84615 0
M  V30 1717 H 155.068 5.50765 -3.39509 0
M  V30 1718 N 155.201 0.870884 1.31352 0
M  V30 1719 C 156.429 0.49677 2.00848 0
M  V30 1720 C 156.844 -0.910998 1.65367 0
M  V30 1721 O 156.201 -1.59696 0.883374 0
M  V30 1722 C 156.252 0.645308 3.55694 0
M  V30 1723 O 155.973 1.99764 3.89905 0
M  V30 1724 C 157.474 0.272326 4.42463 0
M  V30 1725 H 154.694 0.193462 0.642506 0
M  V30 1726 H 157.238 1.1723 1.67563 0
M  V30 1727 H 155.393 0.0173176 3.87396 0
M  V30 1728 H 155.807 2.00607 4.84621 0
M  V30 1729 H 157.281 0.427208 5.50344 0
M  V30 1730 H 157.758 -0.788587 4.32062 0
M  V30 1731 H 158.364 0.876054 4.1618 0
M  V30 1732 N 156.679 -1.44442 0.630414 0
M  V30 1733 C 157.609 -2.33418 -0.0618083 0
M  V30 1734 C 158.59 -1.48165 -0.835541 0
M  V30 1735 O 159.775 -1.76886 -0.801564 0
M  V30 1736 C 156.905 -3.31222 -1.04449 0
M  V30 1737 C 155.859 -4.26288 -0.382436 0
M  V30 1738 C 155.185 -5.13954 -1.47497 0
M  V30 1739 C 156.485 -5.1744 0.710865 0
M  V30 1740 H 158.179 -2.91548 0.681184 0
M  V30 1741 H 155.725 -1.40191 0.329026 0
M  V30 1742 H 157.678 -3.92351 -1.53748 0
M  V30 1743 H 156.402 -2.71299 -1.81836 0
M  V30 1744 H 155.061 -3.6649 0.0899054 0
M  V30 1745 H 154.709 -4.50385 -2.2397 0
M  V30 1746 H 154.409 -5.7837 -1.03737 0
M  V30 1747 H 155.933 -5.77955 -1.96979 0
M  V30 1748 H 157.347 -5.72509 0.300996 0
M  V30 1749 H 155.744 -5.90455 1.07156 0
M  V30 1750 H 156.814 -4.58496 1.57829 0
M  V30 1751 N 158.157 -0.370918 -1.53173 0
M  V30 1752 C 159.104 0.473035 -2.259 0
M  V30 1753 C 160.074 1.07311 -1.26781 0
M  V30 1754 O 161.259 1.1046 -1.55574 0
M  V30 1755 C 158.399 1.60405 -3.05556 0
M  V30 1756 C 157.512 1.02863 -4.19575 0
M  V30 1757 C 156.647 2.12918 -4.86661 0
M  V30 1758 C 155.686 1.52869 -5.92704 0
M  V30 1759 N 154.823 2.56779 -6.53459 0
M  V30 1760 H 159.663 -0.153649 -2.97604 0
M  V30 1761 H 157.2 -0.0875946 -1.46839 0
M  V30 1762 H 159.158 2.27034 -3.50016 0
M  V30 1763 H 157.788 2.20131 -2.36097 0
M  V30 1764 H 156.84 0.252465 -3.79561 0
M  V30 1765 H 158.152 0.549642 -4.95762 0
M  V30 1766 H 157.306 2.87356 -5.34333 0
M  V30 1767 H 156.045 2.6417 -4.09958 0
M  V30 1768 H 155.05 0.769479 -5.44389 0
M  V30 1769 H 156.275 1.02435 -6.7133 0
M  V30 1770 H 154.221 3.07235 -5.79606 0
M  V30 1771 H 154.138 2.13583 -7.25202 0
M  V30 1772 H 155.406 3.30903 -7.05779 0
M  V30 1773 N 159.635 1.57281 -0.100228 0
M  V30 1774 C 160.583 2.15542 0.874328 0
M  V30 1775 C 161.577 1.09962 1.28859 0
M  V30 1776 O 162.783 1.28298 1.26252 0
M  V30 1777 H 159.158 0.689567 0.300003 0
M  V30 1778 H 161.129 2.96241 0.35829 0
M  V30 1779 C 159.878 2.75454 2.1218 0
M  V30 1780 H 159.201 3.56384 1.81193 0
M  V30 1781 H 160.641 3.19781 2.78417 0
M  V30 1782 C 159.1 1.71602 2.89921 0
M  V30 1783 O 159.63 1.15804 3.84646 0
M  V30 1784 N 157.836 1.41975 2.53558 0
M  V30 1785 H 157.383 1.87539 1.76598 0
M  V30 1786 H 157.341 0.727274 3.05873 0
M  V30 1787 N 161.113 -0.173488 1.56642 0
M  V30 1788 C 162.046 -1.24353 1.91342 0
M  V30 1789 C 163.024 -1.4289 0.775965 0
M  V30 1790 O 164.208 -1.57932 1.02907 0
M  V30 1791 C 161.335 -2.60683 2.16245 0
M  V30 1792 C 160.381 -2.58894 3.38934 0
M  V30 1793 S 161.214 -2.0819 4.93373 0
M  V30 1794 C 162.37 -3.46302 5.21369 0
M  V30 1795 H 162.603 -0.947345 2.81803 0
M  V30 1796 H 160.136 -0.377958 1.49703 0
M  V30 1797 H 162.094 -3.39149 2.31275 0
M  V30 1798 H 160.755 -2.87502 1.26496 0
M  V30 1799 H 159.948 -3.59188 3.53553 0
M  V30 1800 H 159.55 -1.88522 3.2301 0
M  V30 1801 H 161.842 -4.42287 5.13214 0
M  V30 1802 H 162.785 -3.3656 6.23003 0
M  V30 1803 H 163.193 -3.42214 4.48943 0
M  V30 1804 N 162.591 -1.51276 -0.441967 0
M  V30 1805 C 163.554 -1.7167 -1.51862 0
M  V30 1806 C 164.554 -0.586793 -1.49711 0
M  V30 1807 O 165.744 -0.854276 -1.51815 0
M  V30 1808 C 162.876 -1.76889 -2.91416 0
M  V30 1809 H 164.069 -2.67754 -1.35084 0
M  V30 1810 H 161.622 -1.41196 -0.670333 0
M  V30 1811 H 162.357 -0.826026 -3.13604 0
M  V30 1812 H 162.142 -2.59001 -2.94382 0
M  V30 1813 H 163.632 -1.94522 -3.69528 0
M  V30 1814 N 164.069 0.697108 -1.41344 0
M  V30 1815 C 165.294 1.49096 -1.44171 0
M  V30 1816 C 165.719 1.88038 -0.0481568 0
M  V30 1817 O 165.077 1.54525 0.948243 0
M  V30 1818 C 165.125 2.73088 -2.3549 0
M  V30 1819 O 164.229 3.70514 -1.81088 0
M  V30 1820 H 163.57 0.448801 -0.489361 0
M  V30 1821 H 166.1 0.856992 -1.85787 0
M  V30 1822 H 166.11 3.21413 -2.51312 0
M  V30 1823 H 164.785 2.44081 -3.36745 0
M  V30 1824 H 163.362 3.29441 -1.74708 0
M  V30 1825 N 165.547 1.27147 0.931209 0
M  V30 1826 C 166.497 1.06227 2.01742 0
M  V30 1827 C 167.481 -0.00859065 1.60898 0
M  V30 1828 O 168.673 0.209537 1.75755 0
M  V30 1829 C 165.802 0.707787 3.35924 0
M  V30 1830 C 164.888 1.81661 3.83223 0
M  V30 1831 N 165.279 3.05564 4.03069 0
M  V30 1832 C 163.577 1.70249 4.12227 0
M  V30 1833 C 164.278 3.77697 4.42403 0
M  V30 1834 N 163.254 3.0544 4.49675 0
M  V30 1835 H 167.056 2.00261 2.15111 0
M  V30 1836 H 164.57 1.1781 1.11779 0
M  V30 1837 H 166.567 0.539043 4.134 0
M  V30 1838 H 165.227 -0.224964 3.2392 0
M  V30 1839 H 166.238 3.41363 3.89476 0
M  V30 1840 H 162.915 0.840329 4.08956 0
M  V30 1841 H 164.305 4.84168 4.65866 0
M  V30 1842 N 167.025 -1.13721 1.09112 0
M  V30 1843 C 168.436 -1.6648 0.845068 0
M  V30 1844 C 168.787 -1.85911 -0.62701 0
M  V30 1845 O 167.912 -1.57556 -1.48341 0
M  V30 1846 C 168.507 -3.02413 1.52748 0
M  V30 1847 C 167.066 -3.52176 1.32849 0
M  V30 1848 C 166.213 -2.27492 1.58564 0
M  V30 1849 H 169.164 -0.976872 1.25072 0
M  V30 1850 H 169.185 -3.68223 0.958752 0
M  V30 1851 H 168.697 -2.88238 2.59885 0
M  V30 1852 H 166.798 -3.7156 0.278137 0
M  V30 1853 H 166.911 -4.32499 2.0611 0
M  V30 1854 H 165.275 -2.33923 1.00758 0
M  V30 1855 H 166.058 -2.15886 2.66924 0
M  V30 1856 N 168.503 -0.877838 -1.30888 0
M  V30 1857 C 169.749 -0.493426 -1.96706 0
M  V30 1858 C 170.082 0.953504 -1.6918 0
M  V30 1859 O 169.357 1.67266 -0.992594 0
M  V30 1860 C 169.64 -0.760429 -3.51979 0
M  V30 1861 C 169.493 -2.25747 -3.89048 0
M  V30 1862 C 170.812 -0.232148 -4.39487 0
M  V30 1863 H 167.931 -0.180746 -0.714493 0
M  V30 1864 H 170.573 -1.10052 -1.54882 0
M  V30 1865 H 168.723 -0.243715 -3.87735 0
M  V30 1866 H 170.395 -2.84204 -3.63354 0
M  V30 1867 H 168.638 -2.72694 -3.37373 0
M  V30 1868 H 169.309 -2.39491 -4.97341 0
M  V30 1869 H 171.785 -0.674314 -4.106 0
M  V30 1870 H 170.661 -0.448355 -5.47066 0
M  V30 1871 H 170.922 0.866297 -4.33529 0
M  V30 1872 N 169.982 1.44106 -0.638065 0
M  V30 1873 C 171.207 2.0685 -0.150916 0
M  V30 1874 C 171.632 1.47417 1.16833 0
M  V30 1875 O 170.99 0.578264 1.71831 0
M  V30 1876 C 171.038 3.60555 -0.05708 0
M  V30 1877 O 170.142 4.00465 0.984972 0
M  V30 1878 H 169.483 0.658151 -0.0879399 0
M  V30 1879 H 172.013 1.84865 -0.876707 0
M  V30 1880 H 172.023 4.07789 0.131232 0
M  V30 1881 H 170.698 4.03193 -1.02021 0
M  V30 1882 H 169.275 3.64849 0.770672 0
M  V30 1883 N 171.46 0.379036 1.52974 0
M  V30 1884 C 172.39 -0.452706 2.29069 0
M  V30 1885 C 173.371 -1.07237 1.32039 0
M  V30 1886 O 174.556 -1.08708 1.60923 0
M  V30 1887 C 171.686 -1.5856 3.08992 0
M  V30 1888 C 170.64 -1.0925 4.13822 0
M  V30 1889 C 169.966 -2.31668 4.81907 0
M  V30 1890 C 171.266 -0.167702 5.22031 0
M  V30 1891 H 172.96 0.182181 2.98845 0
M  V30 1892 H 170.506 0.0890592 1.43724 0
M  V30 1893 H 172.459 -2.1742 3.6098 0
M  V30 1894 H 171.183 -2.24792 2.36931 0
M  V30 1895 H 169.842 -0.526494 3.628 0
M  V30 1896 H 169.49 -2.96386 4.06404 0
M  V30 1897 H 169.19 -1.9934 5.52754 0
M  V30 1898 H 170.714 -2.91189 5.36695 0
M  V30 1899 H 172.128 -0.664186 5.6944 0
M  V30 1900 H 170.525 0.0653265 6.00064 0
M  V30 1901 H 171.595 0.786347 4.78482 0
M  V30 1902 N 172.938 -1.57226 0.108567 0
M  V30 1903 C 173.888 -2.11305 -0.856396 0
M  V30 1904 C 174.872 -1.03129 -1.23504 0
M  V30 1905 O 176.064 -1.29381 -1.20787 0
M  V30 1906 C 173.193 -2.70771 -2.11041 0
M  V30 1907 C 172.279 -3.86011 -1.7566 0
M  V30 1908 N 172.67 -4.93492 -1.10902 0
M  V30 1909 C 170.968 -3.95999 -2.05185 0
M  V30 1910 C 171.669 -5.73984 -0.944308 0
M  V30 1911 N 170.645 -5.2346 -1.46596 0
M  V30 1912 H 174.447 -2.91784 -0.352002 0
M  V30 1913 H 171.961 -1.62126 -0.0942324 0
M  V30 1914 H 173.958 -3.07851 -2.81128 0
M  V30 1915 H 172.618 -1.91751 -2.62034 0
M  V30 1916 H 173.629 -5.1208 -0.774235 0
M  V30 1917 H 170.306 -3.28007 -2.58298 0
M  V30 1918 H 171.696 -6.70479 -0.436813 0
M  V30 1919 N 174.416 0.165178 -1.56732 0
M  V30 1920 C 175.379 1.18822 -1.95995 0
M  V30 1921 C 176.379 1.3685 -0.84431 0
M  V30 1922 O 177.569 1.34152 -1.11126 0
M  V30 1923 C 174.701 2.5521 -2.26011 0
M  V30 1924 H 175.894 0.851825 -2.87548 0
M  V30 1925 H 173.447 0.407857 -1.50885 0
M  V30 1926 H 174.182 2.93852 -1.37191 0
M  V30 1927 H 173.967 2.43489 -3.07336 0
M  V30 1928 H 175.457 3.28927 -2.57288 0
M  V30 1929 N 175.894 1.51508 0.433938 0
M  V30 1930 C 177.14 1.64588 1.18484 0
M  V30 1931 C 177.473 0.362666 1.90784 0
M  V30 1932 O 176.748 -0.637892 1.83742 0
M  V30 1933 C 177.031 2.85149 2.19913 0
M  V30 1934 C 176.884 4.23456 1.51674 0
M  V30 1935 C 178.203 3.01227 3.20858 0
M  V30 1936 H 175.322 0.598994 0.429389 0
M  V30 1937 H 177.964 1.84002 0.473647 0
M  V30 1938 H 176.114 2.68729 2.80566 0
M  V30 1939 H 177.786 4.51552 0.943322 0
M  V30 1940 H 176.029 4.25998 0.819035 0
M  V30 1941 H 176.7 5.03812 2.2556 0
M  V30 1942 H 179.176 3.16382 2.70263 0
M  V30 1943 H 178.052 3.87141 3.89118 0
M  V30 1944 H 178.313 2.13447 3.8716 0
M  V30 1945 N 177.372 -0.689602 1.41712 0
M  V30 1946 C 178.62 -1.4468 1.4111 0
M  V30 1947 C 178.941 -1.94986 0.0232196 0
M  V30 1948 O 178.211 -1.72097 -0.935913 0
M  V30 1949 H 176.791 -0.536847 0.519427 0
M  V30 1950 H 179.453 -0.815825 1.77004 0
M  V30 1951 H 178.549 -2.30706 2.10193 0
M  V30 1952 N 178.85 -1.27639 -0.924453 0
M  V30 1953 C 180.096 -1.14336 -1.67497 0
M  V30 1954 C 180.429 0.309465 -1.91718 0
M  V30 1955 O 179.704 1.22608 -1.50989 0
M  V30 1956 C 179.987 -1.93096 -3.0395 0
M  V30 1957 C 179.84 -3.46381 -2.8695 0
M  V30 1958 C 181.159 -1.73798 -4.0433 0
M  V30 1959 H 178.278 -0.416728 -0.607871 0
M  V30 1960 H 180.92 -1.56832 -1.07256 0
M  V30 1961 H 179.07 -1.56982 -3.55372 0
M  V30 1962 H 180.742 -3.92343 -2.42621 0
M  V30 1963 H 178.985 -3.72557 -2.22225 0
M  V30 1964 H 179.656 -3.96735 -3.83804 0
M  V30 1965 H 182.132 -2.05293 -3.61931 0
M  V30 1966 H 181.008 -2.31294 -4.97789 0
M  V30 1967 H 181.269 -0.686725 -4.36734 0
M  V30 1968 N 180.328 1.1314 -1.09713 0
M  V30 1969 C 181.553 1.88862 -0.857081 0
M  V30 1970 C 181.978 1.78729 0.586304 0
M  V30 1971 O 181.336 1.13692 1.41222 0
M  V30 1972 C 181.384 3.36325 -1.30069 0
M  V30 1973 O 180.488 4.09815 -0.461007 0
M  V30 1974 H 179.829 0.587108 -0.310162 0
M  V30 1975 H 182.359 1.43129 -1.46203 0
M  V30 1976 H 182.369 3.87157 -1.28738 0
M  V30 1977 H 181.044 3.43017 -2.35185 0
M  V30 1978 H 179.621 3.68986 -0.538888 0
M  V30 1979 N 181.806 0.884767 1.30421 0
M  V30 1980 C 183.036 0.517293 2.00019 0
M  V30 1981 C 183.444 -0.898632 1.66497 0
M  V30 1982 O 182.787 -1.60245 0.898181 0
M  V30 1983 C 182.849 0.612025 3.54252 0
M  V30 1984 C 182.513 1.99222 4.1129 0
M  V30 1985 C 183.51 2.9616 4.273 0
M  V30 1986 C 181.195 2.29755 4.46674 0
M  V30 1987 C 183.189 4.21764 4.77906 0
M  V30 1988 C 180.876 3.55606 4.96979 0
M  V30 1989 C 181.874 4.51425 5.12547 0
M  V30 1990 O 181.562 5.75043 5.61766 0
M  V30 1991 H 181.294 0.198529 0.64619 0
M  V30 1992 H 183.848 1.1919 1.67281 0
M  V30 1993 H 182.078 -0.119561 3.86515 0
M  V30 1994 H 183.767 0.255859 4.05093 0
M  V30 1995 H 184.533 2.73882 4.00267 0
M  V30 1996 H 180.412 1.55942 4.33824 0
M  V30 1997 H 183.956 4.96561 4.89972 0
M  V30 1998 H 179.853 3.7772 5.23448 0
M  V30 1999 H 180.621 5.77422 5.80109 0
M  V30 2000 N 183.284 -1.43765 0.645699 0
M  V30 2001 C 184.53 -2.02731 0.164844 0
M  V30 2002 C 184.885 -1.49983 -1.2051 0
M  V30 2003 O 184.178 -0.680208 -1.79119 0
M  V30 2004 C 184.372 -3.57238 0.107679 0
M  V30 2005 C 184.201 -4.24977 1.47054 0
M  V30 2006 C 182.971 -4.61356 2.06103 0
M  V30 2007 C 185.169 -4.54476 2.40741 0
M  V30 2008 N 183.151 -5.14132 3.35473 0
M  V30 2009 C 184.522 -5.08489 3.54737 0
M  V30 2010 C 186.577 -4.36438 2.39637 0
M  V30 2011 C 185.28 -5.46364 4.67845 0
M  V30 2012 C 187.306 -4.7537 3.5182 0
M  V30 2013 C 186.668 -5.2951 4.64541 0
M  V30 2014 H 182.767 -0.774976 0.104578 0
M  V30 2015 H 185.351 -1.75051 0.852367 0
M  V30 2016 H 183.522 -3.84498 -0.549165 0
M  V30 2017 H 185.254 -4.0288 -0.383351 0
M  V30 2018 H 182.009 -4.46151 1.58892 0
M  V30 2019 H 182.433 -5.4498 4.01654 0
M  V30 2020 H 187.075 -3.93861 1.53731 0
M  V30 2021 H 184.793 -5.87888 5.54448 0
M  V30 2022 H 188.379 -4.63115 3.52159 0
M  V30 2023 H 187.259 -5.59077 5.49911 0
M  V30 2024 N 184.763 -0.387143 -1.52771 0
M  V30 2025 C 185.71 0.449048 -2.26389 0
M  V30 2026 C 186.68 1.05961 -1.27912 0
M  V30 2027 O 187.865 1.08804 -1.56737 0
M  V30 2028 C 185.005 1.57155 -3.0724 0
M  V30 2029 C 184.118 0.984066 -4.20643 0
M  V30 2030 C 183.253 2.07745 -4.88892 0
M  V30 2031 C 182.292 1.46574 -5.94292 0
M  V30 2032 N 181.429 2.49834 -6.56146 0
M  V30 2033 H 186.269 -0.185205 -2.97424 0
M  V30 2034 H 183.806 -0.103164 -1.46738 0
M  V30 2035 H 185.764 2.23309 -3.52405 0
M  V30 2036 H 184.394 2.17615 -2.38419 0
M  V30 2037 H 183.446 0.212193 -3.79808 0
M  V30 2038 H 184.758 0.497029 -4.96318 0
M  V30 2039 H 183.912 2.81673 -5.3735 0
M  V30 2040 H 182.651 2.59807 -4.12737 0
M  V30 2041 H 181.656 0.711696 -5.45174 0
M  V30 2042 H 182.881 0.953088 -6.72379 0
M  V30 2043 H 180.827 3.0107 -5.82832 0
M  V30 2044 H 180.744 2.05879 -7.27427 0
M  V30 2045 H 182.012 3.23399 -7.09249 0
M  V30 2046 N 186.241 1.57166 -0.116904 0
M  V30 2047 C 187.204 2.14039 0.819742 0
M  V30 2048 C 188.204 1.07477 1.19605 0
M  V30 2049 O 189.394 1.33263 1.1219 0
M  V30 2050 C 186.526 2.67891 2.10826 0
M  V30 2051 H 187.719 2.98128 0.325511 0
M  V30 2052 H 185.272 1.55739 0.132312 0
M  V30 2053 H 186.007 1.87384 2.64685 0
M  V30 2054 H 185.792 3.45823 1.84793 0
M  V30 2055 H 187.282 3.11809 2.77785 0
M  V30 2056 N 187.719 -0.156864 1.56817 0
M  V30 2057 C 188.944 -0.890331 1.87318 0
M  V30 2058 C 189.369 -1.74394 0.704855 0
M  V30 2059 O 188.727 -1.77972 -0.345786 0
M  V30 2060 C 188.775 -1.73102 3.16336 0
M  V30 2061 O 187.879 -2.83422 2.99576 0
M  V30 2062 H 187.22 -0.24857 0.615718 0
M  V30 2063 H 189.75 -0.150649 2.04045 0
M  V30 2064 H 189.76 -2.12803 3.48107 0
M  V30 2065 H 188.435 -1.10412 4.00976 0
M  V30 2066 H 187.012 -2.47199 2.7919 0
M  V30 2067 N 189.197 -1.51736 -0.425897 0
M  V30 2068 C 190.107 -1.76738 -1.54275 0
M  V30 2069 C 191.123 -0.65211 -1.61318 0
M  V30 2070 O 192.299 -0.935654 -1.78346 0
M  V30 2071 C 189.364 -1.89755 -2.90162 0
M  V30 2072 C 188.425 -3.13633 -2.93143 0
M  V30 2073 C 187.658 -3.2602 -4.22548 0
M  V30 2074 O 187.881 -2.44067 -5.15546 0
M  V30 2075 O 186.815 -4.19071 -4.32046 0
M  V30 2076 H 190.641 -2.71502 -1.36089 0
M  V30 2077 H 188.226 -1.36376 -0.610069 0
M  V30 2078 H 190.108 -2.00236 -3.70788 0
M  V30 2079 H 188.783 -0.981785 -3.08452 0
M  V30 2080 H 187.69 -3.08622 -2.11431 0
M  V30 2081 H 189.023 -4.04936 -2.798 0
M  V30 2082 N 190.675 0.682077 -1.42076 0
M  V30 2083 C 191.923 1.4393 -1.41876 0
M  V30 2084 C 192.244 1.94971 -0.0335599 0
M  V30 2085 O 191.514 1.72591 0.926773 0
M  V30 2086 H 190.094 0.534085 -0.522267 0
M  V30 2087 H 192.756 0.806427 -1.77434 0
M  V30 2088 H 191.852 2.29588 -2.11414 0
M  V30 2089 N 192.153 1.28127 0.917671 0
M  V30 2090 C 193.116 1.11744 2.00115 0
M  V30 2091 C 194.116 0.0583052 1.60694 0
M  V30 2092 O 195.306 0.303755 1.71531 0
M  V30 2093 C 192.438 0.704862 3.33533 0
M  V30 2094 H 193.631 2.07966 2.16079 0
M  V30 2095 H 191.184 1.11058 1.09981 0
M  V30 2096 H 191.919 -0.258299 3.2327 0
M  V30 2097 H 191.704 1.4699 3.63505 0
M  V30 2098 H 193.194 0.612768 4.1308 0
M  V30 2099 N 193.631 -1.12557 1.10312 0
M  V30 2100 C 194.541 -2.21841 0.763142 0
M  V30 2101 C 195.557 -1.72354 -0.238801 0
M  V30 2102 O 196.733 -2.01249 -0.0778746 0
M  V30 2103 C 193.798 -3.46131 0.198632 0
M  V30 2104 C 192.859 -4.10464 1.25769 0
M  V30 2105 C 192.092 -5.28821 0.72002 0
M  V30 2106 O 192.315 -5.6859 -0.453993 0
M  V30 2107 O 191.249 -5.83437 1.47935 0
M  V30 2108 H 195.075 -2.53312 1.67532 0
M  V30 2109 H 192.66 -1.20867 0.878157 0
M  V30 2110 H 194.542 -4.2125 -0.112401 0
M  V30 2111 H 193.217 -3.16338 -0.686419 0
M  V30 2112 H 192.124 -3.3713 1.62156 0
M  V30 2113 H 193.457 -4.44408 2.11571 0
M  V30 2114 N 195.109 -0.891671 -1.2995 0
M  V30 2115 C 196.339 -0.527893 -1.99742 0
M  V30 2116 C 196.747 0.88979 -1.66971 0
M  V30 2117 O 196.09 1.59766 -0.906667 0
M  V30 2118 C 196.152 -0.630804 -3.53922 0
M  V30 2119 C 195.816 -2.01401 -4.10228 0
M  V30 2120 C 196.813 -2.98422 -4.25724 0
M  V30 2121 C 194.498 -2.32121 -4.45449 0
M  V30 2122 C 196.492 -4.24293 -4.75662 0
M  V30 2123 C 194.179 -3.58237 -4.95086 0
M  V30 2124 C 195.177 -4.54137 -5.10146 0
M  V30 2125 O 194.865 -5.78014 -5.58708 0
M  V30 2126 H 194.597 -0.201953 -0.645129 0
M  V30 2127 H 197.151 -1.20076 -1.66646 0
M  V30 2128 H 195.381 0.0990616 -3.86573 0
M  V30 2129 H 197.07 -0.277338 -4.04951 0
M  V30 2130 H 197.836 -2.76001 -3.98809 0
M  V30 2131 H 193.715 -1.5824 -4.32991 0
M  V30 2132 H 197.259 -4.99153 -4.87332 0
M  V30 2133 H 193.156 -3.80491 -5.21437 0
M  V30 2134 H 193.924 -5.8049 -5.77039 0
M  V30 2135 N 196.587 1.43421 -0.653314 0
M  V30 2136 C 197.864 1.95361 -0.0966581 0
M  V30 2137 C 198.244 1.59461 1.38331 0
M  V30 2138 O 197.592 0.879777 2.10884 0
M  V30 2139 C 197.802 3.47311 -0.342988 0
M  V30 2140 C 199.15 4.23875 -0.24798 0
M  V30 2141 O 200.174 3.55133 -0.275553 0
M  V30 2142 O 199.033 5.4623 -0.171771 0
M  V30 2143 H 196.127 0.826945 0.00956291 0
M  V30 2144 H 198.673 1.5336 -0.726558 0
M  V30 2145 H 197.445 3.66569 -1.36906 0
M  V30 2146 H 197.068 3.9631 0.319975 0
M  V30 2147 N 198.065 0.39524 1.52563 0
M  V30 2148 C 199.342 -0.242908 1.94086 0
M  V30 2149 C 199.722 -1.63841 1.33114 0
M  V30 2150 O 199.07 -2.22928 0.501529 0
M  V30 2151 C 199.28 -0.26327 3.48006 0
M  V30 2152 C 200.628 -0.489354 4.21771 0
M  V30 2153 O 201.652 -0.343226 3.54543 0
M  V30 2154 O 200.511 -0.776169 5.4096 0
M  V30 2155 H 197.605 -0.152536 0.812811 0
M  V30 2156 H 200.151 0.450178 1.6362 0
M  V30 2157 H 198.923 0.713985 3.84731 0
M  V30 2158 H 198.546 -1.00103 3.84792 0
M  V30 2159 N 199.544 -1.57102 0.125237 0
M  V30 2160 C 200.476 -2.12726 -0.853237 0
M  V30 2161 C 201.489 -1.07145 -1.22571 0
M  V30 2162 O 202.678 -1.34497 -1.17358 0
M  V30 2163 C 199.778 -2.61709 -2.15317 0
M  V30 2164 C 198.951 -3.91456 -1.95143 0
M  V30 2165 C 198.01 -4.25973 -3.08923 0
M  V30 2166 O 197.036 -4.94682 -2.81564 0
M  V30 2167 N 198.238 -3.83795 -4.35524 0
M  V30 2168 H 201.003 -2.97307 -0.377964 0
M  V30 2169 H 198.564 -1.61792 -0.0590011 0
M  V30 2170 H 200.556 -2.81826 -2.90441 0
M  V30 2171 H 199.126 -1.81974 -2.54174 0
M  V30 2172 H 198.346 -3.80185 -1.04177 0
M  V30 2173 H 199.634 -4.76283 -1.78976 0
M  V30 2174 H 199.032 -3.2839 -4.60626 0
M  V30 2175 H 197.589 -4.09008 -5.07499 0
M  V30 2176 N 201.022 0.148545 -1.56898 0
M  V30 2177 C 202.25 0.876389 -1.87422 0
M  V30 2178 C 202.665 1.74809 -0.713256 0
M  V30 2179 O 202.022 1.79725 0.317025 0
M  V30 2180 C 202.073 1.73438 -3.17178 0
M  V30 2181 O 201.794 0.897809 -4.28802 0
M  V30 2182 C 203.295 2.56993 -3.61205 0
M  V30 2183 H 200.515 0.253489 -0.621277 0
M  V30 2184 H 203.059 0.141798 -2.04008 0
M  V30 2185 H 201.214 2.42205 -3.0235 0
M  V30 2186 H 201.628 1.48672 -5.02988 0
M  V30 2187 H 203.102 3.12773 -4.54838 0
M  V30 2188 H 203.579 3.32958 -2.86419 0
M  V30 2189 H 204.185 1.9352 -3.78722 0
M  V30 2190 N 202.5 1.5196 0.417844 0
M  V30 2191 C 203.725 1.69717 1.1921 0
M  V30 2192 C 204.15 0.402148 1.83751 0
M  V30 2193 O 203.508 -0.639593 1.69643 0
M  V30 2194 C 203.556 2.82794 2.2374 0
M  V30 2195 O 202.66 2.47756 3.29683 0
M  V30 2196 H 202.001 0.565263 0.348387 0
M  V30 2197 H 204.531 1.98621 0.490985 0
M  V30 2198 H 204.541 3.07452 2.68212 0
M  V30 2199 H 203.216 3.76756 1.76146 0
M  V30 2200 H 201.793 2.33739 2.90552 0
M  V30 2201 N 203.978 -0.674533 1.42435 0
M  V30 2202 C 204.91 -1.80005 1.41883 0
M  V30 2203 C 205.923 -1.59667 0.31787 0
M  V30 2204 O 207.112 -1.68781 0.580973 0
M  V30 2205 C 204.212 -3.17114 1.19549 0
M  V30 2206 C 203.385 -3.64299 2.42084 0
M  V30 2207 C 202.444 -4.80142 2.15291 0
M  V30 2208 O 201.47 -4.90673 2.88493 0
M  V30 2209 N 202.672 -5.68869 1.1562 0
M  V30 2210 H 205.437 -1.80964 2.38898 0
M  V30 2211 H 202.998 -0.857633 1.37318 0
M  V30 2212 H 204.99 -3.92267 0.995417 0
M  V30 2213 H 203.56 -3.11053 0.310569 0
M  V30 2214 H 202.78 -2.79822 2.77657 0
M  V30 2215 H 204.068 -3.92567 3.23679 0
M  V30 2216 H 203.466 -5.63012 0.550765 0
M  V30 2217 H 202.023 -6.43833 1.016 0
M  V30 2218 N 205.456 -1.28612 -0.910864 0
M  V30 2219 C 206.872 -1.06381 -1.18976 0
M  V30 2220 C 207.072 0.191998 -2.00583 0
M  V30 2221 O 206.128 0.892869 -2.36187 0
M  V30 2222 C 207.441 -2.31295 -1.92154 0
M  V30 2223 C 208.989 -2.36503 -2.05025 0
M  V30 2224 C 209.464 -3.61191 -2.81612 0
M  V30 2225 N 210.955 -3.61847 -2.89172 0
M  V30 2226 C 211.69 -4.55004 -3.4894 0
M  V30 2227 N 211.186 -5.58482 -4.09963 0
M  V30 2228 N 212.979 -4.42594 -3.46506 0
M  V30 2229 H 205.13 -2.09221 -0.366094 0
M  V30 2230 H 207.393 -0.921003 -0.224629 0
M  V30 2231 H 207.099 -3.228 -1.39618 0
M  V30 2232 H 206.973 -2.37934 -2.9269 0
M  V30 2233 H 209.36 -1.45494 -2.5674 0
M  V30 2234 H 209.441 -2.33857 -1.03657 0
M  V30 2235 H 209.085 -4.52545 -2.30576 0
M  V30 2236 H 209.015 -3.61092 -3.83302 0
M  V30 2237 H 211.506 -2.87022 -2.45819 0
M  V30 2238 H 211.819 -6.25704 -4.53557 0
M  V30 2239 H 210.164 -5.62305 -4.08459 0
M  V30 2240 H 213.355 -3.60953 -2.98045 0
M  V30 2241 H 213.528 -5.15381 -3.92793 0
M  V30 2242 N 206.934 1.1197 -1.10907 0
M  V30 2243 C 207.844 2.21433 -0.774896 0
M  V30 2244 C 208.86 1.72478 0.229657 0
M  V30 2245 O 210.036 2.01288 0.0672008 0
M  V30 2246 C 207.101 3.4602 -0.216986 0
M  V30 2247 C 206.162 4.09791 -1.27944 0
M  V30 2248 C 205.395 5.28431 -0.748055 0
M  V30 2249 O 205.618 5.68823 0.423833 0
M  V30 2250 O 204.552 5.82644 -1.51027 0
M  V30 2251 H 208.378 2.5242 -1.68873 0
M  V30 2252 H 205.963 1.20399 -0.884555 0
M  V30 2253 H 207.845 4.21304 0.090059 0
M  V30 2254 H 206.52 3.16698 0.669633 0
M  V30 2255 H 205.427 3.36265 -1.63941 0
M  V30 2256 H 206.76 4.4328 -2.13925 0
M  V30 2257 N 208.412 0.89855 1.29475 0
M  V30 2258 C 209.359 0.373819 2.27753 0
M  V30 2259 C 210.329 -0.543444 1.56958 0
M  V30 2260 O 211.514 -0.468934 1.84948 0
M  V30 2261 C 208.654 -0.393648 3.42848 0
M  V30 2262 C 207.767 0.554379 4.28428 0
M  V30 2263 C 206.902 -0.230026 5.30702 0
M  V30 2264 C 205.941 0.712599 6.07938 0
M  V30 2265 N 205.078 -0.0373283 7.0209 0
M  V30 2266 H 209.918 1.21699 2.72017 0
M  V30 2267 H 207.455 0.611456 1.33789 0
M  V30 2268 H 209.413 -0.85466 4.08352 0
M  V30 2269 H 208.043 -1.20128 2.99615 0
M  V30 2270 H 207.095 1.13391 3.63107 0
M  V30 2271 H 208.407 1.27597 4.82204 0
M  V30 2272 H 207.561 -0.752288 6.02018 0
M  V30 2273 H 206.3 -0.984758 4.77654 0
M  V30 2274 H 205.305 1.24637 5.35486 0
M  V30 2275 H 206.53 1.46664 6.63074 0
M  V30 2276 H 204.476 -0.774348 6.51414 0
M  V30 2277 H 204.393 0.624374 7.53417 0
M  V30 2278 H 205.661 -0.539891 7.77628 0
M  V30 2279 N 209.89 -1.43072 0.660911 0
M  V30 2280 C 210.8 -2.34585 -0.0264163 0
M  V30 2281 C 211.816 -1.54316 -0.803898 0
M  V30 2282 O 212.992 -1.86939 -0.749391 0
M  V30 2283 C 210.057 -3.32689 -0.975639 0
M  V30 2284 C 209.118 -4.2886 -0.194236 0
M  V30 2285 C 208.351 -5.22278 -1.09825 0
M  V30 2286 O 208.574 -5.20299 -2.33763 0
M  V30 2287 O 207.508 -5.99228 -0.566513 0
M  V30 2288 H 211.334 -2.94869 0.727034 0
M  V30 2289 H 208.919 -1.43342 0.42111 0
M  V30 2290 H 210.801 -3.92995 -1.52094 0
M  V30 2291 H 209.476 -2.74898 -1.70918 0
M  V30 2292 H 208.383 -3.72011 0.394835 0
M  V30 2293 H 209.716 -4.89655 0.499899 0
M  V30 2294 N 211.368 -0.403325 -1.52352 0
M  V30 2295 C 212.645 0.232611 -1.94212 0
M  V30 2296 C 213.025 1.63133 -1.33981 0
M  V30 2297 O 212.373 2.22659 -0.513344 0
M  V30 2298 C 212.583 0.244811 -3.4814 0
M  V30 2299 C 213.931 0.46698 -4.22024 0
M  V30 2300 O 214.955 0.324419 -3.5472 0
M  V30 2301 O 213.814 0.74747 -5.41364 0
M  V30 2302 H 210.908 0.148223 -0.813609 0
M  V30 2303 H 213.454 -0.458848 -1.63379 0
M  V30 2304 H 212.226 -0.734378 -3.84347 0
M  V30 2305 H 211.849 0.980611 -3.85318 0
M  V30 2306 N 212.846 1.57033 -0.133567 0
M  V30 2307 C 214.123 1.87256 0.56522 0
M  V30 2308 C 214.503 1.03726 1.83859 0
M  V30 2309 O 213.851 0.120247 2.28183 0
M  V30 2310 C 214.061 3.3865 0.843636 0
M  V30 2311 C 215.409 4.07574 1.19032 0
M  V30 2312 O 216.433 3.43752 0.933429 0
M  V30 2313 O 215.292 5.20259 1.67312 0
M  V30 2314 H 212.386 0.775678 0.286796 0
M  V30 2315 H 214.932 1.68855 -0.169168 0
M  V30 2316 H 213.704 3.91257 -0.0581149 0
M  V30 2317 H 213.327 3.62532 1.63268 0
M  V30 2318 N 214.325 -0.140222 1.56975 0
M  V30 2319 C 215.272 -1.17292 1.98774 0
M  V30 2320 C 216.242 -1.4232 0.856408 0
M  V30 2321 O 217.427 -1.54541 1.119 0
M  V30 2322 C 214.567 -2.49973 2.37923 0
M  V30 2323 C 213.68 -2.32062 3.64378 0
M  V30 2324 C 212.815 -3.57825 3.926 0
M  V30 2325 C 211.854 -3.3498 5.12303 0
M  V30 2326 N 210.991 -4.52891 5.36502 0
M  V30 2327 H 215.831 -0.809472 2.86795 0
M  V30 2328 H 213.368 -0.388237 1.41884 0
M  V30 2329 H 215.326 -3.27346 2.58652 0
M  V30 2330 H 213.956 -2.84252 1.52972 0
M  V30 2331 H 213.008 -1.45711 3.51387 0
M  V30 2332 H 214.32 -2.11145 4.51906 0
M  V30 2333 H 213.474 -4.43624 4.13863 0
M  V30 2334 H 212.213 -3.81753 3.03506 0
M  V30 2335 H 211.218 -2.4757 4.90906 0
M  V30 2336 H 212.443 -3.12444 6.02956 0
M  V30 2337 H 210.389 -4.76979 4.50363 0
M  V30 2338 H 210.306 -4.35001 6.18312 0
M  V30 2339 H 211.574 -5.39884 5.62268 0
M  V30 2340 N 215.803 -1.52179 -0.40978 0
M  V30 2341 C 217.049 -1.66453 -1.15851 0
M  V30 2342 C 217.382 -0.392972 -1.90182 0
M  V30 2343 O 216.657 0.608579 -1.84734 0
M  V30 2344 C 216.94 -2.88612 -2.15349 0
M  V30 2345 C 216.793 -4.25815 -1.44918 0
M  V30 2346 C 218.112 -3.06294 -3.16026 0
M  V30 2347 H 215.231 -0.60575 -0.419805 0
M  V30 2348 H 217.873 -1.84732 -0.444314 0
M  V30 2349 H 216.023 -2.73158 -2.76255 0
M  V30 2350 H 217.695 -4.52995 -0.871365 0
M  V30 2351 H 215.938 -4.27247 -0.751159 0
M  V30 2352 H 216.609 -5.07337 -2.17516 0
M  V30 2353 H 219.085 -3.20641 -2.65195 0
M  V30 2354 H 217.961 -3.93283 -3.8291 0
M  V30 2355 H 218.222 -2.19579 -3.83715 0
M  V30 2356 N 217.281 0.66697 -1.42791 0
M  V30 2357 C 218.528 1.42699 -1.43678 0
M  V30 2358 C 218.856 1.94419 -0.0560425 0
M  V30 2359 O 218.111 1.7182 0.936831 0
M  V30 2360 C 218.41 2.6349 -2.4147 0
M  V30 2361 C 218.076 2.30267 -3.8767 0
M  V30 2362 C 216.738 2.20918 -4.27491 0
M  V30 2363 C 219.09 2.03435 -4.79858 0
M  V30 2364 C 216.418 1.82873 -5.57471 0
M  V30 2365 C 218.77 1.66892 -6.10188 0
M  V30 2366 C 217.434 1.56058 -6.49001 0
M  V30 2367 H 216.704 0.522171 -0.525755 0
M  V30 2368 H 219.351 0.759785 -1.75783 0
M  V30 2369 H 217.656 3.35279 -2.0272 0
M  V30 2370 H 219.353 3.21684 -2.39417 0
M  V30 2371 H 215.943 2.38449 -3.56146 0
M  V30 2372 H 220.127 2.09586 -4.49875 0
M  V30 2373 H 215.383 1.7306 -5.86396 0
M  V30 2374 H 219.557 1.45157 -6.81104 0
M  V30 2375 H 217.184 1.26348 -7.49627 0
M  V30 2376 N 218.759 1.29093 0.90403 0
M  V30 2377 C 220.17 1.15186 1.46932 0
M  V30 2378 C 220.521 -0.254587 1.94541 0
M  V30 2379 O 219.646 -1.14972 1.83332 0
M  V30 2380 C 220.241 2.08492 2.67051 0
M  V30 2381 C 218.8 1.98621 3.19729 0
M  V30 2382 C 217.947 1.9967 1.92425 0
M  V30 2383 H 220.898 1.41641 0.715789 0
M  V30 2384 H 220.919 1.65461 3.42641 0
M  V30 2385 H 220.431 3.10847 2.3237 0
M  V30 2386 H 218.532 0.993389 3.59114 0
M  V30 2387 H 218.645 2.86068 3.8432 0
M  V30 2388 H 217.009 1.44208 2.09943 0
M  V30 2389 H 217.792 3.03721 1.60026 0
M  V30 2390 N 220.237 -1.11381 1.11499 0
M  V30 2391 C 221.485 -1.8277 0.862524 0
M  V30 2392 C 221.806 -1.85097 -0.613534 0
M  V30 2393 O 221.076 -1.32198 -1.4457 0
M  V30 2394 H 219.656 -0.676823 0.316101 0
M  V30 2395 H 222.318 -1.34816 1.4075 0
M  V30 2396 H 221.414 -2.86614 1.23527 0
M  V30 2397 N 221.715 -0.905404 -1.28997 0
M  V30 2398 C 222.963 -0.533192 -1.9494 0
M  V30 2399 C 223.284 0.924618 -1.71685 0
M  V30 2400 O 222.554 1.65268 -1.05183 0
M  V30 2401 H 221.134 -0.194194 -0.721317 0
M  V30 2402 H 223.796 -1.15294 -1.57141 0
M  V30 2403 H 222.892 -0.72059 -3.03667 0
M  V30 2404 N 223.193 1.4272 -0.668489 0
M  V30 2405 C 224.418 2.06484 -0.194758 0
M  V30 2406 C 224.843 1.49862 1.13679 0
M  V30 2407 O 224.201 0.614582 1.70565 0
M  V30 2408 C 224.249 3.60353 -0.133546 0
M  V30 2409 O 223.353 4.02464 0.899806 0
M  V30 2410 H 222.694 0.656137 -0.10188 0
M  V30 2411 H 225.224 1.82964 -0.915722 0
M  V30 2412 H 225.234 4.07976 0.0447041 0
M  V30 2413 H 223.909 4.00938 -1.1055 0
M  V30 2414 H 222.486 3.66402 0.693109 0
M  V30 2415 N 224.671 0.411399 1.52136 0
M  V30 2416 C 225.621 -0.430376 2.23901 0
M  V30 2417 C 226.605 -1.0116 1.25121 0
M  V30 2418 O 227.797 -0.934044 1.50348 0
M  V30 2419 C 224.926 -1.54527 3.06556 0
M  V30 2420 C 224.012 -0.9747 4.12747 0
M  V30 2421 N 224.403 -0.130991 5.0563 0
M  V30 2422 C 222.701 -1.24497 4.28271 0
M  V30 2423 C 223.402 0.186689 5.814 0
M  V30 2424 N 222.378 -0.42304 5.41951 0
M  V30 2425 H 226.18 0.220509 2.93072 0
M  V30 2426 H 223.694 0.221952 1.60876 0
M  V30 2427 H 225.691 -2.16093 3.56524 0
M  V30 2428 H 224.351 -2.19875 2.38925 0
M  V30 2429 H 225.362 0.23349 5.17373 0
M  V30 2430 H 222.039 -1.89787 3.7187 0
M  V30 2431 H 223.429 0.871673 6.66222 0
M  V30 2432 N 226.149 -1.5696 0.141893 0
M  V30 2433 C 227.377 -2.00322 -0.517579 0
M  V30 2434 C 227.792 -1.02193 -1.58752 0
M  V30 2435 O 227.149 -0.0181619 -1.82491 0
M  V30 2436 C 227.2 -3.43618 -1.12289 0
M  V30 2437 O 226.921 -4.37995 -0.0956929 0
M  V30 2438 C 228.422 -4.02231 -1.86347 0
M  V30 2439 H 225.642 -0.657243 -0.135177 0
M  V30 2440 H 228.186 -2.03146 0.234973 0
M  V30 2441 H 226.341 -3.41662 -1.82609 0
M  V30 2442 H 226.755 -5.21729 -0.538469 0
M  V30 2443 H 228.229 -5.04509 -2.23997 0
M  V30 2444 H 228.706 -3.42655 -2.74744 0
M  V30 2445 H 229.312 -4.07802 -1.20737 0
M  V30 2446 N 227.627 0.131896 -1.57047 0
M  V30 2447 C 228.857 0.855219 -1.88068 0
M  V30 2448 C 229.265 1.74557 -0.729817 0
M  V30 2449 O 228.608 1.81083 0.308962 0
M  V30 2450 C 228.67 1.75119 -3.13964 0
M  V30 2451 C 228.334 1.03646 -4.45091 0
M  V30 2452 C 229.331 0.383276 -5.18485 0
M  V30 2453 C 227.016 1.02148 -4.91804 0
M  V30 2454 C 229.01 -0.275347 -6.36805 0
M  V30 2455 C 226.697 0.359047 -6.10044 0
M  V30 2456 C 227.695 -0.288222 -6.82392 0
M  V30 2457 O 227.383 -0.94011 -7.98384 0
M  V30 2458 H 227.115 0.251864 -0.627328 0
M  V30 2459 H 229.669 0.124782 -2.05021 0
M  V30 2460 H 227.899 2.52295 -2.9306 0
M  V30 2461 H 229.588 2.3478 -3.31109 0
M  V30 2462 H 230.354 0.386562 -4.83457 0
M  V30 2463 H 226.233 1.5147 -4.35405 0
M  V30 2464 H 229.777 -0.781148 -6.93213 0
M  V30 2465 H 225.674 0.35348 -6.44531 0
M  V30 2466 H 226.442 -0.84329 -8.14144 0
M  V30 2467 N 229.106 1.52395 0.401703 0
M  V30 2468 C 230.352 1.67065 1.14966 0
M  V30 2469 C 230.685 0.403052 1.89971 0
M  V30 2470 O 229.96 -0.598774 1.85054 0
M  V30 2471 C 230.243 2.8975 2.13815 0
M  V30 2472 C 230.096 4.26578 1.42658 0
M  V30 2473 C 231.415 3.07965 3.14397 0
M  V30 2474 H 228.534 0.607968 0.416587 0
M  V30 2475 H 231.176 1.84965 0.434511 0
M  V30 2476 H 229.326 2.74619 2.74803 0
M  V30 2477 H 230.998 4.53451 0.847329 0
M  V30 2478 H 229.241 4.27639 0.72849 0
M  V30 2479 H 229.912 5.08483 2.14823 0
M  V30 2480 H 232.388 3.22043 2.63491 0
M  V30 2481 H 231.264 3.95308 3.80819 0
M  V30 2482 H 231.525 2.21611 3.82545 0
M  V30 2483 N 230.584 -0.659388 1.43143 0
M  V30 2484 C 231.83 -1.41984 1.45644 0
M  V30 2485 C 232.185 -1.92245 0.0771718 0
M  V30 2486 O 231.478 -1.68976 -0.903205 0
M  V30 2487 C 231.672 -2.62206 2.42864 0
M  V30 2488 C 231.501 -2.23711 3.90107 0
M  V30 2489 C 230.271 -2.12332 4.58523 0
M  V30 2490 C 232.469 -1.84384 4.80112 0
M  V30 2491 N 230.451 -1.67102 5.9072 0
M  V30 2492 C 231.822 -1.5019 6.01534 0
M  V30 2493 C 233.877 -1.71512 4.67427 0
M  V30 2494 C 232.58 -1.04414 7.11681 0
M  V30 2495 C 234.606 -1.27142 5.77572 0
M  V30 2496 C 233.968 -0.938808 6.98116 0
M  V30 2497 H 230.067 -0.515448 0.588079 0
M  V30 2498 H 232.651 -0.759409 1.79279 0
M  V30 2499 H 230.822 -3.25917 2.11265 0
M  V30 2500 H 232.554 -3.28877 2.35843 0
M  V30 2501 H 229.309 -2.31893 4.12944 0
M  V30 2502 H 229.733 -1.46866 6.60878 0
M  V30 2503 H 234.375 -1.95868 3.74694 0
M  V30 2504 H 232.093 -0.788061 8.04248 0
M  V30 2505 H 235.679 -1.17681 5.69774 0
M  V30 2506 H 234.559 -0.6007 7.81896 0
M  V30 2507 N 232.062 -1.29571 -0.897171 0
M  V30 2508 C 232.994 -1.10724 -2.00681 0
M  V30 2509 C 234.007 -0.0540026 -1.6271 0
M  V30 2510 O 235.196 -0.298783 -1.75982 0
M  V30 2511 C 232.296 -0.663912 -3.32333 0
M  V30 2512 C 231.469 -1.79622 -3.98816 0
M  V30 2513 C 230.528 -1.34349 -5.0876 0
M  V30 2514 O 229.554 -2.04864 -5.31055 0
M  V30 2515 N 230.756 -0.215764 -5.80099 0
M  V30 2516 H 233.521 -2.06291 -2.17403 0
M  V30 2517 H 231.082 -1.21544 -1.06951 0
M  V30 2518 H 233.074 -0.344295 -4.03233 0
M  V30 2519 H 231.644 0.199375 -3.11964 0
M  V30 2520 H 230.864 -2.28459 -3.21248 0
M  V30 2521 H 232.152 -2.55535 -4.39976 0
M  V30 2522 H 231.55 0.372091 -5.64475 0
M  V30 2523 H 230.107 0.0444707 -6.51785 0
M  V30 2524 N 233.54 1.10788 -1.12088 0
M  V30 2525 C 234.786 1.82942 -0.875226 0
M  V30 2526 C 235.119 1.84779 0.597538 0
M  V30 2527 O 234.394 1.30578 1.44152 0
M  V30 2528 C 234.677 3.29789 -1.44606 0
M  V30 2529 C 234.53 3.36307 -2.98693 0
M  V30 2530 C 235.849 4.26064 -1.10261 0
M  V30 2531 H 232.968 0.664195 -0.319397 0
M  V30 2532 H 235.61 1.29867 -1.38689 0
M  V30 2533 H 233.76 3.75118 -1.01089 0
M  V30 2534 H 235.432 2.99487 -3.50864 0
M  V30 2535 H 233.675 2.76318 -3.34411 0
M  V30 2536 H 234.346 4.39694 -3.33726 0
M  V30 2537 H 236.822 3.88951 -1.4784 0
M  V30 2538 H 235.698 5.27183 -1.52869 0
M  V30 2539 H 235.959 4.42098 -0.0142953 0
M  V30 2540 N 235.018 0.912232 1.28515 0
M  V30 2541 C 235.948 0.416403 2.29757 0
M  V30 2542 C 236.929 -0.515194 1.6211 0
M  V30 2543 O 238.114 -0.423253 1.89532 0
M  V30 2544 C 235.244 -0.34572 3.45575 0
M  V30 2545 C 234.198 0.496599 4.25109 0
M  V30 2546 C 233.524 -0.393771 5.33248 0
M  V30 2547 C 234.824 1.75307 4.92001 0
M  V30 2548 H 236.518 1.26249 2.7148 0
M  V30 2549 H 234.064 0.608515 1.30511 0
M  V30 2550 H 236.017 -0.703422 4.15488 0
M  V30 2551 H 234.741 -1.2257 3.02728 0
M  V30 2552 H 233.4 0.8368 3.56922 0
M  V30 2553 H 233.048 -1.27225 4.86644 0
M  V30 2554 H 232.748 0.166209 5.87365 0
M  V30 2555 H 234.272 -0.747389 6.06009 0
M  V30 2556 H 235.686 1.46437 5.54283 0
M  V30 2557 H 234.083 2.25534 5.56106 0
M  V30 2558 H 235.153 2.48176 4.16577 0
M  V30 2559 N 236.496 -1.42363 0.676048 0
M  V30 2560 C 237.443 -2.308 -0.00150904 0
M  V30 2561 C 238.413 -1.46032 -0.791444 0
M  V30 2562 O 239.598 -1.74861 -0.76344 0
M  V30 2563 C 236.738 -3.31883 -0.945919 0
M  V30 2564 C 235.851 -4.31741 -0.149675 0
M  V30 2565 C 234.986 -5.19898 -1.08995 0
M  V30 2566 C 234.025 -6.11434 -0.285465 0
M  V30 2567 N 233.162 -6.92138 -1.17851 0
M  V30 2568 H 238.002 -2.88187 0.758455 0
M  V30 2569 H 235.539 -1.41952 0.38576 0
M  V30 2570 H 237.497 -3.89019 -1.50731 0
M  V30 2571 H 236.127 -2.76093 -1.6725 0
M  V30 2572 H 235.179 -3.76713 0.528359 0
M  V30 2573 H 236.491 -4.96534 0.474866 0
M  V30 2574 H 235.645 -5.81772 -1.72123 0
M  V30 2575 H 234.384 -4.55284 -1.74837 0
M  V30 2576 H 233.389 -5.48627 0.359018 0
M  V30 2577 H 234.614 -6.78097 0.368883 0
M  V30 2578 H 232.56 -6.30152 -1.82332 0
M  V30 2579 H 232.477 -7.53542 -0.609082 0
M  V30 2580 H 233.745 -7.58499 -1.79722 0
M  V30 2581 N 237.974 -0.419461 -1.51915 0
M  V30 2582 C 238.884 0.407528 -2.31033 0
M  V30 2583 C 239.9 1.04413 -1.3919 0
M  V30 2584 O 241.076 1.0434 -1.72265 0
M  V30 2585 C 238.141 1.50365 -3.12396 0
M  V30 2586 C 237.202 0.889029 -4.19994 0
M  V30 2587 C 236.435 1.93291 -4.97468 0
M  V30 2588 O 236.658 3.15259 -4.75361 0
M  V30 2589 O 235.592 1.53339 -5.8204 0
M  V30 2590 H 239.418 -0.237865 -3.02767 0
M  V30 2591 H 237.003 -0.182413 -1.48282 0
M  V30 2592 H 238.885 2.13975 -3.63032 0
M  V30 2593 H 237.56 2.13345 -2.43445 0
M  V30 2594 H 236.467 0.215353 -3.7348 0
M  V30 2595 H 237.8 0.302991 -4.91267 0
M  V30 2596 N 239.452 1.56882 -0.150215 0
M  V30 2597 C 240.4 2.18214 0.805313 0
M  V30 2598 C 241.394 1.14006 1.25296 0
M  V30 2599 O 242.6 1.3225 1.22107 0
M  V30 2600 H 238.975 0.698762 0.277913 0
M  V30 2601 H 240.946 2.97231 0.263862 0
M  V30 2602 C 239.695 2.82065 2.03309 0
M  V30 2603 H 239.018 3.61968 1.69763 0
M  V30 2604 H 240.458 3.28477 2.68103 0
M  V30 2605 C 238.917 1.80739 2.84315 0
M  V30 2606 O 239.447 1.27983 3.80767 0
M  V30 2607 N 237.653 1.4997 2.48913 0
M  V30 2608 H 237.2 1.93062 1.70542 0
M  V30 2609 H 237.158 0.824217 3.03404 0
M  V30 2610 N 240.93 -0.123565 1.57115 0
M  V30 2611 C 242.178 -0.83051 1.84247 0
M  V30 2612 C 242.499 -1.80629 0.73471 0
M  V30 2613 O 241.769 -1.94403 -0.241688 0
M  V30 2614 H 240.349 -0.309694 0.679778 0
M  V30 2615 H 243.011 -0.111976 1.94578 0
M  V30 2616 H 242.107 -1.37852 2.80006 0
M  V30 2617 N 242.408 -1.52605 -0.393616 0
M  V30 2618 C 243.819 -1.59417 -0.971761 0
M  V30 2619 C 244.17 -0.444173 -1.91106 0
M  V30 2620 O 243.295 0.433382 -2.12016 0
M  V30 2621 C 243.89 -2.88936 -1.76921 0
M  V30 2622 C 242.449 -2.98175 -2.29714 0
M  V30 2623 C 241.596 -2.54491 -1.10135 0
M  V30 2624 H 244.547 -1.57751 -0.173317 0
M  V30 2625 H 244.568 -2.75163 -2.62804 0
M  V30 2626 H 244.08 -3.72616 -1.08532 0
M  V30 2627 H 242.181 -2.19024 -3.01429 0
M  V30 2628 H 242.294 -4.02726 -2.59517 0
M  V30 2629 H 240.658 -2.08702 -1.45999 0
M  V30 2630 H 241.441 -3.4056 -0.432874 0
M  V30 2631 N 243.887 0.651787 -1.4349 0
M  V30 2632 C 244.82 1.77668 -1.43211 0
M  V30 2633 C 245.798 1.59931 -0.29338 0
M  V30 2634 O 246.982 1.82095 -0.487191 0
M  V30 2635 C 244.109 3.14986 -1.24505 0
M  V30 2636 C 243.155 3.51421 -2.41673 0
M  V30 2637 S 243.988 3.51234 -4.04222 0
M  V30 2638 C 245.144 4.91206 -3.87902 0
M  V30 2639 H 245.377 1.77635 -2.38397 0
M  V30 2640 H 242.91 0.824558 -1.30539 0
M  V30 2641 H 244.868 3.94237 -1.144 0
M  V30 2642 H 243.529 3.1258 -0.308651 0
M  V30 2643 H 242.722 4.51291 -2.24393 0
M  V30 2644 H 242.324 2.79585 -2.48411 0
M  V30 2645 H 244.616 5.79902 -3.50315 0
M  V30 2646 H 245.559 5.13537 -4.8753 0
M  V30 2647 H 245.967 4.64808 -3.20334 0
M  V30 2648 N 245.365 1.30045 0.890287 0
M  V30 2649 C 246.328 1.15963 1.977 0
M  V30 2650 C 247.328 0.0923777 1.60534 0
M  V30 2651 O 248.518 0.340071 1.70848 0
M  V30 2652 C 245.65 0.775451 3.31963 0
M  V30 2653 H 246.843 2.12502 2.11619 0
M  V30 2654 H 244.396 1.13366 1.07601 0
M  V30 2655 H 245.131 -0.189671 3.23745 0
M  V30 2656 H 244.916 1.54668 3.60306 0
M  V30 2657 H 246.406 0.700251 4.11687 0
M  V30 2658 N 246.843 -1.10192 1.12674 0
M  V30 2659 C 248.068 -1.86523 0.906853 0
M  V30 2660 C 248.493 -1.80221 -0.538711 0
M  V30 2661 O 247.851 -1.17396 -1.38158 0
M  V30 2662 C 247.899 -3.32758 1.3894 0
M  V30 2663 O 247.003 -4.08449 0.5695 0
M  V30 2664 H 246.344 -0.578678 0.325619 0
M  V30 2665 H 248.874 -1.39203 1.49946 0
M  V30 2666 H 248.884 -3.83608 1.38958 0
M  V30 2667 H 247.559 -3.36661 2.44197 0
M  V30 2668 H 246.136 -3.67427 0.636528 0
M  V30 2669 N 248.321 -0.919034 -1.28029 0
M  V30 2670 C 249.598 -0.473668 -1.89778 0
M  V30 2671 C 249.978 1.04783 -1.83259 0
M  V30 2672 O 249.326 1.8982 -1.27202 0
M  V30 2673 C 249.536 -1.00998 -3.34066 0
M  V30 2674 C 250.884 -1.06525 -4.1102 0
M  V30 2675 O 251.908 -0.958996 -3.43048 0
M  V30 2676 O 250.767 -1.22776 -5.3253 0
M  V30 2677 H 247.861 -0.15098 -0.813101 0
M  V30 2678 H 250.407 -1.01016 -1.36359 0
M  V30 2679 H 249.179 -2.05392 -3.33061 0
M  V30 2680 H 248.802 -0.454626 -3.94992 0
M  V30 2681 N 249.799 1.42003 -0.683588 0
M  V30 2682 C 251.21 1.84501 -0.285736 0
M  V30 2683 C 251.561 1.57213 1.17382 0
M  V30 2684 O 250.686 1.03642 1.89966 0
M  V30 2685 C 251.281 3.34912 -0.511821 0
M  V30 2686 C 249.84 3.76025 -0.168005 0
M  V30 2687 C 248.987 2.6551 -0.799983 0
M  V30 2688 H 251.938 1.31724 -0.885119 0
M  V30 2689 H 251.959 3.79784 0.233292 0
M  V30 2690 H 251.471 3.54741 -1.57418 0
M  V30 2691 H 249.572 3.61801 0.890567 0
M  V30 2692 H 249.685 4.75141 -0.614661 0
M  V30 2693 H 248.049 2.53654 -0.230568 0
M  V30 2694 H 248.832 2.8816 -1.86597 0
M  V30 2695 N 251.277 0.427512 1.51691 0
M  V30 2696 C 252.207 -0.3796 2.30394 0
M  V30 2697 C 253.188 -1.02982 1.35384 0
M  V30 2698 O 254.373 -1.03534 1.643 0
M  V30 2699 C 251.503 -1.48649 3.1388 0
M  V30 2700 C 250.457 -0.960294 4.17088 0
M  V30 2701 C 249.783 -2.16219 4.89033 0
M  V30 2702 C 251.083 -0.00153679 5.223 0
M  V30 2703 H 252.777 0.277164 2.98114 0
M  V30 2704 H 250.323 0.134739 1.43368 0
M  V30 2705 H 252.276 -2.05826 3.67714 0
M  V30 2706 H 251 -2.1714 2.43962 0
M  V30 2707 H 249.659 -0.410806 3.64291 0
M  V30 2708 H 249.307 -2.83307 4.15628 0
M  V30 2709 H 249.007 -1.81654 5.58816 0
M  V30 2710 H 250.531 -2.73968 5.45687 0
M  V30 2711 H 251.945 -0.482687 5.71264 0
M  V30 2712 H 250.342 0.256199 5.99553 0
M  V30 2713 H 251.412 0.938174 4.75738 0
M  V30 2714 N 252.755 -1.56801 0.158532 0
M  V30 2715 C 253.995 -1.98383 -0.49229 0
M  V30 2716 C 254.359 -1.04184 -1.61275 0
M  V30 2717 O 255.56 -1.34856 -2.32524 0
M  V30 2718 C 253.831 -3.4385 -0.974766 0
M  V30 2719 S 255.39 -4.07459 -1.62857 0
M  V30 2720 H 252.208 -0.693041 -0.158794 0
M  V30 2721 H 254.81 -1.93856 0.252974 0
M  V30 2722 H 253.514 -4.10131 -0.148688 0
M  V30 2723 H 253.045 -3.52115 -1.75438 0
M  V30 2724 H 255.06 -4.01458 -2.91627 0
M  V30 2725 N 254.233 0.115231 -1.57178 0
M  V30 2726 C 255.163 1.1423 -2.03651 0
M  V30 2727 C 256.144 1.42967 -0.921655 0
M  V30 2728 O 257.329 1.53343 -1.19162 0
M  V30 2729 C 254.459 2.4675 -2.44401 0
M  V30 2730 C 253.413 2.32467 -3.59365 0
M  V30 2731 C 252.739 3.69984 -3.86026 0
M  V30 2732 C 254.039 1.78203 -4.90959 0
M  V30 2733 H 255.733 0.755749 -2.89705 0
M  V30 2734 H 253.279 0.362093 -1.39373 0
M  V30 2735 H 255.232 3.18854 -2.75517 0
M  V30 2736 H 253.956 2.87302 -1.55322 0
M  V30 2737 H 252.615 1.62811 -3.28463 0
M  V30 2738 H 252.263 4.08028 -2.94147 0
M  V30 2739 H 251.963 3.61279 -4.63412 0
M  V30 2740 H 253.487 4.43587 -4.19599 0
M  V30 2741 H 254.901 2.40128 -5.20587 0
M  V30 2742 H 253.298 1.8031 -5.72371 0
M  V30 2743 H 254.368 0.739876 -4.79222 0
M  V30 2744 N 255.711 1.52812 0.385517 0
M  V30 2745 C 256.939 1.71907 1.15133 0
M  V30 2746 C 257.354 0.439004 1.83625 0
M  V30 2747 O 256.711 -0.586765 1.7281 0
M  V30 2748 C 256.762 2.87099 2.19673 0
M  V30 2749 O 256.483 4.10151 1.53973 0
M  V30 2750 C 257.984 3.17902 3.08955 0
M  V30 2751 H 255.204 0.575479 0.345057 0
M  V30 2752 H 257.748 1.99476 0.45052 0
M  V30 2753 H 255.903 2.61982 2.85384 0
M  V30 2754 H 256.317 4.74514 2.23465 0
M  V30 2755 H 257.791 4.01959 3.7833 0
M  V30 2756 H 258.268 2.3243 3.72657 0
M  V30 2757 H 258.874 3.44871 2.48885 0
M  V30 2758 N 257.189 -0.644168 1.43834 0
M  V30 2759 C 258.419 -1.42939 1.49171 0
M  V30 2760 C 258.827 -1.88874 0.111048 0
M  V30 2761 O 258.17 -1.60656 -0.8908 0
M  V30 2762 C 258.232 -2.69151 2.38324 0
M  V30 2763 C 257.896 -2.45097 3.85715 0
M  V30 2764 C 258.893 -2.07747 4.76589 0
M  V30 2765 C 256.578 -2.59141 4.30292 0
M  V30 2766 C 258.572 -1.8475 6.10038 0
M  V30 2767 C 256.259 -2.35759 5.63792 0
M  V30 2768 C 257.257 -1.9862 6.53482 0
M  V30 2769 O 256.945 -1.75489 7.84512 0
M  V30 2770 H 256.677 -0.445271 0.508635 0
M  V30 2771 H 259.231 -0.79621 1.8934 0
M  V30 2772 H 257.461 -3.3506 1.93058 0
M  V30 2773 H 259.15 -3.31123 2.3476 0
M  V30 2774 H 259.916 -1.96465 4.43426 0
M  V30 2775 H 255.795 -2.87022 3.60749 0
M  V30 2776 H 259.339 -1.55686 6.80006 0
M  V30 2777 H 255.236 -2.46646 5.9652 0
M  V30 2778 H 256.004 -1.89841 7.9618 0
M  V30 2779 N 258.668 -1.30515 -0.883378 0
M  V30 2780 C 259.893 -1.22487 -1.67367 0
M  V30 2781 C 260.318 0.208767 -1.86938 0
M  V30 2782 O 259.676 1.15015 -1.40148 0
M  V30 2783 C 259.724 -1.96041 -3.02655 0
M  V30 2784 O 258.828 -1.28859 -3.91751 0
M  V30 2785 H 258.169 -0.423573 -0.511353 0
M  V30 2786 H 260.699 -1.72362 -1.10239 0
M  V30 2787 H 260.709 -2.05124 -3.52687 0
M  V30 2788 H 259.384 -3.00307 -2.8773 0
M  V30 2789 H 257.961 -1.28141 -3.50192 0
M  V30 2790 N 260.146 1.09593 -1.13257 0
M  V30 2791 C 261.376 1.85231 -0.915049 0
M  V30 2792 C 261.784 1.81345 0.539498 0
M  V30 2793 O 261.127 1.20664 1.38513 0
M  V30 2794 C 261.189 3.34275 -1.3229 0
M  V30 2795 C 260.853 3.6191 -2.79052 0
M  V30 2796 C 261.85 3.57777 -3.77216 0
M  V30 2797 C 259.535 3.90309 -3.16171 0
M  V30 2798 C 261.529 3.81652 -5.1051 0
M  V30 2799 C 259.216 4.13839 -4.49644 0
M  V30 2800 C 260.214 4.09502 -5.46623 0
M  V30 2801 O 259.902 4.32426 -6.77689 0
M  V30 2802 H 259.634 0.591997 -0.326367 0
M  V30 2803 H 262.188 1.394 -1.50854 0
M  V30 2804 H 260.418 3.80805 -0.672667 0
M  V30 2805 H 262.107 3.9132 -1.07812 0
M  V30 2806 H 262.873 3.35865 -3.49885 0
M  V30 2807 H 258.752 3.92811 -2.41289 0
M  V30 2808 H 262.296 3.78182 -5.86195 0
M  V30 2809 H 258.193 4.35232 -4.767 0
M  V30 2810 H 258.961 4.49896 -6.83766 0
M  V30 2811 N 261.624 0.925811 1.2754 0
M  V30 2812 C 262.554 0.440748 2.29303 0
M  V30 2813 C 263.535 -0.497971 1.62648 0
M  V30 2814 O 264.72 -0.403126 1.8997 0
M  V30 2815 C 261.85 -0.309048 3.45922 0
M  V30 2816 C 260.804 0.54166 4.24559 0
M  V30 2817 C 260.13 -0.337191 5.33636 0
M  V30 2818 C 261.43 1.80516 4.90114 0
M  V30 2819 H 263.124 1.29121 2.70126 0
M  V30 2820 H 260.67 0.622323 1.29858 0
M  V30 2821 H 262.623 -0.659315 4.1621 0
M  V30 2822 H 261.347 -1.19352 3.04011 0
M  V30 2823 H 260.006 0.874609 3.56014 0
M  V30 2824 H 259.654 -1.22056 4.87966 0
M  V30 2825 H 259.354 0.228497 5.87156 0
M  V30 2826 H 260.878 -0.683072 6.06767 0
M  V30 2827 H 262.292 1.52307 5.52698 0
M  V30 2828 H 260.689 2.3142 5.53683 0
M  V30 2829 H 261.759 2.52581 4.13921 0
M  V30 2830 N 263.102 -1.41638 0.69111 0
M  V30 2831 C 264.327 -2.06148 0.227583 0
M  V30 2832 C 264.752 -1.51652 -1.11281 0
M  V30 2833 O 264.11 -0.64164 -1.69566 0
M  V30 2834 C 264.158 -3.60095 0.190858 0
M  V30 2835 O 263.262 -4.03845 -0.835664 0
M  V30 2836 H 262.603 -0.654434 0.112306 0
M  V30 2837 H 265.133 -1.81484 0.944714 0
M  V30 2838 H 265.143 -4.07995 0.020207 0
M  V30 2839 H 263.818 -3.99129 1.16915 0
M  V30 2840 H 262.395 -3.67458 -0.63473 0
M  V30 2841 N 264.58 -0.43555 -1.51462 0
M  V30 2842 C 265.53 0.394701 -2.24558 0
M  V30 2843 C 266.514 0.99157 -1.26715 0
M  V30 2844 O 267.706 0.910007 -1.51815 0
M  V30 2845 C 264.835 1.4963 -3.08975 0
M  V30 2846 C 263.921 0.908912 -4.14246 0
M  V30 2847 N 264.312 0.0505335 -5.05775 0
M  V30 2848 C 262.61 1.17668 -4.30198 0
M  V30 2849 C 263.311 -0.279161 -5.8103 0
M  V30 2850 N 262.287 0.336767 -5.42556 0
M  V30 2851 H 266.089 -0.267106 -2.92684 0
M  V30 2852 H 263.603 -0.247518 -1.60503 0
M  V30 2853 H 265.6 2.10394 -3.59917 0
M  V30 2854 H 264.26 2.16046 -2.42393 0
M  V30 2855 H 265.271 -0.31577 -5.16936 0
M  V30 2856 H 261.948 1.83847 -3.74842 0
M  V30 2857 H 263.338 -0.977553 -6.64751 0
M  V30 2858 N 266.058 1.56714 -0.166846 0
M  V30 2859 C 267.304 1.97039 0.479962 0
M  V30 2860 C 267.637 1.05264 1.63197 0
M  V30 2861 O 266.912 0.0988833 1.94248 0
M  V30 2862 C 267.195 3.46867 0.967212 0
M  V30 2863 C 267.048 4.49421 -0.18466 0
M  V30 2864 C 268.367 3.9968 1.84238 0
M  V30 2865 H 265.486 0.71641 0.172992 0
M  V30 2866 H 268.128 1.8832 -0.252079 0
M  V30 2867 H 266.278 3.54428 1.59101 0
M  V30 2868 H 267.95 4.53924 -0.821621 0
M  V30 2869 H 266.193 4.25573 -0.840837 0
M  V30 2870 H 266.864 5.51644 0.198317 0
M  V30 2871 H 269.34 3.94723 1.31655 0
M  V30 2872 H 268.216 5.04941 2.15234 0
M  V30 2873 H 268.477 3.43226 2.78654 0
M  V30 2874 N 267.536 -0.106894 1.57237 0
M  V30 2875 C 268.813 -0.843526 1.76477 0
M  V30 2876 C 269.193 -1.97499 0.745464 0
M  V30 2877 O 268.541 -2.27357 -0.228306 0
M  V30 2878 C 268.751 -1.34903 3.21873 0
M  V30 2879 C 270.099 -1.79654 3.8472 0
M  V30 2880 O 271.123 -1.44554 3.2555 0
M  V30 2881 O 269.982 -2.44515 4.88748 0
M  V30 2882 H 267.076 -0.401468 0.723016 0
M  V30 2883 H 269.622 -0.0896927 1.69463 0
M  V30 2884 H 268.394 -0.53781 3.87586 0
M  V30 2885 H 268.017 -2.16522 3.33473 0
M  V30 2886 N 269.014 -1.53014 -0.377408 0
M  V30 2887 C 269.944 -1.81589 -1.46791 0
M  V30 2888 C 270.925 -0.668622 -1.56408 0
M  V30 2889 O 272.11 -0.917337 -1.71168 0
M  V30 2890 C 269.24 -1.99519 -2.8427 0
M  V30 2891 C 268.194 -3.15249 -2.89486 0
M  V30 2892 C 267.52 -3.18451 -4.29527 0
M  V30 2893 C 268.82 -4.54084 -2.58079 0
M  V30 2894 H 270.514 -2.7291 -1.23127 0
M  V30 2895 H 268.06 -1.31319 -0.590883 0
M  V30 2896 H 270.013 -2.18092 -3.60575 0
M  V30 2897 H 268.737 -1.04897 -3.09296 0
M  V30 2898 H 267.396 -2.96477 -2.15631 0
M  V30 2899 H 267.044 -2.2149 -4.5161 0
M  V30 2900 H 266.744 -3.962 -4.33934 0
M  V30 2901 H 268.268 -3.39193 -5.07721 0
M  V30 2902 H 269.682 -4.72899 -3.24098 0
M  V30 2903 H 268.079 -5.33987 -2.7382 0
M  V30 2904 H 269.149 -4.60006 -1.53372 0
M  V30 2905 N 270.492 0.636531 -1.44174 0
M  V30 2906 C 271.738 1.39826 -1.4689 0
M  V30 2907 C 272.071 1.93947 -0.0990585 0
M  V30 2908 O 271.346 1.73325 0.882544 0
M  V30 2909 C 271.629 2.56751 -2.5249 0
M  V30 2910 C 271.482 2.08014 -3.98811 0
M  V30 2911 C 272.801 3.58946 -2.54649 0
M  V30 2912 H 269.92 0.507075 -0.53483 0
M  V30 2913 H 272.562 0.720188 -1.75822 0
M  V30 2914 H 270.712 3.14597 -2.2795 0
M  V30 2915 H 272.384 1.5504 -4.34466 0
M  V30 2916 H 270.627 1.39242 -4.10846 0
M  V30 2917 H 271.298 2.92169 -4.68339 0
M  V30 2918 H 273.774 3.1089 -2.76563 0
M  V30 2919 H 272.65 4.38286 -3.3045 0
M  V30 2920 H 272.911 4.12655 -1.58646 0
M  V30 2921 N 271.97 1.30982 0.876444 0
M  V30 2922 C 272.917 1.18085 1.98304 0
M  V30 2923 C 273.887 0.0682263 1.6596 0
M  V30 2924 O 275.072 0.239937 1.89285 0
M  V30 2925 C 272.212 0.887475 3.33493 0
M  V30 2926 C 271.325 2.08281 3.78475 0
M  V30 2927 C 270.46 1.72678 5.0235 0
M  V30 2928 C 269.499 2.88657 5.39762 0
M  V30 2929 N 268.636 2.53292 6.54819 0
M  V30 2930 H 273.476 2.1275 2.08666 0
M  V30 2931 H 271.013 1.05839 1.02159 0
M  V30 2932 H 272.971 0.697961 4.1132 0
M  V30 2933 H 271.601 -0.022315 3.22792 0
M  V30 2934 H 270.653 2.3833 2.96484 0
M  V30 2935 H 271.965 2.95108 4.02135 0
M  V30 2936 H 271.119 1.50151 5.87826 0
M  V30 2937 H 269.858 0.830327 4.8058 0
M  V30 2938 H 268.863 3.1184 4.52809 0
M  V30 2939 H 270.088 3.79002 5.63502 0
M  V30 2940 H 268.034 1.66163 6.34607 0
M  V30 2941 H 267.951 3.3365 6.7839 0
M  V30 2942 H 269.219 2.34143 7.43503 0
M  V30 2943 N 273.449 -1.08991 1.13837 0
M  V30 2944 C 274.726 -1.77863 0.813876 0
M  V30 2945 C 275.106 -1.99375 -0.693746 0
M  V30 2946 O 274.454 -1.59875 -1.63255 0
M  V30 2947 C 274.664 -3.0986 1.60586 0
M  V30 2948 C 276.012 -3.84493 1.8014 0
M  V30 2949 O 277.036 -3.19624 1.57222 0
M  V30 2950 O 275.895 -5.00957 2.18413 0
M  V30 2951 H 272.989 -0.771589 0.297624 0
M  V30 2952 H 275.535 -1.15507 1.24323 0
M  V30 2953 H 274.307 -2.89715 2.63022 0
M  V30 2954 H 273.93 -3.79942 1.17173 0
M  V30 2955 N 274.927 -0.932562 -1.27047 0
M  V30 2956 C 275.857 -0.452902 -2.29066 0
M  V30 2957 C 276.838 0.489338 -1.62909 0
M  V30 2958 O 278.023 0.393046 -1.90181 0
M  V30 2959 C 275.153 0.290698 -3.46081 0
M  V30 2960 C 274.107 -0.564168 -4.24265 0
M  V30 2961 C 273.433 0.308886 -5.33807 0
M  V30 2962 C 274.733 -1.83112 -4.89149 0
M  V30 2963 H 276.427 -1.30552 -2.69437 0
M  V30 2964 H 273.973 -0.629201 -1.29526 0
M  V30 2965 H 275.926 0.637233 -4.16554 0
M  V30 2966 H 274.65 1.17738 -3.0464 0
M  V30 2967 H 273.309 -0.893477 -3.55545 0
M  V30 2968 H 272.957 1.19467 -4.88607 0
M  V30 2969 H 272.657 -0.259633 -5.87026 0
M  V30 2970 H 274.181 0.650884 -6.07121 0
M  V30 2971 H 275.595 -1.55236 -5.51883 0
M  V30 2972 H 273.992 -2.34353 -5.52448 0
M  V30 2973 H 275.062 -2.54772 -4.12576 0
M  V30 2974 N 276.405 1.4127 -0.698611 0
M  V30 2975 C 277.353 2.32588 -0.023855 0
M  V30 2976 C 278.347 1.51128 0.765292 0
M  V30 2977 O 279.553 1.67043 0.670571 0
M  V30 2978 H 275.928 0.751918 0.0110871 0
M  V30 2979 H 277.899 2.87167 -0.811031 0
M  V30 2980 C 276.648 3.35947 0.896369 0
M  V30 2981 H 275.971 3.98684 0.298548 0
M  V30 2982 H 277.411 4.02376 1.33676 0
M  V30 2983 C 275.87 2.70076 2.01396 0
M  V30 2984 O 276.4 2.55093 3.10307 0
M  V30 2985 N 274.606 2.28724 1.79259 0
M  V30 2986 H 274.153 2.4111 0.906841 0
M  V30 2987 H 274.111 1.84986 2.54219 0
M  V30 2988 N 277.883 0.443576 1.51229 0
M  V30 2989 C 279.108 -0.121648 2.07043 0
M  V30 2990 C 279.533 -1.35156 1.30823 0
M  V30 2991 O 278.891 -1.7793 0.347934 0
M  V30 2992 C 278.939 -0.41624 3.5819 0
M  V30 2993 O 278.043 -1.50163 3.8409 0
M  V30 2994 H 277.384 0.000871367 0.663999 0
M  V30 2995 H 279.914 0.626706 1.94765 0
M  V30 2996 H 279.924 -0.664867 4.02546 0
M  V30 2997 H 278.599 0.482653 4.1309 0
M  V30 2998 H 277.176 -1.24248 3.51592 0
M  V30 2999 N 279.361 -1.56624 0.175154 0
M  V30 3000 C 280.609 -1.96609 -0.467885 0
M  V30 3001 C 280.93 -1.06238 -1.63519 0
M  V30 3002 O 280.2 -0.129523 -1.95471 0
M  V30 3003 H 278.78 -0.726008 -0.175845 0
M  V30 3004 H 281.442 -1.93195 0.257234 0
M  V30 3005 H 280.538 -3.00989 -0.825342 0
M  V30 3006 N 280.839 0.0985539 -1.57292 0
M  V30 3007 C 281.769 1.12064 -2.04851 0
M  V30 3008 C 282.75 1.41981 -0.936767 0
M  V30 3009 O 283.935 1.52071 -1.20781 0
M  V30 3010 C 281.065 2.44144 -2.47004 0
M  V30 3011 C 280.019 2.28643 -3.6181 0
M  V30 3012 C 279.345 3.65869 -3.89929 0
M  V30 3013 C 280.645 1.72986 -4.92822 0
M  V30 3014 H 282.339 0.724979 -2.9049 0
M  V30 3015 H 279.885 0.34729 -1.39749 0
M  V30 3016 H 281.838 3.15914 -2.78884 0
M  V30 3017 H 280.562 2.85639 -1.5836 0
M  V30 3018 H 279.221 1.59318 -3.30172 0
M  V30 3019 H 278.869 4.04885 -2.98458 0
M  V30 3020 H 278.569 3.56344 -4.67218 0
M  V30 3021 H 280.093 4.39112 -4.2428 0
M  V30 3022 H 281.507 2.34593 -5.23105 0
M  V30 3023 H 279.904 1.74229 -5.74251 0
M  V30 3024 H 280.974 0.689007 -4.7998 0
M  V30 3025 N 282.317 1.53212 0.369288 0
M  V30 3026 C 283.566 1.68436 1.10961 0
M  V30 3027 C 283.879 0.440738 1.9057 0
M  V30 3028 O 285.085 0.473446 2.6734 0
M  V30 3029 C 283.541 2.97744 2.0218 0
M  V30 3030 C 283.149 4.29355 1.279 0
M  V30 3031 C 284.893 3.22334 2.76226 0
M  V30 3032 C 282.8 5.49755 2.17999 0
M  V30 3033 H 281.73 0.627568 0.41794 0
M  V30 3034 H 284.381 1.79713 0.370884 0
M  V30 3035 H 282.763 2.8026 2.79768 0
M  V30 3036 H 283.937 4.57458 0.554007 0
M  V30 3037 H 282.252 4.11179 0.657311 0
M  V30 3038 H 284.849 4.09471 3.43857 0
M  V30 3039 H 285.192 2.38238 3.41392 0
M  V30 3040 H 285.725 3.40475 2.05723 0
M  V30 3041 H 282.464 6.36318 1.57417 0
M  V30 3042 H 281.984 5.25937 2.88359 0
M  V30 3043 H 283.663 5.84401 2.77641 0
M  V30 3044 N 283.795 -0.628877 1.44509 0
M  V30 3045 C 285.043 -1.38565 1.4712 0
M  V30 3046 C 285.364 -1.94712 0.105899 0
M  V30 3047 O 284.634 -1.75912 -0.862079 0
M  V30 3048 H 283.214 -0.514333 0.541729 0
M  V30 3049 H 285.876 -0.740018 1.80305 0
M  V30 3050 H 284.972 -2.21583 2.19789 0
M  V30 3051 N 285.273 -1.31445 -0.869486 0
M  V30 3052 C 286.236 -1.19094 -1.9583 0
M  V30 3053 C 287.236 -0.117906 -1.60367 0
M  V30 3054 O 288.426 -0.367208 -1.70286 0
M  V30 3055 C 285.558 -0.828165 -3.30688 0
M  V30 3056 H 286.751 -2.15842 -2.08212 0
M  V30 3057 H 284.304 -1.15063 -1.05784 0
M  V30 3058 H 285.039 0.138142 -3.24006 0
M  V30 3059 H 284.824 -1.6038 -3.578 0
M  V30 3060 H 286.314 -0.765658 -4.10521 0
M  V30 3061 N 286.751 1.08385 -1.14413 0
M  V30 3062 C 287.681 2.17321 -0.854044 0
M  V30 3063 C 288.662 1.69024 0.191049 0
M  V30 3064 O 289.847 1.94141 0.0476779 0
M  V30 3065 C 286.977 3.45719 -0.330983 0
M  V30 3066 C 285.931 4.07409 -1.31155 0
M  V30 3067 C 285.257 5.30762 -0.64778 0
M  V30 3068 C 286.557 4.48665 -2.67388 0
M  V30 3069 H 288.251 2.41845 -1.76498 0
M  V30 3070 H 285.797 1.16233 -0.850051 0
M  V30 3071 H 287.75 4.21241 -0.115645 0
M  V30 3072 H 286.474 3.2075 0.615381 0
M  V30 3073 H 285.133 3.33919 -1.51306 0
M  V30 3074 H 284.781 5.02078 0.304398 0
M  V30 3075 H 284.481 5.72992 -1.30207 0
M  V30 3076 H 286.005 6.08998 -0.441972 0
M  V30 3077 H 287.419 5.15364 -2.51143 0
M  V30 3078 H 285.816 5.01814 -3.29093 0
M  V30 3079 H 286.886 3.60543 -3.24248 0
M  V30 3080 N 288.23 0.939286 1.26551 0
M  V30 3081 C 289.16 0.465044 2.28822 0
M  V30 3082 C 290.141 -0.480692 1.63167 0
M  V30 3083 O 291.326 -0.382955 1.90387 0
M  V30 3084 C 288.456 -0.27234 3.46231 0
M  V30 3085 C 287.41 0.58666 4.2396 0
M  V30 3086 C 286.736 -0.280573 5.33963 0
M  V30 3087 C 288.036 1.85704 4.88171 0
M  V30 3088 H 289.73 1.31979 2.68741 0
M  V30 3089 H 287.276 0.636061 1.29191 0
M  V30 3090 H 289.229 -0.615133 4.16886 0
M  V30 3091 H 287.953 -1.16121 3.0526 0
M  V30 3092 H 286.612 0.91232 3.55067 0
M  V30 3093 H 286.26 -1.16874 4.89234 0
M  V30 3094 H 285.96 0.29076 5.8688 0
M  V30 3095 H 287.484 -0.618678 6.07458 0
M  V30 3096 H 288.898 1.58161 5.51052 0
M  V30 3097 H 287.295 2.37279 5.51197 0
M  V30 3098 H 288.365 2.56957 4.11219 0
M  V30 3099 N 289.708 -1.40897 0.706093 0
M  V30 3100 C 290.954 -2.01352 0.241889 0
M  V30 3101 C 291.287 -1.55832 -1.15888 0
M  V30 3102 O 290.562 -0.774145 -1.7843 0
M  V30 3103 C 290.845 -3.58752 0.311311 0
M  V30 3104 C 290.698 -4.1437 1.74978 0
M  V30 3105 C 292.017 -4.38914 -0.322922 0
M  V30 3106 H 289.136 -0.731562 0.0893687 0
M  V30 3107 H 291.778 -1.67504 0.896802 0
M  V30 3108 H 289.928 -3.87718 -0.246302 0
M  V30 3109 H 291.6 -3.96239 2.36205 0
M  V30 3110 H 289.843 -3.69016 2.28057 0
M  V30 3111 H 290.514 -5.23532 1.74981 0
M  V30 3112 H 292.99 -4.15822 0.152089 0
M  V30 3113 H 291.866 -5.48358 -0.243855 0
M  V30 3114 H 292.127 -4.19176 -1.40513 0
M  V30 3115 N 291.186 -0.45159 -1.50991 0
M  V30 3116 C 292.426 0.109066 -2.04109 0
M  V30 3117 C 292.79 1.38716 -1.32747 0
M  V30 3118 O 293.991 2.02896 -1.76314 0
M  V30 3119 C 292.262 0.308354 -3.56067 0
M  V30 3120 S 293.821 0.830369 -4.30872 0
M  V30 3121 H 290.639 0.0251531 -0.710555 0
M  V30 3122 H 293.241 -0.614264 -1.85599 0
M  V30 3123 H 291.945 -0.627962 -4.05567 0
M  V30 3124 H 291.476 1.05836 -3.78896 0
M  V30 3125 H 293.491 2.10626 -4.49279 0
M  V30 3126 N 292.664 1.56529 -0.183458 0
M  V30 3127 C 294.08 1.58664 0.172554 0
M  V30 3128 C 294.28 1.19925 1.61926 0
M  V30 3129 O 293.336 0.916534 2.35278 0
M  V30 3130 C 294.649 3.00463 -0.119262 0
M  V30 3131 C 296.197 3.12945 -0.0584396 0
M  V30 3132 C 296.672 4.56857 -0.323408 0
M  V30 3133 N 298.163 4.62403 -0.271612 0
M  V30 3134 C 298.898 5.71626 -0.450639 0
M  V30 3135 N 298.394 6.89362 -0.689384 0
M  V30 3136 N 300.187 5.60775 -0.385701 0
M  V30 3137 H 292.338 1.79994 -1.12765 0
M  V30 3138 H 294.601 0.834808 -0.449222 0
M  V30 3139 H 294.307 3.33326 -1.12192 0
M  V30 3140 H 294.181 3.72659 0.583544 0
M  V30 3141 H 296.568 2.79902 0.934805 0
M  V30 3142 H 296.649 2.4316 -0.794144 0
M  V30 3143 H 296.293 4.9061 -1.31392 0
M  V30 3144 H 296.223 5.24816 0.43305 0
M  V30 3145 H 298.714 3.77785 -0.0932256 0
M  V30 3146 H 299.027 7.68489 -0.815113 0
M  V30 3147 H 297.372 6.91196 -0.726142 0
M  V30 3148 H 300.563 4.67674 -0.199687 0
M  V30 3149 H 300.736 6.4584 -0.528646 0
M  V30 3150 N 294.142 -0.090211 1.57342 0
M  V30 3151 C 295.052 -1.12735 2.05738 0
M  V30 3152 C 296.068 -1.43557 0.983231 0
M  V30 3153 O 297.244 -1.54101 1.29672 0
M  V30 3154 C 294.309 -2.42659 2.47624 0
M  V30 3155 C 293.37 -2.18975 3.69254 0
M  V30 3156 C 292.603 -3.42704 4.09133 0
M  V30 3157 O 292.826 -4.51127 3.49057 0
M  V30 3158 O 291.76 -3.32003 5.02053 0
M  V30 3159 H 295.586 -0.746279 2.94388 0
M  V30 3160 H 293.171 -0.303064 1.46294 0
M  V30 3161 H 295.053 -3.19155 2.7517 0
M  V30 3162 H 293.728 -2.80182 1.62109 0
M  V30 3163 H 292.635 -1.40244 3.46818 0
M  V30 3164 H 293.968 -1.86342 4.55563 0
M  V30 3165 N 295.62 -1.53406 -0.361157 0
M  V30 3166 C 296.868 -1.69467 -1.10115 0
M  V30 3167 C 297.189 -0.451352 -1.89705 0
M  V30 3168 O 296.459 0.534636 -1.88463 0
M  V30 3169 H 295.039 -0.624749 -0.409508 0
M  V30 3170 H 297.701 -1.90609 -0.406699 0
M  V30 3171 H 296.797 -2.55774 -1.78847 0
M  V30 3172 N 297.098 0.621204 -1.44841 0
M  V30 3173 C 298.323 1.41244 -1.51871 0
M  V30 3174 C 298.748 1.87519 -0.147764 0
M  V30 3175 O 298.106 1.59334 0.865 0
M  V30 3176 C 298.154 2.60221 -2.49634 0
M  V30 3177 O 297.258 3.60395 -2.00473 0
M  V30 3178 H 296.599 0.42223 -0.512463 0
M  V30 3179 H 299.129 0.757305 -1.90069 0
M  V30 3180 H 299.139 3.0764 -2.67996 0
M  V30 3181 H 297.814 2.25887 -3.4921 0
M  V30 3182 H 296.391 3.19717 -1.91925 0
M  V30 3183 N 298.576 1.31904 0.862503 0
M  V30 3184 C 299.506 1.22782 1.98612 0
M  V30 3185 C 300.487 0.113362 1.69722 0
M  V30 3186 O 301.672 0.299218 1.91881 0
M  V30 3187 C 298.802 0.942058 3.34279 0
M  V30 3188 C 297.756 2.0169 3.77499 0
M  V30 3189 C 297.082 1.58369 5.10709 0
M  V30 3190 C 298.382 3.43096 3.93805 0
M  V30 3191 H 300.076 2.16788 2.06502 0
M  V30 3192 H 297.622 1.04366 0.992154 0
M  V30 3193 H 299.575 0.864818 4.1243 0
M  V30 3194 H 298.299 -0.0336603 3.26583 0
M  V30 3195 H 296.958 2.08416 3.01593 0
M  V30 3196 H 296.606 0.595628 4.99461 0
M  V30 3197 H 296.306 2.30279 5.40597 0
M  V30 3198 H 297.83 1.52067 5.91361 0
M  V30 3199 H 299.244 3.39003 4.62331 0
M  V30 3200 H 297.641 4.13288 4.35101 0
M  V30 3201 H 298.711 3.83334 2.96957 0
M  V30 3202 N 300.054 -1.07777 1.14986 0
M  V30 3203 C 301.017 -2.13041 0.845358 0
M  V30 3204 C 302.017 -1.60071 -0.152931 0
M  V30 3205 O 303.207 -1.74033 0.0761879 0
M  V30 3206 C 300.339 -3.39896 0.261383 0
M  V30 3207 H 301.532 -2.41485 1.77834 0
M  V30 3208 H 299.085 -1.23595 0.956757 0
M  V30 3209 H 299.82 -3.17091 -0.68 0
M  V30 3210 H 299.605 -3.79642 0.980514 0
M  V30 3211 H 301.095 -4.17548 0.0657687 0
M  V30 3212 N 301.532 -0.945985 -1.26051 0
M  V30 3213 C 302.479 -0.45809 -2.26208 0
M  V30 3214 C 303.449 0.484816 -1.58867 0
M  V30 3215 O 304.634 0.399969 -1.86561 0
M  V30 3216 C 301.774 0.266131 -3.44072 0
M  V30 3217 C 300.887 -0.713005 -4.26075 0
M  V30 3218 C 300.022 0.0329013 -5.3119 0
M  V30 3219 C 299.061 -0.93774 -6.04874 0
M  V30 3220 N 298.198 -0.223274 -7.01745 0
M  V30 3221 H 303.038 -1.3171 -2.67313 0
M  V30 3222 H 300.575 -0.66069 -1.31428 0
M  V30 3223 H 302.533 0.702514 -4.11243 0
M  V30 3224 H 301.163 1.08925 -3.03867 0
M  V30 3225 H 300.215 -1.26789 -3.58648 0
M  V30 3226 H 301.527 -1.45406 -4.77136 0
M  V30 3227 H 300.681 0.528335 -6.04395 0
M  V30 3228 H 299.42 0.806801 -4.8098 0
M  V30 3229 H 298.425 -1.44425 -5.30492 0
M  V30 3230 H 299.65 -1.71172 -6.57173 0
M  V30 3231 H 297.596 0.532046 -6.53839 0
M  V30 3232 H 297.513 -0.90357 -7.50581 0
M  V30 3233 H 298.781 0.250907 -7.79096 0
M  V30 3234 N 303.011 1.40521 -0.713556 0
M  V30 3235 C 303.921 2.34522 -0.0606667 0
M  V30 3236 C 304.937 1.57193 0.74607 0
M  V30 3237 O 306.113 1.89591 0.679493 0
M  V30 3238 C 303.178 3.36081 0.851491 0
M  V30 3239 C 302.239 4.29286 0.0349339 0
M  V30 3240 C 301.472 5.25994 0.903649 0
M  V30 3241 O 301.695 5.28616 2.14292 0
M  V30 3242 O 300.629 6.00918 0.343723 0
M  V30 3243 H 304.455 2.91968 -0.835972 0
M  V30 3244 H 302.04 1.41681 -0.47402 0
M  V30 3245 H 303.922 3.98369 1.37404 0
M  V30 3246 H 302.597 2.81052 1.60598 0
M  V30 3247 H 301.504 3.70289 -0.532633 0
M  V30 3248 H 302.837 4.87462 -0.681287 0
M  V30 3249 N 304.489 0.459591 1.5075 0
M  V30 3250 C 305.436 -0.340524 2.28274 0
M  V30 3251 C 306.406 -0.997371 1.32822 0
M  V30 3252 O 307.591 -1.01202 1.61749 0
M  V30 3253 C 304.731 -1.42317 3.14388 0
M  V30 3254 C 303.844 -0.782251 4.24859 0
M  V30 3255 C 302.979 -1.84182 4.98247 0
M  V30 3256 C 302.018 -1.18053 6.00608 0
M  V30 3257 N 301.155 -2.18244 6.67319 0
M  V30 3258 H 305.995 0.326899 2.96202 0
M  V30 3259 H 303.532 0.173057 1.46078 0
M  V30 3260 H 305.49 -2.06241 3.62658 0
M  V30 3261 H 304.12 -2.05992 2.4853 0
M  V30 3262 H 303.172 -0.0307404 3.80388 0
M  V30 3263 H 304.484 -0.259663 4.98124 0
M  V30 3264 H 303.638 -2.55714 5.50177 0
M  V30 3265 H 302.377 -2.39819 4.24662 0
M  V30 3266 H 301.382 -0.450776 5.47949 0
M  V30 3267 H 302.607 -0.631202 6.7616 0
M  V30 3268 H 300.553 -2.72919 5.96533 0
M  V30 3269 H 300.47 -1.70938 7.36421 0
M  V30 3270 H 301.738 -2.89191 7.23871 0
M  V30 3271 N 305.967 -1.56429 0.191757 0
M  V30 3272 C 307.195 -2.01867 -0.453586 0
M  V30 3273 C 307.61 -1.07191 -1.5542 0
M  V30 3274 O 306.967 -0.0762108 -1.82341 0
M  V30 3275 C 307.018 -3.47017 -1.013 0
M  V30 3276 O 306.739 -4.38078 0.0437005 0
M  V30 3277 C 308.24 -4.07956 -1.73456 0
M  V30 3278 H 305.46 -0.661211 -0.114199 0
M  V30 3279 H 308.004 -2.02295 0.299483 0
M  V30 3280 H 306.159 -3.47298 -1.71647 0
M  V30 3281 H 306.573 -5.23178 -0.372212 0
M  V30 3282 H 308.047 -5.1138 -2.07833 0
M  V30 3283 H 308.524 -3.51222 -2.63704 0
M  V30 3284 H 309.13 -4.11437 -1.07702 0
M  V30 3285 N 307.445 0.0818655 -1.57387 0
M  V30 3286 C 308.377 1.12484 -1.997 0
M  V30 3287 C 309.39 1.35564 -0.90146 0
M  V30 3288 O 310.579 1.33982 -1.17945 0
M  V30 3289 C 307.679 2.47778 -2.31213 0
M  V30 3290 C 306.852 2.44793 -3.62485 0
M  V30 3291 C 305.911 3.62117 -3.81782 0
M  V30 3292 O 304.937 3.44005 -4.53486 0
M  V30 3293 N 306.139 4.82094 -3.23367 0
M  V30 3294 H 308.904 0.764585 -2.89783 0
M  V30 3295 H 306.465 0.270664 -1.59621 0
M  V30 3296 H 308.457 3.24891 -2.41304 0
M  V30 3297 H 307.027 2.75843 -1.4707 0
M  V30 3298 H 306.247 1.53134 -3.6324 0
M  V30 3299 H 307.535 2.39889 -4.48699 0
M  V30 3300 H 306.933 4.99713 -2.65148 0
M  V30 3301 H 305.49 5.56753 -3.38923 0
M  V30 3302 N 308.923 1.53595 0.353017 0
M  V30 3303 C 310.151 1.74311 1.1146 0
M  V30 3304 C 310.566 0.477854 1.82653 0
M  V30 3305 O 309.923 -0.549977 1.74016 0
M  V30 3306 C 309.974 2.91694 2.13534 0
M  V30 3307 O 309.695 4.13325 1.45238 0
M  V30 3308 C 311.196 3.24384 3.02142 0
M  V30 3309 H 308.416 0.582669 0.332773 0
M  V30 3310 H 310.96 2.00386 0.408107 0
M  V30 3311 H 309.115 2.67977 2.79763 0
M  V30 3312 H 309.529 4.79148 2.13349 0
M  V30 3313 H 311.003 4.09893 3.69718 0
M  V30 3314 H 311.48 2.40282 3.67643 0
M  V30 3315 H 312.086 3.50073 2.41514 0
M  V30 3316 N 310.401 -0.613514 1.45168 0
M  V30 3317 C 311.331 -1.7354 1.56225 0
M  V30 3318 C 312.312 -1.64981 0.41414 0
M  V30 3319 O 313.497 -1.83472 0.636526 0
M  V30 3320 C 310.627 -3.12128 1.52295 0
M  V30 3321 C 309.581 -3.35491 2.65762 0
M  V30 3322 C 308.907 -4.74291 2.46885 0
M  V30 3323 C 310.207 -3.26325 4.0781 0
M  V30 3324 H 311.901 -1.64543 2.50132 0
M  V30 3325 H 309.447 -0.790185 1.20383 0
M  V30 3326 H 311.4 -3.90404 1.58628 0
M  V30 3327 H 310.124 -3.2195 0.549139 0
M  V30 3328 H 308.783 -2.59603 2.58847 0
M  V30 3329 H 308.431 -4.80839 1.47657 0
M  V30 3330 H 308.131 -4.9088 3.22972 0
M  V30 3331 H 309.655 -5.54775 2.55063 0
M  V30 3332 H 311.069 -3.94483 4.16 0
M  V30 3333 H 309.466 -3.54445 4.8424 0
M  V30 3334 H 310.536 -2.23855 4.30136 0
M  V30 3335 N 311.879 -1.3236 -0.855495 0
M  V30 3336 C 312.829 -1.17809 -1.95205 0
M  V30 3337 C 313.813 -0.0852319 -1.60674 0
M  V30 3338 O 315.005 -0.311651 -1.74235 0
M  V30 3339 C 312.134 -0.902437 -3.31226 0
M  V30 3340 C 311.22 -2.03695 -3.7198 0
M  V30 3341 N 311.611 -3.28544 -3.84568 0
M  V30 3342 C 309.909 -1.93993 -4.016 0
M  V30 3343 C 310.61 -4.02847 -4.19629 0
M  V30 3344 N 309.586 -3.31138 -4.31102 0
M  V30 3345 H 313.388 -2.12462 -2.0307 0
M  V30 3346 H 310.902 -1.24127 -1.0472 0
M  V30 3347 H 312.899 -0.77915 -4.09554 0
M  V30 3348 H 311.559 0.0357267 -3.2468 0
M  V30 3349 H 312.57 -3.6349 -3.68911 0
M  V30 3350 H 309.247 -1.07733 -4.03361 0
M  V30 3351 H 310.637 -5.10506 -4.36845 0
M  V30 3352 N 313.357 1.07166 -1.15556 0
M  V30 3353 C 314.304 2.14417 -0.854055 0
M  V30 3354 C 315.274 1.64965 0.193806 0
M  V30 3355 O 316.459 1.90703 0.0609443 0
M  V30 3356 C 313.599 3.43304 -0.351574 0
M  V30 3357 C 312.712 4.06537 -1.46123 0
M  V30 3358 C 311.847 5.23266 -0.914677 0
M  V30 3359 C 310.886 5.78464 -2.00114 0
M  V30 3360 N 310.023 6.86521 -1.47083 0
M  V30 3361 H 314.863 2.39548 -1.77259 0
M  V30 3362 H 312.4 1.17543 -0.884425 0
M  V30 3363 H 314.358 4.17179 -0.0419409 0
M  V30 3364 H 312.988 3.18419 0.530037 0
M  V30 3365 H 312.04 3.30297 -1.88701 0
M  V30 3366 H 313.352 4.43567 -2.28144 0
M  V30 3367 H 312.506 6.04131 -0.557698 0
M  V30 3368 H 311.245 4.87658 -0.0636583 0
M  V30 3369 H 310.25 4.96243 -2.36692 0
M  V30 3370 H 311.475 6.16126 -2.85597 0
M  V30 3371 H 309.421 6.52849 -0.642198 0
M  V30 3372 H 309.338 7.22446 -2.22729 0
M  V30 3373 H 310.606 7.71087 -1.14215 0
M  V30 3374 N 314.835 0.952656 1.25548 0
M  V30 3375 C 316.082 0.606373 1.93208 0
M  V30 3376 C 316.41 -0.85631 1.74636 0
M  V30 3377 O 315.665 -1.62951 1.08376 0
M  V30 3378 C 315.964 0.908818 3.45652 0
M  V30 3379 C 315.63 2.35722 3.84378 0
M  V30 3380 C 314.292 2.75312 3.9466 0
M  V30 3381 C 316.644 3.29793 4.03591 0
M  V30 3382 C 313.972 4.08047 4.21562 0
M  V30 3383 C 316.324 4.62138 4.31985 0
M  V30 3384 C 314.988 5.01528 4.40484 0
M  V30 3385 H 314.258 0.221888 0.706998 0
M  V30 3386 H 316.905 1.20132 1.49133 0
M  V30 3387 H 315.21 0.231456 3.91116 0
M  V30 3388 H 316.907 0.619498 3.96186 0
M  V30 3389 H 313.497 2.04017 3.76928 0
M  V30 3390 H 317.681 3.00397 3.95064 0
M  V30 3391 H 312.937 4.38212 4.26357 0
M  V30 3392 H 317.111 5.35012 4.45797 0
M  V30 3393 H 314.738 6.04406 4.61083 0
M  V30 3394 N 316.313 -1.40141 0.720998 0
M  V30 3395 C 317.562 -2.0002 0.259804 0
M  V30 3396 C 317.875 -1.57839 -1.15526 0
M  V30 3397 O 319.081 -2.10455 -1.71525 0
M  V30 3398 C 317.537 -3.57516 0.413566 0
M  V30 3399 C 317.145 -4.08667 1.83562 0
M  V30 3400 C 318.889 -4.24498 0.0134387 0
M  V30 3401 C 316.796 -5.58686 1.93968 0
M  V30 3402 H 315.726 -0.748195 0.0933806 0
M  V30 3403 H 318.377 -1.60313 0.892866 0
M  V30 3404 H 316.759 -3.9495 -0.288169 0
M  V30 3405 H 317.933 -3.82598 2.56817 0
M  V30 3406 H 316.248 -3.543 2.1877 0
M  V30 3407 H 318.845 -5.34654 0.0703954 0
M  V30 3408 H 319.188 -4.03375 -1.02927 0
M  V30 3409 H 319.721 -3.92188 0.665815 0
M  V30 3410 H 316.46 -5.8467 2.96379 0
M  V30 3411 H 315.98 -5.86602 1.25131 0
M  V30 3412 H 317.659 -6.23875 1.71431 0
M  V30 3413 N 317.792 -0.46758 -1.50504 0
M  V30 3414 C 318.722 0.318381 -2.31319 0
M  V30 3415 C 319.703 0.993564 -1.38066 0
M  V30 3416 O 320.888 0.991411 -1.66987 0
M  V30 3417 C 318.018 1.40275 -3.17711 0
M  V30 3418 C 316.972 0.849373 -4.19487 0
M  V30 3419 C 316.298 2.03177 -4.94594 0
M  V30 3420 C 317.598 -0.136942 -5.2212 0
M  V30 3421 H 319.292 -0.356106 -2.97275 0
M  V30 3422 H 316.838 -0.172703 -1.42961 0
M  V30 3423 H 318.791 1.96004 -3.73042 0
M  V30 3424 H 317.515 2.10596 -2.49634 0
M  V30 3425 H 316.174 0.314076 -3.65252 0
M  V30 3426 H 315.822 2.72187 -4.22993 0
M  V30 3427 H 315.522 1.66774 -5.63436 0
M  V30 3428 H 317.046 2.59403 -5.52759 0
M  V30 3429 H 318.46 0.331056 -5.72343 0
M  V30 3430 H 316.857 -0.41507 -5.98663 0
M  V30 3431 H 317.927 -1.06398 -4.73083 0
M  V30 3432 N 319.27 1.56325 -0.20005 0
M  V30 3433 C 320.2 2.22318 0.713916 0
M  V30 3434 C 321.181 1.18788 1.21752 0
M  V30 3435 O 322.366 1.47309 1.26545 0
M  V30 3436 C 319.496 2.88639 1.93144 0
M  V30 3437 C 318.45 3.98457 1.56255 0
M  V30 3438 C 317.776 4.51967 2.85709 0
M  V30 3439 C 319.076 5.16612 0.768747 0
M  V30 3440 H 320.77 2.98952 0.163755 0
M  V30 3441 H 318.316 1.43792 0.0773219 0
M  V30 3442 H 320.269 3.33491 2.57608 0
M  V30 3443 H 318.993 2.09419 2.50621 0
M  V30 3444 H 317.652 3.54305 0.941471 0
M  V30 3445 H 317.3 3.69503 3.41287 0
M  V30 3446 H 317 5.26071 2.6177 0
M  V30 3447 H 318.524 4.99523 3.51154 0
M  V30 3448 H 319.938 5.57977 1.3166 0
M  V30 3449 H 318.335 5.96812 0.627286 0
M  V30 3450 H 319.405 4.84358 -0.229168 0
M  V30 3451 N 320.748 -0.0735177 1.57428 0
M  V30 3452 C 321.995 -0.772999 1.87166 0
M  V30 3453 C 322.323 -1.77665 0.791551 0
M  V30 3454 O 321.578 -1.94541 -0.212636 0
M  V30 3455 C 321.877 -1.51799 3.23561 0
M  V30 3456 C 321.543 -0.654484 4.46125 0
M  V30 3457 C 320.205 -0.416511 4.79394 0
M  V30 3458 C 322.557 -0.0555862 5.2117 0
M  V30 3459 C 319.885 0.429869 5.85123 0
M  V30 3460 C 322.237 0.778239 6.27795 0
M  V30 3461 C 320.901 1.0261 6.59566 0
M  V30 3462 H 320.171 -0.282861 0.684888 0
M  V30 3463 H 322.818 -0.0338272 1.9147 0
M  V30 3464 H 321.123 -2.32932 3.1504 0
M  V30 3465 H 322.82 -2.06397 3.43804 0
M  V30 3466 H 319.41 -0.850091 4.20085 0
M  V30 3467 H 323.594 -0.226558 4.95783 0
M  V30 3468 H 318.85 0.630665 6.08139 0
M  V30 3469 H 323.024 1.24906 6.85107 0
M  V30 3470 H 320.651 1.68371 7.4132 0
M  V30 3471 N 322.226 -1.5378 -0.344866 0
M  V30 3472 C 323.189 -1.80981 -1.40637 0
M  V30 3473 C 324.189 -0.680816 -1.45676 0
M  V30 3474 O 325.379 -0.949095 -1.46075 0
M  V30 3475 C 322.511 -1.95063 -2.79577 0
M  V30 3476 H 323.704 -2.75803 -1.17783 0
M  V30 3477 H 321.257 -1.45173 -0.579181 0
M  V30 3478 H 321.992 -1.02379 -3.07716 0
M  V30 3479 H 321.777 -2.77198 -2.77315 0
M  V30 3480 H 323.267 -2.17629 -3.56409 0
M  V30 3481 N 323.704 0.605807 -1.45491 0
M  V30 3482 C 324.95 1.36679 -1.49823 0
M  V30 3483 C 325.283 1.93693 -0.140175 0
M  V30 3484 O 324.558 1.75158 0.845581 0
M  V30 3485 C 324.841 2.51337 -2.57879 0
M  V30 3486 C 324.694 1.99508 -4.03134 0
M  V30 3487 C 326.013 3.53463 -2.62205 0
M  V30 3488 H 323.132 0.495617 -0.545466 0
M  V30 3489 H 325.774 0.682732 -1.7731 0
M  V30 3490 H 323.924 3.09691 -2.34571 0
M  V30 3491 H 325.596 1.45789 -4.37656 0
M  V30 3492 H 323.839 1.30496 -4.13707 0
M  V30 3493 H 324.51 2.82169 -4.74431 0
M  V30 3494 H 326.986 3.04953 -2.83095 0
M  V30 3495 H 325.862 4.31178 -3.39672 0
M  V30 3496 H 326.123 4.09197 -1.67363 0
M  V30 3497 N 325.182 1.32811 0.848464 0
M  V30 3498 C 326.429 1.23724 1.60308 0
M  V30 3499 C 326.757 -0.1994 1.93475 0
M  V30 3500 O 326.012 -1.15406 1.5805 0
M  V30 3501 C 326.311 2.04831 2.92881 0
M  V30 3502 C 325.977 3.54125 2.79117 0
M  V30 3503 C 324.639 3.94829 2.7507 0
M  V30 3504 C 326.991 4.49036 2.64606 0
M  V30 3505 C 324.319 5.28675 2.544 0
M  V30 3506 C 326.671 5.83033 2.4547 0
M  V30 3507 C 325.335 6.22931 2.39819 0
M  V30 3508 H 324.605 0.452737 0.586609 0
M  V30 3509 H 327.252 1.64301 0.983743 0
M  V30 3510 H 325.557 1.57001 3.58968 0
M  V30 3511 H 327.254 1.95164 3.50303 0
M  V30 3512 H 323.844 3.21801 2.83094 0
M  V30 3513 H 328.028 4.18505 2.66772 0
M  V30 3514 H 323.284 5.58637 2.48465 0
M  V30 3515 H 327.458 6.56186 2.33222 0
M  V30 3516 H 325.085 7.26584 2.23562 0
M  V30 3517 N 326.66 -1.06551 1.16123 0
M  V30 3518 C 327.937 -1.76097 0.85142 0
M  V30 3519 C 328.317 -2.00802 -0.6513 0
M  V30 3520 O 327.665 -1.63302 -1.59827 0
M  V30 3521 C 327.875 -3.06384 1.67122 0
M  V30 3522 C 329.223 -3.80585 1.88255 0
M  V30 3523 O 330.247 -3.16218 1.63966 0
M  V30 3524 O 329.106 -4.96212 2.2899 0
M  V30 3525 H 326.2 -0.765102 0.313923 0
M  V30 3526 H 328.746 -1.12844 1.26745 0
M  V30 3527 H 327.518 -2.84071 2.69108 0
M  V30 3528 H 327.141 -3.77371 1.25206 0
M  V30 3529 N 328.138 -0.959301 -1.25041 0
M  V30 3530 C 329.048 -0.489994 -2.29426 0
M  V30 3531 C 330.064 0.444944 -1.68215 0
M  V30 3532 O 331.24 0.320046 -1.98841 0
M  V30 3533 C 328.305 0.220309 -3.45999 0
M  V30 3534 C 327.366 -0.753418 -4.22637 0
M  V30 3535 C 326.599 -0.076918 -5.33645 0
M  V30 3536 O 326.822 1.13649 -5.58963 0
M  V30 3537 O 325.756 -0.764824 -5.97021 0
M  V30 3538 H 329.582 -1.35755 -2.71669 0
M  V30 3539 H 327.167 -0.725961 -1.30576 0
M  V30 3540 H 329.049 0.619677 -4.16819 0
M  V30 3541 H 327.724 1.06296 -3.0575 0
M  V30 3542 H 326.631 -1.20308 -3.54227 0
M  V30 3543 H 327.964 -1.56423 -4.66683 0
M  V30 3544 N 329.616 1.39756 -0.72842 0
M  V30 3545 C 330.864 2.00248 -0.272946 0
M  V30 3546 C 331.185 1.58077 1.14178 0
M  V30 3547 O 330.455 0.826014 1.77634 0
M  V30 3548 H 329.035 0.740554 -0.0979247 0
M  V30 3549 H 331.697 1.70903 -0.936912 0
M  V30 3550 H 330.793 3.10495 -0.316142 0
M  V30 3551 N 331.094 0.475555 1.50254 0
M  V30 3552 C 332.041 -0.316293 2.28622 0
M  V30 3553 C 333.011 -0.983227 1.33873 0
M  V30 3554 O 334.196 -0.994805 1.62814 0
M  V30 3555 C 331.336 -1.38975 3.1588 0
M  V30 3556 C 330.449 -0.737146 4.25664 0
M  V30 3557 C 329.584 -1.78887 5.00173 0
M  V30 3558 C 328.623 -1.11676 6.01826 0
M  V30 3559 N 327.76 -2.11154 6.69596 0
M  V30 3560 H 332.6 0.358297 2.95838 0
M  V30 3561 H 330.137 0.188541 1.45887 0
M  V30 3562 H 332.095 -2.02383 3.64825 0
M  V30 3563 H 330.725 -2.03344 2.50701 0
M  V30 3564 H 329.777 0.0096065 3.80399 0
M  V30 3565 H 331.089 -0.206816 4.98371 0
M  V30 3566 H 330.243 -2.49865 5.52859 0
M  V30 3567 H 328.982 -2.35302 4.27182 0
M  V30 3568 H 327.987 -0.392633 5.48396 0
M  V30 3569 H 329.212 -0.55945 6.76792 0
M  V30 3570 H 327.158 -2.66577 5.99394 0
M  V30 3571 H 327.075 -1.63118 7.38193 0
M  V30 3572 H 328.343 -2.81497 7.26897 0
M  V30 3573 N 332.573 -1.56217 0.208337 0
M  V30 3574 C 333.798 -2.02782 -0.435222 0
M  V30 3575 C 334.223 -1.08738 -1.53485 0
M  V30 3576 O 333.581 -0.0731855 -1.81152 0
M  V30 3577 C 333.629 -3.47687 -0.956335 0
M  V30 3578 O 332.733 -3.56773 -2.06849 0
M  V30 3579 H 332.074 -0.656403 -0.100158 0
M  V30 3580 H 334.604 -2.02033 0.3231 0
M  V30 3581 H 334.614 -3.87745 -1.26955 0
M  V30 3582 H 333.289 -4.15624 -0.15143 0
M  V30 3583 H 331.866 -3.28597 -1.76292 0
M  V30 3584 N 334.051 0.0651679 -1.57465 0
M  V30 3585 C 335.297 0.758912 -1.88712 0
M  V30 3586 C 335.652 1.7485 -0.802819 0
M  V30 3587 O 334.945 1.90632 0.192359 0
M  V30 3588 C 335.139 1.50081 -3.24362 0
M  V30 3589 C 334.968 0.584579 -4.45884 0
M  V30 3590 C 333.738 0.219039 -5.04825 0
M  V30 3591 C 335.936 -0.121559 -5.14156 0
M  V30 3592 N 333.918 -0.702222 -6.09871 0
M  V30 3593 C 335.289 -0.899767 -6.13436 0
M  V30 3594 C 337.344 -0.192331 -4.97528 0
M  V30 3595 C 336.047 -1.74218 -6.97883 0
M  V30 3596 C 338.073 -1.02174 -5.82507 0
M  V30 3597 C 337.435 -1.78798 -6.8133 0
M  V30 3598 H 333.534 0.25293 -0.739967 0
M  V30 3599 H 336.118 0.0201744 -1.9469 0
M  V30 3600 H 334.289 2.21023 -3.1938 0
M  V30 3601 H 336.021 2.14409 -3.43236 0
M  V30 3602 H 332.776 0.57336 -4.70117 0
M  V30 3603 H 333.2 -1.15629 -6.67052 0
M  V30 3604 H 337.842 0.385741 -4.21037 0
M  V30 3605 H 335.56 -2.3312 -7.73745 0
M  V30 3606 H 339.146 -1.07957 -5.71696 0
M  V30 3607 H 338.026 -2.41942 -7.45945 0
M  V30 3608 N 335.529 1.53961 0.336706 0
M  V30 3609 C 336.479 1.7881 1.41461 0
M  V30 3610 C 337.463 0.643561 1.47469 0
M  V30 3611 O 338.655 0.903166 1.52223 0
M  V30 3612 C 335.784 2.00722 2.78506 0
M  V30 3613 C 334.87 3.2126 2.76862 0
M  V30 3614 N 335.261 4.42588 2.44845 0
M  V30 3615 C 333.559 3.22568 3.08004 0
M  V30 3616 C 334.26 5.2447 2.51607 0
M  V30 3617 N 333.236 4.61344 2.87511 0
M  V30 3618 H 337.038 2.70205 1.15615 0
M  V30 3619 H 334.552 1.52978 0.545112 0
M  V30 3620 H 336.549 2.1666 3.5618 0
M  V30 3621 H 335.209 1.10573 3.05293 0
M  V30 3622 H 336.22 4.69819 2.17922 0
M  V30 3623 H 332.897 2.42409 3.39918 0
M  V30 3624 H 334.287 6.31324 2.29955 0
M  V30 3625 N 337.007 -0.598083 1.45811 0
M  V30 3626 C 338.232 -1.3881 1.54099 0
M  V30 3627 C 338.657 -1.8726 0.177578 0
M  V30 3628 O 338.015 -1.6069 -0.839541 0
M  V30 3629 C 338.063 -2.56217 2.53743 0
M  V30 3630 O 337.167 -3.5716 2.06182 0
M  V30 3631 H 336.508 -0.414024 0.519115 0
M  V30 3632 H 339.038 -0.726971 1.91249 0
M  V30 3633 H 339.048 -3.03337 2.72856 0
M  V30 3634 H 337.723 -2.20303 3.5276 0
M  V30 3635 H 336.3 -3.16624 1.96987 0
M  V30 3636 N 338.485 -1.33259 -0.841409 0
M  V30 3637 C 339.395 -1.25332 -1.98316 0
M  V30 3638 C 340.411 -0.164364 -1.73222 0
M  V30 3639 O 341.587 -0.387486 -1.97637 0
M  V30 3640 C 338.652 -0.990078 -3.32262 0
M  V30 3641 C 337.713 -2.16879 -3.70489 0
M  V30 3642 C 336.946 -1.91801 -4.98044 0
M  V30 3643 O 337.169 -0.867075 -5.63771 0
M  V30 3644 O 336.103 -2.78267 -5.33714 0
M  V30 3645 H 339.929 -2.21344 -2.07944 0
M  V30 3646 H 337.514 -1.1328 -0.974058 0
M  V30 3647 H 339.396 -0.860321 -4.12524 0
M  V30 3648 H 338.071 -0.0602155 -3.23644 0
M  V30 3649 H 336.978 -2.35407 -2.90748 0
M  V30 3650 H 338.311 -3.0819 -3.8377 0
M  V30 3651 N 339.963 1.05934 -1.16686 0
M  V30 3652 C 341.191 1.8249 -0.974929 0
M  V30 3653 C 341.606 1.82679 0.476861 0
M  V30 3654 O 340.963 1.2486 1.33103 0
M  V30 3655 C 341.014 3.28943 -1.49929 0
M  V30 3656 O 340.735 3.28886 -2.89423 0
M  V30 3657 C 342.236 4.22215 -1.35089 0
M  V30 3658 H 339.456 0.575295 -0.345365 0
M  V30 3659 H 342 1.33631 -1.548 0
M  V30 3660 H 340.155 3.751 -0.968423 0
M  V30 3661 H 340.569 4.20493 -3.13506 0
M  V30 3662 H 342.043 5.22987 -1.76603 0
M  V30 3663 H 342.52 4.38195 -0.296935 0
M  V30 3664 H 343.126 3.81907 -1.87155 0
M  V30 3665 N 341.441 0.965919 1.2453 0
M  V30 3666 C 342.388 0.49402 2.25451 0
M  V30 3667 C 343.358 -0.45948 1.59618 0
M  V30 3668 O 344.543 -0.370238 1.87173 0
M  V30 3669 C 341.683 -0.211359 3.44452 0
M  V30 3670 C 340.796 0.7807 4.24887 0
M  V30 3671 C 339.931 0.0516105 5.31175 0
M  V30 3672 C 338.97 1.03385 6.03306 0
M  V30 3673 N 338.107 0.334887 7.01301 0
M  V30 3674 H 342.947 1.35946 2.65184 0
M  V30 3675 H 340.484 0.681515 1.3036 0
M  V30 3676 H 342.442 -0.637 4.12308 0
M  V30 3677 H 341.072 -1.04077 3.05562 0
M  V30 3678 H 340.124 1.32479 3.56586 0
M  V30 3679 H 341.436 1.52978 4.74762 0
M  V30 3680 H 340.59 -0.432114 6.05159 0
M  V30 3681 H 339.329 -0.730179 4.82203 0
M  V30 3682 H 338.334 1.52847 5.28127 0
M  V30 3683 H 339.559 1.81606 6.54367 0
M  V30 3684 H 337.505 -0.427959 6.54603 0
M  V30 3685 H 337.422 1.02287 7.49048 0
M  V30 3686 H 338.69 -0.126928 7.79397 0
M  V30 3687 N 342.919 -1.39368 0.735821 0
M  V30 3688 C 343.867 -2.32443 0.0855131 0
M  V30 3689 C 344.861 -1.53104 -0.724954 0
M  V30 3690 O 346.067 -1.68762 -0.626047 0
M  V30 3691 H 342.442 -0.751948 0.00885257 0
M  V30 3692 H 344.413 -2.84916 0.886883 0
M  V30 3693 C 343.162 -3.38206 -0.806983 0
M  V30 3694 H 342.485 -3.99335 -0.19274 0
M  V30 3695 H 343.925 -4.05779 -1.2296 0
M  V30 3696 C 342.384 -2.75321 -1.94165 0
M  V30 3697 O 342.914 -2.63231 -3.03435 0
M  V30 3698 N 341.12 -2.33396 -1.73132 0
M  V30 3699 H 340.667 -2.4343 -0.842596 0
M  V30 3700 H 340.625 -1.91661 -2.49225 0
M  V30 3701 N 344.397 -0.483516 -1.5 0
M  V30 3702 C 345.622 0.0667119 -2.07293 0
M  V30 3703 C 346.047 1.3164 -1.3436 0
M  V30 3704 O 345.405 1.76945 -0.394987 0
M  V30 3705 C 345.453 0.321126 -3.59167 0
M  V30 3706 O 344.557 1.39927 -3.87936 0
M  V30 3707 H 343.898 -0.0184758 -0.663743 0
M  V30 3708 H 346.428 -0.678125 -1.93035 0
M  V30 3709 H 346.438 0.557906 -4.04168 0
M  V30 3710 H 345.113 -0.592007 -4.11665 0
M  V30 3711 H 343.69 1.14882 -3.54763 0
M  V30 3712 N 345.875 1.56104 -0.216619 0
M  V30 3713 C 346.805 2.23063 0.690296 0
M  V30 3714 C 347.786 1.20072 1.20485 0
M  V30 3715 O 348.971 1.48643 1.24976 0
M  V30 3716 C 346.101 2.90672 1.90072 0
M  V30 3717 C 345.055 4.00092 1.5202 0
M  V30 3718 C 344.381 4.54972 2.80899 0
M  V30 3719 C 345.681 5.17398 0.71391 0
M  V30 3720 H 347.375 2.99109 0.132038 0
M  V30 3721 H 344.921 1.43866 0.0620664 0
M  V30 3722 H 346.874 3.36204 2.54057 0
M  V30 3723 H 345.598 2.12066 2.48386 0
M  V30 3724 H 344.257 3.55283 0.903839 0
M  V30 3725 H 343.905 3.73102 3.37348 0
M  V30 3726 H 343.605 5.28817 2.56176 0
M  V30 3727 H 345.129 5.0322 3.45836 0
M  V30 3728 H 346.543 5.59342 1.25735 0
M  V30 3729 H 344.94 5.97444 0.563951 0
M  V30 3730 H 346.01 4.84088 -0.280527 0
M  V30 3731 N 347.353 -0.0568162 1.57498 0
M  V30 3732 C 348.286 -1.09817 2.00039 0
M  V30 3733 C 349.264 -1.3674 0.879819 0
M  V30 3734 O 350.448 -1.49863 1.14338 0
M  V30 3735 C 347.575 -2.43924 2.34986 0
M  V30 3736 C 346.621 -2.33039 3.57204 0
M  V30 3737 S 347.454 -1.7102 5.07457 0
M  V30 3738 C 348.61 -3.06674 5.45621 0
M  V30 3739 H 348.843 -0.735701 2.88053 0
M  V30 3740 H 346.376 -0.265871 1.52094 0
M  V30 3741 H 348.334 -3.2106 2.55795 0
M  V30 3742 H 346.995 -2.77327 1.47474 0
M  V30 3743 H 346.188 -3.31973 3.79223 0
M  V30 3744 H 345.79 -1.64043 3.36104 0
M  V30 3745 H 348.082 -4.03 5.44608 0
M  V30 3746 H 349.025 -2.8942 6.46252 0
M  V30 3747 H 349.433 -3.07969 4.73091 0
M  V30 3748 N 348.832 -1.54138 -0.328536 0
M  V30 3749 C 349.764 -1.79509 -1.4251 0
M  V30 3750 C 350.777 -0.67688 -1.48061 0
M  V30 3751 O 351.966 -0.953898 -1.50874 0
M  V30 3752 C 349.066 -1.89337 -2.81078 0
M  V30 3753 C 348.239 -3.19443 -2.98789 0
M  V30 3754 C 347.298 -3.20036 -4.17688 0
M  V30 3755 O 346.324 -3.93697 -4.11086 0
M  V30 3756 N 347.526 -2.43467 -5.26976 0
M  V30 3757 H 350.291 -2.74139 -1.21111 0
M  V30 3758 H 347.852 -1.53373 -0.518499 0
M  V30 3759 H 349.844 -1.87167 -3.58818 0
M  V30 3760 H 348.414 -1.01826 -2.95551 0
M  V30 3761 H 347.634 -3.34614 -2.08391 0
M  V30 3762 H 348.922 -4.05354 -3.07515 0
M  V30 3763 H 348.32 -1.83201 -5.35214 0
M  V30 3764 H 346.877 -2.4708 -6.03154 0
M  V30 3765 N 350.31 0.590341 -1.46126 0
M  V30 3766 C 351.587 1.35029 -1.41515 0
M  V30 3767 C 351.967 2.10888 -0.0946472 0
M  V30 3768 O 351.315 2.08998 0.923693 0
M  V30 3769 C 351.525 2.28269 -2.63997 0
M  V30 3770 C 352.873 2.90338 -3.09821 0
M  V30 3771 O 353.897 2.38585 -2.64492 0
M  V30 3772 O 352.756 3.84321 -3.88535 0
M  V30 3773 H 349.85 0.606317 -0.562413 0
M  V30 3774 H 352.396 0.611994 -1.58281 0
M  V30 3775 H 351.168 1.71591 -3.51671 0
M  V30 3776 H 350.791 3.0945 -2.49652 0
M  V30 3777 N 351.788 1.33704 0.83433 0
M  V30 3778 C 353.204 1.13137 1.12571 0
M  V30 3779 C 353.404 -0.0747261 2.01361 0
M  V30 3780 O 352.46 -0.753647 2.4099 0
M  V30 3781 C 353.773 2.42105 1.78342 0
M  V30 3782 C 355.321 2.48054 1.90888 0
M  V30 3783 C 355.796 3.76995 2.60075 0
M  V30 3784 N 357.287 3.78092 2.67584 0
M  V30 3785 C 358.022 4.74574 3.21818 0
M  V30 3786 N 357.518 5.81434 3.76705 0
M  V30 3787 N 359.311 4.62044 3.20112 0
M  V30 3788 H 351.462 2.11 0.243489 0
M  V30 3789 H 353.725 0.932532 0.17055 0
M  V30 3790 H 353.431 3.30391 1.20561 0
M  V30 3791 H 353.305 2.54594 2.7832 0
M  V30 3792 H 355.692 1.60215 2.47821 0
M  V30 3793 H 355.773 2.39502 0.898459 0
M  V30 3794 H 355.417 4.65219 2.03799 0
M  V30 3795 H 355.347 3.82825 3.61597 0
M  V30 3796 H 357.838 3.00865 2.28667 0
M  V30 3797 H 358.151 6.51084 4.16305 0
M  V30 3798 H 356.496 5.85163 3.7498 0
M  V30 3799 H 359.687 3.77716 2.76493 0
M  V30 3800 H 359.86 5.37406 3.62076 0
M  V30 3801 N 353.266 -1.05314 1.17247 0
M  V30 3802 C 354.543 -1.75184 0.87005 0
M  V30 3803 C 354.923 -2.01481 -0.629965 0
M  V30 3804 O 354.271 -1.64988 -1.58086 0
M  V30 3805 C 354.481 -3.04594 1.70363 0
M  V30 3806 C 355.829 -3.78567 1.92281 0
M  V30 3807 O 356.853 -3.14461 1.67311 0
M  V30 3808 O 355.712 -4.93755 2.3424 0
M  V30 3809 H 352.806 -0.761729 0.322021 0
M  V30 3810 H 355.352 -1.11493 1.27935 0
M  V30 3811 H 354.124 -2.81201 2.72106 0
M  V30 3812 H 353.747 -3.76022 1.29202 0
M  V30 3813 N 354.744 -0.972509 -1.24016 0
M  V30 3814 C 355.707 -0.511403 -2.23422 0
M  V30 3815 C 356.707 0.394679 -1.55881 0
M  V30 3816 O 357.897 0.189469 -1.73167 0
M  V30 3817 C 355.029 0.258769 -3.39916 0
M  V30 3818 H 356.222 -1.39024 -2.6573 0
M  V30 3819 H 353.775 -0.757585 -1.36713 0
M  V30 3820 H 354.51 1.1545 -3.03054 0
M  V30 3821 H 354.295 -0.391522 -3.9014 0
M  V30 3822 H 355.785 0.570244 -4.13688 0
M  V30 3823 N 356.222 1.38976 -0.743202 0
M  V30 3824 C 357.185 2.28901 -0.117014 0
M  V30 3825 C 358.185 1.46698 0.658503 0
M  V30 3826 O 359.375 1.67274 0.486305 0
M  V30 3827 C 356.507 3.30309 0.84315 0
M  V30 3828 H 357.7 2.8578 -0.909373 0
M  V30 3829 H 355.253 1.47761 -0.509547 0
M  V30 3830 H 355.988 2.785 1.66157 0
M  V30 3831 H 355.773 3.91029 0.289594 0
M  V30 3832 H 357.263 3.97577 1.2776 0
M  V30 3833 N 357.7 0.491464 1.49741 0
M  V30 3834 C 358.925 -0.0557177 2.07325 0
M  V30 3835 C 359.35 -1.30925 1.35056 0
M  V30 3836 O 358.708 -1.76733 0.404365 0
M  V30 3837 C 358.756 -0.302074 3.59333 0
M  V30 3838 O 357.86 -1.37868 3.88672 0
M  V30 3839 H 357.201 0.0219956 0.663636 0
M  V30 3840 H 359.731 0.688352 1.92673 0
M  V30 3841 H 359.741 -0.536464 4.04458 0
M  V30 3842 H 358.416 0.61383 4.11345 0
M  V30 3843 H 356.993 -1.12999 3.55367 0
M  V30 3844 N 359.178 -1.55987 0.224894 0
M  V30 3845 C 360.141 -2.19178 -0.670348 0
M  V30 3846 C 361.141 -1.15461 -1.11917 0
M  V30 3847 O 362.331 -1.40675 -1.02743 0
M  V30 3848 C 359.463 -2.81777 -1.9187 0
M  V30 3849 H 360.656 -2.99662 -0.119364 0
M  V30 3850 H 358.209 -1.5628 -0.0247128 0
M  V30 3851 H 358.944 -2.05172 -2.51147 0
M  V30 3852 H 358.729 -3.57732 -1.60531 0
M  V30 3853 H 360.219 -3.30205 -2.55645 0
M  V30 3854 N 360.656 0.0484629 -1.57525 0
M  V30 3855 C 362.072 0.40375 -1.54409 0
M  V30 3856 C 362.272 1.77786 -0.948384 0
M  V30 3857 O 361.328 2.46189 -0.560983 0
M  V30 3858 C 362.641 0.323394 -2.98956 0
M  V30 3859 C 364.189 0.401892 -3.10409 0
M  V30 3860 C 364.664 0.351195 -4.56652 0
M  V30 3861 N 366.155 0.410576 -4.61377 0
M  V30 3862 C 366.89 0.393933 -5.72045 0
M  V30 3863 N 366.386 0.330724 -6.9201 0
M  V30 3864 N 368.179 0.442227 -5.60358 0
M  V30 3865 H 360.33 -0.851016 -1.94606 0
M  V30 3866 H 362.593 -0.321721 -0.89174 0
M  V30 3867 H 362.299 -0.62011 -3.4619 0
M  V30 3868 H 362.173 1.12463 -3.60044 0
M  V30 3869 H 364.56 1.33582 -2.63134 0
M  V30 3870 H 364.641 -0.428342 -2.52188 0
M  V30 3871 H 364.285 -0.578987 -5.04589 0
M  V30 3872 H 364.215 1.19928 -5.12762 0
M  V30 3873 H 366.706 0.462729 -3.75056 0
M  V30 3874 H 367.019 0.322592 -7.72126 0
M  V30 3875 H 365.364 0.29706 -6.94365 0
M  V30 3876 H 368.555 0.489464 -4.65534 0
M  V30 3877 H 368.728 0.425788 -6.466 0
M  V30 3878 N 362.134 1.5431 0.320358 0
M  V30 3879 C 363.097 1.83195 1.3774 0
M  V30 3880 C 364.097 0.703906 1.44575 0
M  V30 3881 O 365.287 0.972214 1.44546 0
M  V30 3882 C 362.419 1.99487 2.76438 0
M  V30 3883 H 363.612 2.77642 1.1338 0
M  V30 3884 H 361.165 1.46076 0.556012 0
M  V30 3885 H 361.9 1.07262 3.06048 0
M  V30 3886 H 361.685 2.81575 2.7287 0
M  V30 3887 H 363.175 2.23271 3.52902 0
M  V30 3888 N 363.613 -0.582584 1.46437 0
M  V30 3889 C 364.859 -1.34064 1.52965 0
M  V30 3890 C 365.214 -1.91566 0.178968 0
M  V30 3891 O 364.507 -1.73526 -0.812365 0
M  V30 3892 C 364.701 -2.48964 2.56421 0
M  V30 3893 C 364.53 -2.02717 4.01417 0
M  V30 3894 C 363.3 -1.87728 4.69134 0
M  V30 3895 C 365.498 -1.58675 4.8921 0
M  V30 3896 N 363.48 -1.35554 5.98747 0
M  V30 3897 C 364.851 -1.18093 6.08649 0
M  V30 3898 C 366.906 -1.46494 4.75861 0
M  V30 3899 C 365.609 -0.665427 7.16215 0
M  V30 3900 C 367.635 -0.96347 5.83499 0
M  V30 3901 C 366.997 -0.567432 7.02111 0
M  V30 3902 H 363.096 -0.483551 0.614575 0
M  V30 3903 H 365.68 -0.663309 1.83053 0
M  V30 3904 H 363.851 -3.1426 2.28244 0
M  V30 3905 H 365.583 -3.15913 2.52944 0
M  V30 3906 H 362.338 -2.09678 4.24655 0
M  V30 3907 H 362.762 -1.11628 6.67734 0
M  V30 3908 H 367.404 -1.75731 3.8455 0
M  V30 3909 H 365.122 -0.360639 8.07295 0
M  V30 3910 H 368.708 -0.873129 5.75211 0
M  V30 3911 H 367.588 -0.185389 7.83981 0
M  V30 3912 N 365.091 -1.34144 -0.827227 0
M  V30 3913 C 366.502 -1.23557 -1.39966 0
M  V30 3914 C 366.853 0.140731 -1.95695 0
M  V30 3915 O 365.978 1.04087 -1.89723 0
M  V30 3916 C 366.573 -2.23708 -2.54441 0
M  V30 3917 C 365.132 -2.16924 -3.07605 0
M  V30 3918 C 364.279 -2.10549 -1.80456 0
M  V30 3919 H 367.23 -1.45573 -0.631991 0
M  V30 3920 H 367.251 -1.85157 -3.32411 0
M  V30 3921 H 366.763 -3.23866 -2.13851 0
M  V30 3922 H 364.864 -1.20107 -3.52711 0
M  V30 3923 H 364.977 -3.07988 -3.66988 0
M  V30 3924 H 363.341 -1.56203 -2.01178 0
M  V30 3925 H 364.124 -3.12535 -1.42046 0
M  V30 3926 N 366.569 1.04691 -1.17803 0
M  V30 3927 C 367.516 2.12557 -0.899343 0
M  V30 3928 C 368.486 1.65339 0.158771 0
M  V30 3929 O 369.671 1.90789 0.0204797 0
M  V30 3930 C 366.811 3.42481 -0.424315 0
M  V30 3931 C 365.924 4.03346 -1.54713 0
M  V30 3932 C 365.059 5.21208 -1.02546 0
M  V30 3933 C 364.098 5.74089 -2.12339 0
M  V30 3934 N 363.235 6.83247 -1.61612 0
M  V30 3935 H 368.075 2.35734 -1.823 0
M  V30 3936 H 365.612 1.1564 -0.909159 0
M  V30 3937 H 367.57 4.16996 -0.130421 0
M  V30 3938 H 366.2 3.19471 0.462377 0
M  V30 3939 H 365.252 3.2622 -1.95664 0
M  V30 3940 H 366.564 4.38628 -2.37501 0
M  V30 3941 H 365.718 6.02812 -0.685718 0
M  V30 3942 H 364.457 4.87414 -0.167084 0
M  V30 3943 H 363.462 4.91111 -2.47165 0
M  V30 3944 H 364.687 6.0993 -2.98601 0
M  V30 3945 H 362.633 6.5134 -0.780533 0
M  V30 3946 H 362.55 7.17559 -2.38003 0
M  V30 3947 H 363.818 7.68491 -1.30545 0
M  V30 3948 N 368.047 0.979072 1.23499 0
M  V30 3949 C 368.98 0.463027 2.23453 0
M  V30 3950 C 369.958 -0.469128 1.55685 0
M  V30 3951 O 371.142 -0.397882 1.84253 0
M  V30 3952 C 368.269 -0.330308 3.37086 0
M  V30 3953 C 367.315 0.545795 4.22993 0
M  V30 3954 S 368.148 1.99285 4.97037 0
M  V30 3955 C 369.304 1.20862 6.1412 0
M  V30 3956 H 369.537 1.31005 2.6688 0
M  V30 3957 H 367.07 0.784965 1.32957 0
M  V30 3958 H 369.028 -0.782027 4.02982 0
M  V30 3959 H 367.689 -1.15244 2.92194 0
M  V30 3960 H 366.882 -0.0638928 5.03959 0
M  V30 3961 H 366.484 0.933705 3.62157 0
M  V30 3962 H 368.776 0.469284 6.75873 0
M  V30 3963 H 369.719 1.99307 6.79472 0
M  V30 3964 H 370.127 0.727992 5.59786 0
M  V30 3965 N 369.525 -1.3858 0.750561 0
M  V30 3966 C 370.475 -2.27795 0.0965949 0
M  V30 3967 C 371.459 -1.45048 -0.696411 0
M  V30 3968 O 372.651 -1.67812 -0.562863 0
M  V30 3969 C 369.78 -3.33894 -0.798085 0
M  V30 3970 C 368.866 -4.241 0.0016067 0
M  V30 3971 N 369.257 -4.95067 1.03647 0
M  V30 3972 C 367.555 -4.45429 -0.225674 0
M  V30 3973 C 368.256 -5.61489 1.52004 0
M  V30 3974 N 367.232 -5.37135 0.835874 0
M  V30 3975 H 371.034 -2.80125 0.889228 0
M  V30 3976 H 368.548 -1.51446 0.586323 0
M  V30 3977 H 370.545 -3.96693 -1.28219 0
M  V30 3978 H 369.205 -2.83123 -1.5897 0
M  V30 3979 H 370.216 -4.98104 1.41819 0
M  V30 3980 H 366.893 -4.05571 -0.990872 0
M  V30 3981 H 368.283 -6.28264 2.38188 0
M  V30 3982 N 371.003 -0.499398 -1.49478 0
M  V30 3983 C 372.231 0.0425456 -2.06856 0
M  V30 3984 C 372.646 1.30964 -1.35992 0
M  V30 3985 O 372.003 1.77172 -0.437762 0
M  V30 3986 C 372.054 0.301735 -3.60239 0
M  V30 3987 O 371.775 -0.915127 -4.28436 0
M  V30 3988 C 373.276 0.887499 -4.34325 0
M  V30 3989 H 370.496 -0.0197482 -0.670709 0
M  V30 3990 H 373.04 -0.696297 -1.92281 0
M  V30 3991 H 371.195 0.990556 -3.74522 0
M  V30 3992 H 371.609 -0.676993 -5.20113 0
M  V30 3993 H 373.083 1.01845 -5.42523 0
M  V30 3994 H 373.56 1.88488 -3.96698 0
M  V30 3995 H 374.166 0.236196 -4.24644 0
M  V30 3996 N 372.481 1.55866 -0.233164 0
M  V30 3997 C 373.727 1.98897 0.395959 0
M  V30 3998 C 374.06 1.12091 1.58585 0
M  V30 3999 O 373.335 0.181182 1.93654 0
M  V30 4000 C 373.618 3.50658 0.819224 0
M  V30 4001 C 373.471 4.48233 -0.375109 0
M  V30 4002 C 374.79 4.07135 1.67121 0
M  V30 4003 H 371.909 0.723102 0.142451 0
M  V30 4004 H 374.551 1.87082 -0.331725 0
M  V30 4005 H 372.701 3.60857 1.43925 0
M  V30 4006 H 374.373 4.50031 -1.01341 0
M  V30 4007 H 372.616 4.21624 -1.02058 0
M  V30 4008 H 373.287 5.51988 -0.0358328 0
M  V30 4009 H 375.763 3.99952 1.14795 0
M  V30 4010 H 374.639 5.13615 1.93625 0
M  V30 4011 H 374.9 3.54736 2.63846 0
M  V30 4012 N 373.959 -0.0401083 1.57549 0
M  V30 4013 C 374.907 -1.06264 2.06908 0
M  V30 4014 C 375.901 -1.38132 0.980608 0
M  V30 4015 O 377.107 -1.37167 1.16556 0
M  V30 4016 H 373.482 -0.360166 0.660139 0
M  V30 4017 H 375.453 -0.620445 2.91878 0
M  V30 4018 C 374.202 -2.35846 2.55483 0
M  V30 4019 H 373.525 -2.12183 3.38849 0
M  V30 4020 H 374.965 -3.05765 2.93741 0
M  V30 4021 C 373.424 -3.0404 1.45126 0
M  V30 4022 O 373.954 -3.93424 0.811216 0
M  V30 4023 N 372.16 -2.65184 1.18852 0
M  V30 4024 H 371.707 -1.92584 1.71083 0
M  V30 4025 H 371.665 -3.1113 0.452244 0
M  V30 4026 N 375.437 -1.54477 -0.31217 0
M  V30 4027 C 376.685 -1.72884 -1.04668 0
M  V30 4028 C 377.006 -0.511477 -1.88173 0
M  V30 4029 O 376.276 0.474407 -1.90069 0
M  V30 4030 H 374.856 -0.637461 -0.389425 0
M  V30 4031 H 377.518 -1.91807 -0.345852 0
M  V30 4032 H 376.614 -2.61334 -1.70619 0
M  V30 4033 N 376.915 0.57481 -1.46744 0
M  V30 4034 C 378.145 1.35659 -1.55821 0
M  V30 4035 C 378.553 1.88129 -0.201036 0
M  V30 4036 O 377.896 1.64723 0.813134 0
M  V30 4037 C 377.958 2.57473 -2.50894 0
M  V30 4038 C 377.622 2.26415 -3.9697 0
M  V30 4039 C 378.619 1.84771 -4.85958 0
M  V30 4040 C 376.304 2.38316 -4.42166 0
M  V30 4041 C 378.298 1.55434 -6.18158 0
M  V30 4042 C 375.985 2.08591 -5.74398 0
M  V30 4043 C 376.983 1.67216 -6.62214 0
M  V30 4044 O 376.671 1.37859 -7.91991 0
M  V30 4045 H 376.403 0.420496 -0.529301 0
M  V30 4046 H 378.957 0.704967 -1.92923 0
M  V30 4047 H 377.187 3.25468 -2.08824 0
M  V30 4048 H 378.876 3.19546 -2.50291 0
M  V30 4049 H 379.642 1.75085 -4.52295 0
M  V30 4050 H 375.521 2.69483 -3.74032 0
M  V30 4051 H 379.065 1.23065 -6.86659 0
M  V30 4052 H 374.962 2.17905 -6.07608 0
M  V30 4053 H 375.73 1.51638 -8.04331 0
M  V30 4054 N 378.394 1.34581 0.820102 0
M  V30 4055 C 379.64 1.27285 1.57881 0
M  V30 4056 C 379.973 -0.156137 1.93571 0
M  V30 4057 O 379.248 -1.10222 1.60254 0
M  V30 4058 C 379.531 2.16639 2.87645 0
M  V30 4059 C 379.384 3.68088 2.58517 0
M  V30 4060 C 380.703 2.05378 3.8924 0
M  V30 4061 H 377.822 0.463714 0.572833 0
M  V30 4062 H 380.464 1.64859 0.944539 0
M  V30 4063 H 378.614 1.84725 3.41773 0
M  V30 4064 H 380.286 4.10382 2.10676 0
M  V30 4065 H 378.529 3.89038 1.91917 0
M  V30 4066 H 379.2 4.2598 3.51063 0
M  V30 4067 H 381.676 2.33404 3.44473 0
M  V30 4068 H 380.552 2.7012 4.77835 0
M  V30 4069 H 380.813 1.0316 4.29896 0
M  V30 4070 N 379.872 -1.04064 1.18357 0
M  V30 4071 C 380.82 -2.14187 0.907007 0
M  V30 4072 C 381.814 -1.68879 -0.132725 0
M  V30 4073 O 383.02 -1.79993 0.0154248 0
M  V30 4074 H 379.395 -0.699585 0.275835 0
M  V30 4075 H 381.366 -2.34711 1.84264 0
M  V30 4076 C 380.115 -3.44785 0.449254 0
M  V30 4077 H 379.438 -3.80058 1.24081 0
M  V30 4078 H 380.878 -4.22974 0.294737 0
M  V30 4079 C 379.337 -3.26391 -0.834909 0
M  V30 4080 O 379.867 -3.53973 -1.89911 0
M  V30 4081 N 378.073 -2.79726 -0.787523 0
M  V30 4082 H 377.62 -2.5748 0.0787347 0
M  V30 4083 H 377.578 -2.67798 -1.64716 0
M  V30 4084 N 381.35 -0.985608 -1.22978 0
M  V30 4085 C 382.766 -0.695104 -1.43668 0
M  V30 4086 C 382.966 0.736866 -1.87543 0
M  V30 4087 O 382.022 1.50868 -2.02473 0
M  V30 4088 C 383.335 -1.69447 -2.48412 0
M  V30 4089 C 384.883 -1.70909 -2.62219 0
M  V30 4090 C 385.358 -2.6969 -3.70178 0
M  V30 4091 N 386.849 -2.6824 -3.77626 0
M  V30 4092 C 387.584 -3.41339 -4.60733 0
M  V30 4093 N 387.08 -4.24015 -5.4789 0
M  V30 4094 N 388.873 -3.30079 -4.54977 0
M  V30 4095 H 381.024 -1.91054 -0.928016 0
M  V30 4096 H 383.287 -0.823553 -0.469536 0
M  V30 4097 H 382.993 -2.7188 -2.23102 0
M  V30 4098 H 382.867 -1.48147 -3.46889 0
M  V30 4099 H 385.254 -0.691785 -2.86877 0
M  V30 4100 H 385.335 -1.96276 -1.6404 0
M  V30 4101 H 384.979 -3.71566 -3.46268 0
M  V30 4102 H 384.909 -2.41595 -4.67909 0
M  V30 4103 H 387.4 -2.08243 -3.15346 0
M  V30 4104 H 387.713 -4.76636 -6.08308 0
M  V30 4105 H 386.058 -4.28104 -5.47496 0
M  V30 4106 H 389.249 -2.64937 -3.85909 0
M  V30 4107 H 389.422 -3.87308 -5.19516 0
M  V30 4108 N 382.828 1.3818 -0.7579 0
M  V30 4109 C 384.053 2.04827 -0.325679 0
M  V30 4110 C 384.478 1.56788 1.03919 0
M  V30 4111 O 383.836 0.721811 1.66312 0
M  V30 4112 C 383.884 3.58774 -0.362447 0
M  V30 4113 O 382.988 4.07372 0.642033 0
M  V30 4114 H 382.329 0.64833 -0.143402 0
M  V30 4115 H 384.859 1.7677 -1.03023 0
M  V30 4116 H 384.869 4.07434 -0.214844 0
M  V30 4117 H 383.544 3.93096 -1.35824 0
M  V30 4118 H 382.121 3.70068 0.458688 0
M  V30 4119 N 384.306 0.507319 1.49211 0
M  V30 4120 C 385.236 -0.256939 2.32082 0
M  V30 4121 C 386.217 -0.956609 1.40652 0
M  V30 4122 O 387.402 -0.946788 1.69557 0
M  V30 4123 C 384.532 -1.31802 3.21318 0
M  V30 4124 C 383.486 -0.737855 4.21592 0
M  V30 4125 C 382.812 -1.89992 4.99807 0
M  V30 4126 C 384.112 0.275325 5.21574 0
M  V30 4127 H 385.806 0.434798 2.96226 0
M  V30 4128 H 383.352 0.210546 1.42452 0
M  V30 4129 H 385.305 -1.86045 3.78107 0
M  V30 4130 H 384.029 -2.03903 2.5513 0
M  V30 4131 H 382.688 -0.217126 3.65956 0
M  V30 4132 H 382.336 -2.60877 4.30061 0
M  V30 4133 H 382.036 -1.51777 5.6766 0
M  V30 4134 H 383.56 -2.44657 5.59442 0
M  V30 4135 H 384.974 -0.179193 5.7302 0
M  V30 4136 H 383.371 0.573649 5.97352 0
M  V30 4137 H 384.441 1.18903 4.70096 0
M  V30 4138 N 385.784 -1.5574 0.241426 0
M  V30 4139 C 387.195 -1.84842 -0.262755 0
M  V30 4140 C 387.546 -1.16317 -1.58003 0
M  V30 4141 O 386.671 -0.439653 -2.11887 0
M  V30 4142 C 387.266 -3.35332 -0.483523 0
M  V30 4143 C 385.825 -3.6468 -0.931977 0
M  V30 4144 C 384.972 -2.77299 -0.0061151 0
M  V30 4145 H 387.923 -1.51761 0.464129 0
M  V30 4146 H 387.944 -3.56615 -1.32688 0
M  V30 4147 H 387.456 -3.85178 0.47537 0
M  V30 4148 H 385.557 -3.20307 -1.90353 0
M  V30 4149 H 385.67 -4.72498 -0.792628 0
M  V30 4150 H 384.034 -2.49408 -0.516503 0
M  V30 4151 H 384.817 -3.2995 0.948052 0
M  V30 4152 N 387.262 0.0317525 -1.57568 0
M  V30 4153 C 388.51 0.721676 -1.88776 0
M  V30 4154 C 388.831 1.76039 -0.838772 0
M  V30 4155 O 388.101 1.95482 0.127935 0
M  V30 4156 H 386.681 0.269534 -0.696678 0
M  V30 4157 H 389.343 -0.00165879 -1.949 0
M  V30 4158 H 388.439 1.21293 -2.87566 0
M  V30 4159 N 388.74 1.54641 0.303973 0
M  V30 4160 C 389.67 1.88386 1.3796 0
M  V30 4161 C 390.651 0.742485 1.5304 0
M  V30 4162 O 391.836 0.997959 1.66597 0
M  V30 4163 C 388.966 2.12854 2.74427 0
M  V30 4164 C 387.92 3.28702 2.74115 0
M  V30 4165 C 387.246 3.38582 4.13844 0
M  V30 4166 C 388.546 4.65881 2.3612 0
M  V30 4167 H 390.24 2.78474 1.09966 0
M  V30 4168 H 387.786 1.33988 0.527556 0
M  V30 4169 H 389.739 2.35047 3.49758 0
M  V30 4170 H 388.463 1.19535 3.03939 0
M  V30 4171 H 387.122 3.06428 2.0124 0
M  V30 4172 H 386.77 2.42784 4.40528 0
M  V30 4173 H 386.47 4.16453 4.14537 0
M  V30 4174 H 387.994 3.63031 4.90959 0
M  V30 4175 H 389.408 4.87823 3.01167 0
M  V30 4176 H 387.805 5.46444 2.48031 0
M  V30 4177 H 388.875 4.66799 1.3125 0
M  V30 4178 N 390.218 -0.567019 1.47046 0
M  V30 4179 C 391.467 -1.32091 1.5243 0
M  V30 4180 C 391.78 -1.94704 0.187021 0
M  V30 4181 O 392.986 -2.7124 0.118771 0
M  V30 4182 C 391.442 -2.39479 2.68659 0
M  V30 4183 C 391.05 -1.831 4.08874 0
M  V30 4184 C 392.794 -3.16111 2.83327 0
M  V30 4185 C 390.701 -2.8821 5.16419 0
M  V30 4186 H 389.631 -0.496629 0.56734 0
M  V30 4187 H 392.282 -0.603354 1.73297 0
M  V30 4188 H 390.664 -3.14105 2.41152 0
M  V30 4189 H 391.838 -1.14913 4.46242 0
M  V30 4190 H 390.153 -1.19085 3.99008 0
M  V30 4191 H 392.75 -3.94585 3.60842 0
M  V30 4192 H 393.093 -3.69686 1.91411 0
M  V30 4193 H 393.626 -2.48595 3.10556 0
M  V30 4194 H 390.365 -2.39504 6.10179 0
M  V30 4195 H 389.885 -3.54839 4.8358 0
M  V30 4196 H 391.564 -3.51881 5.42945 0
M  V30 4197 N 391.696 -1.35014 -0.812953 0
M  V30 4198 C 392.944 -1.27678 -1.56661 0
M  V30 4199 C 393.265 0.150359 -1.94419 0
M  V30 4200 O 392.535 1.08532 -1.63088 0
M  V30 4201 H 391.115 -0.469602 -0.580933 0
M  V30 4202 H 393.777 -1.69043 -0.970076 0
M  V30 4203 H 392.873 -1.88833 -2.48492 0
M  V30 4204 N 393.175 1.03435 -1.18907 0
M  V30 4205 C 394.415 1.78302 -0.999391 0
M  V30 4206 C 394.779 1.86353 0.462219 0
M  V30 4207 O 395.98 2.57489 0.771543 0
M  V30 4208 C 394.251 3.17362 -1.64365 0
M  V30 4209 S 395.81 4.08488 -1.6026 0
M  V30 4210 H 392.628 0.613861 -0.358742 0
M  V30 4211 H 395.23 1.23979 -1.51161 0
M  V30 4212 H 393.934 3.09116 -2.69955 0
M  V30 4213 H 393.465 3.76762 -1.13199 0
M  V30 4214 H 395.48 4.92274 -0.622932 0
M  V30 4215 N 394.653 0.992116 1.22453 0
M  V30 4216 C 395.603 0.512969 2.22155 0
M  V30 4217 C 396.587 -0.418416 1.55364 0
M  V30 4218 O 397.779 -0.245363 1.75291 0
M  V30 4219 C 394.908 -0.171822 3.4287 0
M  V30 4220 C 393.994 0.779822 4.16869 0
M  V30 4221 N 394.385 1.92734 4.6764 0
M  V30 4222 C 392.683 0.59554 4.42006 0
M  V30 4223 C 393.384 2.52458 5.24061 0
M  V30 4224 N 392.36 1.80735 5.12675 0
M  V30 4225 H 396.162 1.38817 2.5905 0
M  V30 4226 H 393.676 0.854277 1.38115 0
M  V30 4227 H 395.673 -0.532469 4.13486 0
M  V30 4228 H 394.333 -1.04317 3.07487 0
M  V30 4229 H 395.344 2.30816 4.63621 0
M  V30 4230 H 392.021 -0.229805 4.16867 0
M  V30 4231 H 393.411 3.49433 5.73887 0
M  V30 4232 N 396.131 -1.37776 0.765217 0
M  V30 4233 C 397.547 -1.53297 0.444108 0
M  V30 4234 C 397.747 -1.72515 -1.04119 0
M  V30 4235 O 396.803 -1.74278 -1.82711 0
M  V30 4236 C 398.116 -2.73328 1.25349 0
M  V30 4237 C 399.664 -2.87185 1.24473 0
M  V30 4238 C 400.139 -4.10191 2.03733 0
M  V30 4239 N 401.63 -4.17291 2.01053 0
M  V30 4240 C 402.365 -5.11488 2.59166 0
M  V30 4241 N 401.861 -6.11285 3.26041 0
M  V30 4242 N 403.654 -5.03924 2.49032 0
M  V30 4243 H 395.805 -1.23552 1.72768 0
M  V30 4244 H 398.068 -0.601103 0.733062 0
M  V30 4245 H 397.774 -2.6557 2.30577 0
M  V30 4246 H 397.648 -3.66834 0.87823 0
M  V30 4247 H 400.035 -2.94418 0.20047 0
M  V30 4248 H 400.116 -1.94657 1.65959 0
M  V30 4249 H 399.76 -4.0372 3.08176 0
M  V30 4250 H 399.69 -5.01821 1.59633 0
M  V30 4251 H 402.181 -3.45825 1.5236 0
M  V30 4252 H 402.494 -6.79678 3.67774 0
M  V30 4253 H 400.839 -6.11583 3.30138 0
M  V30 4254 H 404.03 -4.24902 1.96407 0
M  V30 4255 H 404.203 -5.77152 2.94617 0
M  V30 4256 N 397.609 -0.515225 -1.4894 0
M  V30 4257 C 398.556 0.255567 -2.29381 0
M  V30 4258 C 399.526 0.947387 -1.36432 0
M  V30 4259 O 400.711 0.951288 -1.65394 0
M  V30 4260 C 397.851 1.30551 -3.19453 0
M  V30 4261 C 396.964 0.624029 -4.27469 0
M  V30 4262 C 396.099 1.65563 -5.0474 0
M  V30 4263 C 395.138 0.956802 -6.04576 0
M  V30 4264 N 394.275 1.93326 -6.74959 0
M  V30 4265 H 399.115 -0.436607 -2.94784 0
M  V30 4266 H 396.652 -0.227154 -1.45336 0
M  V30 4267 H 398.61 1.92639 -3.70062 0
M  V30 4268 H 397.24 1.96626 -2.56004 0
M  V30 4269 H 396.292 -0.110459 -3.8024 0
M  V30 4270 H 397.604 0.0746092 -4.98744 0
M  V30 4271 H 396.758 2.35119 -5.59289 0
M  V30 4272 H 395.497 2.23893 -4.3327 0
M  V30 4273 H 394.502 0.247097 -5.49244 0
M  V30 4274 H 395.727 0.379814 -6.78037 0
M  V30 4275 H 393.673 2.50591 -6.06251 0
M  V30 4276 H 393.59 1.43489 -7.42258 0
M  V30 4277 H 394.858 2.62126 -7.34105 0
M  V30 4278 N 399.087 1.5561 -0.249682 0
M  V30 4279 C 400.312 2.03865 0.381305 0
M  V30 4280 C 400.737 1.12769 1.50548 0
M  V30 4281 O 400.095 0.121189 1.80895 0
M  V30 4282 C 400.143 3.50101 0.863816 0
M  V30 4283 O 399.247 3.62132 1.97318 0
M  V30 4284 H 398.588 0.658827 0.0827194 0
M  V30 4285 H 401.118 2.01105 -0.376552 0
M  V30 4286 H 401.128 3.90975 1.1663 0
M  V30 4287 H 399.803 4.1588 0.0411816 0
M  V30 4288 H 398.38 3.33155 1.67517 0
M  V30 4289 N 400.565 -0.0233959 1.57583 0
M  V30 4290 C 401.811 -0.714119 1.89811 0
M  V30 4291 C 402.144 -1.74702 0.848113 0
M  V30 4292 O 401.419 -1.94023 -0.136135 0
M  V30 4293 C 401.702 -1.37853 3.32669 0
M  V30 4294 C 401.555 -0.358764 4.48367 0
M  V30 4295 C 402.874 -2.31101 3.7454 0
M  V30 4296 H 399.993 -0.25814 0.690314 0
M  V30 4297 H 402.635 0.0230927 1.89986 0
M  V30 4298 H 400.785 -2.00689 3.3265 0
M  V30 4299 H 402.457 0.268115 4.6052 0
M  V30 4300 H 400.7 0.321387 4.32608 0
M  V30 4301 H 401.371 -0.862242 5.45224 0
M  V30 4302 H 403.847 -1.78304 3.75961 0
M  V30 4303 H 402.723 -2.74567 4.75294 0
M  V30 4304 H 402.984 -3.18018 3.0711 0
M  V30 4305 N 402.043 -1.548 -0.295768 0
M  V30 4306 C 403.273 -1.78069 -1.04762 0
M  V30 4307 C 403.681 -0.542847 -1.81245 0
M  V30 4308 O 403.024 0.497051 -1.76848 0
M  V30 4309 C 403.086 -2.93881 -2.07061 0
M  V30 4310 C 402.75 -4.31777 -1.49725 0
M  V30 4311 C 403.747 -5.11613 -0.924581 0
M  V30 4312 C 401.432 -4.78389 -1.5313 0
M  V30 4313 C 403.426 -6.36184 -0.393594 0
M  V30 4314 C 401.113 -6.02921 -0.996447 0
M  V30 4315 C 402.111 -6.81654 -0.428569 0
M  V30 4316 O 401.799 -8.0384 0.0981593 0
M  V30 4317 H 401.531 -0.597475 -0.316226 0
M  V30 4318 H 404.085 -2.02584 -0.338973 0
M  V30 4319 H 402.315 -2.65003 -2.81621 0
M  V30 4320 H 404.004 -3.04679 -2.6819 0
M  V30 4321 H 404.77 -4.76743 -0.891136 0
M  V30 4322 H 400.649 -4.17132 -1.9627 0
M  V30 4323 H 404.193 -6.97582 0.0503014 0
M  V30 4324 H 400.09 -6.37277 -1.02706 0
M  V30 4325 H 400.858 -8.18499 -0.0146455 0
M  V30 4326 N 403.521 0.559213 -1.47345 0
M  V30 4327 C 404.767 1.31614 -1.55079 0
M  V30 4328 C 405.122 1.91257 -0.209422 0
M  V30 4329 O 404.415 1.74796 0.784656 0
M  V30 4330 C 404.609 2.44853 -2.6035 0
M  V30 4331 C 404.438 1.96305 -4.04591 0
M  V30 4332 C 403.208 1.8024 -4.72061 0
M  V30 4333 C 405.406 1.50872 -4.91673 0
M  V30 4334 N 403.388 1.26011 -6.00828 0
M  V30 4335 C 404.759 1.08395 -6.10451 0
M  V30 4336 C 406.814 1.38905 -4.78132 0
M  V30 4337 C 405.517 0.551399 -7.17183 0
M  V30 4338 C 407.543 0.870518 -5.84958 0
M  V30 4339 C 406.905 0.455661 -7.02925 0
M  V30 4340 H 403.004 0.473712 -0.62219 0
M  V30 4341 H 405.588 0.634103 -1.84085 0
M  V30 4342 H 403.759 3.10589 -2.33215 0
M  V30 4343 H 405.491 3.11849 -2.57938 0
M  V30 4344 H 402.246 2.02895 -4.27937 0
M  V30 4345 H 402.67 1.00991 -6.69425 0
M  V30 4346 H 407.312 1.69591 -3.87297 0
M  V30 4347 H 405.03 0.232159 -8.07766 0
M  V30 4348 H 408.616 0.781507 -5.76527 0
M  V30 4349 H 407.496 0.0606414 -7.84177 0
M  V30 4350 N 404.999 1.35443 0.805782 0
M  V30 4351 C 405.949 1.24972 1.90699 0
M  V30 4352 C 406.933 0.144806 1.60247 0
M  V30 4353 O 408.125 0.376102 1.72958 0
M  V30 4354 C 405.254 1.02475 3.27649 0
M  V30 4355 C 404.34 2.17361 3.64164 0
M  V30 4356 N 404.731 3.42591 3.72109 0
M  V30 4357 C 403.029 2.08765 3.94123 0
M  V30 4358 C 403.73 4.18144 4.04389 0
M  V30 4359 N 402.706 3.4691 4.18515 0
M  V30 4360 H 406.508 2.19852 1.95044 0
M  V30 4361 H 404.022 1.27928 1.00041 0
M  V30 4362 H 406.019 0.930617 4.06381 0
M  V30 4363 H 404.679 0.0848009 3.24589 0
M  V30 4364 H 405.69 3.76932 3.55166 0
M  V30 4365 H 402.367 1.22629 3.99084 0
M  V30 4366 H 403.757 5.26367 4.17597 0
M  V30 4367 N 406.477 -1.02803 1.19454 0
M  V30 4368 C 407.723 -1.76478 0.999171 0
M  V30 4369 C 408.056 -1.88456 -0.468828 0
M  V30 4370 O 407.331 -1.40198 -1.34814 0
M  V30 4371 C 407.614 -3.19044 1.66981 0
M  V30 4372 C 407.467 -3.14932 3.21151 0
M  V30 4373 C 408.786 -4.17456 1.39349 0
M  V30 4374 H 405.905 -0.640614 0.364393 0
M  V30 4375 H 408.547 -1.20005 1.47305 0
M  V30 4376 H 406.697 -3.67263 1.2669 0
M  V30 4377 H 408.369 -2.74605 3.70661 0
M  V30 4378 H 406.612 -2.52625 3.52652 0
M  V30 4379 H 407.283 -4.1566 3.63223 0
M  V30 4380 H 409.759 -3.77842 1.74283 0
M  V30 4381 H 408.635 -5.154 1.88823 0
M  V30 4382 H 408.896 -4.40949 0.318813 0
M  V30 4383 N 407.956 -0.998596 -1.21925 0
M  V30 4384 C 409.205 -0.673085 -1.90138 0
M  V30 4385 C 409.518 0.79895 -1.78539 0
M  V30 4386 O 410.724 1.23628 -2.4172 0
M  V30 4387 C 409.18 -1.15339 -3.40918 0
M  V30 4388 C 408.788 -2.65106 -3.61141 0
M  V30 4389 C 410.532 -0.902476 -4.14796 0
M  V30 4390 C 408.439 -3.0671 -5.05651 0
M  V30 4391 H 407.369 -0.248057 -0.712028 0
M  V30 4392 H 410.02 -1.20891 -1.38049 0
M  V30 4393 H 408.402 -0.545658 -3.92223 0
M  V30 4394 H 409.576 -3.31274 -3.20304 0
M  V30 4395 H 407.891 -2.88142 -3.00605 0
M  V30 4396 H 410.488 -1.18895 -5.21314 0
M  V30 4397 H 410.831 0.161349 -4.15987 0
M  V30 4398 H 411.364 -1.47269 -3.69536 0
M  V30 4399 H 408.103 -4.12292 -5.09603 0
M  V30 4400 H 407.623 -2.45249 -5.47369 0
M  V30 4401 H 409.302 -2.9833 -5.74115 0
M  V30 4402 N 409.434 1.37368 -0.772513 0
M  V30 4403 C 410.682 1.99279 -0.336516 0
M  V30 4404 C 411.003 1.6163 1.09091 0
M  V30 4405 O 410.273 0.882109 1.74916 0
M  V30 4406 H 408.853 0.737063 -0.121435 0
M  V30 4407 H 411.515 1.67836 -0.990809 0
M  V30 4408 H 410.611 3.09332 -0.414763 0
M  V30 4409 N 410.912 0.523116 1.48665 0
M  V30 4410 C 411.845 -0.290518 2.26343 0
M  V30 4411 C 412.823 -0.950913 1.31895 0
M  V30 4412 O 414.007 -0.976662 1.61225 0
M  V30 4413 C 411.134 -1.41088 3.07915 0
M  V30 4414 C 410.18 -0.862597 4.17686 0
M  V30 4415 S 411.013 0.264135 5.34848 0
M  V30 4416 C 412.169 -0.858864 6.19979 0
M  V30 4417 H 412.402 0.368726 2.95005 0
M  V30 4418 H 409.935 0.30878 1.51281 0
M  V30 4419 H 411.893 -2.0527 3.55492 0
M  V30 4420 H 410.554 -2.04182 2.38681 0
M  V30 4421 H 409.747 -1.70287 4.74361 0
M  V30 4422 H 409.349 -0.297595 3.72814 0
M  V30 4423 H 411.641 -1.7591 6.54264 0
M  V30 4424 H 412.584 -0.330244 7.07329 0
M  V30 4425 H 412.992 -1.13617 5.52948 0
M  V30 4426 N 412.39 -1.55475 0.257931 0
M  V30 4427 C 413.638 -1.98813 -0.363009 0
M  V30 4428 C 413.959 -1.14757 -1.57657 0
M  V30 4429 O 413.229 -0.232956 -1.9451 0
M  V30 4430 H 411.809 -0.734308 -0.137113 0
M  V30 4431 H 414.471 -1.9156 0.359281 0
M  V30 4432 H 413.567 -3.04941 -0.664634 0
M  V30 4433 N 413.868 0.0150385 -1.57593 0
M  V30 4434 C 415.096 0.714395 -1.94175 0
M  V30 4435 C 415.511 1.68135 -0.858841 0
M  V30 4436 O 414.868 1.81766 0.163567 0
M  V30 4437 C 414.919 1.45933 -3.30735 0
M  V30 4438 O 414.64 0.531167 -4.34868 0
M  V30 4439 C 416.141 2.25456 -3.81686 0
M  V30 4440 H 413.361 0.199923 -0.640525 0
M  V30 4441 H 415.905 -0.0316096 -2.04476 0
M  V30 4442 H 414.06 2.15709 -3.21789 0
M  V30 4443 H 414.474 1.05509 -5.13778 0
M  V30 4444 H 415.948 2.731 -4.79709 0
M  V30 4445 H 416.425 3.07485 -3.13607 0
M  V30 4446 H 417.031 1.60727 -3.9376 0
M  V30 4447 N 415.346 1.54954 0.287554 0
M  V30 4448 C 416.574 1.78881 1.03967 0
M  V30 4449 C 416.989 0.554894 1.80462 0
M  V30 4450 O 416.346 -0.475676 1.76192 0
M  V30 4451 C 416.397 3.00488 2.0097 0
M  V30 4452 O 416.118 4.19113 1.27577 0
M  V30 4453 C 417.619 3.36907 2.88112 0
M  V30 4454 H 414.839 0.596259 0.307761 0
M  V30 4455 H 417.383 2.01937 0.322749 0
M  V30 4456 H 415.538 2.79601 2.68145 0
M  V30 4457 H 415.952 4.87765 1.92835 0
M  V30 4458 H 417.426 4.25205 3.52001 0
M  V30 4459 H 417.903 2.55659 3.57121 0
M  V30 4460 H 418.509 3.60001 2.26449 0
M  V30 4461 N 416.824 -0.551391 1.4764 0
M  V30 4462 C 418.235 -1.13349 1.48354 0
M  V30 4463 C 418.586 -1.94709 0.241432 0
M  V30 4464 O 417.711 -2.06306 -0.653205 0
M  V30 4465 C 418.306 -2.0623 2.68802 0
M  V30 4466 C 416.865 -2.597 2.72457 0
M  V30 4467 C 416.012 -1.36201 2.41546 0
M  V30 4468 H 418.963 -0.337698 1.55065 0
M  V30 4469 H 418.984 -2.90196 2.46103 0
M  V30 4470 H 418.496 -1.46987 3.59188 0
M  V30 4471 H 416.597 -3.22724 1.86225 0
M  V30 4472 H 416.71 -3.00296 3.73308 0
M  V30 4473 H 415.074 -1.67068 1.9225 0
M  V30 4474 H 415.857 -0.787425 3.34147 0
M  V30 4475 N 418.302 -1.35869 -0.798587 0
M  V30 4476 C 419.212 -1.31578 -1.94228 0
M  V30 4477 C 420.228 -0.21939 -1.72611 0
M  V30 4478 O 421.404 -0.450167 -1.96305 0
M  V30 4479 C 418.469 -1.09528 -3.28944 0
M  V30 4480 C 417.53 -2.28556 -3.63402 0
M  V30 4481 C 416.763 -2.07549 -4.9169 0
M  V30 4482 O 416.986 -1.046 -5.60727 0
M  V30 4483 O 415.92 -2.95106 -5.24591 0
M  V30 4484 H 419.746 -2.27847 -2.00796 0
M  V30 4485 H 417.331 -1.16322 -0.937526 0
M  V30 4486 H 419.213 -0.991127 -4.09579 0
M  V30 4487 H 417.888 -0.16315 -3.23289 0
M  V30 4488 H 416.795 -2.44538 -2.83112 0
M  V30 4489 H 418.128 -3.20244 -3.73771 0
M  V30 4490 N 419.78 1.02168 -1.19998 0
M  V30 4491 C 421.026 1.75945 -1.00852 0
M  V30 4492 C 421.359 1.88702 0.458828 0
M  V30 4493 O 420.634 1.40911 1.34069 0
M  V30 4494 C 420.917 3.18154 -1.68671 0
M  V30 4495 C 420.77 3.13224 -3.22817 0
M  V30 4496 C 422.089 4.16711 -1.41561 0
M  V30 4497 H 419.208 0.638673 -0.367785 0
M  V30 4498 H 421.85 1.19222 -1.4794 0
M  V30 4499 H 420 3.66586 -1.28636 0
M  V30 4500 H 421.672 2.72635 -3.72112 0
M  V30 4501 H 419.915 2.50751 -3.53986 0
M  V30 4502 H 420.586 4.13728 -3.65422 0
M  V30 4503 H 423.062 3.76913 -1.76284 0
M  V30 4504 H 421.938 5.14391 -1.91553 0
M  V30 4505 H 422.199 4.40774 -0.342193 0
M  V30 4506 N 421.258 1.00505 1.21394 0
M  V30 4507 C 422.208 0.536503 2.21598 0
M  V30 4508 C 423.192 -0.401914 1.55799 0
M  V30 4509 O 424.384 -0.226757 1.75541 0
M  V30 4510 C 421.513 -0.135446 3.43033 0
M  V30 4511 C 420.599 0.823992 4.16018 0
M  V30 4512 N 420.99 1.97683 4.6557 0
M  V30 4513 C 419.288 0.642387 4.4135 0
M  V30 4514 C 419.989 2.58003 5.21354 0
M  V30 4515 N 418.965 1.86162 5.1073 0
M  V30 4516 H 422.767 1.41557 2.57563 0
M  V30 4517 H 420.281 0.868878 1.37202 0
M  V30 4518 H 422.278 -0.488584 4.14027 0
M  V30 4519 H 420.938 -1.01049 3.08576 0
M  V30 4520 H 421.949 2.3572 4.61147 0
M  V30 4521 H 418.626 -0.185578 4.17087 0
M  V30 4522 H 420.016 3.555 5.70149 0
M  V30 4523 N 422.737 -1.36956 0.779787 0
M  V30 4524 C 423.962 -2.04283 0.358224 0
M  V30 4525 C 424.387 -1.58422 -1.01411 0
M  V30 4526 O 423.745 -0.748179 -1.65142 0
M  V30 4527 C 423.793 -3.58152 0.419479 0
M  V30 4528 O 422.897 -4.08342 -0.577142 0
M  V30 4529 H 422.238 -0.645967 0.153698 0
M  V30 4530 H 424.768 -1.75108 1.05822 0
M  V30 4531 H 424.778 -4.07041 0.279636 0
M  V30 4532 H 423.453 -3.90886 1.42061 0
M  V30 4533 H 422.03 -3.70751 -0.399755 0
M  V30 4534 N 424.215 -0.530993 -1.48385 0
M  V30 4535 C 425.464 0.00474348 -2.01699 0
M  V30 4536 C 425.777 1.35227 -1.41325 0
M  V30 4537 O 426.983 1.97643 -1.86144 0
M  V30 4538 C 425.439 0.0588473 -3.59852 0
M  V30 4539 C 425.047 -1.28385 -4.2921 0
M  V30 4540 C 426.791 0.543358 -4.21008 0
M  V30 4541 C 424.698 -1.19028 -5.79298 0
M  V30 4542 H 423.628 0.00554317 -0.75398 0
M  V30 4543 H 426.279 -0.674924 -1.70637 0
M  V30 4544 H 424.661 0.803612 -3.8776 0
M  V30 4545 H 425.835 -2.04426 -4.12973 0
M  V30 4546 H 424.15 -1.70418 -3.7993 0
M  V30 4547 H 426.747 0.631351 -5.3096 0
M  V30 4548 H 427.09 1.54937 -3.86394 0
M  V30 4549 H 427.623 -0.145754 -3.97533 0
M  V30 4550 H 424.362 -2.17147 -6.18488 0
M  V30 4551 H 423.882 -0.471246 -5.97946 0
M  V30 4552 H 425.561 -0.881365 -6.40969 0
M  V30 4553 N 425.693 1.55336 -0.266172 0
M  V30 4554 C 426.94 1.99397 0.353158 0
M  V30 4555 C 427.268 1.15451 1.56529 0
M  V30 4556 O 426.523 0.209974 1.9457 0
M  V30 4557 C 426.822 3.48606 0.787957 0
M  V30 4558 C 426.488 4.49773 -0.318541 0
M  V30 4559 C 425.15 4.77158 -0.62239 0
M  V30 4560 C 427.502 5.10212 -1.06459 0
M  V30 4561 C 424.83 5.62251 -1.67602 0
M  V30 4562 C 427.182 5.96449 -2.10788 0
M  V30 4563 C 425.846 6.22158 -2.41817 0
M  V30 4564 H 425.116 0.729644 0.12923 0
M  V30 4565 H 427.763 1.87732 -0.37802 0
M  V30 4566 H 426.068 3.57701 1.59866 0
M  V30 4567 H 427.765 3.80098 1.27775 0
M  V30 4568 H 424.355 4.2854 -0.0715925 0
M  V30 4569 H 428.539 4.89086 -0.843098 0
M  V30 4570 H 423.795 5.80419 -1.92155 0
M  V30 4571 H 427.969 6.42317 -2.69076 0
M  V30 4572 H 425.596 6.87888 -3.23596 0
M  V30 4573 N 427.171 -0.0066808 1.57599 0
M  V30 4574 C 428.101 -0.999296 2.11036 0
M  V30 4575 C 429.082 -1.36278 1.01795 0
M  V30 4576 O 430.267 -1.4477 1.29442 0
M  V30 4577 C 427.397 -2.29328 2.60818 0
M  V30 4578 C 426.351 -2.07159 3.74525 0
M  V30 4579 C 425.677 -3.42512 4.10596 0
M  V30 4580 C 426.977 -1.43959 5.02069 0
M  V30 4581 H 428.671 -0.554382 2.94223 0
M  V30 4582 H 426.217 -0.265221 1.41536 0
M  V30 4583 H 428.17 -2.99117 2.96828 0
M  V30 4584 H 426.894 -2.7592 1.74745 0
M  V30 4585 H 425.553 -1.39797 3.38899 0
M  V30 4586 H 425.201 -3.86795 3.21556 0
M  V30 4587 H 424.901 -3.28498 4.87199 0
M  V30 4588 H 426.425 -4.13628 4.4916 0
M  V30 4589 H 427.839 -2.03696 5.35893 0
M  V30 4590 H 426.236 -1.40452 5.83432 0
M  V30 4591 H 427.306 -0.407992 4.83181 0
M  V30 4592 N 428.649 -1.55105 -0.279332 0
M  V30 4593 C 429.559 -1.90638 -1.36727 0
M  V30 4594 C 430.575 -0.802899 -1.54368 0
M  V30 4595 O 431.751 -1.10138 -1.68616 0
M  V30 4596 C 428.816 -2.16547 -2.70755 0
M  V30 4597 C 427.877 -3.40146 -2.61915 0
M  V30 4598 C 427.11 -3.6481 -3.8955 0
M  V30 4599 O 427.333 -2.92095 -4.89935 0
M  V30 4600 O 426.267 -4.58343 -3.90135 0
M  V30 4601 H 430.093 -2.83237 -1.09591 0
M  V30 4602 H 427.678 -1.4157 -0.477306 0
M  V30 4603 H 429.56 -2.34665 -3.50014 0
M  V30 4604 H 428.235 -1.27131 -2.9769 0
M  V30 4605 H 427.142 -3.2737 -1.81052 0
M  V30 4606 H 428.475 -4.29761 -2.3993 0
M  V30 4607 N 430.127 0.543554 -1.4793 0
M  V30 4608 C 431.375 1.29752 -1.54948 0
M  V30 4609 C 431.696 1.93764 -0.219242 0
M  V30 4610 O 430.966 1.80639 0.75805 0
M  V30 4611 H 429.546 0.481874 -0.570795 0
M  V30 4612 H 432.208 0.633636 -1.84312 0
M  V30 4613 H 431.304 2.08392 -2.32334 0
M  V30 4614 N 431.605 1.3629 0.791371 0
M  V30 4615 C 432.555 1.26988 1.89362 0
M  V30 4616 C 433.539 0.161795 1.60084 0
M  V30 4617 O 434.731 0.394426 1.72549 0
M  V30 4618 C 431.86 1.05944 3.26544 0
M  V30 4619 C 430.946 2.21211 3.61838 0
M  V30 4620 N 431.337 3.46518 3.68455 0
M  V30 4621 C 429.635 2.12933 3.91887 0
M  V30 4622 C 430.336 4.2241 3.99931 0
M  V30 4623 N 429.312 3.51329 4.14812 0
M  V30 4624 H 433.114 2.21908 1.92702 0
M  V30 4625 H 430.628 1.28982 0.986787 0
M  V30 4626 H 432.625 0.973666 4.05371 0
M  V30 4627 H 431.285 0.119223 3.24481 0
M  V30 4628 H 432.296 3.80677 3.51148 0
M  V30 4629 H 428.973 1.26855 3.97761 0
M  V30 4630 H 430.363 5.30767 4.1199 0
M  V30 4631 N 433.083 -1.0153 1.20538 0
M  V30 4632 C 434.311 -1.78746 1.04199 0
M  V30 4633 C 434.726 -1.84323 -0.408733 0
M  V30 4634 O 434.083 -1.29714 -1.28377 0
M  V30 4635 C 434.134 -3.23152 1.62035 0
M  V30 4636 O 433.855 -3.17918 3.0143 0
M  V30 4637 C 435.356 -4.16911 1.50666 0
M  V30 4638 H 432.576 -0.56208 0.366479 0
M  V30 4639 H 435.12 -1.27794 1.59653 0
M  V30 4640 H 433.275 -3.71248 1.10697 0
M  V30 4641 H 433.689 -4.08567 3.28897 0
M  V30 4642 H 435.163 -5.16072 1.95892 0
M  V30 4643 H 435.64 -4.36791 0.459363 0
M  V30 4644 H 436.246 -3.74698 2.01201 0
M  V30 4645 N 434.561 -1.01147 -1.20859 0
M  V30 4646 C 435.808 -0.697865 -1.90095 0
M  V30 4647 C 436.136 0.772014 -1.78522 0
M  V30 4648 O 435.391 1.57595 -1.16027 0
M  V30 4649 C 435.69 -1.0727 -3.40922 0
M  V30 4650 C 435.356 -2.53792 -3.72693 0
M  V30 4651 C 434.018 -2.93829 -3.81075 0
M  V30 4652 C 436.37 -3.48674 -3.87397 0
M  V30 4653 C 433.698 -4.27696 -4.01613 0
M  V30 4654 C 436.05 -4.82223 -4.09444 0
M  V30 4655 C 434.714 -5.21973 -4.16054 0
M  V30 4656 H 433.984 -0.255367 -0.695607 0
M  V30 4657 H 436.631 -1.27111 -1.43231 0
M  V30 4658 H 434.936 -0.417799 -3.89566 0
M  V30 4659 H 436.633 -0.807818 -3.92779 0
M  V30 4660 H 433.223 -2.21768 -3.66765 0
M  V30 4661 H 437.407 -3.18904 -3.80281 0
M  V30 4662 H 432.663 -4.58055 -4.04964 0
M  V30 4663 H 436.837 -5.55672 -4.19763 0
M  V30 4664 H 434.464 -6.25717 -4.31721 0
M  V30 4665 N 436.039 1.36541 -0.78704 0
M  V30 4666 C 436.969 2.32659 -0.197992 0
M  V30 4667 C 437.95 1.56533 0.665697 0
M  V30 4668 O 439.135 1.84698 0.60001 0
M  V30 4669 C 436.265 3.40778 0.669901 0
M  V30 4670 C 435.219 4.27897 -0.0937039 0
M  V30 4671 C 434.545 5.27163 0.894629 0
M  V30 4672 C 435.845 5.06334 -1.28154 0
M  V30 4673 H 437.539 2.82171 -1.00099 0
M  V30 4674 H 435.085 1.35665 -0.482793 0
M  V30 4675 H 437.038 4.07008 1.09191 0
M  V30 4676 H 435.762 2.89827 1.50558 0
M  V30 4677 H 434.421 3.6322 -0.49666 0
M  V30 4678 H 434.069 4.72486 1.72527 0
M  V30 4679 H 433.769 5.86317 0.388149 0
M  V30 4680 H 435.293 5.96266 1.31525 0
M  V30 4681 H 436.707 5.65617 -0.93541 0
M  V30 4682 H 435.104 5.74888 -1.72115 0
M  V30 4683 H 436.174 4.38114 -2.07807 0
M  V30 4684 N 437.518 0.538854 1.48102 0
M  V30 4685 C 438.764 0.00801365 2.02798 0
M  V30 4686 C 439.097 -1.3309 1.41424 0
M  V30 4687 O 438.372 -1.86169 0.563158 0
M  V30 4688 C 438.655 -0.104589 3.59948 0
M  V30 4689 C 438.508 1.26012 4.31788 0
M  V30 4690 C 439.827 -0.827055 4.32259 0
M  V30 4691 H 436.946 0.00438624 0.736987 0
M  V30 4692 H 439.588 0.6976 1.7673 0
M  V30 4693 H 437.738 -0.691893 3.82289 0
M  V30 4694 H 439.41 1.88922 4.2084 0
M  V30 4695 H 437.653 1.83968 3.92859 0
M  V30 4696 H 438.324 1.13424 5.40221 0
M  V30 4697 H 440.8 -0.328578 4.14801 0
M  V30 4698 H 439.676 -0.87476 5.41885 0
M  V30 4699 H 439.937 -1.87927 4.0017 0
M  V30 4700 N 438.996 -1.55193 0.274407 0
M  V30 4701 C 440.412 -1.59401 -0.0797543 0
M  V30 4702 C 440.612 -1.29162 -1.54659 0
M  V30 4703 O 439.668 -1.05215 -2.29534 0
M  V30 4704 C 440.981 -2.99257 0.294238 0
M  V30 4705 C 442.529 -3.12072 0.240796 0
M  V30 4706 C 443.004 -4.54194 0.589218 0
M  V30 4707 N 444.495 -4.60033 0.540744 0
M  V30 4708 C 445.23 -5.68027 0.783147 0
M  V30 4709 N 444.726 -6.8417 1.09013 0
M  V30 4710 N 446.519 -5.57572 0.711993 0
M  V30 4711 H 438.67 -1.73113 1.23067 0
M  V30 4712 H 440.933 -0.807197 0.497129 0
M  V30 4713 H 440.639 -3.26217 1.31435 0
M  V30 4714 H 440.513 -3.75427 -0.365281 0
M  V30 4715 H 442.9 -2.84877 -0.770024 0
M  V30 4716 H 442.981 -2.38117 0.934563 0
M  V30 4717 H 442.625 -4.82115 1.59772 0
M  V30 4718 H 442.555 -5.26448 -0.126331 0
M  V30 4719 H 445.046 -3.76599 0.313327 0
M  V30 4720 H 445.359 -7.6243 1.26178 0
M  V30 4721 H 443.704 -6.85787 1.12789 0
M  V30 4722 H 446.895 -4.65714 0.472014 0
M  V30 4723 H 447.068 -6.41659 0.90429 0
M  V30 4724 N 440.474 -0.00167713 -1.576 0
M  V30 4725 C 441.422 1.0074 -2.09652 0
M  V30 4726 C 442.416 1.35483 -1.01689 0
M  V30 4727 O 443.622 1.34028 -1.20152 0
M  V30 4728 H 439.997 0.342537 -0.669457 0
M  V30 4729 H 441.968 0.542841 -2.93421 0
M  V30 4730 C 440.717 2.2899 -2.61647 0
M  V30 4731 H 440.04 2.03124 -3.44355 0
M  V30 4732 H 441.48 2.9787 -3.01744 0
M  V30 4733 C 439.939 3.00085 -1.53136 0
M  V30 4734 O 440.469 3.91135 -0.91524 0
M  V30 4735 N 438.675 2.6194 -1.25841 0
M  V30 4736 H 438.222 1.8798 -1.76129 0
M  V30 4737 H 438.18 3.09822 -0.534576 0
M  V30 4738 N 441.952 1.55251 0.271103 0
M  V30 4739 C 442.902 1.84649 1.33749 0
M  V30 4740 C 443.886 0.705529 1.44607 0
M  V30 4741 O 445.078 0.966916 1.48256 0
M  V30 4742 C 442.207 2.12354 2.69742 0
M  V30 4743 C 441.293 3.32714 2.62988 0
M  V30 4744 N 441.684 4.52575 2.25853 0
M  V30 4745 C 439.982 3.35341 2.94045 0
M  V30 4746 C 440.683 5.34669 2.29136 0
M  V30 4747 N 439.659 4.73123 2.67685 0
M  V30 4748 H 443.461 2.74865 1.0405 0
M  V30 4749 H 440.975 1.55152 0.479738 0
M  V30 4750 H 442.972 2.31572 3.4667 0
M  V30 4751 H 441.632 1.23422 3.00328 0
M  V30 4752 H 442.643 4.78639 1.978 0
M  V30 4753 H 439.32 2.56608 3.2933 0
M  V30 4754 H 440.71 6.40509 2.02971 0
M  V30 4755 N 443.43 -0.535701 1.48216 0
M  V30 4756 C 444.846 -0.863701 1.3421 0
M  V30 4757 C 445.046 -1.98458 0.34879 0
M  V30 4758 O 444.102 -2.51432 -0.23204 0
M  V30 4759 C 445.415 -1.23662 2.74095 0
M  V30 4760 C 446.963 -1.34683 2.82541 0
M  V30 4761 C 447.438 -1.75322 4.23115 0
M  V30 4762 N 448.929 -1.82434 4.2576 0
M  V30 4763 C 449.664 -2.15252 5.31464 0
M  V30 4764 N 449.16 -2.46533 6.47452 0
M  V30 4765 N 450.953 -2.16209 5.18855 0
M  V30 4766 H 443.104 0.203965 2.11418 0
M  V30 4767 H 445.367 0.0286033 0.947568 0
M  V30 4768 H 445.073 -0.486674 3.48316 0
M  V30 4769 H 444.947 -2.18805 3.07253 0
M  V30 4770 H 447.334 -2.08756 2.08579 0
M  V30 4771 H 447.415 -0.376756 2.5301 0
M  V30 4772 H 447.059 -1.01812 4.97591 0
M  V30 4773 H 446.989 -2.7337 4.50085 0
M  V30 4774 H 449.48 -1.6056 3.42095 0
M  V30 4775 H 449.793 -2.70662 7.23852 0
M  V30 4776 H 448.138 -2.44065 6.50736 0
M  V30 4777 H 451.329 -1.91224 4.2726 0
M  V30 4778 H 451.502 -2.41453 6.01335 0
M  V30 4779 N 444.908 -1.36708 -0.784132 0
M  V30 4780 C 445.84 -1.27333 -1.90575 0
M  V30 4781 C 446.853 -0.191706 -1.61667 0
M  V30 4782 O 448.042 -0.446854 -1.72816 0
M  V30 4783 C 445.142 -0.943177 -3.25511 0
M  V30 4784 C 444.315 -2.12776 -3.82158 0
M  V30 4785 C 443.374 -1.76983 -4.95544 0
M  V30 4786 O 442.4 -2.49134 -5.11782 0
M  V30 4787 N 443.602 -0.706624 -5.76183 0
M  V30 4788 H 446.367 -2.23974 -1.99138 0
M  V30 4789 H 443.928 -1.30171 -0.962656 0
M  V30 4790 H 445.92 -0.684799 -3.98864 0
M  V30 4791 H 444.49 -0.0657333 -3.12531 0
M  V30 4792 H 443.71 -2.54863 -3.0073 0
M  V30 4793 H 444.998 -2.91904 -4.16737 0
M  V30 4794 H 444.396 -0.107643 -5.65598 0
M  V30 4795 H 442.953 -0.50808 -6.49817 0
M  V30 4796 N 446.386 1.0089 -1.21074 0
M  V30 4797 C 447.349 2.0775 -0.968129 0
M  V30 4798 C 448.349 1.6069 0.0593445 0
M  V30 4799 O 449.539 1.73293 -0.177525 0
M  V30 4800 C 446.671 3.37794 -0.459108 0
M  V30 4801 H 447.864 2.30707 -1.9161 0
M  V30 4802 H 445.417 1.17807 -1.02719 0
M  V30 4803 H 446.152 3.20516 0.49397 0
M  V30 4804 H 445.937 3.7328 -1.20019 0
M  V30 4805 H 447.427 4.16454 -0.309099 0
M  V30 4806 N 447.864 1.01787 1.20321 0
M  V30 4807 C 449.089 0.727009 1.9424 0
M  V30 4808 C 449.514 -0.706179 1.74341 0
M  V30 4809 O 448.872 -1.48609 1.03852 0
M  V30 4810 C 448.92 1.06958 3.44372 0
M  V30 4811 O 448.024 0.181983 4.11998 0
M  V30 4812 H 447.365 0.269626 0.606793 0
M  V30 4813 H 449.895 1.36158 1.52716 0
M  V30 4814 H 449.905 1.02182 3.94997 0
M  V30 4815 H 448.58 2.11378 3.58179 0
M  V30 4816 H 447.157 0.287378 3.71791 0
M  V30 4817 N 449.342 -1.36122 0.79427 0
M  V30 4818 C 450.272 -2.32551 0.210328 0
M  V30 4819 C 451.253 -1.56884 -0.657386 0
M  V30 4820 O 452.438 -1.85014 -0.590207 0
M  V30 4821 C 449.568 -3.41128 -0.651819 0
M  V30 4822 C 448.522 -4.27842 0.116395 0
M  V30 4823 C 447.848 -5.2763 -0.86666 0
M  V30 4824 C 449.148 -5.05647 1.30837 0
M  V30 4825 H 450.842 -2.81636 1.01594 0
M  V30 4826 H 448.388 -1.35407 0.489981 0
M  V30 4827 H 450.341 -4.07581 -1.07031 0
M  V30 4828 H 449.065 -2.90622 -1.49019 0
M  V30 4829 H 447.724 -3.62952 0.515915 0
M  V30 4830 H 447.372 -4.73395 -1.70019 0
M  V30 4831 H 447.072 -5.86514 -0.35705 0
M  V30 4832 H 448.596 -5.96955 -1.28361 0
M  V30 4833 H 450.01 -5.65113 0.965393 0
M  V30 4834 H 448.407 -5.73967 1.75161 0
M  V30 4835 H 449.477 -4.37006 2.10128 0
M  V30 4836 N 450.82 -0.546701 -1.47814 0
M  V30 4837 C 451.73 0.21026 -2.33656 0
M  V30 4838 C 452.746 0.922413 -1.47538 0
M  V30 4839 O 453.922 0.893652 -1.80488 0
M  V30 4840 C 450.987 1.23348 -3.24016 0
M  V30 4841 C 450.048 0.529883 -4.26017 0
M  V30 4842 C 449.281 1.50435 -5.12059 0
M  V30 4843 O 449.504 2.73837 -5.00369 0
M  V30 4844 O 448.438 1.03459 -5.92942 0
M  V30 4845 H 452.264 -0.493605 -2.99662 0
M  V30 4846 H 449.849 -0.307427 -1.46203 0
M  V30 4847 H 451.731 1.82438 -3.79861 0
M  V30 4848 H 450.406 1.91945 -2.60651 0
M  V30 4849 H 449.313 -0.101948 -3.73961 0
M  V30 4850 H 450.646 -0.11445 -4.92067 0
M  V30 4851 N 452.299 1.55045 -0.282633 0
M  V30 4852 C 453.548 1.98938 0.332667 0
M  V30 4853 C 453.861 1.17455 1.56409 0
M  V30 4854 O 455.067 1.51527 2.25282 0
M  V30 4855 C 453.523 3.54105 0.643226 0
M  V30 4856 C 453.131 4.44374 -0.568814 0
M  V30 4857 C 454.875 4.06569 1.22074 0
M  V30 4858 C 452.782 5.90943 -0.232426 0
M  V30 4859 H 451.712 0.743043 0.128075 0
M  V30 4860 H 454.363 1.79341 -0.388464 0
M  V30 4861 H 452.745 3.69532 1.42346 0
M  V30 4862 H 453.919 4.40718 -1.34551 0
M  V30 4863 H 452.234 4.02585 -1.06369 0
M  V30 4864 H 454.831 5.13626 1.48635 0
M  V30 4865 H 455.174 3.56057 2.15707 0
M  V30 4866 H 455.707 3.94612 0.502621 0
M  V30 4867 H 452.446 6.45567 -1.13683 0
M  V30 4868 H 451.966 5.9765 0.507357 0
M  V30 4869 H 453.645 6.4677 0.172657 0
M  V30 4870 N 453.777 0.010035 1.57597 0
M  V30 4871 C 455.002 -0.687021 1.95691 0
M  V30 4872 C 455.427 -1.65952 0.885519 0
M  V30 4873 O 454.785 -1.80633 -0.15543 0
M  V30 4874 C 454.833 -1.3864 3.32884 0
M  V30 4875 O 453.937 -2.50115 3.27897 0
M  V30 4876 H 453.278 -0.181989 0.638573 0
M  V30 4877 H 455.808 0.0662122 2.04493 0
M  V30 4878 H 455.818 -1.74754 3.6868 0
M  V30 4879 H 454.493 -0.673411 4.10412 0
M  V30 4880 H 453.07 -2.16253 3.03791 0
M  V30 4881 N 455.255 -1.55392 -0.262866 0
M  V30 4882 C 456.666 -1.67079 -0.833158 0
M  V30 4883 C 457.017 -0.604539 -1.86654 0
M  V30 4884 O 456.142 0.252138 -2.14926 0
M  V30 4885 C 456.737 -3.02891 -1.51797 0
M  V30 4886 C 455.296 -3.16571 -2.03617 0
M  V30 4887 C 454.443 -2.62909 -0.881701 0
M  V30 4888 H 457.394 -1.58652 -0.0389986 0
M  V30 4889 H 457.415 -2.96445 -2.38538 0
M  V30 4890 H 456.927 -3.80473 -0.765619 0
M  V30 4891 H 455.028 -2.43782 -2.81782 0
M  V30 4892 H 455.141 -4.23271 -2.24452 0
M  V30 4893 H 453.505 -2.20324 -1.27786 0
M  V30 4894 H 454.288 -3.43003 -0.14269 0
M  V30 4895 N 456.733 0.527833 -1.48498 0
M  V30 4896 C 457.982 1.28003 -1.55878 0
M  V30 4897 C 458.295 1.9414 -0.238577 0
M  V30 4898 O 459.501 2.7083 -0.190643 0
M  V30 4899 C 457.957 2.32272 -2.74914 0
M  V30 4900 C 457.565 1.72196 -4.13585 0
M  V30 4901 C 459.309 3.08488 -2.91608 0
M  V30 4902 C 457.216 2.74417 -5.23879 0
M  V30 4903 H 456.146 0.481413 -0.580308 0
M  V30 4904 H 458.797 0.557195 -1.74836 0
M  V30 4905 H 457.179 3.07601 -2.49395 0
M  V30 4906 H 458.353 1.03041 -4.49132 0
M  V30 4907 H 456.668 1.08464 -4.02025 0
M  V30 4908 H 459.265 3.84879 -3.71177 0
M  V30 4909 H 459.608 3.64481 -2.01145 0
M  V30 4910 H 460.141 2.40274 -3.17038 0
M  V30 4911 H 456.88 2.23242 -6.16314 0
M  V30 4912 H 456.4 3.41893 -4.92818 0
M  V30 4913 H 458.079 3.37362 -5.52083 0
M  V30 4914 N 458.211 1.37122 0.776871 0
M  V30 4915 C 459.439 1.3523 1.5659 0
M  V30 4916 C 459.854 -0.0635518 1.88693 0
M  V30 4917 O 459.211 -1.02394 1.51069 0
M  V30 4918 C 459.262 2.18583 2.8793 0
M  V30 4919 O 458.983 3.5465 2.57206 0
M  V30 4920 C 460.484 2.24612 3.82183 0
M  V30 4921 H 457.704 0.4634 0.485285 0
M  V30 4922 H 460.248 1.80392 0.963266 0
M  V30 4923 H 458.403 1.76943 3.4463 0
M  V30 4924 H 458.817 3.98286 3.41275 0
M  V30 4925 H 460.291 2.87267 4.71361 0
M  V30 4926 H 460.768 1.25309 4.20944 0
M  V30 4927 H 461.374 2.66543 3.31414 0
M  V30 4928 N 459.689 -1.00246 1.21608 0
M  V30 4929 C 460.936 -1.74061 1.03485 0
M  V30 4930 C 461.264 -1.89658 -0.431308 0
M  V30 4931 O 460.519 -1.42976 -1.33627 0
M  V30 4932 C 460.818 -3.15448 1.68009 0
M  V30 4933 C 460.484 -3.19792 3.17874 0
M  V30 4934 C 459.146 -3.20685 3.58768 0
M  V30 4935 C 461.498 -3.16835 4.13842 0
M  V30 4936 C 458.826 -3.16309 4.94131 0
M  V30 4937 C 461.178 -3.14001 5.49169 0
M  V30 4938 C 459.842 -3.13204 5.89457 0
M  V30 4939 H 459.112 -0.636934 0.378677 0
M  V30 4940 H 461.759 -1.17473 1.51236 0
M  V30 4941 H 460.064 -3.75284 1.12557 0
M  V30 4942 H 461.761 -3.71285 1.51487 0
M  V30 4943 H 458.351 -3.19842 2.85305 0
M  V30 4944 H 462.535 -3.15303 3.83272 0
M  V30 4945 H 457.791 -3.14032 5.24589 0
M  V30 4946 H 461.965 -3.10667 6.23265 0
M  V30 4947 H 459.592 -3.09568 6.94314 0
M  V30 4948 N 461.167 -1.02423 -1.1978 0
M  V30 4949 C 462.097 -0.62157 -2.25075 0
M  V30 4950 C 463.078 0.367148 -1.6609 0
M  V30 4951 O 464.263 0.250892 -1.92573 0
M  V30 4952 C 461.393 0.0331826 -3.47284 0
M  V30 4953 C 460.347 -0.877323 -4.18912 0
M  V30 4954 C 459.673 -0.0879296 -5.34628 0
M  V30 4955 C 460.973 -2.18892 -4.74219 0
M  V30 4956 H 462.667 -1.50179 -2.59011 0
M  V30 4957 H 460.213 -0.723547 -1.24502 0
M  V30 4958 H 462.166 0.326488 -4.20133 0
M  V30 4959 H 460.89 0.948164 -3.12534 0
M  V30 4960 H 459.549 -1.15475 -3.47938 0
M  V30 4961 H 459.197 0.828941 -4.96123 0
M  V30 4962 H 458.897 -0.694359 -5.83483 0
M  V30 4963 H 460.421 0.198743 -6.10276 0
M  V30 4964 H 461.835 -1.95746 -5.38847 0
M  V30 4965 H 460.232 -2.74686 -5.33542 0
M  V30 4966 H 461.302 -2.84674 -3.92541 0
M  V30 4967 N 462.645 1.35699 -0.801477 0
M  V30 4968 C 463.873 2.03157 -0.391768 0
M  V30 4969 C 464.288 1.60412 0.995668 0
M  V30 4970 O 463.645 0.799228 1.64069 0
M  V30 4971 C 463.696 3.58566 -0.459671 0
M  V30 4972 O 463.417 3.99756 -1.7924 0
M  V30 4973 C 464.918 4.4328 -0.0421205 0
M  V30 4974 H 462.138 0.651688 -0.159825 0
M  V30 4975 H 464.682 1.73426 -1.08368 0
M  V30 4976 H 462.837 3.86963 0.183939 0
M  V30 4977 H 463.251 4.94387 -1.75162 0
M  V30 4978 H 464.725 5.51821 -0.140754 0
M  V30 4979 H 465.202 4.27383 1.01196 0
M  V30 4980 H 465.808 4.20168 -0.658687 0
M  V30 4981 N 464.123 0.554532 1.47522 0
M  V30 4982 C 465.086 -0.184174 2.28459 0
M  V30 4983 C 466.086 -0.845195 1.36796 0
M  V30 4984 O 467.276 -0.701467 1.59452 0
M  V30 4985 C 464.408 -1.26903 3.16399 0
M  V30 4986 H 465.601 0.526751 2.95238 0
M  V30 4987 H 463.154 0.311375 1.53167 0
M  V30 4988 H 463.889 -2.01244 2.54306 0
M  V30 4989 H 463.674 -0.799883 3.83854 0
M  V30 4990 H 465.164 -1.78794 3.77389 0
M  V30 4991 N 465.601 -1.54893 0.290851 0
M  V30 4992 C 466.533 -2.20564 -0.623236 0
M  V30 4993 C 467.546 -1.19519 -1.1054 0
M  V30 4994 O 468.735 -1.46165 -1.02459 0
M  V30 4995 C 465.835 -2.83033 -1.86401 0
M  V30 4996 C 465.008 -4.09916 -1.52604 0
M  V30 4997 C 464.067 -4.56284 -2.62091 0
M  V30 4998 O 463.093 -5.2171 -2.27612 0
M  V30 4999 N 464.295 -4.27746 -3.92446 0
M  V30 5000 H 467.06 -2.99638 -0.0610915 0
M  V30 5001 H 464.621 -1.61508 0.112615 0
M  V30 5002 H 466.613 -3.1099 -2.58973 0
M  V30 5003 H 465.183 -2.0786 -2.33481 0
M  V30 5004 H 464.403 -3.89078 -0.633424 0
M  V30 5005 H 465.691 -4.92554 -1.27547 0
M  V30 5006 H 465.089 -3.7531 -4.23272 0
M  V30 5007 H 463.646 -4.60437 -4.61347 0
M  V30 5008 N 467.08 -0.0183926 -1.57589 0
M  V30 5009 C 468.308 0.673046 -1.95647 0
M  V30 5010 C 468.723 1.66275 -0.894312 0
M  V30 5011 O 468.08 1.82072 0.124975 0
M  V30 5012 C 468.131 1.38884 -3.33756 0
M  V30 5013 O 467.852 0.438806 -4.35897 0
M  V30 5014 C 469.353 2.1731 -3.86383 0
M  V30 5015 H 466.573 0.186292 -0.644621 0
M  V30 5016 H 469.117 -0.0749748 -2.04363 0
M  V30 5017 H 467.272 2.08835 -3.26293 0
M  V30 5018 H 467.686 0.945869 -5.15901 0
M  V30 5019 H 469.16 2.62863 -4.85394 0
M  V30 5020 H 469.637 3.00764 -3.20059 0
M  V30 5021 H 470.243 1.52339 -3.97081 0
M  V30 5022 N 468.558 1.5553 0.254621 0
M  V30 5023 C 469.488 1.9268 1.31897 0
M  V30 5024 C 470.469 0.790797 1.506 0
M  V30 5025 O 471.654 1.05045 1.63337 0
M  V30 5026 C 468.784 2.21477 2.67517 0
M  V30 5027 C 467.738 3.37256 2.63519 0
M  V30 5028 C 467.064 3.51576 4.02862 0
M  V30 5029 C 468.364 4.73157 2.21179 0
M  V30 5030 H 470.058 2.81832 1.01051 0
M  V30 5031 H 467.604 1.35599 0.484662 0
M  V30 5032 H 469.557 2.46055 3.42104 0
M  V30 5033 H 468.281 1.29144 2.99982 0
M  V30 5034 H 466.94 3.12675 1.9139 0
M  V30 5035 H 466.588 2.56676 4.32581 0
M  V30 5036 H 466.288 4.2943 4.01078 0
M  V30 5037 H 467.812 3.78467 4.79161 0
M  V30 5038 H 469.226 4.97158 2.85494 0
M  V30 5039 H 467.623 5.54058 2.30521 0
M  V30 5040 H 468.693 4.70739 1.16332 0
M  V30 5041 N 470.036 -0.519951 1.48776 0
M  V30 5042 C 470.966 -1.63253 1.66945 0
M  V30 5043 C 471.947 -1.62014 0.518224 0
M  V30 5044 O 473.132 -1.79053 0.751919 0
M  V30 5045 C 470.262 -3.0181 1.71836 0
M  V30 5046 C 469.216 -3.17911 2.8656 0
M  V30 5047 C 468.542 -4.5763 2.76548 0
M  V30 5048 C 469.842 -2.99729 4.27738 0
M  V30 5049 H 471.536 -1.48302 2.6009 0
M  V30 5050 H 469.082 -0.712026 1.25165 0
M  V30 5051 H 471.035 -3.79525 1.83135 0
M  V30 5052 H 469.759 -3.17806 0.752775 0
M  V30 5053 H 468.418 -2.42616 2.74833 0
M  V30 5054 H 468.066 -4.70476 1.77937 0
M  V30 5055 H 467.766 -4.69346 3.53536 0
M  V30 5056 H 469.29 -5.37431 2.89828 0
M  V30 5057 H 470.704 -3.67228 4.40246 0
M  V30 5058 H 469.101 -3.22932 5.05801 0
M  V30 5059 H 470.171 -1.96047 4.43502 0
M  V30 5060 N 471.514 -1.37532 -0.769588 0
M  V30 5061 C 472.447 -1.27839 -1.8903 0
M  V30 5062 C 473.425 -0.158504 -1.61826 0
M  V30 5063 O 474.609 -0.333086 -1.85534 0
M  V30 5064 C 471.736 -0.977072 -3.24301 0
M  V30 5065 C 470.782 -2.11414 -3.70414 0
M  V30 5066 S 471.615 -3.73409 -3.83831 0
M  V30 5067 C 472.771 -3.45432 -5.21946 0
M  V30 5068 H 473.004 -2.22694 -1.96963 0
M  V30 5069 H 470.537 -1.2318 -0.930914 0
M  V30 5070 H 472.495 -0.810049 -4.02428 0
M  V30 5071 H 471.156 -0.0459701 -3.14066 0
M  V30 5072 H 470.349 -1.85837 -4.68488 0
M  V30 5073 H 469.951 -2.24141 -2.99394 0
M  V30 5074 H 472.243 -3.00554 -6.07185 0
M  V30 5075 H 473.186 -4.42841 -5.52537 0
M  V30 5076 H 473.594 -2.80311 -4.89986 0
M  V30 5077 N 472.992 0.995999 -1.22138 0
M  V30 5078 C 474.269 1.70834 -0.952642 0
M  V30 5079 C 474.649 2.04257 0.533119 0
M  V30 5080 O 473.997 1.72343 1.50034 0
M  V30 5081 C 474.207 2.96119 -1.84701 0
M  V30 5082 C 475.555 3.68962 -2.10124 0
M  V30 5083 O 476.579 3.0612 -1.82124 0
M  V30 5084 O 475.438 4.82017 -2.57531 0
M  V30 5085 H 472.532 0.745498 -0.357997 0
M  V30 5086 H 475.078 1.05262 -1.33109 0
M  V30 5087 H 473.85 2.67898 -2.85213 0
M  V30 5088 H 473.473 3.6943 -1.46995 0
M  V30 5089 N 474.47 1.03057 1.19235 0
M  V30 5090 C 475.4 0.633497 2.24742 0
M  V30 5091 C 476.381 -0.358335 1.66283 0
M  V30 5092 O 477.566 -0.240676 1.92703 0
M  V30 5093 C 474.696 -0.0147648 3.47297 0
M  V30 5094 C 473.65 0.899527 4.18441 0
M  V30 5095 C 472.976 0.116281 5.34574 0
M  V30 5096 C 474.276 2.21404 4.73051 0
M  V30 5097 H 475.97 1.5155 2.58211 0
M  V30 5098 H 473.516 0.73014 1.24117 0
M  V30 5099 H 475.469 -0.304202 4.20301 0
M  V30 5100 H 474.193 -0.931577 3.13032 0
M  V30 5101 H 472.852 1.17319 3.47321 0
M  V30 5102 H 472.5 -0.802619 4.96555 0
M  V30 5103 H 472.2 0.725293 5.83107 0
M  V30 5104 H 473.724 -0.166376 6.10373 0
M  V30 5105 H 475.138 1.98601 5.37802 0
M  V30 5106 H 473.535 2.77512 5.32078 0
M  V30 5107 H 474.605 2.86752 3.91026 0
M  V30 5108 N 475.948 -1.35272 0.808662 0
M  V30 5109 C 477.196 -1.98316 0.389233 0
M  V30 5110 C 477.517 -1.64465 -1.04767 0
M  V30 5111 O 476.787 -0.928175 -1.72516 0
M  V30 5112 H 475.367 -0.733585 0.140935 0
M  V30 5113 H 478.029 -1.6515 1.03496 0
M  V30 5114 H 477.125 -3.08123 0.496631 0
M  V30 5115 N 477.426 -0.562348 -1.47226 0
M  V30 5116 C 478.358 0.220011 -2.28142 0
M  V30 5117 C 479.371 0.874596 -1.37312 0
M  V30 5118 O 480.56 0.747583 -1.62091 0
M  V30 5119 C 477.66 1.32953 -3.11732 0
M  V30 5120 C 476.833 0.770759 -4.30556 0
M  V30 5121 C 475.892 1.76541 -4.95701 0
M  V30 5122 O 474.918 1.3095 -5.53932 0
M  V30 5123 N 476.12 3.09896 -4.90861 0
M  V30 5124 H 478.885 -0.474107 -2.95926 0
M  V30 5125 H 476.446 -0.398761 -1.56912 0
M  V30 5126 H 478.438 1.99378 -3.5218 0
M  V30 5127 H 477.008 1.92681 -2.46156 0
M  V30 5128 H 476.228 -0.0704056 -3.94137 0
M  V30 5129 H 477.516 0.376872 -5.07402 0
M  V30 5130 H 476.914 3.49577 -4.44761 0
M  V30 5131 H 475.471 3.71865 -5.35313 0
M  V30 5132 N 478.904 1.54736 -0.299062 0
M  V30 5133 C 480.151 2.00101 0.310784 0
M  V30 5134 C 480.479 1.18746 1.54045 0
M  V30 5135 O 479.734 0.251198 1.94081 0
M  V30 5136 C 480.033 3.50199 0.713835 0
M  V30 5137 C 479.699 4.48997 -0.413873 0
M  V30 5138 C 478.361 4.7573 -0.723462 0
M  V30 5139 C 480.713 5.07839 -1.17257 0
M  V30 5140 C 478.041 5.5857 -1.79491 0
M  V30 5141 C 480.393 5.91844 -2.23392 0
M  V30 5142 C 479.057 6.16889 -2.54959 0
M  V30 5143 H 478.327 0.732221 0.113724 0
M  V30 5144 H 480.974 1.86888 -0.417756 0
M  V30 5145 H 479.279 3.61012 1.52243 0
M  V30 5146 H 480.976 3.82723 1.19684 0
M  V30 5147 H 477.566 4.28292 -0.162476 0
M  V30 5148 H 481.75 4.87188 -0.946651 0
M  V30 5149 H 477.006 5.76213 -2.04423 0
M  V30 5150 H 481.18 6.36465 -2.8264 0
M  V30 5151 H 478.807 6.80869 -3.38114 0
M  V30 5152 N 480.382 0.0267497 1.57577 0
M  V30 5153 C 481.312 -0.954308 2.13108 0
M  V30 5154 C 482.293 -1.34088 1.04663 0
M  V30 5155 O 483.478 -1.41992 1.32484 0
M  V30 5156 C 480.608 -2.23744 2.65624 0
M  V30 5157 C 479.562 -1.99168 3.78835 0
M  V30 5158 C 478.888 -3.33726 4.17769 0
M  V30 5159 C 480.188 -1.33277 5.0501 0
M  V30 5160 H 481.882 -0.491848 2.95332 0
M  V30 5161 H 479.428 -0.23514 1.42067 0
M  V30 5162 H 481.381 -2.92754 3.03106 0
M  V30 5163 H 480.105 -2.72151 1.80558 0
M  V30 5164 H 478.764 -1.32577 3.41788 0
M  V30 5165 H 478.412 -3.79888 3.29688 0
M  V30 5166 H 478.112 -3.18089 4.94058 0
M  V30 5167 H 479.636 -4.04008 4.57832 0
M  V30 5168 H 481.05 -1.92283 5.40093 0
M  V30 5169 H 479.447 -1.28045 5.8628 0
M  V30 5170 H 480.517 -0.305411 4.83937 0
M  V30 5171 N 481.861 -1.55662 -0.24637 0
M  V30 5172 C 482.791 -1.93377 -1.30873 0
M  V30 5173 C 483.772 -0.798773 -1.50179 0
M  V30 5174 O 484.957 -1.0591 -1.62778 0
M  V30 5175 C 482.087 -2.22893 -2.66338 0
M  V30 5176 C 481.041 -3.38649 -2.61727 0
M  V30 5177 C 480.367 -3.53708 -4.00992 0
M  V30 5178 C 481.667 -4.74323 -2.18666 0
M  V30 5179 H 483.361 -2.82363 -0.995552 0
M  V30 5180 H 480.907 -1.35854 -0.477464 0
M  V30 5181 H 482.86 -2.47866 -3.40794 0
M  V30 5182 H 481.584 -1.30733 -2.99293 0
M  V30 5183 H 480.243 -3.13685 -1.89729 0
M  V30 5184 H 479.891 -2.58967 -4.31214 0
M  V30 5185 H 479.591 -4.31551 -3.98795 0
M  V30 5186 H 481.115 -3.81003 -4.77147 0
M  V30 5187 H 482.529 -4.98665 -2.82854 0
M  V30 5188 H 480.926 -5.55273 -2.27579 0
M  V30 5189 H 481.996 -4.71349 -1.13834 0
M  V30 5190 N 483.339 0.512053 -1.4905 0
M  V30 5191 C 484.586 1.26686 -1.57978 0
M  V30 5192 C 484.914 1.92733 -0.261553 0
M  V30 5193 O 484.169 1.80772 0.749667 0
M  V30 5194 C 484.468 2.36446 -2.68008 0
M  V30 5195 C 484.134 1.87932 -4.09869 0
M  V30 5196 C 482.796 1.74419 -4.48477 0
M  V30 5197 C 485.148 1.5149 -4.98698 0
M  V30 5198 C 482.476 1.22827 -5.73699 0
M  V30 5199 C 484.828 1.01355 -6.24428 0
M  V30 5200 C 483.492 0.864735 -6.61875 0
M  V30 5201 H 482.762 0.463577 -0.578081 0
M  V30 5202 H 485.409 0.569421 -1.82838 0
M  V30 5203 H 483.714 3.11933 -2.37076 0
M  V30 5204 H 485.411 2.9453 -2.72127 0
M  V30 5205 H 482.001 1.99405 -3.79389 0
M  V30 5206 H 486.185 1.60782 -4.69535 0
M  V30 5207 H 481.441 1.10008 -6.01422 0
M  V30 5208 H 485.615 0.722351 -6.92644 0
M  V30 5209 H 483.242 0.462777 -7.5879 0
M  V30 5210 N 484.817 1.37938 0.762283 0
M  V30 5211 C 486.057 1.35076 1.53407 0
M  V30 5212 C 486.421 -0.061546 1.91901 0
M  V30 5213 O 487.622 -0.214973 2.67939 0
M  V30 5214 C 485.893 2.27206 2.75884 0
M  V30 5215 S 487.452 2.42283 3.65848 0
M  V30 5216 H 484.27 0.479387 0.52508 0
M  V30 5217 H 486.872 1.7378 0.895586 0
M  V30 5218 H 485.576 3.28724 2.457 0
M  V30 5219 H 485.107 1.8962 3.44685 0
M  V30 5220 H 487.122 1.64044 4.68299 0
M  V30 5221 N 486.295 -0.989507 1.22664 0
M  V30 5222 C 487.245 -2.06478 0.967005 0
M  V30 5223 C 488.229 -1.60682 -0.0836374 0
M  V30 5224 O 489.421 -1.76541 0.127322 0
M  V30 5225 C 486.55 -3.38861 0.550313 0
M  V30 5226 C 485.636 -3.9128 1.63587 0
M  V30 5227 N 486.027 -4.16884 2.86429 0
M  V30 5228 C 484.325 -4.1972 1.50834 0
M  V30 5229 C 485.026 -4.5954 3.56648 0
M  V30 5230 N 484.002 -4.63434 2.84131 0
M  V30 5231 H 487.804 -2.24219 1.90008 0
M  V30 5232 H 485.318 -1.17153 1.12467 0
M  V30 5233 H 487.315 -4.15465 0.345612 0
M  V30 5234 H 485.975 -3.22518 -0.375822 0
M  V30 5235 H 486.986 -4.04976 3.22823 0
M  V30 5236 H 483.663 -4.1243 0.648643 0
M  V30 5237 H 485.053 -4.87944 4.61909 0
M  V30 5238 N 487.773 -1.03688 -1.18687 0
M  V30 5239 C 489.022 -0.733235 -1.879 0
M  V30 5240 C 489.335 0.741745 -1.8099 0
M  V30 5241 O 490.541 1.15875 -2.4553 0
M  V30 5242 C 488.997 -1.26127 -3.37076 0
M  V30 5243 C 488.605 -2.76461 -3.52524 0
M  V30 5244 C 490.349 -1.03398 -4.11715 0
M  V30 5245 C 488.256 -3.22642 -4.95637 0
M  V30 5246 H 487.186 -0.270584 -0.703776 0
M  V30 5247 H 489.837 -1.25222 -1.34133 0
M  V30 5248 H 488.219 -0.670165 -3.90288 0
M  V30 5249 H 489.393 -3.41296 -3.09602 0
M  V30 5250 H 487.708 -2.97559 -2.91286 0
M  V30 5251 H 490.305 -1.3542 -5.17267 0
M  V30 5252 H 490.648 0.0289246 -4.1629 0
M  V30 5253 H 491.181 -1.5895 -3.64664 0
M  V30 5254 H 487.92 -4.28296 -4.96228 0
M  V30 5255 H 487.44 -2.62539 -5.39289 0
M  V30 5256 H 489.119 -3.16444 -5.64333 0
M  V30 5257 N 489.251 1.34841 -0.815825 0
M  V30 5258 C 490.476 2.03261 -0.41226 0
M  V30 5259 C 490.901 1.61055 0.971751 0
M  V30 5260 O 490.259 0.7917 1.63101 0
M  V30 5261 C 490.307 3.56914 -0.514289 0
M  V30 5262 O 489.411 4.09728 0.468675 0
M  V30 5263 H 488.752 0.641664 -0.170771 0
M  V30 5264 H 491.282 1.72241 -1.10427 0
M  V30 5265 H 491.292 4.06156 -0.387457 0
M  V30 5266 H 489.967 3.86982 -1.52375 0
M  V30 5267 H 488.544 3.71681 0.301316 0
M  V30 5268 N 490.729 0.570148 1.46925 0
M  V30 5269 C 491.954 0.0542592 2.07329 0
M  V30 5270 C 492.379 -1.23582 1.41806 0
M  V30 5271 O 491.737 -1.74341 0.497479 0
M  V30 5272 C 491.785 -0.111175 3.60429 0
M  V30 5273 O 490.889 -1.17071 3.95434 0
M  V30 5274 H 490.23 0.0571425 0.661537 0
M  V30 5275 H 492.76 0.789516 1.88753 0
M  V30 5276 H 492.77 -0.321315 4.06733 0
M  V30 5277 H 491.445 0.831012 4.07513 0
M  V30 5278 H 490.022 -0.940029 3.60857 0
M  V30 5279 N 492.207 -1.54576 0.307264 0
M  V30 5280 C 493.157 -2.20467 -0.581249 0
M  V30 5281 C 494.141 -1.17972 -1.09414 0
M  V30 5282 O 495.333 -1.43667 -1.03387 0
M  V30 5283 C 492.462 -2.95369 -1.74963 0
M  V30 5284 C 491.548 -4.05186 -1.25241 0
M  V30 5285 N 491.939 -5.03577 -0.47364 0
M  V30 5286 C 490.237 -4.18841 -1.53259 0
M  V30 5287 C 490.938 -5.81328 -0.208083 0
M  V30 5288 N 489.914 -5.37834 -0.789651 0
M  V30 5289 H 493.716 -2.93892 0.0212221 0
M  V30 5290 H 491.23 -1.62011 0.112325 0
M  V30 5291 H 493.227 -3.41046 -2.39777 0
M  V30 5292 H 491.887 -2.23461 -2.35574 0
M  V30 5293 H 492.898 -5.17766 -0.117963 0
M  V30 5294 H 489.575 -3.58141 -2.14573 0
M  V30 5295 H 490.965 -6.706 0.417793 0
M  V30 5296 N 493.685 -0.035106 -1.57561 0
M  V30 5297 C 494.617 0.973604 -2.07494 0
M  V30 5298 C 495.63 1.28504 -0.999534 0
M  V30 5299 O 496.819 1.24864 -1.27559 0
M  V30 5300 C 493.919 2.29945 -2.48955 0
M  V30 5301 C 493.092 2.1723 -3.79644 0
M  V30 5302 C 492.151 3.328 -4.07592 0
M  V30 5303 O 491.177 3.09418 -4.77754 0
M  V30 5304 N 492.379 4.56779 -3.58236 0
M  V30 5305 H 495.144 0.547525 -2.94656 0
M  V30 5306 H 492.705 0.151515 -1.61189 0
M  V30 5307 H 494.697 3.06097 -2.64739 0
M  V30 5308 H 493.267 2.64173 -1.67126 0
M  V30 5309 H 492.487 1.25768 -3.73599 0
M  V30 5310 H 493.775 2.05945 -4.65257 0
M  V30 5311 H 493.173 4.78668 -3.01485 0
M  V30 5312 H 491.73 5.30079 -3.79288 0
M  V30 5313 N 495.163 1.55791 0.238111 0
M  V30 5314 C 496.113 1.87444 1.29803 0
M  V30 5315 C 497.097 0.736043 1.43078 0
M  V30 5316 O 498.289 0.998146 1.46171 0
M  V30 5317 C 495.418 2.18028 2.65177 0
M  V30 5318 C 494.504 3.38217 2.55871 0
M  V30 5319 N 494.895 4.57264 2.16202 0
M  V30 5320 C 493.193 3.41502 2.86866 0
M  V30 5321 C 493.894 5.3941 2.17744 0
M  V30 5322 N 492.87 4.78695 2.57589 0
M  V30 5323 H 496.672 2.7701 0.981965 0
M  V30 5324 H 494.186 1.56135 0.44672 0
M  V30 5325 H 496.183 2.38873 3.4168 0
M  V30 5326 H 494.843 1.29765 2.97643 0
M  V30 5327 H 495.854 4.82727 1.87602 0
M  V30 5328 H 492.531 2.63536 3.23813 0
M  V30 5329 H 493.921 6.44671 1.89339 0
M  V30 5330 N 496.642 -0.504142 1.49319 0
M  V30 5331 C 497.919 -1.26548 1.49147 0
M  V30 5332 C 498.299 -2.09977 0.21744 0
M  V30 5333 O 497.647 -2.14028 -0.800269 0
M  V30 5334 C 497.857 -2.12489 2.76857 0
M  V30 5335 C 499.205 -2.7178 3.26222 0
M  V30 5336 O 500.229 -2.22758 2.77952 0
M  V30 5337 O 499.088 -3.61015 4.10281 0
M  V30 5338 H 496.182 -0.572495 0.596806 0
M  V30 5339 H 498.728 -0.51867 1.61579 0
M  V30 5340 H 497.5 -1.50796 3.61077 0
M  V30 5341 H 497.123 -2.94368 2.6727 0
M  V30 5342 N 498.12 -1.38341 -0.754957 0
M  V30 5343 C 499.368 -1.34208 -1.51105 0
M  V30 5344 C 499.689 0.0677634 -1.94882 0
M  V30 5345 O 498.959 1.01517 -1.67544 0
M  V30 5346 H 497.539 -0.493819 -0.560493 0
M  V30 5347 H 500.201 -1.73005 -0.897507 0
M  V30 5348 H 499.297 -1.99203 -2.4026 0
M  V30 5349 N 499.598 0.982988 -1.23187 0
M  V30 5350 C 500.531 2.07302 -0.953993 0
M  V30 5351 C 501.509 1.62249 0.106753 0
M  V30 5352 O 502.693 1.88481 -0.0269525 0
M  V30 5353 C 499.82 3.35873 -0.436716 0
M  V30 5354 C 498.866 3.99862 -1.48367 0
M  V30 5355 S 499.699 4.39443 -3.06023 0
M  V30 5356 C 500.855 5.7117 -2.55959 0
M  V30 5357 H 501.088 2.30554 -1.87702 0
M  V30 5358 H 498.621 1.11883 -1.06403 0
M  V30 5359 H 500.579 4.10244 -0.144872 0
M  V30 5360 H 499.24 3.10634 0.465351 0
M  V30 5361 H 498.433 4.92471 -1.07182 0
M  V30 5362 H 498.035 3.31857 -1.72473 0
M  V30 5363 H 500.327 6.47977 -1.97818 0
M  V30 5364 H 501.27 6.17194 -3.47098 0
M  V30 5365 H 501.678 5.29046 -1.96902 0
M  V30 5366 N 501.076 1.04316 1.18135 0
M  V30 5367 C 501.986 0.646876 2.25505 0
M  V30 5368 C 503.002 -0.328008 1.7088 0
M  V30 5369 O 504.178 -0.182309 2.00573 0
M  V30 5370 C 501.243 0.0185664 3.46695 0
M  V30 5371 C 500.304 1.04277 4.16443 0
M  V30 5372 C 499.537 0.444352 5.31847 0
M  V30 5373 O 499.76 -0.748735 5.65465 0
M  V30 5374 O 498.694 1.17428 5.90334 0
M  V30 5375 H 502.52 1.54147 2.61672 0
M  V30 5376 H 500.105 0.814188 1.25265 0
M  V30 5377 H 501.987 -0.331068 4.20097 0
M  V30 5378 H 500.662 -0.849814 3.12346 0
M  V30 5379 H 499.569 1.44425 3.45098 0
M  V30 5380 H 500.902 1.882 4.54798 0
M  V30 5381 N 502.554 -1.34406 0.822964 0
M  V30 5382 C 503.517 -2.2783 0.250271 0
M  V30 5383 C 504.517 -1.50288 -0.571854 0
M  V30 5384 O 505.707 -1.69825 -0.387952 0
M  V30 5385 C 502.839 -3.34663 -0.649137 0
M  V30 5386 H 504.032 -2.79992 1.07444 0
M  V30 5387 H 501.585 -1.44539 0.594829 0
M  V30 5388 H 502.32 -2.87714 -1.49637 0
M  V30 5389 H 502.105 -3.92052 -0.0611199 0
M  V30 5390 H 503.595 -4.04349 -1.04363 0
M  V30 5391 N 504.032 -0.577932 -1.46621 0
M  V30 5392 C 505.262 -0.0670668 -2.06491 0
M  V30 5393 C 505.67 1.24119 -1.42798 0
M  V30 5394 O 505.013 1.76016 -0.525759 0
M  V30 5395 C 505.075 0.177995 -3.59059 0
M  V30 5396 C 504.739 -1.04394 -4.44917 0
M  V30 5397 C 505.736 -1.95479 -4.81751 0
M  V30 5398 C 503.421 -1.26444 -4.86125 0
M  V30 5399 C 505.415 -3.06965 -5.58615 0
M  V30 5400 C 503.102 -2.38237 -5.62749 0
M  V30 5401 C 504.1 -3.28327 -5.98908 0
M  V30 5402 O 503.788 -4.38179 -6.73984 0
M  V30 5403 H 503.52 -0.0523159 -0.673973 0
M  V30 5404 H 506.074 -0.796966 -1.89308 0
M  V30 5405 H 504.304 0.962451 -3.74531 0
M  V30 5406 H 505.993 0.636782 -4.00874 0
M  V30 5407 H 506.759 -1.79657 -4.50498 0
M  V30 5408 H 502.638 -0.572316 -4.57434 0
M  V30 5409 H 506.182 -3.77309 -5.86757 0
M  V30 5410 H 502.079 -2.54023 -5.93416 0
M  V30 5411 H 502.847 -4.36486 -6.92403 0
M  V30 5412 N 505.51 1.54411 -0.315457 0
M  V30 5413 C 506.756 2.00716 0.289972 0
M  V30 5414 C 507.089 1.2034 1.5242 0
M  V30 5415 O 506.364 0.283579 1.92422 0
M  V30 5416 C 506.647 3.54507 0.632196 0
M  V30 5417 C 506.5 4.45615 -0.61218 0
M  V30 5418 C 507.819 4.15421 1.45305 0
M  V30 5419 H 504.938 0.729637 0.10392 0
M  V30 5420 H 507.58 1.8506 -0.430427 0
M  V30 5421 H 505.73 3.67979 1.24595 0
M  V30 5422 H 507.402 4.44026 -1.25053 0
M  V30 5423 H 505.645 4.15621 -1.24264 0
M  V30 5424 H 506.316 5.51022 -0.328379 0
M  V30 5425 H 508.792 4.05474 0.934331 0
M  V30 5426 H 507.668 5.23157 1.66127 0
M  V30 5427 H 507.929 3.68223 2.44671 0
M  V30 5428 N 506.988 0.0434614 1.5754 0
M  V30 5429 C 507.935 -0.93356 2.11077 0
M  V30 5430 C 508.905 -1.31383 1.01626 0
M  V30 5431 O 510.09 -1.40465 1.29129 0
M  V30 5432 C 507.23 -2.20578 2.65404 0
M  V30 5433 C 506.343 -1.88068 3.88914 0
M  V30 5434 C 505.478 -3.09691 4.31584 0
M  V30 5435 C 504.517 -2.73067 5.47815 0
M  V30 5436 N 503.654 -3.87359 5.85574 0
M  V30 5437 H 508.494 -0.470118 2.94268 0
M  V30 5438 H 506.031 -0.220434 1.45439 0
M  V30 5439 H 507.989 -2.95011 2.94999 0
M  V30 5440 H 506.619 -2.64513 1.85021 0
M  V30 5441 H 505.671 -1.03816 3.6596 0
M  V30 5442 H 506.983 -1.57104 4.73413 0
M  V30 5443 H 506.137 -3.92431 4.62691 0
M  V30 5444 H 504.876 -3.43827 3.45882 0
M  V30 5445 H 503.881 -1.88742 5.16388 0
M  V30 5446 H 505.106 -2.40131 6.35227 0
M  V30 5447 H 503.052 -4.21311 5.02825 0
M  V30 5448 H 502.969 -3.60068 6.64746 0
M  V30 5449 H 504.237 -4.70761 6.21292 0
M  V30 5450 N 508.466 -1.55915 -0.229846 0
M  V30 5451 C 509.712 -1.78807 -0.956868 0
M  V30 5452 C 510.045 -0.611687 -1.84315 0
M  V30 5453 O 509.32 0.389398 -1.90562 0
M  V30 5454 C 509.603 -3.11718 -1.80288 0
M  V30 5455 C 509.456 -4.3979 -0.943649 0
M  V30 5456 C 510.775 -3.40999 -2.78222 0
M  V30 5457 H 507.894 -0.6505 -0.346437 0
M  V30 5458 H 510.536 -1.88648 -0.226252 0
M  V30 5459 H 508.686 -3.03459 -2.42579 0
M  V30 5460 H 510.358 -4.60059 -0.338121 0
M  V30 5461 H 508.601 -4.33086 -0.248705 0
M  V30 5462 H 509.272 -5.29208 -1.5698 0
M  V30 5463 H 511.748 -3.49332 -2.26067 0
M  V30 5464 H 510.624 -4.35183 -3.34526 0
M  V30 5465 H 510.885 -2.62754 -3.55546 0
M  V30 5466 N 509.944 0.496216 -1.49584 0
M  V30 5467 C 511.221 1.25755 -1.49816 0
M  V30 5468 C 511.601 2.09859 -0.228572 0
M  V30 5469 O 510.949 2.14449 0.788908 0
M  V30 5470 C 511.159 2.11017 -2.7798 0
M  V30 5471 C 512.507 2.70047 -3.27658 0
M  V30 5472 O 513.531 2.21281 -2.79129 0
M  V30 5473 O 512.39 3.58834 -4.1219 0
M  V30 5474 H 509.484 0.569322 -0.599834 0
M  V30 5475 H 512.03 0.510094 -1.61852 0
M  V30 5476 H 510.802 1.48879 -3.61871 0
M  V30 5477 H 510.425 2.92947 -2.68827 0
M  V30 5478 N 511.423 1.38739 0.74761 0
M  V30 5479 C 512.648 1.38702 1.54197 0
M  V30 5480 C 513.073 -0.019664 1.8809 0
M  V30 5481 O 512.431 -1.00333 1.51006 0
M  V30 5482 C 512.479 2.25492 2.814 0
M  V30 5483 O 511.583 1.67613 3.76802 0
M  V30 5484 H 510.924 0.472863 0.466151 0
M  V30 5485 H 513.454 1.82577 0.923413 0
M  V30 5486 H 513.464 2.39561 3.30264 0
M  V30 5487 H 512.139 3.27727 2.56062 0
M  V30 5488 H 510.716 1.62718 3.35526 0
M  V30 5489 N 512.901 -0.976442 1.23707 0
M  V30 5490 C 514.141 -1.73331 1.08332 0
M  V30 5491 C 514.505 -1.88346 -0.372781 0
M  V30 5492 O 515.706 -2.60877 -0.647813 0
M  V30 5493 C 513.977 -3.09159 1.7932 0
M  V30 5494 S 515.536 -4.00376 1.79567 0
M  V30 5495 H 512.354 -0.596045 0.387622 0
M  V30 5496 H 514.956 -1.16625 1.56904 0
M  V30 5497 H 513.66 -2.95884 2.84395 0
M  V30 5498 H 513.191 -3.70932 1.31046 0
M  V30 5499 H 515.206 -4.88742 0.857094 0
M  V30 5500 N 514.379 -1.04941 -1.1758 0
M  V30 5501 C 515.79 -0.784501 -1.69418 0
M  V30 5502 C 516.141 0.693625 -1.8353 0
M  V30 5503 O 515.266 1.53925 -1.52106 0
M  V30 5504 C 515.861 -1.41746 -3.07723 0
M  V30 5505 C 514.42 -1.20066 -3.56737 0
M  V30 5506 C 513.567 -1.5026 -2.33061 0
M  V30 5507 H 516.518 -1.21469 -1.02133 0
M  V30 5508 H 516.539 -0.825381 -3.7144 0
M  V30 5509 H 516.051 -2.49325 -2.9742 0
M  V30 5510 H 514.152 -0.144006 -3.72322 0
M  V30 5511 H 514.265 -1.90384 -4.39648 0
M  V30 5512 H 512.629 -0.922598 -2.37403 0
M  V30 5513 H 513.412 -2.58967 -2.25368 0
M  V30 5514 N 515.857 1.33968 -0.830081 0
M  V30 5515 C 516.767 2.33164 -0.259207 0
M  V30 5516 C 517.783 1.62951 0.610164 0
M  V30 5517 O 518.959 1.94668 0.516369 0
M  V30 5518 C 516.024 3.42088 0.563598 0
M  V30 5519 C 515.085 4.28037 -0.329014 0
M  V30 5520 C 514.318 5.3176 0.454616 0
M  V30 5521 O 514.541 5.44876 1.6872 0
M  V30 5522 O 513.475 6.01669 -0.166794 0
M  V30 5523 H 517.301 2.83832 -1.08041 0
M  V30 5524 H 514.886 1.37154 -0.59239 0
M  V30 5525 H 516.768 4.08581 1.03147 0
M  V30 5526 H 515.443 2.93651 1.36201 0
M  V30 5527 H 514.35 3.64443 -0.844538 0
M  V30 5528 H 515.683 4.79934 -1.09196 0
M  V30 5529 N 517.335 0.585699 1.46312 0
M  V30 5530 C 518.245 -0.148236 2.34131 0
M  V30 5531 C 519.261 -0.882972 1.49932 0
M  V30 5532 O 520.437 -0.845484 1.82794 0
M  V30 5533 C 517.502 -1.14714 3.27172 0
M  V30 5534 C 516.563 -0.416746 4.27272 0
M  V30 5535 C 515.796 -1.36806 5.15868 0
M  V30 5536 O 516.019 -2.60475 5.07454 0
M  V30 5537 O 514.953 -0.877018 5.95476 0
M  V30 5538 H 518.779 0.572882 2.98248 0
M  V30 5539 H 516.364 0.346082 1.45336 0
M  V30 5540 H 518.246 -1.72303 3.84564 0
M  V30 5541 H 516.921 -1.84967 2.65648 0
M  V30 5542 H 515.828 0.201061 3.73559 0
M  V30 5543 H 517.161 0.244872 4.9159 0
M  V30 5544 N 518.813 -1.54241 0.323641 0
M  V30 5545 C 520.224 -1.85975 -0.164405 0
M  V30 5546 C 520.575 -1.24529 -1.51615 0
M  V30 5547 O 519.7 -0.551351 -2.09258 0
M  V30 5548 C 520.295 -3.37424 -0.305091 0
M  V30 5549 C 518.854 -3.69107 -0.737358 0
M  V30 5550 C 518.001 -2.76942 0.140884 0
M  V30 5551 H 520.952 -1.49088 0.543922 0
M  V30 5552 H 520.973 -3.63147 -1.13598 0
M  V30 5553 H 520.485 -3.82116 0.678876 0
M  V30 5554 H 518.586 -3.29947 -1.73107 0
M  V30 5555 H 518.699 -4.76035 -0.541053 0
M  V30 5556 H 517.063 -2.51795 -0.383572 0
M  V30 5557 H 517.846 -3.24461 1.12162 0
M  V30 5558 N 520.291 -0.0518155 -1.57515 0
M  V30 5559 C 521.223 0.951542 -2.08515 0
M  V30 5560 C 522.236 1.27436 -1.01311 0
M  V30 5561 O 523.425 1.23504 -1.28876 0
M  V30 5562 C 520.525 2.27291 -2.5138 0
M  V30 5563 C 519.698 2.13191 -3.81927 0
M  V30 5564 C 518.757 3.28458 -4.11098 0
M  V30 5565 O 517.783 3.04334 -4.81009 0
M  V30 5566 N 518.985 4.52954 -3.63061 0
M  V30 5567 H 521.75 0.516242 -2.9522 0
M  V30 5568 H 519.311 0.13441 -1.61341 0
M  V30 5569 H 521.303 3.03272 -2.67971 0
M  V30 5570 H 519.873 2.62386 -1.69919 0
M  V30 5571 H 519.093 1.21798 -3.74912 0
M  V30 5572 H 520.381 2.00999 -4.67415 0
M  V30 5573 H 519.779 4.75444 -3.06545 0
M  V30 5574 H 518.336 5.26026 -3.84889 0
M  V30 5575 N 521.769 1.56035 0.221574 0
M  V30 5576 C 522.699 1.95434 1.2778 0
M  V30 5577 C 523.68 0.822564 1.48889 0
M  V30 5578 O 524.865 1.08486 1.61072 0
M  V30 5579 C 521.995 2.27102 2.62759 0
M  V30 5580 C 520.949 3.4277 2.56306 0
M  V30 5581 C 520.275 3.60043 3.95314 0
M  V30 5582 C 521.575 4.77742 2.11093 0
M  V30 5583 H 523.269 2.83912 0.950504 0
M  V30 5584 H 520.815 1.36596 0.455791 0
M  V30 5585 H 522.768 2.53256 3.36807 0
M  V30 5586 H 521.492 1.35478 2.97176 0
M  V30 5587 H 520.151 3.16664 1.84715 0
M  V30 5588 H 519.799 2.65794 4.27039 0
M  V30 5589 H 519.499 4.37841 3.91879 0
M  V30 5590 H 521.023 3.88545 4.71025 0
M  V30 5591 H 522.437 5.03102 2.74885 0
M  V30 5592 H 520.834 5.58823 2.18716 0
M  V30 5593 H 521.904 4.731 1.06321 0
M  V30 5594 N 523.247 -0.488276 1.49845 0
M  V30 5595 C 524.663 -0.820566 1.3689 0
M  V30 5596 C 524.863 -1.97248 0.411752 0
M  V30 5597 O 523.919 -2.52042 -0.151931 0
M  V30 5598 C 525.232 -1.1488 2.77891 0
M  V30 5599 C 526.78 -1.25626 2.86683 0
M  V30 5600 C 527.255 -1.61772 4.28479 0
M  V30 5601 N 528.746 -1.68797 4.31349 0
M  V30 5602 C 529.481 -1.98235 5.38043 0
M  V30 5603 N 528.977 -2.2581 6.54967 0
M  V30 5604 N 530.77 -1.99593 5.2547 0
M  V30 5605 H 522.921 0.271123 2.10662 0
M  V30 5606 H 525.184 0.058735 0.946179 0
M  V30 5607 H 524.89 -0.375614 3.49688 0
M  V30 5608 H 524.764 -2.08919 3.14058 0
M  V30 5609 H 527.151 -2.02014 2.15114 0
M  V30 5610 H 527.232 -0.296072 2.54081 0
M  V30 5611 H 526.876 -0.859295 5.00578 0
M  V30 5612 H 526.806 -2.58912 4.58554 0
M  V30 5613 H 529.297 -1.49595 3.4703 0
M  V30 5614 H 529.61 -2.47497 7.32096 0
M  V30 5615 H 527.955 -2.23239 6.58171 0
M  V30 5616 H 531.146 -1.77535 4.33127 0
M  V30 5617 H 531.319 -2.222 6.08713 0
M  V30 5618 N 524.725 -1.39134 -0.740242 0
M  V30 5619 C 525.658 -1.3182 -1.86276 0
M  V30 5620 C 526.636 -0.192794 -1.61453 0
M  V30 5621 O 527.82 -0.372365 -1.84786 0
M  V30 5622 C 524.947 -1.04564 -3.22155 0
M  V30 5623 C 523.993 -2.19224 -3.65846 0
M  V30 5624 S 524.826 -3.81466 -3.75824 0
M  V30 5625 C 525.982 -3.56425 -5.14502 0
M  V30 5626 H 526.215 -2.26822 -1.92195 0
M  V30 5627 H 523.748 -1.25127 -0.904576 0
M  V30 5628 H 525.706 -0.895228 -4.00619 0
M  V30 5629 H 524.367 -0.112578 -3.13898 0
M  V30 5630 H 523.56 -1.95732 -4.6444 0
M  V30 5631 H 523.162 -2.30441 -2.94572 0
M  V30 5632 H 525.454 -3.13366 -6.00673 0
M  V30 5633 H 526.397 -4.54462 -5.43019 0
M  V30 5634 H 526.805 -2.90641 -4.8393 0
M  V30 5635 N 526.204 0.969867 -1.24223 0
M  V30 5636 C 527.151 2.06407 -1.0327 0
M  V30 5637 C 528.121 1.66014 0.0533 0
M  V30 5638 O 529.306 1.90533 -0.100896 0
M  V30 5639 C 526.446 3.3909 -0.641262 0
M  V30 5640 C 525.559 3.9269 -1.80051 0
M  V30 5641 C 524.694 5.13631 -1.35486 0
M  V30 5642 C 523.733 5.59423 -2.48419 0
M  V30 5643 N 522.87 6.71586 -2.04737 0
M  V30 5644 H 527.71 2.23663 -1.96923 0
M  V30 5645 H 525.247 1.09624 -0.980862 0
M  V30 5646 H 527.205 4.15323 -0.395351 0
M  V30 5647 H 525.835 3.21765 0.258269 0
M  V30 5648 H 524.887 3.13116 -2.16014 0
M  V30 5649 H 526.199 4.22636 -2.64916 0
M  V30 5650 H 525.353 5.97231 -1.0677 0
M  V30 5651 H 524.092 4.85364 -0.476722 0
M  V30 5652 H 523.097 4.74398 -2.77897 0
M  V30 5653 H 524.322 5.89705 -3.36786 0
M  V30 5654 H 522.268 6.45058 -1.19318 0
M  V30 5655 H 522.185 7.0097 -2.83156 0
M  V30 5656 H 523.453 7.58633 -1.79154 0
M  V30 5657 N 527.682 1.05563 1.17022 0
M  V30 5658 C 528.63 0.653887 2.2322 0
M  V30 5659 C 529.624 -0.326642 1.66221 0
M  V30 5660 O 530.83 -0.192301 1.7897 0
M  V30 5661 H 527.205 0.193297 0.726733 0
M  V30 5662 H 529.176 1.5596 2.54399 0
M  V30 5663 C 527.925 0.0485434 3.47666 0
M  V30 5664 H 527.248 0.79413 3.91834 0
M  V30 5665 H 528.688 -0.195133 4.23551 0
M  V30 5666 C 527.147 -1.20583 3.14581 0
M  V30 5667 O 527.677 -2.29475 3.29703 0
M  V30 5668 N 525.883 -1.10493 2.68774 0
M  V30 5669 H 525.43 -0.218795 2.56669 0
M  V30 5670 H 525.388 -1.94507 2.47011 0
M  V30 5671 N 529.16 -1.33526 0.837174 0
M  V30 5672 C 530.108 -2.31168 0.257698 0
M  V30 5673 C 531.102 -1.5806 -0.609388 0
M  V30 5674 O 532.308 -1.72941 -0.499139 0
M  V30 5675 H 528.683 -0.74922 0.0646058 0
M  V30 5676 H 530.654 -2.77552 1.09578 0
M  V30 5677 C 529.403 -3.4326 -0.553887 0
M  V30 5678 H 528.726 -3.99665 0.104008 0
M  V30 5679 H 530.166 -4.13782 -0.925219 0
M  V30 5680 C 528.625 -2.88965 -1.73207 0
M  V30 5681 O 529.155 -2.85013 -2.83073 0
M  V30 5682 N 527.361 -2.45596 -1.55342 0
M  V30 5683 H 526.908 -2.49009 -0.659705 0
M  V30 5684 H 526.866 -2.0962 -2.34322 0
M  V30 5685 N 530.638 -0.59345 -1.46 0
M  V30 5686 C 531.548 0.135817 -2.34207 0
M  V30 5687 C 532.564 0.875008 -1.50398 0
M  V30 5688 O 533.74 0.835778 -1.83239 0
M  V30 5689 C 530.805 1.12977 -3.27776 0
M  V30 5690 C 529.866 0.394081 -4.27487 0
M  V30 5691 C 529.099 1.34068 -5.16586 0
M  V30 5692 O 529.322 2.5778 -5.08828 0
M  V30 5693 O 528.256 0.845426 -5.95933 0
M  V30 5694 H 532.082 -0.588691 -2.9794 0
M  V30 5695 H 529.667 -0.353784 -1.45151 0
M  V30 5696 H 531.549 1.70261 -3.85473 0
M  V30 5697 H 530.224 1.83556 -2.66625 0
M  V30 5698 H 529.131 -0.220869 -3.73447 0
M  V30 5699 H 530.464 -0.270939 -4.91454 0
M  V30 5700 N 532.116 1.54067 -0.331816 0
M  V30 5701 C 533.026 2.28322 0.539104 0
M  V30 5702 C 534.042 1.32985 1.1221 0
M  V30 5703 O 535.218 1.6601 1.1403 0
M  V30 5704 C 532.283 3.03277 1.68 0
M  V30 5705 C 531.344 4.14216 1.12798 0
M  V30 5706 C 530.577 4.85588 2.2145 0
M  V30 5707 O 530.8 4.56536 3.41952 0
M  V30 5708 O 529.734 5.72309 1.86404 0
M  V30 5709 H 533.56 3.03632 -0.0641692 0
M  V30 5710 H 531.145 1.49083 -0.0972365 0
M  V30 5711 H 533.027 3.50189 2.34405 0
M  V30 5712 H 531.702 2.30834 2.2693 0
M  V30 5713 H 530.609 3.71635 0.428782 0
M  V30 5714 H 531.942 4.88727 0.583698 0
M  V30 5715 N 533.594 0.0601682 1.57485 0
M  V30 5716 C 534.557 -0.896373 2.10945 0
M  V30 5717 C 535.557 -1.23402 1.03095 0
M  V30 5718 O 536.747 -1.16921 1.29132 0
M  V30 5719 C 533.879 -2.20346 2.60116 0
M  V30 5720 H 535.072 -0.432778 2.96761 0
M  V30 5721 H 532.625 -0.188372 1.55161 0
M  V30 5722 H 533.36 -2.71268 1.7772 0
M  V30 5723 H 533.145 -1.9714 3.38937 0
M  V30 5724 H 534.635 -2.88846 3.01592 0
M  V30 5725 N 535.072 -1.5615 -0.213296 0
M  V30 5726 C 535.982 -1.96265 -1.28519 0
M  V30 5727 C 536.998 -0.86765 -1.50824 0
M  V30 5728 O 538.174 -1.17191 -1.63793 0
M  V30 5729 C 535.239 -2.27836 -2.61327 0
M  V30 5730 C 534.3 -3.50949 -2.47252 0
M  V30 5731 C 533.533 -3.81004 -3.73727 0
M  V30 5732 O 533.756 -3.12612 -4.77106 0
M  V30 5733 O 532.69 -4.74477 -3.70344 0
M  V30 5734 H 536.516 -2.87631 -0.974795 0
M  V30 5735 H 534.101 -1.43467 -0.416832 0
M  V30 5736 H 535.983 -2.49299 -3.39747 0
M  V30 5737 H 534.658 -1.39643 -2.9203 0
M  V30 5738 H 533.565 -3.34754 -1.67004 0
M  V30 5739 H 534.898 -4.39551 -2.21486 0
M  V30 5740 N 536.55 0.480323 -1.50102 0
M  V30 5741 C 537.827 1.24159 -1.51142 0
M  V30 5742 C 538.207 2.09605 -0.250818 0
M  V30 5743 O 537.555 2.15274 0.766118 0
M  V30 5744 C 537.765 2.08057 -2.80202 0
M  V30 5745 C 539.113 2.66556 -3.30504 0
M  V30 5746 O 540.137 2.18308 -2.81461 0
M  V30 5747 O 538.996 3.54442 -4.15973 0
M  V30 5748 H 536.09 0.562928 -0.605839 0
M  V30 5749 H 538.636 0.492899 -1.62384 0
M  V30 5750 H 537.408 1.45032 -3.6343 0
M  V30 5751 H 537.031 2.90079 -2.71919 0
M  V30 5752 N 538.028 1.39524 0.732853 0
M  V30 5753 C 539.258 1.3994 1.51988 0
M  V30 5754 C 539.666 -0.00727973 1.89199 0
M  V30 5755 O 539.009 -0.989521 1.54771 0
M  V30 5756 C 539.071 2.21026 2.83527 0
M  V30 5757 C 538.735 3.69633 2.68738 0
M  V30 5758 C 539.732 4.62665 2.37143 0
M  V30 5759 C 537.417 4.13244 2.85542 0
M  V30 5760 C 539.411 5.97291 2.22536 0
M  V30 5761 C 537.098 5.47945 2.70554 0
M  V30 5762 C 538.096 6.39783 2.39097 0
M  V30 5763 O 537.784 7.72002 2.24204 0
M  V30 5764 H 537.516 0.479795 0.476206 0
M  V30 5765 H 540.07 1.8399 0.913054 0
M  V30 5766 H 538.3 1.71728 3.46477 0
M  V30 5767 H 539.989 2.13594 3.45156 0
M  V30 5768 H 540.755 4.30272 2.2381 0
M  V30 5769 H 536.634 3.42094 3.09019 0
M  V30 5770 H 540.178 6.68939 1.97905 0
M  V30 5771 H 536.075 5.79928 2.83466 0
M  V30 5772 H 536.843 7.8275 2.39258 0
M  V30 5773 N 539.506 -0.963266 1.24736 0
M  V30 5774 C 540.783 -1.68248 0.9976 0
M  V30 5775 C 541.163 -2.05599 -0.478776 0
M  V30 5776 O 540.511 -1.7626 -1.45412 0
M  V30 5777 C 540.721 -2.91118 1.92487 0
M  V30 5778 C 542.069 -3.63261 2.19833 0
M  V30 5779 O 543.093 -3.01184 1.90176 0
M  V30 5780 O 541.952 -4.75019 2.7022 0
M  V30 5781 H 539.046 -0.735744 0.377637 0
M  V30 5782 H 541.592 -1.01696 1.35853 0
M  V30 5783 H 540.364 -2.60242 2.92215 0
M  V30 5784 H 539.987 -3.65402 1.56738 0
M  V30 5785 N 540.985 -1.06182 -1.16461 0
M  V30 5786 C 542.262 -0.691364 -1.82974 0
M  V30 5787 C 542.642 0.827377 -1.9421 0
M  V30 5788 O 541.99 1.73723 -1.48434 0
M  V30 5789 C 542.2 -1.39199 -3.20038 0
M  V30 5790 C 543.548 -1.53647 -3.95825 0
M  V30 5791 O 544.572 -1.35181 -3.29552 0
M  V30 5792 O 543.431 -1.83932 -5.14618 0
M  V30 5793 H 540.525 -0.244605 -0.789998 0
M  V30 5794 H 543.071 -1.16203 -1.23673 0
M  V30 5795 H 541.843 -2.42766 -3.06888 0
M  V30 5796 H 541.466 -0.911335 -3.87015 0
M  V30 5797 N 542.463 1.3308 -0.844243 0
M  V30 5798 C 543.74 1.92178 -0.364261 0
M  V30 5799 C 544.12 1.76961 1.15101 0
M  V30 5800 O 543.468 1.16128 1.9679 0
M  V30 5801 C 543.678 3.393 -0.817106 0
M  V30 5802 C 545.026 4.16444 -0.828236 0
M  V30 5803 O 546.05 3.47975 -0.761062 0
M  V30 5804 O 544.909 5.38685 -0.920926 0
M  V30 5805 H 542.003 0.820411 -0.10419 0
M  V30 5806 H 544.549 1.41918 -0.930453 0
M  V30 5807 H 543.321 3.44272 -1.85991 0
M  V30 5808 H 542.944 3.96947 -0.227785 0
M  V30 5809 N 543.941 0.601185 1.45683 0
M  V30 5810 C 544.871 -0.108824 2.33246 0
M  V30 5811 C 545.852 -0.865223 1.46451 0
M  V30 5812 O 547.037 -0.83704 1.75235 0
M  V30 5813 C 544.167 -1.11101 3.2905 0
M  V30 5814 C 543.121 -0.468244 4.25431 0
M  V30 5815 C 542.447 -1.57822 5.10878 0
M  V30 5816 C 543.747 0.606469 5.18767 0
M  V30 5817 H 545.441 0.622306 2.92861 0
M  V30 5818 H 542.987 0.300714 1.40825 0
M  V30 5819 H 544.94 -1.61622 3.89174 0
M  V30 5820 H 543.664 -1.87265 2.67581 0
M  V30 5821 H 542.323 0.0160484 3.66596 0
M  V30 5822 H 541.971 -2.32998 4.45781 0
M  V30 5823 H 541.671 -1.15369 5.76163 0
M  V30 5824 H 543.195 -2.08583 5.73869 0
M  V30 5825 H 544.609 0.185589 5.73 0
M  V30 5826 H 543.006 0.952381 5.92494 0
M  V30 5827 H 544.076 1.48559 4.61582 0
M  V30 5828 N 545.419 -1.53889 0.339982 0
M  V30 5829 C 546.647 -2.05271 -0.259114 0
M  V30 5830 C 547.062 -1.21517 -1.44496 0
M  V30 5831 O 546.419 -0.24966 -1.80784 0
M  V30 5832 C 546.47 -3.55092 -0.677634 0
M  V30 5833 O 546.191 -4.35667 0.461051 0
M  V30 5834 C 547.692 -4.22631 -1.33782 0
M  V30 5835 H 544.912 -0.669085 -0.0506566 0
M  V30 5836 H 547.456 -1.9852 0.490935 0
M  V30 5837 H 545.611 -3.62077 -1.37763 0
M  V30 5838 H 546.025 -5.24343 0.128144 0
M  V30 5839 H 547.499 -5.28861 -1.58145 0
M  V30 5840 H 547.976 -3.74758 -2.29027 0
M  V30 5841 H 548.582 -4.19829 -0.679957 0
M  V30 5842 N 546.897 -0.0685191 -1.57451 0
M  V30 5843 C 548.174 0.642167 -1.84758 0
M  V30 5844 C 548.554 1.87991 -0.960344 0
M  V30 5845 O 547.902 2.28485 -0.0257894 0
M  V30 5846 C 548.112 0.982946 -3.34872 0
M  V30 5847 C 549.46 1.35784 -4.02303 0
M  V30 5848 O 550.484 1.07477 -3.39598 0
M  V30 5849 O 549.343 1.88681 -5.12895 0
M  V30 5850 H 546.437 0.318625 -0.763156 0
M  V30 5851 H 548.983 -0.0992015 -1.6941 0
M  V30 5852 H 547.755 0.10372 -3.91163 0
M  V30 5853 H 547.378 1.78119 -3.55471 0
M  V30 5854 N 548.375 1.56261 0.205012 0
M  V30 5855 C 549.6 1.84491 0.947512 0
M  V30 5856 C 550.025 0.650894 1.76479 0
M  V30 5857 O 549.383 -0.40035 1.76824 0
M  V30 5858 C 549.431 3.10863 1.82747 0
M  V30 5859 O 548.535 2.90719 2.925 0
M  V30 5860 H 547.876 0.607783 0.267386 0
M  V30 5861 H 550.406 2.03485 0.213323 0
M  V30 5862 H 550.416 3.41399 2.23407 0
M  V30 5863 H 549.091 3.97392 1.2269 0
M  V30 5864 H 547.668 2.71457 2.55667 0
M  V30 5865 N 549.853 -0.472356 1.50355 0
M  V30 5866 C 550.763 -1.59637 1.7191 0
M  V30 5867 C 551.779 -1.63247 0.602195 0
M  V30 5868 O 552.955 -1.81139 0.880369 0
M  V30 5869 C 550.02 -2.9586 1.80742 0
M  V30 5870 C 549.081 -3.02649 3.04471 0
M  V30 5871 C 548.314 -4.32374 3.12872 0
M  V30 5872 O 548.537 -5.22807 2.28099 0
M  V30 5873 O 547.471 -4.44728 4.05587 0
M  V30 5874 H 551.297 -1.44373 2.67189 0
M  V30 5875 H 548.882 -0.651717 1.34436 0
M  V30 5876 H 550.764 -3.7677 1.88739 0
M  V30 5877 H 549.439 -3.11325 0.88647 0
M  V30 5878 H 548.346 -2.20821 3.01975 0
M  V30 5879 H 549.679 -2.92119 3.9614 0
M  V30 5880 N 551.331 -1.39911 -0.725443 0
M  V30 5881 C 552.264 -1.33788 -1.84867 0
M  V30 5882 C 553.242 -0.209907 -1.61239 0
M  V30 5883 O 554.426 -0.391943 -1.8438 0
M  V30 5884 C 551.553 -1.07975 -3.21028 0
M  V30 5885 C 550.599 -2.23092 -3.635 0
M  V30 5886 S 551.432 -3.85431 -3.71757 0
M  V30 5887 C 552.588 -3.61862 -5.10692 0
M  V30 5888 H 552.821 -2.28848 -1.89779 0
M  V30 5889 H 550.354 -1.26079 -0.891254 0
M  V30 5890 H 552.312 -0.937669 -3.99647 0
M  V30 5891 H 550.973 -0.145865 -3.13761 0
M  V30 5892 H 550.166 -2.00647 -4.62338 0
M  V30 5893 H 549.768 -2.33553 -2.92112 0
M  V30 5894 H 552.06 -3.19719 -5.97316 0
M  V30 5895 H 553.003 -4.60196 -5.38169 0
M  V30 5896 H 553.411 -2.95757 -4.8082 0
M  V30 5897 N 552.809 0.956637 -1.25245 0
M  V30 5898 C 554.086 1.67716 -1.00651 0
M  V30 5899 C 554.466 2.0585 0.467866 0
M  V30 5900 O 553.814 1.77029 1.44475 0
M  V30 5901 C 554.024 2.90093 -1.94028 0
M  V30 5902 C 555.372 3.6209 -2.21756 0
M  V30 5903 O 556.396 3.00171 -1.9177 0
M  V30 5904 O 555.255 4.7358 -2.72735 0
M  V30 5905 H 552.349 0.733731 -0.381533 0
M  V30 5906 H 554.895 1.00974 -1.3639 0
M  V30 5907 H 553.667 2.58689 -2.93591 0
M  V30 5908 H 553.29 3.64566 -1.58674 0
M  V30 5909 N 554.287 1.06798 1.15896 0
M  V30 5910 C 555.533 0.788934 1.86825 0
M  V30 5911 C 555.866 -0.683084 1.8179 0
M  V30 5912 O 555.141 -1.50086 1.23711 0
M  V30 5913 C 555.424 1.29065 3.36176 0
M  V30 5914 C 555.277 2.8268 3.49874 0
M  V30 5915 C 556.596 0.902655 4.30744 0
M  V30 5916 H 553.715 0.288066 0.678371 0
M  V30 5917 H 556.357 1.32479 1.36195 0
M  V30 5918 H 554.507 0.834806 3.79425 0
M  V30 5919 H 556.179 3.36511 3.15528 0
M  V30 5920 H 554.422 3.21157 2.91617 0
M  V30 5921 H 555.093 3.12852 4.54783 0
M  V30 5922 H 557.569 1.29535 3.95424 0
M  V30 5923 H 556.445 1.28111 5.3374 0
M  V30 5924 H 556.706 -0.191951 4.41683 0
M  V30 5925 N 555.766 -1.3263 0.851289 0
M  V30 5926 C 557.012 -1.9766 0.453694 0
M  V30 5927 C 557.345 -1.67225 -0.987396 0
M  V30 5928 O 556.62 -0.958693 -1.69232 0
M  V30 5929 C 556.903 -3.5344 0.68936 0
M  V30 5930 C 556.756 -3.93517 2.17862 0
M  V30 5931 C 558.075 -4.39866 0.143555 0
M  V30 5932 H 555.194 -0.717989 0.166314 0
M  V30 5933 H 557.836 -1.57068 1.06909 0
M  V30 5934 H 555.986 -3.88147 0.165546 0
M  V30 5935 H 557.658 -3.69006 2.76826 0
M  V30 5936 H 555.901 -3.42798 2.65841 0
M  V30 5937 H 556.572 -5.02065 2.29422 0
M  V30 5938 H 559.048 -4.11875 0.591451 0
M  V30 5939 H 557.924 -5.47858 0.338043 0
M  V30 5940 H 558.185 -4.31696 -0.953466 0
M  V30 5941 N 557.244 -0.608902 -1.45362 0
M  V30 5942 C 558.66 -0.272659 -1.57254 0
M  V30 5943 C 558.86 1.22477 -1.60005 0
M  V30 5944 O 557.916 2.00785 -1.53106 0
M  V30 5945 C 559.229 -0.944991 -2.85465 0
M  V30 5946 C 560.777 -0.921033 -2.99142 0
M  V30 5947 C 561.252 -1.5734 -4.30126 0
M  V30 5948 N 562.743 -1.53895 -4.36887 0
M  V30 5949 C 563.478 -2.01286 -5.36909 0
M  V30 5950 N 562.974 -2.56768 -6.43461 0
M  V30 5951 N 564.767 -1.92046 -5.28275 0
M  V30 5952 H 556.918 -1.58117 -1.4182 0
M  V30 5953 H 559.181 -0.662437 -0.678146 0
M  V30 5954 H 558.887 -1.99941 -2.89338 0
M  V30 5955 H 558.761 -0.469079 -3.74272 0
M  V30 5956 H 561.148 0.124846 -2.94836 0
M  V30 5957 H 561.229 -1.43522 -2.11743 0
M  V30 5958 H 560.873 -2.61862 -4.35191 0
M  V30 5959 H 560.803 -1.03422 -5.16344 0
M  V30 5960 H 563.294 -1.13366 -3.60495 0
M  V30 5961 H 563.607 -2.9072 -7.16032 0
M  V30 5962 H 561.952 -2.60808 -6.44208 0
M  V30 5963 H 565.143 -1.48439 -4.43941 0
M  V30 5964 H 565.316 -2.29293 -6.06077 0
M  V30 5965 N 558.722 1.53707 -0.348139 0
M  V30 5966 C 559.969 2.00988 0.246966 0
M  V30 5967 C 560.297 1.23586 1.50189 0
M  V30 5968 O 559.552 0.312817 1.93184 0
M  V30 5969 C 559.851 3.52292 0.602061 0
M  V30 5970 C 559.517 4.47453 -0.556509 0
M  V30 5971 C 558.179 4.73188 -0.874446 0
M  V30 5972 C 560.531 5.03851 -1.33354 0
M  V30 5973 C 557.859 5.52577 -1.9717 0
M  V30 5974 C 560.211 5.84437 -2.42108 0
M  V30 5975 C 558.875 6.08465 -2.74456 0
M  V30 5976 H 558.145 0.735469 0.0903712 0
M  V30 5977 H 560.792 1.85464 -0.477001 0
M  V30 5978 H 559.097 3.65672 1.40681 0
M  V30 5979 H 560.794 3.86337 1.07447 0
M  V30 5980 H 557.384 4.27558 -0.298652 0
M  V30 5981 H 561.568 4.8393 -1.10117 0
M  V30 5982 H 556.824 5.69418 -2.22651 0
M  V30 5983 H 560.998 6.27151 -3.02745 0
M  V30 5984 H 558.625 6.69768 -3.59604 0
M  V30 5985 N 560.2 0.0768682 1.57412 0
M  V30 5986 C 561.477 -0.632359 1.85096 0
M  V30 5987 C 561.857 -1.87479 0.9703 0
M  V30 5988 O 561.205 -2.28469 0.0379062 0
M  V30 5989 C 561.415 -0.965174 3.35388 0
M  V30 5990 C 562.763 -1.33648 4.03018 0
M  V30 5991 O 563.787 -1.05675 3.40164 0
M  V30 5992 O 562.646 -1.85959 5.13889 0
M  V30 5993 H 559.74 -0.314574 0.764835 0
M  V30 5994 H 562.286 0.108184 1.69355 0
M  V30 5995 H 561.058 -0.0829745 3.91212 0
M  V30 5996 H 560.681 -1.76231 3.5641 0
M  V30 5997 N 561.678 -1.56367 -0.196722 0
M  V30 5998 C 562.955 -1.71359 -0.943159 0
M  V30 5999 C 563.335 -0.631192 -2.01443 0
M  V30 6000 O 562.683 0.358071 -2.25677 0
M  V30 6001 C 562.893 -3.13623 -1.53106 0
M  V30 6002 C 564.241 -3.73806 -2.01381 0
M  V30 6003 O 565.265 -3.16742 -1.62951 0
M  V30 6004 O 564.124 -4.73951 -2.7209 0
M  V30 6005 H 561.218 -0.698851 -0.442195 0
M  V30 6006 H 563.764 -1.68672 -0.186547 0
M  V30 6007 H 562.536 -3.83873 -0.758785 0
M  V30 6008 H 562.159 -3.20532 -2.35255 0
M  V30 6009 N 563.156 0.464375 -1.50603 0
M  V30 6010 C 564.433 1.22549 -1.5245 0
M  V30 6011 C 564.813 2.09327 -0.273035 0
M  V30 6012 O 564.161 2.16074 0.743242 0
M  V30 6013 C 564.371 2.05074 -2.82393 0
M  V30 6014 C 565.719 2.63036 -3.33313 0
M  V30 6015 O 566.743 2.1531 -2.8376 0
M  V30 6016 O 565.602 3.5001 -4.19709 0
M  V30 6017 H 562.696 0.556471 -0.611775 0
M  V30 6018 H 565.242 0.475648 -1.62898 0
M  V30 6019 H 564.014 1.41169 -3.64948 0
M  V30 6020 H 563.637 2.87179 -2.7498 0
M  V30 6021 N 564.634 1.40294 0.718013 0
M  V30 6022 C 565.582 1.40536 1.85344 0
M  V30 6023 C 566.576 0.286192 1.66965 0
M  V30 6024 O 567.782 0.457105 1.74099 0
M  V30 6025 H 564.157 0.439236 0.61039 0
M  V30 6026 H 566.128 2.36275 1.82255 0
M  V30 6027 C 564.877 1.28245 3.23185 0
M  V30 6028 H 564.2 2.1364 3.37932 0
M  V30 6029 H 565.64 1.32474 4.02774 0
M  V30 6030 C 564.099 -0.0075503 3.36899 0
M  V30 6031 O 564.629 -0.971391 3.89778 0
M  V30 6032 N 562.835 -0.0762479 2.905 0
M  V30 6033 H 562.382 0.708819 2.47656 0
M  V30 6034 H 562.34 -0.938846 3.00055 0
M  V30 6035 N 566.112 -0.949982 1.2575 0
M  V30 6036 C 567.337 -1.73503 1.13628 0
M  V30 6037 C 567.762 -1.85601 -0.30559 0
M  V30 6038 O 567.12 -1.33984 -1.22139 0
M  V30 6039 C 567.168 -3.1243 1.80055 0
M  V30 6040 O 566.272 -3.97916 1.08336 0
M  V30 6041 H 565.613 -0.532665 0.396439 0
M  V30 6042 H 568.143 -1.19043 1.66403 0
M  V30 6043 H 568.153 -3.62866 1.86527 0
M  V30 6044 H 566.828 -3.02941 2.84956 0
M  V30 6045 H 565.405 -3.56375 1.09777 0
M  V30 6046 N 567.59 -1.07411 -1.15328 0
M  V30 6047 C 569.001 -0.820261 -1.67716 0
M  V30 6048 C 569.352 0.654539 -1.8496 0
M  V30 6049 O 568.477 1.50664 -1.55337 0
M  V30 6050 C 569.072 -1.48242 -3.04647 0
M  V30 6051 C 567.631 -1.27606 -3.5411 0
M  V30 6052 C 566.778 -1.5517 -2.29821 0
M  V30 6053 H 569.729 -1.23608 -0.995332 0
M  V30 6054 H 569.75 -0.903984 -3.69606 0
M  V30 6055 H 569.262 -2.55578 -2.92064 0
M  V30 6056 H 567.363 -0.222948 -3.71932 0
M  V30 6057 H 567.476 -1.99667 -4.35511 0
M  V30 6058 H 565.84 -0.972747 -2.35393 0
M  V30 6059 H 566.623 -2.63689 -2.19824 0
M  V30 6060 N 569.068 1.32177 -0.85831 0
M  V30 6061 C 570.293 2.01847 -0.476718 0
M  V30 6062 C 570.718 1.64065 0.920021 0
M  V30 6063 O 570.076 0.843189 1.60499 0
M  V30 6064 C 570.124 3.55097 -0.627578 0
M  V30 6065 O 569.228 4.11012 0.338086 0
M  V30 6066 H 568.569 0.635907 -0.191099 0
M  V30 6067 H 571.099 1.68641 -1.15851 0
M  V30 6068 H 571.109 4.04718 -0.516476 0
M  V30 6069 H 569.784 3.81938 -1.64609 0
M  V30 6070 H 568.361 3.72451 0.182917 0
M  V30 6071 N 570.547 0.616602 1.45037 0
M  V30 6072 C 571.794 0.115331 2.02171 0
M  V30 6073 C 572.122 -1.25748 1.48383 0
M  V30 6074 O 571.377 -1.84511 0.652229 0
M  V30 6075 C 571.676 0.0356829 3.57382 0
M  V30 6076 C 571.342 1.34535 4.30362 0
M  V30 6077 C 570.004 1.70408 4.50016 0
M  V30 6078 C 572.356 2.21049 4.72003 0
M  V30 6079 C 569.684 2.92529 5.0857 0
M  V30 6080 C 572.036 3.42427 5.31908 0
M  V30 6081 C 570.7 3.78541 5.49784 0
M  V30 6082 H 569.97 0.0422024 0.739797 0
M  V30 6083 H 572.617 0.80002 1.73988 0
M  V30 6084 H 570.922 -0.732314 3.84895 0
M  V30 6085 H 572.619 -0.368463 3.99304 0
M  V30 6086 H 569.209 1.05615 4.15383 0
M  V30 6087 H 573.393 1.94632 4.56544 0
M  V30 6088 H 568.649 3.20605 5.20598 0
M  V30 6089 H 572.823 4.09709 5.63127 0
M  V30 6090 H 570.45 4.73255 5.94923 0
M  V30 6091 N 572.025 -1.5352 0.356285 0
M  V30 6092 C 573.274 -2.00298 -0.237373 0
M  V30 6093 C 573.587 -1.24784 -1.50627 0
M  V30 6094 O 574.793 -1.62103 -2.17795 0
M  V30 6095 C 573.249 -3.56771 -0.473545 0
M  V30 6096 C 572.857 -4.41154 0.780183 0
M  V30 6097 C 574.601 -4.1193 -1.02537 0
M  V30 6098 C 572.508 -5.89161 0.514108 0
M  V30 6099 H 571.438 -0.748307 -0.092478 0
M  V30 6100 H 574.089 -1.77283 0.473588 0
M  V30 6101 H 572.471 -3.75902 -1.24553 0
M  V30 6102 H 573.645 -4.33797 1.55425 0
M  V30 6103 H 571.96 -3.97052 1.25455 0
M  V30 6104 H 574.557 -5.20133 -1.2396 0
M  V30 6105 H 574.9 -3.65943 -1.98473 0
M  V30 6106 H 575.433 -3.96561 -0.313775 0
M  V30 6107 H 572.172 -6.39408 1.44355 0
M  V30 6108 H 571.692 -5.9939 -0.221632 0
M  V30 6109 H 573.371 -6.46857 0.136122 0
M  V30 6110 N 573.503 -0.0852151 -1.57369 0
M  V30 6111 C 574.435 0.907099 -2.10486 0
M  V30 6112 C 575.448 1.25259 -1.03991 0
M  V30 6113 O 576.637 1.20743 -1.31467 0
M  V30 6114 C 573.737 2.21908 -2.56145 0
M  V30 6115 C 572.91 2.05042 -3.86363 0
M  V30 6116 C 571.969 3.19664 -4.17973 0
M  V30 6117 O 570.995 2.94062 -4.87356 0
M  V30 6118 N 572.197 4.45151 -3.72587 0
M  V30 6119 H 574.962 0.453505 -2.96249 0
M  V30 6120 H 572.523 0.100157 -1.6159 0
M  V30 6121 H 574.515 2.97519 -2.74343 0
M  V30 6122 H 573.085 2.58723 -1.75446 0
M  V30 6123 H 572.305 1.13819 -3.77411 0
M  V30 6124 H 573.593 1.91039 -4.71574 0
M  V30 6125 H 572.991 4.68834 -3.16561 0
M  V30 6126 H 571.548 5.17744 -3.9596 0
M  V30 6127 N 574.981 1.5647 0.188427 0
M  V30 6128 C 576.23 1.80207 0.905995 0
M  V30 6129 C 576.543 0.659579 1.84144 0
M  V30 6130 O 577.749 0.781431 2.60011 0
M  V30 6131 C 576.205 3.19255 1.66145 0
M  V30 6132 C 575.813 4.41324 0.770504 0
M  V30 6133 C 577.557 3.52298 2.36826 0
M  V30 6134 C 575.464 5.71394 1.52521 0
M  V30 6135 H 574.394 0.671953 0.342045 0
M  V30 6136 H 577.045 1.82808 0.159164 0
M  V30 6137 H 575.427 3.10922 2.45242 0
M  V30 6138 H 576.601 4.60797 0.0177261 0
M  V30 6139 H 574.916 4.16035 0.174199 0
M  V30 6140 H 577.513 4.46715 2.93854 0
M  V30 6141 H 577.856 2.76359 3.11338 0
M  V30 6142 H 578.389 3.62108 1.6469 0
M  V30 6143 H 575.128 6.50316 0.82275 0
M  V30 6144 H 574.648 5.55928 2.25175 0
M  V30 6145 H 576.327 6.12747 2.07725 0
M  V30 6146 N 576.459 -0.456382 1.50847 0
M  V30 6147 C 577.875 -0.791345 1.386 0
M  V30 6148 C 578.075 -1.9633 0.453498 0
M  V30 6149 O 577.131 -2.52308 -0.0984353 0
M  V30 6150 C 578.444 -1.08959 2.80265 0
M  V30 6151 C 579.992 -1.19517 2.89283 0
M  V30 6152 C 580.467 -1.52647 4.31814 0
M  V30 6153 N 581.958 -1.59609 4.34832 0
M  V30 6154 C 582.693 -1.86777 5.42127 0
M  V30 6155 N 582.189 -2.11866 6.59609 0
M  V30 6156 N 583.982 -1.88402 5.29586 0
M  V30 6157 H 576.133 0.315746 2.1004 0
M  V30 6158 H 578.396 0.0787916 0.94472 0
M  V30 6159 H 578.102 -0.301355 3.50407 0
M  V30 6160 H 577.976 -2.02211 3.18419 0
M  V30 6161 H 580.363 -1.97406 2.19351 0
M  V30 6162 H 580.444 -0.242111 2.54652 0
M  V30 6163 H 580.088 -0.752922 5.02288 0
M  V30 6164 H 580.018 -2.49127 4.63943 0
M  V30 6165 H 582.509 -1.42201 3.50125 0
M  V30 6166 H 582.822 -2.31912 7.37182 0
M  V30 6167 H 581.167 -2.09228 6.62758 0
M  V30 6168 H 584.358 -1.68307 4.36795 0
M  V30 6169 H 584.531 -2.09238 6.13289 0
M  V30 6170 N 577.937 -1.40673 -0.710563 0
M  V30 6171 C 579.162 -1.42741 -1.50465 0
M  V30 6172 C 579.587 -0.0302116 -1.88076 0
M  V30 6173 O 578.945 0.962945 -1.53613 0
M  V30 6174 C 578.993 -2.32873 -2.75322 0
M  V30 6175 O 578.097 -1.77544 -3.72226 0
M  V30 6176 H 577.438 -0.485056 -0.45345 0
M  V30 6177 H 579.968 -1.84961 -0.874681 0
M  V30 6178 H 579.978 -2.48233 -3.23797 0
M  V30 6179 H 578.653 -3.34401 -2.47283 0
M  V30 6180 H 577.23 -1.71556 -3.31093 0
M  V30 6181 N 579.415 0.9433 -1.26252 0
M  V30 6182 C 580.661 1.69175 -1.11837 0
M  V30 6183 C 580.994 1.91238 0.337891 0
M  V30 6184 O 580.269 1.49152 1.24836 0
M  V30 6185 C 580.552 3.06783 -1.88563 0
M  V30 6186 C 580.405 2.9206 -3.42083 0
M  V30 6187 C 581.724 4.06865 -1.67776 0
M  V30 6188 H 578.843 0.61399 -0.407658 0
M  V30 6189 H 581.485 1.09572 -1.55222 0
M  V30 6190 H 579.635 3.57663 -1.51689 0
M  V30 6191 H 581.307 2.48419 -3.88698 0
M  V30 6192 H 579.55 2.27731 -3.69217 0
M  V30 6193 H 580.221 3.89651 -3.90994 0
M  V30 6194 H 582.697 3.64939 -1.99897 0
M  V30 6195 H 581.573 5.01168 -2.23879 0
M  V30 6196 H 581.834 4.37705 -0.621816 0
M  V30 6197 N 580.893 1.08022 1.14757 0
M  V30 6198 C 581.856 0.71048 2.1791 0
M  V30 6199 C 582.856 -0.252731 1.58801 0
M  V30 6200 O 584.046 -0.0327915 1.74169 0
M  V30 6201 C 581.178 0.0483203 3.40866 0
M  V30 6202 H 582.371 1.62384 2.52134 0
M  V30 6203 H 579.924 0.877595 1.29337 0
M  V30 6204 H 580.659 -0.876959 3.12218 0
M  V30 6205 H 580.444 0.741189 3.85031 0
M  V30 6206 H 581.934 -0.195471 4.17142 0
M  V30 6207 N 582.371 -1.3172 0.865308 0
M  V30 6208 C 583.318 -2.2863 0.315736 0
M  V30 6209 C 584.288 -1.55524 -0.583213 0
M  V30 6210 O 585.473 -1.83694 -0.51585 0
M  V30 6211 C 582.613 -3.41735 -0.480773 0
M  V30 6212 C 581.726 -4.297 0.445167 0
M  V30 6213 C 580.861 -5.29944 -0.365012 0
M  V30 6214 C 579.9 -6.09554 0.557651 0
M  V30 6215 N 579.037 -7.01768 -0.215994 0
M  V30 6216 H 583.877 -2.75026 1.14736 0
M  V30 6217 H 581.414 -1.35302 0.577209 0
M  V30 6218 H 583.372 -4.06045 -0.958306 0
M  V30 6219 H 582.002 -2.96461 -1.27714 0
M  V30 6220 H 581.054 -3.65875 1.04113 0
M  V30 6221 H 582.366 -4.85295 1.15284 0
M  V30 6222 H 581.52 -5.99908 -0.905255 0
M  V30 6223 H 580.259 -4.74994 -1.106 0
M  V30 6224 H 579.264 -5.38485 1.10969 0
M  V30 6225 H 580.489 -6.66591 1.29742 0
M  V30 6226 H 578.435 -6.49232 -0.939878 0
M  V30 6227 H 578.352 -7.54762 0.432431 0
M  V30 6228 H 579.62 -7.76002 -0.737618 0
M  V30 6229 N 583.85 -0.624285 -1.44708 0
M  V30 6230 C 584.797 0.0847135 -2.30644 0
M  V30 6231 C 585.767 0.843575 -1.43084 0
M  V30 6232 O 586.952 0.825982 -1.71995 0
M  V30 6233 C 584.091 1.06495 -3.28257 0
M  V30 6234 C 583.205 0.305224 -4.3092 0
M  V30 6235 C 582.34 1.27667 -5.1563 0
M  V30 6236 C 581.379 0.505706 -6.10007 0
M  V30 6237 N 580.516 1.42727 -6.8744 0
M  V30 6238 H 585.356 -0.654068 -2.90733 0
M  V30 6239 H 582.893 -0.334334 -1.4325 0
M  V30 6240 H 584.851 1.64658 -3.83332 0
M  V30 6241 H 583.481 1.77094 -2.69884 0
M  V30 6242 H 582.533 -0.392207 -3.78373 0
M  V30 6243 H 583.845 -0.295553 -4.97924 0
M  V30 6244 H 582.999 1.92984 -5.75189 0
M  V30 6245 H 581.738 1.91137 -4.48685 0
M  V30 6246 H 580.743 -0.160999 -5.49564 0
M  V30 6247 H 581.968 -0.124183 -6.78986 0
M  V30 6248 H 579.913 2.04931 -6.23169 0
M  V30 6249 H 579.831 0.880345 -7.50857 0
M  V30 6250 H 581.099 2.0695 -7.51526 0
M  V30 6251 N 585.328 1.53329 -0.364422 0
M  V30 6252 C 586.278 2.22472 0.499024 0
M  V30 6253 C 587.262 1.21952 1.0496 0
M  V30 6254 O 588.454 1.47405 0.979836 0
M  V30 6255 C 585.583 3.01659 1.6388 0
M  V30 6256 C 584.669 4.09555 1.10116 0
M  V30 6257 N 585.06 5.04988 0.286414 0
M  V30 6258 C 583.358 4.2424 1.37608 0
M  V30 6259 C 584.059 5.81699 -0.00781682 0
M  V30 6260 N 583.035 5.40394 0.589494 0
M  V30 6261 H 586.837 2.93611 -0.130284 0
M  V30 6262 H 584.351 1.61483 -0.172377 0
M  V30 6263 H 586.348 3.4971 2.26954 0
M  V30 6264 H 585.008 2.32051 2.27118 0
M  V30 6265 H 586.019 5.17847 -0.0742839 0
M  V30 6266 H 582.696 3.65858 2.01133 0
M  V30 6267 H 584.086 6.68587 -0.666394 0
M  V30 6268 N 586.806 0.0935595 1.57322 0
M  V30 6269 C 588.217 -0.435807 1.81542 0
M  V30 6270 C 588.568 -1.68263 1.00907 0
M  V30 6271 O 587.693 -2.15087 0.237983 0
M  V30 6272 C 588.288 -0.797436 3.29282 0
M  V30 6273 C 586.847 -1.27155 3.54272 0
M  V30 6274 C 585.994 -0.267455 2.76007 0
M  V30 6275 H 588.945 0.31902 1.5546 0
M  V30 6276 H 588.966 -1.6571 3.42521 0
M  V30 6277 H 588.478 0.110206 3.87943 0
M  V30 6278 H 586.579 -2.19696 3.00939 0
M  V30 6279 H 586.692 -1.23445 4.62923 0
M  V30 6280 H 585.056 -0.749282 2.43429 0
M  V30 6281 H 585.839 0.632839 3.37417 0
M  V30 6282 N 588.284 -1.56567 -0.180126 0
M  V30 6283 C 589.231 -1.95725 -1.22313 0
M  V30 6284 C 590.201 -0.819911 -1.44453 0
M  V30 6285 O 591.386 -1.07931 -1.57339 0
M  V30 6286 C 588.526 -2.31484 -2.55947 0
M  V30 6287 C 587.639 -3.58354 -2.4126 0
M  V30 6288 C 586.774 -3.83366 -3.67701 0
M  V30 6289 C 585.813 -5.03612 -3.47909 0
M  V30 6290 N 584.95 -5.24802 -4.66398 0
M  V30 6291 H 589.79 -2.84642 -0.882198 0
M  V30 6292 H 587.327 -1.4085 -0.42422 0
M  V30 6293 H 589.285 -2.50237 -3.33822 0
M  V30 6294 H 587.915 -1.45689 -2.88053 0
M  V30 6295 H 586.967 -3.47565 -1.54606 0
M  V30 6296 H 588.279 -4.46386 -2.22577 0
M  V30 6297 H 587.433 -4.02439 -4.54013 0
M  V30 6298 H 586.172 -2.93692 -3.89353 0
M  V30 6299 H 585.177 -4.84447 -2.59983 0
M  V30 6300 H 586.402 -5.94809 -3.27688 0
M  V30 6301 H 584.348 -4.38079 -4.88286 0
M  V30 6302 H 584.265 -6.07041 -4.50596 0
M  V30 6303 H 585.533 -5.48346 -5.54019 0
M  V30 6304 N 589.762 0.448376 -1.51087 0
M  V30 6305 C 590.99 1.22143 -1.66999 0
M  V30 6306 C 591.405 1.85283 -0.362699 0
M  V30 6307 O 590.762 1.70236 0.65772 0
M  V30 6308 C 590.813 2.31357 -2.7777 0
M  V30 6309 O 590.534 1.70801 -4.03434 0
M  V30 6310 C 592.035 3.21836 -3.04855 0
M  V30 6311 H 589.255 0.368558 -0.560719 0
M  V30 6312 H 591.799 0.532618 -1.97442 0
M  V30 6313 H 589.954 2.95973 -2.49958 0
M  V30 6314 H 590.368 2.42895 -4.64868 0
M  V30 6315 H 591.842 3.94627 -3.85971 0
M  V30 6316 H 592.319 3.81949 -2.16821 0
M  V30 6317 H 592.925 2.62933 -3.34285 0
M  V30 6318 N 591.24 1.41047 0.703093 0
M  V30 6319 C 592.486 1.41209 1.46396 0
M  V30 6320 C 592.841 0.0180188 1.92392 0
M  V30 6321 O 592.134 -0.954739 1.66118 0
M  V30 6322 C 592.328 2.34686 2.6955 0
M  V30 6323 C 592.157 3.83044 2.35601 0
M  V30 6324 C 590.927 4.51777 2.26331 0
M  V30 6325 C 593.125 4.74215 1.9906 0
M  V30 6326 N 591.107 5.85302 1.85188 0
M  V30 6327 C 592.478 5.96631 1.68616 0
M  V30 6328 C 594.533 4.61932 1.85805 0
M  V30 6329 C 593.236 7.08134 1.26249 0
M  V30 6330 C 595.262 5.73389 1.44842 0
M  V30 6331 C 594.624 6.94899 1.15304 0
M  V30 6332 H 590.723 0.571951 0.533288 0
M  V30 6333 H 593.307 1.76859 0.814179 0
M  V30 6334 H 591.478 2.01143 3.32259 0
M  V30 6335 H 593.21 2.25618 3.35974 0
M  V30 6336 H 589.965 4.05618 2.44482 0
M  V30 6337 H 590.389 6.56049 1.67119 0
M  V30 6338 H 595.031 3.68494 2.07298 0
M  V30 6339 H 592.749 8.01445 1.035 0
M  V30 6340 H 596.335 5.65886 1.35146 0
M  V30 6341 H 595.215 7.79679 0.840854 0
M  V30 6342 N 592.718 -0.936591 1.26751 0
M  V30 6343 C 593.964 -1.6858 1.12733 0
M  V30 6344 C 594.297 -1.91414 -0.327745 0
M  V30 6345 O 593.572 -1.49812 -1.24043 0
M  V30 6346 C 593.855 -3.05779 1.90187 0
M  V30 6347 C 593.708 -2.90242 3.43627 0
M  V30 6348 C 595.027 -4.0597 1.69931 0
M  V30 6349 H 592.146 -0.61182 0.410908 0
M  V30 6350 H 594.788 -1.08747 1.55801 0
M  V30 6351 H 592.938 -3.56853 1.53584 0
M  V30 6352 H 594.61 -2.46354 3.9001 0
M  V30 6353 H 592.853 -2.2577 3.70419 0
M  V30 6354 H 593.524 -3.87572 3.93055 0
M  V30 6355 H 596 -3.63874 2.0183 0
M  V30 6356 H 594.876 -4.99974 2.26534 0
M  V30 6357 H 595.137 -4.37369 0.64502 0
M  V30 6358 N 594.196 -1.08629 -1.14182 0
M  V30 6359 C 595.146 -0.687882 -2.17376 0
M  V30 6360 C 596.13 0.293632 -1.58198 0
M  V30 6361 O 597.322 0.105292 -1.76687 0
M  V30 6362 C 594.451 -0.101184 -3.43151 0
M  V30 6363 C 593.537 -1.10862 -4.09354 0
M  V30 6364 N 593.928 -2.29285 -4.50846 0
M  V30 6365 C 592.226 -0.944897 -4.35876 0
M  V30 6366 C 592.927 -2.93305 -5.02342 0
M  V30 6367 N 591.903 -2.20903 -4.96692 0
M  V30 6368 H 595.705 -1.58963 -2.472 0
M  V30 6369 H 593.219 -0.961329 -1.3089 0
M  V30 6370 H 595.216 0.202209 -4.16409 0
M  V30 6371 H 593.876 0.795522 -3.14804 0
M  V30 6372 H 594.887 -2.66927 -4.43813 0
M  V30 6373 H 591.564 -0.102186 -4.17375 0
M  V30 6374 H 592.954 -3.93932 -5.44304 0
M  V30 6375 N 595.674 1.31259 -0.872281 0
M  V30 6376 C 596.904 2.00504 -0.498183 0
M  V30 6377 C 597.312 1.65632 0.914479 0
M  V30 6378 O 596.655 0.882849 1.61095 0
M  V30 6379 C 596.717 3.5482 -0.578194 0
M  V30 6380 C 596.381 4.13172 -1.95289 0
M  V30 6381 C 597.378 4.30107 -2.92069 0
M  V30 6382 C 595.063 4.48846 -2.25483 0
M  V30 6383 C 597.057 4.81908 -4.17185 0
M  V30 6384 C 594.744 5.00349 -3.50847 0
M  V30 6385 C 595.742 5.16831 -4.46514 0
M  V30 6386 O 595.43 5.67228 -5.69656 0
M  V30 6387 H 595.162 0.648055 -0.192354 0
M  V30 6388 H 597.716 1.6841 -1.17589 0
M  V30 6389 H 595.946 3.86383 0.156438 0
M  V30 6390 H 597.635 4.05318 -0.217192 0
M  V30 6391 H 598.401 4.02862 -2.7005 0
M  V30 6392 H 594.28 4.35292 -1.51795 0
M  V30 6393 H 597.824 4.94688 -4.91863 0
M  V30 6394 H 593.721 5.27028 -3.72708 0
M  V30 6395 H 594.489 5.85592 -5.7186 0
M  V30 6396 N 597.152 0.631951 1.44375 0
M  V30 6397 C 598.401 0.134214 2.01253 0
M  V30 6398 C 598.714 -1.25171 1.50305 0
M  V30 6399 O 599.92 -1.8435 1.99317 0
M  V30 6400 C 598.376 0.189187 3.59402 0
M  V30 6401 C 597.984 1.57647 4.19346 0
M  V30 6402 C 599.728 -0.252044 4.23751 0
M  V30 6403 C 597.635 1.58651 5.69722 0
M  V30 6404 H 596.565 0.0464101 0.75257 0
M  V30 6405 H 599.216 0.790868 1.65582 0
M  V30 6406 H 597.598 -0.534584 3.92375 0
M  V30 6407 H 598.772 2.32389 3.97909 0
M  V30 6408 H 597.087 1.96186 3.67288 0
M  V30 6409 H 599.684 -0.264084 5.34047 0
M  V30 6410 H 600.027 -1.27951 3.96149 0
M  V30 6411 H 600.56 0.41926 3.95584 0
M  V30 6412 H 597.299 2.59237 6.0206 0
M  V30 6413 H 596.819 0.882039 5.93279 0
M  V30 6414 H 598.498 1.32082 6.33375 0
M  V30 6415 N 598.631 -1.53133 0.372548 0
M  V30 6416 C 599.594 -2.24569 -0.458389 0
M  V30 6417 C 600.594 -1.25603 -1.00402 0
M  V30 6418 O 601.784 -1.49827 -0.888672 0
M  V30 6419 C 598.916 -2.98783 -1.6414 0
M  V30 6420 H 600.109 -2.99436 0.166799 0
M  V30 6421 H 597.662 -1.55805 0.124357 0
M  V30 6422 H 598.397 -2.28176 -2.30448 0
M  V30 6423 H 598.182 -3.71404 -1.25704 0
M  V30 6424 H 599.672 -3.53068 -2.23008 0
M  V30 6425 N 600.109 -0.101901 -1.5727 0
M  V30 6426 C 601.072 0.840129 -2.13247 0
M  V30 6427 C 602.072 1.20625 -1.06331 0
M  V30 6428 O 603.262 1.13456 -1.32186 0
M  V30 6429 C 600.394 2.13372 -2.65867 0
M  V30 6430 H 601.587 0.353945 -2.97804 0
M  V30 6431 H 599.14 0.147167 -1.55606 0
M  V30 6432 H 599.875 2.66461 -1.84849 0
M  V30 6433 H 599.66 1.88085 -3.44044 0
M  V30 6434 H 601.15 2.80748 -3.09145 0
M  V30 6435 N 601.587 1.56661 0.17182 0
M  V30 6436 C 602.497 1.99604 1.2327 0
M  V30 6437 C 603.513 0.907333 1.4847 0
M  V30 6438 O 604.689 1.21492 1.60629 0
M  V30 6439 C 601.754 2.34685 2.55194 0
M  V30 6440 C 600.815 3.57381 2.3786 0
M  V30 6441 C 600.048 3.90779 3.63494 0
M  V30 6442 O 600.271 3.25152 4.6865 0
M  V30 6443 O 599.205 4.84129 3.57634 0
M  V30 6444 H 603.031 2.90114 0.898192 0
M  V30 6445 H 600.616 1.44522 0.378647 0
M  V30 6446 H 602.498 2.5822 3.33017 0
M  V30 6447 H 601.173 1.47336 2.88225 0
M  V30 6448 H 600.08 3.39064 1.5807 0
M  V30 6449 H 601.413 4.45268 2.09754 0
M  V30 6450 N 603.065 -0.440357 1.51323 0
M  V30 6451 C 603.975 -1.55955 1.75258 0
M  V30 6452 C 604.991 -1.61933 0.636687 0
M  V30 6453 O 606.167 -1.79231 0.918593 0
M  V30 6454 C 603.232 -2.9196 1.86977 0
M  V30 6455 C 602.293 -2.96122 3.10822 0
M  V30 6456 C 601.526 -4.2564 3.21973 0
M  V30 6457 O 601.749 -5.17851 2.39137 0
M  V30 6458 O 600.683 -4.36025 4.14929 0
M  V30 6459 H 604.509 -1.38673 2.70191 0
M  V30 6460 H 602.094 -0.623055 1.35788 0
M  V30 6461 H 603.976 -3.72682 1.96688 0
M  V30 6462 H 602.651 -3.09375 0.952307 0
M  V30 6463 H 601.558 -2.14366 3.06591 0
M  V30 6464 H 602.891 -2.83651 4.02247 0
M  V30 6465 N 604.543 -1.41418 -0.695603 0
M  V30 6466 C 605.453 -1.45622 -1.83933 0
M  V30 6467 C 606.469 -0.346825 -1.70508 0
M  V30 6468 O 607.645 -0.59454 -1.92424 0
M  V30 6469 C 604.71 -1.33627 -3.19914 0
M  V30 6470 C 603.771 -2.54882 -3.45447 0
M  V30 6471 C 603.004 -2.43449 -4.7494 0
M  V30 6472 O 603.227 -1.45905 -5.51424 0
M  V30 6473 O 602.161 -3.33206 -5.01256 0
M  V30 6474 H 605.987 -2.42114 -1.83342 0
M  V30 6475 H 603.572 -1.22956 -0.848658 0
M  V30 6476 H 605.454 -1.29221 -4.01098 0
M  V30 6477 H 604.129 -0.402508 -3.21188 0
M  V30 6478 H 603.036 -2.64865 -2.64192 0
M  V30 6479 H 604.369 -3.47087 -3.48987 0
M  V30 6480 N 606.021 0.929856 -1.27246 0
M  V30 6481 C 607.298 1.65544 -1.04186 0
M  V30 6482 C 607.678 2.06796 0.424097 0
M  V30 6483 O 607.026 1.80053 1.40688 0
M  V30 6484 C 607.236 2.85912 -2.00138 0
M  V30 6485 C 608.584 3.57305 -2.29387 0
M  V30 6486 O 609.608 2.96036 -1.98094 0
M  V30 6487 O 608.467 4.67688 -2.82719 0
M  V30 6488 H 605.561 0.725473 -0.397011 0
M  V30 6489 H 608.107 0.980583 -1.38501 0
M  V30 6490 H 606.879 2.52403 -2.99013 0
M  V30 6491 H 606.502 3.61118 -1.66371 0
M  V30 6492 N 607.499 1.09233 1.13605 0
M  V30 6493 C 608.745 0.838255 1.85324 0
M  V30 6494 C 609.1 -0.629314 1.81817 0
M  V30 6495 O 608.393 -1.45729 1.24393 0
M  V30 6496 C 608.587 1.305 3.32723 0
M  V30 6497 C 608.416 2.81641 3.50583 0
M  V30 6498 C 607.186 3.49494 3.64941 0
M  V30 6499 C 609.384 3.79789 3.46792 0
M  V30 6500 N 607.366 4.89082 3.71042 0
M  V30 6501 C 608.737 5.05319 3.59239 0
M  V30 6502 C 610.792 3.72673 3.30181 0
M  V30 6503 C 609.495 6.24574 3.56791 0
M  V30 6504 C 611.521 4.91413 3.29039 0
M  V30 6505 C 610.883 6.15785 3.42035 0
M  V30 6506 H 606.982 0.359572 0.69443 0
M  V30 6507 H 609.566 1.39232 1.36098 0
M  V30 6508 H 607.737 0.778411 3.8052 0
M  V30 6509 H 609.469 0.996465 3.92241 0
M  V30 6510 H 606.224 2.9992 3.66531 0
M  V30 6511 H 606.648 5.61787 3.77789 0
M  V30 6512 H 611.29 2.77444 3.19037 0
M  V30 6513 H 609.008 7.20105 3.66708 0
M  V30 6514 H 612.594 4.87604 3.17386 0
M  V30 6515 H 611.474 7.06126 3.41111 0
M  V30 6516 N 608.977 -1.30795 0.87923 0
M  V30 6517 C 610.254 -1.91145 0.415086 0
M  V30 6518 C 610.634 -1.7995 -1.10368 0
M  V30 6519 O 609.982 -1.21305 -1.93642 0
M  V30 6520 C 610.192 -3.37014 0.906778 0
M  V30 6521 C 611.54 -4.14101 0.938358 0
M  V30 6522 O 612.564 -3.45834 0.853053 0
M  V30 6523 O 611.423 -5.36054 1.06342 0
M  V30 6524 H 608.517 -0.81736 0.125905 0
M  V30 6525 H 611.063 -1.39401 0.967753 0
M  V30 6526 H 609.835 -3.3922 1.95053 0
M  V30 6527 H 609.458 -3.96204 0.332948 0
M  V30 6528 N 610.455 -0.639598 -1.44038 0
M  V30 6529 C 611.685 -0.154586 -2.06021 0
M  V30 6530 C 612.093 1.17951 -1.47933 0
M  V30 6531 O 611.436 1.73627 -0.59994 0
M  V30 6532 C 611.498 0.0255459 -3.59491 0
M  V30 6533 C 611.162 -1.2317 -4.40089 0
M  V30 6534 C 612.159 -2.15735 -4.73027 0
M  V30 6535 C 609.844 -1.46949 -4.80324 0
M  V30 6536 C 611.838 -3.30382 -5.45093 0
M  V30 6537 C 609.525 -2.61891 -5.52138 0
M  V30 6538 C 610.523 -3.53433 -5.84443 0
M  V30 6539 O 610.211 -4.6637 -6.54793 0
M  V30 6540 H 609.943 -0.0808543 -0.671147 0
M  V30 6541 H 612.497 -0.876541 -1.85758 0
M  V30 6542 H 610.727 0.802733 -3.78276 0
M  V30 6543 H 612.416 0.466184 -4.03214 0
M  V30 6544 H 613.182 -1.98602 -4.42473 0
M  V30 6545 H 609.061 -0.765815 -4.54595 0
M  V30 6546 H 612.605 -4.01856 -5.70226 0
M  V30 6547 H 608.502 -2.78964 -5.82108 0
M  V30 6548 H 609.27 -4.6546 -6.73267 0
M  V30 6549 N 611.933 1.52934 -0.380664 0
M  V30 6550 C 612.896 2.24809 0.446473 0
M  V30 6551 C 613.896 1.26133 0.997347 0
M  V30 6552 O 615.086 1.50297 0.880714 0
M  V30 6553 C 612.218 2.99649 1.62553 0
M  V30 6554 H 613.411 2.99343 -0.182677 0
M  V30 6555 H 610.964 1.55736 -0.132618 0
M  V30 6556 H 611.699 2.29395 2.29235 0
M  V30 6557 H 611.484 3.72066 1.23732 0
M  V30 6558 H 612.974 3.54246 2.21133 0
M  V30 6559 N 613.412 0.11024 1.57214 0
M  V30 6560 C 614.823 -0.416527 1.81994 0
M  V30 6561 C 615.174 -1.67183 1.02686 0
M  V30 6562 O 614.299 -2.14823 0.260782 0
M  V30 6563 C 614.894 -0.762466 3.30109 0
M  V30 6564 C 613.453 -1.23391 3.556 0
M  V30 6565 C 612.6 -0.238166 2.76275 0
M  V30 6566 H 615.551 0.335491 1.55113 0
M  V30 6567 H 615.572 -1.62068 3.44259 0
M  V30 6568 H 615.084 0.151346 3.87805 0
M  V30 6569 H 613.185 -2.16492 3.03253 0
M  V30 6570 H 613.298 -1.18528 4.64207 0
M  V30 6571 H 611.662 -0.723421 2.4421 0
M  V30 6572 H 612.445 0.668591 3.36727 0
M  V30 6573 N 614.89 -1.56749 -0.16351 0
M  V30 6574 C 615.82 -2.00042 -1.20438 0
M  V30 6575 C 616.801 -0.877256 -1.45733 0
M  V30 6576 O 617.986 -1.1439 -1.56935 0
M  V30 6577 C 615.116 -2.36697 -2.54149 0
M  V30 6578 C 614.07 -3.52046 -2.43408 0
M  V30 6579 C 613.396 -3.74466 -3.81679 0
M  V30 6580 C 614.696 -4.85247 -1.93216 0
M  V30 6581 H 616.39 -2.87244 -0.844477 0
M  V30 6582 H 613.936 -1.38194 -0.40478 0
M  V30 6583 H 615.889 -2.65582 -3.27176 0
M  V30 6584 H 614.613 -1.46414 -2.91943 0
M  V30 6585 H 613.272 -3.23301 -1.72834 0
M  V30 6586 H 612.92 -2.81461 -4.1688 0
M  V30 6587 H 612.62 -4.52084 -3.75359 0
M  V30 6588 H 614.144 -4.0576 -4.5628 0
M  V30 6589 H 615.558 -5.12957 -2.56023 0
M  V30 6590 H 613.955 -5.66556 -1.97825 0
M  V30 6591 H 615.025 -4.7672 -0.88689 0
M  V30 6592 N 616.368 0.432326 -1.51554 0
M  V30 6593 C 617.614 1.18309 -1.64714 0
M  V30 6594 C 617.947 1.90745 -0.364696 0
M  V30 6595 O 617.222 1.8381 0.635936 0
M  V30 6596 C 617.505 2.1961 -2.85383 0
M  V30 6597 C 617.358 1.51223 -4.23617 0
M  V30 6598 C 618.677 3.20538 -3.01569 0
M  V30 6599 H 615.796 0.428751 -0.599451 0
M  V30 6600 H 618.438 0.471689 -1.84052 0
M  V30 6601 H 616.588 2.8028 -2.69027 0
M  V30 6602 H 618.26 0.938516 -4.51652 0
M  V30 6603 H 616.503 0.814501 -4.26085 0
M  V30 6604 H 617.174 2.25024 -5.04052 0
M  V30 6605 H 619.65 2.69926 -3.16669 0
M  V30 6606 H 618.526 3.88706 -3.87555 0
M  V30 6607 H 618.787 3.86933 -2.13859 0
M  V30 6608 N 617.846 1.41785 0.688094 0
M  V30 6609 C 618.776 1.47 1.8142 0
M  V30 6610 C 619.757 0.327881 1.6691 0
M  V30 6611 O 620.942 0.540362 1.86531 0
M  V30 6612 C 618.072 1.35876 3.19617 0
M  V30 6613 C 617.026 2.47976 3.48844 0
M  V30 6614 C 616.352 2.21915 4.86475 0
M  V30 6615 C 617.652 3.90309 3.47068 0
M  V30 6616 H 619.346 2.41247 1.77314 0
M  V30 6617 H 616.892 1.16116 0.851651 0
M  V30 6618 H 618.845 1.38134 3.98117 0
M  V30 6619 H 617.569 0.38116 3.24368 0
M  V30 6620 H 616.228 2.45013 2.72698 0
M  V30 6621 H 615.876 1.2248 4.8786 0
M  V30 6622 H 615.576 2.97037 5.06994 0
M  V30 6623 H 617.1 2.25901 5.67275 0
M  V30 6624 H 618.514 3.94947 4.1556 0
M  V30 6625 H 616.911 4.65175 3.7912 0
M  V30 6626 H 617.981 4.17927 2.45896 0
M  V30 6627 N 619.324 -0.923095 1.27737 0
M  V30 6628 C 620.287 -2.00587 1.10894 0
M  V30 6629 C 621.287 -1.60718 0.0514927 0
M  V30 6630 O 622.477 -1.71658 0.296481 0
M  V30 6631 C 619.609 -3.33829 0.690717 0
M  V30 6632 H 620.802 -2.16959 2.07048 0
M  V30 6633 H 618.355 -1.10451 1.1059 0
M  V30 6634 H 619.09 -3.23157 -0.272 0
M  V30 6635 H 618.875 -3.64125 1.45448 0
M  V30 6636 H 620.365 -4.13336 0.595252 0
M  V30 6637 N 620.802 -1.09834 -1.13024 0
M  V30 6638 C 622.213 -0.855651 -1.65938 0
M  V30 6639 C 622.564 0.615159 -1.86307 0
M  V30 6640 O 621.689 1.47335 -1.58497 0
M  V30 6641 C 622.284 -1.5467 -3.01434 0
M  V30 6642 C 620.843 -1.35088 -3.51323 0
M  V30 6643 C 619.99 -1.6001 -2.26478 0
M  V30 6644 H 622.941 -1.25691 -0.968889 0
M  V30 6645 H 622.962 -0.982179 -3.67605 0
M  V30 6646 H 622.474 -2.61715 -2.86578 0
M  V30 6647 H 620.575 -0.30179 -3.71376 0
M  V30 6648 H 620.688 -2.0886 -4.31178 0
M  V30 6649 H 619.052 -1.02246 -2.33276 0
M  V30 6650 H 619.835 -2.68293 -2.14182 0
M  V30 6651 N 622.28 1.30327 -0.886154 0
M  V30 6652 C 623.557 1.90922 -0.425217 0
M  V30 6653 C 623.937 1.80533 1.09413 0
M  V30 6654 O 623.285 1.2233 1.92996 0
M  V30 6655 C 623.495 3.36529 -0.924638 0
M  V30 6656 C 624.843 4.13598 -0.960305 0
M  V30 6657 O 625.867 3.45377 -0.871382 0
M  V30 6658 O 624.726 5.35482 -1.09184 0
M  V30 6659 H 621.82 0.81668 -0.130238 0
M  V30 6660 H 624.366 1.38886 -0.975132 0
M  V30 6661 H 623.138 3.38181 -1.96849 0
M  V30 6662 H 622.761 3.96021 -0.353955 0
M  V30 6663 N 623.758 0.647228 1.43697 0
M  V30 6664 C 625.035 0.0883758 1.954 0
M  V30 6665 C 625.415 -1.39006 1.58873 0
M  V30 6666 O 624.763 -2.11255 0.87083 0
M  V30 6667 C 624.973 0.328263 3.47453 0
M  V30 6668 C 626.321 0.230009 4.23977 0
M  V30 6669 O 627.345 0.260496 3.55246 0
M  V30 6670 O 626.204 0.148615 5.46298 0
M  V30 6671 H 623.298 -0.0130683 0.826897 0
M  V30 6672 H 625.844 0.72005 1.53666 0
M  V30 6673 H 624.616 1.3535 3.67146 0
M  V30 6674 H 624.239 -0.336772 3.96171 0
M  V30 6675 N 625.236 -1.5273 0.388769 0
M  V30 6676 C 626.652 -1.59553 0.0387049 0
M  V30 6677 C 626.852 -1.40278 -1.44652 0
M  V30 6678 O 625.908 -1.21951 -2.21098 0
M  V30 6679 C 627.221 -2.9625 0.515409 0
M  V30 6680 C 628.769 -3.09426 0.471621 0
M  V30 6681 C 629.244 -4.48572 0.924505 0
M  V30 6682 N 630.735 -4.54754 0.880496 0
M  V30 6683 C 631.47 -5.60653 1.20234 0
M  V30 6684 N 630.966 -6.74198 1.59463 0
M  V30 6685 N 632.759 -5.50755 1.12363 0
M  V30 6686 H 624.91 -1.63508 1.35569 0
M  V30 6687 H 627.173 -0.768097 0.555636 0
M  V30 6688 H 626.879 -3.15569 1.5527 0
M  V30 6689 H 626.753 -3.77102 -0.085792 0
M  V30 6690 H 629.14 -2.89804 -0.556588 0
M  V30 6691 H 629.221 -2.30528 1.10862 0
M  V30 6692 H 628.865 -4.68936 1.95094 0
M  V30 6693 H 628.795 -5.25935 0.264524 0
M  V30 6694 H 631.286 -3.73237 0.591815 0
M  V30 6695 H 631.599 -7.5097 1.82385 0
M  V30 6696 H 629.944 -6.75531 1.63349 0
M  V30 6697 H 633.135 -4.6093 0.816169 0
M  V30 6698 H 633.308 -6.33184 1.37777 0
M  V30 6699 N 626.714 -0.118576 -1.57153 0
M  V30 6700 C 627.939 0.550582 -1.99958 0
M  V30 6701 C 628.364 1.59458 -0.997736 0
M  V30 6702 O 627.722 1.81274 0.0306269 0
M  V30 6703 C 627.77 1.15379 -3.41643 0
M  V30 6704 O 626.874 2.26932 -3.44348 0
M  V30 6705 H 626.215 0.137567 -0.649593 0
M  V30 6706 H 628.745 -0.206926 -2.03551 0
M  V30 6707 H 628.755 1.48942 -3.79843 0
M  V30 6708 H 627.43 0.389087 -4.14076 0
M  V30 6709 H 626.007 1.94812 -3.17967 0
M  V30 6710 N 628.193 1.56834 0.155195 0
M  V30 6711 C 629.423 1.86778 0.883044 0
M  V30 6712 C 629.831 0.703824 1.75622 0
M  V30 6713 O 629.174 -0.33581 1.80605 0
M  V30 6714 C 629.236 3.1133 1.79761 0
M  V30 6715 C 628.9 4.43504 1.10242 0
M  V30 6716 C 629.897 5.17859 0.460204 0
M  V30 6717 C 627.582 4.90233 1.09437 0
M  V30 6718 C 629.576 6.37144 -0.180782 0
M  V30 6719 C 627.263 6.09444 0.449569 0
M  V30 6720 C 628.261 6.82744 -0.186888 0
M  V30 6721 O 627.949 7.99692 -0.821486 0
M  V30 6722 H 627.681 0.62352 0.261149 0
M  V30 6723 H 630.235 2.04813 0.155204 0
M  V30 6724 H 628.465 2.89282 2.56618 0
M  V30 6725 H 630.154 3.27587 2.39669 0
M  V30 6726 H 630.92 4.8283 0.458289 0
M  V30 6727 H 626.799 4.33109 1.57917 0
M  V30 6728 H 630.343 6.94296 -0.678154 0
M  V30 6729 H 626.24 6.43936 0.449123 0
M  V30 6730 H 627.008 8.15306 -0.722337 0
M  V30 6731 N 629.671 -0.424282 1.51781 0
M  V30 6732 C 630.618 -1.51591 1.74037 0
M  V30 6733 C 631.588 -1.55556 0.582358 0
M  V30 6734 O 632.773 -1.72364 0.818245 0
M  V30 6735 C 629.913 -2.89188 1.8832 0
M  V30 6736 C 629.026 -2.9465 3.1592 0
M  V30 6737 C 628.161 -4.23452 3.20721 0
M  V30 6738 C 627.2 -4.22831 4.42584 0
M  V30 6739 N 626.337 -5.43178 4.44862 0
M  V30 6740 H 631.177 -1.31917 2.67212 0
M  V30 6741 H 628.714 -0.640599 1.32419 0
M  V30 6742 H 630.672 -3.69044 1.94583 0
M  V30 6743 H 629.302 -3.07392 0.985402 0
M  V30 6744 H 628.354 -2.07378 3.18902 0
M  V30 6745 H 629.666 -2.90055 4.05795 0
M  V30 6746 H 628.82 -5.1169 3.25973 0
M  V30 6747 H 627.559 -4.30722 2.28757 0
M  V30 6748 H 626.564 -3.32984 4.37495 0
M  V30 6749 H 627.789 -4.17213 5.35826 0
M  V30 6750 H 625.735 -5.51145 3.55775 0
M  V30 6751 H 625.652 -5.40515 5.28563 0
M  V30 6752 H 626.92 -6.33412 4.54324 0
M  V30 6753 N 631.149 -1.42148 -0.680565 0
M  V30 6754 C 632.374 -1.45901 -1.47403 0
M  V30 6755 C 632.799 -0.0700985 -1.87969 0
M  V30 6756 O 632.157 0.930145 -1.55621 0
M  V30 6757 C 632.205 -2.38661 -2.70321 0
M  V30 6758 O 631.309 -1.85399 -3.68376 0
M  V30 6759 H 630.65 -0.494565 -0.443059 0
M  V30 6760 H 633.18 -1.86774 -0.835251 0
M  V30 6761 H 633.19 -2.55046 -3.18458 0
M  V30 6762 H 631.865 -3.39571 -2.40134 0
M  V30 6763 H 630.442 -1.78541 -3.2738 0
M  V30 6764 N 632.627 0.916307 -1.28225 0
M  V30 6765 C 633.559 2.02303 -1.07732 0
M  V30 6766 C 634.572 1.62773 -0.0298421 0
M  V30 6767 O 635.761 1.76406 -0.272626 0
M  V30 6768 C 632.861 3.33282 -0.614504 0
M  V30 6769 C 632.034 4.01439 -1.73682 0
M  V30 6770 C 631.093 5.10698 -1.26781 0
M  V30 6771 O 630.119 5.34038 -1.96958 0
M  V30 6772 N 631.321 5.80355 -0.129624 0
M  V30 6773 H 634.086 2.20442 -2.03041 0
M  V30 6774 H 631.647 1.08744 -1.19943 0
M  V30 6775 H 633.639 4.03699 -0.284397 0
M  V30 6776 H 632.209 3.11633 0.245664 0
M  V30 6777 H 631.429 3.24604 -2.23665 0
M  V30 6778 H 632.717 4.43721 -2.48976 0
M  V30 6779 H 632.115 5.6386 0.455847 0
M  V30 6780 H 630.672 6.51647 0.141224 0
M  V30 6781 N 634.105 1.10431 1.1244 0
M  V30 6782 C 635.335 0.867612 1.87499 0
M  V30 6783 C 635.743 -0.585475 1.79913 0
M  V30 6784 O 635.086 -1.41539 1.171 0
M  V30 6785 C 635.148 1.2374 3.37533 0
M  V30 6786 C 634.812 2.69751 3.68895 0
M  V30 6787 C 635.809 3.67988 3.67261 0
M  V30 6788 C 633.494 3.06135 3.98229 0
M  V30 6789 C 635.488 5.00632 3.9452 0
M  V30 6790 C 633.175 4.38967 4.25149 0
M  V30 6791 C 634.173 5.36025 4.23281 0
M  V30 6792 O 633.861 6.66465 4.49533 0
M  V30 6793 H 633.593 0.311196 0.600111 0
M  V30 6794 H 636.147 1.47257 1.43194 0
M  V30 6795 H 634.377 0.575537 3.82393 0
M  V30 6796 H 636.066 0.978187 3.93937 0
M  V30 6797 H 636.832 3.41224 3.44661 0
M  V30 6798 H 632.711 2.31214 3.98825 0
M  V30 6799 H 636.255 5.7638 3.92978 0
M  V30 6800 H 632.152 4.6547 4.47223 0
M  V30 6801 H 632.92 6.72095 4.67152 0
M  V30 6802 N 635.583 -1.29855 0.893053 0
M  V30 6803 C 636.513 -2.3035 0.382249 0
M  V30 6804 C 637.494 -1.61328 -0.539203 0
M  V30 6805 O 638.679 -1.88882 -0.451342 0
M  V30 6806 C 635.809 -3.45024 -0.396983 0
M  V30 6807 C 634.763 -4.258 0.433437 0
M  V30 6808 C 634.089 -5.32605 -0.472889 0
M  V30 6809 C 635.389 -4.94549 1.67984 0
M  V30 6810 H 637.083 -2.73325 1.22205 0
M  V30 6811 H 634.629 -1.314 0.589073 0
M  V30 6812 H 636.582 -4.14398 -0.765024 0
M  V30 6813 H 635.306 -3.00875 -1.2705 0
M  V30 6814 H 633.965 -3.58125 0.783723 0
M  V30 6815 H 633.613 -4.84702 -1.34435 0
M  V30 6816 H 633.313 -5.87547 0.0789958 0
M  V30 6817 H 634.837 -6.04832 -0.837269 0
M  V30 6818 H 636.251 -5.56395 1.38192 0
M  V30 6819 H 634.648 -5.59393 2.17254 0
M  V30 6820 H 635.718 -4.20215 2.41965 0
M  V30 6821 N 637.061 -0.65484 -1.43351 0
M  V30 6822 C 638.009 0.0476784 -2.32551 0
M  V30 6823 C 639.003 0.811403 -1.48703 0
M  V30 6824 O 640.209 0.721621 -1.64902 0
M  V30 6825 H 636.584 0.0342038 -0.751222 0
M  V30 6826 H 638.555 -0.722342 -2.89525 0
M  V30 6827 C 637.304 0.999251 -3.33032 0
M  V30 6828 H 636.627 0.421005 -3.97577 0
M  V30 6829 H 638.067 1.45986 -3.98076 0
M  V30 6830 C 636.526 2.09606 -2.63756 0
M  V30 6831 O 637.056 3.18004 -2.4543 0
M  V30 6832 N 635.262 1.86207 -2.23103 0
M  V30 6833 H 634.809 0.980555 -2.38208 0
M  V30 6834 H 634.767 2.59787 -1.77081 0
M  V30 6835 N 638.539 1.52521 -0.396863 0
M  V30 6836 C 639.487 2.28217 0.44943 0
M  V30 6837 C 640.481 1.32416 1.05652 0
M  V30 6838 O 641.687 1.49925 0.996124 0
M  V30 6839 H 638.062 0.733966 0.1637 0
M  V30 6840 H 640.033 2.97658 -0.210367 0
M  V30 6841 C 638.782 3.10713 1.56054 0
M  V30 6842 H 638.105 3.84291 1.10273 0
M  V30 6843 H 639.545 3.66803 2.12677 0
M  V30 6844 C 638.004 2.23499 2.52091 0
M  V30 6845 O 638.534 1.8669 3.55682 0
M  V30 6846 N 636.74 1.8751 2.2201 0
M  V30 6847 H 636.287 2.17643 1.37802 0
M  V30 6848 H 636.245 1.29448 2.86514 0
M  V30 6849 N 640.017 0.126909 1.57088 0
M  V30 6850 C 641.265 -0.528123 1.95078 0
M  V30 6851 C 641.586 -1.66708 1.0116 0
M  V30 6852 O 640.856 -1.95777 0.0693527 0
M  V30 6853 H 639.436 -0.198087 0.720257 0
M  V30 6854 H 642.098 0.197703 1.93895 0
M  V30 6855 H 641.194 -0.917507 2.98309 0
M  V30 6856 N 641.495 -1.56914 -0.146875 0
M  V30 6857 C 642.906 -1.72799 -0.706928 0
M  V30 6858 C 643.257 -0.741329 -1.81656 0
M  V30 6859 O 642.382 0.0920162 -2.16204 0
M  V30 6860 C 642.977 -3.13317 -1.28911 0
M  V30 6861 C 641.536 -3.30803 -1.79573 0
M  V30 6862 C 640.683 -2.68725 -0.684252 0
M  V30 6863 H 643.634 -1.58504 0.0787931 0
M  V30 6864 H 643.655 -3.13323 -2.15891 0
M  V30 6865 H 643.167 -3.85104 -0.481284 0
M  V30 6866 H 641.268 -2.64012 -2.62923 0
M  V30 6867 H 641.381 -4.38754 -1.92436 0
M  V30 6868 H 639.745 -2.29196 -1.11091 0
M  V30 6869 H 640.528 -3.43117 0.112134 0
M  V30 6870 N 642.974 0.416227 -1.52004 0
M  V30 6871 C 643.906 1.52552 -1.71058 0
M  V30 6872 C 644.919 1.51693 -0.59102 0
M  V30 6873 O 646.108 1.56087 -0.865973 0
M  V30 6874 C 643.208 2.91455 -1.72937 0
M  V30 6875 C 642.381 3.16584 -3.01816 0
M  V30 6876 C 641.44 4.35322 -2.95603 0
M  V30 6877 O 640.466 4.32947 -3.6952 0
M  V30 6878 N 641.668 5.40049 -2.12903 0
M  V30 6879 H 644.433 1.36604 -2.66757 0
M  V30 6880 H 641.994 0.60544 -1.50153 0
M  V30 6881 H 643.986 3.68944 -1.66321 0
M  V30 6882 H 642.556 3.00895 -0.847418 0
M  V30 6883 H 641.776 2.27203 -3.22137 0
M  V30 6884 H 643.064 3.30213 -3.87088 0
M  V30 6885 H 642.462 5.44823 -1.52265 0
M  V30 6886 H 641.019 6.16308 -2.1215 0
M  V30 6887 N 644.452 1.42507 0.673017 0
M  V30 6888 C 645.868 1.25472 0.986355 0
M  V30 6889 C 646.068 0.160181 2.00862 0
M  V30 6890 O 645.124 -0.467993 2.48125 0
M  V30 6891 C 646.437 2.61219 1.48947 0
M  V30 6892 C 647.985 2.68589 1.60715 0
M  V30 6893 C 648.46 4.04707 2.14422 0
M  V30 6894 N 649.951 4.0667 2.21752 0
M  V30 6895 C 650.686 5.0881 2.64386 0
M  V30 6896 N 650.182 6.21332 3.0646 0
M  V30 6897 N 651.975 4.96166 2.64151 0
M  V30 6898 H 644.126 2.124 -0.00378532 0
M  V30 6899 H 646.389 0.946046 0.0608367 0
M  V30 6900 H 646.095 3.42179 0.812812 0
M  V30 6901 H 645.969 2.85261 2.46791 0
M  V30 6902 H 648.356 1.87974 2.27486 0
M  V30 6903 H 648.437 2.48333 0.613552 0
M  V30 6904 H 648.081 4.8578 1.48258 0
M  V30 6905 H 648.011 4.22315 3.14575 0
M  V30 6906 H 650.502 3.25438 1.92089 0
M  V30 6907 H 650.815 6.95118 3.37684 0
M  V30 6908 H 649.16 6.24835 3.04313 0
M  V30 6909 H 652.351 4.07334 2.30644 0
M  V30 6910 H 652.524 5.759 2.97057 0
M  V30 6911 N 645.93 -0.909495 1.28709 0
M  V30 6912 C 647.179 -1.65365 1.15487 0
M  V30 6913 C 647.492 -1.93364 -0.294941 0
M  V30 6914 O 648.698 -2.65905 -0.548338 0
M  V30 6915 C 647.154 -2.97923 2.01916 0
M  V30 6916 C 646.762 -2.77556 3.51663 0
M  V30 6917 C 648.506 -3.75814 1.97393 0
M  V30 6918 C 646.413 -4.0578 4.30229 0
M  V30 6919 H 645.343 -0.620323 0.42862 0
M  V30 6920 H 647.994 -1.00894 1.53273 0
M  V30 6921 H 646.376 -3.63552 1.5699 0
M  V30 6922 H 647.55 -2.2058 4.04575 0
M  V30 6923 H 645.865 -2.13072 3.57756 0
M  V30 6924 H 648.462 -4.70866 2.53357 0
M  V30 6925 H 648.805 -4.05277 0.951643 0
M  V30 6926 H 649.338 -3.1701 2.40311 0
M  V30 6927 H 646.077 -3.81488 5.33055 0
M  V30 6928 H 645.597 -4.62351 3.82089 0
M  V30 6929 H 647.276 -4.74004 4.40374 0
M  V30 6930 N 647.408 -1.11026 -1.11852 0
M  V30 6931 C 648.656 -0.854769 -1.83134 0
M  V30 6932 C 648.977 0.621375 -1.84835 0
M  V30 6933 O 648.247 1.45129 -1.31584 0
M  V30 6934 H 646.827 -0.313229 -0.678157 0
M  V30 6935 H 649.489 -1.40178 -1.35411 0
M  V30 6936 H 648.585 -1.22311 -2.87135 0
M  V30 6937 N 648.886 1.2938 -0.899927 0
M  V30 6938 C 650.302 1.48052 -0.596059 0
M  V30 6939 C 650.502 1.82114 0.862372 0
M  V30 6940 O 649.558 1.91774 1.64253 0
M  V30 6941 C 650.871 2.59332 -1.52208 0
M  V30 6942 C 652.419 2.73208 -1.5273 0
M  V30 6943 C 652.894 3.87617 -2.43961 0
M  V30 6944 N 654.385 3.9495 -2.42009 0
M  V30 6945 C 655.12 4.82824 -3.09303 0
M  V30 6946 N 654.616 5.75387 -3.85877 0
M  V30 6947 N 656.409 4.76317 -2.98459 0
M  V30 6948 H 648.56 1.05546 -1.8432 0
M  V30 6949 H 650.823 0.524314 -0.78981 0
M  V30 6950 H 650.529 2.41029 -2.56121 0
M  V30 6951 H 650.403 3.56139 -1.24278 0
M  V30 6952 H 652.79 2.90908 -0.495614 0
M  V30 6953 H 652.871 1.76975 -1.84698 0
M  V30 6954 H 652.515 3.70672 -3.47224 0
M  V30 6955 H 652.445 4.83218 -2.09303 0
M  V30 6956 H 654.936 3.28744 -1.86375 0
M  V30 6957 H 655.249 6.39235 -4.34279 0
M  V30 6958 H 653.594 5.75272 -3.89984 0
M  V30 6959 H 656.785 4.0299 -2.38152 0
M  V30 6960 H 656.958 5.44589 -3.51179 0
M  V30 6961 N 650.364 0.662433 1.43002 0
M  V30 6962 C 651.311 -0.0235324 2.30788 0
M  V30 6963 C 652.281 -0.805342 1.4527 0
M  V30 6964 O 653.466 -0.78009 1.74124 0
M  V30 6965 C 650.606 -0.977545 3.30965 0
M  V30 6966 C 649.719 -0.190865 4.31578 0
M  V30 6967 C 648.854 -1.13951 5.18834 0
M  V30 6968 C 647.893 -0.343796 6.11134 0
M  V30 6969 N 647.03 -1.2445 6.90982 0
M  V30 6970 H 651.87 0.730921 2.88897 0
M  V30 6971 H 649.407 0.372197 1.42313 0
M  V30 6972 H 651.365 -1.54437 3.87563 0
M  V30 6973 H 649.995 -1.69877 2.74484 0
M  V30 6974 H 649.047 0.492388 3.772 0
M  V30 6975 H 650.359 0.427464 4.96965 0
M  V30 6976 H 649.513 -1.77666 5.80103 0
M  V30 6977 H 648.252 -1.79174 4.53595 0
M  V30 6978 H 647.257 0.30665 5.48944 0
M  V30 6979 H 648.482 0.304161 6.78419 0
M  V30 6980 H 646.428 -1.88336 6.28383 0
M  V30 6981 H 646.345 -0.680959 7.52927 0
M  V30 6982 H 647.613 -1.86952 7.56749 0
M  V30 6983 N 651.842 -1.52309 0.404946 0
M  V30 6984 C 653.072 -2.05886 -0.171569 0
M  V30 6985 C 653.48 -1.27527 -1.39762 0
M  V30 6986 O 652.823 -0.319215 -1.80905 0
M  V30 6987 C 652.885 -3.54609 -0.590983 0
M  V30 6988 C 652.549 -4.53989 0.523757 0
M  V30 6989 C 653.546 -5.01084 1.38604 0
M  V30 6990 C 651.231 -4.97465 0.695255 0
M  V30 6991 C 653.225 -5.90295 2.4048 0
M  V30 6992 C 650.912 -5.86473 1.71733 0
M  V30 6993 C 651.91 -6.32782 2.57051 0
M  V30 6994 O 651.598 -7.20029 3.57509 0
M  V30 6995 H 651.33 -0.675508 -0.0257763 0
M  V30 6996 H 653.884 -1.97238 0.573278 0
M  V30 6997 H 652.114 -3.60929 -1.38805 0
M  V30 6998 H 653.803 -3.90853 -1.09494 0
M  V30 6999 H 654.569 -4.68214 1.26492 0
M  V30 7000 H 650.448 -4.60982 0.0408447 0
M  V30 7001 H 653.992 -6.26363 3.07108 0
M  V30 7002 H 649.889 -6.18756 1.83877 0
M  V30 7003 H 650.657 -7.3813 3.53703 0
M  V30 7004 N 653.32 -0.135238 -1.57019 0
M  V30 7005 C 654.267 0.808908 -2.1616 0
M  V30 7006 C 655.237 1.25234 -1.09113 0
M  V30 7007 O 656.422 1.32697 -1.37099 0
M  V30 7008 C 653.562 2.04729 -2.77813 0
M  V30 7009 C 652.675 1.65074 -3.99218 0
M  V30 7010 C 651.81 2.84002 -4.48906 0
M  V30 7011 C 650.849 2.40663 -5.62803 0
M  V30 7012 N 649.986 3.5256 -6.07162 0
M  V30 7013 H 654.826 0.297751 -2.96509 0
M  V30 7014 H 652.363 0.135264 -1.46477 0
M  V30 7015 H 654.321 2.7731 -3.11697 0
M  V30 7016 H 652.951 2.53275 -2.00128 0
M  V30 7017 H 652.003 0.823029 -3.7139 0
M  V30 7018 H 653.315 1.29236 -4.81767 0
M  V30 7019 H 652.469 3.64788 -4.84783 0
M  V30 7020 H 651.208 3.23076 -3.65339 0
M  V30 7021 H 650.213 1.58314 -5.26514 0
M  V30 7022 H 651.438 2.02687 -6.48147 0
M  V30 7023 H 649.384 3.91278 -5.26534 0
M  V30 7024 H 649.301 3.20699 -6.84608 0
M  V30 7025 H 650.569 4.33738 -6.47682 0
M  V30 7026 N 654.798 1.5699 0.138552 0
M  V30 7027 C 655.745 1.98899 1.17081 0
M  V30 7028 C 656.715 0.857922 1.42228 0
M  V30 7029 O 657.9 1.12065 1.54422 0
M  V30 7030 C 655.04 2.38189 2.4972 0
M  V30 7031 C 654.153 3.64624 2.31674 0
M  V30 7032 C 653.288 3.9298 3.57407 0
M  V30 7033 C 652.327 5.1266 3.34435 0
M  V30 7034 N 651.464 5.36983 4.5232 0
M  V30 7035 H 656.304 2.86881 0.80642 0
M  V30 7036 H 653.841 1.41925 0.386727 0
M  V30 7037 H 655.799 2.59 3.2707 0
M  V30 7038 H 654.429 1.53275 2.84089 0
M  V30 7039 H 653.481 3.51542 1.45337 0
M  V30 7040 H 654.793 4.52131 2.10664 0
M  V30 7041 H 653.947 4.14335 4.43183 0
M  V30 7042 H 652.686 3.03912 3.8143 0
M  V30 7043 H 651.691 4.9117 2.47048 0
M  V30 7044 H 652.916 6.03288 3.11802 0
M  V30 7045 H 650.862 4.50871 4.76499 0
M  V30 7046 H 650.779 6.18775 4.34343 0
M  V30 7047 H 652.047 5.62842 5.39285 0
M  V30 7048 N 656.276 -0.40816 1.52223 0
M  V30 7049 C 657.522 -1.15673 1.66576 0
M  V30 7050 C 657.855 -1.90141 0.394996 0
M  V30 7051 O 657.13 -1.84798 -0.606613 0
M  V30 7052 C 657.413 -2.15042 2.88841 0
M  V30 7053 C 657.266 -1.44465 4.25969 0
M  V30 7054 C 658.585 -3.15699 3.0663 0
M  V30 7055 H 655.704 -0.41916 0.606196 0
M  V30 7056 H 658.346 -0.442348 1.84779 0
M  V30 7057 H 656.496 -2.75964 2.73452 0
M  V30 7058 H 658.168 -0.866544 4.53088 0
M  V30 7059 H 656.411 -0.746612 4.27327 0
M  V30 7060 H 657.082 -2.16976 5.07568 0
M  V30 7061 H 659.558 -2.64854 3.20923 0
M  V30 7062 H 658.434 -3.82491 3.9369 0
M  V30 7063 H 658.695 -3.83481 2.19987 0
M  V30 7064 N 657.755 -1.42862 -0.66545 0
M  V30 7065 C 659.171 -1.25993 -0.979687 0
M  V30 7066 C 659.371 -0.170831 -2.00775 0
M  V30 7067 O 658.427 0.454827 -2.4837 0
M  V30 7068 C 659.74 -2.62005 -1.47559 0
M  V30 7069 C 661.288 -2.69437 -1.59288 0
M  V30 7070 C 661.763 -4.05838 -2.12272 0
M  V30 7071 N 663.254 -4.0784 -2.19592 0
M  V30 7072 C 663.989 -5.10205 -2.61684 0
M  V30 7073 N 663.485 -6.22949 -3.03161 0
M  V30 7074 N 665.278 -4.9756 -2.61516 0
M  V30 7075 H 657.429 -2.12395 0.0150493 0
M  V30 7076 H 659.692 -0.946355 -0.0558187 0
M  V30 7077 H 659.398 -3.42605 -0.794654 0
M  V30 7078 H 659.272 -2.86566 -2.45275 0
M  V30 7079 H 661.659 -1.89178 -2.26486 0
M  V30 7080 H 661.74 -2.48655 -0.600374 0
M  V30 7081 H 661.384 -4.86559 -1.4568 0
M  V30 7082 H 661.314 -4.23977 -3.12331 0
M  V30 7083 H 663.805 -3.26452 -1.90361 0
M  V30 7084 H 664.118 -6.96899 -3.33993 0
M  V30 7085 H 662.463 -6.2644 -3.00995 0
M  V30 7086 H 665.654 -4.08551 -2.28481 0
M  V30 7087 H 665.827 -5.77468 -2.93999 0
M  V30 7088 N 659.233 0.902656 -1.29189 0
M  V30 7089 C 660.48 1.65287 -1.16989 0
M  V30 7090 C 660.808 1.92485 0.279232 0
M  V30 7091 O 660.063 1.53143 1.21843 0
M  V30 7092 C 660.362 3.011 -1.92545 0
M  V30 7093 C 660.028 2.93521 -3.42281 0
M  V30 7094 C 658.69 2.91161 -3.83117 0
M  V30 7095 C 661.042 2.82947 -4.3771 0
M  V30 7096 C 658.37 2.76043 -5.17704 0
M  V30 7097 C 660.722 2.69368 -5.72384 0
M  V30 7098 C 659.386 2.65373 -6.12482 0
M  V30 7099 H 658.656 0.604828 -0.428094 0
M  V30 7100 H 661.303 1.05084 -1.60092 0
M  V30 7101 H 659.608 3.65153 -1.42024 0
M  V30 7102 H 661.305 3.58073 -1.80512 0
M  V30 7103 H 657.895 2.96158 -3.09819 0
M  V30 7104 H 662.079 2.83849 -4.07116 0
M  V30 7105 H 657.335 2.71352 -5.47885 0
M  V30 7106 H 661.509 2.60156 -6.45981 0
M  V30 7107 H 659.136 2.53415 -7.16718 0
M  V30 7108 N 660.711 1.11618 1.11262 0
M  V30 7109 C 661.644 0.719995 2.16544 0
M  V30 7110 C 662.622 -0.28471 1.60088 0
M  V30 7111 O 663.806 -0.180693 1.87632 0
M  V30 7112 C 660.933 0.0643302 3.38639 0
M  V30 7113 C 659.979 1.03448 4.13764 0
M  V30 7114 S 660.812 2.55789 4.70459 0
M  V30 7115 C 661.968 1.91529 5.95875 0
M  V30 7116 H 662.201 1.61181 2.49816 0
M  V30 7117 H 659.734 0.934401 1.22916 0
M  V30 7118 H 661.692 -0.307609 4.09346 0
M  V30 7119 H 660.353 -0.804471 3.03623 0
M  V30 7120 H 659.546 0.523188 5.01277 0
M  V30 7121 H 659.148 1.34893 3.48826 0
M  V30 7122 H 661.44 1.25286 6.65815 0
M  V30 7123 H 662.383 2.77047 6.51652 0
M  V30 7124 H 662.791 1.37468 5.47506 0
M  V30 7125 N 662.189 -1.289 0.906776 0
M  V30 7126 C 663.152 -2.25777 0.394656 0
M  V30 7127 C 664.152 -1.53621 -0.475119 0
M  V30 7128 O 665.342 -1.71949 -0.279165 0
M  V30 7129 C 662.474 -3.38113 -0.43499 0
M  V30 7130 H 663.667 -2.72592 1.25033 0
M  V30 7131 H 661.22 -1.40463 0.685547 0
M  V30 7132 H 661.955 -2.96648 -1.31036 0
M  V30 7133 H 661.74 -3.91647 0.188334 0
M  V30 7134 H 663.23 -4.10168 -0.784365 0
M  V30 7135 N 663.667 -0.670007 -1.42649 0
M  V30 7136 C 664.897 -0.198252 -2.05647 0
M  V30 7137 C 665.305 1.14786 -1.50402 0
M  V30 7138 O 664.648 1.72316 -0.636634 0
M  V30 7139 C 664.71 -0.0507132 -3.59464 0
M  V30 7140 C 664.374 -1.32478 -4.37377 0
M  V30 7141 C 665.371 -2.2572 -4.68344 0
M  V30 7142 C 663.056 -1.57104 -4.77099 0
M  V30 7143 C 665.05 -3.4187 -5.37963 0
M  V30 7144 C 662.737 -2.73543 -5.46459 0
M  V30 7145 C 663.735 -3.65751 -5.76815 0
M  V30 7146 O 663.423 -4.80154 -6.44753 0
M  V30 7147 H 663.155 -0.0950721 -0.669281 0
M  V30 7148 H 665.709 -0.915745 -1.83857 0
M  V30 7149 H 663.939 0.722314 -3.79894 0
M  V30 7150 H 665.628 0.380552 -4.04112 0
M  V30 7151 H 666.394 -2.07943 -4.38161 0
M  V30 7152 H 662.273 -0.862069 -4.52868 0
M  V30 7153 H 665.817 -4.13861 -5.61574 0
M  V30 7154 H 661.714 -2.91248 -5.7606 0
M  V30 7155 H 662.482 -4.79637 -6.63243 0
M  V30 7156 N 665.145 1.52092 -0.413018 0
M  V30 7157 C 666.373 2.06274 0.160881 0
M  V30 7158 C 666.788 1.28273 1.38533 0
M  V30 7159 O 666.145 0.33563 1.79387 0
M  V30 7160 C 666.196 3.57921 0.507443 0
M  V30 7161 O 665.917 4.32971 -0.668388 0
M  V30 7162 C 667.418 4.28533 1.13465 0
M  V30 7163 H 664.638 0.67074 0.0186759 0
M  V30 7164 H 667.182 1.95951 -0.585092 0
M  V30 7165 H 665.337 3.68238 1.20331 0
M  V30 7166 H 665.751 5.23135 -0.378169 0
M  V30 7167 H 667.225 5.35804 1.32732 0
M  V30 7168 H 667.702 3.85258 2.10886 0
M  V30 7169 H 668.308 4.22595 0.478876 0
M  V30 7170 N 666.623 0.143563 1.56945 0
M  V30 7171 C 667.9 -0.553285 1.87612 0
M  V30 7172 C 668.28 -1.83195 1.04894 0
M  V30 7173 O 667.628 -2.28102 0.134773 0
M  V30 7174 C 667.838 -0.822055 3.3918 0
M  V30 7175 C 669.186 -1.16435 4.08324 0
M  V30 7176 O 670.21 -0.911522 3.4434 0
M  V30 7177 O 669.069 -1.63996 5.21313 0
M  V30 7178 H 666.163 -0.281851 0.777489 0
M  V30 7179 H 668.709 0.179916 1.68744 0
M  V30 7180 H 667.481 0.0830265 3.91212 0
M  V30 7181 H 667.104 -1.60956 3.63564 0
M  V30 7182 N 668.101 -1.57061 -0.130224 0
M  V30 7183 C 669.011 -2.02802 -1.17934 0
M  V30 7184 C 670.027 -0.946378 -1.46013 0
M  V30 7185 O 671.203 -1.25708 -1.57351 0
M  V30 7186 C 668.268 -2.41368 -2.48882 0
M  V30 7187 C 667.329 -3.63561 -2.28301 0
M  V30 7188 C 666.562 -4.00279 -3.53005 0
M  V30 7189 O 666.785 -3.37463 -4.59864 0
M  V30 7190 O 665.719 -4.93441 -3.44673 0
M  V30 7191 H 669.545 -2.92394 -0.820958 0
M  V30 7192 H 667.13 -1.45475 -0.340197 0
M  V30 7193 H 669.012 -2.66958 -3.26054 0
M  V30 7194 H 667.687 -1.54926 -2.84217 0
M  V30 7195 H 666.594 -3.43136 -1.49025 0
M  V30 7196 H 667.927 -4.50673 -1.97875 0
M  V30 7197 N 669.579 0.400081 -1.52437 0
M  V30 7198 C 670.807 1.16768 -1.70801 0
M  V30 7199 C 671.222 1.84036 -0.421462 0
M  V30 7200 O 670.579 1.72242 0.603228 0
M  V30 7201 C 670.63 2.22403 -2.8499 0
M  V30 7202 O 670.351 1.57879 -4.08663 0
M  V30 7203 C 671.852 3.11974 -3.1494 0
M  V30 7204 H 669.072 0.350533 -0.57216 0
M  V30 7205 H 671.616 0.469534 -1.99037 0
M  V30 7206 H 669.771 2.87871 -2.59247 0
M  V30 7207 H 670.185 2.27982 -4.7236 0
M  V30 7208 H 671.659 3.82148 -3.9833 0
M  V30 7209 H 672.136 3.74858 -2.28863 0
M  V30 7210 H 672.742 2.52165 -3.42481 0
M  V30 7211 N 671.057 1.43213 0.657864 0
M  V30 7212 C 672.304 1.44584 1.41781 0
M  V30 7213 C 672.632 0.0684208 1.9438 0
M  V30 7214 O 671.887 -0.925872 1.72413 0
M  V30 7215 C 672.186 2.43143 2.61947 0
M  V30 7216 C 671.852 3.89128 2.27794 0
M  V30 7217 C 670.514 4.28889 2.18191 0
M  V30 7218 C 672.866 4.81144 2.00375 0
M  V30 7219 C 670.194 5.58625 1.79319 0
M  V30 7220 C 672.546 6.11239 1.63003 0
M  V30 7221 C 671.21 6.49981 1.51922 0
M  V30 7222 H 670.48 0.529069 0.518813 0
M  V30 7223 H 673.127 1.76263 0.748577 0
M  V30 7224 H 671.432 2.04851 3.33981 0
M  V30 7225 H 673.129 2.4146 3.20153 0
M  V30 7226 H 669.719 3.57657 2.36176 0
M  V30 7227 H 673.903 4.512 2.06718 0
M  V30 7228 H 669.159 5.87486 1.69323 0
M  V30 7229 H 673.333 6.82014 1.40817 0
M  V30 7230 H 670.96 7.50416 1.21572 0
M  V30 7231 N 672.536 -0.895792 1.29666 0
M  V30 7232 C 673.483 -2.00035 1.15129 0
M  V30 7233 C 674.453 -1.66043 0.0435819 0
M  V30 7234 O 675.638 -1.89621 0.211811 0
M  V30 7235 C 672.778 -3.34774 0.83787 0
M  V30 7236 C 671.891 -3.81525 2.0264 0
M  V30 7237 C 671.026 -5.04858 1.65201 0
M  V30 7238 C 670.065 -5.43988 2.80612 0
M  V30 7239 N 669.202 -6.58507 2.43544 0
M  V30 7240 H 674.042 -2.11802 2.09628 0
M  V30 7241 H 671.579 -1.03719 1.04311 0
M  V30 7242 H 673.537 -4.12311 0.636824 0
M  V30 7243 H 672.167 -3.22724 -0.0702314 0
M  V30 7244 H 671.219 -2.9999 2.33903 0
M  V30 7245 H 672.531 -4.06472 2.89106 0
M  V30 7246 H 671.685 -5.8999 1.41408 0
M  V30 7247 H 670.424 -4.81759 0.758893 0
M  V30 7248 H 669.429 -4.57388 3.05083 0
M  V30 7249 H 670.654 -5.69066 3.70595 0
M  V30 7250 H 668.6 -6.37004 1.56724 0
M  V30 7251 H 668.517 -6.83269 3.23542 0
M  V30 7252 H 669.785 -7.46897 2.2308 0
M  V30 7253 N 674.014 -1.12206 -1.10668 0
M  V30 7254 C 675.242 -0.898635 -1.86366 0
M  V30 7255 C 675.657 0.551991 -1.80551 0
M  V30 7256 O 675.014 1.38152 -1.19249 0
M  V30 7257 C 675.065 -1.36199 -3.34861 0
M  V30 7258 O 674.786 -2.75576 -3.40573 0
M  V30 7259 C 676.287 -1.17515 -4.2744 0
M  V30 7260 H 673.507 -0.321281 -0.589084 0
M  V30 7261 H 676.051 -1.49142 -1.39918 0
M  V30 7262 H 674.206 -0.81249 -3.78784 0
M  V30 7263 H 674.62 -2.95851 -4.33096 0
M  V30 7264 H 676.094 -1.54827 -5.29842 0
M  V30 7265 H 676.571 -0.115486 -4.39048 0
M  V30 7266 H 677.177 -1.71203 -3.89319 0
M  V30 7267 N 675.492 1.28418 -0.913599 0
M  V30 7268 C 676.908 1.47411 -0.611728 0
M  V30 7269 C 677.108 1.83018 0.843008 0
M  V30 7270 O 676.164 1.93505 1.6221 0
M  V30 7271 C 677.477 2.57703 -1.5495 0
M  V30 7272 C 679.025 2.71572 -1.5562 0
M  V30 7273 C 679.5 3.85008 -2.48058 0
M  V30 7274 N 680.991 3.92361 -2.46184 0
M  V30 7275 C 681.726 4.79516 -3.14407 0
M  V30 7276 N 681.222 5.71262 -3.91958 0
M  V30 7277 N 683.015 4.73125 -3.03495 0
M  V30 7278 H 675.166 1.03585 -1.85429 0
M  V30 7279 H 677.429 0.515907 -0.795326 0
M  V30 7280 H 677.135 2.38298 -2.58663 0
M  V30 7281 H 677.009 3.54801 -1.28048 0
M  V30 7282 H 679.396 2.90366 -0.526441 0
M  V30 7283 H 679.477 1.75006 -1.86565 0
M  V30 7284 H 679.121 3.66969 -3.51136 0
M  V30 7285 H 679.051 4.80971 -2.14416 0
M  V30 7286 H 681.542 3.26749 -1.89851 0
M  V30 7287 H 681.855 6.34593 -4.41034 0
M  V30 7288 H 680.2 5.71103 -3.96063 0
M  V30 7289 H 683.391 4.00442 -2.42413 0
M  V30 7290 H 683.564 5.40834 -3.56935 0
M  V30 7291 N 676.97 0.677563 1.42291 0
M  V30 7292 C 677.88 0.000962654 2.346 0
M  V30 7293 C 678.896 -0.785833 1.55244 0
M  V30 7294 O 680.072 -0.727523 1.87801 0
M  V30 7295 C 677.137 -0.936746 3.33805 0
M  V30 7296 C 676.198 -0.144173 4.29058 0
M  V30 7297 C 675.431 -1.03722 5.23524 0
M  V30 7298 O 675.654 -2.27675 5.22992 0
M  V30 7299 O 674.588 -0.496542 5.99848 0
M  V30 7300 H 678.414 0.761397 2.94001 0
M  V30 7301 H 675.999 0.43781 1.42841 0
M  V30 7302 H 677.881 -1.47497 3.94744 0
M  V30 7303 H 676.556 -1.67698 2.76874 0
M  V30 7304 H 675.463 0.438224 3.71524 0
M  V30 7305 H 676.796 0.55701 4.89038 0
M  V30 7306 N 678.448 -1.51871 0.421078 0
M  V30 7307 C 679.411 -2.25914 -0.386712 0
M  V30 7308 C 680.411 -1.28733 -0.963555 0
M  V30 7309 O 681.601 -1.52579 -0.840556 0
M  V30 7310 C 678.733 -3.03853 -1.54551 0
M  V30 7311 H 679.926 -2.98754 0.261978 0
M  V30 7312 H 677.479 -1.5533 0.173862 0
M  V30 7313 H 678.214 -2.35392 -2.23072 0
M  V30 7314 H 677.999 -3.75215 -1.13824 0
M  V30 7315 H 679.489 -3.59984 -2.11663 0
M  V30 7316 N 679.926 -0.151884 -1.56866 0
M  V30 7317 C 681.175 0.497992 -1.95456 0
M  V30 7318 C 681.488 1.6569 -1.03953 0
M  V30 7319 O 682.694 2.37173 -1.32142 0
M  V30 7320 C 681.15 0.93732 -3.4748 0
M  V30 7321 C 680.758 -0.194921 -4.47576 0
M  V30 7322 C 682.502 1.55671 -3.94926 0
M  V30 7323 C 680.409 0.26295 -5.90815 0
M  V30 7324 H 679.339 0.189811 -0.729717 0
M  V30 7325 H 681.99 -0.237011 -1.81963 0
M  V30 7326 H 680.372 1.72773 -3.56322 0
M  V30 7327 H 681.546 -0.971951 -4.50433 0
M  V30 7328 H 679.861 -0.72303 -4.10075 0
M  V30 7329 H 682.458 1.91099 -4.99385 0
M  V30 7330 H 682.801 2.44748 -3.36755 0
M  V30 7331 H 683.334 0.831109 -3.89021 0
M  V30 7332 H 680.073 -0.592568 -6.52816 0
M  V30 7333 H 679.593 1.00575 -5.91308 0
M  V30 7334 H 681.272 0.713333 -6.43056 0
M  V30 7335 N 681.404 1.57128 0.121893 0
M  V30 7336 C 682.336 1.96773 1.17529 0
M  V30 7337 C 683.349 0.866668 1.37814 0
M  V30 7338 O 684.538 1.14497 1.3694 0
M  V30 7339 C 681.638 2.24832 2.53582 0
M  V30 7340 C 680.811 3.56138 2.53939 0
M  V30 7341 C 679.87 3.72443 3.71716 0
M  V30 7342 O 678.896 4.44584 3.55434 0
M  V30 7343 N 680.098 3.10993 4.90167 0
M  V30 7344 H 682.863 2.87743 0.838086 0
M  V30 7345 H 680.424 1.58881 0.311199 0
M  V30 7346 H 682.416 2.32958 3.30927 0
M  V30 7347 H 680.986 1.40002 2.79496 0
M  V30 7348 H 680.206 3.59226 1.62329 0
M  V30 7349 H 681.494 4.42448 2.51231 0
M  V30 7350 H 680.892 2.52345 5.06299 0
M  V30 7351 H 679.449 3.24644 5.65198 0
M  V30 7352 N 682.882 -0.391992 1.52647 0
M  V30 7353 C 683.832 -1.47815 1.73594 0
M  V30 7354 C 684.816 -1.49693 0.589979 0
M  V30 7355 O 686.008 -1.5538 0.847701 0
M  V30 7356 C 683.137 -2.85561 1.90551 0
M  V30 7357 C 682.223 -2.88264 3.1107 0
M  V30 7358 N 682.614 -2.60642 4.33474 0
M  V30 7359 C 680.912 -3.19432 3.11254 0
M  V30 7360 C 681.613 -2.70351 5.15058 0
M  V30 7361 N 680.589 -3.03956 4.50679 0
M  V30 7362 H 684.391 -1.2528 2.65861 0
M  V30 7363 H 681.905 -0.599907 1.50913 0
M  V30 7364 H 683.902 -3.63759 2.03678 0
M  V30 7365 H 682.562 -3.09081 0.994952 0
M  V30 7366 H 683.573 -2.34718 4.61658 0
M  V30 7367 H 680.25 -3.48436 2.29997 0
M  V30 7368 H 681.64 -2.52565 6.22624 0
M  V30 7369 N 684.36 -1.4356 -0.65026 0
M  V30 7370 C 685.27 -1.514 -1.79207 0
M  V30 7371 C 686.286 -0.400895 -1.69319 0
M  V30 7372 O 687.462 -0.655458 -1.90436 0
M  V30 7373 C 684.527 -1.43737 -3.155 0
M  V30 7374 C 683.588 -2.65743 -3.37163 0
M  V30 7375 C 682.821 -2.58436 -4.66954 0
M  V30 7376 O 683.044 -1.63374 -5.46503 0
M  V30 7377 O 681.978 -3.48984 -4.90402 0
M  V30 7378 H 685.804 -2.47825 -1.75547 0
M  V30 7379 H 683.389 -1.25594 -0.809111 0
M  V30 7380 H 685.271 -1.41916 -3.96784 0
M  V30 7381 H 683.946 -0.504488 -3.19745 0
M  V30 7382 H 682.853 -2.73136 -2.55632 0
M  V30 7383 H 684.186 -3.58014 -3.37768 0
M  V30 7384 N 685.838 0.888903 -1.30139 0
M  V30 7385 C 687.063 1.67884 -1.21777 0
M  V30 7386 C 687.488 1.86848 0.216689 0
M  V30 7387 O 686.846 1.39659 1.15608 0
M  V30 7388 C 686.894 3.03483 -1.94757 0
M  V30 7389 O 685.998 3.92294 -1.27198 0
M  V30 7390 H 685.339 0.513144 -0.421402 0
M  V30 7391 H 687.869 1.10968 -1.71893 0
M  V30 7392 H 687.879 3.53553 -2.03627 0
M  V30 7393 H 686.554 2.89 -2.99085 0
M  V30 7394 H 685.131 3.50732 -1.26655 0
M  V30 7395 N 687.317 1.12792 1.10072 0
M  V30 7396 C 688.565 0.883796 1.81751 0
M  V30 7397 C 688.886 -0.591891 1.858 0
M  V30 7398 O 688.156 -1.43017 1.33876 0
M  V30 7399 H 686.736 0.323978 0.673088 0
M  V30 7400 H 689.398 1.42314 1.33164 0
M  V30 7401 H 688.494 1.26863 2.85153 0
M  V30 7402 N 688.795 -1.27931 0.920396 0
M  V30 7403 C 690.044 -1.93975 0.552867 0
M  V30 7404 C 690.357 -1.73193 -0.909035 0
M  V30 7405 O 691.563 -2.33515 -1.38502 0
M  V30 7406 C 690.019 -3.47463 0.937947 0
M  V30 7407 C 689.627 -3.77013 2.42003 0
M  V30 7408 C 691.371 -4.19628 0.64132 0
M  V30 7409 C 689.278 -5.23841 2.74489 0
M  V30 7410 H 688.208 -0.726146 0.203046 0
M  V30 7411 H 690.859 -1.45339 1.12022 0
M  V30 7412 H 689.241 -3.94867 0.299317 0
M  V30 7413 H 690.415 -3.40393 3.10595 0
M  V30 7414 H 688.73 -3.18035 2.6878 0
M  V30 7415 H 691.327 -5.27729 0.860622 0
M  V30 7416 H 691.67 -4.14164 -0.421168 0
M  V30 7417 H 692.203 -3.78022 1.23872 0
M  V30 7418 H 688.942 -5.34388 3.79618 0
M  V30 7419 H 688.462 -5.61634 2.1054 0
M  V30 7420 H 690.141 -5.91647 2.61845 0
M  V30 7421 N 690.273 -0.685099 -1.4193 0
M  V30 7422 C 691.203 -0.0273506 -2.33484 0
M  V30 7423 C 692.184 0.778366 -1.51246 0
M  V30 7424 O 693.369 0.733449 -1.79817 0
M  V30 7425 C 690.499 0.917272 -3.34968 0
M  V30 7426 C 689.453 0.21941 -4.27437 0
M  V30 7427 C 688.779 1.27768 -5.1921 0
M  V30 7428 C 690.079 -0.907894 -5.14349 0
M  V30 7429 H 691.773 -0.791994 -2.88735 0
M  V30 7430 H 689.319 -0.382308 -1.38832 0
M  V30 7431 H 691.272 1.38657 -3.97935 0
M  V30 7432 H 689.996 1.71346 -2.78043 0
M  V30 7433 H 688.655 -0.229757 -3.65879 0
M  V30 7434 H 688.303 2.06612 -4.58607 0
M  V30 7435 H 688.003 0.815803 -5.81909 0
M  V30 7436 H 689.527 1.7477 -5.85054 0
M  V30 7437 H 690.941 -0.519348 -5.70943 0
M  V30 7438 H 689.338 -1.2962 -5.85934 0
M  V30 7439 H 690.408 -1.75218 -4.52136 0
M  V30 7440 N 691.751 1.51645 -0.429126 0
M  V30 7441 C 692.999 2.01616 0.139802 0
M  V30 7442 C 693.32 1.31568 1.43927 0
M  V30 7443 O 692.59 0.447688 1.90716 0
M  V30 7444 H 691.17 0.744998 0.054654 0
M  V30 7445 H 693.832 1.8638 -0.569952 0
M  V30 7446 H 692.928 3.10439 0.321609 0
M  V30 7447 N 693.229 0.160201 1.56784 0
M  V30 7448 C 694.64 -0.358417 1.83227 0
M  V30 7449 C 694.991 -1.63831 1.07952 0
M  V30 7450 O 694.116 -2.13885 0.328995 0
M  V30 7451 C 694.711 -0.657058 3.32368 0
M  V30 7452 C 693.27 -1.12015 3.59346 0
M  V30 7453 C 692.417 -0.15015 2.76893 0
M  V30 7454 H 695.368 0.384669 1.53967 0
M  V30 7455 H 695.389 -1.51033 3.49241 0
M  V30 7456 H 694.901 0.274647 3.87127 0
M  V30 7457 H 693.002 -2.06734 3.09987 0
M  V30 7458 H 693.115 -1.037 4.67743 0
M  V30 7459 H 691.479 -0.645361 2.46388 0
M  V30 7460 H 692.262 0.775379 3.34429 0
M  V30 7461 N 694.707 -1.5719 -0.113559 0
M  V30 7462 C 695.637 -2.03772 -1.14013 0
M  V30 7463 C 696.618 -0.923176 -1.42869 0
M  V30 7464 O 697.803 -1.19325 -1.53216 0
M  V30 7465 C 694.933 -2.44663 -2.4649 0
M  V30 7466 C 693.887 -3.59612 -2.32085 0
M  V30 7467 C 693.213 -3.8642 -3.69573 0
M  V30 7468 C 694.513 -4.91149 -1.7768 0
M  V30 7469 H 696.207 -2.89785 -0.752665 0
M  V30 7470 H 693.753 -1.39412 -0.360609 0
M  V30 7471 H 695.706 -2.75857 -3.18561 0
M  V30 7472 H 694.43 -1.55628 -2.87137 0
M  V30 7473 H 693.089 -3.28636 -1.62461 0
M  V30 7474 H 692.737 -2.94581 -4.07715 0
M  V30 7475 H 692.437 -4.63797 -3.60786 0
M  V30 7476 H 693.961 -4.2007 -4.4314 0
M  V30 7477 H 695.375 -5.20843 -2.39574 0
M  V30 7478 H 693.772 -5.72562 -1.79701 0
M  V30 7479 H 694.842 -4.79301 -0.734776 0
M  V30 7480 N 696.185 0.383891 -1.52853 0
M  V30 7481 C 697.115 1.47559 -1.80965 0
M  V30 7482 C 698.096 1.5669 -0.661986 0
M  V30 7483 O 699.281 1.71556 -0.910072 0
M  V30 7484 C 696.411 2.85114 -1.98312 0
M  V30 7485 C 695.365 2.9082 -3.14019 0
M  V30 7486 C 694.691 4.30873 -3.16627 0
M  V30 7487 C 695.991 2.60001 -4.52986 0
M  V30 7488 H 697.685 1.24283 -2.72386 0
M  V30 7489 H 695.231 0.596445 -1.31067 0
M  V30 7490 H 697.184 3.61496 -2.16561 0
M  V30 7491 H 695.908 3.09738 -1.03585 0
M  V30 7492 H 694.567 2.16886 -2.9556 0
M  V30 7493 H 694.215 4.52545 -2.19573 0
M  V30 7494 H 693.915 4.3561 -3.94357 0
M  V30 7495 H 695.439 5.09154 -3.37038 0
M  V30 7496 H 696.853 3.261 -4.71521 0
M  V30 7497 H 695.25 2.76081 -5.32822 0
M  V30 7498 H 696.32 1.5532 -4.59351 0
M  V30 7499 N 697.663 1.43903 0.642637 0
M  V30 7500 C 698.893 1.49323 1.4278 0
M  V30 7501 C 699.301 0.113058 1.88862 0
M  V30 7502 O 698.644 -0.889089 1.60751 0
M  V30 7503 C 698.706 2.3861 2.68897 0
M  V30 7504 C 698.37 3.85976 2.44687 0
M  V30 7505 C 699.367 4.7681 2.07239 0
M  V30 7506 C 697.052 4.30567 2.58683 0
M  V30 7507 C 699.046 6.10234 1.841 0
M  V30 7508 C 696.733 5.64042 2.35159 0
M  V30 7509 C 697.731 6.53693 1.97925 0
M  V30 7510 O 697.419 7.84698 1.74654 0
M  V30 7511 H 697.151 0.509109 0.444729 0
M  V30 7512 H 699.705 1.89425 0.794195 0
M  V30 7513 H 697.935 1.93415 3.34855 0
M  V30 7514 H 699.624 2.35112 3.30873 0
M  V30 7515 H 700.39 4.43635 1.95993 0
M  V30 7516 H 696.269 3.61054 2.86637 0
M  V30 7517 H 699.813 6.80171 1.54962 0
M  V30 7518 H 695.71 5.96782 2.46011 0
M  V30 7519 H 696.478 7.96382 1.88993 0
M  V30 7520 N 699.141 -0.881989 1.30609 0
M  V30 7521 C 700.389 -1.63082 1.19368 0
M  V30 7522 C 700.71 -1.93376 -0.251147 0
M  V30 7523 O 699.98 -1.5723 -1.16857 0
M  V30 7524 H 698.56 -0.604542 0.438791 0
M  V30 7525 H 701.222 -1.05658 1.63776 0
M  V30 7526 H 700.318 -2.57966 1.7567 0
M  V30 7527 N 700.619 -1.13374 -1.09472 0
M  V30 7528 C 701.529 -0.824029 -2.19652 0
M  V30 7529 C 702.545 0.19118 -1.72947 0
M  V30 7530 O 703.721 0.0223464 -2.01388 0
M  V30 7531 C 700.786 -0.294009 -3.45451 0
M  V30 7532 C 699.847 -1.3704 -4.0684 0
M  V30 7533 C 699.08 -0.86558 -5.26634 0
M  V30 7534 O 699.303 0.29702 -5.69626 0
M  V30 7535 O 698.237 -1.63968 -5.79136 0
M  V30 7536 H 702.063 -1.74454 -2.48595 0
M  V30 7537 H 699.648 -0.911155 -1.18399 0
M  V30 7538 H 701.53 -0.00381039 -4.214 0
M  V30 7539 H 700.205 0.598921 -3.18111 0
M  V30 7540 H 699.112 -1.71391 -3.3253 0
M  V30 7541 H 700.445 -2.23746 -4.38405 0
M  V30 7542 N 702.098 1.27442 -0.927168 0
M  V30 7543 C 703.344 1.94679 -0.568164 0
M  V30 7544 C 703.677 1.72697 0.888219 0
M  V30 7545 O 702.952 1.05573 1.63354 0
M  V30 7546 C 703.235 3.4882 -0.894253 0
M  V30 7547 C 703.088 3.80146 -2.40435 0
M  V30 7548 C 704.407 4.38281 -0.399766 0
M  V30 7549 H 701.526 0.707071 -0.207892 0
M  V30 7550 H 704.168 1.50568 -1.15885 0
M  V30 7551 H 702.318 3.86522 -0.391566 0
M  V30 7552 H 703.99 3.52238 -2.97869 0
M  V30 7553 H 702.233 3.26716 -2.85375 0
M  V30 7554 H 702.904 4.87835 -2.58304 0
M  V30 7555 H 705.38 4.07726 -0.83058 0
M  V30 7556 H 704.256 5.44955 -0.656885 0
M  V30 7557 H 704.517 4.36521 0.700153 0
M  V30 7558 N 703.576 0.692616 1.41565 0
M  V30 7559 C 704.824 0.221896 2.00878 0
M  V30 7560 C 705.145 -1.18164 1.5512 0
M  V30 7561 O 704.415 -1.79679 0.78054 0
M  V30 7562 H 702.995 0.0790463 0.742806 0
M  V30 7563 H 705.657 0.893115 1.73232 0
M  V30 7564 H 704.753 0.23702 3.11199 0
M  V30 7565 N 705.054 -1.51416 0.437162 0
M  V30 7566 C 706.331 -1.94682 -0.189292 0
M  V30 7567 C 706.711 -1.37581 -1.60108 0
M  V30 7568 O 706.059 -0.562815 -2.2146 0
M  V30 7569 C 706.269 -3.48599 -0.167201 0
M  V30 7570 C 707.617 -4.2296 -0.372856 0
M  V30 7571 O 708.641 -3.55354 -0.245323 0
M  V30 7572 O 707.5 -5.42895 -0.626693 0
M  V30 7573 H 704.594 -0.816708 -0.130063 0
M  V30 7574 H 707.14 -1.62316 0.495128 0
M  V30 7575 H 705.912 -3.82616 0.81981 0
M  V30 7576 H 705.535 -3.87406 -0.894537 0
M  V30 7577 N 706.532 -0.168513 -1.56696 0
M  V30 7578 C 707.76 0.483503 -2.01171 0
M  V30 7579 C 708.175 1.56994 -1.04872 0
M  V30 7580 O 707.532 1.82434 -0.0491337 0
M  V30 7581 C 707.583 1.0644 -3.45475 0
M  V30 7582 O 707.304 0.0213375 -4.38095 0
M  V30 7583 C 708.805 1.79493 -4.05336 0
M  V30 7584 H 706.025 0.124002 -0.659443 0
M  V30 7585 H 708.569 -0.269419 -2.02717 0
M  V30 7586 H 706.724 1.76784 -3.44712 0
M  V30 7587 H 707.138 0.449837 -5.22567 0
M  V30 7588 H 708.612 2.15401 -5.08238 0
M  V30 7589 H 709.089 2.68889 -3.47269 0
M  V30 7590 H 709.695 1.13798 -4.09793 0
M  V30 7591 N 708.01 1.57248 0.105221 0
M  V30 7592 C 708.94 2.04374 1.12931 0
M  V30 7593 C 709.921 0.93074 1.42377 0
M  V30 7594 O 711.106 1.20136 1.52581 0
M  V30 7595 C 708.236 2.45967 2.45189 0
M  V30 7596 C 707.19 3.60838 2.30174 0
M  V30 7597 C 706.516 3.88374 3.67518 0
M  V30 7598 C 707.816 4.92084 1.75073 0
M  V30 7599 H 709.51 2.9018 0.737287 0
M  V30 7600 H 707.056 1.39601 0.353211 0
M  V30 7601 H 709.009 2.77542 3.17094 0
M  V30 7602 H 707.733 1.57148 2.86308 0
M  V30 7603 H 706.392 3.29493 1.60716 0
M  V30 7604 H 706.04 2.96739 4.06147 0
M  V30 7605 H 705.74 4.65703 3.58321 0
M  V30 7606 H 707.264 4.22415 4.40906 0
M  V30 7607 H 708.678 5.22106 2.36809 0
M  V30 7608 H 707.075 5.73507 1.76662 0
M  V30 7609 H 708.145 4.79684 0.709347 0
M  V30 7610 N 709.488 -0.375779 1.53054 0
M  V30 7611 C 710.418 -1.46598 1.81745 0
M  V30 7612 C 711.399 -1.56337 0.670286 0
M  V30 7613 O 712.584 -1.71071 0.919158 0
M  V30 7614 C 709.714 -2.84058 1.99821 0
M  V30 7615 C 708.668 -2.8915 3.15557 0
M  V30 7616 C 707.994 -4.29187 3.18908 0
M  V30 7617 C 709.294 -2.57595 4.54359 0
M  V30 7618 H 710.988 -1.22837 2.73041 0
M  V30 7619 H 708.534 -0.589485 1.31381 0
M  V30 7620 H 710.487 -3.60342 2.18475 0
M  V30 7621 H 709.211 -3.09184 1.05226 0
M  V30 7622 H 707.87 -2.15316 2.96706 0
M  V30 7623 H 707.518 -4.51374 2.2197 0
M  V30 7624 H 707.218 -4.33512 3.96662 0
M  V30 7625 H 708.742 -5.07359 3.39734 0
M  V30 7626 H 710.156 -3.23595 4.73243 0
M  V30 7627 H 708.553 -2.73252 5.34279 0
M  V30 7628 H 709.623 -1.52882 4.60169 0
M  V30 7629 N 710.966 -1.44241 -0.634997 0
M  V30 7630 C 712.215 -1.46102 -1.39058 0
M  V30 7631 C 712.528 -0.0959909 -1.95364 0
M  V30 7632 O 713.734 0.00788751 -2.71499 0
M  V30 7633 C 712.19 -2.57195 -2.51751 0
M  V30 7634 C 711.798 -3.99888 -2.01974 0
M  V30 7635 C 713.542 -2.68272 -3.28984 0
M  V30 7636 C 711.449 -5.02412 -3.11987 0
M  V30 7637 H 710.379 -0.543556 -0.522554 0
M  V30 7638 H 713.03 -1.70294 -0.683538 0
M  V30 7639 H 711.412 -2.26237 -3.25012 0
M  V30 7640 H 712.586 -4.40396 -1.35604 0
M  V30 7641 H 710.901 -3.93019 -1.37568 0
M  V30 7642 H 713.498 -3.42042 -4.10988 0
M  V30 7643 H 713.841 -1.73957 -3.78212 0
M  V30 7644 H 714.374 -2.98622 -2.62812 0
M  V30 7645 H 711.113 -5.98342 -2.67707 0
M  V30 7646 H 710.633 -4.66501 -3.77011 0
M  V30 7647 H 712.312 -5.25939 -3.76825 0
M  V30 7648 N 712.444 0.87505 -1.31075 0
M  V30 7649 C 713.693 1.62245 -1.19831 0
M  V30 7650 C 714.006 1.94078 0.24357 0
M  V30 7651 O 715.212 2.67265 0.477646 0
M  V30 7652 C 713.668 2.92464 -2.09744 0
M  V30 7653 C 713.276 2.68134 -3.58898 0
M  V30 7654 C 715.02 3.70449 -2.07287 0
M  V30 7655 C 712.927 3.9423 -4.40836 0
M  V30 7656 H 711.857 0.608741 -0.444916 0
M  V30 7657 H 714.508 0.967947 -1.55894 0
M  V30 7658 H 712.89 3.59262 -1.66574 0
M  V30 7659 H 714.064 2.09776 -4.10281 0
M  V30 7660 H 712.379 2.03511 -3.6328 0
M  V30 7661 H 714.976 4.63983 -2.65752 0
M  V30 7662 H 715.319 4.02611 -1.05876 0
M  V30 7663 H 715.852 3.10528 -2.48631 0
M  V30 7664 H 712.591 3.67221 -5.42982 0
M  V30 7665 H 712.111 4.52058 -3.94213 0
M  V30 7666 H 713.79 4.62162 -4.52786 0
M  V30 7667 N 713.922 1.13953 1.08869 0
M  V30 7668 C 715.169 0.90481 1.81161 0
M  V30 7669 C 715.497 -0.568824 1.85996 0
M  V30 7670 O 714.752 -1.43723 1.32823 0
M  V30 7671 C 715.051 1.44495 3.26888 0
M  V30 7672 C 714.717 2.93641 3.42178 0
M  V30 7673 C 713.379 3.34361 3.46059 0
M  V30 7674 C 715.731 3.89568 3.46246 0
M  V30 7675 C 713.059 4.69681 3.51592 0
M  V30 7676 C 715.411 5.2474 3.53314 0
M  V30 7677 C 714.075 5.64979 3.55465 0
M  V30 7678 H 713.345 0.331094 0.662916 0
M  V30 7679 H 715.992 1.42242 1.28217 0
M  V30 7680 H 714.297 0.848169 3.82509 0
M  V30 7681 H 715.994 1.23934 3.81368 0
M  V30 7682 H 712.584 2.61156 3.39846 0
M  V30 7683 H 716.768 3.59192 3.42483 0
M  V30 7684 H 712.024 5.00224 3.51547 0
M  V30 7685 H 716.198 5.98882 3.55406 0
M  V30 7686 H 713.825 6.69821 3.59505 0
M  V30 7687 N 715.4 -1.26948 0.933913 0
M  V30 7688 C 716.347 -2.26635 0.436484 0
M  V30 7689 C 717.317 -1.58397 -0.499953 0
M  V30 7690 O 718.502 -1.86171 -0.417753 0
M  V30 7691 C 715.642 -3.43803 -0.298951 0
M  V30 7692 C 714.755 -4.26736 0.672316 0
M  V30 7693 C 713.89 -5.31134 -0.0835872 0
M  V30 7694 C 712.929 -6.05742 0.879979 0
M  V30 7695 N 712.066 -7.01926 0.156301 0
M  V30 7696 H 716.906 -2.68558 1.29154 0
M  V30 7697 H 714.443 -1.32052 0.648118 0
M  V30 7698 H 716.401 -4.10554 -0.741723 0
M  V30 7699 H 715.031 -3.02814 -1.1182 0
M  V30 7700 H 714.083 -3.59842 1.23361 0
M  V30 7701 H 715.395 -4.78502 1.40846 0
M  V30 7702 H 714.549 -6.03863 -0.585984 0
M  V30 7703 H 713.288 -4.80188 -0.852661 0
M  V30 7704 H 712.293 -5.31846 1.39357 0
M  V30 7705 H 713.518 -6.58777 1.64894 0
M  V30 7706 H 711.464 -6.53301 -0.594413 0
M  V30 7707 H 711.381 -7.51409 0.831906 0
M  V30 7708 H 712.649 -7.78821 -0.325239 0
M  V30 7709 N 716.879 -0.700114 -1.41195 0
M  V30 7710 C 717.827 -0.0263301 -2.32585 0
M  V30 7711 C 718.821 0.763683 -1.51209 0
M  V30 7712 O 720.027 0.668793 -1.67114 0
M  V30 7713 H 716.402 0.0102869 -0.75193 0
M  V30 7714 H 718.373 -0.814087 -2.8708 0
M  V30 7715 C 717.122 0.892793 -3.36042 0
M  V30 7716 H 716.445 0.294306 -3.98715 0
M  V30 7717 H 717.885 1.33247 -4.02518 0
M  V30 7718 C 716.344 2.01109 -2.7029 0
M  V30 7719 O 716.874 3.10035 -2.55423 0
M  V30 7720 N 715.08 1.79015 -2.28915 0
M  V30 7721 H 714.627 0.904275 -2.41207 0
M  V30 7722 H 714.585 2.54022 -1.85257 0
M  V30 7723 N 718.357 1.51182 -0.445186 0
M  V30 7724 C 719.289 2.25714 0.398206 0
M  V30 7725 C 720.302 1.30032 0.979562 0
M  V30 7726 O 721.491 1.55731 0.872368 0
M  V30 7727 C 718.591 3.00348 1.56985 0
M  V30 7728 C 717.764 4.23187 1.10596 0
M  V30 7729 C 716.823 4.80334 2.14863 0
M  V30 7730 O 715.849 5.4196 1.73977 0
M  V30 7731 N 717.051 4.65053 3.47427 0
M  V30 7732 H 719.816 2.98732 -0.240629 0
M  V30 7733 H 717.377 1.59556 -0.274507 0
M  V30 7734 H 719.369 3.35464 2.26376 0
M  V30 7735 H 717.939 2.30291 2.11387 0
M  V30 7736 H 717.159 3.93476 0.238832 0
M  V30 7737 H 718.447 5.02886 0.773537 0
M  V30 7738 H 717.845 4.15984 3.83372 0
M  V30 7739 H 716.402 5.04509 4.12691 0
M  V30 7740 N 719.835 0.176821 1.56605 0
M  V30 7741 C 720.798 -0.737429 2.17013 0
M  V30 7742 C 721.798 -1.15414 1.11965 0
M  V30 7743 O 722.988 -1.0702 1.37449 0
M  V30 7744 C 720.12 -2.00445 2.75744 0
M  V30 7745 H 721.313 -0.211455 2.99154 0
M  V30 7746 H 718.866 -0.0727582 1.56131 0
M  V30 7747 H 719.601 -2.57338 1.97352 0
M  V30 7748 H 719.386 -1.71456 3.52626 0
M  V30 7749 H 720.876 -2.65679 3.22187 0
M  V30 7750 N 721.313 -1.57302 -0.09688 0
M  V30 7751 C 722.538 -1.9058 -0.818169 0
M  V30 7752 C 722.963 -0.770921 -1.71576 0
M  V30 7753 O 722.321 0.277588 -1.79162 0
M  V30 7754 C 722.369 -3.22714 -1.60898 0
M  V30 7755 O 721.473 -3.10178 -2.71779 0
M  V30 7756 H 720.814 -0.624759 -0.224882 0
M  V30 7757 H 723.344 -2.04471 -0.07264 0
M  V30 7758 H 723.354 -3.55978 -1.99358 0
M  V30 7759 H 722.029 -4.04899 -0.950227 0
M  V30 7760 H 720.606 -2.88424 -2.3636 0
M  V30 7761 N 722.791 0.367657 -1.53252 0
M  V30 7762 C 724.207 0.709191 -1.42978 0
M  V30 7763 C 724.407 1.93352 -0.567193 0
M  V30 7764 O 723.463 2.52453 -0.0488349 0
M  V30 7765 C 724.776 0.924338 -2.86141 0
M  V30 7766 C 726.324 1.02448 -2.95759 0
M  V30 7767 C 726.799 1.27211 -4.39979 0
M  V30 7768 N 728.29 1.33986 -4.43398 0
M  V30 7769 C 729.025 1.54852 -5.52095 0
M  V30 7770 N 728.521 1.73049 -6.7084 0
M  V30 7771 N 730.314 1.57205 -5.39669 0
M  V30 7772 H 722.465 -0.437669 -2.07842 0
M  V30 7773 H 724.728 -0.133737 -0.938519 0
M  V30 7774 H 724.434 0.0965455 -3.51567 0
M  V30 7775 H 724.308 1.83302 -3.29667 0
M  V30 7776 H 726.695 1.84282 -2.30487 0
M  V30 7777 H 726.776 0.0932301 -2.5563 0
M  V30 7778 H 726.42 0.458792 -5.05824 0
M  V30 7779 H 726.35 2.21654 -4.77679 0
M  V30 7780 H 728.841 1.21545 -3.5782 0
M  V30 7781 H 729.154 1.88538 -7.49449 0
M  V30 7782 H 727.499 1.70231 -6.7383 0
M  V30 7783 H 730.69 1.42555 -4.45865 0
M  V30 7784 H 730.863 1.73126 -6.24445 0
M  V30 7785 N 724.269 1.44576 0.627338 0
M  V30 7786 C 725.68 1.42266 1.20902 0
M  V30 7787 C 726.031 0.139964 1.957 0
M  V30 7788 O 725.156 -0.759489 2.02634 0
M  V30 7789 C 725.751 2.57727 2.19914 0
M  V30 7790 C 724.31 2.58599 2.73502 0
M  V30 7791 C 723.457 2.34145 1.48564 0
M  V30 7792 H 726.408 1.53102 0.417791 0
M  V30 7793 H 726.429 2.30697 3.02588 0
M  V30 7794 H 725.941 3.51068 1.65447 0
M  V30 7795 H 724.042 1.6921 3.31962 0
M  V30 7796 H 724.155 3.57205 3.19282 0
M  V30 7797 H 722.519 1.83313 1.76829 0
M  V30 7798 H 723.302 3.29606 0.959935 0
M  V30 7799 N 725.747 -0.868086 1.31537 0
M  V30 7800 C 726.977 -1.65162 1.24118 0
M  V30 7801 C 727.385 -1.88187 -0.195558 0
M  V30 7802 O 726.728 -1.44154 -1.13866 0
M  V30 7803 C 726.79 -3.04119 1.91708 0
M  V30 7804 C 726.454 -3.04194 3.4105 0
M  V30 7805 C 727.451 -2.82016 4.36764 0
M  V30 7806 C 725.136 -3.25256 3.82772 0
M  V30 7807 C 727.13 -2.80881 5.72175 0
M  V30 7808 C 724.817 -3.23749 5.18295 0
M  V30 7809 C 725.815 -3.01589 6.12808 0
M  V30 7810 O 725.503 -2.9993 7.45853 0
M  V30 7811 H 725.235 -0.521597 0.430015 0
M  V30 7812 H 727.789 -1.09165 1.73989 0
M  V30 7813 H 726.019 -3.61849 1.36389 0
M  V30 7814 H 727.708 -3.64701 1.78179 0
M  V30 7815 H 728.474 -2.65525 4.05859 0
M  V30 7816 H 724.353 -3.41534 3.09638 0
M  V30 7817 H 727.897 -2.63503 6.45919 0
M  V30 7818 H 723.794 -3.39781 5.48834 0
M  V30 7819 H 724.562 -3.15979 7.55049 0
M  V30 7820 N 727.225 -1.14528 -1.08264 0
M  V30 7821 C 728.173 -0.829201 -2.17318 0
M  V30 7822 C 729.167 0.193521 -1.68291 0
M  V30 7823 O 730.373 0.0494744 -1.79932 0
M  V30 7824 H 726.748 -0.250435 -0.709074 0
M  V30 7825 H 728.719 -1.75683 -2.41201 0
M  V30 7826 C 727.468 -0.324663 -3.46181 0
M  V30 7827 H 726.791 -1.10299 -3.84284 0
M  V30 7828 H 728.231 -0.142059 -4.23762 0
M  V30 7829 C 726.69 0.952033 -3.23169 0
M  V30 7830 O 727.22 2.02549 -3.46896 0
M  V30 7831 N 725.426 0.887854 -2.76705 0
M  V30 7832 H 724.973 0.0141402 -2.57596 0
M  V30 7833 H 724.931 1.74263 -2.61686 0
M  V30 7834 N 728.703 1.26451 -0.940633 0
M  V30 7835 C 729.952 1.93071 -0.583656 0
M  V30 7836 C 730.265 1.74618 0.881366 0
M  V30 7837 O 731.471 2.35689 1.34769 0
M  V30 7838 C 729.927 3.45927 -0.993106 0
M  V30 7839 C 729.535 3.73115 -2.4797 0
M  V30 7840 C 731.279 4.18554 -0.707998 0
M  V30 7841 C 729.186 5.19408 -2.82788 0
M  V30 7842 H 728.116 0.722824 -0.214572 0
M  V30 7843 H 730.767 1.43538 -1.1432 0
M  V30 7844 H 729.149 3.94341 -0.362099 0
M  V30 7845 H 730.323 3.35408 -3.15971 0
M  V30 7846 H 728.638 3.13719 -2.73805 0
M  V30 7847 H 731.235 5.26293 -0.94447 0
M  V30 7848 H 731.578 4.14782 0.355225 0
M  V30 7849 H 732.111 3.76003 -1.2987 0
M  V30 7850 H 728.85 5.28281 -3.88071 0
M  V30 7851 H 728.37 5.58214 -2.19449 0
M  V30 7852 H 730.049 5.87407 -2.71224 0
M  V30 7853 N 730.181 0.707592 1.40822 0
M  V30 7854 C 731.411 0.252706 2.05049 0
M  V30 7855 C 731.819 -1.10758 1.53393 0
M  V30 7856 O 731.162 -1.70567 0.682097 0
M  V30 7857 C 731.224 0.146001 3.59203 0
M  V30 7858 C 730.888 1.44027 4.33711 0
M  V30 7859 C 731.885 2.38058 4.62195 0
M  V30 7860 C 729.57 1.69698 4.72766 0
M  V30 7861 C 731.564 3.56013 5.28709 0
M  V30 7862 C 729.251 2.87936 5.39014 0
M  V30 7863 C 730.249 3.80915 5.66915 0
M  V30 7864 O 729.937 4.9708 6.31796 0
M  V30 7865 H 729.669 0.112784 0.666525 0
M  V30 7866 H 732.223 0.96417 1.81364 0
M  V30 7867 H 730.453 -0.621338 3.81676 0
M  V30 7868 H 732.142 -0.273275 4.04979 0
M  V30 7869 H 732.908 2.19487 4.32493 0
M  V30 7870 H 728.787 0.981835 4.50423 0
M  V30 7871 H 732.331 4.28604 5.50404 0
M  V30 7872 H 728.228 3.06419 5.68135 0
M  V30 7873 H 728.996 4.97053 6.50293 0
M  V30 7874 N 731.66 -1.50943 0.453197 0
M  V30 7875 C 733.071 -1.86699 -0.00619892 0
M  V30 7876 C 733.422 -1.3693 -1.40515 0
M  V30 7877 O 732.547 -0.726715 -2.03833 0
M  V30 7878 C 733.142 -3.38795 -0.018025 0
M  V30 7879 C 731.701 -3.74028 -0.421885 0
M  V30 7880 C 730.848 -2.74752 0.375087 0
M  V30 7881 H 733.799 -1.43942 0.668317 0
M  V30 7882 H 733.82 -3.71468 -0.824125 0
M  V30 7883 H 733.332 -3.74988 1.00028 0
M  V30 7884 H 731.433 -3.43431 -1.44521 0
M  V30 7885 H 731.546 -4.78908 -0.135664 0
M  V30 7886 H 729.91 -2.5414 -0.168794 0
M  V30 7887 H 730.693 -3.13787 1.39256 0
M  V30 7888 N 733.138 -0.185124 -1.56509 0
M  V30 7889 C 734.088 0.752315 -2.15231 0
M  V30 7890 C 735.072 1.18327 -1.0903 0
M  V30 7891 O 736.264 1.14333 -1.35119 0
M  V30 7892 C 733.393 1.97583 -2.80742 0
M  V30 7893 C 732.479 1.56623 -3.94119 0
M  V30 7894 N 732.87 0.867008 -4.98314 0
M  V30 7895 C 731.168 1.85626 -4.05535 0
M  V30 7896 C 731.869 0.663228 -5.77907 0
M  V30 7897 N 730.845 1.20891 -5.29987 0
M  V30 7898 H 734.647 0.209267 -2.93154 0
M  V30 7899 H 732.161 0.0150444 -1.62393 0
M  V30 7900 H 734.158 2.65779 -3.21197 0
M  V30 7901 H 732.818 2.52369 -2.04303 0
M  V30 7902 H 733.829 0.52355 -5.15247 0
M  V30 7903 H 730.506 2.41992 -3.40215 0
M  V30 7904 H 731.896 0.109273 -6.71811 0
M  V30 7905 N 734.616 1.57351 0.0885366 0
M  V30 7906 C 735.864 1.86051 0.789262 0
M  V30 7907 C 736.185 0.774763 1.78948 0
M  V30 7908 O 735.455 -0.198324 1.94894 0
M  V30 7909 H 734.035 0.686508 0.294475 0
M  V30 7910 H 736.697 1.94779 0.0686055 0
M  V30 7911 H 735.793 2.83007 1.31581 0
M  V30 7912 N 736.094 -0.359525 1.53444 0
M  V30 7913 C 737.343 -1.09886 1.69139 0
M  V30 7914 C 737.656 -1.90285 0.452863 0
M  V30 7915 O 738.862 -2.67033 0.490459 0
M  V30 7916 C 737.318 -2.0028 2.99025 0
M  V30 7917 C 736.926 -1.25164 4.30161 0
M  V30 7918 C 738.67 -2.74168 3.24086 0
M  V30 7919 C 736.577 -2.14494 5.51132 0
M  V30 7920 H 735.507 -0.413936 0.630217 0
M  V30 7921 H 738.158 -0.359434 1.79945 0
M  V30 7922 H 736.54 -2.77978 2.82036 0
M  V30 7923 H 737.714 -0.524867 4.57801 0
M  V30 7924 H 736.029 -0.631116 4.11589 0
M  V30 7925 H 738.626 -3.41243 4.11652 0
M  V30 7926 H 738.969 -3.39868 2.40407 0
M  V30 7927 H 739.502 -2.0355 3.41778 0
M  V30 7928 H 736.241 -1.53362 6.37307 0
M  V30 7929 H 735.761 -2.85004 5.27762 0
M  V30 7930 H 737.44 -2.73914 5.86157 0
M  V30 7931 N 737.572 -1.44907 -0.619662 0
M  V30 7932 C 738.8 -1.51795 -1.40591 0
M  V30 7933 C 739.215 -0.146553 -1.8823 0
M  V30 7934 O 738.572 0.849698 -1.61513 0
M  V30 7935 C 738.623 -2.49229 -2.61853 0
M  V30 7936 O 738.344 -3.81039 -2.16197 0
M  V30 7937 C 739.845 -2.65696 -3.54853 0
M  V30 7938 H 737.065 -0.514463 -0.430777 0
M  V30 7939 H 739.609 -1.8998 -0.756813 0
M  V30 7940 H 737.764 -2.14149 -3.2283 0
M  V30 7941 H 738.178 -4.33747 -2.94896 0
M  V30 7942 H 739.652 -3.37874 -4.36515 0
M  V30 7943 H 740.129 -1.71316 -4.0441 0
M  V30 7944 H 740.735 -3.01724 -2.99737 0
M  V30 7945 N 739.05 0.861098 -1.31996 0
M  V30 7946 C 740.327 1.59788 -1.12814 0
M  V30 7947 C 740.707 2.08753 0.313882 0
M  V30 7948 O 740.055 1.87258 1.30946 0
M  V30 7949 C 740.265 2.74901 -2.15012 0
M  V30 7950 C 741.613 3.44643 -2.48004 0
M  V30 7951 O 742.637 2.85119 -2.13508 0
M  V30 7952 O 741.496 4.52044 -3.07113 0
M  V30 7953 H 738.59 0.703408 -0.434909 0
M  V30 7954 H 741.136 0.905788 -1.43505 0
M  V30 7955 H 739.908 2.36198 -3.11971 0
M  V30 7956 H 739.531 3.51792 -1.85279 0
M  V30 7957 N 740.528 1.15101 1.07655 0
M  V30 7958 C 741.774 0.925343 1.80458 0
M  V30 7959 C 742.107 -0.546354 1.86356 0
M  V30 7960 O 741.382 -1.40496 1.34503 0
M  V30 7961 C 741.665 1.53646 3.25676 0
M  V30 7962 C 741.518 3.07854 3.27942 0
M  V30 7963 C 742.837 1.21968 4.22861 0
M  V30 7964 H 739.956 0.337592 0.655134 0
M  V30 7965 H 742.598 1.42217 1.25993 0
M  V30 7966 H 740.748 1.11395 3.72187 0
M  V30 7967 H 742.42 3.58989 2.89697 0
M  V30 7968 H 740.663 3.41904 2.66991 0
M  V30 7969 H 741.334 3.45725 4.30324 0
M  V30 7970 H 743.81 1.5851 3.84726 0
M  V30 7971 H 742.686 1.67349 5.22767 0
M  V30 7972 H 742.947 0.136207 4.4189 0
M  V30 7973 N 742.006 -1.2595 0.947325 0
M  V30 7974 C 743.422 -1.45737 0.650597 0
M  V30 7975 C 743.622 -1.85189 -0.794188 0
M  V30 7976 O 742.678 -1.97738 -1.57022 0
M  V30 7977 C 743.991 -2.53505 1.61728 0
M  V30 7978 C 745.539 -2.67351 1.62765 0
M  V30 7979 C 746.014 -3.78296 2.58179 0
M  V30 7980 N 747.505 -3.85696 2.56501 0
M  V30 7981 C 748.24 -4.71012 3.2701 0
M  V30 7982 N 747.736 -5.60669 4.06966 0
M  V30 7983 N 749.529 -4.64912 3.15932 0
M  V30 7984 H 741.68 -0.986327 1.8811 0
M  V30 7985 H 743.943 -0.494639 0.808725 0
M  V30 7986 H 743.649 -2.31357 2.6489 0
M  V30 7987 H 743.523 -3.51281 1.3741 0
M  V30 7988 H 745.91 -2.88869 0.603241 0
M  V30 7989 H 745.991 -1.69998 1.91139 0
M  V30 7990 H 745.635 -3.5753 3.60742 0
M  V30 7991 H 745.565 -4.75117 2.27093 0
M  V30 7992 H 748.056 -3.21601 1.98447 0
M  V30 7993 H 748.369 -6.22677 4.57704 0
M  V30 7994 H 746.714 -5.60402 4.11066 0
M  V30 7995 H 749.905 -3.93874 2.52945 0
M  V30 7996 H 750.078 -5.3118 3.71149 0
M  V30 7997 N 743.484 -0.715051 -1.40445 0
M  V30 7998 C 744.895 -0.326763 -1.83818 0
M  V30 7999 C 745.246 1.13851 -1.59789 0
M  V30 8000 O 744.371 1.87611 -1.07848 0
M  V30 8001 C 744.966 -0.586297 -3.33688 0
M  V30 8002 C 743.525 -0.251724 -3.75557 0
M  V30 8003 C 742.672 -0.858928 -2.63662 0
M  V30 8004 H 745.623 -0.914241 -1.2972 0
M  V30 8005 H 745.644 0.148636 -3.8021 0
M  V30 8006 H 745.156 -1.65281 -3.51146 0
M  V30 8007 H 743.257 0.809754 -3.63695 0
M  V30 8008 H 743.37 -0.720348 -4.73654 0
M  V30 8009 H 741.734 -0.287013 -2.53078 0
M  V30 8010 H 742.517 -1.9297 -2.83932 0
M  V30 8011 N 744.962 1.50701 -0.461195 0
M  V30 8012 C 745.892 2.31182 0.328184 0
M  V30 8013 C 746.873 1.37644 0.999408 0
M  V30 8014 O 748.058 1.66565 0.99848 0
M  V30 8015 C 745.188 3.17113 1.41621 0
M  V30 8016 C 744.142 4.19124 0.867148 0
M  V30 8017 C 743.468 4.93728 2.05272 0
M  V30 8018 C 744.768 5.22174 -0.114808 0
M  V30 8019 H 746.462 2.97423 -0.343501 0
M  V30 8020 H 744.008 1.43033 -0.166641 0
M  V30 8021 H 745.961 3.72208 1.97584 0
M  V30 8022 H 744.685 2.48739 2.11652 0
M  V30 8023 H 743.344 3.65116 0.329557 0
M  V30 8024 H 742.992 4.21835 2.73978 0
M  V30 8025 H 742.692 5.62724 1.69161 0
M  V30 8026 H 744.216 5.51654 2.61744 0
M  V30 8027 H 745.63 5.72198 0.355316 0
M  V30 8028 H 744.027 5.98833 -0.389689 0
M  V30 8029 H 745.097 4.7353 -1.04391 0
M  V30 8030 N 746.441 0.193421 1.56409 0
M  V30 8031 C 747.671 -0.450783 2.01622 0
M  V30 8032 C 748.079 -1.5585 1.07273 0
M  V30 8033 O 747.422 -1.83569 0.0694875 0
M  V30 8034 C 747.484 -1.06913 3.43235 0
M  V30 8035 C 747.148 -0.100352 4.5689 0
M  V30 8036 C 748.145 0.689633 5.15306 0
M  V30 8037 C 745.83 0.0102436 5.02299 0
M  V30 8038 C 747.824 1.5772 6.17579 0
M  V30 8039 C 745.511 0.901368 6.04416 0
M  V30 8040 C 746.509 1.68341 6.61929 0
M  V30 8041 O 746.197 2.5596 7.62063 0
M  V30 8042 H 745.929 -0.117671 0.66568 0
M  V30 8043 H 748.483 0.2989 2.03214 0
M  V30 8044 H 746.713 -1.86736 3.38624 0
M  V30 8045 H 748.402 -1.61781 3.72266 0
M  V30 8046 H 749.168 0.614485 4.81092 0
M  V30 8047 H 745.047 -0.58829 4.57231 0
M  V30 8048 H 748.591 2.18805 6.62397 0
M  V30 8049 H 744.488 0.977637 6.38054 0
M  V30 8050 H 745.256 2.49721 7.79475 0
M  V30 8051 N 747.919 -1.57396 -0.0801906 0
M  V30 8052 C 749.144 -1.91437 -0.797909 0
M  V30 8053 C 749.569 -0.789075 -1.70749 0
M  V30 8054 O 748.927 0.25857 -1.79447 0
M  V30 8055 C 748.975 -3.24402 -1.57467 0
M  V30 8056 O 748.079 -3.13043 -2.68473 0
M  V30 8057 H 747.42 -0.627109 -0.218243 0
M  V30 8058 H 749.95 -2.04537 -0.050949 0
M  V30 8059 H 749.96 -3.58072 -1.95571 0
M  V30 8060 H 748.635 -4.05884 -0.907229 0
M  V30 8061 H 747.212 -2.90915 -2.33287 0
M  V30 8062 N 749.397 0.351382 -1.53633 0
M  V30 8063 C 750.813 0.693987 -1.43722 0
M  V30 8064 C 751.013 1.9274 -0.587669 0
M  V30 8065 O 750.069 2.52387 -0.0756082 0
M  V30 8066 C 751.382 0.893937 -2.87105 0
M  V30 8067 C 752.93 0.993051 -2.96829 0
M  V30 8068 C 753.405 1.22537 -4.41303 0
M  V30 8069 N 754.896 1.29275 -4.44795 0
M  V30 8070 C 755.631 1.48988 -5.53706 0
M  V30 8071 N 755.127 1.65924 -6.72637 0
M  V30 8072 N 756.92 1.51472 -5.41306 0
M  V30 8073 H 749.071 -0.459688 -2.07366 0
M  V30 8074 H 751.334 -0.143684 -0.937048 0
M  V30 8075 H 751.04 0.0592517 -3.5165 0
M  V30 8076 H 750.914 1.79795 -3.31592 0
M  V30 8077 H 753.301 1.81827 -2.32429 0
M  V30 8078 H 753.382 0.0661119 -2.55715 0
M  V30 8079 H 753.026 0.405117 -5.06282 0
M  V30 8080 H 752.956 2.16575 -4.80003 0
M  V30 8081 H 755.447 1.17743 -3.59089 0
M  V30 8082 H 755.76 1.80578 -7.51406 0
M  V30 8083 H 754.105 1.63075 -6.75597 0
M  V30 8084 H 757.296 1.37818 -4.47352 0
M  V30 8085 H 757.469 1.66493 -6.26246 0
M  V30 8086 N 750.875 1.45233 0.611969 0
M  V30 8087 C 752.291 1.29542 0.932251 0
M  V30 8088 C 752.491 0.24523 2.00002 0
M  V30 8089 O 751.547 -0.362333 2.49887 0
M  V30 8090 C 752.86 2.67301 1.37733 0
M  V30 8091 C 754.408 2.75163 1.49178 0
M  V30 8092 C 754.883 4.13437 1.97064 0
M  V30 8093 N 756.374 4.15709 2.04304 0
M  V30 8094 C 757.109 5.19566 2.42568 0
M  V30 8095 N 756.605 6.33771 2.79832 0
M  V30 8096 N 758.398 5.06923 2.42869 0
M  V30 8097 H 750.549 2.12192 -0.0938679 0
M  V30 8098 H 752.812 0.947775 0.0206569 0
M  V30 8099 H 752.518 3.45318 0.666951 0
M  V30 8100 H 752.392 2.95472 2.3447 0
M  V30 8101 H 754.779 1.97453 2.19309 0
M  V30 8102 H 754.86 2.50712 0.507674 0
M  V30 8103 H 754.504 4.91631 1.27521 0
M  V30 8104 H 754.434 4.35277 2.9638 0
M  V30 8105 H 756.925 3.33293 1.78113 0
M  V30 8106 H 757.238 7.08815 3.07898 0
M  V30 8107 H 755.583 6.37179 2.77538 0
M  V30 8108 H 758.774 4.1675 2.1316 0
M  V30 8109 H 758.947 5.87981 2.72364 0
M  V30 8110 N 752.353 -0.854086 1.3245 0
M  V30 8111 C 753.283 -1.97827 1.24044 0
M  V30 8112 C 754.264 -1.69646 0.124166 0
M  V30 8113 O 755.449 -1.91687 0.31143 0
M  V30 8114 C 752.579 -3.33673 0.963324 0
M  V30 8115 C 751.533 -3.76207 2.04089 0
M  V30 8116 C 750.859 -5.0969 1.61618 0
M  V30 8117 C 752.159 -3.91612 3.45597 0
M  V30 8118 H 753.853 -2.05118 2.18099 0
M  V30 8119 H 751.399 -0.985489 1.04996 0
M  V30 8120 H 753.352 -4.11871 0.891061 0
M  V30 8121 H 752.076 -3.26597 -0.0128649 0
M  V30 8122 H 750.735 -3.0026 2.10332 0
M  V30 8123 H 750.383 -4.99072 0.627418 0
M  V30 8124 H 750.083 -5.3912 2.33717 0
M  V30 8125 H 751.607 -5.90381 1.55829 0
M  V30 8126 H 753.021 -4.60163 3.4194 0
M  V30 8127 H 751.418 -4.3246 4.16051 0
M  V30 8128 H 752.488 -2.9451 3.85217 0
M  V30 8129 N 753.831 -1.1567 -1.07043 0
M  V30 8130 C 755.242 -0.942408 -1.61169 0
M  V30 8131 C 755.593 0.515537 -1.89306 0
M  V30 8132 O 754.718 1.38726 -1.66084 0
M  V30 8133 C 755.313 -1.70431 -2.92812 0
M  V30 8134 C 753.872 -1.53521 -3.43669 0
M  V30 8135 C 753.019 -1.7179 -2.17678 0
M  V30 8136 H 755.97 -1.3065 -0.9009 0
M  V30 8137 H 755.991 -1.17566 -3.61882 0
M  V30 8138 H 755.503 -2.76538 -2.72302 0
M  V30 8139 H 753.604 -0.498224 -3.69254 0
M  V30 8140 H 753.717 -2.31422 -4.19501 0
M  V30 8141 H 752.081 -1.14468 -2.27529 0
M  V30 8142 H 752.864 -2.79269 -1.99659 0
M  V30 8143 N 755.309 1.25446 -0.953992 0
M  V30 8144 C 756.256 2.25912 -0.472485 0
M  V30 8145 C 757.226 1.59173 0.47469 0
M  V30 8146 O 758.411 1.86812 0.388082 0
M  V30 8147 C 755.551 3.44235 0.244218 0
M  V30 8148 C 754.664 4.25613 -0.740121 0
M  V30 8149 C 753.799 5.312 -0.000922267 0
M  V30 8150 C 752.838 6.04265 -0.976236 0
M  V30 8151 N 751.975 7.01589 -0.267952 0
M  V30 8152 H 756.815 2.66469 -1.3341 0
M  V30 8153 H 754.352 1.31005 -0.669045 0
M  V30 8154 H 756.31 4.11682 0.676314 0
M  V30 8155 H 754.94 3.04554 1.06988 0
M  V30 8156 H 753.992 3.57834 -1.2907 0
M  V30 8157 H 755.304 4.762 -1.48441 0
M  V30 8158 H 754.458 6.04719 0.48984 0
M  V30 8159 H 753.197 4.81484 0.776159 0
M  V30 8160 H 752.202 5.29561 -1.478 0
M  V30 8161 H 753.427 6.5607 -1.75354 0
M  V30 8162 H 751.373 6.54164 0.490403 0
M  V30 8163 H 751.29 7.4999 -0.951344 0
M  V30 8164 H 752.558 7.7924 0.201294 0
M  V30 8165 N 756.787 0.722489 1.40064 0
M  V30 8166 C 758.035 0.264455 2.00362 0
M  V30 8167 C 758.356 -1.14847 1.57592 0
M  V30 8168 O 757.626 -1.77982 0.818477 0
M  V30 8169 H 756.206 0.0947846 0.740962 0
M  V30 8170 H 758.868 0.929659 1.71299 0
M  V30 8171 H 757.964 0.302977 3.10626 0
M  V30 8172 N 758.265 -1.50454 0.469181 0
M  V30 8173 C 759.511 -2.02615 -0.0865971 0
M  V30 8174 C 759.844 -1.35062 -1.39542 0
M  V30 8175 O 759.119 -0.475701 -1.88593 0
M  V30 8176 C 759.402 -3.59068 -0.272385 0
M  V30 8177 C 759.255 -4.37196 1.05733 0
M  V30 8178 C 760.574 -4.2793 -1.0278 0
M  V30 8179 H 757.693 -0.736389 -0.0299977 0
M  V30 8180 H 760.335 -1.79792 0.614399 0
M  V30 8181 H 758.485 -3.78646 -0.869471 0
M  V30 8182 H 760.157 -4.29195 1.69084 0
M  V30 8183 H 758.4 -4.01013 1.65442 0
M  V30 8184 H 759.071 -5.44924 0.880997 0
M  V30 8185 H 761.547 -4.12816 -0.521718 0
M  V30 8186 H 760.423 -5.37214 -1.12659 0
M  V30 8187 H 760.684 -3.90968 -2.0639 0
M  V30 8188 N 759.743 -0.201713 -1.56304 0
M  V30 8189 C 760.69 0.716499 -2.19397 0
M  V30 8190 C 761.66 1.20494 -1.14326 0
M  V30 8191 O 762.845 1.26763 -1.42604 0
M  V30 8192 C 759.985 1.92762 -2.86246 0
M  V30 8193 C 759.098 1.47993 -4.0586 0
M  V30 8194 C 758.233 2.64706 -4.60547 0
M  V30 8195 C 757.272 2.16576 -5.72504 0
M  V30 8196 N 756.409 3.26491 -6.21569 0
M  V30 8197 H 761.249 0.171724 -2.97505 0
M  V30 8198 H 758.786 0.073016 -1.46919 0
M  V30 8199 H 760.744 2.6384 -3.23178 0
M  V30 8200 H 759.374 2.44559 -2.10691 0
M  V30 8201 H 758.426 0.66477 -3.74546 0
M  V30 8202 H 759.738 1.08686 -4.86815 0
M  V30 8203 H 758.892 3.43898 -4.99819 0
M  V30 8204 H 757.631 3.0729 -3.78713 0
M  V30 8205 H 756.636 1.3584 -5.32755 0
M  V30 8206 H 757.861 1.75015 -6.56161 0
M  V30 8207 H 755.807 3.68594 -5.42655 0
M  V30 8208 H 755.724 2.91374 -6.97594 0
M  V30 8209 H 756.992 4.05877 -6.65495 0
M  V30 8210 N 761.222 1.57436 0.0718424 0
M  V30 8211 C 762.172 2.00132 1.09229 0
M  V30 8212 C 763.156 0.883379 1.34481 0
M  V30 8213 O 764.348 1.14728 1.34783 0
M  V30 8214 C 761.477 2.44876 2.40605 0
M  V30 8215 C 760.563 3.63405 2.18627 0
M  V30 8216 N 760.954 4.77583 1.66579 0
M  V30 8217 C 759.252 3.69953 2.491 0
M  V30 8218 C 759.953 5.5943 1.59415 0
M  V30 8219 N 758.929 5.03275 2.05464 0
M  V30 8220 H 762.731 2.85849 0.683185 0
M  V30 8221 H 760.245 1.59987 0.278914 0
M  V30 8222 H 762.242 2.73703 3.14471 0
M  V30 8223 H 760.902 1.60546 2.82232 0
M  V30 8224 H 761.913 4.99875 1.35443 0
M  V30 8225 H 758.59 2.96336 2.94094 0
M  V30 8226 H 759.98 6.61093 1.20026 0
M  V30 8227 N 762.7 -0.34323 1.53817 0
M  V30 8228 C 763.63 -1.42709 1.84814 0
M  V30 8229 C 764.611 -1.5488 0.703297 0
M  V30 8230 O 765.796 -1.69082 0.955237 0
M  V30 8231 C 762.926 -2.79756 2.05801 0
M  V30 8232 C 761.88 -2.82392 3.21619 0
M  V30 8233 C 761.206 -4.22326 3.2794 0
M  V30 8234 C 762.506 -2.479 4.59721 0
M  V30 8235 H 764.2 -1.17018 2.75585 0
M  V30 8236 H 761.746 -0.561485 1.32602 0
M  V30 8237 H 763.699 -3.55627 2.26069 0
M  V30 8238 H 762.423 -3.06883 1.11761 0
M  V30 8239 H 761.082 -2.08974 3.01207 0
M  V30 8240 H 760.73 -4.46564 2.31494 0
M  V30 8241 H 760.43 -4.25001 4.05768 0
M  V30 8242 H 761.954 -5.00039 3.50419 0
M  V30 8243 H 763.368 -3.13484 4.80001 0
M  V30 8244 H 761.765 -2.61857 5.39954 0
M  V30 8245 H 762.835 -1.43087 4.63308 0
M  V30 8246 N 764.178 -1.45556 -0.604258 0
M  V30 8247 C 765.125 -1.54482 -1.71476 0
M  V30 8248 C 766.095 -0.390479 -1.61445 0
M  V30 8249 O 767.28 -0.604371 -1.80975 0
M  V30 8250 C 764.42 -1.52064 -3.09791 0
M  V30 8251 C 763.533 -2.78073 -3.30604 0
M  V30 8252 C 762.668 -2.67304 -4.59044 0
M  V30 8253 C 761.707 -3.88352 -4.73127 0
M  V30 8254 N 760.844 -3.76098 -5.9287 0
M  V30 8255 H 765.684 -2.49349 -1.63184 0
M  V30 8256 H 763.221 -1.23725 -0.795641 0
M  V30 8257 H 765.179 -1.48649 -3.89819 0
M  V30 8258 H 763.809 -0.607442 -3.17033 0
M  V30 8259 H 762.861 -2.91561 -2.44329 0
M  V30 8260 H 764.173 -3.67847 -3.36883 0
M  V30 8261 H 763.327 -2.61875 -5.47272 0
M  V30 8262 H 762.066 -1.75135 -4.55169 0
M  V30 8263 H 761.071 -3.94137 -3.83322 0
M  V30 8264 H 762.296 -4.81591 -4.78797 0
M  V30 8265 H 760.242 -2.867 -5.90033 0
M  V30 8266 H 760.159 -4.59509 -6.00323 0
M  V30 8267 H 761.427 -3.74607 -6.83586 0
M  V30 8268 N 765.656 0.84705 -1.32902 0
M  V30 8269 C 766.933 1.58583 -1.14503 0
M  V30 8270 C 767.313 2.09075 0.291724 0
M  V30 8271 O 766.661 1.88636 1.28952 0
M  V30 8272 C 766.871 2.72605 -2.17916 0
M  V30 8273 C 768.219 3.41993 -2.51646 0
M  V30 8274 O 769.243 2.82838 -2.1652 0
M  V30 8275 O 768.102 4.48761 -3.1189 0
M  V30 8276 H 765.196 0.698756 -0.442345 0
M  V30 8277 H 767.742 0.890516 -1.44457 0
M  V30 8278 H 766.514 2.32876 -3.14459 0
M  V30 8279 H 766.137 3.49807 -1.89 0
M  V30 8280 N 767.134 1.16236 1.06428 0
M  V30 8281 C 768.381 0.943034 1.79201 0
M  V30 8282 C 768.709 -0.529243 1.87161 0
M  V30 8283 O 767.964 -1.40874 1.35842 0
M  V30 8284 C 768.263 1.51396 3.2375 0
M  V30 8285 C 767.929 3.00833 3.35873 0
M  V30 8286 C 766.591 3.41626 3.38888 0
M  V30 8287 C 768.943 3.96825 3.37904 0
M  V30 8288 C 766.271 4.77033 3.4155 0
M  V30 8289 C 768.623 5.32116 3.42104 0
M  V30 8290 C 767.287 5.72392 3.43401 0
M  V30 8291 H 766.557 0.34508 0.655744 0
M  V30 8292 H 769.204 1.44929 1.25171 0
M  V30 8293 H 767.509 0.929114 3.80624 0
M  V30 8294 H 769.206 1.31996 3.78653 0
M  V30 8295 H 765.796 2.68306 3.3423 0
M  V30 8296 H 769.98 3.66376 3.34787 0
M  V30 8297 H 765.236 5.07569 3.40858 0
M  V30 8298 H 769.41 6.06286 3.42623 0
M  V30 8299 H 767.037 6.77296 3.45216 0
M  V30 8300 N 768.612 -1.24939 0.960631 0
M  V30 8301 C 770.023 -1.74701 0.658529 0
M  V30 8302 C 770.374 -1.77967 -0.825959 0
M  V30 8303 O 769.499 -1.40444 -1.64634 0
M  V30 8304 C 770.094 -3.17263 1.18867 0
M  V30 8305 C 768.653 -3.64561 0.936614 0
M  V30 8306 C 767.8 -2.43423 1.32817 0
M  V30 8307 H 770.751 -1.10741 1.13676 0
M  V30 8308 H 770.772 -3.76481 0.551589 0
M  V30 8309 H 770.284 -3.14854 2.26912 0
M  V30 8310 H 768.385 -3.72378 -0.128608 0
M  V30 8311 H 768.498 -4.52392 1.57729 0
M  V30 8312 H 766.862 -2.43513 0.746548 0
M  V30 8313 H 767.645 -2.437 2.41796 0
M  V30 8314 N 770.09 -0.729906 -1.39679 0
M  V30 8315 C 771.339 -0.272534 -1.9985 0
M  V30 8316 C 771.652 1.14519 -1.58571 0
M  V30 8317 O 772.858 1.70182 -2.11543 0
M  V30 8318 C 771.314 -0.436322 -3.57245 0
M  V30 8319 C 770.922 -1.86161 -4.0749 0
M  V30 8320 C 772.666 -0.0404679 -4.24481 0
M  V30 8321 C 770.573 -1.97522 -5.5744 0
M  V30 8322 H 769.503 -0.0981428 -0.747585 0
M  V30 8323 H 772.154 -0.903056 -1.59741 0
M  V30 8324 H 770.536 0.263015 -3.95126 0
M  V30 8325 H 771.71 -2.59248 -3.80955 0
M  V30 8326 H 770.025 -2.21021 -3.529 0
M  V30 8327 H 772.622 -0.104437 -5.34598 0
M  V30 8328 H 772.965 1.00357 -4.04023 0
M  V30 8329 H 773.498 -0.690774 -3.91757 0
M  V30 8330 H 770.237 -3.00096 -5.82771 0
M  V30 8331 H 769.757 -1.28864 -5.85794 0
M  V30 8332 H 771.436 -1.754 -6.22771 0
M  V30 8333 N 771.568 1.50203 -0.477153 0
M  V30 8334 C 772.498 2.31517 0.303646 0
M  V30 8335 C 773.479 1.38696 0.984753 0
M  V30 8336 O 774.664 1.67615 0.980758 0
M  V30 8337 C 771.794 3.18598 1.38249 0
M  V30 8338 C 770.748 4.2002 0.822645 0
M  V30 8339 C 770.074 4.95878 2.00024 0
M  V30 8340 C 771.374 5.22023 -0.170185 0
M  V30 8341 H 773.068 2.97042 -0.375027 0
M  V30 8342 H 770.614 1.42848 -0.181802 0
M  V30 8343 H 772.567 3.74282 1.93625 0
M  V30 8344 H 771.291 2.5097 2.09002 0
M  V30 8345 H 769.95 3.65445 0.290813 0
M  V30 8346 H 769.598 4.24717 2.69489 0
M  V30 8347 H 769.298 5.64487 1.63183 0
M  V30 8348 H 770.822 5.54399 2.55878 0
M  V30 8349 H 772.236 5.72543 0.294606 0
M  V30 8350 H 770.633 5.98386 -0.453181 0
M  V30 8351 H 771.703 4.72396 -1.09408 0
M  V30 8352 N 773.046 0.209999 1.56195 0
M  V30 8353 C 774.457 -0.299943 1.84275 0
M  V30 8354 C 774.808 -1.60314 1.1311 0
M  V30 8355 O 773.933 -2.1273 0.396874 0
M  V30 8356 C 774.528 -0.550986 3.3429 0
M  V30 8357 C 773.087 -1.00526 3.62728 0
M  V30 8358 C 772.234 -0.0619828 2.77231 0
M  V30 8359 H 775.185 0.433458 1.52666 0
M  V30 8360 H 775.206 -1.39846 3.53869 0
M  V30 8361 H 774.718 0.397669 3.86057 0
M  V30 8362 H 772.819 -1.96768 3.16407 0
M  V30 8363 H 772.932 -0.887664 4.70805 0
M  V30 8364 H 771.296 -0.566648 2.48317 0
M  V30 8365 H 772.079 0.881383 3.31793 0
M  V30 8366 N 774.524 -1.57472 -0.0634922 0
M  V30 8367 C 775.772 -1.87283 -0.759563 0
M  V30 8368 C 776.093 -0.803135 -1.77693 0
M  V30 8369 O 775.363 0.167293 -1.95184 0
M  V30 8370 H 773.943 -0.691106 -0.283516 0
M  V30 8371 H 776.605 -1.94864 -0.0376091 0
M  V30 8372 H 775.701 -2.85064 -1.27062 0
M  V30 8373 N 776.003 0.335068 -1.53997 0
M  V30 8374 C 776.913 1.43511 -1.85585 0
M  V30 8375 C 777.929 1.57162 -0.746726 0
M  V30 8376 O 779.105 1.72477 -1.03988 0
M  V30 8377 C 776.17 2.78386 -2.06646 0
M  V30 8378 C 775.231 2.74007 -3.30483 0
M  V30 8379 C 774.464 4.02449 -3.50529 0
M  V30 8380 O 774.687 5.00147 -2.74242 0
M  V30 8381 O 773.621 4.06405 -4.4398 0
M  V30 8382 H 777.447 1.19731 -2.79102 0
M  V30 8383 H 775.032 0.528033 -1.39758 0
M  V30 8384 H 776.914 3.58247 -2.21894 0
M  V30 8385 H 775.589 3.0208 -1.16317 0
M  V30 8386 H 774.496 1.92736 -3.2063 0
M  V30 8387 H 775.829 2.55267 -4.20832 0
M  V30 8388 N 777.481 1.45874 0.596531 0
M  V30 8389 C 778.73 1.49737 1.35135 0
M  V30 8390 C 779.043 0.147755 1.95041 0
M  V30 8391 O 780.249 0.0640984 2.71424 0
M  V30 8392 C 778.705 2.6378 2.44843 0
M  V30 8393 C 778.313 4.05102 1.91301 0
M  V30 8394 C 780.057 2.769 3.21755 0
M  V30 8395 C 777.964 5.10508 2.98557 0
M  V30 8396 H 776.894 0.557219 0.507959 0
M  V30 8397 H 779.545 1.72046 0.638147 0
M  V30 8398 H 777.927 2.34774 3.189 0
M  V30 8399 H 779.101 4.43836 1.2388 0
M  V30 8400 H 777.416 3.96528 1.271 0
M  V30 8401 H 780.013 3.52819 4.01775 0
M  V30 8402 H 780.356 1.83924 3.73467 0
M  V30 8403 H 780.889 3.05485 2.54802 0
M  V30 8404 H 777.628 6.0523 2.51749 0
M  V30 8405 H 777.148 4.76332 3.6451 0
M  V30 8406 H 778.827 5.35745 3.62748 0
M  V30 8407 N 778.959 -0.83999 1.33349 0
M  V30 8408 C 780.206 -1.59517 1.24742 0
M  V30 8409 C 780.534 -1.93598 -0.187077 0
M  V30 8410 O 779.789 -1.58782 -1.14398 0
M  V30 8411 C 780.088 -2.91571 2.06691 0
M  V30 8412 C 779.754 -2.76856 3.55895 0
M  V30 8413 C 778.416 -2.72551 3.96572 0
M  V30 8414 C 780.768 -2.61741 4.50712 0
M  V30 8415 C 778.096 -2.51028 5.30285 0
M  V30 8416 C 780.448 -2.41752 5.84584 0
M  V30 8417 C 779.112 -2.35848 6.24445 0
M  V30 8418 H 778.382 -0.583714 0.456463 0
M  V30 8419 H 781.029 -0.973261 1.64924 0
M  V30 8420 H 779.334 -3.57961 1.59284 0
M  V30 8421 H 781.031 -3.49053 1.9739 0
M  V30 8422 H 777.621 -2.81039 3.23597 0
M  V30 8423 H 781.805 -2.64102 4.20195 0
M  V30 8424 H 777.061 -2.44903 5.60208 0
M  V30 8425 H 781.235 -2.2904 6.57658 0
M  V30 8426 H 778.862 -2.18931 7.27993 0
M  V30 8427 N 780.437 -1.16799 -1.0581 0
M  V30 8428 C 781.384 -0.87902 -2.13405 0
M  V30 8429 C 782.354 0.174541 -1.6518 0
M  V30 8430 O 783.539 0.0386843 -1.90761 0
M  V30 8431 C 780.679 -0.391616 -3.42871 0
M  V30 8432 C 779.792 -1.50857 -4.04804 0
M  V30 8433 C 778.927 -0.975682 -5.22163 0
M  V30 8434 C 777.966 -2.06851 -5.76089 0
M  V30 8435 N 777.103 -1.55085 -6.84758 0
M  V30 8436 H 781.943 -1.80043 -2.37463 0
M  V30 8437 H 779.48 -0.898083 -1.16503 0
M  V30 8438 H 781.438 -0.0906247 -4.17102 0
M  V30 8439 H 780.068 0.49284 -3.19016 0
M  V30 8440 H 779.12 -1.92542 -3.28073 0
M  V30 8441 H 780.432 -2.33305 -4.40874 0
M  V30 8442 H 779.586 -0.628165 -6.03439 0
M  V30 8443 H 778.325 -0.120566 -4.87551 0
M  V30 8444 H 777.33 -2.42467 -4.93447 0
M  V30 8445 H 778.555 -2.92768 -6.12751 0
M  V30 8446 H 776.501 -0.718345 -6.52055 0
M  V30 8447 H 776.418 -2.31145 -7.19797 0
M  V30 8448 H 777.686 -1.23206 -7.69702 0
M  V30 8449 N 781.915 1.24427 -0.967243 0
M  V30 8450 C 783.145 1.96256 -0.64554 0
M  V30 8451 C 783.553 1.71959 0.789098 0
M  V30 8452 O 782.896 0.999913 1.54102 0
M  V30 8453 C 782.958 3.49553 -0.839798 0
M  V30 8454 C 782.622 3.97548 -2.25399 0
M  V30 8455 C 783.619 4.07257 -3.23168 0
M  V30 8456 C 781.304 4.30884 -2.58156 0
M  V30 8457 C 783.298 4.49635 -4.51782 0
M  V30 8458 C 780.985 4.72946 -3.86996 0
M  V30 8459 C 781.983 4.82286 -4.83621 0
M  V30 8460 O 781.671 5.23409 -6.10162 0
M  V30 8461 H 781.403 0.632002 -0.239895 0
M  V30 8462 H 783.957 1.59224 -1.29757 0
M  V30 8463 H 782.187 3.86479 -0.130603 0
M  V30 8464 H 783.876 4.02591 -0.517249 0
M  V30 8465 H 784.642 3.8172 -2.9919 0
M  V30 8466 H 780.521 4.22833 -1.83666 0
M  V30 8467 H 784.065 4.5684 -5.27203 0
M  V30 8468 H 779.962 4.9793 -4.10775 0
M  V30 8469 H 780.73 5.4156 -6.13722 0
M  V30 8470 N 783.393 0.737304 1.3929 0
M  V30 8471 C 784.34 0.0988364 2.30588 0
M  V30 8472 C 785.31 -0.727206 1.49335 0
M  V30 8473 O 786.495 -0.686694 1.78014 0
M  V30 8474 C 783.635 -0.800734 3.35682 0
M  V30 8475 C 782.748 0.0381731 4.31983 0
M  V30 8476 C 781.883 -0.862884 5.24145 0
M  V30 8477 C 780.922 -0.0193639 6.12097 0
M  V30 8478 N 780.059 -0.87648 6.96608 0
M  V30 8479 H 784.899 0.883031 2.84617 0
M  V30 8480 H 782.436 0.447111 1.4014 0
M  V30 8481 H 784.394 -1.33676 3.95205 0
M  V30 8482 H 783.024 -1.55088 2.83103 0
M  V30 8483 H 782.076 0.691641 3.74059 0
M  V30 8484 H 783.388 0.690294 4.94 0
M  V30 8485 H 782.542 -1.46667 5.88705 0
M  V30 8486 H 781.281 -1.54878 4.62454 0
M  V30 8487 H 780.286 0.597202 5.46547 0
M  V30 8488 H 781.511 0.663348 6.75852 0
M  V30 8489 H 779.457 -1.54762 6.37483 0
M  V30 8490 H 779.374 -0.280892 7.55478 0
M  V30 8491 H 780.642 -1.46575 7.65595 0
M  V30 8492 N 784.871 -1.49948 0.485112 0
M  V30 8493 C 786.117 -2.0332 -0.0571625 0
M  V30 8494 C 786.472 -1.35951 -1.36144 0
M  V30 8495 O 785.765 -0.480871 -1.85467 0
M  V30 8496 C 785.959 -3.56282 -0.282434 0
M  V30 8497 C 785.788 -4.38476 0.998455 0
M  V30 8498 C 784.558 -4.81076 1.54576 0
M  V30 8499 C 786.756 -4.78013 1.89758 0
M  V30 8500 N 784.738 -5.47641 2.77421 0
M  V30 8501 C 786.109 -5.44133 2.97186 0
M  V30 8502 C 788.164 -4.59963 1.90627 0
M  V30 8503 C 786.867 -5.94113 4.0549 0
M  V30 8504 C 788.893 -5.10893 2.97897 0
M  V30 8505 C 788.255 -5.77 4.04043 0
M  V30 8506 H 784.354 -0.781758 0.0194642 0
M  V30 8507 H 786.938 -1.833 0.65644 0
M  V30 8508 H 785.109 -3.76219 -0.965083 0
M  V30 8509 H 786.841 -3.96299 -0.820298 0
M  V30 8510 H 783.596 -4.60814 1.09304 0
M  V30 8511 H 784.02 -5.85521 3.39844 0
M  V30 8512 H 788.662 -4.08274 1.09875 0
M  V30 8513 H 786.38 -6.44832 4.8705 0
M  V30 8514 H 789.966 -4.98748 2.9957 0
M  V30 8515 H 788.846 -6.15698 4.85681 0
M  V30 8516 N 786.349 -0.21828 -1.56081 0
M  V30 8517 C 787.577 0.419258 -2.02608 0
M  V30 8518 C 787.992 1.53578 -1.09814 0
M  V30 8519 O 787.349 1.82185 -0.107149 0
M  V30 8520 C 787.4 0.953955 -3.48686 0
M  V30 8521 O 787.121 -0.11805 -4.37941 0
M  V30 8522 C 788.622 1.66506 -4.10841 0
M  V30 8523 H 785.842 0.10296 -0.663054 0
M  V30 8524 H 788.386 -0.333776 -2.01758 0
M  V30 8525 H 786.541 1.65727 -3.50162 0
M  V30 8526 H 786.955 0.283359 -5.23734 0
M  V30 8527 H 788.429 1.99123 -5.14834 0
M  V30 8528 H 788.906 2.57705 -3.55647 0
M  V30 8529 H 789.512 1.00703 -4.13206 0
M  V30 8530 N 787.827 1.57504 0.0551401 0
M  V30 8531 C 789.073 1.88334 0.752216 0
M  V30 8532 C 789.406 0.812742 1.76375 0
M  V30 8533 O 788.681 -0.175198 1.93709 0
M  V30 8534 C 788.964 3.29824 1.44528 0
M  V30 8535 C 788.817 4.47553 0.449026 0
M  V30 8536 C 790.136 3.69808 2.38601 0
M  V30 8537 H 787.255 0.684973 0.271995 0
M  V30 8538 H 789.897 1.89994 0.0151895 0
M  V30 8539 H 788.047 3.28539 2.07351 0
M  V30 8540 H 789.719 4.60967 -0.175277 0
M  V30 8541 H 787.962 4.33168 -0.234162 0
M  V30 8542 H 788.633 5.43376 0.971917 0
M  V30 8543 H 791.109 3.72293 1.85842 0
M  V30 8544 H 789.985 4.69665 2.84088 0
M  V30 8545 H 790.246 3.00641 3.24141 0
M  V30 8546 N 789.305 -0.326896 1.54172 0
M  V30 8547 C 790.533 -1.08486 1.76177 0
M  V30 8548 C 790.948 -1.81815 0.508788 0
M  V30 8549 O 790.305 -1.74924 -0.520362 0
M  V30 8550 C 790.356 -2.08552 2.95276 0
M  V30 8551 O 790.077 -1.38202 4.15731 0
M  V30 8552 C 791.578 -2.96593 3.29466 0
M  V30 8553 H 788.798 -0.322835 0.588233 0
M  V30 8554 H 791.342 -0.374036 2.0105 0
M  V30 8555 H 789.497 -2.75174 2.72687 0
M  V30 8556 H 789.911 -2.05186 4.827 0
M  V30 8557 H 791.385 -3.62708 4.16109 0
M  V30 8558 H 791.862 -3.63511 2.46487 0
M  V30 8559 H 792.468 -2.35537 3.54122 0
M  V30 8560 N 790.784 -1.46188 -0.588786 0
M  V30 8561 C 792.03 -1.51407 -1.34921 0
M  V30 8562 C 792.363 -0.162771 -1.93517 0
M  V30 8563 O 791.638 0.825082 -1.76132 0
M  V30 8564 C 791.921 -2.60795 -2.48311 0
M  V30 8565 C 791.774 -4.05435 -1.94789 0
M  V30 8566 C 793.093 -2.66313 -3.50379 0
M  V30 8567 H 790.212 -0.551213 -0.489217 0
M  V30 8568 H 792.854 -1.78095 -0.661993 0
M  V30 8569 H 791.004 -2.3817 -3.06932 0
M  V30 8570 H 792.676 -4.39328 -1.40672 0
M  V30 8571 H 790.919 -4.15202 -1.25659 0
M  V30 8572 H 791.59 -4.77691 -2.76613 0
M  V30 8573 H 794.066 -2.86634 -3.01629 0
M  V30 8574 H 792.942 -3.44681 -4.27184 0
M  V30 8575 H 793.203 -1.72127 -4.07216 0
M  V30 8576 N 792.262 0.832906 -1.33792 0
M  V30 8577 C 793.172 1.97514 -1.26592 0
M  V30 8578 C 794.188 1.73114 -0.175391 0
M  V30 8579 O 795.364 1.97387 -0.400062 0
M  V30 8580 C 792.429 3.31625 -1.01121 0
M  V30 8581 C 791.49 3.69101 -2.19233 0
M  V30 8582 C 790.723 4.96813 -1.94968 0
M  V30 8583 O 790.946 5.63208 -0.902955 0
M  V30 8584 O 789.88 5.31932 -2.8166 0
M  V30 8585 H 793.706 2.0653 -2.22664 0
M  V30 8586 H 791.291 0.966826 -1.13898 0
M  V30 8587 H 793.173 4.11968 -0.886571 0
M  V30 8588 H 791.848 3.23599 -0.080822 0
M  V30 8589 H 790.755 2.89243 -2.37253 0
M  V30 8590 H 792.088 3.818 -3.10628 0
M  V30 8591 N 793.74 1.17359 1.05189 0
M  V30 8592 C 795.017 0.871914 1.75091 0
M  V30 8593 C 795.397 -0.627821 2.01548 0
M  V30 8594 O 794.745 -1.5791 1.65156 0
M  V30 8595 C 794.955 1.70687 3.04413 0
M  V30 8596 C 796.303 1.92684 3.78362 0
M  V30 8597 O 797.327 1.67645 3.14282 0
M  V30 8598 O 796.186 2.34765 4.93505 0
M  V30 8599 H 793.28 0.322831 0.761386 0
M  V30 8600 H 795.826 1.28054 1.11357 0
M  V30 8601 H 794.598 2.72405 2.80911 0
M  V30 8602 H 794.221 1.29602 3.75884 0
M  V30 8603 N 795.218 -1.23913 0.973828 0
M  V30 8604 C 796.466 -1.91771 0.637817 0
M  V30 8605 C 796.787 -1.76434 -0.830435 0
M  V30 8606 O 796.057 -1.13965 -1.59339 0
M  V30 8607 H 794.637 -0.709761 0.232912 0
M  V30 8608 H 797.299 -1.50677 1.23622 0
M  V30 8609 H 796.395 -2.99327 0.883731 0
M  V30 8610 N 796.696 -0.74468 -1.38897 0
M  V30 8611 C 798.107 -0.36568 -1.83084 0
M  V30 8612 C 798.458 1.10436 -1.62168 0
M  V30 8613 O 797.583 1.85281 -1.11804 0
M  V30 8614 C 798.178 -0.656946 -3.3237 0
M  V30 8615 C 796.737 -0.331329 -3.74939 0
M  V30 8616 C 795.884 -0.914661 -2.61781 0
M  V30 8617 H 798.835 -0.941551 -1.27752 0
M  V30 8618 H 798.856 0.0679546 -3.80439 0
M  V30 8619 H 798.368 -1.72693 -3.47561 0
M  V30 8620 H 796.469 0.732426 -3.6533 0
M  V30 8621 H 796.582 -0.820655 -4.72019 0
M  V30 8622 H 794.946 -0.34063 -2.52412 0
M  V30 8623 H 795.729 -1.98949 -2.79775 0
M  V30 8624 N 798.174 1.49689 -0.493057 0
M  V30 8625 C 799.402 2.06836 0.0513141 0
M  V30 8626 C 799.817 1.35436 1.31539 0
M  V30 8627 O 799.174 0.430248 1.77356 0
M  V30 8628 C 799.225 3.60107 0.317003 0
M  V30 8629 O 798.946 4.2882 -0.896957 0
M  V30 8630 C 800.447 4.33945 0.905902 0
M  V30 8631 H 797.667 0.670787 -0.0169048 0
M  V30 8632 H 800.211 1.92574 -0.688139 0
M  V30 8633 H 798.366 3.74099 1.00642 0
M  V30 8634 H 798.78 5.20395 -0.654939 0
M  V30 8635 H 800.254 5.42087 1.04144 0
M  V30 8636 H 800.731 3.95895 1.90168 0
M  V30 8637 H 801.337 4.2454 0.254195 0
M  V30 8638 N 799.652 0.226554 1.55963 0
M  V30 8639 C 800.599 -0.681504 2.20509 0
M  V30 8640 C 801.569 -1.1866 1.16229 0
M  V30 8641 O 802.754 -1.24478 1.44602 0
M  V30 8642 C 799.894 -1.88183 2.89277 0
M  V30 8643 C 799.007 -1.41517 4.08163 0
M  V30 8644 C 798.142 -2.57346 4.647 0
M  V30 8645 C 797.181 -2.07441 5.75877 0
M  V30 8646 N 796.318 -3.16561 6.26685 0
M  V30 8647 H 801.158 -0.124372 2.9774 0
M  V30 8648 H 798.695 -0.0496333 1.47016 0
M  V30 8649 H 800.653 -2.58666 3.27335 0
M  V30 8650 H 799.283 -2.41177 2.14555 0
M  V30 8651 H 798.335 -0.605099 3.75557 0
M  V30 8652 H 799.647 -1.00928 4.88482 0
M  V30 8653 H 798.801 -3.35903 5.05227 0
M  V30 8654 H 797.54 -3.01227 3.83554 0
M  V30 8655 H 796.545 -1.27347 5.34848 0
M  V30 8656 H 797.77 -1.64554 6.58862 0
M  V30 8657 H 795.716 -3.59914 5.48451 0
M  V30 8658 H 795.633 -2.80239 7.02141 0
M  V30 8659 H 796.901 -3.95238 6.71868 0
M  V30 8660 N 801.13 -1.57531 -0.0467866 0
M  V30 8661 C 802.355 -1.93087 -0.757123 0
M  V30 8662 C 802.78 -0.825116 -1.69037 0
M  V30 8663 O 802.138 0.220449 -1.79955 0
M  V30 8664 C 802.186 -3.27669 -1.5055 0
M  V30 8665 O 801.29 -3.18667 -2.61773 0
M  V30 8666 H 800.631 -0.631597 -0.204892 0
M  V30 8667 H 803.161 -2.04599 -0.00755232 0
M  V30 8668 H 803.171 -3.6214 -1.87932 0
M  V30 8669 H 801.846 -4.07717 -0.820931 0
M  V30 8670 H 800.423 -2.95798 -2.27064 0
M  V30 8671 N 802.608 0.318715 -1.54344 0
M  V30 8672 C 803.885 1.07461 -1.63437 0
M  V30 8673 C 804.265 2.05771 -0.47131 0
M  V30 8674 O 803.613 2.22175 0.53391 0
M  V30 8675 C 803.823 1.77224 -3.00654 0
M  V30 8676 C 805.171 2.30069 -3.56866 0
M  V30 8677 O 806.195 1.87284 -3.0299 0
M  V30 8678 O 805.054 3.08412 -4.51159 0
M  V30 8679 H 802.148 0.495627 -0.66203 0
M  V30 8680 H 804.694 0.318218 -1.6669 0
M  V30 8681 H 803.466 1.05742 -3.76742 0
M  V30 8682 H 803.089 2.59662 -3.01101 0
M  V30 8683 N 804.086 1.46499 0.581025 0
M  V30 8684 C 805.497 1.4604 1.16315 0
M  V30 8685 C 805.848 0.202154 1.95156 0
M  V30 8686 O 804.973 -0.694638 2.04948 0
M  V30 8687 C 805.568 2.64593 2.11604 0
M  V30 8688 C 804.127 2.6717 2.65136 0
M  V30 8689 C 803.274 2.38753 1.4104 0
M  V30 8690 H 806.225 1.54354 0.368871 0
M  V30 8691 H 806.246 2.40207 2.95095 0
M  V30 8692 H 805.758 3.56154 1.54194 0
M  V30 8693 H 803.859 1.79685 3.26411 0
M  V30 8694 H 803.972 3.67182 3.07757 0
M  V30 8695 H 802.336 1.88845 1.70908 0
M  V30 8696 H 803.119 3.32493 0.854588 0
M  V30 8697 N 805.565 -0.825799 1.34232 0
M  V30 8698 C 806.981 -1.11848 1.13851 0
M  V30 8699 C 807.181 -2.01405 -0.0619031 0
M  V30 8700 O 806.237 -2.41465 -0.738287 0
M  V30 8701 C 807.55 -1.76797 2.43235 0
M  V30 8702 C 809.098 -1.89304 2.49265 0
M  V30 8703 C 809.573 -2.57669 3.78643 0
M  V30 8704 N 811.064 -2.65171 3.79788 0
M  V30 8705 C 811.799 -3.1879 4.76614 0
M  V30 8706 N 811.295 -3.72995 5.83821 0
M  V30 8707 N 813.088 -3.17164 4.64073 0
M  V30 8708 H 805.239 -0.230049 2.11151 0
M  V30 8709 H 807.502 -0.164609 0.9336 0
M  V30 8710 H 807.208 -1.18455 3.31152 0
M  V30 8711 H 807.082 -2.76693 2.56361 0
M  V30 8712 H 809.469 -2.46796 1.6179 0
M  V30 8713 H 809.55 -0.883191 2.4007 0
M  V30 8714 H 809.194 -2.00833 4.66507 0
M  V30 8715 H 809.124 -3.59152 3.8512 0
M  V30 8716 H 811.615 -2.26746 3.02315 0
M  V30 8717 H 811.928 -4.12151 6.53721 0
M  V30 8718 H 810.273 -3.71246 5.87538 0
M  V30 8719 H 813.464 -2.74082 3.79469 0
M  V30 8720 H 813.637 -3.58647 5.397 0
M  V30 8721 N 807.043 -1.17915 -1.04565 0
M  V30 8722 C 808.283 -0.982331 -1.79247 0
M  V30 8723 C 808.647 0.47998 -1.85904 0
M  V30 8724 O 809.848 0.796078 -2.56741 0
M  V30 8725 C 808.119 -1.61329 -3.18916 0
M  V30 8726 S 809.678 -1.56355 -4.09998 0
M  V30 8727 H 806.496 -0.352869 -0.617256 0
M  V30 8728 H 809.098 -1.49971 -1.25415 0
M  V30 8729 H 807.802 -2.66993 -3.11678 0
M  V30 8730 H 807.333 -1.09599 -3.77825 0
M  V30 8731 H 809.348 -0.57593 -4.92846 0
M  V30 8732 N 808.521 1.23394 -0.980386 0
M  V30 8733 C 809.451 2.2717 -0.540024 0
M  V30 8734 C 810.432 1.64659 0.426787 0
M  V30 8735 O 811.617 1.91543 0.320153 0
M  V30 8736 C 808.747 3.46939 0.15836 0
M  V30 8737 C 807.701 4.21802 -0.725732 0
M  V30 8738 C 807.027 5.34597 0.104866 0
M  V30 8739 C 808.327 4.81802 -2.01654 0
M  V30 8740 H 810.021 2.64257 -1.40743 0
M  V30 8741 H 807.567 1.2703 -0.678193 0
M  V30 8742 H 809.52 4.18683 0.477737 0
M  V30 8743 H 808.244 3.08912 1.06022 0
M  V30 8744 H 806.903 3.51875 -1.02857 0
M  V30 8745 H 806.551 4.92812 1.00726 0
M  V30 8746 H 806.251 5.85607 -0.483557 0
M  V30 8747 H 807.775 6.09163 0.418624 0
M  V30 8748 H 809.189 5.45554 -1.76193 0
M  V30 8749 H 807.586 5.43098 -2.55273 0
M  V30 8750 H 808.656 4.02549 -2.70338 0
M  V30 8751 N 809.999 0.752036 1.385 0
M  V30 8752 C 811.227 0.318274 2.04437 0
M  V30 8753 C 811.642 -1.05285 1.56718 0
M  V30 8754 O 810.999 -1.66844 0.73956 0
M  V30 8755 C 811.05 0.330106 3.5999 0
M  V30 8756 O 810.771 1.64712 4.05957 0
M  V30 8757 C 812.272 -0.117713 4.43144 0
M  V30 8758 H 809.492 0.136228 0.657026 0
M  V30 8759 H 812.036 1.02045 1.7722 0
M  V30 8760 H 810.191 -0.323323 3.86048 0
M  V30 8761 H 810.605 1.57225 5.0038 0
M  V30 8762 H 812.079 -0.0582735 5.51969 0
M  V30 8763 H 812.556 -1.16538 4.23457 0
M  V30 8764 H 813.162 0.506784 4.2227 0
M  V30 8765 N 811.477 -1.49425 0.500989 0
M  V30 8766 C 812.893 -1.58826 0.156951 0
M  V30 8767 C 813.093 -1.50622 -1.33848 0
M  V30 8768 O 812.149 -1.38016 -2.11442 0
M  V30 8769 C 813.462 -2.91611 0.73374 0
M  V30 8770 C 815.01 -3.05076 0.699846 0
M  V30 8771 C 815.485 -4.40479 1.2547 0
M  V30 8772 N 816.976 -4.4697 1.2154 0
M  V30 8773 C 817.711 -5.50189 1.6149 0
M  V30 8774 N 817.207 -6.60512 2.09034 0
M  V30 8775 N 819 -5.40903 1.52907 0
M  V30 8776 H 811.151 -1.53001 1.47324 0
M  V30 8777 H 813.414 -0.724765 0.61108 0
M  V30 8778 H 813.12 -3.03182 1.78251 0
M  V30 8779 H 812.994 -3.767 0.19417 0
M  V30 8780 H 815.381 -2.93134 -0.340085 0
M  V30 8781 H 815.462 -2.2167 1.27656 0
M  V30 8782 H 815.106 -4.53172 2.29341 0
M  V30 8783 H 815.036 -5.22524 0.653921 0
M  V30 8784 H 817.527 -3.67819 0.867043 0
M  V30 8785 H 817.84 -7.35372 2.37588 0
M  V30 8786 H 816.185 -6.61553 2.13008 0
M  V30 8787 H 819.376 -4.53606 1.15583 0
M  V30 8788 H 819.549 -6.21219 1.84365 0
M  V30 8789 N 812.955 -0.234822 -1.55841 0
M  V30 8790 C 814.185 0.397168 -2.02746 0
M  V30 8791 C 814.593 1.52951 -1.11367 0
M  V30 8792 O 813.936 1.8332 -0.118133 0
M  V30 8793 C 813.998 0.977748 -3.45948 0
M  V30 8794 C 813.662 -0.0208193 -4.56995 0
M  V30 8795 C 814.659 -0.826015 -5.13296 0
M  V30 8796 C 812.344 -0.143416 -5.02095 0
M  V30 8797 C 814.338 -1.74038 -6.1318 0
M  V30 8798 C 812.025 -1.0613 -6.01814 0
M  V30 8799 C 813.023 -1.85832 -6.57233 0
M  V30 8800 O 812.711 -2.76075 -7.55008 0
M  V30 8801 H 812.443 0.0999802 -0.668566 0
M  V30 8802 H 814.997 -0.352673 -2.0235 0
M  V30 8803 H 813.227 1.77693 -3.43456 0
M  V30 8804 H 814.916 1.51854 -3.76424 0
M  V30 8805 H 815.682 -0.741822 -4.79293 0
M  V30 8806 H 811.561 0.466857 -4.5863 0
M  V30 8807 H 815.105 -2.36291 -6.56363 0
M  V30 8808 H 811.002 -1.14646 -6.35237 0
M  V30 8809 H 811.77 -2.703 -7.7258 0
M  V30 8810 N 814.433 1.57553 0.0384317 0
M  V30 8811 C 815.663 1.92813 0.742064 0
M  V30 8812 C 816.071 0.832157 1.69917 0
M  V30 8813 O 815.414 -0.200917 1.82598 0
M  V30 8814 C 815.476 3.23806 1.56172 0
M  V30 8815 C 815.14 4.50459 0.770407 0
M  V30 8816 C 816.137 5.19846 0.0748006 0
M  V30 8817 C 813.822 4.97001 0.727714 0
M  V30 8818 C 815.816 6.34047 -0.652902 0
M  V30 8819 C 813.503 6.111 -0.00373992 0
M  V30 8820 C 814.501 6.79477 -0.692816 0
M  V30 8821 O 814.189 7.91395 -1.41241 0
M  V30 8822 H 813.921 0.641174 0.214179 0
M  V30 8823 H 816.475 2.054 0.00285095 0
M  V30 8824 H 814.705 3.0752 2.34453 0
M  V30 8825 H 816.394 3.44463 2.14709 0
M  V30 8826 H 817.16 4.84899 0.098875 0
M  V30 8827 H 813.039 4.43629 1.25355 0
M  V30 8828 H 816.583 6.87353 -1.1913 0
M  V30 8829 H 812.48 6.45493 -0.0297703 0
M  V30 8830 H 813.248 8.07702 -1.32512 0
M  V30 8831 N 815.911 -0.310526 1.54511 0
M  V30 8832 C 817.136 -1.07046 1.7764 0
M  V30 8833 C 817.561 -1.80488 0.529696 0
M  V30 8834 O 816.919 -1.73702 -0.519361 0
M  V30 8835 C 816.967 -2.03411 2.97752 0
M  V30 8836 O 816.071 -3.11545 2.7021 0
M  V30 8837 H 815.412 -0.307994 0.588248 0
M  V30 8838 H 817.942 -0.350848 2.01569 0
M  V30 8839 H 817.952 -2.46048 3.2546 0
M  V30 8840 H 816.627 -1.49361 3.88155 0
M  V30 8841 H 815.204 -2.7349 2.53491 0
M  V30 8842 N 817.389 -1.46805 -0.573248 0
M  V30 8843 C 818.614 -1.56433 -1.36175 0
M  V30 8844 C 819.039 -0.209336 -1.86932 0
M  V30 8845 O 818.397 0.812146 -1.62092 0
M  V30 8846 C 818.445 -2.58055 -2.51873 0
M  V30 8847 O 817.549 -2.12214 -3.53609 0
M  V30 8848 H 816.89 -0.526068 -0.405153 0
M  V30 8849 H 819.42 -1.92456 -0.694405 0
M  V30 8850 H 819.43 -2.77966 -2.98662 0
M  V30 8851 H 818.105 -3.56448 -2.14284 0
M  V30 8852 H 816.682 -2.02333 -3.13234 0
M  V30 8853 N 818.867 0.818669 -1.34668 0
M  V30 8854 C 820.114 1.57512 -1.27264 0
M  V30 8855 C 820.442 1.93871 0.156254 0
M  V30 8856 O 819.697 1.60582 1.11857 0
M  V30 8857 C 819.996 2.88245 -2.11304 0
M  V30 8858 C 819.662 2.71159 -3.60255 0
M  V30 8859 C 818.324 2.66207 -4.00858 0
M  V30 8860 C 820.676 2.54538 -4.54819 0
M  V30 8861 C 818.004 2.4256 -5.34211 0
M  V30 8862 C 820.356 2.32421 -5.88356 0
M  V30 8863 C 819.02 2.25884 -6.28118 0
M  V30 8864 H 818.29 0.576378 -0.465692 0
M  V30 8865 H 820.937 0.9469 -1.66451 0
M  V30 8866 H 819.242 3.55381 -1.64958 0
M  V30 8867 H 820.939 3.45869 -2.02919 0
M  V30 8868 H 817.529 2.75856 -3.28027 0
M  V30 8869 H 821.713 2.57384 -4.24343 0
M  V30 8870 H 816.969 2.35959 -5.64033 0
M  V30 8871 H 821.143 2.18548 -6.61218 0
M  V30 8872 H 818.77 2.07322 -7.31383 0
M  V30 8873 N 820.346 1.18468 1.03938 0
M  V30 8874 C 821.592 0.982286 1.77423 0
M  V30 8875 C 821.925 -0.48679 1.88 0
M  V30 8876 O 821.2 -1.36146 1.38905 0
M  V30 8877 C 821.483 1.63929 3.20623 0
M  V30 8878 C 821.336 3.18132 3.17982 0
M  V30 8879 C 822.655 1.3536 4.18767 0
M  V30 8880 H 819.774 0.358264 0.644062 0
M  V30 8881 H 822.416 1.46154 1.21405 0
M  V30 8882 H 820.566 1.2318 3.68455 0
M  V30 8883 H 822.238 3.68024 2.78129 0
M  V30 8884 H 820.481 3.50225 2.55978 0
M  V30 8885 H 821.152 3.5924 4.19107 0
M  V30 8886 H 823.628 1.70669 3.79488 0
M  V30 8887 H 822.504 1.83896 5.17178 0
M  V30 8888 H 822.765 0.276722 4.41233 0
M  V30 8889 N 821.824 -1.22873 0.986916 0
M  V30 8890 C 822.772 -2.26597 0.525043 0
M  V30 8891 C 823.766 -1.64079 -0.421252 0
M  V30 8892 O 824.972 -1.77576 -0.294429 0
M  V30 8893 H 821.347 -0.736606 0.151381 0
M  V30 8894 H 823.318 -2.62909 1.41142 0
M  V30 8895 C 822.067 -3.47374 -0.150542 0
M  V30 8896 H 821.39 -3.95737 0.568541 0
M  V30 8897 H 822.83 -4.21739 -0.437256 0
M  V30 8898 C 821.289 -3.07163 -1.38392 0
M  V30 8899 O 821.819 -3.16028 -2.47971 0
M  V30 8900 N 820.025 -2.62009 -1.25697 0
M  V30 8901 H 819.572 -2.54996 -0.365355 0
M  V30 8902 H 819.53 -2.35472 -2.08327 0
M  V30 8903 N 823.302 -0.75937 -1.38099 0
M  V30 8904 C 824.235 -0.0838362 -2.28046 0
M  V30 8905 C 825.213 0.722229 -1.4568 0
M  V30 8906 O 826.397 0.699629 -1.75036 0
M  V30 8907 C 823.524 0.887916 -3.26854 0
M  V30 8908 C 822.57 0.167374 -4.26171 0
M  V30 8909 S 823.403 -1.13592 -5.23314 0
M  V30 8910 C 824.559 -0.167385 -6.25676 0
M  V30 8911 H 824.792 -0.846564 -2.84992 0
M  V30 8912 H 822.325 -0.552206 -1.44188 0
M  V30 8913 H 824.283 1.44322 -3.84293 0
M  V30 8914 H 822.944 1.62366 -2.68879 0
M  V30 8915 H 822.137 0.903567 -4.95834 0
M  V30 8916 H 821.739 -0.316572 -3.72658 0
M  V30 8917 H 824.031 0.664598 -6.74232 0
M  V30 8918 H 824.974 -0.831836 -7.03197 0
M  V30 8919 H 825.382 0.21589 -5.64087 0
M  V30 8920 N 824.78 1.49157 -0.508906 0
M  V30 8921 C 825.69 2.33045 0.269656 0
M  V30 8922 C 826.706 1.45143 0.959662 0
M  V30 8923 O 827.882 1.78155 0.939295 0
M  V30 8924 C 824.947 3.20772 1.31554 0
M  V30 8925 C 824.008 4.24531 0.638131 0
M  V30 8926 C 823.241 5.08065 1.63418 0
M  V30 8927 O 823.464 4.93238 2.86483 0
M  V30 8928 O 822.398 5.90117 1.18516 0
M  V30 8929 H 826.224 3.00821 -0.417183 0
M  V30 8930 H 823.809 1.46938 -0.270119 0
M  V30 8931 H 825.691 3.75095 1.92047 0
M  V30 8932 H 824.366 2.55681 1.98516 0
M  V30 8933 H 823.273 3.74099 -0.00674357 0
M  V30 8934 H 824.606 4.92199 0.0108155 0
M  V30 8935 N 826.258 0.243083 1.55714 0
M  V30 8936 C 827.674 -0.111853 1.59208 0
M  V30 8937 C 827.874 -1.5723 1.2602 0
M  V30 8938 O 826.93 -2.31608 1.00569 0
M  V30 8939 C 828.243 0.233885 2.99789 0
M  V30 8940 C 829.791 0.177873 3.12494 0
M  V30 8941 C 830.266 0.49759 4.55289 0
M  V30 8942 N 831.757 0.447949 4.61029 0
M  V30 8943 C 832.492 0.668545 5.69489 0
M  V30 8944 N 831.988 0.952064 6.86227 0
M  V30 8945 N 833.781 0.599512 5.58894 0
M  V30 8946 H 825.932 1.19554 1.75558 0
M  V30 8947 H 828.195 0.480765 0.817049 0
M  V30 8948 H 827.901 1.24835 3.28799 0
M  V30 8949 H 827.775 -0.440846 3.74615 0
M  V30 8950 H 830.162 -0.827263 2.83267 0
M  V30 8951 H 830.243 0.886399 2.39951 0
M  V30 8952 H 829.887 1.50026 4.85237 0
M  V30 8953 H 829.817 -0.232371 5.26087 0
M  V30 8954 H 832.308 0.237388 3.77154 0
M  V30 8955 H 832.621 1.10791 7.64817 0
M  V30 8956 H 830.966 0.989496 6.8792 0
M  V30 8957 H 834.157 0.378088 4.66571 0
M  V30 8958 H 834.33 0.774828 6.43351 0
M  V30 8959 N 827.736 -1.57571 -0.0300757 0
M  V30 8960 C 829.013 -1.80381 -0.756447 0
M  V30 8961 C 829.393 -0.840906 -1.93628 0
M  V30 8962 O 828.741 0.117143 -2.282 0
M  V30 8963 C 828.951 -3.2807 -1.19043 0
M  V30 8964 C 830.299 -3.93025 -1.60676 0
M  V30 8965 O 831.323 -3.32213 -1.28503 0
M  V30 8966 O 830.182 -5.00092 -2.20386 0
M  V30 8967 H 827.276 -0.741737 -0.365725 0
M  V30 8968 H 829.822 -1.69699 -0.00693177 0
M  V30 8969 H 828.594 -3.89748 -0.348128 0
M  V30 8970 H 828.217 -3.43637 -1.99999 0
M  V30 8971 N 829.214 0.302327 -1.54673 0
M  V30 8972 C 830.144 1.37759 -1.88533 0
M  V30 8973 C 831.125 1.52961 -0.744113 0
M  V30 8974 O 832.31 1.6649 -0.999731 0
M  V30 8975 C 829.44 2.74201 -2.13146 0
M  V30 8976 C 828.394 2.73765 -3.28993 0
M  V30 8977 C 827.72 4.13483 -3.39022 0
M  V30 8978 C 829.02 2.35624 -4.66132 0
M  V30 8979 H 830.714 1.0967 -2.78591 0
M  V30 8980 H 828.26 0.52613 -1.34044 0
M  V30 8981 H 830.213 3.49508 -2.35419 0
M  V30 8982 H 828.937 3.03812 -1.19858 0
M  V30 8983 H 827.596 2.00914 -3.06642 0
M  V30 8984 H 827.244 4.40269 -2.43253 0
M  V30 8985 H 826.944 4.14093 -4.16894 0
M  V30 8986 H 828.468 4.90572 -3.63553 0
M  V30 8987 H 829.882 3.00647 -4.88143 0
M  V30 8988 H 828.279 2.47449 -5.46707 0
M  V30 8989 H 829.349 1.30753 -4.66939 0
M  V30 8990 N 830.692 1.47107 0.565454 0
M  V30 8991 C 831.655 1.58535 1.65527 0
M  V30 8992 C 832.655 0.461081 1.54048 0
M  V30 8993 O 833.845 0.725911 1.58355 0
M  V30 8994 C 830.977 1.52204 3.05036 0
M  V30 8995 H 832.17 2.55676 1.56747 0
M  V30 8996 H 829.723 1.35174 0.78471 0
M  V30 8997 H 830.458 0.564071 3.19357 0
M  V30 8998 H 830.243 2.3379 3.14777 0
M  V30 8999 H 831.733 1.63322 3.84338 0
M  V30 9000 N 832.17 -0.811516 1.35101 0
M  V30 9001 C 833.395 -1.60499 1.31358 0
M  V30 9002 C 833.82 -1.87793 -0.107383 0
M  V30 9003 O 833.178 -1.46161 -1.07268 0
M  V30 9004 C 833.226 -2.91612 2.12119 0
M  V30 9005 O 832.33 -3.84211 1.49853 0
M  V30 9006 H 831.671 -0.487702 0.450603 0
M  V30 9007 H 834.201 -1.00758 1.7807 0
M  V30 9008 H 834.211 -3.4108 2.23894 0
M  V30 9009 H 832.886 -2.71071 3.15426 0
M  V30 9010 H 831.463 -3.42751 1.46889 0
M  V30 9011 N 833.648 -1.19017 -1.03309 0
M  V30 9012 C 834.896 -0.988258 -1.76289 0
M  V30 9013 C 835.217 0.482557 -1.88935 0
M  V30 9014 O 834.487 1.34969 -1.41987 0
M  V30 9015 H 833.067 -0.36267 -0.653054 0
M  V30 9016 H 835.729 -1.49836 -1.2464 0
M  V30 9017 H 834.825 -1.43273 -2.77271 0
M  V30 9018 N 835.127 1.22348 -0.993418 0
M  V30 9019 C 836.057 2.26584 -0.564088 0
M  V30 9020 C 837.038 1.65102 0.409298 0
M  V30 9021 O 838.223 1.91872 0.299819 0
M  V30 9022 C 835.353 3.47087 0.121554 0
M  V30 9023 C 834.307 4.21009 -0.770429 0
M  V30 9024 C 833.633 5.34678 0.0481586 0
M  V30 9025 C 834.933 4.79636 -2.06752 0
M  V30 9026 H 836.627 2.62749 -1.43538 0
M  V30 9027 H 834.173 1.26303 -0.691628 0
M  V30 9028 H 836.126 4.19166 0.433303 0
M  V30 9029 H 834.85 3.1002 1.0274 0
M  V30 9030 H 833.509 3.50764 -1.06583 0
M  V30 9031 H 833.157 4.93852 0.954933 0
M  V30 9032 H 832.857 5.85061 -0.545641 0
M  V30 9033 H 834.381 6.09573 0.353991 0
M  V30 9034 H 835.795 5.43654 -1.81969 0
M  V30 9035 H 834.192 5.4036 -2.61019 0
M  V30 9036 H 835.262 3.99659 -2.74592 0
M  V30 9037 N 836.605 0.766683 1.37694 0
M  V30 9038 C 837.854 0.325425 1.99057 0
M  V30 9039 C 838.167 -1.10275 1.61551 0
M  V30 9040 O 839.373 -1.64513 2.1598 0
M  V30 9041 C 837.829 0.530886 3.55963 0
M  V30 9042 C 837.437 1.96899 4.02411 0
M  V30 9043 C 839.181 0.152997 4.24224 0
M  V30 9044 C 837.088 2.12232 5.52007 0
M  V30 9045 H 836.018 0.117929 0.744721 0
M  V30 9046 H 838.669 0.945091 1.5729 0
M  V30 9047 H 837.051 -0.158162 3.95684 0
M  V30 9048 H 838.225 2.69258 3.73948 0
M  V30 9049 H 836.54 2.303 3.46916 0
M  V30 9050 H 839.137 0.24614 5.34133 0
M  V30 9051 H 839.48 -0.896096 4.06541 0
M  V30 9052 H 840.013 0.794398 3.89787 0
M  V30 9053 H 836.752 3.15442 5.7461 0
M  V30 9054 H 836.272 1.4435 5.82171 0
M  V30 9055 H 837.951 1.9185 6.17902 0
M  V30 9056 N 838.083 -1.48885 0.516809 0
M  V30 9057 C 839.331 -2.02088 -0.0220166 0
M  V30 9058 C 839.652 -1.39735 -1.36011 0
M  V30 9059 O 838.922 -0.558119 -1.87781 0
M  V30 9060 H 837.502 -0.746917 -0.0111255 0
M  V30 9061 H 840.164 -1.8274 0.677647 0
M  V30 9062 H 839.26 -3.11786 -0.140067 0
M  V30 9063 N 839.561 -0.251338 -1.55583 0
M  V30 9064 C 840.972 0.25098 -1.85005 0
M  V30 9065 C 841.323 1.57259 -1.17321 0
M  V30 9066 O 840.448 2.11603 -0.453136 0
M  V30 9067 C 841.043 0.462161 -3.35633 0
M  V30 9068 C 839.602 0.908737 -3.65266 0
M  V30 9069 C 838.749 -0.0115418 -2.77298 0
M  V30 9070 H 841.7 -0.473782 -1.51463 0
M  V30 9071 H 841.721 1.30415 -3.57452 0
M  V30 9072 H 841.233 -0.499886 -3.84867 0
M  V30 9073 H 839.334 1.8831 -3.21512 0
M  V30 9074 H 839.447 0.762526 -4.72993 0
M  V30 9075 H 837.811 0.500612 -2.49732 0
M  V30 9076 H 838.594 -0.969042 -3.29339 0
M  V30 9077 N 841.039 1.57585 0.0217189 0
M  V30 9078 C 841.969 2.10073 1.01939 0
M  V30 9079 C 842.95 1.0049 1.37243 0
M  V30 9080 O 844.135 1.28055 1.45999 0
M  V30 9081 C 841.265 2.58618 2.31806 0
M  V30 9082 C 840.219 3.72531 2.10724 0
M  V30 9083 C 839.545 4.07309 3.46415 0
M  V30 9084 C 840.845 5.00672 1.48743 0
M  V30 9085 H 842.539 2.9368 0.582432 0
M  V30 9086 H 840.085 1.41277 0.278715 0
M  V30 9087 H 842.038 2.9396 3.01936 0
M  V30 9088 H 840.762 1.72104 2.77575 0
M  V30 9089 H 839.421 3.37549 1.43025 0
M  V30 9090 H 839.069 3.17851 3.89846 0
M  V30 9091 H 838.769 4.84042 3.33132 0
M  V30 9092 H 840.293 4.45192 4.17895 0
M  V30 9093 H 841.707 5.33925 2.088 0
M  V30 9094 H 840.104 5.82065 1.46013 0
M  V30 9095 H 841.174 4.82769 0.45408 0
M  V30 9096 N 842.517 -0.29412 1.54831 0
M  V30 9097 C 843.447 -1.36757 1.89261 0
M  V30 9098 C 844.428 -1.52564 0.752214 0
M  V30 9099 O 845.613 -1.65958 1.00855 0
M  V30 9100 C 842.743 -2.73066 2.14597 0
M  V30 9101 C 841.697 -2.72017 3.3044 0
M  V30 9102 C 841.023 -4.11679 3.4121 0
M  V30 9103 C 842.323 -2.33149 4.67375 0
M  V30 9104 H 844.017 -1.08191 2.79169 0
M  V30 9105 H 841.563 -0.519014 1.34321 0
M  V30 9106 H 843.516 -3.48255 2.37269 0
M  V30 9107 H 842.24 -3.03172 1.21467 0
M  V30 9108 H 840.899 -1.99285 3.07703 0
M  V30 9109 H 840.547 -4.38973 2.45584 0
M  V30 9110 H 840.247 -4.11877 4.19084 0
M  V30 9111 H 841.771 -4.88637 3.6615 0
M  V30 9112 H 843.185 -2.98054 4.89731 0
M  V30 9113 H 841.582 -2.44546 5.48012 0
M  V30 9114 H 842.652 -1.28275 4.67626 0
M  V30 9115 N 843.995 -1.47404 -0.557645 0
M  V30 9116 C 845.244 -1.53268 -1.31118 0
M  V30 9117 C 845.557 -0.199414 -1.94581 0
M  V30 9118 O 846.763 -0.136039 -2.71159 0
M  V30 9119 C 845.219 -2.70178 -2.37764 0
M  V30 9120 C 844.827 -4.10032 -1.80493 0
M  V30 9121 C 846.571 -2.85334 -3.14301 0
M  V30 9122 C 844.478 -5.18244 -2.84916 0
M  V30 9123 H 843.408 -0.570491 -0.493007 0
M  V30 9124 H 846.059 -1.73678 -0.592308 0
M  V30 9125 H 844.441 -2.43147 -3.12563 0
M  V30 9126 H 845.615 -4.46964 -1.12069 0
M  V30 9127 H 843.93 -3.99759 -1.16542 0
M  V30 9128 H 846.527 -3.63347 -3.92279 0
M  V30 9129 H 846.87 -1.93761 -3.68459 0
M  V30 9130 H 847.403 -3.12133 -2.46613 0
M  V30 9131 H 844.142 -6.11691 -2.35614 0
M  V30 9132 H 843.662 -4.85829 -3.51753 0
M  V30 9133 H 845.341 -5.45174 -3.48417 0
M  V30 9134 N 845.473 0.80434 -1.35529 0
M  V30 9135 C 846.713 1.57489 -1.30295 0
M  V30 9136 C 847.077 1.91621 0.120528 0
M  V30 9137 O 848.278 2.67151 0.297265 0
M  V30 9138 C 846.549 2.82741 -2.18615 0
M  V30 9139 S 848.108 3.73125 -2.30918 0
M  V30 9140 H 844.926 0.539573 -0.463014 0
M  V30 9141 H 847.528 0.948601 -1.70944 0
M  V30 9142 H 846.232 2.55692 -3.21014 0
M  V30 9143 H 845.763 3.50353 -1.78931 0
M  V30 9144 H 847.778 4.73122 -1.49566 0
M  V30 9145 N 846.951 1.19563 1.02676 0
M  V30 9146 C 848.181 1.0234 1.79472 0
M  V30 9147 C 848.589 -0.430891 1.84228 0
M  V30 9148 O 847.932 -1.31106 1.28674 0
M  V30 9149 C 847.994 1.51901 3.25832 0
M  V30 9150 C 847.658 3.00045 3.44706 0
M  V30 9151 C 848.655 3.9779 3.34752 0
M  V30 9152 C 846.34 3.38784 3.70851 0
M  V30 9153 C 848.334 5.32267 3.50672 0
M  V30 9154 C 846.021 4.73419 3.86416 0
M  V30 9155 C 847.019 5.69969 3.7633 0
M  V30 9156 O 846.707 7.02165 3.91432 0
M  V30 9157 H 846.439 0.360936 0.571578 0
M  V30 9158 H 848.993 1.58863 1.30198 0
M  V30 9159 H 847.223 0.897546 3.7614 0
M  V30 9160 H 848.912 1.30853 3.84229 0
M  V30 9161 H 849.678 3.69207 3.14502 0
M  V30 9162 H 845.557 2.64183 3.77794 0
M  V30 9163 H 849.101 6.07612 3.42715 0
M  V30 9164 H 844.998 5.01697 4.06165 0
M  V30 9165 H 845.766 7.09268 4.08511 0
M  V30 9166 N 848.429 -1.21819 0.999893 0
M  V30 9167 C 849.376 -2.24003 0.556005 0
M  V30 9168 C 850.346 -1.60825 -0.415287 0
M  V30 9169 O 851.531 -1.88123 -0.318481 0
M  V30 9170 C 848.671 -3.44904 -0.116289 0
M  V30 9171 C 847.784 -4.22573 0.897574 0
M  V30 9172 C 846.919 -5.30831 0.198073 0
M  V30 9173 C 845.958 -6.00225 1.19983 0
M  V30 9174 N 845.095 -7.00111 0.528157 0
M  V30 9175 H 849.935 -2.61334 1.43208 0
M  V30 9176 H 847.472 -1.28431 0.717205 0
M  V30 9177 H 849.43 -4.13908 -0.523055 0
M  V30 9178 H 848.06 -3.08315 -0.956108 0
M  V30 9179 H 847.112 -3.52797 1.42262 0
M  V30 9180 H 848.424 -4.70363 1.66013 0
M  V30 9181 H 847.578 -6.06121 -0.265065 0
M  V30 9182 H 846.317 -4.84033 -0.596924 0
M  V30 9183 H 845.322 -5.23711 1.67353 0
M  V30 9184 H 846.547 -6.4911 1.99582 0
M  V30 9185 H 844.493 -6.55534 -0.247276 0
M  V30 9186 H 844.41 -7.45943 1.22904 0
M  V30 9187 H 845.678 -7.7945 0.0880543 0
M  V30 9188 N 849.908 -0.773975 -1.37286 0
M  V30 9189 C 850.818 -0.162571 -2.34036 0
M  V30 9190 C 851.834 0.677022 -1.60289 0
M  V30 9191 O 853.01 0.596423 -1.92366 0
M  V30 9192 C 850.075 0.70457 -3.39465 0
M  V30 9193 C 849.136 -0.151738 -4.29032 0
M  V30 9194 C 848.369 0.674111 -5.29426 0
M  V30 9195 O 848.592 1.91107 -5.37433 0
M  V30 9196 O 847.526 0.0821398 -6.01844 0
M  V30 9197 H 851.352 -0.962119 -2.88057 0
M  V30 9198 H 848.937 -0.53517 -1.39486 0
M  V30 9199 H 850.819 1.19954 -4.03967 0
M  V30 9200 H 849.494 1.48227 -2.87768 0
M  V30 9201 H 848.401 -0.693118 -3.67623 0
M  V30 9202 H 849.734 -0.892575 -4.84039 0
M  V30 9203 N 851.386 1.48609 -0.524698 0
M  V30 9204 C 852.611 2.07398 0.00952139 0
M  V30 9205 C 853.036 1.37939 1.27884 0
M  V30 9206 O 852.394 0.443633 1.75788 0
M  V30 9207 C 852.442 3.59916 0.221956 0
M  V30 9208 O 851.546 3.91647 1.29175 0
M  V30 9209 H 850.887 0.662981 -0.0367729 0
M  V30 9210 H 853.417 1.91092 -0.7311 0
M  V30 9211 H 853.427 4.05552 0.446236 0
M  V30 9212 H 852.102 4.09876 -0.705306 0
M  V30 9213 H 850.679 3.57796 1.05055 0
M  V30 9214 N 852.864 0.259585 1.55447 0
M  V30 9215 C 854.11 -0.362143 1.9954 0
M  V30 9216 C 854.443 -1.5666 1.14767 0
M  V30 9217 O 853.718 -1.93319 0.214025 0
M  V30 9218 C 854.001 -0.759588 3.51998 0
M  V30 9219 C 853.854 0.451134 4.47532 0
M  V30 9220 C 855.173 -1.60186 4.09913 0
M  V30 9221 H 852.292 -0.130157 0.725416 0
M  V30 9222 H 854.934 0.363431 1.86492 0
M  V30 9223 H 853.084 -1.3778 3.63248 0
M  V30 9224 H 854.756 1.08965 4.48246 0
M  V30 9225 H 852.999 1.092 4.19831 0
M  V30 9226 H 853.67 0.129518 5.51848 0
M  V30 9227 H 856.146 -1.0799 4.01842 0
M  V30 9228 H 855.022 -1.84879 5.16828 0
M  V30 9229 H 855.283 -2.57787 3.59163 0
M  V30 9230 N 854.342 -1.57594 -0.0133615 0
M  V30 9231 C 855.619 -1.81173 -0.737273 0
M  V30 9232 C 855.999 -0.861395 -1.92726 0
M  V30 9233 O 855.347 0.0929324 -2.28311 0
M  V30 9234 C 855.557 -3.29314 -1.15557 0
M  V30 9235 C 856.905 -3.94707 -1.56498 0
M  V30 9236 O 857.929 -3.33557 -1.24973 0
M  V30 9237 O 856.788 -5.02402 -2.15069 0
M  V30 9238 H 853.882 -0.745575 -0.357837 0
M  V30 9239 H 856.428 -1.69696 0.0110674 0
M  V30 9240 H 855.2 -3.90096 -0.30677 0
M  V30 9241 H 854.823 -3.45739 -1.96343 0
M  V30 9242 N 855.82 0.285905 -1.54985 0
M  V30 9243 C 856.752 1.37505 -1.83371 0
M  V30 9244 C 857.765 1.46138 -0.717454 0
M  V30 9245 O 858.954 1.48186 -0.995142 0
M  V30 9246 C 856.054 2.7575 -1.97016 0
M  V30 9247 C 855.227 2.89866 -3.27561 0
M  V30 9248 C 854.286 4.08704 -3.31433 0
M  V30 9249 O 853.312 4.00073 -4.04883 0
M  V30 9250 N 854.514 5.20062 -2.57907 0
M  V30 9251 H 857.279 1.13505 -2.77375 0
M  V30 9252 H 854.84 0.476006 -1.54744 0
M  V30 9253 H 856.832 3.5352 -1.96991 0
M  V30 9254 H 855.402 2.9263 -1.09938 0
M  V30 9255 H 854.622 1.99085 -3.40234 0
M  V30 9256 H 855.91 2.96219 -4.13681 0
M  V30 9257 H 855.308 5.29958 -1.97891 0
M  V30 9258 H 853.865 5.96111 -2.63619 0
M  V30 9259 N 857.298 1.47698 0.54982 0
M  V30 9260 C 858.714 1.3338 0.876468 0
M  V30 9261 C 858.914 0.329837 1.98782 0
M  V30 9262 O 857.97 -0.256022 2.51199 0
M  V30 9263 C 859.283 2.72903 1.26272 0
M  V30 9264 C 860.831 2.81243 1.37373 0
M  V30 9265 C 861.306 4.21423 1.79351 0
M  V30 9266 N 862.797 4.24 1.86489 0
M  V30 9267 C 863.532 5.29386 2.20313 0
M  V30 9268 N 863.028 6.4507 2.527 0
M  V30 9269 N 864.821 5.16768 2.2115 0
M  V30 9270 H 856.972 2.11603 -0.183781 0
M  V30 9271 H 859.235 0.947798 -0.0195601 0
M  V30 9272 H 858.941 3.47836 0.519889 0
M  V30 9273 H 858.815 3.05151 2.21727 0
M  V30 9274 H 861.202 2.06577 2.10737 0
M  V30 9275 H 861.283 2.52639 0.400882 0
M  V30 9276 H 860.927 4.96597 1.06555 0
M  V30 9277 H 860.857 4.47456 2.77652 0
M  V30 9278 H 863.348 3.40547 1.63817 0
M  V30 9279 H 863.661 7.21236 2.77557 0
M  V30 9280 H 862.006 6.48377 2.50263 0
M  V30 9281 H 865.197 4.25416 1.95293 0
M  V30 9282 H 865.37 5.99004 2.4718 0
M  V30 9283 N 858.776 -0.797141 1.35954 0
M  V30 9284 C 860.024 -1.55161 1.29497 0
M  V30 9285 C 860.345 -1.94582 -0.127659 0
M  V30 9286 O 859.615 -1.64343 -1.06622 0
M  V30 9287 H 858.195 -0.575413 0.47635 0
M  V30 9288 H 860.857 -0.950282 1.70164 0
M  V30 9289 H 859.953 -2.46272 1.9172 0
M  V30 9290 N 860.254 -1.20106 -1.0204 0
M  V30 9291 C 861.202 -0.943231 -2.12617 0
M  V30 9292 C 862.196 0.104042 -1.6908 0
M  V30 9293 O 863.402 -0.0459732 -1.79941 0
M  V30 9294 H 859.777 -0.28767 -0.694802 0
M  V30 9295 H 861.748 -1.88221 -2.3155 0
M  V30 9296 C 860.497 -0.50771 -3.43973 0
M  V30 9297 H 859.82 -1.30514 -3.77897 0
M  V30 9298 H 861.26 -0.366486 -4.22413 0
M  V30 9299 C 859.719 0.77939 -3.27761 0
M  V30 9300 O 860.249 1.83876 -3.57145 0
M  V30 9301 N 858.455 0.739931 -2.81022 0
M  V30 9302 H 858.002 -0.122426 -2.57309 0
M  V30 9303 H 857.96 1.60147 -2.70556 0
M  V30 9304 N 861.732 1.21287 -1.00634 0
M  V30 9305 C 862.664 2.2308 -0.526094 0
M  V30 9306 C 863.677 1.58157 0.386031 0
M  V30 9307 O 864.866 1.77528 0.186016 0
M  V30 9308 C 861.966 3.37937 0.255289 0
M  V30 9309 C 861.139 4.32449 -0.656236 0
M  V30 9310 C 860.198 5.26145 0.0757714 0
M  V30 9311 O 859.224 5.66601 -0.543325 0
M  V30 9312 N 860.426 5.6449 1.35391 0
M  V30 9313 H 863.191 2.64913 -1.40147 0
M  V30 9314 H 860.752 1.35724 -0.882641 0
M  V30 9315 H 862.744 3.97614 0.753977 0
M  V30 9316 H 861.314 2.95078 1.03187 0
M  V30 9317 H 860.534 3.70892 -1.3354 0
M  V30 9318 H 861.822 4.92526 -1.27653 0
M  V30 9319 H 861.22 5.33617 1.878 0
M  V30 9320 H 859.777 6.26524 1.79753 0
M  V30 9321 N 863.21 0.781244 1.36873 0
M  V30 9322 C 864.459 0.34652 1.98701 0
M  V30 9323 C 864.772 -1.08555 1.62712 0
M  V30 9324 O 865.978 -1.62213 2.17713 0
M  V30 9325 C 864.434 0.568611 3.5538 0
M  V30 9326 C 864.042 2.01156 4.003 0
M  V30 9327 C 865.786 0.197983 4.24038 0
M  V30 9328 C 863.693 2.18074 5.49725 0
M  V30 9329 H 862.623 0.125821 0.743428 0
M  V30 9330 H 865.274 0.961721 1.56279 0
M  V30 9331 H 863.656 -0.116185 3.9583 0
M  V30 9332 H 864.83 2.73209 3.71071 0
M  V30 9333 H 863.145 2.33967 3.44454 0
M  V30 9334 H 865.742 0.302778 5.33842 0
M  V30 9335 H 866.085 -0.852927 4.07469 0
M  V30 9336 H 866.618 0.835696 3.88923 0
M  V30 9337 H 863.357 3.21519 5.71232 0
M  V30 9338 H 862.877 1.50517 5.80607 0
M  V30 9339 H 864.556 1.98393 6.15832 0
M  V30 9340 N 864.689 -1.48329 0.532571 0
M  V30 9341 C 865.622 -2.26524 -0.2761 0
M  V30 9342 C 866.6 -1.32498 -0.942496 0
M  V30 9343 O 867.784 -1.61844 -0.966376 0
M  V30 9344 C 864.911 -3.08808 -1.39124 0
M  V30 9345 C 863.957 -4.18227 -0.835984 0
M  V30 9346 S 864.79 -5.34669 0.298186 0
M  V30 9347 C 865.946 -6.20514 -0.81937 0
M  V30 9348 H 866.179 -2.94764 0.387502 0
M  V30 9349 H 863.712 -1.51081 0.318407 0
M  V30 9350 H 865.67 -3.56792 -2.03002 0
M  V30 9351 H 864.331 -2.39976 -2.02658 0
M  V30 9352 H 863.524 -4.75435 -1.67264 0
M  V30 9353 H 863.126 -3.72996 -0.27385 0
M  V30 9354 H 865.418 -6.55371 -1.7174 0
M  V30 9355 H 866.361 -7.07525 -0.285199 0
M  V30 9356 H 866.769 -5.5366 -1.10094 0
M  V30 9357 N 866.167 -0.267825 -1.55308 0
M  V30 9358 C 867.392 0.357487 -2.04296 0
M  V30 9359 C 867.817 1.49222 -1.14518 0
M  V30 9360 O 867.175 1.80741 -0.142292 0
M  V30 9361 C 867.223 0.822899 -3.51085 0
M  V30 9362 O 866.327 1.93078 -3.6441 0
M  V30 9363 H 865.668 0.075025 -0.659748 0
M  V30 9364 H 868.198 -0.399996 -2.00652 0
M  V30 9365 H 868.208 1.12059 -3.92309 0
M  V30 9366 H 866.883 -0.0073562 -4.15899 0
M  V30 9367 H 865.46 1.63618 -3.35087 0
M  V30 9368 N 867.645 1.57599 0.00500368 0
M  V30 9369 C 868.922 1.81561 0.727654 0
M  V30 9370 C 869.302 0.871604 1.92266 0
M  V30 9371 O 868.65 -0.0808232 2.28357 0
M  V30 9372 C 868.86 3.29922 1.13809 0
M  V30 9373 C 870.208 3.95531 1.54403 0
M  V30 9374 O 871.232 3.34215 1.23202 0
M  V30 9375 O 870.091 5.03535 2.12402 0
M  V30 9376 H 867.185 0.747462 0.353878 0
M  V30 9377 H 869.731 1.69688 -0.0200667 0
M  V30 9378 H 868.503 3.90253 0.286078 0
M  V30 9379 H 868.126 3.46775 1.94507 0
M  V30 9380 N 869.123 -0.277682 1.55134 0
M  V30 9381 C 870.07 -1.34313 1.87693 0
M  V30 9382 C 871.04 -1.49298 0.727973 0
M  V30 9383 O 872.225 -1.6378 0.978807 0
M  V30 9384 C 869.365 -2.69922 2.15026 0
M  V30 9385 C 868.478 -2.63197 3.42565 0
M  V30 9386 C 867.613 -3.90955 3.59622 0
M  V30 9387 C 866.652 -3.78722 4.8087 0
M  V30 9388 N 865.789 -4.98303 4.94609 0
M  V30 9389 H 870.629 -1.05847 2.78569 0
M  V30 9390 H 868.166 -0.511469 1.37922 0
M  V30 9391 H 870.124 -3.48817 2.28872 0
M  V30 9392 H 868.754 -2.966 1.2739 0
M  V30 9393 H 867.806 -1.76038 3.37216 0
M  V30 9394 H 869.118 -2.50056 4.31594 0
M  V30 9395 H 868.272 -4.78291 3.7326 0
M  V30 9396 H 867.011 -4.06957 2.6877 0
M  V30 9397 H 866.016 -2.89769 4.67241 0
M  V30 9398 H 867.241 -3.64242 5.73153 0
M  V30 9399 H 865.187 -5.14725 4.06687 0
M  V30 9400 H 865.104 -4.87675 5.77676 0
M  V30 9401 H 866.372 -5.87225 5.12628 0
M  V30 9402 N 870.601 -1.47988 -0.541979 0
M  V30 9403 C 872.017 -1.33843 -0.869383 0
M  V30 9404 C 872.217 -0.340374 -1.98604 0
M  V30 9405 O 871.273 0.242696 -2.51331 0
M  V30 9406 C 872.586 -2.73568 -1.24823 0
M  V30 9407 C 874.134 -2.81967 -1.3588 0
M  V30 9408 C 874.609 -4.22368 -1.77114 0
M  V30 9409 N 876.1 -4.24983 -1.84237 0
M  V30 9410 C 876.835 -5.30547 -2.17503 0
M  V30 9411 N 876.331 -6.46401 -2.49275 0
M  V30 9412 N 878.124 -5.17933 -2.18406 0
M  V30 9413 H 870.275 -2.11503 0.195001 0
M  V30 9414 H 872.538 -0.947681 0.0245862 0
M  V30 9415 H 872.244 -3.48107 -0.501435 0
M  V30 9416 H 872.118 -3.06322 -2.20106 0
M  V30 9417 H 874.505 -2.07692 -2.09638 0
M  V30 9418 H 874.586 -2.52848 -0.387478 0
M  V30 9419 H 874.23 -4.97155 -1.0392 0
M  V30 9420 H 874.16 -4.48922 -2.75275 0
M  V30 9421 H 876.651 -3.41411 -1.62009 0
M  V30 9422 H 876.964 -7.22698 -2.73729 0
M  V30 9423 H 875.309 -6.49696 -2.46821 0
M  V30 9424 H 878.5 -4.26445 -1.93034 0
M  V30 9425 H 878.673 -6.00307 -2.44 0
M  V30 9426 N 872.079 0.78992 -1.36375 0
M  V30 9427 C 873.027 1.92394 -1.30719 0
M  V30 9428 C 874.021 1.68226 -0.199076 0
M  V30 9429 O 875.227 1.76239 -0.366051 0
M  V30 9430 H 871.602 0.632382 -0.406936 0
M  V30 9431 H 873.573 1.94282 -2.26488 0
M  V30 9432 C 872.322 3.2941 -1.11284 0
M  V30 9433 H 871.645 3.48573 -1.95798 0
M  V30 9434 H 873.085 4.09111 -1.11373 0
M  V30 9435 C 871.544 3.36405 0.182543 0
M  V30 9436 O 872.074 3.84206 1.17255 0
M  V30 9437 N 870.28 2.89712 0.227046 0
M  V30 9438 H 869.827 2.51004 -0.579217 0
M  V30 9439 H 869.785 2.94773 1.09344 0
M  V30 9440 N 873.557 1.20646 1.01402 0
M  V30 9441 C 874.803 1.0197 1.753 0
M  V30 9442 C 875.136 -0.446803 1.8899 0
M  V30 9443 O 874.411 -1.33169 1.41762 0
M  V30 9444 C 874.694 1.70693 3.17074 0
M  V30 9445 C 874.547 3.24805 3.11162 0
M  V30 9446 C 875.866 1.44212 4.15802 0
M  V30 9447 H 872.985 0.371844 0.636318 0
M  V30 9448 H 875.627 1.48696 1.18277 0
M  V30 9449 H 873.777 1.30968 3.65759 0
M  V30 9450 H 875.449 3.73841 2.70261 0
M  V30 9451 H 873.692 3.55576 2.48492 0
M  V30 9452 H 874.363 3.68049 4.11393 0
M  V30 9453 H 876.839 1.7868 3.75783 0
M  V30 9454 H 875.715 1.94825 5.13161 0
M  V30 9455 H 875.976 0.370252 4.40547 0
M  V30 9456 N 875.035 -1.20752 1.01276 0
M  V30 9457 C 876.284 -1.8934 0.695229 0
M  V30 9458 C 876.597 -1.79459 -0.77806 0
M  V30 9459 O 877.803 -2.43146 -1.20799 0
M  V30 9460 C 876.259 -3.39548 1.1931 0
M  V30 9461 C 875.867 -3.58023 2.69302 0
M  V30 9462 C 877.611 -4.13714 0.950823 0
M  V30 9463 C 875.518 -5.02037 3.1259 0
M  V30 9464 H 874.448 -0.709084 0.25635 0
M  V30 9465 H 877.099 -1.36629 1.22494 0
M  V30 9466 H 875.481 -3.91559 0.591395 0
M  V30 9467 H 876.655 -3.16416 3.34989 0
M  V30 9468 H 874.97 -2.97222 2.9163 0
M  V30 9469 H 877.567 -5.19891 1.24971 0
M  V30 9470 H 877.91 -4.16147 -0.112791 0
M  V30 9471 H 878.443 -3.67792 1.51571 0
M  V30 9472 H 875.182 -5.04757 4.18211 0
M  V30 9473 H 874.702 -5.44469 2.51621 0
M  V30 9474 H 876.381 -5.70594 3.0501 0
M  V30 9475 N 876.513 -0.788492 -1.36457 0
M  V30 9476 C 877.443 -0.200468 -2.32638 0
M  V30 9477 C 878.424 0.664031 -1.56603 0
M  V30 9478 O 879.609 0.598045 -1.84762 0
M  V30 9479 C 876.739 0.666274 -3.40849 0
M  V30 9480 C 875.693 -0.0982574 -4.27887 0
M  V30 9481 C 875.019 0.889018 -5.27258 0
M  V30 9482 C 876.319 -1.28692 -5.06197 0
M  V30 9483 H 878.013 -1.00399 -2.82065 0
M  V30 9484 H 875.559 -0.484237 -1.35614 0
M  V30 9485 H 877.512 1.08757 -4.07124 0
M  V30 9486 H 876.236 1.50249 -2.89987 0
M  V30 9487 H 874.895 -0.500525 -3.63167 0
M  V30 9488 H 874.543 1.72024 -4.7267 0
M  V30 9489 H 874.243 0.381909 -5.86358 0
M  V30 9490 H 875.767 1.30891 -5.96406 0
M  V30 9491 H 877.181 -0.941429 -5.65517 0
M  V30 9492 H 875.578 -1.72726 -5.74705 0
M  V30 9493 H 876.648 -2.08273 -4.37893 0
M  V30 9494 N 877.991 1.48044 -0.54043 0
M  V30 9495 C 879.238 2.02497 -0.0101567 0
M  V30 9496 C 879.566 1.41651 1.33286 0
M  V30 9497 O 878.821 0.555504 1.8765 0
M  V30 9498 C 879.12 3.57085 0.150008 0
M  V30 9499 C 878.786 4.36769 -1.11998 0
M  V30 9500 C 877.448 4.58261 -1.46801 0
M  V30 9501 C 879.8 4.82848 -1.96232 0
M  V30 9502 C 877.128 5.23079 -2.65717 0
M  V30 9503 C 879.48 5.48977 -3.14335 0
M  V30 9504 C 878.144 5.68705 -3.49472 0
M  V30 9505 H 877.414 0.740991 -0.00371661 0
M  V30 9506 H 880.061 1.77909 -0.708562 0
M  V30 9507 H 878.366 3.80572 0.931259 0
M  V30 9508 H 880.063 3.96851 0.575384 0
M  V30 9509 H 876.653 4.20309 -0.838957 0
M  V30 9510 H 880.837 4.66038 -1.70654 0
M  V30 9511 H 876.093 5.36549 -2.93129 0
M  V30 9512 H 880.267 5.83649 -3.79904 0
M  V30 9513 H 877.894 6.18703 -4.41713 0
M  V30 9514 N 879.47 0.276058 1.55163 0
M  V30 9515 C 880.695 -0.346648 2.04483 0
M  V30 9516 C 881.12 -1.48613 1.15308 0
M  V30 9517 O 880.478 -1.80663 0.151875 0
M  V30 9518 C 880.526 -0.804268 3.51517 0
M  V30 9519 O 879.63 -1.91143 3.65429 0
M  V30 9520 H 878.971 -0.0715251 0.660136 0
M  V30 9521 H 881.501 0.410631 2.00437 0
M  V30 9522 H 881.511 -1.09977 3.92898 0
M  V30 9523 H 880.186 0.0294123 4.1589 0
M  V30 9524 H 878.763 -1.61839 3.3595 0
M  V30 9525 N 880.948 -1.576 0.00335426 0
M  V30 9526 C 882.194 -1.90996 -0.681799 0
M  V30 9527 C 882.527 -0.877643 -1.73237 0
M  V30 9528 O 881.802 0.103183 -1.94226 0
M  V30 9529 C 882.085 -3.34961 -1.32187 0
M  V30 9530 C 881.938 -4.48911 -0.28261 0
M  V30 9531 C 883.257 -3.78408 -2.24711 0
M  V30 9532 H 880.376 -0.694596 -0.246386 0
M  V30 9533 H 883.018 -1.89919 0.055336 0
M  V30 9534 H 881.168 -3.36008 -1.95014 0
M  V30 9535 H 882.84 -4.59999 0.346241 0
M  V30 9536 H 881.083 -4.32 0.394768 0
M  V30 9537 H 881.754 -5.46609 -0.769576 0
M  V30 9538 H 884.23 -3.78934 -1.71897 0
M  V30 9539 H 883.106 -4.79885 -2.66461 0
M  V30 9540 H 883.367 -3.12464 -3.1276 0
M  V30 9541 N 882.426 0.269451 -1.5528 0
M  V30 9542 C 883.673 1.00058 -1.76053 0
M  V30 9543 C 884.001 1.86156 -0.563592 0
M  V30 9544 O 883.256 1.90366 0.453806 0
M  V30 9545 C 883.555 1.91 -3.02082 0
M  V30 9546 C 883.221 1.20623 -4.34466 0
M  V30 9547 C 881.883 1.01165 -4.70446 0
M  V30 9548 C 884.235 0.705695 -5.164 0
M  V30 9549 C 881.563 0.303865 -5.85913 0
M  V30 9550 C 883.915 0.0114838 -6.32599 0
M  V30 9551 C 882.579 -0.19478 -6.67216 0
M  V30 9552 H 881.849 0.366138 -0.644223 0
M  V30 9553 H 884.496 0.272563 -1.8955 0
M  V30 9554 H 882.801 2.70435 -2.835 0
M  V30 9555 H 884.498 2.47698 -3.15352 0
M  V30 9556 H 881.088 1.36781 -4.06188 0
M  V30 9557 H 885.272 0.84364 -4.89077 0
M  V30 9558 H 880.528 0.133368 -6.11255 0
M  V30 9559 H 884.702 -0.384111 -6.9534 0
M  V30 9560 H 882.329 -0.745201 -7.56539 0
M  V30 9561 N 883.904 1.48273 0.534124 0
M  V30 9562 C 885.181 1.46567 1.29528 0
M  V30 9563 C 885.561 0.17509 2.10373 0
M  V30 9564 O 884.909 -0.843228 2.12372 0
M  V30 9565 C 885.119 2.72519 2.18023 0
M  V30 9566 C 886.467 3.2068 2.78298 0
M  V30 9567 O 887.491 2.73408 2.28313 0
M  V30 9568 O 886.35 4.02924 3.69208 0
M  V30 9569 H 883.444 0.585151 0.584403 0
M  V30 9570 H 885.99 1.60502 0.551119 0
M  V30 9571 H 884.762 3.57965 1.5804 0
M  V30 9572 H 884.385 2.61285 2.99693 0
M  V30 9573 N 885.382 -0.782676 1.36792 0
M  V30 9574 C 886.292 -1.92679 1.33835 0
M  V30 9575 C 887.308 -1.72344 0.23952 0
M  V30 9576 O 888.484 -1.95766 0.473045 0
M  V30 9577 C 885.549 -3.27644 1.1336 0
M  V30 9578 C 884.61 -3.6071 2.32781 0
M  V30 9579 C 883.843 -4.89234 2.13273 0
M  V30 9580 O 884.066 -5.59468 1.11136 0
M  V30 9581 O 883 -5.21112 3.01208 0
M  V30 9582 H 886.826 -1.98124 2.30175 0
M  V30 9583 H 884.411 -0.923887 1.17408 0
M  V30 9584 H 886.293 -4.08394 1.03886 0
M  V30 9585 H 884.968 -3.23076 0.200868 0
M  V30 9586 H 883.875 -2.80238 2.47825 0
M  V30 9587 H 885.208 -3.70008 3.24584 0
M  V30 9588 N 886.86 -1.21182 -1.00761 0
M  V30 9589 C 887.808 -0.965728 -2.11604 0
M  V30 9590 C 888.802 0.0861028 -1.69181 0
M  V30 9591 O 890.008 -0.0650558 -1.79882 0
M  V30 9592 H 886.383 -0.295023 -0.691712 0
M  V30 9593 H 888.354 -1.90667 -2.2954 0
M  V30 9594 C 887.103 -0.544164 -3.43415 0
M  V30 9595 H 886.426 -1.34515 -3.76491 0
M  V30 9596 H 887.866 -0.411268 -4.22001 0
M  V30 9597 C 886.325 0.744583 -3.28569 0
M  V30 9598 O 886.855 1.80078 -3.59075 0
M  V30 9599 N 885.061 0.710083 -2.81791 0
M  V30 9600 H 884.608 -0.14971 -2.57165 0
M  V30 9601 H 884.566 1.57268 -2.72239 0
M  V30 9602 N 888.338 1.20213 -1.01915 0
M  V30 9603 C 889.754 1.41696 -0.734459 0
M  V30 9604 C 889.954 1.89504 0.684867 0
M  V30 9605 O 889.01 2.06556 1.45227 0
M  V30 9606 C 890.323 2.43644 -1.76233 0
M  V30 9607 C 891.871 2.57406 -1.78076 0
M  V30 9608 C 892.346 3.626 -2.79796 0
M  V30 9609 N 893.837 3.70086 -2.78551 0
M  V30 9610 C 894.572 4.51145 -3.53915 0
M  V30 9611 N 894.068 5.35988 -4.38963 0
M  V30 9612 N 895.861 4.45702 -3.425 0
M  V30 9613 H 888.012 0.874976 -1.93541 0
M  V30 9614 H 890.275 0.446647 -0.836188 0
M  V30 9615 H 889.981 2.15519 -2.77929 0
M  V30 9616 H 889.855 3.42672 -1.57657 0
M  V30 9617 H 892.242 2.8486 -0.770634 0
M  V30 9618 H 892.323 1.58565 -2.00725 0
M  V30 9619 H 891.967 3.35889 -3.80973 0
M  V30 9620 H 891.897 4.61069 -2.54407 0
M  V30 9621 H 894.388 3.09484 -2.1686 0
M  V30 9622 H 894.701 5.94932 -4.9323 0
M  V30 9623 H 893.046 5.35482 -4.4304 0
M  V30 9624 H 896.237 3.78456 -2.75478 0
M  V30 9625 H 896.41 5.08637 -4.01487 0
M  V30 9626 N 889.816 0.795718 1.36037 0
M  V30 9627 C 891.041 0.38204 2.03851 0
M  V30 9628 C 891.466 -0.995553 1.59594 0
M  V30 9629 O 890.824 -1.64258 0.767401 0
M  V30 9630 C 890.872 0.461248 3.57638 0
M  V30 9631 O 889.976 -0.529448 4.08987 0
M  V30 9632 H 889.317 0.161227 0.644129 0
M  V30 9633 H 891.847 1.07858 1.73861 0
M  V30 9634 H 891.857 0.32712 4.06687 0
M  V30 9635 H 890.532 1.46613 3.89201 0
M  V30 9636 H 889.109 -0.35646 3.71192 0
M  V30 9637 N 891.294 -1.47756 0.548274 0
M  V30 9638 C 892.54 -2.03379 0.0291238 0
M  V30 9639 C 892.895 -1.41603 -1.30255 0
M  V30 9640 O 892.188 -0.559102 -1.83261 0
M  V30 9641 C 892.382 -3.5716 -0.131069 0
M  V30 9642 C 892.211 -4.33846 1.18353 0
M  V30 9643 C 890.981 -4.74087 1.74841 0
M  V30 9644 C 893.179 -4.69535 2.09861 0
M  V30 9645 N 891.161 -5.35382 3.00398 0
M  V30 9646 C 892.532 -5.31039 3.19997 0
M  V30 9647 C 894.587 -4.51464 2.09964 0
M  V30 9648 C 893.29 -5.7638 4.30323 0
M  V30 9649 C 895.316 -4.97798 3.19297 0
M  V30 9650 C 894.678 -5.59343 4.28152 0
M  V30 9651 H 890.777 -0.780229 0.0526037 0
M  V30 9652 H 893.361 -1.80351 0.733593 0
M  V30 9653 H 891.532 -3.79974 -0.804647 0
M  V30 9654 H 893.264 -3.99422 -0.651476 0
M  V30 9655 H 890.019 -4.55764 1.2875 0
M  V30 9656 H 890.443 -5.7058 3.64372 0
M  V30 9657 H 895.085 -4.03246 1.27093 0
M  V30 9658 H 892.803 -6.23594 5.13961 0
M  V30 9659 H 896.389 -4.85593 3.20454 0
M  V30 9660 H 895.269 -5.94544 5.11358 0
M  V30 9661 N 892.772 -0.284283 -1.55015 0
M  V30 9662 C 894.002 0.332465 -2.03907 0
M  V30 9663 C 894.41 1.49331 -1.16177 0
M  V30 9664 O 893.753 1.82851 -0.176395 0
M  V30 9665 C 893.815 0.867193 -3.48884 0
M  V30 9666 C 893.479 -0.166198 -4.56698 0
M  V30 9667 C 894.476 -0.988898 -5.10408 0
M  V30 9668 C 892.161 -0.303081 -5.01385 0
M  V30 9669 C 894.155 -1.93458 -6.07333 0
M  V30 9670 C 891.842 -1.25223 -5.98133 0
M  V30 9671 C 892.84 -2.06647 -6.50988 0
M  V30 9672 O 892.528 -2.99955 -7.45843 0
M  V30 9673 H 892.26 0.0786597 -0.671408 0
M  V30 9674 H 894.814 -0.416871 -2.01125 0
M  V30 9675 H 893.044 1.66676 -3.48935 0
M  V30 9676 H 894.733 1.39802 -3.81065 0
M  V30 9677 H 895.499 -0.89393 -4.76691 0
M  V30 9678 H 891.378 0.320711 -4.59883 0
M  V30 9679 H 894.922 -2.57053 -6.48513 0
M  V30 9680 H 890.819 -1.34798 -6.31268 0
M  V30 9681 H 891.587 -2.94742 -7.6359 0
M  V30 9682 N 894.251 1.57596 -0.0117121 0
M  V30 9683 C 895.181 2.12188 0.9746 0
M  V30 9684 C 896.162 1.03379 1.35081 0
M  V30 9685 O 897.347 1.31123 1.4325 0
M  V30 9686 C 894.477 2.63477 2.26268 0
M  V30 9687 C 893.431 3.76917 2.02774 0
M  V30 9688 C 892.757 4.14566 3.37697 0
M  V30 9689 C 894.057 5.03715 1.38089 0
M  V30 9690 H 895.751 2.9485 0.520007 0
M  V30 9691 H 893.297 1.41836 0.248685 0
M  V30 9692 H 895.25 3.00299 2.95633 0
M  V30 9693 H 893.974 1.77953 2.73862 0
M  V30 9694 H 892.633 3.40507 1.35832 0
M  V30 9695 H 892.281 3.26048 3.83016 0
M  V30 9696 H 891.981 4.91 3.22789 0
M  V30 9697 H 893.505 4.53956 4.08358 0
M  V30 9698 H 894.919 5.38233 1.97428 0
M  V30 9699 H 893.316 5.85032 1.33634 0
M  V30 9700 H 894.386 4.83624 0.351575 0
M  V30 9701 N 895.729 -0.261212 1.5542 0
M  V30 9702 C 896.957 -1.00916 1.8062 0
M  V30 9703 C 897.372 -1.79494 0.585444 0
M  V30 9704 O 896.729 -1.76974 -0.445702 0
M  V30 9705 C 896.78 -1.95841 3.03856 0
M  V30 9706 O 896.501 -1.20445 4.21218 0
M  V30 9707 C 898.002 -2.82352 3.41749 0
M  V30 9708 H 895.222 -0.297596 0.601397 0
M  V30 9709 H 897.766 -0.288427 2.02456 0
M  V30 9710 H 895.921 -2.63361 2.84112 0
M  V30 9711 H 896.335 -1.84528 4.90968 0
M  V30 9712 H 897.809 -3.44733 4.31118 0
M  V30 9713 H 898.286 -3.5273 2.61683 0
M  V30 9714 H 898.892 -2.20306 3.63793 0
M  V30 9715 N 897.207 -1.48554 -0.526253 0
M  V30 9716 C 898.117 -1.66044 -1.65731 0
M  V30 9717 C 899.133 -0.542951 -1.65312 0
M  V30 9718 O 900.309 -0.814495 -1.84195 0
M  V30 9719 C 897.374 -1.69959 -3.02184 0
M  V30 9720 C 896.435 -2.93362 -3.13428 0
M  V30 9721 C 895.668 -2.97081 -4.43372 0
M  V30 9722 O 895.891 -2.09103 -5.3069 0
M  V30 9723 O 894.825 -3.8929 -4.59061 0
M  V30 9724 H 898.651 -2.61811 -1.53912 0
M  V30 9725 H 896.236 -1.31999 -0.699759 0
M  V30 9726 H 898.118 -1.75033 -3.83329 0
M  V30 9727 H 896.793 -0.773658 -3.14319 0
M  V30 9728 H 895.7 -2.93818 -2.31564 0
M  V30 9729 H 897.033 -3.85352 -3.06211 0
M  V30 9730 N 898.685 0.775411 -1.37205 0
M  V30 9731 C 899.633 1.90996 -1.32752 0
M  V30 9732 C 900.627 1.68006 -0.216907 0
M  V30 9733 O 901.833 1.7584 -0.384723 0
M  V30 9734 H 898.208 0.62803 -0.413621 0
M  V30 9735 H 900.179 1.91869 -2.28536 0
M  V30 9736 C 898.928 3.28211 -1.14772 0
M  V30 9737 H 898.251 3.46477 -1.99484 0
M  V30 9738 H 899.691 4.07907 -1.15706 0
M  V30 9739 C 898.15 3.3658 0.146852 0
M  V30 9740 O 898.68 3.85428 1.13173 0
M  V30 9741 N 896.886 2.89936 0.196305 0
M  V30 9742 H 896.433 2.50375 -0.605807 0
M  V30 9743 H 896.391 2.95916 1.06212 0
M  V30 9744 N 900.163 1.21714 1.00117 0
M  V30 9745 C 901.412 1.03087 1.73367 0
M  V30 9746 C 901.725 -0.435532 1.90689 0
M  V30 9747 O 902.931 -0.741291 2.61184 0
M  V30 9748 C 901.387 1.79593 3.11888 0
M  V30 9749 C 900.995 3.30428 3.02525 0
M  V30 9750 C 902.739 1.69386 3.89241 0
M  V30 9751 C 900.646 3.99408 4.3615 0
M  V30 9752 H 899.576 0.382117 0.650002 0
M  V30 9753 H 902.227 1.45486 1.11831 0
M  V30 9754 H 900.609 1.29988 3.74058 0
M  V30 9755 H 901.783 3.87364 2.49571 0
M  V30 9756 H 900.098 3.4122 2.38659 0
M  V30 9757 H 902.695 2.18251 4.8813 0
M  V30 9758 H 903.038 0.652773 4.1115 0
M  V30 9759 H 903.571 2.16489 3.33733 0
M  V30 9760 H 900.31 5.03735 4.19442 0
M  V30 9761 H 899.83 3.47261 4.8905 0
M  V30 9762 H 901.509 4.04537 5.04934 0
M  V30 9763 N 901.641 -1.19671 1.02551 0
M  V30 9764 C 902.573 -2.22215 0.561517 0
M  V30 9765 C 903.586 -1.58751 -0.360821 0
M  V30 9766 O 904.775 -1.77802 -0.157749 0
M  V30 9767 C 901.875 -3.383 -0.201494 0
M  V30 9768 C 901.048 -4.3135 0.724952 0
M  V30 9769 C 900.107 -5.26199 0.00794334 0
M  V30 9770 O 899.133 -5.65665 0.633398 0
M  V30 9771 N 900.335 -5.66573 -1.26394 0
M  V30 9772 H 903.1 -2.6265 1.44343 0
M  V30 9773 H 900.661 -1.34303 0.904122 0
M  V30 9774 H 902.653 -3.98764 -0.690625 0
M  V30 9775 H 901.223 -2.96683 -0.98479 0
M  V30 9776 H 900.443 -3.6872 1.39423 0
M  V30 9777 H 901.731 -4.90433 1.35472 0
M  V30 9778 H 901.129 -5.36538 -1.79287 0
M  V30 9779 H 899.686 -6.29304 -1.69763 0
M  V30 9780 N 903.119 -0.802921 -1.35613 0
M  V30 9781 C 904.535 -0.486214 -1.52014 0
M  V30 9782 C 904.735 0.993219 -1.75321 0
M  V30 9783 O 903.791 1.77835 -1.79251 0
M  V30 9784 C 905.104 -1.32839 -2.69767 0
M  V30 9785 C 906.652 -1.32346 -2.83643 0
M  V30 9786 C 907.127 -2.14967 -4.04417 0
M  V30 9787 N 908.618 -2.12484 -4.11588 0
M  V30 9788 C 909.353 -2.73173 -5.04147 0
M  V30 9789 N 908.849 -3.42774 -6.02061 0
M  V30 9790 N 910.642 -2.62834 -4.96865 0
M  V30 9791 H 902.793 -1.76109 -1.18741 0
M  V30 9792 H 905.056 -0.74936 -0.580658 0
M  V30 9793 H 904.762 -2.37813 -2.5911 0
M  V30 9794 H 904.636 -0.979058 -3.64272 0
M  V30 9795 H 907.023 -0.281586 -2.93753 0
M  V30 9796 H 907.104 -1.71264 -1.90006 0
M  V30 9797 H 906.748 -3.19193 -3.95068 0
M  V30 9798 H 906.678 -1.73411 -4.97228 0
M  V30 9799 H 909.169 -1.61839 -3.41492 0
M  V30 9800 H 909.482 -3.86378 -6.69277 0
M  V30 9801 H 907.827 -3.46878 -6.02246 0
M  V30 9802 H 911.018 -2.08049 -4.19325 0
M  V30 9803 H 911.191 -3.10421 -5.68808 0
M  V30 9804 N 904.597 1.47463 -0.556102 0
M  V30 9805 C 905.844 2.02475 -0.0316337 0
M  V30 9806 C 906.172 1.43057 1.31777 0
M  V30 9807 O 905.427 0.575376 1.87051 0
M  V30 9808 C 905.726 3.57224 0.112126 0
M  V30 9809 C 905.392 4.35557 -1.16624 0
M  V30 9810 C 904.054 4.56678 -1.51654 0
M  V30 9811 C 906.406 4.8074 -2.01342 0
M  V30 9812 C 903.734 5.20231 -2.7125 0
M  V30 9813 C 906.086 5.45613 -3.2014 0
M  V30 9814 C 904.75 5.64967 -3.55484 0
M  V30 9815 H 904.02 0.74091 -0.0115756 0
M  V30 9816 H 906.667 1.77148 -0.727392 0
M  V30 9817 H 904.972 3.81538 0.890842 0
M  V30 9818 H 906.669 3.97438 0.533261 0
M  V30 9819 H 903.259 4.19395 -0.883489 0
M  V30 9820 H 907.443 4.64201 -1.75587 0
M  V30 9821 H 902.699 5.3341 -2.98804 0
M  V30 9822 H 906.873 5.79587 -3.86073 0
M  V30 9823 H 904.5 6.13984 -4.4825 0
M  V30 9824 N 906.075 0.2925 1.54862 0
M  V30 9825 C 907.005 -0.580677 2.26165 0
M  V30 9826 C 907.986 -1.14485 1.25806 0
M  V30 9827 O 909.171 -1.17577 1.54562 0
M  V30 9828 C 906.301 -1.75668 2.99596 0
M  V30 9829 C 905.255 -1.32325 4.07031 0
M  V30 9830 C 904.581 -2.58374 4.68131 0
M  V30 9831 C 905.881 -0.460703 5.20264 0
M  V30 9832 H 907.575 0.0140075 2.99397 0
M  V30 9833 H 905.121 0.00817706 1.43998 0
M  V30 9834 H 907.074 -2.37356 3.48195 0
M  V30 9835 H 905.798 -2.37747 2.23928 0
M  V30 9836 H 904.457 -0.729477 3.59269 0
M  V30 9837 H 904.105 -3.18749 3.89112 0
M  V30 9838 H 903.805 -2.30078 5.40683 0
M  V30 9839 H 905.329 -3.2088 5.19489 0
M  V30 9840 H 906.743 -0.983037 5.64809 0
M  V30 9841 H 905.14 -0.271881 5.99484 0
M  V30 9842 H 906.21 0.516304 4.82143 0
M  V30 9843 N 907.553 -1.57587 0.0200696 0
M  V30 9844 C 908.964 -1.79312 -0.520019 0
M  V30 9845 C 909.315 -0.929475 -1.72787 0
M  V30 9846 O 908.44 -0.137389 -2.15963 0
M  V30 9847 C 909.035 -3.25203 -0.950172 0
M  V30 9848 C 907.594 -3.47954 -1.43543 0
M  V30 9849 C 906.741 -2.74459 -0.395917 0
M  V30 9850 H 909.692 -1.56779 0.246153 0
M  V30 9851 H 909.713 -3.34418 -1.81508 0
M  V30 9852 H 909.225 -3.88035 -0.070883 0
M  V30 9853 H 907.326 -2.90363 -2.33495 0
M  V30 9854 H 907.439 -4.56661 -1.44905 0
M  V30 9855 H 905.803 -2.39669 -0.862022 0
M  V30 9856 H 906.586 -3.40001 0.47475 0
M  V30 9857 N 909.032 0.252966 -1.55557 0
M  V30 9858 C 909.98 1.33289 -1.90622 0
M  V30 9859 C 910.974 1.50133 -0.784638 0
M  V30 9860 O 912.18 1.51679 -0.969196 0
M  V30 9861 H 908.555 0.446196 -0.605321 0
M  V30 9862 H 910.526 1.00977 -2.80796 0
M  V30 9863 C 909.275 2.68254 -2.21213 0
M  V30 9864 H 908.598 2.5609 -3.07014 0
M  V30 9865 H 910.038 3.42707 -2.49656 0
M  V30 9866 C 908.497 3.20884 -1.02642 0
M  V30 9867 O 909.027 4.00783 -0.271292 0
M  V30 9868 N 907.233 2.7883 -0.818682 0
M  V30 9869 H 906.78 2.13966 -1.43444 0
M  V30 9870 H 906.738 3.14388 -0.0269989 0
M  V30 9871 N 910.51 1.48831 0.518367 0
M  V30 9872 C 911.921 1.50842 1.10016 0
M  V30 9873 C 912.272 0.284744 1.94123 0
M  V30 9874 O 911.397 -0.607088 2.0771 0
M  V30 9875 C 911.992 2.73329 2.00191 0
M  V30 9876 C 910.551 2.78175 2.53566 0
M  V30 9877 C 909.698 2.4452 1.30786 0
M  V30 9878 H 912.649 1.55779 0.303073 0
M  V30 9879 H 912.67 2.52506 2.84642 0
M  V30 9880 H 912.182 3.62374 1.3895 0
M  V30 9881 H 910.283 1.93368 3.18496 0
M  V30 9882 H 910.396 3.79905 2.91906 0
M  V30 9883 H 908.76 1.95924 1.62744 0
M  V30 9884 H 909.543 3.35819 0.712797 0
M  V30 9885 N 911.988 -0.768124 1.37614 0
M  V30 9886 C 912.951 -1.86314 1.3349 0
M  V30 9887 C 913.951 -1.59025 0.23823 0
M  V30 9888 O 915.141 -1.6704 0.494288 0
M  V30 9889 C 912.273 -3.23519 1.07462 0
M  V30 9890 H 913.466 -1.91382 2.30896 0
M  V30 9891 H 911.019 -0.968267 1.22696 0
M  V30 9892 H 911.754 -3.24127 0.106028 0
M  V30 9893 H 911.539 -3.44719 1.86846 0
M  V30 9894 H 913.029 -4.03597 1.07236 0
M  V30 9895 N 913.466 -1.22244 -0.994698 0
M  V30 9896 C 914.714 -1.04384 -1.73056 0
M  V30 9897 C 915.035 0.422204 -1.90374 0
M  V30 9898 O 914.305 1.30383 -1.46209 0
M  V30 9899 H 912.885 -0.383263 -0.641185 0
M  V30 9900 H 915.547 -1.53725 -1.1981 0
M  V30 9901 H 914.643 -1.52021 -2.72573 0
M  V30 9902 N 914.944 1.19125 -1.03184 0
M  V30 9903 C 916.19 1.89163 -0.731111 0
M  V30 9904 C 916.523 1.79604 0.738662 0
M  V30 9905 O 915.798 1.19037 1.53819 0
M  V30 9906 C 916.081 3.39986 -1.18666 0
M  V30 9907 C 915.934 3.58401 -2.71788 0
M  V30 9908 C 917.253 4.33316 -0.769772 0
M  V30 9909 H 914.372 0.686908 -0.267069 0
M  V30 9910 H 917.014 1.40205 -1.28229 0
M  V30 9911 H 915.164 3.81813 -0.717736 0
M  V30 9912 H 916.836 3.25727 -3.26649 0
M  V30 9913 H 915.079 3.01355 -3.12038 0
M  V30 9914 H 915.75 4.64189 -2.98719 0
M  V30 9915 H 918.226 3.9922 -1.17314 0
M  V30 9916 H 917.102 5.37427 -1.11637 0
M  V30 9917 H 917.363 4.40884 0.327681 0
M  V30 9918 N 916.422 0.810101 1.35185 0
M  V30 9919 C 917.354 0.180581 2.28488 0
M  V30 9920 C 918.367 -0.622154 1.50443 0
M  V30 9921 O 919.556 -0.453938 1.72632 0
M  V30 9922 C 916.656 -0.766447 3.30119 0
M  V30 9923 C 915.829 -0.00932028 4.37399 0
M  V30 9924 C 914.888 -0.875354 5.18868 0
M  V30 9925 O 913.914 -0.325012 5.68271 0
M  V30 9926 N 915.116 -2.19695 5.37321 0
M  V30 9927 H 917.881 0.98212 2.83151 0
M  V30 9928 H 915.442 0.665879 1.47573 0
M  V30 9929 H 917.434 -1.35012 3.81515 0
M  V30 9930 H 916.004 -1.46878 2.75945 0
M  V30 9931 H 915.224 0.755585 3.86891 0
M  V30 9932 H 916.512 0.512352 5.06214 0
M  V30 9933 H 915.91 -2.66797 4.98834 0
M  V30 9934 H 914.467 -2.72978 5.91884 0
M  V30 9935 N 917.9 -1.47166 0.563914 0
M  V30 9936 C 918.83 -2.32894 -0.168148 0
M  V30 9937 C 919.811 -1.44202 -0.902214 0
M  V30 9938 O 920.996 -1.73048 -0.881365 0
M  V30 9939 C 918.126 -3.26116 -1.19439 0
M  V30 9940 C 917.08 -4.24101 -0.576363 0
M  V30 9941 C 916.406 -5.06696 -1.70772 0
M  V30 9942 C 917.706 -5.20142 0.47425 0
M  V30 9943 H 919.4 -2.9435 0.547573 0
M  V30 9944 H 916.946 -1.41545 0.264778 0
M  V30 9945 H 918.899 -3.84935 -1.71474 0
M  V30 9946 H 917.623 -2.62728 -1.94014 0
M  V30 9947 H 916.282 -3.66519 -0.0772534 0
M  V30 9948 H 915.93 -4.39707 -2.44268 0
M  V30 9949 H 915.63 -5.7304 -1.29994 0
M  V30 9950 H 917.154 -5.68375 -2.2312 0
M  V30 9951 H 918.568 -5.73286 0.0397035 0
M  V30 9952 H 916.965 -5.94726 0.801287 0
M  V30 9953 H 918.035 -4.65214 1.36764 0
M  V30 9954 N 919.378 -0.300708 -1.54705 0
M  V30 9955 C 920.288 0.584996 -2.27189 0
M  V30 9956 C 921.304 1.14866 -1.30697 0
M  V30 9957 O 922.48 1.17351 -1.63679 0
M  V30 9958 C 919.545 1.74076 -2.99831 0
M  V30 9959 C 918.606 1.2112 -4.1186 0
M  V30 9960 C 917.839 2.31188 -4.81028 0
M  V30 9961 O 918.062 3.5108 -4.49554 0
M  V30 9962 O 916.996 1.97897 -5.68437 0
M  V30 9963 H 920.822 -0.00298177 -3.037 0
M  V30 9964 H 918.407 -0.0671802 -1.49249 0
M  V30 9965 H 920.289 2.41413 -3.45395 0
M  V30 9966 H 918.964 2.31535 -2.26215 0
M  V30 9967 H 917.871 0.50357 -3.70695 0
M  V30 9968 H 919.204 0.682046 -4.87452 0
M  V30 9969 N 920.856 1.57574 -0.0284266 0
M  V30 9970 C 922.133 1.83064 0.688979 0
M  V30 9971 C 922.513 0.91219 1.90374 0
M  V30 9972 O 921.861 -0.0323672 2.28477 0
M  V30 9973 C 922.071 3.32262 1.06785 0
M  V30 9974 C 923.419 3.98717 1.45978 0
M  V30 9975 O 924.443 3.36753 1.16085 0
M  V30 9976 O 923.302 5.07927 2.01673 0
M  V30 9977 H 920.396 0.7548 0.337944 0
M  V30 9978 H 922.942 1.69607 -0.0560555 0
M  V30 9979 H 921.714 3.90772 0.203235 0
M  V30 9980 H 921.337 3.50823 1.87107 0
M  V30 9981 N 922.334 -0.244713 1.55689 0
M  V30 9982 C 923.745 -0.813603 1.6804 0
M  V30 9983 C 924.096 -1.85936 0.626281 0
M  V30 9984 O 923.221 -2.15206 -0.227038 0
M  V30 9985 C 923.816 -1.48252 3.04642 0
M  V30 9986 C 922.375 -1.99908 3.18926 0
M  V30 9987 C 921.522 -0.850958 2.6392 0
M  V30 9988 H 924.473 -0.0204805 1.58687 0
M  V30 9989 H 924.494 -2.35062 2.99209 0
M  V30 9990 H 924.006 -0.721164 3.81341 0
M  V30 9991 H 922.107 -2.78918 2.47054 0
M  V30 9992 H 922.22 -2.19497 4.25862 0
M  V30 9993 H 920.584 -1.25206 2.21801 0
M  V30 9994 H 921.367 -0.10265 3.43146 0
M  V30 9995 N 923.813 -1.49104 -0.510467 0
M  V30 9996 C 924.723 -1.67792 -1.6396 0
M  V30 9997 C 925.739 -0.560454 -1.64727 0
M  V30 9998 O 926.915 -0.833985 -1.83321 0
M  V30 9999 C 923.98 -1.73154 -3.00364 0
M  V30 10000 C 923.041 -2.9667 -3.10299 0
M  V30 10001 C 922.274 -3.01767 -4.40196 0
M  V30 10002 O 922.497 -2.1472 -5.28443 0
M  V30 10003 O 921.431 -3.94137 -4.54906 0
M  V30 10004 H 925.257 -2.63428 -1.51126 0
M  V30 10005 H 922.842 -1.32734 -0.685719 0
M  V30 10006 H 924.724 -1.79089 -3.81451 0
M  V30 10007 H 923.399 -0.806952 -3.1348 0
M  V30 10008 H 922.306 -2.96257 -2.28435 0
M  V30 10009 H 923.639 -3.88578 -3.02106 0
M  V30 10010 N 925.291 0.760815 -1.38019 0
M  V30 10011 C 926.538 1.51973 -1.3383 0
M  V30 10012 C 926.866 1.9436 0.0738855 0
M  V30 10013 O 926.121 1.65181 1.04946 0
M  V30 10014 C 926.42 2.79024 -2.23339 0
M  V30 10015 C 926.086 2.55636 -3.71431 0
M  V30 10016 C 924.748 2.48966 -4.11788 0
M  V30 10017 C 927.1 2.35018 -4.65205 0
M  V30 10018 C 924.428 2.19684 -5.44018 0
M  V30 10019 C 926.78 2.07258 -5.97685 0
M  V30 10020 C 925.444 1.9904 -6.37134 0
M  V30 10021 H 924.714 0.556108 -0.489719 0
M  V30 10022 H 927.361 0.87545 -1.70318 0
M  V30 10023 H 925.666 3.48065 -1.79883 0
M  V30 10024 H 927.363 3.36951 -2.17405 0
M  V30 10025 H 923.953 2.61695 -3.39432 0
M  V30 10026 H 928.137 2.39154 -4.34878 0
M  V30 10027 H 923.393 2.11825 -5.73533 0
M  V30 10028 H 927.567 1.90307 -6.69893 0
M  V30 10029 H 925.194 1.76115 -7.39519 0
M  V30 10030 N 926.769 1.22769 0.988202 0
M  V30 10031 C 927.701 0.959757 2.08138 0
M  V30 10032 C 928.714 -0.0633787 1.62677 0
M  V30 10033 O 929.903 0.171203 1.77677 0
M  V30 10034 C 927.003 0.422724 3.36253 0
M  V30 10035 C 926.176 1.50419 4.10722 0
M  V30 10036 C 925.235 0.973407 5.17118 0
M  V30 10037 O 924.261 1.66066 5.44436 0
M  V30 10038 N 925.463 -0.202787 5.80146 0
M  V30 10039 H 928.228 1.9009 2.31702 0
M  V30 10040 H 925.789 1.13522 1.15431 0
M  V30 10041 H 927.781 0.0528514 4.04665 0
M  V30 10042 H 926.351 -0.423642 3.09716 0
M  V30 10043 H 925.571 2.04718 3.36874 0
M  V30 10044 H 926.859 2.23169 4.57245 0
M  V30 10045 H 926.257 -0.777856 5.60327 0
M  V30 10046 H 924.814 -0.513998 6.4977 0
M  V30 10047 N 928.247 -1.18576 1.03814 0
M  V30 10048 C 929.21 -2.2033 0.63146 0
M  V30 10049 C 930.21 -1.57787 -0.309816 0
M  V30 10050 O 931.4 -1.73938 -0.0955598 0
M  V30 10051 C 928.532 -3.40818 -0.0745963 0
M  V30 10052 H 929.725 -2.57824 1.53189 0
M  V30 10053 H 927.278 -1.32416 0.830398 0
M  V30 10054 H 928.013 -3.08853 -0.988947 0
M  V30 10055 H 927.798 -3.87453 0.6019 0
M  V30 10056 H 929.288 -4.16166 -0.345727 0
M  V30 10057 N 929.725 -0.817259 -1.34754 0
M  V30 10058 C 930.95 -0.414423 -2.03217 0
M  V30 10059 C 931.375 0.970037 -1.61158 0
M  V30 10060 O 930.733 1.63016 -0.793436 0
M  V30 10061 C 930.781 -0.518087 -3.56859 0
M  V30 10062 O 929.885 0.464314 -4.09778 0
M  V30 10063 H 929.226 -0.171454 -0.641482 0
M  V30 10064 H 931.756 -1.10611 -1.72123 0
M  V30 10065 H 931.766 -0.391779 -4.06115 0
M  V30 10066 H 930.441 -1.52786 -3.86819 0
M  V30 10067 H 929.018 0.297361 -3.71712 0
M  V30 10068 N 931.203 1.46865 -0.571711 0
M  V30 10069 C 932.151 2.31897 0.180714 0
M  V30 10070 C 933.145 1.43815 0.895191 0
M  V30 10071 O 934.351 1.60501 0.814828 0
M  V30 10072 H 930.726 0.748032 0.077148 0
M  V30 10073 H 932.697 2.93185 -0.555432 0
M  V30 10074 C 931.446 3.26766 1.18824 0
M  V30 10075 H 930.769 3.94515 0.64789 0
M  V30 10076 H 932.209 3.89067 1.68532 0
M  V30 10077 C 930.668 2.51325 2.2436 0
M  V30 10078 O 931.198 2.26825 3.31532 0
M  V30 10079 N 929.404 2.12079 1.98673 0
M  V30 10080 H 928.951 2.32204 1.1153 0
M  V30 10081 H 928.909 1.61921 2.69498 0
M  V30 10082 N 932.681 0.308908 1.54543 0
M  V30 10083 C 933.93 -0.298854 1.99474 0
M  V30 10084 C 934.243 -1.54393 1.20093 0
M  V30 10085 O 935.449 -2.22677 1.55329 0
M  V30 10086 C 933.905 -0.58303 3.55146 0
M  V30 10087 C 933.513 0.644157 4.43345 0
M  V30 10088 C 935.257 -1.15155 4.08582 0
M  V30 10089 C 933.164 0.332694 5.90463 0
M  V30 10090 H 932.094 -0.115445 0.74511 0
M  V30 10091 H 934.745 0.418848 1.78656 0
M  V30 10092 H 933.127 -1.36053 3.71894 0
M  V30 10093 H 934.301 1.42012 4.38371 0
M  V30 10094 H 932.616 1.13186 4.00722 0
M  V30 10095 H 935.213 -1.39896 5.16075 0
M  V30 10096 H 935.556 -2.09632 3.59667 0
M  V30 10097 H 936.089 -0.435571 3.95408 0
M  V30 10098 H 932.828 1.24624 6.43544 0
M  V30 10099 H 932.348 -0.405844 5.98425 0
M  V30 10100 H 934.027 -0.0628545 6.46969 0
M  V30 10101 N 934.159 -1.57557 0.0367827 0
M  V30 10102 C 935.092 -2.06205 -0.977479 0
M  V30 10103 C 936.07 -0.959444 -1.31276 0
M  V30 10104 O 937.254 -1.23033 -1.42811 0
M  V30 10105 C 934.381 -2.49053 -2.29544 0
M  V30 10106 C 933.427 -3.70409 -2.11423 0
M  V30 10107 S 934.26 -5.16715 -1.40593 0
M  V30 10108 C 935.416 -5.62864 -2.73742 0
M  V30 10109 H 935.649 -2.91913 -0.5634 0
M  V30 10110 H 933.182 -1.53404 -0.175111 0
M  V30 10111 H 935.14 -2.74403 -3.05308 0
M  V30 10112 H 933.801 -1.63677 -2.68083 0
M  V30 10113 H 932.994 -3.98262 -3.08875 0
M  V30 10114 H 932.596 -3.4525 -1.438 0
M  V30 10115 H 934.888 -5.67571 -3.69958 0
M  V30 10116 H 935.831 -6.62294 -2.50544 0
M  V30 10117 H 936.239 -4.90539 -2.79341 0
M  V30 10118 N 935.637 0.236453 -1.55816 0
M  V30 10119 C 936.587 1.29603 -1.87582 0
M  V30 10120 C 937.571 1.42999 -0.737566 0
M  V30 10121 O 938.763 1.46065 -0.999701 0
M  V30 10122 C 935.892 2.64945 -2.1831 0
M  V30 10123 C 934.978 2.55511 -3.38489 0
M  V30 10124 N 935.369 2.15716 -4.57494 0
M  V30 10125 C 933.667 2.86502 -3.41808 0
M  V30 10126 C 934.368 2.17169 -5.39641 0
M  V30 10127 N 933.344 2.5708 -4.78969 0
M  V30 10128 H 937.146 0.979016 -2.77115 0
M  V30 10129 H 934.66 0.445058 -1.56183 0
M  V30 10130 H 936.657 3.41426 -2.39236 0
M  V30 10131 H 935.317 2.97504 -1.30082 0
M  V30 10132 H 936.328 1.87089 -4.82927 0
M  V30 10133 H 933.005 3.23533 -2.6388 0
M  V30 10134 H 934.395 1.88653 -6.44872 0
M  V30 10135 N 937.115 1.49373 0.502552 0
M  V30 10136 C 938.34 1.62752 1.28556 0
M  V30 10137 C 938.765 0.298285 1.8572 0
M  V30 10138 O 938.123 -0.733885 1.65782 0
M  V30 10139 C 938.171 2.69778 2.39274 0
M  V30 10140 O 937.275 2.28843 3.43081 0
M  V30 10141 H 936.616 0.544799 0.379592 0
M  V30 10142 H 939.146 1.9555 0.601792 0
M  V30 10143 H 939.156 2.91899 2.8506 0
M  V30 10144 H 937.831 3.66266 1.97033 0
M  V30 10145 H 936.408 2.17047 3.03224 0
M  V30 10146 N 938.594 -0.753485 1.38421 0
M  V30 10147 C 939.843 -1.50797 1.33952 0
M  V30 10148 C 940.156 -1.95482 -0.0678464 0
M  V30 10149 O 941.362 -2.7048 -0.235078 0
M  V30 10150 C 939.818 -2.72393 2.35224 0
M  V30 10151 C 939.426 -2.34733 3.81582 0
M  V30 10152 C 941.17 -3.50281 2.39798 0
M  V30 10153 C 939.077 -3.52939 4.7454 0
M  V30 10154 H 938.007 -0.566211 0.497916 0
M  V30 10155 H 940.658 -0.823659 1.63976 0
M  V30 10156 H 939.04 -3.42806 1.98243 0
M  V30 10157 H 940.214 -1.71985 4.27502 0
M  V30 10158 H 938.529 -1.69978 3.80127 0
M  V30 10159 H 941.126 -4.38172 3.06447 0
M  V30 10160 H 941.469 -3.91444 1.41695 0
M  V30 10161 H 942.002 -2.86881 2.75579 0
M  V30 10162 H 938.741 -3.16843 5.73839 0
M  V30 10163 H 938.261 -4.1473 4.33312 0
M  V30 10164 H 939.94 -4.19519 4.92557 0
M  V30 10165 N 940.072 -1.23292 -0.981677 0
M  V30 10166 C 941.02 -1.0104 -2.09508 0
M  V30 10167 C 942.014 0.0501977 -1.69326 0
M  V30 10168 O 943.22 -0.103197 -1.79704 0
M  V30 10169 H 939.595 -0.309629 -0.685298 0
M  V30 10170 H 941.566 -1.95493 -2.25444 0
M  V30 10171 C 940.315 -0.616885 -3.42184 0
M  V30 10172 H 939.638 -1.4247 -3.73554 0
M  V30 10173 H 941.078 -0.500688 -4.21033 0
M  V30 10174 C 939.537 0.674721 -3.30074 0
M  V30 10175 O 940.067 1.72421 -3.62814 0
M  V30 10176 N 938.273 0.650151 -2.83234 0
M  V30 10177 H 937.82 -0.204225 -2.56789 0
M  V30 10178 H 937.778 1.51458 -2.75514 0
M  V30 10179 N 941.55 1.18024 -1.04442 0
M  V30 10180 C 942.798 1.87727 -0.74854 0
M  V30 10181 C 943.119 1.80975 0.726156 0
M  V30 10182 O 942.389 1.23061 1.52423 0
M  V30 10183 H 940.969 0.694974 -0.273897 0
M  V30 10184 H 943.631 1.43213 -1.32197 0
M  V30 10185 H 942.727 2.93665 -1.05674 0
M  V30 10186 N 943.028 0.824394 1.34319 0
M  V30 10187 C 944.258 0.425576 2.02169 0
M  V30 10188 C 944.666 -0.973596 1.62227 0
M  V30 10189 O 944.009 -1.64173 0.824199 0
M  V30 10190 C 944.071 0.449902 3.56674 0
M  V30 10191 C 943.735 1.80266 4.19944 0
M  V30 10192 C 944.732 2.76373 4.40357 0
M  V30 10193 C 942.417 2.09155 4.56683 0
M  V30 10194 C 944.411 3.9954 4.96635 0
M  V30 10195 C 942.098 3.32581 5.12672 0
M  V30 10196 C 943.096 4.27591 5.32592 0
M  V30 10197 O 942.784 5.48837 5.87395 0
M  V30 10198 H 942.516 0.168866 0.654569 0
M  V30 10199 H 945.07 1.11441 1.7254 0
M  V30 10200 H 943.3 -0.295631 3.85568 0
M  V30 10201 H 944.989 0.0709302 4.05838 0
M  V30 10202 H 945.755 2.55351 4.12336 0
M  V30 10203 H 941.634 1.36004 4.40481 0
M  V30 10204 H 945.178 4.73709 5.12099 0
M  V30 10205 H 941.075 3.53466 5.40122 0
M  V30 10206 H 941.843 5.50377 6.05828 0
M  V30 10207 N 944.506 -1.46559 0.579492 0
M  V30 10208 C 945.752 -2.02699 0.0639363 0
M  V30 10209 C 946.085 -1.4504 -1.29139 0
M  V30 10210 O 945.36 -0.614284 -1.84545 0
M  V30 10211 C 945.643 -3.601 -0.00528618 0
M  V30 10212 C 945.496 -4.28149 1.37871 0
M  V30 10213 C 946.815 -4.34375 -0.707537 0
M  V30 10214 H 943.934 -0.736586 0.0247085 0
M  V30 10215 H 946.576 -1.74739 0.746071 0
M  V30 10216 H 944.726 -3.84052 -0.586206 0
M  V30 10217 H 946.398 -4.1547 2.00455 0
M  V30 10218 H 944.641 -3.87636 1.94732 0
M  V30 10219 H 945.312 -5.36888 1.28278 0
M  V30 10220 H 947.788 -4.15549 -0.214064 0
M  V30 10221 H 946.664 -5.44091 -0.724992 0
M  V30 10222 H 946.925 -4.052 -1.7682 0
M  V30 10223 N 945.984 -0.3171 -1.54377 0
M  V30 10224 C 947.231 0.28741 -2.0045 0
M  V30 10225 C 947.559 1.52648 -1.20535 0
M  V30 10226 O 946.814 1.93775 -0.273831 0
M  V30 10227 C 947.113 0.672917 -3.51008 0
M  V30 10228 C 946.779 -0.466245 -4.48483 0
M  V30 10229 C 945.441 -0.778933 -4.74854 0
M  V30 10230 C 947.793 -1.23176 -5.06436 0
M  V30 10231 C 945.121 -1.85997 -5.56437 0
M  V30 10232 C 947.473 -2.30284 -5.89196 0
M  V30 10233 C 946.137 -2.62141 -6.13872 0
M  V30 10234 H 945.407 0.105171 -0.733499 0
M  V30 10235 H 948.054 -0.439538 -1.86388 0
M  V30 10236 H 946.359 1.48019 -3.62764 0
M  V30 10237 H 948.056 1.15209 -3.84094 0
M  V30 10238 H 944.646 -0.212449 -4.28073 0
M  V30 10239 H 948.83 -1.00344 -4.8605 0
M  V30 10240 H 944.086 -2.11134 -5.73788 0
M  V30 10241 H 948.26 -2.90048 -6.33123 0
M  V30 10242 H 945.887 -3.46037 -6.76877 0
M  V30 10243 N 947.462 1.57535 -0.0451378 0
M  V30 10244 C 948.739 1.83785 0.669523 0
M  V30 10245 C 949.119 0.932331 1.89396 0
M  V30 10246 O 948.467 -0.00813229 2.28499 0
M  V30 10247 C 948.677 3.33376 1.03255 0
M  V30 10248 C 950.025 4.00243 1.41741 0
M  V30 10249 O 951.049 3.37965 1.12507 0
M  V30 10250 O 949.908 5.10038 1.96275 0
M  V30 10251 H 947.002 0.758342 0.329919 0
M  V30 10252 H 949.548 1.69538 -0.0740415 0
M  V30 10253 H 948.32 3.90965 0.161777 0
M  V30 10254 H 947.943 3.52787 1.83376 0
M  V30 10255 N 948.94 -0.228186 1.55939 0
M  V30 10256 C 950.165 -0.974795 1.83064 0
M  V30 10257 C 950.59 -1.77426 0.624624 0
M  V30 10258 O 949.948 -1.76211 -0.426556 0
M  V30 10259 C 949.996 -1.87342 3.08116 0
M  V30 10260 O 949.1 -2.96784 2.86344 0
M  V30 10261 H 948.441 -0.276379 0.603747 0
M  V30 10262 H 950.971 -0.243507 2.03146 0
M  V30 10263 H 950.981 -2.28451 3.38045 0
M  V30 10264 H 949.656 -1.28575 3.95526 0
M  V30 10265 H 948.233 -2.59669 2.67631 0
M  V30 10266 N 950.418 -1.49637 -0.494624 0
M  V30 10267 C 951.348 -1.69692 -1.60396 0
M  V30 10268 C 952.329 -0.545648 -1.61111 0
M  V30 10269 O 953.514 -0.782202 -1.77751 0
M  V30 10270 C 950.644 -1.76934 -2.9885 0
M  V30 10271 C 949.598 -2.91915 -3.13001 0
M  V30 10272 C 948.924 -2.84276 -4.5287 0
M  V30 10273 C 950.224 -4.32764 -2.92426 0
M  V30 10274 H 951.918 -2.6257 -1.43866 0
M  V30 10275 H 949.464 -1.26355 -0.690679 0
M  V30 10276 H 951.417 -1.8955 -3.76362 0
M  V30 10277 H 950.141 -0.806609 -3.16483 0
M  V30 10278 H 948.8 -2.78911 -2.37916 0
M  V30 10279 H 948.448 -1.85897 -4.67388 0
M  V30 10280 H 948.148 -3.61452 -4.63278 0
M  V30 10281 H 949.672 -2.98909 -5.32434 0
M  V30 10282 H 951.086 -4.46415 -3.59703 0
M  V30 10283 H 949.483 -5.1121 -3.143 0
M  V30 10284 H 950.553 -4.46765 -1.88491 0
M  V30 10285 N 951.896 0.746133 -1.38819 0
M  V30 10286 C 952.828 1.86991 -1.3254 0
M  V30 10287 C 953.841 1.61077 -0.236216 0
M  V30 10288 O 955.03 1.71518 -0.494341 0
M  V30 10289 C 952.13 3.22786 -1.03258 0
M  V30 10290 C 951.303 3.76145 -2.23234 0
M  V30 10291 C 950.362 4.90474 -1.90581 0
M  V30 10292 O 949.388 5.04717 -2.63153 0
M  V30 10293 N 950.59 5.74015 -0.86525 0
M  V30 10294 H 953.355 1.92885 -2.2938 0
M  V30 10295 H 950.916 0.926392 -1.32776 0
M  V30 10296 H 952.908 3.96824 -0.794533 0
M  V30 10297 H 951.478 3.12231 -0.151895 0
M  V30 10298 H 950.698 2.93587 -2.63059 0
M  V30 10299 H 951.986 4.08528 -3.03285 0
M  V30 10300 H 951.384 5.65086 -0.263577 0
M  V30 10301 H 949.941 6.48168 -0.687087 0
M  V30 10302 N 953.375 1.23811 0.975125 0
M  V30 10303 C 954.305 1.04846 2.08638 0
M  V30 10304 C 955.286 -0.0362859 1.70061 0
M  V30 10305 O 956.471 0.12937 1.93769 0
M  V30 10306 C 953.601 0.644534 3.41267 0
M  V30 10307 C 952.555 1.67722 3.93768 0
M  V30 10308 C 951.881 1.12857 5.22654 0
M  V30 10309 C 953.181 3.07147 4.22443 0
M  V30 10310 H 954.875 1.97795 2.24761 0
M  V30 10311 H 952.421 0.952397 1.08006 0
M  V30 10312 H 954.374 0.498887 4.18436 0
M  V30 10313 H 953.098 -0.320641 3.25022 0
M  V30 10314 H 951.757 1.81095 3.18748 0
M  V30 10315 H 951.405 0.154227 5.02764 0
M  V30 10316 H 951.105 1.81862 5.58749 0
M  V30 10317 H 952.629 0.994891 6.0244 0
M  V30 10318 H 954.043 2.97045 4.90344 0
M  V30 10319 H 952.44 3.73437 4.6975 0
M  V30 10320 H 953.51 3.55743 3.29507 0
M  V30 10321 N 954.853 -1.17469 1.05066 0
M  V30 10322 C 956.078 -1.92162 0.780298 0
M  V30 10323 C 956.503 -1.76222 -0.657832 0
M  V30 10324 O 955.861 -1.0791 -1.45688 0
M  V30 10325 C 955.909 -3.41292 1.16414 0
M  V30 10326 O 955.013 -4.1134 0.295531 0
M  V30 10327 H 954.354 -0.599127 0.286257 0
M  V30 10328 H 956.884 -1.48903 1.40318 0
M  V30 10329 H 956.894 -3.92029 1.13036 0
M  V30 10330 H 955.569 -3.52214 2.21175 0
M  V30 10331 H 954.146 -3.70857 0.389797 0
M  V30 10332 N 956.331 -0.831506 -1.3388 0
M  V30 10333 C 957.577 -0.424302 -1.98312 0
M  V30 10334 C 957.91 1.01211 -1.65741 0
M  V30 10335 O 957.185 1.70636 -0.933464 0
M  V30 10336 C 957.468 -0.636815 -3.54424 0
M  V30 10337 C 957.321 -2.11997 -3.96708 0
M  V30 10338 C 958.64 -0.0782411 -4.4003 0
M  V30 10339 H 955.759 -0.155637 -0.720379 0
M  V30 10340 H 958.401 -1.04566 -1.58638 0
M  V30 10341 H 956.551 -0.107907 -3.8835 0
M  V30 10342 H 958.223 -2.71317 -3.73075 0
M  V30 10343 H 956.466 -2.60723 -3.46707 0
M  V30 10344 H 957.137 -2.21944 -5.05416 0
M  V30 10345 H 959.613 -0.530243 -4.12708 0
M  V30 10346 H 958.489 -0.256676 -5.483 0
M  V30 10347 H 958.75 1.01745 -4.30233 0
M  V30 10348 N 957.809 1.4625 -0.587256 0
M  V30 10349 C 959.049 2.04254 -0.0773169 0
M  V30 10350 C 959.413 1.44831 1.26047 0
M  V30 10351 O 960.614 1.94063 1.85992 0
M  V30 10352 C 958.885 3.57396 -0.0172813 0
M  V30 10353 S 960.444 4.36644 0.434422 0
M  V30 10354 H 957.262 0.709892 -0.0396783 0
M  V30 10355 H 959.864 1.79232 -0.780779 0
M  V30 10356 H 958.568 3.98161 -0.994795 0
M  V30 10357 H 958.099 3.86962 0.70881 0
M  V30 10358 H 960.114 4.66597 1.68824 0
M  V30 10359 N 959.287 0.325282 1.54207 0
M  V30 10360 C 960.217 -0.532574 2.27345 0
M  V30 10361 C 961.198 -1.11791 1.28206 0
M  V30 10362 O 962.383 -1.14272 1.57021 0
M  V30 10363 C 959.513 -1.69274 3.03255 0
M  V30 10364 C 958.467 -1.23662 4.09746 0
M  V30 10365 C 957.793 -2.48386 4.73506 0
M  V30 10366 C 959.093 -0.350244 5.21124 0
M  V30 10367 H 960.787 0.0775108 2.993 0
M  V30 10368 H 958.333 0.0387193 1.43948 0
M  V30 10369 H 960.286 -2.29917 3.53152 0
M  V30 10370 H 959.01 -2.32944 2.28921 0
M  V30 10371 H 957.669 -0.653106 3.60735 0
M  V30 10372 H 957.317 -3.10424 3.95786 0
M  V30 10373 H 957.017 -2.18558 5.45441 0
M  V30 10374 H 958.541 -3.09789 5.26178 0
M  V30 10375 H 959.955 -0.863011 5.66767 0
M  V30 10376 H 958.352 -0.14466 5.99926 0
M  V30 10377 H 959.422 0.618457 4.8094 0
M  V30 10378 N 960.765 -1.57509 0.0534917 0
M  V30 10379 C 961.715 -2.08179 -0.929802 0
M  V30 10380 C 962.699 -0.987451 -1.27036 0
M  V30 10381 O 963.891 -1.25076 -1.2524 0
M  V30 10382 C 961.02 -2.63221 -2.20385 0
M  V30 10383 C 960.106 -3.79629 -1.89058 0
M  V30 10384 N 960.497 -4.8931 -1.28101 0
M  V30 10385 C 958.795 -3.88578 -2.18914 0
M  V30 10386 C 959.496 -5.70329 -1.14455 0
M  V30 10387 N 958.472 -5.18011 -1.64821 0
M  V30 10388 H 962.274 -2.90374 -0.453874 0
M  V30 10389 H 959.788 -1.61697 -0.150899 0
M  V30 10390 H 961.785 -2.97827 -2.91727 0
M  V30 10391 H 960.445 -1.82466 -2.68582 0
M  V30 10392 H 961.456 -5.09058 -0.952924 0
M  V30 10393 H 958.133 -3.18769 -2.69616 0
M  V30 10394 H 959.523 -6.6854 -0.671129 0
M  V30 10395 N 962.243 0.219913 -1.56058 0
M  V30 10396 C 963.153 1.29349 -1.95719 0
M  V30 10397 C 964.169 1.5119 -0.861248 0
M  V30 10398 O 965.345 1.64289 -1.16495 0
M  V30 10399 C 962.41 2.6229 -2.26726 0
M  V30 10400 C 961.471 2.48738 -3.49897 0
M  V30 10401 C 960.704 3.75339 -3.79416 0
M  V30 10402 O 960.927 4.78427 -3.10586 0
M  V30 10403 O 959.861 3.72352 -4.72903 0
M  V30 10404 H 963.687 0.986979 -2.87215 0
M  V30 10405 H 961.272 0.42291 -1.43289 0
M  V30 10406 H 963.154 3.408 -2.47857 0
M  V30 10407 H 961.829 2.92619 -1.38404 0
M  V30 10408 H 960.736 1.68422 -3.34043 0
M  V30 10409 H 962.069 2.23347 -4.38608 0
M  V30 10410 N 963.721 1.49897 0.486681 0
M  V30 10411 C 964.967 1.60342 1.2417 0
M  V30 10412 C 965.3 0.295694 1.91936 0
M  V30 10413 O 964.575 -0.701788 1.81398 0
M  V30 10414 C 964.858 2.77281 2.29755 0
M  V30 10415 C 964.711 4.1789 1.66397 0
M  V30 10416 C 966.03 2.89817 3.31201 0
M  V30 10417 H 963.149 0.583605 0.450083 0
M  V30 10418 H 965.791 1.82232 0.537734 0
M  V30 10419 H 963.941 2.58748 2.89796 0
M  V30 10420 H 965.613 4.47975 1.10073 0
M  V30 10421 H 963.856 4.22872 0.967579 0
M  V30 10422 H 964.527 4.95612 2.43049 0
M  V30 10423 H 967.003 3.06732 2.81167 0
M  V30 10424 H 965.879 3.7329 4.02425 0
M  V30 10425 H 966.14 1.9977 3.94391 0
M  V30 10426 N 965.199 -0.738761 1.39212 0
M  V30 10427 C 966.162 -1.83441 1.37412 0
M  V30 10428 C 967.162 -1.58484 0.271908 0
M  V30 10429 O 968.352 -1.65954 0.529609 0
M  V30 10430 C 965.484 -3.21167 1.143 0
M  V30 10431 H 966.677 -1.86441 2.34904 0
M  V30 10432 H 964.23 -0.942023 1.24722 0
M  V30 10433 H 964.965 -3.23829 0.174756 0
M  V30 10434 H 964.75 -3.40678 1.94116 0
M  V30 10435 H 966.24 -4.01231 1.15773 0
M  V30 10436 N 966.677 -1.24326 -0.968545 0
M  V30 10437 C 967.907 -1.10786 -1.74385 0
M  V30 10438 C 968.315 0.342503 -1.86074 0
M  V30 10439 O 967.658 1.24817 -1.34782 0
M  V30 10440 C 967.72 -1.67274 -3.18213 0
M  V30 10441 C 967.384 -3.1615 -3.29998 0
M  V30 10442 C 968.381 -4.13309 -3.15392 0
M  V30 10443 C 966.066 -3.56092 -3.54265 0
M  V30 10444 C 968.06 -5.48392 -3.24878 0
M  V30 10445 C 965.747 -4.91316 -3.63389 0
M  V30 10446 C 966.745 -5.87275 -3.48707 0
M  V30 10447 O 966.433 -7.20041 -3.57485 0
M  V30 10448 H 966.165 -0.387795 -0.553706 0
M  V30 10449 H 968.719 -1.64894 -1.22471 0
M  V30 10450 H 966.949 -1.07598 -3.71429 0
M  V30 10451 H 968.638 -1.49036 -3.77549 0
M  V30 10452 H 969.404 -3.83792 -2.96528 0
M  V30 10453 H 965.283 -2.81907 -3.6476 0
M  V30 10454 H 968.827 -6.23271 -3.13335 0
M  V30 10455 H 964.724 -5.20505 -3.81766 0
M  V30 10456 H 965.492 -7.27951 -3.74205 0
M  V30 10457 N 968.156 1.1691 -1.05688 0
M  V30 10458 C 969.402 1.87814 -0.780871 0
M  V30 10459 C 969.757 1.79796 0.684926 0
M  V30 10460 O 969.05 1.19853 1.49485 0
M  V30 10461 C 969.244 3.36578 -1.20207 0
M  V30 10462 C 969.073 3.59078 -2.70727 0
M  V30 10463 C 967.843 3.75515 -3.38107 0
M  V30 10464 C 970.041 3.58307 -3.68946 0
M  V30 10465 N 968.023 3.85906 -4.77441 0
M  V30 10466 C 969.394 3.74608 -4.94033 0
M  V30 10467 C 971.449 3.41484 -3.62343 0
M  V30 10468 C 970.152 3.75828 -6.13307 0
M  V30 10469 C 972.178 3.43995 -4.81063 0
M  V30 10470 C 971.54 3.60809 -6.04976 0
M  V30 10471 H 967.639 0.705158 -0.338047 0
M  V30 10472 H 970.223 1.40315 -1.34981 0
M  V30 10473 H 968.394 3.82734 -0.661031 0
M  V30 10474 H 970.126 3.95119 -0.875377 0
M  V30 10475 H 966.881 3.7558 -2.88508 0
M  V30 10476 H 967.305 3.94886 -5.49904 0
M  V30 10477 H 971.947 3.27417 -2.67503 0
M  V30 10478 H 969.665 3.88679 -7.08487 0
M  V30 10479 H 973.251 3.3223 -4.77613 0
M  V30 10480 H 972.131 3.62663 -6.95302 0
M  V30 10481 N 969.634 0.838594 1.33437 0
M  V30 10482 C 970.864 0.446995 2.01707 0
M  V30 10483 C 971.272 -0.956335 1.63251 0
M  V30 10484 O 970.615 -1.63289 0.841566 0
M  V30 10485 C 970.677 0.487707 3.56176 0
M  V30 10486 C 970.341 1.8471 4.18009 0
M  V30 10487 C 971.338 2.81028 4.374 0
M  V30 10488 C 969.023 2.13987 4.54439 0
M  V30 10489 C 971.017 4.04785 4.92369 0
M  V30 10490 C 968.704 3.38 5.09116 0
M  V30 10491 C 969.702 4.33216 5.28027 0
M  V30 10492 O 969.39 5.55036 5.81541 0
M  V30 10493 H 969.122 0.175799 0.652741 0
M  V30 10494 H 971.676 1.13265 1.71348 0
M  V30 10495 H 969.906 -0.254719 3.8586 0
M  V30 10496 H 971.595 0.113971 4.0574 0
M  V30 10497 H 972.361 2.5971 4.09604 0
M  V30 10498 H 968.24 1.40668 4.39014 0
M  V30 10499 H 971.784 4.79114 5.07046 0
M  V30 10500 H 967.681 3.59175 5.36343 0
M  V30 10501 H 968.449 5.56772 5.99956 0
M  V30 10502 N 971.112 -1.45937 0.595003 0
M  V30 10503 C 972.361 -2.01529 0.0829531 0
M  V30 10504 C 972.674 -1.47071 -1.28955 0
M  V30 10505 O 973.88 -1.94561 -1.89363 0
M  V30 10506 C 972.336 -3.59767 0.0976597 0
M  V30 10507 C 971.944 -4.23223 1.46924 0
M  V30 10508 C 973.688 -4.22972 -0.359805 0
M  V30 10509 C 971.595 -5.73576 1.44101 0
M  V30 10510 H 970.525 -0.753508 0.0272425 0
M  V30 10511 H 973.176 -1.67541 0.748473 0
M  V30 10512 H 971.558 -3.90888 -0.634268 0
M  V30 10513 H 972.732 -4.03695 2.22187 0
M  V30 10514 H 971.047 -3.72161 1.86775 0
M  V30 10515 H 973.644 -5.33202 -0.39991 0
M  V30 10516 H 973.987 -3.92765 -1.37991 0
M  V30 10517 H 974.52 -3.96523 0.31845 0
M  V30 10518 H 971.259 -6.08462 2.43831 0
M  V30 10519 H 970.779 -5.95332 0.730767 0
M  V30 10520 H 972.458 -6.36531 1.1592 0
M  V30 10521 N 972.59 -0.333456 -1.54032 0
M  V30 10522 C 973.52 0.52051 -2.27625 0
M  V30 10523 C 974.501 1.1111 -1.28797 0
M  V30 10524 O 975.686 1.13438 -1.57625 0
M  V30 10525 C 972.816 1.67663 -3.04149 0
M  V30 10526 C 971.77 1.21487 -4.10396 0
M  V30 10527 C 971.096 2.45872 -4.74817 0
M  V30 10528 C 972.396 0.322603 -5.21303 0
M  V30 10529 H 974.09 -0.0933823 -2.99254 0
M  V30 10530 H 971.636 -0.0463526 -1.43925 0
M  V30 10531 H 973.589 2.28041 -3.54366 0
M  V30 10532 H 972.313 2.31727 -2.30153 0
M  V30 10533 H 970.972 0.633966 -3.61077 0
M  V30 10534 H 970.62 3.0832 -3.97426 0
M  V30 10535 H 970.32 2.15662 -5.46593 0
M  V30 10536 H 971.844 3.06994 -5.27814 0
M  V30 10537 H 973.258 0.832942 -5.67217 0
M  V30 10538 H 971.655 0.112843 -5.99994 0
M  V30 10539 H 972.725 -0.643954 -4.80605 0
M  V30 10540 N 974.068 1.57479 -0.061844 0
M  V30 10541 C 975.293 1.97843 0.622311 0
M  V30 10542 C 975.718 0.939602 1.62951 0
M  V30 10543 O 975.076 -0.095958 1.81046 0
M  V30 10544 C 975.124 3.37262 1.2762 0
M  V30 10545 O 974.228 3.35943 2.39199 0
M  V30 10546 H 973.569 0.644212 0.160896 0
M  V30 10547 H 976.099 2.04165 -0.133409 0
M  V30 10548 H 976.109 3.74226 1.62539 0
M  V30 10549 H 974.784 4.12404 0.538112 0
M  V30 10550 H 973.361 3.10737 2.06148 0
M  V30 10551 N 975.546 -0.211634 1.56173 0
M  V30 10552 C 976.795 -0.932647 1.78842 0
M  V30 10553 C 977.108 -1.85103 0.63217 0
M  V30 10554 O 978.314 -2.61143 0.742746 0
M  V30 10555 C 976.77 -1.70866 3.16753 0
M  V30 10556 C 976.378 -0.835934 4.40132 0
M  V30 10557 C 978.122 -2.4203 3.48743 0
M  V30 10558 C 976.029 -1.60987 5.69067 0
M  V30 10559 H 974.959 -0.351983 0.666801 0
M  V30 10560 H 977.61 -0.186284 1.82552 0
M  V30 10561 H 975.992 -2.4983 3.07247 0
M  V30 10562 H 977.166 -0.0861298 4.60719 0
M  V30 10563 H 975.481 -0.235941 4.15731 0
M  V30 10564 H 978.078 -3.00453 4.42303 0
M  V30 10565 H 978.421 -3.15406 2.71707 0
M  V30 10566 H 978.954 -1.70048 3.59623 0
M  V30 10567 H 975.693 -0.9192 6.49023 0
M  V30 10568 H 975.213 -2.33403 5.52524 0
M  V30 10569 H 976.892 -2.16798 6.09596 0
M  V30 10570 N 977.024 -1.50153 -0.478725 0
M  V30 10571 C 978.272 -1.60443 -1.22892 0
M  V30 10572 C 978.593 -0.303276 -1.92627 0
M  V30 10573 O 977.863 0.678798 -1.83764 0
M  V30 10574 H 976.443 -0.591205 -0.456602 0
M  V30 10575 H 979.105 -1.86893 -0.552905 0
M  V30 10576 H 978.201 -2.41175 -1.98094 0
M  V30 10577 N 978.502 0.731368 -1.39602 0
M  V30 10578 C 979.465 1.8271 -1.38383 0
M  V30 10579 C 980.465 1.58338 -0.280309 0
M  V30 10580 O 981.655 1.65671 -0.538402 0
M  V30 10581 C 978.787 3.20556 -1.16002 0
M  V30 10582 H 979.98 1.85193 -2.35889 0
M  V30 10583 H 977.533 0.935396 -1.2522 0
M  V30 10584 H 978.268 3.23732 -0.191927 0
M  V30 10585 H 978.053 3.39643 -1.9592 0
M  V30 10586 H 979.543 4.00612 -1.17899 0
M  V30 10587 N 979.98 1.24838 0.961938 0
M  V30 10588 C 980.912 1.00369 2.06055 0
M  V30 10589 C 981.925 -0.0288583 1.62774 0
M  V30 10590 O 983.114 0.208853 1.77274 0
M  V30 10591 C 980.214 0.493953 3.35281 0
M  V30 10592 C 979.387 1.59097 4.07439 0
M  V30 10593 C 978.446 1.08288 5.14937 0
M  V30 10594 O 977.472 1.77577 5.40791 0
M  V30 10595 N 978.674 -0.0796836 5.80445 0
M  V30 10596 H 981.439 1.94962 2.27618 0
M  V30 10597 H 979 1.15945 1.12997 0
M  V30 10598 H 980.992 0.138675 4.04462 0
M  V30 10599 H 979.562 -0.357851 3.10545 0
M  V30 10600 H 978.782 2.11817 3.32456 0
M  V30 10601 H 980.07 2.32817 4.52409 0
M  V30 10602 H 979.468 -0.658827 5.6185 0
M  V30 10603 H 978.025 -0.376057 6.50714 0
M  V30 10604 N 981.458 -1.16348 1.06306 0
M  V30 10605 C 982.686 -1.90782 0.800614 0
M  V30 10606 C 983.101 -1.77439 -0.645033 0
M  V30 10607 O 982.458 -1.11912 -1.4416 0
M  V30 10608 C 982.509 -3.41484 1.18621 0
M  V30 10609 O 982.23 -3.54428 2.57512 0
M  V30 10610 C 983.731 -4.32968 0.951525 0
M  V30 10611 H 980.951 -0.604977 0.290247 0
M  V30 10612 H 983.495 -1.47476 1.41672 0
M  V30 10613 H 981.65 -3.82493 0.614633 0
M  V30 10614 H 982.064 -4.4788 2.72954 0
M  V30 10615 H 983.538 -5.37169 1.27095 0
M  V30 10616 H 984.015 -4.39055 -0.112734 0
M  V30 10617 H 984.621 -3.97687 1.50749 0
M  V30 10618 N 982.937 -0.845659 -1.3299 0
M  V30 10619 C 984.214 -0.366306 -1.92139 0
M  V30 10620 C 984.594 1.14912 -1.77083 0
M  V30 10621 O 983.942 1.96667 -1.16338 0
M  V30 10622 C 984.152 -0.820716 -3.39213 0
M  V30 10623 C 985.5 -0.832667 -4.16355 0
M  V30 10624 O 986.524 -0.764764 -3.47893 0
M  V30 10625 O 985.383 -0.926658 -5.38586 0
M  V30 10626 H 982.477 -0.105063 -0.820299 0
M  V30 10627 H 985.023 -0.931962 -1.41819 0
M  V30 10628 H 983.795 -1.86357 -3.44074 0
M  V30 10629 H 983.418 -0.232009 -3.96923 0
M  V30 10630 N 984.415 1.45619 -0.602734 0
M  V30 10631 C 985.662 2.02272 -0.0960337 0
M  V30 10632 C 985.99 1.47177 1.27159 0
M  V30 10633 O 985.245 0.634593 1.85125 0
M  V30 10634 C 985.544 3.574 -0.00157909 0
M  V30 10635 C 985.21 4.31626 -1.30422 0
M  V30 10636 C 983.872 4.51622 -1.66106 0
M  V30 10637 C 986.224 4.74091 -2.16535 0
M  V30 10638 C 983.552 5.11338 -2.87663 0
M  V30 10639 C 985.904 5.35151 -3.37336 0
M  V30 10640 C 984.568 5.53371 -3.73278 0
M  V30 10641 H 983.838 0.740166 -0.0351412 0
M  V30 10642 H 986.485 1.74744 -0.783382 0
M  V30 10643 H 984.79 3.84179 0.769008 0
M  V30 10644 H 986.487 3.98934 0.406549 0
M  V30 10645 H 983.077 4.16372 -1.01647 0
M  V30 10646 H 987.261 4.5838 -1.90266 0
M  V30 10647 H 982.517 5.23634 -3.15622 0
M  V30 10648 H 986.691 5.67011 -4.04316 0
M  V30 10649 H 984.318 5.99412 -4.67556 0
M  V30 10650 N 985.893 0.34162 1.53853 0
M  V30 10651 C 986.823 -0.508431 2.27897 0
M  V30 10652 C 987.804 -1.10425 1.29384 0
M  V30 10653 O 988.989 -1.126 1.58224 0
M  V30 10654 C 986.119 -1.66048 3.05034 0
M  V30 10655 C 985.073 -1.19309 4.11035 0
M  V30 10656 C 984.399 -2.4335 4.76114 0
M  V30 10657 C 985.699 -0.294952 5.21467 0
M  V30 10658 H 987.393 0.109251 2.99201 0
M  V30 10659 H 984.939 0.0539847 1.43899 0
M  V30 10660 H 986.892 -2.26158 3.5557 0
M  V30 10661 H 985.616 -2.30503 2.31379 0
M  V30 10662 H 984.275 -0.614809 3.61408 0
M  V30 10663 H 983.923 -3.06208 3.99056 0
M  V30 10664 H 983.623 -2.1276 5.47729 0
M  V30 10665 H 985.147 -3.0419 5.29434 0
M  V30 10666 H 986.561 -0.80285 5.67651 0
M  V30 10667 H 984.958 -0.0810221 6.00045 0
M  V30 10668 H 986.028 0.669433 4.80257 0
M  V30 10669 N 987.371 -1.57444 0.0701946 0
M  V30 10670 C 988.596 -1.98171 -0.61181 0
M  V30 10671 C 989.021 -0.94823 -1.62451 0
M  V30 10672 O 988.379 0.0863553 -1.81094 0
M  V30 10673 C 988.427 -3.37934 -1.2583 0
M  V30 10674 O 987.531 -3.37207 -2.37414 0
M  V30 10675 H 986.872 -0.645056 -0.157477 0
M  V30 10676 H 989.402 -2.04091 0.144235 0
M  V30 10677 H 989.412 -3.75083 -1.60552 0
M  V30 10678 H 988.087 -4.12684 -0.516234 0
M  V30 10679 H 986.664 -3.11826 -2.04497 0
M  V30 10680 N 988.849 0.203349 -1.56283 0
M  V30 10681 C 990.095 0.926381 -1.80405 0
M  V30 10682 C 990.428 1.8325 -0.642883 0
M  V30 10683 O 989.703 1.91196 0.356998 0
M  V30 10684 C 989.986 1.74972 -3.14733 0
M  V30 10685 C 989.839 0.868866 -4.41328 0
M  V30 10686 C 991.158 2.72394 -3.45672 0
M  V30 10687 H 988.277 0.335346 -0.656286 0
M  V30 10688 H 990.919 0.1942 -1.89005 0
M  V30 10689 H 989.069 2.37394 -3.07533 0
M  V30 10690 H 990.741 0.259986 -4.60567 0
M  V30 10691 H 988.984 0.175161 -4.33446 0
M  V30 10692 H 989.655 1.47975 -5.31796 0
M  V30 10693 H 992.131 2.20105 -3.53119 0
M  V30 10694 H 991.007 3.27091 -4.40798 0
M  V30 10695 H 991.268 3.51035 -2.6875 0
M  V30 10696 N 990.327 1.50405 0.470755 0
M  V30 10697 C 991.574 1.61411 1.22281 0
M  V30 10698 C 991.902 0.314603 1.91939 0
M  V30 10699 O 991.157 -0.699531 1.82771 0
M  V30 10700 C 991.456 2.74426 2.28965 0
M  V30 10701 C 991.122 4.14896 1.76557 0
M  V30 10702 C 989.784 4.53116 1.61985 0
M  V30 10703 C 992.136 5.02686 1.3768 0
M  V30 10704 C 989.464 5.76868 1.0696 0
M  V30 10705 C 991.816 6.26985 0.840967 0
M  V30 10706 C 990.48 6.64008 0.68188 0
M  V30 10707 H 989.75 0.590645 0.447459 0
M  V30 10708 H 992.397 1.84339 0.518783 0
M  V30 10709 H 990.702 2.45588 3.05277 0
M  V30 10710 H 992.399 2.80146 2.86914 0
M  V30 10711 H 988.989 3.84743 1.88867 0
M  V30 10712 H 993.173 4.7379 1.47772 0
M  V30 10713 H 988.429 6.04227 0.933808 0
M  V30 10714 H 992.603 6.94372 0.531066 0
M  V30 10715 H 990.23 7.59778 0.25335 0
M  V30 10716 N 991.805 -0.723954 1.39988 0
M  V30 10717 C 993.052 -1.48371 1.37812 0
M  V30 10718 C 993.38 -1.94487 -0.0223285 0
M  V30 10719 O 992.635 -1.67906 -1.00529 0
M  V30 10720 C 992.934 -2.73004 2.30659 0
M  V30 10721 C 992.6 -2.45698 3.78078 0
M  V30 10722 C 991.262 -2.37961 4.18244 0
M  V30 10723 C 993.614 -2.22601 4.71273 0
M  V30 10724 C 990.942 -2.05183 5.49652 0
M  V30 10725 C 993.294 -1.91339 6.0297 0
M  V30 10726 C 991.958 -1.82078 6.42187 0
M  V30 10727 H 991.228 -0.542929 0.504291 0
M  V30 10728 H 993.875 -0.829986 1.72579 0
M  V30 10729 H 992.18 -3.43174 1.89048 0
M  V30 10730 H 993.877 -3.31068 2.26263 0
M  V30 10731 H 990.467 -2.52603 3.46251 0
M  V30 10732 H 994.651 -2.2754 4.41066 0
M  V30 10733 H 989.907 -1.96544 5.78948 0
M  V30 10734 H 994.081 -1.72479 6.74703 0
M  V30 10735 H 991.708 -1.56446 7.43928 0
M  V30 10736 N 993.283 -1.25346 -0.955304 0
M  V30 10737 C 994.508 -1.12892 -1.73983 0
M  V30 10738 C 994.933 0.313455 -1.8547 0
M  V30 10739 O 994.291 1.22706 -1.33465 0
M  V30 10740 C 994.339 -1.78729 -3.1319 0
M  V30 10741 O 993.443 -1.06648 -3.98372 0
M  V30 10742 H 992.784 -0.394178 -0.534341 0
M  V30 10743 H 995.314 -1.65897 -1.19747 0
M  V30 10744 H 995.324 -1.84987 -3.63653 0
M  V30 10745 H 993.999 -2.83669 -3.04146 0
M  V30 10746 H 992.576 -1.08266 -3.56837 0
M  V30 10747 N 994.761 1.15782 -1.06922 0
M  V30 10748 C 996.009 1.86097 -0.788192 0
M  V30 10749 C 996.33 1.82475 0.687606 0
M  V30 10750 O 995.6 1.26266 1.49778 0
M  V30 10751 H 994.18 0.689008 -0.288577 0
M  V30 10752 H 996.842 1.40377 -1.35205 0
M  V30 10753 H 995.938 2.91358 -1.1188 0
M  V30 10754 N 996.239 0.8527 1.3254 0
M  V30 10755 C 997.469 0.468363 2.01221 0
M  V30 10756 C 997.877 -0.938966 1.64256 0
M  V30 10757 O 997.22 -1.62387 0.858837 0
M  V30 10758 C 997.282 0.525457 3.55639 0
M  V30 10759 C 996.946 1.89133 4.16026 0
M  V30 10760 C 997.943 2.85652 4.34395 0
M  V30 10761 C 995.628 2.18795 4.52144 0
M  V30 10762 C 997.622 4.09985 4.88048 0
M  V30 10763 C 995.309 3.43381 5.05502 0
M  V30 10764 C 996.307 4.38792 5.23403 0
M  V30 10765 O 995.995 5.61173 5.75622 0
M  V30 10766 H 995.727 0.182712 0.65084 0
M  V30 10767 H 998.281 1.15076 1.70138 0
M  V30 10768 H 996.511 -0.213779 3.86109 0
M  V30 10769 H 998.2 0.156999 4.05596 0
M  V30 10770 H 998.966 2.6404 4.06827 0
M  V30 10771 H 994.845 1.45317 4.37498 0
M  V30 10772 H 998.389 4.84465 5.01936 0
M  V30 10773 H 994.286 3.64844 5.32503 0
M  V30 10774 H 995.054 5.63104 5.94017 0
M  V30 10775 N 997.718 -1.45297 0.610449 0
M  V30 10776 C 998.946 -2.0659 0.113211 0
M  V30 10777 C 999.361 -1.4546 -1.20361 0
M  V30 10778 O 998.718 -0.569823 -1.73376 0
M  V30 10779 C 998.769 -3.61488 -0.0298411 0
M  V30 10780 O 998.49 -4.20336 1.23488 0
M  V30 10781 C 999.991 -4.39772 -0.558202 0
M  V30 10782 H 997.211 -0.667322 0.0701555 0
M  V30 10783 H 999.755 -1.86497 0.838993 0
M  V30 10784 H 997.91 -3.80913 -0.705963 0
M  V30 10785 H 998.324 -5.13545 1.0664 0
M  V30 10786 H 999.798 -5.48648 -0.607375 0
M  V30 10787 H 1000.27 -4.09755 -1.58107 0
M  V30 10788 H 1000.88 -4.25217 0.0839704 0
M  V30 10789 N 999.196 -0.349774 -1.5367 0
M  V30 10790 C 1000.44 0.244827 -2.01015 0
M  V30 10791 C 1000.77 1.50057 -1.23746 0
M  V30 10792 O 1000.03 1.9315 -0.314872 0
M  V30 10793 C 1000.32 0.598311 -3.52356 0
M  V30 10794 C 999.991 -0.56127 -4.47393 0
M  V30 10795 C 998.653 -0.879481 -4.73095 0
M  V30 10796 C 1001 -1.3389 -5.03709 0
M  V30 10797 C 998.333 -1.97758 -5.52366 0
M  V30 10798 C 1000.68 -2.4273 -5.84179 0
M  V30 10799 C 999.349 -2.75103 -6.08173 0
M  V30 10800 H 998.619 0.0895884 -0.735564 0
M  V30 10801 H 1001.27 -0.478975 -1.85413 0
M  V30 10802 H 999.571 1.40291 -3.65822 0
M  V30 10803 H 1001.27 1.07036 -3.86451 0
M  V30 10804 H 997.858 -0.303201 -4.27526 0
M  V30 10805 H 1002.04 -1.10632 -4.83812 0
M  V30 10806 H 997.298 -2.23257 -5.6918 0
M  V30 10807 H 1001.47 -3.03412 -6.26828 0
M  V30 10808 H 999.099 -3.60317 -6.69385 0
M  V30 10809 N 1000.67 1.57404 -0.0785433 0
M  V30 10810 C 1001.62 2.13104 0.88631 0
M  V30 10811 C 1002.59 1.04527 1.29086 0
M  V30 10812 O 1003.78 1.32226 1.37553 0
M  V30 10813 C 1000.92 2.70252 2.14611 0
M  V30 10814 C 1000.03 3.93007 1.79358 0
M  V30 10815 C 999.164 4.38376 3 0
M  V30 10816 C 998.203 5.53761 2.60796 0
M  V30 10817 N 997.34 5.94058 3.74219 0
M  V30 10818 H 1002.18 2.95243 0.404452 0
M  V30 10819 H 999.717 1.45894 0.187982 0
M  V30 10820 H 1001.67 3.01497 2.88367 0
M  V30 10821 H 1000.3 1.90868 2.60326 0
M  V30 10822 H 999.357 3.68181 0.956384 0
M  V30 10823 H 1000.67 4.76795 1.4652 0
M  V30 10824 H 999.823 4.71317 3.82027 0
M  V30 10825 H 998.562 3.53455 3.36037 0
M  V30 10826 H 997.567 5.20464 1.77192 0
M  V30 10827 H 998.792 6.40419 2.25922 0
M  V30 10828 H 996.738 5.12085 4.10005 0
M  V30 10829 H 996.655 6.72602 3.45171 0
M  V30 10830 H 997.923 6.31624 4.56805 0
M  V30 10831 N 1002.15 -0.195058 1.56388 0
M  V30 10832 C 1003.1 -1.24584 1.90952 0
M  V30 10833 C 1004.09 -1.40993 0.77522 0
M  V30 10834 O 1005.28 -1.43363 1.03808 0
M  V30 10835 C 1002.41 -2.59064 2.25258 0
M  V30 10836 C 1001.49 -2.46447 3.45145 0
M  V30 10837 N 1001.88 -2.0351 4.63052 0
M  V30 10838 C 1000.18 -2.77339 3.49283 0
M  V30 10839 C 1000.88 -2.02785 5.45209 0
M  V30 10840 N 999.859 -2.4429 4.85616 0
M  V30 10841 H 1003.66 -0.9052 2.79613 0
M  V30 10842 H 1001.17 -0.403493 1.57308 0
M  V30 10843 H 1003.17 -3.34963 2.48205 0
M  V30 10844 H 1001.83 -2.93951 1.37924 0
M  V30 10845 H 1002.84 -1.74219 4.87717 0
M  V30 10846 H 999.52 -3.16423 2.72365 0
M  V30 10847 H 1000.91 -1.71489 6.49647 0
M  V30 10848 N 1003.63 -1.50653 -0.462772 0
M  V30 10849 C 1004.58 -1.70122 -1.55971 0
M  V30 10850 C 1005.55 -0.542581 -1.56988 0
M  V30 10851 O 1006.73 -0.774114 -1.74391 0
M  V30 10852 C 1003.87 -1.80899 -2.93887 0
M  V30 10853 C 1002.98 -3.08318 -3.02595 0
M  V30 10854 C 1002.12 -3.09841 -4.31477 0
M  V30 10855 C 1001.16 -4.3168 -4.33957 0
M  V30 10856 N 1000.3 -4.30894 -5.54323 0
M  V30 10857 H 1005.14 -2.63768 -1.38674 0
M  V30 10858 H 1002.67 -1.30746 -0.674091 0
M  V30 10859 H 1004.63 -1.85128 -3.73876 0
M  V30 10860 H 1003.26 -0.906854 -3.098 0
M  V30 10861 H 1002.31 -3.13521 -2.15427 0
M  V30 10862 H 1003.62 -3.98282 -3.00288 0
M  V30 10863 H 1002.78 -3.12845 -5.1982 0
M  V30 10864 H 1001.52 -2.17722 -4.36404 0
M  V30 10865 H 1000.52 -4.28879 -3.4401 0
M  V30 10866 H 1001.75 -5.25035 -4.30715 0
M  V30 10867 H 999.694 -3.41633 -5.6002 0
M  V30 10868 H 999.611 -5.14636 -5.53792 0
M  V30 10869 H 1000.88 -4.38056 -6.44769 0
M  V30 10870 N 1005.11 0.71652 -1.4037 0
M  V30 10871 C 1006.04 1.84012 -1.34963 0
M  V30 10872 C 1007.02 1.61102 -0.22017 0
M  V30 10873 O 1008.2 1.84127 -0.403676 0
M  V30 10874 C 1005.33 3.20334 -1.10017 0
M  V30 10875 C 1004.38 3.62072 -2.25402 0
M  V30 10876 S 1005.21 3.69295 -3.8779 0
M  V30 10877 C 1006.37 5.08378 -3.65107 0
M  V30 10878 H 1006.6 1.88318 -2.30052 0
M  V30 10879 H 1004.13 0.883208 -1.26644 0
M  V30 10880 H 1006.09 3.99042 -0.963097 0
M  V30 10881 H 1004.75 3.13662 -0.16584 0
M  V30 10882 H 1003.94 4.61051 -2.03587 0
M  V30 10883 H 1003.55 2.90619 -2.35408 0
M  V30 10884 H 1005.84 5.95268 -3.23516 0
M  V30 10885 H 1006.78 5.35228 -4.63613 0
M  V30 10886 H 1007.19 4.78927 -2.98813 0
M  V30 10887 N 1006.59 1.25851 0.948643 0
M  V30 10888 C 1007.83 1.11119 1.69648 0
M  V30 10889 C 1008.17 -0.345995 1.91093 0
M  V30 10890 O 1007.44 -1.25467 1.48621 0
M  V30 10891 C 1007.72 1.87261 3.0758 0
M  V30 10892 C 1007.58 3.40842 2.93507 0
M  V30 10893 C 1008.9 1.6605 4.07573 0
M  V30 10894 H 1006.01 0.405052 0.615713 0
M  V30 10895 H 1008.66 1.54756 1.10229 0
M  V30 10896 H 1006.81 1.50172 3.58303 0
M  V30 10897 H 1008.48 3.87641 2.50064 0
M  V30 10898 H 1006.72 3.68248 2.29294 0
M  V30 10899 H 1007.39 3.89339 3.91305 0
M  V30 10900 H 1009.87 1.98348 3.65783 0
M  V30 10901 H 1008.74 2.21753 5.02113 0
M  V30 10902 H 1009.01 0.603256 4.37965 0
M  V30 10903 N 1008.06 -1.15214 1.07534 0
M  V30 10904 C 1009.29 -1.89647 0.819614 0
M  V30 10905 C 1009.7 -1.78365 -0.631072 0
M  V30 10906 O 1009.05 -1.1346 -1.44474 0
M  V30 10907 C 1009.11 -3.40573 1.1511 0
M  V30 10908 C 1008.77 -3.7564 2.60276 0
M  V30 10909 C 1009.77 -3.76507 3.58523 0
M  V30 10910 C 1007.45 -4.05891 2.95901 0
M  V30 10911 C 1009.45 -4.07133 4.9043 0
M  V30 10912 C 1007.13 -4.36182 4.28005 0
M  V30 10913 C 1008.13 -4.36785 5.25079 0
M  V30 10914 O 1007.82 -4.66348 6.54809 0
M  V30 10915 H 1007.55 -0.607836 0.295822 0
M  V30 10916 H 1010.11 -1.46895 1.43565 0
M  V30 10917 H 1008.34 -3.83734 0.478033 0
M  V30 10918 H 1010.03 -3.96299 0.877615 0
M  V30 10919 H 1010.79 -3.53233 3.32342 0
M  V30 10920 H 1006.67 -4.0458 2.20989 0
M  V30 10921 H 1010.21 -4.07519 5.66193 0
M  V30 10922 H 1006.11 -4.58924 4.53937 0
M  V30 10923 H 1006.88 -4.84105 6.59988 0
M  V30 10924 N 1009.54 -0.859717 -1.32086 0
M  V30 10925 C 1010.45 -0.31108 -2.32528 0
M  V30 10926 C 1011.47 0.573714 -1.6427 0
M  V30 10927 O 1012.64 0.472878 -1.9577 0
M  V30 10928 C 1009.71 0.487256 -3.43259 0
M  V30 10929 C 1008.77 -0.424279 -4.27198 0
M  V30 10930 C 1008 0.336051 -5.32641 0
M  V30 10931 O 1008.23 1.56541 -5.48499 0
M  V30 10932 O 1007.16 -0.300777 -6.01148 0
M  V30 10933 H 1010.99 -1.14336 -2.81355 0
M  V30 10934 H 1008.57 -0.622794 -1.358 0
M  V30 10935 H 1010.45 0.940203 -4.10777 0
M  V30 10936 H 1009.13 1.29626 -2.96612 0
M  V30 10937 H 1008.04 -0.925509 -3.62471 0
M  V30 10938 H 1009.37 -1.1986 -4.77383 0
M  V30 10939 N 1011.02 1.44971 -0.618145 0
M  V30 10940 C 1012.3 1.95539 -0.0489895 0
M  V30 10941 C 1012.68 1.5604 1.42179 0
M  V30 10942 O 1012.03 0.82809 2.12967 0
M  V30 10943 C 1012.24 3.48044 -0.258193 0
M  V30 10944 C 1013.58 4.24354 -0.144541 0
M  V30 10945 O 1014.61 3.55699 -0.18887 0
M  V30 10946 O 1013.47 5.46486 -0.038519 0
M  V30 10947 H 1010.56 0.826466 0.0297256 0
M  V30 10948 H 1013.11 1.55086 -0.688944 0
M  V30 10949 H 1011.88 3.69798 -1.27926 0
M  V30 10950 H 1011.5 3.95412 0.416522 0
M  V30 10951 N 1012.5 0.357919 1.53482 0
M  V30 10952 C 1013.73 -0.23514 2.05559 0
M  V30 10953 C 1014.14 -1.43068 1.23195 0
M  V30 10954 O 1013.5 -1.80481 0.270741 0
M  V30 10955 C 1013.55 -0.636147 3.55859 0
M  V30 10956 O 1013.27 0.511864 4.35099 0
M  V30 10957 C 1014.77 -1.28841 4.24164 0
M  V30 10958 H 1011.99 -0.0428446 0.669631 0
M  V30 10959 H 1014.54 0.51407 1.97933 0
M  V30 10960 H 1012.69 -1.33528 3.63661 0
M  V30 10961 H 1013.1 0.189328 5.24158 0
M  V30 10962 H 1014.58 -1.51962 5.30671 0
M  V30 10963 H 1015.06 -2.24638 3.77405 0
M  V30 10964 H 1015.66 -0.630914 4.20594 0
M  V30 10965 N 1013.98 -1.5736 0.0868897 0
M  V30 10966 C 1014.91 -2.16596 -0.872252 0
M  V30 10967 C 1015.89 -1.09706 -1.29995 0
M  V30 10968 O 1017.07 -1.37808 -1.36831 0
M  V30 10969 C 1014.2 -2.73972 -2.1344 0
M  V30 10970 C 1013.16 -3.86163 -1.8456 0
M  V30 10971 C 1012.48 -4.30206 -3.17533 0
M  V30 10972 C 1013.78 -5.0973 -1.13899 0
M  V30 10973 H 1015.48 -2.96995 -0.378738 0
M  V30 10974 H 1013.02 -1.42861 -0.18073 0
M  V30 10975 H 1014.98 -3.14062 -2.80968 0
M  V30 10976 H 1013.7 -1.90817 -2.6506 0
M  V30 10977 H 1012.36 -3.466 -1.19432 0
M  V30 10978 H 1012.01 -3.43951 -3.67024 0
M  V30 10979 H 1011.71 -5.05841 -2.98996 0
M  V30 10980 H 1013.23 -4.72922 -3.86234 0
M  V30 10981 H 1014.64 -5.4704 -1.71523 0
M  V30 10982 H 1013.04 -5.90741 -1.05569 0
M  V30 10983 H 1014.11 -4.8475 -0.120432 0
M  V30 10984 N 1015.45 0.186762 -1.56489 0
M  V30 10985 C 1016.68 0.921832 -1.85229 0
M  V30 10986 C 1017.1 1.76496 -0.670416 0
M  V30 10987 O 1016.45 1.78899 0.360758 0
M  V30 10988 C 1016.51 1.81121 -3.12854 0
M  V30 10989 O 1016.23 1.00211 -4.26485 0
M  V30 10990 C 1017.73 2.65725 -3.54831 0
M  V30 10991 H 1014.95 0.268563 -0.61491 0
M  V30 10992 H 1017.49 0.191505 -2.03601 0
M  V30 10993 H 1015.65 2.49506 -2.96354 0
M  V30 10994 H 1016.06 1.60893 -4.99213 0
M  V30 10995 H 1017.53 3.23771 -4.47075 0
M  V30 10996 H 1018.01 3.39843 -2.78215 0
M  V30 10997 H 1018.62 2.02698 -3.7389 0
M  V30 10998 N 1016.93 1.50896 0.454776 0
M  V30 10999 C 1017.86 1.73885 1.5584 0
M  V30 11000 C 1018.84 0.588172 1.59607 0
M  V30 11001 O 1020.03 0.829054 1.75614 0
M  V30 11002 C 1017.16 1.84796 2.94054 0
M  V30 11003 C 1016.11 3.00111 3.05152 0
M  V30 11004 C 1015.44 2.96183 4.45174 0
M  V30 11005 C 1016.74 4.40365 2.80849 0
M  V30 11006 H 1018.43 2.66292 1.36854 0
M  V30 11007 H 1015.98 1.28142 0.656936 0
M  V30 11008 H 1017.93 1.99462 3.71204 0
M  V30 11009 H 1016.66 0.890235 3.14233 0
M  V30 11010 H 1015.31 2.85121 2.30438 0
M  V30 11011 H 1014.96 1.98224 4.62295 0
M  V30 11012 H 1014.66 3.73608 4.53532 0
M  V30 11013 H 1016.19 3.1292 5.24322 0
M  V30 11014 H 1017.6 4.55795 3.47741 0
M  V30 11015 H 1016 5.19363 3.00636 0
M  V30 11016 H 1017.07 4.51606 1.76579 0
M  V30 11017 N 1018.41 -0.709066 1.40748 0
M  V30 11018 C 1019.66 -1.46901 1.39378 0
M  V30 11019 C 1019.99 -1.945 -0.0016993 0
M  V30 11020 O 1019.24 -1.68963 -0.987426 0
M  V30 11021 C 1019.54 -2.70543 2.33541 0
M  V30 11022 C 1019.21 -2.41674 3.80663 0
M  V30 11023 C 1017.87 -2.33511 4.20745 0
M  V30 11024 C 1020.22 -2.1759 4.73607 0
M  V30 11025 C 1017.55 -1.99342 5.51797 0
M  V30 11026 C 1019.9 -1.84933 6.04965 0
M  V30 11027 C 1018.56 -1.75256 6.44082 0
M  V30 11028 H 1017.83 -0.537549 0.510021 0
M  V30 11029 H 1020.48 -0.811635 1.7345 0
M  V30 11030 H 1018.79 -3.41149 1.92677 0
M  V30 11031 H 1020.48 -3.2865 2.29761 0
M  V30 11032 H 1017.07 -2.48917 3.4891 0
M  V30 11033 H 1021.26 -2.22849 4.43454 0
M  V30 11034 H 1016.51 -1.90392 5.81 0
M  V30 11035 H 1020.69 -1.65313 6.76494 0
M  V30 11036 H 1018.31 -1.48547 7.45545 0
M  V30 11037 N 1019.89 -1.26353 -0.941956 0
M  V30 11038 C 1021.3 -1.10774 -1.50287 0
M  V30 11039 C 1021.65 0.312229 -1.937 0
M  V30 11040 O 1020.78 1.20364 -1.79838 0
M  V30 11041 C 1021.37 -2.00473 -2.73123 0
M  V30 11042 C 1019.93 -1.89042 -3.25485 0
M  V30 11043 C 1019.08 -1.93869 -1.98267 0
M  V30 11044 H 1022.03 -1.39454 -0.757523 0
M  V30 11045 H 1022.05 -1.55216 -3.47402 0
M  V30 11046 H 1021.56 -3.03812 -2.41495 0
M  V30 11047 H 1019.66 -0.886341 -3.61904 0
M  V30 11048 H 1019.78 -2.74533 -3.92643 0
M  V30 11049 H 1018.14 -1.37912 -2.14132 0
M  V30 11050 H 1018.92 -2.98837 -1.68972 0
M  V30 11051 N 1021.37 1.14642 -1.08144 0
M  V30 11052 C 1022.61 1.85617 -0.809484 0
M  V30 11053 C 1022.94 1.8279 0.664672 0
M  V30 11054 O 1022.2 1.25178 1.50429 0
M  V30 11055 C 1022.5 3.33953 -1.2732 0
M  V30 11056 C 1022.16 3.56969 -2.7547 0
M  V30 11057 C 1020.82 3.6296 -3.15933 0
M  V30 11058 C 1023.18 3.66014 -3.71057 0
M  V30 11059 C 1020.5 3.75515 -4.50783 0
M  V30 11060 C 1022.86 3.80094 -5.05679 0
M  V30 11061 C 1021.52 3.84333 -5.45751 0
M  V30 11062 H 1020.79 0.67922 -0.296211 0
M  V30 11063 H 1023.44 1.35433 -1.35389 0
M  V30 11064 H 1021.74 3.86399 -0.648329 0
M  V30 11065 H 1023.44 3.87291 -1.03957 0
M  V30 11066 H 1020.03 3.52953 -2.4315 0
M  V30 11067 H 1024.21 3.60679 -3.40917 0
M  V30 11068 H 1019.47 3.77057 -4.81288 0
M  V30 11069 H 1023.64 3.86035 -5.79612 0
M  V30 11070 H 1021.27 3.93814 -6.50242 0
M  V30 11071 N 1022.85 0.866709 1.31628 0
M  V30 11072 C 1024.07 0.48956 2.01539 0
M  V30 11073 C 1024.5 -0.909556 1.64647 0
M  V30 11074 O 1023.85 -1.59959 0.853391 0
M  V30 11075 C 1023.9 0.650176 3.5469 0
M  V30 11076 O 1023.01 -0.311908 4.11219 0
M  V30 11077 H 1022.35 0.195144 0.634677 0
M  V30 11078 H 1024.88 1.16923 1.679 0
M  V30 11079 H 1024.89 0.542236 4.04381 0
M  V30 11080 H 1023.56 1.67038 3.80882 0
M  V30 11081 H 1022.14 -0.159197 3.7256 0
M  V30 11082 N 1024.32 -1.44642 0.625825 0
M  V30 11083 C 1025.57 -2.01695 0.127948 0
M  V30 11084 C 1025.89 -1.49439 -1.25271 0
M  V30 11085 O 1025.16 -0.695873 -1.83124 0
M  V30 11086 H 1023.74 -0.745685 0.0443096 0
M  V30 11087 H 1026.4 -1.7721 0.811332 0
M  V30 11088 H 1025.5 -3.11966 0.0915933 0
M  V30 11089 N 1025.8 -0.366053 -1.5329 0
M  V30 11090 C 1026.71 0.488111 -2.29466 0
M  V30 11091 C 1027.73 1.09219 -1.35452 0
M  V30 11092 O 1028.9 1.10303 -1.68509 0
M  V30 11093 C 1025.97 1.61202 -3.06944 0
M  V30 11094 C 1025.03 1.03543 -4.16626 0
M  V30 11095 C 1024.26 2.10578 -4.904 0
M  V30 11096 O 1024.49 3.31697 -4.6404 0
M  V30 11097 O 1023.42 1.73609 -5.76319 0
M  V30 11098 H 1027.25 -0.131789 -3.03414 0
M  V30 11099 H 1024.83 -0.130421 -1.4883 0
M  V30 11100 H 1026.71 2.26546 -3.55324 0
M  V30 11101 H 1025.39 2.21732 -2.35832 0
M  V30 11102 H 1024.29 0.345892 -3.72498 0
M  V30 11103 H 1025.63 0.474687 -4.89906 0
M  V30 11104 N 1027.28 1.57312 -0.0952337 0
M  V30 11105 C 1028.51 1.98697 0.57682 0
M  V30 11106 C 1028.92 0.974347 1.61716 0
M  V30 11107 O 1028.28 -0.036022 1.82464 0
M  V30 11108 C 1028.33 3.40133 1.2244 0
M  V30 11109 O 1028.05 4.37518 0.225678 0
M  V30 11110 C 1029.55 3.96522 1.98205 0
M  V30 11111 H 1026.77 0.65294 0.154629 0
M  V30 11112 H 1029.32 2.03754 -0.174562 0
M  V30 11113 H 1027.47 3.3609 1.92671 0
M  V30 11114 H 1027.89 5.199 0.693116 0
M  V30 11115 H 1029.36 4.97637 2.38875 0
M  V30 11116 H 1029.84 3.34347 2.84796 0
M  V30 11117 H 1030.44 4.04038 1.3279 0
M  V30 11118 N 1028.76 -0.17846 1.56586 0
M  V30 11119 C 1030 -0.897562 1.81856 0
M  V30 11120 C 1030.34 -1.82204 0.671955 0
M  V30 11121 O 1029.61 -1.91739 -0.326535 0
M  V30 11122 C 1029.89 -1.69942 3.17477 0
M  V30 11123 C 1029.75 -0.798545 4.42655 0
M  V30 11124 C 1031.07 -2.66861 3.49962 0
M  V30 11125 H 1028.19 -0.324863 0.661539 0
M  V30 11126 H 1030.83 -0.164106 1.8929 0
M  V30 11127 H 1028.98 -2.32471 3.11271 0
M  V30 11128 H 1030.65 -0.18668 4.60922 0
M  V30 11129 H 1028.89 -0.106181 4.3367 0
M  V30 11130 H 1029.56 -1.39496 5.34083 0
M  V30 11131 H 1032.04 -2.1446 3.56576 0
M  V30 11132 H 1030.92 -3.20037 4.45946 0
M  V30 11133 H 1031.18 -3.46715 2.74301 0
M  V30 11134 N 1030.24 -1.51135 -0.446768 0
M  V30 11135 C 1031.48 -1.63336 -1.19698 0
M  V30 11136 C 1031.81 -0.345099 -1.91414 0
M  V30 11137 O 1031.07 0.670365 -1.8386 0
M  V30 11138 C 1031.36 -2.78034 -2.2457 0
M  V30 11139 C 1031.03 -4.17652 -1.69934 0
M  V30 11140 C 1029.69 -4.55636 -1.54756 0
M  V30 11141 C 1032.04 -5.04813 -1.29665 0
M  V30 11142 C 1029.37 -5.78496 -0.977689 0
M  V30 11143 C 1031.72 -6.28244 -0.741112 0
M  V30 11144 C 1030.39 -6.65009 -0.576156 0
M  V30 11145 H 1029.66 -0.597689 -0.438006 0
M  V30 11146 H 1032.31 -1.85141 -0.48939 0
M  V30 11147 H 1030.61 -2.50413 -3.01331 0
M  V30 11148 H 1032.31 -2.84675 -2.8242 0
M  V30 11149 H 1028.9 -3.87699 -1.82722 0
M  V30 11150 H 1033.08 -4.76081 -1.40216 0
M  V30 11151 H 1028.34 -6.05636 -0.837563 0
M  V30 11152 H 1032.51 -6.95129 -0.42053 0
M  V30 11153 H 1030.14 -7.60085 -0.132443 0
M  V30 11154 N 1031.71 0.701592 -1.41122 0
M  V30 11155 C 1032.65 1.8257 -1.36907 0
M  V30 11156 C 1033.62 1.6086 -0.237245 0
M  V30 11157 O 1034.81 1.83688 -0.423182 0
M  V30 11158 C 1031.94 3.19149 -1.13408 0
M  V30 11159 C 1030.98 3.59661 -2.29229 0
M  V30 11160 S 1031.81 3.65161 -3.91685 0
M  V30 11161 C 1032.97 5.04477 -3.70478 0
M  V30 11162 H 1033.2 1.85867 -2.32036 0
M  V30 11163 H 1030.74 0.869726 -1.27574 0
M  V30 11164 H 1032.69 3.97998 -1.00537 0
M  V30 11165 H 1031.36 3.13468 -0.199099 0
M  V30 11166 H 1030.55 4.58866 -2.08466 0
M  V30 11167 H 1030.15 2.88105 -2.38477 0
M  V30 11168 H 1032.44 5.91803 -3.29811 0
M  V30 11169 H 1033.39 5.3028 -4.69264 0
M  V30 11170 H 1033.79 4.75731 -3.03876 0
M  V30 11171 N 1033.19 1.2685 0.935242 0
M  V30 11172 C 1034.42 1.15645 1.72165 0
M  V30 11173 C 1034.84 -0.283909 1.85945 0
M  V30 11174 O 1034.2 -1.20567 1.354 0
M  V30 11175 C 1034.25 1.83689 3.10307 0
M  V30 11176 O 1033.35 1.12972 3.96625 0
M  V30 11177 H 1032.69 0.402629 0.528002 0
M  V30 11178 H 1035.22 1.67781 1.17093 0
M  V30 11179 H 1035.23 1.90749 3.60664 0
M  V30 11180 H 1033.91 2.88472 2.99595 0
M  V30 11181 H 1032.48 1.13929 3.5507 0
M  V30 11182 N 1034.67 -1.14067 1.0875 0
M  V30 11183 C 1035.6 -2.18306 0.664652 0
M  V30 11184 C 1036.58 -1.59312 -0.325359 0
M  V30 11185 O 1037.77 -1.87111 -0.228385 0
M  V30 11186 C 1034.89 -3.38693 -0.0218723 0
M  V30 11187 C 1033.94 -4.16263 0.928844 0
M  V30 11188 S 1034.77 -4.76817 2.43734 0
M  V30 11189 C 1035.93 -6.00557 1.76302 0
M  V30 11190 H 1036.16 -2.53837 1.54772 0
M  V30 11191 H 1033.69 -1.25254 0.902817 0
M  V30 11192 H 1035.65 -4.0843 -0.411686 0
M  V30 11193 H 1034.31 -3.01478 -0.881481 0
M  V30 11194 H 1033.51 -5.02446 0.395446 0
M  V30 11195 H 1033.11 -3.52146 1.25972 0
M  V30 11196 H 1035.4 -6.68788 1.08301 0
M  V30 11197 H 1036.34 -6.58492 2.60373 0
M  V30 11198 H 1036.75 -5.50827 1.23489 0
M  V30 11199 N 1036.15 -0.873678 -1.31166 0
M  V30 11200 C 1037.06 -0.335726 -2.32185 0
M  V30 11201 C 1038.07 0.556259 -1.64869 0
M  V30 11202 O 1039.25 0.452087 -1.9626 0
M  V30 11203 C 1036.32 0.450822 -3.43756 0
M  V30 11204 C 1035.38 -0.469565 -4.26724 0
M  V30 11205 C 1034.61 0.279538 -5.32967 0
M  V30 11206 O 1034.83 1.50715 -5.50128 0
M  V30 11207 O 1033.77 -0.36452 -6.00795 0
M  V30 11208 H 1037.59 -1.17314 -2.80127 0
M  V30 11209 H 1035.18 -0.637163 -1.35132 0
M  V30 11210 H 1037.06 0.896582 -4.11752 0
M  V30 11211 H 1035.73 1.26472 -2.9797 0
M  V30 11212 H 1034.64 -0.963902 -3.61469 0
M  V30 11213 H 1035.97 -1.24916 -4.76085 0
M  V30 11214 N 1037.63 1.44308 -0.633487 0
M  V30 11215 C 1038.57 2.32455 0.0821956 0
M  V30 11216 C 1039.57 1.47482 0.833388 0
M  V30 11217 O 1040.77 1.63812 0.746021 0
M  V30 11218 H 1037.15 0.750631 0.045352 0
M  V30 11219 H 1039.12 2.90566 -0.679282 0
M  V30 11220 C 1037.87 3.31512 1.04858 0
M  V30 11221 H 1037.19 3.96908 0.479979 0
M  V30 11222 H 1038.63 3.95865 1.51879 0
M  V30 11223 C 1037.09 2.60615 2.13498 0
M  V30 11224 O 1037.62 2.40682 3.21613 0
M  V30 11225 N 1035.83 2.20315 1.89499 0
M  V30 11226 H 1035.37 2.36726 1.01581 0
M  V30 11227 H 1035.33 1.73205 2.62388 0
M  V30 11228 N 1039.1 0.374177 1.53094 0
M  V30 11229 C 1040.52 -0.103172 1.86415 0
M  V30 11230 C 1040.87 -1.47439 1.29446 0
M  V30 11231 O 1039.99 -2.07333 0.619853 0
M  V30 11232 C 1040.59 -0.193988 3.38244 0
M  V30 11233 C 1039.15 -0.615605 3.71332 0
M  V30 11234 C 1038.29 0.23186 2.76329 0
M  V30 11235 H 1041.24 0.592644 1.47219 0
M  V30 11236 H 1041.26 -1.01597 3.66686 0
M  V30 11237 H 1040.78 0.80414 3.79678 0
M  V30 11238 H 1038.88 -1.62165 3.3546 0
M  V30 11239 H 1038.99 -0.38425 4.77557 0
M  V30 11240 H 1037.35 -0.300579 2.5292 0
M  V30 11241 H 1038.14 1.22769 3.20597 0
M  V30 11242 N 1040.58 -1.57259 0.103575 0
M  V30 11243 C 1041.83 -1.94272 -0.557024 0
M  V30 11244 C 1042.15 -0.986739 -1.68192 0
M  V30 11245 O 1041.42 -0.0402818 -1.95859 0
M  V30 11246 H 1040 -0.717237 -0.208757 0
M  V30 11247 H 1042.66 -1.94167 0.168898 0
M  V30 11248 H 1041.76 -2.96914 -0.961691 0
M  V30 11249 N 1042.06 0.170153 -1.56679 0
M  V30 11250 C 1042.99 1.21285 -1.9953 0
M  V30 11251 C 1043.97 1.46104 -0.871071 0
M  V30 11252 O 1045.16 1.57419 -1.13724 0
M  V30 11253 C 1042.29 2.5515 -2.35618 0
M  V30 11254 C 1041.24 2.44898 -3.51011 0
M  V30 11255 C 1040.57 3.83263 -3.72845 0
M  V30 11256 C 1041.87 1.95271 -4.84424 0
M  V30 11257 H 1043.56 0.856646 -2.86883 0
M  V30 11258 H 1041.11 0.410634 -1.38021 0
M  V30 11259 H 1043.06 3.28299 -2.64193 0
M  V30 11260 H 1041.78 2.92561 -1.45175 0
M  V30 11261 H 1040.44 1.74203 -3.22566 0
M  V30 11262 H 1040.09 4.18069 -2.79691 0
M  V30 11263 H 1039.79 3.77272 -4.50488 0
M  V30 11264 H 1041.31 4.57996 -4.03822 0
M  V30 11265 H 1042.73 2.58195 -5.11867 0
M  V30 11266 H 1041.13 2.00225 -5.65712 0
M  V30 11267 H 1042.2 0.90709 -4.7634 0
M  V30 11268 N 1043.54 1.5137 0.438746 0
M  V30 11269 C 1044.78 1.65173 1.18698 0
M  V30 11270 C 1045.14 0.362753 1.88949 0
M  V30 11271 O 1044.43 -0.641351 1.80547 0
M  V30 11272 C 1044.63 2.79221 2.23093 0
M  V30 11273 C 1044.46 4.19085 1.63088 0
M  V30 11274 C 1043.23 4.85042 1.41642 0
M  V30 11275 C 1045.42 5.02225 1.10789 0
M  V30 11276 N 1043.41 6.09024 0.772198 0
M  V30 11277 C 1044.78 6.17197 0.588854 0
M  V30 11278 C 1046.83 4.87764 0.999516 0
M  V30 11279 C 1045.53 7.19295 -0.0279103 0
M  V30 11280 C 1047.56 5.90068 0.396648 0
M  V30 11281 C 1046.92 7.04311 -0.111855 0
M  V30 11282 H 1043.02 0.658316 0.422071 0
M  V30 11283 H 1045.61 1.88593 0.483808 0
M  V30 11284 H 1043.78 2.57468 2.908 0
M  V30 11285 H 1045.51 2.82213 2.90066 0
M  V30 11286 H 1042.26 4.42886 1.67776 0
M  V30 11287 H 1042.69 6.75383 0.467568 0
M  V30 11288 H 1047.33 3.99695 1.37853 0
M  V30 11289 H 1045.05 8.07013 -0.419056 0
M  V30 11290 H 1048.63 5.80948 0.314715 0
M  V30 11291 H 1047.51 7.82118 -0.571021 0
M  V30 11292 N 1045.02 -0.694098 1.41492 0
M  V30 11293 C 1046.27 -1.4498 1.40227 0
M  V30 11294 C 1046.58 -1.95594 0.0151253 0
M  V30 11295 O 1047.78 -2.71234 -0.120146 0
M  V30 11296 C 1046.24 -2.62171 2.46565 0
M  V30 11297 C 1045.85 -2.18337 3.91194 0
M  V30 11298 C 1047.59 -3.39796 2.54439 0
M  V30 11299 C 1045.5 -3.32495 4.89082 0
M  V30 11300 H 1044.43 -0.544584 0.521483 0
M  V30 11301 H 1047.08 -0.75337 1.67322 0
M  V30 11302 H 1045.46 -3.34089 2.12604 0
M  V30 11303 H 1046.64 -1.53698 4.34412 0
M  V30 11304 H 1044.95 -1.53702 3.86994 0
M  V30 11305 H 1047.55 -4.2478 3.24755 0
M  V30 11306 H 1047.89 -3.85082 1.5817 0
M  V30 11307 H 1048.42 -2.74935 2.87499 0
M  V30 11308 H 1045.16 -2.92219 5.86761 0
M  V30 11309 H 1044.68 -3.95978 4.50512 0
M  V30 11310 H 1046.36 -3.98251 5.09907 0
M  V30 11311 N 1046.49 -1.27344 -0.928501 0
M  V30 11312 C 1047.42 -1.12517 -2.04602 0
M  V30 11313 C 1048.41 -0.0268563 -1.70079 0
M  V30 11314 O 1049.59 -0.201197 -1.93155 0
M  V30 11315 C 1046.72 -0.770749 -3.3864 0
M  V30 11316 C 1045.67 -1.8222 -3.87272 0
M  V30 11317 C 1045 -1.32178 -5.18105 0
M  V30 11318 C 1046.3 -3.22614 -4.10752 0
M  V30 11319 H 1047.99 -2.06 -2.17265 0
M  V30 11320 H 1045.54 -0.991827 -1.04397 0
M  V30 11321 H 1047.49 -0.653843 -4.16297 0
M  V30 11322 H 1046.22 0.19979 -3.25988 0
M  V30 11323 H 1044.88 -1.928 -3.11807 0
M  V30 11324 H 1044.52 -0.340719 -5.01845 0
M  V30 11325 H 1044.22 -2.02474 -5.51614 0
M  V30 11326 H 1045.75 -1.2178 -5.98333 0
M  V30 11327 H 1047.16 -3.1504 -4.78981 0
M  V30 11328 H 1045.56 -3.90614 -4.55566 0
M  V30 11329 H 1046.63 -3.67727 -3.16077 0
M  V30 11330 N 1047.97 1.13488 -1.09353 0
M  V30 11331 C 1049.22 1.84383 -0.827488 0
M  V30 11332 C 1049.54 1.83892 0.648745 0
M  V30 11333 O 1048.81 1.29415 1.47066 0
M  V30 11334 H 1047.39 0.682732 -0.303127 0
M  V30 11335 H 1050.05 1.37477 -1.38152 0
M  V30 11336 H 1049.15 2.88919 -1.18035 0
M  V30 11337 N 1049.45 0.880621 1.30701 0
M  V30 11338 C 1050.69 0.503519 1.98101 0
M  V30 11339 C 1051.06 -0.929075 1.68024 0
M  V30 11340 O 1052.26 -1.41208 2.28722 0
M  V30 11341 C 1050.53 0.765652 3.49102 0
M  V30 11342 S 1052.09 0.490001 4.36056 0
M  V30 11343 H 1048.9 0.187522 0.685825 0
M  V30 11344 H 1051.51 1.13895 1.58897 0
M  V30 11345 H 1050.21 1.80688 3.68484 0
M  V30 11346 H 1049.74 0.117616 3.93224 0
M  V30 11347 H 1051.76 -0.673236 4.91612 0
M  V30 11348 N 1050.93 -1.4397 0.641131 0
M  V30 11349 C 1051.88 -2.2786 -0.079879 0
M  V30 11350 C 1052.86 -1.39227 -0.80651 0
M  V30 11351 O 1054.06 -1.62956 -0.690969 0
M  V30 11352 C 1051.18 -3.26722 -1.05394 0
M  V30 11353 C 1050.27 -4.22842 -0.326411 0
M  V30 11354 N 1050.66 -5.016 0.650464 0
M  V30 11355 C 1048.96 -4.42349 -0.569507 0
M  V30 11356 C 1049.66 -5.71563 1.08121 0
M  V30 11357 N 1048.64 -5.41991 0.417932 0
M  V30 11358 H 1052.44 -2.86163 0.669906 0
M  V30 11359 H 1049.95 -1.55528 0.467433 0
M  V30 11360 H 1051.95 -3.85588 -1.58517 0
M  V30 11361 H 1050.61 -2.69979 -1.80392 0
M  V30 11362 H 1051.62 -5.07581 1.0287 0
M  V30 11363 H 1048.3 -3.96693 -1.30159 0
M  V30 11364 H 1049.69 -6.44805 1.88883 0
M  V30 11365 N 1052.41 -0.382291 -1.52893 0
M  V30 11366 C 1053.36 0.471187 -2.27778 0
M  V30 11367 C 1054.35 1.0691 -1.31402 0
M  V30 11368 O 1055.56 1.01038 -1.48967 0
M  V30 11369 H 1051.93 0.170696 -0.732371 0
M  V30 11370 H 1053.9 -0.181954 -2.97845 0
M  V30 11371 C 1052.65 1.59012 -3.09209 0
M  V30 11372 H 1051.97 1.13935 -3.83222 0
M  V30 11373 H 1053.41 2.16167 -3.64757 0
M  V30 11374 C 1051.87 2.54212 -2.21084 0
M  V30 11375 O 1052.4 3.57447 -1.83288 0
M  V30 11376 N 1050.61 2.23789 -1.85383 0
M  V30 11377 H 1050.16 1.39872 -2.16318 0
M  V30 11378 H 1050.11 2.87737 -1.26708 0
M  V30 11379 N 1053.89 1.57202 -0.111913 0
M  V30 11380 C 1055.11 1.99723 0.559054 0
M  V30 11381 C 1055.54 0.990968 1.59879 0
M  V30 11382 O 1054.89 -0.038311 1.8126 0
M  V30 11383 C 1054.94 3.41151 1.16826 0
M  V30 11384 O 1054.05 3.43383 2.2839 0
M  V30 11385 H 1053.39 0.649004 0.140319 0
M  V30 11386 H 1055.92 2.03637 -0.198295 0
M  V30 11387 H 1055.93 3.79208 1.50551 0
M  V30 11388 H 1054.6 4.13907 0.406637 0
M  V30 11389 H 1053.18 3.17138 1.96158 0
M  V30 11390 N 1055.36 -0.161842 1.56767 0
M  V30 11391 C 1056.64 -0.904754 1.73417 0
M  V30 11392 C 1057.02 -1.99987 0.675908 0
M  V30 11393 O 1056.37 -2.26419 -0.307712 0
M  V30 11394 C 1056.58 -1.46082 3.16956 0
M  V30 11395 C 1057.93 -1.93004 3.78199 0
M  V30 11396 O 1058.95 -1.55856 3.20293 0
M  V30 11397 O 1057.81 -2.61465 4.79894 0
M  V30 11398 H 1054.9 -0.426518 0.708528 0
M  V30 11399 H 1057.45 -0.148928 1.69045 0
M  V30 11400 H 1056.22 -0.673087 3.85468 0
M  V30 11401 H 1055.84 -2.28056 3.25693 0
M  V30 11402 N 1056.84 -1.516 -0.430713 0
M  V30 11403 C 1058.09 -1.64596 -1.17959 0
M  V30 11404 C 1058.42 -0.365382 -1.91037 0
M  V30 11405 O 1057.67 0.650826 -1.84561 0
M  V30 11406 C 1057.97 -2.804 -2.21609 0
M  V30 11407 C 1057.64 -4.19431 -1.65495 0
M  V30 11408 C 1056.3 -4.57252 -1.49915 0
M  V30 11409 C 1058.65 -5.0616 -1.24304 0
M  V30 11410 C 1055.98 -5.79501 -0.916276 0
M  V30 11411 C 1058.33 -6.28995 -0.674437 0
M  V30 11412 C 1056.99 -6.65582 -0.505591 0
M  V30 11413 H 1056.26 -0.602301 -0.431642 0
M  V30 11414 H 1058.91 -1.8565 -0.469726 0
M  V30 11415 H 1057.22 -2.53595 -2.98658 0
M  V30 11416 H 1058.91 -2.87654 -2.79385 0
M  V30 11417 H 1055.5 -3.89615 -1.78599 0
M  V30 11418 H 1059.69 -4.77541 -1.35159 0
M  V30 11419 H 1054.94 -6.0649 -0.77328 0
M  V30 11420 H 1059.12 -6.95536 -0.346779 0
M  V30 11421 H 1056.74 -7.60182 -0.0518188 0
M  V30 11422 N 1058.32 0.686584 -1.41858 0
M  V30 11423 C 1059.74 0.998283 -1.24525 0
M  V30 11424 C 1059.94 2.01006 -0.141007 0
M  V30 11425 O 1058.99 2.47667 0.491648 0
M  V30 11426 C 1060.3 1.51432 -2.59786 0
M  V30 11427 C 1061.85 1.6327 -2.67043 0
M  V30 11428 C 1062.33 2.18274 -4.02642 0
M  V30 11429 N 1063.82 2.25622 -4.04535 0
M  V30 11430 C 1064.55 2.69229 -5.06264 0
M  V30 11431 N 1064.05 3.12375 -6.1838 0
M  V30 11432 N 1065.84 2.68873 -4.93623 0
M  V30 11433 H 1057.99 0.0164825 -2.12394 0
M  V30 11434 H 1060.26 0.0698613 -0.945422 0
M  V30 11435 H 1059.96 0.845426 -3.41388 0
M  V30 11436 H 1059.84 2.49502 -2.82894 0
M  V30 11437 H 1062.22 2.29269 -1.85794 0
M  V30 11438 H 1062.3 0.637221 -2.47736 0
M  V30 11439 H 1061.95 1.52887 -4.84343 0
M  V30 11440 H 1061.88 3.18591 -4.19294 0
M  V30 11441 H 1064.37 1.95186 -3.23591 0
M  V30 11442 H 1064.68 3.44301 -6.91864 0
M  V30 11443 H 1063.03 3.10262 -6.21902 0
M  V30 11444 H 1066.22 2.34521 -4.05114 0
M  V30 11445 H 1066.39 3.02539 -5.7304 0
M  V30 11446 N 1059.8 1.27835 0.921735 0
M  V30 11447 C 1060.75 1.1092 2.04449 0
M  V30 11448 C 1061.74 0.0306469 1.69372 0
M  V30 11449 O 1062.95 0.188818 1.79007 0
M  V30 11450 H 1059.32 0.341973 0.669745 0
M  V30 11451 H 1061.29 2.06026 2.1586 0
M  V30 11452 C 1060.04 0.779443 3.38851 0
M  V30 11453 H 1059.36 1.60131 3.66331 0
M  V30 11454 H 1060.8 0.700999 4.18165 0
M  V30 11455 C 1059.26 -0.51647 3.32918 0
M  V30 11456 O 1059.79 -1.54914 3.70627 0
M  V30 11457 N 1058 -0.514276 2.86013 0
M  V30 11458 H 1057.55 0.32651 2.55522 0
M  V30 11459 H 1057.5 -1.38141 2.82426 0
M  V30 11460 N 1061.28 -1.12907 1.09954 0
M  V30 11461 C 1062.69 -1.363 0.830326 0
M  V30 11462 C 1062.89 -1.93772 -0.552694 0
M  V30 11463 O 1061.95 -2.1607 -1.30652 0
M  V30 11464 C 1063.26 -2.30925 1.92598 0
M  V30 11465 C 1064.81 -2.44528 1.95385 0
M  V30 11466 C 1065.28 -3.42464 3.0411 0
M  V30 11467 N 1066.77 -3.50018 3.03384 0
M  V30 11468 C 1067.51 -4.25693 3.84152 0
M  V30 11469 N 1067.01 -5.04476 4.74843 0
M  V30 11470 N 1068.8 -4.21049 3.7239 0
M  V30 11471 H 1060.95 -0.739571 1.99108 0
M  V30 11472 H 1063.21 -0.387983 0.86497 0
M  V30 11473 H 1062.92 -1.95861 2.92115 0
M  V30 11474 H 1062.79 -3.30997 1.80889 0
M  V30 11475 H 1065.18 -2.78875 0.965037 0
M  V30 11476 H 1065.26 -1.44361 2.11172 0
M  V30 11477 H 1064.9 -3.08847 4.03207 0
M  V30 11478 H 1064.83 -4.42448 2.85565 0
M  V30 11479 H 1067.33 -2.93809 2.37665 0
M  V30 11480 H 1067.64 -5.59541 5.33042 0
M  V30 11481 H 1065.98 -5.0369 4.78875 0
M  V30 11482 H 1069.17 -3.5858 3.00895 0
M  V30 11483 H 1069.35 -4.79771 4.35572 0
M  V30 11484 N 1062.75 -0.88754 -1.30232 0
M  V30 11485 C 1064 -0.506277 -1.95656 0
M  V30 11486 C 1064.32 0.948191 -1.70395 0
M  V30 11487 O 1063.59 1.66701 -1.02895 0
M  V30 11488 H 1062.17 -0.184235 -0.723924 0
M  V30 11489 H 1064.83 -1.13118 -1.58715 0
M  V30 11490 H 1063.93 -0.678673 -3.04632 0
M  V30 11491 N 1064.23 1.43628 -0.648757 0
M  V30 11492 C 1065.17 2.28001 0.0952198 0
M  V30 11493 C 1066.14 1.39569 0.834225 0
M  V30 11494 O 1067.33 1.69011 0.834711 0
M  V30 11495 C 1064.45 3.18886 1.14145 0
M  V30 11496 C 1063.5 4.23547 0.500996 0
M  V30 11497 S 1064.33 5.30609 -0.722118 0
M  V30 11498 C 1065.49 6.25062 0.323687 0
M  V30 11499 H 1065.72 2.90752 -0.620511 0
M  V30 11500 H 1063.26 1.48073 -0.437457 0
M  V30 11501 H 1065.21 3.71795 1.74008 0
M  V30 11502 H 1063.87 2.55322 1.82947 0
M  V30 11503 H 1063.07 4.87224 1.28954 0
M  V30 11504 H 1062.67 3.73993 -0.0234176 0
M  V30 11505 H 1064.96 6.66946 1.19118 0
M  V30 11506 H 1065.9 7.07554 -0.277939 0
M  V30 11507 H 1066.31 5.60658 0.657493 0
M  V30 11508 N 1065.71 0.390394 1.52688 0
M  V30 11509 C 1066.94 -0.191485 2.06012 0
M  V30 11510 C 1067.35 -1.40422 1.26202 0
M  V30 11511 O 1066.71 -1.79866 0.308963 0
M  V30 11512 C 1066.76 -0.560521 3.57128 0
M  V30 11513 O 1066.48 0.60404 4.33916 0
M  V30 11514 C 1067.98 -1.19814 4.26801 0
M  V30 11515 H 1065.2 -0.0286311 0.670389 0
M  V30 11516 H 1067.75 0.555939 1.96798 0
M  V30 11517 H 1065.9 -1.25784 3.66411 0
M  V30 11518 H 1066.32 0.300467 5.23639 0
M  V30 11519 H 1067.79 -1.40672 5.33775 0
M  V30 11520 H 1068.27 -2.16582 3.82085 0
M  V30 11521 H 1068.87 -0.541558 4.21838 0
M  V30 11522 N 1067.19 -1.57141 0.120249 0
M  V30 11523 C 1068.15 -2.14213 -0.815185 0
M  V30 11524 C 1069.15 -1.07731 -1.19376 0
M  V30 11525 O 1070.34 -1.33502 -1.11906 0
M  V30 11526 C 1067.47 -2.68339 -2.10255 0
M  V30 11527 H 1068.67 -2.98197 -0.319166 0
M  V30 11528 H 1066.22 -1.55767 -0.128997 0
M  V30 11529 H 1066.95 -1.87946 -2.64285 0
M  V30 11530 H 1066.74 -3.46216 -1.84057 0
M  V30 11531 H 1068.23 -3.124 -2.77121 0
M  V30 11532 N 1068.67 0.153526 -1.5685 0
M  V30 11533 C 1069.6 1.19162 -2.00805 0
M  V30 11534 C 1070.58 1.45172 -0.886518 0
M  V30 11535 O 1071.76 1.56203 -1.15387 0
M  V30 11536 C 1068.89 2.52637 -2.38311 0
M  V30 11537 C 1067.85 2.41161 -3.53589 0
M  V30 11538 C 1067.17 3.79287 -3.76889 0
M  V30 11539 C 1068.47 1.90122 -4.86468 0
M  V30 11540 H 1070.17 0.82617 -2.87776 0
M  V30 11541 H 1067.71 0.395972 -1.38449 0
M  V30 11542 H 1069.67 3.25478 -2.6766 0
M  V30 11543 H 1068.39 2.91005 -1.4827 0
M  V30 11544 H 1067.05 1.70772 -3.24395 0
M  V30 11545 H 1066.7 4.15079 -2.84109 0
M  V30 11546 H 1066.4 3.72472 -4.54465 0
M  V30 11547 H 1067.92 4.53687 -4.08657 0
M  V30 11548 H 1069.33 2.52752 -5.14577 0
M  V30 11549 H 1067.73 1.94214 -5.67804 0
M  V30 11550 H 1068.8 0.856517 -4.77275 0
M  V30 11551 N 1070.14 1.51827 0.422667 0
M  V30 11552 C 1071.07 1.77152 1.52117 0
M  V30 11553 C 1072.06 0.621895 1.58324 0
M  V30 11554 O 1073.24 0.866118 1.73816 0
M  V30 11555 C 1070.37 1.90991 2.90068 0
M  V30 11556 C 1069.32 3.06516 2.98717 0
M  V30 11557 C 1068.65 3.05559 4.38791 0
M  V30 11558 C 1069.95 4.46223 2.71445 0
M  V30 11559 H 1071.64 2.69135 1.31175 0
M  V30 11560 H 1069.19 1.29507 0.629607 0
M  V30 11561 H 1071.14 2.07291 3.6689 0
M  V30 11562 H 1069.87 0.956688 3.12274 0
M  V30 11563 H 1068.53 2.89945 2.24338 0
M  V30 11564 H 1068.17 2.07985 4.57986 0
M  V30 11565 H 1067.87 3.83144 4.45505 0
M  V30 11566 H 1069.4 3.23971 5.17566 0
M  V30 11567 H 1070.81 4.63069 3.37994 0
M  V30 11568 H 1069.21 5.25623 2.89552 0
M  V30 11569 H 1070.28 4.5525 1.6696 0
M  V30 11570 N 1071.62 -0.679052 1.4222 0
M  V30 11571 C 1072.57 -1.79269 1.45366 0
M  V30 11572 C 1073.54 -1.63255 0.306089 0
M  V30 11573 O 1074.72 -1.8387 0.509548 0
M  V30 11574 C 1071.86 -3.17272 1.35766 0
M  V30 11575 C 1070.98 -3.44603 2.60525 0
M  V30 11576 C 1070.11 -4.7231 2.43098 0
M  V30 11577 C 1069.15 -4.92661 3.63251 0
M  V30 11578 N 1068.29 -6.11606 3.44794 0
M  V30 11579 H 1073.13 -1.75916 2.40536 0
M  V30 11580 H 1070.67 -0.858836 1.19425 0
M  V30 11581 H 1072.62 -3.97015 1.282 0
M  V30 11582 H 1071.25 -3.1976 0.441939 0
M  V30 11583 H 1070.31 -2.59144 2.78475 0
M  V30 11584 H 1071.62 -3.55536 3.49851 0
M  V30 11585 H 1070.77 -5.60136 2.33093 0
M  V30 11586 H 1069.51 -4.63652 1.51255 0
M  V30 11587 H 1068.52 -4.03278 3.73693 0
M  V30 11588 H 1069.74 -5.03167 4.5607 0
M  V30 11589 H 1067.69 -6.04129 2.55663 0
M  V30 11590 H 1067.6 -6.23381 4.27705 0
M  V30 11591 H 1068.87 -7.02122 3.38592 0
M  V30 11592 N 1073.1 -1.28322 -0.914942 0
M  V30 11593 C 1074.35 -1.15578 -1.66642 0
M  V30 11594 C 1074.68 0.295209 -1.91943 0
M  V30 11595 O 1073.95 1.21482 -1.51896 0
M  V30 11596 C 1074.24 -1.9535 -3.02507 0
M  V30 11597 C 1074.09 -3.48504 -2.84367 0
M  V30 11598 C 1075.41 -1.76798 -4.03027 0
M  V30 11599 H 1072.53 -0.421234 -0.604757 0
M  V30 11600 H 1075.17 -1.57625 -1.06087 0
M  V30 11601 H 1073.32 -1.59619 -3.54195 0
M  V30 11602 H 1074.99 -3.94135 -2.39699 0
M  V30 11603 H 1073.24 -3.74198 -2.1945 0
M  V30 11604 H 1073.91 -3.99576 -3.80845 0
M  V30 11605 H 1076.38 -2.07977 -3.60395 0
M  V30 11606 H 1075.26 -2.34987 -4.96057 0
M  V30 11607 H 1075.52 -0.719162 -4.36211 0
M  V30 11608 N 1074.58 1.12322 -1.10551 0
M  V30 11609 C 1075.8 1.8822 -0.871093 0
M  V30 11610 C 1076.23 1.7916 0.573005 0
M  V30 11611 O 1075.59 1.14738 1.40374 0
M  V30 11612 C 1075.63 3.35349 -1.32565 0
M  V30 11613 O 1074.74 4.09461 -0.49145 0
M  V30 11614 H 1074.08 0.584787 -0.314516 0
M  V30 11615 H 1076.61 1.42039 -1.47262 0
M  V30 11616 H 1076.62 3.86189 -1.31612 0
M  V30 11617 H 1075.29 3.4126 -2.37728 0
M  V30 11618 H 1073.87 3.68575 -0.566294 0
M  V30 11619 N 1076.06 0.894434 1.2976 0
M  V30 11620 C 1077.28 0.5322 2.00455 0
M  V30 11621 C 1077.71 -0.874427 1.66539 0
M  V30 11622 O 1077.06 -1.58113 0.887129 0
M  V30 11623 C 1077.11 0.725264 3.53231 0
M  V30 11624 O 1076.22 -0.224612 4.11788 0
M  V30 11625 H 1075.56 0.208562 0.630395 0
M  V30 11626 H 1078.09 1.20458 1.65382 0
M  V30 11627 H 1078.1 0.627889 4.0314 0
M  V30 11628 H 1076.77 1.75079 3.77253 0
M  V30 11629 H 1075.35 -0.0801361 3.72814 0
M  V30 11630 N 1077.53 -1.43282 0.656365 0
M  V30 11631 C 1078.77 -2.03652 0.174681 0
M  V30 11632 C 1079.14 -1.5068 -1.18994 0
M  V30 11633 O 1080.34 -2.02716 -1.76521 0
M  V30 11634 C 1078.61 -3.56906 0.18778 0
M  V30 11635 S 1080.17 -4.3822 -0.225599 0
M  V30 11636 H 1076.99 -0.70719 0.0735029 0
M  V30 11637 H 1079.59 -1.75303 0.865403 0
M  V30 11638 H 1078.29 -3.92961 1.18363 0
M  V30 11639 H 1077.82 -3.89903 -0.523378 0
M  V30 11640 H 1079.84 -4.74121 -1.46369 0
M  V30 11641 N 1079.01 -0.398486 -1.52479 0
M  V30 11642 C 1080.29 0.238776 -1.94137 0
M  V30 11643 C 1080.67 1.63558 -1.33462 0
M  V30 11644 O 1080.02 2.22821 -0.506272 0
M  V30 11645 C 1080.23 0.255863 -3.48061 0
M  V30 11646 C 1081.58 0.480376 -4.21874 0
M  V30 11647 O 1082.6 0.335679 -3.54615 0
M  V30 11648 O 1081.46 0.764654 -5.41124 0
M  V30 11649 H 1078.55 0.150806 -0.813134 0
M  V30 11650 H 1081.1 -0.453659 -1.63524 0
M  V30 11651 H 1079.87 -0.722171 -3.84578 0
M  V30 11652 H 1079.49 0.99284 -3.85004 0
M  V30 11653 N 1080.49 1.57075 -0.12858 0
M  V30 11654 C 1081.44 2.15816 0.818064 0
M  V30 11655 C 1082.41 1.08581 1.25696 0
M  V30 11656 O 1083.59 1.36535 1.33277 0
M  V30 11657 C 1080.73 2.76943 2.05905 0
M  V30 11658 C 1079.85 3.98514 1.66764 0
M  V30 11659 C 1078.98 4.47698 2.85902 0
M  V30 11660 C 1078.02 5.61778 2.43047 0
M  V30 11661 N 1077.16 6.05662 3.5513 0
M  V30 11662 H 1082 2.9638 0.310318 0
M  V30 11663 H 1079.53 1.46418 0.141472 0
M  V30 11664 H 1081.49 3.10519 2.78629 0
M  V30 11665 H 1080.12 1.99053 2.54122 0
M  V30 11666 H 1079.17 3.71038 0.838766 0
M  V30 11667 H 1080.49 4.81215 1.31277 0
M  V30 11668 H 1079.64 4.83233 3.66839 0
M  V30 11669 H 1078.38 3.63967 3.24622 0
M  V30 11670 H 1077.38 5.25838 1.60544 0
M  V30 11671 H 1078.61 6.47282 2.05433 0
M  V30 11672 H 1076.56 5.2487 3.93506 0
M  V30 11673 H 1076.47 6.83242 3.23598 0
M  V30 11674 H 1077.74 6.45838 4.36479 0
M  V30 11675 N 1081.97 -0.145205 1.5693 0
M  V30 11676 C 1082.92 -1.19841 1.99351 0
M  V30 11677 C 1083.91 -1.44371 0.886197 0
M  V30 11678 O 1085.12 -1.44642 1.07138 0
M  V30 11679 H 1081.49 -0.403437 0.63462 0
M  V30 11680 H 1083.46 -0.813932 2.87085 0
M  V30 11681 C 1082.21 -2.52377 2.39167 0
M  V30 11682 H 1081.54 -2.34332 3.23927 0
M  V30 11683 H 1082.98 -3.24694 2.72671 0
M  V30 11684 C 1081.43 -3.1305 1.24503 0
M  V30 11685 O 1081.96 -3.97962 0.546739 0
M  V30 11686 N 1080.17 -2.72528 1.00882 0
M  V30 11687 H 1079.72 -2.03576 1.57843 0
M  V30 11688 H 1079.68 -3.13456 0.24351 0
M  V30 11689 N 1083.45 -1.52049 -0.414609 0
M  V30 11690 C 1084.68 -1.69679 -1.18392 0
M  V30 11691 C 1085.09 -0.403881 -1.84429 0
M  V30 11692 O 1084.45 0.619636 -1.71659 0
M  V30 11693 C 1084.5 -2.82855 -2.25112 0
M  V30 11694 O 1084.22 -4.07138 -1.61772 0
M  V30 11695 C 1085.72 -3.11948 -3.14965 0
M  V30 11696 H 1082.94 -0.56879 -0.355977 0
M  V30 11697 H 1085.48 -1.9858 -0.488505 0
M  V30 11698 H 1083.64 -2.56488 -2.90332 0
M  V30 11699 H 1084.05 -4.70163 -2.32479 0
M  V30 11700 H 1085.53 -3.94665 -3.85932 0
M  V30 11701 H 1086 -2.25276 -3.77024 0
M  V30 11702 H 1086.61 -3.40059 -2.55421 0
M  V30 11703 N 1084.93 0.6715 -1.42579 0
M  V30 11704 C 1086.17 1.42871 -1.42941 0
M  V30 11705 C 1086.49 1.94941 -0.0480483 0
M  V30 11706 O 1085.76 1.73275 0.913921 0
M  V30 11707 H 1084.34 0.530189 -0.526221 0
M  V30 11708 H 1087.01 0.793219 -1.78028 0
M  V30 11709 H 1086.1 2.2801 -2.13114 0
M  V30 11710 N 1086.4 1.28806 0.908124 0
M  V30 11711 C 1087.68 1.06981 1.63751 0
M  V30 11712 C 1088.06 -0.388936 2.07486 0
M  V30 11713 O 1087.41 -1.37611 1.82415 0
M  V30 11714 C 1087.62 2.04962 2.82474 0
M  V30 11715 C 1088.97 2.35418 3.5336 0
M  V30 11716 O 1089.99 2.03091 2.92631 0
M  V30 11717 O 1088.85 2.90617 4.62822 0
M  V30 11718 H 1085.94 0.409267 0.71863 0
M  V30 11719 H 1088.49 1.40146 0.956934 0
M  V30 11720 H 1087.26 3.03254 2.47291 0
M  V30 11721 H 1086.88 1.72476 3.58242 0
M  V30 11722 N 1087.88 -1.11734 1.11145 0
M  V30 11723 C 1089.11 -1.86943 0.879534 0
M  V30 11724 C 1089.52 -1.80283 -0.574007 0
M  V30 11725 O 1088.86 -1.17998 -1.40791 0
M  V30 11726 C 1088.92 -3.36738 1.25887 0
M  V30 11727 C 1088.59 -3.67169 2.72095 0
M  V30 11728 C 1089.59 -3.6491 3.7032 0
M  V30 11729 C 1087.27 -3.96272 3.08665 0
M  V30 11730 C 1089.26 -3.91325 5.03134 0
M  V30 11731 C 1086.95 -4.22345 4.41665 0
M  V30 11732 C 1087.95 -4.19859 5.38709 0
M  V30 11733 O 1087.64 -4.4528 6.69314 0
M  V30 11734 H 1087.37 -0.598117 0.315011 0
M  V30 11735 H 1089.92 -1.42253 1.48166 0
M  V30 11736 H 1088.15 -3.82019 0.599873 0
M  V30 11737 H 1089.84 -3.93306 1.00325 0
M  V30 11738 H 1090.61 -3.42481 3.43412 0
M  V30 11739 H 1086.49 -3.97344 2.33749 0
M  V30 11740 H 1090.03 -3.893 5.78871 0
M  V30 11741 H 1085.93 -4.4425 4.68308 0
M  V30 11742 H 1086.7 -4.62863 6.75056 0
M  V30 11743 N 1089.36 -0.901303 -1.29284 0
M  V30 11744 C 1090.59 -0.542723 -1.99344 0
M  V30 11745 C 1091 0.877357 -1.67628 0
M  V30 11746 O 1090.34 1.59088 -0.918515 0
M  V30 11747 C 1090.4 -0.657088 -3.53444 0
M  V30 11748 C 1090.07 -2.04444 -4.0872 0
M  V30 11749 C 1091.06 -3.01577 -4.23494 0
M  V30 11750 C 1088.75 -2.35425 -4.43712 0
M  V30 11751 C 1090.74 -4.27816 -4.72496 0
M  V30 11752 C 1088.43 -3.61906 -4.9241 0
M  V30 11753 C 1089.43 -4.57916 -5.06757 0
M  V30 11754 O 1089.12 -5.8215 -5.54397 0
M  V30 11755 H 1088.85 -0.206742 -0.64361 0
M  V30 11756 H 1091.4 -1.21311 -1.65749 0
M  V30 11757 H 1089.63 0.0703305 -3.86636 0
M  V30 11758 H 1091.32 -0.307425 -4.04734 0
M  V30 11759 H 1092.09 -2.78957 -3.96747 0
M  V30 11760 H 1087.97 -1.61454 -4.31803 0
M  V30 11761 H 1091.51 -5.0276 -4.83609 0
M  V30 11762 H 1087.41 -3.84356 -5.18595 0
M  V30 11763 H 1088.17 -5.84762 -5.72709 0
M  V30 11764 N 1090.84 1.42931 -0.663954 0
M  V30 11765 C 1091.75 2.3459 0.0214234 0
M  V30 11766 C 1092.76 1.54487 0.800611 0
M  V30 11767 O 1093.94 1.87098 0.74541 0
M  V30 11768 C 1091 3.32896 0.968556 0
M  V30 11769 C 1090.07 4.28901 0.185108 0
M  V30 11770 C 1089.3 5.2251 1.08713 0
M  V30 11771 O 1089.52 5.20795 2.32655 0
M  V30 11772 O 1088.46 5.99347 0.553758 0
M  V30 11773 H 1092.28 2.94714 -0.733308 0
M  V30 11774 H 1089.87 1.43252 -0.424159 0
M  V30 11775 H 1091.75 3.93318 1.51257 0
M  V30 11776 H 1090.42 2.75261 1.70333 0
M  V30 11777 H 1089.33 3.71926 -0.402752 0
M  V30 11778 H 1090.66 4.89547 -0.510319 0
M  V30 11779 N 1092.32 0.406567 1.52266 0
M  V30 11780 C 1093.59 -0.228477 1.94261 0
M  V30 11781 C 1093.97 -1.62848 1.34328 0
M  V30 11782 O 1093.32 -2.22549 0.518082 0
M  V30 11783 C 1093.53 -0.237401 3.48192 0
M  V30 11784 C 1094.88 -0.457997 4.22123 0
M  V30 11785 O 1095.9 -0.316868 3.54788 0
M  V30 11786 O 1094.76 -0.735946 5.41522 0
M  V30 11787 H 1091.86 -0.146492 0.813922 0
M  V30 11788 H 1094.4 0.462325 1.63281 0
M  V30 11789 H 1093.17 0.742556 3.8419 0
M  V30 11790 H 1092.8 -0.972408 3.85526 0
M  V30 11791 N 1093.79 -1.57004 0.136909 0
M  V30 11792 C 1095.02 -2.00587 -0.527209 0
M  V30 11793 C 1095.44 -1.01628 -1.58283 0
M  V30 11794 O 1094.8 0.00946934 -1.81298 0
M  V30 11795 C 1094.85 -3.42967 -1.11384 0
M  V30 11796 O 1093.95 -3.46973 -2.22898 0
M  V30 11797 H 1093.3 -0.651155 -0.129976 0
M  V30 11798 H 1095.83 -2.03296 0.230667 0
M  V30 11799 H 1095.84 -3.81555 -1.44499 0
M  V30 11800 H 1094.51 -4.14502 -0.340736 0
M  V30 11801 H 1093.09 -3.20219 -1.91087 0
M  V30 11802 N 1095.27 0.136881 -1.57004 0
M  V30 11803 C 1096.5 0.861186 -1.87796 0
M  V30 11804 C 1096.91 1.74788 -0.724272 0
M  V30 11805 O 1096.25 1.80984 0.31471 0
M  V30 11806 C 1096.32 1.76115 -3.13407 0
M  V30 11807 C 1095.98 1.05059 -4.4476 0
M  V30 11808 C 1096.98 0.399736 -5.18361 0
M  V30 11809 C 1094.66 1.03709 -4.91477 0
M  V30 11810 C 1096.66 -0.255127 -6.36889 0
M  V30 11811 C 1094.34 0.378414 -6.09927 0
M  V30 11812 C 1095.34 -0.266555 -6.8248 0
M  V30 11813 O 1095.03 -0.914757 -7.98679 0
M  V30 11814 H 1094.76 0.253855 -0.626525 0
M  V30 11815 H 1097.31 0.131291 -2.0498 0
M  V30 11816 H 1095.54 2.53224 -2.92257 0
M  V30 11817 H 1097.23 2.3583 -3.30362 0
M  V30 11818 H 1098 0.401909 -4.83332 0
M  V30 11819 H 1093.88 1.52852 -4.34922 0
M  V30 11820 H 1097.42 -0.759135 -6.93457 0
M  V30 11821 H 1093.32 0.373942 -6.44416 0
M  V30 11822 H 1094.09 -0.817437 -8.14408 0
M  V30 11823 N 1096.75 1.52266 0.40654 0
M  V30 11824 C 1097.66 1.78688 1.52012 0
M  V30 11825 C 1098.68 0.6726 1.60475 0
M  V30 11826 O 1099.85 0.95829 1.77141 0
M  V30 11827 C 1096.92 1.93434 2.87722 0
M  V30 11828 C 1095.98 3.17341 2.89125 0
M  V30 11829 C 1095.21 3.31374 4.18362 0
M  V30 11830 O 1095.43 2.50613 5.12396 0
M  V30 11831 O 1094.37 4.24539 4.26674 0
M  V30 11832 H 1098.19 2.73213 1.3262 0
M  V30 11833 H 1095.78 1.37142 0.592653 0
M  V30 11834 H 1097.66 2.04941 3.68208 0
M  V30 11835 H 1096.34 1.02099 3.07177 0
M  V30 11836 H 1095.24 3.1129 2.07483 0
M  V30 11837 H 1096.58 4.08466 2.7462 0
M  V30 11838 N 1098.23 -0.663929 1.42933 0
M  V30 11839 C 1099.51 -1.42054 1.34462 0
M  V30 11840 C 1099.89 -2.11096 -0.0127801 0
M  V30 11841 O 1099.23 -2.04027 -1.02884 0
M  V30 11842 C 1099.44 -2.41406 2.5204 0
M  V30 11843 C 1100.79 -3.05726 2.94647 0
M  V30 11844 O 1101.82 -2.51733 2.52009 0
M  V30 11845 O 1100.67 -4.03593 3.68477 0
M  V30 11846 H 1097.77 -0.634149 0.530834 0
M  V30 11847 H 1100.31 -0.691738 1.54962 0
M  V30 11848 H 1099.09 -1.89263 3.42484 0
M  V30 11849 H 1098.71 -3.21752 2.33584 0
M  V30 11850 N 1099.71 -1.29285 -0.901281 0
M  V30 11851 C 1100.96 -1.16538 -1.64626 0
M  V30 11852 C 1101.27 0.282623 -1.93547 0
M  V30 11853 O 1102.47 0.531396 -2.66249 0
M  V30 11854 C 1100.93 -2.03809 -2.96631 0
M  V30 11855 C 1100.54 -3.53423 -2.75311 0
M  V30 11856 C 1102.28 -1.99782 -3.7455 0
M  V30 11857 C 1100.19 -4.32804 -4.03032 0
M  V30 11858 H 1099.12 -0.432561 -0.617581 0
M  V30 11859 H 1101.77 -1.53912 -0.999159 0
M  V30 11860 H 1100.15 -1.59302 -3.62545 0
M  V30 11861 H 1101.33 -4.05971 -2.18 0
M  V30 11862 H 1099.64 -3.59106 -2.10789 0
M  V30 11863 H 1102.24 -2.5635 -4.69243 0
M  V30 11864 H 1102.58 -0.97743 -4.04663 0
M  V30 11865 H 1103.11 -2.42324 -3.15474 0
M  V30 11866 H 1099.85 -5.35473 -3.78086 0
M  V30 11867 H 1099.37 -3.85025 -4.59909 0
M  V30 11868 H 1101.05 -4.43383 -4.71191 0
M  V30 11869 N 1101.18 1.11143 -1.11736 0
M  V30 11870 C 1102.41 1.87285 -0.891007 0
M  V30 11871 C 1102.83 1.79758 0.553971 0
M  V30 11872 O 1102.19 1.16221 1.39149 0
M  V30 11873 C 1102.24 3.33924 -1.36114 0
M  V30 11874 O 1101.34 4.08917 -0.534851 0
M  V30 11875 H 1100.69 0.581418 -0.320701 0
M  V30 11876 H 1103.22 1.40469 -1.4876 0
M  V30 11877 H 1103.23 3.84772 -1.35701 0
M  V30 11878 H 1101.9 3.38719 -2.41334 0
M  V30 11879 H 1100.48 3.67954 -0.605355 0
M  V30 11880 N 1102.66 0.908147 1.28804 0
M  V30 11881 C 1103.63 0.397058 2.25735 0
M  V30 11882 C 1104.63 -0.473483 1.53671 0
M  V30 11883 O 1105.82 -0.277335 1.71978 0
M  V30 11884 C 1102.95 -0.431392 3.38159 0
M  V30 11885 H 1104.14 1.25323 2.72459 0
M  V30 11886 H 1101.69 0.687041 1.4039 0
M  V30 11887 H 1102.43 -1.3072 2.96787 0
M  V30 11888 H 1102.21 0.192502 3.91627 0
M  V30 11889 H 1103.7 -0.78 4.10251 0
M  V30 11890 N 1104.14 -1.42577 0.671525 0
M  V30 11891 C 1105.37 -2.05625 0.20044 0
M  V30 11892 C 1105.78 -1.50524 -1.14626 0
M  V30 11893 O 1105.12 -0.638468 -1.72248 0
M  V30 11894 C 1105.18 -3.59459 0.0545385 0
M  V30 11895 C 1104.85 -4.37236 1.32943 0
M  V30 11896 C 1105.84 -4.68104 2.26219 0
M  V30 11897 C 1103.53 -4.76932 1.57612 0
M  V30 11898 C 1105.52 -5.37599 3.42442 0
M  V30 11899 C 1103.21 -5.46167 2.74125 0
M  V30 11900 C 1104.21 -5.76425 3.66364 0
M  V30 11901 O 1103.9 -6.44242 4.8084 0
M  V30 11902 H 1103.63 -0.66918 0.0957843 0
M  V30 11903 H 1106.18 -1.83759 0.917701 0
M  V30 11904 H 1104.41 -3.79971 -0.718271 0
M  V30 11905 H 1106.1 -4.04152 -0.376251 0
M  V30 11906 H 1106.87 -4.37939 2.08409 0
M  V30 11907 H 1102.75 -4.52776 0.866887 0
M  V30 11908 H 1106.29 -5.61133 4.14458 0
M  V30 11909 H 1102.19 -5.75749 2.91861 0
M  V30 11910 H 1102.96 -6.62732 4.80342 0
M  V30 11911 N 1105.62 -0.414636 -1.52048 0
M  V30 11912 C 1106.55 0.399119 -2.30064 0
M  V30 11913 C 1107.53 1.04126 -1.34506 0
M  V30 11914 O 1108.71 1.04923 -1.63416 0
M  V30 11915 C 1105.84 1.51305 -3.12608 0
M  V30 11916 C 1104.8 0.995621 -4.16259 0
M  V30 11917 C 1104.12 2.20357 -4.87183 0
M  V30 11918 C 1105.42 0.0458178 -5.2228 0
M  V30 11919 H 1107.12 -0.251879 -2.98339 0
M  V30 11920 H 1104.66 -0.122579 -1.43477 0
M  V30 11921 H 1106.62 2.08936 -3.65956 0
M  V30 11922 H 1105.34 2.19201 -2.42113 0
M  V30 11923 H 1104 0.441676 -3.6393 0
M  V30 11924 H 1103.65 2.8682 -4.13211 0
M  V30 11925 H 1103.35 1.86385 -5.57256 0
M  V30 11926 H 1104.87 2.78584 -5.43345 0
M  V30 11927 H 1106.29 0.531102 -5.70835 0
M  V30 11928 H 1104.68 -0.20536 -5.99749 0
M  V30 11929 H 1105.75 -0.897807 -4.76516 0
M  V30 11930 N 1107.1 1.56929 -0.145233 0
M  V30 11931 C 1108.03 2.19685 0.791263 0
M  V30 11932 C 1109.01 1.14455 1.25833 0
M  V30 11933 O 1110.19 1.42791 1.31622 0
M  V30 11934 C 1107.32 2.81705 2.03124 0
M  V30 11935 C 1106.28 3.92746 1.70101 0
M  V30 11936 C 1105.6 4.41694 3.01347 0
M  V30 11937 C 1106.9 5.13606 0.949025 0
M  V30 11938 H 1108.6 2.98196 0.26825 0
M  V30 11939 H 1106.14 1.43434 0.127584 0
M  V30 11940 H 1108.1 3.24273 2.69119 0
M  V30 11941 H 1106.82 2.00523 2.57795 0
M  V30 11942 H 1105.48 3.50794 1.06486 0
M  V30 11943 H 1105.13 3.57336 3.54006 0
M  V30 11944 H 1104.83 5.1659 2.80016 0
M  V30 11945 H 1106.35 4.86931 3.68416 0
M  V30 11946 H 1107.76 5.53029 1.51102 0
M  V30 11947 H 1106.16 5.94252 0.835711 0
M  V30 11948 H 1107.23 4.84863 -0.0595631 0
M  V30 11949 N 1108.58 -0.128553 1.57075 0
M  V30 11950 C 1109.8 -0.8564 1.88893 0
M  V30 11951 C 1110.23 -1.73095 0.736196 0
M  V30 11952 O 1109.58 -1.78567 -0.313629 0
M  V30 11953 C 1109.63 -1.67368 3.19406 0
M  V30 11954 O 1108.74 -2.77973 3.04639 0
M  V30 11955 H 1108.08 -0.237424 0.620102 0
M  V30 11956 H 1110.61 -0.113821 2.04283 0
M  V30 11957 H 1110.62 -2.0649 3.51889 0
M  V30 11958 H 1109.29 -1.03161 4.02903 0
M  V30 11959 H 1107.87 -2.42123 2.83603 0
M  V30 11960 N 1110.05 -1.5248 -0.398459 0
M  V30 11961 C 1111 -1.76585 -1.48615 0
M  V30 11962 C 1111.97 -0.608677 -1.54546 0
M  V30 11963 O 1113.16 -0.847383 -1.7095 0
M  V30 11964 C 1110.3 -1.93201 -2.8595 0
M  V30 11965 C 1109.41 -3.20875 -2.89246 0
M  V30 11966 C 1108.54 -3.27862 -4.17947 0
M  V30 11967 C 1107.58 -4.49697 -4.15258 0
M  V30 11968 N 1106.72 -4.54017 -5.35549 0
M  V30 11969 H 1111.56 -2.69412 -1.27362 0
M  V30 11970 H 1109.1 -1.33487 -0.618031 0
M  V30 11971 H 1111.05 -2.00819 -3.65688 0
M  V30 11972 H 1109.68 -1.03743 -3.05675 0
M  V30 11973 H 1108.74 -3.22376 -2.01935 0
M  V30 11974 H 1110.05 -4.1066 -2.83125 0
M  V30 11975 H 1109.2 -3.34611 -5.06083 0
M  V30 11976 H 1107.94 -2.36035 -4.26777 0
M  V30 11977 H 1106.95 -4.43083 -3.25511 0
M  V30 11978 H 1108.17 -5.42831 -4.08059 0
M  V30 11979 H 1106.12 -3.65078 -5.45027 0
M  V30 11980 H 1106.03 -5.37661 -5.31466 0
M  V30 11981 H 1107.3 -4.65009 -6.25609 0
M  V30 11982 N 1111.53 0.65634 -1.43283 0
M  V30 11983 C 1112.48 1.79058 -1.48462 0
M  V30 11984 C 1113.47 1.65563 -0.358512 0
M  V30 11985 O 1114.68 1.71947 -0.532365 0
M  V30 11986 H 1111.05 0.590716 -0.465358 0
M  V30 11987 H 1113.03 1.7181 -2.43975 0
M  V30 11988 C 1111.77 3.17304 -1.42175 0
M  V30 11989 H 1111.1 3.28324 -2.2813 0
M  V30 11990 H 1112.54 3.96633 -1.4986 0
M  V30 11991 C 1111 3.36613 -0.138929 0
M  V30 11992 O 1111.53 3.93633 0.80101 0
M  V30 11993 N 1109.73 2.90557 -0.0501237 0
M  V30 11994 H 1109.28 2.4434 -0.815821 0
M  V30 11995 H 1109.24 3.03853 0.807504 0
M  V30 11996 N 1113.01 1.29761 0.894412 0
M  V30 11997 C 1113.96 1.15232 2.0205 0
M  V30 11998 C 1114.95 0.0665664 1.69269 0
M  V30 11999 O 1116.16 0.226746 1.78566 0
M  V30 12000 H 1112.53 0.356102 0.662341 0
M  V30 12001 H 1114.5 2.10559 2.11442 0
M  V30 12002 C 1113.25 0.851143 3.37121 0
M  V30 12003 H 1112.58 1.67865 3.62852 0
M  V30 12004 H 1114.02 0.78954 4.16584 0
M  V30 12005 C 1112.47 -0.445737 3.33938 0
M  V30 12006 O 1113 -1.47017 3.7383 0
M  V30 12007 N 1111.21 -0.453493 2.8704 0
M  V30 12008 H 1110.76 0.380636 2.54772 0
M  V30 12009 H 1110.72 -1.32119 2.85293 0
M  V30 12010 N 1114.49 -1.10549 1.12324 0
M  V30 12011 C 1115.45 -2.15039 0.793156 0
M  V30 12012 C 1116.45 -1.59651 -0.19192 0
M  V30 12013 O 1117.64 -1.74167 0.0337262 0
M  V30 12014 C 1114.77 -3.40433 0.17842 0
M  V30 12015 H 1115.97 -2.4575 1.71892 0
M  V30 12016 H 1113.52 -1.25892 0.926333 0
M  V30 12017 H 1114.25 -3.15338 -0.757122 0
M  V30 12018 H 1114.04 -3.81921 0.887645 0
M  V30 12019 H 1115.53 -4.17584 -0.0360724 0
M  V30 12020 N 1115.97 -0.914965 -1.28321 0
M  V30 12021 C 1117.21 -0.544639 -1.94208 0
M  V30 12022 C 1117.53 0.916368 -1.72806 0
M  V30 12023 O 1118.73 1.39491 -2.32926 0
M  V30 12024 C 1117.19 -0.923209 -3.47858 0
M  V30 12025 C 1116.8 -2.40403 -3.78035 0
M  V30 12026 C 1118.54 -0.623526 -4.19896 0
M  V30 12027 C 1116.45 -2.72266 -5.25 0
M  V30 12028 H 1115.38 -0.199966 -0.727 0
M  V30 12029 H 1118.03 -1.11405 -1.45812 0
M  V30 12030 H 1116.41 -0.282576 -3.94991 0
M  V30 12031 H 1117.59 -3.09149 -3.41706 0
M  V30 12032 H 1115.9 -2.67429 -3.19172 0
M  V30 12033 H 1118.5 -0.838243 -5.28089 0
M  V30 12034 H 1118.84 0.438721 -4.13982 0
M  V30 12035 H 1119.37 -1.22268 -3.78544 0
M  V30 12036 H 1116.11 -3.77349 -5.35993 0
M  V30 12037 H 1115.63 -2.08157 -5.62522 0
M  V30 12038 H 1117.31 -2.59334 -5.92752 0
M  V30 12039 N 1117.44 1.42219 -0.679077 0
M  V30 12040 C 1118.35 2.346 -0.00345919 0
M  V30 12041 C 1119.37 1.55327 0.784181 0
M  V30 12042 O 1120.55 1.87878 0.725524 0
M  V30 12043 C 1117.61 3.33905 0.933194 0
M  V30 12044 C 1116.67 4.29073 0.139607 0
M  V30 12045 C 1115.9 5.23634 1.03165 0
M  V30 12046 O 1116.13 5.23234 2.27119 0
M  V30 12047 O 1115.06 5.99901 0.490159 0
M  V30 12048 H 1118.89 2.9392 -0.764525 0
M  V30 12049 H 1116.47 1.42794 -0.439329 0
M  V30 12050 H 1118.35 3.949 1.47077 0
M  V30 12051 H 1117.03 2.77052 1.67404 0
M  V30 12052 H 1115.94 3.71478 -0.442177 0
M  V30 12053 H 1117.27 4.88979 -0.562214 0
M  V30 12054 N 1118.92 0.422693 1.51826 0
M  V30 12055 C 1120.33 -0.0438129 1.86649 0
M  V30 12056 C 1120.68 -1.43246 1.34071 0
M  V30 12057 O 1119.81 -2.05256 0.685501 0
M  V30 12058 C 1120.4 -0.0862802 3.3869 0
M  V30 12059 C 1118.96 -0.497157 3.73102 0
M  V30 12060 C 1118.11 0.319655 2.75451 0
M  V30 12061 H 1121.06 0.639181 1.45259 0
M  V30 12062 H 1121.08 -0.8988 3.69732 0
M  V30 12063 H 1120.59 0.924525 3.76927 0
M  V30 12064 H 1118.69 -1.51411 3.40449 0
M  V30 12065 H 1118.81 -0.232125 4.78537 0
M  V30 12066 H 1117.17 -0.219963 2.53748 0
M  V30 12067 H 1117.95 1.32906 3.16529 0
M  V30 12068 N 1120.4 -1.5685 0.153553 0
M  V30 12069 C 1121.82 -1.58306 -0.202801 0
M  V30 12070 C 1122.02 -1.16813 -1.64186 0
M  V30 12071 O 1121.07 -0.871468 -2.36985 0
M  V30 12072 C 1122.38 -3.00636 0.0619012 0
M  V30 12073 C 1123.93 -3.13 -0.00129219 0
M  V30 12074 C 1124.41 -4.57391 0.236164 0
M  V30 12075 N 1125.9 -4.62837 0.18332 0
M  V30 12076 C 1126.63 -5.72382 0.341471 0
M  V30 12077 N 1126.13 -6.90552 0.557704 0
M  V30 12078 N 1127.92 -5.61409 0.278615 0
M  V30 12079 H 1120.07 -1.82113 1.09309 0
M  V30 12080 H 1122.34 -0.843228 0.433209 0
M  V30 12081 H 1122.04 -3.35406 1.0581 0
M  V30 12082 H 1121.92 -3.71477 -0.654555 0
M  V30 12083 H 1124.3 -2.78068 -0.98805 0
M  V30 12084 H 1124.38 -2.44632 0.747596 0
M  V30 12085 H 1124.03 -4.93029 1.22005 0
M  V30 12086 H 1123.96 -5.23894 -0.533125 0
M  V30 12087 H 1126.45 -3.77894 0.0211138 0
M  V30 12088 H 1126.76 -7.69905 0.66831 0
M  V30 12089 H 1125.11 -6.92456 0.594105 0
M  V30 12090 H 1128.3 -4.6797 0.110401 0
M  V30 12091 H 1128.47 -6.46731 0.4053 0
M  V30 12092 N 1121.88 0.120221 -1.57141 0
M  V30 12093 C 1123.1 0.84637 -1.89344 0
M  V30 12094 C 1123.53 1.72702 -0.745365 0
M  V30 12095 O 1122.89 1.7873 0.304155 0
M  V30 12096 C 1122.93 1.65671 -3.20289 0
M  V30 12097 O 1122.04 2.76353 -3.06109 0
M  V30 12098 H 1121.38 0.234132 -0.621352 0
M  V30 12099 H 1123.91 0.102986 -2.04341 0
M  V30 12100 H 1123.92 2.04621 -3.52979 0
M  V30 12101 H 1122.59 1.01023 -4.03444 0
M  V30 12102 H 1121.17 2.40615 -2.84884 0
M  V30 12103 N 1123.36 1.52689 0.390367 0
M  V30 12104 C 1124.6 1.67666 1.13553 0
M  V30 12105 C 1124.93 0.415903 1.90001 0
M  V30 12106 O 1124.19 -0.601664 1.86222 0
M  V30 12107 C 1124.49 2.86177 2.14096 0
M  V30 12108 C 1124.15 4.23671 1.54316 0
M  V30 12109 C 1122.81 4.61066 1.37739 0
M  V30 12110 C 1125.17 5.09278 1.1084 0
M  V30 12111 C 1122.49 5.81727 0.76231 0
M  V30 12112 C 1124.85 6.30562 0.507433 0
M  V30 12113 C 1123.51 6.66689 0.328945 0
M  V30 12114 H 1122.78 0.613533 0.415521 0
M  V30 12115 H 1125.43 1.8683 0.420339 0
M  V30 12116 H 1123.73 2.61424 2.9183 0
M  V30 12117 H 1125.43 2.9496 2.7166 0
M  V30 12118 H 1122.02 3.94214 1.68207 0
M  V30 12119 H 1126.2 4.80957 1.2245 0
M  V30 12120 H 1121.46 6.08327 0.612208 0
M  V30 12121 H 1125.63 6.96211 0.162248 0
M  V30 12122 H 1123.26 7.60052 -0.149748 0
M  V30 12123 N 1124.83 -0.648732 1.43629 0
M  V30 12124 C 1126.06 -1.44117 1.49148 0
M  V30 12125 C 1126.48 -1.87767 0.111952 0
M  V30 12126 O 1125.84 -1.57655 -0.895249 0
M  V30 12127 C 1125.89 -2.64938 2.44623 0
M  V30 12128 O 1124.99 -3.64155 1.93559 0
M  V30 12129 H 1124.34 -0.431933 0.504312 0
M  V30 12130 H 1126.87 -0.793439 1.88589 0
M  V30 12131 H 1126.88 -3.12698 2.62076 0
M  V30 12132 H 1125.55 -2.3251 3.44836 0
M  V30 12133 H 1124.13 -3.23322 1.85789 0
M  V30 12134 N 1126.31 -1.30234 -0.887518 0
M  V30 12135 C 1127.24 -1.12212 -1.99853 0
M  V30 12136 C 1128.26 -0.0660929 -1.62666 0
M  V30 12137 O 1129.45 -0.311853 -1.75755 0
M  V30 12138 C 1126.55 -0.688591 -3.31831 0
M  V30 12139 C 1125.72 -1.82581 -3.97471 0
M  V30 12140 C 1124.78 -1.38126 -5.07748 0
M  V30 12141 O 1123.8 -2.08805 -5.29518 0
M  V30 12142 N 1125.01 -0.258868 -5.79923 0
M  V30 12143 H 1127.77 -2.07901 -2.15864 0
M  V30 12144 H 1125.33 -1.22336 -1.06045 0
M  V30 12145 H 1127.32 -0.374252 -4.02966 0
M  V30 12146 H 1125.89 0.176185 -3.12103 0
M  V30 12147 H 1125.11 -2.3084 -3.19541 0
M  V30 12148 H 1126.4 -2.58798 -4.38065 0
M  V30 12149 H 1125.8 0.330131 -5.64736 0
M  V30 12150 H 1124.36 -0.00396813 -6.518 0
M  V30 12151 N 1127.79 1.09952 -1.12909 0
M  V30 12152 C 1128.74 2.18525 -0.796849 0
M  V30 12153 C 1129.73 1.67985 0.218483 0
M  V30 12154 O 1130.94 1.79839 0.07618 0
M  V30 12155 H 1127.31 0.712714 -0.239882 0
M  V30 12156 H 1129.28 2.43783 -1.72083 0
M  V30 12157 C 1128.03 3.46625 -0.273237 0
M  V30 12158 H 1127.36 3.85879 -1.04582 0
M  V30 12159 H 1128.8 4.23926 -0.0791355 0
M  V30 12160 C 1127.26 3.2172 0.999903 0
M  V30 12161 O 1127.79 3.43851 2.07676 0
M  V30 12162 N 1125.99 2.75356 0.928833 0
M  V30 12163 H 1125.54 2.57547 0.052379 0
M  V30 12164 H 1125.5 2.5907 1.78129 0
M  V30 12165 N 1129.27 0.921757 1.27833 0
M  V30 12166 C 1130.49 0.574599 1.99281 0
M  V30 12167 C 1130.92 -0.838905 1.68357 0
M  V30 12168 O 1130.28 -1.56196 0.920468 0
M  V30 12169 C 1130.32 0.800027 3.51613 0
M  V30 12170 O 1129.43 -0.137215 4.12172 0
M  V30 12171 H 1128.77 0.221887 0.625829 0
M  V30 12172 H 1131.3 1.23939 1.62789 0
M  V30 12173 H 1131.31 0.71326 4.01717 0
M  V30 12174 H 1129.98 1.83042 3.73455 0
M  V30 12175 H 1128.56 -0.00103872 3.729 0
M  V30 12176 N 1130.75 -1.41857 0.686609 0
M  V30 12177 C 1132.16 -1.55549 0.357288 0
M  V30 12178 C 1132.36 -1.66394 -1.13646 0
M  V30 12179 O 1131.42 -1.63739 -1.92213 0
M  V30 12180 C 1132.73 -2.79938 1.09796 0
M  V30 12181 C 1134.28 -2.93724 1.08143 0
M  V30 12182 C 1134.75 -4.20989 1.80367 0
M  V30 12183 N 1136.25 -4.27927 1.77293 0
M  V30 12184 C 1136.98 -5.2524 2.30022 0
M  V30 12185 N 1136.48 -6.28636 2.91185 0
M  V30 12186 N 1138.27 -5.17118 2.20329 0
M  V30 12187 H 1130.42 -1.33063 1.65554 0
M  V30 12188 H 1132.68 -0.641335 0.698135 0
M  V30 12189 H 1132.39 -2.78104 2.15293 0
M  V30 12190 H 1132.26 -3.71188 0.670763 0
M  V30 12191 H 1134.65 -2.9508 0.0347554 0
M  V30 12192 H 1134.73 -2.03673 1.54761 0
M  V30 12193 H 1134.38 -4.20395 2.85009 0
M  V30 12194 H 1134.31 -5.09997 1.3119 0
M  V30 12195 H 1136.8 -3.53838 1.32692 0
M  V30 12196 H 1137.11 -6.99265 3.29011 0
M  V30 12197 H 1135.45 -6.29164 2.95259 0
M  V30 12198 H 1138.65 -4.35265 1.72226 0
M  V30 12199 H 1138.82 -5.92792 2.61728 0
M  V30 12200 N 1132.22 -0.430739 -1.51599 0
M  V30 12201 C 1133.17 0.401828 -2.24431 0
M  V30 12202 C 1134.16 0.995588 -1.264 0
M  V30 12203 O 1135.35 0.914822 -1.51526 0
M  V30 12204 C 1132.48 1.5061 -3.08499 0
M  V30 12205 C 1131.57 0.922059 -4.13955 0
M  V30 12206 N 1131.96 0.0665912 -5.05756 0
M  V30 12207 C 1130.25 1.19034 -4.29822 0
M  V30 12208 C 1130.96 -0.260713 -5.81115 0
M  V30 12209 N 1129.93 0.353991 -5.42446 0
M  V30 12210 H 1133.73 -0.257813 -2.92767 0
M  V30 12211 H 1131.25 -0.242421 -1.6058 0
M  V30 12212 H 1133.24 2.11535 -3.59247 0
M  V30 12213 H 1131.9 2.16815 -2.41706 0
M  V30 12214 H 1132.92 -0.299356 -5.17034 0
M  V30 12215 H 1129.59 1.85036 -3.74256 0
M  V30 12216 H 1130.98 -0.956442 -6.65058 0
M  V30 12217 N 1133.7 1.56767 -0.161869 0
M  V30 12218 C 1135.11 1.83265 0.356466 0
M  V30 12219 C 1135.46 1.08127 1.63716 0
M  V30 12220 O 1134.59 0.33127 2.13849 0
M  V30 12221 C 1135.18 3.32437 0.653521 0
M  V30 12222 C 1133.74 3.59465 1.11633 0
M  V30 12223 C 1132.89 2.76909 0.147204 0
M  V30 12224 H 1135.84 1.53926 -0.386308 0
M  V30 12225 H 1135.86 3.49401 1.50662 0
M  V30 12226 H 1135.37 3.87098 -0.278766 0
M  V30 12227 H 1133.48 3.10206 2.06404 0
M  V30 12228 H 1133.59 4.67853 1.03202 0
M  V30 12229 H 1131.95 2.46457 0.642739 0
M  V30 12230 H 1132.74 3.34346 -0.778938 0
M  V30 12231 N 1135.18 -0.111886 1.57202 0
M  V30 12232 C 1136.41 -0.836317 1.89791 0
M  V30 12233 C 1136.83 -1.72304 0.754513 0
M  V30 12234 O 1136.19 -1.78889 -0.294672 0
M  V30 12235 C 1136.24 -1.63971 3.21164 0
M  V30 12236 O 1135.34 -2.74726 3.0757 0
M  V30 12237 H 1134.68 -0.230833 0.622585 0
M  V30 12238 H 1137.21 -0.0921478 2.04392 0
M  V30 12239 H 1137.22 -2.02746 3.54059 0
M  V30 12240 H 1135.9 -0.98882 4.03974 0
M  V30 12241 H 1134.47 -2.39101 2.86156 0
M  V30 12242 N 1136.66 -1.52894 -0.382264 0
M  V30 12243 C 1137.89 -1.72152 -1.14766 0
M  V30 12244 C 1138.3 -0.442911 -1.83531 0
M  V30 12245 O 1137.66 0.583085 -1.72935 0
M  V30 12246 C 1137.71 -2.87566 -2.19062 0
M  V30 12247 O 1137.43 -4.10478 -1.53099 0
M  V30 12248 C 1138.93 -3.18559 -3.08277 0
M  V30 12249 H 1136.15 -0.576212 -0.343832 0
M  V30 12250 H 1138.7 -1.99571 -0.446273 0
M  V30 12251 H 1136.85 -2.62589 -2.84826 0
M  V30 12252 H 1137.26 -4.74989 -2.22454 0
M  V30 12253 H 1138.74 -4.02763 -3.77473 0
M  V30 12254 H 1139.22 -2.33222 -3.72161 0
M  V30 12255 H 1139.82 -3.454 -2.48151 0
M  V30 12256 N 1138.14 0.641106 -1.43971 0
M  V30 12257 C 1139.55 0.958161 -1.27638 0
M  V30 12258 C 1139.75 2.00456 -0.204885 0
M  V30 12259 O 1138.81 2.49106 0.412606 0
M  V30 12260 C 1140.12 1.43091 -2.64472 0
M  V30 12261 C 1141.67 1.54692 -2.72102 0
M  V30 12262 C 1142.15 2.05353 -4.09382 0
M  V30 12263 N 1143.64 2.12638 -4.11509 0
M  V30 12264 C 1144.37 2.52987 -5.14573 0
M  V30 12265 N 1143.87 2.92544 -6.28005 0
M  V30 12266 N 1145.66 2.53033 -5.01927 0
M  V30 12267 H 1137.81 -0.0510973 -2.12339 0
M  V30 12268 H 1140.07 0.039748 -0.947166 0
M  V30 12269 H 1139.78 0.736389 -3.43904 0
M  V30 12270 H 1139.65 2.40375 -2.90688 0
M  V30 12271 H 1142.04 2.23242 -1.92994 0
M  V30 12272 H 1142.12 0.558083 -2.49638 0
M  V30 12273 H 1141.77 1.37401 -4.88962 0
M  V30 12274 H 1141.7 3.0509 -4.29218 0
M  V30 12275 H 1144.19 1.84792 -3.29636 0
M  V30 12276 H 1144.5 3.22116 -7.02468 0
M  V30 12277 H 1142.85 2.90319 -6.31458 0
M  V30 12278 H 1146.04 2.21514 -4.1237 0
M  V30 12279 H 1146.21 2.84155 -5.82375 0
M  V30 12280 N 1139.62 1.30703 0.880598 0
M  V30 12281 C 1140.55 1.1327 1.99255 0
M  V30 12282 C 1141.56 0.0747186 1.62628 0
M  V30 12283 O 1142.75 0.321169 1.75587 0
M  V30 12284 C 1139.85 0.706179 3.31461 0
M  V30 12285 C 1139.02 1.84687 3.96497 0
M  V30 12286 C 1138.08 1.40817 5.07008 0
M  V30 12287 O 1137.11 2.1161 5.28403 0
M  V30 12288 N 1138.31 0.289619 5.79777 0
M  V30 12289 H 1141.07 2.09043 2.14759 0
M  V30 12290 H 1138.64 1.22896 1.05395 0
M  V30 12291 H 1140.63 0.395617 4.02762 0
M  V30 12292 H 1139.2 -0.159631 3.12192 0
M  V30 12293 H 1138.42 2.32531 3.18312 0
M  V30 12294 H 1139.71 2.61117 4.36687 0
M  V30 12295 H 1139.1 -0.300177 5.64903 0
M  V30 12296 H 1137.66 0.0385346 6.51789 0
M  V30 12297 N 1141.09 -1.09351 1.1349 0
M  V30 12298 C 1142.04 -2.16008 0.812981 0
M  V30 12299 C 1143.01 -1.64566 -0.225252 0
M  V30 12300 O 1144.2 -1.90552 -0.0973261 0
M  V30 12301 C 1141.34 -3.43913 0.285996 0
M  V30 12302 C 1140.45 -4.09251 1.38338 0
M  V30 12303 C 1139.58 -5.24916 0.814652 0
M  V30 12304 C 1138.62 -5.82178 1.89038 0
M  V30 12305 N 1137.76 -6.89203 1.33955 0
M  V30 12306 H 1142.6 -2.42887 1.72655 0
M  V30 12307 H 1140.14 -1.19209 0.861833 0
M  V30 12308 H 1142.09 -4.17183 -0.0376794 0
M  V30 12309 H 1140.72 -3.17349 -0.590707 0
M  V30 12310 H 1139.78 -3.33838 1.82363 0
M  V30 12311 H 1141.09 -4.4784 2.19638 0
M  V30 12312 H 1140.24 -6.05086 0.442306 0
M  V30 12313 H 1138.98 -4.87691 -0.029416 0
M  V30 12314 H 1137.99 -5.00669 2.27179 0
M  V30 12315 H 1139.21 -6.21464 2.73787 0
M  V30 12316 H 1137.16 -6.53956 0.517494 0
M  V30 12317 H 1137.07 -7.26565 2.08902 0
M  V30 12318 H 1138.34 -7.73126 0.994793 0
M  V30 12319 N 1142.57 -0.928524 -1.27343 0
M  V30 12320 C 1143.5 -0.385563 -2.25934 0
M  V30 12321 C 1144.52 0.484178 -1.55433 0
M  V30 12322 O 1145.71 0.296668 -1.76017 0
M  V30 12323 C 1142.81 0.466116 -3.35679 0
M  V30 12324 C 1141.98 -0.384523 -4.35707 0
M  V30 12325 C 1141.04 0.404644 -5.24642 0
M  V30 12326 O 1140.06 -0.187943 -5.6889 0
M  V30 12327 N 1141.27 1.70426 -5.54919 0
M  V30 12328 H 1144.03 -1.23306 -2.73159 0
M  V30 12329 H 1141.59 -0.796039 -1.40978 0
M  V30 12330 H 1143.58 1.00115 -3.92121 0
M  V30 12331 H 1142.15 1.21437 -2.88048 0
M  V30 12332 H 1141.37 -1.10085 -3.78517 0
M  V30 12333 H 1142.66 -0.966033 -4.99545 0
M  V30 12334 H 1142.06 2.20802 -5.20829 0
M  V30 12335 H 1140.62 2.1858 -6.14057 0
M  V30 12336 N 1144.05 1.41491 -0.694123 0
M  V30 12337 C 1145.3 2.01252 -0.224477 0
M  V30 12338 C 1145.62 1.54965 1.17541 0
M  V30 12339 O 1144.88 0.751041 1.80715 0
M  V30 12340 C 1145.18 3.56666 -0.228869 0
M  V30 12341 C 1144.84 4.22458 -1.57608 0
M  V30 12342 C 1143.51 4.40144 -1.94491 0
M  V30 12343 C 1145.86 4.5936 -2.46247 0
M  V30 12344 C 1143.19 4.92009 -3.196 0
M  V30 12345 C 1145.54 5.12615 -3.70687 0
M  V30 12346 C 1144.2 5.28512 -4.07715 0
M  V30 12347 H 1143.47 0.736433 -0.0821419 0
M  V30 12348 H 1146.12 1.69408 -0.892926 0
M  V30 12349 H 1144.42 3.88292 0.523128 0
M  V30 12350 H 1146.12 4.00712 0.152019 0
M  V30 12351 H 1142.71 4.09065 -1.27921 0
M  V30 12352 H 1146.9 4.45352 -2.19032 0
M  V30 12353 H 1142.15 5.02502 -3.48285 0
M  V30 12354 H 1146.33 5.4015 -4.39558 0
M  V30 12355 H 1143.95 5.68464 -5.0473 0
M  V30 12356 N 1145.53 0.438773 1.51369 0
M  V30 12357 C 1146.48 -0.386324 2.29369 0
M  V30 12358 C 1147.47 -1.0196 1.3528 0
M  V30 12359 O 1148.68 -0.9544 1.52615 0
M  V30 12360 H 1145.05 -0.143397 0.738201 0
M  V30 12361 H 1147.02 0.292372 2.96964 0
M  V30 12362 C 1145.77 -1.47426 3.14898 0
M  V30 12363 H 1145.09 -0.996335 3.87186 0
M  V30 12364 H 1146.53 -2.02481 3.72529 0
M  V30 12365 C 1144.99 -2.45831 2.30366 0
M  V30 12366 O 1145.52 -3.50398 1.96428 0
M  V30 12367 N 1143.73 -2.16754 1.93561 0
M  V30 12368 H 1143.28 -1.31748 2.2136 0
M  V30 12369 H 1143.23 -2.82836 1.373 0
M  V30 12370 N 1147.01 -1.56678 0.170181 0
M  V30 12371 C 1147.97 -2.16698 -0.746622 0
M  V30 12372 C 1148.97 -1.11475 -1.15888 0
M  V30 12373 O 1150.16 -1.36994 -1.07602 0
M  V30 12374 C 1147.29 -2.74892 -2.01612 0
M  V30 12375 H 1148.48 -2.99061 -0.224135 0
M  V30 12376 H 1146.04 -1.56098 -0.0793761 0
M  V30 12377 H 1146.77 -1.96259 -2.58172 0
M  V30 12378 H 1146.56 -3.51896 -1.72949 0
M  V30 12379 H 1148.05 -3.21058 -2.67042 0
M  V30 12380 N 1148.48 0.103547 -1.57259 0
M  V30 12381 C 1149.71 0.82235 -1.89855 0
M  V30 12382 C 1150.13 1.72694 -0.76303 0
M  V30 12383 O 1149.48 1.8056 0.265421 0
M  V30 12384 C 1149.53 1.64282 -3.22015 0
M  V30 12385 O 1149.26 0.774628 -4.31197 0
M  V30 12386 C 1150.76 2.46543 -3.68418 0
M  V30 12387 H 1147.98 0.235591 -0.628282 0
M  V30 12388 H 1150.52 0.0833106 -2.0433 0
M  V30 12389 H 1148.68 2.33446 -3.09163 0
M  V30 12390 H 1149.09 1.34205 -5.0704 0
M  V30 12391 H 1150.56 2.99618 -4.63609 0
M  V30 12392 H 1151.04 3.24618 -2.95838 0
M  V30 12393 H 1151.65 1.82594 -3.84109 0
M  V30 12394 N 1149.96 1.53094 0.37415 0
M  V30 12395 C 1151.19 1.72758 1.13852 0
M  V30 12396 C 1151.6 0.452638 1.83294 0
M  V30 12397 O 1150.96 -0.573906 1.73241 0
M  V30 12398 C 1151.01 2.88724 2.17534 0
M  V30 12399 O 1150.73 4.11284 1.5092 0
M  V30 12400 C 1152.23 3.2019 3.06584 0
M  V30 12401 H 1149.45 0.578028 0.340771 0
M  V30 12402 H 1152 1.99805 0.435683 0
M  V30 12403 H 1150.15 2.64096 2.83429 0
M  V30 12404 H 1150.57 4.76162 2.19932 0
M  V30 12405 H 1152.04 4.04759 3.75332 0
M  V30 12406 H 1152.52 2.35193 3.70919 0
M  V30 12407 H 1153.12 3.46712 2.46315 0
M  V30 12408 N 1151.44 -0.633461 1.44309 0
M  V30 12409 C 1152.69 -1.38902 1.4625 0
M  V30 12410 C 1153 -1.95354 0.0980699 0
M  V30 12411 O 1154.21 -2.715 -0.0049983 0
M  V30 12412 C 1152.66 -2.51477 2.57463 0
M  V30 12413 C 1152.27 -2.01549 4.00103 0
M  V30 12414 C 1154.02 -3.28698 2.68622 0
M  V30 12415 C 1151.92 -3.11452 5.02744 0
M  V30 12416 H 1150.85 -0.521976 0.544112 0
M  V30 12417 H 1153.5 -0.681725 1.70367 0
M  V30 12418 H 1151.89 -3.24771 2.26582 0
M  V30 12419 H 1153.06 -1.35135 4.4054 0
M  V30 12420 H 1151.37 -1.3715 3.93165 0
M  V30 12421 H 1153.97 -4.10624 3.42479 0
M  V30 12422 H 1154.31 -3.78027 1.7436 0
M  V30 12423 H 1154.85 -2.62494 2.98901 0
M  V30 12424 H 1151.59 -2.6707 5.98627 0
M  V30 12425 H 1151.11 -3.76514 4.66902 0
M  V30 12426 H 1152.79 -3.76265 5.2634 0
M  V30 12427 N 1152.92 -1.31168 -0.873655 0
M  V30 12428 C 1154.33 -1.18584 -1.44203 0
M  V30 12429 C 1154.68 0.209114 -1.95082 0
M  V30 12430 O 1153.81 1.10662 -1.85965 0
M  V30 12431 C 1154.4 -2.14668 -2.62112 0
M  V30 12432 C 1152.96 -2.06029 -3.15006 0
M  V30 12433 C 1152.11 -2.04106 -1.87712 0
M  V30 12434 H 1155.06 -1.43273 -0.682536 0
M  V30 12435 H 1155.08 -1.73413 -3.38686 0
M  V30 12436 H 1154.59 -3.16186 -2.25051 0
M  V30 12437 H 1152.69 -1.07693 -3.56697 0
M  V30 12438 H 1152.8 -2.9496 -3.77539 0
M  V30 12439 H 1151.17 -1.49069 -2.0652 0
M  V30 12440 H 1151.95 -3.07373 -1.52894 0
M  V30 12441 N 1154.4 1.08748 -1.14068 0
M  V30 12442 C 1155.31 2.19123 -0.837998 0
M  V30 12443 C 1156.32 1.73065 0.180164 0
M  V30 12444 O 1157.5 2.01398 0.00952285 0
M  V30 12445 C 1154.56 3.45257 -0.316 0
M  V30 12446 C 1153.62 4.05959 -1.39628 0
M  V30 12447 C 1152.86 5.26072 -0.899095 0
M  V30 12448 O 1153.08 5.69804 0.260744 0
M  V30 12449 O 1152.01 5.7808 -1.67652 0
M  V30 12450 H 1155.84 2.4748 -1.76033 0
M  V30 12451 H 1153.43 1.17816 -0.918675 0
M  V30 12452 H 1155.31 4.21389 -0.0306425 0
M  V30 12453 H 1153.98 3.18486 0.578654 0
M  V30 12454 H 1152.89 3.31432 -1.73505 0
M  V30 12455 H 1154.22 4.36971 -2.26533 0
M  V30 12456 N 1155.87 0.935264 1.26849 0
M  V30 12457 C 1156.82 0.430895 2.28574 0
M  V30 12458 C 1157.82 -0.488739 1.62196 0
M  V30 12459 O 1159.02 -0.367605 1.76206 0
M  V30 12460 H 1155.4 0.120793 0.742235 0
M  V30 12461 H 1157.37 1.3015 2.68521 0
M  V30 12462 C 1156.12 -0.294053 3.46454 0
M  V30 12463 H 1155.44 0.404416 3.97749 0
M  V30 12464 H 1156.88 -0.611272 4.19571 0
M  V30 12465 C 1155.34 -1.50975 3.01178 0
M  V30 12466 O 1155.87 -2.60826 3.05504 0
M  V30 12467 N 1154.08 -1.36423 2.56587 0
M  V30 12468 H 1153.62 -0.470483 2.53267 0
M  V30 12469 H 1153.58 -2.17886 2.26656 0
M  V30 12470 N 1157.35 -1.41121 0.701616 0
M  V30 12471 C 1158.63 -1.9492 0.162911 0
M  V30 12472 C 1159.01 -1.64064 -1.32839 0
M  V30 12473 O 1158.36 -0.950848 -2.07777 0
M  V30 12474 C 1158.57 -3.45946 0.460673 0
M  V30 12475 C 1159.92 -4.22789 0.391706 0
M  V30 12476 O 1160.94 -3.53993 0.395931 0
M  V30 12477 O 1159.8 -5.45332 0.357071 0
M  V30 12478 H 1156.89 -0.826793 0.0185103 0
M  V30 12479 H 1159.44 -1.50805 0.778192 0
M  V30 12480 H 1158.21 -3.61711 1.49269 0
M  V30 12481 H 1157.83 -3.97168 -0.185277 0
M  V30 12482 N 1158.83 -0.446794 -1.51134 0
M  V30 12483 C 1160.08 0.118047 -2.01354 0
M  V30 12484 C 1160.39 1.42953 -1.33505 0
M  V30 12485 O 1161.6 2.07788 -1.74747 0
M  V30 12486 C 1160.05 0.260912 -3.58953 0
M  V30 12487 C 1159.66 -1.0407 -4.35745 0
M  V30 12488 C 1161.41 0.779014 -4.17291 0
M  V30 12489 C 1159.31 -0.862958 -5.8507 0
M  V30 12490 H 1158.24 0.0478915 -0.752478 0
M  V30 12491 H 1160.89 -0.577997 -1.74159 0
M  V30 12492 H 1159.28 1.02018 -3.82633 0
M  V30 12493 H 1160.45 -1.80903 -4.23805 0
M  V30 12494 H 1158.77 -1.48805 -3.88904 0
M  V30 12495 H 1161.36 0.928636 -5.26574 0
M  V30 12496 H 1161.71 1.76399 -3.7708 0
M  V30 12497 H 1162.24 0.0778022 -3.97724 0
M  V30 12498 H 1158.98 -1.82059 -6.2971 0
M  V30 12499 H 1158.5 -0.134588 -5.99649 0
M  V30 12500 H 1160.18 -0.51989 -6.44908 0
M  V30 12501 N 1160.31 1.56586 -0.178487 0
M  V30 12502 C 1161.22 2.21903 0.761321 0
M  V30 12503 C 1162.23 1.21289 1.2476 0
M  V30 12504 O 1163.41 1.53974 1.29823 0
M  V30 12505 C 1160.48 2.85259 1.97048 0
M  V30 12506 C 1159.54 4.01095 1.53039 0
M  V30 12507 C 1158.77 4.61421 2.68191 0
M  V30 12508 O 1158.99 4.20644 3.85247 0
M  V30 12509 O 1157.93 5.51171 2.41855 0
M  V30 12510 H 1161.75 3.02788 0.235141 0
M  V30 12511 H 1159.34 1.49316 0.0500442 0
M  V30 12512 H 1161.22 3.25404 2.6775 0
M  V30 12513 H 1159.89 2.07366 2.48558 0
M  V30 12514 H 1158.8 3.65606 0.792661 0
M  V30 12515 H 1160.13 4.80603 1.06213 0
M  V30 12516 N 1161.79 -0.095206 1.57312 0
M  V30 12517 C 1162.73 -1.11551 2.02052 0
M  V30 12518 C 1163.7 -1.39808 0.896818 0
M  V30 12519 O 1164.89 -1.51273 1.1628 0
M  V30 12520 C 1162.03 -2.43056 2.44985 0
M  V30 12521 C 1161.14 -2.21531 3.70875 0
M  V30 12522 C 1160.28 -3.46434 4.02687 0
M  V30 12523 C 1159.32 -3.2017 5.21687 0
M  V30 12524 N 1158.45 -4.37339 5.49253 0
M  V30 12525 H 1163.29 -0.727 2.88996 0
M  V30 12526 H 1160.83 -0.347441 1.42938 0
M  V30 12527 H 1162.79 -3.19803 2.67921 0
M  V30 12528 H 1161.42 -2.79754 1.61051 0
M  V30 12529 H 1160.47 -1.35587 3.55416 0
M  V30 12530 H 1161.78 -1.98116 4.57768 0
M  V30 12531 H 1160.94 -4.31589 4.26399 0
M  V30 12532 H 1159.67 -3.72904 3.14315 0
M  V30 12533 H 1158.68 -2.33409 4.97796 0
M  V30 12534 H 1159.9 -2.95047 6.11657 0
M  V30 12535 H 1157.85 -4.63885 4.6384 0
M  V30 12536 H 1157.77 -4.17114 6.30517 0
M  V30 12537 H 1159.04 -5.23559 5.775 0
M  V30 12538 N 1163.26 -1.53291 -0.366026 0
M  V30 12539 C 1164.49 -1.73359 -1.12934 0
M  V30 12540 C 1164.91 -0.462352 -1.83051 0
M  V30 12541 O 1164.26 0.564711 -1.73543 0
M  V30 12542 C 1164.32 -2.89873 -2.15999 0
M  V30 12543 O 1164.04 -4.12079 -1.48737 0
M  V30 12544 C 1165.54 -3.21811 -3.04881 0
M  V30 12545 H 1162.76 -0.579827 -0.337701 0
M  V30 12546 H 1165.3 -2.00033 -0.425081 0
M  V30 12547 H 1163.46 -2.65595 -2.82025 0
M  V30 12548 H 1163.87 -4.77322 -2.17404 0
M  V30 12549 H 1165.34 -4.06744 -3.7318 0
M  V30 12550 H 1165.82 -2.37156 -3.69667 0
M  V30 12551 H 1166.43 -3.48013 -2.44473 0
M  V30 12552 N 1164.74 0.6258 -1.44643 0
M  V30 12553 C 1166.02 1.38439 -1.38181 0
M  V30 12554 C 1166.4 2.11056 -0.0431928 0
M  V30 12555 O 1165.75 2.06683 0.974383 0
M  V30 12556 C 1165.96 2.34639 -2.58352 0
M  V30 12557 C 1167.31 2.97807 -3.02649 0
M  V30 12558 O 1168.33 2.44963 -2.58595 0
M  V30 12559 O 1167.19 3.93682 -3.79048 0
M  V30 12560 H 1164.28 0.619852 -0.54746 0
M  V30 12561 H 1166.83 0.650409 -1.56741 0
M  V30 12562 H 1165.6 1.80116 -3.47382 0
M  V30 12563 H 1165.22 3.15446 -2.42032 0
M  V30 12564 N 1166.22 1.31629 0.866686 0
M  V30 12565 C 1167.63 1.19347 1.43573 0
M  V30 12566 C 1167.98 -0.198765 1.95191 0
M  V30 12567 O 1167.11 -1.09674 1.86549 0
M  V30 12568 C 1167.7 2.16055 2.6097 0
M  V30 12569 C 1166.26 2.07697 3.13909 0
M  V30 12570 C 1165.41 2.05099 1.86627 0
M  V30 12571 H 1168.36 1.43633 0.674929 0
M  V30 12572 H 1168.38 1.75207 3.37761 0
M  V30 12573 H 1167.89 3.17375 2.23371 0
M  V30 12574 H 1165.99 1.09583 3.56121 0
M  V30 12575 H 1166.11 2.96958 3.75969 0
M  V30 12576 H 1164.47 1.50162 2.05727 0
M  V30 12577 H 1165.25 3.0818 1.51261 0
M  V30 12578 N 1167.7 -1.08142 1.14644 0
M  V30 12579 C 1168.95 -1.81015 0.927648 0
M  V30 12580 C 1169.3 -1.8467 -0.539885 0
M  V30 12581 O 1168.59 -1.31353 -1.39488 0
M  V30 12582 C 1168.79 -3.25962 1.46573 0
M  V30 12583 C 1168.62 -3.36429 2.98405 0
M  V30 12584 C 1167.39 -3.4746 3.66878 0
M  V30 12585 C 1169.58 -3.27855 3.96252 0
M  V30 12586 N 1167.57 -3.46746 5.06597 0
M  V30 12587 C 1168.94 -3.34165 5.22239 0
M  V30 12588 C 1170.99 -3.11611 3.88334 0
M  V30 12589 C 1169.7 -3.25903 6.41233 0
M  V30 12590 C 1171.72 -3.04679 5.06877 0
M  V30 12591 C 1171.08 -3.11594 6.31735 0
M  V30 12592 H 1167.18 -0.676065 0.393014 0
M  V30 12593 H 1169.77 -1.29145 1.45704 0
M  V30 12594 H 1167.94 -3.7627 0.96308 0
M  V30 12595 H 1169.67 -3.86914 1.18659 0
M  V30 12596 H 1166.42 -3.51466 3.17441 0
M  V30 12597 H 1166.85 -3.49939 5.79544 0
M  V30 12598 H 1171.49 -3.05125 2.92675 0
M  V30 12599 H 1169.21 -3.3115 7.37133 0
M  V30 12600 H 1172.79 -2.93226 5.02503 0
M  V30 12601 H 1171.67 -3.06264 7.21922 0
M  V30 12602 N 1169.18 -0.941978 -1.26351 0
M  V30 12603 C 1170.42 -0.589971 -1.93715 0
M  V30 12604 C 1170.75 0.871085 -1.73903 0
M  V30 12605 O 1170.01 1.63864 -1.06991 0
M  V30 12606 C 1170.31 -0.879481 -3.4641 0
M  V30 12607 C 1169.97 -2.32454 -3.86362 0
M  V30 12608 C 1168.63 -2.71957 -3.9698 0
M  V30 12609 C 1170.99 -3.2636 -4.06373 0
M  V30 12610 C 1168.31 -4.04459 -4.25006 0
M  V30 12611 C 1170.67 -4.58459 -4.35887 0
M  V30 12612 C 1169.33 -4.97775 -4.4472 0
M  V30 12613 H 1168.6 -0.215886 -0.708854 0
M  V30 12614 H 1171.25 -1.18863 -1.50146 0
M  V30 12615 H 1169.55 -0.198289 -3.91298 0
M  V30 12616 H 1171.25 -0.585887 -3.96697 0
M  V30 12617 H 1167.84 -2.00814 -3.78645 0
M  V30 12618 H 1172.02 -2.97037 -3.97596 0
M  V30 12619 H 1167.28 -4.34582 -4.30057 0
M  V30 12620 H 1171.45 -5.31213 -4.50317 0
M  V30 12621 H 1169.08 -6.00475 -4.66191 0
M  V30 12622 N 1170.66 1.40747 -0.709091 0
M  V30 12623 C 1171.62 2.29118 -0.0611607 0
M  V30 12624 C 1172.62 1.45049 0.694081 0
M  V30 12625 O 1173.81 1.66039 0.526952 0
M  V30 12626 C 1170.94 3.28154 0.923447 0
M  V30 12627 H 1172.13 2.87913 -0.839413 0
M  V30 12628 H 1169.69 1.4896 -0.473363 0
M  V30 12629 H 1170.42 2.74366 1.72899 0
M  V30 12630 H 1170.21 3.90207 0.384862 0
M  V30 12631 H 1171.7 3.94343 1.37417 0
M  V30 12632 N 1172.13 0.454803 1.50895 0
M  V30 12633 C 1173.08 -0.366073 2.25042 0
M  V30 12634 C 1174.07 -0.975353 1.27967 0
M  V30 12635 O 1175.26 -0.8906 1.52962 0
M  V30 12636 C 1172.39 -1.45683 3.10856 0
M  V30 12637 C 1171.47 -0.856086 4.1537 0
M  V30 12638 N 1171.87 0.0138787 5.05798 0
M  V30 12639 C 1170.16 -1.1218 4.31661 0
M  V30 12640 C 1170.86 0.35313 5.80627 0
M  V30 12641 N 1169.84 -0.267648 5.42941 0
M  V30 12642 H 1173.64 0.304357 2.9232 0
M  V30 12643 H 1171.16 0.267937 1.60174 0
M  V30 12644 H 1173.15 -2.05793 3.62567 0
M  V30 12645 H 1171.81 -2.12942 2.45124 0
M  V30 12646 H 1172.82 0.381574 5.16492 0
M  V30 12647 H 1169.5 -1.79059 3.77153 0
M  V30 12648 H 1170.89 1.06213 6.63452 0
M  V30 12649 N 1173.61 -1.56489 0.186789 0
M  V30 12650 C 1175.03 -1.58701 -0.169176 0
M  V30 12651 C 1175.23 -1.2027 -1.61671 0
M  V30 12652 O 1174.28 -0.92154 -2.35083 0
M  V30 12653 C 1175.6 -3.00437 0.125657 0
M  V30 12654 C 1177.14 -3.12932 0.0651 0
M  V30 12655 C 1177.62 -4.56787 0.333131 0
M  V30 12656 N 1179.11 -4.62344 0.281453 0
M  V30 12657 C 1179.85 -5.71529 0.462805 0
M  V30 12658 N 1179.34 -6.89213 0.704054 0
M  V30 12659 N 1181.13 -5.60692 0.397636 0
M  V30 12660 H 1173.29 -1.79754 1.13148 0
M  V30 12661 H 1175.55 -0.83385 0.450997 0
M  V30 12662 H 1175.25 -3.33086 1.12901 0
M  V30 12663 H 1175.13 -3.72782 -0.575612 0
M  V30 12664 H 1177.52 -2.80101 -0.928845 0
M  V30 12665 H 1177.6 -2.42991 0.799318 0
M  V30 12666 H 1177.24 -4.9033 1.32436 0
M  V30 12667 H 1177.17 -5.24907 -0.421879 0
M  V30 12668 H 1179.66 -3.77764 0.101266 0
M  V30 12669 H 1179.97 -7.68314 0.831468 0
M  V30 12670 H 1178.32 -6.9104 0.740851 0
M  V30 12671 H 1181.51 -4.6763 0.20964 0
M  V30 12672 H 1181.68 -6.45726 0.54239 0
M  V30 12673 N 1175.09 0.086862 -1.5736 0
M  V30 12674 C 1176.32 0.802167 -1.90717 0
M  V30 12675 C 1176.73 1.71875 -0.781304 0
M  V30 12676 O 1176.09 1.80831 0.246255 0
M  V30 12677 C 1176.14 1.60858 -3.23739 0
M  V30 12678 O 1175.86 0.728851 -4.31995 0
M  V30 12679 C 1177.36 2.42621 -3.71012 0
M  V30 12680 H 1174.58 0.228914 -0.630745 0
M  V30 12681 H 1177.13 0.061634 -2.04407 0
M  V30 12682 H 1175.28 2.30153 -3.11622 0
M  V30 12683 H 1175.7 1.2882 -5.08435 0
M  V30 12684 H 1177.17 2.94683 -4.66761 0
M  V30 12685 H 1177.65 3.21462 -2.99264 0
M  V30 12686 H 1178.25 1.78509 -3.86024 0
M  V30 12687 N 1176.57 1.53483 0.357892 0
M  V30 12688 C 1177.98 1.61641 0.934289 0
M  V30 12689 C 1178.33 0.488655 1.90017 0
M  V30 12690 O 1177.45 -0.38378 2.1297 0
M  V30 12691 C 1178.05 2.92987 1.7013 0
M  V30 12692 C 1176.61 3.03456 2.22692 0
M  V30 12693 C 1175.76 2.56992 1.04165 0
M  V30 12694 H 1178.71 1.58112 0.136452 0
M  V30 12695 H 1178.73 2.81221 2.5631 0
M  V30 12696 H 1178.24 3.75047 0.998056 0
M  V30 12697 H 1176.34 2.25999 2.96235 0
M  V30 12698 H 1176.45 4.08673 2.50046 0
M  V30 12699 H 1174.82 2.12052 1.41088 0
M  V30 12700 H 1175.6 3.41477 0.353272 0
M  V30 12701 N 1178.05 -0.61812 1.44973 0
M  V30 12702 C 1178.98 -1.74277 1.47318 0
M  V30 12703 C 1179.96 -1.59203 0.330627 0
M  V30 12704 O 1181.14 -1.80909 0.529558 0
M  V30 12705 C 1178.27 -3.11994 1.31823 0
M  V30 12706 C 1177.31 -3.45685 2.49809 0
M  V30 12707 S 1178.15 -3.41704 4.12309 0
M  V30 12708 C 1179.3 -4.82019 3.9926 0
M  V30 12709 H 1179.54 -1.72023 2.42478 0
M  V30 12710 H 1177.07 -0.793867 1.32428 0
M  V30 12711 H 1179.03 -3.9146 1.2357 0
M  V30 12712 H 1177.69 -3.11774 0.381521 0
M  V30 12713 H 1176.88 -4.45931 2.34864 0
M  V30 12714 H 1176.48 -2.73711 2.54869 0
M  V30 12715 H 1178.77 -5.71567 3.63754 0
M  V30 12716 H 1179.72 -5.02019 4.99382 0
M  V30 12717 H 1180.13 -4.57205 3.31095 0
M  V30 12718 N 1179.52 -1.32087 -0.859693 0
M  V30 12719 C 1180.93 -1.20107 -1.42938 0
M  V30 12720 C 1181.29 0.188411 -1.95293 0
M  V30 12721 O 1180.41 1.08683 -1.87128 0
M  V30 12722 C 1181.01 -2.17436 -2.59821 0
M  V30 12723 C 1179.56 -2.09359 -3.12803 0
M  V30 12724 C 1178.71 -2.06086 -1.85537 0
M  V30 12725 H 1181.66 -1.43989 -0.667302 0
M  V30 12726 H 1181.68 -1.76996 -3.36828 0
M  V30 12727 H 1181.2 -3.18555 -2.21685 0
M  V30 12728 H 1179.3 -1.1147 -3.55535 0
M  V30 12729 H 1179.41 -2.98947 -3.74389 0
M  V30 12730 H 1177.77 -1.51251 -2.04928 0
M  V30 12731 H 1178.56 -3.08978 -1.49625 0
M  V30 12732 N 1181 1.07532 -1.15215 0
M  V30 12733 C 1181.95 2.14687 -0.847243 0
M  V30 12734 C 1182.92 1.64903 0.199043 0
M  V30 12735 O 1184.1 1.90682 0.0669986 0
M  V30 12736 C 1181.24 3.43414 -0.340673 0
M  V30 12737 C 1180.36 4.06999 -1.44831 0
M  V30 12738 C 1179.49 5.23554 -0.898059 0
M  V30 12739 C 1178.53 5.79097 -1.98276 0
M  V30 12740 N 1177.67 6.86985 -1.44902 0
M  V30 12741 H 1182.51 2.4011 -1.76498 0
M  V30 12742 H 1180.04 1.17823 -0.880689 0
M  V30 12743 H 1182 4.1719 -0.0286956 0
M  V30 12744 H 1180.63 3.18249 0.540144 0
M  V30 12745 H 1179.68 3.30895 -1.87651 0
M  V30 12746 H 1181 4.44289 -2.26735 0
M  V30 12747 H 1180.15 6.04305 -0.538514 0
M  V30 12748 H 1178.89 4.87676 -0.0481752 0
M  V30 12749 H 1177.89 4.96992 -2.35115 0
M  V30 12750 H 1179.12 6.1703 -2.83639 0
M  V30 12751 H 1177.07 6.5305 -0.621468 0
M  V30 12752 H 1176.98 7.23149 -2.20434 0
M  V30 12753 H 1178.25 7.71446 -1.11767 0
M  V30 12754 N 1182.48 0.948665 1.2585 0
M  V30 12755 C 1183.73 0.595938 1.92695 0
M  V30 12756 C 1184.04 -0.870229 1.75175 0
M  V30 12757 O 1185.25 -1.33266 2.36543 0
M  V30 12758 C 1183.7 1.01511 3.45288 0
M  V30 12759 C 1183.31 2.50341 3.71528 0
M  V30 12760 C 1185.06 0.734635 4.18095 0
M  V30 12761 C 1182.96 2.8609 5.17597 0
M  V30 12762 H 1181.89 0.219171 0.721443 0
M  V30 12763 H 1184.54 1.15231 1.42807 0
M  V30 12764 H 1182.93 0.387201 3.94102 0
M  V30 12765 H 1184.1 3.18101 3.3339 0
M  V30 12766 H 1182.42 2.75797 3.11969 0
M  V30 12767 H 1185.01 0.977962 5.25681 0
M  V30 12768 H 1185.36 -0.328807 4.14999 0
M  V30 12769 H 1185.89 1.32262 3.75169 0
M  V30 12770 H 1182.63 3.91427 5.25799 0
M  V30 12771 H 1182.15 2.22999 5.56805 0
M  V30 12772 H 1183.83 2.74959 5.85668 0
M  V30 12773 N 1183.96 -1.40369 0.716545 0
M  V30 12774 C 1184.89 -2.29186 0.0251905 0
M  V30 12775 C 1185.9 -1.45877 -0.722761 0
M  V30 12776 O 1187.09 -1.69155 -0.569982 0
M  V30 12777 C 1184.19 -3.24161 -0.988589 0
M  V30 12778 C 1183.37 -4.36329 -0.30597 0
M  V30 12779 C 1182.42 -5.11736 -1.22527 0
M  V30 12780 O 1181.45 -5.64758 -0.7097 0
M  V30 12781 N 1182.65 -5.21183 -2.55634 0
M  V30 12782 H 1185.42 -2.8916 0.787808 0
M  V30 12783 H 1182.98 -1.51749 0.564253 0
M  V30 12784 H 1184.97 -3.71479 -1.60578 0
M  V30 12785 H 1183.54 -2.65347 -1.65256 0
M  V30 12786 H 1182.76 -3.91125 0.491432 0
M  V30 12787 H 1184.05 -5.08523 0.167827 0
M  V30 12788 H 1183.45 -4.7959 -3.00017 0
M  V30 12789 H 1182 -5.72005 -3.12495 0
M  V30 12790 N 1185.44 -0.462799 -1.50652 0
M  V30 12791 C 1186.38 0.349784 -2.29955 0
M  V30 12792 C 1187.38 0.997947 -1.36885 0
M  V30 12793 O 1188.58 0.93 -1.54114 0
M  V30 12794 H 1184.96 0.131635 -0.740389 0
M  V30 12795 H 1186.93 -0.33958 -2.96461 0
M  V30 12796 C 1185.68 1.42398 -3.17204 0
M  V30 12797 H 1185 0.934611 -3.88722 0
M  V30 12798 H 1186.44 1.96528 -3.75703 0
M  V30 12799 C 1184.9 2.42135 -2.34248 0
M  V30 12800 O 1185.43 3.47229 -2.01978 0
M  V30 12801 N 1183.64 2.13647 -1.96985 0
M  V30 12802 H 1183.18 1.28209 -2.23428 0
M  V30 12803 H 1183.14 2.80615 -1.41783 0
M  V30 12804 N 1186.91 1.56388 -0.195085 0
M  V30 12805 C 1188.16 1.97872 0.444344 0
M  V30 12806 C 1188.49 1.0819 1.61271 0
M  V30 12807 O 1187.77 0.133904 1.94039 0
M  V30 12808 C 1188.05 3.48556 0.90449 0
M  V30 12809 C 1187.9 4.49015 -0.265693 0
M  V30 12810 C 1189.22 4.02938 1.76999 0
M  V30 12811 H 1186.34 0.719413 0.160041 0
M  V30 12812 H 1188.98 1.87835 -0.286005 0
M  V30 12813 H 1187.13 3.5724 1.52682 0
M  V30 12814 H 1188.81 4.52368 -0.903363 0
M  V30 12815 H 1187.05 4.23987 -0.917462 0
M  V30 12816 H 1187.72 5.51912 0.0987834 0
M  V30 12817 H 1190.2 3.97033 1.24514 0
M  V30 12818 H 1189.07 5.08741 2.06092 0
M  V30 12819 H 1189.33 3.48197 2.72418 0
M  V30 12820 N 1188.39 -0.0785156 1.57404 0
M  V30 12821 C 1189.62 -0.795871 1.91522 0
M  V30 12822 C 1190.04 -1.70665 0.790892 0
M  V30 12823 O 1189.4 -1.79474 -0.25666 0
M  V30 12824 C 1189.45 -1.57121 3.24569 0
M  V30 12825 O 1188.55 -2.6814 3.13328 0
M  V30 12826 H 1187.89 -0.217575 0.627341 0
M  V30 12827 H 1190.42 -0.0487724 2.04542 0
M  V30 12828 H 1190.43 -1.9519 3.5828 0
M  V30 12829 H 1189.11 -0.902909 4.05981 0
M  V30 12830 H 1187.69 -2.32978 2.91163 0
M  V30 12831 N 1189.87 -1.5367 -0.349747 0
M  V30 12832 C 1191.1 -1.74858 -1.11532 0
M  V30 12833 C 1191.52 -0.483591 -1.81777 0
M  V30 12834 O 1190.88 0.563399 -1.72324 0
M  V30 12835 C 1190.93 -2.92479 -2.10923 0
M  V30 12836 O 1190.03 -2.62194 -3.18321 0
M  V30 12837 H 1189.37 -0.580219 -0.322865 0
M  V30 12838 H 1191.9 -2.00611 -0.402033 0
M  V30 12839 H 1191.91 -3.19093 -2.54252 0
M  V30 12840 H 1190.59 -3.84228 -1.59191 0
M  V30 12841 H 1189.16 -2.46448 -2.79853 0
M  V30 12842 N 1191.35 0.610423 -1.45298 0
M  V30 12843 C 1192.57 1.40112 -1.52917 0
M  V30 12844 C 1193 1.87404 -0.161696 0
M  V30 12845 O 1192.36 1.59973 0.853135 0
M  V30 12846 C 1192.4 2.58359 -2.51561 0
M  V30 12847 O 1191.51 3.58895 -2.03146 0
M  V30 12848 H 1190.85 0.41841 -0.515586 0
M  V30 12849 H 1193.38 0.743159 -1.90626 0
M  V30 12850 H 1193.39 3.0564 -2.70275 0
M  V30 12851 H 1192.06 2.23286 -3.50879 0
M  V30 12852 H 1190.64 3.18282 -1.94296 0
M  V30 12853 N 1192.83 1.32541 0.852676 0
M  V30 12854 C 1194.1 1.1383 1.59067 0
M  V30 12855 C 1194.48 -0.300584 2.08949 0
M  V30 12856 O 1193.83 -1.29751 1.88088 0
M  V30 12857 C 1194.04 2.16758 2.73527 0
M  V30 12858 C 1195.39 2.50194 3.43057 0
M  V30 12859 O 1196.41 2.15319 2.83754 0
M  V30 12860 O 1195.27 3.09985 4.50079 0
M  V30 12861 H 1192.37 0.439379 0.700625 0
M  V30 12862 H 1194.91 1.44078 0.896632 0
M  V30 12863 H 1193.68 3.13469 2.34207 0
M  V30 12864 H 1193.31 1.87515 3.50605 0
M  V30 12865 N 1194.3 -1.0692 1.15784 0
M  V30 12866 C 1195.23 -2.16216 0.881649 0
M  V30 12867 C 1196.22 -1.69253 -0.16951 0
M  V30 12868 O 1197.4 -1.94186 -0.0229511 0
M  V30 12869 C 1194.53 -3.4527 0.374982 0
M  V30 12870 C 1193.48 -4.05706 1.36332 0
M  V30 12871 C 1192.81 -5.29894 0.715317 0
M  V30 12872 C 1194.11 -4.45224 2.7308 0
M  V30 12873 H 1195.8 -2.39577 1.79563 0
M  V30 12874 H 1193.35 -1.15141 0.864784 0
M  V30 12875 H 1195.3 -4.2106 0.169279 0
M  V30 12876 H 1194.03 -3.21508 -0.574485 0
M  V30 12877 H 1192.69 -3.31965 1.55546 0
M  V30 12878 H 1192.33 -5.02425 -0.240436 0
M  V30 12879 H 1192.03 -5.71287 1.37494 0
M  V30 12880 H 1193.56 -6.08386 0.519489 0
M  V30 12881 H 1194.97 -5.12124 2.57686 0
M  V30 12882 H 1193.37 -4.97583 3.35457 0
M  V30 12883 H 1194.44 -3.56384 3.28813 0
M  V30 12884 N 1195.78 -0.955326 -1.25345 0
M  V30 12885 C 1196.71 -0.494145 -2.28211 0
M  V30 12886 C 1197.69 0.459875 -1.63766 0
M  V30 12887 O 1198.88 0.358679 -1.90859 0
M  V30 12888 C 1196.01 0.228228 -3.46549 0
M  V30 12889 C 1194.96 -0.640601 -4.23179 0
M  V30 12890 C 1194.29 0.212553 -5.34277 0
M  V30 12891 C 1195.59 -1.91906 -4.85767 0
M  V30 12892 H 1197.28 -1.35391 -2.67039 0
M  V30 12893 H 1194.83 -0.652462 -1.2837 0
M  V30 12894 H 1196.78 0.561995 -4.17636 0
M  V30 12895 H 1195.51 1.12224 -3.06714 0
M  V30 12896 H 1194.16 -0.957462 -3.53876 0
M  V30 12897 H 1193.81 1.10634 -4.90682 0
M  V30 12898 H 1193.51 -0.365473 -5.86462 0
M  V30 12899 H 1195.04 0.541271 -6.08196 0
M  V30 12900 H 1196.45 -1.65165 -5.48993 0
M  V30 12901 H 1194.85 -2.44279 -5.48131 0
M  V30 12902 H 1195.92 -2.62173 -4.07914 0
M  V30 12903 N 1197.26 1.39987 -0.723979 0
M  V30 12904 C 1198.19 2.28185 -0.0257726 0
M  V30 12905 C 1199.17 1.43795 0.75907 0
M  V30 12906 O 1200.36 1.73198 0.743948 0
M  V30 12907 C 1197.48 3.24489 0.970811 0
M  V30 12908 C 1196.53 4.25607 0.275778 0
M  V30 12909 S 1197.36 5.26035 -1.00237 0
M  V30 12910 C 1198.52 6.25899 -0.00809987 0
M  V30 12911 H 1198.75 2.87054 -0.773761 0
M  V30 12912 H 1196.28 1.45546 -0.515332 0
M  V30 12913 H 1198.24 3.80496 1.54055 0
M  V30 12914 H 1196.9 2.6466 1.69156 0
M  V30 12915 H 1196.1 4.93374 1.02946 0
M  V30 12916 H 1195.7 3.73343 -0.22163 0
M  V30 12917 H 1197.99 6.72323 0.835971 0
M  V30 12918 H 1198.93 7.05086 -0.652607 0
M  V30 12919 H 1199.34 5.63355 0.359377 0
M  V30 12920 N 1198.74 0.470782 1.50404 0
M  V30 12921 C 1199.67 -0.313458 2.31386 0
M  V30 12922 C 1200.65 -0.990623 1.38278 0
M  V30 12923 O 1201.84 -0.987854 1.67198 0
M  V30 12924 C 1198.97 -1.39599 3.18009 0
M  V30 12925 C 1197.92 -0.840443 4.19667 0
M  V30 12926 C 1197.25 -2.02124 4.95025 0
M  V30 12927 C 1198.55 0.148055 5.2209 0
M  V30 12928 H 1200.24 0.362432 2.97198 0
M  V30 12929 H 1197.79 0.175745 1.42924 0
M  V30 12930 H 1199.74 -1.9521 3.73458 0
M  V30 12931 H 1198.46 -2.10064 2.50081 0
M  V30 12932 H 1197.12 -0.306302 3.65318 0
M  V30 12933 H 1196.77 -2.71286 4.23571 0
M  V30 12934 H 1196.47 -1.65574 5.6379 0
M  V30 12935 H 1197.99 -2.58226 5.5331 0
M  V30 12936 H 1199.41 -0.318874 5.72413 0
M  V30 12937 H 1197.8 0.427811 5.98573 0
M  V30 12938 H 1198.87 1.07404 4.72855 0
M  V30 12939 N 1200.22 -1.56282 0.203376 0
M  V30 12940 C 1201.15 -2.2247 -0.709183 0
M  V30 12941 C 1202.13 -1.19046 -1.21499 0
M  V30 12942 O 1203.31 -1.47578 -1.26231 0
M  V30 12943 C 1200.44 -2.8905 -1.92529 0
M  V30 12944 C 1199.4 -3.98789 -1.55407 0
M  V30 12945 C 1198.72 -4.52574 -2.84747 0
M  V30 12946 C 1200.02 -5.16774 -0.75775 0
M  V30 12947 H 1201.72 -2.98986 -0.157392 0
M  V30 12948 H 1199.26 -1.43808 -0.0742613 0
M  V30 12949 H 1201.22 -3.34038 -2.56898 0
M  V30 12950 H 1199.94 -2.09952 -2.50175 0
M  V30 12951 H 1198.6 -3.54504 -0.933928 0
M  V30 12952 H 1198.25 -3.70229 -3.40499 0
M  V30 12953 H 1197.95 -5.26627 -2.6065 0
M  V30 12954 H 1199.47 -5.00269 -3.5009 0
M  V30 12955 H 1200.89 -5.58256 -1.30472 0
M  V30 12956 H 1199.28 -5.96945 -0.614583 0
M  V30 12957 H 1200.35 -4.84308 0.239476 0
M  V30 12958 N 1201.7 0.070167 -1.57444 0
M  V30 12959 C 1203.11 0.424991 -1.53838 0
M  V30 12960 C 1203.31 1.79076 -0.923793 0
M  V30 12961 O 1202.37 2.46939 -0.527002 0
M  V30 12962 C 1203.68 0.364562 -2.98482 0
M  V30 12963 C 1205.23 0.444631 -3.09826 0
M  V30 12964 C 1205.7 0.414093 -4.56124 0
M  V30 12965 N 1207.19 0.474119 -4.60767 0
M  V30 12966 C 1207.93 0.472729 -5.71448 0
M  V30 12967 N 1207.43 0.426059 -6.91489 0
M  V30 12968 N 1209.22 0.519408 -5.59695 0
M  V30 12969 H 1201.37 -0.824117 -1.9576 0
M  V30 12970 H 1203.63 -0.309401 -0.896089 0
M  V30 12971 H 1203.34 -0.572343 -3.47012 0
M  V30 12972 H 1203.21 1.17414 -3.5846 0
M  V30 12973 H 1205.6 1.37196 -2.61269 0
M  V30 12974 H 1205.68 -0.393547 -2.52755 0
M  V30 12975 H 1205.32 -0.509394 -5.05339 0
M  V30 12976 H 1205.25 1.26983 -5.11061 0
M  V30 12977 H 1207.75 0.514371 -3.74383 0
M  V30 12978 H 1208.06 0.428969 -7.71609 0
M  V30 12979 H 1206.4 0.392722 -6.9389 0
M  V30 12980 H 1209.59 0.553573 -4.64815 0
M  V30 12981 H 1209.77 0.514856 -6.45951 0
M  V30 12982 N 1203.17 1.53854 0.341593 0
M  V30 12983 C 1204.11 1.78295 1.44027 0
M  V30 12984 C 1205.12 0.664303 1.4863 0
M  V30 12985 O 1206.31 0.941073 1.51678 0
M  V30 12986 C 1203.41 1.86947 2.82673 0
M  V30 12987 C 1202.58 3.16898 3.01487 0
M  V30 12988 C 1201.64 3.16483 4.20386 0
M  V30 12989 O 1200.67 3.90197 4.14409 0
M  V30 12990 N 1201.87 2.3899 5.29022 0
M  V30 12991 H 1204.63 2.73102 1.23431 0
M  V30 12992 H 1202.19 1.52928 0.531483 0
M  V30 12993 H 1204.19 1.84118 3.60392 0
M  V30 12994 H 1202.76 0.993169 2.96403 0
M  V30 12995 H 1201.98 3.32835 2.11221 0
M  V30 12996 H 1203.26 4.02733 3.1094 0
M  V30 12997 H 1202.66 1.78657 5.36748 0
M  V30 12998 H 1201.22 2.41957 6.05227 0
M  V30 12999 N 1204.65 -0.602709 1.4562 0
M  V30 13000 C 1205.88 -1.39299 1.53657 0
M  V30 13001 C 1206.3 -1.87315 0.171632 0
M  V30 13002 O 1205.66 -1.60423 -0.844639 0
M  V30 13003 C 1205.71 -2.57021 2.52928 0
M  V30 13004 O 1204.81 -3.57812 2.05047 0
M  V30 13005 H 1204.15 -0.41567 0.517798 0
M  V30 13006 H 1206.68 -0.73304 1.91018 0
M  V30 13007 H 1206.69 -3.04202 2.71892 0
M  V30 13008 H 1205.37 -2.21422 3.52058 0
M  V30 13009 H 1203.94 -3.17247 1.95981 0
M  V30 13010 N 1206.13 -1.32992 -0.845635 0
M  V30 13011 C 1207.54 -1.21616 -1.41656 0
M  V30 13012 C 1207.89 0.167687 -1.95482 0
M  V30 13013 O 1207.02 1.06692 -1.8827 0
M  V30 13014 C 1207.61 -2.2018 -2.575 0
M  V30 13015 C 1206.17 -2.12664 -3.10565 0
M  V30 13016 C 1205.32 -2.08042 -1.83341 0
M  V30 13017 H 1208.27 -1.44688 -0.651993 0
M  V30 13018 H 1208.29 -1.80558 -3.34931 0
M  V30 13019 H 1207.8 -3.20888 -2.18294 0
M  V30 13020 H 1205.9 -1.15235 -3.54333 0
M  V30 13021 H 1206.02 -3.02902 -3.71197 0
M  V30 13022 H 1204.38 -1.53416 -2.03312 0
M  V30 13023 H 1205.16 -3.10547 -1.46339 0
M  V30 13024 N 1207.61 1.06304 -1.1635 0
M  V30 13025 C 1208.84 1.82799 -0.96913 0
M  V30 13026 C 1209.25 1.82526 0.482659 0
M  V30 13027 O 1208.61 1.24437 1.33498 0
M  V30 13028 C 1208.66 3.29417 -1.48884 0
M  V30 13029 O 1208.38 3.29803 -2.88377 0
M  V30 13030 C 1209.88 4.22642 -1.33748 0
M  V30 13031 H 1207.1 0.576388 -0.343537 0
M  V30 13032 H 1209.64 1.34122 -1.54375 0
M  V30 13033 H 1207.8 3.75406 -0.956509 0
M  V30 13034 H 1208.21 4.21486 -3.1217 0
M  V30 13035 H 1209.69 5.23545 -1.74942 0
M  V30 13036 H 1210.16 4.38287 -0.283021 0
M  V30 13037 H 1210.77 3.82499 -1.85942 0
M  V30 13038 N 1209.09 0.96196 1.24836 0
M  V30 13039 C 1210.5 0.660388 1.7463 0
M  V30 13040 C 1210.85 -0.824064 1.78055 0
M  V30 13041 O 1209.97 -1.64485 1.40619 0
M  V30 13042 C 1210.57 1.19205 3.17137 0
M  V30 13043 C 1209.13 0.940493 3.64461 0
M  V30 13044 C 1208.27 1.33076 2.43282 0
M  V30 13045 H 1211.22 1.13794 1.1062 0
M  V30 13046 H 1211.25 0.555595 3.76422 0
M  V30 13047 H 1210.76 2.27247 3.14612 0
M  V30 13048 H 1208.86 -0.124645 3.72391 0
M  V30 13049 H 1208.97 1.5821 4.52224 0
M  V30 13050 H 1207.34 0.749139 2.43434 0
M  V30 13051 H 1208.12 2.42055 2.43442 0
M  V30 13052 N 1210.56 -1.39601 0.731392 0
M  V30 13053 C 1211.51 -2.27907 0.0651931 0
M  V30 13054 C 1212.5 -1.44075 -0.716334 0
M  V30 13055 O 1213.69 -1.6702 -0.585936 0
M  V30 13056 C 1210.82 -3.32763 -0.844023 0
M  V30 13057 C 1209.9 -4.24062 -0.0568388 0
M  V30 13058 N 1210.3 -4.96448 0.968146 0
M  V30 13059 C 1208.59 -4.45075 -0.287037 0
M  V30 13060 C 1209.29 -5.6353 1.44252 0
M  V30 13061 N 1208.27 -5.38236 0.761772 0
M  V30 13062 H 1212.07 -2.81324 0.850539 0
M  V30 13063 H 1209.59 -1.5224 0.565396 0
M  V30 13064 H 1211.58 -3.94888 -1.33674 0
M  V30 13065 H 1210.24 -2.80905 -1.62857 0
M  V30 13066 H 1211.25 -5.00011 1.34942 0
M  V30 13067 H 1207.93 -4.04167 -1.04667 0
M  V30 13068 H 1209.32 -6.31487 2.29508 0
M  V30 13069 N 1212.04 -0.478751 -1.50152 0
M  V30 13070 C 1213.29 0.0734397 -2.01967 0
M  V30 13071 C 1213.61 1.39523 -1.36229 0
M  V30 13072 O 1212.88 1.89141 -0.510149 0
M  V30 13073 H 1211.46 0.0301305 -0.746392 0
M  V30 13074 H 1214.12 -0.630921 -1.84406 0
M  V30 13075 H 1213.22 0.21937 -3.11328 0
M  V30 13076 N 1213.52 1.56172 -0.211661 0
M  V30 13077 C 1214.45 2.22843 0.697375 0
M  V30 13078 C 1215.43 1.19689 1.20866 0
M  V30 13079 O 1216.62 1.48245 1.25447 0
M  V30 13080 C 1213.75 2.90067 1.90993 0
M  V30 13081 C 1212.7 3.99608 1.5329 0
M  V30 13082 C 1212.03 4.54078 2.82343 0
M  V30 13083 C 1213.33 5.17169 0.730333 0
M  V30 13084 H 1215.02 2.99065 0.141533 0
M  V30 13085 H 1212.57 1.43846 0.0666337 0
M  V30 13086 H 1214.52 3.35396 2.55123 0
M  V30 13087 H 1213.24 2.11276 2.49058 0
M  V30 13088 H 1211.9 3.54995 0.915115 0
M  V30 13089 H 1211.55 3.72029 3.38531 0
M  V30 13090 H 1211.25 5.28001 2.57853 0
M  V30 13091 H 1212.77 5.02119 3.47432 0
M  V30 13092 H 1214.19 5.5894 1.2751 0
M  V30 13093 H 1212.59 5.97262 0.582916 0
M  V30 13094 H 1213.66 4.84174 -0.265157 0
M  V30 13095 N 1215 -0.0618163 1.57479 0
M  V30 13096 C 1216.22 -0.775513 1.92355 0
M  V30 13097 C 1216.65 -1.69816 0.808949 0
M  V30 13098 O 1216.01 -1.79736 -0.23761 0
M  V30 13099 C 1216.05 -1.5367 3.26218 0
M  V30 13100 O 1215.16 -2.64802 3.16155 0
M  V30 13101 H 1214.5 -0.210909 0.629614 0
M  V30 13102 H 1217.03 -0.0270752 2.04582 0
M  V30 13103 H 1217.04 -1.91379 3.6033 0
M  V30 13104 H 1215.71 -0.859798 4.06916 0
M  V30 13105 H 1214.29 -2.29876 2.93618 0
M  V30 13106 N 1216.48 -1.54033 -0.333429 0
M  V30 13107 C 1217.41 -1.85719 -1.4153 0
M  V30 13108 C 1218.39 -0.713144 -1.54429 0
M  V30 13109 O 1219.57 -0.965984 -1.68471 0
M  V30 13110 C 1216.7 -2.07578 -2.78439 0
M  V30 13111 C 1215.66 -3.23411 -2.80338 0
M  V30 13112 C 1214.98 -3.30622 -4.2023 0
M  V30 13113 C 1216.28 -4.6129 -2.44968 0
M  V30 13114 H 1217.98 -2.76325 -1.15261 0
M  V30 13115 H 1215.52 -1.32957 -0.55303 0
M  V30 13116 H 1217.48 -2.28329 -3.5418 0
M  V30 13117 H 1216.2 -1.13713 -3.06165 0
M  V30 13118 H 1214.86 -3.02531 -2.07052 0
M  V30 13119 H 1214.51 -2.34333 -4.45081 0
M  V30 13120 H 1214.21 -4.08466 -4.22409 0
M  V30 13121 H 1215.73 -3.53596 -4.97798 0
M  V30 13122 H 1217.14 -4.81987 -3.10421 0
M  V30 13123 H 1215.54 -5.41611 -2.58414 0
M  V30 13124 H 1216.61 -4.6421 -1.40134 0
M  V30 13125 N 1217.95 0.594978 -1.45938 0
M  V30 13126 C 1219.18 1.38482 -1.54394 0
M  V30 13127 C 1219.6 1.87222 -0.181563 0
M  V30 13128 O 1218.96 1.60869 0.836119 0
M  V30 13129 C 1219.01 2.55676 -2.54287 0
M  V30 13130 O 1218.11 3.5672 -2.06941 0
M  V30 13131 H 1217.46 0.412918 -0.519995 0
M  V30 13132 H 1219.99 0.722899 -1.91404 0
M  V30 13133 H 1220 3.02756 -2.73501 0
M  V30 13134 H 1218.67 2.19552 -3.53228 0
M  V30 13135 H 1217.25 3.16204 -1.97661 0
M  V30 13136 N 1219.43 1.33438 0.838571 0
M  V30 13137 C 1220.71 1.1551 1.5785 0
M  V30 13138 C 1221.09 -0.278405 2.09256 0
M  V30 13139 O 1220.44 -1.27748 1.89453 0
M  V30 13140 C 1220.65 2.19647 2.71212 0
M  V30 13141 C 1222 2.53818 3.40384 0
M  V30 13142 O 1223.02 2.18317 2.81454 0
M  V30 13143 O 1221.88 3.14741 4.46766 0
M  V30 13144 H 1218.97 0.446785 0.695925 0
M  V30 13145 H 1221.52 1.45021 0.8813 0
M  V30 13146 H 1220.29 3.15936 2.30869 0
M  V30 13147 H 1219.91 1.91224 3.48596 0
M  V30 13148 N 1220.91 -1.05686 1.16912 0
M  V30 13149 C 1221.84 -2.15268 0.904532 0
M  V30 13150 C 1222.82 -1.69424 -0.151548 0
M  V30 13151 O 1224.01 -1.942 -0.00235371 0
M  V30 13152 C 1221.14 -3.44853 0.411581 0
M  V30 13153 C 1220.09 -4.04237 1.40628 0
M  V30 13154 C 1219.42 -5.29105 0.771479 0
M  V30 13155 C 1220.72 -4.42303 2.77787 0
M  V30 13156 H 1222.41 -2.37659 1.82094 0
M  V30 13157 H 1219.96 -1.14217 0.876947 0
M  V30 13158 H 1221.91 -4.20857 0.213929 0
M  V30 13159 H 1220.63 -3.22099 -0.540352 0
M  V30 13160 H 1219.29 -3.30297 1.59058 0
M  V30 13161 H 1218.94 -5.02652 -0.187133 0
M  V30 13162 H 1218.64 -5.69797 1.43545 0
M  V30 13163 H 1220.16 -6.07801 0.583988 0
M  V30 13164 H 1221.58 -5.09362 2.63103 0
M  V30 13165 H 1219.98 -4.93997 3.40716 0
M  V30 13166 H 1221.05 -3.52877 3.32575 0
M  V30 13167 N 1222.39 -0.968567 -1.24324 0
M  V30 13168 C 1223.32 -0.457247 -2.24593 0
M  V30 13169 C 1224.33 0.434483 -1.56895 0
M  V30 13170 O 1225.52 0.240519 -1.76872 0
M  V30 13171 C 1222.62 0.359086 -3.36992 0
M  V30 13172 C 1221.8 -0.522945 -4.34263 0
M  V30 13173 C 1220.85 0.237528 -5.25664 0
M  V30 13174 O 1219.88 -0.368835 -5.68004 0
M  V30 13175 N 1221.08 1.52686 -5.6006 0
M  V30 13176 H 1223.85 -1.31934 -2.69098 0
M  V30 13177 H 1221.41 -0.840488 -1.38374 0
M  V30 13178 H 1223.4 0.87589 -3.95108 0
M  V30 13179 H 1221.97 1.12212 -2.91766 0
M  V30 13180 H 1221.19 -1.22071 -3.74823 0
M  V30 13181 H 1222.48 -1.12447 -4.96219 0
M  V30 13182 H 1221.88 2.0412 -5.2759 0
M  V30 13183 H 1220.43 1.98934 -6.207 0
M  V30 13184 N 1223.87 1.39211 -0.738786 0
M  V30 13185 C 1224.78 2.34374 -0.102958 0
M  V30 13186 C 1225.79 1.58514 0.717596 0
M  V30 13187 O 1226.97 1.90786 0.645186 0
M  V30 13188 C 1224.03 3.37562 0.790733 0
M  V30 13189 C 1223.09 4.29279 -0.0425028 0
M  V30 13190 C 1222.33 5.27539 0.808628 0
M  V30 13191 O 1222.55 5.32396 2.04722 0
M  V30 13192 O 1221.48 6.0144 0.235279 0
M  V30 13193 H 1225.31 2.90412 -0.888498 0
M  V30 13194 H 1222.9 1.40803 -0.499498 0
M  V30 13195 H 1224.78 4.00783 1.30196 0
M  V30 13196 H 1223.45 2.83903 1.55502 0
M  V30 13197 H 1222.36 3.69268 -0.599335 0
M  V30 13198 H 1223.69 4.86154 -0.7691 0
M  V30 13199 N 1225.34 0.486708 1.49896 0
M  V30 13200 C 1226.31 -0.288126 2.27382 0
M  V30 13201 C 1227.31 -0.906675 1.32801 0
M  V30 13202 O 1228.5 -0.773425 1.56089 0
M  V30 13203 C 1225.63 -1.41194 3.10285 0
M  V30 13204 H 1226.82 0.391618 2.97332 0
M  V30 13205 H 1224.38 0.24123 1.54427 0
M  V30 13206 H 1225.11 -2.12627 2.44868 0
M  V30 13207 H 1224.9 -0.974033 3.79809 0
M  V30 13208 H 1226.39 -1.95812 3.68846 0
M  V30 13209 N 1226.82 -1.56058 0.219941 0
M  V30 13210 C 1227.77 -2.20218 -0.690846 0
M  V30 13211 C 1228.74 -1.15725 -1.19151 0
M  V30 13212 O 1229.93 -1.44073 -1.2509 0
M  V30 13213 C 1227.07 -2.88477 -1.89408 0
M  V30 13214 C 1226.18 -4.07559 -1.43246 0
M  V30 13215 C 1225.31 -4.63605 -2.59314 0
M  V30 13216 C 1224.35 -5.74993 -2.0988 0
M  V30 13217 N 1223.49 -6.25337 -3.19214 0
M  V30 13218 H 1228.33 -2.97685 -0.136992 0
M  V30 13219 H 1225.87 -1.46994 -0.055865 0
M  V30 13220 H 1227.82 -3.26235 -2.60051 0
M  V30 13221 H 1226.45 -2.1353 -2.42084 0
M  V30 13222 H 1225.51 -3.75297 -0.621013 0
M  V30 13223 H 1226.82 -4.8805 -1.02997 0
M  V30 13224 H 1225.97 -5.03798 -3.38041 0
M  V30 13225 H 1224.71 -3.82274 -3.0285 0
M  V30 13226 H 1223.72 -5.34304 -1.29613 0
M  V30 13227 H 1224.94 -6.58158 -1.67345 0
M  V30 13228 H 1222.89 -5.4692 -3.62236 0
M  V30 13229 H 1222.8 -7.00947 -2.83213 0
M  V30 13230 H 1224.07 -6.70187 -3.98083 0
M  V30 13231 N 1228.3 0.053464 -1.57509 0
M  V30 13232 C 1229.53 0.760429 -1.92096 0
M  V30 13233 C 1229.94 1.70703 -0.815905 0
M  V30 13234 O 1229.28 1.82398 0.218332 0
M  V30 13235 C 1229.34 1.59255 -3.22301 0
M  V30 13236 C 1229.01 0.813355 -4.49704 0
M  V30 13237 C 1230.01 0.124402 -5.19751 0
M  V30 13238 C 1227.69 0.775106 -4.96284 0
M  V30 13239 C 1229.68 -0.59237 -6.34641 0
M  V30 13240 C 1227.37 0.0545728 -6.11076 0
M  V30 13241 C 1228.37 -0.627948 -6.80107 0
M  V30 13242 O 1228.06 -1.33683 -7.92707 0
M  V30 13243 H 1227.79 0.220287 -0.639101 0
M  V30 13244 H 1230.34 0.0224505 -2.05388 0
M  V30 13245 H 1228.57 2.37376 -3.05269 0
M  V30 13246 H 1230.26 2.17987 -3.42398 0
M  V30 13247 H 1231.03 0.145141 -4.84783 0
M  V30 13248 H 1226.91 1.29583 -4.42413 0
M  V30 13249 H 1230.45 -1.12565 -6.88458 0
M  V30 13250 H 1226.35 0.0318254 -6.45492 0
M  V30 13251 H 1227.12 -1.24799 -8.0893 0
M  V30 13252 N 1229.78 1.54207 0.325255 0
M  V30 13253 C 1230.69 1.86495 1.42326 0
M  V30 13254 C 1231.71 0.756718 1.56684 0
M  V30 13255 O 1232.88 1.05084 1.71812 0
M  V30 13256 C 1229.95 2.08414 2.77064 0
M  V30 13257 C 1229.01 3.32221 2.71897 0
M  V30 13258 C 1228.24 3.53085 4.00209 0
M  V30 13259 O 1228.46 2.77421 4.98391 0
M  V30 13260 O 1227.4 4.46559 4.0357 0
M  V30 13261 H 1231.22 2.79859 1.17951 0
M  V30 13262 H 1228.81 1.40091 0.519124 0
M  V30 13263 H 1230.69 2.24171 3.56827 0
M  V30 13264 H 1229.37 1.18238 3.01333 0
M  V30 13265 H 1228.27 3.21851 1.90691 0
M  V30 13266 H 1229.61 4.22449 2.52582 0
M  V30 13267 N 1231.26 -0.58723 1.46251 0
M  V30 13268 C 1232.49 -1.37174 1.5489 0
M  V30 13269 C 1232.9 -1.87857 0.188445 0
M  V30 13270 O 1232.26 -1.63365 -0.813509 0
M  V30 13271 C 1232.31 -2.56237 2.55 0
M  V30 13272 O 1232.03 -2.07655 3.8576 0
M  V30 13273 C 1233.53 -3.48846 2.73535 0
M  V30 13274 H 1230.75 -0.419211 0.523931 0
M  V30 13275 H 1233.29 -0.714307 1.91619 0
M  V30 13276 H 1231.45 -3.1798 2.21287 0
M  V30 13277 H 1231.86 -2.85161 4.40208 0
M  V30 13278 H 1233.34 -4.2888 3.47514 0
M  V30 13279 H 1233.81 -4.00493 1.80282 0
M  V30 13280 H 1234.42 -2.92942 3.08326 0
M  V30 13281 N 1232.74 -1.33881 -0.831482 0
M  V30 13282 C 1233.98 -1.25755 -1.58719 0
M  V30 13283 C 1234.31 0.174746 -1.93713 0
M  V30 13284 O 1233.57 1.13384 -1.59507 0
M  V30 13285 C 1233.86 -2.08544 -2.90249 0
M  V30 13286 C 1233.53 -3.57651 -2.74585 0
M  V30 13287 C 1232.19 -3.983 -2.7002 0
M  V30 13288 C 1234.54 -4.52369 -2.58866 0
M  V30 13289 C 1231.87 -5.31872 -2.47647 0
M  V30 13290 C 1234.22 -5.86112 -2.38025 0
M  V30 13291 C 1232.89 -6.25934 -2.31867 0
M  V30 13292 H 1232.16 -0.460171 -0.580796 0
M  V30 13293 H 1234.81 -1.6554 -0.96274 0
M  V30 13294 H 1233.11 -1.6156 -3.56939 0
M  V30 13295 H 1234.81 -1.99609 -3.47789 0
M  V30 13296 H 1231.4 -3.2538 -2.78973 0
M  V30 13297 H 1235.58 -4.21868 -2.61421 0
M  V30 13298 H 1230.84 -5.61756 -2.41331 0
M  V30 13299 H 1235.01 -6.59103 -2.24847 0
M  V30 13300 H 1232.64 -7.29372 -2.14291 0
M  V30 13301 N 1234.21 1.05064 -1.1747 0
M  V30 13302 C 1235.44 1.82299 -0.98903 0
M  V30 13303 C 1235.86 1.82441 0.457907 0
M  V30 13304 O 1235.22 1.23433 1.32793 0
M  V30 13305 C 1235.27 3.26239 -1.53624 0
M  V30 13306 O 1234.37 4.05507 -0.750857 0
M  V30 13307 H 1233.71 0.563601 -0.35107 0
M  V30 13308 H 1236.24 1.32386 -1.55997 0
M  V30 13309 H 1236.25 3.77038 -1.55906 0
M  V30 13310 H 1234.93 3.25451 -2.58949 0
M  V30 13311 H 1233.51 3.64227 -0.799548 0
M  V30 13312 N 1235.69 0.975146 1.23809 0
M  V30 13313 C 1236.97 0.557725 1.8748 0
M  V30 13314 C 1237.35 -0.965164 1.87744 0
M  V30 13315 O 1236.7 -1.83966 1.35531 0
M  V30 13316 C 1236.91 1.15777 3.29236 0
M  V30 13317 C 1238.25 1.24726 4.05868 0
M  V30 13318 O 1239.28 1.11084 3.38436 0
M  V30 13319 O 1238.14 1.46373 5.26533 0
M  V30 13320 H 1235.23 0.187045 0.80557 0
M  V30 13321 H 1237.78 1.06989 1.31725 0
M  V30 13322 H 1236.55 2.20023 3.23583 0
M  V30 13323 H 1236.17 0.630103 3.92575 0
M  V30 13324 N 1237.17 -1.38817 0.746158 0
M  V30 13325 C 1238.45 -1.94303 0.224841 0
M  V30 13326 C 1238.83 -1.68207 -1.27552 0
M  V30 13327 O 1238.17 -1.01647 -2.04646 0
M  V30 13328 C 1238.38 -3.44306 0.5705 0
M  V30 13329 C 1239.73 -4.21329 0.526015 0
M  V30 13330 O 1240.76 -3.52554 0.508351 0
M  V30 13331 O 1239.62 -5.4392 0.530383 0
M  V30 13332 H 1236.71 -0.825785 0.0448047 0
M  V30 13333 H 1239.26 -1.48253 0.825775 0
M  V30 13334 H 1238.03 -3.56779 1.60701 0
M  V30 13335 H 1237.65 -3.97556 -0.0588271 0
M  V30 13336 N 1238.65 -0.49465 -1.49636 0
M  V30 13337 C 1240.06 -0.0452894 -1.86645 0
M  V30 13338 C 1240.41 1.36686 -1.40753 0
M  V30 13339 O 1239.53 2.01751 -0.78265 0
M  V30 13340 C 1240.13 -0.0754115 -3.38716 0
M  V30 13341 C 1238.69 0.318579 -3.75049 0
M  V30 13342 C 1237.84 -0.450712 -2.73613 0
M  V30 13343 H 1240.79 -0.707758 -1.42044 0
M  V30 13344 H 1240.81 0.721372 -3.73599 0
M  V30 13345 H 1240.32 -1.10331 -3.72087 0
M  V30 13346 H 1238.42 1.34995 -3.47285 0
M  V30 13347 H 1238.53 0.00354416 -4.791 0
M  V30 13348 H 1236.9 0.0986455 -2.54509 0
M  V30 13349 H 1237.68 -1.47857 -3.09828 0
M  V30 13350 N 1240.13 1.55939 -0.228214 0
M  V30 13351 C 1241.35 2.0332 0.409364 0
M  V30 13352 C 1241.78 1.10683 1.52088 0
M  V30 13353 O 1241.13 0.0962484 1.81044 0
M  V30 13354 C 1241.18 3.48877 0.911981 0
M  V30 13355 O 1240.29 3.59378 2.02289 0
M  V30 13356 H 1239.63 0.657625 0.0917909 0
M  V30 13357 H 1242.16 2.01605 -0.348802 0
M  V30 13358 H 1242.17 3.89331 1.22007 0
M  V30 13359 H 1240.84 4.15783 0.0984902 0
M  V30 13360 H 1239.42 3.30815 1.72093 0
M  V30 13361 N 1241.6 -0.0451101 1.57535 0
M  V30 13362 C 1243.02 -0.59372 1.77008 0
M  V30 13363 C 1243.37 -1.76482 0.857233 0
M  V30 13364 O 1242.49 -2.16347 0.0479703 0
M  V30 13365 C 1243.09 -1.08383 3.20996 0
M  V30 13366 C 1241.65 -1.57808 3.41721 0
M  V30 13367 C 1240.79 -0.509067 2.72587 0
M  V30 13368 H 1243.74 0.181114 1.57663 0
M  V30 13369 H 1243.76 -1.95181 3.26626 0
M  V30 13370 H 1243.28 -0.231276 3.8741 0
M  V30 13371 H 1241.38 -2.45302 2.8046 0
M  V30 13372 H 1241.49 -1.63664 4.50279 0
M  V30 13373 H 1239.85 -0.960389 2.359 0
M  V30 13374 H 1240.64 0.333753 3.41674 0
M  V30 13375 N 1243.08 -1.54377 -0.317073 0
M  V30 13376 C 1244.33 -1.72551 -1.05216 0
M  V30 13377 C 1244.65 -0.5055 -1.88334 0
M  V30 13378 O 1243.92 0.480439 -1.89917 0
M  V30 13379 H 1242.5 -0.636222 -0.391447 0
M  V30 13380 H 1245.16 -1.91696 -0.35194 0
M  V30 13381 H 1244.26 -2.60791 -1.71448 0
M  V30 13382 N 1244.56 0.579466 -1.4656 0
M  V30 13383 C 1245.52 1.67033 -1.56948 0
M  V30 13384 C 1246.52 1.54481 -0.446361 0
M  V30 13385 O 1247.71 1.5904 -0.710767 0
M  V30 13386 C 1244.85 3.06474 -1.49286 0
M  V30 13387 H 1246.04 1.59179 -2.54169 0
M  V30 13388 H 1243.59 0.797573 -1.34419 0
M  V30 13389 H 1244.33 3.1988 -0.533572 0
M  V30 13390 H 1244.11 3.16993 -2.30776 0
M  V30 13391 H 1245.6 3.85879 -1.59648 0
M  V30 13392 N 1246.04 1.3432 0.824371 0
M  V30 13393 C 1247.29 1.25938 1.57552 0
M  V30 13394 C 1247.6 -0.169298 1.94866 0
M  V30 13395 O 1248.81 -0.375262 2.68894 0
M  V30 13396 C 1247.26 2.20757 2.84244 0
M  V30 13397 C 1246.87 3.68873 2.54237 0
M  V30 13398 C 1248.61 2.21279 3.62265 0
M  V30 13399 C 1246.52 4.55566 3.77113 0
M  V30 13400 H 1245.45 0.467832 0.591311 0
M  V30 13401 H 1248.1 1.59476 0.907724 0
M  V30 13402 H 1246.48 1.80168 3.52641 0
M  V30 13403 H 1247.66 4.17991 1.93959 0
M  V30 13404 H 1245.97 3.70784 1.89494 0
M  V30 13405 H 1248.57 2.83272 4.53499 0
M  V30 13406 H 1248.91 1.2117 3.98276 0
M  V30 13407 H 1249.45 2.60305 3.00809 0
M  V30 13408 H 1246.19 5.56605 3.46223 0
M  V30 13409 H 1245.71 4.11184 4.36678 0
M  V30 13410 H 1247.38 4.701 4.44539 0
M  V30 13411 N 1247.52 -1.0444 1.18026 0
M  V30 13412 C 1248.79 -1.74533 0.883045 0
M  V30 13413 C 1249.17 -2.01944 -0.614975 0
M  V30 13414 O 1248.52 -1.66158 -1.56855 0
M  V30 13415 C 1248.73 -3.0332 1.72621 0
M  V30 13416 C 1250.08 -3.77128 1.9509 0
M  V30 13417 O 1251.1 -3.13209 1.69643 0
M  V30 13418 O 1249.96 -4.92001 2.37903 0
M  V30 13419 H 1247.06 -0.759315 0.327673 0
M  V30 13420 H 1249.6 -1.10539 1.2876 0
M  V30 13421 H 1248.37 -2.79171 2.74188 0
M  V30 13422 H 1248 -3.75052 1.31993 0
M  V30 13423 N 1248.99 -0.981699 -1.2329 0
M  V30 13424 C 1250.22 -0.669025 -1.96313 0
M  V30 13425 C 1250.64 0.757624 -1.72168 0
M  V30 13426 O 1250 1.51626 -0.993942 0
M  V30 13427 C 1250.05 -0.966875 -3.47396 0
M  V30 13428 O 1249.15 -0.0595933 -4.12357 0
M  V30 13429 H 1248.5 -0.251493 -0.61453 0
M  V30 13430 H 1251.03 -1.31564 -1.56691 0
M  V30 13431 H 1251.04 -0.904112 -3.97857 0
M  V30 13432 H 1249.71 -2.00651 -3.64296 0
M  V30 13433 H 1248.29 -0.176878 -3.7248 0
M  V30 13434 N 1250.47 1.3842 -0.753509 0
M  V30 13435 C 1251.42 2.32315 -0.115107 0
M  V30 13436 C 1252.41 1.54015 0.705398 0
M  V30 13437 O 1253.62 1.69546 0.604505 0
M  V30 13438 H 1250 0.751774 -0.0184276 0
M  V30 13439 H 1251.97 2.83763 -0.923094 0
M  V30 13440 C 1250.72 3.39206 0.763849 0
M  V30 13441 H 1250.04 3.99548 0.14187 0
M  V30 13442 H 1251.48 4.07312 1.17783 0
M  V30 13443 C 1249.94 2.77771 1.90643 0
M  V30 13444 O 1250.47 2.67073 3.00058 0
M  V30 13445 N 1248.67 2.35582 1.70145 0
M  V30 13446 H 1248.22 2.44483 0.811528 0
M  V30 13447 H 1248.18 1.9482 2.46764 0
M  V30 13448 N 1251.95 0.502579 1.49372 0
M  V30 13449 C 1252.9 -0.288693 2.30801 0
M  V30 13450 C 1253.89 -0.961303 1.39482 0
M  V30 13451 O 1255.1 -0.888812 1.56525 0
M  V30 13452 H 1251.47 -0.111958 0.743619 0
M  V30 13453 H 1253.44 0.418062 2.95457 0
M  V30 13454 C 1252.19 -1.33938 3.20867 0
M  V30 13455 H 1251.52 -0.831219 3.91064 0
M  V30 13456 H 1252.96 -1.86498 3.80781 0
M  V30 13457 C 1251.42 -2.35839 2.40586 0
M  V30 13458 O 1251.95 -3.41752 2.11113 0
M  V30 13459 N 1250.15 -2.0835 2.0258 0
M  V30 13460 H 1249.7 -1.2224 2.26749 0
M  V30 13461 H 1249.66 -2.76758 1.49173 0
M  V30 13462 N 1253.43 -1.55816 0.23648 0
M  V30 13463 C 1254.65 -2.03534 -0.398575 0
M  V30 13464 C 1255.08 -1.11488 -1.51499 0
M  V30 13465 O 1254.44 -0.105848 -1.80991 0
M  V30 13466 C 1254.48 -3.49356 -0.893467 0
M  V30 13467 O 1253.59 -3.60446 -2.00381 0
M  V30 13468 H 1252.93 -0.658102 -0.0883021 0
M  V30 13469 H 1255.46 -2.01417 0.359488 0
M  V30 13470 H 1255.47 -3.89972 -1.19941 0
M  V30 13471 H 1254.14 -4.1583 -0.0764388 0
M  V30 13472 H 1252.72 -3.31723 -1.70336 0
M  V30 13473 N 1254.91 0.036755 -1.57557 0
M  V30 13474 C 1255.84 1.03939 -2.09091 0
M  V30 13475 C 1256.82 1.38196 -0.991761 0
M  V30 13476 O 1258 1.47214 -1.26656 0
M  V30 13477 C 1255.13 2.34263 -2.56394 0
M  V30 13478 C 1254.09 2.14269 -3.70504 0
M  V30 13479 C 1253.41 3.50286 -4.03985 0
M  V30 13480 C 1254.71 1.53514 -4.9923 0
M  V30 13481 H 1256.41 0.610429 -2.93111 0
M  V30 13482 H 1253.95 0.292183 -1.41005 0
M  V30 13483 H 1255.91 3.04727 -2.91066 0
M  V30 13484 H 1254.63 2.79205 -1.69447 0
M  V30 13485 H 1253.29 1.46239 -3.36169 0
M  V30 13486 H 1252.94 3.92861 -3.14116 0
M  V30 13487 H 1252.64 3.37735 -4.80842 0
M  V30 13488 H 1254.16 4.22124 -4.41184 0
M  V30 13489 H 1255.57 2.13885 -5.31908 0
M  V30 13490 H 1253.97 1.51561 -5.80646 0
M  V30 13491 H 1255.04 0.500126 -4.82314 0
M  V30 13492 N 1256.39 1.54543 0.308881 0
M  V30 13493 C 1257.61 1.77753 1.06857 0
M  V30 13494 C 1258.04 0.531616 1.80431 0
M  V30 13495 O 1257.39 -0.517513 1.73757 0
M  V30 13496 C 1257.44 2.97968 2.03094 0
M  V30 13497 O 1256.55 2.70541 3.11257 0
M  V30 13498 H 1255.89 0.588576 0.307368 0
M  V30 13499 H 1258.42 2.01607 0.348703 0
M  V30 13500 H 1258.43 3.25722 2.45702 0
M  V30 13501 H 1257.1 3.88314 1.48948 0
M  V30 13502 H 1255.68 2.53781 2.7322 0
M  V30 13503 N 1257.86 -0.571685 1.46866 0
M  V30 13504 C 1258.77 -1.70758 1.60869 0
M  V30 13505 C 1259.79 -1.66903 0.49186 0
M  V30 13506 O 1260.97 -1.86613 0.757468 0
M  V30 13507 C 1258.03 -3.07267 1.60586 0
M  V30 13508 C 1257.09 -3.22301 2.83585 0
M  V30 13509 C 1256.32 -4.52298 2.83306 0
M  V30 13510 O 1256.55 -5.36869 1.92685 0
M  V30 13511 O 1255.48 -4.70814 3.7499 0
M  V30 13512 H 1259.31 -1.6189 2.56954 0
M  V30 13513 H 1256.89 -0.740018 1.29785 0
M  V30 13514 H 1258.77 -3.8853 1.63163 0
M  V30 13515 H 1257.45 -3.16549 0.676637 0
M  V30 13516 H 1256.36 -2.4049 2.86558 0
M  V30 13517 H 1257.69 -3.17916 3.75753 0
M  V30 13518 N 1259.34 -1.34755 -0.817236 0
M  V30 13519 C 1260.27 -1.21147 -1.93387 0
M  V30 13520 C 1261.25 -0.101788 -1.62281 0
M  V30 13521 O 1262.44 -0.267968 -1.86586 0
M  V30 13522 C 1259.56 -0.86301 -3.27521 0
M  V30 13523 C 1258.61 -1.98325 -3.77584 0
M  V30 13524 S 1259.44 -3.59751 -3.9666 0
M  V30 13525 C 1260.6 -3.26959 -5.33712 0
M  V30 13526 H 1260.83 -2.15667 -2.04634 0
M  V30 13527 H 1258.36 -1.19848 -0.973441 0
M  V30 13528 H 1260.32 -0.668754 -4.05016 0
M  V30 13529 H 1258.98 0.0639417 -3.14035 0
M  V30 13530 H 1258.18 -1.69332 -4.74703 0
M  V30 13531 H 1257.78 -2.13529 -3.07053 0
M  V30 13532 H 1260.07 -2.79126 -6.17329 0
M  V30 13533 H 1261.01 -4.23238 -5.67693 0
M  V30 13534 H 1261.42 -2.62996 -4.99493 0
M  V30 13535 N 1260.82 1.03812 -1.18578 0
M  V30 13536 C 1262.05 1.80702 -1.00769 0
M  V30 13537 C 1262.46 1.83509 0.443833 0
M  V30 13538 O 1261.82 1.2724 1.30829 0
M  V30 13539 C 1261.87 3.26185 -1.55838 0
M  V30 13540 O 1261.59 3.23612 -2.95308 0
M  V30 13541 C 1263.09 4.1971 -1.42682 0
M  V30 13542 H 1260.31 0.568972 -0.355685 0
M  V30 13543 H 1262.86 1.30817 -1.57185 0
M  V30 13544 H 1261.01 3.73293 -1.03592 0
M  V30 13545 H 1261.43 4.14769 -3.2104 0
M  V30 13546 H 1262.9 5.19716 -1.86008 0
M  V30 13547 H 1263.38 4.37588 -0.375924 0
M  V30 13548 H 1263.98 3.78469 -1.94013 0
M  V30 13549 N 1262.3 0.988223 1.22768 0
M  V30 13550 C 1263.25 0.505913 2.22316 0
M  V30 13551 C 1264.23 -0.423346 1.55231 0
M  V30 13552 O 1265.42 -0.250927 1.75212 0
M  V30 13553 C 1262.55 -0.182707 3.42813 0
M  V30 13554 C 1261.64 0.766582 4.17114 0
M  V30 13555 N 1262.03 1.91248 4.6825 0
M  V30 13556 C 1260.33 0.581503 4.42193 0
M  V30 13557 C 1261.03 2.50793 5.2486 0
M  V30 13558 N 1260 1.79106 5.13247 0
M  V30 13559 H 1263.81 1.37994 2.5949 0
M  V30 13560 H 1261.32 0.849888 1.38386 0
M  V30 13561 H 1263.32 -0.545595 4.13315 0
M  V30 13562 H 1261.98 -1.05292 3.07154 0
M  V30 13563 H 1262.99 2.29342 4.64352 0
M  V30 13564 H 1259.67 -0.243039 4.16792 0
M  V30 13565 H 1261.06 3.47609 5.74994 0
M  V30 13566 N 1263.78 -1.38018 0.760839 0
M  V30 13567 C 1265.02 -1.99952 0.320241 0
M  V30 13568 C 1265.35 -1.60397 -1.10014 0
M  V30 13569 O 1264.61 -0.836407 -1.76926 0
M  V30 13570 C 1264.9 -3.55168 0.398778 0
M  V30 13571 C 1264.57 -4.14457 1.77585 0
M  V30 13572 C 1263.23 -4.30363 2.15269 0
M  V30 13573 C 1265.58 -4.47089 2.67883 0
M  V30 13574 C 1262.91 -4.762 3.4271 0
M  V30 13575 C 1265.26 -4.94345 3.94722 0
M  V30 13576 C 1263.93 -5.08458 4.32466 0
M  V30 13577 H 1263.2 -0.731675 0.117185 0
M  V30 13578 H 1265.85 -1.64955 0.972736 0
M  V30 13579 H 1264.15 -3.90346 -0.337273 0
M  V30 13580 H 1265.85 -4.00981 0.0393393 0
M  V30 13581 H 1262.44 -4.02496 1.47292 0
M  V30 13582 H 1266.62 -4.34395 2.40031 0
M  V30 13583 H 1261.88 -4.85312 3.71863 0
M  V30 13584 H 1266.05 -5.18563 4.64828 0
M  V30 13585 H 1263.68 -5.43735 5.31278 0
M  V30 13586 N 1265.25 -0.510493 -1.49103 0
M  V30 13587 C 1266.67 -0.167061 -1.58723 0
M  V30 13588 C 1266.87 1.32886 -1.51471 0
M  V30 13589 O 1265.93 2.10559 -1.39359 0
M  V30 13590 C 1267.24 -0.752293 -2.91137 0
M  V30 13591 C 1268.79 -0.719258 -3.04624 0
M  V30 13592 C 1269.26 -1.28272 -4.39671 0
M  V30 13593 N 1270.75 -1.24383 -4.46187 0
M  V30 13594 C 1271.49 -1.6499 -5.4915 0
M  V30 13595 N 1270.98 -2.13235 -6.59168 0
M  V30 13596 N 1272.78 -1.56348 -5.39918 0
M  V30 13597 H 1264.93 -1.48296 -1.5206 0
M  V30 13598 H 1267.19 -0.615683 -0.72086 0
M  V30 13599 H 1266.9 -1.80178 -3.02041 0
M  V30 13600 H 1266.77 -0.218152 -3.76569 0
M  V30 13601 H 1269.16 0.321413 -2.93344 0
M  V30 13602 H 1269.24 -1.29065 -2.20852 0
M  V30 13603 H 1268.88 -2.32222 -4.51703 0
M  V30 13604 H 1268.81 -0.687179 -5.22097 0
M  V30 13605 H 1271.3 -0.890446 -3.67259 0
M  V30 13606 H 1271.62 -2.42266 -7.33844 0
M  V30 13607 H 1269.96 -2.17216 -6.60183 0
M  V30 13608 H 1273.15 -1.18469 -4.52861 0
M  V30 13609 H 1273.33 -1.88317 -6.20033 0
M  V30 13610 N 1266.73 1.55688 -0.24474 0
M  V30 13611 C 1268.14 1.84897 0.25882 0
M  V30 13612 C 1268.49 1.16653 1.57755 0
M  V30 13613 O 1267.62 0.444162 2.11793 0
M  V30 13614 C 1268.21 3.35434 0.476385 0
M  V30 13615 C 1266.77 3.64877 0.924213 0
M  V30 13616 C 1265.92 2.773 0.00021322 0
M  V30 13617 H 1268.87 1.51662 -0.467358 0
M  V30 13618 H 1268.89 3.56896 1.31929 0
M  V30 13619 H 1268.4 3.85076 -0.483567 0
M  V30 13620 H 1266.5 3.20711 1.89671 0
M  V30 13621 H 1266.62 4.72665 0.78257 0
M  V30 13622 H 1264.98 2.49517 0.511194 0
M  V30 13623 H 1265.76 3.29747 -0.955072 0
M  V30 13624 N 1268.21 -0.0283989 1.57574 0
M  V30 13625 C 1269.14 -1.05641 2.03403 0
M  V30 13626 C 1270.15 -1.32426 0.946953 0
M  V30 13627 O 1271.34 -1.29902 1.22425 0
M  V30 13628 C 1268.44 -2.39788 2.39489 0
M  V30 13629 C 1267.62 -2.32348 3.70585 0
M  V30 13630 C 1266.68 -3.4895 3.93853 0
M  V30 13631 O 1265.7 -3.28414 4.64901 0
M  V30 13632 N 1266.9 -4.7084 3.39543 0
M  V30 13633 H 1269.67 -0.665788 2.92211 0
M  V30 13634 H 1267.23 -0.21633 1.60448 0
M  V30 13635 H 1269.22 -3.16514 2.52193 0
M  V30 13636 H 1267.79 -2.70692 1.56348 0
M  V30 13637 H 1267.01 -1.40717 3.68229 0
M  V30 13638 H 1268.3 -2.24521 4.56582 0
M  V30 13639 H 1267.7 -4.90425 2.81956 0
M  V30 13640 H 1266.25 -5.44929 3.57625 0
M  V30 13641 N 1269.69 -1.54705 -0.300681 0
M  V30 13642 C 1270.62 -1.88679 -1.37559 0
M  V30 13643 C 1271.6 -0.74574 -1.52881 0
M  V30 13644 O 1272.78 -1.0015 -1.66384 0
M  V30 13645 C 1269.91 -2.13438 -2.73974 0
M  V30 13646 C 1268.87 -3.29284 -2.73415 0
M  V30 13647 C 1268.19 -3.39462 -4.13122 0
M  V30 13648 C 1269.49 -4.66382 -2.35128 0
M  V30 13649 H 1271.19 -2.78707 -1.09373 0
M  V30 13650 H 1268.73 -1.341 -0.524704 0
M  V30 13651 H 1270.69 -2.35791 -3.49257 0
M  V30 13652 H 1269.41 -1.20181 -3.03684 0
M  V30 13653 H 1268.07 -3.06855 -2.00588 0
M  V30 13654 H 1267.72 -2.43721 -4.4001 0
M  V30 13655 H 1267.42 -4.17334 -4.1365 0
M  V30 13656 H 1268.94 -3.64075 -4.90185 0
M  V30 13657 H 1270.36 -4.88463 -3.00128 0
M  V30 13658 H 1268.75 -5.4697 -2.46867 0
M  V30 13659 H 1269.82 -4.67078 -1.30256 0
M  V30 13660 N 1271.17 0.563888 -1.47167 0
M  V30 13661 C 1272.12 1.66687 -1.55562 0
M  V30 13662 C 1273.1 1.55455 -0.415024 0
M  V30 13663 O 1274.29 1.64051 -0.664557 0
M  V30 13664 C 1271.42 3.05469 -1.56665 0
M  V30 13665 C 1270.51 3.21928 -2.76085 0
M  V30 13666 N 1270.9 3.08477 -4.00844 0
M  V30 13667 C 1269.2 3.52913 -2.72706 0
M  V30 13668 C 1269.9 3.27447 -4.80784 0
M  V30 13669 N 1268.87 3.53474 -4.12986 0
M  V30 13670 H 1272.68 1.54846 -2.498 0
M  V30 13671 H 1270.19 0.76846 -1.43068 0
M  V30 13672 H 1272.19 3.84655 -1.60768 0
M  V30 13673 H 1270.85 3.18427 -0.635174 0
M  V30 13674 H 1271.86 2.85944 -4.31806 0
M  V30 13675 H 1268.53 3.7244 -1.88666 0
M  V30 13676 H 1269.92 3.22072 -5.89677 0
M  V30 13677 N 1272.64 1.35187 0.810078 0
M  V30 13678 C 1273.59 1.24366 1.91094 0
M  V30 13679 C 1274.58 0.139718 1.60292 0
M  V30 13680 O 1275.77 0.370609 1.73077 0
M  V30 13681 C 1272.9 1.01434 3.27973 0
M  V30 13682 C 1271.99 2.16203 3.64852 0
M  V30 13683 N 1272.38 3.41408 3.73195 0
M  V30 13684 C 1270.67 2.07512 3.94784 0
M  V30 13685 C 1271.38 4.16858 4.05714 0
M  V30 13686 N 1270.35 3.45579 4.19614 0
M  V30 13687 H 1274.15 2.19232 1.95741 0
M  V30 13688 H 1271.67 1.2761 1.00447 0
M  V30 13689 H 1273.66 0.91771 4.06674 0
M  V30 13690 H 1272.32 0.074495 3.24615 0
M  V30 13691 H 1273.34 3.75802 3.56361 0
M  V30 13692 H 1270.01 1.21362 3.99472 0
M  V30 13693 H 1271.4 5.25039 4.19266 0
M  V30 13694 N 1274.12 -1.03182 1.19127 0
M  V30 13695 C 1275.35 -1.80703 1.01791 0
M  V30 13696 C 1275.77 -1.83147 -0.428824 0
M  V30 13697 O 1275.13 -1.2553 -1.30812 0
M  V30 13698 C 1275.18 -3.23754 1.58794 0
M  V30 13699 O 1274.28 -4.04261 0.815274 0
M  V30 13700 H 1273.62 -0.557944 0.359992 0
M  V30 13701 H 1276.15 -1.29887 1.58084 0
M  V30 13702 H 1276.16 -3.7451 1.61884 0
M  V30 13703 H 1274.84 -3.2129 2.64094 0
M  V30 13704 H 1273.42 -3.62909 0.857392 0
M  V30 13705 N 1275.6 -0.99472 -1.22242 0
M  V30 13706 C 1276.85 -0.670275 -1.90661 0
M  V30 13707 C 1277.17 0.800369 -1.77818 0
M  V30 13708 O 1276.44 1.57381 -1.16653 0
M  V30 13709 H 1275.02 -0.244925 -0.705706 0
M  V30 13710 H 1277.68 -1.26162 -1.48557 0
M  V30 13711 H 1276.78 -0.934408 -2.97784 0
M  V30 13712 N 1277.08 1.37613 -0.768148 0
M  V30 13713 C 1278.36 1.93921 -0.255724 0
M  V30 13714 C 1278.74 1.70215 1.2486 0
M  V30 13715 O 1278.08 1.0489 2.03003 0
M  V30 13716 C 1278.29 3.43354 -0.625204 0
M  V30 13717 C 1279.64 4.20439 -0.592978 0
M  V30 13718 O 1280.67 3.51701 -0.564375 0
M  V30 13719 O 1279.52 5.43008 -0.616849 0
M  V30 13720 H 1276.62 0.824968 -0.0579366 0
M  V30 13721 H 1279.16 1.46921 -0.849257 0
M  V30 13722 H 1277.94 3.54177 -1.66356 0
M  V30 13723 H 1277.56 3.976 -0.00442816 0
M  V30 13724 N 1278.56 0.518393 1.4883 0
M  V30 13725 C 1279.49 -0.297703 2.2625 0
M  V30 13726 C 1280.47 -0.955096 1.31593 0
M  V30 13727 O 1281.65 -0.981776 1.60914 0
M  V30 13728 C 1278.78 -1.42065 3.07466 0
M  V30 13729 C 1277.82 -0.875854 4.1741 0
M  V30 13730 S 1278.66 0.247153 5.34929 0
M  V30 13731 C 1279.81 -0.878544 6.19703 0
M  V30 13732 H 1280.05 0.359358 2.9512 0
M  V30 13733 H 1277.58 0.303976 1.51378 0
M  V30 13734 H 1279.54 -2.06398 3.54838 0
M  V30 13735 H 1278.2 -2.04939 2.38031 0
M  V30 13736 H 1277.39 -1.71793 4.73818 0
M  V30 13737 H 1276.99 -0.30943 3.72718 0
M  V30 13738 H 1279.29 -1.77986 6.53703 0
M  V30 13739 H 1280.23 -0.3527 7.07221 0
M  V30 13740 H 1280.64 -1.15372 5.52584 0
M  V30 13741 N 1280.03 -1.55556 0.252993 0
M  V30 13742 C 1281.28 -1.99385 -0.370599 0
M  V30 13743 C 1281.61 -1.14101 -1.57145 0
M  V30 13744 O 1280.89 -0.205828 -1.93408 0
M  V30 13745 C 1281.17 -3.51672 -0.774503 0
M  V30 13746 C 1281.02 -4.47719 0.432159 0
M  V30 13747 C 1282.34 -4.0923 -1.61923 0
M  V30 13748 H 1279.46 -0.724858 -0.133231 0
M  V30 13749 H 1282.1 -1.86644 0.355522 0
M  V30 13750 H 1280.25 -3.62661 -1.39318 0
M  V30 13751 H 1281.93 -4.48704 1.07063 0
M  V30 13752 H 1280.17 -4.2029 1.07419 0
M  V30 13753 H 1280.84 -5.51898 0.106123 0
M  V30 13754 H 1283.32 -4.01381 -1.09693 0
M  V30 13755 H 1282.19 -5.16039 -1.87068 0
M  V30 13756 H 1282.45 -3.58067 -2.59307 0
M  V30 13757 N 1281.51 0.0200419 -1.57587 0
M  V30 13758 C 1282.76 0.709027 -1.89681 0
M  V30 13759 C 1283.09 1.74876 -0.851396 0
M  V30 13760 O 1282.34 1.95151 0.146483 0
M  V30 13761 C 1282.64 1.40729 -3.28527 0
M  V30 13762 C 1282.31 0.502686 -4.48089 0
M  V30 13763 C 1280.97 0.253558 -4.80532 0
M  V30 13764 C 1283.32 -0.121338 -5.21059 0
M  V30 13765 C 1280.65 -0.628221 -5.83327 0
M  V30 13766 C 1283 -0.990873 -6.24792 0
M  V30 13767 C 1281.67 -1.24937 -6.55703 0
M  V30 13768 H 1280.94 0.259451 -0.694094 0
M  V30 13769 H 1283.58 -0.03118 -1.91475 0
M  V30 13770 H 1281.89 2.22105 -3.22764 0
M  V30 13771 H 1283.58 1.94609 -3.50611 0
M  V30 13772 H 1280.17 0.707018 -4.22728 0
M  V30 13773 H 1284.36 0.0581516 -4.96266 0
M  V30 13774 H 1279.61 -0.836712 -6.05648 0
M  V30 13775 H 1283.79 -1.48087 -6.80473 0
M  V30 13776 H 1281.42 -1.93436 -7.35178 0
M  V30 13777 N 1282.99 1.54862 0.292472 0
M  V30 13778 C 1284.22 1.7855 1.04534 0
M  V30 13779 C 1284.63 0.549161 1.80637 0
M  V30 13780 O 1283.99 -0.481268 1.7604 0
M  V30 13781 C 1284.04 2.99849 2.01923 0
M  V30 13782 O 1283.76 4.18706 1.28907 0
M  V30 13783 C 1285.26 3.35991 2.8918 0
M  V30 13784 H 1282.48 0.595279 0.309652 0
M  V30 13785 H 1285.03 2.01834 0.329159 0
M  V30 13786 H 1283.18 2.78749 2.69032 0
M  V30 13787 H 1283.6 4.87151 1.94383 0
M  V30 13788 H 1285.07 4.24085 3.53349 0
M  V30 13789 H 1285.55 2.54524 3.57931 0
M  V30 13790 H 1286.15 3.59281 2.27591 0
M  V30 13791 N 1284.47 -0.556076 1.47464 0
M  V30 13792 C 1285.88 -1.1382 1.47993 0
M  V30 13793 C 1286.23 -1.94785 0.235249 0
M  V30 13794 O 1285.36 -2.06098 -0.659752 0
M  V30 13795 C 1285.95 -2.07082 2.68146 0
M  V30 13796 C 1284.51 -2.60564 2.71631 0
M  V30 13797 C 1283.66 -1.36967 2.41113 0
M  V30 13798 H 1286.61 -0.34262 1.54957 0
M  V30 13799 H 1286.63 -2.90975 2.45181 0
M  V30 13800 H 1286.14 -1.48127 3.5872 0
M  V30 13801 H 1284.24 -3.23314 1.852 0
M  V30 13802 H 1284.35 -3.0148 3.72353 0
M  V30 13803 H 1282.72 -1.67678 1.91719 0
M  V30 13804 H 1283.5 -0.79803 3.33896 0
M  V30 13805 N 1285.95 -1.35615 -0.802897 0
M  V30 13806 C 1286.86 -1.3096 -1.94645 0
M  V30 13807 C 1287.87 -0.213909 -1.7268 0
M  V30 13808 O 1289.05 -0.443932 -1.96446 0
M  V30 13809 C 1286.11 -1.08483 -3.2929 0
M  V30 13810 C 1285.18 -2.27401 -3.64126 0
M  V30 13811 C 1284.41 -2.05987 -4.92347 0
M  V30 13812 O 1284.63 -1.02819 -5.61057 0
M  V30 13813 O 1283.57 -2.93439 -5.25526 0
M  V30 13814 H 1287.39 -2.27209 -2.01519 0
M  V30 13815 H 1284.98 -1.16024 -0.941214 0
M  V30 13816 H 1286.86 -0.978118 -4.09891 0
M  V30 13817 H 1285.53 -0.152885 -3.23339 0
M  V30 13818 H 1284.44 -2.43638 -2.83886 0
M  V30 13819 H 1285.77 -3.19055 -3.74786 0
M  V30 13820 N 1287.43 1.02549 -1.19673 0
M  V30 13821 C 1288.65 1.8016 -1.02748 0
M  V30 13822 C 1289.08 1.83372 0.419105 0
M  V30 13823 O 1288.43 1.26222 1.30144 0
M  V30 13824 C 1288.48 3.22907 -1.60509 0
M  V30 13825 O 1287.59 4.03823 -0.836702 0
M  V30 13826 H 1286.93 0.556027 -0.362946 0
M  V30 13827 H 1289.46 1.29047 -1.5877 0
M  V30 13828 H 1289.47 3.73646 -1.63868 0
M  V30 13829 H 1288.14 3.19885 -2.65794 0
M  V30 13830 H 1286.72 3.6245 -0.876626 0
M  V30 13831 N 1288.9 1.00119 1.21713 0
M  V30 13832 C 1290.15 0.680377 1.90303 0
M  V30 13833 C 1290.47 -0.790927 1.7824 0
M  V30 13834 O 1289.74 -1.5676 1.17486 0
M  V30 13835 H 1288.32 0.248665 0.704397 0
M  V30 13836 H 1290.98 1.26948 1.47886 0
M  V30 13837 H 1290.08 0.950188 2.97284 0
M  V30 13838 N 1290.38 -1.37203 0.775435 0
M  V30 13839 C 1291.31 -2.32819 0.17826 0
M  V30 13840 C 1292.29 -1.55963 -0.678944 0
M  V30 13841 O 1293.48 -1.84183 -0.615648 0
M  V30 13842 C 1290.61 -3.40198 -0.698768 0
M  V30 13843 C 1289.56 -4.27961 0.057423 0
M  V30 13844 C 1288.89 -5.26385 -0.93929 0
M  V30 13845 C 1290.19 -5.07402 1.23856 0
M  V30 13846 H 1291.88 -2.8301 0.977028 0
M  V30 13847 H 1289.43 -1.3607 0.471274 0
M  V30 13848 H 1291.38 -4.06067 -1.12637 0
M  V30 13849 H 1290.1 -2.88541 -1.53009 0
M  V30 13850 H 1288.76 -3.63628 0.465848 0
M  V30 13851 H 1288.41 -4.71007 -1.76527 0
M  V30 13852 H 1288.11 -5.85966 -0.437844 0
M  V30 13853 H 1289.64 -5.9513 -1.36576 0
M  V30 13854 H 1291.05 -5.6639 0.887423 0
M  V30 13855 H 1289.45 -5.76327 1.67234 0
M  V30 13856 H 1290.52 -4.3986 2.04085 0
M  V30 13857 N 1291.86 -0.526279 -1.48553 0
M  V30 13858 C 1292.79 0.275579 -2.27537 0
M  V30 13859 C 1293.8 0.90782 -1.35139 0
M  V30 13860 O 1294.99 0.786887 -1.6022 0
M  V30 13861 C 1292.09 1.40515 -3.08397 0
M  V30 13862 C 1291.27 0.875523 -4.28548 0
M  V30 13863 C 1290.33 1.88577 -4.91249 0
M  V30 13864 O 1289.35 1.44419 -5.50574 0
M  V30 13865 N 1290.55 3.21774 -4.83158 0
M  V30 13866 H 1293.32 -0.401803 -2.96994 0
M  V30 13867 H 1290.88 -0.360378 -1.57838 0
M  V30 13868 H 1292.87 2.07907 -3.47213 0
M  V30 13869 H 1291.44 1.98626 -2.41384 0
M  V30 13870 H 1290.66 0.025728 -3.94192 0
M  V30 13871 H 1291.95 0.500493 -5.06332 0
M  V30 13872 H 1291.35 3.60319 -4.36104 0
M  V30 13873 H 1289.9 3.84808 -5.26085 0
M  V30 13874 N 1293.34 1.5542 -0.261239 0
M  V30 13875 C 1294.27 2.24949 0.626126 0
M  V30 13876 C 1295.25 1.23474 1.16997 0
M  V30 13877 O 1296.43 1.52161 1.20667 0
M  V30 13878 C 1293.56 2.95996 1.81669 0
M  V30 13879 C 1292.52 4.04282 1.40499 0
M  V30 13880 C 1291.84 4.62831 2.67753 0
M  V30 13881 C 1293.14 5.1923 0.56543 0
M  V30 13882 H 1294.84 2.99364 0.0463164 0
M  V30 13883 H 1292.38 1.43985 0.0208366 0
M  V30 13884 H 1294.34 3.43343 2.44323 0
M  V30 13885 H 1293.06 2.19093 2.42211 0
M  V30 13886 H 1291.72 3.57726 0.801712 0
M  V30 13887 H 1291.37 3.82611 3.26524 0
M  V30 13888 H 1291.07 5.35938 2.40925 0
M  V30 13889 H 1292.59 5.12918 3.31281 0
M  V30 13890 H 1294.01 5.62714 1.09663 0
M  V30 13891 H 1292.4 5.98814 0.392607 0
M  V30 13892 H 1293.47 4.83086 -0.419059 0
M  V30 13893 N 1294.82 -0.0116844 1.57596 0
M  V30 13894 C 1296.23 -0.367602 1.55309 0
M  V30 13895 C 1296.43 -1.75524 0.98962 0
M  V30 13896 O 1295.49 -2.44813 0.618289 0
M  V30 13897 C 1296.8 -0.253532 2.99629 0
M  V30 13898 C 1298.35 -0.329335 3.11263 0
M  V30 13899 C 1298.82 -0.24452 4.57347 0
M  V30 13900 N 1300.31 -0.302782 4.62209 0
M  V30 13901 C 1301.05 -0.260315 5.72809 0
M  V30 13902 N 1300.55 -0.169124 6.92594 0
M  V30 13903 N 1302.34 -0.311323 5.61237 0
M  V30 13904 H 1294.49 0.896204 1.92567 0
M  V30 13905 H 1296.75 0.342445 0.883988 0
M  V30 13906 H 1296.46 0.70074 3.44648 0
M  V30 13907 H 1296.33 -1.04029 3.62571 0
M  V30 13908 H 1298.72 -1.27405 2.66181 0
M  V30 13909 H 1298.8 0.487084 2.5112 0
M  V30 13910 H 1298.44 0.696597 5.031 0
M  V30 13911 H 1298.37 -1.07927 5.15421 0
M  V30 13912 H 1300.87 -0.375067 3.76034 0
M  V30 13913 H 1301.18 -0.142296 7.72669 0
M  V30 13914 H 1299.52 -0.134919 6.94869 0
M  V30 13915 H 1302.71 -0.380678 4.6655 0
M  V30 13916 H 1302.89 -0.274761 6.47417 0
M  V30 13917 N 1296.29 -1.55015 -0.284256 0
M  V30 13918 C 1297.22 -1.90128 -1.3555 0
M  V30 13919 C 1298.2 -0.761914 -1.52082 0
M  V30 13920 O 1299.39 -1.01909 -1.65312 0
M  V30 13921 C 1296.52 -2.16332 -2.71695 0
M  V30 13922 C 1295.47 -3.32166 -2.69907 0
M  V30 13923 C 1294.8 -3.43824 -4.09498 0
M  V30 13924 C 1296.1 -4.6885 -2.30168 0
M  V30 13925 H 1297.79 -2.79852 -1.06411 0
M  V30 13926 H 1295.34 -1.34649 -0.510451 0
M  V30 13927 H 1297.29 -2.39482 -3.46737 0
M  V30 13928 H 1296.02 -1.23395 -3.02392 0
M  V30 13929 H 1294.68 -3.08965 -1.97322 0
M  V30 13930 H 1294.32 -2.48375 -4.374 0
M  V30 13931 H 1294.02 -4.21698 -4.092 0
M  V30 13932 H 1295.55 -3.69254 -4.86296 0
M  V30 13933 H 1296.96 -4.91619 -2.9493 0
M  V30 13934 H 1295.36 -5.49558 -2.41052 0
M  V30 13935 H 1296.43 -4.68433 -1.25294 0
M  V30 13936 N 1297.77 0.548248 -1.47757 0
M  V30 13937 C 1298.72 1.67553 -1.61335 0
M  V30 13938 C 1299.71 1.62447 -0.480335 0
M  V30 13939 O 1300.92 1.67525 -0.658445 0
M  V30 13940 H 1297.29 0.55457 -0.507894 0
M  V30 13941 H 1299.27 1.53239 -2.56047 0
M  V30 13942 C 1298.01 3.05883 -1.6532 0
M  V30 13943 H 1297.34 3.10497 -2.51856 0
M  V30 13944 H 1298.78 3.84424 -1.78868 0
M  V30 13945 C 1297.24 3.34656 -0.388238 0
M  V30 13946 O 1297.77 3.9849 0.506816 0
M  V30 13947 N 1295.97 2.89384 -0.265514 0
M  V30 13948 H 1295.52 2.37615 -0.994819 0
M  V30 13949 H 1295.48 3.09006 0.579889 0
M  V30 13950 N 1299.25 1.36039 0.795694 0
M  V30 13951 C 1300.16 1.31991 1.93948 0
M  V30 13952 C 1301.18 0.223064 1.72564 0
M  V30 13953 O 1302.35 0.454344 1.96208 0
M  V30 13954 C 1299.42 1.10228 3.28711 0
M  V30 13955 C 1298.48 2.29328 3.62914 0
M  V30 13956 C 1297.71 2.08595 4.91247 0
M  V30 13957 O 1297.93 1.05793 5.60503 0
M  V30 13958 O 1296.87 2.96222 5.23962 0
M  V30 13959 H 1300.69 2.28274 2.00311 0
M  V30 13960 H 1298.28 1.16521 0.935048 0
M  V30 13961 H 1300.16 0.999842 4.09367 0
M  V30 13962 H 1298.84 0.17003 3.23253 0
M  V30 13963 H 1297.74 2.4514 2.8259 0
M  V30 13964 H 1299.08 3.21038 3.73089 0
M  V30 13965 N 1300.73 -1.01913 1.20215 0
M  V30 13966 C 1301.68 -2.104 0.948708 0
M  V30 13967 C 1302.65 -1.65665 -0.120139 0
M  V30 13968 O 1303.83 -1.90785 0.0240547 0
M  V30 13969 C 1300.97 -3.41398 0.504132 0
M  V30 13970 C 1300.08 -3.99625 1.64085 0
M  V30 13971 C 1299.22 -5.18673 1.14683 0
M  V30 13972 C 1298.26 -5.68977 2.2568 0
M  V30 13973 N 1297.39 -6.79289 1.77514 0
M  V30 13974 H 1302.23 -2.31415 1.87753 0
M  V30 13975 H 1299.77 -1.13487 0.935901 0
M  V30 13976 H 1301.73 -4.16578 0.22771 0
M  V30 13977 H 1300.36 -3.20463 -0.387689 0
M  V30 13978 H 1299.41 -3.21565 2.03225 0
M  V30 13979 H 1300.72 -4.32965 2.47674 0
M  V30 13980 H 1299.88 -6.01048 0.826223 0
M  V30 13981 H 1298.62 -4.86891 0.280797 0
M  V30 13982 H 1297.62 -4.85208 2.5856 0
M  V30 13983 H 1298.85 -6.02794 3.12755 0
M  V30 13984 H 1296.79 -6.49341 0.932338 0
M  V30 13985 H 1296.71 -7.11808 2.54686 0
M  V30 13986 H 1297.98 -7.65235 1.48446 0
M  V30 13987 N 1302.21 -1.00763 -1.2118 0
M  V30 13988 C 1303.14 -0.590493 -2.2591 0
M  V30 13989 C 1304.12 0.390002 -1.65569 0
M  V30 13990 O 1305.3 0.277406 -1.92208 0
M  V30 13991 C 1302.43 0.0810388 -3.47205 0
M  V30 13992 C 1301.39 -0.81951 -4.20081 0
M  V30 13993 C 1300.71 -0.014244 -5.34698 0
M  V30 13994 C 1302.01 -2.12336 -4.7719 0
M  V30 13995 H 1303.71 -1.46595 -2.61056 0
M  V30 13996 H 1301.25 -0.706321 -1.25487 0
M  V30 13997 H 1303.21 0.384355 -4.19644 0
M  V30 13998 H 1301.93 0.991145 -3.11197 0
M  V30 13999 H 1300.59 -1.10669 -3.49497 0
M  V30 14000 H 1300.24 0.897233 -4.94933 0
M  V30 14001 H 1299.94 -0.613883 -5.84384 0
M  V30 14002 H 1301.46 0.282827 -6.09945 0
M  V30 14003 H 1302.87 -1.88301 -5.41494 0
M  V30 14004 H 1301.27 -2.67308 -5.37277 0
M  V30 14005 H 1302.34 -2.79238 -3.96427 0
M  V30 14006 N 1303.68 1.3679 -0.7827 0
M  V30 14007 C 1304.93 1.99023 -0.351316 0
M  V30 14008 C 1305.25 1.62436 1.07887 0
M  V30 14009 O 1304.52 0.895084 1.74256 0
M  V30 14010 H 1303.1 0.736141 -0.126909 0
M  V30 14011 H 1305.77 1.67095 -1.00325 0
M  V30 14012 H 1304.86 3.09015 -0.43774 0
M  V30 14013 N 1305.16 0.53415 1.48272 0
M  V30 14014 C 1306.39 0.00574475 2.06899 0
M  V30 14015 C 1306.81 -1.27754 1.39012 0
M  V30 14016 O 1306.16 -1.76102 0.478993 0
M  V30 14017 C 1306.21 -0.217576 3.60845 0
M  V30 14018 O 1305.93 1.01487 4.26183 0
M  V30 14019 C 1307.44 -0.785888 4.36278 0
M  V30 14020 H 1304.66 0.0353967 0.670066 0
M  V30 14021 H 1307.2 0.740984 1.90603 0
M  V30 14022 H 1305.35 -0.902875 3.76732 0
M  V30 14023 H 1305.77 0.7982 5.18391 0
M  V30 14024 H 1307.24 -0.891551 5.44753 0
M  V30 14025 H 1307.72 -1.79178 4.00989 0
M  V30 14026 H 1308.33 -0.137022 4.25079 0
M  V30 14027 N 1306.64 -1.55279 0.269478 0
M  V30 14028 C 1307.87 -2.03876 -0.352418 0
M  V30 14029 C 1308.28 -1.14804 -1.49885 0
M  V30 14030 O 1307.64 -0.166989 -1.81734 0
M  V30 14031 C 1307.69 -3.51634 -0.838799 0
M  V30 14032 O 1307.41 -4.37316 0.261972 0
M  V30 14033 C 1308.91 -4.16094 -1.52909 0
M  V30 14034 H 1306.13 -0.66608 -0.0811043 0
M  V30 14035 H 1308.68 -2.00551 0.399929 0
M  V30 14036 H 1306.83 -3.55421 -1.54125 0
M  V30 14037 H 1307.25 -5.24383 -0.111013 0
M  V30 14038 H 1308.72 -5.21102 -1.82089 0
M  V30 14039 H 1309.2 -3.63928 -2.45872 0
M  V30 14040 H 1309.8 -4.16293 -0.87063 0
M  V30 14041 N 1308.12 0.00332656 -1.576 0
M  V30 14042 C 1309.08 0.980628 -2.07163 0
M  V30 14043 C 1310.08 1.27455 -0.980402 0
M  V30 14044 O 1311.27 1.22029 -1.24317 0
M  V30 14045 C 1308.4 2.30647 -2.51028 0
M  V30 14046 H 1309.6 0.551982 -2.94776 0
M  V30 14047 H 1307.15 0.250728 -1.54276 0
M  V30 14048 H 1307.88 2.78207 -1.66647 0
M  V30 14049 H 1307.67 2.10635 -3.30719 0
M  V30 14050 H 1309.16 3.00761 -2.89711 0
M  V30 14051 N 1309.6 1.55164 0.276031 0
M  V30 14052 C 1310.56 1.87065 1.32436 0
M  V30 14053 C 1311.56 0.745024 1.42499 0
M  V30 14054 O 1312.75 1.01321 1.41702 0
M  V30 14055 C 1309.88 2.07322 2.70611 0
M  V30 14056 H 1311.07 2.80775 1.05382 0
M  V30 14057 H 1308.63 1.47609 0.513947 0
M  V30 14058 H 1309.36 1.15983 3.0285 0
M  V30 14059 H 1309.15 2.89275 2.64693 0
M  V30 14060 H 1310.64 2.33287 3.46362 0
M  V30 14061 N 1311.07 -0.540404 1.48045 0
M  V30 14062 C 1312.3 -1.32177 1.59175 0
M  V30 14063 C 1312.72 -1.87163 0.248115 0
M  V30 14064 O 1312.07 -1.65871 -0.761124 0
M  V30 14065 C 1312.13 -2.47995 2.63023 0
M  V30 14066 O 1311.85 -1.95278 3.92171 0
M  V30 14067 C 1313.35 -3.39967 2.84495 0
M  V30 14068 H 1310.57 -0.40233 0.537002 0
M  V30 14069 H 1313.11 -0.652983 1.93795 0
M  V30 14070 H 1311.27 -3.10779 2.31291 0
M  V30 14071 H 1311.68 -2.71012 4.49058 0
M  V30 14072 H 1313.15 -4.17607 3.60982 0
M  V30 14073 H 1313.63 -3.94555 1.92932 0
M  V30 14074 H 1314.24 -2.82985 3.1749 0
M  V30 14075 N 1312.55 -1.36459 -0.788468 0
M  V30 14076 C 1313.46 -1.33017 -1.93245 0
M  V30 14077 C 1314.48 -0.232212 -1.72444 0
M  V30 14078 O 1315.65 -0.464743 -1.95965 0
M  V30 14079 C 1312.72 -1.1197 -3.28121 0
M  V30 14080 C 1311.78 -2.3125 -3.61693 0
M  V30 14081 C 1311.01 -2.11197 -4.90134 0
M  V30 14082 O 1311.24 -1.08764 -5.59934 0
M  V30 14083 O 1310.17 -2.98996 -5.22384 0
M  V30 14084 H 1314 -2.29333 -1.99098 0
M  V30 14085 H 1311.58 -1.17016 -0.928856 0
M  V30 14086 H 1313.46 -1.02154 -4.08831 0
M  V30 14087 H 1312.14 -0.187171 -3.23158 0
M  V30 14088 H 1311.05 -2.46635 -2.81286 0
M  V30 14089 H 1312.38 -3.23012 -3.71381 0
M  V30 14090 N 1314.03 1.01274 -1.20754 0
M  V30 14091 C 1314.96 2.11763 -0.983805 0
M  V30 14092 C 1315.94 1.69869 0.0885635 0
M  V30 14093 O 1317.13 1.94075 -0.0697239 0
M  V30 14094 C 1314.26 3.43087 -0.539287 0
M  V30 14095 C 1313.21 3.9874 -1.55534 0
M  V30 14096 C 1312.54 5.25877 -0.967322 0
M  V30 14097 C 1313.84 4.31688 -2.94012 0
M  V30 14098 H 1315.53 2.30737 -1.90789 0
M  V30 14099 H 1313.08 1.10884 -0.918734 0
M  V30 14100 H 1315.03 4.19773 -0.369979 0
M  V30 14101 H 1313.75 3.23883 0.420435 0
M  V30 14102 H 1312.41 3.24166 -1.71207 0
M  V30 14103 H 1312.06 5.03 0.000448307 0
M  V30 14104 H 1311.76 5.64077 -1.64594 0
M  V30 14105 H 1313.28 6.05215 -0.809167 0
M  V30 14106 H 1314.7 4.99246 -2.81827 0
M  V30 14107 H 1313.1 4.81011 -3.58815 0
M  V30 14108 H 1314.17 3.4029 -3.45442 0
M  V30 14109 N 1315.51 1.01404 1.20644 0
M  V30 14110 C 1316.46 0.582109 2.23339 0
M  V30 14111 C 1317.43 -0.39649 1.61298 0
M  V30 14112 O 1318.61 -0.296504 1.88482 0
M  V30 14113 C 1315.75 -0.076029 3.45016 0
M  V30 14114 C 1314.86 0.946829 4.21496 0
M  V30 14115 C 1314 0.26001 5.30563 0
M  V30 14116 C 1313.04 1.2698 5.98784 0
M  V30 14117 N 1312.18 0.609827 6.99447 0
M  V30 14118 H 1317.02 1.46248 2.59645 0
M  V30 14119 H 1314.55 0.732145 1.27585 0
M  V30 14120 H 1316.51 -0.474714 4.1449 0
M  V30 14121 H 1315.14 -0.920062 3.0941 0
M  V30 14122 H 1314.19 1.4637 3.51113 0
M  V30 14123 H 1315.5 1.71491 4.68393 0
M  V30 14124 H 1314.66 -0.19431 6.06389 0
M  V30 14125 H 1313.4 -0.540395 4.84697 0
M  V30 14126 H 1312.4 1.73453 5.21722 0
M  V30 14127 H 1313.63 2.07144 6.46737 0
M  V30 14128 H 1311.57 -0.170756 6.55778 0
M  V30 14129 H 1311.49 1.31601 7.44458 0
M  V30 14130 H 1312.76 0.179014 7.79294 0
M  V30 14131 N 1316.99 -1.36373 0.789944 0
M  V30 14132 C 1317.93 -2.30043 0.186798 0
M  V30 14133 C 1318.9 -1.52002 -0.669663 0
M  V30 14134 O 1320.09 -1.80506 -0.618232 0
M  V30 14135 C 1317.23 -3.38494 -0.671994 0
M  V30 14136 C 1316.34 -4.31522 0.203067 0
M  V30 14137 C 1315.48 -5.27057 -0.662148 0
M  V30 14138 C 1314.52 -6.11725 0.214335 0
M  V30 14139 N 1313.65 -6.99446 -0.609892 0
M  V30 14140 H 1318.49 -2.81038 0.991048 0
M  V30 14141 H 1316.03 -1.38331 0.500288 0
M  V30 14142 H 1317.99 -4.0002 -1.1849 0
M  V30 14143 H 1316.62 -2.88818 -1.44167 0
M  V30 14144 H 1315.67 -3.71146 0.833945 0
M  V30 14145 H 1316.98 -4.91005 0.878389 0
M  V30 14146 H 1316.14 -5.93875 -1.24084 0
M  V30 14147 H 1314.88 -4.6803 -1.37109 0
M  V30 14148 H 1313.88 -5.43868 0.805426 0
M  V30 14149 H 1315.11 -6.72827 0.92089 0
M  V30 14150 H 1313.05 -6.42927 -1.30312 0
M  V30 14151 H 1312.97 -7.56 0.00773786 0
M  V30 14152 H 1314.24 -7.70633 -1.1724 0
M  V30 14153 N 1318.47 -0.542005 -1.47987 0
M  V30 14154 C 1319.4 0.202703 -2.32618 0
M  V30 14155 C 1320.38 0.923521 -1.42846 0
M  V30 14156 O 1321.56 0.906957 -1.7172 0
M  V30 14157 C 1318.69 1.24267 -3.24307 0
M  V30 14158 C 1317.65 0.639257 -4.23199 0
M  V30 14159 C 1316.97 1.78275 -5.04105 0
M  V30 14160 C 1318.27 -0.396982 -5.20789 0
M  V30 14161 H 1319.97 -0.503817 -2.95131 0
M  V30 14162 H 1317.51 -0.243736 -1.41922 0
M  V30 14163 H 1319.46 1.7717 -3.82347 0
M  V30 14164 H 1318.19 1.97893 -2.59819 0
M  V30 14165 H 1316.85 0.131655 -3.66364 0
M  V30 14166 H 1316.5 2.50768 -4.36032 0
M  V30 14167 H 1316.2 1.38487 -5.71047 0
M  V30 14168 H 1317.72 2.31533 -5.65 0
M  V30 14169 H 1319.13 0.0454057 -5.73282 0
M  V30 14170 H 1317.53 -0.712911 -5.9585 0
M  V30 14171 H 1318.6 -1.29843 -4.67193 0
M  V30 14172 N 1319.94 1.55134 -0.277709 0
M  V30 14173 C 1321.22 1.91667 0.390253 0
M  V30 14174 C 1321.6 1.20228 1.73518 0
M  V30 14175 O 1320.95 0.330013 2.26104 0
M  V30 14176 C 1321.16 3.44983 0.52797 0
M  V30 14177 C 1322.51 4.16809 0.809665 0
M  V30 14178 O 1323.53 3.50891 0.612679 0
M  V30 14179 O 1322.39 5.33463 1.18656 0
M  V30 14180 H 1319.48 0.798807 0.214095 0
M  V30 14181 H 1322.03 1.66577 -0.324053 0
M  V30 14182 H 1320.8 3.89056 -0.418422 0
M  V30 14183 H 1320.42 3.76035 1.29164 0
M  V30 14184 N 1321.42 0.00503138 1.57599 0
M  V30 14185 C 1322.67 -0.678761 1.90785 0
M  V30 14186 C 1323 -1.73499 0.87911 0
M  V30 14187 O 1322.25 -1.95359 -0.115418 0
M  V30 14188 C 1322.55 -1.35485 3.30724 0
M  V30 14189 C 1322.22 -0.431335 4.48832 0
M  V30 14190 C 1320.88 -0.177078 4.80874 0
M  V30 14191 C 1323.23 0.204219 5.208 0
M  V30 14192 C 1320.56 0.720944 5.82254 0
M  V30 14193 C 1322.91 1.09015 6.23136 0
M  V30 14194 C 1321.57 1.35353 6.53633 0
M  V30 14195 H 1320.84 -0.248376 0.698133 0
M  V30 14196 H 1323.49 0.061638 1.91401 0
M  V30 14197 H 1321.8 -2.16942 3.26257 0
M  V30 14198 H 1323.49 -1.89007 3.53663 0
M  V30 14199 H 1320.08 -0.639676 4.238 0
M  V30 14200 H 1324.27 0.0208074 4.96296 0
M  V30 14201 H 1319.52 0.93296 6.0424 0
M  V30 14202 H 1323.7 1.58894 6.78031 0
M  V30 14203 H 1321.32 2.05107 7.32008 0
M  V30 14204 N 1322.9 -1.55308 -0.267798 0
M  V30 14205 C 1323.85 -1.88544 -1.33115 0
M  V30 14206 C 1324.82 -0.737465 -1.48831 0
M  V30 14207 O 1326 -0.989215 -1.63154 0
M  V30 14208 C 1323.14 -2.1674 -2.68547 0
M  V30 14209 C 1322.25 -3.44234 -2.61011 0
M  V30 14210 C 1321.39 -3.62104 -3.88657 0
M  V30 14211 C 1320.43 -4.83272 -3.75652 0
M  V30 14212 N 1319.57 -4.97772 -4.95144 0
M  V30 14213 H 1324.41 -2.79237 -1.04071 0
M  V30 14214 H 1321.94 -1.38245 -0.502677 0
M  V30 14215 H 1323.9 -2.31088 -3.47353 0
M  V30 14216 H 1322.53 -1.29276 -2.95783 0
M  V30 14217 H 1321.58 -3.3833 -1.73887 0
M  V30 14218 H 1322.89 -4.33177 -2.47303 0
M  V30 14219 H 1322.05 -3.76298 -4.75904 0
M  V30 14220 H 1320.79 -2.71356 -4.05238 0
M  V30 14221 H 1319.79 -4.69076 -2.86788 0
M  V30 14222 H 1321.02 -5.75461 -3.60585 0
M  V30 14223 H 1318.96 -4.09956 -5.12125 0
M  V30 14224 H 1318.88 -5.80769 -4.83987 0
M  V30 14225 H 1320.15 -5.16357 -5.83949 0
M  V30 14226 N 1324.38 0.532545 -1.4833 0
M  V30 14227 C 1325.62 1.29042 -1.56448 0
M  V30 14228 C 1325.96 1.92754 -0.236532 0
M  V30 14229 O 1325.23 1.79154 0.757237 0
M  V30 14230 C 1325.51 2.38173 -2.70084 0
M  V30 14231 C 1325.37 1.79169 -4.12576 0
M  V30 14232 C 1326.69 3.39957 -2.79495 0
M  V30 14233 H 1323.81 0.467816 -0.569488 0
M  V30 14234 H 1326.45 0.593517 -1.80492 0
M  V30 14235 H 1324.6 2.97616 -2.49714 0
M  V30 14236 H 1326.27 1.23797 -4.44378 0
M  V30 14237 H 1324.51 1.09716 -4.19696 0
M  V30 14238 H 1325.18 2.58174 -4.87904 0
M  V30 14239 H 1327.66 2.90466 -2.97941 0
M  V30 14240 H 1326.54 4.13714 -3.60739 0
M  V30 14241 H 1326.8 4.00347 -1.87548 0
M  V30 14242 N 1325.86 1.36875 0.78122 0
M  V30 14243 C 1327.08 1.349 1.57533 0
M  V30 14244 C 1327.51 -0.0655249 1.87986 0
M  V30 14245 O 1326.86 -1.03986 1.48515 0
M  V30 14246 C 1326.91 2.18562 2.86815 0
M  V30 14247 O 1326.02 1.58374 3.80777 0
M  V30 14248 H 1325.36 0.461355 0.477543 0
M  V30 14249 H 1327.89 1.80271 0.96766 0
M  V30 14250 H 1327.9 2.31436 3.36008 0
M  V30 14251 H 1326.57 3.21385 2.63978 0
M  V30 14252 H 1325.15 1.54487 3.39394 0
M  V30 14253 N 1327.33 -1.00632 1.21289 0
M  V30 14254 C 1328.56 -1.78503 1.05601 0
M  V30 14255 C 1328.98 -1.84015 -0.389879 0
M  V30 14256 O 1328.34 -1.28277 -1.2812 0
M  V30 14257 C 1328.39 -3.20313 1.65626 0
M  V30 14258 O 1327.49 -4.02441 0.900841 0
M  V30 14259 H 1326.83 -0.550183 0.371746 0
M  V30 14260 H 1329.36 -1.26505 1.60803 0
M  V30 14261 H 1329.37 -3.70992 1.69792 0
M  V30 14262 H 1328.05 -3.15616 2.7085 0
M  V30 14263 H 1326.63 -3.61009 0.934178 0
M  V30 14264 N 1328.81 -1.02043 -1.20104 0
M  V30 14265 C 1330.04 -0.731315 -1.93544 0
M  V30 14266 C 1330.45 0.708582 -1.74999 0
M  V30 14267 O 1329.81 1.481 -1.06642 0
M  V30 14268 C 1329.86 -1.06233 -3.45538 0
M  V30 14269 O 1329.58 -2.44568 -3.63481 0
M  V30 14270 C 1331.08 -0.794818 -4.36116 0
M  V30 14271 H 1328.3 -0.268248 -0.615048 0
M  V30 14272 H 1330.85 -1.36264 -1.52488 0
M  V30 14273 H 1329 -0.476341 -3.8446 0
M  V30 14274 H 1329.42 -2.5663 -4.57429 0
M  V30 14275 H 1330.89 -1.07647 -5.41402 0
M  V30 14276 H 1331.37 0.270944 -4.38363 0
M  V30 14277 H 1331.97 -1.36314 -4.02863 0
M  V30 14278 N 1330.29 1.35952 -0.797165 0
M  V30 14279 C 1331.52 2.0381 -0.38421 0
M  V30 14280 C 1331.94 1.597 0.993854 0
M  V30 14281 O 1331.3 0.769148 1.64176 0
M  V30 14282 C 1331.35 3.57589 -0.465054 0
M  V30 14283 O 1330.45 4.09043 0.525095 0
M  V30 14284 H 1329.79 0.643957 -0.161912 0
M  V30 14285 H 1332.32 1.73746 -1.08043 0
M  V30 14286 H 1332.33 4.06651 -0.331448 0
M  V30 14287 H 1331.01 3.89045 -1.47027 0
M  V30 14288 H 1329.58 3.7123 0.352509 0
M  V30 14289 N 1331.77 0.549846 1.47697 0
M  V30 14290 C 1332.72 -0.215119 2.31603 0
M  V30 14291 C 1333.71 -0.916441 1.4247 0
M  V30 14292 O 1334.92 -0.838565 1.59274 0
M  V30 14293 H 1331.29 -0.0882441 0.746805 0
M  V30 14294 H 1333.26 0.511847 2.93977 0
M  V30 14295 C 1332.01 -1.23662 3.24966 0
M  V30 14296 H 1331.33 -0.706384 3.9351 0
M  V30 14297 H 1332.77 -1.7429 3.86522 0
M  V30 14298 C 1331.23 -2.28066 2.47967 0
M  V30 14299 O 1331.76 -3.34862 2.21879 0
M  V30 14300 N 1329.97 -2.01799 2.09106 0
M  V30 14301 H 1329.52 -1.14965 2.30523 0
M  V30 14302 H 1329.47 -2.71872 1.57902 0
M  V30 14303 N 1333.25 -1.54984 0.285932 0
M  V30 14304 C 1334.19 -2.24385 -0.612703 0
M  V30 14305 C 1335.19 -1.24459 -1.14918 0
M  V30 14306 O 1336.39 -1.42357 -1.10156 0
M  V30 14307 H 1332.77 -0.720263 -0.21616 0
M  V30 14308 H 1334.74 -2.984 -0.00465668 0
M  V30 14309 C 1333.49 -2.98661 -1.78037 0
M  V30 14310 H 1332.81 -3.75347 -1.37676 0
M  V30 14311 H 1334.25 -3.50525 -2.38554 0
M  V30 14312 C 1332.71 -2.04754 -2.67539 0
M  V30 14313 O 1333.24 -1.60577 -3.68209 0
M  V30 14314 N 1331.45 -1.71026 -2.34944 0
M  V30 14315 H 1330.99 -2.07148 -1.53126 0
M  V30 14316 H 1330.95 -1.08467 -2.95097 0
M  V30 14317 N 1334.72 -0.0133892 -1.57594 0
M  V30 14318 C 1335.65 0.972341 -2.12292 0
M  V30 14319 C 1336.64 1.34971 -1.03522 0
M  V30 14320 O 1337.82 1.4311 -1.31275 0
M  V30 14321 C 1334.95 2.25988 -2.63717 0
M  V30 14322 C 1333.9 2.02373 -3.77133 0
M  V30 14323 C 1333.23 3.37256 -4.14925 0
M  V30 14324 C 1334.53 1.37553 -5.03861 0
M  V30 14325 H 1336.22 0.516869 -2.94905 0
M  V30 14326 H 1333.77 0.247176 -1.41863 0
M  V30 14327 H 1335.72 2.95313 -3.00613 0
M  V30 14328 H 1334.45 2.73672 -1.78244 0
M  V30 14329 H 1333.11 1.3547 -3.40651 0
M  V30 14330 H 1332.75 3.82669 -3.26456 0
M  V30 14331 H 1332.45 3.22267 -4.91343 0
M  V30 14332 H 1333.98 4.07875 -4.5439 0
M  V30 14333 H 1335.39 1.96855 -5.38443 0
M  V30 14334 H 1333.79 1.33011 -5.85174 0
M  V30 14335 H 1334.86 0.346429 -4.83661 0
M  V30 14336 N 1336.2 1.55448 0.259558 0
M  V30 14337 C 1337.45 1.7589 0.987201 0
M  V30 14338 C 1337.76 0.574951 1.86959 0
M  V30 14339 O 1338.97 0.662091 2.63303 0
M  V30 14340 C 1337.43 3.11349 1.80526 0
M  V30 14341 C 1337.03 4.37353 0.970882 0
M  V30 14342 C 1338.78 3.41136 2.5264 0
M  V30 14343 C 1336.69 5.63847 1.7841 0
M  V30 14344 H 1335.62 0.655662 0.372321 0
M  V30 14345 H 1338.27 1.81893 0.242332 0
M  V30 14346 H 1336.65 2.9942 2.5916 0
M  V30 14347 H 1337.82 4.60237 0.227763 0
M  V30 14348 H 1336.14 4.14809 0.363669 0
M  V30 14349 H 1338.73 4.32855 3.13912 0
M  V30 14350 H 1339.08 2.61879 3.23612 0
M  V30 14351 H 1339.61 3.54224 1.81026 0
M  V30 14352 H 1336.35 6.4589 1.11834 0
M  V30 14353 H 1335.87 5.45086 2.50283 0
M  V30 14354 H 1337.55 6.02641 2.35441 0
M  V30 14355 N 1337.68 -0.524672 1.4861 0
M  V30 14356 C 1338.91 -1.30958 1.60825 0
M  V30 14357 C 1339.33 -1.86142 0.270682 0
M  V30 14358 O 1338.69 -1.64675 -0.758415 0
M  V30 14359 C 1338.74 -2.43252 2.66197 0
M  V30 14360 O 1337.84 -3.4644 2.23725 0
M  V30 14361 H 1337.18 -0.387638 0.539104 0
M  V30 14362 H 1339.71 -0.630755 1.94635 0
M  V30 14363 H 1339.72 -2.89362 2.87635 0
M  V30 14364 H 1338.4 -2.02449 3.63301 0
M  V30 14365 H 1336.97 -3.06413 2.12522 0
M  V30 14366 N 1339.16 -1.37287 -0.77395 0
M  V30 14367 C 1340.39 -1.35563 -1.56302 0
M  V30 14368 C 1340.8 0.0595356 -1.88706 0
M  V30 14369 O 1340.16 1.02072 -1.51286 0
M  V30 14370 C 1340.21 -2.19195 -2.87464 0
M  V30 14371 O 1339.93 -3.55197 -2.5645 0
M  V30 14372 C 1341.43 -2.25425 -3.81704 0
M  V30 14373 H 1338.65 -0.464431 -0.484298 0
M  V30 14374 H 1341.2 -1.80597 -0.959425 0
M  V30 14375 H 1339.35 -1.77676 -3.44253 0
M  V30 14376 H 1339.76 -3.99011 -3.40427 0
M  V30 14377 H 1341.24 -2.8827 -4.70749 0
M  V30 14378 H 1341.72 -1.26205 -4.20677 0
M  V30 14379 H 1342.32 -2.67247 -3.30846 0
M  V30 14380 N 1340.64 0.999871 -1.21821 0
M  V30 14381 C 1341.89 1.73257 -1.03271 0
M  V30 14382 C 1342.2 1.90736 0.433502 0
M  V30 14383 O 1343.4 2.61263 0.738511 0
M  V30 14384 C 1341.86 3.11697 -1.79925 0
M  V30 14385 C 1341.47 3.02173 -3.3075 0
M  V30 14386 C 1343.21 3.89061 -1.698 0
M  V30 14387 C 1341.12 4.35725 -3.99872 0
M  V30 14388 H 1340.05 0.649595 -0.382809 0
M  V30 14389 H 1342.7 1.11676 -1.45605 0
M  V30 14390 H 1341.08 3.73919 -1.30386 0
M  V30 14391 H 1342.26 2.49158 -3.8763 0
M  V30 14392 H 1340.57 2.38296 -3.41473 0
M  V30 14393 H 1343.17 4.87897 -2.1877 0
M  V30 14394 H 1343.51 4.11081 -0.657148 0
M  V30 14395 H 1344.04 3.33502 -2.16844 0
M  V30 14396 H 1340.78 4.18906 -5.04181 0
M  V30 14397 H 1340.3 4.8868 -3.47781 0
M  V30 14398 H 1341.98 5.04503 -4.05075 0
M  V30 14399 N 1342.11 1.02678 1.19562 0
M  V30 14400 C 1343.53 0.752027 1.70884 0
M  V30 14401 C 1343.88 -0.728523 1.82173 0
M  V30 14402 O 1343 -1.56799 1.49141 0
M  V30 14403 C 1343.6 1.35848 3.10372 0
M  V30 14404 C 1342.16 1.13236 3.58963 0
M  V30 14405 C 1341.3 1.45785 2.35886 0
M  V30 14406 H 1344.25 1.19497 1.04432 0
M  V30 14407 H 1344.27 0.754347 3.72948 0
M  V30 14408 H 1343.79 2.43604 3.02124 0
M  V30 14409 H 1341.89 0.0729271 3.72529 0
M  V30 14410 H 1342 1.81959 4.43202 0
M  V30 14411 H 1340.36 0.877125 2.3912 0
M  V30 14412 H 1341.15 2.54619 2.30269 0
M  V30 14413 N 1343.59 -1.35528 0.804364 0
M  V30 14414 C 1344.82 -2.03604 0.395013 0
M  V30 14415 C 1345.24 -1.60225 -0.985371 0
M  V30 14416 O 1344.6 -0.777844 -1.63766 0
M  V30 14417 C 1344.65 -3.57337 0.484011 0
M  V30 14418 O 1343.75 -4.09316 -0.503395 0
M  V30 14419 H 1343.09 -0.643089 0.165325 0
M  V30 14420 H 1345.62 -1.73171 1.08963 0
M  V30 14421 H 1345.63 -4.0647 0.353009 0
M  V30 14422 H 1344.31 -3.8826 1.49088 0
M  V30 14423 H 1342.89 -3.71412 -0.332817 0
M  V30 14424 N 1345.07 -0.557671 -1.47404 0
M  V30 14425 C 1346.35 0.031908 -1.95574 0
M  V30 14426 C 1346.73 1.48509 -1.50027 0
M  V30 14427 O 1346.08 2.16209 -0.73932 0
M  V30 14428 C 1346.29 -0.114055 -3.48814 0
M  V30 14429 C 1347.63 0.0310533 -4.24589 0
M  V30 14430 O 1348.66 -0.041626 -3.56176 0
M  V30 14431 O 1347.52 0.187487 -5.46178 0
M  V30 14432 H 1344.61 0.0638747 -0.82453 0
M  V30 14433 H 1347.16 -0.624227 -1.57802 0
M  V30 14434 H 1345.93 -1.12525 -3.74772 0
M  V30 14435 H 1345.55 0.57967 -3.93352 0
M  V30 14436 N 1346.55 1.54831 -0.294147 0
M  V30 14437 C 1347.5 2.24707 0.600795 0
M  V30 14438 C 1348.49 1.25067 1.14257 0
M  V30 14439 O 1349.7 1.42939 1.094 0
M  V30 14440 H 1346.07 0.721399 0.212338 0
M  V30 14441 H 1348.04 2.98398 -0.0111682 0
M  V30 14442 C 1346.79 2.996 1.76451 0
M  V30 14443 H 1346.12 3.76072 1.35684 0
M  V30 14444 H 1347.56 3.51785 2.36692 0
M  V30 14445 C 1346.01 2.0617 2.6645 0
M  V30 14446 O 1346.54 1.62527 3.67353 0
M  V30 14447 N 1344.75 1.7227 2.34033 0
M  V30 14448 H 1344.3 2.07957 1.52025 0
M  V30 14449 H 1344.26 1.10031 2.94518 0
M  V30 14450 N 1348.03 0.0217466 1.57585 0
M  V30 14451 C 1348.96 -0.961069 2.12804 0
M  V30 14452 C 1349.94 -1.3442 1.04237 0
M  V30 14453 O 1351.12 -1.42412 1.32032 0
M  V30 14454 C 1348.25 -2.24586 2.64912 0
M  V30 14455 C 1347.21 -2.0037 3.78201 0
M  V30 14456 C 1346.53 -3.35051 4.16708 0
M  V30 14457 C 1347.83 -1.34879 5.04584 0
M  V30 14458 H 1349.53 -0.501222 2.95175 0
M  V30 14459 H 1347.07 -0.239649 1.41992 0
M  V30 14460 H 1349.03 -2.93715 3.02175 0
M  V30 14461 H 1347.75 -2.72723 1.79693 0
M  V30 14462 H 1346.41 -1.33662 3.41365 0
M  V30 14463 H 1346.06 -3.80932 3.28481 0
M  V30 14464 H 1345.76 -3.19656 4.93045 0
M  V30 14465 H 1347.28 -4.05459 4.56547 0
M  V30 14466 H 1348.7 -1.93997 5.3948 0
M  V30 14467 H 1347.09 -1.29906 5.85871 0
M  V30 14468 H 1348.16 -0.320774 4.83838 0
M  V30 14469 N 1349.51 -1.55583 -0.251311 0
M  V30 14470 C 1350.47 -1.89148 -1.29443 0
M  V30 14471 C 1351.47 -0.7676 -1.41296 0
M  V30 14472 O 1352.66 -1.03563 -1.40073 0
M  V30 14473 C 1349.79 -2.11601 -2.67279 0
M  V30 14474 H 1350.98 -2.82416 -1.00901 0
M  V30 14475 H 1348.54 -1.48407 -0.490398 0
M  V30 14476 H 1349.27 -1.20787 -3.00967 0
M  V30 14477 H 1349.06 -2.93449 -2.60058 0
M  V30 14478 H 1350.55 -2.38768 -3.42607 0
M  V30 14479 N 1350.98 0.516783 -1.48886 0
M  V30 14480 C 1351.95 1.60226 -1.63891 0
M  V30 14481 C 1352.95 1.52448 -0.511479 0
M  V30 14482 O 1354.14 1.55882 -0.777582 0
M  V30 14483 C 1351.27 2.99867 -1.62151 0
M  V30 14484 H 1352.46 1.48256 -2.60692 0
M  V30 14485 H 1350.01 0.739844 -1.37681 0
M  V30 14486 H 1350.75 3.1733 -0.668764 0
M  V30 14487 H 1350.53 3.0692 -2.44013 0
M  V30 14488 H 1352.02 3.7876 -1.7587 0
M  V30 14489 N 1352.46 1.37696 0.766659 0
M  V30 14490 C 1353.71 1.32922 1.52237 0
M  V30 14491 C 1354.03 -0.0842833 1.94818 0
M  V30 14492 O 1353.3 -1.02934 1.66677 0
M  V30 14493 H 1351.88 0.489049 0.564659 0
M  V30 14494 H 1354.54 1.72238 0.912142 0
M  V30 14495 H 1353.64 1.97158 2.4194 0
M  V30 14496 N 1353.94 -0.993397 1.22349 0
M  V30 14497 C 1355.17 -1.76838 1.07406 0
M  V30 14498 C 1355.58 -1.8503 -0.37542 0
M  V30 14499 O 1354.94 -1.32008 -1.26016 0
M  V30 14500 C 1354.99 -3.20177 1.67837 0
M  V30 14501 O 1354.71 -3.12429 3.07115 0
M  V30 14502 C 1356.21 -4.14125 1.58161 0
M  V30 14503 H 1353.43 -0.555379 0.376557 0
M  V30 14504 H 1355.98 -1.24893 1.61932 0
M  V30 14505 H 1354.13 -3.69191 1.17375 0
M  V30 14506 H 1354.55 -4.02568 3.36213 0
M  V30 14507 H 1356.02 -5.12455 2.05169 0
M  V30 14508 H 1356.5 -4.35892 0.538073 0
M  V30 14509 H 1357.1 -3.71008 2.07926 0
M  V30 14510 N 1355.42 -1.03311 -1.19015 0
M  V30 14511 C 1356.69 -0.646539 -1.84606 0
M  V30 14512 C 1357.07 0.87449 -1.92135 0
M  V30 14513 O 1356.42 1.77291 -1.44154 0
M  V30 14514 C 1356.63 -1.31354 -3.23338 0
M  V30 14515 C 1357.98 -1.43949 -3.99455 0
M  V30 14516 O 1359 -1.27104 -3.32751 0
M  V30 14517 O 1357.86 -1.71328 -5.1895 0
M  V30 14518 H 1354.96 -0.225267 -0.795728 0
M  V30 14519 H 1357.5 -1.13152 -1.2647 0
M  V30 14520 H 1356.28 -2.3521 -3.12717 0
M  V30 14521 H 1355.9 -0.816688 -3.89122 0
M  V30 14522 N 1356.9 1.35099 -0.81154 0
M  V30 14523 C 1357.84 2.31618 -0.213536 0
M  V30 14524 C 1358.84 1.56868 0.63944 0
M  V30 14525 O 1360.04 1.71957 0.532051 0
M  V30 14526 H 1356.42 0.750316 -0.0502963 0
M  V30 14527 H 1358.39 2.79593 -1.04262 0
M  V30 14528 C 1357.14 3.4214 0.619293 0
M  V30 14529 H 1356.46 3.9979 -0.0277192 0
M  V30 14530 H 1357.9 4.11941 1.00401 0
M  V30 14531 C 1356.36 2.85607 1.7869 0
M  V30 14532 O 1356.89 2.7956 2.8846 0
M  V30 14533 N 1355.1 2.42587 1.6 0
M  V30 14534 H 1354.64 2.47705 0.707105 0
M  V30 14535 H 1354.6 2.0511 2.38279 0
M  V30 14536 N 1358.37 0.56548 1.47106 0
M  V30 14537 C 1359.6 0.0496298 2.0684 0
M  V30 14538 C 1360.02 -1.24777 1.4169 0
M  V30 14539 O 1359.37 -1.75046 0.516239 0
M  V30 14540 C 1359.42 -0.140987 3.61225 0
M  V30 14541 O 1359.15 1.10504 4.23934 0
M  V30 14542 C 1360.65 -0.693171 4.37847 0
M  V30 14543 H 1357.87 0.0496018 0.669164 0
M  V30 14544 H 1360.41 0.781247 1.88989 0
M  V30 14545 H 1358.57 -0.822762 3.78562 0
M  V30 14546 H 1358.98 0.907978 5.16581 0
M  V30 14547 H 1360.45 -0.7758 5.46521 0
M  V30 14548 H 1360.93 -1.70632 4.04699 0
M  V30 14549 H 1361.54 -0.046826 4.25274 0
M  V30 14550 N 1359.85 -1.54672 0.302354 0
M  V30 14551 C 1361.08 -2.05041 -0.311891 0
M  V30 14552 C 1361.5 -1.17814 -1.46634 0
M  V30 14553 O 1360.86 -0.182517 -1.80379 0
M  V30 14554 C 1360.91 -3.52831 -0.744489 0
M  V30 14555 O 1360.01 -3.68621 -1.84913 0
M  V30 14556 H 1359.35 -0.661255 -0.0603102 0
M  V30 14557 H 1361.88 -1.99711 0.444593 0
M  V30 14558 H 1361.89 -3.94708 -1.03293 0
M  V30 14559 H 1360.57 -4.1578 0.0999976 0
M  V30 14560 H 1359.15 -3.38649 -1.56113 0
M  V30 14561 N 1361.33 -0.0301034 -1.57571 0
M  V30 14562 C 1362.56 0.662045 -1.9655 0
M  V30 14563 C 1362.98 1.64811 -0.906581 0
M  V30 14564 O 1362.34 1.80816 0.132415 0
M  V30 14565 C 1362.39 1.34389 -3.34622 0
M  V30 14566 O 1361.49 2.45919 -3.31056 0
M  V30 14567 H 1360.83 0.173842 -0.640839 0
M  V30 14568 H 1363.36 -0.092248 -2.04392 0
M  V30 14569 H 1363.37 1.70045 -3.70875 0
M  V30 14570 H 1362.05 0.621092 -4.11236 0
M  V30 14571 H 1360.62 2.12367 -3.06521 0
M  V30 14572 N 1362.81 1.55714 0.243056 0
M  V30 14573 C 1363.74 1.93655 1.30461 0
M  V30 14574 C 1364.72 0.801968 1.50008 0
M  V30 14575 O 1365.9 1.06256 1.62552 0
M  V30 14576 C 1363.03 2.23459 2.65863 0
M  V30 14577 C 1361.99 3.39205 2.61006 0
M  V30 14578 C 1361.31 3.5456 4.00239 0
M  V30 14579 C 1362.61 4.74787 2.17656 0
M  V30 14580 H 1364.31 2.82575 0.98954 0
M  V30 14581 H 1361.85 1.35955 0.474572 0
M  V30 14582 H 1363.81 2.48591 3.40266 0
M  V30 14583 H 1362.53 1.31369 2.99014 0
M  V30 14584 H 1361.19 3.14088 1.89061 0
M  V30 14585 H 1360.84 2.59884 4.30661 0
M  V30 14586 H 1360.54 4.32399 3.97876 0
M  V30 14587 H 1362.06 3.82017 4.76335 0
M  V30 14588 H 1363.48 4.99266 2.81792 0
M  V30 14589 H 1361.87 5.55756 2.26397 0
M  V30 14590 H 1362.94 4.7159 1.12831 0
M  V30 14591 N 1364.29 -0.50888 1.49158 0
M  V30 14592 C 1365.53 -1.261 1.57934 0
M  V30 14593 C 1365.86 -1.93199 0.264405 0
M  V30 14594 O 1365.13 -1.82359 -0.715684 0
M  V30 14595 H 1363.71 -0.468421 0.581886 0
M  V30 14596 H 1366.37 -0.590447 1.85741 0
M  V30 14597 H 1365.46 -2.02913 2.37135 0
M  V30 14598 N 1365.76 -1.381 -0.759346 0
M  V30 14599 C 1367.18 -1.30379 -1.33635 0
M  V30 14600 C 1367.53 0.0430279 -1.96153 0
M  V30 14601 O 1366.65 0.945029 -1.94675 0
M  V30 14602 C 1367.25 -2.3611 -2.42976 0
M  V30 14603 C 1365.81 -2.31985 -2.96412 0
M  V30 14604 C 1364.95 -2.19281 -1.69739 0
M  V30 14605 H 1367.9 -1.48542 -0.558656 0
M  V30 14606 H 1367.92 -2.01493 -3.22771 0
M  V30 14607 H 1367.44 -3.34122 -1.97445 0
M  V30 14608 H 1365.54 -1.37536 -3.46287 0
M  V30 14609 H 1365.65 -3.25895 -3.51183 0
M  V30 14610 H 1364.01 -1.66035 -1.93144 0
M  V30 14611 H 1364.8 -3.19225 -1.26293 0
M  V30 14612 N 1367.24 0.986894 -1.22875 0
M  V30 14613 C 1368.65 1.54182 -1.05284 0
M  V30 14614 C 1369 1.92448 0.381856 0
M  V30 14615 O 1368.13 1.75381 1.26769 0
M  V30 14616 C 1368.72 2.80173 -1.90496 0
M  V30 14617 C 1367.28 3.32088 -1.77185 0
M  V30 14618 C 1366.43 2.05128 -1.86596 0
M  V30 14619 H 1369.38 0.807304 -1.36632 0
M  V30 14620 H 1369.4 3.52772 -1.42591 0
M  V30 14621 H 1368.91 2.52291 -2.94908 0
M  V30 14622 H 1367.02 3.64864 -0.755295 0
M  V30 14623 H 1367.13 4.02285 -2.60199 0
M  V30 14624 H 1365.49 2.18964 -1.30103 0
M  V30 14625 H 1366.28 1.79635 -2.92551 0
M  V30 14626 N 1368.72 1.0394 1.18466 0
M  V30 14627 C 1369.95 0.761926 1.92897 0
M  V30 14628 C 1370.37 -0.674618 1.75586 0
M  V30 14629 O 1369.73 -1.46711 1.06515 0
M  V30 14630 C 1369.78 1.13152 3.42387 0
M  V30 14631 O 1368.88 0.256266 4.11603 0
M  V30 14632 H 1368.22 0.280527 0.601831 0
M  V30 14633 H 1370.75 1.3889 1.50235 0
M  V30 14634 H 1370.76 1.0929 3.9309 0
M  V30 14635 H 1369.44 2.17804 3.54308 0
M  V30 14636 H 1368.01 0.354392 3.71212 0
M  V30 14637 N 1370.2 -1.34667 0.818693 0
M  V30 14638 C 1371.13 -2.27466 0.182904 0
M  V30 14639 C 1372.11 -1.48682 -0.65821 0
M  V30 14640 O 1373.29 -1.77912 -0.622868 0
M  V30 14641 C 1370.42 -3.30406 -0.744971 0
M  V30 14642 C 1369.47 -4.26496 0.018069 0
M  V30 14643 S 1370.3 -5.1788 1.36236 0
M  V30 14644 C 1371.46 -6.24357 0.43925 0
M  V30 14645 H 1371.69 -2.81042 0.969668 0
M  V30 14646 H 1369.22 -1.4165 0.614372 0
M  V30 14647 H 1371.18 -3.90205 -1.27478 0
M  V30 14648 H 1369.84 -2.75684 -1.50522 0
M  V30 14649 H 1369.03 -4.99294 -0.687141 0
M  V30 14650 H 1368.64 -3.70929 0.478291 0
M  V30 14651 H 1370.93 -6.76484 -0.370837 0
M  V30 14652 H 1371.87 -6.98916 1.13678 0
M  V30 14653 H 1372.28 -5.64492 0.0295605 0
M  V30 14654 N 1371.68 -0.573274 -1.46804 0
M  V30 14655 C 1373.09 -0.144162 -1.86143 0
M  V30 14656 C 1373.44 1.29033 -1.47801 0
M  V30 14657 O 1372.56 1.97319 -0.888494 0
M  V30 14658 C 1373.16 -0.254851 -3.3784 0
M  V30 14659 C 1371.72 0.119325 -3.76211 0
M  V30 14660 C 1370.86 -0.595115 -2.70839 0
M  V30 14661 H 1373.82 -0.782057 -1.38093 0
M  V30 14662 H 1373.84 0.522321 -3.76898 0
M  V30 14663 H 1373.35 -1.29899 -3.65715 0
M  V30 14664 H 1371.45 1.16396 -3.53953 0
M  V30 14665 H 1371.56 -0.250421 -4.78445 0
M  V30 14666 H 1369.93 -0.0364028 -2.54674 0
M  V30 14667 H 1370.71 -1.64072 -3.01555 0
M  V30 14668 N 1373.15 1.5451 -0.310553 0
M  V30 14669 C 1374.4 2.00623 0.296343 0
M  V30 14670 C 1374.73 1.19855 1.52802 0
M  V30 14671 O 1374.01 0.277468 1.92511 0
M  V30 14672 C 1374.29 3.54305 0.643448 0
M  V30 14673 C 1374.14 4.45807 -0.598029 0
M  V30 14674 C 1375.46 4.14958 1.46623 0
M  V30 14675 H 1372.58 0.729303 0.106236 0
M  V30 14676 H 1375.22 1.85196 -0.424549 0
M  V30 14677 H 1373.37 3.67581 1.25762 0
M  V30 14678 H 1375.05 4.44421 -1.23643 0
M  V30 14679 H 1373.29 4.16014 -1.22944 0
M  V30 14680 H 1373.96 5.51124 -0.310883 0
M  V30 14681 H 1376.44 4.05176 0.947199 0
M  V30 14682 H 1375.31 5.22627 1.67787 0
M  V30 14683 H 1375.57 3.67445 2.45839 0
M  V30 14684 N 1374.63 0.0384594 1.57553 0
M  V30 14685 C 1375.58 -0.949625 2.07283 0
M  V30 14686 C 1376.57 -1.27973 0.975284 0
M  V30 14687 O 1377.76 -1.26428 1.23875 0
M  V30 14688 C 1374.89 -2.22887 2.61106 0
M  V30 14689 C 1373.97 -1.92672 3.77807 0
M  V30 14690 N 1374.37 -1.32764 4.88065 0
M  V30 14691 C 1372.66 -2.22612 3.86471 0
M  V30 14692 C 1373.36 -1.19892 5.69211 0
M  V30 14693 N 1372.34 -1.69757 5.16414 0
M  V30 14694 H 1376.14 -0.481562 2.89928 0
M  V30 14695 H 1373.66 -0.166321 1.61546 0
M  V30 14696 H 1375.65 -2.94556 2.9503 0
M  V30 14697 H 1374.31 -2.70311 1.79895 0
M  V30 14698 H 1375.32 -1.00146 5.08125 0
M  V30 14699 H 1372 -2.72645 3.16182 0
M  V30 14700 H 1373.39 -0.734892 6.67869 0
M  V30 14701 N 1376.11 -1.55841 -0.234795 0
M  V30 14702 C 1377.34 -1.82043 -0.976937 0
M  V30 14703 C 1377.75 -0.613552 -1.78975 0
M  V30 14704 O 1377.09 0.427271 -1.78662 0
M  V30 14705 C 1377.15 -3.0178 -1.95369 0
M  V30 14706 C 1376.82 -4.3732 -1.32666 0
M  V30 14707 C 1377.82 -5.14847 -0.723107 0
M  V30 14708 C 1375.5 -4.8403 -1.3424 0
M  V30 14709 C 1377.49 -6.37238 -0.143646 0
M  V30 14710 C 1375.18 -6.06367 -0.759087 0
M  V30 14711 C 1376.18 -6.82811 -0.16075 0
M  V30 14712 O 1375.87 -8.02836 0.41352 0
M  V30 14713 H 1375.6 -0.609424 -0.292537 0
M  V30 14714 H 1378.15 -2.03758 -0.259216 0
M  V30 14715 H 1376.38 -2.7585 -2.71005 0
M  V30 14716 H 1378.07 -3.14968 -2.56027 0
M  V30 14717 H 1378.84 -4.79873 -0.703371 0
M  V30 14718 H 1374.72 -4.24512 -1.7975 0
M  V30 14719 H 1378.26 -6.96847 0.324002 0
M  V30 14720 H 1374.16 -6.40816 -0.776191 0
M  V30 14721 H 1374.93 -8.17926 0.306554 0
M  V30 14722 N 1377.59 0.500963 -1.49426 0
M  V30 14723 C 1378.87 1.26231 -1.49416 0
M  V30 14724 C 1379.25 2.0993 -0.221908 0
M  V30 14725 O 1378.59 2.14198 0.795712 0
M  V30 14726 C 1378.8 2.11899 -2.77308 0
M  V30 14727 C 1380.15 2.71086 -3.26799 0
M  V30 14728 O 1381.18 2.22166 -2.78425 0
M  V30 14729 O 1380.04 3.60141 -4.11049 0
M  V30 14730 H 1377.13 0.571224 -0.598024 0
M  V30 14731 H 1379.68 0.51523 -1.61689 0
M  V30 14732 H 1378.45 1.50027 -3.61397 0
M  V30 14733 H 1378.07 2.93799 -2.67896 0
M  V30 14734 N 1379.07 1.38501 0.752011 0
M  V30 14735 C 1380.29 1.38212 1.54636 0
M  V30 14736 C 1380.72 -0.0256356 1.88083 0
M  V30 14737 O 1380.08 -1.00812 1.50687 0
M  V30 14738 C 1380.12 2.24597 2.82114 0
M  V30 14739 O 1379.23 1.66415 3.77332 0
M  V30 14740 H 1378.57 0.47138 0.46765 0
M  V30 14741 H 1381.1 1.82283 0.929205 0
M  V30 14742 H 1381.11 2.38511 3.31023 0
M  V30 14743 H 1379.78 3.26913 2.57101 0
M  V30 14744 H 1378.36 1.61651 3.36041 0
M  V30 14745 N 1380.55 -0.980364 1.23396 0
M  V30 14746 C 1381.48 -2.07522 0.972991 0
M  V30 14747 C 1382.49 -1.62714 -0.0530191 0
M  V30 14748 O 1383.68 -1.77564 0.182513 0
M  V30 14749 C 1380.78 -3.35977 0.444126 0
M  V30 14750 C 1379.95 -4.09756 1.53031 0
M  V30 14751 C 1379.01 -5.16488 1.00631 0
M  V30 14752 O 1378.04 -5.43368 1.69529 0
M  V30 14753 N 1379.24 -5.80263 -0.165842 0
M  V30 14754 H 1382 -2.30487 1.91561 0
M  V30 14755 H 1379.57 -1.14706 1.14255 0
M  V30 14756 H 1381.56 -4.04624 0.078617 0
M  V30 14757 H 1380.13 -3.0998 -0.403912 0
M  V30 14758 H 1379.35 -3.35564 2.06858 0
M  V30 14759 H 1380.64 -4.55815 2.26076 0
M  V30 14760 H 1380.03 -5.60811 -0.742162 0
M  V30 14761 H 1378.59 -6.50084 -0.472614 0
M  V30 14762 N 1382.02 -1.04567 -1.17913 0
M  V30 14763 C 1382.95 -0.662066 -2.23917 0
M  V30 14764 C 1383.93 0.33713 -1.66726 0
M  V30 14765 O 1385.12 0.216116 -1.92994 0
M  V30 14766 C 1382.25 -0.029463 -3.47288 0
M  V30 14767 C 1381.2 -0.95274 -4.17261 0
M  V30 14768 C 1380.53 -0.184347 -5.34382 0
M  V30 14769 C 1381.83 -2.2741 -4.70194 0
M  V30 14770 H 1383.52 -1.54826 -2.5626 0
M  V30 14771 H 1381.07 -0.745886 -1.23177 0
M  V30 14772 H 1383.02 0.250654 -4.20654 0
M  V30 14773 H 1381.75 0.891638 -3.14193 0
M  V30 14774 H 1380.41 -1.21732 -3.45799 0
M  V30 14775 H 1380.05 0.73932 -4.97537 0
M  V30 14776 H 1379.75 -0.79949 -5.82136 0
M  V30 14777 H 1381.28 0.0886344 -6.10536 0
M  V30 14778 H 1382.69 -2.05433 -5.35229 0
M  V30 14779 H 1381.09 -2.84265 -5.28501 0
M  V30 14780 H 1382.16 -2.91708 -3.87342 0
M  V30 14781 N 1383.5 1.34231 -0.825823 0
M  V30 14782 C 1384.78 1.92662 -0.337743 0
M  V30 14783 C 1385.16 1.75358 1.17529 0
M  V30 14784 O 1384.51 1.13405 1.98372 0
M  V30 14785 C 1384.72 3.40394 -0.770269 0
M  V30 14786 C 1386.06 4.17546 -0.770767 0
M  V30 14787 O 1387.09 3.4899 -0.713035 0
M  V30 14788 O 1385.95 5.39903 -0.846602 0
M  V30 14789 H 1383.04 0.821768 -0.0928741 0
M  V30 14790 H 1385.59 1.43187 -0.910807 0
M  V30 14791 H 1384.36 3.46802 -1.81228 0
M  V30 14792 H 1383.98 3.97223 -0.17306 0
M  V30 14793 N 1384.98 0.581051 1.46498 0
M  V30 14794 C 1386.21 0.0715652 2.06776 0
M  V30 14795 C 1386.62 -1.23267 1.43006 0
M  V30 14796 O 1385.98 -1.74489 0.534776 0
M  V30 14797 C 1386.03 -0.102666 3.61354 0
M  V30 14798 O 1385.75 1.14995 4.22739 0
M  V30 14799 C 1387.25 -0.646692 4.38558 0
M  V30 14800 H 1384.47 0.0566964 0.6686 0
M  V30 14801 H 1387.02 0.801248 1.8815 0
M  V30 14802 H 1385.17 -0.782564 3.79414 0
M  V30 14803 H 1385.59 0.962718 5.15589 0
M  V30 14804 H 1387.06 -0.717791 5.47313 0
M  V30 14805 H 1387.54 -1.6633 4.06486 0
M  V30 14806 H 1388.14 -0.00171739 4.253 0
M  V30 14807 N 1386.46 -1.54343 0.318742 0
M  V30 14808 C 1387.69 -2.04894 -0.287378 0
M  V30 14809 C 1388.1 -1.19514 -1.46157 0
M  V30 14810 O 1387.46 -0.224722 -1.81111 0
M  V30 14811 C 1387.51 -3.54124 -0.726505 0
M  V30 14812 O 1387.23 -4.36261 0.400968 0
M  V30 14813 C 1388.73 -4.20748 -1.39594 0
M  V30 14814 H 1385.95 -0.668323 -0.0598724 0
M  V30 14815 H 1388.49 -1.99177 0.463531 0
M  V30 14816 H 1386.65 -3.60145 -1.4274 0
M  V30 14817 H 1387.06 -5.2447 0.0558714 0
M  V30 14818 H 1388.54 -5.26632 -1.65418 0
M  V30 14819 H 1389.01 -3.71566 -2.3417 0
M  V30 14820 H 1389.62 -4.18852 -0.737749 0
M  V30 14821 N 1387.94 -0.0468143 -1.5753 0
M  V30 14822 C 1388.87 0.927092 -2.14306 0
M  V30 14823 C 1389.85 1.32745 -1.06362 0
M  V30 14824 O 1391.03 1.40293 -1.34281 0
M  V30 14825 C 1388.16 2.20343 -2.68452 0
M  V30 14826 C 1387.12 1.94328 -3.81341 0
M  V30 14827 C 1386.44 3.28379 -4.21985 0
M  V30 14828 C 1387.74 1.26835 -5.06666 0
M  V30 14829 H 1389.44 0.454199 -2.95935 0
M  V30 14830 H 1386.98 0.217029 -1.42355 0
M  V30 14831 H 1388.93 2.8887 -3.0681 0
M  V30 14832 H 1387.66 2.6983 -1.84009 0
M  V30 14833 H 1386.32 1.28214 -3.43448 0
M  V30 14834 H 1385.97 3.75658 -3.34499 0
M  V30 14835 H 1385.67 3.11772 -4.98068 0
M  V30 14836 H 1387.19 3.98145 -4.6294 0
M  V30 14837 H 1388.6 1.85389 -5.42498 0
M  V30 14838 H 1387 1.20569 -5.87863 0
M  V30 14839 H 1388.07 0.243759 -4.84287 0
M  V30 14840 N 1389.41 1.55964 0.226527 0
M  V30 14841 C 1390.66 1.78745 0.95165 0
M  V30 14842 C 1390.99 0.614714 1.84531 0
M  V30 14843 O 1390.24 -0.401137 1.91545 0
M  V30 14844 C 1390.54 3.07235 1.82597 0
M  V30 14845 C 1390.21 4.37627 1.08596 0
M  V30 14846 C 1388.87 4.73057 0.881531 0
M  V30 14847 C 1391.22 5.1815 0.563019 0
M  V30 14848 C 1388.55 5.86528 0.142172 0
M  V30 14849 C 1390.9 6.3239 -0.162972 0
M  V30 14850 C 1389.57 6.66425 -0.378704 0
M  V30 14851 H 1388.84 0.654075 0.348233 0
M  V30 14852 H 1391.48 1.9023 0.220187 0
M  V30 14853 H 1389.79 2.9085 2.62514 0
M  V30 14854 H 1391.49 3.22063 2.38907 0
M  V30 14855 H 1388.08 4.09806 1.25527 0
M  V30 14856 H 1392.26 4.91218 0.708446 0
M  V30 14857 H 1387.52 6.1139 -0.0352481 0
M  V30 14858 H 1391.69 6.94016 -0.575719 0
M  V30 14859 H 1389.32 7.54196 -0.953549 0
M  V30 14860 N 1390.89 -0.493031 1.4969 0
M  V30 14861 C 1392.14 -1.24418 1.59263 0
M  V30 14862 C 1392.46 -1.92908 0.284882 0
M  V30 14863 O 1391.73 -1.83108 -0.696302 0
M  V30 14864 H 1390.31 -0.462223 0.586821 0
M  V30 14865 H 1392.97 -0.570713 1.86357 0
M  V30 14866 H 1392.07 -2.00386 2.39274 0
M  V30 14867 N 1392.37 -1.38898 -0.744656 0
M  V30 14868 C 1393.32 -1.36845 -1.85855 0
M  V30 14869 C 1394.29 -0.2296 -1.64505 0
M  V30 14870 O 1395.47 -0.423221 -1.86047 0
M  V30 14871 C 1392.61 -1.20818 -3.2326 0
M  V30 14872 C 1391.73 -2.44166 -3.5638 0
M  V30 14873 C 1390.86 -2.20801 -4.83136 0
M  V30 14874 C 1389.9 -3.39874 -5.0907 0
M  V30 14875 N 1389.04 -3.15888 -6.27024 0
M  V30 14876 H 1393.88 -2.32068 -1.86945 0
M  V30 14877 H 1391.41 -1.15289 -0.913611 0
M  V30 14878 H 1393.37 -1.0954 -4.02563 0
M  V30 14879 H 1392 -0.292295 -3.21474 0
M  V30 14880 H 1391.05 -2.66083 -2.71852 0
M  V30 14881 H 1392.37 -3.32885 -3.71469 0
M  V30 14882 H 1391.52 -2.0671 -5.704 0
M  V30 14883 H 1390.26 -1.29462 -4.70203 0
M  V30 14884 H 1389.26 -3.54474 -4.20271 0
M  V30 14885 H 1390.49 -4.32102 -5.23894 0
M  V30 14886 H 1388.43 -2.27204 -6.15398 0
M  V30 14887 H 1388.35 -3.9816 -6.42655 0
M  V30 14888 H 1389.62 -3.0547 -7.17153 0
M  V30 14889 N 1393.85 0.973806 -1.23914 0
M  V30 14890 C 1394.8 2.06734 -1.02614 0
M  V30 14891 C 1395.77 1.65997 0.0585705 0
M  V30 14892 O 1396.95 1.90564 -0.0948467 0
M  V30 14893 C 1394.09 3.39292 -0.630493 0
M  V30 14894 C 1393.2 3.9326 -1.78803 0
M  V30 14895 C 1392.34 5.14059 -1.33854 0
M  V30 14896 C 1391.38 5.60209 -2.46642 0
M  V30 14897 N 1390.51 6.72232 -2.02603 0
M  V30 14898 H 1395.35 2.24287 -1.96212 0
M  V30 14899 H 1392.89 1.09935 -0.977376 0
M  V30 14900 H 1394.85 4.15446 -0.382163 0
M  V30 14901 H 1393.48 3.21682 0.268483 0
M  V30 14902 H 1392.53 3.13801 -2.15019 0
M  V30 14903 H 1393.84 4.23475 -2.63573 0
M  V30 14904 H 1393 5.97567 -1.04873 0
M  V30 14905 H 1391.74 4.85513 -0.46131 0
M  V30 14906 H 1390.74 4.75278 -2.7639 0
M  V30 14907 H 1391.97 5.90771 -3.34912 0
M  V30 14908 H 1389.91 6.45433 -1.17269 0
M  V30 14909 H 1389.83 7.01865 -2.80929 0
M  V30 14910 H 1391.1 7.59198 -1.76745 0
M  V30 14911 N 1395.33 1.05191 1.17357 0
M  V30 14912 C 1396.55 0.782343 1.92079 0
M  V30 14913 C 1396.98 -0.655957 1.76292 0
M  V30 14914 O 1396.33 -1.45573 1.08065 0
M  V30 14915 C 1396.38 1.16777 3.41168 0
M  V30 14916 O 1395.49 0.299908 4.11308 0
M  V30 14917 H 1394.83 0.286894 0.598822 0
M  V30 14918 H 1397.36 1.40476 1.48754 0
M  V30 14919 H 1397.37 1.13454 3.91909 0
M  V30 14920 H 1396.04 2.2155 3.51978 0
M  V30 14921 H 1394.62 0.393744 3.70815 0
M  V30 14922 N 1396.8 -1.33791 0.83293 0
M  V30 14923 C 1398.03 -2.0272 0.438111 0
M  V30 14924 C 1398.45 -1.62279 -0.951163 0
M  V30 14925 O 1397.81 -0.812406 -1.62079 0
M  V30 14926 C 1397.86 -3.5623 0.559698 0
M  V30 14927 O 1396.96 -4.10292 -0.41646 0
M  V30 14928 H 1396.31 -0.639438 0.178928 0
M  V30 14929 H 1398.84 -1.70821 1.12612 0
M  V30 14930 H 1398.85 -4.0563 0.439148 0
M  V30 14931 H 1397.52 -3.8501 1.5729 0
M  V30 14932 H 1396.1 -3.72034 -0.25396 0
M  V30 14933 N 1398.28 -0.588812 -1.46187 0
M  V30 14934 C 1399.69 -0.163897 -1.85979 0
M  V30 14935 C 1400.04 1.27458 -1.49161 0
M  V30 14936 O 1399.17 1.96365 -0.909372 0
M  V30 14937 C 1399.76 -0.29067 -3.37551 0
M  V30 14938 C 1398.32 0.0794165 -3.76316 0
M  V30 14939 C 1397.47 -0.623807 -2.70192 0
M  V30 14940 H 1400.42 -0.79666 -1.37255 0
M  V30 14941 H 1400.44 0.482316 -3.77431 0
M  V30 14942 H 1399.95 -1.33771 -3.64317 0
M  V30 14943 H 1398.06 1.12636 -3.55168 0
M  V30 14944 H 1398.17 -0.301153 -4.78153 0
M  V30 14945 H 1396.53 -0.0634124 -2.54621 0
M  V30 14946 H 1397.32 -1.67261 -2.99797 0
M  V30 14947 N 1399.76 1.54172 -0.326923 0
M  V30 14948 C 1400.69 2.27402 0.530154 0
M  V30 14949 C 1401.67 1.28325 1.11655 0
M  V30 14950 O 1402.86 1.57142 1.14105 0
M  V30 14951 C 1399.99 3.03435 1.68951 0
M  V30 14952 C 1398.94 4.09877 1.23226 0
M  V30 14953 C 1398.27 4.7377 2.47882 0
M  V30 14954 C 1399.57 5.21161 0.344698 0
M  V30 14955 H 1401.26 2.99291 -0.0806959 0
M  V30 14956 H 1398.81 1.43944 -0.0402511 0
M  V30 14957 H 1400.76 3.53396 2.29541 0
M  V30 14958 H 1399.48 2.29169 2.327 0
M  V30 14959 H 1398.14 3.60805 0.649267 0
M  V30 14960 H 1397.79 3.96116 3.10002 0
M  V30 14961 H 1397.49 5.45674 2.17977 0
M  V30 14962 H 1399.01 5.26507 3.09229 0
M  V30 14963 H 1400.43 5.66859 0.856979 0
M  V30 14964 H 1398.83 5.99941 0.138276 0
M  V30 14965 H 1399.9 4.80874 -0.623575 0
M  V30 14966 N 1401.24 0.0551678 1.57503 0
M  V30 14967 C 1402.47 -0.6272 1.97164 0
M  V30 14968 C 1402.88 -1.64143 0.932876 0
M  V30 14969 O 1402.24 -1.82314 -0.0824465 0
M  V30 14970 C 1402.29 -1.31057 3.36907 0
M  V30 14971 O 1402.01 -0.336951 4.36802 0
M  V30 14972 C 1403.51 -2.08232 3.91349 0
M  V30 14973 H 1400.73 -0.171196 0.648793 0
M  V30 14974 H 1403.28 0.122651 2.04132 0
M  V30 14975 H 1401.43 -2.01162 3.31078 0
M  V30 14976 H 1401.84 -0.825204 5.17968 0
M  V30 14977 H 1403.32 -2.51463 4.91397 0
M  V30 14978 H 1403.8 -2.93212 3.26991 0
M  V30 14979 H 1404.4 -1.43029 4.00528 0
M  V30 14980 N 1402.72 -1.56081 -0.218252 0
M  V30 14981 C 1403.63 -1.95856 -1.29141 0
M  V30 14982 C 1404.64 -0.862857 -1.51099 0
M  V30 14983 O 1405.82 -1.1667 -1.64165 0
M  V30 14984 C 1402.88 -2.27005 -2.62049 0
M  V30 14985 C 1401.94 -3.50162 -2.48365 0
M  V30 14986 C 1401.18 -3.79815 -3.74935 0
M  V30 14987 O 1401.4 -3.11095 -4.78096 0
M  V30 14988 O 1400.33 -4.73299 -3.71849 0
M  V30 14989 H 1404.16 -2.8732 -0.983922 0
M  V30 14990 H 1401.75 -1.43334 -0.421385 0
M  V30 14991 H 1403.63 -2.4822 -3.40536 0
M  V30 14992 H 1402.3 -1.38715 -2.92472 0
M  V30 14993 H 1401.21 -3.34222 -1.68066 0
M  V30 14994 H 1402.54 -4.38845 -2.22881 0
M  V30 14995 N 1404.2 0.485086 -1.49949 0
M  V30 14996 C 1405.42 1.26648 -1.64241 0
M  V30 14997 C 1405.85 1.85359 -0.319939 0
M  V30 14998 O 1405.2 1.66628 0.714487 0
M  V30 14999 C 1405.25 2.36109 -2.72552 0
M  V30 15000 O 1404.36 3.40387 -2.32832 0
M  V30 15001 H 1403.7 0.373208 -0.549192 0
M  V30 15002 H 1406.23 0.578929 -1.96239 0
M  V30 15003 H 1406.24 2.81634 -2.95205 0
M  V30 15004 H 1404.91 1.92745 -3.6854 0
M  V30 15005 H 1403.49 3.0067 -2.20571 0
M  V30 15006 N 1405.67 1.39291 0.737279 0
M  V30 15007 C 1406.92 1.36121 1.49384 0
M  V30 15008 C 1407.24 -0.0429406 1.94953 0
M  V30 15009 O 1406.51 -0.993756 1.68823 0
M  V30 15010 H 1405.09 0.500916 0.554159 0
M  V30 15011 H 1407.75 1.74134 0.875402 0
M  V30 15012 H 1406.85 2.02246 2.37704 0
M  V30 15013 N 1407.15 -0.967221 1.24429 0
M  V30 15014 C 1408.4 -1.70688 1.08213 0
M  V30 15015 C 1408.72 -1.91268 -0.379693 0
M  V30 15016 O 1407.99 -1.49077 -1.27094 0
M  V30 15017 H 1406.57 -0.632489 0.39745 0
M  V30 15018 H 1409.23 -1.16356 1.56356 0
M  V30 15019 H 1408.33 -2.69119 1.58055 0
M  V30 15020 N 1408.63 -1.05812 -1.16797 0
M  V30 15021 C 1410.04 -0.79707 -1.6883 0
M  V30 15022 C 1410.39 0.679967 -1.8404 0
M  V30 15023 O 1409.52 1.5279 -1.53245 0
M  V30 15024 C 1410.11 -1.44029 -3.06661 0
M  V30 15025 C 1408.67 -1.22714 -3.55835 0
M  V30 15026 C 1407.82 -1.51988 -2.31937 0
M  V30 15027 H 1410.77 -1.22224 -1.01227 0
M  V30 15028 H 1410.79 -0.852962 -3.70816 0
M  V30 15029 H 1410.3 -2.51529 -2.95559 0
M  V30 15030 H 1408.4 -0.171671 -3.72204 0
M  V30 15031 H 1408.52 -1.93646 -4.38221 0
M  V30 15032 H 1406.88 -0.940215 -2.36711 0
M  V30 15033 H 1407.66 -2.60635 -2.23438 0
M  V30 15034 N 1410.11 1.33347 -0.840014 0
M  V30 15035 C 1411.04 2.31703 -0.289138 0
M  V30 15036 C 1412.02 1.59024 0.603759 0
M  V30 15037 O 1413.2 1.86911 0.527071 0
M  V30 15038 C 1410.33 3.43144 0.53566 0
M  V30 15039 C 1409.29 4.272 -0.261544 0
M  V30 15040 C 1408.61 5.30267 0.687075 0
M  V30 15041 C 1409.91 5.00915 -1.47924 0
M  V30 15042 H 1411.61 2.78026 -1.11094 0
M  V30 15043 H 1409.15 1.33666 -0.535658 0
M  V30 15044 H 1411.11 4.10979 0.931351 0
M  V30 15045 H 1409.83 2.95512 1.39069 0
M  V30 15046 H 1408.49 3.60991 -0.638809 0
M  V30 15047 H 1408.14 4.78893 1.53853 0
M  V30 15048 H 1407.84 5.87388 0.157773 0
M  V30 15049 H 1409.36 6.00968 1.08026 0
M  V30 15050 H 1410.78 5.61511 -1.15664 0
M  V30 15051 H 1409.17 5.67692 -1.94541 0
M  V30 15052 H 1410.24 4.29622 -2.24839 0
M  V30 15053 N 1411.59 0.596556 1.45873 0
M  V30 15054 C 1412.81 0.0916466 2.07197 0
M  V30 15055 C 1413.24 -1.21004 1.44012 0
M  V30 15056 O 1412.59 -1.73415 0.528844 0
M  V30 15057 C 1412.64 -0.0461457 3.6057 0
M  V30 15058 O 1411.75 -1.09919 3.97481 0
M  V30 15059 H 1411.09 0.0690655 0.660398 0
M  V30 15060 H 1413.62 0.823434 1.87299 0
M  V30 15061 H 1413.63 -0.2479 4.07246 0
M  V30 15062 H 1412.3 0.904381 4.05948 0
M  V30 15063 H 1410.88 -0.874788 3.62494 0
M  V30 15064 N 1413.06 -1.53996 0.335095 0
M  V30 15065 C 1413.99 -2.2768 -0.518087 0
M  V30 15066 C 1414.97 -1.28915 -1.10972 0
M  V30 15067 O 1416.16 -1.57745 -1.1327 0
M  V30 15068 C 1413.29 -3.04327 -1.67339 0
M  V30 15069 C 1412.24 -4.10525 -1.2105 0
M  V30 15070 C 1411.57 -4.75078 -2.45366 0
M  V30 15071 C 1412.87 -5.21337 -0.317055 0
M  V30 15072 H 1414.56 -2.99244 0.0965669 0
M  V30 15073 H 1412.11 -1.4392 0.0478842 0
M  V30 15074 H 1414.06 -3.54608 -2.27664 0
M  V30 15075 H 1412.79 -2.30399 -2.31481 0
M  V30 15076 H 1411.45 -3.61144 -0.630124 0
M  V30 15077 H 1411.09 -3.97754 -3.07897 0
M  V30 15078 H 1410.79 -5.46822 -2.1508 0
M  V30 15079 H 1412.32 -5.2814 -3.06432 0
M  V30 15080 H 1413.73 -5.67305 -0.826905 0
M  V30 15081 H 1412.13 -6.00006 -0.106458 0
M  V30 15082 H 1413.2 -4.80536 0.649068 0
M  V30 15083 N 1414.54 -0.0635198 -1.57472 0
M  V30 15084 C 1415.77 0.620205 -1.9791 0
M  V30 15085 C 1416.19 1.62851 -0.941335 0
M  V30 15086 O 1415.55 1.81056 0.0940313 0
M  V30 15087 C 1415.6 1.27261 -3.37397 0
M  V30 15088 O 1414.7 2.38841 -3.36197 0
M  V30 15089 H 1414.04 0.16021 -0.644382 0
M  V30 15090 H 1416.57 -0.135582 -2.0415 0
M  V30 15091 H 1416.58 1.6214 -3.74399 0
M  V30 15092 H 1415.26 0.533723 -4.12461 0
M  V30 15093 H 1413.83 2.05817 -3.10956 0
M  V30 15094 N 1416.02 1.56195 0.209972 0
M  V30 15095 C 1416.93 1.96539 1.28101 0
M  V30 15096 C 1417.95 0.870858 1.50639 0
M  V30 15097 O 1419.12 1.17539 1.63544 0
M  V30 15098 C 1416.19 2.28392 2.60841 0
M  V30 15099 C 1415.25 3.51474 2.46505 0
M  V30 15100 C 1414.48 3.81798 3.72915 0
M  V30 15101 O 1414.7 3.13627 4.76439 0
M  V30 15102 O 1413.64 4.75264 3.69334 0
M  V30 15103 H 1417.46 2.87838 0.968671 0
M  V30 15104 H 1415.05 1.43556 0.413777 0
M  V30 15105 H 1416.93 2.50022 3.39215 0
M  V30 15106 H 1415.61 1.40264 2.91732 0
M  V30 15107 H 1414.51 3.35109 1.66292 0
M  V30 15108 H 1415.85 4.40021 2.2055 0
M  V30 15109 N 1417.5 -0.477127 1.50204 0
M  V30 15110 C 1418.41 -1.60182 1.71403 0
M  V30 15111 C 1419.42 -1.63437 0.597009 0
M  V30 15112 O 1420.6 -1.81418 0.874614 0
M  V30 15113 C 1417.66 -2.96432 1.79802 0
M  V30 15114 C 1416.73 -3.03614 3.03508 0
M  V30 15115 C 1415.96 -4.33365 3.11497 0
M  V30 15116 O 1416.18 -5.23529 2.26438 0
M  V30 15117 O 1415.12 -4.46013 4.04173 0
M  V30 15118 H 1418.94 -1.45221 2.66729 0
M  V30 15119 H 1416.53 -0.655982 1.34228 0
M  V30 15120 H 1418.41 -3.77367 1.87542 0
M  V30 15121 H 1417.08 -3.11605 0.876581 0
M  V30 15122 H 1415.99 -2.21779 3.01272 0
M  V30 15123 H 1417.32 -2.93376 3.95211 0
M  V30 15124 N 1418.98 -1.3968 -0.729882 0
M  V30 15125 C 1419.92 -1.3896 -1.86528 0
M  V30 15126 C 1420.92 -0.272027 -1.67202 0
M  V30 15127 O 1422.12 -0.442328 -1.74481 0
M  V30 15128 H 1418.5 -0.434045 -0.614092 0
M  V30 15129 H 1420.47 -2.34721 -1.84252 0
M  V30 15130 C 1419.22 -1.255 -3.24261 0
M  V30 15131 H 1418.54 -2.10767 -3.39731 0
M  V30 15132 H 1419.98 -1.29054 -4.03882 0
M  V30 15133 C 1418.44 0.0361127 -3.36881 0
M  V30 15134 O 1418.97 1.0044 -3.8894 0
M  V30 15135 N 1417.18 0.100874 -2.90425 0
M  V30 15136 H 1416.72 -0.687797 -2.48248 0
M  V30 15137 H 1416.68 0.964251 -2.99248 0
M  V30 15138 N 1420.45 0.960609 -1.2494 0
M  V30 15139 C 1421.4 2.07763 -1.04581 0
M  V30 15140 C 1422.4 1.69386 0.0214505 0
M  V30 15141 O 1423.6 1.79503 -0.133683 0
M  V30 15142 H 1419.98 0.679944 -0.321216 0
M  V30 15143 H 1421.95 2.22094 -1.99291 0
M  V30 15144 C 1420.7 3.41088 -0.674876 0
M  V30 15145 H 1420.02 3.71082 -1.4879 0
M  V30 15146 H 1421.46 4.20123 -0.572079 0
M  V30 15147 C 1419.92 3.31172 0.6186 0
M  V30 15148 O 1420.45 3.65688 1.66238 0
M  V30 15149 N 1418.66 2.84297 0.601984 0
M  V30 15150 H 1418.2 2.56406 -0.24778 0
M  V30 15151 H 1418.16 2.78045 1.4676 0
M  V30 15152 N 1421.93 1.0643 1.16234 0
M  V30 15153 C 1423.21 0.695256 1.82827 0
M  V30 15154 C 1423.59 -0.823242 1.94386 0
M  V30 15155 O 1422.94 -1.73406 1.48804 0
M  V30 15156 C 1423.15 1.3988 3.19741 0
M  V30 15157 C 1424.5 1.54489 3.95498 0
M  V30 15158 O 1425.52 1.35882 3.29264 0
M  V30 15159 O 1424.38 1.85027 5.14225 0
M  V30 15160 H 1421.47 0.246285 0.789476 0
M  V30 15161 H 1424.02 1.16466 1.23426 0
M  V30 15162 H 1422.79 2.43419 3.06371 0
M  V30 15163 H 1422.41 0.91957 3.8682 0
M  V30 15164 N 1423.41 -1.329 0.847073 0
M  V30 15165 C 1424.64 -2.02244 0.459588 0
M  V30 15166 C 1425.06 -1.63279 -0.933897 0
M  V30 15167 O 1424.42 -0.829551 -1.61208 0
M  V30 15168 C 1424.47 -3.55616 0.59745 0
M  V30 15169 O 1423.57 -4.1071 -0.372919 0
M  V30 15170 H 1422.91 -0.637504 0.1857 0
M  V30 15171 H 1425.44 -1.69617 1.14417 0
M  V30 15172 H 1425.45 -4.05141 0.482145 0
M  V30 15173 H 1424.13 -3.8332 1.61365 0
M  V30 15174 H 1422.7 -3.72283 -0.214487 0
M  V30 15175 N 1424.89 -0.604284 -1.45555 0
M  V30 15176 C 1425.84 0.116491 -2.30506 0
M  V30 15177 C 1426.81 0.863214 -1.41908 0
M  V30 15178 O 1427.99 0.849606 -1.7084 0
M  V30 15179 C 1425.13 1.11009 -3.26758 0
M  V30 15180 C 1424.24 0.36458 -4.30459 0
M  V30 15181 C 1423.38 1.34761 -5.13822 0
M  V30 15182 C 1422.42 0.589724 -6.09253 0
M  V30 15183 N 1421.55 1.52187 -6.85408 0
M  V30 15184 H 1426.39 -0.61394 -2.91607 0
M  V30 15185 H 1423.93 -0.314561 -1.43697 0
M  V30 15186 H 1425.89 1.69925 -3.81027 0
M  V30 15187 H 1424.52 1.80797 -2.67418 0
M  V30 15188 H 1423.57 -0.340026 -3.78877 0
M  V30 15189 H 1424.88 -0.226906 -4.98284 0
M  V30 15190 H 1424.04 2.00893 -5.72474 0
M  V30 15191 H 1422.78 1.97302 -4.46008 0
M  V30 15192 H 1421.78 -0.0852486 -5.49734 0
M  V30 15193 H 1423.01 -0.0306001 -6.79093 0
M  V30 15194 H 1420.95 2.13499 -6.20286 0
M  V30 15195 H 1420.87 0.983737 -7.49572 0
M  V30 15196 H 1422.14 2.17287 -7.48603 0
M  V30 15197 N 1426.37 1.53816 -0.343257 0
M  V30 15198 C 1427.3 2.27951 0.506005 0
M  V30 15199 C 1428.28 1.29502 1.10287 0
M  V30 15200 O 1429.46 1.58344 1.12432 0
M  V30 15201 C 1426.59 3.0521 1.65723 0
M  V30 15202 C 1425.55 4.11161 1.18871 0
M  V30 15203 C 1424.87 4.76373 2.42843 0
M  V30 15204 C 1426.17 5.21498 0.289403 0
M  V30 15205 H 1427.87 2.99189 -0.112435 0
M  V30 15206 H 1425.41 1.43893 -0.055516 0
M  V30 15207 H 1427.37 3.55811 2.2578 0
M  V30 15208 H 1426.09 2.31624 2.30256 0
M  V30 15209 H 1424.75 3.61473 0.610962 0
M  V30 15210 H 1424.4 3.99381 3.05784 0
M  V30 15211 H 1424.1 5.47955 2.12177 0
M  V30 15212 H 1425.62 5.29758 3.03627 0
M  V30 15213 H 1427.03 5.67736 0.796808 0
M  V30 15214 H 1425.43 6.00054 0.0746366 0
M  V30 15215 H 1426.5 4.80185 -0.674543 0
M  V30 15216 N 1427.84 0.0718701 1.57436 0
M  V30 15217 C 1428.77 -0.89288 2.15754 0
M  V30 15218 C 1429.76 -1.31036 1.0846 0
M  V30 15219 O 1430.94 -1.38139 1.36496 0
M  V30 15220 C 1428.07 -2.16044 2.71923 0
M  V30 15221 C 1427.02 -1.88236 3.84384 0
M  V30 15222 C 1426.35 -3.21624 4.27156 0
M  V30 15223 C 1427.65 -1.18758 5.0862 0
M  V30 15224 H 1429.34 -0.407061 2.9662 0
M  V30 15225 H 1426.89 -0.194354 1.42682 0
M  V30 15226 H 1428.84 -2.83952 3.11366 0
M  V30 15227 H 1427.57 -2.66868 1.88279 0
M  V30 15228 H 1426.23 -1.22734 3.45445 0
M  V30 15229 H 1425.87 -3.70289 3.40433 0
M  V30 15230 H 1425.57 -3.03809 5.02965 0
M  V30 15231 H 1427.1 -3.90729 4.69215 0
M  V30 15232 H 1428.51 -1.76735 5.45378 0
M  V30 15233 H 1426.91 -1.11201 5.89707 0
M  V30 15234 H 1427.98 -0.166682 4.84613 0
M  V30 15235 N 1429.32 -1.56304 -0.201686 0
M  V30 15236 C 1430.23 -1.97215 -1.27057 0
M  V30 15237 C 1431.25 -0.878834 -1.50175 0
M  V30 15238 O 1432.42 -1.18405 -1.62918 0
M  V30 15239 C 1429.49 -2.29772 -2.59626 0
M  V30 15240 C 1428.55 -3.52776 -2.44637 0
M  V30 15241 C 1427.78 -3.83771 -3.70885 0
M  V30 15242 O 1428.01 -3.16149 -4.7477 0
M  V30 15243 O 1426.94 -4.77216 -3.66808 0
M  V30 15244 H 1430.77 -2.88347 -0.953393 0
M  V30 15245 H 1428.35 -1.43773 -0.406158 0
M  V30 15246 H 1430.23 -2.51817 -3.37885 0
M  V30 15247 H 1428.91 -1.41809 -2.90984 0
M  V30 15248 H 1427.82 -3.35986 -1.64512 0
M  V30 15249 H 1429.15 -4.41184 -2.18214 0
M  V30 15250 N 1430.8 0.469154 -1.50455 0
M  V30 15251 C 1432.03 1.24899 -1.65575 0
M  V30 15252 C 1432.45 1.85009 -0.339581 0
M  V30 15253 O 1431.81 1.67376 0.696774 0
M  V30 15254 C 1431.86 2.33205 -2.75041 0
M  V30 15255 O 1430.96 3.37898 -2.36429 0
M  V30 15256 H 1430.3 0.367362 -0.553119 0
M  V30 15257 H 1432.83 0.558083 -1.96842 0
M  V30 15258 H 1432.84 2.78487 -2.98176 0
M  V30 15259 H 1431.52 1.88826 -3.70564 0
M  V30 15260 H 1430.09 2.98314 -2.23748 0
M  V30 15261 N 1432.28 1.40065 0.722464 0
M  V30 15262 C 1433.53 1.37698 1.47932 0
M  V30 15263 C 1433.85 -0.0222608 1.94987 0
M  V30 15264 O 1433.12 -0.975795 1.69868 0
M  V30 15265 H 1431.7 0.506766 0.548815 0
M  V30 15266 H 1434.36 1.75053 0.856884 0
M  V30 15267 H 1433.46 2.04756 2.35545 0
M  V30 15268 N 1433.76 -0.95397 1.25448 0
M  V30 15269 C 1434.69 -2.06828 1.08372 0
M  V30 15270 C 1435.67 -1.70098 -0.00741585 0
M  V30 15271 O 1436.85 -1.93521 0.16224 0
M  V30 15272 C 1433.98 -3.40124 0.702365 0
M  V30 15273 C 1432.94 -3.90865 1.74381 0
M  V30 15274 C 1432.26 -5.20663 1.21712 0
M  V30 15275 C 1433.56 -4.17169 3.14273 0
M  V30 15276 H 1435.26 -2.21372 2.01581 0
M  V30 15277 H 1432.8 -1.06374 0.970592 0
M  V30 15278 H 1434.76 -4.17529 0.569837 0
M  V30 15279 H 1433.48 -3.2552 -0.265428 0
M  V30 15280 H 1432.14 -3.15628 1.86479 0
M  V30 15281 H 1431.79 -5.02429 0.23954 0
M  V30 15282 H 1431.49 -5.55581 1.91319 0
M  V30 15283 H 1433.01 -6.00665 1.097 0
M  V30 15284 H 1434.43 -4.85231 3.05325 0
M  V30 15285 H 1432.82 -4.63344 3.81356 0
M  V30 15286 H 1433.89 -3.23421 3.61285 0
M  V30 15287 N 1435.24 -1.07045 -1.15668 0
M  V30 15288 C 1436.17 -0.632171 -2.19269 0
M  V30 15289 C 1437.15 0.348973 -1.58811 0
M  V30 15290 O 1438.33 0.256137 -1.86752 0
M  V30 15291 C 1435.46 0.0721491 -3.38623 0
M  V30 15292 C 1434.5 -0.866947 -4.17596 0
M  V30 15293 S 1435.34 -2.36628 -4.80382 0
M  V30 15294 C 1436.49 -1.67367 -6.03108 0
M  V30 15295 H 1436.73 -1.50986 -2.56106 0
M  V30 15296 H 1434.26 -0.884123 -1.2658 0
M  V30 15297 H 1436.22 0.472272 -4.07774 0
M  V30 15298 H 1434.88 0.926138 -3.00136 0
M  V30 15299 H 1434.07 -0.320814 -5.02978 0
M  V30 15300 H 1433.67 -1.20731 -3.53977 0
M  V30 15301 H 1435.96 -0.983606 -6.70322 0
M  V30 15302 H 1436.91 -2.50569 -6.62284 0
M  V30 15303 H 1437.32 -1.15299 -5.526 0
M  V30 15304 N 1436.71 1.32449 -0.85411 0
M  V30 15305 C 1437.66 2.30821 -0.287115 0
M  V30 15306 C 1438.66 1.58823 0.58921 0
M  V30 15307 O 1439.86 1.73563 0.477075 0
M  V30 15308 H 1436.24 0.748336 -0.0741416 0
M  V30 15309 H 1438.21 2.76134 -1.13104 0
M  V30 15310 C 1436.96 3.43937 0.51013 0
M  V30 15311 H 1436.28 3.995 -0.154895 0
M  V30 15312 H 1437.72 4.14927 0.872451 0
M  V30 15313 C 1436.18 2.91147 1.69513 0
M  V30 15314 O 1436.71 2.88595 2.7942 0
M  V30 15315 N 1434.91 2.47554 1.52202 0
M  V30 15316 H 1434.46 2.49829 0.627941 0
M  V30 15317 H 1434.42 2.12587 2.31633 0
M  V30 15318 N 1438.19 0.611994 1.45232 0
M  V30 15319 C 1439.42 0.113618 2.07089 0
M  V30 15320 C 1439.84 -1.1947 1.45288 0
M  V30 15321 O 1439.2 -1.72845 0.547207 0
M  V30 15322 C 1439.25 -0.00789978 3.60599 0
M  V30 15323 O 1438.35 -1.05697 3.98625 0
M  V30 15324 H 1437.69 0.076066 0.659629 0
M  V30 15325 H 1440.22 0.843253 1.86415 0
M  V30 15326 H 1440.23 -0.204692 4.07486 0
M  V30 15327 H 1438.91 0.947386 4.04966 0
M  V30 15328 H 1437.48 -0.836291 3.63401 0
M  V30 15329 N 1439.67 -1.53632 0.351409 0
M  V30 15330 C 1440.6 -2.2284 -0.536204 0
M  V30 15331 C 1441.61 -1.23765 -1.05764 0
M  V30 15332 O 1442.8 -1.50073 -0.966449 0
M  V30 15333 C 1439.9 -2.9013 -1.75151 0
M  V30 15334 C 1439.08 -4.15588 -1.36401 0
M  V30 15335 C 1438.14 -4.66217 -2.43984 0
M  V30 15336 O 1437.16 -5.3024 -2.06964 0
M  V30 15337 N 1438.36 -4.42817 -3.75358 0
M  V30 15338 H 1441.13 -2.99647 0.0565368 0
M  V30 15339 H 1438.69 -1.60942 0.175905 0
M  V30 15340 H 1440.68 -3.20913 -2.4657 0
M  V30 15341 H 1439.25 -2.16862 -2.25144 0
M  V30 15342 H 1438.47 -3.91264 -0.480258 0
M  V30 15343 H 1439.76 -4.97179 -1.08121 0
M  V30 15344 H 1439.16 -3.9163 -4.08218 0
M  V30 15345 H 1437.71 -4.78186 -4.42924 0
M  V30 15346 N 1441.15 -0.0802183 -1.57396 0
M  V30 15347 C 1442.06 0.898597 -2.16708 0
M  V30 15348 C 1443.07 1.321 -1.1325 0
M  V30 15349 O 1444.25 1.39197 -1.45554 0
M  V30 15350 C 1441.31 2.14501 -2.72379 0
M  V30 15351 C 1440.38 1.77822 -3.9074 0
M  V30 15352 C 1439.61 2.96521 -4.43747 0
M  V30 15353 O 1439.83 4.10797 -3.9573 0
M  V30 15354 O 1438.77 2.75849 -5.34968 0
M  V30 15355 H 1442.59 0.424027 -3.00725 0
M  V30 15356 H 1440.18 0.14332 -1.48711 0
M  V30 15357 H 1442.06 2.87575 -3.08024 0
M  V30 15358 H 1440.73 2.61039 -1.91416 0
M  V30 15359 H 1439.64 1.01974 -3.59934 0
M  V30 15360 H 1440.97 1.36059 -4.73021 0
M  V30 15361 N 1442.63 1.56409 0.193394 0
M  V30 15362 C 1443.85 1.8519 0.933775 0
M  V30 15363 C 1444.28 0.663991 1.75991 0
M  V30 15364 O 1443.63 -0.387198 1.77117 0
M  V30 15365 C 1443.68 3.12212 1.80432 0
M  V30 15366 O 1442.79 2.92884 2.90332 0
M  V30 15367 H 1442.13 0.609754 0.262862 0
M  V30 15368 H 1444.66 2.03638 0.198195 0
M  V30 15369 H 1444.67 3.4305 2.20864 0
M  V30 15370 H 1443.34 3.98292 1.19733 0
M  V30 15371 H 1441.92 2.73349 2.53643 0
M  V30 15372 N 1444.1 -0.461169 1.50702 0
M  V30 15373 C 1445.33 -1.24019 1.66235 0
M  V30 15374 C 1445.75 -1.84827 0.349388 0
M  V30 15375 O 1445.11 -1.67743 -0.687888 0
M  V30 15376 C 1445.16 -2.31743 2.76274 0
M  V30 15377 O 1444.26 -3.3664 2.38217 0
M  V30 15378 H 1443.6 -0.364424 0.55506 0
M  V30 15379 H 1446.13 -0.547636 1.97135 0
M  V30 15380 H 1446.14 -2.76902 2.99649 0
M  V30 15381 H 1444.82 -1.86858 3.7156 0
M  V30 15382 H 1443.4 -2.97123 2.25327 0
M  V30 15383 N 1445.58 -1.40446 -0.715026 0
M  V30 15384 C 1446.83 -1.39962 -1.47587 0
M  V30 15385 C 1447.18 -0.00170702 -1.924 0
M  V30 15386 O 1446.48 0.968788 -1.65303 0
M  V30 15387 C 1446.67 -2.32392 -2.7153 0
M  V30 15388 C 1446.5 -3.81032 -2.3884 0
M  V30 15389 C 1445.27 -4.49842 -2.30153 0
M  V30 15390 C 1447.47 -4.7251 -2.03073 0
M  V30 15391 N 1445.45 -5.83711 -1.90143 0
M  V30 15392 C 1446.82 -5.9518 -1.73668 0
M  V30 15393 C 1448.87 -4.6034 -1.89714 0
M  V30 15394 C 1447.58 -7.07038 -1.32248 0
M  V30 15395 C 1449.6 -5.7214 -1.49698 0
M  V30 15396 C 1448.97 -6.93896 -1.21191 0
M  V30 15397 H 1445.06 -0.567409 -0.538118 0
M  V30 15398 H 1447.65 -1.76163 -0.829144 0
M  V30 15399 H 1445.82 -1.98319 -3.33953 0
M  V30 15400 H 1447.55 -2.22762 -3.37875 0
M  V30 15401 H 1444.31 -4.0353 -2.47912 0
M  V30 15402 H 1444.73 -6.54608 -1.72675 0
M  V30 15403 H 1449.37 -3.66723 -2.10414 0
M  V30 15404 H 1447.09 -8.00538 -1.10291 0
M  V30 15405 H 1450.68 -5.6472 -1.39939 0
M  V30 15406 H 1449.56 -7.78938 -0.906925 0
M  V30 15407 N 1447.06 0.947303 -1.25952 0
M  V30 15408 C 1448.31 1.68945 -1.10915 0
M  V30 15409 C 1448.63 1.91848 0.349216 0
M  V30 15410 O 1447.9 1.5108 1.24706 0
M  V30 15411 H 1446.48 0.626086 -0.407462 0
M  V30 15412 H 1449.14 1.13854 -1.58187 0
M  V30 15413 H 1448.24 2.6657 -1.62317 0
M  V30 15414 N 1448.54 1.07657 1.15099 0
M  V30 15415 C 1449.49 0.699678 2.19939 0
M  V30 15416 C 1450.46 -0.310432 1.63173 0
M  V30 15417 O 1451.64 -0.196177 1.89789 0
M  V30 15418 C 1448.78 0.106963 3.44934 0
M  V30 15419 C 1447.89 1.16892 4.15885 0
M  V30 15420 C 1447.03 0.540884 5.28439 0
M  V30 15421 C 1446.07 1.58542 5.91211 0
M  V30 15422 N 1445.2 0.979731 6.95231 0
M  V30 15423 H 1450.04 1.59805 2.51528 0
M  V30 15424 H 1447.58 0.798746 1.23525 0
M  V30 15425 H 1449.54 -0.254335 4.16424 0
M  V30 15426 H 1448.17 -0.754756 3.13852 0
M  V30 15427 H 1447.22 1.64775 3.4286 0
M  V30 15428 H 1448.53 1.96078 4.58645 0
M  V30 15429 H 1447.69 0.127397 6.06566 0
M  V30 15430 H 1446.43 -0.282708 4.8688 0
M  V30 15431 H 1445.43 2.00865 5.11794 0
M  V30 15432 H 1446.66 2.41135 6.34847 0
M  V30 15433 H 1444.6 0.177098 6.55761 0
M  V30 15434 H 1444.52 1.70878 7.36435 0
M  V30 15435 H 1445.79 0.591849 7.7725 0
M  V30 15436 N 1450.02 -1.31994 0.861122 0
M  V30 15437 C 1450.96 -2.30666 0.299352 0
M  V30 15438 C 1451.96 -1.59133 -0.580779 0
M  V30 15439 O 1453.16 -1.73813 -0.467864 0
M  V30 15440 H 1449.54 -0.747932 0.0781091 0
M  V30 15441 H 1451.51 -2.7553 1.14567 0
M  V30 15442 C 1450.26 -3.44203 -0.491883 0
M  V30 15443 H 1449.58 -3.99412 0.17608 0
M  V30 15444 H 1451.02 -4.15384 -0.850434 0
M  V30 15445 C 1449.48 -2.92042 -1.67967 0
M  V30 15446 O 1450.01 -2.90073 -2.77886 0
M  V30 15447 N 1448.22 -2.48358 -1.50887 0
M  V30 15448 H 1447.76 -2.50159 -0.614683 0
M  V30 15449 H 1447.72 -2.13813 -2.30503 0
M  V30 15450 N 1451.49 -0.619688 -1.44906 0
M  V30 15451 C 1452.74 -0.11981 -2.02446 0
M  V30 15452 C 1453.07 1.2509 -1.48546 0
M  V30 15453 O 1452.35 1.82781 -0.664942 0
M  V30 15454 C 1452.63 -0.0940205 -3.59977 0
M  V30 15455 C 1452.48 -1.49626 -4.24184 0
M  V30 15456 C 1453.8 0.58748 -4.36161 0
M  V30 15457 H 1450.92 -0.0450119 -0.735624 0
M  V30 15458 H 1453.56 -0.793975 -1.72615 0
M  V30 15459 H 1451.71 0.480073 -3.85522 0
M  V30 15460 H 1453.39 -2.11836 -4.09784 0
M  V30 15461 H 1451.63 -2.05348 -3.82119 0
M  V30 15462 H 1452.3 -1.43035 -5.33146 0
M  V30 15463 H 1454.78 0.0993863 -4.15981 0
M  V30 15464 H 1453.65 0.574672 -5.45883 0
M  V30 15465 H 1453.91 1.65579 -4.09922 0
M  V30 15466 N 1452.97 1.53444 -0.359552 0
M  V30 15467 C 1454.2 2.06058 0.235576 0
M  V30 15468 C 1454.62 1.23175 1.42161 0
M  V30 15469 O 1453.98 0.249338 1.79577 0
M  V30 15470 C 1454.03 3.55351 0.613025 0
M  V30 15471 O 1453.13 3.75229 1.71104 0
M  V30 15472 H 1452.47 0.663038 0.0357266 0
M  V30 15473 H 1455 1.97923 -0.518408 0
M  V30 15474 H 1455.01 3.9827 0.885722 0
M  V30 15475 H 1453.69 4.15122 -0.254243 0
M  V30 15476 H 1452.27 3.4421 1.43437 0
M  V30 15477 N 1454.45 0.0885642 1.57351 0
M  V30 15478 C 1455.68 -0.588641 1.98871 0
M  V30 15479 C 1456.1 -1.61333 0.967125 0
M  V30 15480 O 1455.46 -1.81183 -0.0652149 0
M  V30 15481 C 1455.51 -1.21877 3.39379 0
M  V30 15482 O 1454.61 -2.33462 3.39955 0
M  V30 15483 H 1453.95 -0.149938 0.64685 0
M  V30 15484 H 1456.48 0.168043 2.03909 0
M  V30 15485 H 1456.49 -1.56163 3.76931 0
M  V30 15486 H 1455.17 -0.468037 4.13258 0
M  V30 15487 H 1453.74 -2.00844 3.14191 0
M  V30 15488 N 1455.93 -1.56509 -0.185096 0
M  V30 15489 C 1457.16 -1.85327 -0.91986 0
M  V30 15490 C 1457.57 -0.672294 -1.76425 0
M  V30 15491 O 1456.93 0.358854 -1.78937 0
M  V30 15492 C 1456.98 -3.13047 -1.80787 0
M  V30 15493 O 1456.7 -4.26591 -0.997569 0
M  V30 15494 C 1458.2 -3.55114 -2.65347 0
M  V30 15495 H 1455.42 -0.615196 -0.267909 0
M  V30 15496 H 1457.97 -2.03622 -0.189338 0
M  V30 15497 H 1456.12 -2.96619 -2.4919 0
M  V30 15498 H 1456.53 -4.99384 -1.60362 0
M  V30 15499 H 1458.01 -4.47419 -3.23295 0
M  V30 15500 H 1458.49 -2.78576 -3.39547 0
M  V30 15501 H 1459.09 -3.74105 -2.023 0
M  V30 15502 N 1457.41 0.45317 -1.50944 0
M  V30 15503 C 1458.32 1.57435 -1.73929 0
M  V30 15504 C 1459.33 1.62467 -0.622935 0
M  V30 15505 O 1460.51 1.80004 -0.903365 0
M  V30 15506 C 1457.57 2.93534 -1.84495 0
M  V30 15507 C 1456.63 2.98747 -3.083 0
M  V30 15508 C 1455.87 4.28354 -3.18352 0
M  V30 15509 O 1456.09 5.1986 -2.34738 0
M  V30 15510 O 1455.02 4.39527 -4.11217 0
M  V30 15511 H 1458.85 1.40959 -2.69006 0
M  V30 15512 H 1456.44 0.634545 -1.35255 0
M  V30 15513 H 1458.32 3.74336 -1.93522 0
M  V30 15514 H 1456.99 3.10171 -0.926044 0
M  V30 15515 H 1455.9 2.16958 -3.04762 0
M  V30 15516 H 1457.23 2.87051 -3.99828 0
M  V30 15517 N 1458.88 1.40823 0.707568 0
M  V30 15518 C 1460.11 1.43061 1.50161 0
M  V30 15519 C 1460.53 0.0342144 1.88069 0
M  V30 15520 O 1459.89 -0.959674 1.53818 0
M  V30 15521 C 1459.94 2.33459 2.74826 0
M  V30 15522 O 1459.04 1.78336 3.71847 0
M  V30 15523 H 1458.39 0.48602 0.452417 0
M  V30 15524 H 1460.92 1.85147 0.870742 0
M  V30 15525 H 1460.93 2.48922 3.23267 0
M  V30 15526 H 1459.6 3.34927 2.46571 0
M  V30 15527 H 1458.18 1.7226 3.30728 0
M  V30 15528 N 1460.36 -0.94061 1.26453 0
M  V30 15529 C 1461.61 -1.68354 1.11809 0
M  V30 15530 C 1461.93 -1.9203 -0.339037 0
M  V30 15531 O 1461.2 -1.51739 -1.23903 0
M  V30 15532 H 1459.78 -0.623916 0.410777 0
M  V30 15533 H 1462.44 -1.13014 1.58789 0
M  V30 15534 H 1461.54 -2.65706 1.63728 0
M  V30 15535 N 1461.84 -1.08266 -1.14527 0
M  V30 15536 C 1463.26 -0.810001 -1.37518 0
M  V30 15537 C 1463.46 0.581399 -1.9293 0
M  V30 15538 O 1462.51 1.33846 -2.14107 0
M  V30 15539 C 1463.83 -1.89149 -2.33759 0
M  V30 15540 C 1465.37 -1.91733 -2.47401 0
M  V30 15541 C 1465.85 -2.98992 -3.4694 0
M  V30 15542 N 1467.34 -2.98155 -3.54483 0
M  V30 15543 C 1468.07 -3.77791 -4.31349 0
M  V30 15544 N 1467.57 -4.67302 -5.11469 0
M  V30 15545 N 1469.36 -3.66099 -4.2653 0
M  V30 15546 H 1461.51 -1.97988 -0.769048 0
M  V30 15547 H 1463.78 -0.859115 -0.40078 0
M  V30 15548 H 1463.48 -2.89175 -2.00176 0
M  V30 15549 H 1463.36 -1.75955 -3.33646 0
M  V30 15550 H 1465.74 -0.923531 -2.80276 0
M  V30 15551 H 1465.83 -2.09005 -1.4748 0
M  V30 15552 H 1465.47 -3.98578 -3.14799 0
M  V30 15553 H 1465.4 -2.78965 -4.46639 0
M  V30 15554 H 1467.89 -2.33277 -2.97305 0
M  V30 15555 H 1468.2 -5.24676 -5.67393 0
M  V30 15556 H 1466.55 -4.71345 -5.10743 0
M  V30 15557 H 1469.74 -2.95539 -3.63008 0
M  V30 15558 H 1469.91 -4.28402 -4.86185 0
M  V30 15559 N 1463.32 1.31536 -0.86811 0
M  V30 15560 C 1464.25 2.31037 -0.33822 0
M  V30 15561 C 1465.23 1.60269 0.569892 0
M  V30 15562 O 1466.42 1.87987 0.487305 0
M  V30 15563 C 1463.55 3.44203 0.462753 0
M  V30 15564 C 1462.5 4.26549 -0.3521 0
M  V30 15565 C 1461.83 5.31605 0.574443 0
M  V30 15566 C 1463.13 4.97665 -1.58516 0
M  V30 15567 H 1464.82 2.75607 -1.16967 0
M  V30 15568 H 1462.37 1.325 -0.56389 0
M  V30 15569 H 1464.32 4.12862 0.843967 0
M  V30 15570 H 1463.04 2.98396 1.32769 0
M  V30 15571 H 1461.7 3.59555 -0.715237 0
M  V30 15572 H 1461.35 4.82048 1.43661 0
M  V30 15573 H 1461.05 5.87591 0.0331436 0
M  V30 15574 H 1462.57 6.03124 0.952541 0
M  V30 15575 H 1463.99 5.58931 -1.27549 0
M  V30 15576 H 1462.38 5.63437 -2.06539 0
M  V30 15577 H 1463.45 4.24756 -2.33902 0
M  V30 15578 N 1464.8 0.627364 1.44575 0
M  V30 15579 C 1466.04 0.130352 2.0208 0
M  V30 15580 C 1466.37 -1.24642 1.49314 0
M  V30 15581 O 1465.63 -1.84022 0.665923 0
M  V30 15582 C 1465.93 0.0622409 3.57346 0
M  V30 15583 C 1465.59 1.37729 4.2935 0
M  V30 15584 C 1464.25 1.73747 4.48737 0
M  V30 15585 C 1466.61 2.2455 4.70347 0
M  V30 15586 C 1463.93 2.96301 5.06382 0
M  V30 15587 C 1466.29 3.46371 5.29349 0
M  V30 15588 C 1464.95 3.82616 5.46956 0
M  V30 15589 H 1464.22 0.0476991 0.739463 0
M  V30 15590 H 1466.87 0.812928 1.73389 0
M  V30 15591 H 1465.17 -0.70369 3.85429 0
M  V30 15592 H 1466.87 -0.338778 3.99566 0
M  V30 15593 H 1463.46 1.08699 4.14587 0
M  V30 15594 H 1467.64 1.98019 4.55085 0
M  V30 15595 H 1462.9 3.24465 5.18201 0
M  V30 15596 H 1467.07 4.13882 5.60067 0
M  V30 15597 H 1464.7 4.77663 5.9139 0
M  V30 15598 N 1466.28 -1.53251 0.367684 0
M  V30 15599 C 1467.22 -2.258 -0.477802 0
M  V30 15600 C 1468.19 -1.26554 -1.07579 0
M  V30 15601 O 1469.38 -1.5534 -1.10788 0
M  V30 15602 C 1466.52 -3.05216 -1.6105 0
M  V30 15603 C 1465.63 -4.19357 -1.03748 0
M  V30 15604 C 1464.77 -4.86211 -2.13945 0
M  V30 15605 C 1463.8 -5.9238 -1.5412 0
M  V30 15606 N 1462.94 -6.52916 -2.58158 0
M  V30 15607 H 1467.78 -2.97635 0.147367 0
M  V30 15608 H 1465.32 -1.46857 0.084495 0
M  V30 15609 H 1467.28 -3.49536 -2.27772 0
M  V30 15610 H 1465.91 -2.35632 -2.20629 0
M  V30 15611 H 1464.96 -3.79507 -0.260476 0
M  V30 15612 H 1466.27 -4.95645 -0.560105 0
M  V30 15613 H 1465.42 -5.33725 -2.88483 0
M  V30 15614 H 1464.16 -4.09399 -2.65035 0
M  V30 15615 H 1463.17 -5.44225 -0.780968 0
M  V30 15616 H 1464.39 -6.71112 -1.03852 0
M  V30 15617 H 1462.34 -5.78956 -3.08457 0
M  V30 15618 H 1462.26 -7.2475 -2.15113 0
M  V30 15619 H 1463.52 -7.05079 -3.32392 0
M  V30 15620 N 1467.75 -0.0969077 -1.57302 0
M  V30 15621 C 1469 0.565254 -1.94034 0
M  V30 15622 C 1469.32 1.68609 -0.9796 0
M  V30 15623 O 1468.59 1.95874 -0.0319788 0
M  V30 15624 H 1467.17 0.211796 -0.716346 0
M  V30 15625 H 1469.83 -0.160665 -1.94237 0
M  V30 15626 H 1468.93 0.974268 -2.96504 0
M  V30 15627 N 1469.23 1.56605 0.176793 0
M  V30 15628 C 1470.18 1.95985 1.21896 0
M  V30 15629 C 1471.15 0.822983 1.44278 0
M  V30 15630 O 1472.33 1.08266 1.57109 0
M  V30 15631 C 1469.47 2.32029 2.55454 0
M  V30 15632 C 1468.59 3.58867 2.40497 0
M  V30 15633 C 1467.72 3.84148 3.66884 0
M  V30 15634 C 1466.76 5.04352 3.46837 0
M  V30 15635 N 1465.9 5.25794 4.6528 0
M  V30 15636 H 1470.74 2.84829 0.876137 0
M  V30 15637 H 1468.27 1.4094 0.421221 0
M  V30 15638 H 1470.23 2.50947 3.33289 0
M  V30 15639 H 1468.86 1.46301 2.87743 0
M  V30 15640 H 1467.91 3.47893 1.53866 0
M  V30 15641 H 1469.23 4.46859 2.21627 0
M  V30 15642 H 1468.38 4.03404 4.53155 0
M  V30 15643 H 1467.12 2.9452 3.88727 0
M  V30 15644 H 1466.12 4.84999 2.58952 0
M  V30 15645 H 1467.35 5.95505 3.26421 0
M  V30 15646 H 1465.3 4.39117 4.87352 0
M  V30 15647 H 1465.21 6.07999 4.49303 0
M  V30 15648 H 1466.48 5.49524 5.5285 0
M  V30 15649 N 1470.71 -0.445159 1.51182 0
M  V30 15650 C 1472.13 -0.781023 1.39184 0
M  V30 15651 C 1472.33 -1.95988 0.468076 0
M  V30 15652 O 1471.38 -2.52374 -0.0796822 0
M  V30 15653 C 1472.69 -1.06874 2.81067 0
M  V30 15654 C 1474.24 -1.17364 2.90163 0
M  V30 15655 C 1474.72 -1.49433 4.32936 0
M  V30 15656 N 1476.21 -1.56373 4.36006 0
M  V30 15657 C 1476.94 -1.82743 5.435 0
M  V30 15658 N 1476.44 -2.06958 6.61166 0
M  V30 15659 N 1478.23 -1.84461 5.30971 0
M  V30 15660 H 1470.38 0.331347 2.098 0
M  V30 15661 H 1472.65 0.0858102 0.944108 0
M  V30 15662 H 1472.35 -0.275306 3.50621 0
M  V30 15663 H 1472.23 -1.99839 3.19913 0
M  V30 15664 H 1474.61 -1.95771 2.20812 0
M  V30 15665 H 1474.69 -0.22318 2.54825 0
M  V30 15666 H 1474.34 -0.715573 5.02834 0
M  V30 15667 H 1474.27 -2.45673 4.65782 0
M  V30 15668 H 1476.76 -1.39595 3.51172 0
M  V30 15669 H 1477.07 -2.26427 7.38885 0
M  V30 15670 H 1475.42 -2.04297 6.64295 0
M  V30 15671 H 1478.61 -1.65057 4.38034 0
M  V30 15672 H 1478.78 -2.04675 6.14827 0
M  V30 15673 N 1472.19 -1.41197 -0.700089 0
M  V30 15674 C 1473.15 -1.42419 -1.79582 0
M  V30 15675 C 1474.15 -0.31551 -1.57674 0
M  V30 15676 O 1475.34 -0.575173 -1.64431 0
M  V30 15677 C 1472.47 -1.23114 -3.17893 0
M  V30 15678 H 1473.67 -2.39956 -1.79892 0
M  V30 15679 H 1471.22 -1.27273 -0.907271 0
M  V30 15680 H 1471.95 -0.263992 -3.23224 0
M  V30 15681 H 1471.74 -2.03437 -3.35195 0
M  V30 15682 H 1473.23 -1.26793 -3.97886 0
M  V30 15683 N 1473.67 0.933891 -1.2695 0
M  V30 15684 C 1474.62 2.01966 -1.05801 0
M  V30 15685 C 1475.6 1.60896 0.0119868 0
M  V30 15686 O 1476.79 1.75799 -0.205827 0
M  V30 15687 C 1473.92 3.36073 -0.700695 0
M  V30 15688 C 1473.01 3.83606 -1.80852 0
M  V30 15689 N 1473.4 4.03713 -3.04712 0
M  V30 15690 C 1471.7 4.12586 -1.69378 0
M  V30 15691 C 1472.4 4.43199 -3.76762 0
M  V30 15692 N 1471.37 4.50319 -3.0449 0
M  V30 15693 H 1475.17 2.15534 -1.99806 0
M  V30 15694 H 1472.69 1.12027 -1.17574 0
M  V30 15695 H 1474.69 4.13513 -0.530316 0
M  V30 15696 H 1473.35 3.23872 0.231801 0
M  V30 15697 H 1474.36 3.90196 -3.4054 0
M  V30 15698 H 1471.03 4.09132 -0.831695 0
M  V30 15699 H 1472.42 4.66887 -4.83184 0
M  V30 15700 N 1475.14 1.08871 1.13951 0
M  V30 15701 C 1476.39 0.819665 1.84732 0
M  V30 15702 C 1476.71 -0.656535 1.83615 0
M  V30 15703 O 1475.98 -1.47614 1.28791 0
M  V30 15704 H 1474.56 0.30023 0.684011 0
M  V30 15705 H 1477.22 1.37568 1.38062 0
M  V30 15706 H 1476.32 1.16809 2.89417 0
M  V30 15707 N 1476.62 -1.31073 0.875073 0
M  V30 15708 C 1478.03 -1.78707 0.540422 0
M  V30 15709 C 1478.38 -1.72056 -0.942935 0
M  V30 15710 O 1477.51 -1.29139 -1.73643 0
M  V30 15711 C 1478.1 -3.24491 0.974203 0
M  V30 15712 C 1476.66 -3.70001 0.691127 0
M  V30 15713 C 1475.81 -2.51748 1.16269 0
M  V30 15714 H 1478.76 -1.18083 1.06029 0
M  V30 15715 H 1478.78 -3.79323 0.299003 0
M  V30 15716 H 1478.29 -3.29301 2.05384 0
M  V30 15717 H 1476.39 -3.70688 -0.376937 0
M  V30 15718 H 1476.51 -4.61913 1.27173 0
M  V30 15719 H 1474.87 -2.47954 0.582302 0
M  V30 15720 H 1475.65 -2.59299 2.24986 0
M  V30 15721 N 1478.1 -0.635022 -1.4424 0
M  V30 15722 C 1479.06 0.0579377 -2.29127 0
M  V30 15723 C 1480.06 0.768489 -1.41248 0
M  V30 15724 O 1481.25 0.612489 -1.63077 0
M  V30 15725 C 1478.39 1.09266 -3.22914 0
M  V30 15726 H 1479.58 -0.688723 -2.91885 0
M  V30 15727 H 1477.13 -0.395347 -1.51217 0
M  V30 15728 H 1477.87 1.86917 -2.65014 0
M  V30 15729 H 1477.65 0.587036 -3.87681 0
M  V30 15730 H 1479.14 1.57716 -3.86672 0
M  V30 15731 N 1479.58 1.53054 -0.375806 0
M  V30 15732 C 1480.51 2.28973 0.45754 0
M  V30 15733 C 1481.49 1.31812 1.07516 0
M  V30 15734 O 1482.67 1.60693 1.09048 0
M  V30 15735 C 1479.8 3.08657 1.59212 0
M  V30 15736 C 1478.76 4.1359 1.10123 0
M  V30 15737 C 1478.08 4.81417 2.32684 0
M  V30 15738 C 1479.38 5.21994 0.17872 0
M  V30 15739 H 1481.08 2.98883 -0.175872 0
M  V30 15740 H 1478.62 1.43743 -0.0860253 0
M  V30 15741 H 1480.58 3.6052 2.18182 0
M  V30 15742 H 1479.3 2.36456 2.25291 0
M  V30 15743 H 1477.96 3.62688 0.534151 0
M  V30 15744 H 1477.61 4.05778 2.97243 0
M  V30 15745 H 1477.31 5.52332 2.00506 0
M  V30 15746 H 1478.83 5.36079 2.92322 0
M  V30 15747 H 1480.25 5.69298 0.676204 0
M  V30 15748 H 1478.64 6.00077 -0.0526605 0
M  V30 15749 H 1479.71 4.78646 -0.776246 0
M  V30 15750 N 1481.06 0.105248 1.57248 0
M  V30 15751 C 1481.99 -0.846915 2.176 0
M  V30 15752 C 1482.97 -1.28706 1.11216 0
M  V30 15753 O 1484.15 -1.35213 1.39396 0
M  V30 15754 C 1481.28 -2.10228 2.76445 0
M  V30 15755 C 1480.24 -1.80041 3.8829 0
M  V30 15756 C 1479.56 -3.12491 4.33882 0
M  V30 15757 C 1480.86 -1.07943 5.11024 0
M  V30 15758 H 1482.56 -0.344052 2.97417 0
M  V30 15759 H 1480.1 -0.164045 1.43063 0
M  V30 15760 H 1482.06 -2.77284 3.17319 0
M  V30 15761 H 1480.78 -2.62815 1.93897 0
M  V30 15762 H 1479.44 -1.15379 3.4797 0
M  V30 15763 H 1479.09 -3.62985 3.48211 0
M  V30 15764 H 1478.79 -2.93072 5.09296 0
M  V30 15765 H 1480.31 -3.80688 4.77398 0
M  V30 15766 H 1481.72 -1.65127 5.49004 0
M  V30 15767 H 1480.12 -0.986674 5.91933 0
M  V30 15768 H 1481.19 -0.0638511 4.84858 0
M  V30 15769 N 1482.53 -1.56697 -0.168486 0
M  V30 15770 C 1483.76 -1.86292 -0.900152 0
M  V30 15771 C 1484.18 -0.690968 -1.75702 0
M  V30 15772 O 1483.53 0.339855 -1.79308 0
M  V30 15773 C 1483.59 -3.14946 -1.77457 0
M  V30 15774 O 1483.31 -4.27625 -0.952267 0
M  V30 15775 C 1484.81 -3.57908 -2.61566 0
M  V30 15776 H 1482.03 -0.618003 -0.261369 0
M  V30 15777 H 1484.57 -2.03811 -0.16773 0
M  V30 15778 H 1482.73 -2.99246 -2.4603 0
M  V30 15779 H 1483.14 -5.01057 -1.55056 0
M  V30 15780 H 1484.61 -4.50823 -3.18532 0
M  V30 15781 H 1485.09 -2.82162 -3.36573 0
M  V30 15782 H 1485.7 -3.7623 -1.98321 0
M  V30 15783 N 1484.01 0.437135 -1.51416 0
M  V30 15784 C 1484.96 1.53061 -1.72745 0
M  V30 15785 C 1485.93 1.56045 -0.569149 0
M  V30 15786 O 1487.11 1.73052 -0.803602 0
M  V30 15787 C 1484.25 2.90774 -1.85861 0
M  V30 15788 C 1483.37 2.97318 -3.1341 0
M  V30 15789 C 1482.5 4.26156 -3.1712 0
M  V30 15790 C 1481.54 4.26568 -4.38983 0
M  V30 15791 N 1480.68 5.4693 -4.40241 0
M  V30 15792 H 1485.52 1.34177 -2.66084 0
M  V30 15793 H 1483.06 0.651803 -1.31871 0
M  V30 15794 H 1485.01 3.7068 -1.91447 0
M  V30 15795 H 1483.64 3.08216 -0.959306 0
M  V30 15796 H 1482.7 2.10074 -3.17132 0
M  V30 15797 H 1484.01 2.93485 -4.03321 0
M  V30 15798 H 1483.16 5.14435 -3.21623 0
M  V30 15799 H 1481.9 4.32646 -2.25098 0
M  V30 15800 H 1480.91 3.36681 -4.34656 0
M  V30 15801 H 1482.13 4.21741 -5.3227 0
M  V30 15802 H 1480.08 5.54141 -3.51089 0
M  V30 15803 H 1479.99 5.44977 -5.23962 0
M  V30 15804 H 1481.26 6.37241 -4.48937 0
M  V30 15805 N 1485.49 1.41566 0.692592 0
M  V30 15806 C 1486.77 1.31572 1.44735 0
M  V30 15807 C 1487.15 -0.0553081 2.11028 0
M  V30 15808 O 1486.5 -1.06974 2.01913 0
M  V30 15809 C 1486.71 2.47125 2.46435 0
M  V30 15810 C 1488.05 2.88427 3.11601 0
M  V30 15811 O 1489.08 2.46886 2.5676 0
M  V30 15812 O 1487.94 3.6027 4.10935 0
M  V30 15813 H 1485.03 0.517949 0.644715 0
M  V30 15814 H 1487.58 1.53536 0.722818 0
M  V30 15815 H 1486.35 3.38601 1.96124 0
M  V30 15816 H 1485.97 2.27054 3.26393 0
M  V30 15817 N 1486.97 -0.927146 1.27443 0
M  V30 15818 C 1487.92 -2.04917 1.10053 0
M  V30 15819 C 1488.91 -1.69384 0.0234668 0
M  V30 15820 O 1490.12 -1.79085 0.181228 0
M  V30 15821 H 1486.49 -0.671189 0.33913 0
M  V30 15822 H 1488.46 -2.16732 2.05109 0
M  V30 15823 C 1487.21 -3.39178 0.765072 0
M  V30 15824 H 1486.53 -3.67006 1.58577 0
M  V30 15825 H 1487.97 -4.18458 0.683266 0
M  V30 15826 C 1486.43 -3.32696 -0.530578 0
M  V30 15827 O 1486.96 -3.69967 -1.56484 0
M  V30 15828 N 1485.17 -2.85793 -0.526396 0
M  V30 15829 H 1484.72 -2.55658 0.315675 0
M  V30 15830 H 1484.67 -2.81838 -1.39337 0
M  V30 15831 N 1488.45 -1.09474 -1.13372 0
M  V30 15832 C 1489.41 -0.738173 -2.16988 0
M  V30 15833 C 1490.41 0.232488 -1.5911 0
M  V30 15834 O 1491.6 0.0106093 -1.74197 0
M  V30 15835 C 1488.73 -0.091724 -3.40777 0
M  V30 15836 H 1489.92 -1.65582 -2.50045 0
M  V30 15837 H 1487.48 -0.893994 -1.28209 0
M  V30 15838 H 1488.21 0.837129 -3.13309 0
M  V30 15839 H 1488 -0.790161 -3.84056 0
M  V30 15840 H 1489.49 0.142334 -4.17357 0
M  V30 15841 N 1489.92 1.30607 -0.882012 0
M  V30 15842 C 1490.85 2.30666 -0.362706 0
M  V30 15843 C 1491.84 1.60865 0.552861 0
M  V30 15844 O 1493.02 1.88493 0.467339 0
M  V30 15845 C 1490.15 3.44675 0.42622 0
M  V30 15846 C 1489.1 4.26152 -0.397322 0
M  V30 15847 C 1488.43 5.32185 0.518027 0
M  V30 15848 C 1489.73 4.95955 -1.63785 0
M  V30 15849 H 1491.42 2.74351 -1.19883 0
M  V30 15850 H 1488.97 1.31895 -0.577912 0
M  V30 15851 H 1490.92 4.13734 0.80013 0
M  V30 15852 H 1489.65 2.99787 1.29597 0
M  V30 15853 H 1488.31 3.58776 -0.753332 0
M  V30 15854 H 1487.95 4.83545 1.3854 0
M  V30 15855 H 1487.65 5.87593 -0.0291802 0
M  V30 15856 H 1489.18 6.04101 0.888518 0
M  V30 15857 H 1490.59 5.57547 -1.3347 0
M  V30 15858 H 1488.99 5.61215 -2.12504 0
M  V30 15859 H 1490.06 4.22252 -2.38394 0
M  V30 15860 N 1491.4 0.642663 1.43901 0
M  V30 15861 C 1492.65 0.151778 2.0193 0
M  V30 15862 C 1492.98 -1.23052 1.50627 0
M  V30 15863 O 1492.23 -1.83305 0.685404 0
M  V30 15864 C 1492.53 0.100139 3.5726 0
M  V30 15865 C 1492.2 1.42276 4.27865 0
M  V30 15866 C 1490.86 1.78497 4.46869 0
M  V30 15867 C 1493.21 2.29526 4.67939 0
M  V30 15868 C 1490.54 3.01655 5.03211 0
M  V30 15869 C 1492.89 3.51966 5.25645 0
M  V30 15870 C 1491.56 3.88396 5.42867 0
M  V30 15871 H 1490.83 0.0555394 0.738916 0
M  V30 15872 H 1493.47 0.831273 1.72517 0
M  V30 15873 H 1491.78 -0.66277 3.86154 0
M  V30 15874 H 1493.47 -0.29638 3.99903 0
M  V30 15875 H 1490.06 1.13091 4.13411 0
M  V30 15876 H 1494.25 2.02835 4.52959 0
M  V30 15877 H 1489.5 3.29943 5.14731 0
M  V30 15878 H 1493.68 4.19799 5.55645 0
M  V30 15879 H 1491.31 4.83909 5.8629 0
M  V30 15880 N 1492.88 -1.52852 0.383918 0
M  V30 15881 C 1493.83 -2.26294 -0.453826 0
M  V30 15882 C 1494.8 -1.27688 -1.0623 0
M  V30 15883 O 1495.98 -1.56507 -1.09134 0
M  V30 15884 C 1493.12 -3.06907 -1.57803 0
M  V30 15885 C 1492.24 -4.20434 -0.992943 0
M  V30 15886 C 1491.37 -4.88453 -2.08776 0
M  V30 15887 C 1490.41 -5.93981 -1.47828 0
M  V30 15888 N 1489.55 -6.55617 -2.51218 0
M  V30 15889 H 1494.39 -2.97462 0.178927 0
M  V30 15890 H 1491.92 -1.46759 0.100066 0
M  V30 15891 H 1493.88 -3.51933 -2.24052 0
M  V30 15892 H 1492.51 -2.37959 -2.18118 0
M  V30 15893 H 1491.56 -3.79762 -0.22021 0
M  V30 15894 H 1492.88 -4.96211 -0.507504 0
M  V30 15895 H 1492.03 -5.36755 -2.82806 0
M  V30 15896 H 1490.77 -4.12187 -2.60678 0
M  V30 15897 H 1489.77 -5.45023 -0.723202 0
M  V30 15898 H 1491 -6.72176 -0.967278 0
M  V30 15899 H 1488.95 -5.82195 -3.02299 0
M  V30 15900 H 1488.86 -7.26991 -2.07414 0
M  V30 15901 H 1490.13 -7.08564 -3.24895 0
M  V30 15902 N 1494.36 -0.113586 -1.5719 0
M  V30 15903 C 1495.61 0.546529 -1.95297 0
M  V30 15904 C 1495.94 1.66674 -0.996671 0
M  V30 15905 O 1495.21 1.94472 -0.0329298 0
M  V30 15906 C 1495.5 1.08433 -3.43387 0
M  V30 15907 C 1495.35 -0.0320929 -4.49789 0
M  V30 15908 C 1496.67 1.97691 -3.932 0
M  V30 15909 H 1493.79 0.197195 -0.710129 0
M  V30 15910 H 1496.43 -0.188048 -1.89067 0
M  V30 15911 H 1494.58 1.71033 -3.48827 0
M  V30 15912 H 1496.25 -0.66716 -4.5645 0
M  V30 15913 H 1494.49 -0.695983 -4.2818 0
M  V30 15914 H 1495.17 0.385341 -5.50653 0
M  V30 15915 H 1497.64 1.4497 -3.90029 0
M  V30 15916 H 1496.52 2.3224 -4.97349 0
M  V30 15917 H 1496.78 2.90137 -3.33576 0
M  V30 15918 N 1495.84 1.56784 0.160173 0
M  V30 15919 C 1497.06 1.87129 0.894283 0
M  V30 15920 C 1497.49 0.701172 1.74543 0
M  V30 15921 O 1496.85 -0.349542 1.77899 0
M  V30 15922 C 1496.89 3.15969 1.73769 0
M  V30 15923 O 1496 2.98977 2.84054 0
M  V30 15924 H 1495.34 0.615192 0.249869 0
M  V30 15925 H 1497.87 2.04012 0.154956 0
M  V30 15926 H 1497.88 3.47657 2.13538 0
M  V30 15927 H 1496.55 4.00742 1.11258 0
M  V30 15928 H 1495.13 2.78668 2.47788 0
M  V30 15929 N 1497.32 -0.429099 1.51646 0
M  V30 15930 C 1498.56 -1.17482 1.63954 0
M  V30 15931 C 1498.88 -1.92152 0.36565 0
M  V30 15932 O 1500.08 -2.68991 0.368221 0
M  V30 15933 C 1498.54 -2.13703 2.89585 0
M  V30 15934 C 1498.15 -1.44642 4.24008 0
M  V30 15935 C 1499.89 -2.88657 3.11252 0
M  V30 15936 C 1497.8 -2.39395 5.40781 0
M  V30 15937 H 1496.73 -0.442234 0.610692 0
M  V30 15938 H 1499.38 -0.441088 1.7812 0
M  V30 15939 H 1497.76 -2.90545 2.69071 0
M  V30 15940 H 1498.94 -0.733012 4.54932 0
M  V30 15941 H 1497.25 -0.818084 4.08285 0
M  V30 15942 H 1499.85 -3.59653 3.95669 0
M  V30 15943 H 1500.19 -3.50473 2.24664 0
M  V30 15944 H 1500.72 -2.18919 3.32144 0
M  V30 15945 H 1497.46 -1.82255 6.29653 0
M  V30 15946 H 1496.98 -3.08766 5.14222 0
M  V30 15947 H 1498.66 -3.0035 5.73061 0
M  V30 15948 N 1498.79 -1.41931 -0.685074 0
M  V30 15949 C 1500.02 -1.45432 -1.47866 0
M  V30 15950 C 1500.44 -0.0641302 -1.87991 0
M  V30 15951 O 1499.8 0.935081 -1.55325 0
M  V30 15952 C 1499.85 -2.37801 -2.71077 0
M  V30 15953 O 1498.95 -1.84229 -3.68963 0
M  V30 15954 H 1498.29 -0.493156 -0.444627 0
M  V30 15955 H 1500.82 -1.86508 -0.841177 0
M  V30 15956 H 1500.83 -2.54033 -3.19266 0
M  V30 15957 H 1499.51 -3.38807 -2.41211 0
M  V30 15958 H 1498.09 -1.775 -3.27945 0
M  V30 15959 N 1500.27 0.920374 -1.27933 0
M  V30 15960 C 1501.2 2.03882 -1.13817 0
M  V30 15961 C 1502.18 1.70058 -0.0376853 0
M  V30 15962 O 1503.37 1.93023 -0.213492 0
M  V30 15963 C 1500.5 3.38142 -0.792296 0
M  V30 15964 C 1499.45 3.86104 -1.84683 0
M  V30 15965 C 1498.78 5.17253 -1.35474 0
M  V30 15966 C 1500.08 4.0869 -3.25223 0
M  V30 15967 H 1501.77 2.15949 -2.07379 0
M  V30 15968 H 1499.32 1.03764 -0.998454 0
M  V30 15969 H 1501.27 4.15872 -0.680337 0
M  V30 15970 H 1499.99 3.26109 0.179029 0
M  V30 15971 H 1498.65 3.10573 -1.94782 0
M  V30 15972 H 1498.3 5.01618 -0.372666 0
M  V30 15973 H 1498 5.50314 -2.05982 0
M  V30 15974 H 1499.53 5.97545 -1.25587 0
M  V30 15975 H 1500.94 4.76965 -3.18083 0
M  V30 15976 H 1499.34 4.5307 -3.93507 0
M  V30 15977 H 1500.41 3.13729 -3.69733 0
M  V30 15978 N 1501.75 1.10074 1.1279 0
M  V30 15979 C 1502.68 0.768146 2.20503 0
M  V30 15980 C 1503.66 -0.257199 1.68144 0
M  V30 15981 O 1504.85 -0.12379 1.93805 0
M  V30 15982 C 1501.98 0.195125 3.46751 0
M  V30 15983 C 1500.93 1.15074 4.1224 0
M  V30 15984 C 1500.26 0.439098 5.32894 0
M  V30 15985 C 1501.56 2.49584 4.58808 0
M  V30 15986 H 1503.25 1.66876 2.48581 0
M  V30 15987 H 1500.8 0.803806 1.19478 0
M  V30 15988 H 1502.75 -0.0496695 4.21371 0
M  V30 15989 H 1501.47 -0.740717 3.1809 0
M  V30 15990 H 1500.13 1.38092 3.39597 0
M  V30 15991 H 1499.78 -0.501096 5.00498 0
M  V30 15992 H 1499.48 1.07632 5.77658 0
M  V30 15993 H 1501 0.202761 6.10263 0
M  V30 15994 H 1502.42 2.30736 5.24818 0
M  V30 15995 H 1500.81 3.09157 5.14336 0
M  V30 15996 H 1501.88 3.09857 3.72984 0
M  V30 15997 N 1503.23 -1.30138 0.888926 0
M  V30 15998 C 1504.17 -2.28023 0.356923 0
M  V30 15999 C 1505.14 -1.56551 -0.555066 0
M  V30 16000 O 1506.33 -1.84595 -0.482633 0
M  V30 16001 C 1503.47 -3.42546 -0.419056 0
M  V30 16002 C 1502.58 -4.28827 0.5226 0
M  V30 16003 C 1501.72 -5.30517 -0.269366 0
M  V30 16004 C 1500.76 -6.08449 0.667507 0
M  V30 16005 N 1499.89 -7.02043 -0.08938 0
M  V30 16006 H 1504.73 -2.72912 1.19678 0
M  V30 16007 H 1502.27 -1.34239 0.60152 0
M  V30 16008 H 1504.23 -4.07707 -0.884911 0
M  V30 16009 H 1502.86 -2.98716 -1.22346 0
M  V30 16010 H 1501.91 -3.63938 1.10695 0
M  V30 16011 H 1503.22 -4.83136 1.24018 0
M  V30 16012 H 1502.38 -6.01444 -0.796901 0
M  V30 16013 H 1501.12 -4.76911 -1.02014 0
M  V30 16014 H 1500.12 -5.36396 1.20664 0
M  V30 16015 H 1501.35 -6.64143 1.41744 0
M  V30 16016 H 1499.29 -6.50822 -0.822622 0
M  V30 16017 H 1499.21 -7.53859 0.568499 0
M  V30 16018 H 1500.48 -7.77206 -0.597529 0
M  V30 16019 N 1504.71 -0.650285 -1.43559 0
M  V30 16020 C 1505.93 -0.170139 -2.06199 0
M  V30 16021 C 1506.35 1.16304 -1.48724 0
M  V30 16022 O 1505.71 1.71739 -0.617418 0
M  V30 16023 C 1505.76 -0.0698577 -3.61432 0
M  V30 16024 O 1505.48 -1.35033 -4.16771 0
M  V30 16025 C 1506.98 0.436714 -4.41144 0
M  V30 16026 H 1504.2 -0.0885316 -0.665134 0
M  V30 16027 H 1506.74 -0.890104 -1.84112 0
M  V30 16028 H 1504.9 0.60065 -3.82715 0
M  V30 16029 H 1505.31 -1.20762 -5.10409 0
M  V30 16030 H 1506.79 0.455843 -5.50115 0
M  V30 16031 H 1507.26 1.46747 -4.13959 0
M  V30 16032 H 1507.87 -0.201201 -4.24824 0
M  V30 16033 N 1506.18 1.52647 -0.392018 0
M  V30 16034 C 1507.13 2.28073 0.456674 0
M  V30 16035 C 1508.13 1.3208 1.06071 0
M  V30 16036 O 1509.33 1.49608 1.00088 0
M  V30 16037 H 1505.71 0.733443 0.166029 0
M  V30 16038 H 1507.68 2.97723 -0.200916 0
M  V30 16039 C 1506.43 3.10216 1.5704 0
M  V30 16040 H 1505.75 3.83939 1.11493 0
M  V30 16041 H 1507.19 3.66126 2.1384 0
M  V30 16042 C 1505.65 2.22698 2.52799 0
M  V30 16043 O 1506.18 1.8556 3.56273 0
M  V30 16044 N 1504.38 1.86804 2.22604 0
M  V30 16045 H 1503.93 2.17204 1.38492 0
M  V30 16046 H 1503.89 1.28538 2.86924 0
M  V30 16047 N 1507.66 0.121921 1.57128 0
M  V30 16048 C 1508.61 -0.827205 2.15467 0
M  V30 16049 C 1509.58 -1.26155 1.08047 0
M  V30 16050 O 1510.76 -1.33855 1.35969 0
M  V30 16051 C 1507.9 -2.07077 2.76067 0
M  V30 16052 C 1507.02 -1.68452 3.97804 0
M  V30 16053 C 1506.15 -2.87797 4.46482 0
M  V30 16054 C 1505.19 -2.45426 5.60743 0
M  V30 16055 N 1504.33 -3.57695 6.04151 0
M  V30 16056 H 1509.17 -0.322879 2.96246 0
M  V30 16057 H 1506.71 -0.147677 1.46357 0
M  V30 16058 H 1508.66 -2.79943 3.09335 0
M  V30 16059 H 1507.29 -2.54963 1.97974 0
M  V30 16060 H 1506.35 -0.854487 3.70679 0
M  V30 16061 H 1507.66 -1.33316 4.80654 0
M  V30 16062 H 1506.81 -3.68885 4.81673 0
M  V30 16063 H 1505.55 -3.26162 3.62587 0
M  V30 16064 H 1504.56 -1.62772 5.25153 0
M  V30 16065 H 1505.78 -2.08175 6.46405 0
M  V30 16066 H 1503.73 -3.95728 5.23197 0
M  V30 16067 H 1503.64 -3.26491 6.81865 0
M  V30 16068 H 1504.91 -4.39213 6.43981 0
M  V30 16069 N 1509.14 -1.56867 -0.151857 0
M  V30 16070 C 1510.37 -1.87237 -0.880343 0
M  V30 16071 C 1510.78 -0.709565 -1.74959 0
M  V30 16072 O 1510.14 0.320818 -1.79658 0
M  V30 16073 C 1510.19 -3.16811 -1.74107 0
M  V30 16074 O 1509.91 -4.28611 -0.906858 0
M  V30 16075 C 1511.41 -3.60662 -2.57755 0
M  V30 16076 H 1508.63 -0.62074 -0.254799 0
M  V30 16077 H 1511.18 -2.03977 -0.146104 0
M  V30 16078 H 1509.33 -3.01838 -2.42842 0
M  V30 16079 H 1509.75 -5.02673 -1.49733 0
M  V30 16080 H 1511.22 -4.54176 -3.13732 0
M  V30 16081 H 1511.7 -2.85716 -3.33561 0
M  V30 16082 H 1512.3 -3.78312 -1.94319 0
M  V30 16083 N 1510.62 0.421051 -1.51871 0
M  V30 16084 C 1511.84 1.19568 -1.69465 0
M  V30 16085 C 1512.27 1.83835 -0.398269 0
M  V30 16086 O 1511.63 1.69508 0.643172 0
M  V30 16087 C 1511.67 2.24337 -2.82321 0
M  V30 16088 O 1510.78 3.30205 -2.47059 0
M  V30 16089 H 1510.12 0.349579 -0.564527 0
M  V30 16090 H 1512.65 0.495177 -1.98517 0
M  V30 16091 H 1512.66 2.6886 -3.06885 0
M  V30 16092 H 1511.33 1.76941 -3.76384 0
M  V30 16093 H 1509.91 2.91045 -2.33125 0
M  V30 16094 N 1512.1 1.42293 0.677538 0
M  V30 16095 C 1513.04 1.45787 1.81243 0
M  V30 16096 C 1514.04 0.333895 1.66077 0
M  V30 16097 O 1515.24 0.50678 1.72719 0
M  V30 16098 H 1511.62 0.456538 0.597559 0
M  V30 16099 H 1513.59 2.41398 1.75413 0
M  V30 16100 C 1512.34 1.37449 3.19379 0
M  V30 16101 H 1511.66 2.23231 3.31674 0
M  V30 16102 H 1513.1 1.43955 3.98814 0
M  V30 16103 C 1511.56 0.0889433 3.36783 0
M  V30 16104 O 1512.09 -0.859357 3.924 0
M  V30 16105 N 1510.3 0.00698476 2.90599 0
M  V30 16106 H 1509.84 0.779459 2.45524 0
M  V30 16107 H 1509.8 -0.852522 3.02621 0
M  V30 16108 N 1513.57 -0.913576 1.28419 0
M  V30 16109 C 1514.52 -2.03739 1.1222 0
M  V30 16110 C 1515.52 -1.69349 0.0414309 0
M  V30 16111 O 1516.72 -1.78883 0.200213 0
M  V30 16112 H 1513.1 -0.667554 0.34623 0
M  V30 16113 H 1515.07 -2.14544 2.07397 0
M  V30 16114 C 1513.82 -3.38348 0.801003 0
M  V30 16115 H 1513.14 -3.65304 1.6246 0
M  V30 16116 H 1514.58 -4.1771 0.727611 0
M  V30 16117 C 1513.04 -3.3324 -0.495261 0
M  V30 16118 O 1513.57 -3.71606 -1.52551 0
M  V30 16119 N 1511.78 -2.86335 -0.496054 0
M  V30 16120 H 1511.32 -2.55309 0.342773 0
M  V30 16121 H 1511.28 -2.833 -1.3634 0
M  V30 16122 N 1515.05 -1.1067 -1.12204 0
M  V30 16123 C 1516.28 -0.873095 -1.88127 0
M  V30 16124 C 1516.7 0.571099 -1.79221 0
M  V30 16125 O 1516.06 1.40251 -1.14888 0
M  V30 16126 C 1516.11 -1.32922 -3.35208 0
M  V30 16127 O 1515.21 -0.495807 -4.09409 0
M  V30 16128 H 1514.55 -0.315138 -0.584452 0
M  V30 16129 H 1517.08 -1.47413 -1.41882 0
M  V30 16130 H 1517.09 -1.32023 -3.86049 0
M  V30 16131 H 1515.77 -2.38091 -3.41007 0
M  V30 16132 H 1514.35 -0.570216 -3.68515 0
M  V30 16133 N 1516.53 1.29665 -0.895815 0
M  V30 16134 C 1517.49 2.26103 -0.3755 0
M  V30 16135 C 1518.49 1.53212 0.488126 0
M  V30 16136 O 1519.68 1.71706 0.293733 0
M  V30 16137 C 1516.82 3.37732 0.46364 0
M  V30 16138 H 1518.01 2.73643 -1.22718 0
M  V30 16139 H 1515.56 1.4104 -0.673613 0
M  V30 16140 H 1516.3 2.95526 1.33546 0
M  V30 16141 H 1516.08 3.91793 -0.155123 0
M  V30 16142 H 1517.57 4.09488 0.819112 0
M  V30 16143 N 1518.01 0.657889 1.43212 0
M  V30 16144 C 1519.24 0.181072 2.06106 0
M  V30 16145 C 1519.65 -1.15513 1.49339 0
M  V30 16146 O 1519.01 -1.71409 0.626517 0
M  V30 16147 C 1519.06 0.0890244 3.6139 0
M  V30 16148 O 1518.78 1.37241 4.16049 0
M  V30 16149 C 1520.28 -0.413313 4.41369 0
M  V30 16150 H 1517.5 0.0920577 0.664655 0
M  V30 16151 H 1520.05 0.899855 1.83638 0
M  V30 16152 H 1518.2 -0.580345 3.83028 0
M  V30 16153 H 1518.61 1.23467 5.09761 0
M  V30 16154 H 1520.09 -0.426663 5.50349 0
M  V30 16155 H 1520.57 -1.44549 4.14731 0
M  V30 16156 H 1521.17 0.223727 4.24711 0
M  V30 16157 N 1519.49 -1.52437 0.400108 0
M  V30 16158 C 1520.43 -2.28312 -0.444572 0
M  V30 16159 C 1521.43 -1.32641 -1.0537 0
M  V30 16160 O 1522.63 -1.50136 -0.99293 0
M  V30 16161 H 1519.01 -0.734313 -0.162137 0
M  V30 16162 H 1520.98 -2.97612 0.216702 0
M  V30 16163 C 1519.73 -3.11044 -1.55393 0
M  V30 16164 H 1519.05 -3.84525 -1.09455 0
M  V30 16165 H 1520.49 -3.67255 -2.11896 0
M  V30 16166 C 1518.95 -2.24035 -2.51614 0
M  V30 16167 O 1519.48 -1.87447 -3.55284 0
M  V30 16168 N 1517.69 -1.87982 -2.2161 0
M  V30 16169 H 1517.23 -2.17936 -1.37338 0
M  V30 16170 H 1517.19 -1.30058 -2.86238 0
M  V30 16171 N 1520.96 -0.130252 -1.57061 0
M  V30 16172 C 1522.38 0.226279 -1.57988 0
M  V30 16173 C 1522.58 1.65902 -1.14363 0
M  V30 16174 O 1521.64 2.38252 -0.836191 0
M  V30 16175 C 1522.95 -0.0172647 -3.00695 0
M  V30 16176 C 1524.5 0.0477572 -3.12964 0
M  V30 16177 C 1524.97 -0.168238 -4.57691 0
M  V30 16178 N 1526.46 -0.114591 -4.63058 0
M  V30 16179 C 1527.2 -0.256462 -5.72826 0
M  V30 16180 N 1526.69 -0.455129 -6.91303 0
M  V30 16181 N 1528.49 -0.195243 -5.61761 0
M  V30 16182 H 1520.64 -1.06594 -1.83716 0
M  V30 16183 H 1522.9 -0.420643 -0.849567 0
M  V30 16184 H 1522.61 -1.00819 -3.3694 0
M  V30 16185 H 1522.48 0.709629 -3.70465 0
M  V30 16186 H 1524.87 1.02922 -2.7657 0
M  V30 16187 H 1524.95 -0.711198 -2.45714 0
M  V30 16188 H 1524.59 -1.14673 -4.94785 0
M  V30 16189 H 1524.52 0.610839 -5.23045 0
M  V30 16190 H 1527.01 0.0349873 -3.77884 0
M  V30 16191 H 1527.33 -0.553943 -7.70812 0
M  V30 16192 H 1525.67 -0.491244 -6.93262 0
M  V30 16193 H 1528.86 -0.0409186 -4.68082 0
M  V30 16194 H 1529.04 -0.309248 -6.47262 0
M  V30 16195 N 1522.44 1.56945 0.143535 0
M  V30 16196 C 1523.39 1.98526 1.17711 0
M  V30 16197 C 1524.36 0.853402 1.425 0
M  V30 16198 O 1525.55 1.11574 1.54777 0
M  V30 16199 C 1522.69 2.37395 2.50475 0
M  V30 16200 C 1521.8 3.63887 2.32831 0
M  V30 16201 C 1520.93 3.91844 3.58653 0
M  V30 16202 C 1519.97 5.11595 3.36061 0
M  V30 16203 N 1519.11 5.35545 4.54022 0
M  V30 16204 H 1523.95 2.86624 0.815524 0
M  V30 16205 H 1521.49 1.41802 0.391231 0
M  V30 16206 H 1523.44 2.5796 3.27891 0
M  V30 16207 H 1522.07 1.52372 2.84575 0
M  V30 16208 H 1521.13 3.51078 1.46452 0
M  V30 16209 H 1522.44 4.51459 2.12098 0
M  V30 16210 H 1521.59 4.12926 4.44497 0
M  V30 16211 H 1520.33 3.027 3.82393 0
M  V30 16212 H 1519.34 4.90383 2.48606 0
M  V30 16213 H 1520.56 6.02295 3.13716 0
M  V30 16214 H 1518.51 4.49355 4.77929 0
M  V30 16215 H 1518.42 6.17393 4.36305 0
M  V30 16216 H 1519.69 5.61127 5.4107 0
M  V30 16217 N 1523.92 -0.412991 1.52093 0
M  V30 16218 C 1525.15 -1.18212 1.69805 0
M  V30 16219 C 1525.56 -1.84386 0.405844 0
M  V30 16220 O 1524.92 -1.71725 -0.617809 0
M  V30 16221 C 1524.97 -2.24811 2.83094 0
M  V30 16222 O 1524.69 -1.61338 4.0731 0
M  V30 16223 C 1526.19 -3.14633 3.12283 0
M  V30 16224 H 1523.41 -0.355371 0.569168 0
M  V30 16225 H 1525.96 -0.486392 1.98632 0
M  V30 16226 H 1524.11 -2.90058 2.56797 0
M  V30 16227 H 1524.53 -2.31979 4.7041 0
M  V30 16228 H 1526 -3.85511 3.95076 0
M  V30 16229 H 1526.48 -3.76785 2.25677 0
M  V30 16230 H 1527.08 -2.55059 3.40331 0
M  V30 16231 N 1525.4 -1.4265 -0.669982 0
M  V30 16232 C 1526.35 -1.42958 -1.77615 0
M  V30 16233 C 1527.33 -0.30025 -1.58074 0
M  V30 16234 O 1528.53 -0.54283 -1.68471 0
M  V30 16235 C 1525.65 -1.33911 -3.16106 0
M  V30 16236 C 1524.74 -2.51808 -3.41253 0
M  V30 16237 N 1525.13 -3.77216 -3.36959 0
M  V30 16238 C 1523.43 -2.46172 -3.71908 0
M  V30 16239 C 1524.13 -4.55555 -3.61724 0
M  V30 16240 N 1523.11 -3.86036 -3.82724 0
M  V30 16241 H 1526.91 -2.3781 -1.72696 0
M  V30 16242 H 1524.42 -1.37066 -0.871009 0
M  V30 16243 H 1526.42 -1.32214 -3.9538 0
M  V30 16244 H 1525.08 -0.400652 -3.22219 0
M  V30 16245 H 1526.09 -4.09743 -3.16751 0
M  V30 16246 H 1522.77 -1.6093 -3.85237 0
M  V30 16247 H 1524.16 -5.6455 -3.64325 0
M  V30 16248 N 1526.88 0.906753 -1.28902 0
M  V30 16249 C 1528.13 1.65119 -1.15839 0
M  V30 16250 C 1528.44 1.93426 0.290825 0
M  V30 16251 O 1529.65 2.66021 0.542678 0
M  V30 16252 C 1528.1 2.97492 -2.0255 0
M  V30 16253 C 1527.71 2.76807 -3.52253 0
M  V30 16254 C 1529.45 3.75393 -1.98192 0
M  V30 16255 C 1527.36 4.04863 -4.31091 0
M  V30 16256 H 1526.29 0.619409 -0.429939 0
M  V30 16257 H 1528.94 1.00567 -1.53488 0
M  V30 16258 H 1527.32 3.63217 -1.57763 0
M  V30 16259 H 1528.5 2.19719 -4.05044 0
M  V30 16260 H 1526.81 2.1231 -3.58209 0
M  V30 16261 H 1529.41 4.70325 -2.54358 0
M  V30 16262 H 1529.75 4.05074 -0.960267 0
M  V30 16263 H 1530.29 3.16498 -2.40985 0
M  V30 16264 H 1527.02 3.80353 -5.33865 0
M  V30 16265 H 1526.54 4.61537 -3.83072 0
M  V30 16266 H 1528.22 4.73066 -4.41381 0
M  V30 16267 N 1528.36 1.11264 1.11616 0
M  V30 16268 C 1529.63 0.772174 1.79713 0
M  V30 16269 C 1530.01 -0.740055 1.97703 0
M  V30 16270 O 1529.36 -1.66939 1.56024 0
M  V30 16271 C 1529.57 1.53316 3.13521 0
M  V30 16272 C 1530.92 1.71124 3.88589 0
M  V30 16273 O 1531.94 1.49725 3.23204 0
M  V30 16274 O 1530.8 2.0667 5.05915 0
M  V30 16275 H 1527.9 0.279548 0.77832 0
M  V30 16276 H 1530.44 1.21596 1.18375 0
M  V30 16277 H 1529.21 2.56194 2.95771 0
M  V30 16278 H 1528.84 1.08281 3.82572 0
M  V30 16279 N 1529.83 -1.29188 0.902679 0
M  V30 16280 C 1531.08 -1.95052 0.529076 0
M  V30 16281 C 1531.4 -1.7149 -0.92824 0
M  V30 16282 O 1530.67 -1.04834 -1.65489 0
M  V30 16283 H 1529.25 -0.721725 0.192671 0
M  V30 16284 H 1531.91 -1.57384 1.14962 0
M  V30 16285 H 1531.01 -3.03819 0.714179 0
M  V30 16286 N 1531.31 -0.665475 -1.42861 0
M  V30 16287 C 1532.72 -0.26225 -1.84849 0
M  V30 16288 C 1533.07 1.19372 -1.55707 0
M  V30 16289 O 1532.2 1.91269 -1.01218 0
M  V30 16290 C 1532.79 -0.469189 -3.35535 0
M  V30 16291 C 1531.35 -0.120172 -3.76208 0
M  V30 16292 C 1530.5 -0.766153 -2.66506 0
M  V30 16293 H 1533.45 -0.868296 -1.32839 0
M  V30 16294 H 1533.47 0.281571 -3.79457 0
M  V30 16295 H 1532.98 -1.52894 -3.56714 0
M  V30 16296 H 1531.08 0.936505 -3.60639 0
M  V30 16297 H 1531.2 -0.554188 -4.75884 0
M  V30 16298 H 1529.56 -0.198292 -2.53927 0
M  V30 16299 H 1530.34 -1.82918 -2.9051 0
M  V30 16300 N 1532.79 1.52222 -0.408187 0
M  V30 16301 C 1534.01 2.06703 0.169901 0
M  V30 16302 C 1534.44 1.27635 1.3817 0
M  V30 16303 O 1533.8 0.306343 1.78693 0
M  V30 16304 C 1533.85 3.57121 0.499663 0
M  V30 16305 O 1532.95 3.80483 1.5908 0
M  V30 16306 H 1532.29 0.663839 0.0146145 0
M  V30 16307 H 1534.82 1.96174 -0.581113 0
M  V30 16308 H 1534.83 4.00886 0.758567 0
M  V30 16309 H 1533.51 4.14103 -0.386182 0
M  V30 16310 H 1532.08 3.48599 1.32413 0
M  V30 16311 N 1534.27 0.138579 1.5699 0
M  V30 16312 C 1535.2 -0.800568 2.19347 0
M  V30 16313 C 1536.18 -1.26318 1.13921 0
M  V30 16314 O 1537.36 -1.32226 1.42232 0
M  V30 16315 C 1534.49 -2.04317 2.80842 0
M  V30 16316 C 1533.45 -1.71764 3.92022 0
M  V30 16317 C 1532.77 -3.03217 4.40413 0
M  V30 16318 C 1534.07 -0.970789 5.13199 0
M  V30 16319 H 1535.77 -0.280888 2.98079 0
M  V30 16320 H 1533.31 -0.133663 1.43378 0
M  V30 16321 H 1535.27 -2.70491 3.2313 0
M  V30 16322 H 1533.99 -2.58643 1.99428 0
M  V30 16323 H 1532.65 -1.07972 3.50339 0
M  V30 16324 H 1532.3 -3.55517 3.55832 0
M  V30 16325 H 1532 -2.82203 5.15398 0
M  V30 16326 H 1533.52 -3.70477 4.85365 0
M  V30 16327 H 1534.94 -1.53445 5.52384 0
M  V30 16328 H 1533.33 -0.860895 5.93893 0
M  V30 16329 H 1534.4 0.0390088 4.84884 0
M  V30 16330 N 1535.75 -1.57019 -0.13521 0
M  V30 16331 C 1536.68 -2.02182 -1.16811 0
M  V30 16332 C 1537.66 -0.9034 -1.44127 0
M  V30 16333 O 1538.84 -1.17202 -1.54846 0
M  V30 16334 C 1535.97 -2.41243 -2.49838 0
M  V30 16335 C 1534.93 -3.56379 -2.37018 0
M  V30 16336 C 1534.25 -3.8129 -3.74863 0
M  V30 16337 C 1535.55 -4.88653 -1.84432 0
M  V30 16338 H 1537.25 -2.8872 -0.792529 0
M  V30 16339 H 1534.79 -1.38901 -0.379788 0
M  V30 16340 H 1536.74 -2.7144 -3.22332 0
M  V30 16341 H 1535.47 -1.51656 -2.89254 0
M  V30 16342 H 1534.13 -3.26366 -1.66975 0
M  V30 16343 H 1533.78 -2.88934 -4.11735 0
M  V30 16344 H 1533.48 -4.58781 -3.67143 0
M  V30 16345 H 1535 -4.13924 -4.48887 0
M  V30 16346 H 1536.41 -5.17492 -2.46729 0
M  V30 16347 H 1534.81 -5.70032 -1.87574 0
M  V30 16348 H 1535.88 -4.78242 -0.800759 0
M  V30 16349 N 1537.22 0.404919 -1.52309 0
M  V30 16350 C 1538.47 1.14859 -1.65802 0
M  V30 16351 C 1538.79 1.91546 -0.396174 0
M  V30 16352 O 1539.99 2.68372 -0.410969 0
M  V30 16353 C 1538.45 2.09068 -2.92948 0
M  V30 16354 C 1538.06 1.37878 -4.26255 0
M  V30 16355 C 1539.8 2.83669 -3.15804 0
M  V30 16356 C 1537.71 2.30761 -5.44521 0
M  V30 16357 H 1536.64 0.432463 -0.61765 0
M  V30 16358 H 1539.29 0.412695 -1.78799 0
M  V30 16359 H 1537.67 2.86228 -2.7366 0
M  V30 16360 H 1538.84 0.660543 -4.56041 0
M  V30 16361 H 1537.16 0.753026 -4.09534 0
M  V30 16362 H 1539.76 3.53313 -4.0134 0
M  V30 16363 H 1540.1 3.46855 -2.30212 0
M  V30 16364 H 1540.63 2.13607 -3.35584 0
M  V30 16365 H 1537.37 1.72214 -6.32473 0
M  V30 16366 H 1536.89 3.00546 -5.19069 0
M  V30 16367 H 1538.57 2.91195 -5.77767 0
M  V30 16368 N 1538.7 1.43003 0.662408 0
M  V30 16369 C 1539.61 1.49876 1.80484 0
M  V30 16370 C 1540.63 0.386526 1.69653 0
M  V30 16371 O 1541.8 0.639289 1.90984 0
M  V30 16372 C 1538.87 1.41057 3.16708 0
M  V30 16373 C 1537.93 2.62875 3.39404 0
M  V30 16374 C 1537.16 2.54468 4.69129 0
M  V30 16375 O 1537.39 1.58735 5.47868 0
M  V30 16376 O 1536.32 3.44814 4.93343 0
M  V30 16377 H 1540.15 2.46327 1.77641 0
M  V30 16378 H 1537.73 1.24903 0.81973 0
M  V30 16379 H 1539.61 1.38547 3.97973 0
M  V30 16380 H 1538.29 0.477361 3.20161 0
M  V30 16381 H 1537.2 2.70958 2.57939 0
M  V30 16382 H 1538.53 3.55137 3.40791 0
M  V30 16383 N 1540.18 -0.899904 1.29381 0
M  V30 16384 C 1541.13 -2.02537 1.14375 0
M  V30 16385 C 1542.12 -1.69296 0.0593904 0
M  V30 16386 O 1543.33 -1.78661 0.219174 0
M  V30 16387 H 1539.7 -0.663844 0.353291 0
M  V30 16388 H 1541.67 -2.12332 2.0966 0
M  V30 16389 C 1540.42 -3.37479 0.836845 0
M  V30 16390 H 1539.75 -3.6356 1.66326 0
M  V30 16391 H 1541.19 -4.16915 0.771873 0
M  V30 16392 C 1539.65 -3.33746 -0.459889 0
M  V30 16393 O 1540.18 -3.73203 -1.48601 0
M  V30 16394 N 1538.38 -2.86845 -0.465657 0
M  V30 16395 H 1537.93 -2.54931 0.369833 0
M  V30 16396 H 1537.89 -2.8473 -1.33327 0
M  V30 16397 N 1541.66 -1.11854 -1.11024 0
M  V30 16398 C 1542.88 -0.892999 -1.8719 0
M  V30 16399 C 1543.31 0.552058 -1.79816 0
M  V30 16400 O 1542.67 1.39025 -1.16369 0
M  V30 16401 C 1542.71 -1.3647 -3.33779 0
M  V30 16402 O 1541.82 -0.539202 -4.0886 0
M  V30 16403 H 1541.16 -0.321319 -0.581076 0
M  V30 16404 H 1543.69 -1.4891 -1.4031 0
M  V30 16405 H 1543.7 -1.3611 -3.84627 0
M  V30 16406 H 1542.37 -2.41694 -3.38462 0
M  V30 16407 H 1540.95 -0.60927 -3.67889 0
M  V30 16408 N 1543.14 1.28707 -0.909517 0
M  V30 16409 C 1544.55 1.77212 -0.587613 0
M  V30 16410 C 1544.9 1.74495 0.896986 0
M  V30 16411 O 1544.02 1.33698 1.70158 0
M  V30 16412 C 1544.62 3.21794 -1.05989 0
M  V30 16413 C 1543.18 3.68038 -0.788983 0
M  V30 16414 C 1542.32 2.48576 -1.22903 0
M  V30 16415 H 1545.28 1.1523 -1.09122 0
M  V30 16416 H 1545.3 3.78397 -0.399469 0
M  V30 16417 H 1544.81 3.23739 -2.14043 0
M  V30 16418 H 1542.91 3.71558 0.278523 0
M  V30 16419 H 1543.02 4.58379 -1.39376 0
M  V30 16420 H 1541.39 2.46323 -0.647838 0
M  V30 16421 H 1542.17 2.53243 -2.31782 0
M  V30 16422 N 1544.61 0.673042 1.42506 0
M  V30 16423 C 1545.84 0.201349 2.0642 0
M  V30 16424 C 1546.26 -1.132 1.50224 0
M  V30 16425 O 1545.62 -1.70368 0.620024 0
M  V30 16426 C 1545.67 0.14505 3.60308 0
M  V30 16427 O 1544.77 -0.886953 4.02749 0
M  V30 16428 H 1544.12 0.103975 0.655809 0
M  V30 16429 H 1546.65 0.921559 1.8267 0
M  V30 16430 H 1546.66 -0.0316792 4.07988 0
M  V30 16431 H 1545.33 1.11829 4.00583 0
M  V30 16432 H 1543.91 -0.681408 3.66621 0
M  V30 16433 N 1546.09 -1.52004 0.416254 0
M  V30 16434 C 1547.34 -2.02188 -0.157434 0
M  V30 16435 C 1547.67 -1.30097 -1.44182 0
M  V30 16436 O 1546.95 -0.409426 -1.90142 0
M  V30 16437 C 1547.23 -3.57896 -0.397847 0
M  V30 16438 C 1547.08 -4.40628 0.903715 0
M  V30 16439 C 1548.4 -4.24072 -1.17689 0
M  V30 16440 H 1545.52 -0.734889 -0.0557437 0
M  V30 16441 H 1548.16 -1.81831 0.551118 0
M  V30 16442 H 1546.31 -3.75372 -1.00142 0
M  V30 16443 H 1547.98 -4.34848 1.53964 0
M  V30 16444 H 1546.23 -4.06556 1.5131 0
M  V30 16445 H 1546.9 -5.47673 0.689802 0
M  V30 16446 H 1549.37 -4.10738 -0.665832 0
M  V30 16447 H 1548.25 -5.32944 -1.31386 0
M  V30 16448 H 1548.51 -3.83507 -2.19942 0
M  V30 16449 N 1547.57 -0.146903 -1.56914 0
M  V30 16450 C 1548.82 0.498591 -1.97194 0
M  V30 16451 C 1549.17 1.62484 -1.03037 0
M  V30 16452 O 1548.46 1.91488 -0.0654079 0
M  V30 16453 C 1548.66 1.05159 -3.41579 0
M  V30 16454 C 1548.49 -0.0195532 -4.49696 0
M  V30 16455 C 1547.26 -0.46094 -5.03193 0
M  V30 16456 C 1549.46 -0.810985 -5.07866 0
M  V30 16457 N 1547.44 -1.51493 -5.94914 0
M  V30 16458 C 1548.81 -1.71548 -5.95795 0
M  V30 16459 C 1550.86 -0.858784 -4.90438 0
M  V30 16460 C 1549.57 -2.66368 -6.68162 0
M  V30 16461 C 1551.59 -1.79481 -5.63507 0
M  V30 16462 C 1550.95 -2.68683 -6.51144 0
M  V30 16463 H 1547.05 0.151258 -0.767232 0
M  V30 16464 H 1549.64 -0.241482 -1.93197 0
M  V30 16465 H 1547.81 1.76127 -3.4617 0
M  V30 16466 H 1549.54 1.66369 -3.68922 0
M  V30 16467 H 1546.3 -0.0632145 -4.73558 0
M  V30 16468 H 1546.72 -2.04169 -6.4548 0
M  V30 16469 H 1551.36 -0.183218 -4.22403 0
M  V30 16470 H 1549.08 -3.34924 -7.35426 0
M  V30 16471 H 1552.67 -1.83759 -5.52018 0
M  V30 16472 H 1551.55 -3.39933 -7.06693 0
M  V30 16473 N 1549.05 1.57088 0.126881 0
M  V30 16474 C 1549.98 1.96399 1.18153 0
M  V30 16475 C 1550.99 0.862288 1.38089 0
M  V30 16476 O 1552.18 1.14062 1.37303 0
M  V30 16477 C 1549.28 2.24026 2.54295 0
M  V30 16478 C 1548.46 3.5533 2.55068 0
M  V30 16479 C 1547.51 3.71261 3.72896 0
M  V30 16480 O 1546.54 4.43454 3.56844 0
M  V30 16481 N 1547.74 3.09435 4.91152 0
M  V30 16482 H 1550.51 2.87476 0.847217 0
M  V30 16483 H 1548.07 1.58781 0.316242 0
M  V30 16484 H 1550.06 2.31906 3.31665 0
M  V30 16485 H 1548.63 1.39114 2.79939 0
M  V30 16486 H 1547.85 3.58708 1.63468 0
M  V30 16487 H 1549.14 4.41649 2.52634 0
M  V30 16488 H 1548.54 2.50736 5.07097 0
M  V30 16489 H 1547.09 3.22848 5.66226 0
M  V30 16490 N 1550.53 -0.396836 1.52522 0
M  V30 16491 C 1551.47 -1.50474 1.77371 0
M  V30 16492 C 1552.47 -1.56792 0.641307 0
M  V30 16493 O 1553.67 -1.60052 0.823621 0
M  V30 16494 H 1550.05 -0.500667 0.561103 0
M  V30 16495 H 1552.02 -1.26706 2.70163 0
M  V30 16496 C 1550.77 -2.87702 1.95251 0
M  V30 16497 H 1550.09 -2.83588 2.81812 0
M  V30 16498 H 1551.53 -3.64482 2.16631 0
M  V30 16499 C 1549.99 -3.29053 0.722904 0
M  V30 16500 O 1550.52 -4.01567 -0.103398 0
M  V30 16501 N 1548.73 -2.85246 0.555263 0
M  V30 16502 H 1548.27 -2.26403 1.22879 0
M  V30 16503 H 1548.23 -3.13272 -0.266113 0
M  V30 16504 N 1552.01 -1.43353 -0.654814 0
M  V30 16505 C 1553.25 -1.44172 -1.41058 0
M  V30 16506 C 1553.57 -0.0690586 -1.95478 0
M  V30 16507 O 1554.77 0.0453021 -2.71462 0
M  V30 16508 C 1553.23 -2.53701 -2.55272 0
M  V30 16509 C 1552.84 -3.97066 -2.07466 0
M  V30 16510 C 1554.58 -2.63713 -3.3265 0
M  V30 16511 C 1552.49 -4.98065 -3.18881 0
M  V30 16512 H 1551.42 -0.536303 -0.529995 0
M  V30 16513 H 1554.07 -1.69336 -0.706941 0
M  V30 16514 H 1552.45 -2.21736 -3.28099 0
M  V30 16515 H 1553.63 -4.38485 -1.4166 0
M  V30 16516 H 1551.94 -3.91086 -1.42972 0
M  V30 16517 H 1554.54 -3.36346 -4.15663 0
M  V30 16518 H 1554.88 -1.68729 -3.80574 0
M  V30 16519 H 1555.41 -2.94971 -2.66902 0
M  V30 16520 H 1552.15 -5.94596 -2.75927 0
M  V30 16521 H 1551.67 -4.61261 -3.83404 0
M  V30 16522 H 1553.35 -5.20696 -3.84037 0
M  V30 16523 N 1553.48 0.89303 -1.29857 0
M  V30 16524 C 1554.41 2.01422 -1.18117 0
M  V30 16525 C 1555.39 1.6994 -0.0737487 0
M  V30 16526 O 1556.58 1.92527 -0.254387 0
M  V30 16527 C 1553.71 3.36385 -0.863842 0
M  V30 16528 C 1552.66 3.821 -1.92831 0
M  V30 16529 C 1551.99 5.14263 -1.46415 0
M  V30 16530 C 1553.29 4.01699 -3.33819 0
M  V30 16531 H 1554.98 2.11502 -2.11913 0
M  V30 16532 H 1552.53 1.01622 -1.02024 0
M  V30 16533 H 1554.48 4.14335 -0.768397 0
M  V30 16534 H 1553.21 3.26415 0.109816 0
M  V30 16535 H 1551.87 3.06372 -2.01325 0
M  V30 16536 H 1551.51 5.00714 -0.478983 0
M  V30 16537 H 1551.21 5.45821 -2.17609 0
M  V30 16538 H 1552.74 5.94747 -1.38234 0
M  V30 16539 H 1554.15 4.70111 -3.28129 0
M  V30 16540 H 1552.55 4.44621 -4.03029 0
M  V30 16541 H 1553.62 3.05816 -3.76304 0
M  V30 16542 N 1554.96 1.12442 1.10429 0
M  V30 16543 C 1555.87 0.805377 2.20343 0
M  V30 16544 C 1556.89 -0.205836 1.72778 0
M  V30 16545 O 1558.06 -0.0394195 2.01361 0
M  V30 16546 C 1555.13 0.264711 3.45688 0
M  V30 16547 C 1554.19 1.33586 4.07987 0
M  V30 16548 C 1553.42 0.8209 5.27349 0
M  V30 16549 O 1553.65 -0.345303 5.69354 0
M  V30 16550 O 1552.58 1.59052 5.80505 0
M  V30 16551 H 1556.41 1.7234 2.50065 0
M  V30 16552 H 1553.99 0.901084 1.19167 0
M  V30 16553 H 1555.87 -0.0319164 4.21388 0
M  V30 16554 H 1554.55 -0.625869 3.17592 0
M  V30 16555 H 1553.45 1.68566 3.33971 0
M  V30 16556 H 1554.79 2.20021 4.40286 0
M  V30 16557 N 1556.44 -1.28223 0.91633 0
M  V30 16558 C 1557.66 -1.99523 0.566147 0
M  V30 16559 C 1558.09 -1.68 -0.846034 0
M  V30 16560 O 1557.45 -0.913838 -1.56584 0
M  V30 16561 C 1557.5 -3.51949 0.785114 0
M  V30 16562 O 1556.6 -4.1211 -0.154686 0
M  V30 16563 H 1555.94 -0.626764 0.219232 0
M  V30 16564 H 1558.47 -1.63313 1.23247 0
M  V30 16565 H 1558.48 -4.02016 0.696224 0
M  V30 16566 H 1557.16 -3.74227 1.81457 0
M  V30 16567 H 1555.73 -3.72896 -0.0168463 0
M  V30 16568 N 1557.92 -0.68059 -1.42147 0
M  V30 16569 C 1559.19 -0.133957 -1.95141 0
M  V30 16570 C 1559.57 1.3526 -1.62074 0
M  V30 16571 O 1558.92 2.09165 -0.919898 0
M  V30 16572 C 1559.13 -0.409266 -3.46592 0
M  V30 16573 C 1560.48 -0.328899 -4.23324 0
M  V30 16574 O 1561.5 -0.343337 -3.54541 0
M  V30 16575 O 1560.36 -0.276076 -5.45802 0
M  V30 16576 H 1557.46 -0.00623443 -0.826977 0
M  V30 16577 H 1560 -0.755719 -1.51944 0
M  V30 16578 H 1558.78 -1.43883 -3.63887 0
M  V30 16579 H 1558.4 0.244216 -3.96849 0
M  V30 16580 N 1559.4 1.51781 -0.424309 0
M  V30 16581 C 1560.62 2.06387 0.145548 0
M  V30 16582 C 1561.04 1.29299 1.37576 0
M  V30 16583 O 1560.4 0.348952 1.79133 0
M  V30 16584 C 1560.45 3.58288 0.48083 0
M  V30 16585 O 1560.17 4.32463 -0.700546 0
M  V30 16586 C 1561.67 4.29364 1.10278 0
M  V30 16587 H 1558.89 0.67086 0.0136908 0
M  V30 16588 H 1561.43 1.95511 -0.599639 0
M  V30 16589 H 1559.59 3.69122 1.17591 0
M  V30 16590 H 1560 5.22839 -0.417035 0
M  V30 16591 H 1561.48 5.36776 1.28747 0
M  V30 16592 H 1561.95 3.86815 2.08017 0
M  V30 16593 H 1562.56 4.2294 0.447458 0
M  V30 16594 N 1560.87 0.155222 1.56834 0
M  V30 16595 C 1561.78 -0.794179 2.20749 0
M  V30 16596 C 1562.8 -1.26546 1.19424 0
M  V30 16597 O 1563.98 -1.32094 1.5203 0
M  V30 16598 C 1561.04 -2.01261 2.82303 0
M  V30 16599 C 1560.1 -1.58976 3.98779 0
M  V30 16600 C 1559.33 -2.75011 4.57389 0
M  V30 16601 O 1559.56 -3.91449 4.14879 0
M  V30 16602 O 1558.49 -2.50011 5.4752 0
M  V30 16603 H 1562.32 -0.280064 3.02406 0
M  V30 16604 H 1559.9 -0.0722048 1.49225 0
M  V30 16605 H 1561.78 -2.72551 3.21394 0
M  V30 16606 H 1560.46 -2.51609 2.03653 0
M  V30 16607 H 1559.37 -0.846848 3.64389 0
M  V30 16608 H 1560.7 -1.13336 4.78974 0
M  V30 16609 N 1562.35 -1.57153 -0.118549 0
M  V30 16610 C 1563.6 -1.84876 -0.826255 0
M  V30 16611 C 1563.93 -0.740373 -1.79858 0
M  V30 16612 O 1563.18 0.268233 -1.93853 0
M  V30 16613 C 1563.48 -3.19084 -1.60998 0
M  V30 16614 C 1563.15 -4.44069 -0.781911 0
M  V30 16615 C 1561.81 -4.78005 -0.553559 0
M  V30 16616 C 1564.16 -5.20798 -0.204739 0
M  V30 16617 C 1561.49 -5.86114 0.262212 0
M  V30 16618 C 1563.84 -6.29765 0.598225 0
M  V30 16619 C 1562.5 -6.62233 0.83689 0
M  V30 16620 H 1561.77 -0.676511 -0.302348 0
M  V30 16621 H 1564.42 -1.91295 -0.0886182 0
M  V30 16622 H 1562.73 -3.08243 -2.41854 0
M  V30 16623 H 1564.42 -3.37755 -2.16153 0
M  V30 16624 H 1561.01 -4.1748 -0.969984 0
M  V30 16625 H 1565.2 -4.94931 -0.368374 0
M  V30 16626 H 1560.45 -6.09695 0.456338 0
M  V30 16627 H 1564.63 -6.88401 1.05244 0
M  V30 16628 H 1562.25 -7.45835 1.47083 0
M  V30 16629 N 1563.83 0.388742 -1.5273 0
M  V30 16630 C 1564.78 1.47488 -1.77527 0
M  V30 16631 C 1565.75 1.54155 -0.618505 0
M  V30 16632 O 1566.93 1.70407 -0.858251 0
M  V30 16633 C 1564.07 2.84714 -1.95018 0
M  V30 16634 C 1563.18 2.87197 -3.2271 0
M  V30 16635 C 1562.32 4.15851 -3.30517 0
M  V30 16636 C 1561.36 4.12386 -4.52332 0
M  V30 16637 N 1560.5 5.32647 -4.57418 0
M  V30 16638 H 1565.34 1.25644 -2.70218 0
M  V30 16639 H 1562.87 0.609519 -1.33878 0
M  V30 16640 H 1564.83 3.64402 -2.03143 0
M  V30 16641 H 1563.46 3.05008 -1.05688 0
M  V30 16642 H 1562.51 1.99879 -3.23655 0
M  V30 16643 H 1563.82 2.80505 -4.12454 0
M  V30 16644 H 1562.98 5.03943 -3.37827 0
M  V30 16645 H 1561.72 4.25265 -2.38748 0
M  V30 16646 H 1560.72 3.22683 -4.45147 0
M  V30 16647 H 1561.95 4.04594 -5.45418 0
M  V30 16648 H 1559.89 5.42691 -3.68541 0
M  V30 16649 H 1559.81 5.28032 -5.41035 0
M  V30 16650 H 1561.08 6.22636 -4.68983 0
M  V30 16651 N 1565.31 1.43698 0.647203 0
M  V30 16652 C 1566.25 1.49323 1.75987 0
M  V30 16653 C 1567.22 0.342379 1.62533 0
M  V30 16654 O 1568.41 0.550379 1.8269 0
M  V30 16655 C 1565.55 1.428 3.14169 0
M  V30 16656 C 1564.66 2.68136 3.38714 0
M  V30 16657 C 1563.8 2.53559 4.66778 0
M  V30 16658 C 1562.84 3.74135 4.84447 0
M  V30 16659 N 1561.97 3.58332 6.03774 0
M  V30 16660 H 1566.81 2.44395 1.70514 0
M  V30 16661 H 1564.35 1.21309 0.832021 0
M  V30 16662 H 1566.31 1.37011 3.94061 0
M  V30 16663 H 1564.94 0.513057 3.18697 0
M  V30 16664 H 1563.99 2.84179 2.52877 0
M  V30 16665 H 1565.3 3.57684 3.47654 0
M  V30 16666 H 1564.46 2.45513 5.54805 0
M  V30 16667 H 1563.2 1.61545 4.60168 0
M  V30 16668 H 1562.2 3.82584 3.94854 0
M  V30 16669 H 1563.43 4.67165 4.92883 0
M  V30 16670 H 1561.37 2.69057 5.98284 0
M  V30 16671 H 1561.29 4.41485 6.13699 0
M  V30 16672 H 1562.56 3.54148 6.94406 0
M  V30 16673 N 1566.79 -0.886131 1.30328 0
M  V30 16674 C 1568.03 -1.64026 1.19261 0
M  V30 16675 C 1568.37 -1.92553 -0.252379 0
M  V30 16676 O 1567.64 -1.54564 -1.18069 0
M  V30 16677 C 1567.92 -2.9808 2.0204 0
M  V30 16678 C 1567.78 -2.76534 3.54752 0
M  V30 16679 C 1569.1 -3.98989 1.85731 0
M  V30 16680 H 1566.21 -0.595224 0.4346 0
M  V30 16681 H 1568.86 -1.0255 1.59949 0
M  V30 16682 H 1567.01 -3.50552 1.67469 0
M  V30 16683 H 1568.68 -2.3086 3.99376 0
M  V30 16684 H 1566.92 -2.1106 3.78993 0
M  V30 16685 H 1567.59 -3.71849 4.07961 0
M  V30 16686 H 1570.07 -3.55673 2.15953 0
M  V30 16687 H 1568.94 -4.90699 2.45979 0
M  V30 16688 H 1569.21 -4.34501 0.816152 0
M  V30 16689 N 1568.26 -1.13026 -1.09832 0
M  V30 16690 C 1569.49 -0.91246 -1.85693 0
M  V30 16691 C 1569.91 0.538558 -1.80956 0
M  V30 16692 O 1569.26 1.37262 -1.20273 0
M  V30 16693 C 1569.32 -1.38684 -3.3384 0
M  V30 16694 O 1569.04 -2.78099 -3.38515 0
M  V30 16695 C 1570.54 -1.20688 -4.26555 0
M  V30 16696 H 1567.76 -0.32565 -0.58668 0
M  V30 16697 H 1570.3 -1.50177 -1.38806 0
M  V30 16698 H 1568.46 -0.840617 -3.7817 0
M  V30 16699 H 1568.87 -2.99061 -4.30886 0
M  V30 16700 H 1570.34 -1.5876 -5.28677 0
M  V30 16701 H 1570.82 -0.148111 -4.3895 0
M  V30 16702 H 1571.43 -1.74092 -3.88036 0
M  V30 16703 N 1569.74 1.27735 -0.923117 0
M  V30 16704 C 1571.15 1.76579 -0.606376 0
M  V30 16705 C 1571.5 1.75437 0.878428 0
M  V30 16706 O 1570.63 1.35495 1.68731 0
M  V30 16707 C 1571.22 3.20652 -1.09396 0
M  V30 16708 C 1569.78 3.67181 -0.827974 0
M  V30 16709 C 1568.93 2.47259 -1.25532 0
M  V30 16710 H 1571.88 1.14067 -1.10338 0
M  V30 16711 H 1571.9 3.77952 -0.439581 0
M  V30 16712 H 1571.41 3.21451 -2.17465 0
M  V30 16713 H 1569.52 3.71832 0.239098 0
M  V30 16714 H 1569.63 4.56875 -1.44229 0
M  V30 16715 H 1567.99 2.45622 -0.673928 0
M  V30 16716 H 1568.78 2.50771 -2.34455 0
M  V30 16717 N 1571.22 0.688118 1.41784 0
M  V30 16718 C 1572.15 0.0323199 2.33478 0
M  V30 16719 C 1573.13 -0.775145 1.51412 0
M  V30 16720 O 1574.32 -0.72962 1.79973 0
M  V30 16721 C 1571.45 -0.910141 3.35162 0
M  V30 16722 C 1570.4 -0.210312 4.27483 0
M  V30 16723 C 1569.73 -1.26662 5.19481 0
M  V30 16724 C 1571.03 0.918839 5.14154 0
M  V30 16725 H 1572.72 0.798138 2.88566 0
M  V30 16726 H 1570.27 0.385262 1.38751 0
M  V30 16727 H 1572.22 -1.3781 3.98229 0
M  V30 16728 H 1570.94 -1.70754 2.78408 0
M  V30 16729 H 1569.6 0.237544 3.6583 0
M  V30 16730 H 1569.25 -2.05635 4.59046 0
M  V30 16731 H 1568.95 -0.803416 5.82082 0
M  V30 16732 H 1570.47 -1.73524 5.85424 0
M  V30 16733 H 1571.89 0.531499 5.70831 0
M  V30 16734 H 1570.29 1.30867 5.85657 0
M  V30 16735 H 1571.36 1.7618 4.51762 0
M  V30 16736 N 1572.7 -1.51554 0.432352 0
M  V30 16737 C 1573.95 -2.01232 -0.137255 0
M  V30 16738 C 1574.26 -1.32135 -1.44221 0
M  V30 16739 O 1575.47 -1.72756 -2.09446 0
M  V30 16740 C 1573.92 -3.58688 -0.295152 0
M  V30 16741 C 1573.53 -4.36718 0.999072 0
M  V30 16742 C 1575.27 -4.16528 -0.818798 0
M  V30 16743 C 1573.18 -5.85867 0.80709 0
M  V30 16744 H 1572.11 -0.751986 -0.0550696 0
M  V30 16745 H 1574.76 -1.74703 0.561352 0
M  V30 16746 H 1573.14 -3.81643 -1.05664 0
M  V30 16747 H 1574.32 -4.25512 1.76851 0
M  V30 16748 H 1572.63 -3.90306 1.45087 0
M  V30 16749 H 1575.23 -5.25664 -0.978841 0
M  V30 16750 H 1575.57 -3.75379 -1.79989 0
M  V30 16751 H 1576.11 -3.97632 -0.11575 0
M  V30 16752 H 1572.85 -6.31419 1.76041 0
M  V30 16753 H 1572.37 -5.9975 0.0773617 0
M  V30 16754 H 1574.04 -6.45375 0.458328 0
M  V30 16755 N 1574.18 -0.163538 -1.56749 0
M  V30 16756 C 1575.13 0.781904 -2.14173 0
M  V30 16757 C 1576.11 1.19818 -1.07389 0
M  V30 16758 O 1577.3 1.16184 -1.3353 0
M  V30 16759 C 1574.43 2.01433 -2.77992 0
M  V30 16760 C 1573.52 1.6204 -3.91923 0
M  V30 16761 N 1573.91 0.935598 -4.97072 0
M  V30 16762 C 1572.21 1.91197 -4.02939 0
M  V30 16763 C 1572.91 0.742806 -5.76938 0
M  V30 16764 N 1571.88 1.28183 -5.28271 0
M  V30 16765 H 1575.69 0.249647 -2.92838 0
M  V30 16766 H 1573.2 0.0374224 -1.62357 0
M  V30 16767 H 1575.2 2.7018 -3.17504 0
M  V30 16768 H 1573.86 2.55161 -2.00806 0
M  V30 16769 H 1574.87 0.594507 -5.14476 0
M  V30 16770 H 1571.54 2.46657 -3.36848 0
M  V30 16771 H 1572.93 0.201845 -6.71597 0
M  V30 16772 N 1575.65 1.57214 0.110213 0
M  V30 16773 C 1576.93 1.76298 0.847249 0
M  V30 16774 C 1577.31 0.741294 1.97656 0
M  V30 16775 O 1576.66 -0.233104 2.27308 0
M  V30 16776 C 1576.87 3.21588 1.35582 0
M  V30 16777 C 1578.22 3.8434 1.80465 0
M  V30 16778 O 1579.24 3.25244 1.45241 0
M  V30 16779 O 1578.1 4.88231 2.45546 0
M  V30 16780 H 1575.19 0.722167 0.402993 0
M  V30 16781 H 1577.74 1.69443 0.0932694 0
M  V30 16782 H 1576.51 3.87472 0.54599 0
M  V30 16783 H 1576.14 3.33015 2.17225 0
M  V30 16784 N 1577.13 -0.380637 1.52934 0
M  V30 16785 C 1578.55 -0.721287 1.42371 0
M  V30 16786 C 1578.75 -1.93826 0.55078 0
M  V30 16787 O 1577.8 -2.52485 0.02743 0
M  V30 16788 C 1579.12 -0.948564 2.85347 0
M  V30 16789 C 1580.67 -1.04952 2.9488 0
M  V30 16790 C 1581.14 -1.30937 4.38885 0
M  V30 16791 N 1582.63 -1.3774 4.42246 0
M  V30 16792 C 1583.37 -1.59527 5.50762 0
M  V30 16793 N 1582.86 -1.7873 6.69349 0
M  V30 16794 N 1584.66 -1.61774 5.38317 0
M  V30 16795 H 1576.81 0.420032 2.08205 0
M  V30 16796 H 1579.07 0.125776 0.939619 0
M  V30 16797 H 1578.78 -0.126348 3.51473 0
M  V30 16798 H 1578.65 -1.8609 3.28101 0
M  V30 16799 H 1581.04 -1.86229 2.28917 0
M  V30 16800 H 1581.12 -0.114899 2.55542 0
M  V30 16801 H 1580.76 -0.50166 5.05416 0
M  V30 16802 H 1580.69 -2.25696 4.75782 0
M  V30 16803 H 1583.18 -1.24575 3.56777 0
M  V30 16804 H 1583.5 -1.94885 7.47823 0
M  V30 16805 H 1581.84 -1.75938 6.72362 0
M  V30 16806 H 1585.03 -1.4633 4.44641 0
M  V30 16807 H 1585.2 -1.78414 6.22955 0
M  V30 16808 N 1578.61 -1.44039 -0.639573 0
M  V30 16809 C 1579.54 -1.44715 -1.76445 0
M  V30 16810 C 1580.52 -0.306957 -1.59676 0
M  V30 16811 O 1581.71 -0.502643 -1.81675 0
M  V30 16812 C 1578.83 -1.27177 -3.13917 0
M  V30 16813 C 1577.88 -2.44649 -3.49355 0
M  V30 16814 S 1578.71 -4.07191 -3.47787 0
M  V30 16815 C 1579.87 -3.92061 -4.87893 0
M  V30 16816 H 1580.1 -2.39897 -1.75603 0
M  V30 16817 H 1577.63 -1.31235 -0.813438 0
M  V30 16818 H 1579.59 -1.17745 -3.93251 0
M  V30 16819 H 1578.25 -0.335196 -3.12306 0
M  V30 16820 H 1577.45 -2.28219 -4.49369 0
M  V30 16821 H 1577.05 -2.50777 -2.77465 0
M  V30 16822 H 1579.34 -3.55229 -5.76904 0
M  V30 16823 H 1580.28 -4.91875 -5.09377 0
M  V30 16824 H 1580.69 -3.24271 -4.6207 0
M  V30 16825 N 1580.09 0.879207 -1.30796 0
M  V30 16826 C 1581.02 2.00158 -1.20246 0
M  V30 16827 C 1582 1.69852 -0.091769 0
M  V30 16828 O 1583.18 1.92246 -0.274792 0
M  V30 16829 C 1580.31 3.3545 -0.899472 0
M  V30 16830 C 1579.27 3.80033 -1.96873 0
M  V30 16831 C 1578.59 5.12681 -1.51861 0
M  V30 16832 C 1579.89 3.98136 -3.38061 0
M  V30 16833 H 1581.59 2.09242 -2.14145 0
M  V30 16834 H 1579.13 1.00535 -1.03096 0
M  V30 16835 H 1581.09 4.13497 -0.812299 0
M  V30 16836 H 1579.81 3.26513 0.075189 0
M  V30 16837 H 1578.47 3.04219 -2.04564 0
M  V30 16838 H 1578.12 5.00178 -0.532063 0
M  V30 16839 H 1577.82 5.43482 -2.23386 0
M  V30 16840 H 1579.34 5.93247 -1.44534 0
M  V30 16841 H 1580.76 4.66604 -3.33096 0
M  V30 16842 H 1579.15 4.40321 -4.07722 0
M  V30 16843 H 1580.22 3.01807 -3.79526 0
M  V30 16844 N 1581.57 1.13606 1.09231 0
M  V30 16845 C 1582.5 0.758936 2.1521 0
M  V30 16846 C 1583.48 -0.255788 1.60575 0
M  V30 16847 O 1584.66 -0.14682 1.87927 0
M  V30 16848 C 1581.79 0.125401 3.38468 0
M  V30 16849 C 1580.84 1.10894 4.11831 0
M  V30 16850 S 1581.67 2.64233 4.65769 0
M  V30 16851 C 1582.82 2.02246 5.92324 0
M  V30 16852 H 1583.06 1.65661 2.46868 0
M  V30 16853 H 1580.59 0.956419 1.2121 0
M  V30 16854 H 1582.55 -0.233725 4.09834 0
M  V30 16855 H 1581.21 -0.749575 3.05025 0
M  V30 16856 H 1580.4 0.613519 5.00252 0
M  V30 16857 H 1580 1.41163 3.46336 0
M  V30 16858 H 1582.3 1.37275 6.63447 0
M  V30 16859 H 1583.24 2.88756 6.46549 0
M  V30 16860 H 1583.65 1.47321 5.44937 0
M  V30 16861 N 1583.05 -1.27244 0.929878 0
M  V30 16862 C 1584.32 -1.89369 0.489774 0
M  V30 16863 C 1584.7 -1.84142 -1.03222 0
M  V30 16864 O 1584.05 -1.2881 -1.88733 0
M  V30 16865 C 1584.26 -3.33196 1.03833 0
M  V30 16866 C 1585.61 -4.101 1.10013 0
M  V30 16867 O 1586.63 -3.42221 0.988106 0
M  V30 16868 O 1585.49 -5.31468 1.27296 0
M  V30 16869 H 1582.59 -0.811789 0.157882 0
M  V30 16870 H 1585.13 -1.35496 1.02171 0
M  V30 16871 H 1583.9 -3.31304 2.08214 0
M  V30 16872 H 1583.53 -3.94592 0.488167 0
M  V30 16873 N 1584.52 -0.695628 -1.41417 0
M  V30 16874 C 1585.47 -0.0303383 -2.3078 0
M  V30 16875 C 1586.44 0.771218 -1.4711 0
M  V30 16876 O 1587.63 0.739239 -1.75897 0
M  V30 16877 C 1584.77 0.900034 -3.33157 0
M  V30 16878 C 1583.88 0.0900862 -4.31906 0
M  V30 16879 C 1583.01 1.01811 -5.21352 0
M  V30 16880 C 1582.05 0.201068 -6.1177 0
M  V30 16881 N 1581.19 1.0829 -6.93699 0
M  V30 16882 H 1586.03 -0.798148 -2.87113 0
M  V30 16883 H 1583.57 -0.405311 -1.41406 0
M  V30 16884 H 1585.52 1.45349 -3.91062 0
M  V30 16885 H 1584.15 1.63424 -2.78375 0
M  V30 16886 H 1583.21 -0.58029 -3.75948 0
M  V30 16887 H 1584.52 -0.543336 -4.95832 0
M  V30 16888 H 1583.67 1.64079 -5.84092 0
M  V30 16889 H 1582.41 1.68538 -4.57653 0
M  V30 16890 H 1581.42 -0.434686 -5.48079 0
M  V30 16891 H 1582.64 -0.462416 -6.77524 0
M  V30 16892 H 1580.59 1.73619 -6.32608 0
M  V30 16893 H 1580.5 0.505046 -7.54311 0
M  V30 16894 H 1581.77 1.69239 -7.60906 0
M  V30 16895 N 1586 1.51322 -0.440383 0
M  V30 16896 C 1586.95 2.2941 0.383883 0
M  V30 16897 C 1587.94 1.35388 1.01816 0
M  V30 16898 O 1589.15 1.52716 0.952775 0
M  V30 16899 H 1585.52 0.738354 0.142611 0
M  V30 16900 H 1587.5 2.96933 -0.295532 0
M  V30 16901 C 1586.24 3.15055 1.47091 0
M  V30 16902 H 1585.57 3.87292 0.992214 0
M  V30 16903 H 1587.01 3.72744 2.02084 0
M  V30 16904 C 1585.47 2.30628 2.45586 0
M  V30 16905 O 1586 1.96801 3.50189 0
M  V30 16906 N 1584.2 1.93792 2.16548 0
M  V30 16907 H 1583.75 2.215 1.31512 0
M  V30 16908 H 1583.71 1.37601 2.82689 0
M  V30 16909 N 1587.48 0.171848 1.5666 0
M  V30 16910 C 1588.44 -0.744316 2.16778 0
M  V30 16911 C 1589.44 -1.15769 1.11598 0
M  V30 16912 O 1590.63 -1.07456 1.37109 0
M  V30 16913 C 1587.76 -2.01319 2.75106 0
M  V30 16914 H 1588.96 -0.220952 2.99085 0
M  V30 16915 H 1586.51 -0.0777149 1.56107 0
M  V30 16916 H 1587.25 -2.57963 1.96534 0
M  V30 16917 H 1587.03 -1.72575 3.5208 0
M  V30 16918 H 1588.52 -2.667 3.21342 0
M  V30 16919 N 1588.96 -1.5727 -0.101874 0
M  V30 16920 C 1590.19 -1.89943 -0.820329 0
M  V30 16921 C 1590.6 -0.764867 -1.72613 0
M  V30 16922 O 1589.96 0.263499 -1.80588 0
M  V30 16923 C 1590.01 -3.2219 -1.63939 0
M  V30 16924 O 1589.73 -4.31279 -0.770039 0
M  V30 16925 C 1591.23 -3.6868 -2.46151 0
M  V30 16926 H 1588.45 -0.628532 -0.234922 0
M  V30 16927 H 1590.99 -2.04339 -0.0811362 0
M  V30 16928 H 1589.15 -3.09411 -2.33117 0
M  V30 16929 H 1589.56 -5.07182 -1.33665 0
M  V30 16930 H 1591.04 -4.63928 -2.99124 0
M  V30 16931 H 1591.51 -2.96183 -3.24303 0
M  V30 16932 H 1592.12 -3.84303 -1.82185 0
M  V30 16933 N 1590.44 0.372521 -1.53134 0
M  V30 16934 C 1591.4 1.43875 -1.78417 0
M  V30 16935 C 1592.4 1.46879 -0.654455 0
M  V30 16936 O 1593.59 1.47761 -0.922619 0
M  V30 16937 C 1590.72 2.83046 -1.89994 0
M  V30 16938 H 1591.91 1.22733 -2.73636 0
M  V30 16939 H 1589.47 0.605247 -1.44106 0
M  V30 16940 H 1590.2 3.09511 -0.968179 0
M  V30 16941 H 1589.99 2.82265 -2.72156 0
M  V30 16942 H 1591.48 3.60273 -2.11171 0
M  V30 16943 N 1591.91 1.44376 0.631925 0
M  V30 16944 C 1592.84 1.54005 1.75512 0
M  V30 16945 C 1593.82 0.393126 1.65495 0
M  V30 16946 O 1595.01 0.613143 1.84267 0
M  V30 16947 C 1592.14 1.48313 3.14039 0
M  V30 16948 C 1591.09 2.61474 3.38844 0
M  V30 16949 C 1590.42 2.40834 4.77392 0
M  V30 16950 C 1591.72 4.03627 3.31485 0
M  V30 16951 H 1593.41 2.48019 1.6771 0
M  V30 16952 H 1590.96 1.19368 0.80543 0
M  V30 16953 H 1592.91 1.5365 3.9239 0
M  V30 16954 H 1591.64 0.508152 3.22623 0
M  V30 16955 H 1590.3 2.55525 2.62874 0
M  V30 16956 H 1589.94 1.4153 4.82678 0
M  V30 16957 H 1589.64 3.16703 4.94947 0
M  V30 16958 H 1591.17 2.47988 5.57974 0
M  V30 16959 H 1592.58 4.1095 3.99741 0
M  V30 16960 H 1590.98 4.79694 3.60574 0
M  V30 16961 H 1592.05 4.27255 2.29307 0
M  V30 16962 N 1593.39 -0.872258 1.31261 0
M  V30 16963 C 1594.81 -1.15763 1.09868 0
M  V30 16964 C 1595.01 -2.01065 -0.132331 0
M  V30 16965 O 1594.06 -2.38735 -0.822317 0
M  V30 16966 C 1595.38 -1.85199 2.36901 0
M  V30 16967 C 1596.92 -1.9791 2.42489 0
M  V30 16968 C 1597.4 -2.70759 3.69396 0
M  V30 16969 N 1598.89 -2.78296 3.70278 0
M  V30 16970 C 1599.63 -3.3527 4.65168 0
M  V30 16971 N 1599.12 -3.93193 5.70413 0
M  V30 16972 N 1600.91 -3.33206 4.52692 0
M  V30 16973 H 1593.07 -0.303784 2.10216 0
M  V30 16974 H 1595.33 -0.197172 0.927269 0
M  V30 16975 H 1595.03 -1.29968 3.26804 0
M  V30 16976 H 1594.91 -2.85493 2.46523 0
M  V30 16977 H 1597.3 -2.52305 1.53056 0
M  V30 16978 H 1597.38 -0.966644 2.36833 0
M  V30 16979 H 1597.02 -2.17031 4.59195 0
M  V30 16980 H 1596.95 -3.72407 3.72318 0
M  V30 16981 H 1599.44 -2.37185 2.94197 0
M  V30 16982 H 1599.75 -4.34771 6.38901 0
M  V30 16983 H 1598.1 -3.91575 5.7419 0
M  V30 16984 H 1601.29 -2.87191 3.69647 0
M  V30 16985 H 1601.46 -3.7731 5.26822 0
M  V30 16986 N 1594.87 -1.14184 -1.08627 0
M  V30 16987 C 1595.8 -0.849455 -2.17501 0
M  V30 16988 C 1596.78 0.194617 -1.68983 0
M  V30 16989 O 1597.97 0.0517757 -1.94131 0
M  V30 16990 C 1595.1 -0.323685 -3.45788 0
M  V30 16991 C 1594.05 -1.30294 -4.07685 0
M  V30 16992 C 1593.38 -0.636575 -5.30897 0
M  V30 16993 C 1594.68 -2.66441 -4.49229 0
M  V30 16994 H 1596.37 -1.75987 -2.42217 0
M  V30 16995 H 1593.92 -0.847595 -1.16412 0
M  V30 16996 H 1595.87 -0.106754 -4.21265 0
M  V30 16997 H 1594.59 0.62215 -3.20619 0
M  V30 16998 H 1593.25 -1.50601 -3.34238 0
M  V30 16999 H 1592.9 0.314995 -5.02013 0
M  V30 17000 H 1592.6 -1.28998 -5.73266 0
M  V30 17001 H 1594.12 -0.429117 -6.0909 0
M  V30 17002 H 1595.54 -2.50055 -5.15893 0
M  V30 17003 H 1593.93 -3.28033 -5.02508 0
M  V30 17004 H 1595 -3.23486 -3.61226 0
M  V30 17005 N 1596.35 1.26749 -0.936613 0
M  V30 17006 C 1597.3 2.28528 -0.433328 0
M  V30 17007 C 1598.29 1.62248 0.487012 0
M  V30 17008 O 1599.5 1.76245 0.36573 0
M  V30 17009 H 1595.87 0.742106 -0.121583 0
M  V30 17010 H 1597.84 2.68382 -1.30436 0
M  V30 17011 C 1596.59 3.46485 0.290366 0
M  V30 17012 H 1595.91 3.97706 -0.408649 0
M  V30 17013 H 1597.35 4.19635 0.606807 0
M  V30 17014 C 1595.81 3.01339 1.50654 0
M  V30 17015 O 1596.34 3.05781 2.60501 0
M  V30 17016 N 1594.55 2.56732 1.3615 0
M  V30 17017 H 1594.1 2.53317 0.467788 0
M  V30 17018 H 1594.05 2.26888 2.17645 0
M  V30 17019 N 1597.83 0.703118 1.41046 0
M  V30 17020 C 1598.78 0.0192623 2.27992 0
M  V30 17021 C 1599.76 -0.745216 1.42602 0
M  V30 17022 O 1600.95 -0.619468 1.65806 0
M  V30 17023 C 1598.08 -0.910896 3.30995 0
M  V30 17024 C 1597.17 -0.142265 4.23861 0
M  V30 17025 N 1597.56 0.867928 4.98298 0
M  V30 17026 C 1595.86 -0.376651 4.44407 0
M  V30 17027 C 1596.56 1.32869 5.66322 0
M  V30 17028 N 1595.53 0.653176 5.39662 0
M  V30 17029 H 1599.34 0.793687 2.8298 0
M  V30 17030 H 1596.85 0.534609 1.53348 0
M  V30 17031 H 1598.85 -1.41603 3.92115 0
M  V30 17032 H 1597.51 -1.68483 2.77567 0
M  V30 17033 H 1598.52 1.2484 5.02628 0
M  V30 17034 H 1595.19 -1.12789 4.01976 0
M  V30 17035 H 1596.58 2.16738 6.35983 0
M  V30 17036 N 1599.3 -1.51086 0.448402 0
M  V30 17037 C 1600.24 -2.24615 -0.402921 0
M  V30 17038 C 1601.22 -1.26994 -1.01544 0
M  V30 17039 O 1602.4 -1.56159 -1.05577 0
M  V30 17040 C 1599.53 -3.00504 -1.56253 0
M  V30 17041 C 1598.57 -4.1287 -1.06961 0
M  V30 17042 S 1599.41 -5.355 -0.00265176 0
M  V30 17043 C 1600.56 -6.14931 -1.16667 0
M  V30 17044 H 1600.79 -2.96475 0.221298 0
M  V30 17045 H 1598.33 -1.52631 0.23303 0
M  V30 17046 H 1600.29 -3.44824 -2.22726 0
M  V30 17047 H 1598.95 -2.28212 -2.15819 0
M  V30 17048 H 1598.14 -4.65288 -1.93708 0
M  V30 17049 H 1597.74 -3.70869 -0.48296 0
M  V30 17050 H 1600.03 -6.44688 -2.08286 0
M  V30 17051 H 1600.98 -7.04806 -0.682223 0
M  V30 17052 H 1601.38 -5.46601 -1.41024 0
M  V30 17053 N 1600.78 -0.180154 -1.56567 0
M  V30 17054 C 1602.01 0.471692 -2.01965 0
M  V30 17055 C 1602.43 1.5542 -1.05954 0
M  V30 17056 O 1601.79 1.81255 -0.0405307 0
M  V30 17057 C 1601.84 1.01883 -3.45908 0
M  V30 17058 O 1600.94 2.13245 -3.52988 0
M  V30 17059 H 1600.28 0.11197 -0.654491 0
M  V30 17060 H 1602.81 -0.286642 -2.02582 0
M  V30 17061 H 1602.82 1.33922 -3.85395 0
M  V30 17062 H 1601.5 0.226299 -4.15284 0
M  V30 17063 H 1600.08 1.82184 -3.25367 0
M  V30 17064 N 1602.26 1.57322 0.0935319 0
M  V30 17065 C 1603.21 2.03184 1.13222 0
M  V30 17066 C 1604.2 0.933184 1.41379 0
M  V30 17067 O 1605.41 1.11836 1.41042 0
M  V30 17068 H 1601.78 0.647541 0.382354 0
M  V30 17069 H 1603.75 2.89606 0.719105 0
M  V30 17070 C 1602.5 2.47336 2.44378 0
M  V30 17071 H 1601.83 3.31456 2.23556 0
M  V30 17072 H 1603.27 2.83199 3.15554 0
M  V30 17073 C 1601.73 1.34728 3.08788 0
M  V30 17074 O 1602.26 0.677285 3.95949 0
M  V30 17075 N 1600.46 1.09787 2.69063 0
M  V30 17076 H 1600.01 1.64451 1.98277 0
M  V30 17077 H 1599.97 0.346436 3.12485 0
M  V30 17078 N 1603.74 -0.364395 1.53329 0
M  V30 17079 C 1604.69 -1.44645 1.79851 0
M  V30 17080 C 1605.66 -1.53151 0.642951 0
M  V30 17081 O 1606.84 -1.6902 0.885252 0
M  V30 17082 C 1603.98 -2.81575 1.99523 0
M  V30 17083 C 1603.09 -2.82026 3.27239 0
M  V30 17084 C 1602.23 -4.1054 3.37091 0
M  V30 17085 C 1601.27 -4.05138 4.58835 0
M  V30 17086 N 1600.4 -5.25303 4.65834 0
M  V30 17087 H 1605.24 -1.21329 2.72182 0
M  V30 17088 H 1602.78 -0.588143 1.34831 0
M  V30 17089 H 1604.74 -3.61124 2.08915 0
M  V30 17090 H 1603.37 -3.03288 1.10527 0
M  V30 17091 H 1602.42 -1.94704 3.26794 0
M  V30 17092 H 1603.73 -2.73907 4.16865 0
M  V30 17093 H 1602.89 -4.98504 3.45801 0
M  V30 17094 H 1601.63 -4.21413 2.45483 0
M  V30 17095 H 1600.63 -3.1556 4.50224 0
M  V30 17096 H 1601.86 -3.95866 5.51785 0
M  V30 17097 H 1599.8 -5.36759 3.77128 0
M  V30 17098 H 1599.72 -5.19358 5.49367 0
M  V30 17099 H 1600.99 -6.15096 4.78829 0
M  V30 17100 N 1605.22 -1.44709 -0.62426 0
M  V30 17101 C 1606.44 -1.51348 -1.41072 0
M  V30 17102 C 1606.86 -0.140576 -1.88276 0
M  V30 17103 O 1606.22 0.854821 -1.61242 0
M  V30 17104 C 1606.27 -2.48396 -2.62643 0
M  V30 17105 O 1605.99 -3.8035 -2.17406 0
M  V30 17106 C 1607.49 -2.64568 -3.55694 0
M  V30 17107 H 1604.71 -0.513092 -0.432409 0
M  V30 17108 H 1607.25 -1.89739 -0.762841 0
M  V30 17109 H 1605.41 -2.13122 -3.23508 0
M  V30 17110 H 1605.82 -4.32809 -2.96272 0
M  V30 17111 H 1607.3 -3.36486 -4.37585 0
M  V30 17112 H 1607.77 -1.70031 -4.04952 0
M  V30 17113 H 1608.38 -3.00771 -3.00694 0
M  V30 17114 N 1606.69 0.865285 -1.31722 0
M  V30 17115 C 1607.92 1.65137 -1.24649 0
M  V30 17116 C 1608.34 1.87868 0.187391 0
M  V30 17117 O 1607.69 1.44015 1.12098 0
M  V30 17118 C 1607.75 3.0167 -1.99193 0
M  V30 17119 O 1607.47 2.79951 -3.36985 0
M  V30 17120 C 1608.97 3.96115 -1.99017 0
M  V30 17121 H 1606.19 0.514683 -0.430514 0
M  V30 17122 H 1608.73 1.07971 -1.73674 0
M  V30 17123 H 1606.89 3.55511 -1.53918 0
M  V30 17124 H 1607.3 3.66706 -3.75002 0
M  V30 17125 H 1608.77 4.89217 -2.55677 0
M  V30 17126 H 1609.25 4.28268 -0.973815 0
M  V30 17127 H 1609.86 3.4821 -2.44192 0
M  V30 17128 N 1608.17 1.14759 1.0802 0
M  V30 17129 C 1609.4 0.942316 1.84757 0
M  V30 17130 C 1609.82 -0.504188 1.81217 0
M  V30 17131 O 1609.18 -1.35891 1.20014 0
M  V30 17132 C 1609.23 1.45271 3.30043 0
M  V30 17133 O 1608.33 0.647414 4.07287 0
M  V30 17134 H 1607.67 0.336613 0.572353 0
M  V30 17135 H 1610.2 1.52578 1.36313 0
M  V30 17136 H 1610.21 1.4626 3.80883 0
M  V30 17137 H 1608.89 2.50583 3.31935 0
M  V30 17138 H 1607.47 0.706595 3.66144 0
M  V30 17139 N 1609.65 -1.26251 0.943322 0
M  V30 17140 C 1610.88 -1.98278 0.608341 0
M  V30 17141 C 1611.3 -1.69756 -0.810208 0
M  V30 17142 O 1610.66 -0.946846 -1.54611 0
M  V30 17143 C 1610.71 -3.50205 0.859591 0
M  V30 17144 O 1609.81 -4.12345 -0.0672371 0
M  V30 17145 H 1609.15 -0.621973 0.232477 0
M  V30 17146 H 1611.68 -1.60662 1.26684 0
M  V30 17147 H 1611.69 -4.00449 0.781341 0
M  V30 17148 H 1610.37 -3.70294 1.89354 0
M  V30 17149 H 1608.94 -3.72848 0.0622543 0
M  V30 17150 N 1611.13 -0.710588 -1.40671 0
M  V30 17151 C 1612.08 -0.0548139 -2.30735 0
M  V30 17152 C 1613.05 0.755572 -1.4792 0
M  V30 17153 O 1614.23 0.720541 -1.76672 0
M  V30 17154 C 1611.37 0.864648 -3.34093 0
M  V30 17155 C 1610.48 0.0442717 -4.31977 0
M  V30 17156 C 1609.62 0.962752 -5.22403 0
M  V30 17157 C 1608.66 0.13617 -6.11949 0
M  V30 17158 N 1607.8 1.00926 -6.94808 0
M  V30 17159 H 1612.64 -0.828555 -2.8625 0
M  V30 17160 H 1610.17 -0.420286 -1.40968 0
M  V30 17161 H 1612.13 1.41193 -3.92582 0
M  V30 17162 H 1610.76 1.60462 -2.80092 0
M  V30 17163 H 1609.81 -0.620132 -3.75311 0
M  V30 17164 H 1611.12 -0.595895 -4.95228 0
M  V30 17165 H 1610.28 1.57874 -5.85799 0
M  V30 17166 H 1609.02 1.63675 -4.59415 0
M  V30 17167 H 1608.02 -0.492793 -5.47587 0
M  V30 17168 H 1609.25 -0.534251 -6.76995 0
M  V30 17169 H 1607.19 1.669 -6.34413 0
M  V30 17170 H 1607.11 0.425013 -7.54804 0
M  V30 17171 H 1608.38 1.61159 -7.62659 0
M  V30 17172 N 1612.61 1.50847 -0.456408 0
M  V30 17173 C 1613.56 2.29805 0.359529 0
M  V30 17174 C 1614.55 1.3646 1.00374 0
M  V30 17175 O 1615.76 1.53718 0.936524 0
M  V30 17176 H 1612.13 0.739825 0.134772 0
M  V30 17177 H 1614.1 2.96603 -0.327009 0
M  V30 17178 C 1612.85 3.16597 1.43741 0
M  V30 17179 H 1612.17 3.88323 0.95108 0
M  V30 17180 H 1613.61 3.74866 1.98119 0
M  V30 17181 C 1612.07 2.3322 2.43126 0
M  V30 17182 O 1612.6 2.00504 3.48082 0
M  V30 17183 N 1610.81 1.96078 2.1448 0
M  V30 17184 H 1610.36 2.22883 1.29155 0
M  V30 17185 H 1610.31 1.40592 2.81214 0
M  V30 17186 N 1614.09 0.188454 1.56469 0
M  V30 17187 C 1615.02 -0.774203 2.14666 0
M  V30 17188 C 1616 -1.21419 1.08149 0
M  V30 17189 O 1617.18 -1.30289 1.36224 0
M  V30 17190 C 1614.31 -2.04474 2.70015 0
M  V30 17191 C 1613.35 -1.74741 3.8906 0
M  V30 17192 S 1614.19 -0.901409 5.27859 0
M  V30 17193 C 1615.34 -2.18223 5.86626 0
M  V30 17194 H 1615.58 -0.279452 2.95984 0
M  V30 17195 H 1613.11 -0.0264561 1.54377 0
M  V30 17196 H 1615.07 -2.77442 3.0255 0
M  V30 17197 H 1613.73 -2.51061 1.88751 0
M  V30 17198 H 1612.92 -2.69055 4.26175 0
M  V30 17199 H 1612.52 -1.09858 3.57501 0
M  V30 17200 H 1614.81 -3.13538 6.00583 0
M  V30 17201 H 1615.76 -1.85551 6.83357 0
M  V30 17202 H 1616.17 -2.30766 5.15177 0
M  V30 17203 N 1615.56 -1.5737 -0.0851874 0
M  V30 17204 C 1616.47 -2.06097 -1.12078 0
M  V30 17205 C 1617.49 -0.987809 -1.43242 0
M  V30 17206 O 1618.67 -1.30163 -1.53686 0
M  V30 17207 C 1615.73 -2.48397 -2.41867 0
M  V30 17208 C 1614.79 -3.69951 -2.17795 0
M  V30 17209 C 1614.02 -4.10225 -3.41396 0
M  V30 17210 O 1614.25 -3.50495 -4.5001 0
M  V30 17211 O 1613.18 -5.03111 -3.30399 0
M  V30 17212 H 1617.01 -2.94625 -0.736877 0
M  V30 17213 H 1614.59 -1.4639 -0.298392 0
M  V30 17214 H 1616.47 -2.76187 -3.18274 0
M  V30 17215 H 1615.15 -1.63003 -2.79664 0
M  V30 17216 H 1614.06 -3.47263 -1.39136 0
M  V30 17217 H 1615.39 -4.56156 -1.84886 0
M  V30 17218 N 1617.04 0.356258 -1.53521 0
M  V30 17219 C 1617.97 1.45965 -1.75413 0
M  V30 17220 C 1618.95 1.51015 -0.602774 0
M  V30 17221 O 1620.14 1.68925 -0.836459 0
M  V30 17222 C 1617.26 2.84276 -1.84132 0
M  V30 17223 C 1616.31 2.96909 -3.06182 0
M  V30 17224 S 1617.14 2.64695 -4.65507 0
M  V30 17225 C 1618.3 4.05138 -4.77089 0
M  V30 17226 H 1618.53 1.27176 -2.68726 0
M  V30 17227 H 1616.06 0.551163 -1.44227 0
M  V30 17228 H 1618.02 3.63965 -1.89842 0
M  V30 17229 H 1616.68 3.00369 -0.918542 0
M  V30 17230 H 1615.88 3.98226 -3.08921 0
M  V30 17231 H 1615.48 2.25154 -2.98633 0
M  V30 17232 H 1617.77 4.99502 -4.57717 0
M  V30 17233 H 1618.71 4.074 -5.79164 0
M  V30 17234 H 1619.12 3.92572 -4.05644 0
M  V30 17235 N 1618.52 1.45038 0.616577 0
M  V30 17236 C 1619.77 1.48805 1.37786 0
M  V30 17237 C 1620.1 0.125811 1.93792 0
M  V30 17238 O 1619.37 -0.858544 1.74526 0
M  V30 17239 C 1619.66 2.56008 2.53242 0
M  V30 17240 C 1619.51 4.01643 2.02491 0
M  V30 17241 C 1620.83 2.59578 3.55398 0
M  V30 17242 H 1617.95 0.541776 0.499647 0
M  V30 17243 H 1620.59 1.76799 0.695859 0
M  V30 17244 H 1618.74 2.32269 3.11422 0
M  V30 17245 H 1620.41 4.36564 1.4903 0
M  V30 17246 H 1618.65 4.12728 1.33559 0
M  V30 17247 H 1619.33 4.72326 2.85679 0
M  V30 17248 H 1621.8 2.80826 3.07044 0
M  V30 17249 H 1620.68 3.36466 4.33684 0
M  V30 17250 H 1620.94 1.64325 4.10426 0
M  V30 17251 N 1620 -0.858287 1.32179 0
M  V30 17252 C 1620.93 -1.97304 1.16636 0
M  V30 17253 C 1621.94 -1.62478 0.102311 0
M  V30 17254 O 1623.13 -1.75016 0.350926 0
M  V30 17255 C 1620.23 -3.30215 0.762337 0
M  V30 17256 C 1619.4 -3.93305 1.9139 0
M  V30 17257 C 1618.46 -5.04545 1.49402 0
M  V30 17258 O 1617.49 -5.24735 2.20548 0
M  V30 17259 N 1618.69 -5.79202 0.387984 0
M  V30 17260 H 1621.46 -2.11179 2.12658 0
M  V30 17261 H 1619.02 -1.03294 1.24668 0
M  V30 17262 H 1621.01 -4.02032 0.463922 0
M  V30 17263 H 1619.58 -3.12418 -0.10662 0
M  V30 17264 H 1618.8 -3.1432 2.37901 0
M  V30 17265 H 1620.09 -4.32192 2.68492 0
M  V30 17266 H 1619.49 -5.65331 -0.204252 0
M  V30 17267 H 1618.04 -6.51629 0.149158 0
M  V30 17268 N 1621.48 -1.1533 -1.07409 0
M  V30 17269 C 1622.41 -0.807289 -2.14512 0
M  V30 17270 C 1623.42 0.18043 -1.61797 0
M  V30 17271 O 1624.61 -0.042733 -1.78449 0
M  V30 17272 C 1621.71 -0.179338 -3.38425 0
M  V30 17273 C 1620.88 -1.20433 -4.20493 0
M  V30 17274 C 1619.94 -0.598268 -5.22788 0
M  V30 17275 O 1618.97 -1.26405 -5.54987 0
M  V30 17276 N 1620.17 0.620283 -5.77177 0
M  V30 17277 H 1622.93 -1.729 -2.44797 0
M  V30 17278 H 1620.5 -1.0491 -1.23311 0
M  V30 17279 H 1622.49 0.238867 -4.03994 0
M  V30 17280 H 1621.06 0.645706 -3.05858 0
M  V30 17281 H 1620.28 -1.79912 -3.5075 0
M  V30 17282 H 1621.57 -1.89642 -4.72137 0
M  V30 17283 H 1620.96 1.17958 -5.53265 0
M  V30 17284 H 1619.52 0.980853 -6.44378 0
M  V30 17285 N 1622.95 1.25748 -0.950004 0
M  V30 17286 C 1623.9 2.26061 -0.46531 0
M  V30 17287 C 1624.87 1.59021 0.479742 0
M  V30 17288 O 1626.06 1.86687 0.394011 0
M  V30 17289 C 1623.2 3.44156 0.255146 0
M  V30 17290 C 1622.31 4.25846 -0.726604 0
M  V30 17291 C 1621.44 5.31198 0.0159429 0
M  V30 17292 C 1620.48 6.04572 -0.957046 0
M  V30 17293 N 1619.62 7.0167 -0.245676 0
M  V30 17294 H 1624.46 2.66891 -1.32563 0
M  V30 17295 H 1622 1.31216 -0.664882 0
M  V30 17296 H 1623.95 4.11465 0.689381 0
M  V30 17297 H 1622.58 3.04213 1.07954 0
M  V30 17298 H 1621.64 3.58242 -1.27933 0
M  V30 17299 H 1622.95 4.76669 -1.46928 0
M  V30 17300 H 1622.1 6.04561 0.509037 0
M  V30 17301 H 1620.84 4.81235 0.791442 0
M  V30 17302 H 1619.85 5.30028 -1.46118 0
M  V30 17303 H 1621.07 6.56624 -1.7327 0
M  V30 17304 H 1619.02 6.54005 0.51117 0
M  V30 17305 H 1618.93 7.50289 -0.927527 0
M  V30 17306 H 1620.2 7.79172 0.226034 0
M  V30 17307 N 1624.43 0.718038 1.40292 0
M  V30 17308 C 1625.38 0.0670495 2.30703 0
M  V30 17309 C 1626.35 -0.747716 1.48319 0
M  V30 17310 O 1627.53 -0.711161 1.77051 0
M  V30 17311 C 1624.67 -0.846918 3.34546 0
M  V30 17312 C 1623.79 -0.0213622 4.31995 0
M  V30 17313 C 1622.92 -0.935035 5.22906 0
M  V30 17314 C 1621.96 -0.103715 6.12012 0
M  V30 17315 N 1621.1 -0.972397 6.95334 0
M  V30 17316 H 1625.94 0.843724 2.85806 0
M  V30 17317 H 1623.47 0.427756 1.40743 0
M  V30 17318 H 1625.43 -1.39109 3.93325 0
M  V30 17319 H 1624.06 -1.58975 2.80939 0
M  V30 17320 H 1623.11 0.640026 3.74977 0
M  V30 17321 H 1624.43 0.62215 4.94905 0
M  V30 17322 H 1623.58 -1.54766 5.86628 0
M  V30 17323 H 1622.32 -1.61236 4.60276 0
M  V30 17324 H 1621.32 0.521826 5.47318 0
M  V30 17325 H 1622.55 0.570146 6.76702 0
M  V30 17326 H 1620.5 -1.63533 6.3529 0
M  V30 17327 H 1620.41 -0.384977 7.55019 0
M  V30 17328 H 1621.68 -1.57112 7.63503 0
M  V30 17329 N 1625.91 -1.50602 0.464402 0
M  V30 17330 C 1626.82 -2.32142 -0.338721 0
M  V30 17331 C 1627.84 -1.4223 -1.00233 0
M  V30 17332 O 1629.01 -1.75288 -0.99177 0
M  V30 17333 C 1626.08 -3.16725 -1.41019 0
M  V30 17334 C 1625.14 -4.22449 -0.76388 0
M  V30 17335 C 1624.37 -5.0299 -1.78429 0
M  V30 17336 O 1624.59 -4.84516 -3.00999 0
M  V30 17337 O 1623.53 -5.86338 -1.35982 0
M  V30 17338 H 1627.35 -3.01927 0.327695 0
M  V30 17339 H 1624.94 -1.47675 0.226379 0
M  V30 17340 H 1626.82 -3.69228 -2.03097 0
M  V30 17341 H 1625.5 -2.49675 -2.06019 0
M  V30 17342 H 1624.4 -3.73955 -0.104318 0
M  V30 17343 H 1625.74 -4.9195 -0.156929 0
M  V30 17344 N 1627.39 -0.19675 -1.56367 0
M  V30 17345 C 1628.64 0.440711 -1.97236 0
M  V30 17346 C 1628.96 1.62037 -1.08485 0
M  V30 17347 O 1628.23 1.95274 -0.156483 0
M  V30 17348 H 1626.81 0.16581 -0.728365 0
M  V30 17349 H 1629.47 -0.283867 -1.92822 0
M  V30 17350 H 1628.57 0.783731 -3.02099 0
M  V30 17351 N 1628.87 1.57413 0.0768405 0
M  V30 17352 C 1630.28 1.75776 0.629262 0
M  V30 17353 C 1630.63 0.821502 1.78173 0
M  V30 17354 O 1629.75 0.00437198 2.164 0
M  V30 17355 C 1630.35 3.18747 1.14828 0
M  V30 17356 C 1628.91 3.38472 1.64661 0
M  V30 17357 C 1628.05 2.71506 0.563884 0
M  V30 17358 H 1631.01 1.57996 -0.149312 0
M  V30 17359 H 1631.03 3.22628 2.01722 0
M  V30 17360 H 1630.54 3.86866 0.309282 0
M  V30 17361 H 1628.64 2.75461 2.50903 0
M  V30 17362 H 1628.75 4.4689 1.72703 0
M  V30 17363 H 1627.12 2.33917 1.00772 0
M  V30 17364 H 1627.9 3.42277 -0.264847 0
M  V30 17365 N 1630.34 -0.348112 1.53707 0
M  V30 17366 C 1631.59 -1.08626 1.69951 0
M  V30 17367 C 1631.91 -1.89944 0.466992 0
M  V30 17368 O 1633.11 -2.66661 0.51029 0
M  V30 17369 C 1631.57 -1.98052 3.00505 0
M  V30 17370 C 1631.18 -1.21963 4.31079 0
M  V30 17371 C 1632.92 -2.71752 3.26115 0
M  V30 17372 C 1630.83 -2.10392 5.52711 0
M  V30 17373 H 1629.76 -0.409241 0.633275 0
M  V30 17374 H 1632.41 -0.346051 1.80207 0
M  V30 17375 H 1630.79 -2.75874 2.84094 0
M  V30 17376 H 1631.96 -0.490831 4.58178 0
M  V30 17377 H 1630.28 -0.600511 4.12047 0
M  V30 17378 H 1632.88 -3.38174 4.14177 0
M  V30 17379 H 1633.22 -3.38072 2.42926 0
M  V30 17380 H 1633.75 -2.01005 3.43281 0
M  V30 17381 H 1630.49 -1.48622 6.38429 0
M  V30 17382 H 1630.01 -2.81074 5.29866 0
M  V30 17383 H 1631.69 -2.69551 5.88176 0
M  V30 17384 N 1631.82 -1.45363 -0.608876 0
M  V30 17385 C 1633.23 -1.43794 -1.19081 0
M  V30 17386 C 1633.58 -0.164874 -1.95506 0
M  V30 17387 O 1632.71 0.733623 -2.03585 0
M  V30 17388 C 1633.3 -2.60506 -2.16615 0
M  V30 17389 C 1631.86 -2.62061 -2.70187 0
M  V30 17390 C 1631.01 -2.36018 -1.4557 0
M  V30 17391 H 1633.96 -1.53622 -0.39826 0
M  V30 17392 H 1633.98 -2.34531 -2.99625 0
M  V30 17393 H 1633.49 -3.53147 -1.60963 0
M  V30 17394 H 1631.6 -1.73423 -3.2978 0
M  V30 17395 H 1631.71 -3.61242 -3.14708 0
M  V30 17396 H 1630.07 -1.8555 -1.74481 0
M  V30 17397 H 1630.86 -3.30802 -0.917884 0
M  V30 17398 N 1633.3 0.851265 -1.32632 0
M  V30 17399 C 1634.71 1.4217 -1.21015 0
M  V30 17400 C 1635.06 1.95409 0.175972 0
M  V30 17401 O 1634.19 1.87816 1.07489 0
M  V30 17402 C 1634.78 2.58431 -2.19086 0
M  V30 17403 C 1633.34 3.11464 -2.11346 0
M  V30 17404 C 1632.49 1.84221 -2.07263 0
M  V30 17405 H 1635.44 0.65812 -1.44411 0
M  V30 17406 H 1635.46 3.35694 -1.79137 0
M  V30 17407 H 1634.97 2.19652 -3.1996 0
M  V30 17408 H 1633.07 3.54818 -1.13732 0
M  V30 17409 H 1633.19 3.72478 -3.01325 0
M  V30 17410 H 1631.55 2.0396 -1.52553 0
M  V30 17411 H 1632.33 1.47654 -3.09924 0
M  V30 17412 N 1634.78 1.15898 1.06796 0
M  V30 17413 C 1636.06 0.847701 1.76276 0
M  V30 17414 C 1636.44 -0.655537 2.00664 0
M  V30 17415 O 1635.78 -1.60171 1.62964 0
M  V30 17416 C 1635.99 1.66475 3.06736 0
M  V30 17417 C 1637.34 1.87452 3.80982 0
M  V30 17418 O 1638.37 1.63298 3.16563 0
M  V30 17419 O 1637.22 2.27942 4.96694 0
M  V30 17420 H 1634.32 0.312308 0.765763 0
M  V30 17421 H 1636.86 1.26507 1.13111 0
M  V30 17422 H 1635.64 2.68508 2.84638 0
M  V30 17423 H 1635.26 1.24409 3.77635 0
M  V30 17424 N 1636.26 -1.25243 0.956659 0
M  V30 17425 C 1637.22 -2.24054 0.482949 0
M  V30 17426 C 1638.22 -1.55367 -0.41447 0
M  V30 17427 O 1639.41 -1.72912 -0.211475 0
M  V30 17428 C 1636.54 -3.3956 -0.301975 0
M  V30 17429 H 1637.73 -2.67476 1.35634 0
M  V30 17430 H 1635.29 -1.37665 0.740138 0
M  V30 17431 H 1636.02 -3.01561 -1.19294 0
M  V30 17432 H 1635.81 -3.90607 0.341876 0
M  V30 17433 H 1637.3 -4.1293 -0.622807 0
M  V30 17434 N 1637.73 -0.725468 -1.3991 0
M  V30 17435 C 1638.67 -0.0397832 -2.29165 0
M  V30 17436 C 1639.68 0.713458 -1.46334 0
M  V30 17437 O 1640.87 0.559199 -1.69515 0
M  V30 17438 C 1637.97 0.967929 -3.24784 0
M  V30 17439 C 1637.14 0.278181 -4.36515 0
M  V30 17440 C 1636.2 1.19266 -5.12506 0
M  V30 17441 O 1635.23 0.673726 -5.65199 0
M  V30 17442 N 1636.43 2.5231 -5.228 0
M  V30 17443 H 1639.19 -0.806204 -2.88653 0
M  V30 17444 H 1636.75 -0.573904 -1.51387 0
M  V30 17445 H 1638.75 1.58209 -3.72494 0
M  V30 17446 H 1637.32 1.63563 -2.66394 0
M  V30 17447 H 1636.54 -0.516326 -3.90804 0
M  V30 17448 H 1637.82 -0.200203 -5.08406 0
M  V30 17449 H 1637.22 2.96957 -4.8149 0
M  V30 17450 H 1635.78 3.08846 -5.73984 0
M  V30 17451 N 1639.21 1.50354 -0.472382 0
M  V30 17452 C 1640.16 2.30173 0.335135 0
M  V30 17453 C 1641.15 1.37517 0.98921 0
M  V30 17454 O 1642.36 1.54703 0.920168 0
M  V30 17455 H 1638.74 0.741212 0.126918 0
M  V30 17456 H 1640.71 2.96239 -0.358449 0
M  V30 17457 C 1639.46 3.18104 1.40375 0
M  V30 17458 H 1638.78 3.8931 0.90984 0
M  V30 17459 H 1640.22 3.76947 1.94132 0
M  V30 17460 C 1638.68 2.35785 2.40639 0
M  V30 17461 O 1639.21 2.04185 3.45936 0
M  V30 17462 N 1637.41 1.98342 2.12389 0
M  V30 17463 H 1636.96 2.2424 1.26784 0
M  V30 17464 H 1636.92 1.43567 2.79707 0
M  V30 17465 N 1640.69 0.205039 1.56261 0
M  V30 17466 C 1642.1 -0.305792 1.84179 0
M  V30 17467 C 1642.45 -1.60672 1.126 0
M  V30 17468 O 1641.58 -2.12855 0.390118 0
M  V30 17469 C 1642.17 -0.561596 3.34113 0
M  V30 17470 C 1640.73 -1.01677 3.62407 0
M  V30 17471 C 1639.88 -0.0707844 2.7721 0
M  V30 17472 H 1642.83 0.428609 1.52803 0
M  V30 17473 H 1642.85 -1.40969 3.53423 0
M  V30 17474 H 1642.36 0.38541 3.86182 0
M  V30 17475 H 1640.46 -1.97771 3.1578 0
M  V30 17476 H 1640.58 -0.902607 4.70521 0
M  V30 17477 H 1638.94 -0.574529 2.48136 0
M  V30 17478 H 1639.72 0.870844 3.32071 0
M  V30 17479 N 1642.17 -1.57451 -0.0684915 0
M  V30 17480 C 1643.45 -1.78483 -0.800209 0
M  V30 17481 C 1643.83 -0.793438 -1.95621 0
M  V30 17482 O 1643.17 0.172756 -2.27846 0
M  V30 17483 C 1643.38 -3.25069 -1.27008 0
M  V30 17484 C 1644.73 -3.8899 -1.70212 0
M  V30 17485 O 1645.76 -3.2898 -1.36566 0
M  V30 17486 O 1644.62 -4.94569 -2.32515 0
M  V30 17487 H 1641.71 -0.732598 -0.383704 0
M  V30 17488 H 1644.26 -1.69631 -0.0483117 0
M  V30 17489 H 1643.03 -3.88784 -0.443067 0
M  V30 17490 H 1642.65 -3.38657 -2.08319 0
M  V30 17491 N 1643.65 0.339955 -1.5389 0
M  V30 17492 C 1644.58 1.44096 -1.76951 0
M  V30 17493 C 1645.56 1.50367 -0.618758 0
M  V30 17494 O 1646.74 1.68028 -0.854329 0
M  V30 17495 C 1643.87 2.82307 -1.87137 0
M  V30 17496 C 1642.92 2.93645 -3.09314 0
M  V30 17497 S 1643.75 2.59742 -4.68288 0
M  V30 17498 C 1644.9 4.00055 -4.81359 0
M  V30 17499 H 1645.14 1.24318 -2.7006 0
M  V30 17500 H 1642.67 0.535835 -1.44804 0
M  V30 17501 H 1644.63 3.61931 -1.93692 0
M  V30 17502 H 1643.29 2.99378 -0.950349 0
M  V30 17503 H 1642.48 3.94927 -3.13127 0
M  V30 17504 H 1642.08 2.21974 -3.01004 0
M  V30 17505 H 1644.38 4.94619 -4.62989 0
M  V30 17506 H 1645.32 4.01234 -5.83452 0
M  V30 17507 H 1645.73 3.88248 -4.09785 0
M  V30 17508 N 1645.13 1.45684 0.601159 0
M  V30 17509 C 1646.35 1.53806 1.39135 0
M  V30 17510 C 1646.78 0.173625 1.87297 0
M  V30 17511 O 1646.13 -0.842931 1.60513 0
M  V30 17512 C 1646.18 2.53201 2.56752 0
M  V30 17513 O 1645.29 2.05427 3.57594 0
M  V30 17514 H 1644.63 0.51824 0.415118 0
M  V30 17515 H 1647.16 1.91095 0.731006 0
M  V30 17516 H 1647.17 2.72215 3.03912 0
M  V30 17517 H 1645.84 3.52294 2.21047 0
M  V30 17518 H 1644.42 1.96318 3.17039 0
M  V30 17519 N 1646.6 -0.84422 1.33082 0
M  V30 17520 C 1647.85 -1.59912 1.24235 0
M  V30 17521 C 1648.18 -1.93538 -0.193223 0
M  V30 17522 O 1647.43 -1.58418 -1.14901 0
M  V30 17523 C 1647.73 -2.92225 2.05765 0
M  V30 17524 C 1647.4 -2.77985 3.55014 0
M  V30 17525 C 1646.06 -2.73809 3.95705 0
M  V30 17526 C 1648.41 -2.63171 4.49878 0
M  V30 17527 C 1645.74 -2.5271 5.29485 0
M  V30 17528 C 1648.09 -2.43607 5.83814 0
M  V30 17529 C 1646.76 -2.37829 6.23693 0
M  V30 17530 H 1646.03 -0.58516 0.454608 0
M  V30 17531 H 1648.67 -0.978493 1.64614 0
M  V30 17532 H 1646.98 -3.58465 1.58146 0
M  V30 17533 H 1648.68 -3.49678 1.96281 0
M  V30 17534 H 1645.27 -2.82065 3.22703 0
M  V30 17535 H 1649.45 -2.65435 4.19354 0
M  V30 17536 H 1644.71 -2.4668 5.59427 0
M  V30 17537 H 1648.88 -2.31126 6.56927 0
M  V30 17538 H 1646.51 -2.21241 7.27294 0
M  V30 17539 N 1648.08 -1.16463 -1.0618 0
M  V30 17540 C 1649.33 -0.946846 -1.79 0
M  V30 17541 C 1649.66 0.525259 -1.87273 0
M  V30 17542 O 1648.91 1.40584 -1.36142 0
M  V30 17543 C 1649.21 -1.52085 -3.23427 0
M  V30 17544 C 1648.88 -3.01547 -3.35232 0
M  V30 17545 C 1647.54 -3.42346 -3.38161 0
M  V30 17546 C 1649.89 -3.97543 -3.37059 0
M  V30 17547 C 1647.22 -4.77759 -3.40534 0
M  V30 17548 C 1649.57 -5.32843 -3.4097 0
M  V30 17549 C 1648.23 -5.73121 -3.42182 0
M  V30 17550 H 1647.5 -0.346475 -0.655008 0
M  V30 17551 H 1650.15 -1.45195 -1.24862 0
M  V30 17552 H 1648.46 -0.937212 -3.80426 0
M  V30 17553 H 1650.15 -1.32801 -3.78371 0
M  V30 17554 H 1646.74 -2.69017 -3.33658 0
M  V30 17555 H 1650.93 -3.67088 -3.34006 0
M  V30 17556 H 1646.18 -5.08293 -3.39777 0
M  V30 17557 H 1650.36 -6.07014 -3.41332 0
M  V30 17558 H 1647.98 -6.78029 -3.43774 0
M  V30 17559 N 1649.56 1.24734 -0.963288 0
M  V30 17560 C 1650.51 2.25555 -0.48926 0
M  V30 17561 C 1651.48 1.59521 0.462848 0
M  V30 17562 O 1652.66 1.87095 0.374188 0
M  V30 17563 C 1649.8 3.44407 0.218629 0
M  V30 17564 C 1648.91 4.25051 -0.77173 0
M  V30 17565 C 1648.05 5.31185 -0.0403986 0
M  V30 17566 C 1647.09 6.03523 -1.02112 0
M  V30 17567 N 1646.23 7.0137 -0.320083 0
M  V30 17568 H 1651.07 2.6547 -1.35386 0
M  V30 17569 H 1648.6 1.30504 -0.678762 0
M  V30 17570 H 1650.56 4.12173 0.645701 0
M  V30 17571 H 1649.19 3.05341 1.04722 0
M  V30 17572 H 1648.24 3.56865 -1.31726 0
M  V30 17573 H 1649.55 4.75084 -1.51976 0
M  V30 17574 H 1648.71 6.05067 0.444886 0
M  V30 17575 H 1647.45 4.82048 0.740356 0
M  V30 17576 H 1646.45 5.28448 -1.51732 0
M  V30 17577 H 1647.68 6.54749 -1.80224 0
M  V30 17578 H 1645.62 6.54511 0.441775 0
M  V30 17579 H 1645.54 7.49263 -1.00705 0
M  V30 17580 H 1646.81 7.79368 0.143379 0
M  V30 17581 N 1651.04 0.732878 1.39523 0
M  V30 17582 C 1651.97 0.0403016 2.28164 0
M  V30 17583 C 1652.95 -0.749899 1.44275 0
M  V30 17584 O 1654.13 -0.732905 1.73669 0
M  V30 17585 C 1651.26 -0.95013 3.251 0
M  V30 17586 C 1650.31 -0.248672 4.25774 0
M  V30 17587 S 1651.14 1.03584 5.25386 0
M  V30 17588 C 1652.29 0.0479532 6.25882 0
M  V30 17589 H 1652.53 0.792023 2.86556 0
M  V30 17590 H 1650.06 0.524589 1.45215 0
M  V30 17591 H 1652.02 -1.51629 3.81469 0
M  V30 17592 H 1650.68 -1.67467 2.65732 0
M  V30 17593 H 1649.87 -0.998025 4.9402 0
M  V30 17594 H 1649.47 0.245398 3.73194 0
M  V30 17595 H 1651.77 -0.793145 6.72841 0
M  V30 17596 H 1652.71 0.69749 7.04656 0
M  V30 17597 H 1653.12 -0.323498 5.63572 0
M  V30 17598 N 1652.52 -1.50101 0.480349 0
M  V30 17599 C 1653.45 -2.31581 -0.298718 0
M  V30 17600 C 1654.43 -1.38905 -0.981798 0
M  V30 17601 O 1655.61 -1.67823 -0.977188 0
M  V30 17602 C 1652.74 -3.18891 -1.37571 0
M  V30 17603 C 1651.7 -4.20194 -0.813704 0
M  V30 17604 C 1651.02 -4.96302 -1.98968 0
M  V30 17605 C 1652.32 -5.21985 0.181295 0
M  V30 17606 H 1654.02 -2.96961 0.381349 0
M  V30 17607 H 1651.56 -1.42809 0.184842 0
M  V30 17608 H 1653.51 -3.74694 -1.92828 0
M  V30 17609 H 1652.24 -2.51414 -2.08467 0
M  V30 17610 H 1650.9 -3.65506 -0.283034 0
M  V30 17611 H 1650.55 -4.2529 -2.68584 0
M  V30 17612 H 1650.25 -5.64833 -1.61981 0
M  V30 17613 H 1651.77 -5.54943 -2.54698 0
M  V30 17614 H 1653.18 -5.72604 -0.28242 0
M  V30 17615 H 1651.58 -5.98289 0.465916 0
M  V30 17616 H 1652.65 -4.72162 1.10413 0
M  V30 17617 N 1653.99 -0.213323 -1.5615 0
M  V30 17618 C 1655.24 0.420598 -1.98084 0
M  V30 17619 C 1655.57 1.60355 -1.10075 0
M  V30 17620 O 1654.82 1.95171 -0.143848 0
M  V30 17621 C 1655.12 0.905764 -3.45732 0
M  V30 17622 C 1654.79 -0.165778 -4.50595 0
M  V30 17623 C 1653.45 -0.460161 -4.78995 0
M  V30 17624 C 1655.8 -0.890891 -5.1353 0
M  V30 17625 C 1653.13 -1.48432 -5.67613 0
M  V30 17626 C 1655.48 -1.90433 -6.03256 0
M  V30 17627 C 1654.15 -2.20572 -6.30004 0
M  V30 17628 H 1653.42 0.153908 -0.72484 0
M  V30 17629 H 1656.06 -0.314117 -1.88906 0
M  V30 17630 H 1654.37 1.71909 -3.52072 0
M  V30 17631 H 1656.07 1.40596 -3.75545 0
M  V30 17632 H 1652.66 0.0738261 -4.28536 0
M  V30 17633 H 1656.84 -0.676696 -4.91665 0
M  V30 17634 H 1652.1 -1.72354 -5.86604 0
M  V30 17635 H 1656.27 -2.47131 -6.51075 0
M  V30 17636 H 1653.9 -3.00074 -6.9847 0
M  V30 17637 N 1655.47 1.57485 0.0601405 0
M  V30 17638 C 1656.4 2.07525 1.07031 0
M  V30 17639 C 1657.38 0.971136 1.39653 0
M  V30 17640 O 1658.57 1.24456 1.49078 0
M  V30 17641 C 1655.7 2.52888 2.38044 0
M  V30 17642 C 1654.65 3.67282 2.19745 0
M  V30 17643 C 1653.98 3.98741 3.56244 0
M  V30 17644 C 1655.28 4.96896 1.60908 0
M  V30 17645 H 1656.97 2.92173 0.653875 0
M  V30 17646 H 1654.52 1.40555 0.313083 0
M  V30 17647 H 1656.47 2.8651 3.09014 0
M  V30 17648 H 1655.2 1.65284 2.81689 0
M  V30 17649 H 1653.85 3.33961 1.51213 0
M  V30 17650 H 1653.5 3.08249 3.97481 0
M  V30 17651 H 1653.2 4.75775 3.44836 0
M  V30 17652 H 1654.73 4.34869 4.28627 0
M  V30 17653 H 1656.14 5.28674 2.21758 0
M  V30 17654 H 1654.54 5.78332 1.60164 0
M  V30 17655 H 1655.61 4.81518 0.571671 0
M  V30 17656 N 1656.95 -0.331789 1.54068 0
M  V30 17657 C 1658.36 -0.906719 1.63204 0
M  V30 17658 C 1658.71 -1.89161 0.520837 0
M  V30 17659 O 1657.84 -2.1359 -0.347577 0
M  V30 17660 C 1658.43 -1.65132 2.95832 0
M  V30 17661 C 1656.99 -2.17509 3.07192 0
M  V30 17662 C 1656.14 -0.99788 2.58723 0
M  V30 17663 H 1659.09 -0.109595 1.58321 0
M  V30 17664 H 1659.11 -2.515 2.85531 0
M  V30 17665 H 1658.62 -0.934255 3.76687 0
M  V30 17666 H 1656.72 -2.92356 2.30995 0
M  V30 17667 H 1656.84 -2.43074 4.12858 0
M  V30 17668 H 1655.2 -1.37469 2.14417 0
M  V30 17669 H 1655.98 -0.295261 3.42028 0
M  V30 17670 N 1658.43 -1.46001 -0.593424 0
M  V30 17671 C 1659.34 -1.58316 -1.73128 0
M  V30 17672 C 1660.35 -0.467029 -1.67615 0
M  V30 17673 O 1661.53 -0.729682 -1.87717 0
M  V30 17674 C 1658.6 -1.56007 -3.09617 0
M  V30 17675 C 1657.66 -2.78769 -3.26475 0
M  V30 17676 C 1656.89 -2.76561 -4.56453 0
M  V30 17677 O 1657.11 -1.84694 -5.39671 0
M  V30 17678 O 1656.05 -3.67959 -4.76329 0
M  V30 17679 H 1659.87 -2.54522 -1.65686 0
M  V30 17680 H 1657.46 -1.28672 -0.759204 0
M  V30 17681 H 1659.34 -1.57377 -3.9091 0
M  V30 17682 H 1658.01 -0.629571 -3.17519 0
M  V30 17683 H 1656.92 -2.82956 -2.44717 0
M  V30 17684 H 1658.25 -3.70992 -3.23459 0
M  V30 17685 N 1659.91 0.83715 -1.33527 0
M  V30 17686 C 1661.13 1.62976 -1.28271 0
M  V30 17687 C 1661.56 1.87554 0.143201 0
M  V30 17688 O 1660.91 1.44088 1.10038 0
M  V30 17689 C 1660.96 2.95607 -2.06516 0
M  V30 17690 O 1660.07 3.87 -1.42494 0
M  V30 17691 H 1659.41 0.496212 -0.441214 0
M  V30 17692 H 1661.94 1.04137 -1.76115 0
M  V30 17693 H 1661.95 3.4529 -2.17344 0
M  V30 17694 H 1660.62 2.77041 -3.10195 0
M  V30 17695 H 1659.2 3.45492 -1.40321 0
M  V30 17696 N 1661.38 1.17024 1.05561 0
M  V30 17697 C 1662.35 0.885897 2.11387 0
M  V30 17698 C 1663.35 -0.122327 1.60334 0
M  V30 17699 O 1664.54 0.109416 1.73856 0
M  V30 17700 C 1661.67 0.32626 3.39335 0
M  V30 17701 H 1662.86 1.82414 2.38045 0
M  V30 17702 H 1660.42 0.980191 1.21745 0
M  V30 17703 H 1661.15 -0.619308 3.18332 0
M  V30 17704 H 1660.94 1.05285 3.777 0
M  V30 17705 H 1662.43 0.145513 4.17346 0
M  V30 17706 N 1662.86 -1.24221 0.969889 0
M  V30 17707 C 1664.28 -1.4454 0.676778 0
M  V30 17708 C 1664.48 -1.86591 -0.760656 0
M  V30 17709 O 1663.53 -2.00538 -1.5343 0
M  V30 17710 C 1664.85 -2.50546 1.66274 0
M  V30 17711 C 1666.4 -2.64372 1.67561 0
M  V30 17712 C 1666.87 -3.73577 2.6496 0
M  V30 17713 N 1668.36 -3.81007 2.63416 0
M  V30 17714 C 1669.1 -4.65037 3.35452 0
M  V30 17715 N 1668.59 -5.53238 4.17013 0
M  V30 17716 N 1670.39 -4.59138 3.24266 0
M  V30 17717 H 1662.54 -0.952237 1.89858 0
M  V30 17718 H 1664.8 -0.479972 0.817515 0
M  V30 17719 H 1664.51 -2.26541 2.6902 0
M  V30 17720 H 1664.38 -3.48745 1.43724 0
M  V30 17721 H 1666.77 -2.87733 0.655247 0
M  V30 17722 H 1666.85 -1.66523 1.94174 0
M  V30 17723 H 1666.49 -3.50965 3.67132 0
M  V30 17724 H 1666.42 -4.70944 2.35626 0
M  V30 17725 H 1668.91 -3.17969 2.04216 0
M  V30 17726 H 1669.23 -6.1432 4.68861 0
M  V30 17727 H 1667.57 -5.52896 4.21107 0
M  V30 17728 H 1670.76 -3.89247 2.60008 0
M  V30 17729 H 1670.93 -5.24399 3.8067 0
M  V30 17730 N 1664.34 -0.740267 -1.39132 0
M  V30 17731 C 1665.59 -0.299863 -2.01177 0
M  V30 17732 C 1665.94 1.10225 -1.57696 0
M  V30 17733 O 1665.23 1.74177 -0.798308 0
M  V30 17734 C 1665.43 -0.346009 -3.55721 0
M  V30 17735 C 1665.26 -1.75107 -4.14207 0
M  V30 17736 C 1664.03 -2.36453 -4.46563 0
M  V30 17737 C 1666.23 -2.70554 -4.37384 0
M  V30 17738 N 1664.21 -3.69058 -4.9058 0
M  V30 17739 C 1665.58 -3.87903 -4.83664 0
M  V30 17740 C 1667.63 -2.68249 -4.1946 0
M  V30 17741 C 1666.34 -5.03288 -5.13901 0
M  V30 17742 C 1668.36 -3.82781 -4.50814 0
M  V30 17743 C 1667.72 -4.98866 -4.97305 0
M  V30 17744 H 1663.82 -0.156099 -0.766262 0
M  V30 17745 H 1666.41 -0.967366 -1.68968 0
M  V30 17746 H 1664.58 0.291163 -3.87307 0
M  V30 17747 H 1666.31 0.113444 -4.04541 0
M  V30 17748 H 1663.07 -1.88332 -4.34544 0
M  V30 17749 H 1663.49 -4.37152 -5.1694 0
M  V30 17750 H 1668.13 -1.79691 -3.82715 0
M  V30 17751 H 1665.85 -5.92471 -5.49549 0
M  V30 17752 H 1669.44 -3.82301 -4.38563 0
M  V30 17753 H 1668.32 -5.8602 -5.21105 0
M  V30 17754 N 1665.82 1.49844 -0.488302 0
M  V30 17755 C 1667.07 2.01603 0.0624744 0
M  V30 17756 C 1667.38 1.37397 1.39217 0
M  V30 17757 O 1668.59 1.8041 2.0289 0
M  V30 17758 C 1667.04 3.59536 0.161824 0
M  V30 17759 C 1666.65 4.32709 -1.16047 0
M  V30 17760 C 1668.39 4.1928 0.663642 0
M  V30 17761 C 1666.3 5.82468 -1.02397 0
M  V30 17762 H 1665.23 0.753512 0.0271222 0
M  V30 17763 H 1667.88 1.72499 -0.625805 0
M  V30 17764 H 1666.26 3.85301 0.914273 0
M  V30 17765 H 1667.44 4.18655 -1.92522 0
M  V30 17766 H 1665.75 3.84652 -1.59473 0
M  V30 17767 H 1668.35 5.28935 0.783069 0
M  V30 17768 H 1668.69 3.81801 1.65933 0
M  V30 17769 H 1669.23 3.97787 -0.0319078 0
M  V30 17770 H 1665.97 6.2445 -1.99355 0
M  V30 17771 H 1665.49 5.9905 -0.299902 0
M  V30 17772 H 1667.16 6.43229 -0.697538 0
M  V30 17773 N 1667.3 0.221601 1.56034 0
M  V30 17774 C 1668.23 -0.720818 2.1757 0
M  V30 17775 C 1669.24 -1.15751 1.14479 0
M  V30 17776 O 1670.43 -1.08865 1.41459 0
M  V30 17777 C 1667.53 -1.98817 2.74454 0
M  V30 17778 C 1666.7 -1.70703 4.02715 0
M  V30 17779 C 1665.76 -2.82146 4.44162 0
M  V30 17780 O 1664.79 -2.50614 5.11059 0
M  V30 17781 N 1665.99 -4.11101 4.09849 0
M  V30 17782 H 1668.76 -0.194436 2.99069 0
M  V30 17783 H 1666.32 0.0405962 1.61849 0
M  V30 17784 H 1668.31 -2.72562 2.99152 0
M  V30 17785 H 1666.88 -2.42503 1.97258 0
M  V30 17786 H 1666.1 -0.806022 3.85872 0
M  V30 17787 H 1667.39 -1.49351 4.86387 0
M  V30 17788 H 1666.78 -4.39562 3.56092 0
M  V30 17789 H 1665.34 -4.81389 4.3944 0
M  V30 17790 N 1668.77 -1.57515 -0.0517878 0
M  V30 17791 C 1670.19 -1.54323 -0.407009 0
M  V30 17792 C 1670.39 -0.944629 -1.77986 0
M  V30 17793 O 1669.45 -0.555785 -2.46307 0
M  V30 17794 C 1670.76 -2.98887 -0.329703 0
M  V30 17795 C 1672.31 -3.10324 -0.408443 0
M  V30 17796 C 1672.78 -4.56576 -0.360833 0
M  V30 17797 N 1674.27 -4.61289 -0.420313 0
M  V30 17798 C 1675.01 -5.71961 -0.406007 0
M  V30 17799 N 1674.5 -6.91939 -0.34533 0
M  V30 17800 N 1676.3 -5.60263 -0.454054 0
M  V30 17801 H 1668.45 -1.94785 0.846907 0
M  V30 17802 H 1670.71 -0.892417 0.319838 0
M  V30 17803 H 1670.42 -3.4632 0.612802 0
M  V30 17804 H 1670.29 -3.59806 -1.13222 0
M  V30 17805 H 1672.68 -2.62852 -1.34138 0
M  V30 17806 H 1672.76 -2.52278 0.423018 0
M  V30 17807 H 1672.4 -5.0471 0.568335 0
M  V30 17808 H 1672.33 -5.12508 -1.2101 0
M  V30 17809 H 1674.82 -3.74958 -0.470644 0
M  V30 17810 H 1675.14 -7.72057 -0.338889 0
M  V30 17811 H 1673.48 -6.94301 -0.311715 0
M  V30 17812 H 1676.67 -4.6543 -0.499289 0
M  V30 17813 H 1676.85 -6.46508 -0.439435 0
M  V30 17814 N 1670.25 0.323614 -1.54242 0
M  V30 17815 C 1671.48 1.0811 -1.76408 0
M  V30 17816 C 1671.9 1.81707 -0.512656 0
M  V30 17817 O 1671.25 1.75035 0.516638 0
M  V30 17818 C 1671.3 2.07923 -2.9572 0
M  V30 17819 O 1671.03 1.37317 -4.16024 0
M  V30 17820 C 1672.53 2.95891 -3.30096 0
M  V30 17821 H 1669.75 0.321583 -0.588919 0
M  V30 17822 H 1672.29 0.369756 -2.01129 0
M  V30 17823 H 1670.45 2.74593 -2.73272 0
M  V30 17824 H 1670.86 2.04158 -4.83135 0
M  V30 17825 H 1672.33 3.61822 -4.1688 0
M  V30 17826 H 1672.81 3.62986 -2.47261 0
M  V30 17827 H 1673.42 2.34783 -3.54622 0
M  V30 17828 N 1671.73 1.46313 0.585673 0
M  V30 17829 C 1672.68 1.5307 1.68978 0
M  V30 17830 C 1673.67 0.391901 1.56054 0
M  V30 17831 O 1674.86 0.64013 1.65019 0
M  V30 17832 C 1671.99 1.52113 3.07761 0
M  V30 17833 C 1671.07 2.71276 3.25991 0
M  V30 17834 N 1671.46 3.9622 3.14393 0
M  V30 17835 C 1669.76 2.67436 3.56923 0
M  V30 17836 C 1670.46 4.7587 3.34549 0
M  V30 17837 N 1669.44 4.07693 3.59565 0
M  V30 17838 H 1673.24 2.47474 1.58537 0
M  V30 17839 H 1670.75 1.41911 0.789614 0
M  V30 17840 H 1672.75 1.5504 3.86999 0
M  V30 17841 H 1671.41 0.587834 3.19335 0
M  V30 17842 H 1672.42 4.27513 2.92323 0
M  V30 17843 H 1669.1 1.83116 3.75199 0
M  V30 17844 H 1670.49 5.84831 3.3079 0
M  V30 17845 N 1673.21 -0.830057 1.33969 0
M  V30 17846 C 1674.46 -1.58272 1.25675 0
M  V30 17847 C 1674.78 -1.94213 -0.175071 0
M  V30 17848 O 1674.05 -1.61694 -1.10597 0
M  V30 17849 H 1672.63 -0.586858 0.462176 0
M  V30 17850 H 1675.29 -0.991495 1.67796 0
M  V30 17851 H 1674.39 -2.50874 1.85658 0
M  V30 17852 N 1674.69 -1.17582 -1.04939 0
M  V30 17853 C 1675.63 -0.894855 -2.12746 0
M  V30 17854 C 1676.6 0.162261 -1.65306 0
M  V30 17855 O 1677.79 0.0245068 -1.90784 0
M  V30 17856 C 1674.93 -0.417085 -3.4257 0
M  V30 17857 C 1674.04 -1.53861 -4.03672 0
M  V30 17858 C 1673.18 -1.01446 -5.21423 0
M  V30 17859 C 1672.22 -2.11127 -5.74536 0
M  V30 17860 N 1671.35 -1.60169 -6.83586 0
M  V30 17861 H 1676.19 -1.81802 -2.36118 0
M  V30 17862 H 1673.73 -0.906716 -1.15832 0
M  V30 17863 H 1675.69 -0.121619 -4.17023 0
M  V30 17864 H 1674.32 0.469119 -3.19373 0
M  V30 17865 H 1673.37 -1.94975 -3.26633 0
M  V30 17866 H 1674.68 -2.36575 -4.39128 0
M  V30 17867 H 1673.84 -0.672992 -6.02956 0
M  V30 17868 H 1672.58 -0.156795 -4.87448 0
M  V30 17869 H 1671.58 -2.46128 -4.91631 0
M  V30 17870 H 1672.81 -2.97313 -6.10559 0
M  V30 17871 H 1670.75 -0.766783 -6.51503 0
M  V30 17872 H 1670.67 -2.36488 -7.18059 0
M  V30 17873 H 1671.94 -1.28923 -7.68765 0
M  V30 17874 N 1676.17 1.23705 -0.976463 0
M  V30 17875 C 1677.11 2.27034 -0.505813 0
M  V30 17876 C 1678.11 1.63716 0.435148 0
M  V30 17877 O 1679.31 1.7732 0.309474 0
M  V30 17878 H 1675.69 0.737862 -0.145131 0
M  V30 17879 H 1677.66 2.64097 -1.38908 0
M  V30 17880 C 1676.41 3.47234 0.179987 0
M  V30 17881 H 1675.73 3.96205 -0.534969 0
M  V30 17882 H 1677.17 4.21353 0.472996 0
M  V30 17883 C 1675.63 3.05979 1.40991 0
M  V30 17884 O 1676.16 3.13914 2.50641 0
M  V30 17885 N 1674.37 2.60934 1.27913 0
M  V30 17886 H 1673.91 2.54677 0.38696 0
M  V30 17887 H 1673.87 2.33697 2.10316 0
M  V30 17888 N 1677.64 0.747635 1.38738 0
M  V30 17889 C 1678.87 0.310484 2.05063 0
M  V30 17890 C 1679.29 -1.05078 1.56013 0
M  V30 17891 O 1678.65 -1.66842 0.709461 0
M  V30 17892 C 1678.7 0.335837 3.59033 0
M  V30 17893 O 1677.8 -0.672218 4.06884 0
M  V30 17894 H 1677.14 0.138591 0.649375 0
M  V30 17895 H 1679.67 1.01709 1.77529 0
M  V30 17896 H 1679.68 0.184631 4.07582 0
M  V30 17897 H 1678.36 1.32906 3.94092 0
M  V30 17898 H 1676.94 -0.486112 3.69718 0
M  V30 17899 N 1679.12 -1.49583 0.496242 0
M  V30 17900 C 1680.05 -2.31885 -0.274139 0
M  V30 17901 C 1681.03 -1.39939 -0.96701 0
M  V30 17902 O 1682.22 -1.6885 -0.959333 0
M  V30 17903 C 1679.35 -3.20332 -1.34181 0
M  V30 17904 C 1678.3 -4.21033 -0.769091 0
M  V30 17905 C 1677.63 -4.98385 -1.93693 0
M  V30 17906 C 1678.93 -5.21764 0.236648 0
M  V30 17907 H 1680.62 -2.9654 0.412824 0
M  V30 17908 H 1678.17 -1.42605 0.199979 0
M  V30 17909 H 1680.12 -3.76718 -1.88843 0
M  V30 17910 H 1678.84 -2.53611 -2.05789 0
M  V30 17911 H 1677.5 -3.65785 -0.244252 0
M  V30 17912 H 1677.15 -4.28115 -2.64058 0
M  V30 17913 H 1676.85 -5.66519 -1.55981 0
M  V30 17914 H 1678.38 -5.57613 -2.48798 0
M  V30 17915 H 1679.79 -5.72871 -0.221672 0
M  V30 17916 H 1678.19 -5.97761 0.529346 0
M  V30 17917 H 1679.26 -4.70964 1.15415 0
M  V30 17918 N 1680.6 -0.229873 -1.55915 0
M  V30 17919 C 1681.55 0.693198 -2.2203 0
M  V30 17920 C 1682.54 1.1933 -1.20236 0
M  V30 17921 O 1683.75 1.15217 -1.38294 0
M  V30 17922 H 1680.12 0.241986 -0.712002 0
M  V30 17923 H 1682.09 0.112229 -2.98189 0
M  V30 17924 C 1680.84 1.88688 -2.92048 0
M  V30 17925 H 1680.17 1.51119 -3.70139 0
M  V30 17926 H 1681.61 2.51036 -3.41697 0
M  V30 17927 C 1680.06 2.74747 -1.94976 0
M  V30 17928 O 1680.59 3.73759 -1.47198 0
M  V30 17929 N 1678.8 2.40956 -1.62445 0
M  V30 17930 H 1678.35 1.60494 -2.01493 0
M  V30 17931 H 1678.31 2.98816 -0.977581 0
M  V30 17932 N 1682.08 1.5754 0.0434337 0
M  V30 17933 C 1683.3 1.93247 0.753012 0
M  V30 17934 C 1683.73 0.828712 1.68861 0
M  V30 17935 O 1683.09 -0.216618 1.80001 0
M  V30 17936 C 1683.13 3.27989 1.49852 0
M  V30 17937 O 1682.24 3.19223 2.61094 0
M  V30 17938 H 1681.58 0.632032 0.203547 0
M  V30 17939 H 1684.11 2.046 0.00319776 0
M  V30 17940 H 1684.12 3.62539 1.87161 0
M  V30 17941 H 1682.79 4.07891 0.812251 0
M  V30 17942 H 1681.37 2.9628 2.26434 0
M  V30 17943 N 1683.56 -0.31543 1.54411 0
M  V30 17944 C 1684.8 -1.05033 1.72663 0
M  V30 17945 C 1685.12 -1.8828 0.507504 0
M  V30 17946 O 1684.39 -1.89968 -0.478418 0
M  V30 17947 H 1682.97 -0.39077 0.636638 0
M  V30 17948 H 1685.64 -0.3499 1.91733 0
M  V30 17949 H 1684.73 -1.71171 2.60973 0
M  V30 17950 N 1685.03 -1.46622 -0.577906 0
M  V30 17951 C 1685.97 -1.53587 -1.70128 0
M  V30 17952 C 1686.98 -0.423789 -1.57187 0
M  V30 17953 O 1688.17 -0.692392 -1.64524 0
M  V30 17954 C 1685.27 -1.40459 -3.08422 0
M  V30 17955 C 1684.44 -2.65872 -3.47319 0
M  V30 17956 C 1683.5 -2.46875 -4.64693 0
M  V30 17957 O 1682.53 -3.20617 -4.70312 0
M  V30 17958 N 1683.73 -1.53352 -5.59878 0
M  V30 17959 H 1686.49 -2.50449 -1.64606 0
M  V30 17960 H 1684.05 -1.42739 -0.764014 0
M  V30 17961 H 1686.05 -1.25516 -3.84744 0
M  V30 17962 H 1684.62 -0.517603 -3.08285 0
M  V30 17963 H 1683.84 -2.95724 -2.60655 0
M  V30 17964 H 1685.12 -3.49173 -3.70075 0
M  V30 17965 H 1684.52 -0.925526 -5.58078 0
M  V30 17966 H 1683.08 -1.4437 -6.3561 0
M  V30 17967 N 1686.51 0.822941 -1.34408 0
M  V30 17968 C 1687.76 1.57604 -1.26513 0
M  V30 17969 C 1688.08 1.94303 0.164769 0
M  V30 17970 O 1687.35 1.62278 1.09738 0
M  V30 17971 H 1685.93 0.584399 -0.465282 0
M  V30 17972 H 1688.59 0.982582 -1.68319 0
M  V30 17973 H 1687.69 2.49886 -1.86986 0
M  V30 17974 N 1687.99 1.18137 1.04314 0
M  V30 17975 C 1689.4 0.979768 1.58926 0
M  V30 17976 C 1689.75 -0.471214 1.90457 0
M  V30 17977 O 1688.88 -1.34812 1.69277 0
M  V30 17978 C 1689.47 1.77219 2.88754 0
M  V30 17979 C 1688.03 1.61501 3.39992 0
M  V30 17980 C 1687.18 1.76824 2.13609 0
M  V30 17981 H 1690.13 1.32717 0.870162 0
M  V30 17982 H 1690.15 1.2598 3.59039 0
M  V30 17983 H 1689.66 2.82818 2.65773 0
M  V30 17984 H 1687.76 0.58427 3.67991 0
M  V30 17985 H 1687.88 2.4115 4.13985 0
M  V30 17986 H 1686.24 1.19747 2.24795 0
M  V30 17987 H 1687.02 2.83853 1.93087 0
M  V30 17988 N 1689.47 -1.23186 0.98301 0
M  V30 17989 C 1690.69 -1.96242 0.671114 0
M  V30 17990 C 1691.12 -1.72248 -0.755792 0
M  V30 17991 O 1690.48 -0.995555 -1.5152 0
M  V30 17992 C 1690.52 -3.47293 0.970571 0
M  V30 17993 O 1689.63 -4.1235 0.0639814 0
M  V30 17994 H 1688.97 -0.614262 0.252147 0
M  V30 17995 H 1691.5 -1.56551 1.31731 0
M  V30 17996 H 1691.51 -3.9776 0.908345 0
M  V30 17997 H 1690.18 -3.64083 2.01039 0
M  V30 17998 H 1688.76 -3.72461 0.180842 0
M  V30 17999 N 1690.95 -0.754982 -1.38339 0
M  V30 18000 C 1692.36 -0.379276 -1.82807 0
M  V30 18001 C 1692.71 1.09228 -1.62984 0
M  V30 18002 O 1691.83 1.84445 -1.13177 0
M  V30 18003 C 1692.43 -0.681628 -3.31872 0
M  V30 18004 C 1690.99 -0.359183 -3.74682 0
M  V30 18005 C 1690.13 -0.93409 -2.61094 0
M  V30 18006 H 1693.09 -0.951019 -1.27048 0
M  V30 18007 H 1693.11 0.0396803 -3.80479 0
M  V30 18008 H 1692.62 -1.75271 -3.46268 0
M  V30 18009 H 1690.72 0.705257 -3.65865 0
M  V30 18010 H 1690.83 -0.85571 -4.71396 0
M  V30 18011 H 1689.2 -0.359379 -2.52152 0
M  V30 18012 H 1689.98 -2.01023 -2.78289 0
M  V30 18013 N 1692.42 1.49318 -0.504168 0
M  V30 18014 C 1693.37 2.29185 0.272566 0
M  V30 18015 C 1694.34 1.35726 0.957476 0
M  V30 18016 O 1695.53 1.64684 0.963524 0
M  V30 18017 C 1692.67 3.18477 1.32916 0
M  V30 18018 C 1691.78 4.26995 0.655704 0
M  V30 18019 C 1690.91 5.03498 1.69301 0
M  V30 18020 C 1689.95 6.0385 1.0016 0
M  V30 18021 N 1689.09 6.73507 1.98325 0
M  V30 18022 H 1693.93 2.951 -0.41474 0
M  V30 18023 H 1691.47 1.455 -0.216372 0
M  V30 18024 H 1693.43 3.68624 1.95377 0
M  V30 18025 H 1692.06 2.54539 1.98519 0
M  V30 18026 H 1691.11 3.80311 -0.0822653 0
M  V30 18027 H 1692.42 4.98675 0.111584 0
M  V30 18028 H 1691.57 5.5753 2.39259 0
M  V30 18029 H 1690.31 4.31599 2.27099 0
M  V30 18030 H 1689.32 5.49046 0.287811 0
M  V30 18031 H 1690.54 6.77737 0.430073 0
M  V30 18032 H 1688.49 6.04376 2.55079 0
M  V30 18033 H 1688.41 7.41174 1.48988 0
M  V30 18034 H 1689.67 7.32141 2.67561 0
M  V30 18035 N 1693.9 0.238138 1.5579 0
M  V30 18036 C 1694.83 -0.697701 2.18323 0
M  V30 18037 C 1695.85 -1.1453 1.15701 0
M  V30 18038 O 1697.04 -1.07359 1.42605 0
M  V30 18039 C 1694.14 -1.95895 2.76547 0
M  V30 18040 C 1693.31 -1.66422 4.04503 0
M  V30 18041 C 1692.37 -2.77419 4.4713 0
M  V30 18042 O 1691.39 -2.45179 5.13689 0
M  V30 18043 N 1692.6 -4.06731 4.14187 0
M  V30 18044 H 1695.36 -0.162705 2.99258 0
M  V30 18045 H 1692.92 0.0577602 1.61797 0
M  V30 18046 H 1694.91 -2.69374 3.02026 0
M  V30 18047 H 1693.48 -2.40398 1.99819 0
M  V30 18048 H 1692.7 -0.76505 3.86705 0
M  V30 18049 H 1693.99 -1.44183 4.87943 0
M  V30 18050 H 1693.39 -4.3576 3.60735 0
M  V30 18051 H 1691.95 -4.76701 4.44521 0
M  V30 18052 N 1695.38 -1.57561 -0.0350783 0
M  V30 18053 C 1696.31 -2.09201 -1.03716 0
M  V30 18054 C 1697.29 -0.993231 -1.3809 0
M  V30 18055 O 1698.48 -1.26812 -1.47079 0
M  V30 18056 C 1695.61 -2.56643 -2.3399 0
M  V30 18057 C 1694.56 -3.70731 -2.13874 0
M  V30 18058 C 1693.89 -4.04358 -3.49855 0
M  V30 18059 C 1695.19 -4.99393 -1.52982 0
M  V30 18060 H 1696.88 -2.93176 -0.60731 0
M  V30 18061 H 1694.43 -1.41036 -0.290683 0
M  V30 18062 H 1696.38 -2.9139 -3.04417 0
M  V30 18063 H 1695.1 -1.69744 -2.79024 0
M  V30 18064 H 1693.76 -3.36325 -1.45881 0
M  V30 18065 H 1693.41 -3.14534 -3.92527 0
M  V30 18066 H 1693.11 -4.81201 -3.37223 0
M  V30 18067 H 1694.63 -4.41633 -4.21654 0
M  V30 18068 H 1696.05 -5.32135 -2.13319 0
M  V30 18069 H 1694.45 -5.80807 -1.50943 0
M  V30 18070 H 1695.52 -4.82367 -0.494993 0
M  V30 18071 N 1696.86 0.307236 -1.54576 0
M  V30 18072 C 1698.1 1.04476 -1.73818 0
M  V30 18073 C 1698.44 1.87134 -0.519102 0
M  V30 18074 O 1697.71 1.88386 0.483852 0
M  V30 18075 C 1698 1.95594 -3.02349 0
M  V30 18076 C 1697.85 1.16158 -4.34543 0
M  V30 18077 C 1699.17 2.94865 -3.26715 0
M  V30 18078 H 1696.29 0.378415 -0.632433 0
M  V30 18079 H 1698.93 0.319955 -1.87287 0
M  V30 18080 H 1697.08 2.57396 -2.90997 0
M  V30 18081 H 1698.75 0.5669 -4.57803 0
M  V30 18082 H 1696.99 0.464158 -4.3131 0
M  V30 18083 H 1697.66 1.8315 -5.2073 0
M  V30 18084 H 1700.14 2.4319 -3.37636 0
M  V30 18085 H 1699.02 3.55791 -4.17976 0
M  V30 18086 H 1699.28 3.68195 -2.44714 0
M  V30 18087 N 1698.34 1.46926 0.570122 0
M  V30 18088 C 1699.56 1.56722 1.35841 0
M  V30 18089 C 1699.99 0.213314 1.86887 0
M  V30 18090 O 1699.34 -0.808694 1.62265 0
M  V30 18091 C 1699.39 2.5859 2.51323 0
M  V30 18092 O 1698.5 2.12966 3.53156 0
M  V30 18093 H 1697.84 0.526929 0.404032 0
M  V30 18094 H 1700.37 1.92603 0.690308 0
M  V30 18095 H 1700.38 2.78601 2.9807 0
M  V30 18096 H 1699.05 3.56903 2.13525 0
M  V30 18097 H 1697.63 2.02999 3.12803 0
M  V30 18098 N 1699.82 -0.815801 1.34842 0
M  V30 18099 C 1700.75 -1.94193 1.29659 0
M  V30 18100 C 1701.73 -1.69221 0.172703 0
M  V30 18101 O 1702.91 -1.90716 0.366203 0
M  V30 18102 C 1700.04 -3.30777 1.0585 0
M  V30 18103 C 1699 -3.70207 2.1478 0
M  V30 18104 C 1698.32 -5.04852 1.76149 0
M  V30 18105 C 1699.62 -3.81553 3.56671 0
M  V30 18106 H 1701.32 -1.98787 2.23884 0
M  V30 18107 H 1698.86 -0.955013 1.07775 0
M  V30 18108 H 1700.81 -4.0915 1.00866 0
M  V30 18109 H 1699.54 -3.265 0.0806804 0
M  V30 18110 H 1698.2 -2.94113 2.18845 0
M  V30 18111 H 1697.85 -4.9707 0.770099 0
M  V30 18112 H 1697.55 -5.32205 2.49062 0
M  V30 18113 H 1699.07 -5.85676 1.72674 0
M  V30 18114 H 1700.48 -4.50181 3.54979 0
M  V30 18115 H 1698.88 -4.20367 4.28266 0
M  V30 18116 H 1699.95 -2.83356 3.93494 0
M  V30 18117 N 1701.29 -1.18689 -1.03686 0
M  V30 18118 C 1702.54 -0.982656 -1.76602 0
M  V30 18119 C 1702.86 0.488553 -1.88781 0
M  V30 18120 O 1702.13 1.35419 -1.41558 0
M  V30 18121 H 1700.71 -0.360595 -0.654202 0
M  V30 18122 H 1703.37 -1.49439 -1.25115 0
M  V30 18123 H 1702.47 -1.42392 -2.77725 0
M  V30 18124 N 1702.77 1.22662 -0.989529 0
M  V30 18125 C 1704.18 1.73116 -0.699124 0
M  V30 18126 C 1704.53 1.79847 0.784197 0
M  V30 18127 O 1703.66 1.44248 1.61311 0
M  V30 18128 C 1704.25 3.14403 -1.2624 0
M  V30 18129 C 1702.81 3.62275 -1.02144 0
M  V30 18130 C 1701.96 2.40257 -1.38463 0
M  V30 18131 H 1704.91 1.08057 -1.1623 0
M  V30 18132 H 1704.93 3.75091 -0.639307 0
M  V30 18133 H 1704.44 3.09472 -2.34198 0
M  V30 18134 H 1702.54 3.72577 0.0416622 0
M  V30 18135 H 1702.66 4.48587 -1.68245 0
M  V30 18136 H 1701.02 2.41705 -0.803179 0
M  V30 18137 H 1701.8 2.3799 -2.47418 0
M  V30 18138 N 1704.25 0.762308 1.37937 0
M  V30 18139 C 1705.16 0.142724 2.34165 0
M  V30 18140 C 1706.18 -0.690588 1.59709 0
M  V30 18141 O 1707.35 -0.61271 1.91854 0
M  V30 18142 C 1704.42 -0.733325 3.38856 0
M  V30 18143 C 1703.48 0.115359 4.29145 0
M  V30 18144 C 1702.71 -0.718972 5.28835 0
M  V30 18145 O 1702.93 -1.95656 5.35794 0
M  V30 18146 O 1701.87 -0.133162 6.01753 0
M  V30 18147 H 1705.69 0.937662 2.88863 0
M  V30 18148 H 1703.28 0.523325 1.39935 0
M  V30 18149 H 1705.16 -1.23374 4.02935 0
M  V30 18150 H 1703.84 -1.50661 2.86501 0
M  V30 18151 H 1702.74 0.661926 3.68197 0
M  V30 18152 H 1704.08 0.851505 4.84779 0
M  V30 18153 N 1705.73 -1.49049 0.51208 0
M  V30 18154 C 1706.67 -2.29326 -0.260408 0
M  V30 18155 C 1707.64 -1.36232 -0.950265 0
M  V30 18156 O 1708.83 -1.65193 -0.954777 0
M  V30 18157 C 1705.97 -3.19177 -1.31225 0
M  V30 18158 C 1705.08 -4.27336 -0.63305 0
M  V30 18159 C 1704.22 -5.04389 -1.66628 0
M  V30 18160 C 1703.26 -6.04372 -0.969561 0
M  V30 18161 N 1702.39 -6.74549 -1.94751 0
M  V30 18162 H 1707.23 -2.94876 0.430384 0
M  V30 18163 H 1704.77 -1.45383 0.224086 0
M  V30 18164 H 1706.73 -3.69655 -1.9342 0
M  V30 18165 H 1705.36 -2.55588 -1.97166 0
M  V30 18166 H 1704.41 -3.80262 0.102433 0
M  V30 18167 H 1705.72 -4.98727 -0.0851363 0
M  V30 18168 H 1704.88 -5.58791 -2.36299 0
M  V30 18169 H 1703.62 -4.32797 -2.24807 0
M  V30 18170 H 1702.62 -5.49191 -0.25869 0
M  V30 18171 H 1703.85 -6.77955 -0.394125 0
M  V30 18172 H 1701.79 -6.0572 -2.5187 0
M  V30 18173 H 1701.71 -7.41954 -1.45055 0
M  V30 18174 H 1702.98 -7.3355 -2.63675 0
M  V30 18175 N 1707.21 -0.246397 -1.55662 0
M  V30 18176 C 1708.43 0.385607 -2.03784 0
M  V30 18177 C 1708.86 1.50786 -1.12451 0
M  V30 18178 O 1708.21 1.8092 -0.117371 0
M  V30 18179 C 1708.26 0.871204 -3.49918 0
M  V30 18180 O 1707.37 1.98082 -3.61715 0
M  V30 18181 H 1706.71 0.0841099 -0.658651 0
M  V30 18182 H 1709.24 -0.372306 -2.01184 0
M  V30 18183 H 1709.25 1.17455 -3.90728 0
M  V30 18184 H 1707.92 0.0499597 -4.1587 0
M  V30 18185 H 1706.5 1.6822 -3.32801 0
M  V30 18186 N 1708.68 1.57577 0.026722 0
M  V30 18187 C 1709.93 1.8966 0.718124 0
M  V30 18188 C 1710.26 0.844423 1.7488 0
M  V30 18189 O 1709.54 -0.14023 1.93994 0
M  V30 18190 C 1709.82 3.32377 1.38555 0
M  V30 18191 C 1709.67 4.4829 0.368227 0
M  V30 18192 C 1710.99 3.74051 2.31891 0
M  V30 18193 H 1708.11 0.689767 0.259596 0
M  V30 18194 H 1710.75 1.8999 -0.0190825 0
M  V30 18195 H 1708.9 3.32226 2.01391 0
M  V30 18196 H 1710.58 4.60576 -0.258394 0
M  V30 18197 H 1708.82 4.32675 -0.312255 0
M  V30 18198 H 1709.49 5.45041 0.873749 0
M  V30 18199 H 1711.97 3.75584 1.79097 0
M  V30 18200 H 1710.84 4.74713 2.7557 0
M  V30 18201 H 1711.1 3.06438 3.18666 0
M  V30 18202 N 1710.16 -0.299034 1.54737 0
M  V30 18203 C 1711.07 -1.39141 1.88884 0
M  V30 18204 C 1712.09 -1.55377 0.783203 0
M  V30 18205 O 1713.26 -1.70003 1.07985 0
M  V30 18206 C 1710.33 -2.73487 2.13087 0
M  V30 18207 C 1709.39 -2.66219 3.36788 0
M  V30 18208 C 1708.62 -3.94158 3.59827 0
M  V30 18209 O 1708.85 -4.9361 2.85841 0
M  V30 18210 O 1707.78 -3.95933 4.53344 0
M  V30 18211 H 1711.61 -1.13184 2.81821 0
M  V30 18212 H 1709.19 -0.495271 1.40952 0
M  V30 18213 H 1711.07 -3.5297 2.30195 0
M  V30 18214 H 1709.75 -2.99283 1.23335 0
M  V30 18215 H 1708.65 -1.85201 3.25041 0
M  V30 18216 H 1709.99 -2.45376 4.26675 0
M  V30 18217 N 1711.64 -1.47227 -0.562322 0
M  V30 18218 C 1712.89 -1.53286 -1.31712 0
M  V30 18219 C 1713.21 -0.194583 -1.94027 0
M  V30 18220 O 1712.48 0.780961 -1.7966 0
M  V30 18221 H 1711.06 -0.564621 -0.489094 0
M  V30 18222 H 1713.72 -1.83492 -0.657024 0
M  V30 18223 H 1712.82 -2.29665 -2.1133 0
M  V30 18224 N 1713.12 0.808639 -1.35273 0
M  V30 18225 C 1714.05 1.92839 -1.23878 0
M  V30 18226 C 1715.06 1.61987 -0.162543 0
M  V30 18227 O 1716.25 1.73593 -0.41564 0
M  V30 18228 C 1713.35 3.27158 -0.884369 0
M  V30 18229 C 1712.52 3.85931 -2.05855 0
M  V30 18230 C 1711.58 4.98652 -1.68025 0
M  V30 18231 O 1710.61 5.16188 -2.39871 0
M  V30 18232 N 1711.81 5.77363 -0.602684 0
M  V30 18233 H 1714.58 2.03141 -2.20349 0
M  V30 18234 H 1712.14 0.985956 -1.28415 0
M  V30 18235 H 1714.13 4.00033 -0.612814 0
M  V30 18236 H 1712.7 3.12599 -0.00940584 0
M  V30 18237 H 1711.92 3.05274 -2.49402 0
M  V30 18238 H 1713.21 4.21929 -2.84347 0
M  V30 18239 H 1712.61 5.657 -0.00570741 0
M  V30 18240 H 1711.16 6.50627 -0.390903 0
M  V30 18241 N 1714.6 1.19237 1.03055 0
M  V30 18242 C 1715.54 0.925171 2.13409 0
M  V30 18243 C 1716.54 -0.118373 1.68986 0
M  V30 18244 O 1717.74 0.0307159 1.79974 0
M  V30 18245 H 1714.12 0.281769 0.697216 0
M  V30 18246 H 1716.09 1.86252 2.33137 0
M  V30 18247 C 1714.84 0.478529 3.44391 0
M  V30 18248 H 1714.16 1.27305 3.7899 0
M  V30 18249 H 1715.6 0.330661 4.22709 0
M  V30 18250 C 1714.06 -0.80715 3.27088 0
M  V30 18251 O 1714.59 -1.86897 3.55573 0
M  V30 18252 N 1712.8 -0.76373 2.80385 0
M  V30 18253 H 1712.34 0.100606 2.57403 0
M  V30 18254 H 1712.3 -1.62435 2.69188 0
M  V30 18255 N 1716.07 -1.22136 0.99602 0
M  V30 18256 C 1717.32 -1.90967 0.673634 0
M  V30 18257 C 1717.65 -1.77526 -0.794654 0
M  V30 18258 O 1716.9 -1.14014 -1.59058 0
M  V30 18259 C 1717.2 -3.42259 1.02926 0
M  V30 18260 C 1716.87 -3.75891 2.49032 0
M  V30 18261 C 1715.53 -3.84781 2.88959 0
M  V30 18262 C 1717.88 -3.91799 3.43719 0
M  V30 18263 C 1715.21 -4.0702 4.22554 0
M  V30 18264 C 1717.56 -4.15543 4.76977 0
M  V30 18265 C 1716.23 -4.22658 5.1664 0
M  V30 18266 H 1715.5 -0.698798 0.2465 0
M  V30 18267 H 1718.14 -1.44836 1.25279 0
M  V30 18268 H 1716.45 -3.90066 0.368224 0
M  V30 18269 H 1718.15 -3.93774 0.757803 0
M  V30 18270 H 1714.74 -3.69556 2.17086 0
M  V30 18271 H 1718.92 -3.84306 3.14042 0
M  V30 18272 H 1714.18 -4.10756 4.52868 0
M  V30 18273 H 1718.35 -4.26796 5.50289 0
M  V30 18274 H 1715.98 -4.39643 6.20176 0
M  V30 18275 N 1717.55 -0.769612 -1.37531 0
M  V30 18276 C 1718.48 -0.168389 -2.32892 0
M  V30 18277 C 1719.46 0.685549 -1.55673 0
M  V30 18278 O 1720.65 0.62345 -1.8392 0
M  V30 18279 C 1717.78 0.713183 -3.39898 0
M  V30 18280 C 1716.73 -0.0392808 -4.27982 0
M  V30 18281 C 1716.06 0.961596 -5.25982 0
M  V30 18282 C 1717.36 -1.21704 -5.07923 0
M  V30 18283 H 1719.05 -0.965022 -2.83421 0
M  V30 18284 H 1716.6 -0.465502 -1.36268 0
M  V30 18285 H 1718.55 1.14358 -4.05586 0
M  V30 18286 H 1717.28 1.54231 -2.87889 0
M  V30 18287 H 1715.93 -0.450429 -3.63822 0
M  V30 18288 H 1715.58 1.78522 -4.70254 0
M  V30 18289 H 1715.28 0.462679 -5.85776 0
M  V30 18290 H 1716.81 1.39097 -5.94545 0
M  V30 18291 H 1718.22 -0.863405 -5.66761 0
M  V30 18292 H 1716.62 -1.6479 -5.77031 0
M  V30 18293 H 1717.69 -2.02219 -4.40722 0
M  V30 18294 N 1719.03 1.48775 -0.519977 0
M  V30 18295 C 1720.26 2.07394 0.0161061 0
M  V30 18296 C 1720.68 1.37532 1.28322 0
M  V30 18297 O 1720.04 0.438049 1.75928 0
M  V30 18298 C 1720.09 3.59844 0.233382 0
M  V30 18299 O 1719.19 3.91235 1.30418 0
M  V30 18300 H 1718.53 0.663094 -0.0346678 0
M  V30 18301 H 1721.06 1.91323 -0.725029 0
M  V30 18302 H 1721.07 4.05409 0.45911 0
M  V30 18303 H 1719.75 4.10098 -0.69229 0
M  V30 18304 H 1718.32 3.5746 1.0619 0
M  V30 18305 N 1720.51 0.254649 1.55529 0
M  V30 18306 C 1721.42 -0.652184 2.25352 0
M  V30 18307 C 1722.43 -1.18695 1.2723 0
M  V30 18308 O 1723.61 -1.22158 1.60123 0
M  V30 18309 C 1720.68 -1.829 2.94531 0
M  V30 18310 C 1719.74 -1.33294 4.08082 0
M  V30 18311 C 1718.97 -2.45367 4.73952 0
M  V30 18312 O 1719.19 -3.64271 4.38933 0
M  V30 18313 O 1718.13 -2.14684 5.62311 0
M  V30 18314 H 1721.95 -0.0871786 3.03575 0
M  V30 18315 H 1719.54 0.0228432 1.49383 0
M  V30 18316 H 1721.42 -2.5156 3.38076 0
M  V30 18317 H 1720.09 -2.38148 2.19242 0
M  V30 18318 H 1719 -0.613396 3.69037 0
M  V30 18319 H 1720.33 -0.826454 4.85212 0
M  V30 18320 N 1721.99 -1.57589 -0.0183649 0
M  V30 18321 C 1722.93 -2.07252 -1.01563 0
M  V30 18322 C 1723.9 -0.963941 -1.35268 0
M  V30 18323 O 1725.09 -1.2352 -1.45421 0
M  V30 18324 C 1722.23 -2.56548 -2.30818 0
M  V30 18325 C 1721.34 -3.81238 -2.03178 0
M  V30 18326 C 1720.48 -4.19105 -3.26381 0
M  V30 18327 C 1719.52 -5.36682 -2.94344 0
M  V30 18328 N 1718.65 -5.6993 -4.1003 0
M  V30 18329 H 1723.49 -2.92198 -0.585179 0
M  V30 18330 H 1721.03 -1.44462 -0.27731 0
M  V30 18331 H 1722.99 -2.832 -3.06355 0
M  V30 18332 H 1721.62 -1.74504 -2.71566 0
M  V30 18333 H 1720.67 -3.61606 -1.1809 0
M  V30 18334 H 1721.98 -4.66886 -1.75552 0
M  V30 18335 H 1721.14 -4.46942 -4.10278 0
M  V30 18336 H 1719.87 -3.32129 -3.57129 0
M  V30 18337 H 1718.88 -5.08587 -2.08851 0
M  V30 18338 H 1720.1 -6.2532 -2.64862 0
M  V30 18339 H 1718.05 -4.85913 -4.40709 0
M  V30 18340 H 1717.97 -6.50111 -3.85865 0
M  V30 18341 H 1719.24 -6.02349 -4.94768 0
M  V30 18342 N 1723.46 0.290824 -1.54893 0
M  V30 18343 C 1724.41 1.37898 -1.87315 0
M  V30 18344 C 1725.41 1.52001 -0.747794 0
M  V30 18345 O 1726.61 1.53998 -0.93192 0
M  V30 18346 H 1722.99 0.460824 -0.59426 0
M  V30 18347 H 1724.96 1.07794 -2.7825 0
M  V30 18348 C 1723.71 2.73568 -2.14606 0
M  V30 18349 H 1723.03 2.63501 -3.00678 0
M  V30 18350 H 1724.47 3.48693 -2.41225 0
M  V30 18351 C 1722.93 3.23291 -0.947865 0
M  V30 18352 O 1723.46 4.01325 -0.173479 0
M  V30 18353 N 1721.67 2.80743 -0.750444 0
M  V30 18354 H 1721.21 2.174 -1.38184 0
M  V30 18355 H 1721.17 3.14361 0.0496746 0
M  V30 18356 N 1724.94 1.47523 0.554506 0
M  V30 18357 C 1725.89 1.60213 1.66134 0
M  V30 18358 C 1726.86 0.445051 1.60027 0
M  V30 18359 O 1728.04 0.665449 1.7882 0
M  V30 18360 C 1725.18 1.62491 3.04452 0
M  V30 18361 C 1724.3 2.89134 3.20976 0
M  V30 18362 C 1723.43 2.82731 4.49707 0
M  V30 18363 C 1722.47 4.04187 4.59673 0
M  V30 18364 N 1721.61 3.96004 5.79763 0
M  V30 18365 H 1726.45 2.54744 1.54626 0
M  V30 18366 H 1723.99 1.26355 0.753189 0
M  V30 18367 H 1725.94 1.61795 3.84549 0
M  V30 18368 H 1724.57 0.714698 3.14789 0
M  V30 18369 H 1723.63 2.99685 2.34292 0
M  V30 18370 H 1724.94 3.79069 3.24203 0
M  V30 18371 H 1724.09 2.80299 5.38068 0
M  V30 18372 H 1722.83 1.90483 4.48963 0
M  V30 18373 H 1721.84 4.06921 3.69724 0
M  V30 18374 H 1723.06 4.97565 4.62175 0
M  V30 18375 H 1721.01 3.06561 5.79962 0
M  V30 18376 H 1720.92 4.7962 5.8438 0
M  V30 18377 H 1722.19 3.97593 6.70478 0
M  V30 18378 N 1726.42 -0.801453 1.357 0
M  V30 18379 C 1727.67 -1.5611 1.29451 0
M  V30 18380 C 1728 -1.93768 -0.129412 0
M  V30 18381 O 1727.27 -1.6176 -1.08 0
M  V30 18382 C 1727.56 -2.84628 2.20588 0
M  V30 18383 C 1727.41 -2.53413 3.71621 0
M  V30 18384 C 1728.73 -3.86369 2.10729 0
M  V30 18385 H 1725.85 -0.56638 0.471575 0
M  V30 18386 H 1728.49 -0.921701 1.66147 0
M  V30 18387 H 1726.64 -3.39192 1.89424 0
M  V30 18388 H 1728.31 -2.04993 4.1325 0
M  V30 18389 H 1726.56 -1.86531 3.91649 0
M  V30 18390 H 1727.23 -3.45152 4.30783 0
M  V30 18391 H 1729.7 -3.41219 2.38136 0
M  V30 18392 H 1728.58 -4.74062 2.76688 0
M  V30 18393 H 1728.84 -4.28431 1.09083 0
M  V30 18394 N 1727.9 -1.19782 -1.02421 0
M  V30 18395 C 1729.14 -1.0048 -1.76158 0
M  V30 18396 C 1729.48 0.46281 -1.88605 0
M  V30 18397 O 1728.75 1.34366 -1.40628 0
M  V30 18398 C 1729.04 -1.67999 -3.1851 0
M  V30 18399 C 1728.89 -3.22155 -3.13905 0
M  V30 18400 C 1730.21 -1.40681 -4.17009 0
M  V30 18401 H 1727.33 -0.366436 -0.639448 0
M  V30 18402 H 1729.97 -1.47688 -1.19534 0
M  V30 18403 H 1728.12 -1.27862 -3.66856 0
M  V30 18404 H 1729.79 -3.71536 -2.7342 0
M  V30 18405 H 1728.03 -3.53456 -2.51498 0
M  V30 18406 H 1728.7 -3.64548 -4.14498 0
M  V30 18407 H 1731.18 -1.75488 -3.77284 0
M  V30 18408 H 1730.06 -1.90467 -5.14795 0
M  V30 18409 H 1730.32 -0.332889 -4.40845 0
M  V30 18410 N 1729.38 1.21606 -1.00248 0
M  V30 18411 C 1730.62 1.9089 -0.684765 0
M  V30 18412 C 1730.96 1.77749 0.78224 0
M  V30 18413 O 1730.23 1.15251 1.56676 0
M  V30 18414 C 1730.51 3.42778 -1.1034 0
M  V30 18415 C 1730.37 3.64923 -2.62967 0
M  V30 18416 C 1731.69 4.35064 -0.663877 0
M  V30 18417 H 1728.81 0.693217 -0.250239 0
M  V30 18418 H 1731.45 1.4329 -1.24772 0
M  V30 18419 H 1729.6 3.83449 -0.624415 0
M  V30 18420 H 1731.27 3.33595 -3.18609 0
M  V30 18421 H 1729.51 3.08874 -3.04596 0
M  V30 18422 H 1730.18 4.71335 -2.87311 0
M  V30 18423 H 1732.66 4.01962 -1.07544 0
M  V30 18424 H 1731.54 5.3999 -0.984987 0
M  V30 18425 H 1731.8 4.39954 0.435095 0
M  V30 18426 N 1730.86 0.776895 1.37121 0
M  V30 18427 C 1732.1 0.342876 1.9917 0
M  V30 18428 C 1732.42 -1.08574 1.61977 0
M  V30 18429 O 1731.69 -1.74634 0.887689 0
M  V30 18430 H 1730.27 0.123788 0.736672 0
M  V30 18431 H 1732.94 0.996163 1.67519 0
M  V30 18432 H 1732.03 0.424637 3.09198 0
M  V30 18433 N 1732.33 -1.48497 0.527859 0
M  V30 18434 C 1733.28 -2.2959 -0.23607 0
M  V30 18435 C 1734.25 -1.37232 -0.935762 0
M  V30 18436 O 1735.44 -1.66196 -0.937202 0
M  V30 18437 C 1732.58 -3.20551 -1.27832 0
M  V30 18438 C 1731.69 -4.27984 -0.58769 0
M  V30 18439 C 1730.82 -5.06128 -1.61269 0
M  V30 18440 C 1729.86 -6.05367 -0.905404 0
M  V30 18441 N 1729 -6.76577 -1.87585 0
M  V30 18442 H 1733.84 -2.94403 0.461635 0
M  V30 18443 H 1731.38 -1.45137 0.239493 0
M  V30 18444 H 1733.33 -3.71686 -1.89488 0
M  V30 18445 H 1731.96 -2.57665 -1.94444 0
M  V30 18446 H 1731.02 -3.80132 0.142759 0
M  V30 18447 H 1732.33 -4.9879 -0.0322348 0
M  V30 18448 H 1731.48 -5.61266 -2.30359 0
M  V30 18449 H 1730.22 -4.35157 -2.20204 0
M  V30 18450 H 1729.23 -5.49435 -0.200426 0
M  V30 18451 H 1730.45 -6.78335 -0.322197 0
M  V30 18452 H 1728.4 -6.08358 -2.45432 0
M  V30 18453 H 1728.31 -7.4345 -1.37178 0
M  V30 18454 H 1729.58 -7.36305 -2.5588 0
M  V30 18455 N 1733.81 -0.262893 -1.55392 0
M  V30 18456 C 1735.06 0.35666 -1.98928 0
M  V30 18457 C 1735.38 1.5729 -1.1526 0
M  V30 18458 O 1734.65 1.94435 -0.239164 0
M  V30 18459 H 1733.23 0.134768 -0.734742 0
M  V30 18460 H 1735.89 -0.365394 -1.91444 0
M  V30 18461 H 1734.99 0.654895 -3.05152 0
M  V30 18462 N 1735.29 1.57597 0.0100073 0
M  V30 18463 C 1736.2 2.11209 1.02117 0
M  V30 18464 C 1737.22 1.05503 1.38366 0
M  V30 18465 O 1738.39 1.37348 1.47301 0
M  V30 18466 C 1735.46 2.59654 2.2974 0
M  V30 18467 C 1734.52 3.79921 1.99896 0
M  V30 18468 C 1733.75 4.26046 3.21435 0
M  V30 18469 O 1733.97 3.71566 4.32775 0
M  V30 18470 O 1732.91 5.18301 3.06018 0
M  V30 18471 H 1736.73 2.97805 0.595469 0
M  V30 18472 H 1734.32 1.47647 0.228208 0
M  V30 18473 H 1736.2 2.91058 3.04735 0
M  V30 18474 H 1734.88 1.76161 2.71568 0
M  V30 18475 H 1733.78 3.53506 1.22409 0
M  V30 18476 H 1735.12 4.64457 1.62912 0
M  V30 18477 N 1736.77 -0.282606 1.55045 0
M  V30 18478 C 1738.01 -1.01547 1.75198 0
M  V30 18479 C 1738.34 -1.86627 0.54779 0
M  V30 18480 O 1737.6 -1.89974 -0.46993 0
M  V30 18481 C 1737.9 -1.93554 3.00452 0
M  V30 18482 C 1737.56 -1.24303 4.33428 0
M  V30 18483 C 1736.22 -1.0515 4.69571 0
M  V30 18484 C 1738.58 -0.749451 5.15784 0
M  V30 18485 C 1735.9 -0.353528 5.85634 0
M  V30 18486 C 1738.26 -0.0651157 6.32566 0
M  V30 18487 C 1736.92 0.138206 6.67357 0
M  V30 18488 H 1736.19 -0.371587 0.641096 0
M  V30 18489 H 1738.84 -0.288623 1.89312 0
M  V30 18490 H 1737.14 -2.72828 2.81197 0
M  V30 18491 H 1738.84 -2.50363 3.1324 0
M  V30 18492 H 1735.43 -1.4022 4.05014 0
M  V30 18493 H 1739.61 -0.885074 4.88344 0
M  V30 18494 H 1734.87 -0.185186 6.11119 0
M  V30 18495 H 1739.04 0.325146 6.95641 0
M  V30 18496 H 1736.67 0.681034 7.57143 0
M  V30 18497 N 1738.25 -1.47815 -0.546675 0
M  V30 18498 C 1739.47 -1.58613 -1.32851 0
M  V30 18499 C 1739.89 -0.240179 -1.87266 0
M  V30 18500 O 1739.25 0.768148 -1.65547 0
M  V30 18501 C 1739.3 -2.61969 -2.49107 0
M  V30 18502 O 1739.02 -3.9134 -1.96938 0
M  V30 18503 C 1740.52 -2.83051 -3.4117 0
M  V30 18504 H 1737.74 -0.535292 -0.404603 0
M  V30 18505 H 1740.28 -1.93516 -0.661192 0
M  V30 18506 H 1738.44 -2.29971 -3.11756 0
M  V30 18507 H 1738.85 -4.47905 -2.72913 0
M  V30 18508 H 1740.33 -3.59209 -4.19134 0
M  V30 18509 H 1740.8 -1.91258 -3.95369 0
M  V30 18510 H 1741.41 -3.16287 -2.84328 0
M  V30 18511 N 1739.72 0.794246 -1.36123 0
M  V30 18512 C 1740.67 1.90668 -1.30056 0
M  V30 18513 C 1741.64 1.65226 -0.170145 0
M  V30 18514 O 1742.83 1.87452 -0.355874 0
M  V30 18515 C 1739.97 3.27405 -1.09086 0
M  V30 18516 C 1739.08 3.64951 -2.31159 0
M  V30 18517 C 1738.21 4.90782 -2.0324 0
M  V30 18518 C 1737.25 5.20992 -3.21301 0
M  V30 18519 N 1736.39 6.38005 -2.93078 0
M  V30 18520 H 1741.23 1.9519 -2.25178 0
M  V30 18521 H 1738.77 0.95458 -1.1192 0
M  V30 18522 H 1740.72 4.0625 -0.94956 0
M  V30 18523 H 1739.35 3.22319 -0.176211 0
M  V30 18524 H 1738.41 2.81268 -2.5611 0
M  V30 18525 H 1739.72 3.83228 -3.19277 0
M  V30 18526 H 1738.87 5.77481 -1.86012 0
M  V30 18527 H 1737.61 4.74565 -1.12426 0
M  V30 18528 H 1736.62 4.32777 -3.39093 0
M  V30 18529 H 1737.84 5.39131 -4.12934 0
M  V30 18530 H 1735.79 6.23189 -2.0487 0
M  V30 18531 H 1735.7 6.56591 -3.74733 0
M  V30 18532 H 1736.97 7.27699 -2.79418 0
M  V30 18533 N 1741.2 1.20323 1.01785 0
M  V30 18534 C 1742.48 0.921703 1.72522 0
M  V30 18535 C 1742.86 -0.569838 2.03264 0
M  V30 18536 O 1742.21 -1.53115 1.69611 0
M  V30 18537 C 1742.42 1.79335 2.99399 0
M  V30 18538 C 1743.76 2.03442 3.72688 0
M  V30 18539 O 1744.79 1.76578 3.09352 0
M  V30 18540 O 1743.65 2.48803 4.86579 0
M  V30 18541 H 1740.74 0.344505 0.751828 0
M  V30 18542 H 1743.29 1.31191 1.07644 0
M  V30 18543 H 1742.06 2.80339 2.72994 0
M  V30 18544 H 1741.68 1.40314 3.72018 0
M  V30 18545 N 1742.68 -1.21073 1.00892 0
M  V30 18546 C 1743.93 -1.90524 0.694879 0
M  V30 18547 C 1744.26 -1.78161 -0.772802 0
M  V30 18548 O 1743.53 -1.1608 -1.56063 0
M  V30 18549 C 1743.82 -3.42188 1.12156 0
M  V30 18550 C 1743.67 -3.63523 2.64898 0
M  V30 18551 C 1744.99 -4.34706 0.68694 0
M  V30 18552 H 1742.11 -0.69188 0.253912 0
M  V30 18553 H 1744.75 -1.42626 1.2553 0
M  V30 18554 H 1742.9 -3.83113 0.644742 0
M  V30 18555 H 1744.57 -3.31901 3.20374 0
M  V30 18556 H 1742.81 -3.07255 3.0623 0
M  V30 18557 H 1743.49 -4.69805 2.89806 0
M  V30 18558 H 1745.96 -4.01386 1.09674 0
M  V30 18559 H 1744.84 -5.3946 1.01361 0
M  V30 18560 H 1745.1 -4.40178 -0.411757 0
M  V30 18561 N 1744.16 -0.784156 -1.36707 0
M  V30 18562 C 1745.41 -0.353434 -1.98986 0
M  V30 18563 C 1745.73 1.07714 -1.62551 0
M  V30 18564 O 1745 1.7416 -0.896938 0
M  V30 18565 H 1743.58 -0.127693 -0.736005 0
M  V30 18566 H 1746.24 -1.00503 -1.66988 0
M  V30 18567 H 1745.34 -0.441028 -3.08968 0
M  V30 18568 N 1745.64 1.48215 -0.535727 0
M  V30 18569 C 1746.57 2.3253 0.212562 0
M  V30 18570 C 1747.55 1.42454 0.929568 0
M  V30 18571 O 1748.73 1.71334 0.914228 0
M  V30 18572 C 1745.86 3.23777 1.25641 0
M  V30 18573 C 1744.82 4.22924 0.657191 0
M  V30 18574 C 1744.14 5.03345 1.80411 0
M  V30 18575 C 1745.44 5.20953 -0.374902 0
M  V30 18576 H 1747.14 2.95341 -0.491301 0
M  V30 18577 H 1744.68 1.42024 -0.237718 0
M  V30 18578 H 1746.64 3.81592 1.78789 0
M  V30 18579 H 1745.36 2.58978 1.98993 0
M  V30 18580 H 1744.02 3.66304 0.147184 0
M  V30 18581 H 1743.67 4.34965 2.52615 0
M  V30 18582 H 1743.37 5.70455 1.40906 0
M  V30 18583 H 1744.89 5.64013 2.33926 0
M  V30 18584 H 1746.3 5.73258 0.0697072 0
M  V30 18585 H 1744.7 5.96147 -0.687646 0
M  V30 18586 H 1745.77 4.67739 -1.27861 0
M  V30 18587 N 1747.11 0.27113 1.5525 0
M  V30 18588 C 1748.06 -0.618069 2.2237 0
M  V30 18589 C 1749.03 -1.15282 1.19579 0
M  V30 18590 O 1750.22 -1.20285 1.48108 0
M  V30 18591 C 1747.36 -1.79821 2.94548 0
M  V30 18592 C 1746.47 -1.29769 4.12049 0
M  V30 18593 C 1745.6 -2.43931 4.7188 0
M  V30 18594 C 1744.64 -1.90862 5.81582 0
M  V30 18595 N 1743.78 -2.98482 6.35494 0
M  V30 18596 H 1748.62 -0.0390456 2.97974 0
M  V30 18597 H 1746.16 -0.00750636 1.47098 0
M  V30 18598 H 1748.12 -2.49184 3.34609 0
M  V30 18599 H 1746.75 -2.34933 2.21374 0
M  V30 18600 H 1745.8 -0.497288 3.77136 0
M  V30 18601 H 1747.11 -0.868957 4.91173 0
M  V30 18602 H 1746.26 -3.21295 5.1464 0
M  V30 18603 H 1745 -2.90118 3.92024 0
M  V30 18604 H 1744.01 -1.11977 5.38276 0
M  V30 18605 H 1745.23 -1.45616 6.63304 0
M  V30 18606 H 1743.18 -3.44058 5.58534 0
M  V30 18607 H 1743.1 -2.60014 7.09879 0
M  V30 18608 H 1744.36 -3.75833 6.82913 0
M  V30 18609 N 1748.59 -1.576 -0.00164943 0
M  V30 18610 C 1749.5 -2.11748 -1.00995 0
M  V30 18611 C 1750.52 -1.06235 -1.37805 0
M  V30 18612 O 1751.69 -1.38127 -1.4657 0
M  V30 18613 C 1748.76 -2.60869 -2.2836 0
M  V30 18614 C 1747.82 -3.80976 -1.97879 0
M  V30 18615 C 1747.05 -4.27745 -3.19171 0
M  V30 18616 O 1747.28 -3.73856 -4.30799 0
M  V30 18617 O 1746.21 -5.19917 -3.03265 0
M  V30 18618 H 1750.04 -2.98117 -0.579667 0
M  V30 18619 H 1747.62 -1.47766 -0.220375 0
M  V30 18620 H 1749.5 -2.9267 -3.03187 0
M  V30 18621 H 1748.18 -1.77598 -2.7063 0
M  V30 18622 H 1747.09 -3.54151 -1.20533 0
M  V30 18623 H 1748.42 -4.65315 -1.60447 0
M  V30 18624 N 1750.07 0.274379 -1.55193 0
M  V30 18625 C 1751 1.36461 -1.82903 0
M  V30 18626 C 1751.98 1.47607 -0.681977 0
M  V30 18627 O 1753.17 1.64253 -0.924827 0
M  V30 18628 C 1750.29 2.74116 -1.98942 0
M  V30 18629 C 1749.34 2.80261 -3.2149 0
M  V30 18630 S 1750.17 2.39647 -4.78884 0
M  V30 18631 C 1751.33 3.79279 -4.97894 0
M  V30 18632 H 1751.56 1.12752 -2.75089 0
M  V30 18633 H 1749.09 0.473936 -1.46946 0
M  V30 18634 H 1751.05 3.5339 -2.08868 0
M  V30 18635 H 1749.71 2.95078 -1.07647 0
M  V30 18636 H 1748.91 3.81291 -3.29595 0
M  V30 18637 H 1748.51 2.09007 -3.10148 0
M  V30 18638 H 1750.8 4.74537 -4.83551 0
M  V30 18639 H 1751.74 3.76127 -5.99945 0
M  V30 18640 H 1752.15 3.70518 -4.25883 0
M  V30 18641 N 1751.55 1.48103 0.538828 0
M  V30 18642 C 1752.79 1.559 1.29704 0
M  V30 18643 C 1753.13 0.228359 1.92853 0
M  V30 18644 O 1752.4 -0.764825 1.78831 0
M  V30 18645 C 1752.69 2.69072 2.39316 0
M  V30 18646 C 1752.54 4.11812 1.80916 0
M  V30 18647 C 1753.86 2.78051 3.41138 0
M  V30 18648 H 1750.98 0.5675 0.470226 0
M  V30 18649 H 1753.62 1.80239 0.601163 0
M  V30 18650 H 1751.77 2.4845 2.98672 0
M  V30 18651 H 1753.44 4.4385 1.25679 0
M  V30 18652 H 1751.68 4.19227 1.11494 0
M  V30 18653 H 1752.35 4.86805 2.6024 0
M  V30 18654 H 1754.83 2.96707 2.91726 0
M  V30 18655 H 1753.71 3.58982 4.15239 0
M  V30 18656 H 1753.97 1.85849 4.01139 0
M  V30 18657 N 1753.03 -0.787016 1.36542 0
M  V30 18658 C 1754.27 -1.54499 1.30906 0
M  V30 18659 C 1754.6 -1.94183 -0.110963 0
M  V30 18660 O 1753.86 -1.63149 -1.08079 0
M  V30 18661 C 1754.16 -2.83235 2.17974 0
M  V30 18662 C 1753.82 -2.62677 3.66485 0
M  V30 18663 C 1752.48 -2.56779 4.06962 0
M  V30 18664 C 1754.84 -2.43853 4.60636 0
M  V30 18665 C 1752.16 -2.30026 5.39727 0
M  V30 18666 C 1754.52 -2.18626 5.93621 0
M  V30 18667 C 1753.18 -2.11162 6.33219 0
M  V30 18668 H 1752.45 -0.565352 0.479017 0
M  V30 18669 H 1755.1 -0.907794 1.68616 0
M  V30 18670 H 1753.4 -3.51435 1.73208 0
M  V30 18671 H 1755.1 -3.41038 2.10936 0
M  V30 18672 H 1751.69 -2.68125 3.34376 0
M  V30 18673 H 1755.87 -2.4741 4.30235 0
M  V30 18674 H 1751.13 -2.22731 5.69386 0
M  V30 18675 H 1755.3 -2.03056 6.66139 0
M  V30 18676 H 1752.93 -1.90195 7.36023 0
M  V30 18677 N 1754.5 -1.20861 -1.01145 0
M  V30 18678 C 1755.92 -1.02156 -1.56272 0
M  V30 18679 C 1756.27 0.420552 -1.9164 0
M  V30 18680 O 1755.39 1.30277 -1.72792 0
M  V30 18681 C 1755.99 -1.84812 -2.83954 0
M  V30 18682 C 1754.55 -1.70458 -3.35591 0
M  V30 18683 C 1753.69 -1.82425 -2.08846 0
M  V30 18684 H 1756.64 -1.34978 -0.834669 0
M  V30 18685 H 1756.66 -1.35455 -3.55573 0
M  V30 18686 H 1756.18 -2.89765 -2.58181 0
M  V30 18687 H 1754.28 -0.681631 -3.66312 0
M  V30 18688 H 1754.39 -2.52041 -4.07446 0
M  V30 18689 H 1752.75 -1.25665 -2.21541 0
M  V30 18690 H 1753.54 -2.88872 -1.85493 0
M  V30 18691 N 1755.98 1.20536 -1.01532 0
M  V30 18692 C 1757.21 1.94393 -0.722908 0
M  V30 18693 C 1757.63 1.74191 0.709857 0
M  V30 18694 O 1756.99 1.03538 1.48827 0
M  V30 18695 C 1757.04 3.44597 -1.06231 0
M  V30 18696 O 1756.14 4.12036 -0.173286 0
M  V30 18697 H 1755.48 0.607361 -0.268345 0
M  V30 18698 H 1758.01 1.53003 -1.35835 0
M  V30 18699 H 1758.02 3.95212 -1.01348 0
M  V30 18700 H 1756.7 3.58624 -2.10621 0
M  V30 18701 H 1755.28 3.71851 -0.27953 0
M  V30 18702 N 1757.46 0.791395 1.36289 0
M  V30 18703 C 1758.69 0.375566 2.03971 0
M  V30 18704 C 1759.11 -1.00061 1.59277 0
M  V30 18705 O 1758.47 -1.64501 0.762182 0
M  V30 18706 C 1758.52 0.449891 3.57783 0
M  V30 18707 O 1757.62 -0.54243 4.08817 0
M  V30 18708 H 1756.96 0.159181 0.644637 0
M  V30 18709 H 1759.49 1.07306 1.74203 0
M  V30 18710 H 1759.5 0.314206 4.06788 0
M  V30 18711 H 1758.18 1.45377 3.89665 0
M  V30 18712 H 1756.75 -0.368243 3.71077 0
M  V30 18713 N 1758.94 -1.47929 0.54358 0
M  V30 18714 C 1760.36 -1.58312 0.202376 0
M  V30 18715 C 1760.56 -1.54394 -1.29479 0
M  V30 18716 O 1759.61 -1.44015 -2.07403 0
M  V30 18717 C 1760.92 -2.89389 0.816958 0
M  V30 18718 C 1762.47 -3.02946 0.786935 0
M  V30 18719 C 1762.95 -4.36704 1.38034 0
M  V30 18720 N 1764.44 -4.43306 1.34291 0
M  V30 18721 C 1765.17 -5.45339 1.77182 0
M  V30 18722 N 1764.67 -6.54255 2.27866 0
M  V30 18723 N 1766.46 -5.36302 1.68336 0
M  V30 18724 H 1758.61 -1.48719 1.51646 0
M  V30 18725 H 1760.88 -0.706966 0.631587 0
M  V30 18726 H 1760.58 -2.97953 1.86861 0
M  V30 18727 H 1760.46 -3.75989 0.30198 0
M  V30 18728 H 1762.84 -2.93988 -0.25599 0
M  V30 18729 H 1762.92 -2.17923 1.33953 0
M  V30 18730 H 1762.57 -4.46418 2.42226 0
M  V30 18731 H 1762.5 -5.20437 0.803308 0
M  V30 18732 H 1764.99 -3.65185 0.972033 0
M  V30 18733 H 1765.3 -7.28265 2.58552 0
M  V30 18734 H 1763.65 -6.55181 2.31868 0
M  V30 18735 H 1766.84 -4.50109 1.28527 0
M  V30 18736 H 1767.01 -6.15684 2.02082 0
M  V30 18737 N 1760.42 -0.27936 -1.55104 0
M  V30 18738 C 1761.37 0.62221 -2.24123 0
M  V30 18739 C 1762.36 1.15445 -1.23971 0
M  V30 18740 O 1763.57 1.10759 -1.41889 0
M  V30 18741 H 1759.94 0.219212 -0.71934 0
M  V30 18742 H 1761.91 0.0173061 -2.98395 0
M  V30 18743 C 1760.66 1.79301 -2.97903 0
M  V30 18744 H 1759.98 1.39266 -3.7476 0
M  V30 18745 H 1761.42 2.40038 -3.49511 0
M  V30 18746 C 1759.88 2.68405 -2.03618 0
M  V30 18747 O 1760.41 3.68887 -1.59014 0
M  V30 18748 N 1758.62 2.35666 -1.70028 0
M  V30 18749 H 1758.17 1.54003 -2.06497 0
M  V30 18750 H 1758.12 2.95554 -1.07215 0
M  V30 18751 N 1761.9 1.57599 -0.0067085 0
M  V30 18752 C 1762.83 2.11878 0.981331 0
M  V30 18753 C 1763.81 1.02949 1.35408 0
M  V30 18754 O 1764.99 1.30667 1.43665 0
M  V30 18755 C 1762.12 2.62757 2.27104 0
M  V30 18756 C 1761.08 3.76272 2.0397 0
M  V30 18757 C 1760.4 4.13491 3.39012 0
M  V30 18758 C 1761.7 5.03274 1.39688 0
M  V30 18759 H 1763.4 2.94683 0.529366 0
M  V30 18760 H 1760.94 1.41757 0.253187 0
M  V30 18761 H 1762.89 2.99359 2.96585 0
M  V30 18762 H 1761.62 1.77082 2.74426 0
M  V30 18763 H 1760.28 3.40074 1.36913 0
M  V30 18764 H 1759.93 3.24831 3.8405 0
M  V30 18765 H 1759.63 4.89972 3.24347 0
M  V30 18766 H 1761.15 4.52657 4.09797 0
M  V30 18767 H 1762.56 5.37604 1.99136 0
M  V30 18768 H 1760.96 5.84604 1.3549 0
M  V30 18769 H 1762.03 4.8351 0.366928 0
M  V30 18770 N 1763.37 -0.266145 1.55336 0
M  V30 18771 C 1764.62 -0.996831 1.76265 0
M  V30 18772 C 1764.95 -1.86035 0.567553 0
M  V30 18773 O 1764.2 -1.90462 -0.449754 0
M  V30 18774 C 1764.5 -1.90357 3.02488 0
M  V30 18775 C 1764.17 -1.19699 4.34722 0
M  V30 18776 C 1762.83 -1.00164 4.7066 0
M  V30 18777 C 1765.18 -0.694703 5.16549 0
M  V30 18778 C 1762.51 -0.291394 5.85976 0
M  V30 18779 C 1764.86 0.00198006 6.326 0
M  V30 18780 C 1763.53 0.20898 6.67173 0
M  V30 18781 H 1762.8 -0.364766 0.645001 0
M  V30 18782 H 1765.44 -0.268528 1.89608 0
M  V30 18783 H 1763.75 -2.69831 2.84075 0
M  V30 18784 H 1765.45 -2.47026 3.15878 0
M  V30 18785 H 1762.04 -1.35916 4.06479 0
M  V30 18786 H 1766.22 -0.833229 4.89256 0
M  V30 18787 H 1761.48 -0.120359 6.11282 0
M  V30 18788 H 1765.65 0.398909 6.95257 0
M  V30 18789 H 1763.28 0.761301 7.56378 0
M  V30 18790 N 1764.85 -1.48386 -0.530967 0
M  V30 18791 C 1765.78 -1.6573 -1.64486 0
M  V30 18792 C 1766.76 -0.506198 -1.62393 0
M  V30 18793 O 1767.95 -0.738623 -1.79605 0
M  V30 18794 C 1765.08 -1.69594 -3.03076 0
M  V30 18795 C 1764.03 -2.84195 -3.20027 0
M  V30 18796 C 1763.36 -2.73148 -4.59668 0
M  V30 18797 C 1764.66 -4.25504 -3.02892 0
M  V30 18798 H 1766.35 -2.58983 -1.50227 0
M  V30 18799 H 1763.9 -1.24633 -0.721286 0
M  V30 18800 H 1765.85 -1.80316 -3.80873 0
M  V30 18801 H 1764.57 -0.729193 -3.18356 0
M  V30 18802 H 1763.23 -2.73027 -2.44647 0
M  V30 18803 H 1762.88 -1.74444 -4.71782 0
M  V30 18804 H 1762.58 -3.50047 -4.71954 0
M  V30 18805 H 1764.11 -2.85836 -5.39565 0
M  V30 18806 H 1765.52 -4.37511 -3.70482 0
M  V30 18807 H 1763.92 -5.03393 -3.26673 0
M  V30 18808 H 1764.99 -4.42036 -1.99329 0
M  V30 18809 N 1766.33 0.779763 -1.36958 0
M  V30 18810 C 1767.56 1.56875 -1.34899 0
M  V30 18811 C 1767.97 1.88679 0.0675345 0
M  V30 18812 O 1767.33 1.50852 1.02712 0
M  V30 18813 C 1767.38 2.88391 -2.17975 0
M  V30 18814 O 1767.1 2.57954 -3.54107 0
M  V30 18815 C 1768.6 3.82657 -2.23805 0
M  V30 18816 H 1765.82 0.486262 -0.462374 0
M  V30 18817 H 1768.37 0.967072 -1.80189 0
M  V30 18818 H 1766.52 3.45003 -1.76215 0
M  V30 18819 H 1766.94 3.42115 -3.97564 0
M  V30 18820 H 1768.41 4.71967 -2.86272 0
M  V30 18821 H 1768.89 4.21208 -1.24421 0
M  V30 18822 H 1769.49 3.31976 -2.65843 0
M  V30 18823 N 1767.81 1.21396 1.00503 0
M  V30 18824 C 1768.76 0.97023 2.11398 0
M  V30 18825 C 1769.75 -0.0825019 1.69199 0
M  V30 18826 O 1770.96 0.0688841 1.79868 0
M  V30 18827 H 1767.33 0.296494 0.691083 0
M  V30 18828 H 1769.3 1.91155 2.29134 0
M  V30 18829 C 1768.05 0.551472 3.43299 0
M  V30 18830 H 1767.37 1.35316 3.76204 0
M  V30 18831 H 1768.81 0.420249 4.21912 0
M  V30 18832 C 1767.27 -0.737588 3.28727 0
M  V30 18833 O 1767.8 -1.79313 3.59458 0
M  V30 18834 N 1766.01 -0.704084 2.81942 0
M  V30 18835 H 1765.56 0.155183 2.57132 0
M  V30 18836 H 1765.51 -1.56689 2.72573 0
M  V30 18837 N 1769.29 -1.19996 1.0217 0
M  V30 18838 C 1770.22 -2.25206 0.616818 0
M  V30 18839 C 1771.2 -1.66013 -0.370653 0
M  V30 18840 O 1772.38 -1.92519 -0.254956 0
M  V30 18841 C 1769.51 -3.47276 -0.0405129 0
M  V30 18842 C 1768.47 -4.19096 0.868479 0
M  V30 18843 C 1767.79 -5.34645 0.0766447 0
M  V30 18844 C 1769.09 -4.7468 2.1789 0
M  V30 18845 H 1770.79 -2.59328 1.49632 0
M  V30 18846 H 1768.33 -1.24655 0.720917 0
M  V30 18847 H 1770.28 -4.20063 -0.335355 0
M  V30 18848 H 1769.01 -3.12333 -0.954759 0
M  V30 18849 H 1767.67 -3.48181 1.1474 0
M  V30 18850 H 1767.32 -4.95946 -0.839411 0
M  V30 18851 H 1767.02 -5.83628 0.682041 0
M  V30 18852 H 1768.54 -6.10233 -0.211624 0
M  V30 18853 H 1769.95 -5.39259 1.94608 0
M  V30 18854 H 1768.35 -5.34121 2.7356 0
M  V30 18855 H 1769.42 -3.93141 2.83845 0
M  V30 18856 N 1770.76 -0.798611 -1.35867 0
M  V30 18857 C 1772.04 -0.298858 -1.93303 0
M  V30 18858 C 1772.42 1.21038 -1.72954 0
M  V30 18859 O 1771.77 2.00617 -1.09386 0
M  V30 18860 C 1771.98 -0.701532 -3.41876 0
M  V30 18861 C 1773.33 -0.686486 -4.19014 0
M  V30 18862 O 1774.35 -0.642577 -3.50356 0
M  V30 18863 O 1773.21 -0.737653 -5.41499 0
M  V30 18864 H 1770.3 -0.0762987 -0.823473 0
M  V30 18865 H 1772.85 -0.881773 -1.44993 0
M  V30 18866 H 1771.62 -1.74204 -3.50383 0
M  V30 18867 H 1771.24 -0.092994 -3.97491 0
M  V30 18868 N 1772.24 1.47639 -0.551417 0
M  V30 18869 C 1773.19 2.31626 0.212654 0
M  V30 18870 C 1774.18 1.42567 0.914925 0
M  V30 18871 O 1775.39 1.59363 0.836869 0
M  V30 18872 H 1771.76 0.746898 0.0874493 0
M  V30 18873 H 1773.74 2.93923 -0.514976 0
M  V30 18874 C 1772.48 3.25098 1.23316 0
M  V30 18875 H 1771.81 3.93585 0.702196 0
M  V30 18876 H 1773.25 3.86707 1.73878 0
M  V30 18877 C 1771.71 2.48209 2.27802 0
M  V30 18878 O 1772.24 2.22235 3.34626 0
M  V30 18879 N 1770.44 2.09321 2.01577 0
M  V30 18880 H 1769.99 2.30645 1.14719 0
M  V30 18881 H 1769.95 1.58191 2.71704 0
M  V30 18882 N 1773.72 0.287581 1.54954 0
M  V30 18883 C 1774.65 -0.587855 2.25979 0
M  V30 18884 C 1775.63 -1.14884 1.25442 0
M  V30 18885 O 1776.82 -1.18067 1.54188 0
M  V30 18886 C 1773.95 -1.76618 2.99037 0
M  V30 18887 C 1772.9 -1.33617 4.06609 0
M  V30 18888 C 1772.23 -2.59859 4.67309 0
M  V30 18889 C 1773.53 -0.477219 5.20115 0
M  V30 18890 H 1775.22 0.00450183 2.994 0
M  V30 18891 H 1772.77 0.00360521 1.44 0
M  V30 18892 H 1774.72 -2.38461 3.4744 0
M  V30 18893 H 1773.44 -2.38457 2.23172 0
M  V30 18894 H 1772.1 -0.74088 3.59036 0
M  V30 18895 H 1771.75 -3.19983 3.88098 0
M  V30 18896 H 1771.45 -2.31793 5.3995 0
M  V30 18897 H 1772.97 -3.22528 5.18467 0
M  V30 18898 H 1774.39 -1.00096 5.64494 0
M  V30 18899 H 1772.79 -0.290913 5.99394 0
M  V30 18900 H 1773.86 0.500993 4.82305 0
M  V30 18901 N 1775.2 -1.57593 0.0150662 0
M  V30 18902 C 1776.15 -2.0585 -0.980291 0
M  V30 18903 C 1777.13 -0.956179 -1.29406 0
M  V30 18904 O 1778.32 -1.21985 -1.28253 0
M  V30 18905 C 1775.45 -2.57769 -2.26738 0
M  V30 18906 C 1774.54 -3.74906 -1.98259 0
M  V30 18907 N 1774.93 -4.8604 -1.39995 0
M  V30 18908 C 1773.23 -3.83124 -2.28325 0
M  V30 18909 C 1773.93 -5.67368 -1.28329 0
M  V30 18910 N 1772.91 -5.13837 -1.77404 0
M  V30 18911 H 1776.71 -2.89181 -0.524549 0
M  V30 18912 H 1774.22 -1.61281 -0.190285 0
M  V30 18913 H 1776.22 -2.90624 -2.98903 0
M  V30 18914 H 1774.88 -1.75862 -2.72952 0
M  V30 18915 H 1775.89 -5.06583 -1.07678 0
M  V30 18916 H 1772.57 -3.12099 -2.77309 0
M  V30 18917 H 1773.96 -6.66704 -0.833956 0
M  V30 18918 N 1776.68 0.257904 -1.55475 0
M  V30 18919 C 1777.59 1.34084 -1.92506 0
M  V30 18920 C 1778.6 1.53246 -0.824123 0
M  V30 18921 O 1779.78 1.67081 -1.12455 0
M  V30 18922 C 1776.84 2.67741 -2.20263 0
M  V30 18923 C 1775.9 2.57196 -3.43728 0
M  V30 18924 C 1775.14 3.84479 -3.7015 0
M  V30 18925 O 1775.36 4.85858 -2.98827 0
M  V30 18926 O 1774.29 3.83774 -4.63682 0
M  V30 18927 H 1778.12 1.05672 -2.84723 0
M  V30 18928 H 1775.71 0.457726 -1.42215 0
M  V30 18929 H 1777.59 3.46743 -2.39473 0
M  V30 18930 H 1776.26 2.95907 -1.31227 0
M  V30 18931 H 1775.17 1.76518 -3.29837 0
M  V30 18932 H 1776.5 2.33977 -4.33031 0
M  V30 18933 N 1778.15 1.48666 0.52309 0
M  V30 18934 C 1779.1 1.64155 1.6479 0
M  V30 18935 C 1780.1 0.507838 1.61609 0
M  V30 18936 O 1781.3 0.686784 1.66383 0
M  V30 18937 H 1777.68 0.517234 0.545869 0
M  V30 18938 H 1779.65 2.58611 1.48871 0
M  V30 18939 C 1778.4 1.70488 3.03033 0
M  V30 18940 H 1777.72 2.5709 3.06178 0
M  V30 18941 H 1779.16 1.85367 3.81333 0
M  V30 18942 C 1777.62 0.444984 3.33948 0
M  V30 18943 O 1778.15 -0.439107 3.99293 0
M  V30 18944 N 1776.36 0.314593 2.88892 0
M  V30 18945 H 1775.9 1.03501 2.35893 0
M  V30 18946 H 1775.86 -0.527357 3.09946 0
M  V30 18947 N 1779.63 -0.772489 1.37369 0
M  V30 18948 C 1780.58 -1.90713 1.33158 0
M  V30 18949 C 1781.57 -1.67959 0.220482 0
M  V30 18950 O 1782.78 -1.75758 0.388465 0
M  V30 18951 H 1779.16 -0.627149 0.414956 0
M  V30 18952 H 1781.13 -1.91382 2.28944 0
M  V30 18953 C 1779.88 -3.27966 1.1547 0
M  V30 18954 H 1779.2 -3.46052 2.00221 0
M  V30 18955 H 1780.64 -4.0766 1.16574 0
M  V30 18956 C 1779.1 -3.3661 -0.139688 0
M  V30 18957 O 1779.63 -3.85668 -1.12353 0
M  V30 18958 N 1777.83 -2.89977 -0.190134 0
M  V30 18959 H 1777.38 -2.50246 0.611134 0
M  V30 18960 H 1777.34 -2.96142 -1.05582 0
M  V30 18961 N 1781.11 -1.21927 -0.998575 0
M  V30 18962 C 1782.34 -1.06655 -1.77291 0
M  V30 18963 C 1782.75 0.38326 -1.84869 0
M  V30 18964 O 1782.11 1.26575 -1.31473 0
M  V30 18965 C 1782.16 -1.66478 -3.20885 0
M  V30 18966 O 1781.88 -3.05788 -3.13728 0
M  V30 18967 C 1783.38 -1.56404 -4.14792 0
M  V30 18968 H 1780.6 -0.3742 -0.55697 0
M  V30 18969 H 1783.15 -1.61401 -1.25579 0
M  V30 18970 H 1781.3 -1.15809 -3.69685 0
M  V30 18971 H 1781.72 -3.34503 -4.0399 0
M  V30 18972 H 1783.19 -2.02995 -5.1332 0
M  V30 18973 H 1783.67 -0.519591 -4.36116 0
M  V30 18974 H 1784.27 -2.06352 -3.71886 0
M  V30 18975 N 1782.59 1.19452 -1.02805 0
M  V30 18976 C 1783.54 2.20533 -0.578732 0
M  V30 18977 C 1784.52 1.56539 0.372081 0
M  V30 18978 O 1785.71 1.75943 0.193185 0
M  V30 18979 C 1782.84 3.43229 0.0698982 0
M  V30 18980 C 1781.93 4.14368 -0.903306 0
M  V30 18981 N 1782.32 4.61709 -2.0654 0
M  V30 18982 C 1780.62 4.40042 -0.726572 0
M  V30 18983 C 1781.32 5.1633 -2.67914 0
M  V30 18984 N 1780.3 5.0708 -1.95884 0
M  V30 18985 H 1784.1 2.54813 -1.46451 0
M  V30 18986 H 1781.61 1.35517 -0.894927 0
M  V30 18987 H 1783.61 4.14885 0.409411 0
M  V30 18988 H 1782.27 3.1045 0.951368 0
M  V30 18989 H 1783.28 4.5656 -2.44485 0
M  V30 18990 H 1779.96 4.17366 0.105875 0
M  V30 18991 H 1781.35 5.63254 -3.66326 0
M  V30 18992 N 1784.07 0.805805 1.35442 0
M  V30 18993 C 1785.01 0.203715 2.31706 0
M  V30 18994 C 1786.01 -0.646084 1.56595 0
M  V30 18995 O 1787.21 -0.539336 1.7173 0
M  V30 18996 H 1783.59 0.0471152 0.750523 0
M  V30 18997 H 1785.56 1.03076 2.80032 0
M  V30 18998 C 1784.31 -0.633791 3.41875 0
M  V30 18999 H 1783.63 0.0107715 3.99799 0
M  V30 19000 H 1785.07 -1.02147 4.11512 0
M  V30 19001 C 1783.53 -1.79899 2.84847 0
M  V30 19002 O 1784.06 -2.89643 2.78334 0
M  V30 19003 N 1782.27 -1.61027 2.41906 0
M  V30 19004 H 1781.81 -0.717599 2.47403 0
M  V30 19005 H 1781.77 -2.39147 2.04099 0
M  V30 19006 N 1785.54 -1.47344 0.559239 0
M  V30 19007 C 1786.48 -2.28095 -0.224826 0
M  V30 19008 C 1787.49 -1.37127 -0.877492 0
M  V30 19009 O 1788.68 -1.61933 -0.751002 0
M  V30 19010 C 1785.78 -3.1145 -1.33611 0
M  V30 19011 C 1784.95 -4.30392 -0.779845 0
M  V30 19012 C 1784.01 -4.95327 -1.77587 0
M  V30 19013 O 1783.04 -5.53654 -1.32119 0
M  V30 19014 N 1784.24 -4.90206 -3.10931 0
M  V30 19015 H 1787 -2.96026 0.46786 0
M  V30 19016 H 1784.56 -1.56996 0.395448 0
M  V30 19017 H 1786.56 -3.51758 -2.00121 0
M  V30 19018 H 1785.13 -2.45749 -1.932 0
M  V30 19019 H 1784.35 -3.94151 0.0620861 0
M  V30 19020 H 1785.63 -5.07322 -0.387581 0
M  V30 19021 H 1785.03 -4.44022 -3.50515 0
M  V30 19022 H 1783.59 -5.34527 -3.72994 0
M  V30 19023 N 1787.02 -0.295795 -1.54799 0
M  V30 19024 C 1787.93 0.592206 -2.27002 0
M  V30 19025 C 1788.95 1.1528 -1.30332 0
M  V30 19026 O 1790.12 1.1787 -1.63305 0
M  V30 19027 C 1787.19 1.75027 -2.99277 0
M  V30 19028 C 1786.25 1.22427 -4.11473 0
M  V30 19029 C 1785.48 2.32714 -4.80291 0
M  V30 19030 O 1785.71 3.52506 -4.48437 0
M  V30 19031 O 1784.64 1.997 -5.67806 0
M  V30 19032 H 1788.47 0.00666048 -3.03699 0
M  V30 19033 H 1786.05 -0.0624413 -1.49269 0
M  V30 19034 H 1787.93 2.42508 -3.44627 0
M  V30 19035 H 1786.61 2.32252 -2.25479 0
M  V30 19036 H 1785.52 0.515337 -3.70534 0
M  V30 19037 H 1786.85 0.697518 -4.87233 0
M  V30 19038 N 1788.5 1.57583 -0.0234236 0
M  V30 19039 C 1789.45 2.09872 0.960327 0
M  V30 19040 C 1790.42 0.999466 1.32665 0
M  V30 19041 O 1791.6 1.27332 1.42095 0
M  V30 19042 C 1788.74 2.62578 2.23935 0
M  V30 19043 C 1787.86 3.86491 1.92999 0
M  V30 19044 C 1786.99 4.27611 3.15154 0
M  V30 19045 C 1786.03 5.44298 2.80011 0
M  V30 19046 N 1785.17 5.80601 3.94775 0
M  V30 19047 H 1790.01 2.93647 0.507502 0
M  V30 19048 H 1787.54 1.45147 0.238911 0
M  V30 19049 H 1789.5 2.91223 2.98739 0
M  V30 19050 H 1788.13 1.81643 2.66844 0
M  V30 19051 H 1787.18 3.6461 1.08462 0
M  V30 19052 H 1788.5 4.71377 1.63112 0
M  V30 19053 H 1787.65 4.57663 3.98284 0
M  V30 19054 H 1786.39 3.41481 3.48198 0
M  V30 19055 H 1785.39 5.13946 1.95293 0
M  V30 19056 H 1786.62 6.32122 2.4819 0
M  V30 19057 H 1784.57 4.97427 4.27671 0
M  V30 19058 H 1784.48 6.60113 3.68492 0
M  V30 19059 H 1785.75 6.15255 4.78624 0
M  V30 19060 N 1789.98 -0.249655 1.5561 0
M  V30 19061 C 1790.93 -1.30906 1.90085 0
M  V30 19062 C 1791.9 -1.4796 0.754784 0
M  V30 19063 O 1793.08 -1.61988 1.00819 0
M  V30 19064 C 1790.22 -2.66 2.19859 0
M  V30 19065 C 1789.33 -2.56976 3.47257 0
M  V30 19066 C 1788.47 -3.84404 3.66615 0
M  V30 19067 C 1787.51 -3.69986 4.87623 0
M  V30 19068 N 1786.65 -4.89301 5.03517 0
M  V30 19069 H 1791.49 -1.00805 2.80432 0
M  V30 19070 H 1789.02 -0.486509 1.38822 0
M  V30 19071 H 1790.98 -3.44632 2.35126 0
M  V30 19072 H 1789.61 -2.94254 1.32719 0
M  V30 19073 H 1788.66 -1.69927 3.40337 0
M  V30 19074 H 1789.97 -2.42231 4.36034 0
M  V30 19075 H 1789.13 -4.7148 3.81826 0
M  V30 19076 H 1787.87 -4.02043 2.76066 0
M  V30 19077 H 1786.87 -2.81294 4.72391 0
M  V30 19078 H 1788.1 -3.53845 5.7963 0
M  V30 19079 H 1786.04 -5.07306 4.15905 0
M  V30 19080 H 1785.96 -4.77176 5.86378 0
M  V30 19081 H 1787.23 -5.77883 5.23137 0
M  V30 19082 N 1791.46 -1.48941 -0.515198 0
M  V30 19083 C 1792.71 -1.5696 -1.26674 0
M  V30 19084 C 1793.02 -0.255062 -1.9393 0
M  V30 19085 O 1794.23 -0.213645 -2.70658 0
M  V30 19086 C 1792.68 -2.76877 -2.29928 0
M  V30 19087 C 1792.29 -4.15033 -1.68676 0
M  V30 19088 C 1794.03 -2.94218 -3.06 0
M  V30 19089 C 1791.94 -5.26191 -2.69957 0
M  V30 19090 H 1790.87 -0.584377 -0.476465 0
M  V30 19091 H 1793.52 -1.75303 -0.542322 0
M  V30 19092 H 1791.9 -2.51999 -3.05471 0
M  V30 19093 H 1793.08 -4.49991 -0.992215 0
M  V30 19094 H 1791.39 -4.02932 -1.05045 0
M  V30 19095 H 1793.99 -3.74433 -3.81712 0
M  V30 19096 H 1794.33 -2.04235 -3.62759 0
M  V30 19097 H 1794.87 -3.19068 -2.37572 0
M  V30 19098 H 1791.6 -6.18189 -2.17998 0
M  V30 19099 H 1791.12 -4.95705 -3.37694 0
M  V30 19100 H 1792.8 -5.54929 -3.32659 0
M  V30 19101 N 1792.94 0.765193 -1.37777 0
M  V30 19102 C 1793.87 1.888 -1.29951 0
M  V30 19103 C 1794.88 1.61387 -0.213996 0
M  V30 19104 O 1796.07 1.72183 -0.470657 0
M  V30 19105 C 1793.17 3.24178 -0.988004 0
M  V30 19106 C 1792.34 3.79186 -2.18029 0
M  V30 19107 C 1791.4 4.93054 -1.83804 0
M  V30 19108 O 1790.43 5.08296 -2.56172 0
M  V30 19109 N 1791.63 5.75153 -0.786062 0
M  V30 19110 H 1794.39 1.96028 -2.267 0
M  V30 19111 H 1791.96 0.944602 -1.31487 0
M  V30 19112 H 1793.95 3.97881 -0.739771 0
M  V30 19113 H 1792.52 3.1241 -0.108852 0
M  V30 19114 H 1791.74 2.97185 -2.58988 0
M  V30 19115 H 1793.03 4.12669 -2.97627 0
M  V30 19116 H 1792.42 5.65395 -0.185678 0
M  V30 19117 H 1790.98 6.49054 -0.597697 0
M  V30 19118 N 1794.41 1.22455 0.992094 0
M  V30 19119 C 1795.32 1.01173 2.11663 0
M  V30 19120 C 1796.34 -0.0402168 1.73954 0
M  V30 19121 O 1797.52 0.152685 2.0082 0
M  V30 19122 C 1794.58 0.592995 3.41591 0
M  V30 19123 C 1793.64 1.71865 3.93397 0
M  V30 19124 C 1792.87 1.3198 5.17124 0
M  V30 19125 O 1793.1 0.198943 5.70053 0
M  V30 19126 O 1792.03 2.13658 5.62702 0
M  V30 19127 H 1795.86 1.9539 2.32501 0
M  V30 19128 H 1793.44 1.01056 1.10036 0
M  V30 19129 H 1795.32 0.36987 4.19774 0
M  V30 19130 H 1794 -0.320311 3.22111 0
M  V30 19131 H 1792.91 1.9963 3.16384 0
M  V30 19132 H 1794.24 2.60985 4.1731 0
M  V30 19133 N 1795.89 -1.18905 1.03437 0
M  V30 19134 C 1796.8 -2.25979 0.63014 0
M  V30 19135 C 1797.82 -1.70633 -0.340668 0
M  V30 19136 O 1798.99 -2.00432 -0.197174 0
M  V30 19137 C 1796.06 -3.46699 -0.00713795 0
M  V30 19138 C 1795.12 -4.17205 1.01187 0
M  V30 19139 C 1794.35 -5.32162 0.404909 0
M  V30 19140 O 1794.58 -5.64894 -0.790638 0
M  V30 19141 O 1793.51 -5.91188 1.13048 0
M  V30 19142 H 1797.34 -2.62808 1.52203 0
M  V30 19143 H 1794.92 -1.25865 0.804878 0
M  V30 19144 H 1796.8 -4.1984 -0.362204 0
M  V30 19145 H 1795.48 -3.11707 -0.872948 0
M  V30 19146 H 1794.38 -3.46159 1.41862 0
M  V30 19147 H 1795.72 -4.56181 1.84823 0
M  V30 19148 N 1797.37 -0.812977 -1.35013 0
M  V30 19149 C 1798.62 -0.392801 -1.97838 0
M  V30 19150 C 1798.93 1.04728 -1.65201 0
M  V30 19151 O 1800.14 1.57088 -2.2144 0
M  V30 19152 C 1798.59 -0.651399 -3.53956 0
M  V30 19153 C 1798.2 -2.10444 -3.95496 0
M  V30 19154 C 1799.95 -0.296897 -4.2346 0
M  V30 19155 C 1797.85 -2.30845 -5.44485 0
M  V30 19156 H 1796.78 -0.143138 -0.740289 0
M  V30 19157 H 1799.43 -0.997933 -1.53992 0
M  V30 19158 H 1797.82 0.0237698 -3.95993 0
M  V30 19159 H 1798.99 -2.81795 -3.64593 0
M  V30 19160 H 1797.3 -2.41942 -3.389 0
M  V30 19161 H 1799.9 -0.427291 -5.3299 0
M  V30 19162 H 1800.24 0.757594 -4.09349 0
M  V30 19163 H 1800.78 -0.92624 -3.86866 0
M  V30 19164 H 1797.52 -3.34763 -5.63572 0
M  V30 19165 H 1797.04 -1.64027 -5.76936 0
M  V30 19166 H 1798.72 -2.12712 -6.11034 0
M  V30 19167 N 1798.85 1.47045 -0.567045 0
M  V30 19168 C 1799.76 2.33924 0.177998 0
M  V30 19169 C 1800.77 1.48797 0.901967 0
M  V30 19170 O 1801.95 1.81704 0.868662 0
M  V30 19171 C 1799.01 3.25687 1.18865 0
M  V30 19172 C 1798.08 4.26708 0.471049 0
M  V30 19173 C 1797.31 5.14087 1.43355 0
M  V30 19174 O 1797.53 5.041 2.66907 0
M  V30 19175 O 1796.47 5.94313 0.952674 0
M  V30 19176 H 1800.29 2.98952 -0.534907 0
M  V30 19177 H 1797.88 1.45765 -0.327571 0
M  V30 19178 H 1799.76 3.82342 1.7718 0
M  V30 19179 H 1798.43 2.63274 1.8833 0
M  V30 19180 H 1797.34 3.73785 -0.153539 0
M  V30 19181 H 1798.67 4.91862 -0.182337 0
M  V30 19182 N 1800.33 0.304 1.5464 0
M  V30 19183 C 1801.27 -0.570762 2.23631 0
M  V30 19184 C 1802.24 -1.1272 1.21998 0
M  V30 19185 O 1803.43 -1.17117 1.50626 0
M  V30 19186 C 1800.57 -1.73533 2.98296 0
M  V30 19187 C 1799.68 -1.21 4.14708 0
M  V30 19188 C 1798.82 -2.33867 4.76948 0
M  V30 19189 C 1797.85 -1.78483 5.855 0
M  V30 19190 N 1796.99 -2.84935 6.41682 0
M  V30 19191 H 1801.83 0.024168 2.9799 0
M  V30 19192 H 1799.37 0.023697 1.47081 0
M  V30 19193 H 1801.33 -2.42031 3.39819 0
M  V30 19194 H 1799.96 -2.30184 2.26308 0
M  V30 19195 H 1799.01 -0.41718 3.78105 0
M  V30 19196 H 1800.32 -0.764576 4.92905 0
M  V30 19197 H 1799.47 -3.10306 5.21339 0
M  V30 19198 H 1798.21 -2.81737 3.9809 0
M  V30 19199 H 1797.22 -1.00534 5.4053 0
M  V30 19200 H 1798.44 -1.31513 6.66244 0
M  V30 19201 H 1796.39 -3.32133 5.65706 0
M  V30 19202 H 1796.31 -2.44898 7.15235 0
M  V30 19203 H 1797.57 -3.61263 6.90731 0
M  V30 19204 N 1801.8 -1.57568 0.0317802 0
M  V30 19205 C 1802.75 -2.10379 -0.949183 0
M  V30 19206 C 1803.72 -1.00649 -1.32133 0
M  V30 19207 O 1804.91 -1.28084 -1.41418 0
M  V30 19208 C 1802.05 -2.63762 -2.22539 0
M  V30 19209 C 1801.16 -3.87509 -1.90946 0
M  V30 19210 C 1800.29 -4.29276 -3.12882 0
M  V30 19211 C 1799.33 -5.45775 -2.77121 0
M  V30 19212 N 1798.47 -5.82686 -3.9169 0
M  V30 19213 H 1803.31 -2.93912 -0.491922 0
M  V30 19214 H 1800.85 -1.45272 -0.23121 0
M  V30 19215 H 1802.8 -2.92803 -2.9719 0
M  V30 19216 H 1801.43 -1.83055 -2.65877 0
M  V30 19217 H 1800.49 -3.6518 -1.06526 0
M  V30 19218 H 1801.8 -4.72235 -1.6061 0
M  V30 19219 H 1800.95 -4.59768 -3.95851 0
M  V30 19220 H 1799.69 -3.43323 -3.46382 0
M  V30 19221 H 1798.7 -5.14974 -1.92565 0
M  V30 19222 H 1799.92 -6.3343 -2.44834 0
M  V30 19223 H 1797.87 -4.99688 -4.25027 0
M  V30 19224 H 1797.78 -6.62058 -3.64986 0
M  V30 19225 H 1799.05 -6.17785 -4.75355 0
M  V30 19226 N 1803.28 0.241399 -1.5574 0
M  V30 19227 C 1804.19 1.32034 -1.93918 0
M  V30 19228 C 1805.21 1.52363 -0.840331 0
M  V30 19229 O 1806.38 1.65879 -1.1422 0
M  V30 19230 C 1803.45 2.6539 -2.2309 0
M  V30 19231 C 1802.51 2.53536 -3.46436 0
M  V30 19232 C 1801.74 3.80532 -3.74208 0
M  V30 19233 O 1801.97 4.82662 -3.03964 0
M  V30 19234 O 1800.9 3.78834 -4.67727 0
M  V30 19235 H 1804.73 1.02647 -2.85827 0
M  V30 19236 H 1802.31 0.442616 -1.42693 0
M  V30 19237 H 1804.19 3.44184 -2.43137 0
M  V30 19238 H 1802.87 2.94499 -1.34358 0
M  V30 19239 H 1801.78 1.73009 -3.3169 0
M  V30 19240 H 1803.11 2.29371 -4.35488 0
M  V30 19241 N 1804.76 1.49212 0.507292 0
M  V30 19242 C 1805.99 1.6208 1.28599 0
M  V30 19243 C 1806.4 0.289745 1.86563 0
M  V30 19244 O 1805.76 -0.723987 1.67525 0
M  V30 19245 C 1805.81 2.68482 2.42074 0
M  V30 19246 O 1805.53 3.96424 1.86493 0
M  V30 19247 C 1807.03 2.91997 3.33546 0
M  V30 19248 H 1804.25 0.545831 0.390268 0
M  V30 19249 H 1806.8 1.95201 0.609652 0
M  V30 19250 H 1804.95 2.38156 3.05549 0
M  V30 19251 H 1805.37 4.54983 2.60942 0
M  V30 19252 H 1806.84 3.70195 4.09463 0
M  V30 19253 H 1807.32 2.01673 3.9016 0
M  V30 19254 H 1807.92 3.23715 2.75842 0
M  V30 19255 N 1806.24 -0.757876 1.38181 0
M  V30 19256 C 1807.17 -1.88519 1.37779 0
M  V30 19257 C 1808.15 -1.68336 0.24432 0
M  V30 19258 O 1809.33 -1.88991 0.446762 0
M  V30 19259 C 1806.46 -3.2599 1.19784 0
M  V30 19260 C 1805.42 -3.60764 2.30289 0
M  V30 19261 C 1804.74 -4.96927 1.97403 0
M  V30 19262 C 1806.04 -3.66082 3.72533 0
M  V30 19263 H 1807.74 -1.89112 2.32114 0
M  V30 19264 H 1805.28 -0.908442 1.11729 0
M  V30 19265 H 1807.24 -4.04504 1.18129 0
M  V30 19266 H 1805.96 -3.25864 0.219088 0
M  V30 19267 H 1804.62 -2.84566 2.31123 0
M  V30 19268 H 1804.27 -4.93356 0.98023 0
M  V30 19269 H 1803.97 -5.21162 2.7141 0
M  V30 19270 H 1805.49 -5.77825 1.97359 0
M  V30 19271 H 1806.91 -4.3472 3.73754 0
M  V30 19272 H 1805.3 -4.01824 4.4571 0
M  V30 19273 H 1806.37 -2.66412 4.05158 0
M  V30 19274 N 1807.72 -1.22979 -0.985586 0
M  V30 19275 C 1808.97 -1.05286 -1.7204 0
M  V30 19276 C 1809.28 0.411213 -1.91229 0
M  V30 19277 O 1810.48 0.70797 -2.62107 0
M  V30 19278 C 1808.94 -1.8355 -3.09576 0
M  V30 19279 C 1808.55 -3.34254 -2.98293 0
M  V30 19280 C 1810.29 -1.74329 -3.87052 0
M  V30 19281 C 1808.2 -4.0493 -4.31029 0
M  V30 19282 H 1807.13 -0.390364 -0.645083 0
M  V30 19283 H 1809.78 -1.46898 -1.09969 0
M  V30 19284 H 1808.16 -1.34741 -3.72372 0
M  V30 19285 H 1809.34 -3.90511 -2.44618 0
M  V30 19286 H 1807.65 -3.44231 -2.34294 0
M  V30 19287 H 1810.25 -2.24449 -4.85311 0
M  V30 19288 H 1810.59 -0.705078 -4.10286 0
M  V30 19289 H 1811.12 -2.20721 -3.30949 0
M  V30 19290 H 1807.86 -5.09035 -4.12993 0
M  V30 19291 H 1807.38 -3.5346 -4.84588 0
M  V30 19292 H 1809.06 -4.10935 -4.99742 0
M  V30 19293 N 1809.19 1.18355 -1.04066 0
M  V30 19294 C 1810.13 2.21482 -0.58977 0
M  V30 19295 C 1811.14 1.59198 0.340576 0
M  V30 19296 O 1812.33 1.77988 0.135094 0
M  V30 19297 C 1809.43 3.3853 0.158397 0
M  V30 19298 C 1808.6 4.30392 -0.779824 0
M  V30 19299 C 1807.66 5.26147 -0.0749517 0
M  V30 19300 O 1806.69 5.64812 -0.705381 0
M  V30 19301 N 1807.89 5.68137 1.19168 0
M  V30 19302 H 1810.65 2.60791 -1.47676 0
M  V30 19303 H 1808.21 1.33141 -0.921151 0
M  V30 19304 H 1810.21 3.99611 0.639788 0
M  V30 19305 H 1808.78 2.97913 0.946929 0
M  V30 19306 H 1808 3.66915 -1.44107 0
M  V30 19307 H 1809.28 4.88668 -1.41707 0
M  V30 19308 H 1808.68 5.38777 1.7244 0
M  V30 19309 H 1807.24 6.31415 1.61735 0
M  V30 19310 N 1810.67 0.820125 1.3458 0
M  V30 19311 C 1811.58 0.241913 2.33349 0
M  V30 19312 C 1812.6 -0.622228 1.62494 0
M  V30 19313 O 1813.77 -0.530787 1.9428 0
M  V30 19314 C 1810.84 -0.588944 3.41661 0
M  V30 19315 C 1809.9 0.29727 4.2827 0
M  V30 19316 C 1809.13 -0.494028 5.31409 0
M  V30 19317 O 1809.36 -1.72755 5.4361 0
M  V30 19318 O 1808.29 0.122182 6.01776 0
M  V30 19319 H 1812.12 1.05934 2.84626 0
M  V30 19320 H 1809.7 0.582205 1.37589 0
M  V30 19321 H 1811.58 -1.06174 4.07805 0
M  V30 19322 H 1810.26 -1.38374 2.92633 0
M  V30 19323 H 1809.17 0.817495 3.65059 0
M  V30 19324 H 1810.5 1.05635 4.80731 0
M  V30 19325 N 1812.15 -1.46743 0.574835 0
M  V30 19326 C 1813.1 -2.31935 -0.175778 0
M  V30 19327 C 1814.09 -1.44005 -0.892128 0
M  V30 19328 O 1815.3 -1.60674 -0.81141 0
M  V30 19329 H 1811.67 -0.748195 -0.0755558 0
M  V30 19330 H 1813.64 -2.93066 0.561671 0
M  V30 19331 C 1812.39 -3.27018 -1.18128 0
M  V30 19332 H 1811.72 -3.94652 -0.639492 0
M  V30 19333 H 1813.16 -3.89424 -1.67704 0
M  V30 19334 C 1811.62 -2.51802 -2.23824 0
M  V30 19335 O 1812.15 -2.2753 -3.31048 0
M  V30 19336 N 1810.35 -2.12501 -1.98221 0
M  V30 19337 H 1809.9 -2.32441 -1.11035 0
M  V30 19338 H 1809.86 -1.62494 -2.69153 0
M  V30 19339 N 1813.63 -0.312197 -1.54477 0
M  V30 19340 C 1814.87 0.294208 -2.00655 0
M  V30 19341 C 1815.21 1.52674 -1.20018 0
M  V30 19342 O 1814.48 1.92481 -0.279517 0
M  V30 19343 C 1814.77 0.639677 -3.54373 0
M  V30 19344 C 1814.62 -0.602773 -4.45743 0
M  V30 19345 C 1815.94 1.46181 -4.15113 0
M  V30 19346 H 1813.06 0.10546 -0.729416 0
M  V30 19347 H 1815.7 -0.426519 -1.85151 0
M  V30 19348 H 1813.85 1.25371 -3.67715 0
M  V30 19349 H 1815.52 -1.24116 -4.44289 0
M  V30 19350 H 1813.76 -1.23386 -4.15882 0
M  V30 19351 H 1814.43 -0.316748 -5.5109 0
M  V30 19352 H 1816.91 0.942887 -4.05276 0
M  V30 19353 H 1815.79 1.67231 -5.22805 0
M  V30 19354 H 1816.05 2.45448 -3.67706 0
M  V30 19355 N 1815.11 1.57549 -0.040136 0
M  V30 19356 C 1816.35 1.92535 0.637037 0
M  V30 19357 C 1816.69 0.917836 1.71141 0
M  V30 19358 O 1815.96 -0.057824 1.94414 0
M  V30 19359 C 1816.24 3.37955 1.24333 0
M  V30 19360 C 1816.1 4.49449 0.177761 0
M  V30 19361 C 1817.42 3.8355 2.15818 0
M  V30 19362 H 1814.53 0.700157 0.230107 0
M  V30 19363 H 1817.18 1.89739 -0.0996468 0
M  V30 19364 H 1815.33 3.40468 1.87119 0
M  V30 19365 H 1817 4.59065 -0.453507 0
M  V30 19366 H 1815.24 4.30961 -0.495486 0
M  V30 19367 H 1815.91 5.48256 0.641792 0
M  V30 19368 H 1818.39 3.82842 1.63006 0
M  V30 19369 H 1817.26 4.85974 2.55188 0
M  V30 19370 H 1817.53 3.19678 3.05382 0
M  V30 19371 N 1816.58 -0.233136 1.55866 0
M  V30 19372 C 1817.51 -1.29225 1.94482 0
M  V30 19373 C 1818.5 -1.49495 0.811503 0
M  V30 19374 O 1819.68 -1.61872 1.07289 0
M  V30 19375 C 1816.81 -2.64435 2.25147 0
M  V30 19376 C 1815.76 -2.5884 3.4086 0
M  V30 19377 C 1815.09 -3.97973 3.57102 0
M  V30 19378 C 1816.39 -2.14629 4.76164 0
M  V30 19379 H 1818.08 -0.971527 2.83199 0
M  V30 19380 H 1815.63 -0.465905 1.36255 0
M  V30 19381 H 1817.58 -3.38676 2.50752 0
M  V30 19382 H 1816.31 -2.98172 1.33271 0
M  V30 19383 H 1814.97 -1.87057 3.15286 0
M  V30 19384 H 1814.61 -4.28998 2.62621 0
M  V30 19385 H 1814.31 -3.95114 4.34924 0
M  V30 19386 H 1815.84 -4.73893 3.85043 0
M  V30 19387 H 1817.25 -2.78607 5.0105 0
M  V30 19388 H 1815.65 -2.22853 5.57186 0
M  V30 19389 H 1816.72 -1.09826 4.72299 0
M  V30 19390 N 1818.06 -1.49479 -0.499372 0
M  V30 19391 C 1819.47 -1.52231 -1.08087 0
M  V30 19392 C 1819.83 -0.309442 -1.93744 0
M  V30 19393 O 1818.95 0.580587 -2.08466 0
M  V30 19394 C 1819.55 -2.75857 -1.96694 0
M  V30 19395 C 1818.1 -2.81381 -2.50003 0
M  V30 19396 C 1817.25 -2.46166 -1.27662 0
M  V30 19397 H 1820.2 -1.56153 -0.283211 0
M  V30 19398 H 1820.22 -2.56111 -2.81403 0
M  V30 19399 H 1819.74 -3.64114 -1.34324 0
M  V30 19400 H 1817.84 -1.97408 -3.16008 0
M  V30 19401 H 1817.95 -3.83591 -2.87045 0
M  V30 19402 H 1816.31 -1.97981 -1.60236 0
M  V30 19403 H 1817.1 -3.36699 -0.669974 0
M  V30 19404 N 1819.54 0.750537 -1.38581 0
M  V30 19405 C 1820.47 1.87411 -1.31946 0
M  V30 19406 C 1821.49 1.61151 -0.231101 0
M  V30 19407 O 1822.68 1.71674 -0.488893 0
M  V30 19408 C 1819.78 3.23112 -1.02233 0
M  V30 19409 C 1818.95 3.76852 -2.22039 0
M  V30 19410 C 1818.01 4.91077 -1.89023 0
M  V30 19411 O 1817.03 5.0555 -2.61549 0
M  V30 19412 N 1818.24 5.74287 -0.847021 0
M  V30 19413 H 1821 1.93613 -2.28767 0
M  V30 19414 H 1818.56 0.930603 -1.32482 0
M  V30 19415 H 1820.55 3.97074 -0.78193 0
M  V30 19416 H 1819.12 3.12277 -0.141981 0
M  V30 19417 H 1818.34 2.94421 -2.62126 0
M  V30 19418 H 1819.63 4.09489 -3.01987 0
M  V30 19419 H 1819.03 5.65166 -0.245635 0
M  V30 19420 H 1817.59 6.48383 -0.666505 0
M  V30 19421 N 1821.02 1.235 0.979051 0
M  V30 19422 C 1822.27 1.06197 1.71479 0
M  V30 19423 C 1822.58 -0.401066 1.91444 0
M  V30 19424 O 1823.79 -0.69406 2.62479 0
M  V30 19425 C 1822.24 1.85189 3.08598 0
M  V30 19426 C 1821.85 3.35831 2.96516 0
M  V30 19427 C 1823.6 1.76379 3.86122 0
M  V30 19428 C 1821.5 4.0721 4.28875 0
M  V30 19429 H 1820.43 0.393779 0.643004 0
M  V30 19430 H 1823.08 1.47479 1.09188 0
M  V30 19431 H 1821.47 1.36714 3.71652 0
M  V30 19432 H 1822.64 3.91803 2.42543 0
M  V30 19433 H 1820.95 3.45469 2.32466 0
M  V30 19434 H 1823.55 2.2702 4.84114 0
M  V30 19435 H 1823.89 0.726826 4.09906 0
M  V30 19436 H 1824.43 2.22473 3.29773 0
M  V30 19437 H 1821.17 5.11218 4.10288 0
M  V30 19438 H 1820.69 3.56025 4.82707 0
M  V30 19439 H 1822.37 4.13579 4.97555 0
M  V30 19440 N 1822.5 -1.17802 1.04693 0
M  V30 19441 C 1823.45 -2.19584 0.613744 0
M  V30 19442 C 1824.43 -1.57111 -0.34713 0
M  V30 19443 O 1825.62 -1.76228 -0.16517 0
M  V30 19444 C 1822.75 -3.43297 -0.0152847 0
M  V30 19445 C 1821.84 -4.12879 0.969114 0
M  V30 19446 N 1822.23 -4.58364 2.13859 0
M  V30 19447 C 1820.53 -4.3883 0.796487 0
M  V30 19448 C 1821.23 -5.12003 2.76094 0
M  V30 19449 N 1820.2 -5.039 2.03926 0
M  V30 19450 H 1824.01 -2.5245 1.50486 0
M  V30 19451 H 1821.52 -1.34076 0.916373 0
M  V30 19452 H 1823.52 -4.15484 -0.343354 0
M  V30 19453 H 1822.18 -3.11924 -0.901858 0
M  V30 19454 H 1823.19 -4.52613 2.51718 0
M  V30 19455 H 1819.87 -4.17481 -0.0394627 0
M  V30 19456 H 1821.26 -5.57355 3.7524 0
M  V30 19457 N 1823.98 -0.827251 -1.34143 0
M  V30 19458 C 1825.2 -0.430502 -2.02372 0
M  V30 19459 C 1825.62 0.964846 -1.62284 0
M  V30 19460 O 1824.98 1.62512 -0.830421 0
M  V30 19461 C 1825.03 -0.528077 -3.57622 0
M  V30 19462 O 1824.75 -1.86843 -3.96259 0
M  V30 19463 C 1826.25 -0.126784 -4.43119 0
M  V30 19464 H 1823.47 -0.172244 -0.648516 0
M  V30 19465 H 1826.01 -1.11661 -1.71325 0
M  V30 19466 H 1824.17 0.109991 -3.87244 0
M  V30 19467 H 1824.58 -1.84573 -4.90951 0
M  V30 19468 H 1826.06 -0.246133 -5.51451 0
M  V30 19469 H 1826.53 0.930138 -4.29238 0
M  V30 19470 H 1827.14 -0.738824 -4.18833 0
M  V30 19471 N 1825.45 1.46436 -0.582609 0
M  V30 19472 C 1826.7 2.02685 -0.0682503 0
M  V30 19473 C 1827.03 1.45315 1.2883 0
M  V30 19474 O 1826.31 0.61821 1.84414 0
M  V30 19475 C 1826.59 3.601 -0.00237797 0
M  V30 19476 C 1826.44 4.27855 -1.38782 0
M  V30 19477 C 1827.76 4.34525 0.69829 0
M  V30 19478 H 1824.88 0.736531 -0.0262761 0
M  V30 19479 H 1827.52 1.7458 -0.749789 0
M  V30 19480 H 1825.67 3.84176 0.57803 0
M  V30 19481 H 1827.35 4.15043 -2.01339 0
M  V30 19482 H 1825.59 3.87221 -1.95557 0
M  V30 19483 H 1826.26 5.36614 -1.2942 0
M  V30 19484 H 1828.74 4.15594 0.205219 0
M  V30 19485 H 1827.61 5.44244 0.71341 0
M  V30 19486 H 1827.87 4.05575 1.75957 0
M  V30 19487 N 1826.93 0.320385 1.54309 0
M  V30 19488 C 1828.16 -0.285197 2.04925 0
M  V30 19489 C 1828.57 -1.46029 1.1967 0
M  V30 19490 O 1827.93 -1.81087 0.22665 0
M  V30 19491 C 1827.98 -0.722736 3.54202 0
M  V30 19492 O 1827.7 0.40561 4.36218 0
M  V30 19493 C 1829.2 -1.39146 4.20896 0
M  V30 19494 H 1826.42 -0.0591612 0.668387 0
M  V30 19495 H 1828.97 0.46565 1.99128 0
M  V30 19496 H 1827.12 -1.42356 3.60296 0
M  V30 19497 H 1827.54 0.0614526 5.24464 0
M  V30 19498 H 1829.01 -1.64858 5.26807 0
M  V30 19499 H 1829.49 -2.33774 3.71815 0
M  V30 19500 H 1830.09 -0.733291 4.18931 0
M  V30 19501 N 1828.41 -1.57525 0.0484906 0
M  V30 19502 C 1829.66 -1.92204 -0.624654 0
M  V30 19503 C 1829.98 -0.927289 -1.71541 0
M  V30 19504 O 1829.25 0.0282687 -1.9588 0
M  V30 19505 H 1827.83 -0.709494 -0.233724 0
M  V30 19506 H 1830.49 -1.94639 0.100861 0
M  V30 19507 H 1829.59 -2.93368 -1.06498 0
M  V30 19508 N 1829.89 0.224867 -1.55988 0
M  V30 19509 C 1831.12 0.966727 -1.82926 0
M  V30 19510 C 1831.53 1.78078 -0.627177 0
M  V30 19511 O 1830.89 1.77966 0.404277 0
M  V30 19512 C 1830.94 1.88696 -3.08344 0
M  V30 19513 O 1830.66 1.10581 -4.23914 0
M  V30 19514 C 1832.16 2.74299 -3.48246 0
M  V30 19515 H 1829.38 0.283479 -0.608178 0
M  V30 19516 H 1831.92 0.241097 -2.03074 0
M  V30 19517 H 1830.08 2.56658 -2.90182 0
M  V30 19518 H 1830.49 1.73019 -4.95141 0
M  V30 19519 H 1831.97 3.34577 -4.39047 0
M  V30 19520 H 1832.44 3.46526 -2.69845 0
M  V30 19521 H 1833.05 2.11755 -3.68836 0
M  V30 19522 N 1831.37 1.49742 0.491438 0
M  V30 19523 C 1832.31 1.67115 1.59189 0
M  V30 19524 C 1833.28 0.512523 1.57995 0
M  V30 19525 O 1834.47 0.740693 1.75836 0
M  V30 19526 C 1831.61 1.75258 2.97286 0
M  V30 19527 C 1830.72 3.02488 3.08424 0
M  V30 19528 C 1829.86 3.0155 4.37311 0
M  V30 19529 C 1828.89 4.2332 4.42116 0
M  V30 19530 N 1828.03 4.20238 5.62445 0
M  V30 19531 H 1832.87 2.61073 1.43683 0
M  V30 19532 H 1830.41 1.29435 0.69892 0
M  V30 19533 H 1832.37 1.77959 3.77341 0
M  V30 19534 H 1831 0.847568 3.11474 0
M  V30 19535 H 1830.05 3.09353 2.21371 0
M  V30 19536 H 1831.36 3.92479 3.07834 0
M  V30 19537 H 1830.51 3.02868 5.25695 0
M  V30 19538 H 1829.25 2.09354 4.4048 0
M  V30 19539 H 1828.26 4.22236 3.52132 0
M  V30 19540 H 1829.48 5.1672 4.40656 0
M  V30 19541 H 1827.43 3.30884 5.66438 0
M  V30 19542 H 1827.35 5.03974 5.63512 0
M  V30 19543 H 1828.61 4.25672 6.53011 0
M  V30 19544 N 1832.84 -0.743177 1.38977 0
M  V30 19545 C 1833.79 -1.87846 1.37174 0
M  V30 19546 C 1834.79 -1.67454 0.256059 0
M  V30 19547 O 1835.99 -1.74895 0.425658 0
M  V30 19548 H 1832.37 -0.618206 0.428166 0
M  V30 19549 H 1834.34 -1.86483 2.32952 0
M  V30 19550 C 1833.09 -3.25443 1.22401 0
M  V30 19551 H 1832.41 -3.41727 2.07516 0
M  V30 19552 H 1833.85 -4.05095 1.25195 0
M  V30 19553 C 1832.31 -3.36831 -0.0682569 0
M  V30 19554 O 1832.84 -3.87964 -1.04147 0
M  V30 19555 N 1831.05 -2.90315 -0.128582 0
M  V30 19556 H 1830.59 -2.48893 0.664077 0
M  V30 19557 H 1830.55 -2.98315 -0.992762 0
M  V30 19558 N 1834.32 -1.24018 -0.972487 0
M  V30 19559 C 1835.57 -1.07702 -1.71484 0
M  V30 19560 C 1835.9 0.384897 -1.90654 0
M  V30 19561 O 1835.15 1.30098 -1.46195 0
M  V30 19562 C 1835.45 -1.75657 -3.11255 0
M  V30 19563 C 1835.12 -3.25583 -3.1194 0
M  V30 19564 C 1833.78 -3.66487 -3.11834 0
M  V30 19565 C 1836.13 -4.2145 -3.06642 0
M  V30 19566 C 1833.46 -5.01703 -3.04157 0
M  V30 19567 C 1835.81 -5.56668 -3.00506 0
M  V30 19568 C 1834.48 -5.96924 -2.98726 0
M  V30 19569 H 1833.75 -0.394108 -0.627503 0
M  V30 19570 H 1836.39 -1.54057 -1.13748 0
M  V30 19571 H 1834.7 -1.21682 -3.72425 0
M  V30 19572 H 1836.39 -1.60502 -3.67478 0
M  V30 19573 H 1832.98 -2.93026 -3.12784 0
M  V30 19574 H 1837.17 -3.90852 -3.05856 0
M  V30 19575 H 1832.42 -5.32096 -3.01137 0
M  V30 19576 H 1836.6 -6.30661 -2.95365 0
M  V30 19577 H 1834.23 -7.01661 -2.92532 0
M  V30 19578 N 1835.8 1.17245 -1.05316 0
M  V30 19579 C 1836.73 2.20183 -0.599551 0
M  V30 19580 C 1837.71 1.58275 0.37251 0
M  V30 19581 O 1838.9 1.86351 0.283832 0
M  V30 19582 C 1836.02 3.38479 0.12241 0
M  V30 19583 C 1835.07 4.18837 -0.804859 0
M  V30 19584 S 1835.9 4.83842 -2.29471 0
M  V30 19585 C 1837.06 6.05526 -1.58396 0
M  V30 19586 H 1837.29 2.5832 -1.47168 0
M  V30 19587 H 1834.82 1.27879 -0.865235 0
M  V30 19588 H 1836.78 4.07028 0.532755 0
M  V30 19589 H 1835.44 2.98728 0.970592 0
M  V30 19590 H 1834.64 5.03399 -0.246111 0
M  V30 19591 H 1834.24 3.55731 -1.15463 0
M  V30 19592 H 1836.53 6.71708 -0.883988 0
M  V30 19593 H 1837.47 6.65931 -2.4071 0
M  V30 19594 H 1837.88 5.5425 -1.07083 0
M  V30 19595 N 1837.28 0.834353 1.33702 0
M  V30 19596 C 1838.23 0.26233 2.29304 0
M  V30 19597 C 1839.2 -0.619326 1.54122 0
M  V30 19598 O 1840.38 -0.558551 1.82441 0
M  V30 19599 C 1837.52 -0.560341 3.4052 0
M  V30 19600 C 1836.63 0.344832 4.30622 0
M  V30 19601 C 1835.77 -0.488505 5.28949 0
M  V30 19602 C 1834.81 0.415341 6.10689 0
M  V30 19603 N 1833.94 -0.3796 7.01073 0
M  V30 19604 H 1838.78 1.08291 2.77628 0
M  V30 19605 H 1836.32 0.545497 1.36612 0
M  V30 19606 H 1838.28 -1.05274 4.03699 0
M  V30 19607 H 1836.91 -1.34593 2.93402 0
M  V30 19608 H 1835.96 0.955519 3.68204 0
M  V30 19609 H 1837.27 1.03935 4.87851 0
M  V30 19610 H 1836.43 -1.04492 5.97634 0
M  V30 19611 H 1835.17 -1.21648 4.72285 0
M  V30 19612 H 1834.17 0.983803 5.40926 0
M  V30 19613 H 1835.4 1.1416 6.69436 0
M  V30 19614 H 1833.34 -1.09103 6.46864 0
M  V30 19615 H 1833.26 0.25629 7.55565 0
M  V30 19616 H 1834.53 -0.918394 7.74071 0
M  V30 19617 N 1838.76 -1.46125 0.590367 0
M  V30 19618 C 1839.7 -2.32108 -0.151168 0
M  V30 19619 C 1840.7 -1.44943 -0.876804 0
M  V30 19620 O 1841.9 -1.61526 -0.794323 0
M  V30 19621 H 1838.28 -0.748954 -0.0676159 0
M  V30 19622 H 1840.25 -2.92454 0.592723 0
M  V30 19623 C 1839 -3.28253 -1.14653 0
M  V30 19624 H 1838.32 -3.95309 -0.597597 0
M  V30 19625 H 1839.76 -3.91181 -1.63564 0
M  V30 19626 C 1838.22 -2.54162 -2.21141 0
M  V30 19627 O 1838.75 -2.31029 -3.28616 0
M  V30 19628 N 1836.96 -2.14592 -1.95956 0
M  V30 19629 H 1836.5 -2.33606 -1.08564 0
M  V30 19630 H 1836.46 -1.65339 -2.67414 0
M  V30 19631 N 1840.23 -0.328564 -1.54137 0
M  V30 19632 C 1841.16 0.527734 -2.27458 0
M  V30 19633 C 1842.15 1.11518 -1.28444 0
M  V30 19634 O 1843.33 1.13938 -1.57264 0
M  V30 19635 C 1840.46 1.68628 -3.03615 0
M  V30 19636 C 1839.41 1.22789 -4.10008 0
M  V30 19637 C 1838.74 2.47378 -4.74034 0
M  V30 19638 C 1840.04 0.339152 -5.21198 0
M  V30 19639 H 1841.73 -0.0838808 -2.99282 0
M  V30 19640 H 1839.28 -0.0417829 -1.43939 0
M  V30 19641 H 1841.23 2.29165 -3.5364 0
M  V30 19642 H 1839.96 2.32456 -2.29416 0
M  V30 19643 H 1838.62 0.645427 -3.60874 0
M  V30 19644 H 1838.26 3.09581 -3.96445 0
M  V30 19645 H 1837.96 2.17396 -5.45905 0
M  V30 19646 H 1839.49 3.08668 -5.26836 0
M  V30 19647 H 1840.9 0.850947 -5.6695 0
M  V30 19648 H 1839.3 0.131892 -5.99955 0
M  V30 19649 H 1840.37 -0.628692 -4.80807 0
M  V30 19650 N 1841.71 1.57497 -0.0568439 0
M  V30 19651 C 1842.96 1.92914 0.615668 0
M  V30 19652 C 1843.29 0.935677 1.70515 0
M  V30 19653 O 1842.54 -0.0511255 1.95633 0
M  V30 19654 C 1842.84 3.35 1.24538 0
M  V30 19655 C 1842.51 4.50008 0.283536 0
M  V30 19656 C 1841.17 4.81196 0.0188809 0
M  V30 19657 C 1843.52 5.19847 -0.375336 0
M  V30 19658 C 1840.85 5.79569 -0.911986 0
M  V30 19659 C 1843.2 6.19215 -1.29443 0
M  V30 19660 C 1841.87 6.48829 -1.5677 0
M  V30 19661 H 1841.14 0.705922 0.225289 0
M  V30 19662 H 1843.78 1.91095 -0.124533 0
M  V30 19663 H 1842.09 3.33213 2.06098 0
M  V30 19664 H 1843.78 3.59686 1.77277 0
M  V30 19665 H 1840.37 4.25674 0.499994 0
M  V30 19666 H 1844.56 4.95959 -0.183967 0
M  V30 19667 H 1839.81 6.00846 -1.13112 0
M  V30 19668 H 1843.99 6.7244 -1.811 0
M  V30 19669 H 1841.62 7.24868 -2.29063 0
M  V30 19670 N 1843.19 -0.216591 1.56105 0
M  V30 19671 C 1844.12 -1.27155 1.95841 0
M  V30 19672 C 1845.1 -1.48626 0.827313 0
M  V30 19673 O 1846.29 -1.60725 1.09 0
M  V30 19674 C 1843.42 -2.62032 2.27939 0
M  V30 19675 C 1842.37 -2.55211 3.43586 0
M  V30 19676 C 1841.7 -3.94163 3.61303 0
M  V30 19677 C 1843 -2.09566 4.78413 0
M  V30 19678 H 1844.69 -0.941435 2.84214 0
M  V30 19679 H 1842.24 -0.451427 1.36741 0
M  V30 19680 H 1844.19 -3.35997 2.5433 0
M  V30 19681 H 1842.91 -2.96742 1.36426 0
M  V30 19682 H 1841.57 -1.83703 3.17252 0
M  V30 19683 H 1841.22 -4.26188 2.67156 0
M  V30 19684 H 1840.92 -3.90479 4.3909 0
M  V30 19685 H 1842.44 -4.69782 3.90047 0
M  V30 19686 H 1843.86 -2.73277 5.03977 0
M  V30 19687 H 1842.26 -2.16931 5.59518 0
M  V30 19688 H 1843.33 -1.0481 4.73437 0
M  V30 19689 N 1844.67 -1.5 -0.48349 0
M  V30 19690 C 1845.6 -1.70879 -1.5913 0
M  V30 19691 C 1846.58 -0.557606 -1.60701 0
M  V30 19692 O 1847.76 -0.79539 -1.77164 0
M  V30 19693 C 1844.89 -1.7915 -2.97527 0
M  V30 19694 C 1843.85 -2.94233 -3.10823 0
M  V30 19695 C 1843.17 -2.87634 -4.50745 0
M  V30 19696 C 1844.47 -4.34925 -2.89202 0
M  V30 19697 H 1846.17 -2.63632 -1.41911 0
M  V30 19698 H 1843.71 -1.26865 -0.68127 0
M  V30 19699 H 1845.67 -1.92342 -3.74943 0
M  V30 19700 H 1844.39 -0.830106 -3.15875 0
M  V30 19701 H 1843.05 -2.80672 -2.35837 0
M  V30 19702 H 1842.7 -1.89365 -4.65993 0
M  V30 19703 H 1842.4 -3.64885 -4.60579 0
M  V30 19704 H 1843.92 -3.02857 -5.30198 0
M  V30 19705 H 1845.34 -4.49076 -3.56376 0
M  V30 19706 H 1843.73 -5.13531 -3.10492 0
M  V30 19707 H 1844.8 -4.48154 -1.85165 0
M  V30 19708 N 1846.15 0.735796 -1.39369 0
M  V30 19709 C 1847.37 1.53013 -1.40007 0
M  V30 19710 C 1847.8 1.881 0.00368376 0
M  V30 19711 O 1847.15 1.51853 0.990469 0
M  V30 19712 C 1847.2 2.79474 -2.27874 0
M  V30 19713 O 1846.31 3.75364 -1.70808 0
M  V30 19714 H 1845.65 0.462117 -0.476806 0
M  V30 19715 H 1848.18 0.907868 -1.83355 0
M  V30 19716 H 1848.19 3.28217 -2.42358 0
M  V30 19717 H 1846.86 2.53268 -3.29891 0
M  V30 19718 H 1845.44 3.34131 -1.65562 0
M  V30 19719 N 1847.63 1.24532 0.965897 0
M  V30 19720 C 1848.85 1.11318 1.74401 0
M  V30 19721 C 1849.27 -0.33411 1.8582 0
M  V30 19722 O 1848.63 -1.23044 1.34783 0
M  V30 19723 C 1848.68 1.74927 3.16358 0
M  V30 19724 O 1848.4 3.13998 3.05511 0
M  V30 19725 C 1849.9 1.67347 4.105 0
M  V30 19726 H 1847.12 0.388835 0.546853 0
M  V30 19727 H 1849.66 1.64674 1.21255 0
M  V30 19728 H 1847.82 1.2557 3.66485 0
M  V30 19729 H 1848.23 3.45097 3.94979 0
M  V30 19730 H 1849.71 2.16533 5.07757 0
M  V30 19731 H 1850.18 0.635036 4.34585 0
M  V30 19732 H 1850.79 2.16139 3.66284 0
M  V30 19733 N 1849.1 -1.16685 1.05936 0
M  V30 19734 C 1850.52 -1.39122 0.78213 0
M  V30 19735 C 1850.72 -1.9172 -0.620152 0
M  V30 19736 O 1849.78 -2.11366 -1.38132 0
M  V30 19737 C 1851.09 -2.37522 1.84401 0
M  V30 19738 C 1852.64 -2.51214 1.8671 0
M  V30 19739 C 1853.11 -3.52894 2.91942 0
M  V30 19740 N 1854.6 -3.60418 2.90952 0
M  V30 19741 C 1855.34 -4.38873 3.69023 0
M  V30 19742 N 1854.83 -5.20781 4.56902 0
M  V30 19743 N 1856.63 -4.3382 3.57431 0
M  V30 19744 H 1848.78 -0.808781 1.96399 0
M  V30 19745 H 1851.04 -0.418008 0.850866 0
M  V30 19746 H 1850.75 -2.05962 2.85084 0
M  V30 19747 H 1850.62 -3.37123 1.69197 0
M  V30 19748 H 1853.01 -2.8208 0.866875 0
M  V30 19749 H 1853.09 -1.51661 2.05992 0
M  V30 19750 H 1852.73 -3.22765 3.92155 0
M  V30 19751 H 1852.66 -4.52168 2.6991 0
M  V30 19752 H 1855.15 -3.01945 2.27239 0
M  V30 19753 H 1855.47 -5.77848 5.13138 0
M  V30 19754 H 1853.81 -5.20136 4.60959 0
M  V30 19755 H 1857 -3.68888 2.88165 0
M  V30 19756 H 1857.18 -4.94717 4.1852 0
M  V30 19757 N 1850.58 -0.841432 -1.33258 0
M  V30 19758 C 1851.51 -0.233859 -2.28004 0
M  V30 19759 C 1852.53 0.586872 -1.51854 0
M  V30 19760 O 1853.72 0.413523 -1.73644 0
M  V30 19761 C 1850.82 0.68919 -3.31818 0
M  V30 19762 C 1849.99 -0.0927681 -4.37302 0
M  V30 19763 C 1849.05 0.754015 -5.2077 0
M  V30 19764 O 1848.07 0.192293 -5.68875 0
M  V30 19765 N 1849.28 2.07095 -5.42302 0
M  V30 19766 H 1852.04 -1.04794 -2.80782 0
M  V30 19767 H 1849.6 -0.70014 -1.45978 0
M  V30 19768 H 1851.59 1.26071 -3.84562 0
M  V30 19769 H 1850.16 1.40397 -2.79298 0
M  V30 19770 H 1849.38 -0.845677 -3.85022 0
M  V30 19771 H 1850.67 -0.63036 -5.0488 0
M  V30 19772 H 1850.07 2.55082 -5.04925 0
M  V30 19773 H 1848.63 2.5909 -5.98093 0
M  V30 19774 N 1852.06 1.4581 -0.598108 0
M  V30 19775 C 1853.01 2.32185 0.138857 0
M  V30 19776 C 1854 1.45406 0.869105 0
M  V30 19777 O 1855.21 1.61945 0.785746 0
M  V30 19778 H 1851.58 0.749302 0.0636431 0
M  V30 19779 H 1853.55 2.92136 -0.608224 0
M  V30 19780 C 1852.3 3.28856 1.12911 0
M  V30 19781 H 1851.63 3.9562 0.576625 0
M  V30 19782 H 1853.07 3.92043 1.61487 0
M  V30 19783 C 1851.52 2.55331 2.1979 0
M  V30 19784 O 1852.05 2.32768 3.27386 0
M  V30 19785 N 1850.26 2.15628 1.94815 0
M  V30 19786 H 1849.81 2.34178 1.07323 0
M  V30 19787 H 1849.77 1.66755 2.66533 0
M  V30 19788 N 1853.54 0.336733 1.53961 0
M  V30 19789 C 1854.78 -0.262248 2.01097 0
M  V30 19790 C 1855.12 -1.50745 1.22431 0
M  V30 19791 O 1854.39 -1.92012 0.310103 0
M  V30 19792 C 1854.67 -0.583219 3.55346 0
M  V30 19793 C 1854.53 0.67361 4.44727 0
M  V30 19794 C 1855.85 -1.39558 4.17386 0
M  V30 19795 H 1852.97 -0.0938423 0.731001 0
M  V30 19796 H 1855.61 0.455921 1.84449 0
M  V30 19797 H 1853.76 -1.19505 3.69663 0
M  V30 19798 H 1855.43 1.31168 4.42258 0
M  V30 19799 H 1853.67 1.29987 4.13867 0
M  V30 19800 H 1854.34 0.404382 5.50517 0
M  V30 19801 H 1856.82 -0.878292 4.06725 0
M  V30 19802 H 1855.7 -1.58892 5.25399 0
M  V30 19803 H 1855.96 -2.39567 3.71564 0
M  V30 19804 N 1855.02 -1.57465 0.0651956 0
M  V30 19805 C 1855.93 -2.15841 -0.919235 0
M  V30 19806 C 1856.94 -1.11984 -1.33175 0
M  V30 19807 O 1858.12 -1.44219 -1.4058 0
M  V30 19808 C 1855.18 -2.7032 -2.1709 0
M  V30 19809 C 1854.24 -3.89026 -1.81542 0
M  V30 19810 C 1853.48 -4.40897 -3.00742 0
M  V30 19811 O 1853.7 -3.91792 -4.14555 0
M  V30 19812 O 1852.63 -5.32312 -2.80941 0
M  V30 19813 H 1856.46 -3.00307 -0.452704 0
M  V30 19814 H 1854.04 -1.48567 -0.157504 0
M  V30 19815 H 1855.93 -3.05266 -2.90501 0
M  V30 19816 H 1854.6 -1.88917 -2.62854 0
M  V30 19817 H 1853.51 -3.58944 -1.05404 0
M  V30 19818 H 1854.84 -4.71701 -1.40567 0
M  V30 19819 N 1856.49 0.20831 -1.56217 0
M  V30 19820 C 1857.74 0.928886 -1.79488 0
M  V30 19821 C 1858.06 1.84337 -0.636 0
M  V30 19822 O 1857.33 1.92813 0.346416 0
M  V30 19823 H 1855.91 0.345985 -0.662045 0
M  V30 19824 H 1858.57 0.216988 -1.93688 0
M  V30 19825 H 1857.67 1.52786 -2.72145 0
M  V30 19826 N 1857.97 1.50255 0.475528 0
M  V30 19827 C 1859.2 1.65044 1.25599 0
M  V30 19828 C 1859.62 0.331736 1.85152 0
M  V30 19829 O 1858.98 -0.703863 1.67079 0
M  V30 19830 C 1859.03 2.7405 2.34369 0
M  V30 19831 O 1858.13 2.34994 3.38897 0
M  V30 19832 H 1857.47 0.551557 0.369704 0
M  V30 19833 H 1860 1.96603 0.566422 0
M  V30 19834 H 1860.01 2.96993 2.79749 0
M  V30 19835 H 1858.69 3.6976 1.90395 0
M  V30 19836 H 1857.26 2.22481 2.9926 0
M  V30 19837 N 1859.45 -0.728395 1.39758 0
M  V30 19838 C 1860.68 -1.5154 1.40425 0
M  V30 19839 C 1861.09 -1.892 -0.00123953 0
M  V30 19840 O 1860.43 -1.55086 -0.984575 0
M  V30 19841 C 1860.49 -2.8282 2.2193 0
M  V30 19842 C 1860.16 -2.67557 3.70489 0
M  V30 19843 C 1861.15 -2.35665 4.6342 0
M  V30 19844 C 1858.84 -2.84221 4.14154 0
M  V30 19845 C 1860.83 -2.20628 5.97998 0
M  V30 19846 C 1858.52 -2.68803 5.48806 0
M  V30 19847 C 1859.52 -2.37053 6.40543 0
M  V30 19848 O 1859.21 -2.21738 7.72714 0
M  V30 19849 H 1858.94 -0.474672 0.481313 0
M  V30 19850 H 1861.49 -0.907176 1.84281 0
M  V30 19851 H 1859.72 -3.45927 1.72833 0
M  V30 19852 H 1861.41 -3.44472 2.14695 0
M  V30 19853 H 1862.18 -2.22435 4.30985 0
M  V30 19854 H 1858.06 -3.07925 3.43079 0
M  V30 19855 H 1861.6 -1.95768 6.69567 0
M  V30 19856 H 1857.5 -2.81614 5.8083 0
M  V30 19857 H 1858.26 -2.36758 7.8351 0
M  V30 19858 N 1860.93 -1.25042 -0.959279 0
M  V30 19859 C 1862.2 -1.00297 -1.67928 0
M  V30 19860 C 1862.58 0.47221 -2.05751 0
M  V30 19861 O 1861.93 1.44849 -1.76723 0
M  V30 19862 C 1862.14 -1.93416 -2.90502 0
M  V30 19863 C 1863.49 -2.20992 -3.62557 0
M  V30 19864 O 1864.51 -1.91136 -3.00575 0
M  V30 19865 O 1863.37 -2.71735 -4.74154 0
M  V30 19866 H 1860.47 -0.379984 -0.734535 0
M  V30 19867 H 1863.01 -1.36177 -1.01262 0
M  V30 19868 H 1861.79 -2.93045 -2.59308 0
M  V30 19869 H 1861.41 -1.57904 -3.649 0
M  V30 19870 N 1862.41 1.16121 -1.06553 0
M  V30 19871 C 1863.65 1.86346 -0.782279 0
M  V30 19872 C 1863.98 1.82255 0.693395 0
M  V30 19873 O 1863.25 1.2579 1.50179 0
M  V30 19874 H 1861.83 0.689921 -0.286388 0
M  V30 19875 H 1864.49 1.40805 -1.34758 0
M  V30 19876 H 1863.58 2.91712 -1.10954 0
M  V30 19877 N 1863.88 0.848487 1.3281 0
M  V30 19878 C 1864.85 0.293744 2.2731 0
M  V30 19879 C 1865.85 -0.543043 1.51353 0
M  V30 19880 O 1867.04 -0.355443 1.70535 0
M  V30 19881 C 1864.17 -0.585094 3.35841 0
M  V30 19882 H 1865.36 1.12773 2.77889 0
M  V30 19883 H 1862.92 0.622329 1.43376 0
M  V30 19884 H 1863.65 -1.44114 2.9052 0
M  V30 19885 H 1863.44 0.0137777 3.92098 0
M  V30 19886 H 1864.93 -0.966203 4.06269 0
M  V30 19887 N 1865.36 -1.4549 0.605832 0
M  V30 19888 C 1866.59 -2.06325 0.106497 0
M  V30 19889 C 1867 -1.45142 -1.21369 0
M  V30 19890 O 1866.34 -0.559284 -1.74979 0
M  V30 19891 C 1866.41 -3.59334 -0.109378 0
M  V30 19892 C 1866.07 -4.42842 1.12873 0
M  V30 19893 C 1867.07 -4.77929 2.04645 0
M  V30 19894 C 1864.75 -4.83621 1.35707 0
M  V30 19895 C 1866.75 -5.5265 3.1758 0
M  V30 19896 C 1864.43 -5.58096 2.48943 0
M  V30 19897 C 1865.43 -5.92527 3.39707 0
M  V30 19898 O 1865.12 -6.65492 4.50973 0
M  V30 19899 H 1864.85 -0.67285 0.06518 0
M  V30 19900 H 1867.4 -1.87751 0.83298 0
M  V30 19901 H 1865.63 -3.76301 -0.890735 0
M  V30 19902 H 1867.32 -4.02017 -0.560094 0
M  V30 19903 H 1868.09 -4.46984 1.88229 0
M  V30 19904 H 1863.97 -4.56257 0.659587 0
M  V30 19905 H 1867.51 -5.79443 3.88448 0
M  V30 19906 H 1863.41 -5.88455 2.65312 0
M  V30 19907 H 1864.18 -6.8394 4.49632 0
M  V30 19908 N 1866.84 -0.344893 -1.5378 0
M  V30 19909 C 1867.8 0.498781 -2.23707 0
M  V30 19910 C 1868.8 1.02649 -1.23773 0
M  V30 19911 O 1869.99 0.915526 -1.48202 0
M  V30 19912 C 1867.13 1.69497 -2.95776 0
M  V30 19913 H 1868.32 -0.112815 -2.99688 0
M  V30 19914 H 1865.87 -0.0962613 -1.56003 0
M  V30 19915 H 1866.61 2.34522 -2.23986 0
M  V30 19916 H 1866.39 1.32376 -3.69079 0
M  V30 19917 H 1867.88 2.29334 -3.48992 0
M  V30 19918 N 1868.32 1.57428 -0.0735454 0
M  V30 19919 C 1869.73 1.80973 0.458858 0
M  V30 19920 C 1870.08 0.987586 1.69532 0
M  V30 19921 O 1869.21 0.210611 2.15373 0
M  V30 19922 C 1869.8 3.28241 0.839246 0
M  V30 19923 C 1868.36 3.52626 1.3165 0
M  V30 19924 C 1867.51 2.75645 0.302533 0
M  V30 19925 H 1870.46 1.55854 -0.299225 0
M  V30 19926 H 1870.48 3.40386 1.70052 0
M  V30 19927 H 1869.99 3.88052 -0.0608625 0
M  V30 19928 H 1868.09 2.98121 2.23505 0
M  V30 19929 H 1868.2 4.61316 1.29322 0
M  V30 19930 H 1866.57 2.42457 0.780179 0
M  V30 19931 H 1867.35 3.38194 -0.589878 0
M  V30 19932 N 1869.8 -0.200022 1.56326 0
M  V30 19933 C 1871.04 -0.922539 1.80602 0
M  V30 19934 C 1871.38 -1.83113 0.646781 0
M  V30 19935 O 1870.65 -1.91271 -0.352928 0
M  V30 19936 C 1870.93 -1.74301 3.15105 0
M  V30 19937 C 1870.79 -0.859471 4.41512 0
M  V30 19938 C 1872.11 -2.71658 3.46251 0
M  V30 19939 H 1869.22 -0.333949 0.656999 0
M  V30 19940 H 1871.87 -0.190177 1.89046 0
M  V30 19941 H 1870.02 -2.36739 3.08037 0
M  V30 19942 H 1871.69 -0.250183 4.60621 0
M  V30 19943 H 1869.93 -0.165935 4.33483 0
M  V30 19944 H 1870.6 -1.46842 5.3211 0
M  V30 19945 H 1873.08 -2.19353 3.53586 0
M  V30 19946 H 1871.95 -3.26152 4.41493 0
M  V30 19947 H 1872.22 -3.50462 2.69497 0
M  V30 19948 N 1871.27 -1.50505 -0.467553 0
M  V30 19949 C 1872.2 -1.72558 -1.57309 0
M  V30 19950 C 1873.19 -0.574619 -1.601 0
M  V30 19951 O 1874.37 -0.814135 -1.76311 0
M  V30 19952 C 1871.5 -1.82296 -2.9561 0
M  V30 19953 C 1870.45 -2.97513 -3.07685 0
M  V30 19954 C 1869.78 -2.92398 -4.47669 0
M  V30 19955 C 1871.08 -4.37968 -2.84573 0
M  V30 19956 H 1872.77 -2.65122 -1.39107 0
M  V30 19957 H 1870.32 -1.2758 -0.667776 0
M  V30 19958 H 1872.27 -1.96308 -3.72882 0
M  V30 19959 H 1871 -0.863562 -3.14976 0
M  V30 19960 H 1869.66 -2.83157 -2.32847 0
M  V30 19961 H 1869.3 -1.94297 -4.63959 0
M  V30 19962 H 1869 -3.69749 -4.56683 0
M  V30 19963 H 1870.53 -3.08464 -5.26956 0
M  V30 19964 H 1871.94 -4.52831 -3.51593 0
M  V30 19965 H 1870.34 -5.16796 -3.05028 0
M  V30 19966 H 1871.41 -4.50093 -1.80402 0
M  V30 19967 N 1872.75 0.720973 -1.40142 0
M  V30 19968 C 1873.68 1.8457 -1.35891 0
M  V30 19969 C 1874.7 1.60625 -0.265232 0
M  V30 19970 O 1875.89 1.70599 -0.525198 0
M  V30 19971 C 1872.99 3.20871 -1.09064 0
M  V30 19972 C 1872.16 3.72058 -2.29982 0
M  V30 19973 C 1871.22 4.86957 -1.99397 0
M  V30 19974 O 1870.24 4.99888 -2.72213 0
M  V30 19975 N 1871.45 5.72361 -0.968645 0
M  V30 19976 H 1874.21 1.88717 -2.32822 0
M  V30 19977 H 1871.77 0.902293 -1.34426 0
M  V30 19978 H 1873.76 3.95326 -0.865979 0
M  V30 19979 H 1872.33 3.11906 -0.208188 0
M  V30 19980 H 1871.55 2.88795 -2.68312 0
M  V30 19981 H 1872.84 4.02991 -3.10605 0
M  V30 19982 H 1872.24 5.64518 -0.36546 0
M  V30 19983 H 1870.8 6.46824 -0.803886 0
M  V30 19984 N 1874.23 1.25549 0.952634 0
M  V30 19985 C 1875.51 1.01186 1.67394 0
M  V30 19986 C 1875.89 -0.461292 2.05998 0
M  V30 19987 O 1875.24 -1.43909 1.77489 0
M  V30 19988 C 1875.45 1.94954 2.89472 0
M  V30 19989 C 1876.79 2.22911 3.6138 0
M  V30 19990 O 1877.82 1.92728 2.99557 0
M  V30 19991 O 1876.68 2.74246 4.72706 0
M  V30 19992 H 1873.77 0.383874 0.732509 0
M  V30 19993 H 1876.32 1.36712 1.00538 0
M  V30 19994 H 1875.09 2.94416 2.5775 0
M  V30 19995 H 1874.71 1.59837 3.64058 0
M  V30 19996 N 1875.71 -1.15554 1.07168 0
M  V30 19997 C 1876.96 -1.86296 0.793718 0
M  V30 19998 C 1877.28 -1.8222 -0.680145 0
M  V30 19999 O 1876.54 -1.23899 -1.51485 0
M  V30 20000 C 1876.84 -3.3502 1.24484 0
M  V30 20001 C 1876.5 -3.59292 2.72434 0
M  V30 20002 C 1875.17 -3.65625 3.12844 0
M  V30 20003 C 1877.52 -3.69147 3.6794 0
M  V30 20004 C 1874.85 -3.79323 4.47584 0
M  V30 20005 C 1877.2 -3.84368 5.02438 0
M  V30 20006 C 1875.86 -3.88946 5.42473 0
M  V30 20007 H 1875.13 -0.681707 0.290442 0
M  V30 20008 H 1877.78 -1.36575 1.34236 0
M  V30 20009 H 1876.08 -3.86934 0.615546 0
M  V30 20010 H 1877.78 -3.88158 1.00669 0
M  V30 20011 H 1874.37 -3.55002 2.40149 0
M  V30 20012 H 1878.55 -3.63556 3.37847 0
M  V30 20013 H 1873.81 -3.81124 4.78074 0
M  V30 20014 H 1877.98 -3.90935 5.76318 0
M  V30 20015 H 1875.61 -3.99312 6.4688 0
M  V30 20016 N 1877.19 -0.855519 -1.32358 0
M  V30 20017 C 1878.6 -0.545491 -1.49989 0
M  V30 20018 C 1878.8 0.923656 -1.79083 0
M  V30 20019 O 1877.86 1.70664 -1.86091 0
M  V30 20020 C 1879.17 -1.43323 -2.64347 0
M  V30 20021 C 1880.72 -1.43374 -2.78232 0
M  V30 20022 C 1881.2 -2.30671 -3.9567 0
M  V30 20023 N 1882.69 -2.28471 -4.02933 0
M  V30 20024 C 1883.42 -2.92746 -4.93039 0
M  V30 20025 N 1882.92 -3.66136 -5.88147 0
M  V30 20026 N 1884.71 -2.82129 -4.86168 0
M  V30 20027 H 1876.86 -1.80633 -1.11738 0
M  V30 20028 H 1879.12 -0.771568 -0.550805 0
M  V30 20029 H 1878.83 -2.47797 -2.49578 0
M  V30 20030 H 1878.7 -1.12125 -3.6015 0
M  V30 20031 H 1881.09 -0.396641 -2.92422 0
M  V30 20032 H 1881.17 -1.78588 -1.83139 0
M  V30 20033 H 1880.82 -3.3445 -3.82238 0
M  V30 20034 H 1880.75 -1.92789 -4.90041 0
M  V30 20035 H 1883.24 -1.75115 -3.34878 0
M  V30 20036 H 1883.55 -4.12344 -6.536 0
M  V30 20037 H 1881.9 -3.70244 -5.88171 0
M  V30 20038 H 1885.09 -2.24344 -4.10837 0
M  V30 20039 H 1885.26 -3.32502 -5.56189 0
M  V30 20040 N 1878.67 1.45167 -0.61354 0
M  V30 20041 C 1879.89 2.07076 -0.115821 0
M  V30 20042 C 1880.32 1.45415 1.19315 0
M  V30 20043 O 1879.67 0.549046 1.72786 0
M  V30 20044 C 1879.72 3.606 0.00406239 0
M  V30 20045 O 1878.83 3.98737 1.05273 0
M  V30 20046 H 1878.17 0.659547 -0.0767679 0
M  V30 20047 H 1880.7 1.86325 -0.845236 0
M  V30 20048 H 1880.71 4.07508 0.200356 0
M  V30 20049 H 1879.38 4.04865 -0.951695 0
M  V30 20050 H 1877.96 3.6349 0.832424 0
M  V30 20051 N 1880.14 0.353044 1.53595 0
M  V30 20052 C 1881.07 -0.491481 2.28269 0
M  V30 20053 C 1882.05 -1.0946 1.30201 0
M  V30 20054 O 1883.24 -1.11421 1.59056 0
M  V30 20055 C 1880.37 -1.63776 3.06259 0
M  V30 20056 C 1879.32 -1.16251 4.1191 0
M  V30 20057 C 1878.65 -2.39805 4.7791 0
M  V30 20058 C 1879.95 -0.256191 5.21671 0
M  V30 20059 H 1881.64 0.131483 2.99111 0
M  V30 20060 H 1879.19 0.0646771 1.43855 0
M  V30 20061 H 1881.14 -2.2351 3.57241 0
M  V30 20062 H 1879.87 -2.28777 2.33085 0
M  V30 20063 H 1878.53 -0.587934 3.61855 0
M  V30 20064 H 1878.17 -3.03234 4.0132 0
M  V30 20065 H 1877.87 -2.08684 5.49295 0
M  V30 20066 H 1879.4 -3.00248 5.3168 0
M  V30 20067 H 1880.81 -0.760642 5.68232 0
M  V30 20068 H 1879.21 -0.0364273 6.00089 0
M  V30 20069 H 1880.28 0.705105 4.79746 0
M  V30 20070 N 1881.62 -1.57387 0.0818932 0
M  V30 20071 C 1882.57 -2.14508 -0.899386 0
M  V30 20072 C 1883.56 -1.08453 -1.30132 0
M  V30 20073 O 1884.77 -1.26818 -1.27739 0
M  V30 20074 H 1881.14 -0.686024 -0.308018 0
M  V30 20075 H 1883.12 -2.95804 -0.392786 0
M  V30 20076 C 1881.86 -2.72963 -2.15375 0
M  V30 20077 H 1881.19 -3.54248 -1.85333 0
M  V30 20078 H 1882.63 -3.16515 -2.82125 0
M  V30 20079 C 1881.09 -1.68212 -2.91901 0
M  V30 20080 O 1881.62 -1.11314 -3.85969 0
M  V30 20081 N 1879.82 -1.3901 -2.55195 0
M  V30 20082 H 1879.37 -1.85468 -1.78771 0
M  V30 20083 H 1879.33 -0.691582 -3.06699 0
M  V30 20084 N 1883.1 0.191729 -1.56429 0
M  V30 20085 C 1884.38 0.937684 -1.71659 0
M  V30 20086 C 1884.76 2.0124 -0.63762 0
M  V30 20087 O 1884.1 2.2579 0.350865 0
M  V30 20088 C 1884.31 1.52104 -3.14111 0
M  V30 20089 C 1885.66 2.00186 -3.74447 0
M  V30 20090 O 1886.69 1.61939 -3.1726 0
M  V30 20091 O 1885.55 2.70576 -4.74817 0
M  V30 20092 H 1882.64 0.439962 -0.700259 0
M  V30 20093 H 1885.19 0.181161 -1.6873 0
M  V30 20094 H 1883.96 0.746526 -3.84113 0
M  V30 20095 H 1883.58 2.3423 -3.21282 0
M  V30 20096 N 1884.58 1.50751 0.459565 0
M  V30 20097 C 1885.8 1.66367 1.23842 0
M  V30 20098 C 1886.23 0.351355 1.84789 0
M  V30 20099 O 1885.59 -0.686103 1.67816 0
M  V30 20100 C 1885.63 2.76521 2.31449 0
M  V30 20101 O 1884.74 2.38576 3.36386 0
M  V30 20102 H 1884.08 0.555447 0.363833 0
M  V30 20103 H 1886.61 1.97193 0.545538 0
M  V30 20104 H 1886.62 2.99943 2.76583 0
M  V30 20105 H 1885.29 3.71759 1.86462 0
M  V30 20106 H 1883.87 2.25643 2.96883 0
M  V30 20107 N 1886.06 -0.713531 1.40522 0
M  V30 20108 C 1887.28 -1.5026 1.4223 0
M  V30 20109 C 1887.7 -1.88787 0.0225637 0
M  V30 20110 O 1887.06 -1.55581 -0.95398 0
M  V30 20111 C 1887.11 -2.77663 2.31486 0
M  V30 20112 O 1886.83 -2.40765 3.66011 0
M  V30 20113 C 1888.33 -3.71543 2.41807 0
M  V30 20114 H 1885.55 -0.463648 0.485048 0
M  V30 20115 H 1888.09 -0.88 1.84598 0
M  V30 20116 H 1886.25 -3.36203 1.92475 0
M  V30 20117 H 1886.66 -3.22757 4.13434 0
M  V30 20118 H 1888.14 -4.57771 3.08464 0
M  V30 20119 H 1888.61 -4.14792 1.44375 0
M  V30 20120 H 1889.22 -3.18914 2.81379 0
M  V30 20121 N 1887.53 -1.26053 -0.945962 0
M  V30 20122 C 1888.48 -1.06999 -2.06529 0
M  V30 20123 C 1889.48 0.00168092 -1.694 0
M  V30 20124 O 1890.68 -0.154623 -1.79335 0
M  V30 20125 H 1887.06 -0.329129 -0.676149 0
M  V30 20126 H 1889.03 -2.01869 -2.19753 0
M  V30 20127 C 1887.78 -0.714636 -3.40277 0
M  V30 20128 H 1887.1 -1.53111 -3.6932 0
M  V30 20129 H 1888.54 -0.62107 -4.19427 0
M  V30 20130 C 1887 0.579908 -3.31871 0
M  V30 20131 O 1887.53 1.61959 -3.67603 0
M  V30 20132 N 1885.73 0.568764 -2.8498 0
M  V30 20133 H 1885.28 -0.277687 -2.56099 0
M  V30 20134 H 1885.24 1.43505 -2.79738 0
M  V30 20135 N 1889.01 1.14984 -1.07779 0
M  V30 20136 C 1890.43 1.3786 -0.804164 0
M  V30 20137 C 1890.63 1.92682 0.589572 0
M  V30 20138 O 1889.68 2.13537 1.34752 0
M  V30 20139 C 1891 2.34559 -1.88156 0
M  V30 20140 C 1892.54 2.48212 -1.90683 0
M  V30 20141 C 1893.02 3.48205 -2.97519 0
M  V30 20142 N 1894.51 3.55743 -2.96649 0
M  V30 20143 C 1895.25 4.32946 -3.75959 0
M  V30 20144 N 1894.74 5.13446 -4.65129 0
M  V30 20145 N 1896.53 4.28079 -3.64287 0
M  V30 20146 H 1888.69 0.777434 -1.97661 0
M  V30 20147 H 1890.95 0.404419 -0.857409 0
M  V30 20148 H 1890.65 2.014 -2.88324 0
M  V30 20149 H 1890.53 3.34389 -1.74539 0
M  V30 20150 H 1892.92 2.80665 -0.911642 0
M  V30 20151 H 1893 1.48365 -2.08378 0
M  V30 20152 H 1892.64 3.16485 -3.9724 0
M  V30 20153 H 1892.57 4.47817 -2.77069 0
M  V30 20154 H 1895.06 2.98291 -2.32014 0
M  V30 20155 H 1895.37 5.69612 -5.22267 0
M  V30 20156 H 1893.72 5.12737 -4.69176 0
M  V30 20157 H 1896.91 3.64257 -2.93997 0
M  V30 20158 H 1897.08 4.87996 -4.26337 0
M  V30 20159 N 1890.49 0.862526 1.31902 0
M  V30 20160 C 1891.72 0.484006 2.01159 0
M  V30 20161 C 1892.13 -0.92148 1.64785 0
M  V30 20162 O 1891.49 -1.60254 0.873216 0
M  V30 20163 C 1891.54 0.622709 3.56096 0
M  V30 20164 O 1891.26 1.97284 3.91166 0
M  V30 20165 C 1892.76 0.244225 4.42627 0
M  V30 20166 H 1889.98 0.189378 0.643721 0
M  V30 20167 H 1892.53 1.16164 1.68304 0
M  V30 20168 H 1890.68 -0.00728166 3.87399 0
M  V30 20169 H 1891.1 1.97525 4.85885 0
M  V30 20170 H 1892.57 0.392254 5.50605 0
M  V30 20171 H 1893.05 -0.816006 4.31553 0
M  V30 20172 H 1893.65 0.84961 4.16727 0
M  V30 20173 N 1891.97 -1.4484 0.62123 0
M  V30 20174 C 1892.92 -2.30626 -0.0895817 0
M  V30 20175 C 1893.89 -1.42906 -0.846593 0
M  V30 20176 O 1895.07 -1.7182 -0.829611 0
M  V30 20177 C 1892.21 -3.28032 -1.07188 0
M  V30 20178 C 1891.32 -4.30855 -0.314319 0
M  V30 20179 C 1890.46 -5.1536 -1.28755 0
M  V30 20180 C 1889.5 -6.09899 -0.518581 0
M  V30 20181 N 1888.63 -6.87137 -1.44178 0
M  V30 20182 H 1893.47 -2.90871 0.64793 0
M  V30 20183 H 1891.01 -1.4332 0.33131 0
M  V30 20184 H 1892.97 -3.82984 -1.65467 0
M  V30 20185 H 1891.6 -2.6951 -1.77664 0
M  V30 20186 H 1890.65 -3.78455 0.38422 0
M  V30 20187 H 1891.96 -4.97985 0.285042 0
M  V30 20188 H 1891.12 -5.7478 -1.94198 0
M  V30 20189 H 1889.86 -4.4828 -1.92084 0
M  V30 20190 H 1888.86 -5.49597 0.149399 0
M  V30 20191 H 1890.09 -6.79011 0.109851 0
M  V30 20192 H 1888.03 -6.22735 -2.06246 0
M  V30 20193 H 1887.95 -7.50669 -0.896192 0
M  V30 20194 H 1889.22 -7.51088 -2.08536 0
M  V30 20195 N 1893.45 -0.361184 -1.53405 0
M  V30 20196 C 1894.39 0.487369 -2.25596 0
M  V30 20197 C 1895.36 1.08114 -1.26097 0
M  V30 20198 O 1896.55 1.11446 -1.54869 0
M  V30 20199 C 1893.69 1.62342 -3.04531 0
M  V30 20200 C 1892.8 1.05525 -4.18914 0
M  V30 20201 C 1891.94 2.16004 -4.853 0
M  V30 20202 C 1890.98 1.5663 -5.91721 0
M  V30 20203 N 1890.11 2.60923 -6.51816 0
M  V30 20204 H 1894.95 -0.134748 -2.97695 0
M  V30 20205 H 1892.49 -0.0782688 -1.46892 0
M  V30 20206 H 1894.45 2.29252 -3.48568 0
M  V30 20207 H 1893.08 2.21626 -2.34695 0
M  V30 20208 H 1892.13 0.276561 -3.79393 0
M  V30 20209 H 1893.44 0.581111 -4.95403 0
M  V30 20210 H 1892.6 2.90743 -5.32497 0
M  V30 20211 H 1891.33 2.66768 -4.08272 0
M  V30 20212 H 1890.34 0.804031 -5.43889 0
M  V30 20213 H 1891.56 1.06696 -6.70666 0
M  V30 20214 H 1889.51 3.10909 -5.77643 0
M  V30 20215 H 1889.43 2.18184 -7.23831 0
M  V30 20216 H 1890.7 3.35378 -7.03663 0
M  V30 20217 N 1894.92 1.57341 -0.0902386 0
M  V30 20218 C 1895.87 2.10293 0.880961 0
M  V30 20219 C 1896.86 1.01683 1.24697 0
M  V30 20220 O 1898.05 1.27965 1.22286 0
M  V30 20221 C 1895.18 2.68293 2.14182 0
M  V30 20222 C 1894.27 3.83938 1.80146 0
M  V30 20223 N 1894.66 4.92166 1.16646 0
M  V30 20224 C 1892.95 3.93581 2.09785 0
M  V30 20225 C 1893.66 5.72845 1.01113 0
M  V30 20226 N 1892.63 5.21716 1.52686 0
M  V30 20227 H 1896.43 2.91354 0.385979 0
M  V30 20228 H 1893.95 1.62006 0.113118 0
M  V30 20229 H 1895.94 3.04555 2.84697 0
M  V30 20230 H 1894.6 1.88685 2.6425 0
M  V30 20231 H 1895.62 5.11143 0.833854 0
M  V30 20232 H 1892.29 3.24975 2.62102 0
M  V30 20233 H 1893.68 6.69924 0.514913 0
M  V30 20234 N 1896.4 -0.183431 1.56529 0
M  V30 20235 C 1897.63 -0.917888 1.85425 0
M  V30 20236 C 1898.05 -1.76353 0.674171 0
M  V30 20237 O 1897.4 -1.78975 -0.35695 0
M  V30 20238 C 1897.45 -1.80454 3.13239 0
M  V30 20239 O 1897.17 -0.993028 4.26697 0
M  V30 20240 C 1898.68 -2.64969 3.55396 0
M  V30 20241 H 1895.9 -0.267254 0.61548 0
M  V30 20242 H 1898.44 -0.187171 2.03642 0
M  V30 20243 H 1896.59 -2.48874 2.96884 0
M  V30 20244 H 1897.01 -1.59831 4.99554 0
M  V30 20245 H 1898.48 -3.22819 4.47763 0
M  V30 20246 H 1898.96 -3.3925 2.78937 0
M  V30 20247 H 1899.57 -2.01902 3.74321 0
M  V30 20248 N 1897.88 -1.50992 -0.451564 0
M  V30 20249 C 1898.84 -1.70703 -1.52949 0
M  V30 20250 C 1899.84 -0.577275 -1.50081 0
M  V30 20251 O 1901.03 -0.844619 -1.52354 0
M  V30 20252 C 1898.17 -1.75035 -2.92533 0
M  V30 20253 H 1899.36 -2.66891 -1.36782 0
M  V30 20254 H 1896.91 -1.40767 -0.679285 0
M  V30 20255 H 1897.65 -0.806096 -3.14122 0
M  V30 20256 H 1897.43 -2.57126 -2.96021 0
M  V30 20257 H 1898.92 -1.92171 -3.70756 0
M  V30 20258 N 1899.36 0.706069 -1.40899 0
M  V30 20259 C 1900.31 1.81196 -1.38391 0
M  V30 20260 C 1901.29 1.58787 -0.259924 0
M  V30 20261 O 1902.48 1.69798 -0.499779 0
M  V30 20262 C 1899.61 3.19411 -1.25823 0
M  V30 20263 C 1898.7 3.47551 -2.43042 0
M  V30 20264 N 1899.09 3.4645 -3.68519 0
M  V30 20265 C 1897.39 3.78052 -2.36627 0
M  V30 20266 C 1898.09 3.73201 -4.46202 0
M  V30 20267 N 1897.07 3.92424 -3.76171 0
M  V30 20268 H 1900.87 1.78692 -2.33338 0
M  V30 20269 H 1898.38 0.90561 -1.34805 0
M  V30 20270 H 1900.38 3.98617 -1.22108 0
M  V30 20271 H 1899.04 3.23134 -0.31852 0
M  V30 20272 H 1900.05 3.27076 -4.01549 0
M  V30 20273 H 1896.73 3.89208 -1.51074 0
M  V30 20274 H 1898.12 3.78574 -5.55096 0
M  V30 20275 N 1900.84 1.26553 0.939264 0
M  V30 20276 C 1902.08 1.1221 1.68568 0
M  V30 20277 C 1902.41 -0.334213 1.91607 0
M  V30 20278 O 1901.67 -1.26177 1.49593 0
M  V30 20279 C 1901.97 1.83848 3.06488 0
M  V30 20280 C 1901.63 3.33739 3.03198 0
M  V30 20281 C 1900.29 3.74626 3.02008 0
M  V30 20282 C 1902.65 4.29432 2.9536 0
M  V30 20283 C 1899.97 5.0959 2.90748 0
M  V30 20284 C 1902.33 5.64439 2.85641 0
M  V30 20285 C 1900.99 6.04635 2.82795 0
M  V30 20286 H 1900.26 0.410606 0.616833 0
M  V30 20287 H 1902.91 1.57019 1.09623 0
M  V30 20288 H 1901.21 1.31514 3.69068 0
M  V30 20289 H 1902.91 1.70189 3.63093 0
M  V30 20290 H 1899.5 3.01216 3.04905 0
M  V30 20291 H 1903.68 3.98824 2.95386 0
M  V30 20292 H 1898.94 5.39894 2.86923 0
M  V30 20293 H 1903.11 6.3827 2.7854 0
M  V30 20294 H 1900.74 7.09171 2.73826 0
M  V30 20295 N 1902.31 -1.14411 1.08387 0
M  V30 20296 C 1903.54 -1.89848 0.835015 0
M  V30 20297 C 1903.96 -1.78034 -0.607091 0
M  V30 20298 O 1903.32 -1.12039 -1.42538 0
M  V30 20299 C 1903.37 -3.37818 1.26141 0
M  V30 20300 O 1902.47 -4.10325 0.41322 0
M  V30 20301 H 1901.82 -0.590682 0.303299 0
M  V30 20302 H 1904.35 -1.44823 1.44525 0
M  V30 20303 H 1904.36 -3.88631 1.24218 0
M  V30 20304 H 1903.03 -3.45735 2.31172 0
M  V30 20305 H 1901.61 -3.69589 0.495854 0
M  V30 20306 N 1903.79 -0.869509 -1.31443 0
M  V30 20307 C 1904.74 -0.323034 -2.28528 0
M  V30 20308 C 1905.71 0.578245 -1.5571 0
M  V30 20309 O 1906.89 0.509983 -1.83858 0
M  V30 20310 C 1904.03 0.469861 -3.41886 0
M  V30 20311 C 1903.15 -0.458883 -4.29556 0
M  V30 20312 C 1902.28 0.348092 -5.30058 0
M  V30 20313 C 1901.32 -0.577109 -6.09373 0
M  V30 20314 N 1900.46 0.193589 -7.01833 0
M  V30 20315 H 1905.3 -1.15614 -2.74659 0
M  V30 20316 H 1902.84 -0.581526 -1.35117 0
M  V30 20317 H 1904.79 0.945338 -4.06349 0
M  V30 20318 H 1903.42 1.26767 -2.96867 0
M  V30 20319 H 1902.48 -1.05281 -3.65541 0
M  V30 20320 H 1903.79 -1.16833 -4.84924 0
M  V30 20321 H 1902.94 0.886098 -6.00194 0
M  V30 20322 H 1901.68 1.09083 -4.75344 0
M  V30 20323 H 1900.69 -1.12687 -5.38128 0
M  V30 20324 H 1901.91 -1.31869 -6.66174 0
M  V30 20325 H 1899.86 0.919147 -6.49529 0
M  V30 20326 H 1899.77 -0.456525 -7.5462 0
M  V30 20327 H 1901.04 0.71284 -7.76234 0
M  V30 20328 N 1905.27 1.44508 -0.628902 0
M  V30 20329 C 1906.22 2.3067 0.0773497 0
M  V30 20330 C 1907.19 1.43353 0.839003 0
M  V30 20331 O 1908.37 1.72258 0.820487 0
M  V30 20332 C 1905.51 3.28596 1.05447 0
M  V30 20333 C 1904.63 4.31016 0.291465 0
M  V30 20334 C 1903.76 5.16035 1.2602 0
M  V30 20335 C 1902.8 6.10166 0.486229 0
M  V30 20336 N 1901.94 6.87892 1.40532 0
M  V30 20337 H 1906.78 2.90523 -0.663346 0
M  V30 20338 H 1904.31 1.43143 -0.338906 0
M  V30 20339 H 1906.27 3.83856 1.63433 0
M  V30 20340 H 1904.9 2.70448 1.76232 0
M  V30 20341 H 1903.95 3.78246 -0.404285 0
M  V30 20342 H 1905.27 4.97827 -0.311447 0
M  V30 20343 H 1904.42 5.75802 1.91147 0
M  V30 20344 H 1903.16 4.49293 1.89704 0
M  V30 20345 H 1902.16 5.4951 -0.178543 0
M  V30 20346 H 1903.39 6.78943 -0.145859 0
M  V30 20347 H 1901.33 6.2382 2.0294 0
M  V30 20348 H 1901.25 7.51134 0.856369 0
M  V30 20349 H 1902.52 7.52183 2.04549 0
M  V30 20350 N 1906.75 0.369315 1.53212 0
M  V30 20351 C 1908 -0.218776 2.00912 0
M  V30 20352 C 1908.32 -1.48977 1.25821 0
M  V30 20353 O 1907.59 -1.92325 0.372538 0
M  V30 20354 H 1906.17 -0.0838334 0.742281 0
M  V30 20355 H 1908.83 0.496408 1.88472 0
M  V30 20356 H 1907.93 -0.443127 3.08938 0
M  V30 20357 N 1908.23 -1.57291 0.0985816 0
M  V30 20358 C 1909.14 -2.17742 -0.873245 0
M  V30 20359 C 1910.15 -1.14784 -1.3077 0
M  V30 20360 O 1911.33 -1.47169 -1.37489 0
M  V30 20361 C 1908.39 -2.74864 -2.11308 0
M  V30 20362 C 1907.46 -3.92789 -1.73249 0
M  V30 20363 C 1906.69 -4.47177 -2.91322 0
M  V30 20364 O 1906.91 -4.00497 -4.06151 0
M  V30 20365 O 1905.85 -5.38151 -2.69587 0
M  V30 20366 H 1909.67 -3.012 -0.388902 0
M  V30 20367 H 1907.26 -1.48868 -0.125955 0
M  V30 20368 H 1909.14 -3.11359 -2.8396 0
M  V30 20369 H 1907.81 -1.9445 -2.58787 0
M  V30 20370 H 1906.72 -3.61099 -0.977663 0
M  V30 20371 H 1908.05 -4.74577 -1.3053 0
M  V30 20372 N 1909.71 0.175127 -1.56624 0
M  V30 20373 C 1910.62 1.23691 -1.99343 0
M  V30 20374 C 1911.63 1.48662 -0.904197 0
M  V30 20375 O 1912.81 1.60885 -1.21153 0
M  V30 20376 C 1909.87 2.55689 -2.34145 0
M  V30 20377 C 1908.93 2.38614 -3.56878 0
M  V30 20378 C 1908.17 3.64318 -3.9001 0
M  V30 20379 O 1908.39 4.69335 -3.24162 0
M  V30 20380 O 1907.32 3.58655 -4.83373 0
M  V30 20381 H 1911.15 0.904314 -2.89924 0
M  V30 20382 H 1908.73 0.381697 -1.44442 0
M  V30 20383 H 1910.62 3.33562 -2.57516 0
M  V30 20384 H 1909.29 2.88535 -1.46728 0
M  V30 20385 H 1908.2 1.58786 -3.3873 0
M  V30 20386 H 1909.53 2.10694 -4.44825 0
M  V30 20387 N 1911.18 1.5123 0.44355 0
M  V30 20388 C 1912.09 1.74928 1.56324 0
M  V30 20389 C 1913.11 0.633267 1.62067 0
M  V30 20390 O 1914.29 0.914808 1.79425 0
M  V30 20391 C 1911.35 1.86361 2.92354 0
M  V30 20392 C 1910.41 3.10196 2.96778 0
M  V30 20393 C 1909.64 3.21073 4.26319 0
M  V30 20394 O 1909.87 2.38043 5.18355 0
M  V30 20395 O 1908.8 4.14008 4.369 0
M  V30 20396 H 1912.63 2.69898 1.39243 0
M  V30 20397 H 1910.21 1.35656 0.62592 0
M  V30 20398 H 1912.09 1.95901 3.73096 0
M  V30 20399 H 1910.77 0.945775 3.09575 0
M  V30 20400 H 1909.68 3.06138 2.15013 0
M  V30 20401 H 1911.01 4.01648 2.84499 0
M  V30 20402 N 1912.66 -0.698586 1.41271 0
M  V30 20403 C 1913.61 -1.83387 1.43081 0
M  V30 20404 C 1914.6 -1.66554 0.309204 0
M  V30 20405 O 1915.81 -1.73452 0.481084 0
M  V30 20406 H 1912.18 -0.604271 0.447617 0
M  V30 20407 H 1914.16 -1.78977 2.38767 0
M  V30 20408 C 1912.9 -3.21385 1.32692 0
M  V30 20409 H 1912.23 -3.34952 2.18283 0
M  V30 20410 H 1913.67 -4.00907 1.38019 0
M  V30 20411 C 1912.13 -3.36877 0.0389378 0
M  V30 20412 O 1912.66 -3.91081 -0.917515 0
M  V30 20413 N 1910.86 -2.90578 -0.0361557 0
M  V30 20414 H 1910.41 -2.46654 0.742925 0
M  V30 20415 H 1910.37 -3.01322 -0.897353 0
M  V30 20416 N 1914.14 -1.27049 -0.93254 0
M  V30 20417 C 1915.07 -1.11867 -2.04959 0
M  V30 20418 C 1916.05 -0.0214563 -1.70086 0
M  V30 20419 O 1917.24 -0.195063 -1.93218 0
M  V30 20420 C 1914.37 -0.759993 -3.38883 0
M  V30 20421 C 1913.32 -1.8099 -3.87849 0
M  V30 20422 C 1912.65 -1.30532 -5.18522 0
M  V30 20423 C 1913.95 -3.21309 -4.11774 0
M  V30 20424 H 1915.64 -2.05309 -2.17918 0
M  V30 20425 H 1913.19 -0.988507 -1.04712 0
M  V30 20426 H 1915.14 -0.640623 -4.16502 0
M  V30 20427 H 1913.86 0.210139 -3.25923 0
M  V30 20428 H 1912.52 -1.91809 -3.12418 0
M  V30 20429 H 1912.17 -0.324784 -5.0195 0
M  V30 20430 H 1911.87 -2.00722 -5.52254 0
M  V30 20431 H 1913.39 -1.19879 -5.98716 0
M  V30 20432 H 1914.81 -3.13517 -4.79979 0
M  V30 20433 H 1913.2 -3.89166 -4.56804 0
M  V30 20434 H 1914.27 -3.66722 -3.17243 0
M  V30 20435 N 1915.62 1.13835 -1.08993 0
M  V30 20436 C 1916.53 2.22715 -0.73724 0
M  V30 20437 C 1917.54 1.72064 0.258869 0
M  V30 20438 O 1918.72 2.01145 0.101321 0
M  V30 20439 C 1915.78 3.46338 -0.158285 0
M  V30 20440 C 1914.85 4.11902 -1.20977 0
M  V30 20441 C 1914.08 5.29624 -0.658349 0
M  V30 20442 O 1914.3 5.68023 0.520219 0
M  V30 20443 O 1913.24 5.85121 -1.41126 0
M  V30 20444 H 1917.06 2.55247 -1.64568 0
M  V30 20445 H 1914.65 1.21882 -0.864013 0
M  V30 20446 H 1916.53 4.2109 0.161481 0
M  V30 20447 H 1915.2 3.15517 0.723235 0
M  V30 20448 H 1914.11 3.38996 -1.58216 0
M  V30 20449 H 1915.44 4.46843 -2.06378 0
M  V30 20450 N 1917.1 0.876467 1.3098 0
M  V30 20451 C 1918.34 0.489671 1.96078 0
M  V30 20452 C 1918.66 -0.962603 1.69585 0
M  V30 20453 O 1917.93 -1.67568 1.01478 0
M  V30 20454 H 1916.51 0.178091 0.72546 0
M  V30 20455 H 1919.18 1.11768 1.59668 0
M  V30 20456 H 1918.27 0.652822 3.05196 0
M  V30 20457 N 1918.57 -1.44173 0.636557 0
M  V30 20458 C 1919.5 -2.33442 -0.0518719 0
M  V30 20459 C 1920.48 -1.48519 -0.829226 0
M  V30 20460 O 1921.67 -1.77225 -0.794028 0
M  V30 20461 C 1918.8 -3.31663 -1.03038 0
M  V30 20462 C 1917.75 -4.26447 -0.364286 0
M  V30 20463 C 1917.08 -5.14577 -1.45308 0
M  V30 20464 C 1918.38 -5.17133 0.732884 0
M  V30 20465 H 1920.07 -2.91255 0.693589 0
M  V30 20466 H 1917.62 -1.40049 0.33499 0
M  V30 20467 H 1919.57 -3.93002 -1.52077 0
M  V30 20468 H 1918.3 -2.72071 -1.80679 0
M  V30 20469 H 1916.96 -3.66448 0.105505 0
M  V30 20470 H 1916.6 -4.51334 -2.22051 0
M  V30 20471 H 1916.3 -5.78807 -1.01274 0
M  V30 20472 H 1917.83 -5.78788 -1.94517 0
M  V30 20473 H 1919.24 -5.72376 0.325363 0
M  V30 20474 H 1917.64 -5.89994 1.09669 0
M  V30 20475 H 1918.71 -4.5782 1.59779 0
M  V30 20476 N 1920.05 -0.377435 -1.53014 0
M  V30 20477 C 1921.3 0.208118 -2.01026 0
M  V30 20478 C 1921.62 1.48307 -1.26609 0
M  V30 20479 O 1920.89 1.92125 -0.382732 0
M  V30 20480 H 1919.47 0.0798957 -0.742715 0
M  V30 20481 H 1922.13 -0.506396 -1.88206 0
M  V30 20482 H 1921.23 0.426737 -3.09169 0
M  V30 20483 N 1921.53 1.57237 -0.106922 0
M  V30 20484 C 1922.48 2.15912 0.865145 0
M  V30 20485 C 1923.47 1.1051 1.2839 0
M  V30 20486 O 1924.68 1.28834 1.25705 0
M  V30 20487 H 1921.05 0.690837 0.297065 0
M  V30 20488 H 1923.02 2.96391 0.345677 0
M  V30 20489 C 1921.77 2.76355 2.11005 0
M  V30 20490 H 1921.1 3.57152 1.79674 0
M  V30 20491 H 1922.54 3.20963 2.77053 0
M  V30 20492 C 1921 1.72834 2.89188 0
M  V30 20493 O 1921.53 1.1744 3.84149 0
M  V30 20494 N 1919.73 1.43053 2.52951 0
M  V30 20495 H 1919.28 1.88289 1.75798 0
M  V30 20496 H 1919.24 0.740287 3.0556 0
M  V30 20497 N 1923.01 -0.166818 1.56715 0
M  V30 20498 C 1923.94 -1.23113 1.93328 0
M  V30 20499 C 1924.95 -1.40238 0.826866 0
M  V30 20500 O 1926.14 -1.40161 1.10531 0
M  V30 20501 C 1923.24 -2.59914 2.17481 0
M  V30 20502 C 1922.42 -2.64028 3.48723 0
M  V30 20503 C 1921.47 -3.82224 3.61651 0
M  V30 20504 O 1920.5 -3.68014 4.34229 0
M  V30 20505 N 1921.7 -4.98868 2.96835 0
M  V30 20506 H 1924.47 -0.920103 2.85227 0
M  V30 20507 H 1922.03 -0.356548 1.57925 0
M  V30 20508 H 1924.02 -3.37459 2.2339 0
M  V30 20509 H 1922.59 -2.83389 1.31945 0
M  V30 20510 H 1921.81 -1.72544 3.54432 0
M  V30 20511 H 1923.1 -2.63792 4.35076 0
M  V30 20512 H 1922.5 -5.13314 2.3775 0
M  V30 20513 H 1921.05 -5.74259 3.08333 0
M  V30 20514 N 1924.49 -1.51463 -0.435524 0
M  V30 20515 C 1925.71 -1.68031 -1.20719 0
M  V30 20516 C 1926.13 -0.378427 -1.84969 0
M  V30 20517 O 1925.49 0.643234 -1.70789 0
M  V30 20518 C 1925.54 -2.79726 -2.28989 0
M  V30 20519 O 1925.26 -4.0487 -1.67367 0
M  V30 20520 C 1926.76 -3.07578 -3.19234 0
M  V30 20521 H 1923.98 -0.56383 -0.363781 0
M  V30 20522 H 1926.52 -1.97888 -0.515825 0
M  V30 20523 H 1924.68 -2.52463 -2.93839 0
M  V30 20524 H 1925.09 -4.66915 -2.38937 0
M  V30 20525 H 1926.57 -3.89309 -3.91334 0
M  V30 20526 H 1927.04 -2.20059 -3.80093 0
M  V30 20527 H 1927.65 -3.36507 -2.60083 0
M  V30 20528 N 1925.96 0.691085 -1.4164 0
M  V30 20529 C 1926.91 1.80495 -1.43841 0
M  V30 20530 C 1927.88 1.63509 -0.292237 0
M  V30 20531 O 1929.07 1.84296 -0.493941 0
M  V30 20532 C 1926.21 3.18412 -1.33072 0
M  V30 20533 C 1925.32 3.46799 -2.57594 0
M  V30 20534 C 1924.45 4.74354 -2.39085 0
M  V30 20535 C 1923.49 4.95723 -3.59061 0
M  V30 20536 N 1922.63 6.14507 -3.39596 0
M  V30 20537 H 1927.47 1.77949 -2.39036 0
M  V30 20538 H 1925.01 0.86893 -1.18693 0
M  V30 20539 H 1926.97 3.98087 -1.24829 0
M  V30 20540 H 1925.6 3.20124 -0.414814 0
M  V30 20541 H 1924.65 2.61496 -2.76268 0
M  V30 20542 H 1925.96 3.58489 -3.46824 0
M  V30 20543 H 1925.11 5.62092 -2.28336 0
M  V30 20544 H 1923.85 4.64918 -1.47319 0
M  V30 20545 H 1922.86 4.06432 -3.70261 0
M  V30 20546 H 1924.08 5.07015 -4.51788 0
M  V30 20547 H 1922.03 6.06275 -2.50532 0
M  V30 20548 H 1921.95 6.26985 -4.22405 0
M  V30 20549 H 1923.21 7.04968 -3.32627 0
M  V30 20550 N 1927.44 1.27542 0.925789 0
M  V30 20551 C 1928.37 1.06229 2.03096 0
M  V30 20552 C 1929.39 0.0177734 1.6279 0
M  V30 20553 O 1930.58 0.259539 1.76603 0
M  V30 20554 C 1927.68 0.589777 3.33729 0
M  V30 20555 C 1926.85 1.70701 4.02716 0
M  V30 20556 C 1925.91 1.22991 5.11624 0
M  V30 20557 O 1924.93 1.92993 5.35483 0
M  V30 20558 N 1926.14 0.086593 5.80435 0
M  V30 20559 H 1928.9 2.01401 2.21941 0
M  V30 20560 H 1926.46 1.19134 1.0963 0
M  V30 20561 H 1928.45 0.254459 4.03899 0
M  V30 20562 H 1927.02 -0.268762 3.11443 0
M  V30 20563 H 1926.24 2.21252 3.26253 0
M  V30 20564 H 1927.53 2.45679 4.45555 0
M  V30 20565 H 1926.93 -0.497638 5.63507 0
M  V30 20566 H 1925.49 -0.189533 6.51524 0
M  V30 20567 N 1928.92 -1.13255 1.09595 0
M  V30 20568 C 1930.17 -1.83925 0.827926 0
M  V30 20569 C 1930.48 -1.84531 -0.64866 0
M  V30 20570 O 1931.69 -2.5111 -1.03228 0
M  V30 20571 C 1930.14 -3.30219 1.43121 0
M  V30 20572 C 1929.75 -3.37996 2.94046 0
M  V30 20573 C 1931.5 -4.05918 1.24221 0
M  V30 20574 C 1929.4 -4.78572 3.47451 0
M  V30 20575 H 1928.33 -0.689091 0.306056 0
M  V30 20576 H 1930.98 -1.27586 1.31887 0
M  V30 20577 H 1929.37 -3.86371 0.867952 0
M  V30 20578 H 1930.54 -2.91829 3.56612 0
M  V30 20579 H 1928.86 -2.75762 3.12 0
M  V30 20580 H 1931.45 -5.09704 1.61573 0
M  V30 20581 H 1931.8 -4.15898 0.183004 0
M  V30 20582 H 1932.33 -3.561 1.77306 0
M  V30 20583 H 1929.07 -4.73785 4.52999 0
M  V30 20584 H 1928.59 -5.25227 2.89649 0
M  V30 20585 H 1930.27 -5.47495 3.44759 0
M  V30 20586 N 1930.4 -0.883401 -1.30514 0
M  V30 20587 C 1931.64 -0.501795 -1.96494 0
M  V30 20588 C 1931.98 0.946294 -1.69585 0
M  V30 20589 O 1931.25 1.66842 -0.999705 0
M  V30 20590 C 1931.54 -0.775405 -3.51653 0
M  V30 20591 C 1931.39 -2.27401 -3.88084 0
M  V30 20592 C 1932.71 -0.250854 -4.39384 0
M  V30 20593 H 1929.83 -0.183786 -0.713717 0
M  V30 20594 H 1932.47 -1.1071 -1.54412 0
M  V30 20595 H 1930.62 -0.260217 -3.87628 0
M  V30 20596 H 1932.29 -2.85748 -3.62141 0
M  V30 20597 H 1930.53 -2.74128 -3.36209 0
M  V30 20598 H 1931.2 -2.41606 -4.96317 0
M  V30 20599 H 1933.68 -0.691785 -4.10309 0
M  V30 20600 H 1932.56 -0.471637 -5.4687 0
M  V30 20601 H 1932.82 0.847835 -4.33894 0
M  V30 20602 N 1931.88 1.43833 -0.644194 0
M  V30 20603 C 1932.79 2.34538 0.0537504 0
M  V30 20604 C 1933.8 1.53369 0.821825 0
M  V30 20605 O 1934.98 1.86053 0.771123 0
M  V30 20606 C 1932.04 3.3153 1.01434 0
M  V30 20607 C 1931.1 4.28605 0.244198 0
M  V30 20608 C 1930.34 5.20963 1.15903 0
M  V30 20609 O 1930.56 5.1754 2.3981 0
M  V30 20610 O 1929.49 5.98527 0.636302 0
M  V30 20611 H 1933.32 2.95696 -0.692624 0
M  V30 20612 H 1930.91 1.43823 -0.404377 0
M  V30 20613 H 1932.79 3.91196 1.56663 0
M  V30 20614 H 1931.46 2.72887 1.7411 0
M  V30 20615 H 1930.37 3.72445 -0.351459 0
M  V30 20616 H 1931.7 4.90204 -0.442806 0
M  V30 20617 N 1933.35 0.385544 1.52811 0
M  V30 20618 C 1934.3 -0.451417 2.26342 0
M  V30 20619 C 1935.27 -1.06094 1.27801 0
M  V30 20620 O 1936.46 -1.08968 1.56623 0
M  V30 20621 C 1933.6 -1.57477 3.07075 0
M  V30 20622 C 1932.71 -0.988468 4.20539 0
M  V30 20623 C 1931.84 -2.08256 4.88675 0
M  V30 20624 C 1930.88 -1.47196 5.94138 0
M  V30 20625 N 1930.02 -2.5052 6.55884 0
M  V30 20626 H 1934.86 0.182092 2.97443 0
M  V30 20627 H 1932.4 0.101628 1.46749 0
M  V30 20628 H 1934.36 -2.23677 3.52171 0
M  V30 20629 H 1932.99 -2.17864 2.38191 0
M  V30 20630 H 1932.04 -0.216168 3.79785 0
M  V30 20631 H 1933.35 -0.502223 4.96265 0
M  V30 20632 H 1932.5 -2.82235 5.37055 0
M  V30 20633 H 1931.24 -2.60239 4.12464 0
M  V30 20634 H 1930.25 -0.717401 5.45099 0
M  V30 20635 H 1931.47 -0.960124 6.72279 0
M  V30 20636 H 1929.42 -3.0168 5.82516 0
M  V30 20637 H 1929.34 -2.0664 7.27211 0
M  V30 20638 H 1930.6 -3.24141 7.0891 0
M  V30 20639 N 1934.83 -1.57178 0.115259 0
M  V30 20640 C 1936.06 -1.99126 -0.550671 0
M  V30 20641 C 1936.47 -0.993751 -1.61001 0
M  V30 20642 O 1935.81 0.0220518 -1.83687 0
M  V30 20643 C 1935.88 -3.37482 -1.2388 0
M  V30 20644 C 1935.54 -4.55823 -0.327848 0
M  V30 20645 C 1936.54 -5.18102 0.432054 0
M  V30 20646 C 1934.22 -5.01726 -0.240012 0
M  V30 20647 C 1936.22 -6.24669 1.26756 0
M  V30 20648 C 1933.9 -6.08156 0.599131 0
M  V30 20649 C 1934.9 -6.69494 1.35155 0
M  V30 20650 O 1934.59 -7.73868 2.17677 0
M  V30 20651 H 1934.32 -0.658991 -0.150689 0
M  V30 20652 H 1936.87 -2.0445 0.197288 0
M  V30 20653 H 1935.1 -3.28901 -2.03375 0
M  V30 20654 H 1936.79 -3.63744 -1.80126 0
M  V30 20655 H 1937.56 -4.83555 0.374044 0
M  V30 20656 H 1933.44 -4.53732 -0.81535 0
M  V30 20657 H 1936.98 -6.72475 1.85533 0
M  V30 20658 H 1932.88 -6.42132 0.658548 0
M  V30 20659 H 1933.65 -7.90948 2.10578 0
M  V30 20660 N 1936.31 0.158505 -1.56801 0
M  V30 20661 C 1937.27 1.17986 -1.96499 0
M  V30 20662 C 1938.27 1.3649 -0.850127 0
M  V30 20663 O 1939.46 1.33678 -1.11696 0
M  V30 20664 C 1936.6 2.54245 -2.27095 0
M  V30 20665 H 1937.79 0.839577 -2.87908 0
M  V30 20666 H 1935.34 0.401431 -1.51057 0
M  V30 20667 H 1936.08 2.93266 -1.38441 0
M  V30 20668 H 1935.86 2.42179 -3.0837 0
M  V30 20669 H 1937.35 3.27829 -2.58686 0
M  V30 20670 N 1937.79 1.51692 0.427485 0
M  V30 20671 C 1939.03 1.66512 1.18545 0
M  V30 20672 C 1939.39 0.377884 1.88245 0
M  V30 20673 O 1940.59 0.401977 2.65777 0
M  V30 20674 C 1938.87 2.84155 2.16774 0
M  V30 20675 S 1940.42 3.19359 3.00925 0
M  V30 20676 H 1937.24 0.586537 0.401865 0
M  V30 20677 H 1939.84 1.89629 0.475503 0
M  V30 20678 H 1938.55 3.7611 1.64224 0
M  V30 20679 H 1938.08 2.63256 2.92335 0
M  V30 20680 H 1940.09 2.66556 4.18524 0
M  V30 20681 N 1939.27 -0.683564 1.42004 0
M  V30 20682 C 1940.5 -1.4721 1.45386 0
M  V30 20683 C 1940.91 -1.88696 0.062603 0
M  V30 20684 O 1940.27 -1.5757 -0.920764 0
M  V30 20685 C 1940.32 -2.7269 2.37323 0
M  V30 20686 O 1940.04 -2.32947 3.71035 0
M  V30 20687 C 1941.54 -3.6633 2.49634 0
M  V30 20688 H 1938.76 -0.453255 0.494773 0
M  V30 20689 H 1941.3 -0.840646 1.86423 0
M  V30 20690 H 1939.46 -3.32044 1.99563 0
M  V30 20691 H 1939.87 -3.13915 4.20188 0
M  V30 20692 H 1941.35 -4.51125 3.18104 0
M  V30 20693 H 1941.82 -4.11636 1.53141 0
M  V30 20694 H 1942.43 -3.12874 2.8808 0
M  V30 20695 N 1940.75 -1.28031 -0.919012 0
M  V30 20696 C 1941.97 -1.17714 -1.7015 0
M  V30 20697 C 1942.39 0.264914 -1.86932 0
M  V30 20698 O 1941.75 1.17957 -1.39256 0
M  V30 20699 C 1941.8 -1.86548 -3.09648 0
M  V30 20700 O 1941.52 -3.25121 -2.93646 0
M  V30 20701 C 1943.02 -1.82467 -4.04006 0
M  V30 20702 H 1940.24 -0.408863 -0.532045 0
M  V30 20703 H 1942.78 -1.69061 -1.1506 0
M  V30 20704 H 1940.94 -1.39085 -3.61572 0
M  V30 20705 H 1941.35 -3.59518 -3.81899 0
M  V30 20706 H 1942.83 -2.35229 -4.99371 0
M  V30 20707 H 1943.3 -0.795892 -4.31928 0
M  V30 20708 H 1943.91 -2.29585 -3.5801 0
M  V30 20709 N 1942.22 1.12672 -1.10194 0
M  V30 20710 C 1943.64 1.36123 -0.833225 0
M  V30 20711 C 1943.84 1.93889 0.548569 0
M  V30 20712 O 1942.9 2.16347 1.30192 0
M  V30 20713 C 1944.21 2.30515 -1.93089 0
M  V30 20714 C 1945.76 2.44111 -1.95905 0
M  V30 20715 C 1946.23 3.41816 -3.04838 0
M  V30 20716 N 1947.72 3.49371 -3.04128 0
M  V30 20717 C 1948.46 4.24874 -3.85058 0
M  V30 20718 N 1947.95 5.03464 -4.75916 0
M  V30 20719 N 1949.75 4.20255 -3.73285 0
M  V30 20720 H 1941.9 0.735332 -1.99265 0
M  V30 20721 H 1944.16 0.386141 -0.865794 0
M  V30 20722 H 1943.87 1.95239 -2.92531 0
M  V30 20723 H 1943.74 3.30611 -1.81593 0
M  V30 20724 H 1946.13 2.78669 -0.97097 0
M  V30 20725 H 1946.21 1.43911 -2.11479 0
M  V30 20726 H 1945.85 3.07988 -4.03864 0
M  V30 20727 H 1945.78 4.41839 -2.86506 0
M  V30 20728 H 1948.27 2.93303 -2.38289 0
M  V30 20729 H 1948.59 5.58406 -5.34231 0
M  V30 20730 H 1946.93 5.02669 -4.79946 0
M  V30 20731 H 1950.12 3.57939 -3.01658 0
M  V30 20732 H 1950.3 4.78843 -4.36593 0
M  V30 20733 N 1943.7 0.89031 1.30043 0
M  V30 20734 C 1944.95 0.507478 1.95212 0
M  V30 20735 C 1945.26 -0.949179 1.71026 0
M  V30 20736 O 1946.47 -1.4391 2.30222 0
M  V30 20737 C 1944.93 0.856657 3.49556 0
M  V30 20738 C 1944.53 2.33145 3.82554 0
M  V30 20739 C 1946.28 0.543281 4.21009 0
M  V30 20740 C 1944.18 2.62198 5.301 0
M  V30 20741 H 1943.11 0.186056 0.730684 0
M  V30 20742 H 1945.77 1.08602 1.47912 0
M  V30 20743 H 1944.15 0.207146 3.95458 0
M  V30 20744 H 1945.32 3.02572 3.47544 0
M  V30 20745 H 1943.64 2.61289 3.24217 0
M  V30 20746 H 1946.23 0.737312 5.29592 0
M  V30 20747 H 1946.58 -0.517644 4.13069 0
M  V30 20748 H 1947.11 1.15022 3.80808 0
M  V30 20749 H 1943.85 3.67052 5.43096 0
M  V30 20750 H 1943.37 1.97385 5.66392 0
M  V30 20751 H 1945.05 2.47975 5.97593 0
M  V30 20752 N 1945.18 -1.43489 0.651812 0
M  V30 20753 C 1946.4 -2.06696 0.170683 0
M  V30 20754 C 1946.83 -1.48527 -1.15418 0
M  V30 20755 O 1946.19 -0.594665 -1.7127 0
M  V30 20756 C 1946.24 -3.60484 0.0915457 0
M  V30 20757 O 1945.34 -4.01388 -0.946644 0
M  V30 20758 H 1944.68 -0.65728 0.0942276 0
M  V30 20759 H 1947.21 -1.84018 0.89434 0
M  V30 20760 H 1947.22 -4.07896 -0.0922419 0
M  V30 20761 H 1945.9 -4.02199 1.0587 0
M  V30 20762 H 1944.47 -3.65569 -0.735758 0
M  V30 20763 N 1946.66 -0.393643 -1.52605 0
M  V30 20764 C 1948.07 0.0794242 -1.86531 0
M  V30 20765 C 1948.42 1.45778 -1.31313 0
M  V30 20766 O 1947.54 2.06526 -0.646206 0
M  V30 20767 C 1948.14 0.150899 -3.38464 0
M  V30 20768 C 1946.7 0.568268 -3.72086 0
M  V30 20769 C 1945.85 -0.267031 -2.76011 0
M  V30 20770 H 1948.8 -0.611344 -1.46452 0
M  V30 20771 H 1948.82 0.969194 -3.6795 0
M  V30 20772 H 1948.33 -0.852425 -3.78623 0
M  V30 20773 H 1946.43 1.5788 -3.37498 0
M  V30 20774 H 1946.54 0.323405 -4.78007 0
M  V30 20775 H 1944.91 0.268347 -2.53282 0
M  V30 20776 H 1945.69 -1.26841 -3.19008 0
M  V30 20777 N 1948.14 1.57115 -0.123593 0
M  V30 20778 C 1949.08 2.16817 0.842196 0
M  V30 20779 C 1950.08 1.11865 1.27211 0
M  V30 20780 O 1951.28 1.3016 1.24331 0
M  V30 20781 H 1947.66 0.693949 0.289721 0
M  V30 20782 H 1949.63 2.96741 0.314221 0
M  V30 20783 C 1948.38 2.78577 2.08062 0
M  V30 20784 H 1947.7 3.59037 1.75876 0
M  V30 20785 H 1949.14 3.23884 2.73634 0
M  V30 20786 C 1947.6 1.75892 2.87339 0
M  V30 20787 O 1948.13 1.21508 3.82882 0
M  V30 20788 N 1946.34 1.45728 2.5142 0
M  V30 20789 H 1945.88 1.90143 1.73791 0
M  V30 20790 H 1945.84 0.772654 3.04758 0
M  V30 20791 N 1949.61 -0.150187 1.56883 0
M  V30 20792 C 1950.84 -0.87835 1.8733 0
M  V30 20793 C 1951.26 -1.74883 0.711426 0
M  V30 20794 O 1950.61 -1.79692 -0.318906 0
M  V30 20795 C 1950.66 -1.73769 3.16996 0
M  V30 20796 O 1950.39 -0.902296 4.28708 0
M  V30 20797 C 1951.89 -2.57371 3.60936 0
M  V30 20798 H 1949.11 -0.254139 0.621011 0
M  V30 20799 H 1951.65 -0.143933 2.03993 0
M  V30 20800 H 1949.81 -2.42521 3.02097 0
M  V30 20801 H 1950.22 -1.49198 5.02832 0
M  V30 20802 H 1951.69 -3.13249 4.5451 0
M  V30 20803 H 1952.17 -3.33257 2.86071 0
M  V30 20804 H 1952.78 -1.93916 3.78519 0
M  V30 20805 N 1951.09 -1.51916 -0.419434 0
M  V30 20806 C 1952.32 -1.69592 -1.19387 0
M  V30 20807 C 1952.74 -0.400225 -1.83793 0
M  V30 20808 O 1952.1 0.641368 -1.69576 0
M  V30 20809 C 1952.15 -2.8256 -2.24036 0
M  V30 20810 O 1951.25 -2.4741 -3.29942 0
M  V30 20811 H 1950.59 -0.564898 -0.348978 0
M  V30 20812 H 1953.12 -1.9857 -0.493064 0
M  V30 20813 H 1953.13 -3.07171 -2.68533 0
M  V30 20814 H 1951.81 -3.76572 -1.7654 0
M  V30 20815 H 1950.39 -2.33435 -2.90796 0
M  V30 20816 N 1952.57 0.676023 -1.42365 0
M  V30 20817 C 1953.5 1.80154 -1.41695 0
M  V30 20818 C 1954.52 1.597 -0.316199 0
M  V30 20819 O 1955.7 1.68841 -0.579207 0
M  V30 20820 C 1952.8 3.17239 -1.19217 0
M  V30 20821 C 1951.98 3.64553 -2.41703 0
M  V30 20822 C 1951.04 4.80367 -2.14788 0
M  V30 20823 O 1950.06 4.90975 -2.87979 0
M  V30 20824 N 1951.26 5.6899 -1.15025 0
M  V30 20825 H 1954.03 1.81214 -2.38708 0
M  V30 20826 H 1951.59 0.859069 -1.37228 0
M  V30 20827 H 1953.58 3.92371 -0.991311 0
M  V30 20828 H 1952.15 3.11086 -0.307313 0
M  V30 20829 H 1951.37 2.80112 -2.77364 0
M  V30 20830 H 1952.66 3.92906 -3.23268 0
M  V30 20831 H 1952.06 5.6307 -0.544872 0
M  V30 20832 H 1950.62 6.43939 -1.00926 0
M  V30 20833 N 1954.05 1.28517 0.912209 0
M  V30 20834 C 1954.98 1.08378 2.01958 0
M  V30 20835 C 1955.99 0.0350385 1.62762 0
M  V30 20836 O 1957.18 0.278256 1.76318 0
M  V30 20837 C 1954.28 0.62514 3.33084 0
M  V30 20838 C 1953.46 1.74963 4.00882 0
M  V30 20839 C 1952.51 1.28411 5.10291 0
M  V30 20840 O 1951.54 1.98662 5.33406 0
M  V30 20841 N 1952.74 0.148151 5.80311 0
M  V30 20842 H 1955.51 2.03744 2.19792 0
M  V30 20843 H 1953.07 1.2029 1.0836 0
M  V30 20844 H 1955.06 0.297284 4.03607 0
M  V30 20845 H 1953.63 -0.235714 3.1171 0
M  V30 20846 H 1952.85 2.247 3.23888 0
M  V30 20847 H 1954.14 2.50391 4.42924 0
M  V30 20848 H 1953.54 -0.437843 5.64003 0
M  V30 20849 H 1952.09 -0.120419 6.51689 0
M  V30 20850 N 1955.53 -1.12086 1.1079 0
M  V30 20851 C 1956.47 -2.20006 0.755001 0
M  V30 20852 C 1957.47 -1.67538 -0.250501 0
M  V30 20853 O 1958.67 -1.79661 -0.110486 0
M  V30 20854 H 1955.05 -0.717162 0.226237 0
M  V30 20855 H 1957.02 -2.47022 1.67399 0
M  V30 20856 C 1955.77 -3.47083 0.207038 0
M  V30 20857 H 1955.09 -3.87805 0.971991 0
M  V30 20858 H 1956.53 -4.24 -0.00177915 0
M  V30 20859 C 1954.99 -3.19753 -1.06112 0
M  V30 20860 O 1955.52 -3.39825 -2.142 0
M  V30 20861 N 1953.73 -2.73534 -0.981212 0
M  V30 20862 H 1953.27 -2.574 -0.101519 0
M  V30 20863 H 1953.23 -2.55624 -1.83041 0
M  V30 20864 N 1957 -0.897194 -1.29569 0
M  V30 20865 C 1958.25 -0.521834 -1.95661 0
M  V30 20866 C 1958.58 0.931396 -1.70749 0
M  V30 20867 O 1957.83 1.67507 -1.01192 0
M  V30 20868 C 1958.13 -0.757743 -3.49275 0
M  V30 20869 C 1957.8 -2.18794 -3.94259 0
M  V30 20870 C 1956.46 -2.57901 -4.06252 0
M  V30 20871 C 1958.81 -3.11942 -4.17542 0
M  V30 20872 C 1956.14 -3.89341 -4.38897 0
M  V30 20873 C 1958.49 -4.42928 -4.51661 0
M  V30 20874 C 1957.16 -4.81911 -4.61864 0
M  V30 20875 H 1956.43 -0.190953 -0.715974 0
M  V30 20876 H 1959.07 -1.13537 -1.54212 0
M  V30 20877 H 1957.38 -0.0612622 -3.91752 0
M  V30 20878 H 1959.08 -0.446734 -3.98504 0
M  V30 20879 H 1955.67 -1.87443 -3.85439 0
M  V30 20880 H 1959.85 -2.82944 -4.07745 0
M  V30 20881 H 1955.11 -4.19269 -4.44998 0
M  V30 20882 H 1959.28 -5.15133 -4.68627 0
M  V30 20883 H 1956.91 -5.83797 -4.86914 0
M  V30 20884 N 1958.48 1.43142 -0.659413 0
M  V30 20885 C 1959.73 2.02038 -0.175593 0
M  V30 20886 C 1960.06 1.5194 1.20946 0
M  V30 20887 O 1959.34 0.715095 1.80877 0
M  V30 20888 C 1959.62 3.59581 -0.193256 0
M  V30 20889 C 1959.47 4.19896 -1.61267 0
M  V30 20890 C 1960.79 4.37616 0.466976 0
M  V30 20891 H 1957.91 0.734103 -0.0652811 0
M  V30 20892 H 1960.55 1.7036 -0.841276 0
M  V30 20893 H 1958.7 3.867 0.373574 0
M  V30 20894 H 1960.37 4.03786 -2.23056 0
M  V30 20895 H 1958.62 3.7631 -2.15807 0
M  V30 20896 H 1959.29 5.28999 -1.57683 0
M  V30 20897 H 1961.76 4.16097 -0.0153667 0
M  V30 20898 H 1960.64 5.47261 0.423915 0
M  V30 20899 H 1960.9 4.14332 1.54211 0
M  V30 20900 N 1959.96 0.40173 1.52394 0
M  V30 20901 C 1961.19 -0.17617 2.06149 0
M  V30 20902 C 1961.6 -1.39481 1.27242 0
M  V30 20903 O 1960.96 -1.79631 0.322321 0
M  V30 20904 C 1961.01 -0.533965 3.57535 0
M  V30 20905 O 1960.73 0.63627 4.33455 0
M  V30 20906 C 1962.23 -1.16639 4.2768 0
M  V30 20907 H 1959.45 -0.0236483 0.670583 0
M  V30 20908 H 1962 0.570549 1.9638 0
M  V30 20909 H 1960.15 -1.23058 3.67336 0
M  V30 20910 H 1960.57 0.339373 5.23401 0
M  V30 20911 H 1962.04 -1.36701 5.34805 0
M  V30 20912 H 1962.52 -2.13737 3.83684 0
M  V30 20913 H 1963.12 -0.510194 4.22229 0
M  V30 20914 N 1961.44 -1.57047 0.131923 0
M  V30 20915 C 1962.37 -2.13088 -0.844174 0
M  V30 20916 C 1963.38 -1.07666 -1.22114 0
M  V30 20917 O 1964.57 -1.34995 -1.16784 0
M  V30 20918 C 1961.67 -2.62623 -2.14201 0
M  V30 20919 C 1960.85 -3.92283 -1.93475 0
M  V30 20920 C 1959.9 -4.27284 -3.07107 0
M  V30 20921 O 1958.93 -4.95876 -2.79456 0
M  V30 20922 N 1960.13 -3.85646 -4.33887 0
M  V30 20923 H 1962.9 -2.97465 -0.365306 0
M  V30 20924 H 1960.46 -1.61816 -0.0521136 0
M  V30 20925 H 1962.45 -2.8306 -2.89239 0
M  V30 20926 H 1961.02 -1.83054 -2.53397 0
M  V30 20927 H 1960.24 -3.80625 -1.02558 0
M  V30 20928 H 1961.53 -4.7704 -1.76947 0
M  V30 20929 H 1960.93 -3.30348 -4.59224 0
M  V30 20930 H 1959.48 -4.11165 -5.05754 0
M  V30 20931 N 1962.92 0.141865 -1.5696 0
M  V30 20932 C 1964.33 0.494676 -1.5174 0
M  V30 20933 C 1964.53 1.83101 -0.8412 0
M  V30 20934 O 1963.59 2.49085 -0.413886 0
M  V30 20935 C 1964.9 0.500247 -2.9651 0
M  V30 20936 C 1966.45 0.585404 -3.07477 0
M  V30 20937 C 1966.92 0.621588 -4.53762 0
M  V30 20938 N 1968.42 0.683668 -4.58127 0
M  V30 20939 C 1969.15 0.732734 -5.68699 0
M  V30 20940 N 1968.65 0.740833 -6.88828 0
M  V30 20941 N 1970.44 0.774006 -5.56745 0
M  V30 20942 H 1962.59 -0.734022 -1.99314 0
M  V30 20943 H 1964.85 -0.268231 -0.909261 0
M  V30 20944 H 1964.56 -0.413562 -3.4926 0
M  V30 20945 H 1964.43 1.33632 -3.52735 0
M  V30 20946 H 1966.82 1.48963 -2.54743 0
M  V30 20947 H 1966.9 -0.277919 -2.54286 0
M  V30 20948 H 1966.55 -0.278504 -5.07136 0
M  V30 20949 H 1966.48 1.50147 -5.04741 0
M  V30 20950 H 1968.97 0.6845 -3.71649 0
M  V30 20951 H 1969.28 0.780262 -7.68851 0
M  V30 20952 H 1967.62 0.708625 -6.91378 0
M  V30 20953 H 1970.82 0.764885 -4.61809 0
M  V30 20954 H 1970.99 0.808779 -6.42933 0
M  V30 20955 N 1964.39 1.52136 0.411372 0
M  V30 20956 C 1965.62 1.70223 1.18486 0
M  V30 20957 C 1966.04 0.409966 1.83578 0
M  V30 20958 O 1965.4 -0.632366 1.69914 0
M  V30 20959 C 1965.45 2.83744 2.22535 0
M  V30 20960 O 1964.55 2.49157 3.28625 0
M  V30 20961 H 1963.9 0.566741 0.345978 0
M  V30 20962 H 1966.43 1.98829 0.482526 0
M  V30 20963 H 1966.44 3.08591 2.669 0
M  V30 20964 H 1965.11 3.77503 1.74541 0
M  V30 20965 H 1963.69 2.34974 2.89554 0
M  V30 20966 N 1965.87 -0.668464 1.42721 0
M  V30 20967 C 1966.82 -1.78184 1.46694 0
M  V30 20968 C 1967.79 -1.63023 0.318213 0
M  V30 20969 O 1968.98 -1.83486 0.523198 0
M  V30 20970 C 1966.12 -3.16254 1.3812 0
M  V30 20971 C 1965.23 -3.42657 2.63078 0
M  V30 20972 C 1964.36 -4.7049 2.46602 0
M  V30 20973 C 1963.4 -4.89948 3.66902 0
M  V30 20974 N 1962.54 -6.09027 3.49329 0
M  V30 20975 H 1967.38 -1.74123 2.41837 0
M  V30 20976 H 1964.92 -0.849937 1.2006 0
M  V30 20977 H 1966.87 -3.96051 1.31146 0
M  V30 20978 H 1965.5 -3.19423 0.46569 0
M  V30 20979 H 1964.56 -2.57068 2.80393 0
M  V30 20980 H 1965.87 -3.52926 3.52484 0
M  V30 20981 H 1965.02 -5.58388 2.37249 0
M  V30 20982 H 1963.76 -4.62515 1.54696 0
M  V30 20983 H 1962.77 -4.0049 3.7668 0
M  V30 20984 H 1963.99 -4.99764 4.59797 0
M  V30 20985 H 1961.94 -6.02213 2.60146 0
M  V30 20986 H 1961.85 -6.20186 4.32326 0
M  V30 20987 H 1963.12 -6.99587 3.438 0
M  V30 20988 N 1967.35 -1.28999 -0.905381 0
M  V30 20989 C 1968.77 -1.06887 -1.18522 0
M  V30 20990 C 1968.97 0.183459 -2.00663 0
M  V30 20991 O 1968.02 0.882808 -2.36564 0
M  V30 20992 C 1969.34 -2.32111 -1.91168 0
M  V30 20993 C 1970.88 -2.37374 -2.04017 0
M  V30 20994 C 1971.36 -3.62386 -2.80072 0
M  V30 20995 N 1972.85 -3.63075 -2.87629 0
M  V30 20996 C 1973.59 -4.56485 -3.47 0
M  V30 20997 N 1973.08 -5.60222 -4.07582 0
M  V30 20998 N 1974.87 -4.44065 -3.44619 0
M  V30 20999 H 1967.03 -2.09375 -0.357185 0
M  V30 21000 H 1969.29 -0.92195 -0.220707 0
M  V30 21001 H 1968.99 -3.23391 -1.38243 0
M  V30 21002 H 1968.87 -2.39178 -2.91674 0
M  V30 21003 H 1971.26 -1.46585 -2.56119 0
M  V30 21004 H 1971.34 -2.34296 -1.0266 0
M  V30 21005 H 1970.98 -4.53523 -2.28647 0
M  V30 21006 H 1970.91 -3.6272 -3.81761 0
M  V30 21007 H 1973.4 -2.88065 -2.44595 0
M  V30 21008 H 1973.71 -6.27629 -4.50889 0
M  V30 21009 H 1972.06 -5.64038 -4.06061 0
M  V30 21010 H 1975.25 -3.62218 -2.96505 0
M  V30 21011 H 1975.42 -5.17049 -3.90595 0
M  V30 21012 N 1968.83 1.11497 -1.11383 0
M  V30 21013 C 1969.79 2.15704 -0.774896 0
M  V30 21014 C 1970.79 1.59482 0.205448 0
M  V30 21015 O 1971.98 1.7419 -0.018959 0
M  V30 21016 C 1969.11 3.40572 -0.149551 0
M  V30 21017 H 1970.31 2.47199 -1.69802 0
M  V30 21018 H 1967.86 1.26673 -0.915627 0
M  V30 21019 H 1968.6 3.14685 0.78383 0
M  V30 21020 H 1968.38 3.82659 -0.855233 0
M  V30 21021 H 1969.87 4.17539 0.0714744 0
M  V30 21022 N 1970.31 0.904053 1.29092 0
M  V30 21023 C 1971.24 0.401805 2.30017 0
M  V30 21024 C 1972.22 -0.525477 1.6178 0
M  V30 21025 O 1973.4 -0.435279 1.89259 0
M  V30 21026 C 1970.53 -0.367656 3.45348 0
M  V30 21027 C 1969.49 0.469596 4.25416 0
M  V30 21028 C 1968.81 -0.427624 5.32987 0
M  V30 21029 C 1970.11 1.7218 4.93104 0
M  V30 21030 H 1971.81 1.24523 2.72276 0
M  V30 21031 H 1969.35 0.600215 1.30895 0
M  V30 21032 H 1971.31 -0.729791 4.15033 0
M  V30 21033 H 1970.03 -1.2449 3.01944 0
M  V30 21034 H 1968.69 0.814119 3.57446 0
M  V30 21035 H 1968.34 -1.30313 4.85827 0
M  V30 21036 H 1968.04 0.128909 5.87459 0
M  V30 21037 H 1969.56 -0.785855 6.05522 0
M  V30 21038 H 1970.98 1.42914 5.55201 0
M  V30 21039 H 1969.37 2.21999 5.57527 0
M  V30 21040 H 1970.44 2.45526 4.18145 0
M  V30 21041 N 1971.79 -1.4279 0.666995 0
M  V30 21042 C 1972.73 -2.30794 -0.0161644 0
M  V30 21043 C 1973.7 -1.45527 -0.800701 0
M  V30 21044 O 1974.89 -1.74372 -0.774527 0
M  V30 21045 C 1972.03 -3.31276 -0.966974 0
M  V30 21046 C 1971.14 -4.31637 -0.177086 0
M  V30 21047 C 1970.28 -5.19195 -1.12294 0
M  V30 21048 C 1969.31 -6.1124 -0.324284 0
M  V30 21049 N 1968.45 -6.91376 -1.22244 0
M  V30 21050 H 1973.29 -2.88662 0.74014 0
M  V30 21051 H 1970.83 -1.42194 0.376738 0
M  V30 21052 H 1972.79 -3.88054 -1.53198 0
M  V30 21053 H 1971.42 -2.75025 -1.69 0
M  V30 21054 H 1970.47 -3.77041 0.504428 0
M  V30 21055 H 1971.78 -4.96826 0.443328 0
M  V30 21056 H 1970.93 -5.80667 -1.75813 0
M  V30 21057 H 1969.67 -4.54164 -1.77725 0
M  V30 21058 H 1968.68 -5.48843 0.324174 0
M  V30 21059 H 1969.9 -6.78318 0.325818 0
M  V30 21060 H 1967.85 -6.28981 -1.86329 0
M  V30 21061 H 1967.77 -7.5314 -0.656918 0
M  V30 21062 H 1969.03 -7.57342 -1.84535 0
M  V30 21063 N 1973.26 -0.409806 -1.52179 0
M  V30 21064 C 1974.2 0.450738 -2.24724 0
M  V30 21065 C 1975.21 1.00962 -1.27713 0
M  V30 21066 O 1976.4 0.908449 -1.53654 0
M  V30 21067 C 1973.5 1.63947 -2.96605 0
M  V30 21068 C 1972.67 1.20435 -4.20493 0
M  V30 21069 C 1971.73 2.26007 -4.75192 0
M  V30 21070 O 1970.76 1.86569 -5.37755 0
M  V30 21071 N 1971.96 3.58179 -4.56824 0
M  V30 21072 H 1974.72 -0.170894 -2.99212 0
M  V30 21073 H 1972.28 -0.237221 -1.60153 0
M  V30 21074 H 1974.28 2.34138 -3.30093 0
M  V30 21075 H 1972.85 2.16701 -2.25299 0
M  V30 21076 H 1972.07 0.330532 -3.92812 0
M  V30 21077 H 1973.35 0.890608 -5.00945 0
M  V30 21078 H 1972.75 3.92969 -4.0693 0
M  V30 21079 H 1971.31 4.24345 -4.94747 0
M  V30 21080 N 1974.74 1.56975 -0.14025 0
M  V30 21081 C 1975.99 1.95906 0.512543 0
M  V30 21082 C 1976.32 1.02475 1.65315 0
M  V30 21083 O 1975.57 0.0526473 1.95629 0
M  V30 21084 C 1975.87 3.4113 1.06606 0
M  V30 21085 C 1975.54 4.50878 0.044598 0
M  V30 21086 C 1974.2 4.8062 -0.236217 0
M  V30 21087 C 1976.55 5.17126 -0.650368 0
M  V30 21088 C 1973.88 5.73919 -1.21792 0
M  V30 21089 C 1976.23 6.11483 -1.62084 0
M  V30 21090 C 1974.89 6.39607 -1.90943 0
M  V30 21091 H 1974.16 0.716872 0.187553 0
M  V30 21092 H 1976.81 1.90166 -0.225653 0
M  V30 21093 H 1975.12 3.43669 1.88145 0
M  V30 21094 H 1976.81 3.68577 1.57961 0
M  V30 21095 H 1973.4 4.27726 0.273651 0
M  V30 21096 H 1977.59 4.94286 -0.446606 0
M  V30 21097 H 1972.84 5.94005 -1.44802 0
M  V30 21098 H 1977.02 6.61895 -2.1649 0
M  V30 21099 H 1974.64 7.11707 -2.67165 0
M  V30 21100 N 1976.22 -0.133539 1.57033 0
M  V30 21101 C 1977.64 -0.486622 1.52 0
M  V30 21102 C 1977.84 -1.82653 0.850899 0
M  V30 21103 O 1976.89 -2.48862 0.42709 0
M  V30 21104 C 1978.2 -0.484516 2.96771 0
M  V30 21105 C 1979.75 -0.56909 3.07783 0
M  V30 21106 C 1980.23 -0.597515 4.54086 0
M  V30 21107 N 1981.72 -0.659363 4.58483 0
M  V30 21108 C 1982.45 -0.702564 5.6908 0
M  V30 21109 N 1981.95 -0.704292 6.89211 0
M  V30 21110 N 1983.74 -0.74447 5.57148 0
M  V30 21111 H 1975.89 0.744582 1.98921 0
M  V30 21112 H 1978.16 0.273049 0.907826 0
M  V30 21113 H 1977.86 0.432078 3.49036 0
M  V30 21114 H 1977.74 -1.3176 3.53439 0
M  V30 21115 H 1980.12 -1.4761 2.55529 0
M  V30 21116 H 1980.2 0.291401 2.54135 0
M  V30 21117 H 1979.85 0.305395 5.06981 0
M  V30 21118 H 1979.78 -1.47469 5.0553 0
M  V30 21119 H 1982.27 -0.664781 3.72007 0
M  V30 21120 H 1982.58 -0.739477 7.69254 0
M  V30 21121 H 1980.93 -0.67195 6.91744 0
M  V30 21122 H 1984.12 -0.740383 4.62208 0
M  V30 21123 H 1984.29 -0.774672 6.43353 0
M  V30 21124 N 1977.7 -1.52352 -0.403298 0
M  V30 21125 C 1978.63 -1.79074 -1.49849 0
M  V30 21126 C 1979.61 -0.642006 -1.57519 0
M  V30 21127 O 1980.79 -0.888182 -1.72699 0
M  V30 21128 C 1977.92 -1.9467 -2.87612 0
M  V30 21129 C 1976.88 -3.10295 -2.9479 0
M  V30 21130 C 1976.2 -3.11122 -4.34864 0
M  V30 21131 C 1977.5 -4.49643 -2.65741 0
M  V30 21132 H 1979.2 -2.70783 -1.27737 0
M  V30 21133 H 1976.74 -1.30298 -0.613064 0
M  V30 21134 H 1978.7 -2.11947 -3.64221 0
M  V30 21135 H 1977.42 -0.996377 -3.1103 0
M  V30 21136 H 1976.08 -2.92778 -2.20627 0
M  V30 21137 H 1975.73 -2.13801 -4.553 0
M  V30 21138 H 1975.43 -3.88786 -4.4059 0
M  V30 21139 H 1976.95 -3.30536 -5.13399 0
M  V30 21140 H 1978.37 -4.67335 -3.3207 0
M  V30 21141 H 1976.76 -5.29268 -2.82835 0
M  V30 21142 H 1977.83 -4.57339 -1.61149 0
M  V30 21143 N 1979.18 0.660885 -1.43074 0
M  V30 21144 C 1980.59 1.24187 -1.39407 0
M  V30 21145 C 1980.94 1.95973 -0.0942854 0
M  V30 21146 O 1980.06 2.00808 0.80654 0
M  V30 21147 C 1980.66 2.25865 -2.52528 0
M  V30 21148 C 1979.22 2.79459 -2.5215 0
M  V30 21149 C 1978.36 1.53984 -2.30617 0
M  V30 21150 H 1981.31 0.453383 -1.52086 0
M  V30 21151 H 1981.34 3.07886 -2.23577 0
M  V30 21152 H 1980.85 1.73589 -3.47114 0
M  V30 21153 H 1978.95 3.35818 -1.61422 0
M  V30 21154 H 1979.06 3.27526 -3.49662 0
M  V30 21155 H 1977.43 1.81056 -1.79139 0
M  V30 21156 H 1978.21 1.03654 -3.27278 0
M  V30 21157 N 1980.65 1.29477 0.898527 0
M  V30 21158 C 1981.58 1.17262 2.01921 0
M  V30 21159 C 1982.57 0.0665442 1.6997 0
M  V30 21160 O 1983.75 0.246223 1.92633 0
M  V30 21161 C 1980.88 0.849575 3.36748 0
M  V30 21162 C 1979.83 1.91209 3.82914 0
M  V30 21163 C 1979.16 1.44234 5.14879 0
M  V30 21164 C 1980.46 3.32113 4.03111 0
M  V30 21165 H 1982.15 2.11015 2.12398 0
M  V30 21166 H 1979.7 1.01592 1.02054 0
M  V30 21167 H 1981.65 0.750826 4.14657 0
M  V30 21168 H 1980.38 -0.123652 3.26366 0
M  V30 21169 H 1979.04 2.00025 3.07222 0
M  V30 21170 H 1978.68 0.457753 5.00913 0
M  V30 21171 H 1978.38 2.15293 5.46738 0
M  V30 21172 H 1979.91 1.35711 5.95327 0
M  V30 21173 H 1981.32 3.26133 4.71498 0
M  V30 21174 H 1979.72 4.0114 4.46326 0
M  V30 21175 H 1980.79 3.75004 3.07408 0
M  V30 21176 N 1982.13 -1.10905 1.11972 0
M  V30 21177 C 1983.04 -2.20682 0.796029 0
M  V30 21178 C 1984.06 -1.72689 -0.213158 0
M  V30 21179 O 1985.23 -2.01343 -0.047955 0
M  V30 21180 C 1982.3 -3.45797 0.250055 0
M  V30 21181 C 1981.36 -4.08549 1.31855 0
M  V30 21182 C 1980.59 -5.27692 0.798538 0
M  V30 21183 O 1980.82 -5.69202 -0.369435 0
M  V30 21184 O 1979.75 -5.81174 1.5659 0
M  V30 21185 H 1983.58 -2.50794 1.71278 0
M  V30 21186 H 1981.16 -1.19548 0.896024 0
M  V30 21187 H 1983.04 -4.21371 -0.0497791 0
M  V30 21188 H 1981.72 -3.17324 -0.639327 0
M  V30 21189 H 1980.63 -3.34682 1.67148 0
M  V30 21190 H 1981.96 -4.41215 2.18153 0
M  V30 21191 N 1983.61 -0.910886 -1.2861 0
M  V30 21192 C 1984.52 -0.402088 -2.31129 0
M  V30 21193 C 1985.54 0.508811 -1.66394 0
M  V30 21194 O 1986.71 0.395691 -1.97475 0
M  V30 21195 C 1983.78 0.352182 -3.44907 0
M  V30 21196 C 1982.84 -0.59159 -4.25204 0
M  V30 21197 C 1982.07 0.126778 -5.33549 0
M  V30 21198 O 1982.29 1.34897 -5.54219 0
M  V30 21199 O 1981.23 -0.536442 -5.99505 0
M  V30 21200 H 1985.05 -1.25289 -2.76652 0
M  V30 21201 H 1982.64 -0.675604 -1.33251 0
M  V30 21202 H 1984.52 0.778285 -4.14151 0
M  V30 21203 H 1983.2 1.17886 -3.01471 0
M  V30 21204 H 1982.1 -1.06703 -3.5856 0
M  V30 21205 H 1983.44 -1.38501 -4.72312 0
M  V30 21206 N 1985.09 1.42434 -0.674558 0
M  V30 21207 C 1986.32 2.05881 -0.205113 0
M  V30 21208 C 1986.73 1.50677 1.13763 0
M  V30 21209 O 1986.09 0.646479 1.70666 0
M  V30 21210 C 1986.14 3.61262 -0.131194 0
M  V30 21211 O 1985.86 4.14419 -1.42087 0
M  V30 21212 C 1987.36 4.41821 0.361775 0
M  V30 21213 H 1984.58 0.663535 -0.0998083 0
M  V30 21214 H 1987.13 1.82575 -0.921226 0
M  V30 21215 H 1985.28 3.8368 0.535604 0
M  V30 21216 H 1985.69 5.08285 -1.29407 0
M  V30 21217 H 1987.17 5.50809 0.362405 0
M  V30 21218 H 1987.65 4.1639 1.39699 0
M  V30 21219 H 1988.25 4.24421 -0.273278 0
M  V30 21220 N 1986.57 0.417871 1.51959 0
M  V30 21221 C 1987.48 -0.409946 2.3099 0
M  V30 21222 C 1988.49 -1.04559 1.39081 0
M  V30 21223 O 1989.67 -1.0452 1.72155 0
M  V30 21224 C 1986.73 -1.50691 3.12239 0
M  V30 21225 C 1985.79 -0.893424 4.199 0
M  V30 21226 C 1985.03 -1.93812 4.97265 0
M  V30 21227 O 1985.25 -3.15756 4.75031 0
M  V30 21228 O 1984.18 -1.53948 5.81879 0
M  V30 21229 H 1988.01 0.234696 3.02792 0
M  V30 21230 H 1985.6 0.180861 1.48301 0
M  V30 21231 H 1987.48 -2.14355 3.62808 0
M  V30 21232 H 1986.15 -2.136 2.43222 0
M  V30 21233 H 1985.06 -0.219262 3.73457 0
M  V30 21234 H 1986.39 -0.308133 4.91235 0
M  V30 21235 N 1988.04 -1.56898 0.148573 0
M  V30 21236 C 1988.97 -2.19852 -0.786585 0
M  V30 21237 C 1989.96 -1.14723 -1.2559 0
M  V30 21238 O 1991.14 -1.43071 -1.31317 0
M  V30 21239 C 1988.27 -2.82137 -2.02524 0
M  V30 21240 C 1987.22 -3.93108 -1.69264 0
M  V30 21241 C 1986.55 -4.42335 -3.00407 0
M  V30 21242 C 1987.85 -5.13807 -0.938092 0
M  V30 21243 H 1989.54 -2.98252 -0.261903 0
M  V30 21244 H 1987.09 -1.43461 -0.124531 0
M  V30 21245 H 1989.04 -3.24845 -2.68428 0
M  V30 21246 H 1987.77 -2.01071 -2.57368 0
M  V30 21247 H 1986.43 -3.5102 -1.05739 0
M  V30 21248 H 1986.07 -3.58089 -3.53244 0
M  V30 21249 H 1985.77 -5.17185 -2.78915 0
M  V30 21250 H 1987.3 -4.87714 -3.67378 0
M  V30 21251 H 1988.71 -5.53349 -1.49924 0
M  V30 21252 H 1987.11 -5.94429 -0.823062 0
M  V30 21253 H 1988.18 -4.8485 0.0698825 0
M  V30 21254 N 1989.52 0.125209 -1.57102 0
M  V30 21255 C 1990.43 1.17286 -2.03177 0
M  V30 21256 C 1991.45 1.4571 -0.951035 0
M  V30 21257 O 1992.62 1.56949 -1.2621 0
M  V30 21258 C 1989.69 2.4811 -2.42161 0
M  V30 21259 C 1988.75 2.2714 -3.64288 0
M  V30 21260 C 1987.98 3.51726 -4.01404 0
M  V30 21261 O 1988.21 4.58785 -3.38929 0
M  V30 21262 O 1987.14 3.43096 -4.94539 0
M  V30 21263 H 1990.97 0.811619 -2.92654 0
M  V30 21264 H 1988.55 0.335551 -1.45583 0
M  V30 21265 H 1990.43 3.252 -2.67998 0
M  V30 21266 H 1989.11 2.83721 -1.55833 0
M  V30 21267 H 1988.02 1.47929 -3.4361 0
M  V30 21268 H 1989.35 1.96435 -4.51303 0
M  V30 21269 N 1991 1.52564 0.395213 0
M  V30 21270 C 1991.95 1.769 1.48239 0
M  V30 21271 C 1992.92 0.611965 1.54416 0
M  V30 21272 O 1994.1 0.851019 1.7077 0
M  V30 21273 C 1991.24 1.93809 2.85538 0
M  V30 21274 C 1990.36 3.2149 2.88562 0
M  V30 21275 C 1989.49 3.28751 4.17248 0
M  V30 21276 C 1988.53 4.5058 4.143 0
M  V30 21277 N 1987.67 4.55156 5.34581 0
M  V30 21278 H 1992.51 2.69683 1.26788 0
M  V30 21279 H 1990.04 1.33618 0.615189 0
M  V30 21280 H 1992 2.01597 3.6526 0
M  V30 21281 H 1990.63 1.04394 3.05453 0
M  V30 21282 H 1989.68 3.22805 2.01249 0
M  V30 21283 H 1991 4.11262 2.82251 0
M  V30 21284 H 1990.15 3.35687 5.0537 0
M  V30 21285 H 1988.89 2.36943 4.26274 0
M  V30 21286 H 1987.89 4.43775 3.24567 0
M  V30 21287 H 1989.12 5.43698 4.06902 0
M  V30 21288 H 1987.06 3.66237 5.44248 0
M  V30 21289 H 1986.98 5.38791 5.30321 0
M  V30 21290 H 1988.25 4.6634 6.24618 0
M  V30 21291 N 1992.48 -0.653289 1.43422 0
M  V30 21292 C 1993.89 -0.968948 1.26821 0
M  V30 21293 C 1994.09 -2.00622 0.187882 0
M  V30 21294 O 1993.15 -2.48747 -0.43371 0
M  V30 21295 C 1994.46 -1.45328 2.63249 0
M  V30 21296 C 1996.01 -1.56993 2.70781 0
M  V30 21297 C 1996.49 -2.08817 4.07627 0
M  V30 21298 N 1997.98 -2.16119 4.09691 0
M  V30 21299 C 1998.71 -2.5734 5.1241 0
M  V30 21300 N 1998.21 -2.97858 6.25502 0
M  V30 21301 N 2000 -2.57279 4.99764 0
M  V30 21302 H 1992.15 0.0330932 2.12374 0
M  V30 21303 H 1994.42 -0.0477768 0.946795 0
M  V30 21304 H 1994.12 -0.765519 3.43268 0
M  V30 21305 H 1994 -2.42831 2.8864 0
M  V30 21306 H 1996.38 -2.24871 1.91095 0
M  V30 21307 H 1996.46 -0.579228 2.49156 0
M  V30 21308 H 1996.11 -1.41541 4.87779 0
M  V30 21309 H 1996.04 -3.08718 4.26616 0
M  V30 21310 H 1998.53 -1.8758 3.28058 0
M  V30 21311 H 1998.84 -3.2806 6.99712 0
M  V30 21312 H 1997.19 -2.95662 6.28974 0
M  V30 21313 H 2000.38 -2.25002 4.10478 0
M  V30 21314 H 2000.55 -2.89082 5.79944 0
M  V30 21315 N 1993.96 -1.29952 -0.891648 0
M  V30 21316 C 1995.21 -1.17758 -1.63756 0
M  V30 21317 C 1995.52 0.268231 -1.93752 0
M  V30 21318 O 1996.72 0.511595 -2.66636 0
M  V30 21319 C 1995.18 -2.06008 -2.95108 0
M  V30 21320 C 1994.79 -3.55459 -2.72677 0
M  V30 21321 C 1996.53 -2.0256 -3.73055 0
M  V30 21322 C 1994.44 -4.35787 -3.99805 0
M  V30 21323 H 1993.37 -0.437139 -0.61435 0
M  V30 21324 H 1996.02 -1.54651 -0.987694 0
M  V30 21325 H 1994.4 -1.61991 -3.61351 0
M  V30 21326 H 1995.58 -4.0758 -2.14977 0
M  V30 21327 H 1993.89 -3.60662 -2.08115 0
M  V30 21328 H 1996.49 -2.5983 -4.67325 0
M  V30 21329 H 1996.83 -1.00748 -4.03925 0
M  V30 21330 H 1997.36 -2.44662 -3.13664 0
M  V30 21331 H 1994.1 -5.38268 -3.74096 0
M  V30 21332 H 1993.62 -3.88432 -4.57035 0
M  V30 21333 H 1995.3 -4.46872 -4.67883 0
M  V30 21334 N 1995.44 1.1031 -1.12559 0
M  V30 21335 C 1996.68 1.81665 -0.876399 0
M  V30 21336 C 1997 1.86186 0.599506 0
M  V30 21337 O 1998.2 2.53759 0.965337 0
M  V30 21338 C 1996.66 3.26308 -1.51826 0
M  V30 21339 C 1996.27 3.30081 -3.02904 0
M  V30 21340 C 1998.01 4.02482 -1.34939 0
M  V30 21341 C 1995.92 4.69192 -3.60018 0
M  V30 21342 H 1994.85 0.680734 -0.324218 0
M  V30 21343 H 1997.5 1.24044 -1.35223 0
M  V30 21344 H 1995.88 3.83934 -0.970087 0
M  V30 21345 H 1997.06 2.82272 -3.64224 0
M  V30 21346 H 1995.37 2.67393 -3.19202 0
M  V30 21347 H 1997.97 5.05241 -1.7503 0
M  V30 21348 H 1998.31 4.15266 -0.293208 0
M  V30 21349 H 1998.84 3.51274 -1.86685 0
M  V30 21350 H 1995.58 4.61608 -4.65401 0
M  V30 21351 H 1995.1 5.17363 -3.03473 0
M  V30 21352 H 1996.78 5.38161 -3.59153 0
M  V30 21353 N 1996.91 0.917694 1.28125 0
M  V30 21354 C 1998.16 0.553715 1.95094 0
M  V30 21355 C 1998.49 -0.900999 1.72034 0
M  V30 21356 O 1997.77 -1.64132 1.04359 0
M  V30 21357 C 1998.05 0.868367 3.49473 0
M  V30 21358 C 1997.9 2.3761 3.81918 0
M  V30 21359 C 1999.22 0.367261 4.38565 0
M  V30 21360 H 1996.34 0.202644 0.708593 0
M  V30 21361 H 1998.98 1.14765 1.51423 0
M  V30 21362 H 1997.13 0.362898 3.86801 0
M  V30 21363 H 1998.81 2.95249 3.54437 0
M  V30 21364 H 1997.05 2.82945 3.28823 0
M  V30 21365 H 1997.72 2.5468 4.89737 0
M  V30 21366 H 2000.2 0.800328 4.08331 0
M  V30 21367 H 1999.07 0.616464 5.45427 0
M  V30 21368 H 1999.33 -0.732497 4.3599 0
M  V30 21369 N 1998.39 -1.42074 0.682102 0
M  V30 21370 C 1999.67 -1.95126 0.136033 0
M  V30 21371 C 2000.05 -1.62218 -1.35088 0
M  V30 21372 O 1999.4 -0.922124 -2.09067 0
M  V30 21373 C 1999.61 -3.46548 0.412954 0
M  V30 21374 C 2000.95 -4.23289 0.333404 0
M  V30 21375 O 2001.98 -3.54505 0.34711 0
M  V30 21376 O 2000.84 -5.45773 0.281884 0
M  V30 21377 H 1997.93 -0.826969 0.00711447 0
M  V30 21378 H 2000.48 -1.51864 0.757335 0
M  V30 21379 H 1999.25 -3.63733 1.4427 0
M  V30 21380 H 1998.87 -3.96875 -0.239993 0
M  V30 21381 N 1999.87 -0.425924 -1.51735 0
M  V30 21382 C 2001.15 0.203721 -1.94536 0
M  V30 21383 C 2001.53 1.61124 -1.3639 0
M  V30 21384 O 2000.87 2.21871 -0.54638 0
M  V30 21385 C 2001.08 0.193041 -3.48466 0
M  V30 21386 C 2002.43 0.404204 -4.22672 0
M  V30 21387 O 2003.46 0.271662 -3.55163 0
M  V30 21388 O 2002.32 0.666926 -5.42415 0
M  V30 21389 H 1999.41 0.136115 -0.815722 0
M  V30 21390 H 2001.96 -0.48308 -1.62679 0
M  V30 21391 H 2000.73 -0.791421 -3.83213 0
M  V30 21392 H 2000.35 0.923235 -3.86733 0
M  V30 21393 N 2001.35 1.56817 -0.156891 0
M  V30 21394 C 2002.58 2.00807 0.498405 0
M  V30 21395 C 2002.99 1.03706 1.57768 0
M  V30 21396 O 2002.35 0.0356068 1.82465 0
M  V30 21397 C 2002.4 3.44676 1.08999 0
M  V30 21398 O 2002.12 4.38067 0.053817 0
M  V30 21399 C 2003.62 4.03994 1.82493 0
M  V30 21400 H 2000.84 0.658505 0.128888 0
M  V30 21401 H 2003.38 2.02912 -0.254383 0
M  V30 21402 H 2001.54 3.43392 1.79334 0
M  V30 21403 H 2001.95 5.2222 0.488568 0
M  V30 21404 H 2003.43 5.06627 2.19164 0
M  V30 21405 H 2003.9 3.45265 2.71456 0
M  V30 21406 H 2004.51 4.08938 1.16833 0
M  V30 21407 N 2002.83 -0.116876 1.57166 0
M  V30 21408 C 2004.05 -0.842338 1.89524 0
M  V30 21409 C 2004.48 -1.72543 0.749039 0
M  V30 21410 O 2003.83 -1.78795 -0.30035 0
M  V30 21411 C 2003.88 -1.64989 3.20641 0
M  V30 21412 O 2002.99 -2.75701 3.06696 0
M  V30 21413 H 2002.33 -0.232809 0.621849 0
M  V30 21414 H 2004.86 -0.0986366 2.04362 0
M  V30 21415 H 2004.87 -2.03869 3.53414 0
M  V30 21416 H 2003.54 -1.00164 4.03658 0
M  V30 21417 H 2002.12 -2.40009 2.85395 0
M  V30 21418 N 2004.3 -1.52772 -0.387116 0
M  V30 21419 C 2005.53 -1.71787 -1.15312 0
M  V30 21420 C 2005.95 -0.437082 -1.83671 0
M  V30 21421 O 2005.3 0.588573 -1.72749 0
M  V30 21422 C 2005.35 -2.86869 -2.19974 0
M  V30 21423 O 2005.08 -4.0999 -1.54402 0
M  V30 21424 C 2006.58 -3.17579 -3.09287 0
M  V30 21425 H 2003.8 -0.575118 -0.345659 0
M  V30 21426 H 2006.34 -1.99428 -0.452607 0
M  V30 21427 H 2004.5 -2.61684 -2.85658 0
M  V30 21428 H 2004.91 -4.7428 -2.23961 0
M  V30 21429 H 2006.38 -4.01562 -3.7875 0
M  V30 21430 H 2006.86 -2.3204 -3.729 0
M  V30 21431 H 2007.47 -3.44611 -2.49246 0
M  V30 21432 N 2005.78 0.645673 -1.43767 0
M  V30 21433 C 2006.71 1.77107 -1.45484 0
M  V30 21434 C 2007.73 1.58993 -0.350002 0
M  V30 21435 O 2008.92 1.67575 -0.61489 0
M  V30 21436 C 2006.02 3.14639 -1.25919 0
M  V30 21437 C 2005.19 3.59344 -2.49381 0
M  V30 21438 C 2004.25 4.75703 -2.24929 0
M  V30 21439 O 2003.27 4.84756 -2.98329 0
M  V30 21440 N 2004.48 5.66422 -1.27068 0
M  V30 21441 H 2007.24 1.7611 -2.42498 0
M  V30 21442 H 2004.8 0.829768 -1.3902 0
M  V30 21443 H 2006.79 3.9018 -1.07432 0
M  V30 21444 H 2005.36 3.10364 -0.37323 0
M  V30 21445 H 2004.58 2.74166 -2.83243 0
M  V30 21446 H 2005.87 3.8596 -3.3153 0
M  V30 21447 H 2005.27 5.61787 -0.664185 0
M  V30 21448 H 2003.83 6.41653 -1.14562 0
M  V30 21449 N 2007.26 1.30423 0.884744 0
M  V30 21450 C 2008.51 1.20445 1.63904 0
M  V30 21451 C 2008.86 -0.238467 1.90916 0
M  V30 21452 O 2008.15 -1.16755 1.51917 0
M  V30 21453 C 2008.35 1.96681 2.98415 0
M  V30 21454 C 2008.18 3.48239 2.84534 0
M  V30 21455 C 2006.95 4.17595 2.84504 0
M  V30 21456 C 2009.14 4.43466 2.60466 0
M  V30 21457 N 2007.13 5.55412 2.61517 0
M  V30 21458 C 2008.5 5.68847 2.46603 0
M  V30 21459 C 2010.55 4.33059 2.45692 0
M  V30 21460 C 2009.26 6.85001 2.19469 0
M  V30 21461 C 2011.28 5.4898 2.19944 0
M  V30 21462 C 2010.64 6.73342 2.06858 0
M  V30 21463 H 2006.74 0.495802 0.604735 0
M  V30 21464 H 2009.33 1.64435 1.04255 0
M  V30 21465 H 2007.5 1.55082 3.56096 0
M  V30 21466 H 2009.23 1.78845 3.63038 0
M  V30 21467 H 2005.98 3.69429 2.96343 0
M  V30 21468 H 2006.41 6.27935 2.53035 0
M  V30 21469 H 2011.05 3.3759 2.54544 0
M  V30 21470 H 2008.77 7.8051 2.09354 0
M  V30 21471 H 2012.35 5.42835 2.09335 0
M  V30 21472 H 2011.23 7.61525 1.87213 0
M  V30 21473 N 2008.74 -1.09711 1.13142 0
M  V30 21474 C 2009.96 -1.86136 0.914785 0
M  V30 21475 C 2010.39 -1.80448 -0.531035 0
M  V30 21476 O 2009.75 -1.17983 -1.37658 0
M  V30 21477 C 2009.79 -3.32164 1.40356 0
M  V30 21478 O 2008.9 -4.08203 0.586881 0
M  V30 21479 H 2008.24 -0.577287 0.328079 0
M  V30 21480 H 2010.77 -1.38563 1.50537 0
M  V30 21481 H 2010.78 -3.83013 1.40589 0
M  V30 21482 H 2009.45 -3.35619 2.45628 0
M  V30 21483 H 2008.03 -3.67153 0.652163 0
M  V30 21484 N 2010.22 -0.924476 -1.27637 0
M  V30 21485 C 2011.16 -0.41967 -2.26952 0
M  V30 21486 C 2012.13 0.511683 -1.58022 0
M  V30 21487 O 2013.32 0.431544 -1.85856 0
M  V30 21488 C 2010.46 0.324433 -3.43572 0
M  V30 21489 C 2009.57 -0.640659 -4.27223 0
M  V30 21490 C 2008.71 0.122963 -5.31058 0
M  V30 21491 C 2007.75 -0.835045 -6.06377 0
M  V30 21492 N 2006.88 -0.104257 -7.02023 0
M  V30 21493 H 2011.72 -1.27159 -2.69508 0
M  V30 21494 H 2009.26 -0.63831 -1.32529 0
M  V30 21495 H 2011.22 0.772141 -4.09992 0
M  V30 21496 H 2009.85 1.14062 -3.01976 0
M  V30 21497 H 2008.9 -1.2069 -3.60747 0
M  V30 21498 H 2010.21 -1.37295 -4.79533 0
M  V30 21499 H 2009.37 0.630738 -6.03412 0
M  V30 21500 H 2008.1 0.888238 -4.79543 0
M  V30 21501 H 2007.11 -1.3541 -5.32864 0
M  V30 21502 H 2008.33 -1.60005 -6.59981 0
M  V30 21503 H 2006.28 0.642832 -6.52843 0
M  V30 21504 H 2006.2 -0.776174 -7.52005 0
M  V30 21505 H 2007.47 0.382972 -7.78559 0
M  V30 21506 N 2011.69 1.41711 -0.689627 0
M  V30 21507 C 2012.64 2.32598 -0.0090856 0
M  V30 21508 C 2013.64 1.50639 0.774873 0
M  V30 21509 O 2014.84 1.66614 0.681165 0
M  V30 21510 H 2011.22 0.751833 0.0158614 0
M  V30 21511 H 2013.19 2.87676 -0.79278 0
M  V30 21512 C 2011.94 3.35371 0.917683 0
M  V30 21513 H 2011.26 3.98486 0.323858 0
M  V30 21514 H 2012.7 4.0152 1.36228 0
M  V30 21515 C 2011.16 2.68792 2.03107 0
M  V30 21516 O 2011.69 2.53118 3.1192 0
M  V30 21517 N 2009.9 2.27581 1.80708 0
M  V30 21518 H 2009.44 2.4053 0.922133 0
M  V30 21519 H 2009.4 1.83368 2.55389 0
M  V30 21520 N 2013.17 0.433965 1.51507 0
M  V30 21521 C 2014.11 -0.424335 2.2422 0
M  V30 21522 C 2015.08 -1.02751 1.26019 0
M  V30 21523 O 2016.27 -1.07062 1.55145 0
M  V30 21524 C 2013.39 -1.59113 2.98999 0
M  V30 21525 C 2012.44 -1.10896 4.1183 0
M  V30 21526 S 2013.27 -0.0537502 5.35473 0
M  V30 21527 C 2014.43 -1.22529 6.13789 0
M  V30 21528 H 2014.66 0.192998 2.96673 0
M  V30 21529 H 2012.2 0.218455 1.52847 0
M  V30 21530 H 2014.15 -2.26006 3.42683 0
M  V30 21531 H 2012.81 -2.17987 2.26143 0
M  V30 21532 H 2012.01 -1.9814 4.63419 0
M  V30 21533 H 2011.61 -0.518327 3.70391 0
M  V30 21534 H 2013.9 -2.14429 6.42671 0
M  V30 21535 H 2014.84 -0.749446 7.04123 0
M  V30 21536 H 2015.25 -1.46233 5.4523 0
M  V30 21537 N 2014.65 -1.56732 0.165206 0
M  V30 21538 C 2015.6 -2.17666 -0.767471 0
M  V30 21539 C 2016.57 -1.11485 -1.23127 0
M  V30 21540 O 2017.75 -1.39609 -1.30054 0
M  V30 21541 C 2014.89 -2.81673 -1.99385 0
M  V30 21542 C 2014.01 -4.02298 -1.57418 0
M  V30 21543 C 2013.14 -4.54249 -2.75375 0
M  V30 21544 C 2012.18 -5.67298 -2.29869 0
M  V30 21545 N 2011.32 -6.13786 -3.40898 0
M  V30 21546 H 2016.16 -2.97023 -0.24106 0
M  V30 21547 H 2013.69 -1.46708 -0.10726 0
M  V30 21548 H 2015.65 -3.16937 -2.71306 0
M  V30 21549 H 2014.28 -2.0493 -2.49407 0
M  V30 21550 H 2013.33 -3.72894 -0.75194 0
M  V30 21551 H 2014.65 -4.84148 -1.2001 0
M  V30 21552 H 2013.8 -4.91663 -3.55461 0
M  V30 21553 H 2012.54 -3.71444 -3.16039 0
M  V30 21554 H 2011.54 -5.29442 -1.48228 0
M  V30 21555 H 2012.77 -6.519 -1.9027 0
M  V30 21556 H 2010.71 -5.33911 -3.81149 0
M  V30 21557 H 2010.63 -6.90609 -3.07563 0
M  V30 21558 H 2011.9 -6.55849 -4.21287 0
M  V30 21559 N 2016.13 0.10854 -1.57226 0
M  V30 21560 C 2017.08 1.13867 -1.97531 0
M  V30 21561 C 2018.06 1.36505 -0.851775 0
M  V30 21562 O 2019.25 1.37422 -1.11554 0
M  V30 21563 C 2016.38 2.4625 -2.39198 0
M  V30 21564 C 2015.47 2.27043 -3.58207 0
M  V30 21565 N 2015.86 1.77671 -4.73568 0
M  V30 21566 C 2014.16 2.5766 -3.64043 0
M  V30 21567 C 2014.86 1.72418 -5.5556 0
M  V30 21568 N 2013.84 2.17145 -4.98346 0
M  V30 21569 H 2017.64 0.749664 -2.84178 0
M  V30 21570 H 2015.15 0.31615 -1.59293 0
M  V30 21571 H 2017.15 3.20769 -2.66295 0
M  V30 21572 H 2015.81 2.859 -1.5392 0
M  V30 21573 H 2016.82 1.47065 -4.96581 0
M  V30 21574 H 2013.5 3.00925 -2.89397 0
M  V30 21575 H 2014.89 1.35411 -6.58113 0
M  V30 21576 N 2017.61 1.52975 0.379009 0
M  V30 21577 C 2018.54 1.81436 1.46981 0
M  V30 21578 C 2019.52 0.666985 1.56478 0
M  V30 21579 O 2020.7 0.915545 1.71264 0
M  V30 21580 C 2017.83 1.99221 2.84479 0
M  V30 21581 C 2016.79 3.14946 2.89816 0
M  V30 21582 C 2016.11 3.18001 4.2986 0
M  V30 21583 C 2017.41 4.53814 2.58554 0
M  V30 21584 H 2019.11 2.72781 1.23413 0
M  V30 21585 H 2016.65 1.31257 0.592257 0
M  V30 21586 H 2018.61 2.17714 3.60803 0
M  V30 21587 H 2017.33 1.04573 3.09406 0
M  V30 21588 H 2015.99 2.96251 2.15942 0
M  V30 21589 H 2015.64 2.21017 4.51841 0
M  V30 21590 H 2015.34 3.95746 4.34349 0
M  V30 21591 H 2016.86 3.38662 5.08075 0
M  V30 21592 H 2018.27 4.72559 3.24593 0
M  V30 21593 H 2016.67 5.33701 2.74379 0
M  V30 21594 H 2017.74 4.59845 1.53853 0
M  V30 21595 N 2019.08 -0.63804 1.44107 0
M  V30 21596 C 2020.31 -1.4251 1.49995 0
M  V30 21597 C 2020.73 -1.88401 0.122604 0
M  V30 21598 O 2020.08 -1.60419 -0.870168 0
M  V30 21599 C 2020.14 -2.65002 2.45879 0
M  V30 21600 O 2019.86 -2.21025 3.78259 0
M  V30 21601 C 2021.36 -3.58203 2.61162 0
M  V30 21602 H 2018.58 -0.437285 0.508943 0
M  V30 21603 H 2021.12 -0.780912 1.89003 0
M  V30 21604 H 2019.28 -3.25527 2.10026 0
M  V30 21605 H 2019.69 -3.00388 4.29962 0
M  V30 21606 H 2021.16 -4.40776 3.32295 0
M  V30 21607 H 2021.64 -4.06556 1.6616 0
M  V30 21608 H 2022.25 -3.0355 2.97888 0
M  V30 21609 N 2020.56 -1.3089 -0.877815 0
M  V30 21610 C 2021.97 -1.18126 -1.44579 0
M  V30 21611 C 2022.32 0.215306 -1.95015 0
M  V30 21612 O 2021.45 1.11252 -1.85613 0
M  V30 21613 C 2022.04 -2.13835 -2.62793 0
M  V30 21614 C 2020.6 -2.05028 -3.15659 0
M  V30 21615 C 2019.75 -2.03509 -1.88359 0
M  V30 21616 H 2022.7 -1.43056 -0.687082 0
M  V30 21617 H 2022.72 -1.72337 -3.39235 0
M  V30 21618 H 2022.23 -3.1547 -2.26054 0
M  V30 21619 H 2020.34 -1.0656 -3.57037 0
M  V30 21620 H 2020.45 -2.9376 -3.78473 0
M  V30 21621 H 2018.81 -1.48412 -2.06992 0
M  V30 21622 H 2019.6 -3.06887 -1.53869 0
M  V30 21623 N 2022.04 1.0911 -1.13723 0
M  V30 21624 C 2023.27 1.85648 -0.924643 0
M  V30 21625 C 2023.69 1.80727 0.521458 0
M  V30 21626 O 2023.05 1.18712 1.3703 0
M  V30 21627 C 2023.1 3.31415 -1.42115 0
M  V30 21628 O 2022.2 4.07886 -0.608521 0
M  V30 21629 H 2021.54 0.575539 -0.331136 0
M  V30 21630 H 2024.07 1.37763 -1.5127 0
M  V30 21631 H 2024.08 3.82262 -1.42619 0
M  V30 21632 H 2022.76 3.34311 -2.47404 0
M  V30 21633 H 2021.33 3.66802 -0.671625 0
M  V30 21634 N 2023.52 0.931232 1.27145 0
M  V30 21635 C 2024.75 0.589956 1.98311 0
M  V30 21636 C 2025.16 -0.832836 1.69438 0
M  V30 21637 O 2024.52 -1.55399 0.956935 0
M  V30 21638 C 2024.57 0.810592 3.52295 0
M  V30 21639 O 2024.29 2.17741 3.80158 0
M  V30 21640 C 2025.79 0.478508 4.4071 0
M  V30 21641 H 2023.01 0.223234 0.632778 0
M  V30 21642 H 2025.56 1.24922 1.6191 0
M  V30 21643 H 2023.71 0.198081 3.86893 0
M  V30 21644 H 2024.12 2.23003 4.74731 0
M  V30 21645 H 2025.6 0.683566 5.47751 0
M  V30 21646 H 2026.08 -0.586102 4.35272 0
M  V30 21647 H 2026.68 1.06931 4.11638 0
M  V30 21648 N 2025 -1.41343 0.697132 0
M  V30 21649 C 2025.93 -2.33452 0.0471857 0
M  V30 21650 C 2026.91 -1.51902 -0.765488 0
M  V30 21651 O 2028.09 -1.80434 -0.718146 0
M  V30 21652 C 2025.22 -3.35735 -0.888781 0
M  V30 21653 C 2024.18 -4.27608 -0.183088 0
M  V30 21654 C 2023.5 -5.20277 -1.23352 0
M  V30 21655 C 2024.8 -5.13559 0.951558 0
M  V30 21656 H 2026.5 -2.88052 0.816496 0
M  V30 21657 H 2024.04 -1.38502 0.394089 0
M  V30 21658 H 2026 -3.99098 -1.35272 0
M  V30 21659 H 2024.72 -2.79489 -1.68977 0
M  V30 21660 H 2023.38 -3.65671 0.260833 0
M  V30 21661 H 2023.03 -4.60346 -2.02708 0
M  V30 21662 H 2022.73 -5.82581 -0.766336 0
M  V30 21663 H 2024.25 -5.86517 -1.69793 0
M  V30 21664 H 2025.67 -5.70481 0.567835 0
M  V30 21665 H 2024.06 -5.84812 1.34593 0
M  V30 21666 H 2025.13 -4.50631 1.79053 0
M  V30 21667 N 2026.48 -0.441993 -1.51275 0
M  V30 21668 C 2027.7 0.121451 -2.06543 0
M  V30 21669 C 2028.12 1.36058 -1.30896 0
M  V30 21670 O 2027.48 1.78713 -0.369834 0
M  V30 21671 C 2027.53 0.438983 -3.58825 0
M  V30 21672 O 2027.25 -0.750969 -4.31616 0
M  V30 21673 C 2028.75 1.05259 -4.30622 0
M  V30 21674 H 2025.97 0.00586064 -0.670974 0
M  V30 21675 H 2028.51 -0.622415 -1.94798 0
M  V30 21676 H 2026.67 1.13275 -3.70469 0
M  V30 21677 H 2027.08 -0.478024 -5.22317 0
M  V30 21678 H 2028.56 1.22474 -5.38242 0
M  V30 21679 H 2029.03 2.03489 -3.89216 0
M  V30 21680 H 2029.64 0.398068 -4.23433 0
M  V30 21681 N 2027.95 1.56642 -0.173515 0
M  V30 21682 C 2028.89 2.15251 0.787381 0
M  V30 21683 C 2029.9 1.10866 1.19217 0
M  V30 21684 O 2031.09 1.38044 1.13164 0
M  V30 21685 C 2028.19 2.6821 2.07163 0
M  V30 21686 C 2027.36 3.97275 1.83006 0
M  V30 21687 C 2026.42 4.35276 2.95671 0
M  V30 21688 O 2025.45 5.03111 2.6621 0
M  V30 21689 N 2026.65 3.97014 4.23509 0
M  V30 21690 H 2029.41 2.98329 0.28631 0
M  V30 21691 H 2026.97 1.61897 0.00919258 0
M  V30 21692 H 2028.97 2.90629 2.81632 0
M  V30 21693 H 2027.54 1.89708 2.48454 0
M  V30 21694 H 2026.76 3.83211 0.924298 0
M  V30 21695 H 2028.04 4.81564 1.64237 0
M  V30 21696 H 2027.44 3.42407 4.50304 0
M  V30 21697 H 2026 4.24429 4.94675 0
M  V30 21698 N 2029.43 -0.1002 1.57281 0
M  V30 21699 C 2030.68 -0.803295 1.85014 0
M  V30 21700 C 2030.99 -1.80146 0.762017 0
M  V30 21701 O 2032.2 -2.55209 0.926311 0
M  V30 21702 C 2030.66 -1.47942 3.28087 0
M  V30 21703 C 2030.26 -0.521281 4.44957 0
M  V30 21704 C 2032.01 -2.16654 3.65049 0
M  V30 21705 C 2029.91 -1.20171 5.79062 0
M  V30 21706 H 2028.84 -0.303744 0.690113 0
M  V30 21707 H 2031.5 -0.0561819 1.83414 0
M  V30 21708 H 2029.88 -2.27382 3.24212 0
M  V30 21709 H 2031.05 0.241249 4.60168 0
M  V30 21710 H 2029.37 0.0598694 4.16357 0
M  V30 21711 H 2031.96 -2.68286 4.62522 0
M  V30 21712 H 2032.31 -2.95316 2.93418 0
M  V30 21713 H 2032.84 -1.44081 3.7079 0
M  V30 21714 H 2029.58 -0.456001 6.53912 0
M  V30 21715 H 2029.1 -1.93579 5.67704 0
M  V30 21716 H 2030.78 -1.72963 6.23452 0
M  V30 21717 N 2030.91 -1.53174 -0.370891 0
M  V30 21718 C 2032.19 -1.59697 -1.12943 0
M  V30 21719 C 2032.57 -0.401233 -2.07252 0
M  V30 21720 O 2031.91 0.608973 -2.20236 0
M  V30 21721 C 2032.12 -2.94469 -1.87321 0
M  V30 21722 C 2033.47 -3.48856 -2.42043 0
M  V30 21723 O 2034.5 -2.96463 -1.97455 0
M  V30 21724 O 2033.36 -4.40436 -3.2354 0
M  V30 21725 H 2030.45 -0.644835 -0.5178 0
M  V30 21726 H 2033 -1.65514 -0.374583 0
M  V30 21727 H 2031.77 -3.72938 -1.18462 0
M  V30 21728 H 2031.39 -2.92119 -2.69727 0
M  V30 21729 N 2032.39 0.630389 -1.44443 0
M  V30 21730 C 2033.62 1.41507 -1.5053 0
M  V30 21731 C 2034.03 1.88759 -0.129099 0
M  V30 21732 O 2033.37 1.61501 0.8754 0
M  V30 21733 C 2033.43 2.6686 -2.40886 0
M  V30 21734 C 2033.09 2.41399 -3.88041 0
M  V30 21735 C 2034.09 2.03181 -4.78554 0
M  V30 21736 C 2031.78 2.55016 -4.3275 0
M  V30 21737 C 2033.77 1.78909 -6.11776 0
M  V30 21738 C 2031.46 2.30359 -5.6602 0
M  V30 21739 C 2032.46 1.92364 -6.55351 0
M  V30 21740 O 2032.14 1.67981 -7.86154 0
M  V30 21741 H 2031.88 0.440388 -0.512869 0
M  V30 21742 H 2034.43 0.778074 -1.90093 0
M  V30 21743 H 2032.66 3.33199 -1.96252 0
M  V30 21744 H 2034.35 3.28864 -2.37915 0
M  V30 21745 H 2035.11 1.92217 -4.45284 0
M  V30 21746 H 2030.99 2.8356 -3.63476 0
M  V30 21747 H 2034.54 1.49178 -6.81463 0
M  V30 21748 H 2030.43 2.40932 -5.9885 0
M  V30 21749 H 2031.2 1.82221 -7.97959 0
M  V30 21750 N 2033.87 1.31354 0.870861 0
M  V30 21751 C 2034.81 1.18858 1.99939 0
M  V30 21752 C 2035.81 0.0970869 1.69122 0
M  V30 21753 O 2037.01 0.258917 1.78128 0
M  V30 21754 H 2033.39 0.367991 0.65581 0
M  V30 21755 H 2035.36 2.14338 2.07609 0
M  V30 21756 C 2034.11 0.911812 3.35531 0
M  V30 21757 H 2033.43 1.74383 3.59765 0
M  V30 21758 H 2034.87 0.864551 4.15092 0
M  V30 21759 C 2033.33 -0.385431 3.34688 0
M  V30 21760 O 2033.86 -1.40251 3.76421 0
M  V30 21761 N 2032.07 -0.401645 2.87811 0
M  V30 21762 H 2031.61 0.426528 2.54044 0
M  V30 21763 H 2031.57 -1.26952 2.87629 0
M  V30 21764 N 2035.34 -1.08505 1.143 0
M  V30 21765 C 2036.25 -2.18944 0.84266 0
M  V30 21766 C 2037.27 -1.73103 -0.17648 0
M  V30 21767 O 2038.45 -2.01399 -0.0052364 0
M  V30 21768 C 2035.51 -3.45189 0.323347 0
M  V30 21769 C 2034.57 -4.05661 1.40492 0
M  V30 21770 C 2033.8 -5.2588 0.910289 0
M  V30 21771 O 2034.03 -5.69858 -0.248616 0
M  V30 21772 O 2032.96 -5.77722 1.68882 0
M  V30 21773 H 2036.79 -2.47104 1.76559 0
M  V30 21774 H 2034.37 -1.17621 0.921181 0
M  V30 21775 H 2036.25 -4.21381 0.039611 0
M  V30 21776 H 2034.93 -3.18608 -0.571874 0
M  V30 21777 H 2033.84 -3.31061 1.7421 0
M  V30 21778 H 2035.17 -4.36488 2.27462 0
M  V30 21779 N 2036.82 -0.937962 -1.26649 0
M  V30 21780 C 2037.77 -0.443717 -2.26495 0
M  V30 21781 C 2038.74 0.494894 -1.58556 0
M  V30 21782 O 2039.92 0.411807 -1.86303 0
M  V30 21783 C 2037.06 0.287974 -3.43896 0
M  V30 21784 C 2036.18 -0.685936 -4.2652 0
M  V30 21785 C 2035.31 0.0666303 -5.31158 0
M  V30 21786 C 2034.35 -0.899313 -6.05457 0
M  V30 21787 N 2033.49 -0.17871 -7.01873 0
M  V30 21788 H 2038.33 -1.3001 -2.68144 0
M  V30 21789 H 2035.86 -0.652331 -1.31845 0
M  V30 21790 H 2037.82 0.728613 -4.10788 0
M  V30 21791 H 2036.45 1.10852 -3.03169 0
M  V30 21792 H 2035.5 -1.24509 -3.59446 0
M  V30 21793 H 2036.82 -1.42373 -4.7805 0
M  V30 21794 H 2035.97 0.566702 -6.04047 0
M  V30 21795 H 2034.71 0.837326 -4.80458 0
M  V30 21796 H 2033.71 -1.41054 -5.31398 0
M  V30 21797 H 2034.94 -1.66996 -6.58247 0
M  V30 21798 H 2032.89 0.573553 -6.53488 0
M  V30 21799 H 2032.8 -0.855891 -7.51139 0
M  V30 21800 H 2034.07 0.300374 -7.78921 0
M  V30 21801 N 2038.3 1.40971 -0.704618 0
M  V30 21802 C 2039.21 2.34555 -0.0457738 0
M  V30 21803 C 2040.23 1.56717 0.756037 0
M  V30 21804 O 2041.4 1.89156 0.691518 0
M  V30 21805 C 2038.47 3.35534 0.872815 0
M  V30 21806 C 2037.53 4.29255 0.062192 0
M  V30 21807 C 2036.76 5.2541 0.937031 0
M  V30 21808 O 2036.98 5.27245 2.17644 0
M  V30 21809 O 2035.92 6.00687 0.381874 0
M  V30 21810 H 2039.74 2.92493 -0.817415 0
M  V30 21811 H 2037.33 1.41979 -0.465014 0
M  V30 21812 H 2039.21 3.97489 1.3993 0
M  V30 21813 H 2037.89 2.80026 1.62379 0
M  V30 21814 H 2036.79 3.7062 -0.509109 0
M  V30 21815 H 2038.13 4.87885 -0.65032 0
M  V30 21816 N 2039.78 0.45001 1.51039 0
M  V30 21817 C 2040.73 -0.355012 2.28053 0
M  V30 21818 C 2041.7 -1.00578 1.32186 0
M  V30 21819 O 2042.88 -1.02227 1.61103 0
M  V30 21820 C 2040.02 -1.44311 3.13478 0
M  V30 21821 C 2039.13 -0.809213 4.24353 0
M  V30 21822 C 2038.27 -1.87342 4.97068 0
M  V30 21823 C 2037.31 -1.21864 5.99846 0
M  V30 21824 N 2036.44 -2.22477 6.65919 0
M  V30 21825 H 2041.28 0.308084 2.96403 0
M  V30 21826 H 2038.82 0.163778 1.46185 0
M  V30 21827 H 2040.78 -2.08539 3.61341 0
M  V30 21828 H 2039.41 -2.07566 2.47217 0
M  V30 21829 H 2038.46 -0.0548937 3.8036 0
M  V30 21830 H 2039.77 -0.291288 4.97949 0
M  V30 21831 H 2038.93 -2.59203 5.48542 0
M  V30 21832 H 2037.67 -2.42511 4.23131 0
M  V30 21833 H 2036.67 -0.48556 5.47652 0
M  V30 21834 H 2037.9 -0.674124 6.75746 0
M  V30 21835 H 2035.84 -2.76702 5.94788 0
M  V30 21836 H 2035.76 -1.75611 7.35321 0
M  V30 21837 H 2037.03 -2.93782 7.2202 0
M  V30 21838 N 2041.26 -1.56548 0.18182 0
M  V30 21839 C 2042.5 -1.96807 -0.459512 0
M  V30 21840 C 2042.83 -1.06933 -1.63065 0
M  V30 21841 O 2042.1 -0.137842 -1.95414 0
M  V30 21842 H 2040.68 -0.72675 -0.172753 0
M  V30 21843 H 2043.34 -1.93084 0.265455 0
M  V30 21844 H 2042.43 -3.01338 -0.812522 0
M  V30 21845 N 2042.73 0.0918577 -1.57332 0
M  V30 21846 C 2043.7 1.09546 -2.01326 0
M  V30 21847 C 2044.7 1.32761 -0.907252 0
M  V30 21848 O 2045.89 1.2882 -1.17265 0
M  V30 21849 C 2043.02 2.44385 -2.37674 0
M  V30 21850 H 2044.21 0.71671 -2.9121 0
M  V30 21851 H 2041.77 0.337001 -1.52624 0
M  V30 21852 H 2042.5 2.8713 -1.50755 0
M  V30 21853 H 2042.29 2.28882 -3.18364 0
M  V30 21854 H 2043.78 3.16562 -2.72357 0
M  V30 21855 N 2044.21 1.53368 0.362763 0
M  V30 21856 C 2045.46 1.68906 1.10243 0
M  V30 21857 C 2045.77 0.448846 1.90381 0
M  V30 21858 O 2046.98 0.484821 2.67136 0
M  V30 21859 C 2045.44 2.98602 2.0091 0
M  V30 21860 C 2045.04 4.29895 1.26071 0
M  V30 21861 C 2046.79 3.23507 2.74852 0
M  V30 21862 C 2044.7 5.50678 2.15657 0
M  V30 21863 H 2043.63 0.629342 0.415265 0
M  V30 21864 H 2046.28 1.79869 0.363231 0
M  V30 21865 H 2044.66 2.81449 2.78572 0
M  V30 21866 H 2045.83 4.57689 0.534529 0
M  V30 21867 H 2044.15 4.11455 0.639803 0
M  V30 21868 H 2046.74 4.10931 3.42111 0
M  V30 21869 H 2047.09 2.39689 3.40374 0
M  V30 21870 H 2047.62 3.41347 2.04271 0
M  V30 21871 H 2044.36 6.36982 1.54707 0
M  V30 21872 H 2043.88 5.27159 2.86117 0
M  V30 21873 H 2045.56 5.85578 2.75151 0
M  V30 21874 N 2045.69 -0.62272 1.44776 0
M  V30 21875 C 2046.92 -1.40911 1.51498 0
M  V30 21876 C 2047.33 -1.88261 0.142579 0
M  V30 21877 O 2046.69 -1.61333 -0.853105 0
M  V30 21878 C 2046.74 -2.62379 2.48676 0
M  V30 21879 O 2046.46 -2.17001 3.80582 0
M  V30 21880 C 2047.96 -3.55413 2.64947 0
M  V30 21881 H 2045.18 -0.431862 0.513552 0
M  V30 21882 H 2047.73 -0.760822 1.8982 0
M  V30 21883 H 2045.88 -3.23281 2.13467 0
M  V30 21884 H 2046.3 -2.95811 4.33124 0
M  V30 21885 H 2047.77 -4.37227 3.36952 0
M  V30 21886 H 2048.25 -4.04771 1.70462 0
M  V30 21887 H 2048.85 -3.00374 3.01091 0
M  V30 21888 N 2047.17 -1.31814 -0.863883 0
M  V30 21889 C 2048.1 -1.15798 -1.97796 0
M  V30 21890 C 2049.11 -0.0954225 -1.6252 0
M  V30 21891 O 2050.3 -0.343504 -1.75164 0
M  V30 21892 C 2047.4 -0.748332 -3.30535 0
M  V30 21893 C 2046.58 -1.89721 -3.94113 0
M  V30 21894 C 2045.63 -1.47262 -5.05174 0
M  V30 21895 O 2044.66 -2.18322 -5.25666 0
M  V30 21896 N 2045.86 -0.363428 -5.79361 0
M  V30 21897 H 2048.63 -2.11761 -2.12079 0
M  V30 21898 H 2046.19 -1.24229 -1.03821 0
M  V30 21899 H 2048.18 -0.446875 -4.02225 0
M  V30 21900 H 2046.75 0.119862 -3.1237 0
M  V30 21901 H 2045.97 -2.36566 -3.15326 0
M  V30 21902 H 2047.26 -2.66657 -4.33326 0
M  V30 21903 H 2046.66 0.228215 -5.65239 0
M  V30 21904 H 2045.21 -0.121534 -6.51687 0
M  V30 21905 N 2048.65 1.07897 -1.14873 0
M  V30 21906 C 2049.87 1.84657 -0.944281 0
M  V30 21907 C 2050.3 1.8127 0.50226 0
M  V30 21908 O 2049.65 1.20159 1.35763 0
M  V30 21909 C 2049.7 3.29889 -1.45622 0
M  V30 21910 O 2048.81 4.07217 -0.651748 0
M  V30 21911 H 2048.15 0.571994 -0.337222 0
M  V30 21912 H 2050.68 1.36151 -1.52723 0
M  V30 21913 H 2050.69 3.80727 -1.46665 0
M  V30 21914 H 2049.36 3.31668 -2.50936 0
M  V30 21915 H 2047.94 3.66069 -0.710491 0
M  V30 21916 N 2050.12 0.944665 1.2615 0
M  V30 21917 C 2051.54 0.636259 1.75524 0
M  V30 21918 C 2051.89 -0.848524 1.76903 0
M  V30 21919 O 2051.01 -1.66407 1.38339 0
M  V30 21920 C 2051.61 1.14823 3.18749 0
M  V30 21921 C 2050.17 0.890177 3.65722 0
M  V30 21922 C 2049.31 1.29711 2.45093 0
M  V30 21923 H 2052.26 1.12258 1.12177 0
M  V30 21924 H 2052.28 0.503668 3.77152 0
M  V30 21925 H 2051.8 2.22889 3.17714 0
M  V30 21926 H 2049.9 -0.175952 3.72184 0
M  V30 21927 H 2050.01 1.51963 4.54361 0
M  V30 21928 H 2048.37 0.71552 2.44443 0
M  V30 21929 H 2049.16 2.38677 2.46755 0
M  V30 21930 N 2051.6 -1.40596 0.712085 0
M  V30 21931 C 2052.53 -2.33389 0.0719438 0
M  V30 21932 C 2053.51 -1.52706 -0.749334 0
M  V30 21933 O 2054.7 -1.81185 -0.698968 0
M  V30 21934 C 2051.83 -3.36659 -0.853122 0
M  V30 21935 C 2050.78 -4.27778 -0.137724 0
M  V30 21936 C 2050.11 -5.21556 -1.17827 0
M  V30 21937 C 2051.41 -5.12521 1.00597 0
M  V30 21938 H 2053.1 -2.87169 0.847002 0
M  V30 21939 H 2050.65 -1.38077 0.408756 0
M  V30 21940 H 2052.6 -4.00511 -1.31031 0
M  V30 21941 H 2051.33 -2.81266 -1.66004 0
M  V30 21942 H 2049.98 -3.65374 0.299603 0
M  V30 21943 H 2049.63 -4.6247 -1.97814 0
M  V30 21944 H 2049.33 -5.83361 -0.704503 0
M  V30 21945 H 2050.86 -5.88285 -1.63563 0
M  V30 21946 H 2052.27 -5.69847 0.62831 0
M  V30 21947 H 2050.67 -5.83351 1.40789 0
M  V30 21948 H 2051.74 -4.48706 1.83822 0
M  V30 21949 N 2053.08 -0.458013 -1.50798 0
M  V30 21950 C 2054.31 0.10185 -2.0715 0
M  V30 21951 C 2054.73 1.33899 -1.32109 0
M  V30 21952 O 2054.09 1.77589 -0.364928 0
M  V30 21953 C 2054.14 0.381979 -3.58571 0
M  V30 21954 O 2053.24 1.46484 -3.85508 0
M  V30 21955 H 2052.58 -0.00721903 -0.663961 0
M  V30 21956 H 2055.11 -0.645297 -1.94157 0
M  V30 21957 H 2055.12 0.626354 -4.03163 0
M  V30 21958 H 2053.8 -0.522121 -4.1261 0
M  V30 21959 H 2052.37 1.20881 -3.52764 0
M  V30 21960 N 2054.56 1.56449 -0.190119 0
M  V30 21961 C 2055.84 1.89172 0.497312 0
M  V30 21962 C 2056.22 1.1029 1.79998 0
M  V30 21963 O 2055.56 0.202471 2.27601 0
M  V30 21964 C 2055.77 3.41472 0.720941 0
M  V30 21965 C 2057.12 4.11602 1.04254 0
M  V30 21966 O 2058.15 3.46895 0.808835 0
M  V30 21967 O 2057.01 5.25955 1.48438 0
M  V30 21968 H 2054.1 0.785518 0.258632 0
M  V30 21969 H 2056.65 1.68135 -0.229961 0
M  V30 21970 H 2055.42 3.90793 -0.199197 0
M  V30 21971 H 2055.04 3.68185 1.50085 0
M  V30 21972 N 2056.04 -0.0835127 1.57379 0
M  V30 21973 C 2057.28 -0.790348 1.88502 0
M  V30 21974 C 2057.64 -1.7533 0.782517 0
M  V30 21975 O 2058.84 -2.50436 0.976485 0
M  V30 21976 C 2057.11 -1.48995 3.24862 0
M  V30 21977 S 2058.67 -2.23346 3.77706 0
M  V30 21978 H 2055.49 -0.263074 0.66054 0
M  V30 21979 H 2058.09 -0.046945 1.95444 0
M  V30 21980 H 2056.8 -0.775138 4.03013 0
M  V30 21981 H 2056.33 -2.27302 3.21088 0
M  V30 21982 H 2058.34 -3.49677 3.52051 0
M  V30 21983 N 2057.52 -1.53558 -0.354624 0
M  V30 21984 C 2058.45 -1.83751 -1.44076 0
M  V30 21985 C 2059.43 -0.691795 -1.55397 0
M  V30 21986 O 2060.61 -0.942676 -1.69786 0
M  V30 21987 C 2057.74 -2.03721 -2.81274 0
M  V30 21988 C 2056.7 -3.19517 -2.84769 0
M  V30 21989 C 2056.02 -3.248 -4.24746 0
M  V30 21990 C 2057.32 -4.5787 -2.51301 0
M  V30 21991 H 2059.02 -2.7471 -1.19058 0
M  V30 21992 H 2056.56 -1.32182 -0.5713 0
M  V30 21993 H 2058.51 -2.23427 -3.57293 0
M  V30 21994 H 2057.24 -1.09482 -3.07703 0
M  V30 21995 H 2055.9 -2.99649 -2.11201 0
M  V30 21996 H 2055.55 -2.28177 -4.48268 0
M  V30 21997 H 2055.25 -4.02606 -4.27998 0
M  V30 21998 H 2056.77 -3.46702 -5.02623 0
M  V30 21999 H 2058.18 -4.77663 -3.17034 0
M  V30 22000 H 2056.58 -5.37998 -2.65853 0
M  V30 22001 H 2057.65 -4.62234 -1.46518 0
M  V30 22002 N 2058.99 0.615033 -1.45104 0
M  V30 22003 C 2060.22 1.40105 -1.52244 0
M  V30 22004 C 2060.64 1.88183 -0.152561 0
M  V30 22005 O 2059.99 1.61783 0.844537 0
M  V30 22006 C 2060.04 2.61056 -2.50064 0
M  V30 22007 O 2059.77 2.14979 -3.81727 0
M  V30 22008 C 2061.27 3.54003 -2.66828 0
M  V30 22009 H 2058.49 0.429133 -0.515835 0
M  V30 22010 H 2061.03 0.750744 -1.90221 0
M  V30 22011 H 2059.19 3.22145 -2.15178 0
M  V30 22012 H 2059.6 2.9351 -4.34686 0
M  V30 22013 H 2061.07 4.35434 -3.39266 0
M  V30 22014 H 2061.55 4.03861 -1.72606 0
M  V30 22015 H 2062.16 2.98773 -3.0268 0
M  V30 22016 N 2060.47 1.3227 0.85688 0
M  V30 22017 C 2061.89 1.11212 1.14473 0
M  V30 22018 C 2062.09 -0.108857 2.01206 0
M  V30 22019 O 2061.14 -0.7944 2.39678 0
M  V30 22020 C 2062.46 2.39046 1.82421 0
M  V30 22021 C 2064 2.44782 1.95066 0
M  V30 22022 C 2064.48 3.72531 2.66429 0
M  V30 22023 N 2065.97 3.735 2.73956 0
M  V30 22024 C 2066.71 4.69049 3.29819 0
M  V30 22025 N 2066.2 5.74963 3.86509 0
M  V30 22026 N 2067.99 4.5655 3.27901 0
M  V30 22027 H 2060.15 2.10557 0.279231 0
M  V30 22028 H 2062.41 0.929507 0.186337 0
M  V30 22029 H 2062.11 3.28299 1.26145 0
M  V30 22030 H 2061.99 2.49838 2.82596 0
M  V30 22031 H 2064.38 1.5599 2.50502 0
M  V30 22032 H 2064.46 2.37944 0.938939 0
M  V30 22033 H 2064.1 4.61696 2.11658 0
M  V30 22034 H 2064.03 3.76639 3.68036 0
M  V30 22035 H 2066.52 2.96945 2.33735 0
M  V30 22036 H 2066.83 6.43931 4.27285 0
M  V30 22037 H 2065.18 5.7872 3.84848 0
M  V30 22038 H 2068.37 3.72973 2.82858 0
M  V30 22039 H 2068.54 5.31189 3.71136 0
M  V30 22040 N 2061.95 -1.07287 1.15444 0
M  V30 22041 C 2063.17 -1.84153 0.954061 0
M  V30 22042 C 2063.6 -1.81534 -0.492639 0
M  V30 22043 O 2062.96 -1.20877 -1.35124 0
M  V30 22044 C 2063.01 -3.29112 1.4737 0
M  V30 22045 O 2062.11 -4.06866 0.673335 0
M  V30 22046 H 2061.45 -0.570198 0.34025 0
M  V30 22047 H 2063.98 -1.35339 1.53442 0
M  V30 22048 H 2063.99 -3.79944 1.48682 0
M  V30 22049 H 2062.67 -3.30333 2.52691 0
M  V30 22050 H 2061.24 -3.65687 0.729894 0
M  V30 22051 N 2063.43 -0.951342 -1.25647 0
M  V30 22052 C 2064.38 -0.439691 -2.2372 0
M  V30 22053 C 2065.36 0.469243 -1.53906 0
M  V30 22054 O 2066.55 0.302832 -1.7439 0
M  V30 22055 C 2063.68 0.284397 -3.4212 0
M  V30 22056 C 2062.77 -0.642416 -4.19206 0
M  V30 22057 N 2063.16 -1.77263 -4.73721 0
M  V30 22058 C 2061.46 -0.449973 -4.43724 0
M  V30 22059 C 2062.16 -2.35101 -5.32074 0
M  V30 22060 N 2061.13 -1.6379 -5.18337 0
M  V30 22061 H 2064.94 -1.30229 -2.63472 0
M  V30 22062 H 2062.45 -0.808431 -1.40848 0
M  V30 22063 H 2064.45 0.668054 -4.11513 0
M  V30 22064 H 2063.11 1.14364 -3.03893 0
M  V30 22065 H 2064.12 -2.15456 -4.70955 0
M  V30 22066 H 2060.8 0.366665 -4.15887 0
M  V30 22067 H 2062.19 -3.30386 -5.8506 0
M  V30 22068 N 2064.91 1.40216 -0.719531 0
M  V30 22069 C 2066.13 2.05647 -0.269106 0
M  V30 22070 C 2066.56 1.53865 1.082 0
M  V30 22071 O 2065.91 0.675703 1.68238 0
M  V30 22072 C 2065.96 3.59636 -0.263433 0
M  V30 22073 O 2065.07 4.05448 0.754058 0
M  V30 22074 H 2064.41 0.652036 -0.12548 0
M  V30 22075 H 2066.94 1.79542 -0.981119 0
M  V30 22076 H 2066.95 4.07871 -0.102475 0
M  V30 22077 H 2065.62 3.9669 -1.24939 0
M  V30 22078 H 2064.2 3.68664 0.560502 0
M  V30 22079 N 2066.38 0.466004 1.50553 0
M  V30 22080 C 2067.63 -0.0923956 2.01488 0
M  V30 22081 C 2067.95 -1.41242 1.35315 0
M  V30 22082 O 2069.15 -2.05546 1.77379 0
M  V30 22083 C 2067.61 -0.21518 3.59256 0
M  V30 22084 C 2067.22 1.09611 4.34384 0
M  V30 22085 C 2068.96 -0.725811 4.18249 0
M  V30 22086 C 2066.87 0.937394 5.83924 0
M  V30 22087 H 2065.8 -0.0383052 0.753026 0
M  V30 22088 H 2068.45 0.600129 1.73409 0
M  V30 22089 H 2066.83 -0.97137 3.83902 0
M  V30 22090 H 2068 1.86285 4.21467 0
M  V30 22091 H 2066.32 1.53746 3.86977 0
M  V30 22092 H 2068.92 -0.861504 5.27714 0
M  V30 22093 H 2069.26 -1.71583 3.79296 0
M  V30 22094 H 2069.79 -0.0271476 3.97791 0
M  V30 22095 H 2066.53 1.90063 6.27341 0
M  V30 22096 H 2066.05 0.210939 5.99429 0
M  V30 22097 H 2067.73 0.601974 6.44194 0
M  V30 22098 N 2067.86 -1.56346 0.198413 0
M  V30 22099 C 2069.27 -1.84047 -0.313597 0
M  V30 22100 C 2069.62 -1.11918 -1.61148 0
M  V30 22101 O 2068.75 -0.381091 -2.13018 0
M  V30 22102 C 2069.34 -3.33872 -0.575755 0
M  V30 22103 C 2067.9 -3.61973 -1.03213 0
M  V30 22104 C 2067.05 -2.77177 -0.0825349 0
M  V30 22105 H 2070 -1.52983 0.422128 0
M  V30 22106 H 2070.02 -3.52823 -1.42466 0
M  V30 22107 H 2069.53 -3.86341 0.369036 0
M  V30 22108 H 2067.63 -3.14939 -1.99108 0
M  V30 22109 H 2067.75 -4.70134 -0.922545 0
M  V30 22110 H 2066.11 -2.4789 -0.585043 0
M  V30 22111 H 2066.89 -3.32437 0.856759 0
M  V30 22112 N 2069.34 0.0751653 -1.57421 0
M  V30 22113 C 2070.27 1.11632 -2.00177 0
M  V30 22114 C 2071.29 1.35179 -0.907222 0
M  V30 22115 O 2072.47 1.33479 -1.18515 0
M  V30 22116 C 2069.57 2.46792 -2.32265 0
M  V30 22117 C 2068.75 2.43248 -3.63524 0
M  V30 22118 C 2067.81 3.60488 -3.8332 0
M  V30 22119 O 2066.83 3.42071 -4.54946 0
M  V30 22120 N 2068.03 4.80713 -3.25416 0
M  V30 22121 H 2070.8 0.752243 -2.90106 0
M  V30 22122 H 2068.36 0.263867 -1.59735 0
M  V30 22123 H 2070.35 3.23861 -2.42685 0
M  V30 22124 H 2068.92 2.75214 -1.48243 0
M  V30 22125 H 2068.14 1.51587 -3.63889 0
M  V30 22126 H 2069.43 2.37977 -4.49716 0
M  V30 22127 H 2068.83 4.9858 -2.67273 0
M  V30 22128 H 2067.39 5.55306 -3.4129 0
M  V30 22129 N 2070.82 1.53744 0.346476 0
M  V30 22130 C 2071.78 1.80833 1.40826 0
M  V30 22131 C 2072.78 0.679291 1.45747 0
M  V30 22132 O 2073.97 0.947566 1.46174 0
M  V30 22133 C 2071.1 1.94771 2.79781 0
M  V30 22134 H 2072.3 2.75679 1.18071 0
M  V30 22135 H 2069.85 1.45112 0.5807 0
M  V30 22136 H 2070.58 1.02057 3.07823 0
M  V30 22137 H 2070.37 2.76908 2.77605 0
M  V30 22138 H 2071.86 2.17255 3.56637 0
M  V30 22139 N 2072.3 -0.607329 1.45428 0
M  V30 22140 C 2073.24 -1.73916 1.54454 0
M  V30 22141 C 2074.24 -1.64251 0.4145 0
M  V30 22142 O 2075.44 -1.70041 0.59042 0
M  V30 22143 H 2071.82 -0.574581 0.48514 0
M  V30 22144 H 2073.79 -1.6343 2.49666 0
M  V30 22145 C 2072.54 -3.12295 1.52863 0
M  V30 22146 H 2071.86 -3.20392 2.39142 0
M  V30 22147 H 2073.3 -3.91318 1.63236 0
M  V30 22148 C 2071.76 -3.35948 0.2531 0
M  V30 22149 O 2072.29 -3.96125 -0.666944 0
M  V30 22150 N 2070.5 -2.90219 0.148714 0
M  V30 22151 H 2070.04 -2.4143 0.898284 0
M  V30 22152 H 2070 -3.06419 -0.703907 0
M  V30 22153 N 2073.77 -1.32722 -0.849853 0
M  V30 22154 C 2075.19 -1.11818 -1.13882 0
M  V30 22155 C 2075.39 0.0981854 -2.01261 0
M  V30 22156 O 2074.45 0.781678 -2.40096 0
M  V30 22157 C 2075.76 -2.4001 -1.81151 0
M  V30 22158 C 2077.31 -2.45813 -1.93765 0
M  V30 22159 C 2077.78 -3.73939 -2.6445 0
M  V30 22160 N 2079.27 -3.74948 -2.71971 0
M  V30 22161 C 2080.01 -4.70792 -3.27326 0
M  V30 22162 N 2079.5 -5.77005 -3.83454 0
M  V30 22163 N 2081.3 -4.58282 -3.25475 0
M  V30 22164 H 2073.45 -2.10702 -0.26806 0
M  V30 22165 H 2075.71 -0.930482 -0.181405 0
M  V30 22166 H 2075.42 -3.28963 -1.24403 0
M  V30 22167 H 2075.29 -2.51333 -2.81267 0
M  V30 22168 H 2077.68 -1.57316 -2.49671 0
M  V30 22169 H 2077.76 -2.38439 -0.926307 0
M  V30 22170 H 2077.4 -4.62812 -2.09206 0
M  V30 22171 H 2077.33 -3.78586 -3.66034 0
M  V30 22172 H 2079.82 -2.9818 -2.32157 0
M  V30 22173 H 2080.14 -6.46188 -4.23864 0
M  V30 22174 H 2078.48 -5.80753 -3.81773 0
M  V30 22175 H 2081.67 -3.74468 -2.80876 0
M  V30 22176 H 2081.85 -5.3315 -3.68314 0
M  V30 22177 N 2075.25 1.06673 -1.16011 0
M  V30 22178 C 2076.48 1.83645 -0.963814 0
M  V30 22179 C 2076.9 1.81793 0.483005 0
M  V30 22180 O 2076.26 1.21592 1.34481 0
M  V30 22181 C 2076.31 3.28326 -1.49113 0
M  V30 22182 O 2075.41 4.06503 -0.694902 0
M  V30 22183 H 2074.75 0.568386 -0.343269 0
M  V30 22184 H 2077.28 1.34523 -1.54158 0
M  V30 22185 H 2077.29 3.7915 -1.50695 0
M  V30 22186 H 2075.97 3.28988 -2.5444 0
M  V30 22187 H 2074.55 3.65295 -0.749278 0
M  V30 22188 N 2076.73 0.957992 1.25141 0
M  V30 22189 C 2078.14 0.65484 1.74839 0
M  V30 22190 C 2078.49 -0.829713 1.77793 0
M  V30 22191 O 2077.62 -1.6493 1.40096 0
M  V30 22192 C 2078.21 1.18197 3.17513 0
M  V30 22193 C 2076.77 0.928917 3.64758 0
M  V30 22194 C 2075.92 1.32303 2.43703 0
M  V30 22195 H 2078.87 1.13442 1.1098 0
M  V30 22196 H 2078.89 0.543641 3.76596 0
M  V30 22197 H 2078.4 2.26246 3.15332 0
M  V30 22198 H 2076.5 -0.136467 3.7235 0
M  V30 22199 H 2076.62 1.56774 4.52724 0
M  V30 22200 H 2074.98 0.741407 2.4367 0
M  V30 22201 H 2075.76 2.41281 2.4421 0
M  V30 22202 N 2078.21 -1.39832 0.726957 0
M  V30 22203 C 2079.14 -2.333 0.0966938 0
M  V30 22204 C 2080.12 -1.53492 -0.733095 0
M  V30 22205 O 2081.3 -1.81916 -0.679712 0
M  V30 22206 C 2078.43 -3.37545 -0.817367 0
M  V30 22207 C 2077.39 -4.279 -0.0923447 0
M  V30 22208 C 2076.71 -5.22777 -1.12288 0
M  V30 22209 C 2078.01 -5.11425 1.06028 0
M  V30 22210 H 2079.71 -2.86255 0.877412 0
M  V30 22211 H 2077.25 -1.37635 0.423378 0
M  V30 22212 H 2079.21 -4.01878 -1.26776 0
M  V30 22213 H 2077.93 -2.83011 -1.63011 0
M  V30 22214 H 2076.59 -3.65035 0.338339 0
M  V30 22215 H 2076.24 -4.64542 -1.92898 0
M  V30 22216 H 2075.94 -5.84076 -0.64259 0
M  V30 22217 H 2077.46 -5.89987 -1.57314 0
M  V30 22218 H 2078.88 -5.69148 0.688715 0
M  V30 22219 H 2077.27 -5.81825 1.46968 0
M  V30 22220 H 2078.34 -4.46731 1.88571 0
M  V30 22221 N 2079.69 -0.473982 -1.50304 0
M  V30 22222 C 2081.1 -0.0195635 -1.8669 0
M  V30 22223 C 2081.45 1.38613 -1.38856 0
M  V30 22224 O 2080.57 2.02811 -0.754772 0
M  V30 22225 C 2081.17 -0.0287258 -3.38788 0
M  V30 22226 C 2079.73 0.370234 -3.74575 0
M  V30 22227 C 2078.87 -0.412963 -2.74208 0
M  V30 22228 H 2081.83 -0.688116 -1.43006 0
M  V30 22229 H 2081.85 0.772789 -3.7257 0
M  V30 22230 H 2081.36 -1.05193 -3.73572 0
M  V30 22231 H 2079.46 1.39768 -3.45392 0
M  V30 22232 H 2079.57 0.0695687 -4.79049 0
M  V30 22233 H 2077.94 0.13371 -2.54349 0
M  V30 22234 H 2078.72 -1.43573 -3.11836 0
M  V30 22235 N 2081.16 1.56239 -0.206702 0
M  V30 22236 C 2082.41 1.97079 0.429267 0
M  V30 22237 C 2082.73 1.09689 1.6195 0
M  V30 22238 O 2083.93 1.40363 2.32402 0
M  V30 22239 C 2082.39 3.50548 0.815111 0
M  V30 22240 C 2082 4.46619 -0.351476 0
M  V30 22241 C 2083.74 4.00133 1.41751 0
M  V30 22242 C 2081.65 5.91374 0.0559745 0
M  V30 22243 H 2080.58 0.735915 0.164151 0
M  V30 22244 H 2083.23 1.81022 -0.300562 0
M  V30 22245 H 2081.61 3.62152 1.60194 0
M  V30 22246 H 2082.78 4.46754 -1.12903 0
M  V30 22247 H 2081.1 4.07292 -0.866134 0
M  V30 22248 H 2083.7 5.05768 1.73501 0
M  V30 22249 H 2084.04 3.45116 2.3281 0
M  V30 22250 H 2084.57 3.91692 0.694423 0
M  V30 22251 H 2081.31 6.50342 -0.820723 0
M  V30 22252 H 2080.83 5.94466 0.798148 0
M  V30 22253 H 2082.51 6.45159 0.487795 0
M  V30 22254 N 2082.64 -0.0668159 1.57458 0
M  V30 22255 C 2083.61 -1.06329 2.03044 0
M  V30 22256 C 2084.61 -1.31301 0.928259 0
M  V30 22257 O 2085.8 -1.26938 1.193 0
M  V30 22258 C 2082.93 -2.40573 2.41532 0
M  V30 22259 H 2084.12 -0.67029 2.92313 0
M  V30 22260 H 2081.67 -0.312678 1.53141 0
M  V30 22261 H 2082.41 -2.84695 1.55303 0
M  V30 22262 H 2082.19 -2.23788 3.21965 0
M  V30 22263 H 2083.68 -3.12189 2.77359 0
M  V30 22264 N 2084.12 -1.53926 -0.338317 0
M  V30 22265 C 2085.07 -1.8228 -1.41572 0
M  V30 22266 C 2086.04 -0.668853 -1.52038 0
M  V30 22267 O 2087.22 -0.913813 -1.67494 0
M  V30 22268 C 2084.36 -2.04273 -2.78148 0
M  V30 22269 C 2083.48 -3.31978 -2.76432 0
M  V30 22270 C 2082.61 -3.44011 -4.04759 0
M  V30 22271 C 2081.65 -4.65646 -3.97292 0
M  V30 22272 N 2080.79 -4.74683 -5.1732 0
M  V30 22273 H 2085.63 -2.74202 -1.16692 0
M  V30 22274 H 2083.16 -1.35809 -0.565173 0
M  V30 22275 H 2085.12 -2.15014 -3.57526 0
M  V30 22276 H 2083.75 -1.15659 -3.01368 0
M  V30 22277 H 2082.8 -3.30052 -1.89129 0
M  V30 22278 H 2084.12 -4.21454 -2.66792 0
M  V30 22279 H 2083.27 -3.54213 -4.92563 0
M  V30 22280 H 2082.01 -2.52601 -4.17186 0
M  V30 22281 H 2081.01 -4.55516 -3.07873 0
M  V30 22282 H 2082.24 -5.58425 -3.86443 0
M  V30 22283 H 2080.19 -3.86184 -5.30281 0
M  V30 22284 H 2080.1 -5.58103 -5.09958 0
M  V30 22285 H 2081.37 -4.89201 -6.0688 0
M  V30 22286 N 2085.6 0.599608 -1.45748 0
M  V30 22287 C 2086.85 1.3604 -1.50403 0
M  V30 22288 C 2087.18 1.93632 -0.148419 0
M  V30 22289 O 2086.45 1.75516 0.838118 0
M  V30 22290 C 2086.74 2.50237 -2.58946 0
M  V30 22291 C 2086.59 1.9779 -4.03979 0
M  V30 22292 C 2087.91 3.52344 -2.63708 0
M  V30 22293 H 2085.03 0.49329 -0.547571 0
M  V30 22294 H 2087.67 0.675178 -1.77599 0
M  V30 22295 H 2085.82 3.0869 -2.35888 0
M  V30 22296 H 2087.49 1.43925 -4.38273 0
M  V30 22297 H 2085.73 1.28734 -4.14258 0
M  V30 22298 H 2086.41 2.80147 -4.75628 0
M  V30 22299 H 2088.88 3.03746 -2.8439 0
M  V30 22300 H 2087.76 4.29728 -3.41504 0
M  V30 22301 H 2088.02 4.08481 -1.69103 0
M  V30 22302 N 2087.08 1.33171 0.842803 0
M  V30 22303 C 2088.3 1.27579 1.63519 0
M  V30 22304 C 2088.73 -0.151151 1.87492 0
M  V30 22305 O 2088.09 -1.10648 1.4362 0
M  V30 22306 C 2088.13 2.05261 2.9648 0
M  V30 22307 O 2087.24 1.40852 3.87601 0
M  V30 22308 H 2086.58 0.439106 0.498078 0
M  V30 22309 H 2089.11 1.75672 1.04883 0
M  V30 22310 H 2089.12 2.15879 3.46209 0
M  V30 22311 H 2087.79 3.09018 2.78354 0
M  V30 22312 H 2086.37 1.38855 3.46083 0
M  V30 22313 N 2088.56 -1.06056 1.16576 0
M  V30 22314 C 2089.78 -1.83131 0.973539 0
M  V30 22315 C 2090.21 -1.82047 -0.473358 0
M  V30 22316 O 2089.56 -1.22303 -1.33834 0
M  V30 22317 C 2089.61 -3.2753 1.50852 0
M  V30 22318 O 2088.72 -4.06129 0.716451 0
M  V30 22319 H 2088.06 -0.566557 0.346279 0
M  V30 22320 H 2090.59 -1.33704 1.54869 0
M  V30 22321 H 2090.6 -3.78346 1.52704 0
M  V30 22322 H 2089.27 -3.27634 2.56181 0
M  V30 22323 H 2087.85 -3.64892 0.768639 0
M  V30 22324 N 2090.03 -0.964615 -1.24631 0
M  V30 22325 C 2091.28 -0.624816 -1.9262 0
M  V30 22326 C 2091.61 0.839576 -1.75446 0
M  V30 22327 O 2090.86 1.61908 -1.09929 0
M  V30 22328 C 2091.16 -0.941821 -3.44767 0
M  V30 22329 C 2090.83 -2.39386 -3.82106 0
M  V30 22330 C 2089.49 -2.79073 -3.9201 0
M  V30 22331 C 2091.84 -3.33637 -4.0042 0
M  V30 22332 C 2089.17 -4.12059 -4.17642 0
M  V30 22333 C 2091.52 -4.66247 -4.27547 0
M  V30 22334 C 2090.19 -5.05716 -4.35669 0
M  V30 22335 H 2089.46 -0.228636 -0.704845 0
M  V30 22336 H 2092.1 -1.21552 -1.47977 0
M  V30 22337 H 2090.41 -0.268835 -3.90877 0
M  V30 22338 H 2092.11 -0.657344 -3.95576 0
M  V30 22339 H 2088.7 -2.07611 -3.74961 0
M  V30 22340 H 2092.88 -3.0416 -3.92174 0
M  V30 22341 H 2088.14 -4.42268 -4.22148 0
M  V30 22342 H 2092.31 -5.39249 -4.40662 0
M  V30 22343 H 2089.94 -6.08786 -4.55284 0
M  V30 22344 N 2091.51 1.39445 -0.734362 0
M  V30 22345 C 2092.92 1.8335 -0.352097 0
M  V30 22346 C 2093.27 1.61344 1.11635 0
M  V30 22347 O 2092.4 1.10427 1.86105 0
M  V30 22348 C 2092.99 3.32848 -0.632286 0
M  V30 22349 C 2091.55 3.75174 -0.303522 0
M  V30 22350 C 2090.7 2.62452 -0.895228 0
M  V30 22351 H 2093.65 1.28446 -0.932054 0
M  V30 22352 H 2093.67 3.80378 0.0961584 0
M  V30 22353 H 2093.18 3.48832 -1.70111 0
M  V30 22354 H 2091.28 3.64777 0.759492 0
M  V30 22355 H 2091.4 4.72615 -0.785637 0
M  V30 22356 H 2089.76 2.52658 -0.321907 0
M  V30 22357 H 2090.54 2.81242 -1.9687 0
M  V30 22358 N 2092.99 0.481946 1.5005 0
M  V30 22359 C 2094.21 -0.0688814 2.07286 0
M  V30 22360 C 2094.64 -1.3178 1.34222 0
M  V30 22361 O 2094 -1.76986 0.393135 0
M  V30 22362 C 2094.05 -0.324885 3.59133 0
M  V30 22363 O 2093.15 -1.40333 3.87789 0
M  V30 22364 H 2092.49 0.0177812 0.663762 0
M  V30 22365 H 2095.02 0.676104 1.93106 0
M  V30 22366 H 2095.03 -0.562135 4.04109 0
M  V30 22367 H 2093.71 0.587698 4.11727 0
M  V30 22368 H 2092.28 -1.15253 3.54642 0
M  V30 22369 N 2094.47 -1.56127 0.214985 0
M  V30 22370 C 2095.72 -1.97304 -0.41881 0
M  V30 22371 C 2096.03 -1.10547 -1.61366 0
M  V30 22372 O 2097.24 -1.41593 -2.31654 0
M  V30 22373 C 2095.69 -3.50975 -0.796509 0
M  V30 22374 C 2095.3 -4.46426 0.375156 0
M  V30 22375 C 2097.04 -4.0088 -1.39627 0
M  V30 22376 C 2094.95 -5.91395 -0.0246118 0
M  V30 22377 H 2093.88 -0.736775 -0.160246 0
M  V30 22378 H 2096.53 -1.8086 0.310157 0
M  V30 22379 H 2094.91 -3.62996 -1.58271 0
M  V30 22380 H 2096.09 -4.46149 1.15271 0
M  V30 22381 H 2094.4 -4.06827 0.887721 0
M  V30 22382 H 2097 -5.06681 -1.70816 0
M  V30 22383 H 2097.34 -3.46346 -2.30977 0
M  V30 22384 H 2097.88 -3.92055 -0.673641 0
M  V30 22385 H 2094.61 -6.49897 0.855201 0
M  V30 22386 H 2094.13 -5.94881 -0.766611 0
M  V30 22387 H 2095.81 -6.45408 -0.453573 0
M  V30 22388 N 2095.95 0.0584645 -1.57492 0
M  V30 22389 C 2097.36 0.413547 -1.54149 0
M  V30 22390 C 2097.56 1.78385 -0.937076 0
M  V30 22391 O 2096.62 2.46541 -0.545339 0
M  V30 22392 C 2097.93 0.342371 -2.98745 0
M  V30 22393 C 2099.48 0.421594 -3.10148 0
M  V30 22394 C 2099.95 0.380184 -4.56419 0
M  V30 22395 N 2101.44 0.439864 -4.61107 0
M  V30 22396 C 2102.18 0.430249 -5.71784 0
M  V30 22397 N 2101.68 0.374659 -6.91786 0
M  V30 22398 N 2103.47 0.4778 -5.60066 0
M  V30 22399 H 2095.62 -0.838642 -1.95142 0
M  V30 22400 H 2097.88 -0.316052 -0.893765 0
M  V30 22401 H 2097.59 -0.598115 -3.46577 0
M  V30 22402 H 2097.46 1.14747 -3.59323 0
M  V30 22403 H 2099.85 1.35251 -2.62281 0
M  V30 22404 H 2099.93 -0.41232 -2.52455 0
M  V30 22405 H 2099.57 -0.546935 -5.04947 0
M  V30 22406 H 2099.5 1.23181 -5.1199 0
M  V30 22407 H 2102 0.486535 -3.74755 0
M  V30 22408 H 2102.31 0.371614 -7.71906 0
M  V30 22409 H 2100.65 0.341145 -6.94162 0
M  V30 22410 H 2103.84 0.519015 -4.65214 0
M  V30 22411 H 2104.02 0.466838 -6.46316 0
M  V30 22412 N 2097.42 1.54103 0.330149 0
M  V30 22413 C 2098.83 1.633 0.904982 0
M  V30 22414 C 2099.19 0.522849 1.89105 0
M  V30 22415 O 2098.31 -0.345304 2.13627 0
M  V30 22416 C 2098.91 2.96008 1.64817 0
M  V30 22417 C 2097.46 3.07423 2.17182 0
M  V30 22418 C 2096.61 2.58829 0.995126 0
M  V30 22419 H 2099.56 1.58333 0.10791 0
M  V30 22420 H 2099.58 2.85799 2.51196 0
M  V30 22421 H 2099.1 3.76786 0.930246 0
M  V30 22422 H 2097.2 2.31306 2.9211 0
M  V30 22423 H 2097.31 4.13117 2.42635 0
M  V30 22424 H 2095.67 2.14563 1.3724 0
M  V30 22425 H 2096.46 3.42059 0.291621 0
M  V30 22426 N 2098.9 -0.59187 1.46064 0
M  V30 22427 C 2100.15 -1.34657 1.50168 0
M  V30 22428 C 2100.46 -1.94993 0.153981 0
M  V30 22429 O 2101.67 -2.71402 0.0727633 0
M  V30 22430 C 2100.13 -2.44 2.6456 0
M  V30 22431 C 2099.73 -1.90007 4.05711 0
M  V30 22432 C 2101.48 -3.2087 2.77926 0
M  V30 22433 C 2099.39 -2.96925 5.11458 0
M  V30 22434 H 2098.32 -0.506178 0.558838 0
M  V30 22435 H 2100.97 -0.632651 1.72249 0
M  V30 22436 H 2099.35 -3.18149 2.35791 0
M  V30 22437 H 2100.52 -1.22462 4.44229 0
M  V30 22438 H 2098.84 -1.25833 3.96932 0
M  V30 22439 H 2101.43 -4.00647 3.54099 0
M  V30 22440 H 2101.78 -3.72878 1.85115 0
M  V30 22441 H 2102.31 -2.53825 3.06296 0
M  V30 22442 H 2099.05 -2.49815 6.0603 0
M  V30 22443 H 2098.57 -3.62987 4.77494 0
M  V30 22444 H 2100.25 -3.61036 5.369 0
M  V30 22445 N 2100.38 -1.33616 -0.835729 0
M  V30 22446 C 2101.61 -1.28111 -1.62084 0
M  V30 22447 C 2102.02 0.149577 -1.88608 0
M  V30 22448 O 2101.36 1.10314 -1.4689 0
M  V30 22449 C 2101.42 -1.99073 -2.9935 0
M  V30 22450 C 2101.09 -3.48371 -2.95781 0
M  V30 22451 C 2102.08 -4.43516 -2.71273 0
M  V30 22452 C 2099.77 -3.90595 -3.15818 0
M  V30 22453 C 2101.76 -5.78859 -2.66835 0
M  V30 22454 C 2099.45 -5.26041 -3.11004 0
M  V30 22455 C 2100.45 -6.19985 -2.86544 0
M  V30 22456 O 2100.14 -7.5295 -2.8164 0
M  V30 22457 H 2099.87 -0.442615 -0.510948 0
M  V30 22458 H 2102.42 -1.76601 -1.04887 0
M  V30 22459 H 2100.65 -1.45179 -3.58413 0
M  V30 22460 H 2102.34 -1.87026 -3.60245 0
M  V30 22461 H 2103.11 -4.12218 -2.55541 0
M  V30 22462 H 2098.99 -3.1788 -3.33876 0
M  V30 22463 H 2102.53 -6.52157 -2.47663 0
M  V30 22464 H 2098.43 -5.56963 -3.26286 0
M  V30 22465 H 2099.2 -7.62535 -2.97459 0
M  V30 22466 N 2101.86 1.05436 -1.17136 0
M  V30 22467 C 2102.79 2.15075 -0.909112 0
M  V30 22468 C 2103.77 1.69455 0.147942 0
M  V30 22469 O 2104.95 1.942 -0.00177952 0
M  V30 22470 C 2102.08 3.44764 -0.41892 0
M  V30 22471 C 2101.04 4.03937 -1.41488 0
M  V30 22472 C 2100.36 5.2894 -0.782739 0
M  V30 22473 C 2101.66 4.4171 -2.78728 0
M  V30 22474 H 2103.36 2.37271 -1.826 0
M  V30 22475 H 2100.9 1.14031 -0.879376 0
M  V30 22476 H 2102.86 4.2081 -0.222885 0
M  V30 22477 H 2101.58 3.22213 0.533496 0
M  V30 22478 H 2100.24 3.29958 -1.59761 0
M  V30 22479 H 2099.89 5.0269 0.176435 0
M  V30 22480 H 2099.59 5.6949 -1.44758 0
M  V30 22481 H 2101.11 6.07675 -0.596922 0
M  V30 22482 H 2102.53 5.08801 -2.64187 0
M  V30 22483 H 2100.92 4.93271 -3.41766 0
M  V30 22484 H 2101.99 3.52168 -3.33325 0
M  V30 22485 N 2103.34 0.971211 1.24118 0
M  V30 22486 C 2104.56 0.652748 1.96333 0
M  V30 22487 C 2104.98 -0.778509 1.72002 0
M  V30 22488 O 2104.34 -1.52276 1.00589 0
M  V30 22489 C 2104.39 0.922262 3.49538 0
M  V30 22490 O 2104.11 2.29726 3.73039 0
M  V30 22491 C 2105.61 0.618475 4.38964 0
M  V30 22492 H 2102.83 0.243252 0.625355 0
M  V30 22493 H 2105.37 1.3001 1.57853 0
M  V30 22494 H 2103.53 0.321067 3.86067 0
M  V30 22495 H 2103.94 2.37994 4.67396 0
M  V30 22496 H 2105.42 0.857482 5.45299 0
M  V30 22497 H 2105.89 -0.447327 4.36916 0
M  V30 22498 H 2106.5 1.19973 4.08028 0
M  V30 22499 N 2104.81 -1.39054 0.741747 0
M  V30 22500 C 2106.23 -1.54028 0.418052 0
M  V30 22501 C 2106.43 -1.70725 -1.07029 0
M  V30 22502 O 2105.49 -1.71155 -1.8564 0
M  V30 22503 C 2106.8 -2.75414 1.20697 0
M  V30 22504 C 2108.35 -2.89254 1.19586 0
M  V30 22505 C 2108.82 -4.13587 1.96748 0
M  V30 22506 N 2110.31 -4.2064 1.93948 0
M  V30 22507 C 2111.05 -5.15809 2.50456 0
M  V30 22508 N 2110.54 -6.16725 3.15629 0
M  V30 22509 N 2112.34 -5.08074 2.40452 0
M  V30 22510 H 2104.49 -1.26464 1.70648 0
M  V30 22511 H 2106.75 -0.613446 0.722764 0
M  V30 22512 H 2106.46 -2.69441 2.26041 0
M  V30 22513 H 2106.33 -3.6827 0.815905 0
M  V30 22514 H 2108.72 -2.94716 0.150521 0
M  V30 22515 H 2108.8 -1.97443 1.62635 0
M  V30 22516 H 2108.44 -4.08887 3.01287 0
M  V30 22517 H 2108.37 -5.04456 1.51102 0
M  V30 22518 H 2110.86 -3.48358 1.46475 0
M  V30 22519 H 2111.18 -6.85816 3.56197 0
M  V30 22520 H 2109.52 -6.17093 3.19721 0
M  V30 22521 H 2112.71 -4.28172 1.89174 0
M  V30 22522 H 2112.89 -5.82065 2.84788 0
M  V30 22523 N 2106.29 -0.489897 -1.49792 0
M  V30 22524 C 2107.54 0.0586308 -2.02715 0
M  V30 22525 C 2107.87 1.37665 -1.36974 0
M  V30 22526 O 2107.15 1.87919 -0.501679 0
M  V30 22527 C 2107.43 0.222812 -3.5941 0
M  V30 22528 C 2107.28 -1.11755 -4.35696 0
M  V30 22529 C 2108.6 0.96865 -4.29308 0
M  V30 22530 H 2105.72 0.0198337 -0.736733 0
M  V30 22531 H 2108.36 -0.639149 -1.78927 0
M  V30 22532 H 2106.51 0.81714 -3.79809 0
M  V30 22533 H 2108.18 -1.74991 -4.26821 0
M  V30 22534 H 2106.43 -1.70959 -3.98692 0
M  V30 22535 H 2107.1 -0.956105 -5.43657 0
M  V30 22536 H 2109.57 0.464706 -4.13497 0
M  V30 22537 H 2108.45 1.05235 -5.38718 0
M  V30 22538 H 2108.71 2.00975 -3.93778 0
M  V30 22539 N 2107.77 1.56011 -0.223262 0
M  V30 22540 C 2108.7 2.23355 0.680795 0
M  V30 22541 C 2109.68 1.20584 1.19973 0
M  V30 22542 O 2110.87 1.49174 1.24342 0
M  V30 22543 C 2108 2.91478 1.88833 0
M  V30 22544 C 2106.95 4.00736 1.50316 0
M  V30 22545 C 2106.28 4.56164 2.7896 0
M  V30 22546 C 2107.58 5.17697 0.69188 0
M  V30 22547 H 2109.27 2.99162 0.119304 0
M  V30 22548 H 2106.82 1.43891 0.055942 0
M  V30 22549 H 2108.77 3.37282 2.52623 0
M  V30 22550 H 2107.49 2.13121 2.47481 0
M  V30 22551 H 2106.15 3.55665 0.888708 0
M  V30 22552 H 2105.8 3.74535 3.35757 0
M  V30 22553 H 2105.5 5.29903 2.53922 0
M  V30 22554 H 2107.02 5.04687 3.43691 0
M  V30 22555 H 2108.44 5.59872 1.23353 0
M  V30 22556 H 2106.84 5.97679 0.538515 0
M  V30 22557 H 2107.91 4.83964 -0.301131 0
M  V30 22558 N 2109.25 -0.0501116 1.5752 0
M  V30 22559 C 2110.5 -0.745096 1.88294 0
M  V30 22560 C 2110.82 -1.76469 0.817869 0
M  V30 22561 O 2110.08 -1.94836 -0.183698 0
M  V30 22562 C 2110.38 -1.46973 3.25782 0
M  V30 22563 C 2110.04 -0.588106 4.47048 0
M  V30 22564 C 2108.71 -0.345215 4.7996 0
M  V30 22565 C 2111.06 0.0218798 5.21195 0
M  V30 22566 C 2108.39 0.516787 5.8442 0
M  V30 22567 C 2110.74 0.87146 6.26569 0
M  V30 22568 C 2109.4 1.12402 6.57968 0
M  V30 22569 H 2108.67 -0.27265 0.689016 0
M  V30 22570 H 2111.32 -0.00536588 1.91499 0
M  V30 22571 H 2109.62 -2.28224 3.18467 0
M  V30 22572 H 2111.32 -2.01265 3.46834 0
M  V30 22573 H 2107.91 -0.787561 4.21302 0
M  V30 22574 H 2112.09 -0.152846 4.96065 0
M  V30 22575 H 2107.35 0.720981 6.07134 0
M  V30 22576 H 2111.52 1.35074 6.83175 0
M  V30 22577 H 2109.15 1.79371 7.38736 0
M  V30 22578 N 2110.73 -1.54276 -0.321972 0
M  V30 22579 C 2111.66 -1.80114 -1.41745 0
M  V30 22580 C 2112.67 -0.683177 -1.47772 0
M  V30 22581 O 2113.86 -0.960312 -1.50467 0
M  V30 22582 C 2110.96 -1.90532 -2.80269 0
M  V30 22583 C 2110.13 -3.20712 -2.97427 0
M  V30 22584 C 2109.19 -3.21811 -4.16322 0
M  V30 22585 O 2108.22 -3.95443 -4.09406 0
M  V30 22586 N 2109.42 -2.45708 -5.25935 0
M  V30 22587 H 2112.19 -2.74652 -1.19943 0
M  V30 22588 H 2109.75 -1.53592 -0.511965 0
M  V30 22589 H 2111.74 -1.88693 -3.58018 0
M  V30 22590 H 2110.31 -1.03083 -2.95115 0
M  V30 22591 H 2109.53 -3.35498 -2.06965 0
M  V30 22592 H 2110.82 -4.0666 -3.05786 0
M  V30 22593 H 2110.21 -1.85477 -5.34429 0
M  V30 22594 H 2108.77 -2.49645 -6.02097 0
M  V30 22595 N 2112.2 0.584116 -1.46376 0
M  V30 22596 C 2113.48 1.34425 -1.42089 0
M  V30 22597 C 2113.86 2.10846 -0.103623 0
M  V30 22598 O 2113.21 2.09389 0.914788 0
M  V30 22599 C 2113.42 2.27143 -2.64966 0
M  V30 22600 C 2114.77 2.89016 -3.11054 0
M  V30 22601 O 2115.79 2.37457 -2.65505 0
M  V30 22602 O 2114.65 3.82664 -3.90167 0
M  V30 22603 H 2111.74 0.603918 -0.564989 0
M  V30 22604 H 2114.29 0.605251 -1.5854 0
M  V30 22605 H 2113.06 1.70093 -3.52398 0
M  V30 22606 H 2112.69 3.08385 -2.50967 0
M  V30 22607 N 2113.68 1.34058 0.828631 0
M  V30 22608 C 2114.63 1.25159 1.96056 0
M  V30 22609 C 2115.63 0.150843 1.68727 0
M  V30 22610 O 2116.83 0.315456 1.77214 0
M  V30 22611 H 2113.21 0.388669 0.643771 0
M  V30 22612 H 2115.18 2.20835 2.00685 0
M  V30 22613 C 2113.93 1.0181 3.32461 0
M  V30 22614 H 2113.25 1.8574 3.54035 0
M  V30 22615 H 2114.69 0.996172 4.12132 0
M  V30 22616 C 2113.15 -0.278758 3.35745 0
M  V30 22617 O 2113.68 -1.28204 3.80692 0
M  V30 22618 N 2111.88 -0.309877 2.88943 0
M  V30 22619 H 2111.43 0.507134 2.52559 0
M  V30 22620 H 2111.39 -1.17737 2.91523 0
M  V30 22621 N 2115.16 -1.04814 1.17694 0
M  V30 22622 C 2116.39 -1.82088 0.992908 0
M  V30 22623 C 2116.81 -1.82538 -0.454023 0
M  V30 22624 O 2116.17 -1.23716 -1.3253 0
M  V30 22625 C 2116.22 -3.25912 1.54318 0
M  V30 22626 O 2115.32 -4.05346 0.759486 0
M  V30 22627 H 2114.66 -0.562852 0.352268 0
M  V30 22628 H 2117.19 -1.32054 1.56279 0
M  V30 22629 H 2117.2 -3.76705 1.56708 0
M  V30 22630 H 2115.88 -3.24899 2.59641 0
M  V30 22631 H 2114.45 -3.64056 0.807298 0
M  V30 22632 N 2116.64 -0.977779 -1.23601 0
M  V30 22633 C 2117.86 -0.662789 -1.96524 0
M  V30 22634 C 2118.29 0.763086 -1.71926 0
M  V30 22635 O 2117.65 1.51941 -0.989123 0
M  V30 22636 C 2117.7 -0.95584 -3.47701 0
M  V30 22637 O 2116.8 -0.046501 -4.12374 0
M  V30 22638 H 2116.14 -0.249541 -0.615325 0
M  V30 22639 H 2118.67 -1.31066 -1.57108 0
M  V30 22640 H 2118.68 -0.891475 -3.98142 0
M  V30 22641 H 2117.36 -1.99494 -3.64932 0
M  V30 22642 H 2115.93 -0.165051 -3.72535 0
M  V30 22643 N 2118.12 1.38658 -0.749111 0
M  V30 22644 C 2119.07 2.27805 -0.0942107 0
M  V30 22645 C 2120.05 1.44975 0.697929 0
M  V30 22646 O 2121.24 1.67753 0.564619 0
M  V30 22647 C 2118.37 3.33811 0.801579 0
M  V30 22648 C 2117.46 4.241 0.0028319 0
M  V30 22649 N 2117.85 4.95175 -1.03129 0
M  V30 22650 C 2116.15 4.45405 0.230336 0
M  V30 22651 C 2116.85 5.61648 -1.51416 0
M  V30 22652 N 2115.82 5.37222 -0.830252 0
M  V30 22653 H 2119.63 2.80218 -0.886296 0
M  V30 22654 H 2117.14 1.51508 -0.584738 0
M  V30 22655 H 2119.14 3.96559 1.28634 0
M  V30 22656 H 2117.8 2.82956 1.59267 0
M  V30 22657 H 2118.81 4.98252 -1.41298 0
M  V30 22658 H 2115.49 4.05467 0.995116 0
M  V30 22659 H 2116.88 6.28513 -2.37531 0
M  V30 22660 N 2119.6 0.497834 1.49531 0
M  V30 22661 C 2120.53 -0.271671 2.31914 0
M  V30 22662 C 2121.51 -0.965521 1.40042 0
M  V30 22663 O 2122.69 -0.957536 1.68952 0
M  V30 22664 C 2119.82 -1.3384 3.20475 0
M  V30 22665 C 2118.78 -0.76461 4.21115 0
M  V30 22666 C 2118.1 -1.93162 4.98591 0
M  V30 22667 C 2119.4 0.242201 5.21738 0
M  V30 22668 H 2121.1 0.415979 2.96496 0
M  V30 22669 H 2118.64 0.201496 1.42583 0
M  V30 22670 H 2120.59 -1.88442 3.76918 0
M  V30 22671 H 2119.32 -2.05519 2.5383 0
M  V30 22672 H 2117.98 -0.240359 3.65811 0
M  V30 22673 H 2117.63 -2.63602 4.28396 0
M  V30 22674 H 2117.33 -1.55378 5.66685 0
M  V30 22675 H 2118.85 -2.48204 5.57877 0
M  V30 22676 H 2120.26 -0.215575 5.72895 0
M  V30 22677 H 2118.66 0.535707 5.97704 0
M  V30 22678 H 2119.73 1.15916 4.70841 0
M  V30 22679 N 2121.07 -1.5589 0.231532 0
M  V30 22680 C 2122.48 -1.84671 -0.274487 0
M  V30 22681 C 2122.84 -1.15311 -1.58738 0
M  V30 22682 O 2121.96 -0.42619 -2.12162 0
M  V30 22683 C 2122.56 -3.35018 -0.504806 0
M  V30 22684 C 2121.11 -3.6408 -0.955115 0
M  V30 22685 C 2120.26 -2.7729 -0.023723 0
M  V30 22686 H 2123.21 -1.52053 0.454483 0
M  V30 22687 H 2123.23 -3.55765 -1.3495 0
M  V30 22688 H 2122.75 -3.85472 0.450902 0
M  V30 22689 H 2120.85 -3.19092 -1.92383 0
M  V30 22690 H 2120.96 -4.71985 -0.822615 0
M  V30 22691 H 2119.32 -2.49075 -0.53233 0
M  V30 22692 H 2120.11 -3.30545 0.927081 0
M  V30 22693 N 2122.55 0.0417572 -1.57545 0
M  V30 22694 C 2123.51 1.03085 -2.0471 0
M  V30 22695 C 2124.51 1.29808 -0.94903 0
M  V30 22696 O 2125.7 1.25024 -1.21304 0
M  V30 22697 C 2122.84 2.367 -2.45329 0
M  V30 22698 H 2124.03 0.623701 -2.93343 0
M  V30 22699 H 2121.58 0.288275 -1.53619 0
M  V30 22700 H 2122.32 2.82188 -1.59813 0
M  V30 22701 H 2122.1 2.18637 -3.25485 0
M  V30 22702 H 2123.59 3.07737 -2.8229 0
M  V30 22703 N 2124.03 1.54445 0.313786 0
M  V30 22704 C 2124.99 1.8378 1.36959 0
M  V30 22705 C 2125.99 0.710053 1.44274 0
M  V30 22706 O 2127.18 0.978359 1.44131 0
M  V30 22707 C 2124.31 2.00661 2.75586 0
M  V30 22708 H 2125.51 2.78122 1.12197 0
M  V30 22709 H 2123.06 1.46311 0.549789 0
M  V30 22710 H 2123.8 1.08564 3.05589 0
M  V30 22711 H 2123.58 2.82734 2.71669 0
M  V30 22712 H 2125.07 2.24771 3.51948 0
M  V30 22713 N 2125.51 -0.576345 1.46683 0
M  V30 22714 C 2126.73 -1.36505 1.56145 0
M  V30 22715 C 2127.16 -1.86975 0.20539 0
M  V30 22716 O 2126.52 -1.6192 -0.815566 0
M  V30 22717 C 2126.56 -2.52417 2.57523 0
M  V30 22718 O 2125.67 -3.54056 2.11467 0
M  V30 22719 H 2125.01 -0.406262 0.525211 0
M  V30 22720 H 2127.54 -0.698466 1.92309 0
M  V30 22721 H 2127.55 -2.99248 2.77335 0
M  V30 22722 H 2126.22 -2.15036 3.55995 0
M  V30 22723 H 2124.8 -3.13661 2.01671 0
M  V30 22724 N 2126.99 -1.34495 -0.82151 0
M  V30 22725 C 2128.22 -1.29823 -1.60716 0
M  V30 22726 C 2128.62 0.129564 -1.88756 0
M  V30 22727 O 2127.97 1.0875 -1.48051 0
M  V30 22728 C 2128.03 -2.02237 -2.97221 0
M  V30 22729 C 2127.69 -3.51489 -2.92069 0
M  V30 22730 C 2128.69 -4.46369 -2.66554 0
M  V30 22731 C 2126.37 -3.93923 -3.11657 0
M  V30 22732 C 2128.37 -5.81657 -2.6068 0
M  V30 22733 C 2126.06 -5.2931 -3.05408 0
M  V30 22734 C 2127.05 -6.22989 -2.79953 0
M  V30 22735 O 2126.74 -7.55895 -2.73638 0
M  V30 22736 H 2126.47 -0.44801 -0.506225 0
M  V30 22737 H 2129.03 -1.77704 -1.03008 0
M  V30 22738 H 2127.26 -1.48972 -3.56853 0
M  V30 22739 H 2128.95 -1.90836 -3.58241 0
M  V30 22740 H 2129.71 -4.14905 -2.51155 0
M  V30 22741 H 2125.59 -3.21403 -3.30486 0
M  V30 22742 H 2129.14 -6.54747 -2.40732 0
M  V30 22743 H 2125.03 -5.60392 -3.20361 0
M  V30 22744 H 2125.8 -7.65647 -2.89355 0
M  V30 22745 N 2128.46 1.04188 -1.18248 0
M  V30 22746 C 2129.88 1.29568 -0.931902 0
M  V30 22747 C 2130.08 1.97424 0.403235 0
M  V30 22748 O 2129.14 2.25409 1.13785 0
M  V30 22749 C 2130.45 2.15557 -2.09656 0
M  V30 22750 C 2132 2.28907 -2.13473 0
M  V30 22751 C 2132.47 3.18262 -3.29353 0
M  V30 22752 N 2133.96 3.25849 -3.29206 0
M  V30 22753 C 2134.7 3.95141 -4.15513 0
M  V30 22754 N 2134.19 4.66775 -5.1195 0
M  V30 22755 N 2135.99 3.91408 -4.03431 0
M  V30 22756 H 2128.14 0.585496 -2.04171 0
M  V30 22757 H 2130.4 0.320854 -0.892052 0
M  V30 22758 H 2130.11 1.73002 -3.06208 0
M  V30 22759 H 2129.98 3.16231 -2.05616 0
M  V30 22760 H 2132.37 2.70698 -1.175 0
M  V30 22761 H 2132.45 1.27828 -2.21571 0
M  V30 22762 H 2132.09 2.77182 -4.25597 0
M  V30 22763 H 2132.02 4.1937 -3.18491 0
M  V30 22764 H 2134.51 2.74819 -2.59389 0
M  V30 22765 H 2134.83 5.17239 -5.74181 0
M  V30 22766 H 2133.17 4.65683 -5.15911 0
M  V30 22767 H 2136.36 3.34577 -3.27377 0
M  V30 22768 H 2136.54 4.45139 -4.70909 0
M  V30 22769 N 2129.94 0.98432 1.23081 0
M  V30 22770 C 2130.89 0.527474 2.24692 0
M  V30 22771 C 2131.86 -0.435706 1.60284 0
M  V30 22772 O 2133.04 -0.342378 1.87703 0
M  V30 22773 C 2130.18 -0.160141 3.44728 0
M  V30 22774 C 2129.3 0.843763 4.2368 0
M  V30 22775 C 2128.43 0.130552 5.3104 0
M  V30 22776 C 2127.47 1.1234 6.01703 0
M  V30 22777 N 2126.61 0.439082 7.00726 0
M  V30 22778 H 2131.45 1.39873 2.63134 0
M  V30 22779 H 2128.99 0.700815 1.29333 0
M  V30 22780 H 2130.94 -0.575649 4.1321 0
M  V30 22781 H 2129.57 -0.995239 3.07075 0
M  V30 22782 H 2128.63 1.37764 3.54578 0
M  V30 22783 H 2129.94 1.60017 4.72436 0
M  V30 22784 H 2129.09 -0.342123 6.05735 0
M  V30 22785 H 2127.83 -0.65843 4.83235 0
M  V30 22786 H 2126.84 1.60679 5.25797 0
M  V30 22787 H 2128.06 1.91311 6.51596 0
M  V30 22788 H 2126.01 -0.33062 6.55166 0
M  V30 22789 H 2125.92 1.13408 7.47445 0
M  V30 22790 H 2127.19 -0.0110751 7.79499 0
M  V30 22791 N 2131.42 -1.38259 0.756453 0
M  V30 22792 C 2132.37 -2.3043 0.130645 0
M  V30 22793 C 2133.34 -1.50324 -0.70653 0
M  V30 22794 O 2134.52 -1.78945 -0.662065 0
M  V30 22795 C 2131.66 -3.36755 -0.754338 0
M  V30 22796 C 2130.78 -4.31889 0.0977771 0
M  V30 22797 C 2129.91 -5.25286 -0.790477 0
M  V30 22798 C 2128.95 -6.12065 0.0650988 0
M  V30 22799 N 2128.09 -6.97751 -0.780275 0
M  V30 22800 H 2132.93 -2.83371 0.92222 0
M  V30 22801 H 2130.46 -1.3951 0.466406 0
M  V30 22802 H 2132.42 -3.97012 -1.2821 0
M  V30 22803 H 2131.05 -2.85216 -1.51167 0
M  V30 22804 H 2130.1 -3.73069 0.743191 0
M  V30 22805 H 2131.42 -4.93001 0.758393 0
M  V30 22806 H 2130.57 -5.90673 -1.38529 0
M  V30 22807 H 2129.31 -4.64548 -1.48482 0
M  V30 22808 H 2128.31 -5.45671 0.672561 0
M  V30 22809 H 2129.54 -6.74873 0.756543 0
M  V30 22810 H 2127.48 -6.39558 -1.45951 0
M  V30 22811 H 2127.4 -7.55794 -0.176619 0
M  V30 22812 H 2128.67 -7.67545 -1.35997 0
M  V30 22813 N 2132.9 -0.505757 -1.49264 0
M  V30 22814 C 2134.18 0.100315 -1.95343 0
M  V30 22815 C 2134.56 1.53667 -1.44739 0
M  V30 22816 O 2133.9 2.18663 -0.663221 0
M  V30 22817 C 2134.11 0.00805543 -3.48999 0
M  V30 22818 C 2135.46 0.179587 -4.2422 0
M  V30 22819 O 2136.49 0.0830161 -3.56103 0
M  V30 22820 O 2135.34 0.378466 -5.45188 0
M  V30 22821 H 2132.44 0.0926837 -0.82179 0
M  V30 22822 H 2134.98 -0.568634 -1.59889 0
M  V30 22823 H 2133.76 -0.993441 -3.78479 0
M  V30 22824 H 2133.38 0.716938 -3.91083 0
M  V30 22825 N 2134.38 1.55765 -0.239796 0
M  V30 22826 C 2135.6 2.03618 0.394243 0
M  V30 22827 C 2136.03 1.1181 1.51261 0
M  V30 22828 O 2135.38 0.1097 1.80968 0
M  V30 22829 C 2135.43 3.49545 0.886029 0
M  V30 22830 O 2134.54 3.60872 1.99613 0
M  V30 22831 H 2133.88 0.658289 0.0869012 0
M  V30 22832 H 2136.41 2.0134 -0.363774 0
M  V30 22833 H 2136.42 3.90226 1.1911 0
M  V30 22834 H 2135.09 4.15845 0.0675883 0
M  V30 22835 H 2133.67 3.32085 1.6963 0
M  V30 22836 N 2135.85 -0.0334016 1.57565 0
M  V30 22837 C 2137.1 -0.723651 1.887 0
M  V30 22838 C 2137.42 -1.76126 0.836929 0
M  V30 22839 O 2136.69 -1.95468 -0.12998 0
M  V30 22840 H 2135.27 -0.270263 0.696396 0
M  V30 22841 H 2137.94 -0.000381018 1.949 0
M  V30 22842 H 2137.03 -1.21594 2.87439 0
M  V30 22843 N 2137.33 -1.54609 -0.305591 0
M  V30 22844 C 2138.58 -1.73929 -1.04291 0
M  V30 22845 C 2138.91 -0.521093 -1.87078 0
M  V30 22846 O 2138.19 0.481847 -1.88437 0
M  V30 22847 C 2138.47 -3.02557 -1.95272 0
M  V30 22848 C 2138.32 -4.34666 -1.15695 0
M  V30 22849 C 2139.64 -3.27028 -2.94517 0
M  V30 22850 H 2136.76 -0.632835 -0.377741 0
M  V30 22851 H 2139.4 -1.87321 -0.317961 0
M  V30 22852 H 2137.55 -2.91271 -2.57087 0
M  V30 22853 H 2139.22 -4.57863 -0.562028 0
M  V30 22854 H 2137.47 -4.31359 -0.459568 0
M  V30 22855 H 2138.14 -5.20925 -1.82595 0
M  V30 22856 H 2140.61 -3.37894 -2.42831 0
M  V30 22857 H 2139.49 -4.18355 -3.55346 0
M  V30 22858 H 2139.75 -2.45106 -3.67934 0
M  V30 22859 N 2138.81 0.568558 -1.46987 0
M  V30 22860 C 2139.74 1.69147 -1.54668 0
M  V30 22861 C 2140.76 1.56914 -0.433789 0
M  V30 22862 O 2141.94 1.6408 -0.702853 0
M  V30 22863 C 2139.04 3.07522 -1.4242 0
M  V30 22864 C 2138.22 3.45619 -2.68078 0
M  V30 22865 C 2137.28 4.63111 -2.49829 0
M  V30 22866 O 2136.3 4.68261 -3.23605 0
M  V30 22867 N 2137.5 5.5889 -1.56914 0
M  V30 22868 H 2140.27 1.63008 -2.51492 0
M  V30 22869 H 2137.83 0.75491 -1.43223 0
M  V30 22870 H 2139.82 3.83937 -1.27963 0
M  V30 22871 H 2138.39 3.07949 -0.537222 0
M  V30 22872 H 2137.61 2.58767 -2.97378 0
M  V30 22873 H 2138.9 3.67844 -3.51523 0
M  V30 22874 H 2138.3 5.57477 -0.961042 0
M  V30 22875 H 2136.86 6.34678 -1.48414 0
M  V30 22876 N 2140.29 1.34929 0.814366 0
M  V30 22877 C 2141.2 1.29305 1.95748 0
M  V30 22878 C 2142.21 0.199261 1.72855 0
M  V30 22879 O 2143.39 0.427261 1.96816 0
M  V30 22880 C 2140.46 1.05688 3.30198 0
M  V30 22881 C 2139.52 2.24305 3.6604 0
M  V30 22882 C 2138.75 2.01805 4.94075 0
M  V30 22883 O 2138.97 0.980584 5.61908 0
M  V30 22884 O 2137.91 2.88973 5.27995 0
M  V30 22885 H 2141.73 2.25492 2.03438 0
M  V30 22886 H 2139.32 1.15222 0.951017 0
M  V30 22887 H 2141.2 0.943332 4.10706 0
M  V30 22888 H 2139.87 0.125466 3.23457 0
M  V30 22889 H 2138.78 2.41222 2.85942 0
M  V30 22890 H 2140.11 3.15866 3.77478 0
M  V30 22891 N 2141.77 -1.0356 1.18799 0
M  V30 22892 C 2142.99 -1.81025 1.01216 0
M  V30 22893 C 2143.42 -1.8301 -0.434636 0
M  V30 22894 O 2142.77 -1.25115 -1.3121 0
M  V30 22895 C 2142.82 -3.24257 1.57766 0
M  V30 22896 O 2141.93 -4.04518 0.802435 0
M  V30 22897 H 2141.27 -0.559085 0.358218 0
M  V30 22898 H 2143.8 -1.30389 1.57671 0
M  V30 22899 H 2143.81 -3.75022 1.60694 0
M  V30 22900 H 2142.48 -3.22127 2.63073 0
M  V30 22901 H 2141.06 -3.6318 0.845866 0
M  V30 22902 N 2143.25 -0.990834 -1.22557 0
M  V30 22903 C 2144.47 -0.683595 -1.9581 0
M  V30 22904 C 2144.9 0.744808 -1.72726 0
M  V30 22905 O 2144.25 1.50883 -1.00518 0
M  V30 22906 C 2144.3 -0.992665 -3.46668 0
M  V30 22907 O 2143.41 -0.0902361 -4.12301 0
M  V30 22908 H 2142.75 -0.256053 -0.612644 0
M  V30 22909 H 2145.28 -1.32725 -1.55709 0
M  V30 22910 H 2145.29 -0.933654 -3.97174 0
M  V30 22911 H 2143.96 -2.03353 -3.62795 0
M  V30 22912 H 2142.54 -0.204554 -3.72339 0
M  V30 22913 N 2144.72 1.37856 -0.763775 0
M  V30 22914 C 2145.67 2.27693 -0.118367 0
M  V30 22915 C 2146.66 1.45707 0.682513 0
M  V30 22916 O 2147.85 1.68342 0.546795 0
M  V30 22917 C 2144.98 3.34642 0.766129 0
M  V30 22918 C 2144.06 4.24079 -0.0421497 0
M  V30 22919 N 2144.46 4.94053 -1.08375 0
M  V30 22920 C 2142.75 4.45624 0.183082 0
M  V30 22921 C 2143.45 5.6001 -1.57365 0
M  V30 22922 N 2142.43 5.36311 -0.887185 0
M  V30 22923 H 2146.23 2.79262 -0.915967 0
M  V30 22924 H 2143.75 1.50879 -0.600774 0
M  V30 22925 H 2145.74 3.97901 1.24421 0
M  V30 22926 H 2144.4 2.8463 1.56256 0
M  V30 22927 H 2145.41 4.96726 -1.46575 0
M  V30 22928 H 2142.09 4.065 0.952055 0
M  V30 22929 H 2143.48 6.25958 -2.44183 0
M  V30 22930 N 2146.2 0.513665 1.48994 0
M  V30 22931 C 2147.45 -0.0263341 2.02483 0
M  V30 22932 C 2147.78 -1.35817 1.39226 0
M  V30 22933 O 2147.03 -1.88621 0.5216 0
M  V30 22934 C 2147.33 -0.214329 3.56757 0
M  V30 22935 C 2147 1.0411 4.38716 0
M  V30 22936 C 2145.66 1.3852 4.60832 0
M  V30 22937 C 2148.01 1.87499 4.86306 0
M  V30 22938 C 2145.34 2.56248 5.27782 0
M  V30 22939 C 2147.69 3.04392 5.54553 0
M  V30 22940 C 2146.35 3.39167 5.7491 0
M  V30 22941 H 2145.62 -0.00963634 0.740937 0
M  V30 22942 H 2148.27 0.676388 1.79157 0
M  V30 22943 H 2146.58 -0.999685 3.78832 0
M  V30 22944 H 2148.27 -0.646802 3.95749 0
M  V30 22945 H 2144.86 0.763083 4.21752 0
M  V30 22946 H 2149.05 1.62228 4.69037 0
M  V30 22947 H 2144.3 2.83413 5.41744 0
M  V30 22948 H 2148.48 3.69325 5.904 0
M  V30 22949 H 2146.1 4.30492 6.26562 0
M  V30 22950 N 2147.68 -1.55636 0.248053 0
M  V30 22951 C 2148.61 -2.2441 -0.645175 0
M  V30 22952 C 2149.59 -1.22477 -1.18039 0
M  V30 22953 O 2150.78 -1.51133 -1.21953 0
M  V30 22954 C 2147.91 -2.94446 -1.84171 0
M  V30 22955 C 2146.86 -4.03076 -1.43922 0
M  V30 22956 C 2146.19 -4.60544 -2.71668 0
M  V30 22957 C 2147.49 -5.18732 -0.609431 0
M  V30 22958 H 2149.18 -2.99314 -0.0716951 0
M  V30 22959 H 2146.73 -1.43962 -0.033043 0
M  V30 22960 H 2148.68 -3.41259 -2.47225 0
M  V30 22961 H 2147.4 -2.17031 -2.44059 0
M  V30 22962 H 2146.06 -3.57034 -0.832012 0
M  V30 22963 H 2145.71 -3.79829 -3.29756 0
M  V30 22964 H 2145.41 -5.33876 -2.4546 0
M  V30 22965 H 2146.93 -5.10091 -3.35618 0
M  V30 22966 H 2148.35 -5.61764 -1.1443 0
M  V30 22967 H 2146.74 -5.9846 -0.443361 0
M  V30 22968 H 2147.81 -4.83424 0.378087 0
M  V30 22969 N 2149.16 0.0250451 -1.5758 0
M  V30 22970 C 2150.09 1.05207 -2.03627 0
M  V30 22971 C 2151.1 1.32224 -0.949769 0
M  V30 22972 O 2152.29 1.29641 -1.22701 0
M  V30 22973 C 2149.39 2.39277 -2.39999 0
M  V30 22974 C 2148.56 2.31559 -3.71078 0
M  V30 22975 C 2147.62 3.48111 -3.94595 0
M  V30 22976 O 2146.65 3.27424 -4.65599 0
M  V30 22977 N 2147.85 4.70117 -3.40545 0
M  V30 22978 H 2150.62 0.659567 -2.92352 0
M  V30 22979 H 2148.18 0.212915 -1.60494 0
M  V30 22980 H 2150.17 3.15976 -2.52866 0
M  V30 22981 H 2148.74 2.70358 -1.56924 0
M  V30 22982 H 2147.96 1.39933 -3.68527 0
M  V30 22983 H 2149.25 2.23549 -4.57059 0
M  V30 22984 H 2148.65 4.89824 -2.83 0
M  V30 22985 H 2147.2 5.44167 -3.58784 0
M  V30 22986 N 2150.64 1.54769 0.297388 0
M  V30 22987 C 2151.88 1.73877 1.0301 0
M  V30 22988 C 2152.2 0.529442 1.87675 0
M  V30 22989 O 2151.47 -0.456215 1.90514 0
M  V30 22990 H 2150.05 0.641155 0.383313 0
M  V30 22991 H 2152.72 1.92129 0.3275 0
M  V30 22992 H 2151.81 2.62953 1.68113 0
M  V30 22993 N 2152.11 -0.560755 1.47286 0
M  V30 22994 C 2153.08 -1.6502 1.59063 0
M  V30 22995 C 2154.08 -1.539 0.465997 0
M  V30 22996 O 2155.27 -1.58122 0.730962 0
M  V30 22997 C 2152.4 -3.04548 1.53177 0
M  V30 22998 H 2153.59 -1.5593 2.56176 0
M  V30 22999 H 2151.14 -0.780391 1.35424 0
M  V30 23000 H 2151.88 -3.19175 0.574264 0
M  V30 23001 H 2151.66 -3.14029 2.34794 0
M  V30 23002 H 2153.15 -3.83814 1.64549 0
M  V30 23003 N 2153.59 -1.35359 -0.807199 0
M  V30 23004 C 2154.54 -1.2823 -1.919 0
M  V30 23005 C 2155.51 -0.154371 -1.65381 0
M  V30 23006 O 2156.69 -0.337971 -1.87783 0
M  V30 23007 C 2153.83 -1.05957 -3.28431 0
M  V30 23008 C 2152.95 -2.27666 -3.6714 0
M  V30 23009 C 2152.08 -1.98548 -4.92699 0
M  V30 23010 C 2151.12 -3.16315 -5.24034 0
M  V30 23011 N 2150.26 -2.86976 -6.40772 0
M  V30 23012 H 2155.1 -2.23305 -1.97329 0
M  V30 23013 H 2152.63 -1.11004 -0.965216 0
M  V30 23014 H 2154.59 -0.910752 -4.07138 0
M  V30 23015 H 2153.22 -0.145447 -3.22472 0
M  V30 23016 H 2152.27 -2.53414 -2.83699 0
M  V30 23017 H 2153.59 -3.15606 -3.86257 0
M  V30 23018 H 2152.74 -1.80493 -5.7923 0
M  V30 23019 H 2151.48 -1.07893 -4.75616 0
M  V30 23020 H 2150.48 -3.34948 -4.35993 0
M  V30 23021 H 2151.71 -4.07771 -5.43047 0
M  V30 23022 H 2149.66 -1.98914 -6.25115 0
M  V30 23023 H 2149.57 -3.6845 -6.60137 0
M  V30 23024 H 2150.84 -2.72461 -7.30332 0
M  V30 23025 N 2155.07 1.02928 -1.19346 0
M  V30 23026 C 2156.02 2.11197 -0.930836 0
M  V30 23027 C 2156.99 1.65557 0.13418 0
M  V30 23028 O 2158.17 1.90798 -0.00787889 0
M  V30 23029 C 2155.31 3.41813 -0.47517 0
M  V30 23030 C 2154.42 4.01002 -1.60691 0
M  V30 23031 C 2153.56 5.19626 -1.10282 0
M  V30 23032 C 2152.6 5.7087 -2.20848 0
M  V30 23033 N 2151.74 6.80769 -1.71749 0
M  V30 23034 H 2156.58 2.32999 -1.85784 0
M  V30 23035 H 2154.11 1.14276 -0.926246 0
M  V30 23036 H 2156.07 4.16756 -0.192384 0
M  V30 23037 H 2154.7 3.20123 0.414844 0
M  V30 23038 H 2153.75 3.23276 -2.00491 0
M  V30 23039 H 2155.06 4.3505 -2.43994 0
M  V30 23040 H 2154.22 6.01727 -0.775236 0
M  V30 23041 H 2152.96 4.87112 -0.239508 0
M  V30 23042 H 2151.96 4.87383 -2.54437 0
M  V30 23043 H 2153.19 6.05424 -3.07633 0
M  V30 23044 H 2151.13 6.50108 -0.877253 0
M  V30 23045 H 2151.05 7.13942 -2.48642 0
M  V30 23046 H 2152.32 7.66466 -1.41953 0
M  V30 23047 N 2156.55 0.997319 1.2203 0
M  V30 23048 C 2157.5 0.544275 2.26142 0
M  V30 23049 C 2158.49 -0.407297 1.64431 0
M  V30 23050 O 2159.7 -0.279332 1.77819 0
M  V30 23051 H 2156.07 0.157634 0.735293 0
M  V30 23052 H 2158.04 1.43371 2.61701 0
M  V30 23053 C 2156.79 -0.121025 3.47489 0
M  V30 23054 H 2156.11 0.602141 3.9524 0
M  V30 23055 H 2157.55 -0.40141 4.22096 0
M  V30 23056 C 2156.01 -1.35777 3.08328 0
M  V30 23057 O 2156.54 -2.45277 3.18123 0
M  V30 23058 N 2154.75 -1.23466 2.63067 0
M  V30 23059 H 2154.3 -0.343678 2.55297 0
M  V30 23060 H 2154.25 -2.06319 2.37233 0
M  V30 23061 N 2158.03 -1.37449 0.771075 0
M  V30 23062 C 2158.97 -2.3215 0.144682 0
M  V30 23063 C 2159.97 -1.549 -0.685728 0
M  V30 23064 O 2161.17 -1.70302 -0.582865 0
M  V30 23065 H 2157.55 -0.751479 0.0279996 0
M  V30 23066 H 2159.52 -2.82565 0.959155 0
M  V30 23067 C 2158.27 -3.40151 -0.720591 0
M  V30 23068 H 2157.59 -3.99696 -0.0909784 0
M  V30 23069 H 2159.03 -4.08779 -1.12586 0
M  V30 23070 C 2157.49 -2.80177 -1.8709 0
M  V30 23071 O 2158.02 -2.70873 -2.96632 0
M  V30 23072 N 2156.23 -2.3773 -1.67132 0
M  V30 23073 H 2155.77 -2.45497 -0.780329 0
M  V30 23074 H 2155.73 -1.97946 -2.44263 0
M  V30 23075 N 2159.5 -0.52156 -1.4872 0
M  V30 23076 C 2160.43 0.234741 -2.32317 0
M  V30 23077 C 2161.42 0.943119 -1.4156 0
M  V30 23078 O 2162.6 0.930536 -1.70454 0
M  V30 23079 C 2159.73 1.28724 -3.22564 0
M  V30 23080 C 2158.68 0.697518 -4.22278 0
M  V30 23081 C 2158.01 1.85205 -5.016 0
M  V30 23082 C 2159.31 -0.325174 -5.21287 0
M  V30 23083 H 2161 -0.463097 -2.95797 0
M  V30 23084 H 2158.55 -0.224154 -1.42245 0
M  V30 23085 H 2160.5 1.82422 -3.79869 0
M  V30 23086 H 2159.23 2.01455 -2.57067 0
M  V30 23087 H 2157.89 0.182131 -3.66147 0
M  V30 23088 H 2157.53 2.56754 -4.32535 0
M  V30 23089 H 2157.23 1.46343 -5.69085 0
M  V30 23090 H 2158.76 2.39297 -5.61755 0
M  V30 23091 H 2160.17 0.124406 -5.73165 0
M  V30 23092 H 2158.57 -0.630729 -5.96776 0
M  V30 23093 H 2159.64 -1.23392 -4.68938 0
M  V30 23094 N 2160.98 1.55502 -0.256304 0
M  V30 23095 C 2162.21 2.04025 0.372624 0
M  V30 23096 C 2162.63 1.13408 1.50067 0
M  V30 23097 O 2161.99 0.128888 1.80841 0
M  V30 23098 C 2162.04 3.50465 0.848906 0
M  V30 23099 O 2161.14 3.62969 1.95774 0
M  V30 23100 H 2160.48 0.659174 0.0799143 0
M  V30 23101 H 2163.01 2.00943 -0.385109 0
M  V30 23102 H 2163.02 3.91468 1.14965 0
M  V30 23103 H 2161.7 4.15893 0.0234786 0
M  V30 23104 H 2160.28 3.33865 1.66098 0
M  V30 23105 N 2162.46 -0.0166879 1.57591 0
M  V30 23106 C 2163.39 -1.01268 2.10398 0
M  V30 23107 C 2164.37 -1.36922 1.00928 0
M  V30 23108 O 2165.56 -1.45589 1.2852 0
M  V30 23109 C 2162.69 -2.30979 2.59357 0
M  V30 23110 C 2161.64 -2.09533 3.73202 0
M  V30 23111 C 2160.97 -3.45113 4.08413 0
M  V30 23112 C 2162.27 -1.47144 5.01145 0
M  V30 23113 H 2163.96 -0.573053 2.93865 0
M  V30 23114 H 2161.51 -0.274203 1.41365 0
M  V30 23115 H 2163.46 -3.00996 2.94923 0
M  V30 23116 H 2162.18 -2.77024 1.72989 0
M  V30 23117 H 2160.84 -1.41946 3.38004 0
M  V30 23118 H 2160.49 -3.88829 3.19094 0
M  V30 23119 H 2160.19 -3.31585 4.85104 0
M  V30 23120 H 2161.71 -4.16472 4.46524 0
M  V30 23121 H 2163.13 -2.07094 5.34588 0
M  V30 23122 H 2161.53 -1.44154 5.82529 0
M  V30 23123 H 2162.6 -0.438665 4.82912 0
M  V30 23124 N 2163.94 -1.54924 -0.289176 0
M  V30 23125 C 2164.9 -1.85935 -1.34017 0
M  V30 23126 C 2165.9 -0.732916 -1.43126 0
M  V30 23127 O 2167.09 -1.00116 -1.42556 0
M  V30 23128 C 2164.22 -2.0502 -2.72359 0
M  V30 23129 H 2165.42 -2.79872 -1.07758 0
M  V30 23130 H 2162.97 -1.47168 -0.526442 0
M  V30 23131 H 2163.7 -1.13412 -3.03823 0
M  V30 23132 H 2163.49 -2.8702 -2.67136 0
M  V30 23133 H 2164.98 -2.30342 -3.48328 0
M  V30 23134 N 2165.42 0.552936 -1.47582 0
M  V30 23135 C 2166.67 1.30628 -1.53685 0
M  V30 23136 C 2166.98 1.94516 -0.205625 0
M  V30 23137 O 2168.18 2.71114 -0.144695 0
M  V30 23138 C 2166.64 2.369 -2.70936 0
M  V30 23139 C 2166.25 1.79183 -4.10606 0
M  V30 23140 C 2167.99 3.13388 -2.86336 0
M  V30 23141 C 2165.9 2.8326 -5.19151 0
M  V30 23142 H 2164.83 0.491183 -0.572062 0
M  V30 23143 H 2167.48 0.58676 -1.73866 0
M  V30 23144 H 2165.86 3.11785 -2.44143 0
M  V30 23145 H 2167.04 1.10641 -4.4732 0
M  V30 23146 H 2165.35 1.15265 -4.00129 0
M  V30 23147 H 2167.95 3.91117 -3.64597 0
M  V30 23148 H 2168.29 3.67839 -1.94936 0
M  V30 23149 H 2168.82 2.45615 -3.12919 0
M  V30 23150 H 2165.56 2.3366 -6.12441 0
M  V30 23151 H 2165.08 3.502 -4.8695 0
M  V30 23152 H 2166.76 3.46674 -5.46284 0
M  V30 23153 N 2166.89 1.35785 0.800009 0
M  V30 23154 C 2167.82 1.31917 1.92666 0
M  V30 23155 C 2168.81 0.19244 1.69008 0
M  V30 23156 O 2169.99 0.388435 1.90276 0
M  V30 23157 C 2167.12 1.09703 3.29519 0
M  V30 23158 C 2166.07 2.19086 3.67675 0
M  V30 23159 C 2165.4 1.82029 5.02762 0
M  V30 23160 C 2166.7 3.611 3.77365 0
M  V30 23161 H 2168.39 2.26189 1.96161 0
M  V30 23162 H 2165.94 1.08882 0.94237 0
M  V30 23163 H 2167.89 1.05634 4.07945 0
M  V30 23164 H 2166.62 0.118779 3.26384 0
M  V30 23165 H 2165.28 2.22263 2.91539 0
M  V30 23166 H 2164.92 0.828056 4.96137 0
M  V30 23167 H 2164.62 2.55256 5.29262 0
M  V30 23168 H 2166.15 1.79497 5.83621 0
M  V30 23169 H 2167.56 3.60209 4.46007 0
M  V30 23170 H 2165.96 4.33143 4.1534 0
M  V30 23171 H 2167.03 3.96774 2.78744 0
M  V30 23172 N 2168.37 -1.02294 1.19891 0
M  V30 23173 C 2169.6 -1.79404 1.03062 0
M  V30 23174 C 2170.02 -1.84059 -0.420428 0
M  V30 23175 O 2169.37 -1.28896 -1.29198 0
M  V30 23176 C 2169.42 -3.24174 1.59979 0
M  V30 23177 O 2169.14 -3.19825 2.99405 0
M  V30 23178 C 2170.65 -4.17859 1.48016 0
M  V30 23179 H 2167.87 -0.564396 0.362902 0
M  V30 23180 H 2170.41 -1.28805 1.58838 0
M  V30 23181 H 2168.56 -3.71943 1.08338 0
M  V30 23182 H 2168.98 -4.10647 3.26296 0
M  V30 23183 H 2170.45 -5.17305 1.92611 0
M  V30 23184 H 2170.93 -4.37074 0.431619 0
M  V30 23185 H 2171.54 -3.75968 1.98817 0
M  V30 23186 N 2169.85 -1.00378 -1.21499 0
M  V30 23187 C 2170.78 -0.583318 -2.26097 0
M  V30 23188 C 2171.76 0.395257 -1.65444 0
M  V30 23189 O 2172.95 0.283508 -1.92119 0
M  V30 23190 C 2170.08 0.0920619 -3.47178 0
M  V30 23191 C 2169.03 -0.806168 -4.20339 0
M  V30 23192 C 2168.36 0.0027323 -5.347 0
M  V30 23193 C 2169.66 -2.1082 -4.77862 0
M  V30 23194 H 2171.35 -1.45765 -2.6152 0
M  V30 23195 H 2168.9 -0.702333 -1.25711 0
M  V30 23196 H 2170.85 0.397677 -4.19519 0
M  V30 23197 H 2169.57 1.00102 -3.10881 0
M  V30 23198 H 2168.23 -1.09559 -3.49846 0
M  V30 23199 H 2167.88 0.912942 -4.94646 0
M  V30 23200 H 2167.58 -0.595326 -5.84576 0
M  V30 23201 H 2169.1 0.302191 -6.09852 0
M  V30 23202 H 2170.52 -1.86581 -5.42089 0
M  V30 23203 H 2168.92 -2.656 -5.38123 0
M  V30 23204 H 2169.99 -2.77978 -3.97311 0
M  V30 23205 N 2171.33 1.37038 -0.778354 0
M  V30 23206 C 2172.24 2.33983 -0.170042 0
M  V30 23207 C 2173.25 1.60504 0.671902 0
M  V30 23208 O 2174.43 1.92556 0.590278 0
M  V30 23209 C 2171.5 3.39689 0.693729 0
M  V30 23210 C 2170.56 4.28981 -0.165434 0
M  V30 23211 C 2169.79 5.29638 0.657205 0
M  V30 23212 O 2170.01 5.38041 1.8939 0
M  V30 23213 O 2168.95 6.01867 0.0629255 0
M  V30 23214 H 2172.77 2.87749 -0.97131 0
M  V30 23215 H 2170.36 1.39314 -0.53962 0
M  V30 23216 H 2172.24 4.04348 1.18664 0
M  V30 23217 H 2170.91 2.8824 1.47307 0
M  V30 23218 H 2169.82 3.674 -0.704851 0
M  V30 23219 H 2171.15 4.83752 -0.908023 0
M  V30 23220 N 2172.81 0.529439 1.48441 0
M  V30 23221 C 2173.74 -0.280881 2.26465 0
M  V30 23222 C 2174.72 -0.94529 1.32299 0
M  V30 23223 O 2175.9 -0.96979 1.61639 0
M  V30 23224 C 2173.03 -1.39776 3.08513 0
M  V30 23225 C 2172.08 -0.84481 4.18049 0
M  V30 23226 S 2172.91 0.286899 5.34731 0
M  V30 23227 C 2174.06 -0.832466 6.20339 0
M  V30 23228 H 2174.3 0.38128 2.94845 0
M  V30 23229 H 2171.83 0.315217 1.51148 0
M  V30 23230 H 2173.79 -2.03755 3.56362 0
M  V30 23231 H 2172.45 -2.03164 2.39548 0
M  V30 23232 H 2171.64 -1.68267 4.75081 0
M  V30 23233 H 2171.24 -0.281723 3.72937 0
M  V30 23234 H 2173.54 -1.73123 6.55007 0
M  V30 23235 H 2174.48 -0.300133 7.07464 0
M  V30 23236 H 2174.89 -1.11263 5.53426 0
M  V30 23237 N 2174.29 -1.55364 0.264547 0
M  V30 23238 C 2175.51 -2.03764 -0.358889 0
M  V30 23239 C 2175.93 -1.14327 -1.50249 0
M  V30 23240 O 2175.29 -0.161219 -1.81787 0
M  V30 23241 C 2175.34 -3.51366 -0.849959 0
M  V30 23242 O 2175.06 -4.37397 0.248086 0
M  V30 23243 C 2176.56 -4.15606 -1.54229 0
M  V30 23244 H 2173.78 -0.66582 -0.0832187 0
M  V30 23245 H 2176.32 -2.00677 0.39356 0
M  V30 23246 H 2174.48 -3.5493 -1.55253 0
M  V30 23247 H 2174.89 -5.24345 -0.127661 0
M  V30 23248 H 2176.37 -5.20522 -1.83742 0
M  V30 23249 H 2176.84 -3.63145 -2.47027 0
M  V30 23250 H 2177.45 -4.16015 -0.883843 0
M  V30 23251 N 2175.76 0.00833021 -1.57598 0
M  V30 23252 C 2177.01 0.693539 -1.89827 0
M  V30 23253 C 2177.33 1.74773 -0.864844 0
M  V30 23254 O 2176.6 1.9565 0.0988666 0
M  V30 23255 H 2175.18 0.25915 -0.700607 0
M  V30 23256 H 2177.84 -0.0306259 -1.94876 0
M  V30 23257 H 2176.94 1.17005 -2.89337 0
M  V30 23258 N 2177.24 1.55075 0.280956 0
M  V30 23259 C 2178.52 1.6601 1.0344 0
M  V30 23260 C 2178.9 0.521384 2.0456 0
M  V30 23261 O 2178.25 -0.479533 2.23412 0
M  V30 23262 C 2178.46 3.04889 1.69834 0
M  V30 23263 C 2179.8 3.62374 2.21292 0
M  V30 23264 O 2180.83 3.07471 1.79834 0
M  V30 23265 O 2179.69 4.5855 2.97311 0
M  V30 23266 H 2176.78 0.673927 0.479324 0
M  V30 23267 H 2179.33 1.67417 0.277446 0
M  V30 23268 H 2178.1 3.7921 0.96517 0
M  V30 23269 H 2177.72 3.07347 2.52237 0
M  V30 23270 N 2178.72 -0.545102 1.47873 0
M  V30 23271 C 2179.65 -1.66665 1.57339 0
M  V30 23272 C 2180.66 -1.56204 0.458698 0
M  V30 23273 O 2181.85 -1.62941 0.728868 0
M  V30 23274 C 2178.95 -3.05217 1.47295 0
M  V30 23275 C 2178.13 -3.41311 2.73543 0
M  V30 23276 C 2177.19 -4.59078 2.57165 0
M  V30 23277 O 2176.21 -4.63053 3.31014 0
M  V30 23278 N 2177.41 -5.56323 1.65786 0
M  V30 23279 H 2180.18 -1.58986 2.54054 0
M  V30 23280 H 2177.74 -0.732029 1.44405 0
M  V30 23281 H 2179.73 -3.81853 1.34055 0
M  V30 23282 H 2178.3 -3.07056 0.586146 0
M  V30 23283 H 2177.52 -2.54003 3.01457 0
M  V30 23284 H 2178.81 -3.62205 3.5733 0
M  V30 23285 H 2178.21 -5.55877 1.04961 0
M  V30 23286 H 2176.76 -6.32237 1.58492 0
M  V30 23287 N 2180.2 -1.36208 -0.792797 0
M  V30 23288 C 2181.61 -1.16547 -1.09036 0
M  V30 23289 C 2181.81 0.0127355 -2.01496 0
M  V30 23290 O 2180.87 0.679142 -2.43195 0
M  V30 23291 C 2182.18 -2.47477 -1.70808 0
M  V30 23292 C 2183.73 -2.5381 -1.83165 0
M  V30 23293 C 2184.21 -3.84818 -2.48352 0
M  V30 23294 N 2185.7 -3.86146 -2.55824 0
M  V30 23295 C 2186.43 -4.84251 -3.07064 0
M  V30 23296 N 2185.93 -5.92749 -3.58637 0
M  V30 23297 N 2187.72 -4.71674 -3.05745 0
M  V30 23298 H 2179.87 -2.11649 -0.178453 0
M  V30 23299 H 2182.13 -0.937338 -0.141777 0
M  V30 23300 H 2181.84 -3.33944 -1.10338 0
M  V30 23301 H 2181.71 -2.63037 -2.70354 0
M  V30 23302 H 2184.1 -1.67764 -2.42774 0
M  V30 23303 H 2184.18 -2.42153 -0.824343 0
M  V30 23304 H 2183.83 -4.71269 -1.89388 0
M  V30 23305 H 2183.76 -3.9377 -3.49647 0
M  V30 23306 H 2186.25 -3.07758 -2.19301 0
M  V30 23307 H 2186.56 -6.63584 -3.96075 0
M  V30 23308 H 2184.91 -5.96423 -3.56798 0
M  V30 23309 H 2188.1 -3.86044 -2.6474 0
M  V30 23310 H 2188.27 -5.48291 -3.4537 0
M  V30 23311 N 2181.68 1.01656 -1.20431 0
M  V30 23312 C 2182.59 2.13658 -0.968877 0
M  V30 23313 C 2183.6 1.73837 0.075256 0
M  V30 23314 O 2184.78 2.01087 -0.112194 0
M  V30 23315 C 2181.84 3.42716 -0.524052 0
M  V30 23316 C 2180.9 3.9678 -1.63904 0
M  V30 23317 C 2180.14 5.19678 -1.21534 0
M  V30 23318 O 2180.36 5.70338 -0.0840508 0
M  V30 23319 O 2179.29 5.66893 -2.02278 0
M  V30 23320 H 2183.12 2.3639 -1.90666 0
M  V30 23321 H 2180.7 1.1205 -0.98819 0
M  V30 23322 H 2182.59 4.20434 -0.285221 0
M  V30 23323 H 2181.26 3.21401 0.385143 0
M  V30 23324 H 2180.17 3.20341 -1.93215 0
M  V30 23325 H 2181.5 4.22484 -2.52524 0
M  V30 23326 N 2183.15 1.01021 1.20965 0
M  V30 23327 C 2184.4 0.696906 1.9045 0
M  V30 23328 C 2184.73 -0.770906 1.78243 0
M  V30 23329 O 2184.01 -1.55939 1.16246 0
M  V30 23330 C 2184.29 1.1252 3.42069 0
M  V30 23331 C 2184.14 2.65285 3.63241 0
M  V30 23332 C 2185.46 0.691566 4.34632 0
M  V30 23333 H 2182.58 0.254648 0.691609 0
M  V30 23334 H 2185.22 1.25681 1.42493 0
M  V30 23335 H 2183.37 0.648818 3.83044 0
M  V30 23336 H 2185.05 3.20727 3.3156 0
M  V30 23337 H 2183.29 3.06557 3.06929 0
M  V30 23338 H 2183.96 2.90306 4.69496 0
M  V30 23339 H 2186.44 1.10101 4.01269 0
M  V30 23340 H 2185.31 1.01935 5.39352 0
M  V30 23341 H 2185.57 -0.407073 4.40222 0
M  V30 23342 N 2184.63 -1.36623 0.78561 0
M  V30 23343 C 2185.88 -1.98948 0.355551 0
M  V30 23344 C 2186.2 -1.62665 -1.07541 0
M  V30 23345 O 2185.47 -0.89879 -1.74065 0
M  V30 23346 H 2184.05 -0.735869 0.128476 0
M  V30 23347 H 2186.71 -1.66881 1.00681 0
M  V30 23348 H 2185.81 -3.08921 0.444316 0
M  V30 23349 N 2186.11 -0.537304 -1.48158 0
M  V30 23350 C 2187.33 -0.00809879 -2.07398 0
M  V30 23351 C 2187.76 1.26708 -1.39021 0
M  V30 23352 O 2187.12 1.75405 -0.458551 0
M  V30 23353 C 2187.17 0.191371 -3.60092 0
M  V30 23354 O 2186.27 1.25844 -3.9273 0
M  V30 23355 H 2185.61 -0.042404 -0.662645 0
M  V30 23356 H 2188.14 -0.747308 -1.90464 0
M  V30 23357 H 2188.15 0.411766 -4.05917 0
M  V30 23358 H 2186.83 -0.740103 -4.09262 0
M  V30 23359 H 2185.4 1.02012 -3.58675 0
M  V30 23360 N 2187.59 1.55221 -0.272782 0
M  V30 23361 C 2188.52 2.25408 0.609392 0
M  V30 23362 C 2189.5 1.2434 1.16076 0
M  V30 23363 O 2190.68 1.53054 1.19533 0
M  V30 23364 C 2187.81 2.97338 1.79464 0
M  V30 23365 C 2186.77 4.05315 1.37491 0
M  V30 23366 C 2186.09 4.64808 2.64307 0
M  V30 23367 C 2187.39 5.19636 0.526828 0
M  V30 23368 H 2189.09 2.9939 0.0240678 0
M  V30 23369 H 2186.63 1.43996 0.0101357 0
M  V30 23370 H 2188.59 3.45149 2.41765 0
M  V30 23371 H 2187.31 2.20887 2.40576 0
M  V30 23372 H 2185.97 3.58312 0.775106 0
M  V30 23373 H 2185.62 3.85027 3.23672 0
M  V30 23374 H 2185.32 5.37713 2.36935 0
M  V30 23375 H 2186.84 5.15366 3.2746 0
M  V30 23376 H 2188.26 5.63513 1.05478 0
M  V30 23377 H 2186.65 5.9909 0.348095 0
M  V30 23378 H 2187.72 4.82761 -0.454948 0
M  V30 23379 N 2189.07 2.77022e-05 1.576 0
M  V30 23380 C 2190.31 -0.683462 1.90193 0
M  V30 23381 C 2190.64 -1.74311 0.8741 0
M  V30 23382 O 2189.91 -1.957 -0.0884894 0
M  V30 23383 H 2188.49 -0.25543 0.701972 0
M  V30 23384 H 2191.15 0.0409602 1.94857 0
M  V30 23385 H 2190.24 -1.15469 2.89954 0
M  V30 23386 N 2190.54 -1.55222 -0.272728 0
M  V30 23387 C 2191.77 -1.79867 -1.02252 0
M  V30 23388 C 2192.19 -0.57212 -1.79923 0
M  V30 23389 O 2191.54 0.458811 -1.76639 0
M  V30 23390 C 2191.6 -3.02396 -1.98088 0
M  V30 23391 O 2191.32 -4.20314 -1.23564 0
M  V30 23392 C 2192.82 -3.39646 -2.84878 0
M  V30 23393 H 2190.04 -0.599174 -0.302046 0
M  V30 23394 H 2192.58 -2.02236 -0.303429 0
M  V30 23395 H 2190.74 -2.82152 -2.6546 0
M  V30 23396 H 2191.15 -4.89586 -1.88163 0
M  V30 23397 H 2192.62 -4.28551 -3.4792 0
M  V30 23398 H 2193.1 -2.59061 -3.5466 0
M  V30 23399 H 2193.71 -3.6215 -2.22997 0
M  V30 23400 N 2192.02 0.537252 -1.4816 0
M  V30 23401 C 2193.25 1.32317 -1.59709 0
M  V30 23402 C 2193.67 1.86365 -0.254891 0
M  V30 23403 O 2193.03 1.64026 0.772349 0
M  V30 23404 C 2193.08 2.45501 -2.64125 0
M  V30 23405 O 2192.18 3.48325 -2.2078 0
M  V30 23406 H 2191.52 0.392195 -0.535798 0
M  V30 23407 H 2194.05 0.647233 -1.94093 0
M  V30 23408 H 2194.06 2.9179 -2.85171 0
M  V30 23409 H 2192.74 2.05522 -3.61571 0
M  V30 23410 H 2191.32 3.08204 -2.09917 0
M  V30 23411 N 2193.5 1.36626 0.785562 0
M  V30 23412 C 2194.46 1.3111 1.87997 0
M  V30 23413 C 2195.46 0.217987 1.59316 0
M  V30 23414 O 2196.65 0.473006 1.67655 0
M  V30 23415 C 2193.79 1.03339 3.2486 0
M  V30 23416 H 2194.98 2.28444 1.94303 0
M  V30 23417 H 2192.53 1.21455 0.983792 0
M  V30 23418 H 2193.27 0.0648002 3.24235 0
M  V30 23419 H 2193.05 1.82447 3.47067 0
M  V30 23420 H 2194.54 1.02095 4.04928 0
M  V30 23421 N 2194.98 -1.01016 1.20969 0
M  V30 23422 C 2196.21 -1.78301 1.04959 0
M  V30 23423 C 2196.62 -1.84495 -0.400883 0
M  V30 23424 O 2195.98 -1.30259 -1.27823 0
M  V30 23425 C 2196.03 -3.22459 1.63409 0
M  V30 23426 O 2195.75 -3.16632 3.0278 0
M  V30 23427 C 2197.25 -4.16266 1.52439 0
M  V30 23428 H 2194.47 -0.560515 0.368868 0
M  V30 23429 H 2197.02 -1.27113 1.60195 0
M  V30 23430 H 2195.17 -3.70773 1.12276 0
M  V30 23431 H 2195.58 -4.07164 3.30633 0
M  V30 23432 H 2197.06 -5.15233 1.98087 0
M  V30 23433 H 2197.54 -4.36592 0.477952 0
M  V30 23434 H 2198.14 -3.73838 2.02794 0
M  V30 23435 N 2196.46 -1.01661 -1.20428 0
M  V30 23436 C 2197.4 -0.580183 -2.25248 0
M  V30 23437 C 2198.4 0.381086 -1.65058 0
M  V30 23438 O 2199.6 0.251007 -1.78241 0
M  V30 23439 H 2195.98 -0.169312 -0.732692 0
M  V30 23440 H 2197.95 -1.47516 -2.59387 0
M  V30 23441 C 2196.7 0.0657269 -3.47638 0
M  V30 23442 H 2196.02 -0.664944 -3.94232 0
M  V30 23443 H 2197.46 0.334208 -4.22681 0
M  V30 23444 C 2195.92 1.30855 -3.10449 0
M  V30 23445 O 2196.45 2.40185 -3.21985 0
M  V30 23446 N 2194.66 1.19265 -2.64998 0
M  V30 23447 H 2194.2 0.303019 -2.55812 0
M  V30 23448 H 2194.16 2.02519 -2.40486 0
M  V30 23449 N 2197.93 1.36205 -0.792844 0
M  V30 23450 C 2199.16 2.03931 -0.377737 0
M  V30 23451 C 2199.58 1.59384 0.998919 0
M  V30 23452 O 2198.94 0.763932 1.64419 0
M  V30 23453 C 2198.99 3.57734 -0.453698 0
M  V30 23454 O 2198.09 4.08875 0.538079 0
M  V30 23455 H 2197.44 0.644468 -0.159867 0
M  V30 23456 H 2199.97 1.74089 -1.07491 0
M  V30 23457 H 2199.98 4.06755 -0.318535 0
M  V30 23458 H 2198.65 3.8951 -1.45791 0
M  V30 23459 H 2197.23 3.71116 0.364294 0
M  V30 23460 N 2199.41 0.545154 1.47871 0
M  V30 23461 C 2200.66 0.016646 2.02793 0
M  V30 23462 C 2200.99 -1.32487 1.41989 0
M  V30 23463 O 2200.27 -1.85927 0.571078 0
M  V30 23464 C 2200.55 -0.0892662 3.59989 0
M  V30 23465 C 2200.4 1.27849 4.31248 0
M  V30 23466 C 2201.72 -0.808648 4.32607 0
M  V30 23467 H 2198.84 0.00752331 0.736962 0
M  V30 23468 H 2201.48 0.705116 1.76432 0
M  V30 23469 H 2199.63 -0.675614 3.8258 0
M  V30 23470 H 2201.3 1.90711 4.20032 0
M  V30 23471 H 2199.55 1.85639 3.92072 0
M  V30 23472 H 2200.22 1.15722 5.39734 0
M  V30 23473 H 2202.69 -0.310919 4.14937 0
M  V30 23474 H 2201.57 -0.851686 5.42252 0
M  V30 23475 H 2201.83 -1.86222 4.00966 0
M  V30 23476 N 2200.89 -1.55074 0.28101 0
M  V30 23477 C 2202.12 -2.04133 -0.337257 0
M  V30 23478 C 2202.53 -1.15915 -1.49028 0
M  V30 23479 O 2201.89 -0.180491 -1.81605 0
M  V30 23480 C 2201.94 -3.52248 -0.812644 0
M  V30 23481 O 2201.66 -4.37109 0.294464 0
M  V30 23482 C 2203.16 -4.17218 -1.49812 0
M  V30 23483 H 2200.38 -0.666665 -0.0761521 0
M  V30 23484 H 2202.93 -2.00249 0.414822 0
M  V30 23485 H 2201.08 -3.56557 -1.5148 0
M  V30 23486 H 2201.5 -5.24451 -0.0720403 0
M  V30 23487 H 2202.97 -5.22441 -1.78211 0
M  V30 23488 H 2203.45 -3.65745 -2.43161 0
M  V30 23489 H 2204.05 -4.16929 -0.839669 0
M  V30 23490 N 2202.37 -0.00838561 -1.57598 0
M  V30 23491 C 2203.6 0.684462 -1.94932 0
M  V30 23492 C 2204.01 1.6737 -0.882262 0
M  V30 23493 O 2203.35 1.83114 0.146589 0
M  V30 23494 C 2203.41 1.46485 -3.28302 0
M  V30 23495 C 2203.08 0.63626 -4.52549 0
M  V30 23496 C 2204.07 -0.07965 -5.19839 0
M  V30 23497 C 2201.76 0.579761 -4.98943 0
M  V30 23498 C 2203.75 -0.840954 -6.31828 0
M  V30 23499 C 2201.44 -0.185262 -6.10819 0
M  V30 23500 C 2202.44 -0.894346 -6.77119 0
M  V30 23501 O 2202.13 -1.64687 -7.8685 0
M  V30 23502 H 2201.86 0.195038 -0.647253 0
M  V30 23503 H 2204.41 -0.0581632 -2.05318 0
M  V30 23504 H 2202.64 2.25214 -3.14349 0
M  V30 23505 H 2204.33 2.04383 -3.50689 0
M  V30 23506 H 2205.1 -0.0452054 -4.84979 0
M  V30 23507 H 2200.98 1.12122 -4.47157 0
M  V30 23508 H 2204.52 -1.39495 -6.83511 0
M  V30 23509 H 2200.42 -0.221498 -6.4512 0
M  V30 23510 H 2201.18 -1.56446 -8.0341 0
M  V30 23511 N 2203.85 1.55365 0.264492 0
M  V30 23512 C 2204.79 1.88827 1.32714 0
M  V30 23513 C 2205.76 0.740631 1.48674 0
M  V30 23514 O 2206.95 0.992686 1.62943 0
M  V30 23515 C 2204.09 2.17311 2.68086 0
M  V30 23516 C 2203.2 3.44789 2.60278 0
M  V30 23517 C 2202.34 3.6293 3.87885 0
M  V30 23518 C 2201.38 4.84071 3.74623 0
M  V30 23519 N 2200.51 4.98825 4.94083 0
M  V30 23520 H 2205.35 2.79458 1.03477 0
M  V30 23521 H 2202.89 1.38351 0.499733 0
M  V30 23522 H 2204.85 2.31827 3.4686 0
M  V30 23523 H 2203.48 1.29906 2.95507 0
M  V30 23524 H 2202.53 3.387 1.73167 0
M  V30 23525 H 2203.84 4.33703 2.46381 0
M  V30 23526 H 2203 3.7731 4.75102 0
M  V30 23527 H 2201.74 2.72217 4.04659 0
M  V30 23528 H 2200.74 4.69686 2.85789 0
M  V30 23529 H 2201.97 5.76227 3.5936 0
M  V30 23530 H 2199.91 4.11045 5.11252 0
M  V30 23531 H 2199.83 5.81798 4.8275 0
M  V30 23532 H 2201.1 5.17598 5.82848 0
M  V30 23533 N 2205.33 -0.529387 1.48443 0
M  V30 23534 C 2206.27 -1.63391 1.63009 0
M  V30 23535 C 2207.24 -1.59248 0.472148 0
M  V30 23536 O 2208.43 -1.77664 0.695704 0
M  V30 23537 C 2205.57 -3.0165 1.67635 0
M  V30 23538 C 2204.68 -3.16022 2.94541 0
M  V30 23539 C 2203.82 -4.44844 2.90323 0
M  V30 23540 C 2202.85 -4.52747 4.11931 0
M  V30 23541 N 2201.99 -5.72958 4.05788 0
M  V30 23542 H 2206.83 -1.5028 2.57332 0
M  V30 23543 H 2204.37 -0.731634 1.27615 0
M  V30 23544 H 2206.33 -3.81748 1.68299 0
M  V30 23545 H 2204.96 -3.1353 0.768025 0
M  V30 23546 H 2204.01 -2.29172 3.03619 0
M  V30 23547 H 2205.32 -3.17723 3.84518 0
M  V30 23548 H 2204.47 -5.33233 2.89391 0
M  V30 23549 H 2203.21 -4.45665 1.98076 0
M  V30 23550 H 2202.22 -3.62764 4.13137 0
M  V30 23551 H 2203.44 -4.53663 5.05338 0
M  V30 23552 H 2201.39 -5.74675 3.16361 0
M  V30 23553 H 2201.31 -5.76155 4.8947 0
M  V30 23554 H 2202.57 -6.63633 4.08915 0
M  V30 23555 N 2206.8 -1.37041 -0.778305 0
M  V30 23556 C 2208.05 -1.32082 -1.5389 0
M  V30 23557 C 2208.38 0.0965045 -1.9396 0
M  V30 23558 O 2207.66 1.05239 -1.6357 0
M  V30 23559 C 2207.94 -2.25387 -2.80843 0
M  V30 23560 C 2207.79 -3.75868 -2.47069 0
M  V30 23561 C 2209.11 -2.17257 -3.82737 0
M  V30 23562 H 2206.23 -0.48112 -0.558294 0
M  V30 23563 H 2208.87 -1.67687 -0.893368 0
M  V30 23564 H 2207.02 -1.95153 -3.35928 0
M  V30 23565 H 2208.7 -4.1667 -1.9795 0
M  V30 23566 H 2206.94 -3.94758 -1.79856 0
M  V30 23567 H 2207.61 -4.36579 -3.3779 0
M  V30 23568 H 2210.09 -2.43893 -3.37128 0
M  V30 23569 H 2208.96 -2.84694 -4.69298 0
M  V30 23570 H 2209.22 -1.16339 -4.26518 0
M  V30 23571 N 2208.28 1.00373 -1.21503 0
M  V30 23572 C 2209.19 2.12619 -0.991484 0
M  V30 23573 C 2210.21 1.73907 0.056814 0
M  V30 23574 O 2211.38 2.00957 -0.133516 0
M  V30 23575 C 2208.45 3.42141 -0.560372 0
M  V30 23576 C 2207.51 3.95019 -1.68103 0
M  V30 23577 C 2206.74 5.1836 -1.27039 0
M  V30 23578 O 2206.97 5.70217 -0.144538 0
M  V30 23579 O 2205.9 5.64715 -2.08279 0
M  V30 23580 H 2209.73 2.34354 -1.93162 0
M  V30 23581 H 2207.31 1.10995 -1.00002 0
M  V30 23582 H 2209.19 4.20107 -0.329798 0
M  V30 23583 H 2207.87 3.21791 0.351033 0
M  V30 23584 H 2206.77 3.18274 -1.96602 0
M  V30 23585 H 2208.11 4.19782 -2.56991 0
M  V30 23586 N 2209.76 1.02298 1.19887 0
M  V30 23587 C 2210.71 0.59212 2.24937 0
M  V30 23588 C 2211.7 -0.372328 1.65258 0
M  V30 23589 O 2212.91 -0.241551 1.78372 0
M  V30 23590 H 2209.28 0.173195 0.731784 0
M  V30 23591 H 2211.25 1.4889 2.58601 0
M  V30 23592 C 2210 -0.0472899 3.47668 0
M  V30 23593 H 2209.33 0.685841 3.93873 0
M  V30 23594 H 2210.77 -0.311787 4.22852 0
M  V30 23595 C 2209.22 -1.29207 3.11139 0
M  V30 23596 O 2209.75 -2.38474 3.23254 0
M  V30 23597 N 2207.96 -1.17858 2.65627 0
M  V30 23598 H 2207.51 -0.289448 2.55969 0
M  V30 23599 H 2207.47 -2.01241 2.41556 0
M  V30 23600 N 2211.24 -1.35782 0.800057 0
M  V30 23601 C 2212.47 -2.03198 0.389642 0
M  V30 23602 C 2212.88 -1.60307 -0.997347 0
M  V30 23603 O 2212.24 -0.79751 -1.64152 0
M  V30 23604 C 2212.29 -3.58613 0.455918 0
M  V30 23605 O 2212.01 -3.99943 1.78822 0
M  V30 23606 C 2213.51 -4.43284 0.0374812 0
M  V30 23607 H 2210.73 -0.651855 0.159143 0
M  V30 23608 H 2213.27 -1.7354 1.08186 0
M  V30 23609 H 2211.43 -3.86944 -0.187989 0
M  V30 23610 H 2211.84 -4.9457 1.74645 0
M  V30 23611 H 2213.32 -5.51835 0.134979 0
M  V30 23612 H 2213.79 -4.27277 -1.01643 0
M  V30 23613 H 2214.4 -4.20237 0.654289 0
M  V30 23614 N 2212.72 -0.552988 -1.4758 0
M  V30 23615 C 2213.96 -0.0274004 -2.02781 0
M  V30 23616 C 2214.29 1.31732 -1.4269 0
M  V30 23617 O 2213.57 1.85622 -0.58093 0
M  V30 23618 C 2213.85 0.0701738 -3.60032 0
M  V30 23619 C 2213.71 -1.30134 -4.30564 0
M  V30 23620 C 2215.02 0.785694 -4.3303 0
M  V30 23621 H 2212.14 -0.0114315 -0.736911 0
M  V30 23622 H 2214.79 -0.714463 -1.76055 0
M  V30 23623 H 2212.94 0.655315 -3.82933 0
M  V30 23624 H 2214.61 -1.92936 -4.19015 0
M  V30 23625 H 2212.85 -1.87715 -3.91082 0
M  V30 23626 H 2213.52 -1.18583 -5.39112 0
M  V30 23627 H 2216 0.288909 -4.15096 0
M  V30 23628 H 2214.87 0.822917 -5.42696 0
M  V30 23629 H 2215.13 1.84093 -4.01948 0
M  V30 23630 N 2214.19 1.54923 -0.28923 0
M  V30 23631 C 2215.12 2.26041 0.58545 0
M  V30 23632 C 2216.1 1.25564 1.14751 0
M  V30 23633 O 2217.29 1.54313 1.17903 0
M  V30 23634 C 2214.42 2.99225 1.763 0
M  V30 23635 C 2213.37 4.06751 1.33184 0
M  V30 23636 C 2212.7 4.67585 2.59362 0
M  V30 23637 C 2214 5.20166 0.471684 0
M  V30 23638 H 2215.69 2.99399 -0.00768794 0
M  V30 23639 H 2213.24 1.43999 -0.0051376 0
M  V30 23640 H 2215.19 3.47694 2.38091 0
M  V30 23641 H 2213.92 2.23426 2.38219 0
M  V30 23642 H 2212.58 3.59114 0.737058 0
M  V30 23643 H 2212.22 3.88438 3.1957 0
M  V30 23644 H 2211.92 5.40196 2.31219 0
M  V30 23645 H 2213.45 5.1881 3.21976 0
M  V30 23646 H 2214.86 5.646 0.994956 0
M  V30 23647 H 2213.26 5.99425 0.284534 0
M  V30 23648 H 2214.33 4.82251 -0.506126 0
M  V30 23649 N 2215.67 0.0167433 1.57591 0
M  V30 23650 C 2217.08 -0.523803 1.79202 0
M  V30 23651 C 2217.43 -1.72982 0.925826 0
M  V30 23652 O 2216.56 -2.15992 0.13283 0
M  V30 23653 C 2217.15 -0.957034 3.25002 0
M  V30 23654 C 2215.71 -1.44277 3.47651 0
M  V30 23655 C 2214.86 -0.401709 2.74375 0
M  V30 23656 H 2217.81 0.242844 1.56831 0
M  V30 23657 H 2217.83 -1.82213 3.34034 0
M  V30 23658 H 2217.34 -0.0790733 3.88019 0
M  V30 23659 H 2215.44 -2.34107 2.8987 0
M  V30 23660 H 2215.56 -1.45869 4.56354 0
M  V30 23661 H 2213.92 -0.867079 2.39487 0
M  V30 23662 H 2214.7 0.467573 3.40101 0
M  V30 23663 N 2217.15 -1.55503 -0.256249 0
M  V30 23664 C 2218.1 -1.89528 -1.3171 0
M  V30 23665 C 2219.07 -0.748505 -1.48279 0
M  V30 23666 O 2220.25 -1.00131 -1.62414 0
M  V30 23667 C 2217.39 -2.1873 -2.66929 0
M  V30 23668 C 2216.51 -3.46165 -2.58445 0
M  V30 23669 C 2215.64 -3.64982 -3.85955 0
M  V30 23670 C 2214.68 -4.86051 -3.7205 0
M  V30 23671 N 2213.82 -5.01438 -4.91431 0
M  V30 23672 H 2218.66 -2.80003 -1.01993 0
M  V30 23673 H 2216.19 -1.38614 -0.492389 0
M  V30 23674 H 2218.15 -2.33663 -3.45626 0
M  V30 23675 H 2216.78 -1.31471 -2.94814 0
M  V30 23676 H 2215.83 -3.39613 -1.71368 0
M  V30 23677 H 2217.15 -4.35003 -2.44077 0
M  V30 23678 H 2216.3 -3.79824 -4.73095 0
M  V30 23679 H 2215.04 -2.7436 -4.0321 0
M  V30 23680 H 2214.04 -4.71195 -2.83294 0
M  V30 23681 H 2215.27 -5.78125 -3.56299 0
M  V30 23682 H 2213.21 -4.1375 -5.09065 0
M  V30 23683 H 2213.13 -5.8435 -4.79658 0
M  V30 23684 H 2214.4 -5.20682 -5.80095 0
M  V30 23685 N 2218.63 0.521507 -1.48721 0
M  V30 23686 C 2220.04 1.10334 -1.50609 0
M  V30 23687 C 2220.39 1.94182 -0.280646 0
M  V30 23688 O 2219.52 2.07581 0.61147 0
M  V30 23689 C 2220.11 2.00768 -2.72906 0
M  V30 23690 C 2218.67 2.54153 -2.77639 0
M  V30 23691 C 2217.82 1.31302 -2.44244 0
M  V30 23692 H 2220.77 0.30636 -1.55715 0
M  V30 23693 H 2220.79 2.85174 -2.51905 0
M  V30 23694 H 2220.3 1.39714 -3.62079 0
M  V30 23695 H 2218.4 3.18903 -1.92695 0
M  V30 23696 H 2218.51 2.92707 -3.79288 0
M  V30 23697 H 2216.88 1.63158 -1.9558 0
M  V30 23698 H 2217.66 0.719884 -3.35667 0
M  V30 23699 N 2220.11 1.37452 0.771027 0
M  V30 23700 C 2221.38 1.23234 1.51898 0
M  V30 23701 C 2221.76 -0.173772 2.10384 0
M  V30 23702 O 2221.11 -1.18148 1.95585 0
M  V30 23703 C 2221.32 2.32891 2.59929 0
M  V30 23704 C 2222.67 2.70467 3.27312 0
M  V30 23705 O 2223.69 2.32072 2.70224 0
M  V30 23706 O 2222.55 3.36616 4.30525 0
M  V30 23707 H 2219.65 0.480913 0.672794 0
M  V30 23708 H 2222.19 1.49233 0.80793 0
M  V30 23709 H 2220.96 3.27049 2.14837 0
M  V30 23710 H 2220.59 2.08359 3.38633 0
M  V30 23711 N 2221.58 -0.997276 1.22033 0
M  V30 23712 C 2222.51 -2.10493 1.01069 0
M  V30 23713 C 2223.5 -1.69968 -0.0669243 0
M  V30 23714 O 2224.68 -1.9397 0.0944328 0
M  V30 23715 C 2221.81 -3.42373 0.582934 0
M  V30 23716 C 2220.76 -3.96727 1.60599 0
M  V30 23717 C 2220.09 -5.24603 1.03421 0
M  V30 23718 C 2221.39 -4.27909 2.99485 0
M  V30 23719 H 2223.08 -2.28289 1.93712 0
M  V30 23720 H 2220.63 -1.09705 0.93278 0
M  V30 23721 H 2222.58 -4.19268 0.423406 0
M  V30 23722 H 2221.31 -3.24392 -0.379156 0
M  V30 23723 H 2219.97 -3.21959 1.75322 0
M  V30 23724 H 2219.61 -5.0296 0.0636064 0
M  V30 23725 H 2219.31 -5.61935 1.71764 0
M  V30 23726 H 2220.84 -6.04135 0.886172 0
M  V30 23727 H 2222.25 -4.95617 2.88161 0
M  V30 23728 H 2220.65 -4.76403 3.64912 0
M  V30 23729 H 2221.72 -3.35864 3.49748 0
M  V30 23730 N 2223.06 -1.02932 -1.19343 0
M  V30 23731 C 2224.47 -0.755663 -1.70724 0
M  V30 23732 C 2224.82 0.724644 -1.82328 0
M  V30 23733 O 2223.95 1.56482 -1.49474 0
M  V30 23734 C 2224.54 -1.36508 -3.10082 0
M  V30 23735 C 2223.1 -1.14 -3.58721 0
M  V30 23736 C 2222.25 -1.46287 -2.35575 0
M  V30 23737 H 2225.2 -1.19719 -1.04178 0
M  V30 23738 H 2225.22 -0.762283 -3.72786 0
M  V30 23739 H 2224.73 -2.44246 -3.01605 0
M  V30 23740 H 2222.84 -0.0808556 -3.72512 0
M  V30 23741 H 2222.95 -1.82902 -4.42813 0
M  V30 23742 H 2221.31 -0.882212 -2.38933 0
M  V30 23743 H 2222.1 -2.55109 -2.29727 0
M  V30 23744 N 2224.54 1.35356 -0.807246 0
M  V30 23745 C 2225.49 2.29786 -0.216077 0
M  V30 23746 C 2226.46 1.52843 0.650252 0
M  V30 23747 O 2227.64 1.81279 0.595195 0
M  V30 23748 C 2224.78 3.39322 0.628834 0
M  V30 23749 C 2223.9 4.31229 -0.258003 0
M  V30 23750 C 2223.03 5.27857 0.594976 0
M  V30 23751 C 2222.07 6.11402 -0.292218 0
M  V30 23752 N 2221.21 7.00166 0.520772 0
M  V30 23753 H 2226.05 2.79753 -1.02676 0
M  V30 23754 H 2223.58 1.37683 -0.517863 0
M  V30 23755 H 2225.54 4.01496 1.13386 0
M  V30 23756 H 2224.17 2.9063 1.40477 0
M  V30 23757 H 2223.22 3.70054 -0.881141 0
M  V30 23758 H 2224.54 4.89846 -0.940845 0
M  V30 23759 H 2223.69 5.95407 1.16511 0
M  V30 23760 H 2222.43 4.69738 1.31138 0
M  V30 23761 H 2221.43 5.42799 -0.87462 0
M  V30 23762 H 2222.66 6.716 -1.0065 0
M  V30 23763 H 2220.6 6.44534 1.22114 0
M  V30 23764 H 2220.52 7.55928 -0.10401 0
M  V30 23765 H 2221.79 7.72063 1.07416 0
M  V30 23766 N 2226.02 0.560807 1.47284 0
M  V30 23767 C 2227.25 0.0430626 2.06855 0
M  V30 23768 C 2227.66 -1.25226 1.41293 0
M  V30 23769 O 2227.02 -1.75209 0.510679 0
M  V30 23770 C 2227.07 -0.152455 3.61178 0
M  V30 23771 O 2226.79 1.09158 4.24283 0
M  V30 23772 C 2228.29 -0.707068 4.37625 0
M  V30 23773 H 2225.51 0.047477 0.669318 0
M  V30 23774 H 2228.06 0.775243 1.89236 0
M  V30 23775 H 2226.21 -0.834777 3.78299 0
M  V30 23776 H 2226.62 0.891573 5.16867 0
M  V30 23777 H 2228.1 -0.793148 5.46272 0
M  V30 23778 H 2228.58 -1.71916 4.04155 0
M  V30 23779 H 2229.18 -0.0603279 4.25257 0
M  V30 23780 N 2227.5 -1.54768 0.297442 0
M  V30 23781 C 2228.72 -2.04941 -0.318399 0
M  V30 23782 C 2229.15 -1.17347 -1.47007 0
M  V30 23783 O 2228.5 -0.17679 -1.80436 0
M  V30 23784 C 2228.55 -3.52593 -0.755687 0
M  V30 23785 O 2227.66 -3.68032 -1.86082 0
M  V30 23786 H 2227 -0.661061 -0.0624094 0
M  V30 23787 H 2229.53 -1.99851 0.43825 0
M  V30 23788 H 2229.54 -3.94378 -1.04545 0
M  V30 23789 H 2228.21 -4.15809 0.0867964 0
M  V30 23790 H 2226.79 -3.38152 -1.57188 0
M  V30 23791 N 2228.97 -0.0251005 -1.5758 0
M  V30 23792 C 2230.22 0.653118 -1.91256 0
M  V30 23793 C 2230.54 1.72899 -0.901721 0
M  V30 23794 O 2229.81 1.95816 0.0573441 0
M  V30 23795 H 2228.39 0.24423 -0.705947 0
M  V30 23796 H 2231.06 -0.0719551 -1.94767 0
M  V30 23797 H 2230.15 1.10842 -2.91754 0
M  V30 23798 N 2230.45 1.55637 0.247999 0
M  V30 23799 C 2231.4 1.90224 1.30703 0
M  V30 23800 C 2232.37 0.756358 1.4788 0
M  V30 23801 O 2233.55 1.00991 1.61881 0
M  V30 23802 C 2230.69 2.20142 2.65766 0
M  V30 23803 C 2229.81 3.4753 2.56606 0
M  V30 23804 C 2228.94 3.67024 3.84014 0
M  V30 23805 C 2227.98 4.88017 3.69467 0
M  V30 23806 N 2227.12 5.04037 4.88765 0
M  V30 23807 H 2231.96 2.80539 1.00507 0
M  V30 23808 H 2229.5 1.38874 0.485031 0
M  V30 23809 H 2231.45 2.35493 3.44382 0
M  V30 23810 H 2230.08 1.33032 2.94113 0
M  V30 23811 H 2229.14 3.40517 1.69565 0
M  V30 23812 H 2230.45 4.36292 2.41767 0
M  V30 23813 H 2229.6 3.82328 4.71074 0
M  V30 23814 H 2228.34 2.76494 4.01749 0
M  V30 23815 H 2227.35 4.72691 2.80791 0
M  V30 23816 H 2228.57 5.80006 3.53228 0
M  V30 23817 H 2226.52 4.16444 5.06863 0
M  V30 23818 H 2226.43 5.86885 4.76552 0
M  V30 23819 H 2227.7 5.23751 5.77326 0
M  V30 23820 N 2231.93 -0.513613 1.48996 0
M  V30 23821 C 2233.18 -1.27039 1.58079 0
M  V30 23822 C 2233.51 -1.92437 0.261059 0
M  V30 23823 O 2232.79 -1.80104 -0.734361 0
M  V30 23824 C 2233.07 -2.34714 2.73096 0
M  V30 23825 C 2232.92 -1.739 4.14824 0
M  V30 23826 C 2234.24 -3.3637 2.83802 0
M  V30 23827 H 2231.36 -0.460526 0.575399 0
M  V30 23828 H 2234 -0.570484 1.81233 0
M  V30 23829 H 2232.15 -2.94412 2.53484 0
M  V30 23830 H 2233.82 -1.18128 4.45919 0
M  V30 23831 H 2232.07 -1.04362 4.21059 0
M  V30 23832 H 2232.74 -2.5194 4.91152 0
M  V30 23833 H 2235.21 -2.86648 3.01616 0
M  V30 23834 H 2234.09 -4.09086 3.65978 0
M  V30 23835 H 2234.35 -3.97927 1.92631 0
M  V30 23836 N 2233.41 -1.37859 -0.763727 0
M  V30 23837 C 2234.32 -1.36481 -1.90814 0
M  V30 23838 C 2235.34 -0.263278 -1.71997 0
M  V30 23839 O 2236.51 -0.500013 -1.95094 0
M  V30 23840 C 2233.58 -1.1787 -3.26048 0
M  V30 23841 C 2232.64 -2.37736 -3.57463 0
M  V30 23842 C 2231.87 -2.20003 -4.86245 0
M  V30 23843 O 2232.09 -1.18846 -5.57882 0
M  V30 23844 O 2231.03 -3.0837 -5.16906 0
M  V30 23845 H 2234.85 -2.32887 -1.94929 0
M  V30 23846 H 2232.44 -1.18672 -0.907598 0
M  V30 23847 H 2234.32 -1.09511 -4.06922 0
M  V30 23848 H 2233 -0.245429 -3.22768 0
M  V30 23849 H 2231.9 -2.51668 -2.76792 0
M  V30 23850 H 2233.24 -3.29658 -3.65494 0
M  V30 23851 N 2234.89 0.990791 -1.22561 0
M  V30 23852 C 2235.82 2.09954 -1.02184 0
M  V30 23853 C 2236.8 1.70001 0.0579095 0
M  V30 23854 O 2237.98 1.93917 -0.104718 0
M  V30 23855 C 2235.11 3.42059 -0.601083 0
M  V30 23856 C 2234.07 3.95869 -1.627 0
M  V30 23857 C 2233.39 5.24047 -1.06202 0
M  V30 23858 C 2234.69 4.26315 -3.0175 0
M  V30 23859 H 2236.39 2.27259 -1.9492 0
M  V30 23860 H 2233.93 1.09209 -0.938585 0
M  V30 23861 H 2235.89 4.19037 -0.445634 0
M  V30 23862 H 2234.61 3.24588 0.361948 0
M  V30 23863 H 2233.27 3.21025 -1.77027 0
M  V30 23864 H 2232.92 5.02919 -0.0902787 0
M  V30 23865 H 2232.62 5.61016 -1.74741 0
M  V30 23866 H 2234.14 6.03657 -0.918198 0
M  V30 23867 H 2235.56 4.94081 -2.90786 0
M  V30 23868 H 2233.95 4.74461 -3.67433 0
M  V30 23869 H 2235.02 3.34004 -3.51524 0
M  V30 23870 N 2236.37 1.03564 1.18795 0
M  V30 23871 C 2237.3 0.643058 2.24471 0
M  V30 23872 C 2238.28 -0.351253 1.66434 0
M  V30 23873 O 2239.46 -0.232471 1.92804 0
M  V30 23874 C 2236.59 1.85533e-05 3.473 0
M  V30 23875 C 2235.55 0.91733 4.18054 0
M  V30 23876 C 2234.87 0.139035 5.34519 0
M  V30 23877 C 2236.17 2.23415 4.72105 0
M  V30 23878 H 2237.87 1.52648 2.57564 0
M  V30 23879 H 2235.41 0.735416 1.23805 0
M  V30 23880 H 2237.36 -0.286309 4.20426 0
M  V30 23881 H 2236.09 -0.918243 3.13426 0
M  V30 23882 H 2234.75 1.18796 3.46818 0
M  V30 23883 H 2234.4 -0.781475 4.96892 0
M  V30 23884 H 2234.1 0.750107 5.82793 0
M  V30 23885 H 2235.62 -0.140393 6.10439 0
M  V30 23886 H 2237.03 2.00888 5.36951 0
M  V30 23887 H 2235.43 2.79774 5.30892 0
M  V30 23888 H 2236.5 2.88414 3.89802 0
M  V30 23889 N 2237.84 -1.34926 0.814413 0
M  V30 23890 C 2239.25 -1.80985 0.458396 0
M  V30 23891 C 2239.61 -1.67579 -1.02039 0
M  V30 23892 O 2238.73 -1.21089 -1.7935 0
M  V30 23893 C 2239.33 -3.28595 0.82527 0
M  V30 23894 C 2237.88 -3.72766 0.521743 0
M  V30 23895 C 2237.03 -2.56786 1.04672 0
M  V30 23896 H 2239.98 -1.22794 1.00536 0
M  V30 23897 H 2240 -3.80292 0.125777 0
M  V30 23898 H 2239.52 -3.38321 1.90159 0
M  V30 23899 H 2237.62 -3.68585 -0.545524 0
M  V30 23900 H 2237.73 -4.6723 1.05985 0
M  V30 23901 H 2236.09 -2.50351 0.468666 0
M  V30 23902 H 2236.88 -2.69286 2.12932 0
M  V30 23903 N 2239.32 -0.56861 -1.46985 0
M  V30 23904 C 2240.27 0.172666 -2.30153 0
M  V30 23905 C 2241.24 0.897562 -1.39761 0
M  V30 23906 O 2242.42 0.891014 -1.68717 0
M  V30 23907 C 2239.56 1.18944 -3.23954 0
M  V30 23908 C 2238.68 0.469441 -4.29442 0
M  V30 23909 C 2237.81 1.4725 -5.10383 0
M  V30 23910 C 2236.85 0.738118 -6.07633 0
M  V30 23911 N 2235.99 1.68856 -6.81493 0
M  V30 23912 H 2240.83 -0.542647 -2.93018 0
M  V30 23913 H 2238.36 -0.279426 -1.44422 0
M  V30 23914 H 2240.32 1.79166 -3.7677 0
M  V30 23915 H 2238.95 1.87264 -2.62929 0
M  V30 23916 H 2238 -0.247534 -3.79594 0
M  V30 23917 H 2239.32 -0.105329 -4.98689 0
M  V30 23918 H 2238.47 2.14793 -5.67405 0
M  V30 23919 H 2237.21 2.0812 -4.41064 0
M  V30 23920 H 2236.21 0.0488326 -5.49778 0
M  V30 23921 H 2237.44 0.13501 -6.78966 0
M  V30 23922 H 2235.39 2.28562 -6.14895 0
M  V30 23923 H 2235.3 1.16623 -7.4695 0
M  V30 23924 H 2236.57 2.35477 -7.43082 0
M  V30 23925 N 2240.8 1.54608 -0.305646 0
M  V30 23926 C 2242.05 2.00528 0.302711 0
M  V30 23927 C 2242.38 1.19369 1.53182 0
M  V30 23928 O 2241.65 0.271355 1.92598 0
M  V30 23929 C 2241.94 3.54099 0.654694 0
M  V30 23930 C 2241.79 4.45994 -0.583872 0
M  V30 23931 C 2243.11 4.1449 1.47939 0
M  V30 23932 H 2240.23 0.728962 0.108551 0
M  V30 23933 H 2242.87 1.8533 -0.418667 0
M  V30 23934 H 2241.02 3.6718 1.26929 0
M  V30 23935 H 2242.69 4.44811 -1.22231 0
M  V30 23936 H 2240.93 4.16402 -1.21622 0
M  V30 23937 H 2241.61 5.5122 -0.293384 0
M  V30 23938 H 2244.08 4.04873 0.960059 0
M  V30 23939 H 2242.96 5.22091 1.69445 0
M  V30 23940 H 2243.22 3.66662 2.47004 0
M  V30 23941 N 2242.28 0.033457 1.57564 0
M  V30 23942 C 2243.23 -0.956201 2.0698 0
M  V30 23943 C 2244.21 -1.28282 0.971216 0
M  V30 23944 O 2245.4 -1.2682 1.23473 0
M  V30 23945 C 2242.53 -2.23714 2.60397 0
M  V30 23946 C 2241.62 -1.9387 3.77194 0
M  V30 23947 N 2242.01 -1.34313 4.87641 0
M  V30 23948 C 2240.31 -2.23838 3.85762 0
M  V30 23949 C 2241.01 -1.21699 5.68827 0
M  V30 23950 N 2239.98 -1.71395 5.15873 0
M  V30 23951 H 2243.79 -0.490764 2.89774 0
M  V30 23952 H 2241.3 -0.171449 1.61492 0
M  V30 23953 H 2243.3 -2.95491 2.94093 0
M  V30 23954 H 2241.96 -2.70881 1.79036 0
M  V30 23955 H 2242.97 -1.01758 5.07805 0
M  V30 23956 H 2239.65 -2.73648 3.15315 0
M  V30 23957 H 2241.04 -0.756092 6.67632 0
M  V30 23958 N 2243.76 -1.55766 -0.239741 0
M  V30 23959 C 2245 -1.77133 -0.964722 0
M  V30 23960 C 2245.32 -0.598712 -1.86212 0
M  V30 23961 O 2246.52 -0.695568 -2.62439 0
M  V30 23962 C 2244.98 -3.13623 -1.76547 0
M  V30 23963 C 2244.59 -4.38554 -0.915108 0
M  V30 23964 C 2246.33 -3.44325 -2.48275 0
M  V30 23965 C 2244.24 -5.66074 -1.71215 0
M  V30 23966 H 2243.17 -0.66035 -0.363941 0
M  V30 23967 H 2245.82 -1.82187 -0.219149 0
M  V30 23968 H 2244.2 -3.02696 -2.55326 0
M  V30 23969 H 2245.38 -4.60489 -0.169136 0
M  V30 23970 H 2243.69 -4.15238 -0.310816 0
M  V30 23971 H 2246.29 -4.36817 -3.08374 0
M  V30 23972 H 2246.63 -2.65979 -3.20251 0
M  V30 23973 H 2247.16 -3.565 -1.765 0
M  V30 23974 H 2243.9 -6.47261 -1.036 0
M  V30 23975 H 2243.42 -5.48229 -2.43322 0
M  V30 23976 H 2245.1 -6.05591 -2.27748 0
M  V30 23977 N 2245.23 0.505704 -1.49266 0
M  V30 23978 C 2246.46 1.2824 -1.61982 0
M  V30 23979 C 2246.87 1.86986 -0.288609 0
M  V30 23980 O 2246.21 1.68339 0.735378 0
M  V30 23981 C 2246.28 2.45485 -2.62636 0
M  V30 23982 C 2245.94 2.07644 -4.07103 0
M  V30 23983 C 2246.94 1.61892 -4.94052 0
M  V30 23984 C 2244.62 2.17423 -4.52805 0
M  V30 23985 C 2246.62 1.26417 -6.24738 0
M  V30 23986 C 2244.3 1.81559 -5.83506 0
M  V30 23987 C 2245.3 1.36131 -6.69296 0
M  V30 23988 O 2244.99 1.0075 -7.97562 0
M  V30 23989 H 2244.72 0.395338 -0.548347 0
M  V30 23990 H 2247.28 0.61417 -1.96003 0
M  V30 23991 H 2245.51 3.15368 -2.23785 0
M  V30 23992 H 2247.19 3.07517 -2.6493 0
M  V30 23993 H 2247.96 1.53787 -4.59972 0
M  V30 23994 H 2243.84 2.51735 -3.862 0
M  V30 23995 H 2247.38 0.90887 -6.91654 0
M  V30 23996 H 2243.28 1.89313 -6.17115 0
M  V30 23997 H 2244.05 1.13938 -8.10531 0
M  V30 23998 N 2246.71 1.38262 0.756405 0
M  V30 23999 C 2247.64 1.3115 1.87969 0
M  V30 24000 C 2248.66 0.224268 1.61248 0
M  V30 24001 O 2249.85 0.481611 1.7188 0
M  V30 24002 C 2246.95 1.00863 3.23543 0
M  V30 24003 C 2246.12 2.20439 3.7779 0
M  V30 24004 C 2245.18 1.8694 4.91874 0
M  V30 24005 O 2244.2 2.59403 5.06654 0
M  V30 24006 N 2245.41 0.822669 5.74641 0
M  V30 24007 H 2248.17 2.27944 1.94581 0
M  V30 24008 H 2245.73 1.32086 0.936211 0
M  V30 24009 H 2247.72 0.765091 3.97402 0
M  V30 24010 H 2246.29 0.128742 3.12335 0
M  V30 24011 H 2245.51 2.60875 2.9553 0
M  V30 24012 H 2246.8 3.00248 4.10766 0
M  V30 24013 H 2246.2 0.221675 5.65266 0
M  V30 24014 H 2244.76 0.639013 6.4866 0
M  V30 24015 N 2248.19 -0.984277 1.23084 0
M  V30 24016 C 2249.14 -2.07597 1.00858 0
M  V30 24017 C 2250.11 -1.65941 -0.0726418 0
M  V30 24018 O 2251.29 -1.90638 0.078687 0
M  V30 24019 C 2248.43 -3.39814 0.601704 0
M  V30 24020 C 2247.55 -3.94762 1.75463 0
M  V30 24021 C 2246.68 -5.15175 1.29491 0
M  V30 24022 C 2245.72 -5.6228 2.41883 0
M  V30 24023 N 2244.86 -6.73926 1.96897 0
M  V30 24024 H 2249.7 -2.25943 1.94303 0
M  V30 24025 H 2247.23 -1.1076 0.968021 0
M  V30 24026 H 2249.19 -4.15755 0.346927 0
M  V30 24027 H 2247.82 -3.21442 -0.295746 0
M  V30 24028 H 2246.87 -3.15612 2.12351 0
M  V30 24029 H 2248.19 -4.25694 2.59973 0
M  V30 24030 H 2247.34 -5.98435 0.998029 0
M  V30 24031 H 2246.08 -4.85887 0.420131 0
M  V30 24032 H 2245.08 -4.77604 2.7235 0
M  V30 24033 H 2246.31 -5.93589 3.29891 0
M  V30 24034 H 2244.25 -6.46404 1.11793 0
M  V30 24035 H 2244.17 -7.04222 2.74968 0
M  V30 24036 H 2245.44 -7.60669 1.70302 0
M  V30 24037 N 2249.67 -1.04192 -1.18244 0
M  V30 24038 C 2250.95 -0.66024 -1.8412 0
M  V30 24039 C 2251.33 0.860187 -1.9278 0
M  V30 24040 O 2250.67 1.76214 -1.45467 0
M  V30 24041 C 2250.88 -1.33753 -3.22352 0
M  V30 24042 C 2252.23 -1.46913 -3.98374 0
M  V30 24043 O 2253.26 -1.29574 -3.31797 0
M  V30 24044 O 2252.11 -1.7518 -5.17662 0
M  V30 24045 H 2249.21 -0.231175 -0.794032 0
M  V30 24046 H 2251.75 -1.14089 -1.25626 0
M  V30 24047 H 2250.53 -2.37528 -3.1096 0
M  V30 24048 H 2250.15 -0.845583 -3.88504 0
M  V30 24049 N 2251.15 1.34492 -0.821557 0
M  V30 24050 C 2252.08 2.32079 -0.257179 0
M  V30 24051 C 2253.06 1.58177 0.625617 0
M  V30 24052 O 2254.24 1.86167 0.552779 0
M  V30 24053 C 2251.37 3.42373 0.582898 0
M  V30 24054 C 2250.33 4.2752 -0.202646 0
M  V30 24055 C 2249.65 5.2927 0.760086 0
M  V30 24056 C 2250.95 5.02906 -1.41007 0
M  V30 24057 H 2252.65 2.79531 -1.07252 0
M  V30 24058 H 2250.19 1.34392 -0.517187 0
M  V30 24059 H 2252.15 4.09657 0.9879 0
M  V30 24060 H 2250.87 2.93568 1.43128 0
M  V30 24061 H 2249.53 3.61837 -0.589 0
M  V30 24062 H 2249.18 4.76727 1.60438 0
M  V30 24063 H 2248.88 5.87115 0.238706 0
M  V30 24064 H 2250.4 5.99422 1.16297 0
M  V30 24065 H 2251.81 5.63052 -1.07915 0
M  V30 24066 H 2250.21 5.70319 -1.86699 0
M  V30 24067 H 2251.28 4.3268 -2.18897 0
M  V30 24068 N 2252.62 0.576397 1.46681 0
M  V30 24069 C 2253.87 0.0595695 2.02412 0
M  V30 24070 C 2254.2 -1.2979 1.44861 0
M  V30 24071 O 2253.45 -1.86239 0.601131 0
M  V30 24072 C 2253.75 -0.0628232 3.57345 0
M  V30 24073 C 2253.42 1.22623 4.33906 0
M  V30 24074 C 2252.08 1.57941 4.54542 0
M  V30 24075 C 2254.43 2.07957 4.77916 0
M  V30 24076 C 2251.76 2.78402 5.16439 0
M  V30 24077 C 2254.11 3.27638 5.41143 0
M  V30 24078 C 2252.78 3.63246 5.60008 0
M  V30 24079 H 2252.05 0.021798 0.740679 0
M  V30 24080 H 2254.69 0.751766 1.76127 0
M  V30 24081 H 2253 -0.83811 3.82731 0
M  V30 24082 H 2254.7 -0.478369 3.98136 0
M  V30 24083 H 2251.29 0.941276 4.18136 0
M  V30 24084 H 2255.47 1.81976 4.61734 0
M  V30 24085 H 2250.73 3.06135 5.29236 0
M  V30 24086 H 2254.9 3.94034 5.74204 0
M  V30 24087 H 2252.53 4.56679 6.0774 0
M  V30 24088 N 2254.1 -1.54444 0.313841 0
M  V30 24089 C 2255.51 -1.85867 -0.176211 0
M  V30 24090 C 2255.86 -1.23563 -1.52402 0
M  V30 24091 O 2254.99 -0.538053 -2.09604 0
M  V30 24092 C 2255.58 -3.37223 -0.32651 0
M  V30 24093 C 2254.14 -3.68631 -0.760781 0
M  V30 24094 C 2253.29 -2.77026 0.123296 0
M  V30 24095 H 2256.24 -1.4943 0.534444 0
M  V30 24096 H 2256.26 -3.62418 -1.15902 0
M  V30 24097 H 2255.77 -3.8254 0.654598 0
M  V30 24098 H 2253.88 -3.28841 -1.75198 0
M  V30 24099 H 2253.99 -4.75682 -0.571269 0
M  V30 24100 H 2252.35 -2.51547 -0.399552 0
M  V30 24101 H 2253.14 -3.25166 1.10099 0
M  V30 24102 N 2255.58 -0.0418125 -1.57545 0
M  V30 24103 C 2256.81 0.643894 -1.96626 0
M  V30 24104 C 2257.22 1.64928 -0.918926 0
M  V30 24105 O 2256.58 1.82237 0.0979003 0
M  V30 24106 C 2256.63 1.33908 -3.35784 0
M  V30 24107 O 2256.35 0.373971 -4.36501 0
M  V30 24108 C 2257.85 2.11543 -3.8957 0
M  V30 24109 H 2255.07 0.17669 -0.647319 0
M  V30 24110 H 2257.62 -0.10534 -2.04229 0
M  V30 24111 H 2255.77 2.03962 -3.2936 0
M  V30 24112 H 2256.19 0.869088 -5.1725 0
M  V30 24113 H 2257.66 2.5562 -4.89247 0
M  V30 24114 H 2258.14 2.95974 -3.24493 0
M  V30 24115 H 2258.74 1.4642 -3.99301 0
M  V30 24116 N 2257.06 1.55891 0.231477 0
M  V30 24117 C 2257.97 1.94754 1.30797 0
M  V30 24118 C 2258.98 0.850015 1.51825 0
M  V30 24119 O 2260.16 1.15274 1.65148 0
M  V30 24120 C 2257.23 2.24775 2.63964 0
M  V30 24121 C 2256.29 3.48044 2.51325 0
M  V30 24122 C 2255.52 3.76623 3.78141 0
M  V30 24123 O 2255.74 3.07031 4.80716 0
M  V30 24124 O 2254.68 4.70129 3.75848 0
M  V30 24125 H 2258.5 2.86475 1.00825 0
M  V30 24126 H 2256.09 1.42972 0.433522 0
M  V30 24127 H 2257.97 2.45324 3.42629 0
M  V30 24128 H 2256.64 1.3623 2.93637 0
M  V30 24129 H 2255.55 3.32785 1.70894 0
M  V30 24130 H 2256.88 4.3694 2.26593 0
M  V30 24131 N 2258.54 -0.497781 1.49532 0
M  V30 24132 C 2259.76 -1.27564 1.62896 0
M  V30 24133 C 2260.18 -1.86375 0.301618 0
M  V30 24134 O 2259.54 -1.67983 -0.713305 0
M  V30 24135 C 2259.59 -2.4036 2.70018 0
M  V30 24136 O 2259.31 -1.83965 3.97603 0
M  V30 24137 C 2260.81 -3.3168 2.94115 0
M  V30 24138 H 2258.03 -0.386785 0.548305 0
M  V30 24139 H 2260.57 -0.597211 1.95585 0
M  V30 24140 H 2258.73 -3.04027 2.40097 0
M  V30 24141 H 2259.14 -2.58039 4.56635 0
M  V30 24142 H 2260.62 -4.07097 3.72795 0
M  V30 24143 H 2261.09 -3.88868 2.04153 0
M  V30 24144 H 2261.7 -2.73775 3.25464 0
M  V30 24145 N 2260.01 -1.38661 -0.749062 0
M  V30 24146 C 2261.24 -1.3854 -1.54342 0
M  V30 24147 C 2261.66 0.0216325 -1.88088 0
M  V30 24148 O 2261.02 1.00491 -1.50901 0
M  V30 24149 C 2261.07 -2.25197 -2.81636 0
M  V30 24150 O 2260.17 -1.67218 -3.76977 0
M  V30 24151 H 2259.52 -0.472375 -0.466646 0
M  V30 24152 H 2262.05 -1.8248 -0.925323 0
M  V30 24153 H 2262.06 -2.39215 -3.30515 0
M  V30 24154 H 2260.73 -3.27459 -2.56405 0
M  V30 24155 H 2259.31 -1.62366 -3.35696 0
M  V30 24156 N 2261.49 0.977736 -1.23605 0
M  V30 24157 C 2262.44 2.09185 -1.01708 0
M  V30 24158 C 2263.44 1.69341 0.0447917 0
M  V30 24159 O 2264.64 1.7967 -0.108933 0
M  V30 24160 H 2261.02 0.684307 -0.311815 0
M  V30 24161 H 2262.99 2.24819 -1.96211 0
M  V30 24162 C 2261.74 3.41985 -0.627806 0
M  V30 24163 H 2261.06 3.73097 -1.43662 0
M  V30 24164 H 2262.5 4.20871 -0.514127 0
M  V30 24165 C 2260.96 3.30288 0.66418 0
M  V30 24166 O 2261.49 3.63363 1.71261 0
M  V30 24167 N 2259.69 2.8344 0.641106 0
M  V30 24168 H 2259.24 2.56723 -0.212422 0
M  V30 24169 H 2259.2 2.75996 1.50578 0
M  V30 24170 N 2262.97 1.04818 1.1769 0
M  V30 24171 C 2264.22 0.75453 1.87487 0
M  V30 24172 C 2264.54 -0.720375 1.81206 0
M  V30 24173 O 2263.81 -1.52029 1.23547 0
M  V30 24174 H 2262.39 0.276114 0.694096 0
M  V30 24175 H 2265.05 1.32653 1.4279 0
M  V30 24176 H 2264.15 1.06611 2.93326 0
M  V30 24177 N 2264.45 -1.34055 0.828678 0
M  V30 24178 C 2265.67 -2.02858 0.431673 0
M  V30 24179 C 2266.1 -1.61976 -0.95631 0
M  V30 24180 O 2265.46 -0.807256 -1.62336 0
M  V30 24181 C 2265.51 -3.56406 0.548385 0
M  V30 24182 O 2264.61 -4.10158 -0.429484 0
M  V30 24183 H 2263.95 -0.640003 0.176897 0
M  V30 24184 H 2266.48 -1.71177 1.12069 0
M  V30 24185 H 2266.49 -4.05767 0.426267 0
M  V30 24186 H 2265.17 -3.85507 1.56067 0
M  V30 24187 H 2263.74 -3.71952 -0.265771 0
M  V30 24188 N 2265.93 -0.584167 -1.46374 0
M  V30 24189 C 2267.34 -0.157992 -1.8603 0
M  V30 24190 C 2267.69 1.27931 -1.48755 0
M  V30 24191 O 2266.81 1.96653 -0.903133 0
M  V30 24192 C 2267.41 -0.279951 -3.37641 0
M  V30 24193 C 2265.97 0.0913639 -3.76289 0
M  V30 24194 C 2265.12 -0.615226 -2.70389 0
M  V30 24195 H 2268.07 -0.792298 -1.37508 0
M  V30 24196 H 2268.09 0.494297 -3.77276 0
M  V30 24197 H 2267.6 -1.32614 -3.6474 0
M  V30 24198 H 2265.7 1.13763 -3.54808 0
M  V30 24199 H 2265.81 -0.28597 -4.78246 0
M  V30 24200 H 2264.18 -0.055328 -2.5464 0
M  V30 24201 H 2264.96 -1.66309 -3.00327 0
M  V30 24202 N 2267.41 1.54275 -0.322027 0
M  V30 24203 C 2268.65 2.00145 0.280454 0
M  V30 24204 C 2268.97 1.2118 1.52775 0
M  V30 24205 O 2268.24 0.313221 1.9338 0
M  V30 24206 H 2266.82 0.739352 0.106619 0
M  V30 24207 H 2269.49 1.8991 -0.438217 0
M  V30 24208 H 2268.58 3.07429 0.537917 0
M  V30 24209 N 2268.88 0.0501669 1.5752 0
M  V30 24210 C 2269.83 -0.934194 2.07983 0
M  V30 24211 C 2270.82 -1.27244 0.984767 0
M  V30 24212 O 2272.01 -1.25503 1.24811 0
M  V30 24213 C 2269.14 -2.2094 2.62755 0
M  V30 24214 C 2268.22 -1.89859 3.79229 0
M  V30 24215 N 2268.62 -1.29133 4.89038 0
M  V30 24216 C 2266.91 -2.19734 3.88115 0
M  V30 24217 C 2267.61 -1.15659 5.70086 0
M  V30 24218 N 2266.59 -1.65914 5.17662 0
M  V30 24219 H 2270.39 -0.460002 2.90278 0
M  V30 24220 H 2267.91 -0.154311 1.61665 0
M  V30 24221 H 2269.9 -2.92355 2.97211 0
M  V30 24222 H 2268.56 -2.68966 1.81899 0
M  V30 24223 H 2269.57 -0.963667 5.08855 0
M  V30 24224 H 2266.25 -2.70288 3.18199 0
M  V30 24225 H 2267.64 -0.685238 6.68397 0
M  V30 24226 N 2270.36 -1.56011 -0.223207 0
M  V30 24227 C 2271.29 -1.953 -1.27984 0
M  V30 24228 C 2272.27 -0.821005 -1.48975 0
M  V30 24229 O 2273.46 -1.08318 -1.61186 0
M  V30 24230 C 2270.59 -2.26827 -2.62996 0
M  V30 24231 C 2269.54 -3.42501 -2.56665 0
M  V30 24232 C 2268.87 -3.59629 -3.95691 0
M  V30 24233 C 2270.17 -4.77521 -2.11592 0
M  V30 24234 H 2271.86 -2.83812 -0.953475 0
M  V30 24235 H 2269.41 -1.36549 -0.45722 0
M  V30 24236 H 2271.36 -2.52904 -3.37072 0
M  V30 24237 H 2270.08 -1.35167 -2.97317 0
M  V30 24238 H 2268.74 -3.16471 -1.85046 0
M  V30 24239 H 2268.39 -2.65347 -4.27317 0
M  V30 24240 H 2268.09 -4.37431 -3.92337 0
M  V30 24241 H 2269.62 -3.88052 -4.71432 0
M  V30 24242 H 2271.03 -5.02814 -2.75411 0
M  V30 24243 H 2269.43 -5.58594 -2.19301 0
M  V30 24244 H 2270.5 -4.72989 -1.06816 0
M  V30 24245 N 2271.84 0.489844 -1.49794 0
M  V30 24246 C 2273.12 1.25117 -1.5035 0
M  V30 24247 C 2273.5 2.0976 -0.237503 0
M  V30 24248 O 2272.84 2.14783 0.779772 0
M  V30 24249 C 2273.05 2.09832 -2.78875 0
M  V30 24250 C 2274.4 2.68649 -3.28805 0
M  V30 24251 O 2275.43 2.20091 -2.80069 0
M  V30 24252 O 2274.29 3.57076 -4.13714 0
M  V30 24253 H 2271.38 0.566764 -0.602252 0
M  V30 24254 H 2273.93 0.5032 -1.62068 0
M  V30 24255 H 2272.7 1.47337 -3.62502 0
M  V30 24256 H 2272.32 2.918 -2.70072 0
M  V30 24257 N 2273.32 1.39056 0.741698 0
M  V30 24258 C 2274.25 1.39969 1.86898 0
M  V30 24259 C 2275.23 0.263949 1.6804 0
M  V30 24260 O 2276.41 0.468788 1.88457 0
M  V30 24261 C 2273.54 1.2358 3.24569 0
M  V30 24262 C 2272.5 2.34484 3.58052 0
M  V30 24263 C 2271.82 2.03189 4.94589 0
M  V30 24264 C 2273.12 3.7678 3.6171 0
M  V30 24265 H 2274.82 2.34305 1.86391 0
M  V30 24266 H 2272.36 1.12781 0.895341 0
M  V30 24267 H 2274.32 1.22841 4.03098 0
M  V30 24268 H 2273.04 0.257103 3.25586 0
M  V30 24269 H 2271.7 2.34428 2.81849 0
M  V30 24270 H 2271.35 1.03774 4.92179 0
M  V30 24271 H 2271.05 2.77474 5.17959 0
M  V30 24272 H 2272.57 2.04089 5.75482 0
M  V30 24273 H 2273.99 3.78802 4.30328 0
M  V30 24274 H 2272.38 4.50369 3.96595 0
M  V30 24275 H 2273.45 4.08239 2.61665 0
M  V30 24276 N 2274.8 -0.971167 1.24121 0
M  V30 24277 C 2276.04 -1.71623 1.08044 0
M  V30 24278 C 2276.37 -1.90438 -0.380373 0
M  V30 24279 O 2275.65 -1.46336 -1.28125 0
M  V30 24280 C 2275.93 -3.10904 1.81688 0
M  V30 24281 C 2275.79 -2.99602 3.35498 0
M  V30 24282 C 2277.1 -4.10499 1.58679 0
M  V30 24283 H 2274.22 -0.622912 0.393891 0
M  V30 24284 H 2276.87 -1.13 1.52745 0
M  V30 24285 H 2275.02 -3.6095 1.43691 0
M  V30 24286 H 2276.69 -2.57009 3.83072 0
M  V30 24287 H 2274.93 -2.35893 3.64056 0
M  V30 24288 H 2275.6 -3.98257 3.82224 0
M  V30 24289 H 2278.08 -3.69298 1.91725 0
M  V30 24290 H 2276.95 -5.06027 2.12669 0
M  V30 24291 H 2277.21 -4.38981 0.524238 0
M  V30 24292 N 2276.27 -1.05441 -1.17133 0
M  V30 24293 C 2277.18 -0.668405 -2.24877 0
M  V30 24294 C 2278.2 0.311657 -1.71186 0
M  V30 24295 O 2279.38 0.163126 -2.00738 0
M  V30 24296 C 2276.44 -0.0517089 -3.46661 0
M  V30 24297 C 2275.5 -1.08254 -4.15427 0
M  V30 24298 C 2274.74 -0.495175 -5.31398 0
M  V30 24299 O 2274.96 0.694643 -5.66154 0
M  V30 24300 O 2273.89 -1.23066 -5.89184 0
M  V30 24301 H 2277.72 -1.56642 -2.60187 0
M  V30 24302 H 2275.3 -0.826125 -1.24481 0
M  V30 24303 H 2277.19 0.290892 -4.20395 0
M  V30 24304 H 2275.86 0.819916 -3.13144 0
M  V30 24305 H 2274.77 -1.47717 -3.43701 0
M  V30 24306 H 2276.1 -1.9254 -4.52978 0
M  V30 24307 N 2277.75 1.33613 -0.835776 0
M  V30 24308 C 2279 1.97491 -0.429144 0
M  V30 24309 C 2279.32 1.66544 1.0143 0
M  V30 24310 O 2278.59 0.962774 1.70609 0
M  V30 24311 H 2277.17 0.730594 -0.155699 0
M  V30 24312 H 2279.83 1.6303 -1.06805 0
M  V30 24313 H 2278.93 3.07059 -0.558664 0
M  V30 24314 N 2279.23 0.591922 1.46062 0
M  V30 24315 C 2280.46 0.0850678 2.07225 0
M  V30 24316 C 2280.88 -1.21461 1.43628 0
M  V30 24317 O 2280.24 -1.73583 0.523336 0
M  V30 24318 C 2280.29 -0.0575933 3.60554 0
M  V30 24319 O 2279.39 -1.11181 3.9713 0
M  V30 24320 H 2278.73 0.0669684 0.660614 0
M  V30 24321 H 2281.26 0.817483 1.87559 0
M  V30 24322 H 2281.27 -0.260829 4.07165 0
M  V30 24323 H 2279.95 0.891488 4.06233 0
M  V30 24324 H 2278.52 -0.886292 3.62214 0
M  V30 24325 N 2280.71 -1.54102 0.330204 0
M  V30 24326 C 2281.64 -2.27514 -0.525313 0
M  V30 24327 C 2282.62 -1.28562 -1.11381 0
M  V30 24328 O 2283.8 -1.57385 -1.1377 0
M  V30 24329 C 2280.93 -3.03794 -1.68305 0
M  V30 24330 C 2279.89 -4.10139 -1.22353 0
M  V30 24331 C 2279.21 -4.74297 -2.46873 0
M  V30 24332 C 2280.51 -5.21234 -0.333605 0
M  V30 24333 H 2282.21 -2.99273 0.0870656 0
M  V30 24334 H 2279.75 -1.43935 0.0433146 0
M  V30 24335 H 2281.71 -3.53884 -2.28788 0
M  V30 24336 H 2280.43 -2.29663 -2.32212 0
M  V30 24337 H 2279.09 -3.60942 -0.641586 0
M  V30 24338 H 2278.74 -3.96775 -3.09159 0
M  V30 24339 H 2278.44 -5.46136 -2.16815 0
M  V30 24340 H 2279.96 -5.27164 -3.08107 0
M  V30 24341 H 2281.38 -5.6704 -0.844913 0
M  V30 24342 H 2279.77 -5.99969 -0.125507 0
M  V30 24343 H 2280.84 -4.8074 0.633808 0
M  V30 24344 N 2282.19 -0.0585199 -1.57491 0
M  V30 24345 C 2283.12 0.91114 -2.1499 0
M  V30 24346 C 2284.1 1.3195 -1.07346 0
M  V30 24347 O 2285.28 1.39292 -1.3532 0
M  V30 24348 C 2282.41 2.18342 -2.70082 0
M  V30 24349 C 2281.37 1.91489 -3.82774 0
M  V30 24350 C 2280.69 3.25234 -4.24414 0
M  V30 24351 C 2281.99 1.23066 -5.07594 0
M  V30 24352 H 2283.69 0.432194 -2.96264 0
M  V30 24353 H 2281.23 0.206444 -1.42512 0
M  V30 24354 H 2283.19 2.86582 -3.08948 0
M  V30 24355 H 2281.91 2.68455 -1.86009 0
M  V30 24356 H 2280.57 1.25658 -3.44392 0
M  V30 24357 H 2280.22 3.73162 -3.37282 0
M  V30 24358 H 2279.92 3.08062 -5.00371 0
M  V30 24359 H 2281.44 3.94693 -4.65886 0
M  V30 24360 H 2282.85 1.81353 -5.4386 0
M  V30 24361 H 2281.25 1.16197 -5.88743 0
M  V30 24362 H 2282.32 0.207762 -4.84455 0
M  V30 24363 N 2283.66 1.56128 0.21493 0
M  V30 24364 C 2284.6 1.89451 1.29 0
M  V30 24365 C 2285.61 0.783351 1.42715 0
M  V30 24366 O 2286.8 1.06168 1.43494 0
M  V30 24367 C 2283.9 2.09386 2.66478 0
M  V30 24368 C 2283.07 3.40439 2.74627 0
M  V30 24369 C 2282.13 3.49726 3.93164 0
M  V30 24370 O 2281.16 4.22707 3.81193 0
M  V30 24371 N 2282.36 2.81355 5.0776 0
M  V30 24372 H 2285.12 2.82262 1.00738 0
M  V30 24373 H 2282.68 1.56754 0.404943 0
M  V30 24374 H 2284.68 2.12908 3.44169 0
M  V30 24375 H 2283.25 1.23168 2.87312 0
M  V30 24376 H 2282.47 3.48959 1.83362 0
M  V30 24377 H 2283.75 4.26759 2.77046 0
M  V30 24378 H 2283.15 2.21853 5.20383 0
M  V30 24379 H 2281.71 2.90529 5.83469 0
M  V30 24380 N 2285.14 -0.481893 1.50052 0
M  V30 24381 C 2286.39 -1.23231 1.60183 0
M  V30 24382 C 2286.71 -1.92691 0.29921 0
M  V30 24383 O 2285.98 -1.8362 -0.682675 0
M  V30 24384 H 2284.56 -0.457849 0.59024 0
M  V30 24385 H 2287.22 -0.556848 1.86776 0
M  V30 24386 H 2286.32 -1.98602 2.40756 0
M  V30 24387 N 2286.62 -1.39448 -0.734313 0
M  V30 24388 C 2287.85 -1.39984 -1.52355 0
M  V30 24389 C 2288.26 0.00546432 -1.88799 0
M  V30 24390 O 2287.62 0.976971 -1.54148 0
M  V30 24391 C 2287.67 -2.27338 -2.81068 0
M  V30 24392 O 2287.39 -3.62396 -2.46172 0
M  V30 24393 C 2288.89 -2.36265 -3.75092 0
M  V30 24394 H 2286.11 -0.478112 -0.470798 0
M  V30 24395 H 2288.66 -1.83271 -0.907307 0
M  V30 24396 H 2286.81 -1.87463 -3.39023 0
M  V30 24397 H 2287.23 -4.08597 -3.28859 0
M  V30 24398 H 2288.7 -3.01634 -4.623 0
M  V30 24399 H 2289.18 -1.38202 -4.1689 0
M  V30 24400 H 2289.78 -2.76613 -3.23056 0
M  V30 24401 N 2288.1 0.964571 -1.24635 0
M  V30 24402 C 2289.01 2.09357 -1.05863 0
M  V30 24403 C 2290.02 1.74 0.00145797 0
M  V30 24404 O 2291.2 2.0043 -0.197381 0
M  V30 24405 C 2288.27 3.40185 -0.668938 0
M  V30 24406 C 2287.33 3.89471 -1.80585 0
M  V30 24407 C 2286.56 5.14056 -1.43466 0
M  V30 24408 O 2286.78 5.69468 -0.325875 0
M  V30 24409 O 2285.72 5.57803 -2.26139 0
M  V30 24410 H 2289.54 2.28091 -2.0052 0
M  V30 24411 H 2287.13 1.07758 -1.03482 0
M  V30 24412 H 2289.01 4.18846 -0.463285 0
M  V30 24413 H 2287.68 3.22745 0.24848 0
M  V30 24414 H 2286.59 3.11858 -2.06628 0
M  V30 24415 H 2287.92 4.11393 -2.70216 0
M  V30 24416 N 2289.58 1.0606 1.16572 0
M  V30 24417 C 2290.82 0.774373 1.86676 0
M  V30 24418 C 2291.15 -0.701115 1.8196 0
M  V30 24419 O 2290.42 -1.5071 1.25153 0
M  V30 24420 H 2289 0.283461 0.691129 0
M  V30 24421 H 2291.66 1.3416 1.41375 0
M  V30 24422 H 2290.75 1.09716 2.92179 0
M  V30 24423 N 2291.06 -1.33168 0.84285 0
M  V30 24424 C 2292.02 -2.27432 0.284105 0
M  V30 24425 C 2293.02 -1.51121 -0.549454 0
M  V30 24426 O 2294.21 -1.70383 -0.362669 0
M  V30 24427 C 2291.34 -3.3559 -0.599325 0
M  V30 24428 H 2292.53 -2.78364 1.11594 0
M  V30 24429 H 2290.09 -1.43639 0.616246 0
M  V30 24430 H 2290.82 -2.89906 -1.45344 0
M  V30 24431 H 2290.61 -3.921 -0.00284374 0
M  V30 24432 H 2292.1 -4.05855 -0.983417 0
M  V30 24433 N 2292.53 -0.599659 -1.45746 0
M  V30 24434 C 2293.78 -0.0893865 -2.01502 0
M  V30 24435 C 2294.1 1.28485 -1.47482 0
M  V30 24436 O 2295.3 1.88741 -1.95164 0
M  V30 24437 C 2293.76 -0.109145 -3.59734 0
M  V30 24438 C 2293.37 -1.48274 -4.22751 0
M  V30 24439 C 2295.11 0.346299 -4.23085 0
M  V30 24440 C 2293.02 -1.45931 -5.73113 0
M  V30 24441 H 2291.95 -0.029648 -0.753417 0
M  V30 24442 H 2294.6 -0.753818 -1.67302 0
M  V30 24443 H 2292.98 0.621785 -3.91088 0
M  V30 24444 H 2294.15 -2.23475 -4.02983 0
M  V30 24445 H 2292.47 -1.87962 -3.71563 0
M  V30 24446 H 2295.07 0.382886 -5.33327 0
M  V30 24447 H 2295.41 1.36736 -3.93203 0
M  V30 24448 H 2295.94 -0.331107 -3.9642 0
M  V30 24449 H 2292.68 -2.45773 -6.07681 0
M  V30 24450 H 2292.2 -0.749769 -5.95095 0
M  V30 24451 H 2293.88 -1.17952 -6.36157 0
M  V30 24452 N 2294.01 1.53925 -0.338371 0
M  V30 24453 C 2294.96 2.24847 0.520806 0
M  V30 24454 C 2295.93 1.24478 1.09974 0
M  V30 24455 O 2297.11 1.53198 1.13732 0
M  V30 24456 C 2294.25 3.02087 1.66845 0
M  V30 24457 C 2293.37 4.17301 1.11732 0
M  V30 24458 C 2292.5 4.82039 2.23185 0
M  V30 24459 C 2291.54 5.89331 1.65396 0
M  V30 24460 N 2290.68 6.4787 2.70571 0
M  V30 24461 H 2295.52 2.97862 -0.0905405 0
M  V30 24462 H 2293.05 1.46992 -0.056454 0
M  V30 24463 H 2295.01 3.45126 2.34401 0
M  V30 24464 H 2293.64 2.31379 2.25086 0
M  V30 24465 H 2292.69 3.78941 0.332852 0
M  V30 24466 H 2294.01 4.94486 0.65459 0
M  V30 24467 H 2293.16 5.28122 2.98616 0
M  V30 24468 H 2291.9 4.04267 2.728 0
M  V30 24469 H 2290.9 5.42636 0.884683 0
M  V30 24470 H 2292.13 6.69008 1.1664 0
M  V30 24471 H 2290.08 5.72964 3.1945 0
M  V30 24472 H 2289.99 7.20513 2.28905 0
M  V30 24473 H 2291.26 6.98607 3.45787 0
M  V30 24474 N 2295.49 0.0668712 1.57458 0
M  V30 24475 C 2296.74 -0.598282 1.94402 0
M  V30 24476 C 2297.09 -1.67516 0.946364 0
M  V30 24477 O 2296.38 -1.91573 -0.0321106 0
M  V30 24478 C 2296.58 -1.22403 3.35786 0
M  V30 24479 C 2296.41 -0.209288 4.49213 0
M  V30 24480 C 2295.18 0.204306 5.04887 0
M  V30 24481 C 2297.37 0.55152 5.11334 0
M  V30 24482 N 2295.36 1.21027 6.01852 0
M  V30 24483 C 2296.73 1.4101 6.03752 0
M  V30 24484 C 2298.78 0.608125 4.94172 0
M  V30 24485 C 2297.49 2.32025 6.8085 0
M  V30 24486 C 2299.51 1.50576 5.7191 0
M  V30 24487 C 2298.87 2.35203 6.63972 0
M  V30 24488 H 2294.97 -0.190101 0.758542 0
M  V30 24489 H 2297.56 0.142866 1.94175 0
M  V30 24490 H 2295.73 -1.93513 3.3676 0
M  V30 24491 H 2297.46 -1.84925 3.59979 0
M  V30 24492 H 2294.21 -0.177825 4.73266 0
M  V30 24493 H 2294.64 1.71061 6.55032 0
M  V30 24494 H 2299.28 -0.0319476 4.22788 0
M  V30 24495 H 2297 2.9707 7.51515 0
M  V30 24496 H 2300.58 1.55433 5.60653 0
M  V30 24497 H 2299.46 3.03534 7.23074 0
M  V30 24498 N 2296.97 -1.56239 -0.206647 0
M  V30 24499 C 2297.92 -1.94497 -1.27568 0
M  V30 24500 C 2298.91 -0.828888 -1.47736 0
M  V30 24501 O 2300.12 -1.01382 -1.48733 0
M  V30 24502 H 2296.49 -0.618308 -0.428018 0
M  V30 24503 H 2298.46 -2.83671 -0.925911 0
M  V30 24504 C 2297.21 -2.29084 -2.61564 0
M  V30 24505 H 2296.53 -3.14486 -2.46858 0
M  V30 24506 H 2297.97 -2.59726 -3.3514 0
M  V30 24507 C 2296.43 -1.12128 -3.17693 0
M  V30 24508 O 2296.96 -0.390223 -3.998 0
M  V30 24509 N 2295.17 -0.901146 -2.76275 0
M  V30 24510 H 2294.72 -1.49737 -2.09611 0
M  V30 24511 H 2294.67 -0.120374 -3.14169 0
M  V30 24512 N 2298.45 0.473929 -1.50305 0
M  V30 24513 C 2299.36 1.59817 -1.71743 0
M  V30 24514 C 2300.37 1.6331 -0.600486 0
M  V30 24515 O 2301.55 1.81231 -0.878473 0
M  V30 24516 C 2298.61 2.96049 -1.80433 0
M  V30 24517 C 2297.67 3.02967 -3.04154 0
M  V30 24518 C 2296.91 4.32701 -3.12419 0
M  V30 24519 O 2297.13 5.23045 -2.27551 0
M  V30 24520 O 2296.06 4.45152 -4.05121 0
M  V30 24521 H 2299.89 1.44653 -2.67038 0
M  V30 24522 H 2297.47 0.653124 -1.34368 0
M  V30 24523 H 2299.36 3.76967 -1.88345 0
M  V30 24524 H 2298.03 3.11418 -0.883211 0
M  V30 24525 H 2296.94 2.21137 -3.01744 0
M  V30 24526 H 2298.27 2.92534 -3.95834 0
M  V30 24527 N 2299.92 1.39835 0.726907 0
M  V30 24528 C 2300.89 1.38966 1.82267 0
M  V30 24529 C 2301.89 0.285362 1.58248 0
M  V30 24530 O 2303.08 0.543689 1.65498 0
M  V30 24531 C 2300.21 1.17025 3.20184 0
M  V30 24532 H 2301.4 2.36479 1.84439 0
M  V30 24533 H 2298.95 1.25518 0.931393 0
M  V30 24534 H 2299.69 0.202261 3.23669 0
M  V30 24535 H 2299.47 1.97003 3.39016 0
M  V30 24536 H 2300.96 1.19177 4.00233 0
M  V30 24537 N 2301.4 -0.957948 1.25144 0
M  V30 24538 C 2302.35 -2.0754 1.05023 0
M  V30 24539 C 2303.34 -1.69391 -0.0178454 0
M  V30 24540 O 2304.55 -1.79474 0.137504 0
M  V30 24541 H 2300.92 -0.679259 0.322662 0
M  V30 24542 H 2302.9 -2.21669 1.99763 0
M  V30 24543 C 2301.64 -3.40943 0.682134 0
M  V30 24544 H 2300.97 -3.70764 1.4958 0
M  V30 24545 H 2302.41 -4.2 0.581019 0
M  V30 24546 C 2300.87 -3.31303 -0.61155 0
M  V30 24547 O 2301.4 -3.66041 -1.65459 0
M  V30 24548 N 2299.6 -2.84424 -0.595932 0
M  V30 24549 H 2299.15 -2.56352 0.253237 0
M  V30 24550 H 2299.11 -2.78356 -1.46168 0
M  V30 24551 N 2302.88 -1.06677 -1.16008 0
M  V30 24552 C 2304.3 -0.790972 -1.38621 0
M  V30 24553 C 2304.5 0.607931 -1.9211 0
M  V30 24554 O 2303.55 1.36784 -2.12242 0
M  V30 24555 C 2304.86 -1.8591 -2.36343 0
M  V30 24556 C 2306.41 -1.88306 -2.5002 0
M  V30 24557 C 2306.89 -2.94183 -3.51028 0
M  V30 24558 N 2308.38 -2.93241 -3.58558 0
M  V30 24559 C 2309.11 -3.7181 -4.36514 0
M  V30 24560 N 2308.61 -4.60209 -5.17861 0
M  V30 24561 N 2310.4 -3.60186 -4.31535 0
M  V30 24562 H 2302.55 -1.9691 -0.79626 0
M  V30 24563 H 2304.82 -0.853511 -0.412582 0
M  V30 24564 H 2304.52 -2.86389 -2.04142 0
M  V30 24565 H 2304.4 -1.7134 -3.36039 0
M  V30 24566 H 2306.78 -0.884819 -2.81523 0
M  V30 24567 H 2306.86 -2.06953 -1.50346 0
M  V30 24568 H 2306.51 -3.94202 -3.20261 0
M  V30 24569 H 2306.44 -2.72784 -4.50441 0
M  V30 24570 H 2308.93 -2.29157 -3.00492 0
M  V30 24571 H 2309.24 -5.16807 -5.74569 0
M  V30 24572 H 2307.59 -4.64262 -5.1719 0
M  V30 24573 H 2310.78 -2.90508 -3.67046 0
M  V30 24574 H 2310.95 -4.21661 -4.92042 0
M  V30 24575 N 2304.36 1.32719 -0.8499 0
M  V30 24576 C 2305.77 1.79706 -0.50622 0
M  V30 24577 C 2306.12 1.70225 0.975597 0
M  V30 24578 O 2305.24 1.25802 1.76076 0
M  V30 24579 C 2305.84 3.26292 -0.912101 0
M  V30 24580 C 2304.4 3.71252 -0.620392 0
M  V30 24581 C 2303.55 2.5392 -1.11444 0
M  V30 24582 H 2306.5 1.20085 -1.03756 0
M  V30 24583 H 2306.52 3.79825 -0.22656 0
M  V30 24584 H 2306.03 3.3316 -1.99063 0
M  V30 24585 H 2304.13 3.69902 0.447609 0
M  V30 24586 H 2304.24 4.64256 -1.18335 0
M  V30 24587 H 2302.61 2.4902 -0.534878 0
M  V30 24588 H 2303.39 2.63546 -2.19997 0
M  V30 24589 N 2305.84 0.60738 1.45426 0
M  V30 24590 C 2307.08 0.102288 2.01841 0
M  V30 24591 C 2307.41 -1.27162 1.47834 0
M  V30 24592 O 2306.68 -1.83994 0.672529 0
M  V30 24593 H 2305.26 0.0348232 0.746188 0
M  V30 24594 H 2307.92 0.788731 1.78228 0
M  V30 24595 H 2307.01 0.0519134 3.12057 0
M  V30 24596 N 2307.31 -1.53743 0.34653 0
M  V30 24597 C 2308.26 -2.2512 -0.508874 0
M  V30 24598 C 2309.23 -1.2506 -1.09313 0
M  V30 24599 O 2310.42 -1.53799 -1.12918 0
M  V30 24600 C 2307.56 -3.02968 -1.65241 0
M  V30 24601 C 2306.67 -4.17888 -1.09517 0
M  V30 24602 C 2305.8 -4.83216 -2.20625 0
M  V30 24603 C 2304.84 -5.90199 -1.62269 0
M  V30 24604 N 2303.98 -6.49296 -2.67131 0
M  V30 24605 H 2308.82 -2.9781 0.106336 0
M  V30 24606 H 2306.36 -1.4696 0.0642485 0
M  V30 24607 H 2308.32 -3.46364 -2.32568 0
M  V30 24608 H 2306.95 -2.32569 -2.23856 0
M  V30 24609 H 2306 -3.79112 -0.312751 0
M  V30 24610 H 2307.31 -4.94826 -0.628357 0
M  V30 24611 H 2306.46 -5.29699 -2.95811 0
M  V30 24612 H 2305.2 -4.05708 -2.70652 0
M  V30 24613 H 2304.21 -5.43097 -0.855893 0
M  V30 24614 H 2305.43 -6.69617 -1.1309 0
M  V30 24615 H 2303.38 -5.7465 -3.16407 0
M  V30 24616 H 2303.3 -7.21717 -2.25081 0
M  V30 24617 H 2304.56 -7.00431 -3.42077 0
M  V30 24618 N 2308.79 -0.0752207 -1.5742 0
M  V30 24619 C 2310.04 0.593991 -1.93906 0
M  V30 24620 C 2310.37 1.69055 -0.955731 0
M  V30 24621 O 2309.65 1.94495 0.0145031 0
M  V30 24622 C 2309.93 1.16774 -3.4064 0
M  V30 24623 C 2309.78 0.0776002 -4.49733 0
M  V30 24624 C 2311.1 2.07221 -3.88262 0
M  V30 24625 H 2308.22 0.214454 -0.705109 0
M  V30 24626 H 2310.86 -0.141887 -1.89469 0
M  V30 24627 H 2309.01 1.79488 -3.44552 0
M  V30 24628 H 2310.68 -0.555653 -4.57941 0
M  V30 24629 H 2308.93 -0.591361 -4.2975 0
M  V30 24630 H 2309.6 0.519507 -5.4955 0
M  V30 24631 H 2312.07 1.54438 -3.86378 0
M  V30 24632 H 2310.95 2.44299 -4.91537 0
M  V30 24633 H 2311.21 2.98185 -3.26402 0
M  V30 24634 N 2310.27 1.56347 0.198358 0
M  V30 24635 C 2311.68 1.70382 0.763328 0
M  V30 24636 C 2312.03 0.681236 1.83994 0
M  V30 24637 O 2311.16 -0.163012 2.15785 0
M  V30 24638 C 2311.75 3.08911 1.39137 0
M  V30 24639 C 2310.31 3.24723 1.90347 0
M  V30 24640 C 2309.46 2.66332 0.772187 0
M  V30 24641 H 2312.41 1.58678 -0.0266656 0
M  V30 24642 H 2312.43 3.06059 2.2607 0
M  V30 24643 H 2311.94 3.83315 0.607571 0
M  V30 24644 H 2310.04 2.5523 2.71456 0
M  V30 24645 H 2310.16 4.32194 2.0675 0
M  V30 24646 H 2308.52 2.25422 1.18562 0
M  V30 24647 H 2309.3 3.433 0.000675217 0
M  V30 24648 N 2311.75 -0.465951 1.50554 0
M  V30 24649 C 2313 -1.21765 1.61801 0
M  V30 24650 C 2313.32 -1.91837 0.320729 0
M  V30 24651 O 2312.58 -1.82993 -0.693692 0
M  V30 24652 C 2312.88 -2.28088 2.75156 0
M  V30 24653 C 2312.54 -1.75232 4.15457 0
M  V30 24654 C 2311.21 -1.60538 4.53631 0
M  V30 24655 C 2313.56 -1.36075 5.03123 0
M  V30 24656 C 2310.89 -1.05118 5.77206 0
M  V30 24657 C 2313.24 -0.820946 6.27251 0
M  V30 24658 C 2311.9 -0.660678 6.64222 0
M  V30 24659 H 2311.17 -0.445571 0.59207 0
M  V30 24660 H 2313.82 -0.512895 1.84504 0
M  V30 24661 H 2312.12 -3.04491 2.46561 0
M  V30 24662 H 2313.82 -2.86018 2.8106 0
M  V30 24663 H 2310.41 -1.87637 3.85344 0
M  V30 24664 H 2314.59 -1.46259 4.74259 0
M  V30 24665 H 2309.85 -0.914513 6.04522 0
M  V30 24666 H 2314.02 -0.508895 6.94538 0
M  V30 24667 H 2311.65 -0.229092 7.59855 0
M  V30 24668 N 2313.23 -1.40218 -0.719481 0
M  V30 24669 C 2314.16 -1.42925 -1.84647 0
M  V30 24670 C 2315.14 -0.290649 -1.67598 0
M  V30 24671 O 2316.32 -0.49871 -1.87687 0
M  V30 24672 C 2313.45 -1.28728 -3.22562 0
M  V30 24673 C 2312.41 -2.4015 -3.54277 0
M  V30 24674 C 2311.73 -2.11032 -4.91294 0
M  V30 24675 C 2313.03 -3.82487 -3.5567 0
M  V30 24676 H 2314.73 -2.37241 -1.8264 0
M  V30 24677 H 2312.27 -1.14192 -0.877285 0
M  V30 24678 H 2314.23 -1.29239 -4.01093 0
M  V30 24679 H 2312.95 -0.308868 -3.25136 0
M  V30 24680 H 2311.61 -2.38882 -2.78084 0
M  V30 24681 H 2311.26 -1.11591 -4.90466 0
M  V30 24682 H 2310.96 -2.85679 -5.1348 0
M  V30 24683 H 2312.48 -2.13219 -5.72163 0
M  V30 24684 H 2313.89 -3.856 -4.24247 0
M  V30 24685 H 2312.29 -4.56621 -3.8938 0
M  V30 24686 H 2313.36 -4.12351 -2.55137 0
M  V30 24687 N 2314.7 0.951297 -1.25651 0
M  V30 24688 C 2316.12 1.22298 -1.02545 0
M  V30 24689 C 2316.32 1.99871 0.25568 0
M  V30 24690 O 2315.38 2.33228 0.967517 0
M  V30 24691 C 2316.69 1.99411 -2.25068 0
M  V30 24692 C 2318.24 2.12442 -2.29864 0
M  V30 24693 C 2318.71 2.92954 -3.52054 0
M  V30 24694 N 2320.2 3.00532 -3.5247 0
M  V30 24695 C 2320.94 3.63231 -4.43679 0
M  V30 24696 N 2320.43 4.27514 -5.45164 0
M  V30 24697 N 2322.23 3.60404 -4.31353 0
M  V30 24698 H 2314.38 0.432434 -2.07951 0
M  V30 24699 H 2316.64 0.2538 -0.913394 0
M  V30 24700 H 2316.35 1.49812 -3.18197 0
M  V30 24701 H 2316.22 3.00107 -2.28507 0
M  V30 24702 H 2318.61 2.61237 -1.37257 0
M  V30 24703 H 2318.69 1.1104 -2.30442 0
M  V30 24704 H 2318.33 2.44849 -4.44985 0
M  V30 24705 H 2318.26 3.9459 -3.48722 0
M  V30 24706 H 2320.75 2.54821 -2.7906 0
M  V30 24707 H 2321.07 4.73223 -6.10966 0
M  V30 24708 H 2319.41 4.26131 -5.49033 0
M  V30 24709 H 2322.6 3.09371 -3.51294 0
M  V30 24710 H 2322.78 4.08982 -5.02631 0
M  V30 24711 N 2316.18 1.07291 1.1544 0
M  V30 24712 C 2317.43 0.796879 1.86488 0
M  V30 24713 C 2317.76 -0.675339 1.82079 0
M  V30 24714 O 2317.04 -1.49558 1.24349 0
M  V30 24715 C 2317.32 1.30495 3.35624 0
M  V30 24716 C 2317.17 2.84167 3.48668 0
M  V30 24717 C 2318.49 0.920983 4.30356 0
M  V30 24718 H 2315.61 0.290951 0.677139 0
M  V30 24719 H 2318.25 1.33058 1.3563 0
M  V30 24720 H 2316.4 0.850949 3.79066 0
M  V30 24721 H 2318.07 3.37851 3.14093 0
M  V30 24722 H 2316.32 3.22396 2.90247 0
M  V30 24723 H 2316.99 3.14785 4.53447 0
M  V30 24724 H 2319.46 1.31217 3.94869 0
M  V30 24725 H 2318.34 1.30382 5.3319 0
M  V30 24726 H 2318.6 -0.173149 4.41761 0
M  V30 24727 N 2317.66 -1.32267 0.856927 0
M  V30 24728 C 2318.62 -2.27118 0.308211 0
M  V30 24729 C 2319.62 -1.51696 -0.533394 0
M  V30 24730 O 2320.81 -1.70758 -0.344577 0
M  V30 24731 C 2317.95 -3.36207 -0.563698 0
M  V30 24732 H 2319.14 -2.77165 1.1454 0
M  V30 24733 H 2316.69 -1.42977 0.631446 0
M  V30 24734 H 2317.43 -2.91432 -1.42261 0
M  V30 24735 H 2317.21 -3.92081 0.0387439 0
M  V30 24736 H 2318.7 -4.06876 -0.940315 0
M  V30 24737 N 2319.14 -0.615084 -1.45102 0
M  V30 24738 C 2320.37 -0.119806 -2.06553 0
M  V30 24739 C 2320.78 1.19896 -1.45844 0
M  V30 24740 O 2320.14 1.73193 -0.575355 0
M  V30 24741 C 2320.19 0.0183005 -3.61495 0
M  V30 24742 O 2319.91 -1.2483 -4.19939 0
M  V30 24743 C 2321.41 0.54416 -4.39947 0
M  V30 24744 H 2318.63 -0.0722856 -0.667095 0
M  V30 24745 H 2321.18 -0.844942 -1.86228 0
M  V30 24746 H 2319.33 0.693798 -3.81137 0
M  V30 24747 H 2319.74 -1.08279 -5.13202 0
M  V30 24748 H 2321.22 0.589856 -5.48839 0
M  V30 24749 H 2321.7 1.56798 -4.10257 0
M  V30 24750 H 2322.3 -0.0975451 -4.25188 0
M  V30 24751 N 2320.62 1.53557 -0.354678 0
M  V30 24752 C 2321.53 2.29098 0.50511 0
M  V30 24753 C 2322.54 1.34638 1.10221 0
M  V30 24754 O 2323.72 1.67686 1.1155 0
M  V30 24755 C 2320.78 3.0574 1.63474 0
M  V30 24756 C 2319.85 4.15847 1.06629 0
M  V30 24757 C 2319.08 4.88826 2.14208 0
M  V30 24758 O 2319.3 4.61568 3.35129 0
M  V30 24759 O 2318.24 5.75016 1.77877 0
M  V30 24760 H 2322.06 3.03503 -0.10929 0
M  V30 24761 H 2319.65 1.48922 -0.119384 0
M  V30 24762 H 2321.53 3.53634 2.29174 0
M  V30 24763 H 2320.2 2.34182 2.23474 0
M  V30 24764 H 2319.11 3.72231 0.373499 0
M  V30 24765 H 2320.44 4.8954 0.510995 0
M  V30 24766 N 2322.1 0.083568 1.57378 0
M  V30 24767 C 2323.32 -0.594952 1.98683 0
M  V30 24768 C 2323.75 -1.61639 0.961997 0
M  V30 24769 O 2323.1 -1.81161 -0.070967 0
M  V30 24770 C 2323.15 -1.22954 3.38991 0
M  V30 24771 O 2322.26 -2.3454 3.39212 0
M  V30 24772 H 2321.6 -0.151991 0.64637 0
M  V30 24773 H 2324.13 0.161568 2.03961 0
M  V30 24774 H 2324.14 -1.57359 3.76433 0
M  V30 24775 H 2322.81 -0.481155 4.13107 0
M  V30 24776 H 2321.39 -2.01841 3.13552 0
M  V30 24777 N 2323.57 -1.5645 -0.190064 0
M  V30 24778 C 2324.8 -1.85389 -0.929831 0
M  V30 24779 C 2325.22 -0.667735 -1.75849 0
M  V30 24780 O 2324.58 0.383428 -1.77199 0
M  V30 24781 C 2324.63 -3.12596 -1.79767 0
M  V30 24782 O 2323.73 -2.93502 -2.89708 0
M  V30 24783 H 2323.07 -0.610312 -0.261563 0
M  V30 24784 H 2325.6 -2.0368 -0.193861 0
M  V30 24785 H 2325.61 -3.43519 -2.20133 0
M  V30 24786 H 2324.29 -3.98546 -1.18885 0
M  V30 24787 H 2322.87 -2.73888 -2.5306 0
M  V30 24788 N 2325.05 0.45796 -1.50799 0
M  V30 24789 C 2326.01 1.53671 -1.70053 0
M  V30 24790 C 2327.01 1.50324 -0.570908 0
M  V30 24791 O 2328.2 1.52711 -0.838153 0
M  V30 24792 C 2325.34 2.93273 -1.73793 0
M  V30 24793 H 2326.53 1.37912 -2.66309 0
M  V30 24794 H 2324.08 0.685246 -1.40478 0
M  V30 24795 H 2324.82 3.14461 -0.792773 0
M  V30 24796 H 2324.6 2.97108 -2.55869 0
M  V30 24797 H 2326.09 3.71567 -1.90598 0
M  V30 24798 N 2326.53 1.40598 0.712035 0
M  V30 24799 C 2327.48 1.41145 1.82611 0
M  V30 24800 C 2328.45 0.267932 1.63925 0
M  V30 24801 O 2329.63 0.466527 1.85009 0
M  V30 24802 C 2326.77 1.2833 3.20352 0
M  V30 24803 C 2325.88 2.52417 3.50585 0
M  V30 24804 C 2325.02 2.32017 4.77851 0
M  V30 24805 C 2324.06 3.51663 5.00999 0
M  V30 24806 N 2323.2 3.30436 6.19481 0
M  V30 24807 H 2328.04 2.36368 1.81478 0
M  V30 24808 H 2325.57 1.1739 0.886455 0
M  V30 24809 H 2327.53 1.18906 3.99897 0
M  V30 24810 H 2326.16 0.367245 3.20704 0
M  V30 24811 H 2325.21 2.72356 2.65568 0
M  V30 24812 H 2326.52 3.41464 3.63598 0
M  V30 24813 H 2325.68 2.19966 5.6542 0
M  V30 24814 H 2324.42 1.40401 4.67054 0
M  V30 24815 H 2323.42 3.64187 4.11884 0
M  V30 24816 H 2324.65 4.44211 5.13666 0
M  V30 24817 H 2322.59 2.41505 6.09927 0
M  V30 24818 H 2322.51 4.1305 6.33187 0
M  V30 24819 H 2323.78 3.22125 7.09828 0
M  V30 24820 N 2328.01 -0.94462 1.26153 0
M  V30 24821 C 2329.24 -1.72487 1.14262 0
M  V30 24822 C 2329.65 -1.86361 -0.302523 0
M  V30 24823 O 2329.01 -1.36852 -1.20739 0
M  V30 24824 C 2329.06 -3.13344 1.80272 0
M  V30 24825 O 2328.78 -3.00137 3.19138 0
M  V30 24826 C 2330.28 -4.076 1.7429 0
M  V30 24827 H 2327.5 -0.540174 0.398061 0
M  V30 24828 H 2330.04 -1.18443 1.66708 0
M  V30 24829 H 2328.2 -3.643 1.31772 0
M  V30 24830 H 2328.61 -3.89065 3.51751 0
M  V30 24831 H 2330.09 -5.04009 2.2512 0
M  V30 24832 H 2330.56 -4.33444 0.708708 0
M  V30 24833 H 2331.17 -3.62563 2.22325 0
M  V30 24834 N 2329.49 -1.07901 -1.1487 0
M  V30 24835 C 2330.9 -0.827392 -1.67365 0
M  V30 24836 C 2331.25 0.64666 -1.85237 0
M  V30 24837 O 2330.37 1.50001 -1.55976 0
M  V30 24838 C 2330.97 -1.49537 -3.04013 0
M  V30 24839 C 2329.53 -1.29112 -3.53563 0
M  V30 24840 C 2328.67 -1.56147 -2.29158 0
M  V30 24841 H 2331.62 -1.2403 -0.990061 0
M  V30 24842 H 2331.65 -0.919708 -3.69218 0
M  V30 24843 H 2331.16 -2.56819 -2.90974 0
M  V30 24844 H 2329.26 -0.238778 -3.71834 0
M  V30 24845 H 2329.37 -2.01519 -4.34657 0
M  V30 24846 H 2327.74 -0.982758 -2.34976 0
M  V30 24847 H 2328.52 -2.64623 -2.187 0
M  V30 24848 N 2330.96 1.31811 -0.863929 0
M  V30 24849 C 2332.19 2.01642 -0.485305 0
M  V30 24850 C 2332.61 1.64455 0.913029 0
M  V30 24851 O 2331.97 0.850013 1.60139 0
M  V30 24852 C 2332.02 3.54827 -0.642687 0
M  V30 24853 O 2331.12 4.11152 0.320587 0
M  V30 24854 H 2330.46 0.635087 -0.193804 0
M  V30 24855 H 2332.99 1.68146 -1.16568 0
M  V30 24856 H 2333 4.04494 -0.533699 0
M  V30 24857 H 2331.68 3.81234 -1.66233 0
M  V30 24858 H 2330.26 3.72526 0.167061 0
M  V30 24859 N 2332.44 0.62277 1.44773 0
M  V30 24860 C 2333.39 -0.0871274 2.30635 0
M  V30 24861 C 2334.36 -0.845072 1.42996 0
M  V30 24862 O 2335.54 -0.827782 1.71908 0
M  V30 24863 C 2332.68 -1.06839 3.28146 0
M  V30 24864 C 2331.8 -0.309733 4.30888 0
M  V30 24865 C 2330.93 -1.28206 5.15496 0
M  V30 24866 C 2329.97 -0.51209 6.09954 0
M  V30 24867 N 2329.11 -1.43446 6.8729 0
M  V30 24868 H 2333.95 0.651025 2.90802 0
M  V30 24869 H 2331.48 0.332835 1.43285 0
M  V30 24870 H 2333.44 -1.65059 3.8316 0
M  V30 24871 H 2332.07 -1.77377 2.69699 0
M  V30 24872 H 2331.12 0.388247 3.78414 0
M  V30 24873 H 2332.44 0.290341 4.97954 0
M  V30 24874 H 2331.59 -1.93586 5.74986 0
M  V30 24875 H 2330.33 -1.91607 4.48484 0
M  V30 24876 H 2329.33 0.155248 5.49581 0
M  V30 24877 H 2330.56 0.117077 6.78999 0
M  V30 24878 H 2328.51 -2.05583 6.22954 0
M  V30 24879 H 2328.42 -0.888203 7.50764 0
M  V30 24880 H 2329.69 -2.07736 7.51309 0
M  V30 24881 N 2333.92 -1.53367 0.362817 0
M  V30 24882 C 2334.85 -2.28577 -0.476936 0
M  V30 24883 C 2335.83 -1.30896 -1.08629 0
M  V30 24884 O 2337.02 -1.59763 -1.10406 0
M  V30 24885 C 2334.15 -3.07296 -1.61823 0
M  V30 24886 C 2333.1 -4.12642 -1.13626 0
M  V30 24887 C 2332.43 -4.79427 -2.36757 0
M  V30 24888 C 2333.73 -5.21824 -0.222969 0
M  V30 24889 H 2335.42 -2.99021 0.150526 0
M  V30 24890 H 2332.97 -1.43811 0.0738356 0
M  V30 24891 H 2334.92 -3.58657 -2.21231 0
M  V30 24892 H 2333.64 -2.34537 -2.27288 0
M  V30 24893 H 2332.3 -3.62222 -0.564881 0
M  V30 24894 H 2331.95 -4.03243 -3.00673 0
M  V30 24895 H 2331.65 -5.50612 -2.05182 0
M  V30 24896 H 2333.17 -5.33581 -2.96856 0
M  V30 24897 H 2334.59 -5.68704 -0.724445 0
M  V30 24898 H 2332.98 -6.001 0.00178349 0
M  V30 24899 H 2334.05 -4.79287 0.735638 0
M  V30 24900 N 2335.4 -0.091913 -1.57332 0
M  V30 24901 C 2336.33 0.865333 -2.16874 0
M  V30 24902 C 2337.31 1.29644 -1.1012 0
M  V30 24903 O 2338.49 1.3639 -1.38244 0
M  V30 24904 C 2335.62 2.12564 -2.74652 0
M  V30 24905 C 2334.58 1.83326 -3.8675 0
M  V30 24906 C 2333.9 3.16158 -4.31217 0
M  V30 24907 C 2335.2 1.12271 -5.10091 0
M  V30 24908 H 2336.9 0.369255 -2.97114 0
M  V30 24909 H 2334.44 0.176168 -1.42918 0
M  V30 24910 H 2336.4 2.79964 -3.14957 0
M  V30 24911 H 2335.12 2.64449 -1.91662 0
M  V30 24912 H 2333.78 1.18325 -3.4698 0
M  V30 24913 H 2333.43 3.65924 -3.45121 0
M  V30 24914 H 2333.13 2.97379 -5.06793 0
M  V30 24915 H 2334.65 3.84722 -4.74153 0
M  V30 24916 H 2336.07 1.69776 -5.47585 0
M  V30 24917 H 2334.46 1.03682 -5.91075 0
M  V30 24918 H 2335.53 0.104956 -4.84786 0
M  V30 24919 N 2336.88 1.56548 0.181765 0
M  V30 24920 C 2338.15 1.72253 0.926734 0
M  V30 24921 C 2338.53 0.650421 2.0083 0
M  V30 24922 O 2337.88 -0.336481 2.26009 0
M  V30 24923 C 2338.09 3.15073 1.50101 0
M  V30 24924 C 2339.44 3.75714 1.97798 0
M  V30 24925 O 2340.46 3.18285 1.59916 0
M  V30 24926 O 2339.32 4.7653 2.67547 0
M  V30 24927 H 2336.42 0.703046 0.435494 0
M  V30 24928 H 2338.96 1.68842 0.170414 0
M  V30 24929 H 2337.73 3.8458 0.722053 0
M  V30 24930 H 2337.36 3.22767 2.3218 0
M  V30 24931 N 2338.35 -0.449957 1.5104 0
M  V30 24932 C 2339.77 -1.03023 1.55702 0
M  V30 24933 C 2340.12 -1.92622 0.372973 0
M  V30 24934 O 2339.24 -2.10262 -0.511734 0
M  V30 24935 C 2339.84 -1.87518 2.82174 0
M  V30 24936 C 2338.4 -2.40617 2.89449 0
M  V30 24937 C 2337.54 -1.195 2.5023 0
M  V30 24938 H 2340.49 -0.231718 1.56999 0
M  V30 24939 H 2340.51 -2.7283 2.65224 0
M  V30 24940 H 2340.03 -1.2228 3.68333 0
M  V30 24941 H 2338.13 -3.09347 2.07691 0
M  V30 24942 H 2338.24 -2.74278 3.92821 0
M  V30 24943 H 2336.6 -1.5364 2.03142 0
M  V30 24944 H 2337.39 -0.558913 3.3872 0
M  V30 24945 N 2339.83 -1.40974 -0.704569 0
M  V30 24946 C 2340.76 -1.44876 -1.83121 0
M  V30 24947 C 2341.74 -0.308409 -1.67281 0
M  V30 24948 O 2342.93 -0.518589 -1.87148 0
M  V30 24949 C 2340.06 -1.32142 -3.21179 0
M  V30 24950 C 2339.01 -2.43894 -3.5171 0
M  V30 24951 C 2338.34 -2.16231 -4.89028 0
M  V30 24952 C 2339.64 -3.86238 -3.51593 0
M  V30 24953 H 2341.33 -2.39164 -1.80113 0
M  V30 24954 H 2338.88 -1.15116 -0.865124 0
M  V30 24955 H 2340.83 -1.33486 -3.99699 0
M  V30 24956 H 2339.56 -0.343336 -3.2479 0
M  V30 24957 H 2338.21 -2.41818 -2.75535 0
M  V30 24958 H 2337.86 -1.16787 -4.89254 0
M  V30 24959 H 2337.56 -2.91109 -5.10421 0
M  V30 24960 H 2339.09 -2.19275 -5.69869 0
M  V30 24961 H 2340.5 -3.90078 -4.20134 0
M  V30 24962 H 2338.9 -4.60725 -3.84515 0
M  V30 24963 H 2339.97 -4.15033 -2.50749 0
M  V30 24964 N 2341.31 0.937917 -1.26653 0
M  V30 24965 C 2342.27 2.01865 -1.08549 0
M  V30 24966 C 2343.27 1.60767 -0.032761 0
M  V30 24967 O 2344.46 1.71992 -0.276458 0
M  V30 24968 C 2341.6 3.34611 -0.651769 0
M  V30 24969 H 2342.79 2.19357 -2.04506 0
M  V30 24970 H 2340.34 1.11732 -1.09296 0
M  V30 24971 H 2341.08 3.22818 0.309639 0
M  V30 24972 H 2340.86 3.65795 -1.41195 0
M  V30 24973 H 2342.35 4.14001 -0.547046 0
M  V30 24974 N 2342.79 1.08509 1.14296 0
M  V30 24975 C 2344.03 0.826471 1.85852 0
M  V30 24976 C 2344.39 -0.640846 1.81414 0
M  V30 24977 O 2343.68 -1.46516 1.23465 0
M  V30 24978 C 2343.88 1.28385 3.33545 0
M  V30 24979 C 2343.71 2.79409 3.52364 0
M  V30 24980 C 2342.48 3.4717 3.67153 0
M  V30 24981 C 2344.67 3.77579 3.49197 0
M  V30 24982 N 2342.66 4.86716 3.7414 0
M  V30 24983 C 2344.03 5.03027 3.62441 0
M  V30 24984 C 2346.08 3.70569 3.3254 0
M  V30 24985 C 2344.78 6.22296 3.6075 0
M  V30 24986 C 2346.81 4.89314 3.32153 0
M  V30 24987 C 2346.17 6.13601 3.45939 0
M  V30 24988 H 2342.27 0.355155 0.696699 0
M  V30 24989 H 2344.86 1.38365 1.36979 0
M  V30 24990 H 2343.03 0.754233 3.81006 0
M  V30 24991 H 2344.76 0.971538 3.92865 0
M  V30 24992 H 2341.51 2.97587 3.68428 0
M  V30 24993 H 2341.94 5.59377 3.81349 0
M  V30 24994 H 2346.58 2.75413 3.20792 0
M  V30 24995 H 2344.3 7.17761 3.71274 0
M  V30 24996 H 2347.88 4.85578 3.20476 0
M  V30 24997 H 2346.76 7.03945 3.45587 0
M  V30 24998 N 2344.27 -1.31351 0.870907 0
M  V30 24999 C 2345.54 -1.91405 0.40294 0
M  V30 25000 C 2345.92 -1.79246 -1.11509 0
M  V30 25001 O 2345.27 -1.20073 -1.94409 0
M  V30 25002 C 2345.48 -3.37583 0.88536 0
M  V30 25003 C 2346.83 -4.14689 0.912044 0
M  V30 25004 O 2347.85 -3.46369 0.831076 0
M  V30 25005 O 2346.71 -5.36718 1.02936 0
M  V30 25006 H 2343.81 -0.818143 0.120713 0
M  V30 25007 H 2346.35 -1.40013 0.958881 0
M  V30 25008 H 2345.12 -3.40451 1.92895 0
M  V30 25009 H 2344.75 -3.96407 0.307783 0
M  V30 25010 N 2345.74 -0.630439 -1.44441 0
M  V30 25011 C 2346.69 0.087102 -2.32437 0
M  V30 25012 C 2347.69 0.836499 -1.47306 0
M  V30 25013 O 2348.89 0.749477 -1.63655 0
M  V30 25014 H 2345.27 0.0469363 -0.750534 0
M  V30 25015 H 2347.24 -0.673148 -2.90708 0
M  V30 25016 C 2345.99 1.05557 -3.3129 0
M  V30 25017 H 2345.31 0.488356 -3.96806 0
M  V30 25018 H 2346.75 1.52714 -3.95543 0
M  V30 25019 C 2345.21 2.14048 -2.60164 0
M  V30 25020 O 2345.74 3.2212 -2.40003 0
M  V30 25021 N 2343.95 1.89964 -2.19914 0
M  V30 25022 H 2343.49 1.0208 -2.36511 0
M  V30 25023 H 2343.45 2.62753 -1.72651 0
M  V30 25024 N 2347.22 1.53172 -0.370945 0
M  V30 25025 C 2348.17 2.22682 0.489549 0
M  V30 25026 C 2349.16 1.22397 1.0444 0
M  V30 25027 O 2350.35 1.47821 0.973552 0
M  V30 25028 C 2347.48 3.02354 1.62595 0
M  V30 25029 C 2346.56 4.1002 1.08372 0
M  V30 25030 N 2346.95 5.05106 0.264916 0
M  V30 25031 C 2345.25 4.24822 1.35801 0
M  V30 25032 C 2345.95 5.81691 -0.0325777 0
M  V30 25033 N 2344.93 5.4064 0.566486 0
M  V30 25034 H 2348.73 2.93553 -0.142781 0
M  V30 25035 H 2346.25 1.61408 -0.179249 0
M  V30 25036 H 2348.24 3.50673 2.25464 0
M  V30 25037 H 2346.9 2.33015 2.26128 0
M  V30 25038 H 2347.91 5.1781 -0.0963263 0
M  V30 25039 H 2344.59 3.66711 1.99574 0
M  V30 25040 H 2345.98 6.68297 -0.694847 0
M  V30 25041 N 2348.7 0.100255 1.57281 0
M  V30 25042 C 2349.93 -0.569647 1.98592 0
M  V30 25043 C 2350.34 -1.61942 0.978343 0
M  V30 25044 O 2349.68 -1.83657 -0.0395786 0
M  V30 25045 C 2349.74 -1.27094 3.36284 0
M  V30 25046 C 2349.41 -0.371329 4.55489 0
M  V30 25047 C 2350.4 0.382595 5.1849 0
M  V30 25048 C 2348.09 -0.287877 5.01474 0
M  V30 25049 C 2350.08 1.2079 6.2585 0
M  V30 25050 C 2347.77 0.541072 6.087 0
M  V30 25051 C 2348.77 1.2876 6.70753 0
M  V30 25052 O 2348.46 2.10283 7.7591 0
M  V30 25053 H 2348.19 -0.15697 0.657523 0
M  V30 25054 H 2350.74 0.17777 2.04629 0
M  V30 25055 H 2348.97 -2.06504 3.26945 0
M  V30 25056 H 2350.66 -1.83589 3.62008 0
M  V30 25057 H 2351.43 0.327885 4.8389 0
M  V30 25058 H 2347.31 -0.858609 4.52934 0
M  V30 25059 H 2350.85 1.79108 6.74215 0
M  V30 25060 H 2346.75 0.597244 6.42731 0
M  V30 25061 H 2347.52 2.03021 7.92922 0
M  V30 25062 N 2350.18 -1.56643 -0.17346 0
M  V30 25063 C 2351.43 -1.81513 -0.888674 0
M  V30 25064 C 2351.75 -0.676904 -1.82874 0
M  V30 25065 O 2351.02 0.30338 -1.93537 0
M  V30 25066 H 2349.6 -0.669588 -0.331152 0
M  V30 25067 H 2352.26 -1.94124 -0.173789 0
M  V30 25068 H 2351.36 -2.75481 -1.46686 0
M  V30 25069 N 2351.66 0.44194 -1.51277 0
M  V30 25070 C 2352.89 1.21431 -1.67518 0
M  V30 25071 C 2353.3 1.85127 -0.370582 0
M  V30 25072 O 2352.66 1.70514 0.650468 0
M  V30 25073 C 2352.71 2.30172 -2.78752 0
M  V30 25074 O 2352.43 1.69082 -4.04157 0
M  V30 25075 C 2353.93 3.20535 -3.06222 0
M  V30 25076 H 2351.15 0.366168 -0.562283 0
M  V30 25077 H 2353.69 0.524209 -1.97667 0
M  V30 25078 H 2351.85 2.94906 -2.51215 0
M  V30 25079 H 2352.26 2.40914 -4.65898 0
M  V30 25080 H 2353.74 3.92981 -3.87647 0
M  V30 25081 H 2354.21 3.81023 -2.18445 0
M  V30 25082 H 2354.82 2.61507 -3.35401 0
M  V30 25083 N 2353.14 1.41345 0.697083 0
M  V30 25084 C 2354.07 1.39005 1.82237 0
M  V30 25085 C 2355.08 0.292457 1.60152 0
M  V30 25086 O 2356.27 0.554078 1.69683 0
M  V30 25087 C 2353.37 1.14494 3.18974 0
M  V30 25088 C 2352.54 2.36264 3.68101 0
M  V30 25089 C 2351.6 2.07633 4.83503 0
M  V30 25090 O 2350.63 2.80659 4.95196 0
M  V30 25091 N 2351.83 1.06565 5.70635 0
M  V30 25092 H 2354.59 2.35992 1.84738 0
M  V30 25093 H 2352.16 1.35938 0.879346 0
M  V30 25094 H 2354.15 0.932954 3.938 0
M  V30 25095 H 2352.72 0.261098 3.11508 0
M  V30 25096 H 2351.94 2.73175 2.84199 0
M  V30 25097 H 2353.23 3.174 3.97661 0
M  V30 25098 H 2352.62 0.461224 5.63817 0
M  V30 25099 H 2351.18 0.913557 6.45366 0
M  V30 25100 N 2354.61 -0.931187 1.27148 0
M  V30 25101 C 2355.86 -1.673 1.12667 0
M  V30 25102 C 2356.18 -1.92836 -0.327685 0
M  V30 25103 O 2357.38 -2.64937 -0.593345 0
M  V30 25104 C 2355.84 -3.01303 1.96836 0
M  V30 25105 C 2355.45 -2.83478 3.46906 0
M  V30 25106 C 2357.19 -3.79107 1.90992 0
M  V30 25107 C 2355.1 -4.13016 4.23287 0
M  V30 25108 H 2354.03 -0.627501 0.418041 0
M  V30 25109 H 2356.68 -1.03478 1.5154 0
M  V30 25110 H 2355.06 -3.66162 1.50803 0
M  V30 25111 H 2356.23 -2.27408 4.00777 0
M  V30 25112 H 2354.55 -2.19107 3.54092 0
M  V30 25113 H 2357.15 -4.75094 2.45337 0
M  V30 25114 H 2357.49 -4.06832 0.88279 0
M  V30 25115 H 2358.02 -3.2104 2.34901 0
M  V30 25116 H 2354.76 -3.90471 5.2651 0
M  V30 25117 H 2354.28 -4.68763 3.74194 0
M  V30 25118 H 2355.96 -4.81403 4.32273 0
M  V30 25119 N 2356.09 -1.09114 -1.13719 0
M  V30 25120 C 2357.5 -0.845097 -1.66478 0
M  V30 25121 C 2357.85 0.626977 -1.85912 0
M  V30 25122 O 2356.98 1.48338 -1.57559 0
M  V30 25123 C 2357.57 -1.52753 -3.0241 0
M  V30 25124 C 2356.13 -1.32855 -3.52174 0
M  V30 25125 C 2355.28 -1.58568 -2.27489 0
M  V30 25126 H 2358.23 -1.25073 -0.97685 0
M  V30 25127 H 2358.25 -0.958817 -3.68221 0
M  V30 25128 H 2357.76 -2.5989 -2.88234 0
M  V30 25129 H 2355.86 -0.278203 -3.7156 0
M  V30 25130 H 2355.98 -2.06118 -4.32495 0
M  V30 25131 H 2354.34 -1.00763 -2.33921 0
M  V30 25132 H 2355.12 -2.66927 -2.15881 0
M  V30 25133 N 2357.57 1.30887 -0.877861 0
M  V30 25134 C 2358.52 2.28318 -0.337578 0
M  V30 25135 C 2359.49 1.56075 0.568319 0
M  V30 25136 O 2360.67 1.84179 0.498266 0
M  V30 25137 C 2357.81 3.42179 0.448082 0
M  V30 25138 C 2356.92 4.29255 -0.486225 0
M  V30 25139 C 2356.06 5.30269 0.314334 0
M  V30 25140 C 2355.1 6.08994 -0.615898 0
M  V30 25141 N 2354.24 7.01942 0.148897 0
M  V30 25142 H 2359.08 2.73917 -1.1736 0
M  V30 25143 H 2356.61 1.34744 -0.590117 0
M  V30 25144 H 2358.57 4.06942 0.919445 0
M  V30 25145 H 2357.2 2.97668 1.24874 0
M  V30 25146 H 2356.25 3.64863 -1.07606 0
M  V30 25147 H 2357.56 4.84171 -1.19918 0
M  V30 25148 H 2356.72 6.00746 0.847863 0
M  V30 25149 H 2355.46 4.76029 1.06054 0
M  V30 25150 H 2354.46 5.37399 -1.16112 0
M  V30 25151 H 2355.69 6.6532 -1.36108 0
M  V30 25152 H 2353.63 6.50101 0.87777 0
M  V30 25153 H 2353.55 7.54314 -0.504565 0
M  V30 25154 H 2354.82 7.76672 0.6634 0
M  V30 25155 N 2359.05 0.638091 1.44105 0
M  V30 25156 C 2359.96 -0.0636922 2.34514 0
M  V30 25157 C 2360.97 -0.828319 1.53019 0
M  V30 25158 O 2362.15 -0.779003 1.85724 0
M  V30 25159 C 2359.21 -1.02839 3.31097 0
M  V30 25160 C 2358.28 -0.262364 4.28498 0
M  V30 25161 C 2357.51 -1.18111 5.20467 0
M  V30 25162 O 2357.73 -2.42002 5.16518 0
M  V30 25163 O 2356.67 -0.661668 5.98252 0
M  V30 25164 H 2360.49 0.680082 2.95987 0
M  V30 25165 H 2358.08 0.398277 1.43993 0
M  V30 25166 H 2359.96 -1.5832 3.90529 0
M  V30 25167 H 2358.63 -1.75265 2.72147 0
M  V30 25168 H 2357.54 0.335667 3.72591 0
M  V30 25169 H 2358.87 0.422022 4.90387 0
M  V30 25170 N 2360.53 -1.52973 0.379063 0
M  V30 25171 C 2361.44 -2.29872 -0.468599 0
M  V30 25172 C 2362.45 -1.36375 -1.08065 0
M  V30 25173 O 2363.63 -1.6944 -1.08868 0
M  V30 25174 C 2360.69 -3.08303 -1.58589 0
M  V30 25175 C 2359.75 -4.17491 -0.999997 0
M  V30 25176 C 2358.99 -4.92172 -2.06404 0
M  V30 25177 O 2359.21 -4.66841 -3.27743 0
M  V30 25178 O 2358.14 -5.77773 -1.68707 0
M  V30 25179 H 2361.97 -3.03291 0.157561 0
M  V30 25180 H 2359.55 -1.48713 0.143061 0
M  V30 25181 H 2361.44 -3.57235 -2.23519 0
M  V30 25182 H 2360.11 -2.37707 -2.1972 0
M  V30 25183 H 2359.02 -3.72778 -0.314233 0
M  V30 25184 H 2360.35 -4.90291 -0.433049 0
M  V30 25185 N 2362 -0.108595 -1.57225 0
M  V30 25186 C 2363.25 0.54653 -1.9592 0
M  V30 25187 C 2363.6 1.64948 -0.990446 0
M  V30 25188 O 2362.9 1.91591 -0.0186929 0
M  V30 25189 C 2363.09 1.13457 -3.38913 0
M  V30 25190 C 2362.92 0.0901136 -4.4961 0
M  V30 25191 C 2361.69 -0.338096 -5.04168 0
M  V30 25192 C 2363.89 -0.686898 -5.09692 0
M  V30 25193 N 2361.87 -1.36941 -5.98432 0
M  V30 25194 C 2363.24 -1.56968 -5.99801 0
M  V30 25195 C 2365.3 -0.738932 -4.92386 0
M  V30 25196 C 2364 -2.49995 -6.74459 0
M  V30 25197 C 2366.03 -1.65686 -5.67717 0
M  V30 25198 C 2365.39 -2.52724 -6.57503 0
M  V30 25199 H 2361.49 0.169923 -0.763315 0
M  V30 25200 H 2364.07 -0.194298 -1.93728 0
M  V30 25201 H 2362.24 1.84516 -3.41772 0
M  V30 25202 H 2363.97 1.75316 -3.64755 0
M  V30 25203 H 2360.73 0.0522841 -4.73571 0
M  V30 25204 H 2361.15 -1.88368 -6.50267 0
M  V30 25205 H 2365.79 -0.0801583 -4.22724 0
M  V30 25206 H 2363.51 -3.16891 -7.43375 0
M  V30 25207 H 2367.1 -1.70243 -5.56335 0
M  V30 25208 H 2365.98 -3.22599 -7.14772 0
M  V30 25209 N 2363.48 1.56732 0.16515 0
M  V30 25210 C 2364.43 1.96885 1.20436 0
M  V30 25211 C 2365.4 0.833683 1.43663 0
M  V30 25212 O 2366.58 1.0943 1.563 0
M  V30 25213 C 2363.72 2.33921 2.53723 0
M  V30 25214 C 2362.84 3.60644 2.37823 0
M  V30 25215 C 2361.97 3.86864 3.64019 0
M  V30 25216 C 2361.01 5.06915 3.43079 0
M  V30 25217 N 2360.15 5.29237 4.6136 0
M  V30 25218 H 2364.99 2.85473 0.854946 0
M  V30 25219 H 2362.52 1.41249 0.410735 0
M  V30 25220 H 2364.48 2.53417 3.31415 0
M  V30 25221 H 2363.11 1.48436 2.86647 0
M  V30 25222 H 2362.16 3.49027 1.51276 0
M  V30 25223 H 2363.48 4.48494 2.183 0
M  V30 25224 H 2362.63 4.06761 4.50145 0
M  V30 25225 H 2361.37 2.97401 3.86528 0
M  V30 25226 H 2360.37 4.8691 2.5534 0
M  V30 25227 H 2361.6 5.97914 3.21986 0
M  V30 25228 H 2359.55 4.42726 4.84076 0
M  V30 25229 H 2359.46 6.11321 4.44772 0
M  V30 25230 H 2360.73 5.53618 5.48751 0
M  V30 25231 N 2364.96 -0.433911 1.51509 0
M  V30 25232 C 2366.18 -1.21 1.68445 0
M  V30 25233 C 2366.61 -1.84166 0.382669 0
M  V30 25234 O 2365.97 -1.68957 -0.65752 0
M  V30 25235 C 2366.02 -2.26722 2.80409 0
M  V30 25236 O 2365.12 -3.32288 2.44251 0
M  V30 25237 H 2364.46 -0.354353 0.561543 0
M  V30 25238 H 2366.99 -0.511989 1.9809 0
M  V30 25239 H 2367 -2.71452 3.04594 0
M  V30 25240 H 2365.68 -1.80126 3.7487 0
M  V30 25241 H 2364.25 -2.93011 2.30649 0
M  V30 25242 N 2366.44 -1.41713 -0.689577 0
M  V30 25243 C 2367.37 -1.39969 -1.81497 0
M  V30 25244 C 2368.38 -0.300946 -1.59994 0
M  V30 25245 O 2369.57 -0.563069 -1.69386 0
M  V30 25246 C 2366.67 -1.16184 -3.18362 0
M  V30 25247 C 2365.85 -2.38213 -3.66842 0
M  V30 25248 C 2364.9 -2.10195 -4.82395 0
M  V30 25249 O 2363.93 -2.83281 -4.93701 0
M  V30 25250 N 2365.13 -1.0959 -5.70062 0
M  V30 25251 H 2367.9 -2.36968 -1.83484 0
M  V30 25252 H 2365.46 -1.36402 -0.872125 0
M  V30 25253 H 2367.45 -0.953825 -3.93299 0
M  V30 25254 H 2366.02 -0.277614 -3.11365 0
M  V30 25255 H 2365.24 -2.74678 -2.82746 0
M  V30 25256 H 2366.53 -3.19505 -3.95973 0
M  V30 25257 H 2365.93 -0.491118 -5.63564 0
M  V30 25258 H 2364.48 -0.94777 -6.44873 0
M  V30 25259 N 2367.92 0.924431 -1.2764 0
M  V30 25260 C 2368.83 2.05883 -1.12469 0
M  V30 25261 C 2369.84 1.73916 -0.0538995 0
M  V30 25262 O 2371.02 1.99701 -0.261047 0
M  V30 25263 C 2368.08 3.37885 -0.776827 0
M  V30 25264 C 2367.14 3.83528 -1.92885 0
M  V30 25265 C 2366.38 5.09231 -1.59748 0
M  V30 25266 O 2366.6 5.68143 -0.506882 0
M  V30 25267 O 2365.53 5.50327 -2.43771 0
M  V30 25268 H 2369.36 2.21596 -2.07675 0
M  V30 25269 H 2366.95 1.04411 -1.06858 0
M  V30 25270 H 2368.83 4.1716 -0.596303 0
M  V30 25271 H 2367.5 3.23372 0.145675 0
M  V30 25272 H 2366.41 3.05127 -2.16445 0
M  V30 25273 H 2367.74 4.02588 -2.83167 0
M  V30 25274 N 2369.39 1.09715 1.13139 0
M  V30 25275 C 2370.34 0.739235 2.18641 0
M  V30 25276 C 2371.31 -0.28095 1.63707 0
M  V30 25277 O 2372.5 -0.161912 1.90112 0
M  V30 25278 C 2369.64 0.169162 3.44685 0
M  V30 25279 C 2368.75 1.24375 4.13709 0
M  V30 25280 C 2367.88 0.636112 5.27378 0
M  V30 25281 C 2366.92 1.6918 5.88256 0
M  V30 25282 N 2366.06 1.10497 6.9335 0
M  V30 25283 H 2370.9 1.64316 2.48604 0
M  V30 25284 H 2368.44 0.820896 1.22064 0
M  V30 25285 H 2370.4 -0.179182 4.16815 0
M  V30 25286 H 2369.03 -0.698024 3.15163 0
M  V30 25287 H 2368.08 1.70933 3.39832 0
M  V30 25288 H 2369.39 2.04319 4.55033 0
M  V30 25289 H 2368.54 0.236784 6.06238 0
M  V30 25290 H 2367.28 -0.194843 4.87311 0
M  V30 25291 H 2366.29 2.10064 5.08088 0
M  V30 25292 H 2367.51 2.52547 6.30394 0
M  V30 25293 H 2365.46 0.29535 6.55335 0
M  V30 25294 H 2365.38 1.84134 7.33233 0
M  V30 25295 H 2366.64 0.731946 7.76056 0
M  V30 25296 N 2370.87 -1.30419 0.88479 0
M  V30 25297 C 2372.1 -2.00845 0.517323 0
M  V30 25298 C 2372.52 -1.65887 -0.88675 0
M  V30 25299 O 2371.88 -0.875382 -1.58766 0
M  V30 25300 C 2371.93 -3.53759 0.699056 0
M  V30 25301 O 2371.03 -4.1161 -0.255136 0
M  V30 25302 H 2370.37 -0.631924 0.203883 0
M  V30 25303 H 2372.9 -1.6627 1.19228 0
M  V30 25304 H 2372.91 -4.03594 0.597983 0
M  V30 25305 H 2371.59 -3.78541 1.72277 0
M  V30 25306 H 2370.17 -3.72744 -0.107774 0
M  V30 25307 N 2372.35 -0.645724 -1.43764 0
M  V30 25308 C 2373.76 -0.236751 -1.85193 0
M  V30 25309 C 2374.11 1.21506 -1.54047 0
M  V30 25310 O 2373.24 1.92646 -0.985727 0
M  V30 25311 C 2373.83 -0.422904 -3.3615 0
M  V30 25312 C 2372.39 -0.0683154 -3.76338 0
M  V30 25313 C 2371.54 -0.729353 -2.67536 0
M  V30 25314 H 2374.49 -0.849907 -1.34023 0
M  V30 25315 H 2374.51 0.333837 -3.79033 0
M  V30 25316 H 2374.02 -1.47964 -3.58787 0
M  V30 25317 H 2372.12 0.986116 -3.59314 0
M  V30 25318 H 2372.24 -0.488553 -4.76603 0
M  V30 25319 H 2370.6 -0.16328 -2.54176 0
M  V30 25320 H 2371.38 -1.78897 -2.93003 0
M  V30 25321 N 2373.83 1.5277 -0.38717 0
M  V30 25322 C 2374.74 2.30118 0.456401 0
M  V30 25323 C 2375.75 1.36946 1.0734 0
M  V30 25324 O 2376.93 1.70015 1.07968 0
M  V30 25325 C 2374 3.09139 1.56952 0
M  V30 25326 C 2373.06 4.18015 0.977842 0
M  V30 25327 C 2372.29 4.93259 2.03791 0
M  V30 25328 O 2372.51 4.68573 3.25263 0
M  V30 25329 O 2371.45 5.7866 1.6564 0
M  V30 25330 H 2375.27 3.03203 -0.173643 0
M  V30 25331 H 2372.86 1.48636 -0.150945 0
M  V30 25332 H 2374.74 3.58416 2.21621 0
M  V30 25333 H 2373.41 2.38869 2.18456 0
M  V30 25334 H 2372.32 3.72939 0.29446 0
M  V30 25335 H 2373.65 4.90514 0.407042 0
M  V30 25336 N 2375.31 0.116931 1.57166 0
M  V30 25337 C 2376.25 -0.834042 2.15203 0
M  V30 25338 C 2377.22 -1.26497 1.07646 0
M  V30 25339 O 2378.41 -1.34286 1.35543 0
M  V30 25340 C 2375.55 -2.07952 2.75409 0
M  V30 25341 C 2374.66 -1.69714 3.97267 0
M  V30 25342 C 2373.8 -2.89213 4.45566 0
M  V30 25343 C 2372.84 -2.47205 5.59961 0
M  V30 25344 N 2371.97 -3.59611 6.03013 0
M  V30 25345 H 2376.81 -0.332283 2.96142 0
M  V30 25346 H 2374.35 -0.152323 1.46309 0
M  V30 25347 H 2376.31 -2.80923 3.08444 0
M  V30 25348 H 2374.94 -2.5559 1.97163 0
M  V30 25349 H 2373.99 -0.866251 3.70406 0
M  V30 25350 H 2375.3 -1.34841 4.80228 0
M  V30 25351 H 2374.46 -3.70412 4.805 0
M  V30 25352 H 2373.19 -3.27312 3.6155 0
M  V30 25353 H 2372.2 -1.64439 5.24633 0
M  V30 25354 H 2373.42 -2.10226 6.45741 0
M  V30 25355 H 2371.37 -3.97387 5.21938 0
M  V30 25356 H 2371.29 -3.28655 6.80825 0
M  V30 25357 H 2372.56 -4.41255 6.42584 0
M  V30 25358 N 2376.78 -1.56818 -0.156836 0
M  V30 25359 C 2378.01 -1.86956 -0.886283 0
M  V30 25360 C 2378.43 -0.704006 -1.75183 0
M  V30 25361 O 2377.78 0.326521 -1.79555 0
M  V30 25362 C 2377.84 -3.16257 -1.75112 0
M  V30 25363 O 2377.56 -4.28321 -0.920461 0
M  V30 25364 C 2379.06 -3.59842 -2.58899 0
M  V30 25365 H 2376.28 -0.619928 -0.256769 0
M  V30 25366 H 2378.82 -2.0393 -0.152579 0
M  V30 25367 H 2376.98 -3.01066 -2.43799 0
M  V30 25368 H 2377.39 -5.02195 -1.51329 0
M  V30 25369 H 2378.86 -4.53178 -3.15172 0
M  V30 25370 H 2379.34 -2.84655 -3.34467 0
M  V30 25371 H 2379.95 -3.77693 -1.95519 0
M  V30 25372 N 2378.26 0.425871 -1.51737 0
M  V30 25373 C 2379.23 1.50029 -1.73274 0
M  V30 25374 C 2380.23 1.49079 -0.602665 0
M  V30 25375 O 2381.42 1.50899 -0.870357 0
M  V30 25376 C 2378.55 2.8952 -1.79975 0
M  V30 25377 H 2379.74 1.32232 -2.69174 0
M  V30 25378 H 2377.29 0.655295 -1.419 0
M  V30 25379 H 2378.03 3.12708 -0.859296 0
M  V30 25380 H 2377.81 2.91614 -2.62114 0
M  V30 25381 H 2379.3 3.67441 -1.98437 0
M  V30 25382 N 2379.74 1.42077 0.682052 0
M  V30 25383 C 2380.99 1.42159 1.44212 0
M  V30 25384 C 2381.32 0.0354527 1.94468 0
M  V30 25385 O 2380.57 -0.954972 1.70818 0
M  V30 25386 C 2380.87 2.38666 2.66032 0
M  V30 25387 C 2380.54 3.8521 2.34359 0
M  V30 25388 C 2379.2 4.25128 2.25432 0
M  V30 25389 C 2381.55 4.77677 2.08504 0
M  V30 25390 C 2378.88 5.55504 1.88765 0
M  V30 25391 C 2381.23 6.08387 1.73343 0
M  V30 25392 C 2379.89 6.47312 1.62921 0
M  V30 25393 H 2379.16 0.520196 0.527709 0
M  V30 25394 H 2381.81 1.74968 0.778356 0
M  V30 25395 H 2380.12 1.99158 3.37407 0
M  V30 25396 H 2381.81 2.35997 3.24201 0
M  V30 25397 H 2378.4 3.53601 2.42207 0
M  V30 25398 H 2382.59 4.4763 2.14338 0
M  V30 25399 H 2377.84 5.8453 1.7926 0
M  V30 25400 H 2382.02 6.79529 1.52361 0
M  V30 25401 H 2379.64 7.48247 1.34279 0
M  V30 25402 N 2381.22 -0.917649 1.28129 0
M  V30 25403 C 2382.17 -2.01958 1.1172 0
M  V30 25404 C 2383.14 -1.66093 0.0154221 0
M  V30 25405 O 2384.32 -1.89953 0.179629 0
M  V30 25406 C 2381.46 -3.36147 0.780987 0
M  V30 25407 C 2380.57 -3.84906 1.96142 0
M  V30 25408 C 2379.71 -5.07587 1.56617 0
M  V30 25409 C 2378.75 -5.48668 2.71348 0
M  V30 25410 N 2377.89 -6.62541 2.32343 0
M  V30 25411 H 2382.73 -2.15326 2.06007 0
M  V30 25412 H 2380.26 -1.05473 1.02537 0
M  V30 25413 H 2382.22 -4.13332 0.566822 0
M  V30 25414 H 2380.85 -3.22558 -0.124941 0
M  V30 25415 H 2379.9 -3.03912 2.28782 0
M  V30 25416 H 2381.21 -4.11315 2.82172 0
M  V30 25417 H 2380.37 -5.92303 1.31384 0
M  V30 25418 H 2379.11 -4.82977 0.677098 0
M  V30 25419 H 2378.11 -4.62496 2.97284 0
M  V30 25420 H 2379.34 -5.75268 3.60892 0
M  V30 25421 H 2377.28 -6.39569 1.459 0
M  V30 25422 H 2377.2 -6.88656 3.11911 0
M  V30 25423 H 2378.47 -7.50572 2.10384 0
M  V30 25424 N 2382.7 -1.10314 -1.12555 0
M  V30 25425 C 2383.64 -0.750819 -2.18246 0
M  V30 25426 C 2384.61 0.272264 -1.63853 0
M  V30 25427 O 2385.8 0.151828 -1.90195 0
M  V30 25428 C 2382.94 -0.18744 -3.44591 0
M  V30 25429 C 2382.05 -1.26567 -4.13043 0
M  V30 25430 C 2381.19 -0.664071 -5.27033 0
M  V30 25431 C 2380.23 -1.72297 -5.8735 0
M  V30 25432 N 2379.36 -1.14173 -6.92755 0
M  V30 25433 H 2384.2 -1.65632 -2.47729 0
M  V30 25434 H 2381.74 -0.827358 -1.21627 0
M  V30 25435 H 2383.7 0.157075 -4.16904 0
M  V30 25436 H 2382.33 0.6813 -3.15528 0
M  V30 25437 H 2381.38 -1.72733 -3.38921 0
M  V30 25438 H 2382.69 -2.06729 -4.53943 0
M  V30 25439 H 2381.85 -0.26893 -6.06104 0
M  V30 25440 H 2380.59 0.168997 -4.87407 0
M  V30 25441 H 2379.59 -2.12755 -5.06967 0
M  V30 25442 H 2380.82 -2.55886 -6.29046 0
M  V30 25443 H 2378.76 -0.330099 -6.55169 0
M  V30 25444 H 2378.68 -1.8802 -7.32246 0
M  V30 25445 H 2379.95 -0.773092 -7.75657 0
M  V30 25446 N 2384.18 1.29948 -0.891694 0
M  V30 25447 C 2385.12 2.27947 -0.361776 0
M  V30 25448 C 2386.09 1.56669 0.551733 0
M  V30 25449 O 2387.28 1.84697 0.478703 0
M  V30 25450 C 2384.42 3.42635 0.411764 0
M  V30 25451 C 2383.53 4.28715 -0.531726 0
M  V30 25452 C 2382.67 5.30573 0.258074 0
M  V30 25453 C 2381.7 6.08306 -0.680455 0
M  V30 25454 N 2380.84 7.02061 0.0744379 0
M  V30 25455 H 2385.68 2.72657 -1.20259 0
M  V30 25456 H 2383.22 1.34111 -0.604376 0
M  V30 25457 H 2385.18 4.07895 0.876232 0
M  V30 25458 H 2383.81 2.98976 1.2171 0
M  V30 25459 H 2382.86 3.63701 -1.1147 0
M  V30 25460 H 2384.17 4.82871 -1.25046 0
M  V30 25461 H 2383.32 6.01612 0.784098 0
M  V30 25462 H 2382.06 4.77127 1.00999 0
M  V30 25463 H 2381.07 5.36138 -1.21805 0
M  V30 25464 H 2382.29 6.63839 -1.43157 0
M  V30 25465 H 2380.24 6.50995 0.808769 0
M  V30 25466 H 2380.16 7.53737 -0.584542 0
M  V30 25467 H 2381.42 7.77332 0.580986 0
M  V30 25468 N 2385.65 0.653339 1.4342 0
M  V30 25469 C 2386.93 0.0966925 1.95361 0
M  V30 25470 C 2387.31 -1.38328 1.59463 0
M  V30 25471 O 2386.66 -2.10883 0.879815 0
M  V30 25472 C 2386.87 0.343049 3.4731 0
M  V30 25473 C 2388.22 0.248054 4.23875 0
M  V30 25474 O 2389.24 0.275615 3.55132 0
M  V30 25475 O 2388.1 0.171867 5.4623 0
M  V30 25476 H 2385.19 -0.00954838 0.826945 0
M  V30 25477 H 2387.74 0.726585 1.53359 0
M  V30 25478 H 2386.51 1.36912 3.66566 0
M  V30 25479 H 2386.13 -0.319905 3.96311 0
M  V30 25480 N 2387.13 -1.52563 0.395266 0
M  V30 25481 C 2388.36 -2.06072 -0.184907 0
M  V30 25482 C 2388.77 -1.2665 -1.40019 0
M  V30 25483 O 2388.13 -0.314704 -1.79766 0
M  V30 25484 C 2388.18 -3.57305 -0.549116 0
M  V30 25485 O 2387.9 -4.33721 0.617889 0
M  V30 25486 C 2389.4 -4.27182 -1.18451 0
M  V30 25487 H 2386.62 -0.670477 -0.0264907 0
M  V30 25488 H 2389.17 -1.9662 0.562219 0
M  V30 25489 H 2387.32 -3.66811 -1.24614 0
M  V30 25490 H 2387.74 -5.2354 0.317183 0
M  V30 25491 H 2389.21 -5.34221 -1.38967 0
M  V30 25492 H 2389.69 -3.82774 -2.15361 0
M  V30 25493 H 2390.29 -4.22009 -0.528088 0
M  V30 25494 N 2388.61 -0.125265 -1.57101 0
M  V30 25495 C 2389.86 0.531061 -1.94583 0
M  V30 25496 C 2390.17 1.67429 -1.01129 0
M  V30 25497 O 2391.38 2.39379 -1.28101 0
M  V30 25498 C 2389.83 0.996103 -3.45841 0
M  V30 25499 C 2389.44 -0.119004 -4.47842 0
M  V30 25500 C 2391.19 1.62345 -3.9223 0
M  V30 25501 C 2389.09 0.363089 -5.90284 0
M  V30 25502 H 2388.02 0.202157 -0.726394 0
M  V30 25503 H 2390.67 -0.206124 -1.82339 0
M  V30 25504 H 2389.06 1.7879 -3.53342 0
M  V30 25505 H 2390.23 -0.895437 -4.52016 0
M  V30 25506 H 2388.54 -0.653396 -4.11242 0
M  V30 25507 H 2391.14 1.99539 -4.96073 0
M  V30 25508 H 2391.48 2.50423 -3.32557 0
M  V30 25509 H 2392.02 0.896951 -3.87556 0
M  V30 25510 H 2388.76 -0.481794 -6.53727 0
M  V30 25511 H 2388.28 1.10587 -5.89517 0
M  V30 25512 H 2389.96 0.822264 -6.41754 0
M  V30 25513 N 2390.09 1.56899 0.148518 0
M  V30 25514 C 2391.02 2.01184 1.18521 0
M  V30 25515 C 2392 0.891148 1.44888 0
M  V30 25516 O 2393.18 1.15885 1.55834 0
M  V30 25517 C 2390.31 2.39116 2.51874 0
M  V30 25518 C 2389.27 3.54357 2.40031 0
M  V30 25519 C 2388.59 3.78098 3.78082 0
M  V30 25520 C 2389.89 4.87072 1.88568 0
M  V30 25521 H 2391.59 2.88038 0.816979 0
M  V30 25522 H 2389.13 1.38574 0.39155 0
M  V30 25523 H 2391.09 2.68698 3.24622 0
M  V30 25524 H 2389.81 1.49198 2.9053 0
M  V30 25525 H 2388.47 3.24939 1.69736 0
M  V30 25526 H 2388.12 2.85433 4.1417 0
M  V30 25527 H 2387.82 4.55651 3.7102 0
M  V30 25528 H 2389.34 4.10103 4.5238 0
M  V30 25529 H 2390.76 5.15381 2.51108 0
M  V30 25530 H 2389.15 5.68421 1.924 0
M  V30 25531 H 2390.22 4.77546 0.841276 0
M  V30 25532 N 2391.57 -0.417818 1.51961 0
M  V30 25533 C 2392.79 -1.19207 1.69719 0
M  V30 25534 C 2393.22 -1.8375 0.40218 0
M  V30 25535 O 2392.57 -1.69645 -0.639563 0
M  V30 25536 C 2392.62 -2.23736 2.82798 0
M  V30 25537 O 2391.73 -3.29679 2.47761 0
M  V30 25538 H 2391.07 -0.348377 0.565269 0
M  V30 25539 H 2393.6 -0.49095 1.98622 0
M  V30 25540 H 2393.61 -2.68206 3.07456 0
M  V30 25541 H 2392.28 -1.76139 3.76759 0
M  V30 25542 H 2390.86 -2.90548 2.33744 0
M  V30 25543 N 2393.04 -1.42436 -0.674508 0
M  V30 25544 C 2393.97 -1.48727 -1.80007 0
M  V30 25545 C 2394.95 -0.343822 -1.66589 0
M  V30 25546 O 2396.14 -0.558169 -1.86006 0
M  V30 25547 C 2393.27 -1.38925 -3.18304 0
M  V30 25548 C 2392.22 -2.513 -3.46457 0
M  V30 25549 C 2391.55 -2.26555 -4.84331 0
M  V30 25550 C 2392.85 -3.93609 -3.43321 0
M  V30 25551 H 2394.54 -2.42931 -1.74999 0
M  V30 25552 H 2392.09 -1.16925 -0.840512 0
M  V30 25553 H 2394.04 -1.41934 -3.96778 0
M  V30 25554 H 2392.77 -0.412151 -3.23989 0
M  V30 25555 H 2391.43 -2.47608 -2.70344 0
M  V30 25556 H 2391.07 -1.27138 -4.86667 0
M  V30 25557 H 2390.77 -3.0187 -5.04131 0
M  V30 25558 H 2392.3 -2.31314 -5.6509 0
M  V30 25559 H 2393.71 -3.98902 -4.11765 0
M  V30 25560 H 2392.11 -4.68778 -3.74656 0
M  V30 25561 H 2393.18 -4.20259 -2.41889 0
M  V30 25562 N 2394.52 0.910841 -1.28614 0
M  V30 25563 C 2395.47 2.03499 -1.12653 0
M  V30 25564 C 2396.46 1.6934 -0.0450352 0
M  V30 25565 O 2397.67 1.7884 -0.204019 0
M  V30 25566 H 2394.04 0.666816 -0.34765 0
M  V30 25567 H 2396.02 2.14102 -2.07853 0
M  V30 25568 C 2394.76 3.38177 -0.808203 0
M  V30 25569 H 2394.09 3.64957 -1.63237 0
M  V30 25570 H 2395.53 4.17554 -0.736499 0
M  V30 25571 C 2393.99 3.33344 0.488168 0
M  V30 25572 O 2394.52 3.7193 1.5176 0
M  V30 25573 N 2392.72 2.8644 0.489959 0
M  V30 25574 H 2392.27 2.55236 -0.348206 0
M  V30 25575 H 2392.23 2.83589 1.35736 0
M  V30 25576 N 2396 1.10909 1.11969 0
M  V30 25577 C 2396.96 0.765745 2.1603 0
M  V30 25578 C 2397.96 -0.212207 1.59394 0
M  V30 25579 O 2399.15 0.0115747 1.74196 0
M  V30 25580 C 2396.29 0.135113 3.40632 0
M  V30 25581 H 2397.48 1.68753 2.47916 0
M  V30 25582 H 2395.03 0.910249 1.2706 0
M  V30 25583 H 2395.77 -0.797162 3.1435 0
M  V30 25584 H 2395.55 0.839004 3.83018 0
M  V30 25585 H 2397.04 -0.0891735 4.17505 0
M  V30 25586 N 2397.48 -1.29474 0.898573 0
M  V30 25587 C 2398.72 -1.97387 0.530806 0
M  V30 25588 C 2399.08 -1.6929 -0.905802 0
M  V30 25589 O 2400.28 -2.30649 -1.38038 0
M  V30 25590 C 2398.55 -3.48013 0.813751 0
M  V30 25591 S 2400.11 -4.35338 0.550124 0
M  V30 25592 H 2396.93 -0.683173 0.196968 0
M  V30 25593 H 2399.53 -1.5731 1.16076 0
M  V30 25594 H 2398.24 -3.65955 1.85755 0
M  V30 25595 H 2397.77 -3.93024 0.171865 0
M  V30 25596 H 2399.78 -4.92494 -0.605337 0
M  V30 25597 N 2398.96 -0.660936 -1.43071 0
M  V30 25598 C 2399.87 0.026375 -2.34585 0
M  V30 25599 C 2400.88 0.80387 -1.54318 0
M  V30 25600 O 2402.06 0.749358 -1.8694 0
M  V30 25601 C 2399.12 0.975581 -3.32691 0
M  V30 25602 C 2398.18 0.194161 -4.28861 0
M  V30 25603 C 2397.42 1.09815 -5.2228 0
M  V30 25604 O 2397.64 2.33754 -5.20303 0
M  V30 25605 O 2396.57 0.566408 -5.99229 0
M  V30 25606 H 2400.4 -0.727085 -2.94868 0
M  V30 25607 H 2397.99 -0.421135 -1.43342 0
M  V30 25608 H 2399.87 1.52087 -3.92998 0
M  V30 25609 H 2398.54 1.70913 -2.74901 0
M  V30 25610 H 2397.45 -0.394901 -3.7201 0
M  V30 25611 H 2398.78 -0.499985 -4.89654 0
M  V30 25612 N 2400.43 1.52351 -0.403352 0
M  V30 25613 C 2401.66 2.06648 0.176463 0
M  V30 25614 C 2402.08 1.27196 1.38574 0
M  V30 25615 O 2401.44 0.300668 1.78789 0
M  V30 25616 C 2401.49 3.56961 0.510999 0
M  V30 25617 O 2400.59 3.79976 1.60287 0
M  V30 25618 H 2399.94 0.663789 0.016722 0
M  V30 25619 H 2402.47 1.96357 -0.574882 0
M  V30 25620 H 2402.48 4.00643 0.771291 0
M  V30 25621 H 2401.15 4.14224 -0.373033 0
M  V30 25622 H 2399.73 3.48177 1.3352 0
M  V30 25623 N 2401.91 0.133594 1.57033 0
M  V30 25624 C 2402.86 -0.828374 2.17349 0
M  V30 25625 C 2403.85 -1.26496 1.12673 0
M  V30 25626 O 2405.06 -1.235 1.30949 0
M  V30 25627 H 2401.44 -0.285297 0.69578 0
M  V30 25628 H 2403.41 -0.29532 2.96935 0
M  V30 25629 C 2402.16 -2.06284 2.79897 0
M  V30 25630 H 2401.48 -1.73586 3.6015 0
M  V30 25631 H 2402.92 -2.71566 3.25619 0
M  V30 25632 C 2401.38 -2.86213 1.77718 0
M  V30 25633 O 2401.91 -3.82101 1.23944 0
M  V30 25634 N 2400.11 -2.50487 1.47326 0
M  V30 25635 H 2399.66 -1.72577 1.91246 0
M  V30 25636 H 2399.62 -3.0426 0.792044 0
M  V30 25637 N 2403.39 -1.56975 -0.140195 0
M  V30 25638 C 2404.34 -1.95196 -1.17824 0
M  V30 25639 C 2405.32 -0.8241 -1.38193 0
M  V30 25640 O 2406.52 -1.08762 -1.39641 0
M  V30 25641 C 2403.65 -2.34188 -2.5102 0
M  V30 25642 C 2402.73 -3.5356 -2.34214 0
M  V30 25643 N 2403.12 -4.69892 -1.87176 0
M  V30 25644 C 2401.42 -3.58778 -2.64943 0
M  V30 25645 C 2402.12 -5.51973 -1.83576 0
M  V30 25646 N 2401.1 -4.9387 -2.27141 0
M  V30 25647 H 2404.9 -2.8261 -0.806767 0
M  V30 25648 H 2402.41 -1.58624 -0.34818 0
M  V30 25649 H 2404.41 -2.59778 -3.26069 0
M  V30 25650 H 2403.07 -1.48129 -2.88943 0
M  V30 25651 H 2404.08 -4.93517 -1.5704 0
M  V30 25652 H 2400.76 -2.83275 -3.06695 0
M  V30 25653 H 2402.15 -6.55252 -1.48643 0
M  V30 25654 N 2404.87 0.409753 -1.5218 0
M  V30 25655 C 2405.83 1.48183 -1.74855 0
M  V30 25656 C 2406.83 1.48432 -0.618443 0
M  V30 25657 O 2408.02 1.49967 -0.886312 0
M  V30 25658 C 2405.15 2.87595 -1.83035 0
M  V30 25659 H 2406.35 1.2937 -2.70561 0
M  V30 25660 H 2403.9 0.640208 -1.42587 0
M  V30 25661 H 2404.63 3.11779 -0.892415 0
M  V30 25662 H 2404.42 2.88818 -2.65192 0
M  V30 25663 H 2405.91 3.65315 -2.02323 0
M  V30 25664 N 2406.35 1.42792 0.666944 0
M  V30 25665 C 2407.6 1.42971 1.42275 0
M  V30 25666 C 2407.91 0.0524833 1.9553 0
M  V30 25667 O 2409.11 -0.0683153 2.71414 0
M  V30 25668 C 2407.57 2.51528 2.57413 0
M  V30 25669 C 2407.18 3.95293 2.10825 0
M  V30 25670 C 2408.92 2.60883 3.34874 0
M  V30 25671 C 2406.83 4.95344 3.23092 0
M  V30 25672 H 2405.76 0.53179 0.534523 0
M  V30 25673 H 2408.41 1.6873 0.721272 0
M  V30 25674 H 2406.79 2.18947 3.29967 0
M  V30 25675 H 2407.97 4.37268 1.45373 0
M  V30 25676 H 2406.28 3.8986 1.46282 0
M  V30 25677 H 2408.88 3.3281 4.18499 0
M  V30 25678 H 2409.22 1.65496 3.8199 0
M  V30 25679 H 2409.75 2.92698 2.69393 0
M  V30 25680 H 2406.49 5.92235 2.80958 0
M  V30 25681 H 2406.01 4.57994 3.87301 0
M  V30 25682 H 2407.69 5.17421 3.88438 0
M  V30 25683 N 2407.82 -0.904008 1.29095 0
M  V30 25684 C 2408.79 -1.98917 1.13863 0
M  V30 25685 C 2409.79 -1.60623 0.0753739 0
M  V30 25686 O 2410.98 -1.71199 0.321961 0
M  V30 25687 C 2408.11 -3.32766 0.740257 0
M  V30 25688 H 2409.3 -2.13858 2.1025 0
M  V30 25689 H 2406.86 -1.08795 1.1222 0
M  V30 25690 H 2407.59 -3.23526 -0.223941 0
M  V30 25691 H 2407.38 -3.61923 1.50844 0
M  V30 25692 H 2408.87 -4.12405 0.656619 0
M  V30 25693 N 2409.3 -1.11501 -1.11379 0
M  V30 25694 C 2410.27 -0.777191 -2.15621 0
M  V30 25695 C 2411.27 0.203751 -1.59504 0
M  V30 25696 O 2412.46 -0.0208126 -1.74188 0
M  V30 25697 C 2409.59 -0.153176 -3.40556 0
M  V30 25698 H 2410.78 -1.70065 -2.47018 0
M  V30 25699 H 2408.33 -0.916974 -1.26575 0
M  V30 25700 H 2409.07 0.780481 -3.14768 0
M  V30 25701 H 2408.85 -0.859305 -3.82568 0
M  V30 25702 H 2410.34 0.067031 -4.17546 0
M  V30 25703 N 2410.78 1.28995 -0.905426 0
M  V30 25704 C 2412.03 1.94606 -0.530225 0
M  V30 25705 C 2412.34 1.72122 0.929155 0
M  V30 25706 O 2413.55 2.31886 1.41214 0
M  V30 25707 C 2412.01 3.48532 -0.897394 0
M  V30 25708 C 2411.61 3.79807 -2.37593 0
M  V30 25709 C 2413.36 4.20346 -0.592378 0
M  V30 25710 C 2411.26 5.27004 -2.68366 0
M  V30 25711 H 2410.19 0.728463 -0.19457 0
M  V30 25712 H 2412.85 1.46634 -1.10321 0
M  V30 25713 H 2411.23 3.95189 -0.253283 0
M  V30 25714 H 2412.4 3.43989 -3.06608 0
M  V30 25715 H 2410.72 3.21146 -2.65055 0
M  V30 25716 H 2413.31 5.28696 -0.799068 0
M  V30 25717 H 2413.66 4.13645 0.469401 0
M  V30 25718 H 2414.19 3.7944 -1.19458 0
M  V30 25719 H 2410.93 5.38775 -3.73365 0
M  V30 25720 H 2410.45 5.64049 -2.03981 0
M  V30 25721 H 2412.13 5.94658 -2.54933 0
M  V30 25722 N 2412.26 0.668514 1.42719 0
M  V30 25723 C 2413.21 -0.0254448 2.32586 0
M  V30 25724 C 2414.2 -0.79715 1.49472 0
M  V30 25725 O 2415.41 -0.705823 1.65584 0
M  V30 25726 H 2411.78 -0.0270207 0.751514 0
M  V30 25727 H 2413.75 0.749987 2.88821 0
M  V30 25728 C 2412.5 -0.967368 3.33972 0
M  V30 25729 H 2411.83 -0.382978 3.97961 0
M  V30 25730 H 2413.27 -1.42174 3.99453 0
M  V30 25731 C 2411.72 -2.07075 2.65747 0
M  V30 25732 O 2412.25 -3.15644 2.48459 0
M  V30 25733 N 2410.46 -1.84066 2.24873 0
M  V30 25734 H 2410.01 -0.957738 2.39134 0
M  V30 25735 H 2409.97 -2.58083 1.79557 0
M  V30 25736 N 2413.74 -1.52135 0.411426 0
M  V30 25737 C 2414.65 -2.30815 -0.419734 0
M  V30 25738 C 2415.66 -1.38636 -1.05148 0
M  V30 25739 O 2416.84 -1.71711 -1.05249 0
M  V30 25740 C 2413.9 -3.11597 -1.52014 0
M  V30 25741 C 2412.97 -4.19518 -0.911216 0
M  V30 25742 C 2412.2 -4.96439 -1.95918 0
M  V30 25743 O 2412.42 -4.73688 -3.17767 0
M  V30 25744 O 2411.36 -5.81222 -1.56413 0
M  V30 25745 H 2415.18 -3.02889 0.221858 0
M  V30 25746 H 2412.77 -1.48377 0.174573 0
M  V30 25747 H 2414.65 -3.61896 -2.15891 0
M  V30 25748 H 2413.32 -2.42314 -2.14629 0
M  V30 25749 H 2412.23 -3.73361 -0.235091 0
M  V30 25750 H 2413.56 -4.911 -0.328954 0
M  V30 25751 N 2415.22 -0.14192 -1.5696 0
M  V30 25752 C 2416.46 0.509449 -1.95574 0
M  V30 25753 C 2416.78 1.65734 -1.02749 0
M  V30 25754 O 2416.05 1.95702 -0.0880655 0
M  V30 25755 H 2414.63 0.191192 -0.722118 0
M  V30 25756 H 2417.3 -0.21623 -1.93697 0
M  V30 25757 H 2416.39 0.888948 -2.99172 0
M  V30 25758 N 2416.69 1.57047 0.131868 0
M  V30 25759 C 2417.63 1.96022 1.18776 0
M  V30 25760 C 2418.64 0.857899 1.38362 0
M  V30 25761 O 2419.83 1.13625 1.37664 0
M  V30 25762 C 2416.93 2.23217 2.55005 0
M  V30 25763 C 2416.1 3.54518 2.56195 0
M  V30 25764 C 2415.16 3.70075 3.74073 0
M  V30 25765 O 2414.19 4.42318 3.5825 0
M  V30 25766 N 2415.39 3.07874 4.92132 0
M  V30 25767 H 2418.15 2.87205 0.85634 0
M  V30 25768 H 2415.71 1.5868 0.321282 0
M  V30 25769 H 2417.71 2.30852 3.324 0
M  V30 25770 H 2416.28 1.38225 2.80379 0
M  V30 25771 H 2415.5 3.58188 1.64607 0
M  V30 25772 H 2416.78 4.40844 2.54035 0
M  V30 25773 H 2416.18 2.49125 5.07891 0
M  V30 25774 H 2414.74 3.21049 5.67249 0
M  V30 25775 N 2418.17 -0.401677 1.52395 0
M  V30 25776 C 2419.12 -1.51036 1.76892 0
M  V30 25777 C 2420.11 -1.56994 0.636326 0
M  V30 25778 O 2421.32 -1.60312 0.818535 0
M  V30 25779 H 2417.69 -0.502446 0.559511 0
M  V30 25780 H 2419.67 -1.27563 2.6976 0
M  V30 25781 C 2418.41 -2.8832 1.94336 0
M  V30 25782 H 2417.74 -2.84481 2.8091 0
M  V30 25783 H 2419.18 -3.65168 2.15473 0
M  V30 25784 C 2417.64 -3.29281 0.712454 0
M  V30 25785 O 2418.17 -4.01532 -0.116147 0
M  V30 25786 N 2416.37 -2.85421 0.546204 0
M  V30 25787 H 2415.92 -2.26792 1.2216 0
M  V30 25788 H 2415.88 -3.13186 -0.276058 0
M  V30 25789 N 2419.65 -1.43144 -0.659362 0
M  V30 25790 C 2420.6 -1.47825 -1.77246 0
M  V30 25791 C 2421.57 -0.328587 -1.62817 0
M  V30 25792 O 2422.75 -0.534871 -1.8315 0
M  V30 25793 C 2419.89 -1.40131 -3.15368 0
M  V30 25794 C 2419 -2.65255 -3.40975 0
M  V30 25795 C 2418.14 -2.49593 -4.6891 0
M  V30 25796 C 2417.18 -3.70015 -4.87602 0
M  V30 25797 N 2416.32 -3.532 -6.0679 0
M  V30 25798 H 2421.16 -2.42941 -1.7258 0
M  V30 25799 H 2418.69 -1.20599 -0.842275 0
M  V30 25800 H 2420.65 -1.33666 -3.95208 0
M  V30 25801 H 2419.28 -0.48602 -3.1912 0
M  V30 25802 H 2418.33 -2.82025 -2.55277 0
M  V30 25803 H 2419.64 -3.54724 -3.50674 0
M  V30 25804 H 2418.8 -2.408 -5.56866 0
M  V30 25805 H 2417.54 -1.57638 -4.61521 0
M  V30 25806 H 2416.54 -3.79222 -3.98083 0
M  V30 25807 H 2417.77 -4.6297 -4.96826 0
M  V30 25808 H 2415.71 -2.63975 -6.00544 0
M  V30 25809 H 2415.63 -4.36266 -6.1742 0
M  V30 25810 H 2416.9 -3.48248 -6.97383 0
M  V30 25811 N 2421.13 0.897149 -1.29572 0
M  V30 25812 C 2422.54 1.46317 -1.15967 0
M  V30 25813 C 2422.89 1.94674 0.244233 0
M  V30 25814 O 2422.01 1.83941 1.13995 0
M  V30 25815 C 2422.61 2.65938 -2.0991 0
M  V30 25816 C 2421.17 3.18668 -2.00319 0
M  V30 25817 C 2420.32 1.9136 -2.00691 0
M  V30 25818 H 2423.27 0.708243 -1.4202 0
M  V30 25819 H 2423.29 3.41756 -1.67282 0
M  V30 25820 H 2422.8 2.30712 -3.12079 0
M  V30 25821 H 2420.9 3.5858 -1.01248 0
M  V30 25822 H 2421.01 3.82793 -2.88109 0
M  V30 25823 H 2419.38 2.09173 -1.45323 0
M  V30 25824 H 2420.16 1.58407 -3.04568 0
M  V30 25825 N 2422.61 1.1209 1.10786 0
M  V30 25826 C 2423.52 0.798377 2.20597 0
M  V30 25827 C 2424.53 -0.21132 1.72712 0
M  V30 25828 O 2425.71 -0.0458123 2.01348 0
M  V30 25829 C 2422.77 0.253734 3.4577 0
M  V30 25830 C 2421.83 1.3229 4.08409 0
M  V30 25831 C 2421.07 0.804153 5.27607 0
M  V30 25832 O 2421.29 -0.363378 5.69241 0
M  V30 25833 O 2420.22 1.57208 5.81007 0
M  V30 25834 H 2424.05 1.71545 2.50611 0
M  V30 25835 H 2421.63 0.897296 1.19453 0
M  V30 25836 H 2423.52 -0.045295 4.21376 0
M  V30 25837 H 2422.19 -0.635949 3.17392 0
M  V30 25838 H 2421.1 1.67505 3.34504 0
M  V30 25839 H 2422.43 2.18622 4.40982 0
M  V30 25840 N 2424.08 -1.28513 0.912254 0
M  V30 25841 C 2425.33 -1.94322 0.540538 0
M  V30 25842 C 2425.65 -1.72613 -0.920014 0
M  V30 25843 O 2426.85 -2.32631 -1.39982 0
M  V30 25844 C 2425.31 -3.48052 0.915865 0
M  V30 25845 C 2424.92 -3.78542 2.39604 0
M  V30 25846 C 2426.66 -4.20026 0.614662 0
M  V30 25847 C 2424.57 -5.25574 2.71157 0
M  V30 25848 H 2423.5 -0.727421 0.198431 0
M  V30 25849 H 2426.15 -1.46047 1.11097 0
M  V30 25850 H 2424.53 -3.95049 0.274238 0
M  V30 25851 H 2425.7 -3.42358 3.08428 0
M  V30 25852 H 2424.02 -3.19736 2.66755 0
M  V30 25853 H 2426.62 -5.28264 0.827094 0
M  V30 25854 H 2426.96 -4.13888 -0.447458 0
M  V30 25855 H 2427.49 -3.78801 1.21469 0
M  V30 25856 H 2424.23 -5.36788 3.76217 0
M  V30 25857 H 2423.75 -5.6296 2.0697 0
M  V30 25858 H 2425.43 -5.93298 2.58083 0
M  V30 25859 N 2425.56 -0.676073 -1.42362 0
M  V30 25860 C 2426.47 0.00149265 -2.346 0
M  V30 25861 C 2427.49 0.787458 -1.55162 0
M  V30 25862 O 2428.66 0.729488 -1.87724 0
M  V30 25863 C 2425.73 0.940239 -3.33707 0
M  V30 25864 C 2424.79 0.148664 -4.29043 0
M  V30 25865 C 2424.02 1.0427 -5.23415 0
M  V30 25866 O 2424.25 2.28222 -5.22753 0
M  V30 25867 O 2423.18 0.50282 -5.99796 0
M  V30 25868 H 2427.01 -0.758319 -2.9408 0
M  V30 25869 H 2424.59 -0.436314 -1.42887 0
M  V30 25870 H 2426.47 1.4791 -3.94589 0
M  V30 25871 H 2425.15 1.67988 -2.76698 0
M  V30 25872 H 2424.06 -0.434335 -3.7157 0
M  V30 25873 H 2425.39 -0.551891 -4.89096 0
M  V30 25874 N 2427.04 1.51915 -0.419488 0
M  V30 25875 C 2428.29 2.02221 0.15313 0
M  V30 25876 C 2428.62 1.30403 1.43905 0
M  V30 25877 O 2427.89 0.413472 1.90054 0
M  V30 25878 C 2428.18 3.57979 0.390228 0
M  V30 25879 C 2428.03 4.40435 -0.913091 0
M  V30 25880 C 2429.35 4.24322 1.16786 0
M  V30 25881 H 2426.47 0.735006 0.0541795 0
M  V30 25882 H 2429.11 1.81714 -0.554987 0
M  V30 25883 H 2427.26 3.75584 0.993425 0
M  V30 25884 H 2428.93 4.34519 -1.5489 0
M  V30 25885 H 2427.18 4.06233 -1.52175 0
M  V30 25886 H 2427.85 5.47525 -0.701457 0
M  V30 25887 H 2430.32 4.10879 0.657089 0
M  V30 25888 H 2429.2 5.33222 1.30251 0
M  V30 25889 H 2429.46 3.83974 2.19126 0
M  V30 25890 N 2428.52 0.150242 1.56882 0
M  V30 25891 C 2429.75 -0.506913 2.00594 0
M  V30 25892 C 2430.16 -1.58206 1.03036 0
M  V30 25893 O 2429.52 -1.82479 0.0278716 0
M  V30 25894 C 2429.57 -1.10459 3.44211 0
M  V30 25895 O 2429.29 -0.0723866 4.3804 0
M  V30 25896 C 2430.79 -1.84204 4.03217 0
M  V30 25897 H 2428.01 -0.131678 0.657953 0
M  V30 25898 H 2430.56 0.245779 2.03018 0
M  V30 25899 H 2428.71 -1.80789 3.42628 0
M  V30 25900 H 2429.12 -0.510701 5.22008 0
M  V30 25901 H 2430.6 -2.21309 5.05694 0
M  V30 25902 H 2431.08 -2.72917 3.44112 0
M  V30 25903 H 2431.68 -1.18565 4.08439 0
M  V30 25904 N 2430 -1.57115 -0.123538 0
M  V30 25905 C 2431.24 -1.85766 -0.828395 0
M  V30 25906 C 2431.6 -0.737403 -1.77708 0
M  V30 25907 O 2430.89 0.262945 -1.89787 0
M  V30 25908 C 2431.08 -3.18571 -1.6201 0
M  V30 25909 C 2430.91 -4.43409 -0.749585 0
M  V30 25910 C 2429.68 -5.03665 -0.406162 0
M  V30 25911 C 2431.88 -5.14253 -0.0692601 0
M  V30 25912 N 2429.86 -6.12056 0.475497 0
M  V30 25913 C 2431.23 -6.16352 0.671583 0
M  V30 25914 C 2433.29 -4.97899 0.00763145 0
M  V30 25915 C 2431.99 -7.03865 1.48209 0
M  V30 25916 C 2434.02 -5.85896 0.804948 0
M  V30 25917 C 2433.38 -6.87494 1.534 0
M  V30 25918 H 2429.48 -0.730074 -0.280206 0
M  V30 25919 H 2432.06 -1.94481 -0.0923841 0
M  V30 25920 H 2430.23 -3.10961 -2.32719 0
M  V30 25921 H 2431.97 -3.35046 -2.26994 0
M  V30 25922 H 2428.72 -4.67666 -0.747364 0
M  V30 25923 H 2429.15 -6.70883 0.908042 0
M  V30 25924 H 2433.79 -4.19316 -0.541667 0
M  V30 25925 H 2431.51 -7.8186 2.04256 0
M  V30 25926 H 2435.09 -5.75308 0.866743 0
M  V30 25927 H 2433.97 -7.54407 2.14104 0
M  V30 25928 N 2431.47 0.393589 -1.52606 0
M  V30 25929 C 2432.44 1.4632 -1.76417 0
M  V30 25930 C 2433.44 1.47767 -0.634152 0
M  V30 25931 O 2434.63 1.49019 -0.902169 0
M  V30 25932 C 2431.76 2.85638 -1.86075 0
M  V30 25933 H 2432.95 1.26493 -2.71918 0
M  V30 25934 H 2430.51 0.625048 -1.43258 0
M  V30 25935 H 2431.24 3.10815 -0.925433 0
M  V30 25936 H 2431.03 2.85989 -2.6824 0
M  V30 25937 H 2432.52 3.63149 -2.06186 0
M  V30 25938 N 2432.95 1.43492 0.651762 0
M  V30 25939 C 2433.9 1.48763 1.7646 0
M  V30 25940 C 2434.87 0.337217 1.62641 0
M  V30 25941 O 2436.05 0.544576 1.82863 0
M  V30 25942 C 2433.19 1.41802 3.14621 0
M  V30 25943 C 2432.31 2.67059 3.39563 0
M  V30 25944 C 2431.44 2.52076 4.6758 0
M  V30 25945 C 2430.48 3.72595 4.85633 0
M  V30 25946 N 2429.62 3.56413 6.04908 0
M  V30 25947 H 2434.46 2.43852 1.71289 0
M  V30 25948 H 2432 1.21044 0.835868 0
M  V30 25949 H 2433.95 1.3576 3.94494 0
M  V30 25950 H 2432.58 0.502936 3.18858 0
M  V30 25951 H 2431.64 2.83374 2.53778 0
M  V30 25952 H 2432.95 3.56578 3.48788 0
M  V30 25953 H 2432.1 2.4375 5.55582 0
M  V30 25954 H 2430.84 1.60084 4.60678 0
M  V30 25955 H 2429.85 3.81328 3.96067 0
M  V30 25956 H 2431.07 4.65598 4.94364 0
M  V30 25957 H 2429.02 2.67156 5.99136 0
M  V30 25958 H 2428.93 4.39534 6.15098 0
M  V30 25959 H 2430.2 3.51941 6.95527 0
M  V30 25960 N 2434.43 -0.890264 1.30046 0
M  V30 25961 C 2435.36 -2.00089 1.1179 0
M  V30 25962 C 2436.38 -1.62679 0.0626593 0
M  V30 25963 O 2437.56 -1.7582 0.308143 0
M  V30 25964 C 2434.66 -3.31975 0.681585 0
M  V30 25965 C 2433.84 -3.97855 1.81742 0
M  V30 25966 C 2432.9 -5.08038 1.37054 0
M  V30 25967 O 2431.92 -5.29957 2.07687 0
M  V30 25968 N 2433.12 -5.79976 0.246627 0
M  V30 25969 H 2435.89 -2.16302 2.07445 0
M  V30 25970 H 2433.45 -1.06303 1.22112 0
M  V30 25971 H 2435.44 -4.03044 0.365746 0
M  V30 25972 H 2434.01 -3.12065 -0.182773 0
M  V30 25973 H 2433.23 -3.20028 2.30165 0
M  V30 25974 H 2434.52 -4.3861 2.57873 0
M  V30 25975 H 2433.92 -5.64665 -0.342051 0
M  V30 25976 H 2432.48 -6.51799 -0.00978981 0
M  V30 25977 N 2435.91 -1.12676 -1.1019 0
M  V30 25978 C 2437.16 -0.881893 -1.81844 0
M  V30 25979 C 2437.48 0.593835 -1.85738 0
M  V30 25980 O 2436.75 1.43157 -1.33727 0
M  V30 25981 H 2435.33 -0.323273 -0.673427 0
M  V30 25982 H 2437.99 -1.42175 -1.33313 0
M  V30 25983 H 2437.09 -1.26565 -2.85285 0
M  V30 25984 N 2437.39 1.28028 -0.919057 0
M  V30 25985 C 2438.8 1.47149 -0.617998 0
M  V30 25986 C 2439 1.83375 0.83521 0
M  V30 25987 O 2438.06 1.94194 1.61385 0
M  V30 25988 C 2439.37 2.57042 -1.56045 0
M  V30 25989 C 2440.92 2.70907 -1.56774 0
M  V30 25990 C 2441.39 3.83948 -2.49695 0
M  V30 25991 N 2442.89 3.9131 -2.47852 0
M  V30 25992 C 2443.62 4.78174 -3.16445 0
M  V30 25993 N 2443.12 5.69589 -3.94386 0
M  V30 25994 N 2444.91 4.71829 -3.05506 0
M  V30 25995 H 2437.06 1.02795 -1.85868 0
M  V30 25996 H 2439.32 0.512517 -0.797515 0
M  V30 25997 H 2439.03 2.37195 -2.59675 0
M  V30 25998 H 2438.9 3.54252 -1.29557 0
M  V30 25999 H 2441.29 2.9014 -0.538796 0
M  V30 26000 H 2441.37 1.74211 -1.87308 0
M  V30 26001 H 2441.02 3.65471 -3.52695 0
M  V30 26002 H 2440.95 4.80054 -2.16461 0
M  V30 26003 H 2443.44 3.25938 -1.9124 0
M  V30 26004 H 2443.75 6.3271 -4.43732 0
M  V30 26005 H 2442.09 5.69412 -3.98491 0
M  V30 26006 H 2445.29 3.99406 -2.44115 0
M  V30 26007 H 2445.46 5.39309 -3.59234 0
M  V30 26008 N 2438.86 0.683613 1.42002 0
M  V30 26009 C 2440.09 0.218218 2.05746 0
M  V30 26010 C 2440.51 -1.12801 1.51398 0
M  V30 26011 O 2439.86 -1.70251 0.657333 0
M  V30 26012 C 2439.92 0.154194 3.61171 0
M  V30 26013 O 2439.64 1.44723 4.13505 0
M  V30 26014 C 2441.14 -0.333635 4.42043 0
M  V30 26015 H 2438.36 0.104031 0.662886 0
M  V30 26016 H 2440.9 0.932832 1.81985 0
M  V30 26017 H 2439.06 -0.511163 3.84013 0
M  V30 26018 H 2439.47 1.32641 5.07451 0
M  V30 26019 H 2440.94 -0.327326 5.51029 0
M  V30 26020 H 2441.42 -1.37045 4.17271 0
M  V30 26021 H 2442.03 0.300297 4.24239 0
M  V30 26022 N 2440.34 -1.5169 0.427538 0
M  V30 26023 C 2441.25 -2.31247 -0.395229 0
M  V30 26024 C 2442.27 -1.39744 -1.03671 0
M  V30 26025 O 2443.45 -1.72817 -1.03422 0
M  V30 26026 C 2440.51 -3.13192 -1.487 0
M  V30 26027 C 2439.57 -4.20461 -0.866669 0
M  V30 26028 C 2438.8 -4.98489 -1.90642 0
M  V30 26029 O 2439.03 -4.77032 -3.12725 0
M  V30 26030 O 2437.96 -5.82848 -1.5024 0
M  V30 26031 H 2441.79 -3.02636 0.253971 0
M  V30 26032 H 2439.37 -1.48183 0.1903 0
M  V30 26033 H 2441.25 -3.64166 -2.12041 0
M  V30 26034 H 2439.93 -2.44577 -2.12047 0
M  V30 26035 H 2438.84 -3.73589 -0.195478 0
M  V30 26036 H 2440.17 -4.91421 -0.276848 0
M  V30 26037 N 2441.82 -0.15856 -1.568 0
M  V30 26038 C 2443.24 0.197746 -1.5837 0
M  V30 26039 C 2443.44 1.63812 -1.17337 0
M  V30 26040 O 2442.49 2.36705 -0.879029 0
M  V30 26041 C 2443.81 -0.0714987 -3.00615 0
M  V30 26042 C 2445.35 -0.00870035 -3.12999 0
M  V30 26043 C 2445.83 -0.250765 -4.57313 0
M  V30 26044 N 2447.32 -0.198095 -4.62776 0
M  V30 26045 C 2448.06 -0.359742 -5.7227 0
M  V30 26046 N 2447.55 -0.579747 -6.9037 0
M  V30 26047 N 2449.34 -0.296537 -5.61317 0
M  V30 26048 H 2441.5 -1.0989 -1.81763 0
M  V30 26049 H 2443.76 -0.435899 -0.841841 0
M  V30 26050 H 2443.46 -1.0688 -3.35066 0
M  V30 26051 H 2443.34 0.642692 -3.71684 0
M  V30 26052 H 2445.73 0.979168 -2.78382 0
M  V30 26053 H 2445.81 -0.755402 -2.44392 0
M  V30 26054 H 2445.45 -1.23578 -4.92637 0
M  V30 26055 H 2445.38 0.516397 -5.24062 0
M  V30 26056 H 2447.87 -0.0331779 -3.77885 0
M  V30 26057 H 2448.18 -0.692886 -7.69688 0
M  V30 26058 H 2446.53 -0.616208 -6.92263 0
M  V30 26059 H 2449.72 -0.125341 -4.67932 0
M  V30 26060 H 2449.89 -0.425945 -6.46599 0
M  V30 26061 N 2443.3 1.57178 0.115204 0
M  V30 26062 C 2444.23 2.03653 1.14227 0
M  V30 26063 C 2445.21 0.921681 1.42965 0
M  V30 26064 O 2446.4 1.19164 1.53341 0
M  V30 26065 C 2443.53 2.44405 2.46746 0
M  V30 26066 C 2442.48 3.59369 2.32461 0
M  V30 26067 C 2441.81 3.86033 3.69977 0
M  V30 26068 C 2443.11 4.90962 1.78194 0
M  V30 26069 H 2444.8 2.89706 0.755698 0
M  V30 26070 H 2442.35 1.39374 0.362068 0
M  V30 26071 H 2444.3 2.75523 3.1885 0
M  V30 26072 H 2443.02 1.55327 2.873 0
M  V30 26073 H 2441.68 3.28466 1.62805 0
M  V30 26074 H 2441.33 2.94154 4.08023 0
M  V30 26075 H 2441.03 4.63419 3.61271 0
M  V30 26076 H 2442.55 4.19606 4.4358 0
M  V30 26077 H 2443.97 5.20592 2.40119 0
M  V30 26078 H 2442.36 5.72374 1.803 0
M  V30 26079 H 2443.43 4.79223 0.739792 0
M  V30 26080 N 2444.78 -0.38549 1.52813 0
M  V30 26081 C 2446.02 -1.13908 1.69718 0
M  V30 26082 C 2446.38 -1.87131 0.429653 0
M  V30 26083 O 2447.58 -2.64568 0.475118 0
M  V30 26084 C 2445.85 -2.08855 2.90025 0
M  V30 26085 S 2447.41 -2.92003 3.27536 0
M  V30 26086 H 2444.23 -0.385537 0.597396 0
M  V30 26087 H 2446.83 -0.423028 1.90868 0
M  V30 26088 H 2445.54 -1.5379 3.80495 0
M  V30 26089 H 2445.07 -2.84964 2.71218 0
M  V30 26090 H 2447.08 -4.11014 2.77996 0
M  V30 26091 N 2446.26 -1.43835 -0.644143 0
M  V30 26092 C 2447.48 -1.49607 -1.4364 0
M  V30 26093 C 2447.91 -0.117946 -1.8773 0
M  V30 26094 O 2447.26 0.890211 -1.5794 0
M  V30 26095 C 2447.31 -2.45468 -2.64155 0
M  V30 26096 O 2446.42 -1.94721 -3.63535 0
M  V30 26097 H 2445.76 -0.505688 -0.43032 0
M  V30 26098 H 2448.29 -1.88841 -0.787415 0
M  V30 26099 H 2448.3 -2.63073 -3.1186 0
M  V30 26100 H 2446.97 -3.45576 -2.31408 0
M  V30 26101 H 2445.55 -1.8682 -3.22727 0
M  V30 26102 N 2447.73 0.883355 -1.30517 0
M  V30 26103 C 2448.67 1.99494 -1.12849 0
M  V30 26104 C 2449.68 1.62644 -0.0712857 0
M  V30 26105 O 2450.87 1.75654 -0.317462 0
M  V30 26106 C 2447.97 3.31609 -0.699181 0
M  V30 26107 C 2447.14 3.96886 -1.83849 0
M  V30 26108 C 2446.2 5.07304 -1.39746 0
M  V30 26109 O 2445.23 5.28849 -2.10494 0
M  V30 26110 N 2446.43 5.79837 -0.277381 0
M  V30 26111 H 2449.19 2.15199 -2.08589 0
M  V30 26112 H 2446.75 1.05654 -1.22674 0
M  V30 26113 H 2448.75 4.02844 -0.387115 0
M  V30 26114 H 2447.32 3.12158 0.166221 0
M  V30 26115 H 2446.54 3.18803 -2.31859 0
M  V30 26116 H 2447.82 4.37237 -2.60195 0
M  V30 26117 H 2447.22 5.64838 0.3121 0
M  V30 26118 H 2445.78 6.51795 -0.0247768 0
M  V30 26119 N 2449.21 1.13259 1.09591 0
M  V30 26120 C 2450.16 0.803821 2.18269 0
M  V30 26121 C 2451.15 -0.213119 1.68054 0
M  V30 26122 O 2452.36 -0.0704383 1.79862 0
M  V30 26123 H 2448.73 0.242156 0.711944 0
M  V30 26124 H 2450.71 1.7286 2.43232 0
M  V30 26125 C 2449.45 0.284301 3.46536 0
M  V30 26126 H 2448.78 1.05813 3.85543 0
M  V30 26127 H 2450.22 0.092669 4.23899 0
M  V30 26128 C 2448.68 -0.989627 3.22037 0
M  V30 26129 O 2449.21 -2.06577 3.44512 0
M  V30 26130 N 2447.41 -0.920038 2.75651 0
M  V30 26131 H 2446.96 -0.0441566 2.57562 0
M  V30 26132 H 2446.92 -1.77301 2.59638 0
M  V30 26133 N 2450.69 -1.27539 0.925834 0
M  V30 26134 C 2452.1 -1.76449 0.610133 0
M  V30 26135 C 2452.45 -1.75623 -0.874692 0
M  V30 26136 O 2451.58 -1.35854 -1.68442 0
M  V30 26137 C 2452.17 -3.20419 1.10079 0
M  V30 26138 C 2450.73 -3.67003 0.835787 0
M  V30 26139 C 2449.88 -2.46991 1.26058 0
M  V30 26140 H 2452.83 -1.13831 1.10581 0
M  V30 26141 H 2452.85 -3.77858 0.447624 0
M  V30 26142 H 2452.36 -3.20987 2.18148 0
M  V30 26143 H 2450.46 -3.71882 -0.231184 0
M  V30 26144 H 2450.58 -4.56567 1.45201 0
M  V30 26145 H 2448.94 -2.45478 0.679154 0
M  V30 26146 H 2449.72 -2.50271 2.34988 0
M  V30 26147 N 2452.17 -0.691135 -1.41637 0
M  V30 26148 C 2453.58 -0.295549 -1.84346 0
M  V30 26149 C 2453.93 1.16544 -1.57835 0
M  V30 26150 O 2453.05 1.89412 -1.04652 0
M  V30 26151 C 2453.65 -0.529634 -3.34635 0
M  V30 26152 C 2452.21 -0.18801 -3.7593 0
M  V30 26153 C 2451.36 -0.814099 -2.65081 0
M  V30 26154 H 2454.31 -0.892115 -1.31252 0
M  V30 26155 H 2454.33 0.213082 -3.79903 0
M  V30 26156 H 2453.84 -1.59304 -3.53898 0
M  V30 26157 H 2451.94 0.871304 -3.62269 0
M  V30 26158 H 2452.05 -0.639933 -4.74807 0
M  V30 26159 H 2450.42 -0.244061 -2.53528 0
M  V30 26160 H 2451.2 -1.88128 -2.87163 0
M  V30 26161 N 2453.65 1.51461 -0.435577 0
M  V30 26162 C 2454.89 2.02372 0.131673 0
M  V30 26163 C 2455.22 1.31922 1.42514 0
M  V30 26164 O 2454.5 0.433606 1.89605 0
M  V30 26165 C 2454.78 3.58373 0.352238 0
M  V30 26166 C 2454.64 4.39441 -0.959754 0
M  V30 26167 C 2455.95 4.25537 1.12279 0
M  V30 26168 H 2453.07 0.735539 0.0463807 0
M  V30 26169 H 2455.72 1.81115 -0.574229 0
M  V30 26170 H 2453.87 3.76616 0.953534 0
M  V30 26171 H 2455.54 4.32852 -1.5949 0
M  V30 26172 H 2453.78 4.04596 -1.56475 0
M  V30 26173 H 2454.45 5.4675 -0.75949 0
M  V30 26174 H 2456.93 4.11553 0.613473 0
M  V30 26175 H 2455.8 5.34574 1.24588 0
M  V30 26176 H 2456.06 3.86277 2.15041 0
M  V30 26177 N 2455.12 0.166873 1.56714 0
M  V30 26178 C 2456.05 -0.760874 2.20755 0
M  V30 26179 C 2457.04 -1.24242 1.1618 0
M  V30 26180 O 2458.22 -1.29639 1.44594 0
M  V30 26181 C 2455.35 -1.99218 2.84481 0
M  V30 26182 C 2454.3 -1.64665 3.95056 0
M  V30 26183 C 2453.63 -2.95224 4.4581 0
M  V30 26184 C 2454.93 -0.878064 5.14866 0
M  V30 26185 H 2456.62 -0.227077 2.98538 0
M  V30 26186 H 2454.17 -0.10778 1.43596 0
M  V30 26187 H 2456.12 -2.64618 3.27956 0
M  V30 26188 H 2454.85 -2.55004 2.04061 0
M  V30 26189 H 2453.51 -1.01635 3.5223 0
M  V30 26190 H 2453.15 -3.49041 3.62187 0
M  V30 26191 H 2452.85 -2.72861 5.20404 0
M  V30 26192 H 2454.38 -3.61662 4.91969 0
M  V30 26193 H 2455.79 -1.43456 5.55061 0
M  V30 26194 H 2454.19 -0.753633 5.95349 0
M  V30 26195 H 2455.26 0.126462 4.84735 0
M  V30 26196 N 2456.6 -1.57237 -0.106866 0
M  V30 26197 C 2457.55 -2.01219 -1.13046 0
M  V30 26198 C 2458.52 -0.886428 -1.40469 0
M  V30 26199 O 2459.7 -1.15156 -1.52131 0
M  V30 26200 C 2456.84 -2.43176 -2.44866 0
M  V30 26201 C 2455.96 -3.69222 -2.24275 0
M  V30 26202 C 2455.09 -4.00108 -3.4941 0
M  V30 26203 C 2454.13 -5.19299 -3.24029 0
M  V30 26204 N 2453.27 -5.45995 -4.414 0
M  V30 26205 H 2458.11 -2.88449 -0.748406 0
M  V30 26206 H 2455.65 -1.42676 -0.358029 0
M  V30 26207 H 2457.6 -2.65543 -3.21781 0
M  V30 26208 H 2456.23 -1.58972 -2.80941 0
M  V30 26209 H 2455.29 -3.54401 -1.38218 0
M  V30 26210 H 2456.6 -4.56287 -2.01504 0
M  V30 26211 H 2455.75 -4.23188 -4.34738 0
M  V30 26212 H 2454.49 -3.11542 -3.75224 0
M  V30 26213 H 2453.5 -4.96051 -2.37093 0
M  V30 26214 H 2454.72 -6.09453 -2.99573 0
M  V30 26215 H 2452.67 -4.60388 -4.67311 0
M  V30 26216 H 2452.58 -6.27407 -4.21777 0
M  V30 26217 H 2453.85 -5.73603 -5.27826 0
M  V30 26218 N 2458.08 0.377381 -1.53015 0
M  V30 26219 C 2459.5 0.718256 -1.42525 0
M  V30 26220 C 2459.7 1.93709 -0.554904 0
M  V30 26221 O 2458.75 2.52479 -0.0328037 0
M  V30 26222 C 2460.07 0.942488 -2.85548 0
M  V30 26223 C 2461.61 1.04324 -2.95103 0
M  V30 26224 C 2462.09 1.30002 -4.39162 0
M  V30 26225 N 2463.58 1.36798 -4.42539 0
M  V30 26226 C 2464.31 1.58355 -5.511 0
M  V30 26227 N 2463.81 1.77305 -6.69727 0
M  V30 26228 N 2465.6 1.60628 -5.3866 0
M  V30 26229 H 2457.75 -0.424462 -2.08116 0
M  V30 26230 H 2460.02 -0.127775 -0.939349 0
M  V30 26231 H 2459.72 0.118867 -3.51499 0
M  V30 26232 H 2459.6 1.85392 -3.28496 0
M  V30 26233 H 2461.98 1.85741 -2.29312 0
M  V30 26234 H 2462.07 0.10946 -2.55566 0
M  V30 26235 H 2461.71 0.490902 -5.05522 0
M  V30 26236 H 2461.64 2.24683 -4.76262 0
M  V30 26237 H 2464.13 1.23815 -3.57041 0
M  V30 26238 H 2464.44 1.93293 -7.48236 0
M  V30 26239 H 2462.79 1.74506 -6.72735 0
M  V30 26240 H 2465.98 1.45383 -4.44951 0
M  V30 26241 H 2466.15 1.77087 -6.23333 0
M  V30 26242 N 2459.56 1.44175 0.636506 0
M  V30 26243 C 2460.51 1.47064 1.7423 0
M  V30 26244 C 2461.49 0.337061 1.5733 0
M  V30 26245 O 2462.68 0.582002 1.67158 0
M  V30 26246 C 2459.81 1.41252 3.12894 0
M  V30 26247 C 2458.9 2.59704 3.35283 0
M  V30 26248 N 2459.29 3.84978 3.28064 0
M  V30 26249 C 2457.59 2.54785 3.66061 0
M  V30 26250 C 2458.29 4.63874 3.50993 0
M  V30 26251 N 2457.27 3.94863 3.73609 0
M  V30 26252 H 2461.07 2.41775 1.67098 0
M  V30 26253 H 2458.58 1.39062 0.838782 0
M  V30 26254 H 2460.58 1.41405 3.92186 0
M  V30 26255 H 2459.24 0.475747 3.21196 0
M  V30 26256 H 2460.25 4.17024 3.07102 0
M  V30 26257 H 2456.93 1.69877 3.81376 0
M  V30 26258 H 2458.32 5.729 3.51049 0
M  V30 26259 N 2461.04 -0.876421 1.30983 0
M  V30 26260 C 2461.97 -1.98892 1.13906 0
M  V30 26261 C 2462.98 -1.62604 0.0799101 0
M  V30 26262 O 2464.17 -1.75483 0.326773 0
M  V30 26263 C 2461.27 -3.31234 0.716757 0
M  V30 26264 C 2460.44 -3.95905 1.85951 0
M  V30 26265 C 2459.5 -5.06556 1.42434 0
M  V30 26266 O 2458.53 -5.27725 2.13296 0
M  V30 26267 N 2459.73 -5.79682 0.308127 0
M  V30 26268 H 2462.5 -2.1409 2.09727 0
M  V30 26269 H 2460.06 -1.05002 1.23232 0
M  V30 26270 H 2462.05 -4.02633 0.408473 0
M  V30 26271 H 2460.62 -3.12242 -0.149664 0
M  V30 26272 H 2459.84 -3.17569 2.33546 0
M  V30 26273 H 2461.13 -4.35851 2.6251 0
M  V30 26274 H 2460.52 -5.64996 -0.282141 0
M  V30 26275 H 2459.08 -6.51773 0.0593428 0
M  V30 26276 N 2462.51 -1.13839 -1.08989 0
M  V30 26277 C 2463.93 -0.877529 -1.3331 0
M  V30 26278 C 2464.13 0.484526 -1.95588 0
M  V30 26279 O 2463.19 1.23009 -2.20511 0
M  V30 26280 C 2464.5 -2.00564 -2.24042 0
M  V30 26281 C 2466.05 -2.03825 -2.37538 0
M  V30 26282 C 2466.52 -3.15911 -3.31608 0
M  V30 26283 N 2468.01 -3.15451 -3.39183 0
M  V30 26284 C 2468.75 -3.98818 -4.11985 0
M  V30 26285 N 2468.24 -4.92211 -4.87545 0
M  V30 26286 N 2470.04 -3.86901 -4.07755 0
M  V30 26287 H 2462.19 -2.01575 -0.66942 0
M  V30 26288 H 2464.45 -0.878021 -0.357466 0
M  V30 26289 H 2464.16 -2.98792 -1.85516 0
M  V30 26290 H 2464.03 -1.92364 -3.24462 0
M  V30 26291 H 2466.42 -1.06207 -2.75326 0
M  V30 26292 H 2466.5 -2.16096 -1.36881 0
M  V30 26293 H 2466.14 -4.13771 -2.94543 0
M  V30 26294 H 2466.07 -3.00878 -4.32181 0
M  V30 26295 H 2468.56 -2.47804 -2.8531 0
M  V30 26296 H 2468.88 -5.52302 -5.40539 0
M  V30 26297 H 2467.22 -4.96214 -4.86618 0
M  V30 26298 H 2470.41 -3.13263 -3.47828 0
M  V30 26299 H 2470.59 -4.521 -4.6423 0
M  V30 26300 N 2463.99 1.27046 -0.932584 0
M  V30 26301 C 2464.9 2.30413 -0.441259 0
M  V30 26302 C 2465.92 1.67234 0.480496 0
M  V30 26303 O 2467.09 1.98118 0.362116 0
M  V30 26304 C 2464.16 3.45455 0.29359 0
M  V30 26305 C 2463.22 4.24139 -0.663675 0
M  V30 26306 C 2462.45 5.33688 0.0361994 0
M  V30 26307 O 2462.68 5.56429 1.2547 0
M  V30 26308 O 2461.61 5.98508 -0.63812 0
M  V30 26309 H 2465.44 2.74486 -1.29967 0
M  V30 26310 H 2463.02 1.32086 -0.698124 0
M  V30 26311 H 2464.9 4.15412 0.707878 0
M  V30 26312 H 2463.58 3.03428 1.12753 0
M  V30 26313 H 2462.49 3.56697 -1.12774 0
M  V30 26314 H 2463.82 4.69893 -1.46497 0
M  V30 26315 N 2465.47 0.698636 1.41269 0
M  V30 26316 C 2466.72 0.227984 2.00407 0
M  V30 26317 C 2467.03 -1.1802 1.55983 0
M  V30 26318 O 2468.24 -1.74848 2.07702 0
M  V30 26319 C 2466.69 0.356699 3.58128 0
M  V30 26320 C 2466.3 1.77045 4.11533 0
M  V30 26321 C 2468.05 -0.0540223 4.24466 0
M  V30 26322 C 2465.95 1.85065 5.61698 0
M  V30 26323 H 2464.88 0.0814788 0.749585 0
M  V30 26324 H 2467.53 0.867277 1.61711 0
M  V30 26325 H 2465.92 -0.350896 3.94442 0
M  V30 26326 H 2467.09 2.50705 3.86631 0
M  V30 26327 H 2465.41 2.13112 3.57732 0
M  V30 26328 H 2468 -0.0145783 5.34698 0
M  V30 26329 H 2468.35 -1.09325 4.01689 0
M  V30 26330 H 2468.88 0.603406 3.93197 0
M  V30 26331 H 2465.62 2.87051 5.89307 0
M  V30 26332 H 2465.14 1.15794 5.88517 0
M  V30 26333 H 2466.82 1.61495 6.26521 0
M  V30 26334 N 2466.95 -1.51228 0.443603 0
M  V30 26335 C 2468.18 -2.06556 -0.119253 0
M  V30 26336 C 2468.59 -1.3104 -1.35919 0
M  V30 26337 O 2467.95 -0.371736 -1.78674 0
M  V30 26338 C 2468 -3.58871 -0.435165 0
M  V30 26339 O 2467.72 -4.31535 0.755562 0
M  V30 26340 C 2469.22 -4.30734 -1.04801 0
M  V30 26341 H 2466.44 -0.67098 -0.0051466 0
M  V30 26342 H 2468.99 -1.94732 0.624487 0
M  V30 26343 H 2467.14 -3.7059 -1.12881 0
M  V30 26344 H 2467.55 -5.22266 0.483582 0
M  V30 26345 H 2469.03 -5.38372 -1.21901 0
M  V30 26346 H 2469.51 -3.89432 -2.03074 0
M  V30 26347 H 2470.11 -4.23475 -0.393562 0
M  V30 26348 N 2468.43 -0.175182 -1.56623 0
M  V30 26349 C 2469.84 0.180938 -1.58571 0
M  V30 26350 C 2470.04 1.62558 -1.19068 0
M  V30 26351 O 2469.1 2.3576 -0.904086 0
M  V30 26352 C 2470.41 -0.103379 -3.00522 0
M  V30 26353 C 2471.96 -0.0418976 -3.12972 0
M  V30 26354 C 2472.43 -0.299255 -4.57021 0
M  V30 26355 N 2473.93 -0.247167 -4.6254 0
M  V30 26356 C 2474.66 -0.420419 -5.71857 0
M  V30 26357 N 2474.16 -0.652937 -6.89716 0
M  V30 26358 N 2475.95 -0.356055 -5.60971 0
M  V30 26359 H 2468.1 -1.11812 -1.80588 0
M  V30 26360 H 2470.36 -0.444803 -0.83717 0
M  V30 26361 H 2470.07 -1.10428 -3.33914 0
M  V30 26362 H 2469.94 0.603234 -3.72345 0
M  V30 26363 H 2472.33 0.949587 -2.79404 0
M  V30 26364 H 2472.41 -0.781281 -2.43577 0
M  V30 26365 H 2472.06 -1.28797 -4.91298 0
M  V30 26366 H 2471.99 0.460784 -5.2458 0
M  V30 26367 H 2474.48 -0.0732559 -3.77829 0
M  V30 26368 H 2474.79 -0.774482 -7.68909 0
M  V30 26369 H 2473.13 -0.689598 -6.9157 0
M  V30 26370 H 2476.33 -0.174964 -4.67773 0
M  V30 26371 H 2476.5 -0.494501 -6.4611 0
M  V30 26372 N 2469.91 1.57292 0.0985263 0
M  V30 26373 C 2471.13 1.90117 0.816285 0
M  V30 26374 C 2471.55 0.768539 1.7245 0
M  V30 26375 O 2470.91 -0.259655 1.80643 0
M  V30 26376 C 2470.96 3.22538 1.63253 0
M  V30 26377 O 2470.68 4.31442 0.760859 0
M  V30 26378 C 2472.18 3.69203 2.45365 0
M  V30 26379 H 2469.4 0.629031 0.233584 0
M  V30 26380 H 2471.94 2.04356 0.076787 0
M  V30 26381 H 2470.1 3.09907 2.32457 0
M  V30 26382 H 2470.51 5.07466 1.32586 0
M  V30 26383 H 2471.99 4.64563 2.98136 0
M  V30 26384 H 2472.46 2.96873 3.23672 0
M  V30 26385 H 2473.07 3.8469 1.81367 0
M  V30 26386 N 2471.38 -0.369261 1.53213 0
M  V30 26387 C 2472.61 -1.133 1.73121 0
M  V30 26388 C 2473.03 -1.83148 0.458487 0
M  V30 26389 O 2472.38 -1.73424 -0.568372 0
M  V30 26390 C 2472.43 -2.16611 2.89417 0
M  V30 26391 O 2472.16 -1.49607 4.11764 0
M  V30 26392 C 2473.66 -3.0556 3.21167 0
M  V30 26393 H 2470.88 -0.338924 0.579113 0
M  V30 26394 H 2473.42 -0.429302 1.99943 0
M  V30 26395 H 2471.58 -2.82585 2.64999 0
M  V30 26396 H 2471.99 -2.18411 4.76862 0
M  V30 26397 H 2473.46 -3.74038 4.05955 0
M  V30 26398 H 2473.94 -3.70166 2.36376 0
M  V30 26399 H 2474.55 -2.45207 3.47496 0
M  V30 26400 N 2472.86 -1.4451 -0.628851 0
M  V30 26401 C 2473.79 -1.54379 -1.75184 0
M  V30 26402 C 2474.77 -0.396647 -1.65411 0
M  V30 26403 O 2475.96 -0.617063 -1.84136 0
M  V30 26404 C 2473.09 -1.48981 -3.13723 0
M  V30 26405 C 2472.04 -2.62195 -3.38287 0
M  V30 26406 C 2471.37 -2.41849 -4.76879 0
M  V30 26407 C 2472.67 -4.04332 -3.30625 0
M  V30 26408 H 2474.36 -2.48376 -1.67182 0
M  V30 26409 H 2471.91 -1.1954 -0.802888 0
M  V30 26410 H 2473.86 -1.54485 -3.92062 0
M  V30 26411 H 2472.58 -0.515017 -3.22514 0
M  V30 26412 H 2471.24 -2.56084 -2.62329 0
M  V30 26413 H 2470.89 -1.42557 -4.82376 0
M  V30 26414 H 2470.59 -3.17756 -4.94272 0
M  V30 26415 H 2472.12 -2.49174 -5.57445 0
M  V30 26416 H 2473.53 -4.118 -3.98866 0
M  V30 26417 H 2471.93 -4.8046 -3.59553 0
M  V30 26418 H 2473 -4.27742 -2.28397 0
M  V30 26419 N 2474.34 0.869463 -1.31446 0
M  V30 26420 C 2475.27 1.98285 -1.14959 0
M  V30 26421 C 2476.28 1.62559 -0.0885323 0
M  V30 26422 O 2477.47 1.75308 -0.336075 0
M  V30 26423 C 2474.57 3.30849 -0.734313 0
M  V30 26424 C 2473.75 3.94913 -1.88048 0
M  V30 26425 C 2472.81 5.05793 -1.45119 0
M  V30 26426 O 2471.83 5.26586 -2.16091 0
M  V30 26427 N 2473.03 5.7951 -0.338865 0
M  V30 26428 H 2475.8 2.12975 -2.1086 0
M  V30 26429 H 2473.36 1.04347 -1.23787 0
M  V30 26430 H 2475.35 4.02411 -0.42982 0
M  V30 26431 H 2473.92 3.12317 0.133103 0
M  V30 26432 H 2473.14 3.16325 -2.35227 0
M  V30 26433 H 2474.43 4.34452 -2.64818 0
M  V30 26434 H 2473.83 5.65138 0.252174 0
M  V30 26435 H 2472.38 6.51732 -0.093907 0
M  V30 26436 N 2475.82 1.14415 1.08383 0
M  V30 26437 C 2477.04 0.936445 1.85055 0
M  V30 26438 C 2477.47 -0.509939 1.81056 0
M  V30 26439 O 2476.83 -1.36271 1.19582 0
M  V30 26440 C 2476.87 1.44223 3.30503 0
M  V30 26441 O 2475.98 0.63448 4.0749 0
M  V30 26442 H 2475.32 0.334794 0.573419 0
M  V30 26443 H 2477.85 1.52144 1.36797 0
M  V30 26444 H 2477.86 1.4505 3.81346 0
M  V30 26445 H 2476.53 2.49528 3.32729 0
M  V30 26446 H 2475.11 0.694967 3.66367 0
M  V30 26447 N 2477.3 -1.26549 0.939309 0
M  V30 26448 C 2478.57 -1.89 0.503833 0
M  V30 26449 C 2478.95 -1.84904 -1.01851 0
M  V30 26450 O 2478.3 -1.3021 -1.8777 0
M  V30 26451 C 2478.51 -3.32415 1.06306 0
M  V30 26452 C 2479.86 -4.09271 1.13058 0
M  V30 26453 O 2480.88 -3.41477 1.01351 0
M  V30 26454 O 2479.74 -5.30507 1.31242 0
M  V30 26455 H 2476.84 -0.810594 0.163911 0
M  V30 26456 H 2479.38 -1.34733 1.03175 0
M  V30 26457 H 2478.15 -3.29748 2.1067 0
M  V30 26458 H 2477.78 -3.94218 0.517477 0
M  V30 26459 N 2478.77 -0.706118 -1.40896 0
M  V30 26460 C 2479.71 -0.00819805 -2.29199 0
M  V30 26461 C 2480.72 0.733556 -1.45337 0
M  V30 26462 O 2481.91 0.582507 -1.68728 0
M  V30 26463 C 2479.01 1.0126 -3.23419 0
M  V30 26464 C 2478.18 0.338311 -4.3609 0
M  V30 26465 C 2477.24 1.26317 -5.10813 0
M  V30 26466 O 2476.27 0.751552 -5.64217 0
M  V30 26467 N 2477.47 2.59491 -5.19273 0
M  V30 26468 H 2480.23 -0.766348 -2.89736 0
M  V30 26469 H 2477.79 -0.552987 -1.52163 0
M  V30 26470 H 2479.79 1.63328 -3.70278 0
M  V30 26471 H 2478.36 1.67219 -2.64115 0
M  V30 26472 H 2477.58 -0.462421 -3.91478 0
M  V30 26473 H 2478.86 -0.130121 -5.08634 0
M  V30 26474 H 2478.26 3.03564 -4.77352 0
M  V30 26475 H 2476.82 3.16727 -5.69673 0
M  V30 26476 N 2480.25 1.50991 -0.451617 0
M  V30 26477 C 2481.16 2.31846 0.35839 0
M  V30 26478 C 2482.18 1.41375 1.01435 0
M  V30 26479 O 2483.35 1.74441 1.0066 0
M  V30 26480 C 2480.42 3.15518 1.43699 0
M  V30 26481 C 2479.48 4.21786 0.799668 0
M  V30 26482 C 2478.71 5.01459 1.82687 0
M  V30 26483 O 2478.94 4.81947 3.05096 0
M  V30 26484 O 2477.87 5.85164 1.40948 0
M  V30 26485 H 2481.7 3.02194 -0.302085 0
M  V30 26486 H 2479.28 1.47862 -0.213851 0
M  V30 26487 H 2481.16 3.67493 2.0622 0
M  V30 26488 H 2479.84 2.4792 2.08129 0
M  V30 26489 H 2478.74 3.73853 0.136018 0
M  V30 26490 H 2480.08 4.91799 0.198632 0
M  V30 26491 N 2481.73 0.183486 1.56528 0
M  V30 26492 C 2482.64 -0.754233 2.22145 0
M  V30 26493 C 2483.66 -1.24372 1.21687 0
M  V30 26494 O 2484.83 -1.29331 1.54388 0
M  V30 26495 C 2481.9 -1.96136 2.85887 0
M  V30 26496 C 2480.96 -1.51758 4.01582 0
M  V30 26497 C 2480.19 -2.66717 4.62275 0
M  V30 26498 O 2480.41 -3.83902 4.21872 0
M  V30 26499 O 2479.35 -2.40094 5.5194 0
M  V30 26500 H 2483.17 -0.225473 3.02862 0
M  V30 26501 H 2480.76 -0.045277 1.49331 0
M  V30 26502 H 2482.64 -2.6671 3.26257 0
M  V30 26503 H 2481.32 -2.47895 2.08158 0
M  V30 26504 H 2480.22 -0.780985 3.65857 0
M  V30 26505 H 2481.56 -1.04678 4.8094 0
M  V30 26506 N 2483.21 -1.57342 -0.0901833 0
M  V30 26507 C 2484.46 -1.85521 -0.791498 0
M  V30 26508 C 2484.77 -0.773472 -1.79657 0
M  V30 26509 O 2485.98 -0.942542 -2.54614 0
M  V30 26510 C 2484.43 -3.29022 -1.4585 0
M  V30 26511 C 2484.04 -4.4528 -0.492939 0
M  V30 26512 C 2485.78 -3.66422 -2.14326 0
M  V30 26513 C 2483.69 -5.79816 -1.16481 0
M  V30 26514 H 2482.62 -0.692033 -0.299344 0
M  V30 26515 H 2485.27 -1.83446 -0.0445021 0
M  V30 26516 H 2483.65 -3.25654 -2.25313 0
M  V30 26517 H 2484.83 -4.60005 0.270545 0
M  V30 26518 H 2483.14 -4.1631 0.0863793 0
M  V30 26519 H 2485.74 -4.64221 -2.65336 0
M  V30 26520 H 2486.08 -2.95293 -2.93442 0
M  V30 26521 H 2486.62 -3.717 -1.41717 0
M  V30 26522 H 2483.35 -6.54189 -0.414355 0
M  V30 26523 H 2482.87 -5.68925 -1.8996 0
M  V30 26524 H 2484.55 -6.24541 -1.6899 0
M  V30 26525 N 2484.69 0.36113 -1.53407 0
M  V30 26526 C 2485.96 1.11924 -1.60413 0
M  V30 26527 C 2486.34 2.06992 -0.414421 0
M  V30 26528 O 2485.69 2.20619 0.594937 0
M  V30 26529 C 2485.9 1.85442 -2.95655 0
M  V30 26530 C 2487.25 2.39817 -3.5039 0
M  V30 26531 O 2488.27 1.95563 -2.97714 0
M  V30 26532 O 2487.13 3.20729 -4.42487 0
M  V30 26533 H 2484.23 0.513684 -0.648119 0
M  V30 26534 H 2486.77 0.364036 -1.65749 0
M  V30 26535 H 2485.54 1.16085 -3.73684 0
M  V30 26536 H 2485.17 2.67861 -2.9383 0
M  V30 26537 N 2486.16 1.44842 0.621179 0
M  V30 26538 C 2487.39 1.51428 1.40545 0
M  V30 26539 C 2487.8 0.141116 1.88673 0
M  V30 26540 O 2487.15 -0.865099 1.62055 0
M  V30 26541 C 2487.21 2.4258 2.65321 0
M  V30 26542 C 2486.87 3.8957 2.38923 0
M  V30 26543 C 2487.87 4.79838 2.0013 0
M  V30 26544 C 2485.55 4.34365 2.52255 0
M  V30 26545 C 2487.55 6.12903 1.7501 0
M  V30 26546 C 2485.23 5.67475 2.2675 0
M  V30 26547 C 2486.23 6.56563 1.88187 0
M  V30 26548 O 2485.92 7.87207 1.62972 0
M  V30 26549 H 2485.65 0.515663 0.437113 0
M  V30 26550 H 2488.21 1.90584 0.765954 0
M  V30 26551 H 2486.44 1.9837 3.31943 0
M  V30 26552 H 2488.13 2.40004 3.27342 0
M  V30 26553 H 2488.89 4.46499 1.89378 0
M  V30 26554 H 2484.77 3.65274 2.8124 0
M  V30 26555 H 2488.31 6.82399 1.44836 0
M  V30 26556 H 2484.21 6.00372 2.37114 0
M  V30 26557 H 2484.98 7.99103 1.77136 0
M  V30 26558 N 2487.64 -0.862479 1.31905 0
M  V30 26559 C 2488.92 -1.59906 1.12647 0
M  V30 26560 C 2489.3 -2.0872 -0.316067 0
M  V30 26561 O 2488.65 -1.87121 -1.31142 0
M  V30 26562 C 2488.86 -2.75126 2.14724 0
M  V30 26563 C 2490.21 -3.44903 2.47644 0
M  V30 26564 O 2491.23 -2.85342 2.1321 0
M  V30 26565 O 2490.09 -4.52365 3.0664 0
M  V30 26566 H 2487.18 -0.703863 0.434172 0
M  V30 26567 H 2489.73 -0.907289 1.4341 0
M  V30 26568 H 2488.5 -2.36524 3.11724 0
M  V30 26569 H 2488.12 -3.51985 1.84911 0
M  V30 26570 N 2489.12 -1.14988 -1.07775 0
M  V30 26571 C 2490.4 -0.832726 -1.76989 0
M  V30 26572 C 2490.78 0.672525 -2.00101 0
M  V30 26573 O 2490.13 1.61547 -1.61601 0
M  V30 26574 C 2490.34 -1.63869 -3.08136 0
M  V30 26575 C 2491.68 -1.84215 -3.82557 0
M  V30 26576 O 2492.71 -1.60609 -3.17936 0
M  V30 26577 O 2491.57 -2.23723 -4.98608 0
M  V30 26578 H 2488.66 -0.305804 -0.768383 0
M  V30 26579 H 2491.21 -1.25543 -1.14179 0
M  V30 26580 H 2489.98 -2.66085 -2.86905 0
M  V30 26581 H 2489.6 -1.21203 -3.78676 0
M  V30 26582 N 2490.6 1.26049 -0.946007 0
M  V30 26583 C 2491.83 1.97609 -0.613059 0
M  V30 26584 C 2492.24 1.70399 0.813005 0
M  V30 26585 O 2491.6 0.975006 1.54272 0
M  V30 26586 C 2491.65 3.51325 -0.851651 0
M  V30 26587 O 2491.37 3.77591 -2.22163 0
M  V30 26588 C 2492.87 4.40121 -0.529909 0
M  V30 26589 H 2490.09 0.630129 -0.230604 0
M  V30 26590 H 2492.64 1.60441 -1.26803 0
M  V30 26591 H 2490.79 3.86636 -0.243219 0
M  V30 26592 H 2491.2 4.72096 -2.28528 0
M  V30 26593 H 2492.68 5.46916 -0.747444 0
M  V30 26594 H 2493.16 4.35926 0.535264 0
M  V30 26595 H 2493.76 4.10362 -1.11728 0
M  V30 26596 N 2492.08 0.71358 1.4052 0
M  V30 26597 C 2493.33 0.249228 2.00154 0
M  V30 26598 C 2493.64 -1.16359 1.57226 0
M  V30 26599 O 2494.84 -1.72635 2.09545 0
M  V30 26600 C 2493.3 0.394663 3.5773 0
M  V30 26601 C 2492.91 1.814 4.09632 0
M  V30 26602 C 2494.65 -0.00899903 4.24499 0
M  V30 26603 C 2492.56 1.91012 5.59704 0
M  V30 26604 H 2491.49 0.0894246 0.748678 0
M  V30 26605 H 2494.14 0.88438 1.60782 0
M  V30 26606 H 2492.52 -0.30904 3.94792 0
M  V30 26607 H 2493.7 2.54791 3.8395 0
M  V30 26608 H 2492.01 2.16894 3.55452 0
M  V30 26609 H 2494.61 0.0421344 5.34683 0
M  V30 26610 H 2494.95 -1.05058 4.02826 0
M  V30 26611 H 2495.48 0.645076 3.92535 0
M  V30 26612 H 2492.22 2.93285 5.86229 0
M  V30 26613 H 2491.74 1.22029 5.87255 0
M  V30 26614 H 2493.42 1.68131 6.24773 0
M  V30 26615 N 2493.55 -1.50749 0.459618 0
M  V30 26616 C 2494.78 -2.0716 -0.0996455 0
M  V30 26617 C 2495.2 -1.32251 -1.33758 0
M  V30 26618 O 2494.56 -0.366818 -1.7755 0
M  V30 26619 C 2494.61 -3.58612 -0.378163 0
M  V30 26620 O 2493.71 -3.85663 -1.46074 0
M  V30 26621 H 2493.06 -0.663953 0.00792559 0
M  V30 26622 H 2495.59 -1.94089 0.647363 0
M  V30 26623 H 2495.6 -4.0323 -0.622064 0
M  V30 26624 H 2494.27 -4.12554 0.526512 0
M  V30 26625 H 2492.85 -3.52892 -1.20505 0
M  V30 26626 N 2495.03 -0.191784 -1.56429 0
M  V30 26627 C 2496.28 0.448519 -1.97778 0
M  V30 26628 C 2496.61 1.61499 -1.0785 0
M  V30 26629 O 2495.89 1.94066 -0.129808 0
M  V30 26630 C 2496.17 0.911845 -3.48364 0
M  V30 26631 C 2496.02 -0.256215 -4.4907 0
M  V30 26632 C 2497.34 1.77849 -4.02564 0
M  V30 26633 H 2494.46 0.16156 -0.719074 0
M  V30 26634 H 2497.1 -0.28204 -1.87895 0
M  V30 26635 H 2495.25 1.53436 -3.56917 0
M  V30 26636 H 2496.92 -0.893812 -4.52558 0
M  V30 26637 H 2495.17 -0.90851 -4.2418 0
M  V30 26638 H 2495.84 0.110433 -5.5189 0
M  V30 26639 H 2498.31 1.25352 -3.9677 0
M  V30 26640 H 2497.19 2.07165 -5.08305 0
M  V30 26641 H 2497.45 2.73152 -3.47621 0
M  V30 26642 N 2496.51 1.57387 0.0818378 0
M  V30 26643 C 2497.42 2.06335 1.11639 0
M  V30 26644 C 2498.44 0.990856 1.43032 0
M  V30 26645 O 2499.61 1.3049 1.53409 0
M  V30 26646 C 2496.68 2.48911 2.41338 0
M  V30 26647 C 2495.74 3.70414 2.17007 0
M  V30 26648 C 2494.97 4.1095 3.40522 0
M  V30 26649 O 2495.19 3.51452 4.49263 0
M  V30 26650 O 2494.13 5.03813 3.29327 0
M  V30 26651 H 2497.95 2.94781 0.730605 0
M  V30 26652 H 2495.54 1.46453 0.295276 0
M  V30 26653 H 2497.42 2.76864 3.17686 0
M  V30 26654 H 2496.1 1.63598 2.79316 0
M  V30 26655 H 2495 3.47559 1.38397 0
M  V30 26656 H 2496.34 4.56548 1.83915 0
M  V30 26657 N 2497.99 -0.35299 1.53596 0
M  V30 26658 C 2498.92 -1.45591 1.75723 0
M  V30 26659 C 2499.9 -1.50886 0.605987 0
M  V30 26660 O 2501.08 -1.68746 0.840053 0
M  V30 26661 C 2498.21 -2.83884 1.84737 0
M  V30 26662 C 2497.26 -2.96256 3.06813 0
M  V30 26663 S 2498.09 -2.63703 4.6607 0
M  V30 26664 C 2499.25 -4.04122 4.7795 0
M  V30 26665 H 2499.48 -1.26603 2.68996 0
M  V30 26666 H 2497.01 -0.548092 1.44344 0
M  V30 26667 H 2498.97 -3.6356 1.90616 0
M  V30 26668 H 2497.63 -3.00173 0.924933 0
M  V30 26669 H 2496.82 -3.97568 3.09768 0
M  V30 26670 H 2496.43 -2.24518 2.99112 0
M  V30 26671 H 2498.72 -4.98526 4.58779 0
M  V30 26672 H 2499.66 -4.06167 5.8003 0
M  V30 26673 H 2500.07 -3.91708 4.06479 0
M  V30 26674 N 2499.47 -1.45169 -0.613489 0
M  V30 26675 C 2500.41 -1.5339 -1.72454 0
M  V30 26676 C 2501.38 -0.38022 -1.6169 0
M  V30 26677 O 2502.57 -0.592868 -1.81355 0
M  V30 26678 C 2499.71 -1.50094 -3.10751 0
M  V30 26679 C 2498.82 -2.75968 -3.32363 0
M  V30 26680 C 2497.96 -2.64384 -4.60732 0
M  V30 26681 C 2497 -3.8534 -4.75583 0
M  V30 26682 N 2496.13 -3.72326 -5.95246 0
M  V30 26683 H 2500.97 -2.48308 -1.64764 0
M  V30 26684 H 2498.51 -1.23218 -0.803481 0
M  V30 26685 H 2500.47 -1.46171 -3.90755 0
M  V30 26686 H 2499.1 -0.587299 -3.17412 0
M  V30 26687 H 2498.15 -2.90003 -2.46175 0
M  V30 26688 H 2499.46 -3.65701 -3.39212 0
M  V30 26689 H 2498.62 -2.58394 -5.48924 0
M  V30 26690 H 2497.36 -1.72241 -4.56272 0
M  V30 26691 H 2496.36 -3.91695 -3.85817 0
M  V30 26692 H 2497.59 -4.78541 -4.81845 0
M  V30 26693 H 2495.53 -2.82948 -5.91842 0
M  V30 26694 H 2495.45 -4.55688 -6.03228 0
M  V30 26695 H 2496.72 -3.70258 -6.85951 0
M  V30 26696 N 2500.95 0.855472 -1.32361 0
M  V30 26697 C 2501.89 1.96398 -1.21229 0
M  V30 26698 C 2502.86 1.6583 -0.0946496 0
M  V30 26699 O 2504.05 1.88879 -0.270054 0
M  V30 26700 C 2501.19 3.32038 -0.940477 0
M  V30 26701 C 2500.3 3.75109 -2.14283 0
M  V30 26702 C 2499.44 4.99536 -1.80657 0
M  V30 26703 C 2498.47 5.35097 -2.97217 0
M  V30 26704 N 2497.61 6.50701 -2.63689 0
M  V30 26705 H 2502.45 2.05251 -2.16046 0
M  V30 26706 H 2499.99 1.00461 -1.07453 0
M  V30 26707 H 2501.95 4.10156 -0.763383 0
M  V30 26708 H 2500.58 3.22787 -0.029098 0
M  V30 26709 H 2499.63 2.92651 -2.43022 0
M  V30 26710 H 2500.94 3.97384 -3.01475 0
M  V30 26711 H 2500.09 5.8536 -1.59494 0
M  V30 26712 H 2498.83 4.79196 -0.906762 0
M  V30 26713 H 2497.84 4.47785 -3.19012 0
M  V30 26714 H 2499.06 5.57394 -3.87928 0
M  V30 26715 H 2497.01 6.3188 -1.76249 0
M  V30 26716 H 2496.93 6.7299 -3.44412 0
M  V30 26717 H 2498.19 7.3968 -2.45955 0
M  V30 26718 N 2502.42 1.15558 1.07164 0
M  V30 26719 C 2503.33 0.868154 2.17945 0
M  V30 26720 C 2504.35 -0.156266 1.73297 0
M  V30 26721 O 2505.53 0.0182681 2.01392 0
M  V30 26722 C 2502.59 0.36361 3.44788 0
M  V30 26723 C 2501.65 1.45216 4.03993 0
M  V30 26724 C 2500.88 0.9716 5.24782 0
M  V30 26725 O 2501.11 -0.182094 5.70109 0
M  V30 26726 O 2500.04 1.75613 5.75712 0
M  V30 26727 H 2503.87 1.79431 2.45027 0
M  V30 26728 H 2501.45 0.934845 1.16538 0
M  V30 26729 H 2503.33 0.0887854 4.21306 0
M  V30 26730 H 2502.01 -0.534652 3.19254 0
M  V30 26731 H 2500.92 1.78062 3.29006 0
M  V30 26732 H 2502.25 2.32541 4.33804 0
M  V30 26733 N 2503.9 -1.25546 0.952678 0
M  V30 26734 C 2505.18 -1.88455 0.523851 0
M  V30 26735 C 2505.56 -1.85974 -0.998838 0
M  V30 26736 O 2504.91 -1.32194 -1.86379 0
M  V30 26737 C 2505.12 -3.31269 1.09826 0
M  V30 26738 C 2506.46 -4.08049 1.17392 0
M  V30 26739 O 2507.49 -3.40383 1.04967 0
M  V30 26740 O 2506.35 -5.29085 1.36861 0
M  V30 26741 H 2503.44 -0.80881 0.172499 0
M  V30 26742 H 2505.99 -1.33631 1.04598 0
M  V30 26743 H 2504.76 -3.27495 2.14156 0
M  V30 26744 H 2504.38 -3.93647 0.55926 0
M  V30 26745 N 2505.38 -0.721022 -1.40139 0
M  V30 26746 C 2506.63 -0.262877 -2.00786 0
M  V30 26747 C 2506.95 1.1456 -1.57182 0
M  V30 26748 O 2506.21 1.79247 -0.785423 0
M  V30 26749 C 2506.51 -0.296955 -3.56164 0
M  V30 26750 C 2506.17 -1.65649 -4.1937 0
M  V30 26751 C 2504.84 -2.02863 -4.36349 0
M  V30 26752 C 2507.19 -2.54976 -4.54573 0
M  V30 26753 C 2504.52 -3.2894 -4.85814 0
M  V30 26754 C 2506.87 -3.80411 -5.05441 0
M  V30 26755 C 2505.53 -4.17735 -5.20628 0
M  V30 26756 H 2504.8 -0.0961936 -0.73473 0
M  V30 26757 H 2507.45 -0.925122 -1.67672 0
M  V30 26758 H 2505.75 0.448864 -3.8922 0
M  V30 26759 H 2507.45 0.0754503 -4.00929 0
M  V30 26760 H 2504.04 -1.35711 -4.06547 0
M  V30 26761 H 2508.23 -2.27499 -4.41087 0
M  V30 26762 H 2503.48 -3.57819 -4.95757 0
M  V30 26763 H 2507.66 -4.49795 -5.31655 0
M  V30 26764 H 2505.28 -5.15497 -5.58719 0
M  V30 26765 N 2506.86 1.50503 -0.467606 0
M  V30 26766 C 2508.13 1.95024 0.149996 0
M  V30 26767 C 2508.51 1.40782 1.57301 0
M  V30 26768 O 2507.86 0.607358 2.2028 0
M  V30 26769 C 2508.07 3.48866 0.0968711 0
M  V30 26770 C 2509.42 4.23626 0.28749 0
M  V30 26771 O 2510.44 3.55777 0.173615 0
M  V30 26772 O 2509.3 5.44048 0.51709 0
M  V30 26773 H 2506.4 0.819165 0.113568 0
M  V30 26774 H 2508.94 1.61285 -0.527758 0
M  V30 26775 H 2507.72 3.80885 -0.896798 0
M  V30 26776 H 2507.34 3.89132 0.816234 0
M  V30 26777 N 2508.34 0.200077 1.56325 0
M  V30 26778 C 2509.58 -0.437618 1.96895 0
M  V30 26779 C 2509.9 -1.62413 1.09002 0
M  V30 26780 O 2511.1 -2.32995 1.39376 0
M  V30 26781 C 2509.56 -0.829963 3.50199 0
M  V30 26782 C 2509.17 0.33254 4.46764 0
M  V30 26783 C 2510.91 -1.43446 3.99529 0
M  V30 26784 C 2508.82 -0.0810429 5.91344 0
M  V30 26785 H 2507.75 -0.167269 0.735212 0
M  V30 26786 H 2510.4 0.292885 1.81148 0
M  V30 26787 H 2508.78 -1.61728 3.61469 0
M  V30 26788 H 2509.96 1.11008 4.47229 0
M  V30 26789 H 2508.27 0.84886 4.07656 0
M  V30 26790 H 2510.87 -1.75643 5.05028 0
M  V30 26791 H 2511.21 -2.34271 3.44126 0
M  V30 26792 H 2511.74 -0.711021 3.91394 0
M  V30 26793 H 2508.48 0.793147 6.50684 0
M  V30 26794 H 2508 -0.823341 5.94122 0
M  V30 26795 H 2509.68 -0.515139 6.44946 0
M  V30 26796 N 2509.81 -1.57429 -0.0734901 0
M  V30 26797 C 2511.04 -1.91114 -0.784796 0
M  V30 26798 C 2511.45 -0.794131 -1.71727 0
M  V30 26799 O 2510.79 0.24151 -1.82106 0
M  V30 26800 C 2510.86 -3.2025 -1.63341 0
M  V30 26801 C 2510.52 -4.48633 -0.870478 0
M  V30 26802 C 2511.52 -5.19551 -0.190489 0
M  V30 26803 C 2509.2 -4.95258 -0.838155 0
M  V30 26804 C 2511.2 -6.35343 0.511615 0
M  V30 26805 C 2508.88 -6.10957 -0.132279 0
M  V30 26806 C 2509.88 -6.80851 0.541408 0
M  V30 26807 O 2509.57 -7.94343 1.23592 0
M  V30 26808 H 2509.3 -0.636248 -0.228397 0
M  V30 26809 H 2511.86 -2.05343 -0.0485678 0
M  V30 26810 H 2510.09 -3.02226 -2.41239 0
M  V30 26811 H 2511.77 -3.39599 -2.22323 0
M  V30 26812 H 2512.54 -4.84559 -0.206778 0
M  V30 26813 H 2508.42 -4.40729 -1.35198 0
M  V30 26814 H 2511.96 -6.89834 1.03801 0
M  V30 26815 H 2507.86 -6.45399 -0.11391 0
M  V30 26816 H 2508.63 -8.10452 1.14502 0
M  V30 26817 N 2511.29 0.344839 -1.53781 0
M  V30 26818 C 2512.57 1.10217 -1.61591 0
M  V30 26819 C 2512.95 2.06541 -0.436352 0
M  V30 26820 O 2512.3 2.21238 0.571504 0
M  V30 26821 C 2512.51 1.82296 -2.97606 0
M  V30 26822 C 2513.85 2.36087 -3.52914 0
M  V30 26823 O 2514.88 1.92394 -2.99771 0
M  V30 26824 O 2513.74 3.16018 -4.45864 0
M  V30 26825 H 2510.83 0.506781 -0.653531 0
M  V30 26826 H 2513.38 0.346436 -1.66126 0
M  V30 26827 H 2512.15 1.12115 -3.74895 0
M  V30 26828 H 2511.77 2.6473 -2.96655 0
M  V30 26829 N 2512.77 1.45492 0.605781 0
M  V30 26830 C 2513.68 1.56843 1.74464 0
M  V30 26831 C 2514.7 0.452802 1.68005 0
M  V30 26832 O 2515.87 0.713741 1.88329 0
M  V30 26833 C 2512.94 1.53376 3.10929 0
M  V30 26834 C 2512 2.75991 3.28827 0
M  V30 26835 C 2511.23 2.72681 4.58782 0
M  V30 26836 O 2511.45 1.80112 5.41217 0
M  V30 26837 O 2510.39 3.63908 4.79432 0
M  V30 26838 H 2514.21 2.53109 1.67838 0
M  V30 26839 H 2511.8 1.28024 0.770085 0
M  V30 26840 H 2513.68 1.54058 3.9223 0
M  V30 26841 H 2512.36 0.602628 3.18041 0
M  V30 26842 H 2511.26 2.80872 2.47107 0
M  V30 26843 H 2512.6 3.68237 3.26592 0
M  V30 26844 N 2514.25 -0.848441 1.32813 0
M  V30 26845 C 2515.53 -1.58702 1.14337 0
M  V30 26846 C 2515.91 -2.09044 -0.293912 0
M  V30 26847 O 2515.25 -1.88501 -1.29149 0
M  V30 26848 C 2515.46 -2.72833 2.1763 0
M  V30 26849 C 2516.81 -3.42257 2.51288 0
M  V30 26850 O 2517.84 -2.83065 2.16224 0
M  V30 26851 O 2516.69 -4.49087 3.1142 0
M  V30 26852 H 2513.79 -0.699219 0.441613 0
M  V30 26853 H 2516.33 -0.892028 1.44364 0
M  V30 26854 H 2515.11 -2.33205 3.14215 0
M  V30 26855 H 2514.73 -3.50004 1.88634 0
M  V30 26856 N 2515.73 -1.16125 -1.06549 0
M  V30 26857 C 2516.64 -0.8797 -2.17482 0
M  V30 26858 C 2517.65 0.147074 -1.73377 0
M  V30 26859 O 2518.83 -0.0289482 -2.01379 0
M  V30 26860 C 2515.89 -0.38189 -3.4459 0
M  V30 26861 C 2514.95 -1.47357 -4.03218 0
M  V30 26862 C 2514.19 -0.999417 -5.24259 0
M  V30 26863 O 2514.41 0.151857 -5.70198 0
M  V30 26864 O 2513.34 -1.78663 -5.74772 0
M  V30 26865 H 2517.17 -1.80728 -2.44072 0
M  V30 26866 H 2514.76 -0.941012 -1.1604 0
M  V30 26867 H 2516.64 -0.111127 -4.21253 0
M  V30 26868 H 2515.31 0.517714 -3.19533 0
M  V30 26869 H 2514.22 -1.79804 -3.28057 0
M  V30 26870 H 2515.55 -2.34838 -4.32564 0
M  V30 26871 N 2517.2 1.25039 -0.959323 0
M  V30 26872 C 2518.15 2.27709 -0.474477 0
M  V30 26873 C 2519.15 1.631 0.457668 0
M  V30 26874 O 2520.35 1.76876 0.333881 0
M  V30 26875 H 2516.73 0.739792 -0.134949 0
M  V30 26876 H 2518.7 2.65986 -1.35256 0
M  V30 26877 C 2517.45 3.46953 0.227823 0
M  V30 26878 H 2516.77 3.96904 -0.480317 0
M  V30 26879 H 2518.21 4.20662 0.531017 0
M  V30 26880 C 2516.67 3.04007 1.45194 0
M  V30 26881 O 2517.2 3.1043 2.54943 0
M  V30 26882 N 2515.41 2.59146 1.31497 0
M  V30 26883 H 2514.95 2.5412 0.422021 0
M  V30 26884 H 2514.91 2.30777 2.13517 0
M  V30 26885 N 2518.68 0.728444 1.39755 0
M  V30 26886 C 2519.61 0.0446605 2.29156 0
M  V30 26887 C 2520.63 -0.710342 1.46485 0
M  V30 26888 O 2521.82 -0.55559 1.69633 0
M  V30 26889 C 2518.92 -0.961014 3.24989 0
M  V30 26890 C 2518.09 -0.26889 4.36573 0
M  V30 26891 C 2517.15 -1.18175 5.12758 0
M  V30 26892 O 2516.17 -0.661695 5.65341 0
M  V30 26893 N 2517.38 -2.51197 5.23336 0
M  V30 26894 H 2520.14 0.812345 2.88481 0
M  V30 26895 H 2517.7 0.577124 1.51264 0
M  V30 26896 H 2519.69 -1.57416 3.7283 0
M  V30 26897 H 2518.26 -1.62996 2.66742 0
M  V30 26898 H 2517.48 0.524643 3.90693 0
M  V30 26899 H 2518.77 0.211023 5.08362 0
M  V30 26900 H 2518.17 -2.95932 4.82121 0
M  V30 26901 H 2516.73 -3.07624 5.7464 0
M  V30 26902 N 2520.16 -1.50253 0.475581 0
M  V30 26903 C 2521.39 -2.07255 -0.0776678 0
M  V30 26904 C 2521.81 -1.33662 -1.32348 0
M  V30 26905 O 2521.17 -0.385628 -1.77151 0
M  V30 26906 C 2521.22 -3.58993 -0.340106 0
M  V30 26907 O 2520.32 -3.87191 -1.41975 0
M  V30 26908 H 2519.66 -0.663831 0.0149673 0
M  V30 26909 H 2522.19 -1.93391 0.667912 0
M  V30 26910 H 2522.2 -4.03867 -0.579261 0
M  V30 26911 H 2520.88 -4.11972 0.570239 0
M  V30 26912 H 2519.45 -3.5415 -1.16756 0
M  V30 26913 N 2521.64 -0.208365 -1.56217 0
M  V30 26914 C 2523.05 0.301871 -1.84243 0
M  V30 26915 C 2523.4 1.60432 -1.12942 0
M  V30 26916 O 2522.53 2.12771 -0.394647 0
M  V30 26917 C 2523.12 0.554484 -3.34232 0
M  V30 26918 C 2521.68 1.00906 -3.62622 0
M  V30 26919 C 2520.83 0.0648843 -2.77224 0
M  V30 26920 H 2523.78 -0.43186 -1.52711 0
M  V30 26921 H 2523.8 1.40216 -3.53723 0
M  V30 26922 H 2523.31 -0.393629 -3.86099 0
M  V30 26923 H 2521.41 1.97099 -3.16201 0
M  V30 26924 H 2521.52 0.892591 -4.70712 0
M  V30 26925 H 2519.89 0.569247 -2.48257 0
M  V30 26926 H 2520.67 -0.87791 -3.31885 0
M  V30 26927 N 2523.12 1.57465 0.0651402 0
M  V30 26928 C 2524.53 1.53972 0.420078 0
M  V30 26929 C 2524.73 0.929505 1.7878 0
M  V30 26930 O 2523.79 0.534883 2.4677 0
M  V30 26931 C 2525.1 2.98597 0.355032 0
M  V30 26932 C 2526.65 3.09966 0.434738 0
M  V30 26933 C 2527.12 4.56254 0.399529 0
M  V30 26934 N 2528.62 4.60916 0.459407 0
M  V30 26935 C 2529.35 5.71596 0.454484 0
M  V30 26936 N 2528.85 6.91621 0.403981 0
M  V30 26937 N 2530.64 5.59858 0.501537 0
M  V30 26938 H 2522.79 1.95496 -0.830362 0
M  V30 26939 H 2525.05 0.895096 -0.31226 0
M  V30 26940 H 2524.76 3.46827 -0.583418 0
M  V30 26941 H 2524.63 3.58833 1.16269 0
M  V30 26942 H 2527.02 2.61705 1.36361 0
M  V30 26943 H 2527.1 2.52628 -0.401614 0
M  V30 26944 H 2526.75 5.05174 -0.525525 0
M  V30 26945 H 2526.68 5.11463 1.2535 0
M  V30 26946 H 2529.17 3.74545 0.502416 0
M  V30 26947 H 2529.48 7.71742 0.404333 0
M  V30 26948 H 2527.82 6.94011 0.370568 0
M  V30 26949 H 2531.02 4.6499 0.538731 0
M  V30 26950 H 2531.19 6.46112 0.494231 0
M  V30 26951 N 2524.59 -0.336679 1.53962 0
M  V30 26952 C 2525.82 -1.10043 1.75799 0
M  V30 26953 C 2526.24 -1.8136 0.499017 0
M  V30 26954 O 2525.6 -1.72796 -0.548739 0
M  V30 26955 C 2525.65 -2.0843 2.9426 0
M  V30 26956 O 2524.75 -3.16082 2.64889 0
M  V30 26957 H 2524.1 -0.317924 0.582941 0
M  V30 26958 H 2526.63 -0.384975 2.00946 0
M  V30 26959 H 2526.64 -2.51531 3.21241 0
M  V30 26960 H 2525.31 -1.55921 3.85567 0
M  V30 26961 H 2523.89 -2.77749 2.48817 0
M  V30 26962 N 2526.07 -1.45812 -0.598057 0
M  V30 26963 C 2527.32 -1.50325 -1.35678 0
M  V30 26964 C 2527.65 -0.148773 -1.9393 0
M  V30 26965 O 2526.9 0.853756 -1.76095 0
M  V30 26966 C 2527.2 -2.53771 -2.51665 0
M  V30 26967 C 2526.87 -3.98218 -2.11501 0
M  V30 26968 C 2525.53 -4.37548 -2.00262 0
M  V30 26969 C 2527.88 -4.89021 -1.803 0
M  V30 26970 C 2525.21 -5.65564 -1.56057 0
M  V30 26971 C 2527.56 -6.17459 -1.37578 0
M  V30 26972 C 2526.23 -6.5571 -1.24904 0
M  V30 26973 H 2525.5 -0.550078 -0.496483 0
M  V30 26974 H 2528.14 -1.79209 -0.67502 0
M  V30 26975 H 2526.45 -2.18491 -3.25221 0
M  V30 26976 H 2528.14 -2.54497 -3.0989 0
M  V30 26977 H 2524.73 -3.67121 -2.21179 0
M  V30 26978 H 2528.92 -4.59365 -1.87876 0
M  V30 26979 H 2524.17 -5.93988 -1.44875 0
M  V30 26980 H 2528.35 -6.87256 -1.12483 0
M  V30 26981 H 2525.98 -7.54803 -0.904254 0
M  V30 26982 N 2527.55 0.841385 -1.33261 0
M  V30 26983 C 2528.48 1.95802 -1.19139 0
M  V30 26984 C 2529.5 1.62335 -0.122994 0
M  V30 26985 O 2530.68 1.74555 -0.373185 0
M  V30 26986 C 2527.78 3.29217 -0.804326 0
M  V30 26987 C 2526.96 3.90836 -1.96383 0
M  V30 26988 C 2526.02 5.02601 -1.55815 0
M  V30 26989 O 2525.04 5.21884 -2.27213 0
M  V30 26990 N 2526.24 5.78661 -0.461711 0
M  V30 26991 H 2529.01 2.08454 -2.1533 0
M  V30 26992 H 2526.57 1.01698 -1.25973 0
M  V30 26993 H 2528.56 4.01409 -0.515081 0
M  V30 26994 H 2527.13 3.12529 0.0668259 0
M  V30 26995 H 2526.35 3.11265 -2.41884 0
M  V30 26996 H 2527.64 4.28737 -2.73974 0
M  V30 26997 H 2527.04 5.65545 0.132243 0
M  V30 26998 H 2525.6 6.51387 -0.232128 0
M  V30 26999 N 2529.03 1.16688 1.05932 0
M  V30 27000 C 2529.98 0.876786 2.13497 0
M  V30 27001 C 2530.95 -0.17627 1.65162 0
M  V30 27002 O 2532.13 -0.0406807 1.90757 0
M  V30 27003 C 2529.27 0.388027 3.42912 0
M  V30 27004 C 2528.38 1.50433 4.04961 0
M  V30 27005 C 2527.52 0.970217 5.22265 0
M  V30 27006 C 2526.56 2.06248 5.76306 0
M  V30 27007 N 2525.7 1.54368 6.8492 0
M  V30 27008 H 2530.54 1.79794 2.37651 0
M  V30 27009 H 2528.07 0.896863 1.16597 0
M  V30 27010 H 2530.03 0.0862593 4.17111 0
M  V30 27011 H 2528.66 -0.496179 3.18964 0
M  V30 27012 H 2527.71 1.92199 3.28274 0
M  V30 27013 H 2529.02 2.32844 4.41118 0
M  V30 27014 H 2528.18 0.621849 6.03505 0
M  V30 27015 H 2526.92 0.115463 4.87563 0
M  V30 27016 H 2525.92 2.41951 4.937 0
M  V30 27017 H 2527.15 2.92126 6.13057 0
M  V30 27018 H 2525.09 0.71152 6.5213 0
M  V30 27019 H 2525.01 2.30392 7.20039 0
M  V30 27020 H 2526.28 1.22401 7.6983 0
M  V30 27021 N 2530.51 -1.24529 0.96594 0
M  V30 27022 C 2531.45 -2.2545 0.49406 0
M  V30 27023 C 2532.42 -1.59619 -0.459452 0
M  V30 27024 O 2533.61 -1.87174 -0.370205 0
M  V30 27025 C 2530.75 -3.44453 -0.211298 0
M  V30 27026 C 2529.86 -4.24886 0.780775 0
M  V30 27027 C 2529 -5.31175 0.0517039 0
M  V30 27028 C 2528.04 -6.03304 1.03396 0
M  V30 27029 N 2527.17 -7.013 0.33501 0
M  V30 27030 H 2532.01 -2.65182 1.35951 0
M  V30 27031 H 2529.55 -1.30359 0.681538 0
M  V30 27032 H 2531.51 -4.12309 -0.636927 0
M  V30 27033 H 2530.14 -3.05563 -1.04072 0
M  V30 27034 H 2529.19 -3.56584 1.32485 0
M  V30 27035 H 2530.5 -4.74759 1.52987 0
M  V30 27036 H 2529.66 -6.0516 -0.432008 0
M  V30 27037 H 2528.4 -4.82204 -0.730095 0
M  V30 27038 H 2527.4 -5.28124 1.52856 0
M  V30 27039 H 2528.63 -6.54364 1.81617 0
M  V30 27040 H 2526.57 -6.54603 -0.427844 0
M  V30 27041 H 2526.49 -7.49047 1.023 0
M  V30 27042 H 2527.76 -7.79397 -0.126791 0
M  V30 27043 N 2531.99 -0.735845 -1.39367 0
M  V30 27044 C 2533.21 -0.294429 -2.04794 0
M  V30 27045 C 2533.63 1.07104 -1.5548 0
M  V30 27046 O 2532.99 1.67694 -0.720067 0
M  V30 27047 C 2533.04 -0.288134 -3.6035 0
M  V30 27048 O 2532.76 -1.59971 -4.07849 0
M  V30 27049 C 2534.26 0.169344 -4.42976 0
M  V30 27050 H 2531.48 -0.128562 -0.658569 0
M  V30 27051 H 2534.02 -0.999732 -1.78397 0
M  V30 27052 H 2532.18 0.368287 -3.85645 0
M  V30 27053 H 2532.59 -1.51384 -5.02179 0
M  V30 27054 H 2534.07 0.12259 -5.51864 0
M  V30 27055 H 2534.54 1.21464 -4.2207 0
M  V30 27056 H 2535.15 -0.457543 -4.22832 0
M  V30 27057 N 2533.46 1.49999 -0.483543 0
M  V30 27058 C 2534.88 1.58999 -0.138432 0
M  V30 27059 C 2535.08 1.49052 1.35594 0
M  V30 27060 O 2534.14 1.35543 2.13036 0
M  V30 27061 C 2535.45 2.92446 -0.699709 0
M  V30 27062 C 2537 3.0587 -0.664249 0
M  V30 27063 C 2537.47 4.41911 -1.20328 0
M  V30 27064 N 2538.96 4.48356 -1.16323 0
M  V30 27065 C 2539.7 5.52034 -1.55068 0
M  V30 27066 N 2539.19 6.62903 -2.01323 0
M  V30 27067 N 2540.99 5.42648 -1.46593 0
M  V30 27068 H 2533.14 1.54707 -1.45532 0
M  V30 27069 H 2535.4 0.731837 -0.602593 0
M  V30 27070 H 2535.11 3.05239 -1.74706 0
M  V30 27071 H 2534.98 3.76901 -0.15026 0
M  V30 27072 H 2537.37 2.92718 0.374221 0
M  V30 27073 H 2537.45 2.23142 -1.25065 0
M  V30 27074 H 2537.09 4.55814 -2.24045 0
M  V30 27075 H 2537.02 5.23251 -0.592988 0
M  V30 27076 H 2539.51 3.68804 -0.824123 0
M  V30 27077 H 2539.83 7.38091 -2.29003 0
M  V30 27078 H 2538.17 6.6399 -2.05284 0
M  V30 27079 H 2541.36 4.54922 -1.10289 0
M  V30 27080 H 2541.54 6.23326 -1.77114 0
M  V30 27081 N 2534.94 0.216646 1.56104 0
M  V30 27082 C 2535.89 -0.70876 2.16704 0
M  V30 27083 C 2536.88 -1.16104 1.11394 0
M  V30 27084 O 2538.07 -1.11585 1.37397 0
M  V30 27085 C 2535.2 -1.91881 2.84669 0
M  V30 27086 C 2534.28 -1.48644 3.97197 0
M  V30 27087 N 2534.67 -0.766346 4.99961 0
M  V30 27088 C 2532.97 -1.77411 4.09196 0
M  V30 27089 C 2533.67 -0.546557 5.79127 0
M  V30 27090 N 2532.65 -1.10179 5.32317 0
M  V30 27091 H 2536.45 -0.15011 2.93516 0
M  V30 27092 H 2533.96 0.0177054 1.6239 0
M  V30 27093 H 2535.96 -2.59248 3.26491 0
M  V30 27094 H 2534.62 -2.48198 2.09351 0
M  V30 27095 H 2535.63 -0.419543 5.16198 0
M  V30 27096 H 2532.31 -2.35082 3.45025 0
M  V30 27097 H 2533.7 0.0262211 6.71895 0
M  V30 27098 N 2536.42 -1.57498 -0.0567885 0
M  V30 27099 C 2537.65 -1.91936 -0.764482 0
M  V30 27100 C 2538.06 -0.8123 -1.70875 0
M  V30 27101 O 2537.4 0.222181 -1.82351 0
M  V30 27102 C 2537.46 -3.21965 -1.59935 0
M  V30 27103 C 2537.13 -4.49531 -0.822846 0
M  V30 27104 C 2538.12 -5.19724 -0.135373 0
M  V30 27105 C 2535.81 -4.96119 -0.785579 0
M  V30 27106 C 2537.8 -6.34765 0.578973 0
M  V30 27107 C 2535.49 -6.11063 -0.067471 0
M  V30 27108 C 2536.49 -6.80238 0.613591 0
M  V30 27109 O 2536.18 -7.92987 1.3201 0
M  V30 27110 H 2535.91 -0.638634 -0.221636 0
M  V30 27111 H 2538.46 -2.05383 -0.0267857 0
M  V30 27112 H 2536.69 -3.04768 -2.3802 0
M  V30 27113 H 2538.38 -3.41937 -2.18709 0
M  V30 27114 H 2539.15 -4.84751 -0.155373 0
M  V30 27115 H 2535.03 -4.42139 -1.30516 0
M  V30 27116 H 2538.57 -6.88694 1.11112 0
M  V30 27117 H 2534.47 -6.45484 -0.0454501 0
M  V30 27118 H 2535.23 -8.09191 1.23091 0
M  V30 27119 N 2537.9 0.328509 -1.54138 0
M  V30 27120 C 2539.14 1.06703 -1.72106 0
M  V30 27121 C 2539.47 1.88171 -0.492145 0
M  V30 27122 O 2538.73 1.88495 0.52612 0
M  V30 27123 C 2539.03 2.02388 -2.94574 0
M  V30 27124 C 2538.69 1.37115 -4.29547 0
M  V30 27125 C 2537.35 1.19044 -4.66242 0
M  V30 27126 C 2539.71 0.902241 -5.13331 0
M  V30 27127 C 2537.03 0.527229 -5.84326 0
M  V30 27128 C 2539.39 0.252876 -6.32094 0
M  V30 27129 C 2538.05 0.0599727 -6.67473 0
M  V30 27130 H 2537.32 0.390455 -0.629782 0
M  V30 27131 H 2539.97 0.344697 -1.88372 0
M  V30 27132 H 2538.27 2.81056 -2.72974 0
M  V30 27133 H 2539.97 2.59551 -3.0567 0
M  V30 27134 H 2536.56 1.52181 -4.00673 0
M  V30 27135 H 2540.74 1.02966 -4.85502 0
M  V30 27136 H 2536 0.366527 -6.103 0
M  V30 27137 H 2540.17 -0.118488 -6.96299 0
M  V30 27138 H 2537.8 -0.455962 -7.58831 0
M  V30 27139 N 2539.38 1.46127 0.590316 0
M  V30 27140 C 2540.62 1.50311 1.34497 0
M  V30 27141 C 2540.94 0.156055 1.94976 0
M  V30 27142 O 2542.14 0.0756514 2.71395 0
M  V30 27143 C 2540.6 2.64819 2.43718 0
M  V30 27144 C 2540.21 4.05913 1.89575 0
M  V30 27145 C 2541.95 2.78267 3.20574 0
M  V30 27146 C 2539.86 5.11774 2.96381 0
M  V30 27147 H 2538.79 0.559377 0.505583 0
M  V30 27148 H 2541.44 1.72316 0.630818 0
M  V30 27149 H 2539.82 2.3613 3.17897 0
M  V30 27150 H 2541 4.44359 1.2199 0
M  V30 27151 H 2539.31 3.97066 1.25411 0
M  V30 27152 H 2541.91 3.54526 4.00269 0
M  V30 27153 H 2542.25 1.85512 3.72681 0
M  V30 27154 H 2542.78 3.06566 2.53499 0
M  V30 27155 H 2539.52 6.06296 2.4917 0
M  V30 27156 H 2539.04 4.7788 3.62479 0
M  V30 27157 H 2540.72 5.37284 3.60465 0
M  V30 27158 N 2540.85 -0.834306 1.33705 0
M  V30 27159 C 2541.82 -1.92601 1.24247 0
M  V30 27160 C 2542.82 -1.59998 0.160411 0
M  V30 27161 O 2544.01 -1.69252 0.412257 0
M  V30 27162 C 2541.14 -3.28374 0.915608 0
M  V30 27163 H 2542.33 -2.02412 2.2129 0
M  V30 27164 H 2539.88 -1.02694 1.17829 0
M  V30 27165 H 2540.62 -3.24258 -0.0521316 0
M  V30 27166 H 2540.4 -3.53419 1.69817 0
M  V30 27167 H 2541.89 -4.08345 0.874303 0
M  V30 27168 N 2542.33 -1.17248 -1.05312 0
M  V30 27169 C 2543.29 -0.890394 -2.11198 0
M  V30 27170 C 2544.29 0.118915 -1.6036 0
M  V30 27171 O 2545.48 -0.113116 -1.73832 0
M  V30 27172 C 2542.62 -0.333481 -3.39265 0
M  V30 27173 H 2543.81 -1.8292 -2.37656 0
M  V30 27174 H 2541.36 -0.98278 -1.21537 0
M  V30 27175 H 2542.1 0.612531 -3.18463 0
M  V30 27176 H 2541.88 -1.06089 -3.77475 0
M  V30 27177 H 2543.37 -0.154395 -4.17314 0
M  V30 27178 N 2543.81 1.24015 -0.972531 0
M  V30 27179 C 2545.06 1.92503 -0.638012 0
M  V30 27180 C 2545.39 1.75788 0.825352 0
M  V30 27181 O 2544.66 1.11396 1.5944 0
M  V30 27182 C 2544.95 3.45367 -1.01948 0
M  V30 27183 C 2544.8 3.71227 -2.5399 0
M  V30 27184 C 2546.12 4.36554 -0.557587 0
M  V30 27185 H 2543.24 0.699113 -0.23326 0
M  V30 27186 H 2545.88 1.4629 -1.2124 0
M  V30 27187 H 2544.03 3.84858 -0.530723 0
M  V30 27188 H 2545.7 3.41266 -3.1038 0
M  V30 27189 H 2543.95 3.1621 -2.96974 0
M  V30 27190 H 2544.62 4.78201 -2.75731 0
M  V30 27191 H 2547.09 4.04465 -0.9771 0
M  V30 27192 H 2545.97 5.42231 -0.853015 0
M  V30 27193 H 2546.23 4.38762 0.542251 0
M  V30 27194 N 2545.29 0.743226 1.38974 0
M  V30 27195 C 2546.2 0.11044 2.3434 0
M  V30 27196 C 2547.21 -0.712531 1.58742 0
M  V30 27197 O 2548.39 -0.639092 1.90991 0
M  V30 27198 C 2545.46 -0.779953 3.37813 0
M  V30 27199 C 2544.52 0.0562073 4.29263 0
M  V30 27200 C 2543.75 -0.791782 5.27794 0
M  V30 27201 O 2543.97 -2.03021 5.33046 0
M  V30 27202 O 2542.91 -0.216077 6.01512 0
M  V30 27203 H 2546.73 0.897765 2.90127 0
M  V30 27204 H 2544.32 0.503991 1.40642 0
M  V30 27205 H 2546.2 -1.28916 4.01197 0
M  V30 27206 H 2544.87 -1.54595 2.84398 0
M  V30 27207 H 2543.78 0.611121 3.69075 0
M  V30 27208 H 2545.11 0.784617 4.85906 0
M  V30 27209 N 2546.77 -1.4974 0.491491 0
M  V30 27210 C 2548.18 -1.58923 0.146863 0
M  V30 27211 C 2548.38 -1.49769 -1.34802 0
M  V30 27212 O 2547.44 -1.3667 -2.12314 0
M  V30 27213 C 2548.75 -2.92071 0.715208 0
M  V30 27214 C 2550.3 -3.05514 0.680461 0
M  V30 27215 C 2550.77 -4.41266 1.2267 0
M  V30 27216 N 2552.27 -4.47733 1.18699 0
M  V30 27217 C 2553 -5.51204 1.57994 0
M  V30 27218 N 2552.5 -6.61827 2.04835 0
M  V30 27219 N 2554.29 -5.41863 1.49469 0
M  V30 27220 H 2546.44 -1.53933 1.4635 0
M  V30 27221 H 2548.7 -0.728631 0.606466 0
M  V30 27222 H 2548.41 -3.04308 1.76322 0
M  V30 27223 H 2548.28 -3.76816 0.170246 0
M  V30 27224 H 2550.67 -2.92912 -0.358692 0
M  V30 27225 H 2550.75 -2.22476 1.26246 0
M  V30 27226 H 2550.4 -4.54619 2.26459 0
M  V30 27227 H 2550.33 -5.22929 0.620729 0
M  V30 27228 H 2552.82 -3.68362 0.84367 0
M  V30 27229 H 2553.13 -7.36866 2.32914 0
M  V30 27230 H 2551.47 -6.62892 2.08803 0
M  V30 27231 H 2554.67 -4.54331 1.127 0
M  V30 27232 H 2554.84 -6.22378 1.80417 0
M  V30 27233 N 2548.24 -0.224922 -1.55987 0
M  V30 27234 C 2549.17 0.678418 -2.23427 0
M  V30 27235 C 2550.16 1.19845 -1.20712 0
M  V30 27236 O 2551.34 1.24183 -1.49306 0
M  V30 27237 C 2548.47 1.88522 -2.91679 0
M  V30 27238 C 2547.42 1.49889 -4.00895 0
M  V30 27239 C 2546.75 2.78475 -4.5646 0
M  V30 27240 C 2548.05 0.68637 -5.1777 0
M  V30 27241 H 2549.74 0.116121 -2.99175 0
M  V30 27242 H 2547.29 0.0544107 -1.43897 0
M  V30 27243 H 2549.24 2.52264 -3.37551 0
M  V30 27244 H 2547.97 2.47254 -2.13384 0
M  V30 27245 H 2546.63 0.884922 -3.55759 0
M  V30 27246 H 2546.27 3.35358 -3.74892 0
M  V30 27247 H 2545.97 2.53358 -5.30173 0
M  V30 27248 H 2547.5 3.43153 -5.05053 0
M  V30 27249 H 2548.91 1.22757 -5.60003 0
M  V30 27250 H 2547.31 0.532154 -5.97736 0
M  V30 27251 H 2548.38 -0.306281 -4.83932 0
M  V30 27252 N 2549.72 1.57526 0.0484352 0
M  V30 27253 C 2550.97 1.89507 0.73882 0
M  V30 27254 C 2551.32 0.82135 1.73987 0
M  V30 27255 O 2550.62 -0.172096 1.90826 0
M  V30 27256 C 2550.81 3.25938 1.46627 0
M  V30 27257 C 2550.64 4.4648 0.537175 0
M  V30 27258 C 2549.41 5.05029 0.165395 0
M  V30 27259 C 2551.61 5.13998 -0.176176 0
M  V30 27260 N 2549.59 6.0909 -0.766975 0
M  V30 27261 C 2550.96 6.12446 -0.964887 0
M  V30 27262 C 2553.02 4.97296 -0.245177 0
M  V30 27263 C 2551.72 6.95993 -1.81623 0
M  V30 27264 C 2553.74 5.81389 -1.08357 0
M  V30 27265 C 2553.11 6.79392 -1.86026 0
M  V30 27266 H 2549.21 0.742612 0.245054 0
M  V30 27267 H 2551.79 1.947 -0.000510384 0
M  V30 27268 H 2549.96 3.2171 2.17617 0
M  V30 27269 H 2551.69 3.45494 2.10751 0
M  V30 27270 H 2548.45 4.70699 0.523383 0
M  V30 27271 H 2548.87 6.65786 -1.22709 0
M  V30 27272 H 2553.51 4.21423 0.340989 0
M  V30 27273 H 2551.23 7.71224 -2.41327 0
M  V30 27274 H 2554.82 5.70517 -1.14024 0
M  V30 27275 H 2553.7 7.43332 -2.49854 0
M  V30 27276 N 2551.2 -0.32033 1.5431 0
M  V30 27277 C 2552.48 -1.07632 1.63324 0
M  V30 27278 C 2552.86 -2.05821 0.469156 0
M  V30 27279 O 2552.21 -2.22119 -0.536235 0
M  V30 27280 C 2552.42 -1.77539 3.00468 0
M  V30 27281 C 2553.76 -2.30442 3.56625 0
M  V30 27282 O 2554.79 -1.87601 3.02794 0
M  V30 27283 O 2553.65 -3.08884 4.50836 0
M  V30 27284 H 2550.74 -0.496319 0.66151 0
M  V30 27285 H 2553.29 -0.319963 1.66656 0
M  V30 27286 H 2552.06 -1.06136 3.76631 0
M  V30 27287 H 2551.68 -2.59977 3.00829 0
M  V30 27288 N 2552.68 -1.46438 -0.582558 0
M  V30 27289 C 2553.91 -1.55101 -1.36481 0
M  V30 27290 C 2554.32 -0.191089 -1.88233 0
M  V30 27291 O 2553.66 0.821829 -1.64291 0
M  V30 27292 C 2553.72 -2.4953 -2.58796 0
M  V30 27293 C 2553.39 -3.95768 -2.2851 0
M  V30 27294 C 2554.38 -4.84975 -1.87337 0
M  V30 27295 C 2552.07 -4.409 -2.4065 0
M  V30 27296 C 2554.06 -6.17328 -1.58699 0
M  V30 27297 C 2551.75 -5.73287 -2.11625 0
M  V30 27298 C 2552.75 -6.61321 -1.70714 0
M  V30 27299 O 2552.43 -7.91251 -1.42043 0
M  V30 27300 H 2552.17 -0.527071 -0.423288 0
M  V30 27301 H 2554.72 -1.92548 -0.715155 0
M  V30 27302 H 2552.95 -2.07101 -3.26567 0
M  V30 27303 H 2554.64 -2.48598 -3.20864 0
M  V30 27304 H 2555.41 -4.51363 -1.77473 0
M  V30 27305 H 2551.28 -3.72602 -2.71456 0
M  V30 27306 H 2554.83 -6.85999 -1.26692 0
M  V30 27307 H 2550.73 -6.06448 -2.21113 0
M  V30 27308 H 2551.49 -8.03518 -1.55887 0
M  V30 27309 N 2554.16 0.827204 -1.34146 0
M  V30 27310 C 2555.4 1.58004 -1.26012 0
M  V30 27311 C 2555.73 1.94249 0.170937 0
M  V30 27312 O 2555 1.61929 1.10253 0
M  V30 27313 H 2553.58 0.585873 -0.463424 0
M  V30 27314 H 2556.24 0.987922 -1.68006 0
M  V30 27315 H 2555.33 2.50478 -1.86191 0
M  V30 27316 N 2555.63 1.17805 1.04688 0
M  V30 27317 C 2556.57 0.842802 2.12066 0
M  V30 27318 C 2557.55 -0.192579 1.61456 0
M  V30 27319 O 2558.73 -0.0729619 1.88359 0
M  V30 27320 C 2555.86 0.258123 3.37715 0
M  V30 27321 C 2554.9 1.2697 4.07162 0
M  V30 27322 S 2555.74 2.82307 4.55042 0
M  V30 27323 C 2556.89 2.25333 5.83931 0
M  V30 27324 H 2557.12 1.75221 2.40177 0
M  V30 27325 H 2554.66 1.00325 1.17364 0
M  V30 27326 H 2556.62 -0.0727213 4.10436 0
M  V30 27327 H 2555.28 -0.629303 3.07731 0
M  V30 27328 H 2554.47 0.809351 4.97459 0
M  V30 27329 H 2554.07 1.54645 3.4053 0
M  V30 27330 H 2556.36 1.63204 6.57549 0
M  V30 27331 H 2557.31 3.13905 6.3472 0
M  V30 27332 H 2557.71 1.68591 5.38737 0
M  V30 27333 N 2557.11 -1.23497 0.979094 0
M  V30 27334 C 2558.34 -1.96454 0.66488 0
M  V30 27335 C 2558.76 -1.72007 -0.761256 0
M  V30 27336 O 2558.12 -0.99074 -1.51836 0
M  V30 27337 C 2558.17 -3.47599 0.95954 0
M  V30 27338 O 2557.27 -4.12369 0.0508893 0
M  V30 27339 H 2556.61 -0.615059 0.250196 0
M  V30 27340 H 2559.14 -1.56968 1.31233 0
M  V30 27341 H 2559.15 -3.98046 0.895712 0
M  V30 27342 H 2557.83 -3.64719 1.99882 0
M  V30 27343 H 2556.41 -3.72517 0.169015 0
M  V30 27344 N 2558.59 -0.750586 -1.38578 0
M  V30 27345 C 2559.82 -0.314848 -2.04996 0
M  V30 27346 C 2560.24 1.04746 -1.56237 0
M  V30 27347 O 2559.6 1.66691 -0.713011 0
M  V30 27348 C 2559.65 -0.343478 -3.5896 0
M  V30 27349 O 2558.75 0.663556 -4.07027 0
M  V30 27350 H 2558.09 -0.139973 -0.649079 0
M  V30 27351 H 2560.62 -1.02087 -1.77312 0
M  V30 27352 H 2560.63 -0.193305 -4.07542 0
M  V30 27353 H 2559.31 -1.33745 -3.93809 0
M  V30 27354 H 2557.88 0.478242 -3.69821 0
M  V30 27355 N 2560.07 1.49477 -0.499425 0
M  V30 27356 C 2561.29 2.07352 0.0446855 0
M  V30 27357 C 2561.72 1.35751 1.30205 0
M  V30 27358 O 2561.08 0.413763 1.76515 0
M  V30 27359 C 2561.13 3.59488 0.28295 0
M  V30 27360 O 2560.23 3.89401 1.35798 0
M  V30 27361 H 2559.57 0.663509 -0.0255263 0
M  V30 27362 H 2562.1 1.92304 -0.698594 0
M  V30 27363 H 2562.11 4.04737 0.514936 0
M  V30 27364 H 2560.79 4.11013 -0.635708 0
M  V30 27365 H 2559.36 3.55963 1.11107 0
M  V30 27366 N 2561.55 0.233191 1.55865 0
M  V30 27367 C 2562.96 -0.272521 1.847 0
M  V30 27368 C 2563.31 -1.58615 1.1548 0
M  V30 27369 O 2562.43 -2.12116 0.428447 0
M  V30 27370 C 2563.03 -0.50124 3.35072 0
M  V30 27371 C 2561.59 -0.95124 3.64182 0
M  V30 27372 C 2560.74 -0.0207721 2.77292 0
M  V30 27373 H 2563.69 0.456101 1.52005 0
M  V30 27374 H 2563.71 -1.34571 3.55909 0
M  V30 27375 H 2563.22 0.455004 3.85424 0
M  V30 27376 H 2561.32 -1.92043 3.19296 0
M  V30 27377 H 2561.43 -0.817592 4.72072 0
M  V30 27378 H 2559.8 -0.529679 2.49131 0
M  V30 27379 H 2560.58 0.930599 3.30446 0
M  V30 27380 N 2563.03 -1.57549 -0.0400806 0
M  V30 27381 C 2563.98 -2.02294 -1.05171 0
M  V30 27382 C 2564.96 -0.910317 -1.32673 0
M  V30 27383 O 2566.15 -1.17423 -1.32442 0
M  V30 27384 C 2563.28 -2.49678 -2.35618 0
M  V30 27385 C 2562.37 -3.67739 -2.11255 0
M  V30 27386 N 2562.76 -4.80845 -1.56914 0
M  V30 27387 C 2561.06 -3.74901 -2.41589 0
M  V30 27388 C 2561.76 -5.62531 -1.48101 0
M  V30 27389 N 2560.73 -5.07316 -1.95273 0
M  V30 27390 H 2564.53 -2.87169 -0.625405 0
M  V30 27391 H 2562.05 -1.60517 -0.246596 0
M  V30 27392 H 2564.05 -2.79989 -3.08888 0
M  V30 27393 H 2562.71 -1.66205 -2.78937 0
M  V30 27394 H 2563.72 -5.02505 -1.25336 0
M  V30 27395 H 2560.39 -3.02206 -2.88059 0
M  V30 27396 H 2561.78 -6.63378 -1.06671 0
M  V30 27397 N 2564.5 0.312142 -1.54478 0
M  V30 27398 C 2565.75 1.05027 -1.73485 0
M  V30 27399 C 2566.08 1.87297 -0.513158 0
M  V30 27400 O 2565.36 1.88231 0.48983 0
M  V30 27401 C 2565.64 1.96553 -3.01727 0
M  V30 27402 C 2565.49 1.17537 -4.34172 0
M  V30 27403 C 2566.81 2.95901 -3.25777 0
M  V30 27404 H 2563.93 0.380421 -0.631228 0
M  V30 27405 H 2566.57 0.325899 -1.87184 0
M  V30 27406 H 2564.72 2.58319 -2.90178 0
M  V30 27407 H 2566.4 0.581432 -4.57621 0
M  V30 27408 H 2564.64 0.477849 -4.3116 0
M  V30 27409 H 2565.31 1.84802 -5.20146 0
M  V30 27410 H 2567.79 2.44261 -3.36862 0
M  V30 27411 H 2566.66 3.57116 -4.16845 0
M  V30 27412 H 2566.92 3.6897 -2.43544 0
M  V30 27413 N 2565.98 1.46745 0.574784 0
M  V30 27414 C 2566.91 1.60774 1.69334 0
M  V30 27415 C 2567.89 0.457765 1.63825 0
M  V30 27416 O 2569.08 0.684979 1.81719 0
M  V30 27417 C 2566.21 1.60522 3.07977 0
M  V30 27418 C 2565.16 2.74569 3.28323 0
M  V30 27419 C 2564.49 2.59382 4.67574 0
M  V30 27420 C 2565.79 4.16324 3.15391 0
M  V30 27421 H 2567.48 2.54409 1.57849 0
M  V30 27422 H 2565.03 1.22437 0.757968 0
M  V30 27423 H 2566.98 1.6893 3.86058 0
M  V30 27424 H 2565.7 0.634361 3.2038 0
M  V30 27425 H 2564.36 2.65644 2.52644 0
M  V30 27426 H 2564.01 1.60362 4.76753 0
M  V30 27427 H 2563.71 3.35882 4.82138 0
M  V30 27428 H 2565.24 2.69692 5.47813 0
M  V30 27429 H 2566.65 4.2632 3.83307 0
M  V30 27430 H 2565.05 4.93474 3.41473 0
M  V30 27431 H 2566.12 4.35924 2.12364 0
M  V30 27432 N 2567.46 -0.820078 1.34583 0
M  V30 27433 C 2568.88 -1.11362 1.14327 0
M  V30 27434 C 2569.08 -2.01429 -0.0533294 0
M  V30 27435 O 2568.13 -2.41778 -0.728002 0
M  V30 27436 C 2569.44 -1.7576 2.43986 0
M  V30 27437 C 2570.99 -1.88242 2.50068 0
M  V30 27438 C 2571.47 -2.56055 3.79737 0
M  V30 27439 N 2572.96 -2.63552 3.80913 0
M  V30 27440 C 2573.69 -3.16758 4.77966 0
M  V30 27441 N 2573.19 -3.70506 5.85403 0
M  V30 27442 N 2574.98 -3.15186 4.65419 0
M  V30 27443 H 2567.13 -0.221059 2.11247 0
M  V30 27444 H 2569.4 -0.160633 0.934292 0
M  V30 27445 H 2569.1 -1.17044 3.31653 0
M  V30 27446 H 2568.98 -2.75599 2.57536 0
M  V30 27447 H 2571.36 -2.46105 1.62839 0
M  V30 27448 H 2571.44 -0.872964 2.40443 0
M  V30 27449 H 2571.09 -1.98845 4.67358 0
M  V30 27450 H 2571.02 -3.5751 3.86645 0
M  V30 27451 H 2573.51 -2.25457 3.03278 0
M  V30 27452 H 2573.82 -4.09364 6.5547 0
M  V30 27453 H 2572.17 -3.68742 5.89113 0
M  V30 27454 H 2575.36 -2.72465 3.80632 0
M  V30 27455 H 2575.53 -3.56347 5.41222 0
M  V30 27456 N 2568.94 -1.18359 -1.04062 0
M  V30 27457 C 2569.89 -0.907045 -2.14186 0
M  V30 27458 C 2570.88 0.132695 -1.68879 0
M  V30 27459 O 2572.09 -0.0154565 -1.79993 0
M  V30 27460 H 2568.46 -0.275848 -0.69958 0
M  V30 27461 H 2570.43 -1.84268 -2.34708 0
M  V30 27462 C 2569.18 -0.449314 -3.44785 0
M  V30 27463 H 2568.5 -1.24088 -3.80056 0
M  V30 27464 H 2569.94 -0.294811 -4.22974 0
M  V30 27465 C 2568.4 0.834852 -3.26392 0
M  V30 27466 O 2568.93 1.89905 -3.53976 0
M  V30 27467 N 2567.14 0.787473 -2.79727 0
M  V30 27468 H 2566.69 -0.0787799 -2.5748 0
M  V30 27469 H 2566.64 1.64711 -2.67801 0
M  V30 27470 N 2570.42 1.22976 -0.98563 0
M  V30 27471 C 2571.83 1.43667 -0.695129 0
M  V30 27472 C 2572.03 1.87545 0.736833 0
M  V30 27473 O 2571.09 2.02475 1.50864 0
M  V30 27474 C 2572.4 2.48409 -1.69451 0
M  V30 27475 C 2573.95 2.62216 -1.70914 0
M  V30 27476 C 2574.42 3.70173 -2.69696 0
M  V30 27477 N 2575.91 3.77622 -2.68246 0
M  V30 27478 C 2576.65 4.60727 -3.41347 0
M  V30 27479 N 2576.15 5.47882 -4.24024 0
M  V30 27480 N 2577.94 4.54971 -3.30087 0
M  V30 27481 H 2570.09 0.927982 -1.91056 0
M  V30 27482 H 2572.35 0.469522 -0.823561 0
M  V30 27483 H 2572.06 2.23097 -2.71883 0
M  V30 27484 H 2571.93 3.46887 -1.48153 0
M  V30 27485 H 2574.32 2.86876 -0.691835 0
M  V30 27486 H 2574.4 1.64037 -1.96279 0
M  V30 27487 H 2574.04 3.46261 -3.71572 0
M  V30 27488 H 2573.97 4.67905 -2.41604 0
M  V30 27489 H 2576.47 3.15343 -2.08249 0
M  V30 27490 H 2576.78 6.08299 -4.76646 0
M  V30 27491 H 2575.12 5.47488 -4.28114 0
M  V30 27492 H 2578.31 3.85905 -2.64944 0
M  V30 27493 H 2578.49 5.19509 -3.87317 0
M  V30 27494 N 2571.89 0.757924 1.38178 0
M  V30 27495 C 2572.86 0.141326 2.28764 0
M  V30 27496 C 2573.86 -0.642881 1.4739 0
M  V30 27497 O 2575.05 -0.468507 1.67782 0
M  V30 27498 C 2572.18 -0.808011 3.31186 0
M  V30 27499 H 2573.37 0.939683 2.84798 0
M  V30 27500 H 2570.92 0.525216 1.47211 0
M  V30 27501 H 2571.66 -1.63188 2.8025 0
M  V30 27502 H 2571.44 -0.248035 3.91315 0
M  V30 27503 H 2572.93 -1.23529 3.98911 0
M  V30 27504 N 2573.37 -1.4921 0.507345 0
M  V30 27505 C 2574.3 -2.27168 -0.304492 0
M  V30 27506 C 2575.32 -1.33973 -0.924932 0
M  V30 27507 O 2576.51 -1.59206 -0.807199 0
M  V30 27508 C 2573.61 -3.06585 -1.44426 0
M  V30 27509 C 2572.78 -4.274 -0.929951 0
M  V30 27510 C 2571.84 -4.88811 -1.94809 0
M  V30 27511 O 2570.86 -5.48693 -1.51409 0
M  V30 27512 N 2572.07 -4.79027 -3.27892 0
M  V30 27513 H 2574.83 -2.97481 0.364002 0
M  V30 27514 H 2572.39 -1.58284 0.340277 0
M  V30 27515 H 2574.38 -3.44541 -2.12305 0
M  V30 27516 H 2572.95 -2.38839 -2.0168 0
M  V30 27517 H 2572.17 -3.94127 -0.0758551 0
M  V30 27518 H 2573.46 -5.05655 -0.564843 0
M  V30 27519 H 2572.86 -4.31487 -3.65836 0
M  V30 27520 H 2571.42 -5.21149 -3.91467 0
M  V30 27521 N 2574.85 -0.241454 -1.55739 0
M  V30 27522 C 2576.08 0.392076 -2.0366 0
M  V30 27523 C 2576.5 1.51142 -1.11971 0
M  V30 27524 O 2575.86 1.80956 -0.111626 0
M  V30 27525 C 2575.91 0.882309 -3.49639 0
M  V30 27526 O 2575.01 1.99229 -3.61084 0
M  V30 27527 H 2574.35 0.0862006 -0.658381 0
M  V30 27528 H 2576.88 -0.365917 -2.01301 0
M  V30 27529 H 2576.89 1.18695 -3.90353 0
M  V30 27530 H 2575.57 0.063163 -4.15852 0
M  V30 27531 H 2574.14 1.69276 -3.32265 0
M  V30 27532 N 2576.33 1.57568 0.0317248 0
M  V30 27533 C 2577.58 1.88777 0.721642 0
M  V30 27534 C 2577.9 0.838803 1.76037 0
M  V30 27535 O 2577.17 -0.1279 1.95482 0
M  V30 27536 H 2575.75 0.696683 0.269522 0
M  V30 27537 H 2578.41 1.949 -0.00169305 0
M  V30 27538 H 2577.51 2.87569 1.21288 0
M  V30 27539 N 2577.81 -0.303946 1.54641 0
M  V30 27540 C 2579.03 -1.06289 1.78094 0
M  V30 27541 C 2579.46 -1.80261 0.537374 0
M  V30 27542 O 2578.81 -1.73921 -0.511963 0
M  V30 27543 C 2578.86 -2.02142 2.98615 0
M  V30 27544 O 2577.97 -3.10392 2.71534 0
M  V30 27545 H 2577.31 -0.305487 0.589554 0
M  V30 27546 H 2579.84 -0.342265 2.01717 0
M  V30 27547 H 2579.85 -2.44661 3.26504 0
M  V30 27548 H 2578.52 -1.47707 3.88787 0
M  V30 27549 H 2577.1 -2.72409 2.54652 0
M  V30 27550 N 2579.28 -1.47047 -0.566994 0
M  V30 27551 C 2580.53 -1.53396 -1.32656 0
M  V30 27552 C 2580.86 -0.191514 -1.93253 0
M  V30 27553 O 2580.14 0.798813 -1.77339 0
M  V30 27554 C 2580.42 -2.64456 -2.44407 0
M  V30 27555 C 2580.27 -4.08285 -1.88742 0
M  V30 27556 C 2581.59 -2.71491 -3.46382 0
M  V30 27557 H 2578.71 -0.558423 -0.480971 0
M  V30 27558 H 2581.35 -1.79059 -0.63545 0
M  V30 27559 H 2579.5 -2.42705 -3.03359 0
M  V30 27560 H 2581.18 -4.4137 -1.34127 0
M  V30 27561 H 2579.42 -4.17023 -1.19474 0
M  V30 27562 H 2580.09 -4.8175 -2.69483 0
M  V30 27563 H 2582.57 -2.91086 -2.97335 0
M  V30 27564 H 2581.44 -3.50992 -4.22014 0
M  V30 27565 H 2581.7 -1.7816 -4.04613 0
M  V30 27566 N 2580.76 0.812929 -1.35016 0
M  V30 27567 C 2582.17 1.38646 -1.25037 0
M  V30 27568 C 2582.52 1.95833 0.119933 0
M  V30 27569 O 2581.65 1.90818 1.02066 0
M  V30 27570 C 2582.24 2.5205 -2.26398 0
M  V30 27571 C 2580.8 3.05283 -2.2018 0
M  V30 27572 C 2579.95 1.78209 -2.12454 0
M  V30 27573 H 2582.9 0.61649 -1.46236 0
M  V30 27574 H 2582.92 3.30425 -1.88678 0
M  V30 27575 H 2582.43 2.10398 -3.2612 0
M  V30 27576 H 2580.54 3.51415 -1.23848 0
M  V30 27577 H 2580.65 3.63695 -3.1187 0
M  V30 27578 H 2579.01 1.99507 -1.58332 0
M  V30 27579 H 2579.8 1.38717 -3.14026 0
M  V30 27580 N 2582.24 1.18909 1.03433 0
M  V30 27581 C 2583.17 0.879632 2.11649 0
M  V30 27582 C 2584.19 -0.12541 1.62316 0
M  V30 27583 O 2585.37 0.103276 1.78201 0
M  V30 27584 C 2582.47 0.294101 3.37621 0
M  V30 27585 C 2581.65 1.34636 4.16163 0
M  V30 27586 C 2580.71 0.775365 5.20456 0
M  V30 27587 O 2579.73 1.45169 5.50377 0
M  V30 27588 N 2580.93 -0.424024 5.78949 0
M  V30 27589 H 2583.7 1.81109 2.38787 0
M  V30 27590 H 2581.26 1.09034 1.19679 0
M  V30 27591 H 2583.25 -0.101608 4.04572 0
M  V30 27592 H 2581.82 -0.541521 3.07874 0
M  V30 27593 H 2581.04 1.91713 3.44441 0
M  V30 27594 H 2582.33 2.05557 4.65428 0
M  V30 27595 H 2581.73 -0.991111 5.5695 0
M  V30 27596 H 2580.29 -0.761577 6.47335 0
M  V30 27597 N 2583.72 -1.22452 0.992137 0
M  V30 27598 C 2584.97 -1.9118 0.667568 0
M  V30 27599 C 2585.29 -1.77273 -0.800286 0
M  V30 27600 O 2584.55 -1.13508 -1.59419 0
M  V30 27601 C 2584.85 -3.42584 1.01839 0
M  V30 27602 C 2584.51 -3.76679 2.47838 0
M  V30 27603 C 2583.18 -3.85696 2.87736 0
M  V30 27604 C 2585.53 -3.92889 3.42473 0
M  V30 27605 C 2582.86 -4.08359 4.2126 0
M  V30 27606 C 2585.21 -4.17055 4.75655 0
M  V30 27607 C 2583.87 -4.24296 5.15295 0
M  V30 27608 H 2583.14 -0.699577 0.24428 0
M  V30 27609 H 2585.79 -1.45233 1.24818 0
M  V30 27610 H 2584.09 -3.90181 0.355838 0
M  V30 27611 H 2585.79 -3.94013 0.745297 0
M  V30 27612 H 2582.38 -3.70243 2.15912 0
M  V30 27613 H 2586.56 -3.85301 3.12821 0
M  V30 27614 H 2581.82 -4.12192 4.51562 0
M  V30 27615 H 2585.99 -4.28541 5.48932 0
M  V30 27616 H 2583.62 -4.4161 6.18777 0
M  V30 27617 N 2585.2 -0.765242 -1.37774 0
M  V30 27618 C 2586.14 -0.145315 -2.30342 0
M  V30 27619 C 2587.11 0.696944 -1.50771 0
M  V30 27620 O 2588.3 0.650658 -1.79363 0
M  V30 27621 C 2585.44 0.73288 -3.37228 0
M  V30 27622 C 2584.55 -0.125275 -4.31818 0
M  V30 27623 C 2583.69 0.757014 -5.25778 0
M  V30 27624 C 2582.73 -0.10407 -6.12012 0
M  V30 27625 N 2581.86 0.73583 -6.98233 0
M  V30 27626 H 2586.7 -0.940245 -2.82778 0
M  V30 27627 H 2584.24 -0.47528 -1.3921 0
M  V30 27628 H 2586.2 1.25679 -3.9782 0
M  V30 27629 H 2584.83 1.49348 -2.86173 0
M  V30 27630 H 2583.88 -0.76693 -3.72589 0
M  V30 27631 H 2585.19 -0.789769 -4.92508 0
M  V30 27632 H 2584.35 1.34765 -5.91543 0
M  V30 27633 H 2583.08 1.45521 -4.65484 0
M  V30 27634 H 2582.09 -0.707293 -5.45232 0
M  V30 27635 H 2583.31 -0.7995 -6.74377 0
M  V30 27636 H 2581.26 1.41876 -6.40474 0
M  V30 27637 H 2581.18 0.128491 -7.55891 0
M  V30 27638 H 2582.45 1.31107 -7.68395 0
M  V30 27639 N 2586.67 1.48939 -0.515251 0
M  V30 27640 C 2587.62 2.29381 0.255526 0
M  V30 27641 C 2588.59 1.36434 0.947363 0
M  V30 27642 O 2589.78 1.65396 0.951259 0
M  V30 27643 C 2586.92 3.19456 1.30545 0
M  V30 27644 C 2586.03 4.2747 0.623954 0
M  V30 27645 C 2585.16 5.04743 1.65554 0
M  V30 27646 C 2584.2 6.04577 0.956695 0
M  V30 27647 N 2583.34 6.74962 1.93314 0
M  V30 27648 H 2588.18 2.94783 -0.436659 0
M  V30 27649 H 2585.72 1.45335 -0.227179 0
M  V30 27650 H 2587.68 3.70066 1.92632 0
M  V30 27651 H 2586.31 2.56008 1.96621 0
M  V30 27652 H 2585.36 3.80239 -0.110526 0
M  V30 27653 H 2586.67 4.98744 0.0745215 0
M  V30 27654 H 2585.82 5.59293 2.35109 0
M  V30 27655 H 2584.56 4.33274 2.23885 0
M  V30 27656 H 2583.57 5.49245 0.247001 0
M  V30 27657 H 2584.79 6.78038 0.379695 0
M  V30 27658 H 2582.74 6.06255 2.50581 0
M  V30 27659 H 2582.66 7.42261 1.43476 0
M  V30 27660 H 2583.92 7.3411 2.62113 0
M  V30 27661 N 2588.15 0.249709 1.55609 0
M  V30 27662 C 2589.4 -0.374806 1.99306 0
M  V30 27663 C 2589.73 -1.57385 1.13769 0
M  V30 27664 O 2589.01 -1.93451 0.201745 0
M  V30 27665 C 2589.29 -0.781924 3.51508 0
M  V30 27666 C 2589.14 0.422707 4.47809 0
M  V30 27667 C 2590.46 -1.62786 4.08887 0
M  V30 27668 H 2587.58 -0.13476 0.724575 0
M  V30 27669 H 2590.22 0.351582 1.86719 0
M  V30 27670 H 2588.37 -1.40083 3.62366 0
M  V30 27671 H 2590.05 1.06116 4.48929 0
M  V30 27672 H 2588.29 1.06532 4.20516 0
M  V30 27673 H 2588.96 0.0944736 5.51919 0
M  V30 27674 H 2591.44 -1.10539 4.01149 0
M  V30 27675 H 2590.31 -1.88157 5.15643 0
M  V30 27676 H 2590.57 -2.60062 3.57519 0
M  V30 27677 N 2589.63 -1.57583 -0.0233682 0
M  V30 27678 C 2590.88 -1.89812 -0.714086 0
M  V30 27679 C 2591.21 -0.848143 -1.747 0
M  V30 27680 O 2590.49 0.1361 -1.94023 0
M  V30 27681 C 2590.77 -3.32671 -1.37847 0
M  V30 27682 C 2590.62 -4.48368 -0.358685 0
M  V30 27683 C 2591.94 -3.74544 -2.31095 0
M  V30 27684 H 2589.06 -0.690318 -0.258127 0
M  V30 27685 H 2591.7 -1.89986 0.0231261 0
M  V30 27686 H 2589.85 -3.32654 -2.00683 0
M  V30 27687 H 2591.52 -4.6052 0.268196 0
M  V30 27688 H 2589.77 -4.32607 0.321463 0
M  V30 27689 H 2590.44 -5.45226 -0.862147 0
M  V30 27690 H 2592.91 -3.75964 -1.78297 0
M  V30 27691 H 2591.79 -4.75298 -2.74559 0
M  V30 27692 H 2592.05 -3.07116 -3.18013 0
M  V30 27693 N 2591.11 0.29574 -1.548 0
M  V30 27694 C 2592.36 1.03029 -1.74331 0
M  V30 27695 C 2592.68 1.87084 -0.531948 0
M  V30 27696 O 2591.94 1.89569 0.486019 0
M  V30 27697 C 2592.24 1.96094 -2.98801 0
M  V30 27698 C 2591.9 1.27973 -4.32358 0
M  V30 27699 C 2590.57 1.09127 -4.68663 0
M  V30 27700 C 2592.92 0.793153 -5.1513 0
M  V30 27701 C 2590.25 0.403166 -5.85313 0
M  V30 27702 C 2592.6 0.118743 -6.32489 0
M  V30 27703 C 2591.26 -0.0816217 -6.6745 0
M  V30 27704 H 2590.53 0.377009 -0.637923 0
M  V30 27705 H 2593.18 0.304663 -1.89061 0
M  V30 27706 H 2591.48 2.75203 -2.78874 0
M  V30 27707 H 2593.18 2.53009 -3.11107 0
M  V30 27708 H 2589.77 1.43648 -4.03811 0
M  V30 27709 H 2593.96 0.926444 -4.87576 0
M  V30 27710 H 2589.21 0.236991 -6.10941 0
M  V30 27711 H 2593.39 -0.266157 -6.95891 0
M  V30 27712 H 2591.01 -0.616818 -7.57693 0
M  V30 27713 N 2592.59 1.47346 0.559187 0
M  V30 27714 C 2593.52 1.55741 1.68158 0
M  V30 27715 C 2594.53 0.443772 1.56635 0
M  V30 27716 O 2595.72 0.713287 1.63629 0
M  V30 27717 C 2592.82 1.44376 3.06609 0
M  V30 27718 C 2591.99 2.70274 3.43905 0
M  V30 27719 C 2591.05 2.52773 4.61511 0
M  V30 27720 O 2590.08 3.2658 4.66191 0
M  V30 27721 N 2591.28 1.6047 5.5788 0
M  V30 27722 H 2594.05 2.52525 1.61403 0
M  V30 27723 H 2591.61 1.437 0.745775 0
M  V30 27724 H 2593.6 1.30405 3.83114 0
M  V30 27725 H 2592.17 0.55682 3.07601 0
M  V30 27726 H 2591.39 2.99019 2.56868 0
M  V30 27727 H 2592.68 3.53858 3.65598 0
M  V30 27728 H 2592.08 0.99652 5.56854 0
M  V30 27729 H 2590.63 1.52452 6.3372 0
M  V30 27730 N 2594.07 -0.805758 1.35445 0
M  V30 27731 C 2594.98 -1.94921 1.30549 0
M  V30 27732 C 2595.99 -1.72725 0.210264 0
M  V30 27733 O 2597.17 -1.9654 0.439784 0
M  V30 27734 C 2594.23 -3.29519 1.07788 0
M  V30 27735 C 2593.29 -3.64605 2.26632 0
M  V30 27736 C 2592.53 -4.9278 2.04947 0
M  V30 27737 O 2592.75 -5.61272 1.01634 0
M  V30 27738 O 2591.68 -5.26144 2.92329 0
M  V30 27739 H 2595.51 -2.01998 2.26783 0
M  V30 27740 H 2593.09 -0.943661 1.15825 0
M  V30 27741 H 2594.98 -4.10097 0.969464 0
M  V30 27742 H 2593.65 -3.2337 0.14606 0
M  V30 27743 H 2592.56 -2.844 2.43038 0
M  V30 27744 H 2593.89 -3.75459 3.18263 0
M  V30 27745 N 2595.54 -1.19456 -1.02801 0
M  V30 27746 C 2596.79 -0.997724 -1.76215 0
M  V30 27747 C 2597.12 0.471407 -1.88701 0
M  V30 27748 O 2596.37 1.36627 -1.40112 0
M  V30 27749 C 2596.67 -1.61286 -3.18938 0
M  V30 27750 C 2596.34 -3.11025 -3.26458 0
M  V30 27751 C 2595 -3.51891 -3.28217 0
M  V30 27752 C 2597.35 -4.07034 -3.25535 0
M  V30 27753 C 2594.68 -4.87316 -3.26711 0
M  V30 27754 C 2597.03 -5.4239 -3.25569 0
M  V30 27755 C 2595.7 -5.82686 -3.25627 0
M  V30 27756 H 2594.97 -0.365093 -0.644816 0
M  V30 27757 H 2597.61 -1.48712 -1.20652 0
M  V30 27758 H 2595.92 -1.04578 -3.77585 0
M  V30 27759 H 2597.62 -1.43584 -3.74413 0
M  V30 27760 H 2594.21 -2.78463 -3.25817 0
M  V30 27761 H 2598.39 -3.76503 -3.23356 0
M  V30 27762 H 2593.65 -5.17816 -3.25079 0
M  V30 27763 H 2597.82 -6.16541 -3.23806 0
M  V30 27764 H 2595.45 -6.87597 -3.24214 0
M  V30 27765 N 2597.02 1.21924 -0.998617 0
M  V30 27766 C 2598.25 1.94831 -0.69632 0
M  V30 27767 C 2598.66 1.73693 0.740001 0
M  V30 27768 O 2598.02 1.03956 1.49998 0
M  V30 27769 C 2598.07 3.47397 -0.999894 0
M  V30 27770 O 2597.79 3.67829 -2.37978 0
M  V30 27771 C 2599.29 4.37478 -0.716102 0
M  V30 27772 H 2596.51 0.619782 -0.257122 0
M  V30 27773 H 2599.06 1.54918 -1.33494 0
M  V30 27774 H 2597.21 3.85256 -0.406986 0
M  V30 27775 H 2597.63 4.61979 -2.48346 0
M  V30 27776 H 2599.1 5.43254 -0.978737 0
M  V30 27777 H 2599.58 4.37804 0.349891 0
M  V30 27778 H 2600.18 4.05254 -1.29032 0
M  V30 27779 N 2598.5 0.772537 1.37367 0
M  V30 27780 C 2599.78 0.261914 1.93839 0
M  V30 27781 C 2600.16 -1.24316 1.70613 0
M  V30 27782 O 2599.5 -2.02668 1.05537 0
M  V30 27783 C 2599.71 0.636162 3.43153 0
M  V30 27784 C 2601.06 0.606398 4.20248 0
M  V30 27785 O 2602.09 0.5756 3.51519 0
M  V30 27786 O 2600.95 0.634182 5.42808 0
M  V30 27787 H 2598.04 0.06057 0.824779 0
M  V30 27788 H 2600.59 0.853943 1.46649 0
M  V30 27789 H 2599.36 1.67486 3.53644 0
M  V30 27790 H 2598.98 0.0171215 3.97596 0
M  V30 27791 N 2599.98 -1.48664 0.523142 0
M  V30 27792 C 2601.23 -2.02096 -0.0134142 0
M  V30 27793 C 2601.55 -1.40313 -1.35415 0
M  V30 27794 O 2600.82 -0.566107 -1.87542 0
M  V30 27795 H 2599.4 -0.746958 -0.00794602 0
M  V30 27796 H 2602.06 -1.8245 0.68542 0
M  V30 27797 H 2601.15 -3.11842 -0.126795 0
M  V30 27798 N 2601.46 -0.257958 -1.55475 0
M  V30 27799 C 2602.68 0.370453 -2.04065 0
M  V30 27800 C 2603.11 1.49946 -1.13568 0
M  V30 27801 O 2602.46 1.80827 -0.130812 0
M  V30 27802 C 2602.51 0.845176 -3.50555 0
M  V30 27803 O 2601.62 1.95388 -3.63177 0
M  V30 27804 H 2600.96 0.0792128 -0.659258 0
M  V30 27805 H 2603.49 -0.387247 -2.00902 0
M  V30 27806 H 2603.5 1.14548 -3.9159 0
M  V30 27807 H 2602.17 0.0190528 -4.15896 0
M  V30 27808 H 2600.75 1.65742 -3.34042 0
M  V30 27809 N 2602.93 1.57593 0.0150108 0
M  V30 27810 C 2604.18 1.89907 0.702968 0
M  V30 27811 C 2604.51 0.856975 1.74603 0
M  V30 27812 O 2603.76 -0.140252 1.95197 0
M  V30 27813 C 2604.06 3.28975 1.3968 0
M  V30 27814 C 2603.73 4.48247 0.488378 0
M  V30 27815 C 2602.39 4.8061 0.238216 0
M  V30 27816 C 2604.74 5.21017 -0.137973 0
M  V30 27817 C 2602.07 5.83123 -0.64684 0
M  V30 27818 C 2604.42 6.24472 -1.01081 0
M  V30 27819 C 2603.09 6.55301 -1.2703 0
M  V30 27820 H 2602.36 0.694918 0.257234 0
M  V30 27821 H 2605 1.91464 -0.0372927 0
M  V30 27822 H 2603.31 3.23472 2.21073 0
M  V30 27823 H 2605.01 3.51231 1.93489 0
M  V30 27824 H 2601.6 4.22952 0.693519 0
M  V30 27825 H 2605.78 4.96282 0.042308 0
M  V30 27826 H 2601.04 6.05377 -0.856044 0
M  V30 27827 H 2605.21 6.79997 -1.50259 0
M  V30 27828 H 2602.84 7.34557 -1.95782 0
M  V30 27829 N 2604.41 -0.287527 1.54955 0
M  V30 27830 C 2605.64 -1.03964 1.78883 0
M  V30 27831 C 2606.06 -1.80461 0.554925 0
M  V30 27832 O 2605.41 -1.76193 -0.475645 0
M  V30 27833 C 2605.46 -2.00965 3.00492 0
M  V30 27834 O 2605.18 -1.27569 4.19115 0
M  V30 27835 C 2606.69 -2.88106 3.36912 0
M  V30 27836 H 2603.91 -0.30775 0.596264 0
M  V30 27837 H 2606.45 -0.322713 2.01938 0
M  V30 27838 H 2604.6 -2.6814 2.79606 0
M  V30 27839 H 2605.02 -1.92826 4.87769 0
M  V30 27840 H 2606.49 -3.51993 4.25211 0
M  V30 27841 H 2606.97 -3.57116 2.55665 0
M  V30 27842 H 2607.58 -2.26442 3.60005 0
M  V30 27843 N 2605.89 -1.47641 -0.551365 0
M  V30 27844 C 2606.82 -1.56631 -1.6733 0
M  V30 27845 C 2607.84 -0.452072 -1.56397 0
M  V30 27846 O 2609.02 -0.721954 -1.63248 0
M  V30 27847 C 2606.12 -1.46 -3.05839 0
M  V30 27848 C 2605.3 -2.72094 -3.42467 0
M  V30 27849 C 2604.36 -2.55217 -4.60164 0
M  V30 27850 O 2603.38 -3.29048 -4.64452 0
M  V30 27851 N 2604.58 -1.63426 -5.57021 0
M  V30 27852 H 2607.35 -2.53378 -1.60062 0
M  V30 27853 H 2604.91 -1.44094 -0.738144 0
M  V30 27854 H 2606.9 -1.32435 -3.82417 0
M  V30 27855 H 2605.47 -0.573125 -3.07301 0
M  V30 27856 H 2604.69 -3.00377 -2.55278 0
M  V30 27857 H 2605.98 -3.55792 -3.63717 0
M  V30 27858 H 2605.38 -1.02604 -5.56317 0
M  V30 27859 H 2603.94 -1.55811 -6.32903 0
M  V30 27860 N 2607.37 0.798563 -1.3587 0
M  V30 27861 C 2608.78 1.37312 -1.26501 0
M  V30 27862 C 2609.13 1.95949 0.0991554 0
M  V30 27863 O 2608.26 1.9189 1.00036 0
M  V30 27864 C 2608.85 2.49635 -2.29059 0
M  V30 27865 C 2607.41 3.02931 -2.23405 0
M  V30 27866 C 2606.56 1.75946 -2.14333 0
M  V30 27867 H 2609.51 0.600945 -1.46882 0
M  V30 27868 H 2609.53 3.28406 -1.92172 0
M  V30 27869 H 2609.04 2.06927 -3.28333 0
M  V30 27870 H 2607.14 3.50082 -1.27568 0
M  V30 27871 H 2607.25 3.60367 -3.1571 0
M  V30 27872 H 2605.62 1.97817 -1.60439 0
M  V30 27873 H 2606.4 1.35379 -3.1548 0
M  V30 27874 N 2608.85 1.19999 1.02166 0
M  V30 27875 C 2609.78 0.968077 2.12486 0
M  V30 27876 C 2610.76 -0.101155 1.69799 0
M  V30 27877 O 2611.94 0.0553334 1.94121 0
M  V30 27878 C 2609.07 0.513836 3.43478 0
M  V30 27879 C 2608.03 1.52573 3.99882 0
M  V30 27880 C 2607.35 0.928307 5.2658 0
M  V30 27881 C 2608.65 2.90803 4.33856 0
M  V30 27882 H 2610.35 1.89074 2.32146 0
M  V30 27883 H 2607.89 0.910488 1.11562 0
M  V30 27884 H 2609.85 0.338847 4.20035 0
M  V30 27885 H 2608.57 -0.444436 3.23562 0
M  V30 27886 H 2607.23 1.68799 3.25426 0
M  V30 27887 H 2606.88 -0.0377405 5.02986 0
M  V30 27888 H 2606.58 1.60407 5.65282 0
M  V30 27889 H 2608.1 0.764274 6.05798 0
M  V30 27890 H 2609.51 2.78118 5.01322 0
M  V30 27891 H 2607.91 3.55239 4.83658 0
M  V30 27892 H 2608.98 3.4291 3.42842 0
M  V30 27893 N 2610.32 -1.21392 1.00507 0
M  V30 27894 C 2611.55 -1.94177 0.705618 0
M  V30 27895 C 2611.96 -1.74305 -0.735815 0
M  V30 27896 O 2611.31 -1.04685 -1.50953 0
M  V30 27897 C 2611.37 -3.46804 0.946951 0
M  V30 27898 C 2611.03 -3.90425 2.37524 0
M  V30 27899 C 2612.03 -3.97121 3.35546 0
M  V30 27900 C 2609.71 -4.22737 2.71291 0
M  V30 27901 C 2611.71 -4.35522 4.65403 0
M  V30 27902 C 2609.39 -4.60815 4.01364 0
M  V30 27903 C 2610.39 -4.67178 4.98231 0
M  V30 27904 O 2610.08 -5.04388 6.25978 0
M  V30 27905 H 2609.81 -0.624321 0.259227 0
M  V30 27906 H 2612.37 -1.55156 1.34595 0
M  V30 27907 H 2610.6 -3.85895 0.249454 0
M  V30 27908 H 2612.29 -4.00809 0.640874 0
M  V30 27909 H 2613.05 -3.72334 3.10793 0
M  V30 27910 H 2608.93 -4.16982 1.96589 0
M  V30 27911 H 2612.47 -4.40403 5.41009 0
M  V30 27912 H 2608.37 -4.85055 4.25901 0
M  V30 27913 H 2609.14 -5.2242 6.30095 0
M  V30 27914 N 2611.8 -0.779811 -1.36955 0
M  V30 27915 C 2613.22 -0.460369 -1.52816 0
M  V30 27916 C 2613.42 1.0228 -1.73612 0
M  V30 27917 O 2612.47 1.80849 -1.7621 0
M  V30 27918 C 2613.79 -1.28246 -2.71981 0
M  V30 27919 C 2615.34 -1.27517 -2.85847 0
M  V30 27920 C 2615.81 -2.08079 -4.08004 0
M  V30 27921 N 2617.3 -2.05475 -4.15132 0
M  V30 27922 C 2618.04 -2.64586 -5.08706 0
M  V30 27923 N 2617.53 -3.32517 -6.07787 0
M  V30 27924 N 2619.33 -2.54372 -5.0125 0
M  V30 27925 H 2611.48 -1.74071 -1.2171 0
M  V30 27926 H 2613.74 -0.739407 -0.593281 0
M  V30 27927 H 2613.45 -2.33385 -2.63105 0
M  V30 27928 H 2613.32 -0.917153 -3.6588 0
M  V30 27929 H 2615.71 -0.231738 -2.94189 0
M  V30 27930 H 2615.79 -1.68018 -1.92883 0
M  V30 27931 H 2615.43 -3.12448 -4.00423 0
M  V30 27932 H 2615.36 -1.64956 -5.00097 0
M  V30 27933 H 2617.85 -1.56026 -3.44187 0
M  V30 27934 H 2618.17 -3.74974 -6.75732 0
M  V30 27935 H 2616.51 -3.36617 -6.08041 0
M  V30 27936 H 2619.7 -2.0091 -4.22792 0
M  V30 27937 H 2619.87 -3.00732 -5.7399 0
M  V30 27938 N 2613.28 1.48384 -0.531019 0
M  V30 27939 C 2614.53 2.021 0.00269637 0
M  V30 27940 C 2614.85 1.41029 1.34669 0
M  V30 27941 O 2614.12 0.576045 1.87239 0
M  V30 27942 H 2612.7 0.746989 0.00398461 0
M  V30 27943 H 2615.36 1.82084 -0.695086 0
M  V30 27944 H 2614.46 3.11905 0.110255 0
M  V30 27945 N 2614.76 0.2662 1.55336 0
M  V30 27946 C 2615.67 -0.635418 2.25831 0
M  V30 27947 C 2616.68 -1.17747 1.28108 0
M  V30 27948 O 2617.86 -1.20965 1.61026 0
M  V30 27949 C 2614.93 -1.80706 2.95882 0
M  V30 27950 C 2613.99 -1.30257 4.09062 0
M  V30 27951 C 2613.22 -2.41838 4.75763 0
M  V30 27952 O 2613.44 -3.60999 4.41628 0
M  V30 27953 O 2612.38 -2.105 5.63891 0
M  V30 27954 H 2616.2 -0.0646159 3.03631 0
M  V30 27955 H 2613.79 0.033944 1.49361 0
M  V30 27956 H 2615.67 -2.49041 3.39936 0
M  V30 27957 H 2614.34 -2.36512 2.21006 0
M  V30 27958 H 2613.25 -0.585954 3.69483 0
M  V30 27959 H 2614.58 -0.790373 4.85813 0
M  V30 27960 N 2616.24 -1.57599 -0.0066531 0
M  V30 27961 C 2617.17 -2.11038 -0.999259 0
M  V30 27962 C 2618.15 -1.01798 -1.36276 0
M  V30 27963 O 2619.33 -1.29445 -1.44768 0
M  V30 27964 C 2616.46 -2.60822 -2.29323 0
M  V30 27965 C 2615.42 -3.74529 -2.07153 0
M  V30 27966 C 2614.74 -4.10602 -3.42505 0
M  V30 27967 C 2616.04 -5.02071 -1.4395 0
M  V30 27968 H 2617.74 -2.94224 -0.55433 0
M  V30 27969 H 2615.28 -1.41537 -0.265197 0
M  V30 27970 H 2617.24 -2.96833 -2.99112 0
M  V30 27971 H 2615.96 -1.7475 -2.75917 0
M  V30 27972 H 2614.62 -3.38901 -1.39791 0
M  V30 27973 H 2614.27 -3.21563 -3.8679 0
M  V30 27974 H 2613.97 -4.87205 -3.28489 0
M  V30 27975 H 2615.49 -4.49167 -4.1362 0
M  V30 27976 H 2616.9 -5.35896 -2.03686 0
M  V30 27977 H 2615.3 -5.83435 -1.40442 0
M  V30 27978 H 2616.37 -4.83181 -0.407908 0
M  V30 27979 N 2617.72 0.279305 -1.55105 0
M  V30 27980 C 2618.66 1.36502 -1.88335 0
M  V30 27981 C 2619.66 1.51441 -0.75907 0
M  V30 27982 O 2620.86 1.53301 -0.943339 0
M  V30 27983 H 2617.24 0.456395 -0.597668 0
M  V30 27984 H 2619.21 1.05723 -2.79043 0
M  V30 27985 C 2617.96 2.71966 -2.16633 0
M  V30 27986 H 2617.28 2.61259 -3.02628 0
M  V30 27987 H 2618.72 3.4689 -2.43809 0
M  V30 27988 C 2617.18 3.22578 -0.971864 0
M  V30 27989 O 2617.71 4.01185 -0.203298 0
M  V30 27990 N 2615.92 2.80178 -0.771287 0
M  V30 27991 H 2615.46 2.16368 -1.39796 0
M  V30 27992 H 2615.42 3.14389 0.0263114 0
M  V30 27993 N 2619.19 1.47931 0.543528 0
M  V30 27994 C 2620.1 1.64101 1.67654 0
M  V30 27995 C 2621.12 0.523651 1.65933 0
M  V30 27996 O 2622.3 0.792975 1.85132 0
M  V30 27997 C 2619.36 1.66426 3.04144 0
M  V30 27998 C 2618.42 2.8969 3.16825 0
M  V30 27999 C 2617.65 2.91894 4.46804 0
M  V30 28000 O 2617.88 2.02904 5.33091 0
M  V30 28001 O 2616.81 3.83915 4.63566 0
M  V30 28002 H 2620.64 2.59999 1.56952 0
M  V30 28003 H 2618.22 1.31175 0.715093 0
M  V30 28004 H 2620.1 1.70555 3.85343 0
M  V30 28005 H 2618.78 0.736978 3.15199 0
M  V30 28006 H 2617.69 2.91099 2.34972 0
M  V30 28007 H 2619.02 3.81757 3.1068 0
M  V30 28008 N 2620.67 -0.791347 1.36292 0
M  V30 28009 C 2621.62 -1.8936 1.26991 0
M  V30 28010 C 2622.61 -1.60084 0.161823 0
M  V30 28011 O 2623.8 -1.72549 0.394456 0
M  V30 28012 C 2620.93 -3.26542 1.0595 0
M  V30 28013 C 2620.01 -3.61834 2.21217 0
M  V30 28014 N 2620.4 -3.68449 3.46525 0
M  V30 28015 C 2618.7 -3.91883 2.1294 0
M  V30 28016 C 2619.4 -3.99924 4.22417 0
M  V30 28017 N 2618.38 -4.14806 3.51336 0
M  V30 28018 H 2622.18 -1.92698 2.21912 0
M  V30 28019 H 2619.69 -0.986765 1.28983 0
M  V30 28020 H 2621.69 -4.05369 0.973738 0
M  V30 28021 H 2620.35 -3.24481 0.11928 0
M  V30 28022 H 2621.36 -3.51142 3.80684 0
M  V30 28023 H 2618.04 -3.97759 1.26862 0
M  V30 28024 H 2619.43 -4.11981 5.30774 0
M  V30 28025 N 2622.15 -1.2054 -1.01528 0
M  V30 28026 C 2623.08 -0.979333 -2.1197 0
M  V30 28027 C 2624.06 0.0921489 -1.6985 0
M  V30 28028 O 2625.25 -0.0656273 -1.94089 0
M  V30 28029 C 2622.38 -0.532044 -3.432 0
M  V30 28030 C 2621.33 -1.54692 -3.99067 0
M  V30 28031 C 2620.66 -0.95622 -5.2608 0
M  V30 28032 C 2621.96 -2.931 -4.32308 0
M  V30 28033 H 2623.65 -1.90302 -2.3114 0
M  V30 28034 H 2621.2 -0.916392 -1.11078 0
M  V30 28035 H 2623.15 -0.361118 -4.1985 0
M  V30 28036 H 2621.87 0.427271 -3.23793 0
M  V30 28037 H 2620.53 -1.70523 -3.24527 0
M  V30 28038 H 2620.18 0.0110654 -5.02999 0
M  V30 28039 H 2619.88 -1.63403 -5.64423 0
M  V30 28040 H 2621.4 -0.79639 -6.05384 0
M  V30 28041 H 2622.82 -2.80772 -4.9984 0
M  V30 28042 H 2621.21 -3.57799 -4.81767 0
M  V30 28043 H 2622.28 -3.44723 -3.41019 0
M  V30 28044 N 2623.63 1.20858 -1.01149 0
M  V30 28045 C 2624.88 1.89718 -0.69652 0
M  V30 28046 C 2625.2 1.78905 0.775756 0
M  V30 28047 O 2624.47 1.18814 1.55757 0
M  V30 28048 H 2623.05 0.702259 -0.25464 0
M  V30 28049 H 2625.71 1.46802 -1.282 0
M  V30 28050 H 2624.8 2.96466 -0.97541 0
M  V30 28051 N 2625.11 0.787064 1.3654 0
M  V30 28052 C 2626.04 0.198033 2.32659 0
M  V30 28053 C 2627.02 -0.665669 1.56534 0
M  V30 28054 O 2628.2 -0.599978 1.84699 0
M  V30 28055 C 2625.33 -0.669841 3.40779 0
M  V30 28056 C 2624.29 0.0937791 4.27897 0
M  V30 28057 C 2623.61 -0.894536 5.27164 0
M  V30 28058 C 2624.91 1.28163 5.06332 0
M  V30 28059 H 2626.61 1.00104 2.82169 0
M  V30 28060 H 2624.15 0.482817 1.35665 0
M  V30 28061 H 2626.1 -1.09184 4.0701 0
M  V30 28062 H 2624.83 -1.50553 2.8983 0
M  V30 28063 H 2623.49 0.496724 3.63219 0
M  V30 28064 H 2623.14 -1.72519 4.72489 0
M  V30 28065 H 2622.84 -0.388046 5.86317 0
M  V30 28066 H 2624.36 -1.31515 5.96269 0
M  V30 28067 H 2625.77 0.93551 5.65616 0
M  V30 28068 H 2624.17 1.72125 5.74885 0
M  V30 28069 H 2625.24 2.07815 4.38111 0
M  V30 28070 N 2626.58 -1.48101 0.53888 0
M  V30 28071 C 2627.51 -2.32575 -0.207613 0
M  V30 28072 C 2628.49 -1.42651 -0.926534 0
M  V30 28073 O 2629.68 -1.71529 -0.91058 0
M  V30 28074 C 2626.81 -3.24044 -1.24951 0
M  V30 28075 C 2625.76 -4.23063 -0.648189 0
M  V30 28076 C 2625.09 -5.03728 -1.79339 0
M  V30 28077 C 2626.39 -5.20872 0.385988 0
M  V30 28078 H 2628.08 -2.95236 0.497586 0
M  V30 28079 H 2625.63 -1.41973 0.24074 0
M  V30 28080 H 2627.58 -3.81972 -1.77976 0
M  V30 28081 H 2626.31 -2.59401 -1.98441 0
M  V30 28082 H 2624.97 -3.66335 -0.139388 0
M  V30 28083 H 2624.61 -4.35502 -2.51688 0
M  V30 28084 H 2624.31 -5.70754 -1.39692 0
M  V30 28085 H 2625.84 -5.6451 -2.32725 0
M  V30 28086 H 2627.25 -5.73271 -0.0575062 0
M  V30 28087 H 2625.65 -5.95999 0.700332 0
M  V30 28088 H 2626.72 -4.67466 1.28856 0
M  V30 28089 N 2628.06 -0.274434 -1.55192 0
M  V30 28090 C 2629.31 0.341867 -1.99188 0
M  V30 28091 C 2629.63 1.56429 -1.16425 0
M  V30 28092 O 2628.9 1.94251 -0.253607 0
M  V30 28093 H 2627.48 0.129304 -0.735724 0
M  V30 28094 H 2630.14 -0.379611 -1.91167 0
M  V30 28095 H 2629.24 0.632199 -3.0563 0
M  V30 28096 N 2629.54 1.576 -0.00170483 0
M  V30 28097 C 2630.95 1.78694 0.540879 0
M  V30 28098 C 2631.3 0.909278 1.73858 0
M  V30 28099 O 2630.43 0.112214 2.16109 0
M  V30 28100 C 2631.02 3.24074 0.988003 0
M  V30 28101 C 2629.58 3.46258 1.47588 0
M  V30 28102 C 2628.73 2.73979 0.427872 0
M  V30 28103 H 2631.68 1.57056 -0.227867 0
M  V30 28104 H 2631.7 3.3228 1.85392 0
M  V30 28105 H 2631.21 3.87926 0.116095 0
M  V30 28106 H 2629.31 2.87623 2.36863 0
M  V30 28107 H 2629.43 4.54941 1.50217 0
M  V30 28108 H 2627.79 2.38648 0.889892 0
M  V30 28109 H 2628.57 3.40532 -0.435098 0
M  V30 28110 N 2631.02 -0.271076 1.55251 0
M  V30 28111 C 2632.25 -1.01913 1.79715 0
M  V30 28112 C 2632.66 -1.80358 0.571645 0
M  V30 28113 O 2632 -1.77617 -0.468822 0
M  V30 28114 C 2632.06 -2.02354 2.97141 0
M  V30 28115 C 2631.72 -1.42829 4.34107 0
M  V30 28116 C 2632.72 -0.842981 5.1302 0
M  V30 28117 C 2630.41 -1.45492 4.80768 0
M  V30 28118 C 2632.4 -0.292221 6.3673 0
M  V30 28119 C 2630.09 -0.900295 6.04432 0
M  V30 28120 C 2631.09 -0.31995 6.8225 0
M  V30 28121 O 2630.77 0.226172 8.03582 0
M  V30 28122 H 2630.51 -0.30667 0.602436 0
M  V30 28123 H 2633.06 -0.306666 2.03098 0
M  V30 28124 H 2631.29 -2.77364 2.69455 0
M  V30 28125 H 2632.98 -2.63303 3.08911 0
M  V30 28126 H 2633.74 -0.815094 4.78102 0
M  V30 28127 H 2629.62 -1.89602 4.20205 0
M  V30 28128 H 2633.17 0.161397 6.97413 0
M  V30 28129 H 2629.06 -0.925429 6.38832 0
M  V30 28130 H 2629.83 0.115716 8.18418 0
M  V30 28131 N 2632.5 -1.48217 -0.535675 0
M  V30 28132 C 2633.75 -1.55199 -1.28825 0
M  V30 28133 C 2634.06 -0.228312 -1.94263 0
M  V30 28134 O 2635.26 -0.176326 -2.70927 0
M  V30 28135 C 2633.72 -2.73682 -2.33722 0
M  V30 28136 C 2633.33 -4.12669 -1.74379 0
M  V30 28137 C 2635.07 -2.89973 -3.10025 0
M  V30 28138 C 2632.98 -5.22421 -2.77182 0
M  V30 28139 H 2631.91 -0.577756 -0.484473 0
M  V30 28140 H 2634.56 -1.74539 -0.566429 0
M  V30 28141 H 2632.94 -2.47766 -3.08915 0
M  V30 28142 H 2634.12 -4.48581 -1.05413 0
M  V30 28143 H 2632.43 -4.01447 -1.10588 0
M  V30 28144 H 2635.03 -3.69137 -3.86836 0
M  V30 28145 H 2635.37 -1.99216 -3.65539 0
M  V30 28146 H 2635.9 -3.15764 -2.41947 0
M  V30 28147 H 2632.64 -6.15126 -2.26496 0
M  V30 28148 H 2632.16 -4.91004 -3.44493 0
M  V30 28149 H 2633.84 -5.50292 -3.40275 0
M  V30 28150 N 2633.97 0.784108 -1.3671 0
M  V30 28151 C 2635.39 1.08292 -1.17239 0
M  V30 28152 C 2635.59 2.015 -9.48134e-05 0
M  V30 28153 O 2634.65 2.43623 0.663643 0
M  V30 28154 C 2635.96 1.69229 -2.4856 0
M  V30 28155 C 2637.51 1.81545 -2.54971 0
M  V30 28156 C 2637.98 2.45897 -3.86392 0
M  V30 28157 N 2639.47 2.5336 -3.87767 0
M  V30 28158 C 2640.21 3.03974 -4.86197 0
M  V30 28159 N 2639.7 3.54855 -5.95021 0
M  V30 28160 N 2641.5 3.02735 -4.73612 0
M  V30 28161 H 2633.65 0.164973 -2.11758 0
M  V30 28162 H 2635.91 0.135805 -0.938222 0
M  V30 28163 H 2635.62 1.0821 -3.34639 0
M  V30 28164 H 2635.49 2.68674 -2.64753 0
M  V30 28165 H 2637.88 2.41701 -1.69306 0
M  V30 28166 H 2637.96 0.808908 -2.42673 0
M  V30 28167 H 2637.6 1.86384 -4.72465 0
M  V30 28168 H 2637.53 3.47133 -3.95988 0
M  V30 28169 H 2640.02 2.17337 -3.09149 0
M  V30 28170 H 2640.34 3.91842 -6.66093 0
M  V30 28171 H 2638.68 3.52993 -5.98683 0
M  V30 28172 H 2641.87 2.62277 -3.87722 0
M  V30 28173 H 2642.05 3.41872 -5.50479 0
M  V30 28174 N 2635.45 1.21076 1.00888 0
M  V30 28175 C 2636.42 0.968165 2.07748 0
M  V30 28176 C 2637.42 -0.0593163 1.60691 0
M  V30 28177 O 2638.61 0.177555 1.73293 0
M  V30 28178 C 2635.74 0.459168 3.37794 0
M  V30 28179 H 2636.93 1.91614 2.30703 0
M  V30 28180 H 2634.48 1.02721 1.17805 0
M  V30 28181 H 2635.22 -0.493914 3.20517 0
M  V30 28182 H 2635 1.20025 3.73278 0
M  V30 28183 H 2636.49 0.309173 4.16454 0
M  V30 28184 N 2636.93 -1.2032 1.01789 0
M  V30 28185 C 2637.84 -2.26826 0.598938 0
M  V30 28186 C 2638.86 -1.70147 -0.36415 0
M  V30 28187 O 2640.03 -2.00142 -0.224777 0
M  V30 28188 C 2637.1 -3.46657 -0.054916 0
M  V30 28189 C 2636.16 -4.18559 0.954279 0
M  V30 28190 C 2635.39 -5.32669 0.331533 0
M  V30 28191 O 2635.61 -5.63751 -0.868411 0
M  V30 28192 O 2634.55 -5.9269 1.0489 0
M  V30 28193 H 2638.37 -2.6488 1.48567 0
M  V30 28194 H 2635.96 -1.26963 0.787456 0
M  V30 28195 H 2637.84 -4.19301 -0.420028 0
M  V30 28196 H 2636.52 -3.10474 -0.915822 0
M  V30 28197 H 2635.42 -3.48081 1.37078 0
M  V30 28198 H 2636.76 -4.58685 1.78519 0
M  V30 28199 N 2638.41 -0.794293 -1.3612 0
M  V30 28200 C 2639.65 -0.369487 -1.99406 0
M  V30 28201 C 2639.99 1.0574 -1.62888 0
M  V30 28202 O 2639.26 1.73144 -0.886084 0
M  V30 28203 C 2639.55 -0.538896 -3.56045 0
M  V30 28204 C 2639.4 -2.00983 -4.024 0
M  V30 28205 C 2640.72 0.0430585 -4.40079 0
M  V30 28206 H 2637.84 -0.135725 -0.724395 0
M  V30 28207 H 2640.48 -1.00154 -1.61459 0
M  V30 28208 H 2638.63 -0.000839293 -3.885 0
M  V30 28209 H 2640.3 -2.60932 -3.8041 0
M  V30 28210 H 2638.54 -2.51069 -3.53761 0
M  V30 28211 H 2639.21 -2.07931 -5.1134 0
M  V30 28212 H 2641.69 -0.416301 -4.14012 0
M  V30 28213 H 2640.57 -0.10547 -5.48799 0
M  V30 28214 H 2640.83 1.13563 -4.27266 0
M  V30 28215 N 2639.89 1.47813 -0.546727 0
M  V30 28216 C 2640.8 2.33656 0.210219 0
M  V30 28217 C 2641.81 1.4754 0.922387 0
M  V30 28218 O 2642.99 1.80489 0.89362 0
M  V30 28219 C 2640.05 3.24018 1.23342 0
M  V30 28220 C 2639.11 4.26018 0.529809 0
M  V30 28221 C 2638.35 5.12062 1.50426 0
M  V30 28222 O 2638.57 5.00374 2.73828 0
M  V30 28223 O 2637.5 5.92944 1.03449 0
M  V30 28224 H 2641.33 2.99661 -0.493658 0
M  V30 28225 H 2638.92 1.46202 -0.307452 0
M  V30 28226 H 2640.8 3.79864 1.82432 0
M  V30 28227 H 2639.47 2.60654 1.91941 0
M  V30 28228 H 2638.38 3.73961 -0.102013 0
M  V30 28229 H 2639.71 4.92067 -0.114536 0
M  V30 28230 N 2641.36 0.28266 1.55044 0
M  V30 28231 C 2642.64 -0.384132 1.91791 0
M  V30 28232 C 2643.02 -1.73133 1.20781 0
M  V30 28233 O 2642.37 -2.25998 0.337229 0
M  V30 28234 C 2642.58 -0.516954 3.4515 0
M  V30 28235 C 2643.93 -0.796354 4.17065 0
M  V30 28236 O 2644.95 -0.601474 3.51085 0
M  V30 28237 O 2643.81 -1.16953 5.33839 0
M  V30 28238 H 2640.9 -0.211544 0.799486 0
M  V30 28239 H 2643.45 0.329369 1.66473 0
M  V30 28240 H 2642.22 0.430841 3.88921 0
M  V30 28241 H 2641.85 -1.27963 3.76445 0
M  V30 28242 N 2642.84 -1.57597 0.0100627 0
M  V30 28243 C 2643.79 -2.10185 -0.996235 0
M  V30 28244 C 2644.78 -1.02408 -1.3494 0
M  V30 28245 O 2645.99 -1.20863 -1.33387 0
M  V30 28246 H 2642.37 -0.67127 -0.33897 0
M  V30 28247 H 2644.34 -2.93706 -0.527221 0
M  V30 28248 C 2643.09 -2.62861 -2.27594 0
M  V30 28249 H 2642.41 -3.45431 -2.01289 0
M  V30 28250 H 2643.85 -3.03325 -2.9626 0
M  V30 28251 C 2642.31 -1.5473 -2.99266 0
M  V30 28252 O 2642.84 -0.936039 -3.90642 0
M  V30 28253 N 2641.04 -1.27233 -2.61266 0
M  V30 28254 H 2640.59 -1.77126 -1.8704 0
M  V30 28255 H 2640.55 -0.551053 -3.09533 0
M  V30 28256 N 2644.32 0.262839 -1.55393 0
M  V30 28257 C 2645.57 0.990912 -1.75681 0
M  V30 28258 C 2645.88 1.8708 -0.571003 0
M  V30 28259 O 2647.09 2.63442 -0.656532 0
M  V30 28260 C 2645.54 1.81183 -3.10968 0
M  V30 28261 C 2645.15 0.980111 -4.37147 0
M  V30 28262 C 2646.9 2.53359 -3.40602 0
M  V30 28263 C 2644.8 1.796 -5.6347 0
M  V30 28264 H 2643.73 0.373704 -0.654875 0
M  V30 28265 H 2646.38 0.246171 -1.81841 0
M  V30 28266 H 2644.77 2.59792 -2.98872 0
M  V30 28267 H 2645.94 0.237477 -4.60188 0
M  V30 28268 H 2644.26 0.372424 -4.14731 0
M  V30 28269 H 2646.85 3.14825 -4.32191 0
M  V30 28270 H 2647.2 3.24164 -2.61196 0
M  V30 28271 H 2647.73 1.81773 -3.53841 0
M  V30 28272 H 2644.47 1.13197 -6.45652 0
M  V30 28273 H 2643.99 2.51433 -5.44556 0
M  V30 28274 H 2645.67 2.36713 -6.02143 0
M  V30 28275 N 2645.8 1.48499 0.527807 0
M  V30 28276 C 2646.73 1.57756 1.64889 0
M  V30 28277 C 2647.71 0.427895 1.56869 0
M  V30 28278 O 2648.89 0.639796 1.7731 0
M  V30 28279 C 2646.02 1.50758 3.03298 0
M  V30 28280 C 2645.07 2.70592 3.2967 0
M  V30 28281 S 2645.9 4.3254 3.15704 0
M  V30 28282 C 2647.06 4.28144 4.56556 0
M  V30 28283 H 2647.29 2.52597 1.56787 0
M  V30 28284 H 2644.82 1.37059 0.710935 0
M  V30 28285 H 2646.78 1.47407 3.83121 0
M  V30 28286 H 2645.44 0.572508 3.08838 0
M  V30 28287 H 2644.63 2.6184 4.30646 0
M  V30 28288 H 2644.24 2.71217 2.57522 0
M  V30 28289 H 2646.53 3.98211 5.48119 0
M  V30 28290 H 2647.47 5.29306 4.70362 0
M  V30 28291 H 2647.88 3.58582 4.35981 0
M  V30 28292 N 2647.28 -0.776847 1.37123 0
M  V30 28293 C 2648.52 -1.53749 1.32246 0
M  V30 28294 C 2648.86 -1.9397 -0.0944404 0
M  V30 28295 O 2648.13 -1.63682 -1.05065 0
M  V30 28296 C 2648.41 -2.80603 2.25686 0
M  V30 28297 C 2648.27 -2.46669 3.76131 0
M  V30 28298 C 2649.59 -3.82505 2.17664 0
M  V30 28299 H 2646.71 -0.557782 0.481714 0
M  V30 28300 H 2649.35 -0.891583 1.67782 0
M  V30 28301 H 2647.5 -3.3572 1.95511 0
M  V30 28302 H 2649.17 -1.97506 4.1688 0
M  V30 28303 H 2647.41 -1.79436 3.9495 0
M  V30 28304 H 2648.08 -3.37326 4.36939 0
M  V30 28305 H 2650.56 -3.36869 2.44251 0
M  V30 28306 H 2649.44 -4.68995 2.85193 0
M  V30 28307 H 2649.7 -4.26394 1.16793 0
M  V30 28308 N 2648.76 -1.2161 -1.00244 0
M  V30 28309 C 2649.98 -1.06092 -1.77629 0
M  V30 28310 C 2650.4 0.389127 -1.84746 0
M  V30 28311 O 2649.76 1.26991 -1.3107 0
M  V30 28312 C 2649.81 -1.65459 -3.21412 0
M  V30 28313 O 2649.53 -3.0479 -3.14698 0
M  V30 28314 C 2651.03 -1.55087 -4.15287 0
M  V30 28315 H 2648.25 -0.372429 -0.558155 0
M  V30 28316 H 2650.79 -1.61001 -1.2609 0
M  V30 28317 H 2648.95 -1.14635 -3.70051 0
M  V30 28318 H 2649.36 -3.33219 -4.0505 0
M  V30 28319 H 2650.84 -2.01364 -5.13962 0
M  V30 28320 H 2651.31 -0.505742 -4.36278 0
M  V30 28321 H 2651.92 -2.0517 -3.72539 0
M  V30 28322 N 2650.23 1.19778 -1.02425 0
M  V30 28323 C 2651.48 1.89343 -0.718021 0
M  V30 28324 C 2651.81 1.79332 0.753004 0
M  V30 28325 O 2651.06 1.17695 1.56353 0
M  V30 28326 C 2651.36 3.39763 -1.10886 0
M  V30 28327 C 2651.03 3.69976 -2.57738 0
M  V30 28328 C 2649.69 3.77932 -2.97861 0
M  V30 28329 C 2652.04 3.8367 -3.5277 0
M  V30 28330 C 2649.37 3.97047 -4.31938 0
M  V30 28331 C 2651.72 4.04297 -4.86545 0
M  V30 28332 C 2650.39 4.10485 -5.26363 0
M  V30 28333 H 2649.66 0.692855 -0.262742 0
M  V30 28334 H 2652.3 1.41873 -1.28625 0
M  V30 28335 H 2650.61 3.891 -0.459162 0
M  V30 28336 H 2652.31 3.91899 -0.849501 0
M  V30 28337 H 2648.9 3.64389 -2.25652 0
M  V30 28338 H 2653.08 3.76872 -3.22926 0
M  V30 28339 H 2648.34 4.00075 -4.62331 0
M  V30 28340 H 2652.51 4.13836 -5.60101 0
M  V30 28341 H 2650.14 4.25049 -6.30268 0
M  V30 28342 N 2651.71 0.801501 1.35697 0
M  V30 28343 C 2653.13 0.484623 1.52064 0
M  V30 28344 C 2653.33 -0.995053 1.75217 0
M  V30 28345 O 2652.38 -1.78023 1.79065 0
M  V30 28346 C 2653.7 1.32557 2.69906 0
M  V30 28347 C 2655.24 1.32049 2.83782 0
M  V30 28348 C 2655.72 2.14544 4.04642 0
M  V30 28349 N 2657.21 2.12053 4.1181 0
M  V30 28350 C 2657.95 2.72645 5.04433 0
M  V30 28351 N 2657.44 3.42144 6.0242 0
M  V30 28352 N 2659.23 2.62314 4.9714 0
M  V30 28353 H 2651.39 1.75985 1.18925 0
M  V30 28354 H 2653.65 0.748752 0.581442 0
M  V30 28355 H 2653.35 2.37541 2.59359 0
M  V30 28356 H 2653.23 0.975245 3.64375 0
M  V30 28357 H 2655.62 0.278511 2.93783 0
M  V30 28358 H 2655.7 1.71065 1.90185 0
M  V30 28359 H 2655.34 3.18779 3.95402 0
M  V30 28360 H 2655.27 1.72891 4.9741 0
M  V30 28361 H 2657.76 1.61482 3.41661 0
M  V30 28362 H 2658.07 3.85677 6.69681 0
M  V30 28363 H 2656.42 3.46248 6.02609 0
M  V30 28364 H 2659.61 2.0761 4.19542 0
M  V30 28365 H 2659.78 3.09825 5.69133 0
M  V30 28366 N 2653.19 -1.47521 0.554558 0
M  V30 28367 C 2654.14 -2.31671 -0.207724 0
M  V30 28368 C 2655.13 -1.42762 -0.911888 0
M  V30 28369 O 2656.34 -1.59541 -0.833476 0
M  V30 28370 H 2652.71 -0.747082 -0.0858595 0
M  V30 28371 H 2654.68 -2.93812 0.52123 0
M  V30 28372 C 2653.43 -3.25359 -1.22624 0
M  V30 28373 H 2652.76 -3.93734 -0.693818 0
M  V30 28374 H 2654.2 -3.87076 -1.73055 0
M  V30 28375 C 2652.65 -2.48694 -2.27273 0
M  V30 28376 O 2653.18 -2.22947 -3.34152 0
M  V30 28377 N 2651.39 -2.0975 -2.01131 0
M  V30 28378 H 2650.94 -2.30889 -1.14228 0
M  V30 28379 H 2650.9 -1.58769 -2.71366 0
M  V30 28380 N 2654.67 -0.290879 -1.54892 0
M  V30 28381 C 2655.6 0.623197 -2.20565 0
M  V30 28382 C 2656.61 1.10537 -1.19521 0
M  V30 28383 O 2657.8 1.02457 -1.46167 0
M  V30 28384 C 2654.9 1.86396 -2.83037 0
M  V30 28385 C 2654.07 1.52597 -4.09918 0
M  V30 28386 C 2653.13 2.62083 -4.56288 0
M  V30 28387 O 2652.16 2.27602 -5.21714 0
M  V30 28388 N 2653.36 3.92438 -4.27753 0
M  V30 28389 H 2656.13 0.0610388 -2.99638 0
M  V30 28390 H 2653.69 -0.112643 -1.61508 0
M  V30 28391 H 2655.68 2.58968 -3.10995 0
M  V30 28392 H 2654.25 2.33477 -2.07864 0
M  V30 28393 H 2653.47 0.633356 -3.89079 0
M  V30 28394 H 2654.76 1.27539 -4.92556 0
M  V30 28395 H 2654.16 4.23265 -3.75317 0
M  V30 28396 H 2652.71 4.61339 -4.60445 0
M  V30 28397 N 2656.15 1.57589 -0.0184203 0
M  V30 28398 C 2657.11 2.08496 0.951949 0
M  V30 28399 C 2658.11 0.997896 1.2609 0
M  V30 28400 O 2659.3 1.25989 1.20302 0
M  V30 28401 C 2656.43 2.54186 2.27161 0
M  V30 28402 H 2657.62 2.9551 0.511255 0
M  V30 28403 H 2655.18 1.54607 0.229416 0
M  V30 28404 H 2655.91 1.7047 2.75881 0
M  V30 28405 H 2655.7 3.33594 2.06052 0
M  V30 28406 H 2657.19 2.93833 2.96735 0
M  V30 28407 N 2657.62 -0.254594 1.5553 0
M  V30 28408 C 2658.85 -1.00569 1.81385 0
M  V30 28409 C 2659.27 -1.7846 0.59445 0
M  V30 28410 O 2658.63 -1.75462 -0.456372 0
M  V30 28411 C 2658.68 -1.92539 3.04895 0
M  V30 28412 O 2657.78 -3.01596 2.81271 0
M  V30 28413 H 2657.12 -0.286576 0.598974 0
M  V30 28414 H 2659.65 -0.277917 2.02704 0
M  V30 28415 H 2659.66 -2.3415 3.34123 0
M  V30 28416 H 2658.34 -1.35263 3.9329 0
M  V30 28417 H 2656.92 -2.64169 2.6319 0
M  V30 28418 N 2659.1 -1.48777 -0.519925 0
M  V30 28419 C 2660.52 -1.3512 -0.849394 0
M  V30 28420 C 2660.72 -0.369855 -1.98077 0
M  V30 28421 O 2659.77 0.205315 -2.51664 0
M  V30 28422 C 2661.09 -2.75393 -1.20743 0
M  V30 28423 C 2662.63 -2.83956 -1.31674 0
M  V30 28424 C 2663.11 -4.24954 -1.70816 0
M  V30 28425 N 2664.6 -4.27675 -1.77901 0
M  V30 28426 C 2665.34 -5.33721 -2.09593 0
M  V30 28427 N 2664.83 -6.50034 -2.3964 0
M  V30 28428 N 2666.62 -5.21122 -2.10684 0
M  V30 28429 H 2658.78 -2.1119 0.226414 0
M  V30 28430 H 2661.04 -0.947211 0.0386686 0
M  V30 28431 H 2660.74 -3.48814 -0.449642 0
M  V30 28432 H 2660.62 -3.0956 -2.15528 0
M  V30 28433 H 2663.01 -2.10785 -2.06528 0
M  V30 28434 H 2663.09 -2.53396 -0.349855 0
M  V30 28435 H 2662.73 -4.98645 -0.965194 0
M  V30 28436 H 2662.66 -4.52964 -2.68572 0
M  V30 28437 H 2665.15 -3.43781 -1.56917 0
M  V30 28438 H 2665.46 -7.26687 -2.62957 0
M  V30 28439 H 2663.81 -6.53292 -2.37138 0
M  V30 28440 H 2667 -4.29267 -1.86674 0
M  V30 28441 H 2667.17 -6.03867 -2.35051 0
M  V30 28442 N 2660.58 0.769564 -1.37534 0
M  V30 28443 C 2661.99 1.34598 -1.29385 0
M  V30 28444 C 2662.34 1.96116 0.0575694 0
M  V30 28445 O 2661.47 1.93969 0.959436 0
M  V30 28446 C 2662.06 2.4472 -2.34302 0
M  V30 28447 C 2660.62 2.98124 -2.29781 0
M  V30 28448 C 2659.77 1.7136 -2.18016 0
M  V30 28449 H 2662.72 0.569654 -1.48124 0
M  V30 28450 H 2662.74 3.24256 -1.99094 0
M  V30 28451 H 2662.25 1.99916 -3.32649 0
M  V30 28452 H 2660.35 3.47297 -1.34965 0
M  V30 28453 H 2660.47 3.53589 -3.23283 0
M  V30 28454 H 2658.83 1.94369 -1.64599 0
M  V30 28455 H 2659.61 1.28657 -3.1828 0
M  V30 28456 N 2662.06 1.22139 0.995977 0
M  V30 28457 C 2663.29 1.06877 1.76807 0
M  V30 28458 C 2663.7 -0.383834 1.85266 0
M  V30 28459 O 2663.04 -1.27786 1.31971 0
M  V30 28460 C 2663.1 1.6015 3.21858 0
M  V30 28461 C 2662.77 3.08726 3.36953 0
M  V30 28462 C 2663.76 4.06186 3.24513 0
M  V30 28463 C 2661.45 3.48118 3.62103 0
M  V30 28464 C 2663.44 5.41025 3.37003 0
M  V30 28465 C 2661.13 4.83106 3.74235 0
M  V30 28466 C 2662.13 5.79368 3.61692 0
M  V30 28467 O 2661.81 7.11906 3.73423 0
M  V30 28468 H 2661.55 0.375375 0.562201 0
M  V30 28469 H 2664.1 1.62127 1.2611 0
M  V30 28470 H 2662.33 0.993046 3.73732 0
M  V30 28471 H 2664.02 1.40596 3.80772 0
M  V30 28472 H 2664.79 3.77096 3.04997 0
M  V30 28473 H 2660.66 2.73718 3.70944 0
M  V30 28474 H 2664.21 6.16143 3.2713 0
M  V30 28475 H 2660.11 5.11878 3.93257 0
M  V30 28476 H 2660.87 7.19442 3.90315 0
M  V30 28477 N 2663.54 -1.19233 1.03059 0
M  V30 28478 C 2664.76 -1.93457 0.747604 0
M  V30 28479 C 2665.19 -1.75081 -0.687617 0
M  V30 28480 O 2664.54 -1.05425 -1.47497 0
M  V30 28481 C 2664.59 -3.43217 1.10611 0
M  V30 28482 O 2663.7 -4.11782 0.225743 0
M  V30 28483 H 2663.04 -0.603894 0.276057 0
M  V30 28484 H 2665.57 -1.51261 1.37773 0
M  V30 28485 H 2665.58 -3.93889 1.06373 0
M  V30 28486 H 2664.25 -3.55913 2.15171 0
M  V30 28487 H 2662.83 -3.71465 0.32686 0
M  V30 28488 N 2665.01 -0.808686 -1.3527 0
M  V30 28489 C 2666.26 -0.390038 -1.98708 0
M  V30 28490 C 2666.59 1.04332 -1.6415 0
M  V30 28491 O 2665.84 1.73889 -0.897828 0
M  V30 28492 C 2666.14 -0.522861 -3.53555 0
M  V30 28493 C 2665.81 -1.91984 -4.07987 0
M  V30 28494 C 2664.47 -2.30202 -4.22564 0
M  V30 28495 C 2666.82 -2.83369 -4.37437 0
M  V30 28496 C 2664.15 -3.5917 -4.63912 0
M  V30 28497 C 2666.5 -4.11785 -4.80225 0
M  V30 28498 C 2665.17 -4.5 -4.93008 0
M  V30 28499 H 2664.44 -0.142725 -0.727125 0
M  V30 28500 H 2667.08 -1.02988 -1.61449 0
M  V30 28501 H 2665.39 0.200426 -3.91287 0
M  V30 28502 H 2667.09 -0.179678 -4.00597 0
M  V30 28503 H 2663.68 -1.61291 -3.97093 0
M  V30 28504 H 2667.86 -2.5509 -4.25726 0
M  V30 28505 H 2663.12 -3.88623 -4.71998 0
M  V30 28506 H 2667.29 -4.82696 -5.01974 0
M  V30 28507 H 2664.92 -5.49986 -5.24805 0
M  V30 28508 N 2666.49 1.47225 -0.562374 0
M  V30 28509 C 2667.72 2.06551 -0.0451982 0
M  V30 28510 C 2668.13 1.41475 1.25624 0
M  V30 28511 O 2667.47 0.507092 1.76562 0
M  V30 28512 C 2667.54 3.5885 0.216005 0
M  V30 28513 C 2667.2 4.45997 -0.996769 0
M  V30 28514 C 2668.2 4.83794 -1.90367 0
M  V30 28515 C 2665.88 4.87436 -1.2129 0
M  V30 28516 C 2667.88 5.61834 -3.01033 0
M  V30 28517 C 2665.56 5.6524 -2.32265 0
M  V30 28518 C 2666.56 6.02351 -3.21967 0
M  V30 28519 O 2666.25 6.78586 -4.31017 0
M  V30 28520 H 2665.98 0.674489 -0.0451764 0
M  V30 28521 H 2668.53 1.90142 -0.776876 0
M  V30 28522 H 2666.76 3.73491 1.00205 0
M  V30 28523 H 2668.45 4.00177 0.679193 0
M  V30 28524 H 2669.22 4.52375 -1.74876 0
M  V30 28525 H 2665.1 4.58014 -0.523848 0
M  V30 28526 H 2668.64 5.90719 -3.71075 0
M  V30 28527 H 2664.54 5.96072 -2.47726 0
M  V30 28528 H 2665.31 6.96986 -4.2913 0
M  V30 28529 N 2667.97 0.299089 1.54736 0
M  V30 28530 C 2669.2 -0.316218 2.04975 0
M  V30 28531 C 2669.62 -1.46883 1.17504 0
M  V30 28532 O 2668.98 -1.80417 0.17871 0
M  V30 28533 C 2669.03 -0.751935 3.52673 0
M  V30 28534 O 2668.13 -1.8569 3.68229 0
M  V30 28535 H 2667.47 -0.0617058 0.661127 0
M  V30 28536 H 2670 0.440376 1.99805 0
M  V30 28537 H 2670.01 -1.04126 3.94489 0
M  V30 28538 H 2668.69 0.0912213 4.158 0
M  V30 28539 H 2667.26 -1.56828 3.38319 0
M  V30 28540 N 2669.45 -1.57577 0.0267774 0
M  V30 28541 C 2670.67 -1.96409 -0.666193 0
M  V30 28542 C 2671.1 -0.9031 -1.65002 0
M  V30 28543 O 2670.46 0.136231 -1.80787 0
M  V30 28544 C 2670.5 -3.34338 -1.35095 0
M  V30 28545 O 2669.61 -3.30536 -2.46617 0
M  V30 28546 H 2668.95 -0.640471 -0.175194 0
M  V30 28547 H 2671.48 -2.04411 0.0879336 0
M  V30 28548 H 2671.49 -3.70516 -1.70828 0
M  V30 28549 H 2670.16 -4.11104 -0.629771 0
M  V30 28550 H 2668.74 -3.06072 -2.13013 0
M  V30 28551 N 2670.93 0.246342 -1.55663 0
M  V30 28552 C 2671.86 1.3087 -1.93379 0
M  V30 28553 C 2672.84 1.50177 -0.798799 0
M  V30 28554 O 2674.02 1.62776 -1.05913 0
M  V30 28555 C 2671.15 2.66334 -2.22897 0
M  V30 28556 C 2670.11 2.61721 -3.38653 0
M  V30 28557 C 2669.43 4.00986 -3.53715 0
M  V30 28558 C 2670.73 2.18658 -4.74327 0
M  V30 28559 H 2672.43 0.995502 -2.82365 0
M  V30 28560 H 2669.97 0.47744 -1.35855 0
M  V30 28561 H 2671.93 3.4079 -2.47872 0
M  V30 28562 H 2670.65 2.99291 -1.30738 0
M  V30 28563 H 2669.31 1.89723 -3.13689 0
M  V30 28564 H 2668.96 4.31209 -2.58975 0
M  V30 28565 H 2668.66 3.98787 -4.31558 0
M  V30 28566 H 2670.18 4.7714 -3.81011 0
M  V30 28567 H 2671.59 2.82845 -4.9867 0
M  V30 28568 H 2669.99 2.27569 -5.55277 0
M  V30 28569 H 2671.06 1.13826 -4.71351 0
M  V30 28570 N 2672.4 1.4905 0.512027 0
M  V30 28571 C 2673.65 1.57229 1.2634 0
M  V30 28572 C 2673.97 0.259189 1.93875 0
M  V30 28573 O 2675.17 0.219405 2.70612 0
M  V30 28574 C 2673.63 2.77366 2.29338 0
M  V30 28575 C 2673.24 4.15391 1.67792 0
M  V30 28576 C 2674.98 2.94869 3.05373 0
M  V30 28577 C 2672.89 5.26765 2.68836 0
M  V30 28578 H 2671.82 0.58539 0.475221 0
M  V30 28579 H 2674.47 1.75418 0.53859 0
M  V30 28580 H 2672.85 2.52649 3.04934 0
M  V30 28581 H 2674.02 4.50201 0.982636 0
M  V30 28582 H 2672.34 4.03155 1.04187 0
M  V30 28583 H 2674.94 3.75245 3.80914 0
M  V30 28584 H 2675.28 2.05006 3.62323 0
M  V30 28585 H 2675.81 3.19573 2.36892 0
M  V30 28586 H 2672.55 6.18651 2.16681 0
M  V30 28587 H 2672.07 4.96422 3.36638 0
M  V30 28588 H 2673.75 5.55636 3.31478 0
M  V30 28589 N 2673.88 -0.762259 1.3794 0
M  V30 28590 C 2675.11 -1.55657 1.37061 0
M  V30 28591 C 2675.53 -1.88058 -0.0395792 0
M  V30 28592 O 2674.89 -1.49935 -1.01927 0
M  V30 28593 C 2674.94 -2.83772 2.22499 0
M  V30 28594 O 2674.04 -3.78556 1.63613 0
M  V30 28595 H 2673.38 -0.471132 0.4679 0
M  V30 28596 H 2675.91 -0.942693 1.81589 0
M  V30 28597 H 2675.92 -3.32782 2.36051 0
M  V30 28598 H 2674.6 -2.59518 3.24997 0
M  V30 28599 H 2673.18 -3.3723 1.59156 0
M  V30 28600 N 2675.36 -1.22666 -0.989486 0
M  V30 28601 C 2676.59 -1.07813 -1.76238 0
M  V30 28602 C 2677 0.374003 -1.85467 0
M  V30 28603 O 2676.34 1.27085 -1.32647 0
M  V30 28604 C 2676.4 -1.61855 -3.21004 0
M  V30 28605 C 2676.07 -3.10509 -3.35311 0
M  V30 28606 C 2677.06 -4.07901 -3.22354 0
M  V30 28607 C 2674.75 -3.50034 -3.60252 0
M  V30 28608 C 2676.74 -5.42804 -3.34129 0
M  V30 28609 C 2674.43 -4.85084 -3.71667 0
M  V30 28610 C 2675.43 -5.81278 -3.58615 0
M  V30 28611 O 2675.12 -7.13876 -3.69643 0
M  V30 28612 H 2674.85 -0.378351 -0.560202 0
M  V30 28613 H 2677.4 -1.62794 -1.25249 0
M  V30 28614 H 2675.63 -1.01285 -3.732 0
M  V30 28615 H 2677.32 -1.42613 -3.80021 0
M  V30 28616 H 2678.09 -3.78709 -3.02993 0
M  V30 28617 H 2673.97 -2.75682 -3.69487 0
M  V30 28618 H 2677.51 -6.17869 -3.23858 0
M  V30 28619 H 2673.41 -5.13957 -3.90536 0
M  V30 28620 H 2674.18 -7.21501 -3.86494 0
M  V30 28621 N 2676.84 1.18685 -1.0369 0
M  V30 28622 C 2677.75 2.25844 -0.634948 0
M  V30 28623 C 2678.77 1.70705 0.337035 0
M  V30 28624 O 2679.94 2.00474 0.192908 0
M  V30 28625 C 2677.01 3.467 -0.000240995 0
M  V30 28626 C 2676.07 4.16988 -1.02075 0
M  V30 28627 C 2675.3 5.32074 -0.416234 0
M  V30 28628 O 2675.52 5.65061 0.778613 0
M  V30 28629 O 2674.46 5.90946 -1.14306 0
M  V30 28630 H 2678.28 2.62483 -1.52762 0
M  V30 28631 H 2675.87 1.25694 -0.807555 0
M  V30 28632 H 2677.75 4.19917 0.353268 0
M  V30 28633 H 2676.43 3.11892 0.866312 0
M  V30 28634 H 2675.33 3.45856 -1.42598 0
M  V30 28635 H 2676.67 4.55787 -1.85794 0
M  V30 28636 N 2678.32 0.815849 1.34839 0
M  V30 28637 C 2679.23 0.234503 2.33425 0
M  V30 28638 C 2680.24 -0.627384 1.62296 0
M  V30 28639 O 2681.42 -0.536953 1.9411 0
M  V30 28640 C 2678.48 -0.599789 3.41472 0
M  V30 28641 C 2677.55 0.283671 4.28362 0
M  V30 28642 C 2676.78 -0.510897 5.31249 0
M  V30 28643 O 2677 -1.7448 5.43059 0
M  V30 28644 O 2675.94 0.103075 6.01812 0
M  V30 28645 H 2679.76 1.05029 2.84961 0
M  V30 28646 H 2677.35 0.577834 1.37773 0
M  V30 28647 H 2679.23 -1.07468 4.07466 0
M  V30 28648 H 2677.9 -1.39302 2.92193 0
M  V30 28649 H 2676.81 0.805901 3.65316 0
M  V30 28650 H 2678.14 1.04108 4.81064 0
M  V30 28651 N 2679.8 -1.46924 0.570174 0
M  V30 28652 C 2681.07 -1.95594 -0.0152915 0
M  V30 28653 C 2681.45 -1.51284 -1.47229 0
M  V30 28654 O 2680.8 -0.757662 -2.15573 0
M  V30 28655 C 2681.01 -3.48704 0.143685 0
M  V30 28656 C 2682.36 -4.246 0.00501947 0
M  V30 28657 O 2683.38 -3.56127 0.071884 0
M  V30 28658 O 2682.24 -5.46318 -0.141079 0
M  V30 28659 H 2679.34 -0.825042 -0.0568674 0
M  V30 28660 H 2681.88 -1.57266 0.63761 0
M  V30 28661 H 2680.65 -3.73802 1.15705 0
M  V30 28662 H 2680.28 -3.9383 -0.546231 0
M  V30 28663 N 2681.27 -0.307291 -1.54575 0
M  V30 28664 C 2682.21 0.599768 -2.21214 0
M  V30 28665 C 2683.22 1.09264 -1.20687 0
M  V30 28666 O 2684.41 1.00901 -1.47246 0
M  V30 28667 C 2681.51 1.83384 -2.84998 0
M  V30 28668 C 2680.68 1.48241 -4.11514 0
M  V30 28669 C 2679.74 2.57229 -4.59042 0
M  V30 28670 O 2678.77 2.22056 -5.24099 0
M  V30 28671 N 2679.97 3.87879 -4.31891 0
M  V30 28672 H 2682.73 0.0292548 -2.99686 0
M  V30 28673 H 2680.29 -0.129767 -1.61379 0
M  V30 28674 H 2682.29 2.55654 -3.13724 0
M  V30 28675 H 2680.86 2.31259 -2.10328 0
M  V30 28676 H 2680.08 0.592053 -3.89729 0
M  V30 28677 H 2681.36 1.22307 -4.93881 0
M  V30 28678 H 2680.76 4.19261 -3.79785 0
M  V30 28679 H 2679.32 4.56429 -4.65312 0
M  V30 28680 N 2682.75 1.57561 -0.0351337 0
M  V30 28681 C 2684.17 1.56332 0.321306 0
M  V30 28682 C 2684.37 1.04132 1.72507 0
M  V30 28683 O 2683.42 0.690736 2.42868 0
M  V30 28684 C 2684.74 3.0025 0.164416 0
M  V30 28685 C 2686.28 3.12103 0.236731 0
M  V30 28686 C 2686.76 4.57871 0.10856 0
M  V30 28687 N 2688.25 4.62905 0.165351 0
M  V30 28688 C 2688.99 5.73329 0.0900498 0
M  V30 28689 N 2688.48 6.9279 -0.0366823 0
M  V30 28690 N 2690.27 5.61914 0.144473 0
M  V30 28691 H 2682.43 1.8982 -0.95301 0
M  V30 28692 H 2684.69 0.873426 -0.368553 0
M  V30 28693 H 2684.39 3.42415 -0.802806 0
M  V30 28694 H 2684.27 3.65501 0.93213 0
M  V30 28695 H 2686.66 2.69848 1.19442 0
M  V30 28696 H 2686.74 2.49562 -0.561463 0
M  V30 28697 H 2686.38 5.00809 -0.845732 0
M  V30 28698 H 2686.31 5.184 0.925694 0
M  V30 28699 H 2688.8 3.76982 0.263203 0
M  V30 28700 H 2689.11 7.72751 -0.0872845 0
M  V30 28701 H 2687.46 6.94963 -0.0715477 0
M  V30 28702 H 2690.65 4.67474 0.241924 0
M  V30 28703 H 2690.82 6.47948 0.0823274 0
M  V30 28704 N 2684.23 -0.238084 1.55791 0
M  V30 28705 C 2685.16 -1.31798 1.87515 0
M  V30 28706 C 2686.17 -1.43862 0.762078 0
M  V30 28707 O 2687.36 -1.45054 1.04027 0
M  V30 28708 C 2684.46 -2.69557 2.05407 0
M  V30 28709 C 2683.64 -2.7965 3.36325 0
M  V30 28710 C 2682.7 -3.98313 3.43851 0
M  V30 28711 O 2681.72 -3.87426 4.17001 0
M  V30 28712 N 2682.92 -5.1188 2.73786 0
M  V30 28713 H 2685.69 -1.04917 2.80736 0
M  V30 28714 H 2683.25 -0.428168 1.56136 0
M  V30 28715 H 2685.24 -3.47292 2.07775 0
M  V30 28716 H 2683.81 -2.89109 1.1889 0
M  V30 28717 H 2683.03 -1.88522 3.46198 0
M  V30 28718 H 2684.32 -2.83351 4.22599 0
M  V30 28719 H 2683.72 -5.23619 2.14103 0
M  V30 28720 H 2682.27 -5.87718 2.81835 0
M  V30 28721 N 2685.71 -1.4932 -0.504115 0
M  V30 28722 C 2686.96 -1.58336 -1.25595 0
M  V30 28723 C 2687.28 -0.270572 -1.93114 0
M  V30 28724 O 2686.55 0.709859 -1.82586 0
M  V30 28725 H 2685.13 -0.583378 -0.466561 0
M  V30 28726 H 2687.79 -1.85929 -0.584514 0
M  V30 28727 H 2686.88 -2.37781 -2.02154 0
M  V30 28728 N 2687.19 0.754933 -1.38342 0
M  V30 28729 C 2688.15 1.8503 -1.35265 0
M  V30 28730 C 2689.15 1.5879 -0.253421 0
M  V30 28731 O 2690.34 1.6656 -0.510235 0
M  V30 28732 C 2687.47 3.22477 -1.1055 0
M  V30 28733 H 2688.66 1.89166 -2.32715 0
M  V30 28734 H 2686.22 0.956493 -1.23616 0
M  V30 28735 H 2686.95 3.2401 -0.137009 0
M  V30 28736 H 2686.74 3.42917 -1.90133 0
M  V30 28737 H 2688.23 4.02553 -1.11089 0
M  V30 28738 N 2688.66 1.23189 0.982967 0
M  V30 28739 C 2689.57 1.02743 2.10905 0
M  V30 28740 C 2690.59 -0.0272883 1.73979 0
M  V30 28741 O 2691.77 0.167605 2.00701 0
M  V30 28742 C 2688.83 0.618364 3.41141 0
M  V30 28743 C 2687.89 1.74784 3.92109 0
M  V30 28744 C 2687.12 1.35819 5.16129 0
M  V30 28745 O 2687.35 0.241301 5.69889 0
M  V30 28746 O 2686.28 2.17834 5.61099 0
M  V30 28747 H 2690.11 1.97112 2.31042 0
M  V30 28748 H 2687.69 1.01871 1.09282 0
M  V30 28749 H 2689.57 0.401056 4.19487 0
M  V30 28750 H 2688.25 -0.296364 3.2234 0
M  V30 28751 H 2687.16 2.01976 3.14891 0
M  V30 28752 H 2688.49 2.64079 4.15359 0
M  V30 28753 N 2690.14 -1.18133 1.04318 0
M  V30 28754 C 2691.55 -1.6983 0.775535 0
M  V30 28755 C 2691.9 -1.83161 -0.703316 0
M  V30 28756 O 2691.03 -1.5129 -1.54726 0
M  V30 28757 C 2691.62 -3.08468 1.40118 0
M  V30 28758 C 2690.18 -3.57366 1.18179 0
M  V30 28759 C 2689.33 -2.33851 1.49026 0
M  V30 28760 H 2692.28 -1.02773 1.20927 0
M  V30 28761 H 2692.3 -3.71871 0.805737 0
M  V30 28762 H 2691.81 -2.98734 2.4775 0
M  V30 28763 H 2689.91 -3.72393 0.124324 0
M  V30 28764 H 2690.03 -4.40649 1.88058 0
M  V30 28765 H 2688.39 -2.37887 0.910037 0
M  V30 28766 H 2689.17 -2.26734 2.57772 0
M  V30 28767 N 2691.62 -0.822988 -1.34405 0
M  V30 28768 C 2693.04 -0.508753 -1.51274 0
M  V30 28769 C 2693.24 0.967052 -1.76778 0
M  V30 28770 O 2692.29 1.75152 -1.81874 0
M  V30 28771 C 2693.61 -1.36834 -2.67763 0
M  V30 28772 C 2695.15 -1.36547 -2.81645 0
M  V30 28773 C 2695.63 -2.20954 -4.01177 0
M  V30 28774 N 2697.12 -2.18578 -4.08385 0
M  V30 28775 C 2697.85 -2.80636 -5.00031 0
M  V30 28776 N 2697.35 -3.51684 -5.969 0
M  V30 28777 N 2699.14 -2.7019 -4.92904 0
M  V30 28778 H 2691.29 -1.77854 -1.1611 0
M  V30 28779 H 2693.56 -0.757907 -0.569457 0
M  V30 28780 H 2693.26 -2.41637 -2.55547 0
M  V30 28781 H 2693.14 -1.03309 -3.62777 0
M  V30 28782 H 2695.52 -0.325214 -2.93303 0
M  V30 28783 H 2695.61 -1.74069 -1.8744 0
M  V30 28784 H 2695.25 -3.25029 -3.9028 0
M  V30 28785 H 2695.18 -1.80782 -4.94596 0
M  V30 28786 H 2697.67 -1.66897 -3.39048 0
M  V30 28787 H 2697.98 -3.96283 -6.63461 0
M  V30 28788 H 2696.33 -3.55791 -5.97024 0
M  V30 28789 H 2699.52 -2.14259 -4.16186 0
M  V30 28790 H 2699.69 -3.18841 -5.64132 0
M  V30 28791 N 2693.1 1.4662 -0.577957 0
M  V30 28792 C 2694.05 2.30258 0.158008 0
M  V30 28793 C 2695.02 1.40329 0.888645 0
M  V30 28794 O 2696.2 1.69281 0.880253 0
M  V30 28795 C 2693.34 3.24705 1.16879 0
M  V30 28796 C 2692.45 4.29732 0.442088 0
M  V30 28797 C 2691.59 5.1131 1.43998 0
M  V30 28798 C 2690.63 6.08091 0.699413 0
M  V30 28799 N 2689.76 6.82554 1.64513 0
M  V30 28800 H 2694.6 2.92666 -0.561294 0
M  V30 28801 H 2692.14 1.44241 -0.288616 0
M  V30 28802 H 2694.1 3.77903 1.76763 0
M  V30 28803 H 2692.73 2.64117 1.85586 0
M  V30 28804 H 2691.78 3.79428 -0.271699 0
M  V30 28805 H 2693.09 4.98612 -0.13708 0
M  V30 28806 H 2692.25 5.68762 2.11176 0
M  V30 28807 H 2690.99 4.4238 2.05307 0
M  V30 28808 H 2689.99 5.49798 0.0138251 0
M  V30 28809 H 2691.22 6.79038 0.0917746 0
M  V30 28810 H 2689.16 6.16338 2.24642 0
M  V30 28811 H 2689.08 7.47678 1.11865 0
M  V30 28812 H 2690.35 7.44566 2.30741 0
M  V30 28813 N 2694.58 0.315484 1.5441 0
M  V30 28814 C 2695.52 -0.569731 2.25515 0
M  V30 28815 C 2696.52 -1.1252 1.26632 0
M  V30 28816 O 2697.72 -1.07417 1.44435 0
M  V30 28817 H 2694.1 -0.202363 0.72426 0
M  V30 28818 H 2696.07 0.0523419 2.98354 0
M  V30 28819 C 2694.82 -1.723 3.02007 0
M  V30 28820 H 2694.14 -1.30482 3.77908 0
M  V30 28821 H 2695.58 -2.31815 3.55018 0
M  V30 28822 C 2694.04 -2.6358 2.09827 0
M  V30 28823 O 2694.57 -3.65075 1.6758 0
M  V30 28824 N 2692.78 -2.31634 1.75482 0
M  V30 28825 H 2692.32 -1.49141 2.10035 0
M  V30 28826 H 2692.28 -2.92971 1.14084 0
M  V30 28827 N 2696.05 -1.5754 0.0434891 0
M  V30 28828 C 2697.3 -1.92385 -0.632001 0
M  V30 28829 C 2697.63 -0.921187 -1.71302 0
M  V30 28830 O 2696.88 0.0677096 -1.95583 0
M  V30 28831 C 2697.18 -3.33932 -1.27374 0
M  V30 28832 C 2696.85 -4.49751 -0.321678 0
M  V30 28833 C 2695.51 -4.81163 -0.0596765 0
M  V30 28834 C 2697.86 -5.20146 0.33125 0
M  V30 28835 C 2695.19 -5.80321 0.862817 0
M  V30 28836 C 2697.54 -6.2029 1.24189 0
M  V30 28837 C 2696.21 -6.50135 1.51264 0
M  V30 28838 H 2695.48 -0.703987 -0.231266 0
M  V30 28839 H 2698.12 -1.91193 0.108327 0
M  V30 28840 H 2696.43 -3.31454 -2.08915 0
M  V30 28841 H 2698.13 -3.5817 -1.8032 0
M  V30 28842 H 2694.72 -4.25234 -0.536065 0
M  V30 28843 H 2698.9 -4.96097 0.141913 0
M  V30 28844 H 2694.16 -6.01783 1.08014 0
M  V30 28845 H 2698.33 -6.73951 1.75393 0
M  V30 28846 H 2695.96 -7.26784 2.22909 0
M  V30 28847 N 2697.53 0.229818 -1.55915 0
M  V30 28848 C 2698.78 0.956836 -1.78809 0
M  V30 28849 C 2699.11 1.84314 -0.611719 0
M  V30 28850 O 2698.39 1.90563 0.389365 0
M  V30 28851 C 2698.67 1.80283 -3.11721 0
M  V30 28852 C 2698.52 0.943571 -4.39792 0
M  V30 28853 C 2699.84 2.78216 -3.41004 0
M  V30 28854 H 2696.96 0.346426 -0.650506 0
M  V30 28855 H 2699.6 0.226219 -1.88648 0
M  V30 28856 H 2697.75 2.42574 -3.03463 0
M  V30 28857 H 2699.42 0.33804 -4.6006 0
M  V30 28858 H 2697.67 0.248629 -4.33087 0
M  V30 28859 H 2698.34 1.5697 -5.29211 0
M  V30 28860 H 2700.81 2.26061 -3.49336 0
M  V30 28861 H 2699.69 3.34518 -4.35188 0
M  V30 28862 H 2699.95 3.55541 -2.6276 0
M  V30 28863 N 2699.01 1.49585 0.49619 0
M  V30 28864 C 2699.96 1.66609 1.59719 0
M  V30 28865 C 2700.93 0.507504 1.58157 0
M  V30 28866 O 2702.11 0.735107 1.7607 0
M  V30 28867 C 2699.25 1.74313 2.97841 0
M  V30 28868 C 2698.37 3.01507 3.09382 0
M  V30 28869 C 2697.5 3.0016 4.38266 0
M  V30 28870 C 2696.54 4.21914 4.43458 0
M  V30 28871 N 2695.68 4.1845 5.63777 0
M  V30 28872 H 2700.52 2.60616 1.44511 0
M  V30 28873 H 2698.05 1.29213 0.703026 0
M  V30 28874 H 2700.01 1.7676 3.77904 0
M  V30 28875 H 2698.64 0.837674 3.11742 0
M  V30 28876 H 2697.69 3.08648 2.22352 0
M  V30 28877 H 2699.01 3.915 3.09079 0
M  V30 28878 H 2698.16 3.01198 5.26654 0
M  V30 28879 H 2696.9 2.07954 4.41142 0
M  V30 28880 H 2695.9 4.21116 3.53471 0
M  V30 28881 H 2697.13 5.15318 4.42294 0
M  V30 28882 H 2695.07 3.29084 5.67486 0
M  V30 28883 H 2694.99 5.02183 5.65109 0
M  V30 28884 H 2696.26 4.23597 6.54359 0
M  V30 28885 N 2700.49 -0.747586 1.3874 0
M  V30 28886 C 2701.9 -1.32522 1.3151 0
M  V30 28887 C 2702.25 -1.96182 -0.0263618 0
M  V30 28888 O 2701.38 -1.9547 -0.928456 0
M  V30 28889 C 2701.97 -2.40962 2.38166 0
M  V30 28890 C 2700.53 -2.9443 2.34495 0
M  V30 28891 C 2699.68 -1.6787 2.20715 0
M  V30 28892 H 2702.63 -0.546016 1.49011 0
M  V30 28893 H 2702.65 -3.21047 2.04228 0
M  V30 28894 H 2702.16 -1.94599 3.35787 0
M  V30 28895 H 2700.26 -3.45106 1.40473 0
M  V30 28896 H 2700.37 -3.48401 3.28867 0
M  V30 28897 H 2698.74 -1.91726 1.6767 0
M  V30 28898 H 2699.52 -1.23577 3.20287 0
M  V30 28899 N 2701.97 -1.23709 -0.97642 0
M  V30 28900 C 2702.91 -1.0193 -2.09076 0
M  V30 28901 C 2703.91 0.0429896 -1.69345 0
M  V30 28902 O 2705.11 -0.110845 -1.79658 0
M  V30 28903 H 2701.49 -0.312543 -0.683974 0
M  V30 28904 H 2703.46 -1.96451 -2.2461 0
M  V30 28905 C 2702.21 -0.631445 -3.41918 0
M  V30 28906 H 2701.53 -1.44059 -3.72944 0
M  V30 28907 H 2702.97 -0.518606 -4.20816 0
M  V30 28908 C 2701.43 0.660665 -3.30359 0
M  V30 28909 O 2701.96 1.70875 -3.63545 0
M  V30 28910 N 2700.17 0.638089 -2.83508 0
M  V30 28911 H 2699.71 -0.215153 -2.567 0
M  V30 28912 H 2699.67 1.50284 -2.76156 0
M  V30 28913 N 2703.44 1.17579 -1.04943 0
M  V30 28914 C 2704.35 2.25158 -0.658866 0
M  V30 28915 C 2705.37 1.71053 0.318911 0
M  V30 28916 O 2706.55 2.00667 0.171634 0
M  V30 28917 C 2703.61 3.4668 -0.0370132 0
M  V30 28918 C 2702.67 4.15882 -1.06492 0
M  V30 28919 C 2701.91 5.31603 -0.472644 0
M  V30 28920 O 2702.13 5.65855 0.718637 0
M  V30 28921 O 2701.06 5.89701 -1.20568 0
M  V30 28922 H 2704.89 2.60848 -1.55537 0
M  V30 28923 H 2702.47 1.2483 -0.820841 0
M  V30 28924 H 2704.36 4.20268 0.30871 0
M  V30 28925 H 2703.03 3.12793 0.833183 0
M  V30 28926 H 2701.94 3.44324 -1.46259 0
M  V30 28927 H 2703.27 4.5379 -1.90618 0
M  V30 28928 N 2704.92 0.830104 1.33967 0
M  V30 28929 C 2706.15 0.434808 2.0228 0
M  V30 28930 C 2706.57 -0.96139 1.62489 0
M  V30 28931 O 2705.92 -1.62335 0.833878 0
M  V30 28932 C 2705.97 0.535687 3.57509 0
M  V30 28933 O 2705.69 1.87686 3.9586 0
M  V30 28934 C 2707.2 0.136215 4.43091 0
M  V30 28935 H 2704.42 0.173624 0.648148 0
M  V30 28936 H 2706.96 1.12025 1.71087 0
M  V30 28937 H 2705.11 -0.101749 3.87266 0
M  V30 28938 H 2705.53 1.85618 4.90557 0
M  V30 28939 H 2707 0.257869 5.51397 0
M  V30 28940 H 2707.48 -0.921 4.29435 0
M  V30 28941 H 2708.09 0.747736 4.18675 0
M  V30 28942 N 2706.4 -1.46311 0.585725 0
M  V30 28943 C 2707.35 -2.30339 -0.145795 0
M  V30 28944 C 2708.32 -1.40799 -0.88119 0
M  V30 28945 O 2709.5 -1.69746 -0.871263 0
M  V30 28946 C 2706.64 -3.2532 -1.15155 0
M  V30 28947 C 2705.76 -4.2996 -0.419292 0
M  V30 28948 C 2704.89 -5.12067 -1.41284 0
M  V30 28949 C 2703.93 -6.08453 -0.667154 0
M  V30 28950 N 2703.07 -6.83417 -1.60891 0
M  V30 28951 H 2707.91 -2.92364 0.576807 0
M  V30 28952 H 2705.44 -1.44086 0.296262 0
M  V30 28953 H 2707.4 -3.78835 -1.74757 0
M  V30 28954 H 2706.03 -2.65097 -1.84183 0
M  V30 28955 H 2705.08 -3.79279 0.291817 0
M  V30 28956 H 2706.4 -4.98532 0.163521 0
M  V30 28957 H 2705.55 -5.69873 -2.08157 0
M  V30 28958 H 2704.29 -4.43463 -2.02958 0
M  V30 28959 H 2703.29 -5.49798 0.0153323 0
M  V30 28960 H 2704.52 -6.79077 -0.0557623 0
M  V30 28961 H 2702.47 -6.1752 -2.2137 0
M  V30 28962 H 2702.38 -7.48261 -1.07898 0
M  V30 28963 H 2703.65 -7.45779 -2.26789 0
M  V30 28964 N 2707.88 -0.323668 -1.54241 0
M  V30 28965 C 2709.11 0.280835 -2.04985 0
M  V30 28966 C 2709.52 1.45774 -1.1998 0
M  V30 28967 O 2708.88 1.81038 -0.230503 0
M  V30 28968 C 2708.93 0.715195 -3.54355 0
M  V30 28969 O 2708.65 -0.414893 -4.36131 0
M  V30 28970 C 2710.15 1.3825 -4.21191 0
M  V30 28971 H 2707.37 0.0577385 -0.668511 0
M  V30 28972 H 2709.92 -0.469887 -1.99028 0
M  V30 28973 H 2708.07 1.41589 -3.60598 0
M  V30 28974 H 2708.49 -0.0726148 -5.2445 0
M  V30 28975 H 2709.96 1.63736 -5.27157 0
M  V30 28976 H 2710.44 2.32982 -3.72311 0
M  V30 28977 H 2711.04 0.724373 -4.19086 0
M  V30 28978 N 2709.36 1.57515 -0.0518432 0
M  V30 28979 C 2710.59 1.96746 0.630445 0
M  V30 28980 C 2711 0.928082 1.64873 0
M  V30 28981 O 2710.34 -0.0960356 1.83449 0
M  V30 28982 C 2710.4 3.32217 1.37375 0
M  V30 28983 C 2710.06 4.54132 0.511219 0
M  V30 28984 C 2711.06 5.19422 -0.222976 0
M  V30 28985 C 2708.75 5.00352 0.441947 0
M  V30 28986 C 2710.74 6.29269 -1.01487 0
M  V30 28987 C 2708.43 6.10076 -0.353637 0
M  V30 28988 C 2709.43 6.74395 -1.08073 0
M  V30 28989 O 2709.11 7.82009 -1.86323 0
M  V30 28990 H 2708.85 0.652385 0.177115 0
M  V30 28991 H 2711.4 2.05079 -0.114762 0
M  V30 28992 H 2709.63 3.2044 2.1646 0
M  V30 28993 H 2711.32 3.56192 1.94634 0
M  V30 28994 H 2712.08 4.8467 -0.178931 0
M  V30 28995 H 2707.96 4.50079 0.997483 0
M  V30 28996 H 2711.51 6.79404 -1.58291 0
M  V30 28997 H 2707.4 6.44264 -0.399318 0
M  V30 28998 H 2708.17 7.9879 -1.78542 0
M  V30 28999 N 2710.84 -0.221546 1.56035 0
M  V30 29000 C 2712.08 -0.945939 1.79048 0
M  V30 29001 C 2712.41 -1.84333 0.620602 0
M  V30 29002 O 2711.67 -1.91672 -0.39502 0
M  V30 29003 C 2711.96 -1.81615 3.07816 0
M  V30 29004 C 2711.63 -1.07199 4.37972 0
M  V30 29005 C 2710.29 -0.866424 4.73336 0
M  V30 29006 C 2712.64 -0.546474 5.18327 0
M  V30 29007 C 2709.97 -0.123446 5.8657 0
M  V30 29008 C 2712.32 0.183161 6.32335 0
M  V30 29009 C 2710.99 0.399978 6.66301 0
M  V30 29010 H 2710.26 -0.346143 0.655184 0
M  V30 29011 H 2712.91 -0.214112 1.90299 0
M  V30 29012 H 2711.21 -2.61584 2.91687 0
M  V30 29013 H 2712.91 -2.37878 3.22824 0
M  V30 29014 H 2709.5 -1.24218 4.10205 0
M  V30 29015 H 2713.68 -0.69276 4.91441 0
M  V30 29016 H 2708.94 0.0547665 6.11375 0
M  V30 29017 H 2713.11 0.597872 6.93829 0
M  V30 29018 H 2710.74 0.977621 7.53888 0
M  V30 29019 N 2712.31 -1.49846 -0.48825 0
M  V30 29020 C 2713.56 -1.61184 -1.24062 0
M  V30 29021 C 2713.91 -0.300468 -1.90039 0
M  V30 29022 O 2713.21 0.700333 -1.78342 0
M  V30 29023 C 2713.4 -2.71739 -2.32147 0
M  V30 29024 C 2713.23 -4.135 -1.76771 0
M  V30 29025 C 2712 -4.80126 -1.57504 0
M  V30 29026 C 2714.2 -4.98313 -1.27233 0
M  V30 29027 N 2712.18 -6.06158 -0.971908 0
M  V30 29028 C 2713.55 -6.14929 -0.791349 0
M  V30 29029 C 2715.61 -4.84217 -1.15926 0
M  V30 29030 C 2714.31 -7.18998 -0.208467 0
M  V30 29031 C 2716.34 -5.88446 -0.590332 0
M  V30 29032 C 2715.7 -7.04298 -0.119644 0
M  V30 29033 H 2711.8 -0.644091 -0.443476 0
M  V30 29034 H 2714.38 -1.86902 -0.545519 0
M  V30 29035 H 2712.55 -2.47773 -2.99104 0
M  V30 29036 H 2714.28 -2.72529 -2.99183 0
M  V30 29037 H 2711.04 -4.37134 -1.82239 0
M  V30 29038 H 2711.46 -6.73482 -0.689249 0
M  V30 29039 H 2716.1 -3.9495 -1.50913 0
M  V30 29040 H 2713.82 -8.07954 0.153643 0
M  V30 29041 H 2717.41 -5.796 -0.505447 0
M  V30 29042 H 2716.29 -7.83572 0.313706 0
M  V30 29043 N 2713.79 0.740218 -1.39135 0
M  V30 29044 C 2714.74 1.85417 -1.37437 0
M  V30 29045 C 2715.71 1.64431 -0.234851 0
M  V30 29046 O 2716.89 1.85911 -0.429158 0
M  V30 29047 C 2714.03 3.22873 -1.2185 0
M  V30 29048 C 2713.15 3.55599 -2.45302 0
M  V30 29049 C 2712.28 4.82428 -2.22343 0
M  V30 29050 C 2711.32 5.07982 -3.41497 0
M  V30 29051 N 2710.46 6.26012 -3.17888 0
M  V30 29052 H 2715.3 1.86203 -2.32664 0
M  V30 29053 H 2712.83 0.909926 -1.1558 0
M  V30 29054 H 2714.79 4.02211 -1.10825 0
M  V30 29055 H 2713.42 3.21379 -0.302557 0
M  V30 29056 H 2712.47 2.71002 -2.6695 0
M  V30 29057 H 2713.79 3.70404 -3.34069 0
M  V30 29058 H 2712.94 5.69737 -2.0853 0
M  V30 29059 H 2711.68 4.69787 -1.30962 0
M  V30 29060 H 2710.68 4.19138 -3.55814 0
M  V30 29061 H 2711.91 5.22512 -4.33772 0
M  V30 29062 H 2709.86 6.14669 -2.29167 0
M  V30 29063 H 2709.77 6.4138 -4.00209 0
M  V30 29064 H 2711.04 7.16174 -3.07758 0
M  V30 29065 N 2715.27 1.24225 0.969846 0
M  V30 29066 C 2716.52 1.08226 1.71508 0
M  V30 29067 C 2716.85 -0.378346 1.90479 0
M  V30 29068 O 2716.12 -1.27969 1.46473 0
M  V30 29069 C 2716.41 1.82019 3.10711 0
M  V30 29070 C 2716.26 3.35817 2.99244 0
M  V30 29071 C 2717.58 1.59115 4.1033 0
M  V30 29072 H 2714.7 0.394554 0.622492 0
M  V30 29073 H 2717.34 1.52865 1.12837 0
M  V30 29074 H 2715.49 1.44075 3.60797 0
M  V30 29075 H 2717.16 3.83345 2.56601 0
M  V30 29076 H 2715.4 3.64307 2.35505 0
M  V30 29077 H 2716.08 3.82648 3.9785 0
M  V30 29078 H 2718.55 1.92118 3.69093 0
M  V30 29079 H 2717.43 2.13207 5.058 0
M  V30 29080 H 2717.69 0.52891 4.38925 0
M  V30 29081 N 2716.75 -1.1702 1.05565 0
M  V30 29082 C 2717.68 -2.20713 0.617927 0
M  V30 29083 C 2718.69 -1.59619 -0.320275 0
M  V30 29084 O 2719.88 -1.78146 -0.112417 0
M  V30 29085 C 2716.98 -3.38704 -0.115274 0
M  V30 29086 C 2716.15 -4.29364 0.834569 0
M  V30 29087 C 2715.21 -5.26009 0.141948 0
M  V30 29088 O 2714.24 -5.63868 0.77725 0
M  V30 29089 N 2715.44 -5.69608 -1.11924 0
M  V30 29090 H 2718.21 -2.58889 1.50986 0
M  V30 29091 H 2715.77 -1.31957 0.938031 0
M  V30 29092 H 2717.76 -4.00393 -0.588848 0
M  V30 29093 H 2716.33 -2.99094 -0.908915 0
M  V30 29094 H 2715.55 -3.6505 1.48768 0
M  V30 29095 H 2716.84 -4.86824 1.47918 0
M  V30 29096 H 2716.24 -5.4093 -1.65565 0
M  V30 29097 H 2714.79 -6.33424 -1.53681 0
M  V30 29098 N 2718.23 -0.837197 -1.33524 0
M  V30 29099 C 2719.18 -0.241308 -2.26719 0
M  V30 29100 C 2720.16 0.60273 -1.49184 0
M  V30 29101 O 2721.35 0.454972 -1.71053 0
M  V30 29102 C 2718.48 0.584066 -3.38295 0
M  V30 29103 C 2717.57 -0.27139 -4.23231 0
M  V30 29104 N 2717.96 -1.3493 -4.87471 0
M  V30 29105 C 2716.26 -0.0581373 -4.45962 0
M  V30 29106 C 2716.96 -1.87414 -5.50682 0
M  V30 29107 N 2715.93 -1.17587 -5.3073 0
M  V30 29108 H 2719.73 -1.06562 -2.73901 0
M  V30 29109 H 2717.25 -0.681476 -1.4741 0
M  V30 29110 H 2719.25 1.02724 -4.04046 0
M  V30 29111 H 2717.91 1.40638 -2.92662 0
M  V30 29112 H 2718.92 -1.73219 -4.88074 0
M  V30 29113 H 2715.59 0.730866 -4.11053 0
M  V30 29114 H 2716.98 -2.77672 -6.1184 0
M  V30 29115 N 2719.7 1.45999 -0.593476 0
M  V30 29116 C 2720.65 2.27474 0.154711 0
M  V30 29117 C 2721.64 1.36502 0.851825 0
M  V30 29118 O 2722.83 1.60597 0.744143 0
M  V30 29119 C 2719.96 3.23082 1.16073 0
M  V30 29120 C 2719.04 4.21541 0.465182 0
M  V30 29121 N 2719.44 5.03467 -0.485286 0
M  V30 29122 C 2717.73 4.40239 0.714557 0
M  V30 29123 C 2718.43 5.74808 -0.89281 0
M  V30 29124 N 2717.41 5.43072 -0.239606 0
M  V30 29125 H 2721.21 2.8821 -0.57551 0
M  V30 29126 H 2718.73 1.5698 -0.416074 0
M  V30 29127 H 2720.72 3.80171 1.71102 0
M  V30 29128 H 2719.38 2.63906 1.89166 0
M  V30 29129 H 2720.39 5.10687 -0.861348 0
M  V30 29130 H 2717.07 3.92201 1.43124 0
M  V30 29131 H 2718.46 6.50663 -1.67592 0
M  V30 29132 N 2721.18 0.331843 1.54067 0
M  V30 29133 C 2722.12 -0.573088 2.20887 0
M  V30 29134 C 2723.09 -1.10936 1.18878 0
M  V30 29135 O 2724.28 -1.17182 1.47651 0
M  V30 29136 C 2721.4 -1.78721 2.87709 0
M  V30 29137 C 2720.45 -1.38145 4.03508 0
M  V30 29138 S 2721.28 -0.411136 5.33919 0
M  V30 29139 C 2722.44 -1.63235 6.04239 0
M  V30 29140 H 2722.67 -0.00550511 2.97299 0
M  V30 29141 H 2720.21 0.11592 1.53964 0
M  V30 29142 H 2722.16 -2.48381 3.26829 0
M  V30 29143 H 2720.82 -2.32599 2.11084 0
M  V30 29144 H 2720.02 -2.28637 4.49156 0
M  V30 29145 H 2719.62 -0.76446 3.66104 0
M  V30 29146 H 2721.91 -2.56858 6.26921 0
M  V30 29147 H 2722.85 -1.21788 6.97548 0
M  V30 29148 H 2723.26 -1.82309 5.34251 0
M  V30 29149 N 2722.66 -1.57485 0.0601958 0
M  V30 29150 C 2723.62 -2.10947 -0.896336 0
M  V30 29151 C 2724.62 -1.03098 -1.234 0
M  V30 29152 O 2725.81 -1.29134 -1.16919 0
M  V30 29153 C 2722.95 -2.6012 -2.20342 0
M  V30 29154 H 2724.14 -2.96762 -0.432726 0
M  V30 29155 H 2721.69 -1.55161 -0.188344 0
M  V30 29156 H 2722.43 -1.77724 -2.71265 0
M  V30 29157 H 2722.21 -3.3894 -1.97134 0
M  V30 29158 H 2723.7 -3.01597 -2.8884 0
M  V30 29159 N 2724.14 0.213268 -1.5615 0
M  V30 29160 C 2725.55 0.779552 -1.69646 0
M  V30 29161 C 2725.9 1.84635 -0.663648 0
M  V30 29162 O 2725.03 2.1562 0.183595 0
M  V30 29163 C 2725.62 1.42079 -3.0757 0
M  V30 29164 C 2724.18 1.93437 -3.22892 0
M  V30 29165 C 2723.33 0.797565 -2.65583 0
M  V30 29166 H 2726.28 -0.011523 -1.58696 0
M  V30 29167 H 2726.3 2.28981 -3.03888 0
M  V30 29168 H 2725.81 0.64412 -3.82718 0
M  V30 29169 H 2723.91 2.73879 -2.52628 0
M  V30 29170 H 2724.02 2.10864 -4.30201 0
M  V30 29171 H 2722.39 1.20708 -2.2428 0
M  V30 29172 H 2723.17 0.0334336 -3.43284 0
M  V30 29173 N 2725.62 1.50103 0.480296 0
M  V30 29174 C 2726.84 1.64373 1.25654 0
M  V30 29175 C 2727.26 0.323349 1.8601 0
M  V30 29176 O 2726.62 -0.693652 1.68804 0
M  V30 29177 C 2726.67 2.72804 2.37192 0
M  V30 29178 O 2726.39 3.99723 1.79313 0
M  V30 29179 C 2727.89 2.97966 3.28225 0
M  V30 29180 H 2725.11 0.552782 0.380359 0
M  V30 29181 H 2727.65 1.96269 0.574344 0
M  V30 29182 H 2725.81 2.43629 3.01204 0
M  V30 29183 H 2726.22 4.59616 2.52693 0
M  V30 29184 H 2727.7 3.7752 4.02719 0
M  V30 29185 H 2728.17 2.08678 3.86459 0
M  V30 29186 H 2728.78 3.28637 2.69958 0
M  V30 29187 N 2727.09 -0.732829 1.39526 0
M  V30 29188 C 2728.04 -1.84686 1.38419 0
M  V30 29189 C 2729.01 -1.64304 0.243568 0
M  V30 29190 O 2730.2 -1.85681 0.439011 0
M  V30 29191 C 2727.34 -3.22222 1.2356 0
M  V30 29192 C 2726.45 -3.54293 2.47185 0
M  V30 29193 C 2725.58 -4.81242 2.24898 0
M  V30 29194 C 2724.62 -5.06164 3.44187 0
M  V30 29195 N 2723.76 -6.24318 3.21203 0
M  V30 29196 H 2728.6 -1.84967 2.33648 0
M  V30 29197 H 2726.14 -0.903784 1.16061 0
M  V30 29198 H 2728.1 -4.01618 1.12956 0
M  V30 29199 H 2726.73 -3.21214 0.319596 0
M  V30 29200 H 2725.78 -2.69582 2.68383 0
M  V30 29201 H 2727.09 -3.68627 3.36029 0
M  V30 29202 H 2726.24 -5.68623 2.11548 0
M  V30 29203 H 2724.98 -4.69086 1.33452 0
M  V30 29204 H 2723.99 -4.17245 3.58032 0
M  V30 29205 H 2725.21 -5.20204 4.36537 0
M  V30 29206 H 2723.16 -6.13445 2.32424 0
M  V30 29207 H 2723.08 -6.39249 4.03605 0
M  V30 29208 H 2724.34 -7.14532 3.11552 0
M  V30 29209 N 2728.57 -1.24737 -0.963244 0
M  V30 29210 C 2729.85 -0.99763 -1.68246 0
M  V30 29211 C 2730.23 0.47874 -2.056 0
M  V30 29212 O 2729.58 1.45409 -1.76263 0
M  V30 29213 C 2729.79 -1.92492 -2.91115 0
M  V30 29214 C 2731.14 -2.19839 -3.63257 0
M  V30 29215 O 2732.16 -1.90181 -3.0118 0
M  V30 29216 O 2731.02 -2.70228 -4.75015 0
M  V30 29217 H 2728.11 -0.37765 -0.735738 0
M  V30 29218 H 2730.66 -1.35855 -1.01694 0
M  V30 29219 H 2729.43 -2.9222 -2.60237 0
M  V30 29220 H 2729.05 -1.56745 -3.654 0
M  V30 29221 N 2730.05 1.16459 -1.06184 0
M  V30 29222 C 2730.96 2.24446 -0.68271 0
M  V30 29223 C 2731.98 1.71381 0.30075 0
M  V30 29224 O 2733.15 2.00838 0.150341 0
M  V30 29225 C 2730.22 3.46621 -0.0737811 0
M  V30 29226 C 2729.28 4.14729 -1.10897 0
M  V30 29227 C 2728.51 5.31072 -0.529001 0
M  V30 29228 O 2728.73 5.66585 0.65858 0
M  V30 29229 O 2727.67 5.88389 -1.26815 0
M  V30 29230 H 2731.49 2.59184 -1.58295 0
M  V30 29231 H 2729.08 1.23952 -0.834035 0
M  V30 29232 H 2730.96 4.20571 0.264118 0
M  V30 29233 H 2729.64 3.1366 0.79996 0
M  V30 29234 H 2728.54 3.42754 -1.49903 0
M  V30 29235 H 2729.88 4.51743 -1.9542 0
M  V30 29236 N 2731.53 0.844266 1.33079 0
M  V30 29237 C 2732.78 0.442585 1.97604 0
M  V30 29238 C 2733.1 -0.999429 1.66858 0
M  V30 29239 O 2732.36 -1.71448 0.943616 0
M  V30 29240 C 2732.66 0.616416 3.52044 0
M  V30 29241 C 2732.32 2.02733 4.02753 0
M  V30 29242 C 2730.99 2.41325 4.16312 0
M  V30 29243 C 2733.34 2.94867 4.29771 0
M  V30 29244 C 2730.67 3.71343 4.54226 0
M  V30 29245 C 2733.02 4.24372 4.69138 0
M  V30 29246 C 2731.68 4.62913 4.80903 0
M  V30 29247 H 2730.95 0.161953 0.723085 0
M  V30 29248 H 2733.6 1.07233 1.58661 0
M  V30 29249 H 2731.9 -0.0966124 3.91681 0
M  V30 29250 H 2733.6 0.285826 3.9998 0
M  V30 29251 H 2730.19 1.71763 3.92677 0
M  V30 29252 H 2734.37 2.66288 4.18813 0
M  V30 29253 H 2729.63 4.01001 4.61528 0
M  V30 29254 H 2733.8 4.95835 4.89 0
M  V30 29255 H 2731.43 5.63706 5.10038 0
M  V30 29256 N 2733.01 -1.45682 0.60121 0
M  V30 29257 C 2734.28 -1.95582 0.0262003 0
M  V30 29258 C 2734.66 -1.54372 -1.43987 0
M  V30 29259 O 2734.01 -0.803217 -2.13917 0
M  V30 29260 C 2734.22 -3.48321 0.217618 0
M  V30 29261 C 2735.57 -4.24494 0.0950822 0
M  V30 29262 O 2736.59 -3.55895 0.147408 0
M  V30 29263 O 2735.45 -5.46494 -0.0251649 0
M  V30 29264 H 2732.55 -0.826063 -0.0393543 0
M  V30 29265 H 2735.09 -1.55878 0.670825 0
M  V30 29266 H 2733.86 -3.71264 1.23608 0
M  V30 29267 H 2733.49 -3.949 -0.462571 0
M  V30 29268 N 2734.48 -0.340009 -1.53889 0
M  V30 29269 C 2735.72 0.257975 -2.02766 0
M  V30 29270 C 2736.09 1.48049 -1.22252 0
M  V30 29271 O 2737.29 2.15242 -1.6101 0
M  V30 29272 C 2735.56 0.56781 -3.52861 0
M  V30 29273 S 2737.12 1.14311 -4.23649 0
M  V30 29274 H 2733.94 0.0770265 -0.706815 0
M  V30 29275 H 2736.54 -0.47695 -1.89593 0
M  V30 29276 H 2735.24 -0.329817 -4.09073 0
M  V30 29277 H 2734.77 1.3325 -3.70146 0
M  V30 29278 H 2736.79 2.42904 -4.3268 0
M  V30 29279 N 2735.96 1.57451 -0.0685468 0
M  V30 29280 C 2736.91 2.12537 0.899824 0
M  V30 29281 C 2737.88 1.03705 1.29748 0
M  V30 29282 O 2739.07 1.3135 1.3839 0
M  V30 29283 C 2736.21 2.68884 2.16323 0
M  V30 29284 C 2735.32 3.9186 1.8185 0
M  V30 29285 C 2734.45 4.36462 3.02778 0
M  V30 29286 C 2733.49 5.52094 2.64307 0
M  V30 29287 N 2732.63 5.91669 3.77984 0
M  V30 29288 H 2737.47 2.9498 0.423191 0
M  V30 29289 H 2735.01 1.45772 0.197242 0
M  V30 29290 H 2736.96 2.9966 2.90275 0
M  V30 29291 H 2735.59 1.89211 2.61532 0
M  V30 29292 H 2734.65 3.67567 0.979743 0
M  V30 29293 H 2735.96 4.75855 1.49545 0
M  V30 29294 H 2735.11 4.68882 3.85012 0
M  V30 29295 H 2733.85 3.51314 3.38275 0
M  V30 29296 H 2732.86 5.19329 1.80494 0
M  V30 29297 H 2734.08 6.38971 2.29984 0
M  V30 29298 H 2732.03 5.09472 4.13249 0
M  V30 29299 H 2731.94 6.70396 3.49435 0
M  V30 29300 H 2733.21 6.28711 4.60807 0
M  V30 29301 N 2737.44 -0.204984 1.56261 0
M  V30 29302 C 2738.4 -1.23768 1.9291 0
M  V30 29303 C 2739.4 -1.38953 0.809233 0
M  V30 29304 O 2740.59 -1.36935 1.07678 0
M  V30 29305 C 2737.73 -2.60875 2.19447 0
M  V30 29306 H 2738.92 -0.924678 2.85289 0
M  V30 29307 H 2736.47 -0.446098 1.49799 0
M  V30 29308 H 2737.21 -2.97246 1.29674 0
M  V30 29309 H 2736.99 -2.51226 3.01044 0
M  V30 29310 H 2738.48 -3.35364 2.48839 0
M  V30 29311 N 2738.92 -1.50356 -0.472329 0
M  V30 29312 C 2740.17 -1.6249 -1.22345 0
M  V30 29313 C 2740.52 -0.320607 -1.8971 0
M  V30 29314 O 2739.81 0.681378 -1.79075 0
M  V30 29315 C 2740.01 -2.74186 -2.29252 0
M  V30 29316 C 2739.84 -4.15351 -1.72375 0
M  V30 29317 C 2738.61 -4.81769 -1.52403 0
M  V30 29318 C 2740.8 -4.99635 -1.2194 0
M  V30 29319 N 2738.79 -6.07154 -0.907563 0
M  V30 29320 C 2740.16 -6.15734 -0.726083 0
M  V30 29321 C 2742.21 -4.85419 -1.10783 0
M  V30 29322 C 2740.92 -7.19179 -0.132196 0
M  V30 29323 C 2742.94 -5.89039 -0.527887 0
M  V30 29324 C 2742.3 -7.04386 -0.0449366 0
M  V30 29325 H 2738.4 -0.648759 -0.436619 0
M  V30 29326 H 2740.99 -1.8747 -0.525665 0
M  V30 29327 H 2739.16 -2.50931 -2.96459 0
M  V30 29328 H 2740.89 -2.75686 -2.96275 0
M  V30 29329 H 2737.64 -4.39042 -1.77592 0
M  V30 29330 H 2738.07 -6.74175 -0.617778 0
M  V30 29331 H 2742.71 -3.96528 -1.46715 0
M  V30 29332 H 2740.43 -8.07746 0.239329 0
M  V30 29333 H 2744.01 -5.80104 -0.443944 0
M  V30 29334 H 2742.89 -7.83195 0.396797 0
M  V30 29335 N 2740.4 0.725419 -1.39912 0
M  V30 29336 C 2741.36 1.82119 -1.3916 0
M  V30 29337 C 2742.36 1.58217 -0.287046 0
M  V30 29338 O 2743.55 1.6544 -0.54545 0
M  V30 29339 C 2740.68 3.2006 -1.17366 0
M  V30 29340 H 2741.88 1.84187 -2.36675 0
M  V30 29341 H 2739.43 0.930057 -1.25617 0
M  V30 29342 H 2740.16 3.23647 -0.205705 0
M  V30 29343 H 2739.95 3.38806 -1.97364 0
M  V30 29344 H 2741.44 4.00106 -1.19603 0
M  V30 29345 N 2741.88 1.25246 0.956615 0
M  V30 29346 C 2743.11 1.12448 1.73318 0
M  V30 29347 C 2743.51 -0.324699 1.86393 0
M  V30 29348 O 2742.86 -1.23523 1.3597 0
M  V30 29349 C 2742.92 1.70309 3.166 0
M  V30 29350 C 2742.58 3.1929 3.2696 0
M  V30 29351 C 2743.58 4.16305 3.11426 0
M  V30 29352 C 2741.26 3.59462 3.50845 0
M  V30 29353 C 2743.26 5.51472 3.1962 0
M  V30 29354 C 2740.95 4.94768 3.58675 0
M  V30 29355 C 2741.94 5.90582 3.43077 0
M  V30 29356 O 2741.63 7.23426 3.50586 0
M  V30 29357 H 2741.36 0.393071 0.549974 0
M  V30 29358 H 2743.92 1.66058 1.20889 0
M  V30 29359 H 2742.15 1.11144 3.70383 0
M  V30 29360 H 2743.84 1.52639 3.76107 0
M  V30 29361 H 2744.6 3.86609 2.92846 0
M  V30 29362 H 2740.48 2.85381 3.62048 0
M  V30 29363 H 2744.03 6.26238 3.07362 0
M  V30 29364 H 2739.92 5.24131 3.76772 0
M  V30 29365 H 2740.69 7.31495 3.67229 0
M  V30 29366 N 2743.35 -1.15894 1.068 0
M  V30 29367 C 2744.6 -1.86547 0.7878 0
M  V30 29368 C 2744.93 -1.82004 -0.685927 0
M  V30 29369 O 2744.18 -1.23417 -1.51877 0
M  V30 29370 C 2744.48 -3.35414 1.23419 0
M  V30 29371 C 2744.15 -3.60155 2.71291 0
M  V30 29372 C 2742.81 -3.66617 3.11682 0
M  V30 29373 C 2745.16 -3.70313 3.66766 0
M  V30 29374 C 2742.49 -3.80742 4.46377 0
M  V30 29375 C 2744.84 -3.85961 5.01215 0
M  V30 29376 C 2743.51 -3.90666 5.41236 0
M  V30 29377 H 2742.78 -0.682626 0.288276 0
M  V30 29378 H 2745.42 -1.37001 1.33802 0
M  V30 29379 H 2743.73 -3.87128 0.603258 0
M  V30 29380 H 2745.43 -3.88476 0.994366 0
M  V30 29381 H 2742.02 -3.55763 2.39021 0
M  V30 29382 H 2746.2 -3.64627 3.36691 0
M  V30 29383 H 2741.46 -3.8264 4.76861 0
M  V30 29384 H 2745.63 -3.92763 5.75074 0
M  V30 29385 H 2743.26 -4.01364 6.45609 0
M  V30 29386 N 2744.83 -0.851312 -1.32629 0
M  V30 29387 C 2746.06 -0.466042 -2.02096 0
M  V30 29388 C 2746.48 0.92868 -1.63576 0
M  V30 29389 O 2745.84 1.60943 -0.834694 0
M  V30 29390 C 2745.89 -0.6088 -3.55424 0
M  V30 29391 O 2744.99 0.359806 -4.10827 0
M  V30 29392 H 2744.33 -0.187735 -0.636908 0
M  V30 29393 H 2746.86 -1.14958 -1.69251 0
M  V30 29394 H 2746.87 -0.495077 -4.04985 0
M  V30 29395 H 2745.55 -1.62588 -3.82803 0
M  V30 29396 H 2744.12 0.202601 -3.72349 0
M  V30 29397 N 2746.31 1.45361 -0.608928 0
M  V30 29398 C 2747.59 1.95566 -0.0365721 0
M  V30 29399 C 2747.97 1.55134 1.43167 0
M  V30 29400 O 2747.31 0.814551 2.13488 0
M  V30 29401 C 2747.52 3.48201 -0.236087 0
M  V30 29402 C 2748.87 4.24437 -0.117593 0
M  V30 29403 O 2749.9 3.55812 -0.16628 0
M  V30 29404 O 2748.76 5.465 -0.00381733 0
M  V30 29405 H 2745.85 0.82626 0.0349729 0
M  V30 29406 H 2748.4 1.5552 -0.679083 0
M  V30 29407 H 2747.17 3.70603 -1.25575 0
M  V30 29408 H 2746.79 3.9514 0.441622 0
M  V30 29409 N 2747.79 0.348166 1.53706 0
M  V30 29410 C 2749.03 -0.247296 2.01287 0
M  V30 29411 C 2749.37 -1.49831 1.23548 0
M  V30 29412 O 2748.64 -1.91776 0.324364 0
M  V30 29413 C 2748.92 -0.556795 3.55769 0
M  V30 29414 C 2748.78 0.706642 4.44215 0
M  V30 29415 C 2750.1 -1.36453 4.18412 0
M  V30 29416 H 2747.22 -0.0884073 0.731678 0
M  V30 29417 H 2749.86 0.469616 1.84105 0
M  V30 29418 H 2748.01 -1.16755 3.70541 0
M  V30 29419 H 2749.68 1.34451 4.41271 0
M  V30 29420 H 2747.92 1.33059 4.12889 0
M  V30 29421 H 2748.59 0.445282 5.50201 0
M  V30 29422 H 2751.07 -0.848042 4.07366 0
M  V30 29423 H 2749.95 -1.54983 5.26566 0
M  V30 29424 H 2750.21 -2.36799 3.73335 0
M  V30 29425 N 2749.27 -1.57412 0.0768958 0
M  V30 29426 C 2750.54 -1.85097 -0.632327 0
M  V30 29427 C 2750.92 -0.970333 -1.87477 0
M  V30 29428 O 2750.27 -0.0379464 -2.28468 0
M  V30 29429 C 2750.48 -3.3539 -0.965115 0
M  V30 29430 C 2751.83 -4.0302 -1.33641 0
M  V30 29431 O 2752.85 -3.40165 -1.05669 0
M  V30 29432 O 2751.71 -5.13892 -1.8595 0
M  V30 29433 H 2748.81 -0.76484 -0.31456 0
M  V30 29434 H 2751.35 -1.69355 0.108214 0
M  V30 29435 H 2750.12 -3.91212 -0.0829057 0
M  V30 29436 H 2749.75 -3.56414 -1.76225 0
M  V30 29437 N 2750.74 0.196695 -1.56368 0
M  V30 29438 C 2751.67 1.24651 -1.97445 0
M  V30 29439 C 2752.66 1.4756 -0.846173 0
M  V30 29440 O 2753.84 1.59324 -1.11038 0
M  V30 29441 C 2750.97 2.59108 -2.31258 0
M  V30 29442 C 2749.92 2.50815 -3.46808 0
M  V30 29443 C 2749.25 3.8953 -3.66293 0
M  V30 29444 C 2750.55 2.03457 -4.81043 0
M  V30 29445 H 2752.24 0.905166 -2.85389 0
M  V30 29446 H 2749.79 0.433977 -1.37305 0
M  V30 29447 H 2751.74 3.32731 -2.58588 0
M  V30 29448 H 2750.47 2.9498 -1.40194 0
M  V30 29449 H 2749.13 1.79648 -3.19566 0
M  V30 29450 H 2748.77 4.22752 -2.72562 0
M  V30 29451 H 2748.47 3.84856 -4.44027 0
M  V30 29452 H 2750 4.64777 -3.95998 0
M  V30 29453 H 2751.41 2.66837 -5.07416 0
M  V30 29454 H 2749.81 2.09788 -5.62236 0
M  V30 29455 H 2750.88 0.987726 -4.74734 0
M  V30 29456 N 2752.22 1.50604 0.464349 0
M  V30 29457 C 2753.13 1.72757 1.5872 0
M  V30 29458 C 2754.15 0.610872 1.62924 0
M  V30 29459 O 2755.32 0.889995 1.80668 0
M  V30 29460 C 2752.39 1.82314 2.94894 0
M  V30 29461 C 2751.45 3.06077 3.01024 0
M  V30 29462 C 2750.68 3.15168 4.30703 0
M  V30 29463 O 2750.91 2.30877 5.21586 0
M  V30 29464 O 2749.84 4.07947 4.42564 0
M  V30 29465 H 2753.67 2.67954 1.42949 0
M  V30 29466 H 2751.25 1.34781 0.644555 0
M  V30 29467 H 2753.13 1.90741 3.7576 0
M  V30 29468 H 2751.81 0.903022 3.10849 0
M  V30 29469 H 2750.72 3.03146 2.19211 0
M  V30 29470 H 2752.05 3.97689 2.90007 0
M  V30 29471 N 2753.7 -0.717989 1.40295 0
M  V30 29472 C 2754.65 -1.83207 1.4037 0
M  V30 29473 C 2755.62 -1.64037 0.260981 0
M  V30 29474 O 2756.8 -1.85205 0.458681 0
M  V30 29475 C 2753.94 -3.20893 1.26971 0
M  V30 29476 C 2753.06 -3.51652 2.50929 0
M  V30 29477 C 2752.19 -4.7883 2.2999 0
M  V30 29478 C 2751.23 -5.02485 3.49536 0
M  V30 29479 N 2750.37 -6.20876 3.27807 0
M  V30 29480 H 2755.21 -1.82478 2.35597 0
M  V30 29481 H 2752.74 -0.891423 1.17013 0
M  V30 29482 H 2754.7 -4.00397 1.17209 0
M  V30 29483 H 2753.33 -3.20857 0.353647 0
M  V30 29484 H 2752.38 -2.6672 2.71228 0
M  V30 29485 H 2753.7 -3.65042 3.3992 0
M  V30 29486 H 2752.85 -5.66347 2.17568 0
M  V30 29487 H 2751.59 -4.67644 1.38419 0
M  V30 29488 H 2750.59 -4.13424 3.62437 0
M  V30 29489 H 2751.82 -5.15545 4.4203 0
M  V30 29490 H 2749.76 -6.10946 2.38917 0
M  V30 29491 H 2749.68 -6.34932 4.10363 0
M  V30 29492 H 2750.95 -7.11187 3.19113 0
M  V30 29493 N 2755.18 -1.25752 -0.94996 0
M  V30 29494 C 2756.46 -1.01542 -1.67178 0
M  V30 29495 C 2756.84 0.456906 -2.06096 0
M  V30 29496 O 2756.18 1.43531 -1.77795 0
M  V30 29497 C 2756.39 -1.95569 -2.89057 0
M  V30 29498 C 2757.74 -2.2368 -3.60905 0
M  V30 29499 O 2758.77 -1.93365 -2.99146 0
M  V30 29500 O 2757.62 -2.75251 -4.72122 0
M  V30 29501 H 2754.72 -0.385432 -0.731691 0
M  V30 29502 H 2757.26 -1.36926 -1.00247 0
M  V30 29503 H 2756.04 -2.94964 -2.57123 0
M  V30 29504 H 2755.66 -1.60611 -3.63717 0
M  V30 29505 N 2756.66 1.15326 -1.07413 0
M  V30 29506 C 2757.9 1.86403 -0.798863 0
M  V30 29507 C 2758.24 1.82151 0.673401 0
M  V30 29508 O 2757.51 1.24508 1.49426 0
M  V30 29509 C 2757.79 3.35484 -1.30852 0
M  V30 29510 C 2757.65 3.48365 -2.84538 0
M  V30 29511 C 2758.97 4.30257 -0.925562 0
M  V30 29512 H 2756.08 0.676829 -0.291671 0
M  V30 29513 H 2758.73 1.35489 -1.33202 0
M  V30 29514 H 2756.88 3.78975 -0.854983 0
M  V30 29515 H 2758.55 3.13733 -3.38185 0
M  V30 29516 H 2756.79 2.89904 -3.22704 0
M  V30 29517 H 2757.46 4.53112 -3.15267 0
M  V30 29518 H 2759.94 3.94729 -1.31637 0
M  V30 29519 H 2758.81 5.33051 -1.30949 0
M  V30 29520 H 2759.08 4.41779 0.168447 0
M  V30 29521 N 2758.13 0.858334 1.32176 0
M  V30 29522 C 2759.08 0.277347 2.26307 0
M  V30 29523 C 2760.07 -0.57892 1.50124 0
M  V30 29524 O 2761.26 -0.427701 1.71755 0
M  V30 29525 C 2758.39 -0.530172 3.39181 0
M  V30 29526 C 2757.48 0.338688 4.22745 0
M  V30 29527 N 2757.87 1.42668 4.85262 0
M  V30 29528 C 2756.16 0.129079 4.45813 0
M  V30 29529 C 2756.87 1.96152 5.47631 0
M  V30 29530 N 2755.84 1.26016 5.28792 0
M  V30 29531 H 2759.64 1.10907 2.72171 0
M  V30 29532 H 2757.16 0.704842 1.46307 0
M  V30 29533 H 2759.15 -0.962833 4.05629 0
M  V30 29534 H 2757.81 -1.35964 2.94862 0
M  V30 29535 H 2758.83 1.80961 4.85256 0
M  V30 29536 H 2755.5 -0.665378 4.12164 0
M  V30 29537 H 2756.89 2.87371 6.07345 0
M  V30 29538 N 2759.61 -1.45036 0.616628 0
M  V30 29539 C 2760.84 -2.07051 0.120228 0
M  V30 29540 C 2761.26 -1.45668 -1.19006 0
M  V30 29541 O 2760.62 -0.552723 -1.72669 0
M  V30 29542 C 2760.67 -3.606 0.00361239 0
M  V30 29543 O 2759.77 -3.9896 -1.04424 0
M  V30 29544 H 2759.11 -0.659382 0.0781715 0
M  V30 29545 H 2761.64 -1.86144 0.8492 0
M  V30 29546 H 2761.65 -4.07549 -0.191682 0
M  V30 29547 H 2760.33 -4.04661 0.96031 0
M  V30 29548 H 2758.91 -3.63667 -0.824686 0
M  V30 29549 N 2761.09 -0.356312 -1.53519 0
M  V30 29550 C 2762.34 0.235801 -2.0072 0
M  V30 29551 C 2762.66 1.50038 -1.24554 0
M  V30 29552 O 2761.93 1.92634 -0.356219 0
M  V30 29553 H 2760.51 0.0901235 -0.741543 0
M  V30 29554 H 2763.17 -0.480411 -1.88886 0
M  V30 29555 H 2762.27 0.469303 -3.08551 0
M  V30 29556 N 2762.57 1.57369 -0.0852427 0
M  V30 29557 C 2763.5 2.16505 0.874518 0
M  V30 29558 C 2764.48 1.0957 1.30109 0
M  V30 29559 O 2765.66 1.37665 1.36975 0
M  V30 29560 C 2762.79 2.73749 2.13726 0
M  V30 29561 C 2761.75 3.85969 1.84964 0
M  V30 29562 C 2761.07 4.29873 3.17983 0
M  V30 29563 C 2762.37 5.0961 1.14433 0
M  V30 29564 H 2764.07 2.96955 0.381847 0
M  V30 29565 H 2761.61 1.42842 0.182225 0
M  V30 29566 H 2763.57 3.13768 2.81297 0
M  V30 29567 H 2762.29 1.90539 2.65259 0
M  V30 29568 H 2760.95 3.46475 1.19794 0
M  V30 29569 H 2760.6 3.43567 3.67384 0
M  V30 29570 H 2760.3 5.05528 2.99525 0
M  V30 29571 H 2761.82 4.72518 3.86729 0
M  V30 29572 H 2763.24 5.4686 1.72096 0
M  V30 29573 H 2761.63 5.9063 1.06187 0
M  V30 29574 H 2762.7 4.84738 0.125505 0
M  V30 29575 N 2764.05 -0.188399 1.5647 0
M  V30 29576 C 2765.3 -0.905963 1.80209 0
M  V30 29577 C 2765.61 -1.84143 0.659611 0
M  V30 29578 O 2766.81 -2.6001 0.781476 0
M  V30 29579 C 2765.27 -1.6614 3.19258 0
M  V30 29580 C 2764.88 -0.770426 4.41326 0
M  V30 29581 C 2766.62 -2.3682 3.52302 0
M  V30 29582 C 2764.53 -1.52511 5.71397 0
M  V30 29583 H 2763.46 -0.342034 0.671959 0
M  V30 29584 H 2766.11 -0.159132 1.82809 0
M  V30 29585 H 2764.49 -2.45236 3.10926 0
M  V30 29586 H 2765.67 -0.0176451 4.60797 0
M  V30 29587 H 2763.98 -0.174126 4.16036 0
M  V30 29588 H 2766.58 -2.93846 4.4672 0
M  V30 29589 H 2766.92 -3.11333 2.76364 0
M  V30 29590 H 2767.45 -1.64684 3.62111 0
M  V30 29591 H 2764.19 -0.822636 6.50318 0
M  V30 29592 H 2763.71 -2.25165 5.55932 0
M  V30 29593 H 2765.39 -2.07714 6.12751 0
M  V30 29594 N 2765.53 -1.50848 -0.456355 0
M  V30 29595 C 2766.77 -1.62252 -1.20494 0
M  V30 29596 C 2767.09 -0.331872 -1.92155 0
M  V30 29597 O 2766.36 0.651411 -1.84752 0
M  V30 29598 H 2764.94 -0.597926 -0.447765 0
M  V30 29599 H 2767.61 -1.87694 -0.525066 0
M  V30 29600 H 2766.7 -2.44092 -1.94487 0
M  V30 29601 N 2767 0.710538 -1.40674 0
M  V30 29602 C 2768.41 1.28989 -1.34977 0
M  V30 29603 C 2768.77 1.96183 -0.0256617 0
M  V30 29604 O 2767.89 1.97863 0.876304 0
M  V30 29605 C 2768.49 2.34562 -2.44471 0
M  V30 29606 C 2767.04 2.8811 -2.42219 0
M  V30 29607 C 2766.19 1.61959 -2.25088 0
M  V30 29608 H 2769.14 0.506317 -1.50407 0
M  V30 29609 H 2769.16 3.15519 -2.12668 0
M  V30 29610 H 2768.68 1.85628 -3.40828 0
M  V30 29611 H 2766.78 3.4126 -1.49574 0
M  V30 29612 H 2766.89 3.39559 -3.37989 0
M  V30 29613 H 2765.25 1.87213 -1.72694 0
M  V30 29614 H 2766.04 1.15042 -3.23451 0
M  V30 29615 N 2768.48 1.26254 0.943277 0
M  V30 29616 C 2769.41 1.10125 2.059 0
M  V30 29617 C 2770.39 0.00703542 1.70099 0
M  V30 29618 O 2771.58 0.178675 1.93376 0
M  V30 29619 C 2768.71 0.731235 3.39515 0
M  V30 29620 C 2767.66 1.77695 3.89369 0
M  V30 29621 C 2766.99 1.26131 5.1961 0
M  V30 29622 C 2768.29 3.17806 4.14484 0
M  V30 29623 H 2769.98 2.03454 2.19651 0
M  V30 29624 H 2767.53 0.979594 1.05546 0
M  V30 29625 H 2769.48 0.605288 4.1703 0
M  V30 29626 H 2768.2 -0.237763 3.25733 0
M  V30 29627 H 2766.86 1.89153 3.14033 0
M  V30 29628 H 2766.51 0.282216 5.02208 0
M  V30 29629 H 2766.21 1.96032 5.53936 0
M  V30 29630 H 2767.74 1.14799 5.99711 0
M  V30 29631 H 2769.15 3.09437 4.8262 0
M  V30 29632 H 2767.55 3.85279 4.60087 0
M  V30 29633 H 2768.62 3.64019 3.2034 0
M  V30 29634 N 2769.96 -1.14755 1.08024 0
M  V30 29635 C 2770.89 -2.21852 0.728287 0
M  V30 29636 C 2771.87 -1.67654 -0.287457 0
M  V30 29637 O 2773.06 -1.93551 -0.158693 0
M  V30 29638 C 2770.19 -3.47047 0.13261 0
M  V30 29639 C 2769.14 -4.14247 1.07627 0
M  V30 29640 C 2768.47 -5.33599 0.343001 0
M  V30 29641 C 2769.77 -4.63231 2.41276 0
M  V30 29642 H 2771.46 -2.51548 1.6237 0
M  V30 29643 H 2769.01 -1.20907 0.782146 0
M  V30 29644 H 2770.96 -4.21213 -0.125591 0
M  V30 29645 H 2769.68 -3.16703 -0.797915 0
M  V30 29646 H 2768.34 -3.4203 1.3195 0
M  V30 29647 H 2767.99 -4.99514 -0.591203 0
M  V30 29648 H 2767.69 -5.79504 0.972057 0
M  V30 29649 H 2769.21 -6.1053 0.0927611 0
M  V30 29650 H 2770.63 -5.28891 2.21241 0
M  V30 29651 H 2769.02 -5.19824 2.99839 0
M  V30 29652 H 2770.09 -3.78506 3.03086 0
M  V30 29653 N 2771.44 -0.865331 -1.31719 0
M  V30 29654 C 2772.68 -0.474668 -1.97167 0
M  V30 29655 C 2773.02 0.969574 -1.68264 0
M  V30 29656 O 2772.29 1.68204 -0.976618 0
M  V30 29657 C 2772.57 -0.72687 -3.52688 0
M  V30 29658 C 2772.43 -2.22031 -3.91181 0
M  V30 29659 C 2773.75 -0.190278 -4.39688 0
M  V30 29660 H 2770.87 -0.173933 -0.716182 0
M  V30 29661 H 2773.51 -1.08572 -1.55924 0
M  V30 29662 H 2771.66 -0.206774 -3.87949 0
M  V30 29663 H 2773.33 -2.8073 -3.66044 0
M  V30 29664 H 2771.57 -2.69468 -3.39955 0
M  V30 29665 H 2772.24 -2.34743 -4.99599 0
M  V30 29666 H 2774.72 -0.635175 -4.11223 0
M  V30 29667 H 2773.6 -0.396228 -5.47468 0
M  V30 29668 H 2773.86 0.907549 -4.32685 0
M  V30 29669 N 2772.92 1.44707 -0.624311 0
M  V30 29670 C 2774.16 2.03991 -0.129309 0
M  V30 29671 C 2774.52 1.47994 1.22318 0
M  V30 29672 O 2775.72 1.98737 1.80989 0
M  V30 29673 C 2773.99 3.57236 -0.108294 0
M  V30 29674 S 2775.55 4.37609 0.323081 0
M  V30 29675 H 2772.37 0.708651 -0.0577442 0
M  V30 29676 H 2774.97 1.77185 -0.82617 0
M  V30 29677 H 2773.67 3.95498 -1.09587 0
M  V30 29678 H 2773.21 3.88641 0.610032 0
M  V30 29679 H 2775.22 4.70745 1.56886 0
M  V30 29680 N 2774.39 0.364449 1.53328 0
M  V30 29681 C 2775.34 -0.498984 2.22473 0
M  V30 29682 C 2776.33 -1.04958 1.21953 0
M  V30 29683 O 2777.52 -0.97981 1.47407 0
M  V30 29684 C 2774.65 -1.63875 3.01662 0
M  V30 29685 C 2773.73 -1.10109 4.09557 0
M  V30 29686 N 2774.13 -0.286325 5.04989 0
M  V30 29687 C 2772.42 -1.37601 4.24243 0
M  V30 29688 C 2773.12 0.00791907 5.81699 0
M  V30 29689 N 2772.1 -0.589399 5.40395 0
M  V30 29690 H 2775.9 0.130335 2.93611 0
M  V30 29691 H 2773.42 0.172405 1.61482 0
M  V30 29692 H 2775.41 -2.26948 3.49714 0
M  V30 29693 H 2774.07 -2.27114 2.32055 0
M  V30 29694 H 2775.08 0.074375 5.17847 0
M  V30 29695 H 2771.76 -2.01126 3.65861 0
M  V30 29696 H 2773.15 0.666511 6.68586 0
M  V30 29697 N 2775.87 -1.57322 0.0935872 0
M  V30 29698 C 2777.1 -1.98636 -0.578899 0
M  V30 29699 C 2777.51 -0.972654 -1.61817 0
M  V30 29700 O 2776.87 0.0379317 -1.82461 0
M  V30 29701 C 2776.92 -3.40005 -1.22796 0
M  V30 29702 O 2776.64 -4.37494 -0.230257 0
M  V30 29703 C 2778.14 -3.96314 -1.9862 0
M  V30 29704 H 2775.36 -0.652778 -0.155312 0
M  V30 29705 H 2777.91 -2.03772 0.172429 0
M  V30 29706 H 2776.06 -3.35888 -1.93023 0
M  V30 29707 H 2776.48 -5.19827 -0.698557 0
M  V30 29708 H 2777.95 -4.97387 -2.39396 0
M  V30 29709 H 2778.43 -3.34049 -2.85145 0
M  V30 29710 H 2779.03 -4.03899 -1.33213 0
M  V30 29711 N 2777.35 0.180099 -1.56568 0
M  V30 29712 C 2778.3 1.24248 -1.96635 0
M  V30 29713 C 2779.29 1.46307 -0.853844 0
M  V30 29714 O 2780.5 1.46991 -1.03892 0
M  V30 29715 H 2776.87 0.417462 -0.625483 0
M  V30 29716 H 2778.84 0.877629 -2.85202 0
M  V30 29717 C 2777.59 2.57638 -2.33491 0
M  V30 29718 H 2776.92 2.41484 -3.18631 0
M  V30 29719 H 2778.36 3.30683 -2.65377 0
M  V30 29720 C 2776.81 3.15744 -1.17504 0
M  V30 29721 O 2777.34 3.9908 -0.458026 0
M  V30 29722 N 2775.55 2.74705 -0.947908 0
M  V30 29723 H 2775.1 2.07039 -1.53273 0
M  V30 29724 H 2775.06 3.1392 -0.173682 0
M  V30 29725 N 2778.83 1.51088 0.448349 0
M  V30 29726 C 2780.06 1.67002 1.2214 0
M  V30 29727 C 2780.47 0.362731 1.85283 0
M  V30 29728 O 2779.83 -0.65769 1.70237 0
M  V30 29729 C 2779.88 2.77774 2.31352 0
M  V30 29730 O 2779.6 4.03437 1.70794 0
M  V30 29731 C 2781.1 3.04861 3.2183 0
M  V30 29732 H 2778.32 0.560725 0.368549 0
M  V30 29733 H 2780.86 1.97443 0.532584 0
M  V30 29734 H 2779.02 2.49963 2.95969 0
M  V30 29735 H 2779.43 4.64872 2.42887 0
M  V30 29736 H 2780.91 3.85978 3.9462 0
M  V30 29737 H 2781.38 2.16828 3.81945 0
M  V30 29738 H 2781.99 3.3429 2.62927 0
M  V30 29739 N 2780.31 -0.703068 1.41049 0
M  V30 29740 C 2781.24 -1.82967 1.4507 0
M  V30 29741 C 2782.22 -1.67248 0.310189 0
M  V30 29742 O 2783.4 -1.87092 0.52058 0
M  V30 29743 C 2780.53 -3.21038 1.32484 0
M  V30 29744 C 2779.49 -3.5145 2.44268 0
M  V30 29745 C 2778.81 -4.88798 2.16751 0
M  V30 29746 C 2780.11 -3.51182 3.86612 0
M  V30 29747 H 2781.81 -1.79858 2.39356 0
M  V30 29748 H 2779.35 -0.863899 1.15208 0
M  V30 29749 H 2781.31 -3.99557 1.33911 0
M  V30 29750 H 2780.03 -3.24754 0.346792 0
M  V30 29751 H 2778.69 -2.75277 2.42111 0
M  V30 29752 H 2778.34 -4.8913 1.17307 0
M  V30 29753 H 2778.04 -5.10111 2.91652 0
M  V30 29754 H 2779.56 -5.69635 2.19882 0
M  V30 29755 H 2780.97 -4.19718 3.90525 0
M  V30 29756 H 2779.37 -3.84025 4.61134 0
M  V30 29757 H 2780.44 -2.50308 4.153 0
M  V30 29758 N 2781.78 -1.26752 -0.936569 0
M  V30 29759 C 2782.73 -1.0853 -2.05728 0
M  V30 29760 C 2783.73 -0.0109081 -1.69396 0
M  V30 29761 O 2784.93 -0.167946 -1.79215 0
M  V30 29762 H 2781.31 -0.334145 -0.673685 0
M  V30 29763 H 2783.28 -2.03497 -2.18247 0
M  V30 29764 C 2782.03 -0.739904 -3.39736 0
M  V30 29765 H 2781.35 -1.55851 -3.68172 0
M  V30 29766 H 2782.79 -0.652223 -4.18954 0
M  V30 29767 C 2781.25 0.555229 -3.32293 0
M  V30 29768 O 2781.78 1.59222 -3.68797 0
M  V30 29769 N 2779.99 0.54757 -2.85395 0
M  V30 29770 H 2779.53 -0.296712 -2.55885 0
M  V30 29771 H 2779.49 1.41423 -2.80797 0
M  V30 29772 N 2783.26 1.1418 -1.08631 0
M  V30 29773 C 2784.67 1.66835 -0.838032 0
M  V30 29774 C 2785.02 1.85645 0.634852 0
M  V30 29775 O 2784.15 1.56928 1.49005 0
M  V30 29776 C 2784.74 3.03055 -1.5147 0
M  V30 29777 C 2783.3 3.52734 -1.31361 0
M  V30 29778 C 2782.45 2.28159 -1.57603 0
M  V30 29779 H 2785.4 0.982143 -1.24658 0
M  V30 29780 H 2785.42 3.68624 -0.943199 0
M  V30 29781 H 2784.93 2.89333 -2.58666 0
M  V30 29782 H 2783.04 3.71675 -0.262449 0
M  V30 29783 H 2783.15 4.33365 -2.04282 0
M  V30 29784 H 2781.51 2.34346 -0.9977 0
M  V30 29785 H 2782.3 2.17011 -2.6601 0
M  V30 29786 N 2784.74 0.872304 1.31258 0
M  V30 29787 C 2785.7 0.334696 2.26743 0
M  V30 29788 C 2786.7 -0.515655 1.52308 0
M  V30 29789 O 2787.89 -0.324626 1.71149 0
M  V30 29790 C 2785.03 -0.524423 3.36842 0
M  V30 29791 H 2786.22 1.17767 2.7581 0
M  V30 29792 H 2783.77 0.648089 1.4223 0
M  V30 29793 H 2784.51 -1.3885 2.93072 0
M  V30 29794 H 2784.29 0.0844988 3.92009 0
M  V30 29795 H 2785.78 -0.892767 4.07945 0
M  V30 29796 N 2786.22 -1.44374 0.631976 0
M  V30 29797 C 2787.17 -2.27805 -0.0943461 0
M  V30 29798 C 2788.15 -1.38712 -0.815334 0
M  V30 29799 O 2789.34 -1.62514 -0.701302 0
M  V30 29800 C 2786.47 -3.26046 -1.07466 0
M  V30 29801 C 2785.56 -4.22626 -0.353254 0
M  V30 29802 N 2785.95 -5.02003 0.6186 0
M  V30 29803 C 2784.25 -4.41978 -0.597584 0
M  V30 29804 C 2784.95 -5.72238 1.0449 0
M  V30 29805 N 2783.93 -5.42245 0.383508 0
M  V30 29806 H 2787.73 -2.86583 0.651722 0
M  V30 29807 H 2785.24 -1.55821 0.457548 0
M  V30 29808 H 2787.24 -3.84574 -1.60962 0
M  V30 29809 H 2785.9 -2.68829 -1.82103 0
M  V30 29810 H 2786.91 -5.08224 0.996445 0
M  V30 29811 H 2783.59 -3.95858 -1.32675 0
M  V30 29812 H 2784.98 -6.45991 1.84785 0
M  V30 29813 N 2787.7 -0.372575 -1.53133 0
M  V30 29814 C 2788.94 0.214499 -2.00958 0
M  V30 29815 C 2789.27 1.48709 -1.26138 0
M  V30 29816 O 2788.54 1.92245 -0.37663 0
M  V30 29817 H 2787.12 0.0822534 -0.742458 0
M  V30 29818 H 2789.78 -0.500418 -1.88366 0
M  V30 29819 H 2788.87 0.43655 -3.09032 0
M  V30 29820 N 2789.17 1.5727 -0.101929 0
M  V30 29821 C 2790.59 1.57554 0.254712 0
M  V30 29822 C 2790.79 1.11355 1.67935 0
M  V30 29823 O 2789.85 0.793124 2.3972 0
M  V30 29824 C 2791.16 3.00677 0.0369221 0
M  V30 29825 C 2792.71 3.12827 0.104144 0
M  V30 29826 C 2793.18 4.5792 -0.085737 0
M  V30 29827 N 2794.67 4.6319 -0.0311313 0
M  V30 29828 C 2795.41 5.73195 -0.1532 0
M  V30 29829 N 2794.9 6.92011 -0.330485 0
M  V30 29830 N 2796.7 5.62021 -0.0939841 0
M  V30 29831 H 2788.85 1.85607 -1.03266 0
M  V30 29832 H 2791.11 0.857008 -0.405266 0
M  V30 29833 H 2790.82 3.38702 -0.947314 0
M  V30 29834 H 2790.69 3.69126 0.77627 0
M  V30 29835 H 2793.08 2.74671 1.07889 0
M  V30 29836 H 2793.16 2.46956 -0.666806 0
M  V30 29837 H 2792.8 4.96771 -1.05738 0
M  V30 29838 H 2792.73 5.2186 0.70499 0
M  V30 29839 H 2795.22 3.77759 0.103075 0
M  V30 29840 H 2795.54 7.71685 -0.414956 0
M  V30 29841 H 2793.88 6.94034 -0.366241 0
M  V30 29842 H 2797.07 4.6808 0.0434346 0
M  V30 29843 H 2797.25 6.47714 -0.192563 0
M  V30 29844 N 2790.65 -0.171793 1.56661 0
M  V30 29845 C 2791.58 -1.23727 1.92936 0
M  V30 29846 C 2792.6 -1.405 0.822409 0
M  V30 29847 O 2793.79 -1.40512 1.10085 0
M  V30 29848 C 2790.89 -2.60603 2.16655 0
M  V30 29849 C 2790.06 -2.65134 3.47883 0
M  V30 29850 C 2789.12 -3.8337 3.60435 0
M  V30 29851 O 2788.14 -3.69391 4.33058 0
M  V30 29852 N 2789.35 -4.99808 2.9525 0
M  V30 29853 H 2792.11 -0.929155 2.84933 0
M  V30 29854 H 2789.67 -0.361561 1.57811 0
M  V30 29855 H 2791.66 -3.38167 2.22318 0
M  V30 29856 H 2790.23 -2.83806 1.31045 0
M  V30 29857 H 2789.45 -1.73669 3.53882 0
M  V30 29858 H 2790.74 -2.65172 4.34236 0
M  V30 29859 H 2790.14 -5.14067 2.36119 0
M  V30 29860 H 2788.7 -5.75235 3.06509 0
M  V30 29861 N 2792.13 -1.51324 -0.44033 0
M  V30 29862 C 2793.38 -1.64087 -1.19178 0
M  V30 29863 C 2793.71 -0.354609 -1.90935 0
M  V30 29864 O 2792.98 0.645643 -1.83471 0
M  V30 29865 C 2793.27 -2.84218 -2.21115 0
M  V30 29866 C 2793.12 -4.22812 -1.5346 0
M  V30 29867 C 2794.44 -2.9987 -3.22127 0
M  V30 29868 H 2791.56 -0.597176 -0.431914 0
M  V30 29869 H 2794.2 -1.838 -0.48141 0
M  V30 29870 H 2792.35 -2.67542 -2.81698 0
M  V30 29871 H 2794.02 -4.5115 -0.962376 0
M  V30 29872 H 2792.27 -4.25648 -0.837011 0
M  V30 29873 H 2792.94 -5.02856 -2.27685 0
M  V30 29874 H 2795.41 -3.15238 -2.71596 0
M  V30 29875 H 2794.29 -3.85495 -3.90749 0
M  V30 29876 H 2794.55 -2.1181 -3.88058 0
M  V30 29877 N 2793.61 0.695578 -1.41419 0
M  V30 29878 C 2794.84 1.48437 -1.44132 0
M  V30 29879 C 2795.25 1.88742 -0.0466029 0
M  V30 29880 O 2794.61 1.56783 0.93409 0
M  V30 29881 C 2794.66 2.74692 -2.35003 0
M  V30 29882 O 2794.38 2.36084 -3.69047 0
M  V30 29883 C 2795.88 3.68433 -2.46519 0
M  V30 29884 H 2793.1 0.457434 -0.490913 0
M  V30 29885 H 2795.65 0.856421 -1.85703 0
M  V30 29886 H 2793.8 3.33724 -1.96741 0
M  V30 29887 H 2794.21 3.17466 -4.17511 0
M  V30 29888 H 2795.69 4.53806 -3.14268 0
M  V30 29889 H 2796.17 4.1292 -1.49646 0
M  V30 29890 H 2796.77 3.15305 -2.85417 0
M  V30 29891 N 2795.09 1.27247 0.929833 0
M  V30 29892 C 2796.33 1.13628 1.67978 0
M  V30 29893 C 2796.67 -0.317555 1.91586 0
M  V30 29894 O 2795.94 -1.23244 1.5047 0
M  V30 29895 C 2796.22 1.91812 3.04763 0
M  V30 29896 C 2796.08 3.45167 2.88409 0
M  V30 29897 C 2797.4 1.72089 4.0506 0
M  V30 29898 H 2794.52 0.414158 0.609625 0
M  V30 29899 H 2797.16 1.56378 1.07917 0
M  V30 29900 H 2795.31 1.5548 3.56031 0
M  V30 29901 H 2796.98 3.91315 2.44275 0
M  V30 29902 H 2795.22 3.71615 2.23796 0
M  V30 29903 H 2795.89 3.95111 3.85475 0
M  V30 29904 H 2798.37 2.03763 3.62794 0
M  V30 29905 H 2797.25 2.29191 4.98761 0
M  V30 29906 H 2797.51 0.668282 4.3702 0
M  V30 29907 N 2796.57 -1.13603 1.09235 0
M  V30 29908 C 2797.5 -2.18636 0.687832 0
M  V30 29909 C 2798.51 -1.60557 -0.269331 0
M  V30 29910 O 2799.7 -1.78413 -0.0556849 0
M  V30 29911 C 2796.8 -3.38899 -0.00745944 0
M  V30 29912 C 2795.97 -4.26492 0.970745 0
M  V30 29913 C 2795.03 -5.25291 0.309222 0
M  V30 29914 O 2794.06 -5.6111 0.956247 0
M  V30 29915 N 2795.26 -5.7288 -0.937454 0
M  V30 29916 H 2798.02 -2.53954 1.59145 0
M  V30 29917 H 2795.59 -1.28906 0.979538 0
M  V30 29918 H 2797.58 -4.02064 -0.461168 0
M  V30 29919 H 2796.15 -3.01835 -0.8133 0
M  V30 29920 H 2795.37 -3.60132 1.60307 0
M  V30 29921 H 2796.66 -4.81872 1.63331 0
M  V30 29922 H 2796.05 -5.45923 -1.48272 0
M  V30 29923 H 2794.61 -6.37992 -1.33451 0
M  V30 29924 N 2798.04 -0.879253 -1.30793 0
M  V30 29925 C 2798.95 -0.345606 -2.3204 0
M  V30 29926 C 2799.97 0.549236 -1.65104 0
M  V30 29927 O 2801.15 0.443729 -1.96451 0
M  V30 29928 C 2798.21 0.436185 -3.43945 0
M  V30 29929 C 2797.27 -0.487725 -4.2652 0
M  V30 29930 C 2796.5 0.256849 -5.33082 0
M  V30 29931 O 2796.73 1.48371 -5.50765 0
M  V30 29932 O 2795.66 -0.39009 -6.00635 0
M  V30 29933 H 2799.49 -1.18506 -2.79625 0
M  V30 29934 H 2797.07 -0.642909 -1.34859 0
M  V30 29935 H 2798.95 0.879047 -4.1213 0
M  V30 29936 H 2797.63 1.25203 -2.98506 0
M  V30 29937 H 2796.54 -0.97928 -3.61055 0
M  V30 29938 H 2797.87 -1.26942 -4.75549 0
M  V30 29939 N 2799.52 1.44037 -0.639624 0
M  V30 29940 C 2800.77 2.01962 -0.147515 0
M  V30 29941 C 2801.1 1.50367 1.23369 0
M  V30 29942 O 2800.35 0.681533 1.83449 0
M  V30 29943 C 2800.65 3.5728 -0.0925976 0
M  V30 29944 C 2800.32 4.28164 -1.41372 0
M  V30 29945 C 2798.98 4.47245 -1.77553 0
M  V30 29946 C 2801.33 4.68423 -2.28538 0
M  V30 29947 C 2798.66 5.03847 -3.00592 0
M  V30 29948 C 2801.01 5.26387 -3.50855 0
M  V30 29949 C 2799.67 5.43686 -3.87249 0
M  V30 29950 H 2798.94 0.739031 -0.0539796 0
M  V30 29951 H 2801.59 1.72692 -0.827629 0
M  V30 29952 H 2799.9 3.86013 0.670919 0
M  V30 29953 H 2801.59 3.9984 0.30482 0
M  V30 29954 H 2798.18 4.13649 -1.12218 0
M  V30 29955 H 2802.37 4.53386 -2.01878 0
M  V30 29956 H 2797.62 5.15426 -3.28855 0
M  V30 29957 H 2801.8 5.5653 -4.18625 0
M  V30 29958 H 2799.42 5.87311 -4.8267 0
M  V30 29959 N 2801 0.380691 1.52933 0
M  V30 29960 C 2801.96 -0.446433 2.2481 0
M  V30 29961 C 2802.96 -0.997325 1.26135 0
M  V30 29962 O 2804.15 -0.880687 1.50298 0
M  V30 29963 C 2801.28 -1.62548 2.99652 0
M  V30 29964 H 2802.48 0.182729 2.99343 0
M  V30 29965 H 2800.03 0.132645 1.55736 0
M  V30 29966 H 2800.77 -2.29231 2.29399 0
M  V30 29967 H 2800.55 -1.23726 3.72068 0
M  V30 29968 H 2802.04 -2.21127 3.5425 0
M  V30 29969 N 2802.48 -1.57214 0.110268 0
M  V30 29970 C 2803.41 -2.17869 -0.839964 0
M  V30 29971 C 2804.39 -1.11626 -1.2835 0
M  V30 29972 O 2805.57 -1.39826 -1.34767 0
M  V30 29973 C 2802.7 -2.77114 -2.09344 0
M  V30 29974 C 2801.66 -3.88863 -1.788 0
M  V30 29975 C 2800.98 -4.34877 -3.11104 0
M  V30 29976 C 2802.28 -5.11366 -1.06311 0
M  V30 29977 H 2803.98 -2.97525 -0.334555 0
M  V30 29978 H 2801.52 -1.43114 -0.159477 0
M  V30 29979 H 2803.48 -3.18203 -2.76269 0
M  V30 29980 H 2802.2 -1.94735 -2.62194 0
M  V30 29981 H 2800.86 -3.48337 -1.14267 0
M  V30 29982 H 2800.51 -3.49368 -3.61871 0
M  V30 29983 H 2800.21 -5.10229 -2.91444 0
M  V30 29984 H 2801.73 -4.78611 -3.79162 0
M  V30 29985 H 2803.15 -5.49529 -1.63374 0
M  V30 29986 H 2801.54 -5.92245 -0.967772 0
M  V30 29987 H 2802.61 -4.84876 -0.0483717 0
M  V30 29988 N 2803.96 0.163482 -1.5675 0
M  V30 29989 C 2805.2 0.878834 -1.82436 0
M  V30 29990 C 2805.53 1.81903 -0.688589 0
M  V30 29991 O 2804.79 1.93006 0.32361 0
M  V30 29992 C 2805.08 1.70065 -3.14345 0
M  V30 29993 C 2804.75 0.908698 -4.41649 0
M  V30 29994 C 2803.41 0.690152 -4.76225 0
M  V30 29995 C 2805.76 0.353724 -5.19998 0
M  V30 29996 C 2803.09 -0.0943406 -5.86624 0
M  V30 29997 C 2805.44 -0.417721 -6.31219 0
M  V30 29998 C 2804.11 -0.646995 -6.64357 0
M  V30 29999 H 2803.38 0.321588 -0.667579 0
M  V30 30000 H 2806.03 0.143337 -1.90963 0
M  V30 30001 H 2804.33 2.50578 -3.01194 0
M  V30 30002 H 2806.03 2.25733 -3.3143 0
M  V30 30003 H 2802.62 1.08908 -4.14532 0
M  V30 30004 H 2806.8 0.509888 -4.93674 0
M  V30 30005 H 2802.06 -0.281637 -6.10751 0
M  V30 30006 H 2806.23 -0.854971 -6.91132 0
M  V30 30007 H 2803.86 -1.25675 -7.4974 0
M  V30 30008 N 2805.43 1.51555 0.432299 0
M  V30 30009 C 2806.68 1.64473 1.18131 0
M  V30 30010 C 2807.01 0.363382 1.91075 0
M  V30 30011 O 2806.26 -0.652757 1.84493 0
M  V30 30012 C 2806.56 2.80168 2.21902 0
M  V30 30013 C 2806.23 4.19257 1.65934 0
M  V30 30014 C 2804.89 4.57094 1.50393 0
M  V30 30015 C 2807.24 5.0603 1.24834 0
M  V30 30016 C 2804.57 5.79405 0.922341 0
M  V30 30017 C 2806.92 6.28924 0.68102 0
M  V30 30018 C 2805.59 6.65529 0.512556 0
M  V30 30019 H 2804.86 0.601849 0.432272 0
M  V30 30020 H 2807.5 1.856 0.471669 0
M  V30 30021 H 2805.81 2.53282 2.98924 0
M  V30 30022 H 2807.51 2.87362 2.79686 0
M  V30 30023 H 2804.1 3.89428 1.79007 0
M  V30 30024 H 2808.28 4.774 1.35658 0
M  V30 30025 H 2803.54 6.06409 0.779627 0
M  V30 30026 H 2807.71 6.95499 0.354058 0
M  V30 30027 H 2805.34 7.60176 0.0597748 0
M  V30 30028 N 2806.91 -0.688069 1.41786 0
M  V30 30029 C 2808.14 -1.4767 1.44917 0
M  V30 30030 C 2808.55 -1.88715 0.0566118 0
M  V30 30031 O 2807.91 -1.57276 -0.925762 0
M  V30 30032 C 2807.96 -2.73442 2.36456 0
M  V30 30033 O 2807.68 -2.34124 3.70294 0
M  V30 30034 C 2809.18 -3.67121 2.4847 0
M  V30 30035 H 2806.4 -0.454824 0.493332 0
M  V30 30036 H 2808.95 -0.846561 1.86155 0
M  V30 30037 H 2807.1 -3.32676 1.98508 0
M  V30 30038 H 2807.52 -3.15248 4.19189 0
M  V30 30039 H 2808.99 -4.52133 3.1667 0
M  V30 30040 H 2809.47 -4.1212 1.51833 0
M  V30 30041 H 2810.07 -3.13787 2.87085 0
M  V30 30042 N 2808.39 -1.27739 -0.923072 0
M  V30 30043 C 2809.64 -1.13729 -1.66579 0
M  V30 30044 C 2809.95 0.315399 -1.9304 0
M  V30 30045 O 2811.16 0.576464 -2.6531 0
M  V30 30046 C 2809.61 -1.9875 -3.00044 0
M  V30 30047 C 2809.22 -3.48704 -2.81264 0
M  V30 30048 C 2810.97 -1.93402 -3.77883 0
M  V30 30049 C 2808.87 -4.25908 -4.10313 0
M  V30 30050 H 2807.8 -0.422028 -0.624827 0
M  V30 30051 H 2810.45 -1.52196 -1.02511 0
M  V30 30052 H 2808.84 -1.53132 -3.65194 0
M  V30 30053 H 2810.01 -4.02217 -2.24852 0
M  V30 30054 H 2808.32 -3.5548 -2.16848 0
M  V30 30055 H 2810.92 -2.48357 -4.73522 0
M  V30 30056 H 2811.26 -0.908676 -4.06262 0
M  V30 30057 H 2811.8 -2.3694 -3.19537 0
M  V30 30058 H 2808.54 -5.28985 -3.87111 0
M  V30 30059 H 2808.06 -3.77171 -4.66371 0
M  V30 30060 H 2809.74 -4.3533 -4.78641 0
M  V30 30061 N 2809.87 1.13022 -1.09836 0
M  V30 30062 C 2811.12 1.84393 -0.836982 0
M  V30 30063 C 2811.44 1.83758 0.637431 0
M  V30 30064 O 2810.7 1.274 1.48552 0
M  V30 30065 C 2811 3.32024 -1.32269 0
M  V30 30066 C 2810.66 3.52836 -2.80745 0
M  V30 30067 C 2809.33 3.58224 -3.21293 0
M  V30 30068 C 2811.68 3.60459 -3.76456 0
M  V30 30069 C 2809.01 3.68773 -4.56315 0
M  V30 30070 C 2811.36 3.72537 -5.11272 0
M  V30 30071 C 2810.02 3.76179 -5.51403 0
M  V30 30072 H 2809.29 0.674743 -0.306274 0
M  V30 30073 H 2811.94 1.33405 -1.37387 0
M  V30 30074 H 2810.24 3.85392 -0.705686 0
M  V30 30075 H 2811.94 3.85703 -1.09701 0
M  V30 30076 H 2808.53 3.493 -2.48369 0
M  V30 30077 H 2812.71 3.55572 -3.4624 0
M  V30 30078 H 2807.97 3.69862 -4.86839 0
M  V30 30079 H 2812.14 3.77378 -5.85285 0
M  V30 30080 H 2809.77 3.84106 -6.56023 0
M  V30 30081 N 2811.35 0.886177 1.30325 0
M  V30 30082 C 2812.62 0.425251 1.90921 0
M  V30 30083 C 2813 -1.09409 1.80535 0
M  V30 30084 O 2812.35 -1.92994 1.22334 0
M  V30 30085 C 2812.56 0.924697 3.36527 0
M  V30 30086 C 2813.91 0.960378 4.13596 0
M  V30 30087 O 2814.93 0.871443 3.45376 0
M  V30 30088 O 2813.79 1.09193 5.3548 0
M  V30 30089 H 2810.89 0.130252 0.816678 0
M  V30 30090 H 2813.43 0.975156 1.38884 0
M  V30 30091 H 2812.2 1.96855 3.38177 0
M  V30 30092 H 2811.83 0.354025 3.96021 0
M  V30 30093 N 2812.82 -1.43695 0.647253 0
M  V30 30094 C 2813.73 -2.34549 -0.0487585 0
M  V30 30095 C 2814.75 -1.53544 -0.818559 0
M  V30 30096 O 2815.93 -1.86217 -0.767162 0
M  V30 30097 C 2812.99 -3.31745 -1.00728 0
M  V30 30098 C 2812.05 -4.28656 -0.235075 0
M  V30 30099 C 2811.29 -5.21208 -1.14794 0
M  V30 30100 O 2811.51 -5.18049 -2.38708 0
M  V30 30101 O 2810.44 -5.98661 -0.623562 0
M  V30 30102 H 2814.27 -2.95548 0.698915 0
M  V30 30103 H 2811.85 -1.43737 0.407438 0
M  V30 30104 H 2813.74 -3.91529 -1.5583 0
M  V30 30105 H 2812.41 -2.73257 -1.73529 0
M  V30 30106 H 2811.32 -3.7237 0.359385 0
M  V30 30107 H 2812.65 -4.90109 0.453238 0
M  V30 30108 N 2814.3 -0.388796 -1.52729 0
M  V30 30109 C 2815.53 0.193641 -2.05992 0
M  V30 30110 C 2815.95 1.40554 -1.26055 0
M  V30 30111 O 2815.3 1.79898 -0.30708 0
M  V30 30112 C 2815.35 0.564258 -3.57069 0
M  V30 30113 O 2815.07 -0.599498 -4.33979 0
M  V30 30114 C 2816.58 1.20261 -4.26676 0
M  V30 30115 H 2813.8 0.0293327 -0.670359 0
M  V30 30116 H 2816.34 -0.553879 -1.96856 0
M  V30 30117 H 2814.49 1.26168 -3.66279 0
M  V30 30118 H 2814.91 -0.294987 -5.2367 0
M  V30 30119 H 2816.38 1.4123 -5.33627 0
M  V30 30120 H 2816.86 2.16982 -3.81858 0
M  V30 30121 H 2817.47 0.545973 -4.21781 0
M  V30 30122 N 2815.78 1.57153 -0.118604 0
M  V30 30123 C 2816.73 2.15292 0.831751 0
M  V30 30124 C 2817.7 1.07781 1.26383 0
M  V30 30125 O 2818.88 1.35686 1.34141 0
M  V30 30126 C 2816.02 2.7563 2.07659 0
M  V30 30127 C 2815.14 3.97447 1.69292 0
M  V30 30128 C 2814.27 4.45874 2.88739 0
M  V30 30129 C 2813.31 5.60223 2.46609 0
M  V30 30130 N 2812.45 6.03395 3.58969 0
M  V30 30131 H 2817.29 2.96177 0.329131 0
M  V30 30132 H 2814.82 1.46325 0.150766 0
M  V30 30133 H 2816.78 3.08743 2.80595 0
M  V30 30134 H 2815.41 1.97435 2.5538 0
M  V30 30135 H 2814.46 3.70497 0.862309 0
M  V30 30136 H 2815.78 4.80372 1.3433 0
M  V30 30137 H 2814.93 4.80894 3.699 0
M  V30 30138 H 2813.67 3.61898 3.26927 0
M  V30 30139 H 2812.67 5.24808 1.6388 0
M  V30 30140 H 2813.9 6.45965 2.09539 0
M  V30 30141 H 2811.84 5.22361 3.96831 0
M  V30 30142 H 2811.76 6.81174 3.2793 0
M  V30 30143 H 2813.03 6.43053 4.40571 0
M  V30 30144 N 2817.26 -0.155167 1.56834 0
M  V30 30145 C 2818.48 -0.888305 1.87414 0
M  V30 30146 C 2818.91 -1.74318 0.706741 0
M  V30 30147 O 2818.27 -1.78009 -0.343861 0
M  V30 30148 C 2818.31 -1.72759 3.16523 0
M  V30 30149 O 2817.42 -2.83098 2.99882 0
M  V30 30150 H 2816.76 -0.247904 0.615987 0
M  V30 30151 H 2819.29 -0.148442 2.04061 0
M  V30 30152 H 2819.3 -2.12427 3.48337 0
M  V30 30153 H 2817.97 -1.09978 4.01096 0
M  V30 30154 H 2816.55 -2.46897 2.79457 0
M  V30 30155 N 2818.74 -1.51782 -0.424256 0
M  V30 30156 C 2819.98 -1.66301 -1.17114 0
M  V30 30157 C 2820.34 -0.3808 -1.88594 0
M  V30 30158 O 2819.63 0.624062 -1.81152 0
M  V30 30159 C 2819.82 -2.81341 -2.20413 0
M  V30 30160 C 2819.65 -4.20625 -1.59074 0
M  V30 30161 C 2818.42 -4.86374 -1.36999 0
M  V30 30162 C 2820.62 -5.03261 -1.05983 0
M  V30 30163 N 2818.6 -6.09734 -0.713942 0
M  V30 30164 C 2819.97 -6.17732 -0.529824 0
M  V30 30165 C 2822.03 -4.88698 -0.952841 0
M  V30 30166 C 2820.73 -7.19235 0.0966721 0
M  V30 30167 C 2822.76 -5.90421 -0.340221 0
M  V30 30168 C 2822.12 -7.04172 0.179181 0
M  V30 30169 H 2818.22 -0.662321 -0.415758 0
M  V30 30170 H 2820.8 -1.89047 -0.465756 0
M  V30 30171 H 2818.97 -2.60236 -2.88326 0
M  V30 30172 H 2820.71 -2.84973 -2.87355 0
M  V30 30173 H 2817.46 -4.4447 -1.63535 0
M  V30 30174 H 2817.89 -6.758 -0.402982 0
M  V30 30175 H 2822.53 -4.00995 -1.34026 0
M  V30 30176 H 2820.25 -8.06575 0.496186 0
M  V30 30177 H 2823.83 -5.81222 -0.259163 0
M  V30 30178 H 2822.71 -7.81537 0.645764 0
M  V30 30179 N 2820.21 0.68054 -1.42149 0
M  V30 30180 C 2821.44 1.46687 -1.45487 0
M  V30 30181 C 2821.85 1.89095 -0.0629784 0
M  V30 30182 O 2821.2 1.58339 0.931369 0
M  V30 30183 C 2821.26 2.75124 -2.31402 0
M  V30 30184 C 2820.92 2.54828 -3.79357 0
M  V30 30185 C 2821.92 2.198 -4.71152 0
M  V30 30186 C 2819.6 2.70001 -4.23562 0
M  V30 30187 C 2821.6 2.00204 -6.05142 0
M  V30 30188 C 2819.28 2.50021 -5.57613 0
M  V30 30189 C 2820.28 2.15175 -6.4822 0
M  V30 30190 O 2819.97 1.95384 -7.79795 0
M  V30 30191 H 2819.7 0.458062 -0.497147 0
M  V30 30192 H 2822.26 0.844106 -1.87254 0
M  V30 30193 H 2820.49 3.39862 -1.84474 0
M  V30 30194 H 2822.18 3.36987 -2.26263 0
M  V30 30195 H 2822.94 2.07679 -4.38286 0
M  V30 30196 H 2818.82 2.96103 -3.53333 0
M  V30 30197 H 2822.36 1.72929 -6.75826 0
M  V30 30198 H 2818.26 2.61737 -5.90054 0
M  V30 30199 H 2819.03 2.10028 -7.91095 0
M  V30 30200 N 2821.69 1.28226 0.916285 0
M  V30 30201 C 2822.94 1.15232 1.66516 0
M  V30 30202 C 2823.27 -0.299598 1.92179 0
M  V30 30203 O 2822.52 -1.23458 1.51844 0
M  V30 30204 C 2822.82 1.89346 3.03122 0
M  V30 30205 C 2822.49 3.39154 2.97129 0
M  V30 30206 C 2821.15 3.80012 2.95202 0
M  V30 30207 C 2823.5 4.3469 2.87566 0
M  V30 30208 C 2820.83 5.14752 2.81509 0
M  V30 30209 C 2823.18 5.695 2.75414 0
M  V30 30210 C 2821.85 6.09637 2.71843 0
M  V30 30211 H 2821.12 0.421665 0.609327 0
M  V30 30212 H 2823.76 1.58971 1.06773 0
M  V30 30213 H 2822.07 1.38149 3.66636 0
M  V30 30214 H 2823.76 1.7671 3.59965 0
M  V30 30215 H 2820.35 3.06666 2.99422 0
M  V30 30216 H 2824.54 4.04087 2.88144 0
M  V30 30217 H 2819.79 5.44981 2.77138 0
M  V30 30218 H 2823.97 6.4319 2.66982 0
M  V30 30219 H 2821.6 7.13994 2.6099 0
M  V30 30220 N 2823.17 -1.12438 1.10433 0
M  V30 30221 C 2824.4 -1.8777 0.868905 0
M  V30 30222 C 2824.81 -1.79651 -0.580614 0
M  V30 30223 O 2824.17 -1.17039 -1.40029 0
M  V30 30224 C 2824.22 -3.36983 1.30861 0
M  V30 30225 O 2823.94 -3.44909 2.70129 0
M  V30 30226 C 2825.44 -4.29254 1.10707 0
M  V30 30227 H 2822.66 -0.594115 0.311879 0
M  V30 30228 H 2825.21 -1.4227 1.46899 0
M  V30 30229 H 2823.36 -3.80027 0.752192 0
M  V30 30230 H 2823.78 -4.37743 2.88931 0
M  V30 30231 H 2825.25 -5.32236 1.46387 0
M  V30 30232 H 2825.73 -4.39176 0.0456999 0
M  V30 30233 H 2826.33 -3.91991 1.64995 0
M  V30 30234 N 2824.65 -0.893076 -1.29853 0
M  V30 30235 C 2825.56 -0.370198 -2.31661 0
M  V30 30236 C 2826.58 0.531694 -1.65677 0
M  V30 30237 O 2827.75 0.422868 -1.96911 0
M  V30 30238 C 2824.82 0.39968 -3.44389 0
M  V30 30239 C 2823.88 -0.532936 -4.25979 0
M  V30 30240 C 2823.11 0.200294 -5.33324 0
M  V30 30241 O 2823.33 1.42522 -5.52308 0
M  V30 30242 O 2822.27 -0.453774 -6.00187 0
M  V30 30243 H 2826.09 -1.21465 -2.78352 0
M  V30 30244 H 2823.68 -0.657176 -1.3417 0
M  V30 30245 H 2825.56 0.835285 -4.13039 0
M  V30 30246 H 2824.24 1.2203 -2.99817 0
M  V30 30247 H 2823.14 -1.01752 -3.59996 0
M  V30 30248 H 2824.48 -1.31978 -4.74176 0
M  V30 30249 N 2826.13 1.4335 -0.654865 0
M  V30 30250 C 2827.08 2.32551 0.0476375 0
M  V30 30251 C 2828.07 1.48705 0.811377 0
M  V30 30252 O 2829.28 1.64903 0.721592 0
M  V30 30253 H 2825.65 0.751222 0.0341906 0
M  V30 30254 H 2827.62 2.89524 -0.722393 0
M  V30 30255 C 2826.37 3.33034 0.999192 0
M  V30 30256 H 2825.69 3.97578 0.420935 0
M  V30 30257 H 2827.13 3.98078 1.45979 0
M  V30 30258 C 2825.59 2.63759 2.09601 0
M  V30 30259 O 2826.12 2.45436 3.18 0
M  V30 30260 N 2824.33 2.23107 1.86204 0
M  V30 30261 H 2823.88 2.38209 0.980513 0
M  V30 30262 H 2823.83 1.77086 2.59784 0
M  V30 30263 N 2827.61 0.39689 1.52521 0
M  V30 30264 C 2828.54 -0.478887 2.23119 0
M  V30 30265 C 2829.52 -1.05794 1.23476 0
M  V30 30266 O 2830.7 -1.10814 1.52488 0
M  V30 30267 C 2827.83 -1.66357 2.9503 0
M  V30 30268 C 2826.87 -1.20906 4.09004 0
M  V30 30269 S 2827.71 -0.184312 5.35183 0
M  V30 30270 C 2828.86 -1.37461 6.10619 0
M  V30 30271 H 2829.1 0.120595 2.97055 0
M  V30 30272 H 2826.63 0.181117 1.53334 0
M  V30 30273 H 2828.59 -2.34295 3.3707 0
M  V30 30274 H 2827.25 -2.23437 2.2076 0
M  V30 30275 H 2826.44 -2.09381 4.58449 0
M  V30 30276 H 2826.04 -0.608495 3.69017 0
M  V30 30277 H 2828.33 -2.30037 6.37251 0
M  V30 30278 H 2829.28 -0.920927 7.02086 0
M  V30 30279 H 2829.69 -1.59485 5.41502 0
M  V30 30280 N 2829.08 -1.57088 0.126936 0
M  V30 30281 C 2829.99 -2.19282 -0.833828 0
M  V30 30282 C 2831.01 -1.17124 -1.28678 0
M  V30 30283 O 2832.19 -1.49625 -1.34812 0
M  V30 30284 C 2829.25 -2.7863 -2.06315 0
M  V30 30285 C 2828.31 -3.9585 -1.66136 0
M  V30 30286 C 2827.54 -4.52359 -2.83209 0
M  V30 30287 O 2827.77 -4.07757 -3.98861 0
M  V30 30288 O 2826.7 -5.42926 -2.59836 0
M  V30 30289 H 2830.53 -3.01852 -0.334511 0
M  V30 30290 H 2828.11 -1.49071 -0.0990829 0
M  V30 30291 H 2829.99 -3.1643 -2.78298 0
M  V30 30292 H 2828.67 -1.99086 -2.55238 0
M  V30 30293 H 2827.58 -3.62804 -0.912372 0
M  V30 30294 H 2828.91 -4.76854 -1.21948 0
M  V30 30295 N 2830.56 0.146848 -1.56914 0
M  V30 30296 C 2831.98 0.499492 -1.51582 0
M  V30 30297 C 2832.18 1.83367 -0.835383 0
M  V30 30298 O 2831.23 2.49215 -0.405976 0
M  V30 30299 C 2832.55 0.509659 -2.96349 0
M  V30 30300 C 2834.09 0.595163 -3.07289 0
M  V30 30301 C 2834.57 0.635991 -4.53563 0
M  V30 30302 N 2836.06 0.69821 -4.57907 0
M  V30 30303 C 2836.8 0.750786 -5.68464 0
M  V30 30304 N 2836.29 0.762699 -6.88589 0
M  V30 30305 N 2838.08 0.791679 -5.56497 0
M  V30 30306 H 2830.24 -0.727691 -1.99546 0
M  V30 30307 H 2832.5 -0.265343 -0.910108 0
M  V30 30308 H 2832.2 -0.402471 -3.4939 0
M  V30 30309 H 2832.08 1.34752 -3.52309 0
M  V30 30310 H 2834.47 1.49771 -2.54269 0
M  V30 30311 H 2834.55 -0.269845 -2.54373 0
M  V30 30312 H 2834.19 -0.262402 -5.07222 0
M  V30 30313 H 2834.12 1.51749 -5.04262 0
M  V30 30314 H 2836.61 0.696296 -3.7143 0
M  V30 30315 H 2836.92 0.804669 -7.68599 0
M  V30 30316 H 2835.27 0.730573 -6.9115 0
M  V30 30317 H 2838.46 0.779543 -4.61563 0
M  V30 30318 H 2838.63 0.829188 -6.42673 0
M  V30 30319 N 2832.04 1.52005 0.4162 0
M  V30 30320 C 2832.99 1.75443 1.52717 0
M  V30 30321 C 2833.98 0.621316 1.57594 0
M  V30 30322 O 2835.19 0.8032 1.61086 0
M  V30 30323 H 2831.56 0.554691 0.507762 0
M  V30 30324 H 2833.53 2.6853 1.30131 0
M  V30 30325 C 2832.28 1.91576 2.90162 0
M  V30 30326 H 2831.61 2.78183 2.87149 0
M  V30 30327 H 2833.05 2.11978 3.67207 0
M  V30 30328 C 2831.5 0.681 3.29945 0
M  V30 30329 O 2832.03 -0.154457 4.01403 0
M  V30 30330 N 2830.24 0.518944 2.85929 0
M  V30 30331 H 2829.79 1.1999 2.27948 0
M  V30 30332 H 2829.75 -0.30593 3.12908 0
M  V30 30333 N 2833.52 -0.672992 1.42508 0
M  V30 30334 C 2834.76 -1.44504 1.44561 0
M  V30 30335 C 2835.12 -1.91904 0.0606544 0
M  V30 30336 O 2836.32 -2.68764 -0.0440918 0
M  V30 30337 C 2834.59 -2.60872 2.44296 0
M  V30 30338 S 2836.15 -3.49694 2.65065 0
M  V30 30339 H 2832.97 -0.493521 0.511818 0
M  V30 30340 H 2835.57 -0.783224 1.79125 0
M  V30 30341 H 2834.28 -2.24291 3.43688 0
M  V30 30342 H 2833.81 -3.31925 2.11163 0
M  V30 30343 H 2835.82 -4.56915 1.93502 0
M  V30 30344 N 2835 -1.2871 -0.909472 0
M  V30 30345 C 2836.41 -1.0651 -1.1886 0
M  V30 30346 C 2836.61 0.189828 -2.00604 0
M  V30 30347 O 2835.67 0.890314 -2.36283 0
M  V30 30348 C 2836.98 -2.31503 -1.91903 0
M  V30 30349 C 2838.53 -2.36725 -2.04769 0
M  V30 30350 C 2839 -3.61495 -2.81221 0
M  V30 30351 N 2840.49 -3.6216 -2.88781 0
M  V30 30352 C 2841.23 -4.55381 -3.48447 0
M  V30 30353 N 2840.73 -5.58925 -4.09359 0
M  V30 30354 N 2842.52 -4.42969 -3.46027 0
M  V30 30355 H 2834.67 -2.09261 -0.363831 0
M  V30 30356 H 2836.93 -0.921245 -0.223633 0
M  V30 30357 H 2836.64 -3.2295 -1.39269 0
M  V30 30358 H 2836.51 -2.3825 -2.92432 0
M  V30 30359 H 2838.9 -1.45771 -2.56583 0
M  V30 30360 H 2838.98 -2.33969 -1.03404 0
M  V30 30361 H 2838.62 -4.52794 -2.30086 0
M  V30 30362 H 2838.55 -3.61506 -3.82911 0
M  V30 30363 H 2841.05 -2.87287 -2.45508 0
M  V30 30364 H 2841.36 -6.26195 -4.5288 0
M  V30 30365 H 2839.7 -5.62746 -4.0785 0
M  V30 30366 H 2842.89 -3.61275 -2.97654 0
M  V30 30367 H 2843.07 -5.15806 -3.92235 0
M  V30 30368 N 2836.47 1.1185 -1.11028 0
M  V30 30369 C 2837.44 2.15948 -0.768044 0
M  V30 30370 C 2838.44 1.59416 0.21051 0
M  V30 30371 O 2839.63 1.74195 -0.0134285 0
M  V30 30372 C 2836.76 3.40618 -0.138738 0
M  V30 30373 H 2837.95 2.47737 -1.69017 0
M  V30 30374 H 2835.5 1.26963 -0.9116 0
M  V30 30375 H 2836.24 3.14434 0.793817 0
M  V30 30376 H 2836.02 3.82929 -0.84308 0
M  V30 30377 H 2837.51 4.17514 0.0847305 0
M  V30 30378 N 2837.95 0.89995 1.29378 0
M  V30 30379 C 2839.36 0.574459 1.77643 0
M  V30 30380 C 2839.71 -0.909898 1.73825 0
M  V30 30381 O 2838.84 -1.71145 1.32432 0
M  V30 30382 C 2839.43 1.03601 3.22571 0
M  V30 30383 C 2837.99 0.761675 3.68613 0
M  V30 30384 C 2837.14 1.21056 2.49481 0
M  V30 30385 H 2840.09 1.08265 1.16036 0
M  V30 30386 H 2840.11 0.371404 3.78683 0
M  V30 30387 H 2839.62 2.11637 3.25317 0
M  V30 30388 H 2837.72 -0.306062 3.71341 0
M  V30 30389 H 2837.84 1.35973 4.594 0
M  V30 30390 H 2836.2 0.629558 2.46797 0
M  V30 30391 H 2836.98 2.29898 2.54955 0
M  V30 30392 N 2839.43 -1.43001 0.662458 0
M  V30 30393 C 2840.67 -2.03576 0.183348 0
M  V30 30394 C 2841.03 -1.51185 -1.18351 0
M  V30 30395 O 2842.24 -2.03465 -1.75657 0
M  V30 30396 C 2840.51 -3.56823 0.20297 0
M  V30 30397 S 2842.07 -4.38312 -0.206943 0
M  V30 30398 H 2838.88 -0.706871 0.0765126 0
M  V30 30399 H 2841.49 -1.74933 0.872858 0
M  V30 30400 H 2840.19 -3.92454 1.20035 0
M  V30 30401 H 2839.72 -3.90122 -0.506777 0
M  V30 30402 H 2841.74 -4.74739 -1.4435 0
M  V30 30403 N 2840.91 -0.404973 -1.52308 0
M  V30 30404 C 2841.86 0.437281 -2.28453 0
M  V30 30405 C 2842.85 1.04946 -1.32977 0
M  V30 30406 O 2844.06 0.988132 -1.50452 0
M  V30 30407 H 2840.43 0.159792 -0.734827 0
M  V30 30408 H 2842.4 -0.226202 -2.97541 0
M  V30 30409 C 2841.15 1.54399 -3.11539 0
M  V30 30410 H 2840.47 1.08227 -3.84873 0
M  V30 30411 H 2841.91 2.10722 -3.6793 0
M  V30 30412 C 2840.37 2.50898 -2.24838 0
M  V30 30413 O 2840.9 3.54683 -1.8858 0
M  V30 30414 N 2839.11 2.21009 -1.88689 0
M  V30 30415 H 2838.66 1.36642 -2.18373 0
M  V30 30416 H 2838.61 2.85822 -1.30971 0
M  V30 30417 N 2842.39 1.57018 -0.135265 0
M  V30 30418 C 2843.64 1.94917 0.51866 0
M  V30 30419 C 2843.95 1.02193 1.66781 0
M  V30 30420 O 2845.15 1.29623 2.38558 0
M  V30 30421 C 2843.61 3.46468 0.974062 0
M  V30 30422 C 2843.22 4.47757 -0.147518 0
M  V30 30423 C 2844.96 3.93256 1.59844 0
M  V30 30424 C 2842.87 5.90504 0.325496 0
M  V30 30425 H 2841.8 0.727667 0.197528 0
M  V30 30426 H 2844.45 1.82204 -0.21773 0
M  V30 30427 H 2842.83 3.54473 1.76536 0
M  V30 30428 H 2844.01 4.51437 -0.924201 0
M  V30 30429 H 2842.32 4.10817 -0.679568 0
M  V30 30430 H 2844.92 4.97333 1.96376 0
M  V30 30431 H 2845.26 3.34145 2.483 0
M  V30 30432 H 2845.79 3.88119 0.872255 0
M  V30 30433 H 2842.53 6.53407 -0.52341 0
M  V30 30434 H 2842.05 5.90209 1.06831 0
M  V30 30435 H 2843.73 6.42264 0.781385 0
M  V30 30436 N 2843.86 -0.138524 1.5699 0
M  V30 30437 C 2844.8 -1.19606 1.95517 0
M  V30 30438 C 2845.81 -1.38724 0.852026 0
M  V30 30439 O 2847 -1.38145 1.13041 0
M  V30 30440 C 2844.1 -2.55948 2.22134 0
M  V30 30441 C 2843.27 -2.57695 3.53429 0
M  V30 30442 C 2842.33 -3.75639 3.68486 0
M  V30 30443 O 2841.36 -3.60122 4.40796 0
M  V30 30444 N 2842.56 -4.93432 3.05785 0
M  V30 30445 H 2845.32 -0.868507 2.8684 0
M  V30 30446 H 2842.88 -0.328005 1.58543 0
M  V30 30447 H 2844.88 -3.33375 2.29441 0
M  V30 30448 H 2843.45 -2.80963 1.37035 0
M  V30 30449 H 2842.67 -1.66123 3.57487 0
M  V30 30450 H 2843.95 -2.55901 4.39763 0
M  V30 30451 H 2843.35 -5.08942 2.4697 0
M  V30 30452 H 2841.91 -5.68604 3.18641 0
M  V30 30453 N 2845.34 -1.52224 -0.408133 0
M  V30 30454 C 2846.28 -1.7036 -1.51831 0
M  V30 30455 C 2847.25 -0.551198 -1.52972 0
M  V30 30456 O 2848.44 -0.778672 -1.71665 0
M  V30 30457 C 2845.56 -1.74383 -2.90359 0
M  V30 30458 C 2844.61 -2.95934 -3.07125 0
M  V30 30459 S 2845.44 -4.5626 -2.80334 0
M  V30 30460 C 2846.6 -4.6307 -4.2109 0
M  V30 30461 H 2846.83 -2.64257 -1.36219 0
M  V30 30462 H 2844.37 -1.42275 -0.599773 0
M  V30 30463 H 2846.32 -1.77386 -3.70195 0
M  V30 30464 H 2844.98 -0.816117 -3.03312 0
M  V30 30465 H 2844.18 -2.95233 -4.08477 0
M  V30 30466 H 2843.78 -2.90823 -2.35155 0
M  V30 30467 H 2846.07 -4.40508 -5.14742 0
M  V30 30468 H 2847.01 -5.6501 -4.26813 0
M  V30 30469 H 2847.42 -3.92093 -4.06107 0
M  V30 30470 N 2846.82 0.665425 -1.42863 0
M  V30 30471 C 2847.73 1.808 -1.49494 0
M  V30 30472 C 2848.75 1.69734 -0.382944 0
M  V30 30473 O 2849.92 1.91119 -0.635256 0
M  V30 30474 C 2846.99 3.17005 -1.40388 0
M  V30 30475 C 2846.05 3.39958 -2.62158 0
M  V30 30476 C 2845.28 4.69665 -2.53477 0
M  V30 30477 O 2845.5 5.48202 -1.57578 0
M  V30 30478 O 2844.44 4.94069 -3.43772 0
M  V30 30479 H 2848.26 1.78161 -2.45952 0
M  V30 30480 H 2845.85 0.822365 -1.2473 0
M  V30 30481 H 2847.73 3.98265 -1.37707 0
M  V30 30482 H 2846.41 3.20261 -0.470602 0
M  V30 30483 H 2845.31 2.5851 -2.70413 0
M  V30 30484 H 2846.65 3.4154 -3.54417 0
M  V30 30485 N 2848.3 1.29191 0.902633 0
M  V30 30486 C 2849.58 1.07677 1.63295 0
M  V30 30487 C 2849.96 -0.3801 2.0765 0
M  V30 30488 O 2849.3 -1.36834 1.83 0
M  V30 30489 C 2849.51 2.06163 2.81599 0
M  V30 30490 C 2850.86 2.3692 3.52355 0
M  V30 30491 O 2851.89 2.04334 2.91763 0
M  V30 30492 O 2850.74 2.92584 4.61581 0
M  V30 30493 H 2847.84 0.412323 0.716881 0
M  V30 30494 H 2850.38 1.40552 0.950959 0
M  V30 30495 H 2849.16 3.04303 2.45998 0
M  V30 30496 H 2848.78 1.74 3.57505 0
M  V30 30497 N 2849.78 -1.1126 1.1162 0
M  V30 30498 C 2851.19 -1.64554 0.881971 0
M  V30 30499 C 2851.54 -1.87263 -0.585409 0
M  V30 30500 O 2850.66 -1.60824 -1.44792 0
M  V30 30501 C 2851.26 -2.98932 1.59452 0
M  V30 30502 C 2849.82 -3.49127 1.40667 0
M  V30 30503 C 2848.96 -2.23901 1.63597 0
M  V30 30504 H 2851.92 -0.948747 1.27218 0
M  V30 30505 H 2851.94 -3.65994 1.0406 0
M  V30 30506 H 2851.45 -2.82373 2.66246 0
M  V30 30507 H 2849.55 -3.70848 0.3609 0
M  V30 30508 H 2849.66 -4.27797 2.15701 0
M  V30 30509 H 2848.03 -2.31618 1.05948 0
M  V30 30510 H 2848.81 -2.09882 2.7167 0
M  V30 30511 N 2851.25 -0.906798 -1.28899 0
M  V30 30512 C 2852.48 -0.552004 -1.994 0
M  V30 30513 C 2852.9 0.865019 -1.67818 0
M  V30 30514 O 2852.25 1.57197 -0.927105 0
M  V30 30515 C 2852.31 -0.743214 -3.53778 0
M  V30 30516 O 2852.03 -2.10447 -3.84244 0
M  V30 30517 C 2853.53 -0.394318 -4.41543 0
M  V30 30518 H 2850.75 -0.211118 -0.636923 0
M  V30 30519 H 2853.29 -1.21809 -1.64264 0
M  V30 30520 H 2851.45 -0.124211 -3.87201 0
M  V30 30521 H 2851.86 -2.13903 -4.78901 0
M  V30 30522 H 2853.33 -0.578911 -5.48956 0
M  V30 30523 H 2853.81 0.669061 -4.34074 0
M  V30 30524 H 2854.42 -0.990564 -4.13604 0
M  V30 30525 N 2852.73 1.42648 -0.670032 0
M  V30 30526 C 2853.98 2.01604 -0.190321 0
M  V30 30527 C 2854.31 1.5295 1.20152 0
M  V30 30528 O 2853.56 0.720292 1.81962 0
M  V30 30529 C 2853.86 3.57003 -0.168361 0
M  V30 30530 C 2853.53 4.25069 -1.50422 0
M  V30 30531 C 2852.19 4.43378 -1.87 0
M  V30 30532 C 2854.54 4.6347 -2.38423 0
M  V30 30533 C 2851.87 4.97357 -3.11212 0
M  V30 30534 C 2854.22 5.18826 -3.61942 0
M  V30 30535 C 2852.89 5.35349 -3.98695 0
M  V30 30536 H 2852.16 0.73772 -0.0696434 0
M  V30 30537 H 2854.8 1.70898 -0.864074 0
M  V30 30538 H 2853.11 3.87349 0.588889 0
M  V30 30539 H 2854.8 4.00396 0.21994 0
M  V30 30540 H 2851.39 4.11175 -1.20967 0
M  V30 30541 H 2855.58 4.49002 -2.1145 0
M  V30 30542 H 2850.83 5.08335 -3.39714 0
M  V30 30543 H 2855.01 5.47525 -4.30336 0
M  V30 30544 H 2852.64 5.7694 -4.95019 0
M  V30 30545 N 2854.21 0.413044 1.52091 0
M  V30 30546 C 2855.16 -0.410518 2.2712 0
M  V30 30547 C 2856.13 -1.03772 1.29694 0
M  V30 30548 O 2857.31 -1.06125 1.58563 0
M  V30 30549 C 2854.45 -1.51912 3.09866 0
M  V30 30550 C 2853.57 -0.912454 4.22254 0
M  V30 30551 C 2852.7 -1.99408 4.92351 0
M  V30 30552 C 2851.74 -1.36455 5.96696 0
M  V30 30553 N 2850.88 -2.38649 6.60296 0
M  V30 30554 H 2855.72 0.235713 2.97066 0
M  V30 30555 H 2853.25 0.128081 1.46541 0
M  V30 30556 H 2855.21 -2.17289 3.56148 0
M  V30 30557 H 2853.84 -2.13533 2.42082 0
M  V30 30558 H 2852.89 -0.14763 3.80113 0
M  V30 30559 H 2854.21 -0.412629 4.9709 0
M  V30 30560 H 2853.36 -2.72502 5.42059 0
M  V30 30561 H 2852.1 -2.52757 4.17091 0
M  V30 30562 H 2851.1 -0.618964 5.46305 0
M  V30 30563 H 2852.33 -0.838708 6.73901 0
M  V30 30564 H 2850.28 -2.91124 5.87863 0
M  V30 30565 H 2850.19 -1.9349 7.3082 0
M  V30 30566 H 2851.46 -3.11301 7.14641 0
M  V30 30567 N 2855.69 -1.56945 0.143591 0
M  V30 30568 C 2856.6 -2.20154 -0.810524 0
M  V30 30569 C 2857.62 -1.18482 -1.27428 0
M  V30 30570 O 2858.79 -1.51046 -1.33218 0
M  V30 30571 C 2855.86 -2.80803 -2.03349 0
M  V30 30572 C 2854.92 -3.9759 -1.61929 0
M  V30 30573 C 2854.15 -4.55337 -2.78395 0
M  V30 30574 O 2854.37 -4.11965 -3.94514 0
M  V30 30575 O 2853.31 -5.45651 -2.54063 0
M  V30 30576 H 2857.13 -3.0219 -0.302477 0
M  V30 30577 H 2854.72 -1.49168 -0.0832663 0
M  V30 30578 H 2856.6 -3.19364 -2.74926 0
M  V30 30579 H 2855.28 -2.01782 -2.53112 0
M  V30 30580 H 2854.18 -3.63751 -0.87384 0
M  V30 30581 H 2855.52 -4.7812 -1.16884 0
M  V30 30582 N 2857.17 0.130197 -1.57061 0
M  V30 30583 C 2858.12 1.17929 -2.00488 0
M  V30 30584 C 2859.11 1.43517 -0.899959 0
M  V30 30585 O 2860.32 1.43611 -1.08516 0
M  V30 30586 H 2856.69 0.397351 -0.638448 0
M  V30 30587 H 2858.66 0.78645 -2.8785 0
M  V30 30588 C 2857.41 2.50079 -2.41569 0
M  V30 30589 H 2856.73 2.31225 -3.26152 0
M  V30 30590 H 2858.17 3.22073 -2.75763 0
M  V30 30591 C 2856.63 3.11846 -1.2749 0
M  V30 30592 O 2857.16 3.97421 -0.584758 0
M  V30 30593 N 2855.37 2.71551 -1.03482 0
M  V30 30594 H 2854.92 2.02058 -1.59782 0
M  V30 30595 H 2854.87 3.13208 -0.273465 0
M  V30 30596 N 2858.65 1.52438 0.400055 0
M  V30 30597 C 2859.88 1.70555 1.16595 0
M  V30 30598 C 2860.28 0.418698 1.84509 0
M  V30 30599 O 2859.63 -0.615825 1.7307 0
M  V30 30600 C 2859.69 2.79164 2.26512 0
M  V30 30601 C 2859.35 4.20631 1.78658 0
M  V30 30602 C 2860.35 5.04166 1.26937 0
M  V30 30603 C 2858.03 4.66905 1.85217 0
M  V30 30604 C 2860.03 6.3205 0.824076 0
M  V30 30605 C 2857.72 5.94777 1.40299 0
M  V30 30606 C 2858.71 6.77179 0.889803 0
M  V30 30607 O 2858.4 8.02656 0.44714 0
M  V30 30608 H 2858.13 0.574657 0.356013 0
M  V30 30609 H 2860.69 1.99819 0.475562 0
M  V30 30610 H 2858.92 2.45297 2.98942 0
M  V30 30611 H 2860.61 2.85792 2.88232 0
M  V30 30612 H 2861.37 4.69603 1.21236 0
M  V30 30613 H 2857.25 4.02863 2.24104 0
M  V30 30614 H 2860.8 6.96317 0.422835 0
M  V30 30615 H 2856.69 6.28846 1.45682 0
M  V30 30616 H 2857.46 8.16515 0.569625 0
M  V30 30617 N 2860.12 -0.657839 1.43214 0
M  V30 30618 C 2861.54 -0.972969 1.26513 0
M  V30 30619 C 2861.74 -2.00681 0.181512 0
M  V30 30620 O 2860.8 -2.48608 -0.441606 0
M  V30 30621 C 2862.11 -1.46163 2.62787 0
M  V30 30622 C 2863.66 -1.57852 2.70281 0
M  V30 30623 C 2864.13 -2.1011 4.06962 0
M  V30 30624 N 2865.62 -2.17419 4.09003 0
M  V30 30625 C 2866.36 -2.58966 5.1159 0
M  V30 30626 N 2865.85 -2.99842 6.24553 0
M  V30 30627 N 2867.65 -2.58865 4.98944 0
M  V30 30628 H 2859.8 0.0263503 2.12384 0
M  V30 30629 H 2862.06 -0.0507825 0.946639 0
M  V30 30630 H 2861.77 -0.776413 3.43023 0
M  V30 30631 H 2861.64 -2.43746 2.87867 0
M  V30 30632 H 2864.03 -2.25476 1.9038 0
M  V30 30633 H 2864.11 -0.587135 2.48971 0
M  V30 30634 H 2863.75 -1.43089 4.87327 0
M  V30 30635 H 2863.68 -3.10071 4.25633 0
M  V30 30636 H 2866.17 -1.88621 3.27461 0
M  V30 30637 H 2866.49 -3.3028 6.98667 0
M  V30 30638 H 2864.83 -2.97658 6.28032 0
M  V30 30639 H 2868.02 -2.26304 4.09761 0
M  V30 30640 H 2868.2 -2.90922 5.79024 0
M  V30 30641 N 2861.6 -1.29668 -0.895769 0
M  V30 30642 C 2862.85 -1.17867 -1.64662 0
M  V30 30643 C 2863.18 0.268986 -1.92631 0
M  V30 30644 O 2862.43 1.21026 -1.53789 0
M  V30 30645 C 2862.73 -1.94144 -3.00071 0
M  V30 30646 C 2862.4 -3.43838 -2.91696 0
M  V30 30647 C 2861.06 -3.84661 -2.89119 0
M  V30 30648 C 2863.41 -4.3921 -2.80614 0
M  V30 30649 C 2860.74 -5.19165 -2.73284 0
M  V30 30650 C 2863.09 -5.73809 -2.66319 0
M  V30 30651 C 2861.75 -6.13885 -2.6211 0
M  V30 30652 H 2861.02 -0.431306 -0.602541 0
M  V30 30653 H 2863.67 -1.60649 -1.04231 0
M  V30 30654 H 2861.98 -1.43964 -3.64392 0
M  V30 30655 H 2863.67 -1.82415 -3.57108 0
M  V30 30656 H 2860.26 -3.11391 -2.94506 0
M  V30 30657 H 2864.45 -4.0862 -2.81679 0
M  V30 30658 H 2859.7 -5.49321 -2.68433 0
M  V30 30659 H 2863.88 -6.47356 -2.56716 0
M  V30 30660 H 2861.5 -7.18056 -2.49598 0
M  V30 30661 N 2863.08 1.10667 -1.12208 0
M  V30 30662 C 2864.03 2.15076 -0.756728 0
M  V30 30663 C 2865.01 1.59053 0.243126 0
M  V30 30664 O 2866.21 1.76932 0.0489957 0
M  V30 30665 C 2863.33 3.42655 -0.210363 0
M  V30 30666 C 2862.42 4.05617 -1.23836 0
M  V30 30667 N 2862.81 4.43319 -2.4352 0
M  V30 30668 C 2861.11 4.32647 -1.08317 0
M  V30 30669 C 2861.81 4.92751 -3.09146 0
M  V30 30670 N 2860.79 4.89408 -2.36602 0
M  V30 30671 H 2864.59 2.42015 -1.66752 0
M  V30 30672 H 2862.1 1.27764 -1.00251 0
M  V30 30673 H 2864.1 4.16842 0.0695554 0
M  V30 30674 H 2862.76 3.17177 0.694911 0
M  V30 30675 H 2863.77 4.35092 -2.80919 0
M  V30 30676 H 2860.45 4.16838 -0.234992 0
M  V30 30677 H 2861.84 5.31489 -4.11058 0
M  V30 30678 N 2864.56 0.913621 1.28416 0
M  V30 30679 C 2865.52 0.406663 2.25563 0
M  V30 30680 C 2866.52 -0.466938 1.53871 0
M  V30 30681 O 2867.71 -0.270012 1.72095 0
M  V30 30682 C 2864.84 -0.416993 3.3834 0
M  V30 30683 H 2866.04 1.26482 2.71923 0
M  V30 30684 H 2863.59 0.693011 1.40097 0
M  V30 30685 H 2864.32 -1.29456 2.97341 0
M  V30 30686 H 2864.11 0.209171 3.91542 0
M  V30 30687 H 2865.6 -0.76253 4.10579 0
M  V30 30688 N 2866.04 -1.4229 0.677588 0
M  V30 30689 C 2867.28 -2.00724 0.198209 0
M  V30 30690 C 2867.6 -1.54214 -1.20323 0
M  V30 30691 O 2868.8 -2.05084 -1.77912 0
M  V30 30692 C 2867.26 -3.58618 0.303495 0
M  V30 30693 C 2866.87 -4.14116 1.70916 0
M  V30 30694 C 2868.61 -4.24339 -0.117029 0
M  V30 30695 C 2866.52 -5.64384 1.76706 0
M  V30 30696 H 2865.45 -0.750712 0.0703422 0
M  V30 30697 H 2868.1 -1.62981 0.843176 0
M  V30 30698 H 2866.48 -3.93878 -0.409413 0
M  V30 30699 H 2867.66 -3.9031 2.44938 0
M  V30 30700 H 2865.97 -3.60857 2.07778 0
M  V30 30701 H 2868.57 -5.34617 -0.0939531 0
M  V30 30702 H 2868.91 -4.00021 -1.15276 0
M  V30 30703 H 2869.44 -3.94049 0.544969 0
M  V30 30704 H 2866.18 -5.93503 2.78271 0
M  V30 30705 H 2865.7 -5.90171 1.07044 0
M  V30 30706 H 2867.38 -6.28849 1.52177 0
M  V30 30707 N 2867.51 -0.421104 -1.5187 0
M  V30 30708 C 2868.46 0.413026 -2.28904 0
M  V30 30709 C 2869.46 1.03529 -1.34082 0
M  V30 30710 O 2870.66 0.972119 -1.51492 0
M  V30 30711 H 2867.04 0.15199 -0.73648 0
M  V30 30712 H 2869.01 -0.257747 -2.97285 0
M  V30 30713 C 2867.76 1.51086 -3.13159 0
M  V30 30714 H 2867.08 1.04139 -3.85999 0
M  V30 30715 H 2868.52 2.06808 -3.70144 0
M  V30 30716 C 2866.98 2.48499 -2.27486 0
M  V30 30717 O 2867.51 3.52663 -1.92332 0
M  V30 30718 N 2865.71 2.18995 -1.91022 0
M  V30 30719 H 2865.26 1.34318 -2.1981 0
M  V30 30720 H 2865.22 2.84416 -1.33995 0
M  V30 30721 N 2868.99 1.56866 -0.151912 0
M  V30 30722 C 2870.24 1.95894 0.496986 0
M  V30 30723 C 2870.56 1.03802 1.65076 0
M  V30 30724 O 2869.83 0.100525 1.95642 0
M  V30 30725 H 2868.41 0.723321 0.18659 0
M  V30 30726 H 2871.07 1.93555 -0.228559 0
M  V30 30727 H 2870.17 2.99732 0.86988 0
M  V30 30728 N 2870.47 -0.121866 1.57128 0
M  V30 30729 C 2871.7 -0.843193 1.8861 0
M  V30 30730 C 2872.11 -1.74088 0.740948 0
M  V30 30731 O 2871.45 -1.81277 -0.297394 0
M  V30 30732 C 2871.51 -1.73111 3.15076 0
M  V30 30733 C 2871.18 -1.00802 4.45744 0
M  V30 30734 C 2872.17 -0.350163 5.18719 0
M  V30 30735 C 2869.86 -0.990053 4.92446 0
M  V30 30736 C 2871.85 0.316001 6.36616 0
M  V30 30737 C 2869.54 -0.320089 6.10261 0
M  V30 30738 C 2870.54 0.331786 6.82194 0
M  V30 30739 O 2870.23 0.991068 7.97768 0
M  V30 30740 H 2869.96 -0.247854 0.628923 0
M  V30 30741 H 2872.51 -0.111689 2.05096 0
M  V30 30742 H 2870.74 -2.50419 2.94665 0
M  V30 30743 H 2872.43 -2.32661 3.32601 0
M  V30 30744 H 2873.2 -0.355685 4.83694 0
M  V30 30745 H 2869.08 -1.48687 4.36364 0
M  V30 30746 H 2872.62 0.825394 6.927 0
M  V30 30747 H 2868.52 -0.31232 6.44744 0
M  V30 30748 H 2869.29 0.895256 8.13589 0
M  V30 30749 N 2871.95 -1.52648 -0.391965 0
M  V30 30750 C 2873.2 -1.66772 -1.13446 0
M  V30 30751 C 2873.51 -0.412432 -1.91202 0
M  V30 30752 O 2874.72 -0.433754 -2.68013 0
M  V30 30753 C 2873.17 -2.94713 -2.06572 0
M  V30 30754 C 2872.78 -4.27411 -1.34252 0
M  V30 30755 C 2874.52 -3.18203 -2.80975 0
M  V30 30756 C 2872.43 -5.46462 -2.26126 0
M  V30 30757 H 2871.36 -0.621302 -0.4272 0
M  V30 30758 H 2874.01 -1.79143 -0.39749 0
M  V30 30759 H 2872.39 -2.76081 -2.83893 0
M  V30 30760 H 2873.57 -4.56586 -0.621776 0
M  V30 30761 H 2871.88 -4.10159 -0.718206 0
M  V30 30762 H 2874.48 -4.04327 -3.49891 0
M  V30 30763 H 2874.82 -2.3315 -3.44887 0
M  V30 30764 H 2875.36 -3.37387 -2.10748 0
M  V30 30765 H 2872.1 -6.33914 -1.66835 0
M  V30 30766 H 2871.62 -5.21603 -2.96125 0
M  V30 30767 H 2873.29 -5.8022 -2.86276 0
M  V30 30768 N 2873.43 0.650235 -1.43561 0
M  V30 30769 C 2874.36 1.77513 -1.43403 0
M  V30 30770 C 2875.34 1.599 -0.29511 0
M  V30 30771 O 2876.52 1.82043 -0.48916 0
M  V30 30772 C 2873.65 3.14851 -1.24846 0
M  V30 30773 C 2872.69 3.51159 -2.42053 0
M  V30 30774 S 2873.53 3.50796 -4.04601 0
M  V30 30775 C 2874.68 4.90786 -3.88433 0
M  V30 30776 H 2874.92 1.77377 -2.38589 0
M  V30 30777 H 2872.45 0.823146 -1.30628 0
M  V30 30778 H 2874.41 3.94113 -1.14826 0
M  V30 30779 H 2873.07 3.12546 -0.312032 0
M  V30 30780 H 2872.26 4.51048 -2.24881 0
M  V30 30781 H 2871.86 2.79316 -2.48713 0
M  V30 30782 H 2874.16 5.79522 -3.50942 0
M  V30 30783 H 2875.1 5.1301 -4.88085 0
M  V30 30784 H 2875.51 4.64461 -3.20837 0
M  V30 30785 N 2874.9 1.30141 0.88888 0
M  V30 30786 C 2876.18 1.09402 1.62143 0
M  V30 30787 C 2876.56 -0.358055 2.08041 0
M  V30 30788 O 2875.91 -1.34885 1.84441 0
M  V30 30789 C 2876.12 2.09138 2.79396 0
M  V30 30790 C 2877.47 2.40644 3.49822 0
M  V30 30791 O 2878.49 2.07417 2.8958 0
M  V30 30792 O 2877.35 2.97464 4.58451 0
M  V30 30793 H 2874.44 0.419903 0.712468 0
M  V30 30794 H 2876.99 1.41553 0.935999 0
M  V30 30795 H 2875.76 3.06895 2.42757 0
M  V30 30796 H 2875.39 1.77782 3.55639 0
M  V30 30797 N 2876.38 -1.1007 1.12794 0
M  V30 30798 C 2877.61 -1.85885 0.908538 0
M  V30 30799 C 2878.03 -1.80842 -0.542377 0
M  V30 30800 O 2877.38 -1.19983 -1.37515 0
M  V30 30801 C 2877.43 -3.34132 1.37979 0
M  V30 30802 O 2877.15 -3.39101 2.77384 0
M  V30 30803 C 2878.66 -4.26809 1.19787 0
M  V30 30804 H 2875.88 -0.587366 0.324411 0
M  V30 30805 H 2878.42 -1.39122 1.49884 0
M  V30 30806 H 2876.57 -3.78346 0.832633 0
M  V30 30807 H 2876.99 -4.31516 2.98151 0
M  V30 30808 H 2878.46 -5.29011 1.57644 0
M  V30 30809 H 2878.94 -4.3898 0.138845 0
M  V30 30810 H 2879.55 -3.88403 1.73272 0
M  V30 30811 N 2877.86 -0.920419 -1.2793 0
M  V30 30812 C 2878.79 -0.431064 -2.29487 0
M  V30 30813 C 2879.77 0.504833 -1.62436 0
M  V30 30814 O 2880.96 0.411142 -1.89798 0
M  V30 30815 C 2878.09 0.323648 -3.45789 0
M  V30 30816 C 2877.04 -0.523732 -4.24784 0
M  V30 30817 C 2876.37 0.359716 -5.33489 0
M  V30 30818 C 2877.67 -1.78445 -4.90871 0
M  V30 30819 H 2879.36 -1.2798 -2.70669 0
M  V30 30820 H 2876.91 -0.616836 -1.3012 0
M  V30 30821 H 2878.86 0.676879 -4.15928 0
M  V30 30822 H 2877.58 1.20634 -3.03504 0
M  V30 30823 H 2876.24 -0.859572 -3.5638 0
M  V30 30824 H 2875.89 1.24115 -4.87447 0
M  V30 30825 H 2875.59 -0.203709 -5.87247 0
M  V30 30826 H 2877.11 0.708681 -6.06473 0
M  V30 30827 H 2878.53 -1.49973 -5.53336 0
M  V30 30828 H 2876.93 -2.2908 -5.54655 0
M  V30 30829 H 2878 -2.50831 -4.14984 0
M  V30 30830 N 2879.34 1.41929 -0.685124 0
M  V30 30831 C 2880.75 1.84469 -0.287732 0
M  V30 30832 C 2881.1 1.5734 1.17212 0
M  V30 30833 O 2880.23 1.03848 1.89854 0
M  V30 30834 C 2880.82 3.34856 -0.515444 0
M  V30 30835 C 2879.38 3.76006 -0.172072 0
M  V30 30836 C 2878.53 2.65423 -0.802855 0
M  V30 30837 H 2881.48 1.31629 -0.886543 0
M  V30 30838 H 2881.5 3.79809 0.229184 0
M  V30 30839 H 2881.01 3.5457 -1.57802 0
M  V30 30840 H 2879.11 3.61897 0.886653 0
M  V30 30841 H 2879.22 4.75074 -0.6198 0
M  V30 30842 H 2877.59 2.53629 -0.233312 0
M  V30 30843 H 2878.37 2.87958 -1.86909 0
M  V30 30844 N 2880.82 0.429152 1.51644 0
M  V30 30845 C 2882.06 -0.139767 2.01616 0
M  V30 30846 C 2882.39 -1.43925 1.3157 0
M  V30 30847 O 2881.66 -1.90715 0.447722 0
M  V30 30848 H 2880.24 -0.0546409 0.744999 0
M  V30 30849 H 2882.9 0.569984 1.86379 0
M  V30 30850 H 2881.99 -0.321555 3.10439 0
M  V30 30851 N 2882.29 -1.56783 0.160229 0
M  V30 30852 C 2883.22 -2.20431 -0.770225 0
M  V30 30853 C 2884.21 -1.15653 -1.24734 0
M  V30 30854 O 2885.39 -1.44043 -1.30251 0
M  V30 30855 C 2882.52 -2.83634 -2.00422 0
M  V30 30856 C 2881.47 -3.94355 -1.66338 0
M  V30 30857 C 2880.8 -4.44555 -2.97111 0
M  V30 30858 C 2882.1 -5.14489 -0.899882 0
M  V30 30859 H 2883.79 -2.98439 -0.239731 0
M  V30 30860 H 2881.34 -1.43549 -0.113866 0
M  V30 30861 H 2883.29 -3.26831 -2.66006 0
M  V30 30862 H 2882.02 -2.02978 -2.55866 0
M  V30 30863 H 2880.68 -3.51796 -1.03127 0
M  V30 30864 H 2880.32 -3.60704 -3.50573 0
M  V30 30865 H 2880.02 -5.19243 -2.75064 0
M  V30 30866 H 2881.55 -4.90431 -3.63744 0
M  V30 30867 H 2882.96 -5.54448 -1.45808 0
M  V30 30868 H 2881.36 -5.95024 -0.778864 0
M  V30 30869 H 2882.43 -4.84784 0.105912 0
M  V30 30870 N 2883.77 0.113531 -1.57191 0
M  V30 30871 C 2885.02 0.821564 -1.85413 0
M  V30 30872 C 2885.35 1.79269 -0.746753 0
M  V30 30873 O 2884.63 1.92926 0.246937 0
M  V30 30874 C 2884.91 1.56663 -3.24235 0
M  V30 30875 C 2884.76 0.614745 -4.45579 0
M  V30 30876 C 2886.08 2.52155 -3.60702 0
M  V30 30877 H 2883.2 0.297218 -0.674411 0
M  V30 30878 H 2885.84 0.0856606 -1.89807 0
M  V30 30879 H 2883.99 2.19396 -3.20621 0
M  V30 30880 H 2885.67 -0.00415246 -4.613 0
M  V30 30881 H 2883.91 -0.0733094 -4.33738 0
M  V30 30882 H 2884.58 1.17282 -5.39397 0
M  V30 30883 H 2887.06 1.99525 -3.65142 0
M  V30 30884 H 2885.93 3.01315 -4.58803 0
M  V30 30885 H 2886.19 3.35071 -2.88409 0
M  V30 30886 N 2885.25 1.52854 0.383864 0
M  V30 30887 C 2886.18 1.72754 1.49102 0
M  V30 30888 C 2887.16 0.575464 1.52076 0
M  V30 30889 O 2888.35 0.805884 1.70405 0
M  V30 30890 C 2885.47 1.7898 2.87548 0
M  V30 30891 C 2884.52 3.00782 3.02378 0
M  V30 30892 S 2885.35 4.60662 2.7304 0
M  V30 30893 C 2886.51 4.69711 4.1367 0
M  V30 30894 H 2886.74 2.66391 1.31997 0
M  V30 30895 H 2884.27 1.43211 0.577063 0
M  V30 30896 H 2886.23 1.83253 3.67326 0
M  V30 30897 H 2884.89 0.864268 3.01976 0
M  V30 30898 H 2884.09 3.01695 4.03728 0
M  V30 30899 H 2883.69 2.94527 2.30499 0
M  V30 30900 H 2885.98 4.48641 5.07668 0
M  V30 30901 H 2886.92 5.71729 4.1777 0
M  V30 30902 H 2887.33 3.98504 3.99818 0
M  V30 30903 N 2886.73 -0.642612 1.43904 0
M  V30 30904 C 2887.69 -1.73696 1.49541 0
M  V30 30905 C 2888.69 -1.56275 0.378803 0
M  V30 30906 O 2889.88 -1.61979 0.640978 0
M  V30 30907 C 2887.01 -3.12672 1.35826 0
M  V30 30908 H 2888.21 -1.70075 2.47011 0
M  V30 30909 H 2885.76 -0.855237 1.30826 0
M  V30 30910 H 2886.5 -3.21897 0.394051 0
M  V30 30911 H 2886.28 -3.26723 2.16782 0
M  V30 30912 H 2887.77 -3.92452 1.42727 0
M  V30 30913 N 2888.21 -1.30611 -0.881966 0
M  V30 30914 C 2889.14 -1.13062 -1.99373 0
M  V30 30915 C 2890.15 -0.0730165 -1.62636 0
M  V30 30916 O 2891.34 -0.319332 -1.7562 0
M  V30 30917 C 2888.44 -0.70271 -3.31535 0
M  V30 30918 C 2887.61 -1.84272 -3.9669 0
M  V30 30919 C 2886.67 -1.40286 -5.07155 0
M  V30 30920 O 2885.7 -2.11057 -5.28624 0
M  V30 30921 N 2886.9 -0.283551 -5.79807 0
M  V30 30922 H 2889.67 -2.08818 -2.14977 0
M  V30 30923 H 2887.23 -1.22786 -1.05523 0
M  V30 30924 H 2889.22 -0.391402 -4.02803 0
M  V30 30925 H 2887.79 0.162899 -3.12175 0
M  V30 30926 H 2887.01 -2.32198 -3.18556 0
M  V30 30927 H 2888.3 -2.6066 -4.3696 0
M  V30 30928 H 2887.7 0.306089 -5.64871 0
M  V30 30929 H 2886.25 -0.031713 -6.51792 0
M  V30 30930 N 2889.69 1.0947 -1.13376 0
M  V30 30931 C 2890.96 1.78205 -0.80636 0
M  V30 30932 C 2891.34 1.9908 0.702156 0
M  V30 30933 O 2890.69 1.59185 1.63928 0
M  V30 30934 C 2890.9 3.10535 -1.59276 0
M  V30 30935 C 2892.25 3.8525 -1.78516 0
M  V30 30936 O 2893.27 3.20285 -1.55871 0
M  V30 30937 O 2892.13 5.01875 -2.16296 0
M  V30 30938 H 2889.23 0.772838 -0.294364 0
M  V30 30939 H 2891.77 1.16031 -1.23835 0
M  V30 30940 H 2890.54 2.90823 -2.61797 0
M  V30 30941 H 2890.17 3.80434 -1.15568 0
M  V30 30942 N 2891.16 0.92719 1.2744 0
M  V30 30943 C 2892.1 0.383198 2.25974 0
M  V30 30944 C 2893.11 -0.485805 1.55383 0
M  V30 30945 O 2894.3 -0.29851 1.75986 0
M  V30 30946 C 2891.4 -0.469629 3.3563 0
M  V30 30947 C 2890.57 0.379963 4.35747 0
M  V30 30948 C 2889.63 -0.410135 5.24599 0
M  V30 30949 O 2888.66 0.181988 5.68909 0
M  V30 30950 N 2889.86 -1.71007 5.5474 0
M  V30 30951 H 2892.62 1.2302 2.73288 0
M  V30 30952 H 2890.18 0.794563 1.41061 0
M  V30 30953 H 2892.18 -1.00525 3.92016 0
M  V30 30954 H 2890.75 -1.21738 2.87921 0
M  V30 30955 H 2889.97 1.09689 3.78632 0
M  V30 30956 H 2891.25 0.960805 4.99646 0
M  V30 30957 H 2890.65 -2.21347 5.20598 0
M  V30 30958 H 2889.21 -2.19223 6.13828 0
M  V30 30959 N 2892.64 -1.41564 0.692641 0
M  V30 30960 C 2894.06 -1.55396 0.363906 0
M  V30 30961 C 2894.26 -1.66876 -1.12937 0
M  V30 30962 O 2893.31 -1.64556 -1.91514 0
M  V30 30963 C 2894.63 -2.79468 1.10987 0
M  V30 30964 C 2896.17 -2.93261 1.09393 0
M  V30 30965 C 2896.65 -4.20217 1.82157 0
M  V30 30966 N 2898.14 -4.27168 1.79113 0
M  V30 30967 C 2898.88 -5.24256 2.32256 0
M  V30 30968 N 2898.37 -6.27391 2.93858 0
M  V30 30969 N 2900.16 -5.16176 2.22529 0
M  V30 30970 H 2892.32 -1.32357 1.66119 0
M  V30 30971 H 2894.58 -0.638358 0.700859 0
M  V30 30972 H 2894.28 -2.77185 2.16475 0
M  V30 30973 H 2894.16 -3.70899 0.686557 0
M  V30 30974 H 2896.55 -2.95062 0.0473156 0
M  V30 30975 H 2896.63 -2.03012 1.55627 0
M  V30 30976 H 2896.27 -4.19178 2.86796 0
M  V30 30977 H 2896.2 -5.09434 1.33359 0
M  V30 30978 H 2898.69 -3.5327 1.34197 0
M  V30 30979 H 2899 -6.97858 3.31984 0
M  V30 30980 H 2897.35 -6.27901 2.97935 0
M  V30 30981 H 2900.54 -4.34528 1.74077 0
M  V30 30982 H 2900.71 -5.91673 2.64249 0
M  V30 30983 N 2894.12 -0.437188 -1.51415 0
M  V30 30984 C 2895.37 0.13083 -2.01275 0
M  V30 30985 C 2895.68 1.43798 -1.32595 0
M  V30 30986 O 2896.89 2.08893 -1.73424 0
M  V30 30987 C 2895.34 0.2837 -3.5878 0
M  V30 30988 C 2894.95 -1.01301 -4.36397 0
M  V30 30989 C 2896.7 0.805496 -4.16788 0
M  V30 30990 C 2894.6 -0.82579 -5.85606 0
M  V30 30991 H 2893.53 0.0526686 -0.752158 0
M  V30 30992 H 2896.18 -0.566927 -1.74523 0
M  V30 30993 H 2894.57 1.04446 -3.81978 0
M  V30 30994 H 2895.74 -1.78208 -4.24945 0
M  V30 30995 H 2894.05 -1.46333 -3.89841 0
M  V30 30996 H 2896.65 0.962054 -5.25974 0
M  V30 30997 H 2896.99 1.7879 -3.75952 0
M  V30 30998 H 2897.53 0.103055 -3.97666 0
M  V30 30999 H 2894.27 -1.78056 -6.30854 0
M  V30 31000 H 2893.79 -0.0965083 -5.99722 0
M  V30 31001 H 2895.47 -0.478929 -6.45225 0
M  V30 31002 N 2895.6 1.56696 -0.168541 0
M  V30 31003 C 2897.01 1.58493 0.187658 0
M  V30 31004 C 2897.21 1.18378 1.63061 0
M  V30 31005 O 2896.27 0.894083 2.36141 0
M  V30 31006 C 2897.58 3.00563 -0.0906386 0
M  V30 31007 C 2899.13 3.12987 -0.02863 0
M  V30 31008 C 2899.61 4.57144 -0.279879 0
M  V30 31009 N 2901.1 4.62641 -0.227558 0
M  V30 31010 C 2901.83 5.7203 -0.396174 0
M  V30 31011 N 2901.33 6.89987 -0.623694 0
M  V30 31012 N 2903.12 5.61117 -0.332272 0
M  V30 31013 H 2895.27 1.8106 -1.11045 0
M  V30 31014 H 2897.53 0.839048 -0.44125 0
M  V30 31015 H 2897.24 3.34379 -1.09012 0
M  V30 31016 H 2897.11 3.72086 0.619012 0
M  V30 31017 H 2899.5 2.78999 0.961422 0
M  V30 31018 H 2899.58 2.43906 -0.770948 0
M  V30 31019 H 2899.23 4.9184 -1.26713 0
M  V30 31020 H 2899.16 5.2438 0.483017 0
M  V30 31021 H 2901.65 3.77857 -0.0572387 0
M  V30 31022 H 2901.96 7.69231 -0.741881 0
M  V30 31023 H 2900.31 6.91856 -0.660275 0
M  V30 31024 H 2903.5 4.67843 -0.155133 0
M  V30 31025 H 2903.67 6.46314 -0.467108 0
M  V30 31026 N 2897.08 -0.105193 1.57249 0
M  V30 31027 C 2898.32 -0.806659 1.86721 0
M  V30 31028 C 2898.68 -1.76835 0.758092 0
M  V30 31029 O 2897.97 -1.90081 -0.240778 0
M  V30 31030 C 2898.16 -1.58282 3.2044 0
M  V30 31031 C 2897.99 -0.697786 4.44253 0
M  V30 31032 C 2896.76 -0.347355 5.04105 0
M  V30 31033 C 2898.96 -0.00923974 5.14299 0
M  V30 31034 N 2896.94 0.546894 6.11459 0
M  V30 31035 C 2898.31 0.743468 6.15526 0
M  V30 31036 C 2900.37 0.065738 4.97857 0
M  V30 31037 C 2899.07 1.56413 7.02088 0
M  V30 31038 C 2901.1 0.87327 5.84917 0
M  V30 31039 C 2900.46 1.61413 6.85657 0
M  V30 31040 H 2896.56 -0.271666 0.733295 0
M  V30 31041 H 2899.14 -0.069681 1.94575 0
M  V30 31042 H 2897.31 -2.29074 3.13656 0
M  V30 31043 H 2899.05 -2.23069 3.37672 0
M  V30 31044 H 2895.8 -0.692734 4.68506 0
M  V30 31045 H 2896.22 0.986275 6.69777 0
M  V30 31046 H 2900.87 -0.492694 4.19919 0
M  V30 31047 H 2898.58 2.13367 7.79423 0
M  V30 31048 H 2902.17 0.933825 5.74257 0
M  V30 31049 H 2901.05 2.22893 7.51857 0
M  V30 31050 N 2898.55 -1.53055 -0.375752 0
M  V30 31051 C 2899.78 -1.72388 -1.13867 0
M  V30 31052 C 2900.19 -0.447998 -1.8382 0
M  V30 31053 O 2899.54 0.588213 -1.74028 0
M  V30 31054 C 2899.6 -2.82732 -2.22042 0
M  V30 31055 C 2899.26 -4.2342 -1.71944 0
M  V30 31056 C 2900.26 -5.06121 -1.189 0
M  V30 31057 C 2897.94 -4.69792 -1.77765 0
M  V30 31058 C 2899.94 -6.33281 -0.723418 0
M  V30 31059 C 2897.62 -5.96934 -1.30819 0
M  V30 31060 C 2898.62 -6.78509 -0.781957 0
M  V30 31061 O 2898.31 -8.03265 -0.319388 0
M  V30 31062 H 2898.04 -0.580248 -0.346825 0
M  V30 31063 H 2900.6 -2.0055 -0.443713 0
M  V30 31064 H 2898.83 -2.50022 -2.95002 0
M  V30 31065 H 2900.52 -2.90341 -2.83649 0
M  V30 31066 H 2901.28 -4.71472 -1.13749 0
M  V30 31067 H 2897.16 -4.06377 -2.17666 0
M  V30 31068 H 2900.7 -6.96902 -0.312004 0
M  V30 31069 H 2896.6 -6.31084 -1.35659 0
M  V30 31070 H 2897.37 -8.17318 -0.439652 0
M  V30 31071 N 2900.03 0.634971 -1.44242 0
M  V30 31072 C 2900.96 1.75837 -1.53635 0
M  V30 31073 C 2901.94 1.65577 -0.389632 0
M  V30 31074 O 2903.13 1.84396 -0.609252 0
M  V30 31075 C 2900.26 3.14351 -1.4765 0
M  V30 31076 C 2899.21 3.39395 -2.60758 0
M  V30 31077 C 2898.54 4.77899 -2.39825 0
M  V30 31078 C 2899.84 3.32336 -4.02927 0
M  V30 31079 H 2901.53 1.68234 -2.47665 0
M  V30 31080 H 2899.08 0.807948 -1.19198 0
M  V30 31081 H 2901.03 3.92713 -1.52822 0
M  V30 31082 H 2899.76 3.22729 -0.501341 0
M  V30 31083 H 2898.41 2.63412 -2.54969 0
M  V30 31084 H 2898.06 4.82976 -1.40511 0
M  V30 31085 H 2897.76 4.95615 -3.15658 0
M  V30 31086 H 2899.29 5.58496 -2.46809 0
M  V30 31087 H 2900.7 4.00608 -4.10105 0
M  V30 31088 H 2899.1 3.61586 -4.78932 0
M  V30 31089 H 2900.17 2.30208 -4.2677 0
M  V30 31090 N 2901.51 1.31076 0.875027 0
M  V30 31091 C 2902.44 1.20885 1.99773 0
M  V30 31092 C 2903.42 0.0971911 1.69822 0
M  V30 31093 O 2904.61 0.280929 1.92157 0
M  V30 31094 C 2901.74 0.910176 3.35161 0
M  V30 31095 C 2900.69 1.98085 3.79403 0
M  V30 31096 C 2900.02 1.53497 5.12194 0
M  V30 31097 C 2901.32 3.3933 3.97055 0
M  V30 31098 H 2903.01 2.14812 2.08558 0
M  V30 31099 H 2900.56 1.03416 1.00205 0
M  V30 31100 H 2902.51 0.825496 4.13235 0
M  V30 31101 H 2901.23 -0.0647647 3.26536 0
M  V30 31102 H 2899.89 2.05534 3.03565 0
M  V30 31103 H 2899.54 0.548029 5.00006 0
M  V30 31104 H 2899.24 2.2512 5.42766 0
M  V30 31105 H 2900.76 1.46427 5.92783 0
M  V30 31106 H 2902.18 3.34584 4.65539 0
M  V30 31107 H 2900.58 4.09126 4.39017 0
M  V30 31108 H 2901.65 3.80488 3.00594 0
M  V30 31109 N 2902.99 -1.08867 1.13955 0
M  V30 31110 C 2904.21 -1.85451 0.928592 0
M  V30 31111 C 2904.64 -1.80838 -0.51761 0
M  V30 31112 O 2904 -1.19003 -1.36777 0
M  V30 31113 C 2904.04 -3.31111 1.4282 0
M  V30 31114 O 2903.15 -4.07755 0.617201 0
M  V30 31115 H 2902.49 -0.574833 0.33236 0
M  V30 31116 H 2905.02 -1.3744 1.51563 0
M  V30 31117 H 2905.03 -3.81957 1.43432 0
M  V30 31118 H 2903.7 -3.33784 2.48115 0
M  V30 31119 H 2902.28 -3.66658 0.67943 0
M  V30 31120 N 2904.47 -0.933936 -1.26946 0
M  V30 31121 C 2905.4 -0.382208 -2.24976 0
M  V30 31122 C 2906.38 0.524922 -1.53894 0
M  V30 31123 O 2907.56 0.464016 -1.827 0
M  V30 31124 C 2904.69 0.451556 -3.35676 0
M  V30 31125 C 2903.73 -0.393022 -4.24685 0
M  V30 31126 S 2904.57 -1.81246 -5.03895 0
M  V30 31127 C 2905.72 -0.986552 -6.18076 0
M  V30 31128 H 2905.96 -1.21304 -2.71427 0
M  V30 31129 H 2903.49 -0.736547 -1.35699 0
M  V30 31130 H 2905.45 0.926727 -3.99903 0
M  V30 31131 H 2904.11 1.25698 -2.87852 0
M  V30 31132 H 2903.3 0.245445 -5.03402 0
M  V30 31133 H 2902.9 -0.802601 -3.65287 0
M  V30 31134 H 2905.2 -0.22544 -6.77125 0
M  V30 31135 H 2906.14 -1.74694 -6.86213 0
M  V30 31136 H 2906.55 -0.52581 -5.62046 0
M  V30 31137 N 2905.94 1.41194 -0.700139 0
M  V30 31138 C 2907.19 2.00757 -0.232581 0
M  V30 31139 C 2907.51 1.55747 1.17337 0
M  V30 31140 O 2906.78 0.790089 1.79261 0
M  V30 31141 H 2905.36 0.742375 -0.0829976 0
M  V30 31142 H 2908.03 1.72755 -0.902319 0
M  V30 31143 H 2907.12 3.11068 -0.253575 0
M  V30 31144 N 2907.42 0.445212 1.51181 0
M  V30 31145 C 2908.65 -0.119409 2.07056 0
M  V30 31146 C 2909.07 -1.35014 1.30969 0
M  V30 31147 O 2908.43 -1.77892 0.349859 0
M  V30 31148 C 2908.48 -0.412365 3.58234 0
M  V30 31149 O 2907.58 -1.49747 3.84252 0
M  V30 31150 H 2906.92 0.00158965 0.663998 0
M  V30 31151 H 2909.45 0.628813 1.94697 0
M  V30 31152 H 2909.46 -0.660513 4.02618 0
M  V30 31153 H 2908.14 0.487121 4.13037 0
M  V30 31154 H 2906.72 -1.23867 3.51726 0
M  V30 31155 N 2908.9 -1.56605 0.176849 0
M  V30 31156 C 2909.85 -2.19551 -0.76812 0
M  V30 31157 C 2910.84 -1.16118 -1.23341 0
M  V30 31158 O 2912.05 -1.34305 -1.19842 0
M  V30 31159 H 2908.42 -0.703383 -0.266001 0
M  V30 31160 H 2910.39 -2.97637 -0.213322 0
M  V30 31161 C 2909.14 -2.85479 -1.98487 0
M  V30 31162 H 2908.47 -3.648 -1.63588 0
M  V30 31163 H 2909.91 -3.32985 -2.62483 0
M  V30 31164 C 2908.37 -1.85543 -2.81203 0
M  V30 31165 O 2908.9 -1.34434 -3.78537 0
M  V30 31166 N 2907.1 -1.54177 -2.46329 0
M  V30 31167 H 2906.65 -1.95932 -1.67237 0
M  V30 31168 H 2906.61 -0.875648 -3.0196 0
M  V30 31169 N 2910.38 0.0968524 -1.57302 0
M  V30 31170 C 2911.29 1.13602 -2.0526 0
M  V30 31171 C 2912.3 1.43971 -0.977162 0
M  V30 31172 O 2913.48 1.54647 -1.2902 0
M  V30 31173 C 2910.55 2.43702 -2.46597 0
M  V30 31174 C 2909.61 2.20532 -3.68326 0
M  V30 31175 C 2908.84 3.44428 -4.07682 0
M  V30 31176 O 2909.06 4.52597 -3.47149 0
M  V30 31177 O 2908 3.3412 -5.00647 0
M  V30 31178 H 2911.82 0.7587 -2.9407 0
M  V30 31179 H 2909.41 0.309237 -1.46165 0
M  V30 31180 H 2911.29 3.20313 -2.7382 0
M  V30 31181 H 2909.96 2.80864 -1.60925 0
M  V30 31182 H 2908.87 1.41707 -3.46222 0
M  V30 31183 H 2910.2 1.88263 -4.54772 0
M  V30 31184 N 2911.86 1.53252 0.36763 0
M  V30 31185 C 2912.8 1.80213 1.47058 0
M  V30 31186 C 2913.8 0.671139 1.55538 0
M  V30 31187 O 2915 0.854042 1.58449 0
M  V30 31188 H 2911.38 0.570564 0.489858 0
M  V30 31189 H 2913.35 2.72534 1.21522 0
M  V30 31190 C 2912.1 2.00711 2.8392 0
M  V30 31191 H 2911.42 2.87177 2.78153 0
M  V30 31192 H 2912.86 2.23553 3.60277 0
M  V30 31193 C 2911.32 0.785625 3.27612 0
M  V30 31194 O 2911.85 -0.0266753 4.01691 0
M  V30 31195 N 2910.06 0.609647 2.84133 0
M  V30 31196 H 2909.6 1.27182 2.24015 0
M  V30 31197 H 2909.56 -0.206226 3.13723 0
M  V30 31198 N 2913.34 -0.627313 1.44577 0
M  V30 31199 C 2914.58 -1.38279 1.4684 0
M  V30 31200 C 2914.9 -1.9531 0.106385 0
M  V30 31201 O 2916.1 -2.71499 0.00655857 0
M  V30 31202 C 2914.56 -2.50379 2.58531 0
M  V30 31203 C 2914.17 -1.99844 4.00957 0
M  V30 31204 C 2915.91 -3.27552 2.70019 0
M  V30 31205 C 2913.82 -3.09309 5.04065 0
M  V30 31206 H 2912.75 -0.519655 0.546329 0
M  V30 31207 H 2915.4 -0.674467 1.70655 0
M  V30 31208 H 2913.78 -3.23804 2.27963 0
M  V30 31209 H 2914.96 -1.33259 4.41111 0
M  V30 31210 H 2913.27 -1.35475 3.93745 0
M  V30 31211 H 2915.87 -4.09162 3.44224 0
M  V30 31212 H 2916.21 -3.77281 1.75967 0
M  V30 31213 H 2916.74 -2.61219 3.00016 0
M  V30 31214 H 2913.48 -2.64519 5.99758 0
M  V30 31215 H 2913 -3.74523 4.685 0
M  V30 31216 H 2914.68 -3.74021 5.27937 0
M  V30 31217 N 2914.81 -1.31539 -0.868063 0
M  V30 31218 C 2915.76 -1.15944 -1.96319 0
M  V30 31219 C 2916.75 -0.0699244 -1.60748 0
M  V30 31220 O 2917.94 -0.295042 -1.74524 0
M  V30 31221 C 2915.07 -0.870848 -3.32071 0
M  V30 31222 C 2914.15 -2.00143 -3.73903 0
M  V30 31223 N 2914.55 -3.24866 -3.8768 0
M  V30 31224 C 2912.84 -1.90159 -4.0343 0
M  V30 31225 C 2913.54 -3.98832 -4.23447 0
M  V30 31226 N 2912.52 -3.27016 -4.34236 0
M  V30 31227 H 2916.32 -2.10518 -2.05084 0
M  V30 31228 H 2913.84 -1.23124 -1.05898 0
M  V30 31229 H 2915.83 -0.740106 -4.10278 0
M  V30 31230 H 2914.49 0.0666497 -3.24632 0
M  V30 31231 H 2915.5 -3.5996 -3.72356 0
M  V30 31232 H 2912.18 -1.03886 -4.04368 0
M  V30 31233 H 2913.57 -5.06322 -4.41687 0
M  V30 31234 N 2916.29 1.08262 -1.1453 0
M  V30 31235 C 2917.52 1.84956 -0.938414 0
M  V30 31236 C 2917.94 1.8111 0.508012 0
M  V30 31237 O 2917.3 1.19727 1.36144 0
M  V30 31238 C 2917.35 3.30349 -1.44574 0
M  V30 31239 O 2916.45 4.07422 -0.638816 0
M  V30 31240 H 2915.79 0.573062 -0.335404 0
M  V30 31241 H 2918.32 1.36635 -1.5229 0
M  V30 31242 H 2918.33 3.81191 -1.45456 0
M  V30 31243 H 2917.01 3.32463 -2.49882 0
M  V30 31244 H 2915.58 3.66293 -0.698865 0
M  V30 31245 N 2917.77 0.940655 1.26449 0
M  V30 31246 C 2919.02 0.58369 1.9307 0
M  V30 31247 C 2919.33 -0.881335 1.74619 0
M  V30 31248 O 2920.54 -1.34765 2.35692 0
M  V30 31249 C 2918.99 0.993167 3.45925 0
M  V30 31250 C 2918.6 2.47977 3.73111 0
M  V30 31251 C 2920.35 0.708072 4.18553 0
M  V30 31252 C 2918.25 2.82797 5.19403 0
M  V30 31253 H 2917.18 0.214585 0.72282 0
M  V30 31254 H 2919.83 1.14322 1.43536 0
M  V30 31255 H 2918.22 0.362168 3.9434 0
M  V30 31256 H 2919.39 3.15977 3.35403 0
M  V30 31257 H 2917.7 2.73811 3.13714 0
M  V30 31258 H 2920.3 0.944562 5.26291 0
M  V30 31259 H 2920.64 -0.355152 4.14782 0
M  V30 31260 H 2921.18 1.29877 3.76001 0
M  V30 31261 H 2917.92 3.88081 5.28274 0
M  V30 31262 H 2917.44 2.19458 5.5821 0
M  V30 31263 H 2919.12 2.71235 5.87402 0
M  V30 31264 N 2919.25 -1.40821 0.707617 0
M  V30 31265 C 2920.2 -2.27985 0.0265409 0
M  V30 31266 C 2921.18 -1.42839 -0.74066 0
M  V30 31267 O 2922.37 -1.66003 -0.614171 0
M  V30 31268 C 2919.5 -3.31284 -0.900324 0
M  V30 31269 C 2918.59 -4.23905 -0.128733 0
M  V30 31270 N 2918.98 -4.98018 0.883831 0
M  V30 31271 C 2917.28 -4.44525 -0.362461 0
M  V30 31272 C 2917.98 -5.65895 1.34676 0
M  V30 31273 N 2916.95 -5.3945 0.670401 0
M  V30 31274 H 2920.76 -2.82725 0.802717 0
M  V30 31275 H 2918.27 -1.53177 0.539502 0
M  V30 31276 H 2920.27 -3.92565 -1.4035 0
M  V30 31277 H 2918.93 -2.78103 -1.67596 0
M  V30 31278 H 2919.94 -5.02227 1.26444 0
M  V30 31279 H 2916.62 -4.02334 -1.11505 0
M  V30 31280 H 2918.01 -6.35288 2.18767 0
M  V30 31281 N 2920.73 -0.453223 -1.50943 0
M  V30 31282 C 2921.97 0.107887 -2.02212 0
M  V30 31283 C 2922.3 1.41316 -1.33641 0
M  V30 31284 O 2921.56 1.90569 -0.445187 0
M  V30 31285 C 2921.85 0.357881 -3.55604 0
M  V30 31286 C 2921.52 -0.863505 -4.42554 0
M  V30 31287 C 2920.18 -1.19842 -4.66038 0
M  V30 31288 C 2922.53 -1.67755 -4.93465 0
M  V30 31289 C 2919.86 -2.34777 -5.37677 0
M  V30 31290 C 2922.21 -2.81803 -5.66365 0
M  V30 31291 C 2920.88 -3.1573 -5.88108 0
M  V30 31292 H 2920.15 0.0394786 -0.739948 0
M  V30 31293 H 2922.8 -0.603662 -1.81737 0
M  V30 31294 H 2921.1 1.15149 -3.74497 0
M  V30 31295 H 2922.8 0.805712 -3.92822 0
M  V30 31296 H 2919.39 -0.592553 -4.24484 0
M  V30 31297 H 2923.57 -1.432 -4.75192 0
M  V30 31298 H 2918.83 -2.61358 -5.52722 0
M  V30 31299 H 2923 -3.4524 -6.048 0
M  V30 31300 H 2920.63 -4.049 -6.43397 0
M  V30 31301 N 2922.2 1.56509 -0.185151 0
M  V30 31302 C 2923.43 2.02114 0.465242 0
M  V30 31303 C 2923.85 1.0645 1.55081 0
M  V30 31304 O 2923.21 0.0463171 1.81241 0
M  V30 31305 C 2923.26 3.46231 1.00778 0
M  V30 31306 O 2922.36 3.53667 2.12117 0
M  V30 31307 H 2921.7 0.654845 0.10988 0
M  V30 31308 H 2924.23 2.0249 -0.293108 0
M  V30 31309 H 2924.24 3.8582 1.32691 0
M  V30 31310 H 2922.92 4.15354 0.21304 0
M  V30 31311 H 2921.5 3.25946 1.81144 0
M  V30 31312 N 2923.68 -0.0885089 1.57351 0
M  V30 31313 C 2924.93 -0.789229 1.86053 0
M  V30 31314 C 2925.25 -1.78947 0.774795 0
M  V30 31315 O 2924.52 -1.94894 -0.19829 0
M  V30 31316 H 2923.1 -0.294462 0.686514 0
M  V30 31317 H 2925.76 -0.0685712 1.94779 0
M  V30 31318 H 2924.86 -1.31576 2.83009 0
M  V30 31319 N 2925.16 -1.53445 -0.359498 0
M  V30 31320 C 2926.11 -1.76692 -1.44096 0
M  V30 31321 C 2927.09 -0.621625 -1.48407 0
M  V30 31322 O 2928.29 -0.880495 -1.53546 0
M  V30 31323 C 2925.41 -1.9657 -2.81451 0
M  V30 31324 C 2924.5 -3.1712 -2.81595 0
M  V30 31325 N 2924.89 -4.38909 -2.51381 0
M  V30 31326 C 2923.19 -3.17965 -3.12753 0
M  V30 31327 C 2923.89 -5.20682 -2.59356 0
M  V30 31328 N 2922.87 -4.5703 -2.9432 0
M  V30 31329 H 2926.67 -2.68461 -1.19608 0
M  V30 31330 H 2924.18 -1.52153 -0.567735 0
M  V30 31331 H 2926.18 -2.11355 -3.59353 0
M  V30 31332 H 2924.84 -1.06034 -3.06899 0
M  V30 31333 H 2925.85 -4.66537 -2.24865 0
M  V30 31334 H 2922.53 -2.37342 -3.43475 0
M  V30 31335 H 2923.92 -6.27845 -2.3929 0
M  V30 31336 N 2926.64 0.619637 -1.44908 0
M  V30 31337 C 2927.88 1.38099 -1.48514 0
M  V30 31338 C 2928.22 1.93818 -0.12172 0
M  V30 31339 O 2927.49 1.74344 0.862226 0
M  V30 31340 C 2927.77 2.53782 -2.55473 0
M  V30 31341 C 2927.63 2.03338 -4.01215 0
M  V30 31342 C 2928.95 3.55945 -2.58827 0
M  V30 31343 H 2926.07 0.50079 -0.540721 0
M  V30 31344 H 2928.71 0.699589 -1.76651 0
M  V30 31345 H 2926.86 3.11911 -2.31611 0
M  V30 31346 H 2928.53 1.49951 -4.36248 0
M  V30 31347 H 2926.77 1.3443 -4.12445 0
M  V30 31348 H 2927.44 2.86675 -4.71722 0
M  V30 31349 H 2929.92 3.07636 -2.80177 0
M  V30 31350 H 2928.8 4.34393 -3.3555 0
M  V30 31351 H 2929.06 4.10772 -1.63458 0
M  V30 31352 N 2928.12 1.31997 0.861075 0
M  V30 31353 C 2929.36 1.22191 1.61479 0
M  V30 31354 C 2929.69 -0.217819 1.93276 0
M  V30 31355 O 2928.95 -1.16906 1.56944 0
M  V30 31356 C 2929.25 2.02032 2.94818 0
M  V30 31357 C 2928.91 3.51451 2.82477 0
M  V30 31358 C 2927.57 3.92191 2.78819 0
M  V30 31359 C 2929.93 4.46495 2.68871 0
M  V30 31360 C 2927.25 5.26228 2.59423 0
M  V30 31361 C 2929.61 5.80669 2.51012 0
M  V30 31362 C 2928.27 6.20618 2.45742 0
M  V30 31363 H 2927.54 0.44713 0.590894 0
M  V30 31364 H 2930.19 1.63356 0.999347 0
M  V30 31365 H 2928.49 1.53575 3.60447 0
M  V30 31366 H 2930.19 1.91819 3.52146 0
M  V30 31367 H 2926.78 3.1909 2.86146 0
M  V30 31368 H 2930.96 4.15945 2.70746 0
M  V30 31369 H 2926.22 5.56245 2.53775 0
M  V30 31370 H 2930.39 6.53935 2.39462 0
M  V30 31371 H 2928.02 7.24421 2.30472 0
M  V30 31372 N 2929.59 -1.07653 1.15103 0
M  V30 31373 C 2930.82 -1.83916 0.947763 0
M  V30 31374 C 2931.24 -1.81951 -0.503895 0
M  V30 31375 O 2930.59 -1.22873 -1.34939 0
M  V30 31376 C 2930.65 -3.3113 1.45035 0
M  V30 31377 O 2930.37 -3.33141 2.84514 0
M  V30 31378 C 2931.87 -4.24172 1.28814 0
M  V30 31379 H 2929.09 -0.580352 0.336797 0
M  V30 31380 H 2931.63 -1.35912 1.52801 0
M  V30 31381 H 2929.79 -3.76495 0.912698 0
M  V30 31382 H 2930.2 -4.25095 3.07237 0
M  V30 31383 H 2931.67 -5.25548 1.68829 0
M  V30 31384 H 2932.15 -4.38587 0.231928 0
M  V30 31385 H 2932.76 -3.8464 1.81472 0
M  V30 31386 N 2931.07 -0.947348 -1.25949 0
M  V30 31387 C 2932.32 -0.599098 -1.93749 0
M  V30 31388 C 2932.65 0.860602 -1.7409 0
M  V30 31389 O 2931.93 1.61652 -1.08161 0
M  V30 31390 C 2932.21 -0.949695 -3.47351 0
M  V30 31391 C 2932.06 -2.46459 -3.76269 0
M  V30 31392 C 2933.38 -0.469519 -4.37588 0
M  V30 31393 H 2930.5 -0.219127 -0.703671 0
M  V30 31394 H 2933.14 -1.18268 -1.48703 0
M  V30 31395 H 2931.29 -0.453076 -3.85849 0
M  V30 31396 H 2932.96 -3.03441 -3.4745 0
M  V30 31397 H 2931.21 -2.90543 -3.22129 0
M  V30 31398 H 2931.88 -2.66041 -4.83659 0
M  V30 31399 H 2934.35 -0.895412 -4.06352 0
M  V30 31400 H 2933.23 -0.743595 -5.4384 0
M  V30 31401 H 2933.49 0.630541 -4.3758 0
M  V30 31402 N 2932.55 1.40444 -0.715075 0
M  V30 31403 C 2933.97 1.54797 -0.388582 0
M  V30 31404 C 2934.17 1.68651 1.10268 0
M  V30 31405 O 2933.22 1.67582 1.88872 0
M  V30 31406 C 2934.54 2.77667 -1.15419 0
M  V30 31407 C 2936.08 2.91484 -1.14044 0
M  V30 31408 C 2936.56 4.17266 -1.8882 0
M  V30 31409 N 2938.05 4.24265 -1.85886 0
M  V30 31410 C 2938.78 5.20495 -2.40567 0
M  V30 31411 N 2938.28 6.22636 -3.03802 0
M  V30 31412 N 2940.07 5.1257 -2.30712 0
M  V30 31413 H 2932.22 1.29697 -1.68203 0
M  V30 31414 H 2934.49 0.627127 -0.710926 0
M  V30 31415 H 2934.19 2.73706 -2.20858 0
M  V30 31416 H 2934.07 3.6976 -0.745477 0
M  V30 31417 H 2936.45 2.94949 -0.0942515 0
M  V30 31418 H 2936.54 2.0051 -1.58837 0
M  V30 31419 H 2936.18 4.14562 -2.93429 0
M  V30 31420 H 2936.11 5.07248 -1.41447 0
M  V30 31421 H 2938.6 3.5109 -1.398 0
M  V30 31422 H 2938.91 6.92488 -3.43044 0
M  V30 31423 H 2937.26 6.23082 -3.07886 0
M  V30 31424 H 2940.45 4.31704 -1.80968 0
M  V30 31425 H 2940.62 5.87394 -2.73629 0
M  V30 31426 N 2934.03 0.461222 1.507 0
M  V30 31427 C 2934.98 -0.338054 2.28311 0
M  V30 31428 C 2935.95 -0.995933 1.3293 0
M  V30 31429 O 2937.13 -1.01027 1.61859 0
M  V30 31430 C 2934.27 -1.41977 3.14542 0
M  V30 31431 C 2933.38 -0.777655 4.24943 0
M  V30 31432 C 2932.52 -1.83643 4.98446 0
M  V30 31433 C 2931.56 -1.17403 6.00735 0
M  V30 31434 N 2930.69 -2.17522 6.67554 0
M  V30 31435 H 2935.53 0.330103 2.96166 0
M  V30 31436 H 2933.07 0.174637 1.4606 0
M  V30 31437 H 2935.03 -2.05848 3.62881 0
M  V30 31438 H 2933.66 -2.05723 2.48753 0
M  V30 31439 H 2932.71 -0.0266256 3.80391 0
M  V30 31440 H 2934.02 -0.254275 4.98151 0
M  V30 31441 H 2933.18 -2.55119 5.50454 0
M  V30 31442 H 2931.92 -2.3936 4.24921 0
M  V30 31443 H 2930.92 -0.444848 5.47997 0
M  V30 31444 H 2932.15 -0.623887 6.76228 0
M  V30 31445 H 2930.09 -2.72274 5.96827 0
M  V30 31446 H 2930.01 -1.70142 7.36606 0
M  V30 31447 H 2931.28 -2.88408 7.24183 0
M  V30 31448 N 2935.51 -1.56408 0.193449 0
M  V30 31449 C 2936.45 -2.19015 -0.728085 0
M  V30 31450 C 2937.42 -1.13688 -1.21096 0
M  V30 31451 O 2938.61 -1.41932 -1.27515 0
M  V30 31452 C 2935.75 -2.85224 -1.94272 0
M  V30 31453 C 2934.86 -4.05072 -1.50136 0
M  V30 31454 C 2934 -4.59142 -2.67137 0
M  V30 31455 C 2933.04 -5.71352 -2.19599 0
M  V30 31456 N 2932.17 -6.19835 -3.29772 0
M  V30 31457 H 2937.01 -2.9741 -0.187447 0
M  V30 31458 H 2934.55 -1.46878 -0.0807806 0
M  V30 31459 H 2936.51 -3.21779 -2.65545 0
M  V30 31460 H 2935.14 -2.09395 -2.4567 0
M  V30 31461 H 2934.19 -3.7419 -0.684558 0
M  V30 31462 H 2935.5 -4.86234 -1.11258 0
M  V30 31463 H 2934.66 -4.97994 -3.46535 0
M  V30 31464 H 2933.39 -3.77084 -3.09288 0
M  V30 31465 H 2932.4 -5.32029 -1.38654 0
M  V30 31466 H 2933.62 -6.55226 -1.78481 0
M  V30 31467 H 2931.57 -5.40699 -3.71457 0
M  V30 31468 H 2931.49 -6.96044 -2.95057 0
M  V30 31469 H 2932.76 -6.63341 -4.09389 0
M  V30 31470 N 2936.98 0.0801629 -1.57396 0
M  V30 31471 C 2937.89 1.11419 -2.06453 0
M  V30 31472 C 2938.91 1.42926 -0.992377 0
M  V30 31473 O 2940.09 1.5327 -1.30653 0
M  V30 31474 C 2937.15 2.41073 -2.49168 0
M  V30 31475 C 2936.21 2.16613 -3.70644 0
M  V30 31476 C 2935.45 3.40085 -4.11313 0
M  V30 31477 O 2935.67 4.48889 -3.5193 0
M  V30 31478 O 2934.6 3.28791 -5.04163 0
M  V30 31479 H 2938.43 0.727467 -2.94859 0
M  V30 31480 H 2936.01 0.293717 -1.46484 0
M  V30 31481 H 2937.9 3.17391 -2.77202 0
M  V30 31482 H 2936.57 2.79142 -1.63895 0
M  V30 31483 H 2935.48 1.38027 -3.47706 0
M  V30 31484 H 2936.81 1.83429 -4.56743 0
M  V30 31485 N 2938.46 1.53634 0.351355 0
M  V30 31486 C 2939.37 1.84055 1.45468 0
M  V30 31487 C 2940.39 0.730043 1.57944 0
M  V30 31488 O 2941.56 1.02156 1.73569 0
M  V30 31489 C 2938.63 2.03686 2.80558 0
M  V30 31490 C 2937.69 3.27563 2.77491 0
M  V30 31491 C 2936.92 3.46248 4.06138 0
M  V30 31492 O 2937.15 2.68931 5.03023 0
M  V30 31493 O 2936.08 4.39652 4.11084 0
M  V30 31494 H 2939.91 2.77819 1.2268 0
M  V30 31495 H 2937.49 1.39191 0.542802 0
M  V30 31496 H 2939.37 2.18089 3.60576 0
M  V30 31497 H 2938.05 1.13111 3.03294 0
M  V30 31498 H 2936.96 3.18571 1.96121 0
M  V30 31499 H 2938.29 4.18105 2.59709 0
M  V30 31500 N 2939.94 -0.611943 1.45234 0
M  V30 31501 C 2941.17 -1.39578 1.5232 0
M  V30 31502 C 2941.58 -1.88579 0.153126 0
M  V30 31503 O 2940.92 -1.62602 -0.854763 0
M  V30 31504 C 2940.98 -2.63771 2.44265 0
M  V30 31505 C 2940.65 -2.36438 3.91083 0
M  V30 31506 C 2941.64 -1.9707 4.81102 0
M  V30 31507 C 2939.33 -2.49484 4.35962 0
M  V30 31508 C 2941.32 -1.71104 6.14005 0
M  V30 31509 C 2939.01 -2.23132 5.68907 0
M  V30 31510 C 2940.01 -1.84003 6.57748 0
M  V30 31511 O 2939.7 -1.57956 7.88229 0
M  V30 31512 H 2939.43 -0.433821 0.518435 0
M  V30 31513 H 2941.98 -0.753803 1.91068 0
M  V30 31514 H 2940.21 -3.30673 2.0048 0
M  V30 31515 H 2941.9 -3.25808 2.42083 0
M  V30 31516 H 2942.67 -1.86531 4.47695 0
M  V30 31517 H 2938.55 -2.78908 3.67058 0
M  V30 31518 H 2942.09 -1.40488 6.83307 0
M  V30 31519 H 2937.99 -2.33287 6.0187 0
M  V30 31520 H 2938.76 -1.72044 8.00214 0
M  V30 31521 N 2941.42 -1.32452 -0.854063 0
M  V30 31522 C 2942.37 -1.21438 -1.96269 0
M  V30 31523 C 2943.34 -0.0964142 -1.6582 0
M  V30 31524 O 2944.52 -0.272063 -1.8885 0
M  V30 31525 C 2941.66 -0.94401 -3.31937 0
M  V30 31526 C 2940.77 -2.14682 -3.74881 0
M  V30 31527 C 2939.91 -1.81188 -4.99344 0
M  V30 31528 C 2938.95 -2.97786 -5.3478 0
M  V30 31529 N 2938.08 -2.64382 -6.5042 0
M  V30 31530 H 2942.92 -2.16264 -2.05021 0
M  V30 31531 H 2940.46 -1.07559 -1.00346 0
M  V30 31532 H 2942.42 -0.767747 -4.10075 0
M  V30 31533 H 2941.05 -0.032533 -3.22784 0
M  V30 31534 H 2940.1 -2.43333 -2.92392 0
M  V30 31535 H 2941.41 -3.01898 -3.97063 0
M  V30 31536 H 2940.57 -1.60117 -5.8519 0
M  V30 31537 H 2939.31 -0.911861 -4.791 0
M  V30 31538 H 2938.31 -3.19488 -4.47445 0
M  V30 31539 H 2939.54 -3.88521 -5.56981 0
M  V30 31540 H 2937.48 -1.76921 -6.31692 0
M  V30 31541 H 2937.4 -3.45128 -6.72624 0
M  V30 31542 H 2938.67 -2.46742 -7.39418 0
M  V30 31543 N 2942.9 1.07041 -1.15672 0
M  V30 31544 C 2943.83 2.13721 -0.799905 0
M  V30 31545 C 2944.81 1.61035 0.22507 0
M  V30 31546 O 2945.99 1.88174 0.110897 0
M  V30 31547 C 2943.12 3.38166 -0.190029 0
M  V30 31548 C 2942.17 4.09638 -1.1874 0
M  V30 31549 S 2943 4.60637 -2.73082 0
M  V30 31550 C 2944.15 5.88353 -2.13523 0
M  V30 31551 H 2944.39 2.43658 -1.70346 0
M  V30 31552 H 2941.92 1.19361 -0.979398 0
M  V30 31553 H 2943.88 4.10206 0.155399 0
M  V30 31554 H 2942.54 3.06401 0.691175 0
M  V30 31555 H 2941.73 4.98989 -0.708961 0
M  V30 31556 H 2941.33 3.43577 -1.47753 0
M  V30 31557 H 2943.63 6.60704 -1.49923 0
M  V30 31558 H 2944.57 6.40915 -3.01053 0
M  V30 31559 H 2944.98 5.42024 -1.57703 0
M  V30 31560 N 2944.38 0.954014 1.25445 0
M  V30 31561 C 2945.34 0.478219 2.24156 0
M  V30 31562 C 2946.34 -0.417749 1.55279 0
M  V30 31563 O 2947.53 -0.215124 1.72867 0
M  V30 31564 C 2944.66 -0.309142 3.39495 0
M  V30 31565 H 2945.85 1.35069 2.67762 0
M  V30 31566 H 2943.41 0.737231 1.37821 0
M  V30 31567 H 2944.14 -1.19931 3.01309 0
M  V30 31568 H 2943.93 0.333631 3.90678 0
M  V30 31569 H 2945.42 -0.631521 4.12797 0
M  V30 31570 N 2945.85 -1.40063 0.722513 0
M  V30 31571 C 2946.78 -2.33329 0.0892862 0
M  V30 31572 C 2947.76 -1.53258 -0.737965 0
M  V30 31573 O 2948.95 -1.817 -0.685484 0
M  V30 31574 C 2946.08 -3.37283 -0.828079 0
M  V30 31575 C 2945.03 -4.27869 -0.10593 0
M  V30 31576 C 2944.36 -5.22417 -1.13948 0
M  V30 31577 C 2945.66 -5.11759 1.04404 0
M  V30 31578 H 2947.35 -2.86532 0.868319 0
M  V30 31579 H 2944.9 -1.37769 0.419006 0
M  V30 31580 H 2946.85 -4.01473 -1.28051 0
M  V30 31581 H 2945.58 -2.82492 -1.63909 0
M  V30 31582 H 2944.24 -3.65141 0.326747 0
M  V30 31583 H 2943.88 -4.63927 -1.94372 0
M  V30 31584 H 2943.58 -5.83869 -0.661131 0
M  V30 31585 H 2945.11 -5.89485 -1.59187 0
M  V30 31586 H 2946.52 -5.69364 0.670641 0
M  V30 31587 H 2944.92 -5.82289 1.4512 0
M  V30 31588 H 2945.99 -4.47328 1.87152 0
M  V30 31589 N 2947.33 -0.469207 -1.50453 0
M  V30 31590 C 2948.56 0.084055 -2.06429 0
M  V30 31591 C 2948.97 1.34225 -1.33343 0
M  V30 31592 O 2948.31 1.79388 -0.395688 0
M  V30 31593 C 2948.37 0.439987 -3.56797 0
M  V30 31594 C 2948.04 -0.715918 -4.51358 0
M  V30 31595 C 2949.04 -1.5974 -4.94752 0
M  V30 31596 C 2946.72 -0.905708 -4.94067 0
M  V30 31597 C 2948.71 -2.6531 -5.7956 0
M  V30 31598 C 2946.4 -1.96463 -5.78658 0
M  V30 31599 C 2947.4 -2.83669 -6.21306 0
M  V30 31600 O 2947.09 -3.87739 -7.04211 0
M  V30 31601 H 2946.82 -0.00290939 -0.675994 0
M  V30 31602 H 2949.37 -0.656452 -1.94628 0
M  V30 31603 H 2947.6 1.23365 -3.66494 0
M  V30 31604 H 2949.29 0.928112 -3.95147 0
M  V30 31605 H 2950.06 -1.46245 -4.62425 0
M  V30 31606 H 2945.94 -0.236407 -4.60393 0
M  V30 31607 H 2949.48 -3.33408 -6.12768 0
M  V30 31608 H 2945.38 -2.09966 -6.10397 0
M  V30 31609 H 2946.15 -3.84704 -7.22457 0
M  V30 31610 N 2948.81 1.56303 -0.201741 0
M  V30 31611 C 2949.76 2.20745 0.733094 0
M  V30 31612 C 2950.75 1.18066 1.21478 0
M  V30 31613 O 2951.96 1.36195 1.1769 0
M  V30 31614 H 2948.33 0.707526 0.254777 0
M  V30 31615 H 2950.3 2.97938 0.165944 0
M  V30 31616 C 2949.05 2.886 1.9392 0
M  V30 31617 H 2948.38 3.67356 1.57764 0
M  V30 31618 H 2949.82 3.37118 2.57152 0
M  V30 31619 C 2948.27 1.89993 2.78216 0
M  V30 31620 O 2948.8 1.40439 3.76351 0
M  V30 31621 N 2947.01 1.58077 2.43845 0
M  V30 31622 H 2946.56 1.98568 1.64099 0
M  V30 31623 H 2946.52 0.923577 3.00529 0
M  V30 31624 N 2950.29 -0.0718147 1.57436 0
M  V30 31625 C 2951.22 -1.08567 2.06726 0
M  V30 31626 C 2952.2 -1.40369 0.960756 0
M  V30 31627 O 2953.38 -1.49997 1.23348 0
M  V30 31628 C 2950.51 -2.39912 2.51117 0
M  V30 31629 C 2949.47 -2.22462 3.65643 0
M  V30 31630 C 2948.79 -3.59191 3.96089 0
M  V30 31631 C 2950.09 -1.64587 4.9569 0
M  V30 31632 H 2951.79 -0.675518 2.9168 0
M  V30 31633 H 2949.33 -0.323496 1.40319 0
M  V30 31634 H 2951.29 -3.1113 2.84211 0
M  V30 31635 H 2950.01 -2.82907 1.63191 0
M  V30 31636 H 2948.67 -1.53685 3.32831 0
M  V30 31637 H 2948.32 -3.99756 3.05294 0
M  V30 31638 H 2948.02 -3.48354 4.73205 0
M  V30 31639 H 2949.54 -4.31839 4.31679 0
M  V30 31640 H 2950.96 -2.25671 5.27015 0
M  V30 31641 H 2949.35 -1.64447 5.77128 0
M  V30 31642 H 2950.42 -0.607355 4.81081 0
M  V30 31643 N 2951.77 -1.53818 -0.343203 0
M  V30 31644 C 2953 -1.74765 -1.10185 0
M  V30 31645 C 2953.4 -0.486889 -1.82828 0
M  V30 31646 O 2952.75 0.551167 -1.75237 0
M  V30 31647 C 2952.81 -2.87379 -2.15995 0
M  V30 31648 C 2952.47 -4.26972 -1.62924 0
M  V30 31649 C 2953.47 -5.08529 -1.08138 0
M  V30 31650 C 2951.15 -4.73457 -1.6776 0
M  V30 31651 C 2953.15 -6.34673 -0.588927 0
M  V30 31652 C 2950.84 -5.99574 -1.18127 0
M  V30 31653 C 2951.83 -6.80015 -0.63786 0
M  V30 31654 O 2951.52 -8.03762 -0.148931 0
M  V30 31655 H 2951.25 -0.587475 -0.334439 0
M  V30 31656 H 2953.81 -2.01446 -0.401073 0
M  V30 31657 H 2952.04 -2.56223 -2.89632 0
M  V30 31658 H 2953.73 -2.96292 -2.77427 0
M  V30 31659 H 2954.49 -4.73779 -1.03723 0
M  V30 31660 H 2950.37 -4.10903 -2.08997 0
M  V30 31661 H 2953.92 -6.97407 -0.16411 0
M  V30 31662 H 2949.81 -6.33819 -1.22243 0
M  V30 31663 H 2950.58 -8.18067 -0.266188 0
M  V30 31664 N 2953.24 0.604233 -1.45557 0
M  V30 31665 C 2954.65 1.18621 -1.44173 0
M  V30 31666 C 2955.01 1.95452 -0.171115 0
M  V30 31667 O 2954.13 2.03818 0.72712 0
M  V30 31668 C 2954.73 2.15782 -2.61197 0
M  V30 31669 C 2953.28 2.69349 -2.62922 0
M  V30 31670 C 2952.43 1.44816 -2.36482 0
M  V30 31671 H 2955.38 0.393354 -1.53748 0
M  V30 31672 H 2955.4 2.98875 -2.35487 0
M  V30 31673 H 2954.92 1.59835 -3.53659 0
M  V30 31674 H 2953.02 3.29225 -1.74475 0
M  V30 31675 H 2953.13 3.13553 -3.62245 0
M  V30 31676 H 2951.49 1.73887 -1.86106 0
M  V30 31677 H 2952.28 0.907318 -3.31093 0
M  V30 31678 N 2954.72 1.32903 0.847027 0
M  V30 31679 C 2955.97 1.23652 1.59858 0
M  V30 31680 C 2956.29 -0.199754 1.93974 0
M  V30 31681 O 2955.56 -1.12645 1.60275 0
M  V30 31682 H 2954.14 0.454676 0.592688 0
M  V30 31683 H 2956.8 1.66521 1.01275 0
M  V30 31684 H 2955.9 1.82452 2.53214 0
M  V30 31685 N 2956.2 -1.06426 1.16238 0
M  V30 31686 C 2957.45 -1.79465 0.944462 0
M  V30 31687 C 2957.78 -1.86926 -0.526525 0
M  V30 31688 O 2957.05 -1.35988 -1.39059 0
M  V30 31689 C 2957.34 -3.24025 1.57097 0
M  V30 31690 C 2957.19 -3.24653 3.11321 0
M  V30 31691 C 2958.51 -4.21542 1.26454 0
M  V30 31692 H 2955.63 -0.651511 0.344533 0
M  V30 31693 H 2958.27 -1.24475 1.43548 0
M  V30 31694 H 2956.42 -3.70983 1.15343 0
M  V30 31695 H 2958.09 -2.85867 3.62047 0
M  V30 31696 H 2956.33 -2.63344 3.44721 0
M  V30 31697 H 2957.01 -4.26627 3.50277 0
M  V30 31698 H 2959.48 -3.8302 1.62588 0
M  V30 31699 H 2958.36 -5.2096 1.72894 0
M  V30 31700 H 2958.62 -4.4172 0.183146 0
M  V30 31701 N 2957.68 -0.960653 -1.24937 0
M  V30 31702 C 2958.93 -0.618697 -1.92817 0
M  V30 31703 C 2959.25 0.845142 -1.75179 0
M  V30 31704 O 2958.51 1.62256 -1.09414 0
M  V30 31705 C 2958.81 -0.93087 -3.45065 0
M  V30 31706 C 2958.47 -2.38171 -3.82865 0
M  V30 31707 C 2957.14 -2.77827 -3.92894 0
M  V30 31708 C 2959.49 -3.32364 -4.01477 0
M  V30 31709 C 2956.82 -4.10731 -4.18948 0
M  V30 31710 C 2959.17 -4.64887 -4.29025 0
M  V30 31711 C 2957.83 -5.0433 -4.37273 0
M  V30 31712 H 2957.1 -0.226397 -0.705567 0
M  V30 31713 H 2959.75 -1.21082 -1.48362 0
M  V30 31714 H 2958.05 -0.256424 -3.9096 0
M  V30 31715 H 2959.75 -0.644782 -3.95782 0
M  V30 31716 H 2956.34 -2.06419 -3.75618 0
M  V30 31717 H 2960.52 -3.02914 -3.93137 0
M  V30 31718 H 2955.78 -4.40925 -4.2355 0
M  V30 31719 H 2959.95 -5.37848 -4.42372 0
M  V30 31720 H 2957.58 -6.07338 -4.57214 0
M  V30 31721 N 2959.16 1.39677 -0.729931 0
M  V30 31722 C 2960.07 2.34435 -0.0880735 0
M  V30 31723 C 2961.08 1.58055 0.727647 0
M  V30 31724 O 2962.26 1.90373 0.657287 0
M  V30 31725 C 2959.32 3.37053 0.812152 0
M  V30 31726 C 2958.38 4.29297 -0.0152435 0
M  V30 31727 C 2957.62 5.27014 0.842109 0
M  V30 31728 O 2957.84 5.31085 2.08098 0
M  V30 31729 O 2956.77 6.01278 0.273465 0
M  V30 31730 H 2960.6 2.90971 -0.87004 0
M  V30 31731 H 2958.19 1.41117 -0.490547 0
M  V30 31732 H 2960.07 3.99948 1.32738 0
M  V30 31733 H 2958.74 2.8291 1.57302 0
M  V30 31734 H 2957.65 3.69641 -0.575876 0
M  V30 31735 H 2958.98 4.86633 -0.738215 0
M  V30 31736 N 2960.63 0.47718 1.50202 0
M  V30 31737 C 2961.86 -0.0732126 2.0677 0
M  V30 31738 C 2962.28 -1.32966 1.34035 0
M  V30 31739 O 2961.63 -1.77802 0.411444 0
M  V30 31740 C 2961.69 -0.355117 3.59752 0
M  V30 31741 O 2961.41 0.8515 4.29745 0
M  V30 31742 C 2962.91 -0.951801 4.32961 0
M  V30 31743 H 2960.13 0.00980103 0.670928 0
M  V30 31744 H 2962.67 0.66771 1.93292 0
M  V30 31745 H 2960.83 -1.04598 3.73012 0
M  V30 31746 H 2961.24 0.599799 5.21059 0
M  V30 31747 H 2962.71 -1.09878 5.40954 0
M  V30 31748 H 2963.19 -1.94349 3.93859 0
M  V30 31749 H 2963.8 -0.299134 4.24247 0
M  V30 31750 N 2962.11 -1.56194 0.210027 0
M  V30 31751 C 2963.36 -1.98288 -0.425407 0
M  V30 31752 C 2963.69 -1.09727 -1.6023 0
M  V30 31753 O 2962.97 -0.152448 -1.93902 0
M  V30 31754 C 2963.25 -3.49404 -0.871127 0
M  V30 31755 C 2963.1 -4.4874 0.308606 0
M  V30 31756 C 2964.42 -4.04612 -1.73139 0
M  V30 31757 H 2961.54 -0.720911 -0.153157 0
M  V30 31758 H 2964.18 -1.87553 0.303949 0
M  V30 31759 H 2962.33 -3.58683 -1.4926 0
M  V30 31760 H 2964 -4.51484 0.946567 0
M  V30 31761 H 2962.25 -4.23091 0.957952 0
M  V30 31762 H 2962.92 -5.51981 -0.0460172 0
M  V30 31763 H 2965.39 -3.98206 -1.20713 0
M  V30 31764 H 2964.27 -5.10688 -2.01219 0
M  V30 31765 H 2964.53 -3.50785 -2.69077 0
M  V30 31766 N 2963.59 0.0634645 -1.57472 0
M  V30 31767 C 2964.5 1.09223 -2.07623 0
M  V30 31768 C 2965.52 1.41866 -1.00748 0
M  V30 31769 O 2966.69 1.51875 -1.32272 0
M  V30 31770 C 2963.76 2.38417 -2.51711 0
M  V30 31771 C 2962.82 2.1267 -3.72921 0
M  V30 31772 C 2962.05 3.35703 -4.14897 0
M  V30 31773 O 2962.27 4.45131 -3.56671 0
M  V30 31774 O 2961.21 3.23425 -5.07622 0
M  V30 31775 H 2965.03 0.696153 -2.95614 0
M  V30 31776 H 2962.62 0.278164 -1.46788 0
M  V30 31777 H 2964.5 3.14433 -2.80553 0
M  V30 31778 H 2963.18 2.77388 -1.66847 0
M  V30 31779 H 2962.08 1.34331 -3.4915 0
M  V30 31780 H 2963.42 1.78574 -4.58663 0
M  V30 31781 N 2965.07 1.53998 0.33504 0
M  V30 31782 C 2966 1.7741 1.4353 0
M  V30 31783 C 2966.98 0.623555 1.50168 0
M  V30 31784 O 2968.16 0.859689 1.67755 0
M  V30 31785 C 2965.29 1.88038 2.81708 0
M  V30 31786 C 2964.34 3.1025 2.92656 0
M  V30 31787 S 2965.17 4.69115 2.58246 0
M  V30 31788 C 2966.33 4.82634 3.98517 0
M  V30 31789 H 2966.56 2.70455 1.23456 0
M  V30 31790 H 2964.09 1.44974 0.531209 0
M  V30 31791 H 2966.05 1.94846 3.6131 0
M  V30 31792 H 2964.71 0.959901 2.99073 0
M  V30 31793 H 2963.9 3.14386 3.93926 0
M  V30 31794 H 2963.51 3.01712 2.21012 0
M  V30 31795 H 2965.8 4.64565 4.93138 0
M  V30 31796 H 2966.74 5.8473 3.9937 0
M  V30 31797 H 2967.15 4.11023 3.86937 0
M  V30 31798 N 2966.55 -0.596505 1.45875 0
M  V30 31799 C 2967.48 -1.71702 1.58243 0
M  V30 31800 C 2968.46 -1.64486 0.433395 0
M  V30 31801 O 2969.64 -1.82716 0.657927 0
M  V30 31802 C 2966.77 -3.10326 1.55932 0
M  V30 31803 C 2965.73 -3.32362 2.69665 0
M  V30 31804 C 2965.05 -4.71373 2.52412 0
M  V30 31805 C 2966.35 -3.21536 4.11597 0
M  V30 31806 H 2968.05 -1.61608 2.52038 0
M  V30 31807 H 2965.59 -0.776061 1.21298 0
M  V30 31808 H 2967.55 -3.88523 1.6318 0
M  V30 31809 H 2966.27 -3.21287 0.586731 0
M  V30 31810 H 2964.93 -2.5656 2.61864 0
M  V30 31811 H 2964.58 -4.79081 1.53267 0
M  V30 31812 H 2964.28 -4.87071 3.28687 0
M  V30 31813 H 2965.8 -5.51756 2.6153 0
M  V30 31814 H 2967.21 -3.89594 4.20582 0
M  V30 31815 H 2965.61 -3.48761 4.8835 0
M  V30 31816 H 2966.68 -2.18812 4.32723 0
M  V30 31817 N 2968.02 -1.3335 -0.839967 0
M  V30 31818 C 2969.44 -1.22218 -1.41137 0
M  V30 31819 C 2969.79 0.159364 -1.95552 0
M  V30 31820 O 2968.91 1.0589 -1.88723 0
M  V30 31821 C 2969.51 -2.21274 -2.56561 0
M  V30 31822 C 2968.07 -2.13985 -3.09657 0
M  V30 31823 C 2967.21 -2.08821 -1.82453 0
M  V30 31824 H 2970.16 -1.44965 -0.645828 0
M  V30 31825 H 2970.18 -1.81982 -3.3416 0
M  V30 31826 H 2969.7 -3.21815 -2.16926 0
M  V30 31827 H 2967.8 -1.16742 -3.53839 0
M  V30 31828 H 2967.91 -3.04479 -3.69905 0
M  V30 31829 H 2966.27 -1.5428 -2.02657 0
M  V30 31830 H 2967.06 -3.11168 -1.45016 0
M  V30 31831 N 2969.5 1.05808 -1.16801 0
M  V30 31832 C 2970.73 1.82923 -0.977435 0
M  V30 31833 C 2971.15 1.82147 0.469482 0
M  V30 31834 O 2970.51 1.22588 1.33574 0
M  V30 31835 C 2970.56 3.27208 -1.51549 0
M  V30 31836 O 2969.66 4.05976 -0.725093 0
M  V30 31837 H 2969 0.565819 -0.347484 0
M  V30 31838 H 2971.53 1.33374 -1.55154 0
M  V30 31839 H 2971.54 3.7802 -1.53508 0
M  V30 31840 H 2970.22 3.27088 -2.56877 0
M  V30 31841 H 2968.8 3.64728 -0.776404 0
M  V30 31842 N 2970.98 0.967265 1.24426 0
M  V30 31843 C 2971.93 0.496459 2.25397 0
M  V30 31844 C 2972.9 -0.457753 1.59668 0
M  V30 31845 O 2974.08 -0.368213 1.87213 0
M  V30 31846 C 2971.22 -0.207633 3.44475 0
M  V30 31847 C 2970.34 0.785296 4.24802 0
M  V30 31848 C 2969.47 0.0573564 5.31169 0
M  V30 31849 C 2968.51 1.04038 6.03194 0
M  V30 31850 N 2967.65 0.342473 7.01264 0
M  V30 31851 H 2972.49 1.36233 2.65037 0
M  V30 31852 H 2970.02 0.682925 1.30286 0
M  V30 31853 H 2971.98 -0.632539 4.12377 0
M  V30 31854 H 2970.61 -1.03746 3.05674 0
M  V30 31855 H 2969.66 1.32864 3.56442 0
M  V30 31856 H 2970.98 1.53492 4.74596 0
M  V30 31857 H 2970.13 -0.425567 6.05206 0
M  V30 31858 H 2968.87 -0.724963 4.82282 0
M  V30 31859 H 2967.87 1.53418 5.27961 0
M  V30 31860 H 2969.1 1.82314 6.5417 0
M  V30 31861 H 2967.04 -0.420878 6.54648 0
M  V30 31862 H 2966.96 1.03097 7.48937 0
M  V30 31863 H 2968.23 -0.118497 7.7941 0
M  V30 31864 N 2972.46 -1.39288 0.737328 0
M  V30 31865 C 2973.42 -2.28948 0.10735 0
M  V30 31866 C 2974.42 -1.46419 -0.66469 0
M  V30 31867 O 2975.61 -1.67068 -0.493363 0
M  V30 31868 C 2972.74 -3.2995 -0.857087 0
M  V30 31869 H 2973.94 -2.86162 0.897301 0
M  V30 31870 H 2971.49 -1.47975 0.503305 0
M  V30 31871 H 2972.23 -2.77796 -1.67331 0
M  V30 31872 H 2972.01 -3.90903 -0.306098 0
M  V30 31873 H 2973.5 -3.97034 -1.29437 0
M  V30 31874 N 2973.94 -0.485139 -1.49947 0
M  V30 31875 C 2975.19 0.064842 -2.01996 0
M  V30 31876 C 2975.51 1.38942 -1.36821 0
M  V30 31877 O 2974.78 1.88922 -0.518196 0
M  V30 31878 H 2973.36 0.0269531 -0.746514 0
M  V30 31879 H 2976.02 -0.638765 -1.84135 0
M  V30 31880 H 2975.11 0.206116 -3.11419 0
M  V30 31881 N 2975.42 1.56081 -0.218307 0
M  V30 31882 C 2976.66 1.97393 0.414609 0
M  V30 31883 C 2976.98 1.1089 1.6113 0
M  V30 31884 O 2978.18 1.42086 2.31352 0
M  V30 31885 C 2976.64 3.51144 0.789037 0
M  V30 31886 C 2976.25 4.46346 -0.384657 0
M  V30 31887 C 2977.99 4.01176 1.38774 0
M  V30 31888 C 2975.9 5.91399 0.0120248 0
M  V30 31889 H 2974.83 0.737114 0.158678 0
M  V30 31890 H 2977.48 1.80793 -0.314006 0
M  V30 31891 H 2975.86 3.63332 1.57498 0
M  V30 31892 H 2977.04 4.45903 -1.1622 0
M  V30 31893 H 2975.35 4.06637 -0.896378 0
M  V30 31894 H 2977.95 5.07044 1.69738 0
M  V30 31895 H 2978.29 3.46837 2.30239 0
M  V30 31896 H 2978.82 3.92197 0.665295 0
M  V30 31897 H 2975.56 6.49714 -0.869031 0
M  V30 31898 H 2975.08 5.95043 0.753948 0
M  V30 31899 H 2976.76 6.45503 0.439836 0
M  V30 31900 N 2976.89 -0.0551124 1.57504 0
M  V30 31901 C 2978.14 -0.746847 1.89192 0
M  V30 31902 C 2978.49 -1.74334 0.813967 0
M  V30 31903 O 2977.79 -1.90751 -0.180183 0
M  V30 31904 C 2977.98 -1.48007 3.25313 0
M  V30 31905 C 2977.81 -0.556097 4.46248 0
M  V30 31906 C 2976.58 -0.186802 5.04955 0
M  V30 31907 C 2978.78 0.154385 5.14068 0
M  V30 31908 N 2976.76 0.741148 6.0941 0
M  V30 31909 C 2978.13 0.938917 6.12849 0
M  V30 31910 C 2980.19 0.224094 4.97395 0
M  V30 31911 C 2978.89 1.78671 6.96756 0
M  V30 31912 C 2980.92 1.05891 5.81843 0
M  V30 31913 C 2980.28 1.83145 6.80175 0
M  V30 31914 H 2976.38 -0.2482 0.741567 0
M  V30 31915 H 2978.96 -0.00774312 1.94698 0
M  V30 31916 H 2977.13 -2.18979 3.20785 0
M  V30 31917 H 2978.86 -2.12213 3.44598 0
M  V30 31918 H 2975.62 -0.543332 4.70473 0
M  V30 31919 H 2976.04 1.19886 6.663 0
M  V30 31920 H 2980.68 -0.35885 4.21274 0
M  V30 31921 H 2978.4 2.38056 7.7224 0
M  V30 31922 H 2981.99 1.11605 5.70995 0
M  V30 31923 H 2980.87 2.467 7.44385 0
M  V30 31924 N 2978.37 -1.54173 -0.326869 0
M  V30 31925 C 2979.79 -1.44809 -0.671008 0
M  V30 31926 C 2979.99 -0.618291 -1.9178 0
M  V30 31927 O 2979.04 -0.115795 -2.52234 0
M  V30 31928 C 2980.36 -2.88492 -0.848097 0
M  V30 31929 C 2981.9 -2.98373 -0.94565 0
M  V30 31930 C 2982.38 -4.43199 -1.15493 0
M  V30 31931 N 2983.87 -4.46797 -1.22175 0
M  V30 31932 C 2984.61 -5.56009 -1.4015 0
M  V30 31933 N 2984.1 -6.75195 -1.5519 0
M  V30 31934 N 2985.89 -5.4365 -1.42832 0
M  V30 31935 H 2978.05 -2.06607 0.492657 0
M  V30 31936 H 2980.31 -0.934641 0.15859 0
M  V30 31937 H 2980.01 -3.517 -0.00323787 0
M  V30 31938 H 2979.89 -3.34414 -1.74491 0
M  V30 31939 H 2982.28 -2.35295 -1.78102 0
M  V30 31940 H 2982.36 -2.55787 -0.0253766 0
M  V30 31941 H 2982 -5.06863 -0.324432 0
M  V30 31942 H 2981.93 -4.83391 -2.08903 0
M  V30 31943 H 2984.42 -3.60919 -1.12009 0
M  V30 31944 H 2984.73 -7.54187 -1.68588 0
M  V30 31945 H 2983.08 -6.78109 -1.52294 0
M  V30 31946 H 2986.27 -4.4949 -1.30675 0
M  V30 31947 H 2986.44 -6.28818 -1.56498 0
M  V30 31948 N 2979.85 0.58876 -1.4619 0
M  V30 31949 C 2981.1 1.34918 -1.5141 0
M  V30 31950 C 2981.43 1.93516 -0.162805 0
M  V30 31951 O 2980.7 1.76134 0.825051 0
M  V30 31952 C 2980.99 2.48306 -2.60799 0
M  V30 31953 C 2980.84 1.94782 -4.05438 0
M  V30 31954 C 2982.16 3.50375 -2.66319 0
M  V30 31955 H 2979.28 0.489207 -0.551221 0
M  V30 31956 H 2981.92 0.661961 -1.78096 0
M  V30 31957 H 2980.07 3.06928 -2.38175 0
M  V30 31958 H 2981.74 1.40664 -4.39331 0
M  V30 31959 H 2979.98 1.25651 -4.15204 0
M  V30 31960 H 2980.66 2.76605 -4.77696 0
M  V30 31961 H 2983.13 3.01624 -2.8664 0
M  V30 31962 H 2982.01 4.27178 -3.44688 0
M  V30 31963 H 2982.27 4.07213 -1.72134 0
M  V30 31964 N 2981.33 1.33794 0.832883 0
M  V30 31965 C 2982.24 1.26595 1.97511 0
M  V30 31966 C 2983.25 0.175421 1.73113 0
M  V30 31967 O 2984.43 0.400097 1.97386 0
M  V30 31968 C 2981.49 1.01127 3.31624 0
M  V30 31969 C 2980.56 2.1924 3.69097 0
M  V30 31970 C 2979.79 1.94977 4.96809 0
M  V30 31971 O 2980.01 0.903054 5.63206 0
M  V30 31972 O 2978.95 2.81669 5.31927 0
M  V30 31973 H 2982.77 2.22667 2.06526 0
M  V30 31974 H 2980.36 1.139 0.966806 0
M  V30 31975 H 2982.24 0.886643 4.11967 0
M  V30 31976 H 2980.91 0.0808789 3.23599 0
M  V30 31977 H 2979.82 2.37259 2.89239 0
M  V30 31978 H 2981.15 3.10634 3.81795 0
M  V30 31979 N 2982.81 -1.05187 1.1736 0
M  V30 31980 C 2984.05 -1.79764 0.972843 0
M  V30 31981 C 2984.41 -1.85647 -0.4898 0
M  V30 31982 O 2985.61 -2.56317 -0.809637 0
M  V30 31983 C 2983.88 -3.19765 1.59641 0
M  V30 31984 S 2985.44 -4.10819 1.54186 0
M  V30 31985 H 2982.26 -0.619112 0.349601 0
M  V30 31986 H 2984.86 -1.26206 1.49306 0
M  V30 31987 H 2983.56 -3.13085 2.65341 0
M  V30 31988 H 2983.1 -3.78399 1.076 0
M  V30 31989 H 2985.11 -4.93144 0.549872 0
M  V30 31990 N 2984.28 -0.97385 -1.23911 0
M  V30 31991 C 2985.21 -0.528009 -2.27452 0
M  V30 31992 C 2986.19 0.435484 -1.64431 0
M  V30 31993 O 2987.38 0.330273 -1.91371 0
M  V30 31994 C 2984.51 0.176696 -3.4685 0
M  V30 31995 C 2983.46 -0.703426 -4.2218 0
M  V30 31996 C 2982.79 0.133121 -5.34534 0
M  V30 31997 C 2984.09 -1.99104 -4.82861 0
M  V30 31998 H 2985.78 -1.39345 -2.64997 0
M  V30 31999 H 2983.33 -0.671469 -1.27386 0
M  V30 32000 H 2985.28 0.499861 -4.18425 0
M  V30 32001 H 2984.01 1.07653 -3.08348 0
M  V30 32002 H 2982.67 -1.00995 -3.52414 0
M  V30 32003 H 2982.31 1.03329 -4.92272 0
M  V30 32004 H 2982.01 -0.452597 -5.85854 0
M  V30 32005 H 2983.54 0.450817 -6.08933 0
M  V30 32006 H 2984.95 -1.73307 -5.46478 0
M  V30 32007 H 2983.35 -2.52399 -5.4444 0
M  V30 32008 H 2984.42 -2.68206 -4.03972 0
M  V30 32009 N 2985.76 1.38895 -0.744705 0
M  V30 32010 C 2987.01 1.99549 -0.293751 0
M  V30 32011 C 2987.32 1.59779 1.12828 0
M  V30 32012 O 2988.53 2.13339 1.67925 0
M  V30 32013 C 2986.99 3.56762 -0.474251 0
M  V30 32014 C 2986.59 4.05489 -1.90479 0
M  V30 32015 C 2988.34 4.24414 -0.0855621 0
M  V30 32016 C 2986.24 5.5531 -2.03433 0
M  V30 32017 H 2985.17 0.746501 -0.10608 0
M  V30 32018 H 2987.83 1.58772 -0.919976 0
M  V30 32019 H 2986.21 3.95383 0.221022 0
M  V30 32020 H 2987.38 3.7818 -2.63281 0
M  V30 32021 H 2985.7 3.50532 -2.24758 0
M  V30 32022 H 2988.29 5.34457 -0.161227 0
M  V30 32023 H 2988.64 4.05066 0.960589 0
M  V30 32024 H 2989.17 3.91001 -0.732354 0
M  V30 32025 H 2985.91 5.7955 -3.06271 0
M  V30 32026 H 2985.43 5.84391 -1.3508 0
M  V30 32027 H 2987.11 6.20872 -1.82007 0
M  V30 32028 N 2987.24 0.493084 1.49688 0
M  V30 32029 C 2988.49 -0.0541287 2.02028 0
M  V30 32030 C 2988.81 -1.38215 1.37556 0
M  V30 32031 O 2988.08 -1.88645 0.528207 0
M  V30 32032 H 2986.66 -0.0229938 0.746646 0
M  V30 32033 H 2989.32 0.648521 1.83794 0
M  V30 32034 H 2988.42 -0.189597 3.11524 0
M  V30 32035 N 2988.72 -1.55963 0.226582 0
M  V30 32036 C 2989.63 -2.24141 -0.692685 0
M  V30 32037 C 2990.64 -1.2507 -1.20969 0
M  V30 32038 O 2991.82 -1.57895 -1.25024 0
M  V30 32039 C 2988.89 -2.91187 -1.88178 0
M  V30 32040 C 2987.95 -4.05614 -1.40626 0
M  V30 32041 C 2987.18 -4.69454 -2.53867 0
M  V30 32042 O 2987.4 -4.32298 -3.72122 0
M  V30 32043 O 2986.34 -5.58352 -2.24782 0
M  V30 32044 H 2990.16 -3.03368 -0.141867 0
M  V30 32045 H 2987.75 -1.49399 -0.00407864 0
M  V30 32046 H 2989.63 -3.33488 -2.57611 0
M  V30 32047 H 2988.3 -2.14915 -2.4206 0
M  V30 32048 H 2987.21 -3.67872 -0.679795 0
M  V30 32049 H 2988.54 -4.83644 -0.913753 0
M  V30 32050 N 2990.2 0.0467589 -1.57531 0
M  V30 32051 C 2991.15 1.06028 -2.01847 0
M  V30 32052 C 2992.13 1.33057 -0.904685 0
M  V30 32053 O 2993.32 1.32939 -1.1686 0
M  V30 32054 C 2990.45 2.36674 -2.48677 0
M  V30 32055 C 2989.54 2.12812 -3.66841 0
M  V30 32056 N 2989.93 1.58951 -4.80175 0
M  V30 32057 C 2988.23 2.43176 -3.73873 0
M  V30 32058 C 2988.93 1.50484 -5.61898 0
M  V30 32059 N 2987.9 1.97422 -5.06483 0
M  V30 32060 H 2991.71 0.637572 -2.86901 0
M  V30 32061 H 2989.22 0.253398 -1.60411 0
M  V30 32062 H 2991.22 3.10072 -2.78677 0
M  V30 32063 H 2989.88 2.7964 -1.65021 0
M  V30 32064 H 2990.89 1.27465 -5.01969 0
M  V30 32065 H 2987.56 2.89337 -3.00982 0
M  V30 32066 H 2988.95 1.09482 -6.6292 0
M  V30 32067 N 2991.67 1.54344 0.318688 0
M  V30 32068 C 2992.6 1.87064 1.39748 0
M  V30 32069 C 2993.59 0.727875 1.5374 0
M  V30 32070 O 2994.77 0.982046 1.6754 0
M  V30 32071 C 2991.9 2.10231 2.76442 0
M  V30 32072 C 2990.85 3.26076 2.77234 0
M  V30 32073 C 2990.18 3.34625 4.1705 0
M  V30 32074 C 2991.48 4.6361 2.40546 0
M  V30 32075 H 2993.17 2.77414 1.12614 0
M  V30 32076 H 2990.72 1.3348 0.540294 0
M  V30 32077 H 2992.67 2.31705 3.51981 0
M  V30 32078 H 2991.4 1.16634 3.05064 0
M  V30 32079 H 2990.06 3.04497 2.0415 0
M  V30 32080 H 2989.7 2.38577 4.4282 0
M  V30 32081 H 2989.4 4.12486 4.18485 0
M  V30 32082 H 2990.93 3.58339 4.94394 0
M  V30 32083 H 2992.34 4.84933 3.05799 0
M  V30 32084 H 2990.74 5.44056 2.53224 0
M  V30 32085 H 2991.81 4.65528 1.3569 0
M  V30 32086 N 2993.15 -0.580999 1.465 0
M  V30 32087 C 2994.1 -1.68488 1.53609 0
M  V30 32088 C 2995.09 -1.55928 0.396881 0
M  V30 32089 O 2996.28 -1.64814 0.645395 0
M  V30 32090 C 2993.41 -3.07273 1.53095 0
M  V30 32091 C 2992.49 -3.25124 2.72315 0
M  V30 32092 N 2992.88 -3.13127 3.97222 0
M  V30 32093 C 2991.18 -3.56067 2.68575 0
M  V30 32094 C 2991.88 -3.33028 4.76935 0
M  V30 32095 N 2990.86 -3.58262 4.08839 0
M  V30 32096 H 2994.66 -1.57746 2.47979 0
M  V30 32097 H 2992.18 -0.785079 1.42163 0
M  V30 32098 H 2994.17 -3.86502 1.56275 0
M  V30 32099 H 2992.83 -3.19145 0.598025 0
M  V30 32100 H 2993.84 -2.90957 4.28444 0
M  V30 32101 H 2990.52 -3.74613 1.84313 0
M  V30 32102 H 2991.91 -3.28921 5.85884 0
M  V30 32103 N 2994.63 -1.34234 -0.825776 0
M  V30 32104 C 2995.59 -1.25471 -1.91806 0
M  V30 32105 C 2996.59 -0.170595 -1.59893 0
M  V30 32106 O 2997.78 -0.423026 -1.68986 0
M  V30 32107 C 2994.92 -0.936498 -3.27784 0
M  V30 32108 H 2996.11 -2.22575 -2.00999 0
M  V30 32109 H 2993.66 -1.18481 -1.01941 0
M  V30 32110 H 2994.4 0.0314838 -3.24285 0
M  V30 32111 H 2994.18 -1.72064 -3.5233 0
M  V30 32112 H 2995.67 -0.900286 -4.0778 0
M  V30 32113 N 2996.11 1.04563 -1.17917 0
M  V30 32114 C 2997.36 1.77326 -0.969536 0
M  V30 32115 C 2997.68 1.88413 0.502536 0
M  V30 32116 O 2996.95 1.4055 1.36465 0
M  V30 32117 H 2995.53 0.656858 -0.355734 0
M  V30 32118 H 2998.19 1.2622 -1.48508 0
M  V30 32119 H 2997.29 2.78773 -1.40329 0
M  V30 32120 N 2997.59 0.980408 1.23393 0
M  V30 32121 C 2998.52 0.465443 2.23403 0
M  V30 32122 C 2999.5 -0.467444 1.55736 0
M  V30 32123 O 3000.68 -0.395888 1.84296 0
M  V30 32124 C 2997.81 -0.326661 3.37121 0
M  V30 32125 C 2996.85 0.55037 4.22934 0
M  V30 32126 S 2997.69 1.99823 4.96821 0
M  V30 32127 C 2998.84 1.21527 6.13989 0
M  V30 32128 H 2999.08 1.31294 2.66738 0
M  V30 32129 H 2996.61 0.786403 1.32872 0
M  V30 32130 H 2998.57 -0.777667 4.03066 0
M  V30 32131 H 2997.23 -1.14928 2.92319 0
M  V30 32132 H 2996.42 -0.0584412 5.03966 0
M  V30 32133 H 2996.02 0.937622 3.62056 0
M  V30 32134 H 2998.32 0.476595 6.75822 0
M  V30 32135 H 2999.26 2.00042 6.79256 0
M  V30 32136 H 2999.67 0.734048 5.59707 0
M  V30 32137 N 2999.06 -1.38498 0.75206 0
M  V30 32138 C 3000.29 -2.04963 0.317029 0
M  V30 32139 C 3000.71 -1.56348 -1.0458 0
M  V30 32140 O 3000.07 -0.714784 -1.66615 0
M  V30 32141 C 3000.12 -3.58924 0.347298 0
M  V30 32142 O 2999.22 -4.07097 -0.659224 0
M  V30 32143 H 2998.57 -0.64893 0.140664 0
M  V30 32144 H 3001.1 -1.77203 1.02276 0
M  V30 32145 H 3001.11 -4.07521 0.197642 0
M  V30 32146 H 2999.78 -3.93666 1.34164 0
M  V30 32147 H 2998.36 -3.69871 -0.474306 0
M  V30 32148 N 3000.54 -0.501015 -1.49424 0
M  V30 32149 C 3001.77 0.0403079 -2.06861 0
M  V30 32150 C 3002.19 1.30817 -1.36134 0
M  V30 32151 O 3001.54 1.77124 -0.439678 0
M  V30 32152 C 3001.59 0.297838 -3.60271 0
M  V30 32153 O 3001.31 -0.919761 -4.28336 0
M  V30 32154 C 3002.82 0.8828 -4.34421 0
M  V30 32155 H 3000.04 -0.0204737 -0.670688 0
M  V30 32156 H 3002.58 -0.698376 -1.92206 0
M  V30 32157 H 3000.73 0.986504 -3.74629 0
M  V30 32158 H 3001.15 -0.682619 -5.20039 0
M  V30 32159 H 3002.62 1.01258 -5.42633 0
M  V30 32160 H 3003.1 1.88059 -3.96901 0
M  V30 32161 H 3003.71 0.231602 -4.24669 0
M  V30 32162 N 3002.02 1.5584 -0.234849 0
M  V30 32163 C 3002.95 2.23855 0.664177 0
M  V30 32164 C 3003.93 1.21472 1.19074 0
M  V30 32165 O 3005.12 1.50094 1.2323 0
M  V30 32166 C 3002.25 2.92874 1.86661 0
M  V30 32167 C 3001.2 4.01842 1.47334 0
M  V30 32168 C 3000.53 4.58224 2.75563 0
M  V30 32169 C 3001.83 5.18197 0.653388 0
M  V30 32170 H 3003.52 2.99243 0.0970687 0
M  V30 32171 H 3001.07 1.43929 0.0452471 0
M  V30 32172 H 3003.02 3.39151 2.5011 0
M  V30 32173 H 3001.74 2.14954 2.45891 0
M  V30 32174 H 3000.4 3.56316 0.862252 0
M  V30 32175 H 3000.05 3.7702 3.32964 0
M  V30 32176 H 2999.75 5.31775 2.49977 0
M  V30 32177 H 3001.28 5.07227 3.39931 0
M  V30 32178 H 3002.69 5.60774 1.19189 0
M  V30 32179 H 3001.09 5.98063 0.494083 0
M  V30 32180 H 3002.16 4.83727 -0.337089 0
M  V30 32181 N 3003.5 -0.038404 1.57553 0
M  V30 32182 C 3004.75 -0.731082 1.88842 0
M  V30 32183 C 3005.07 -1.75856 0.830961 0
M  V30 32184 O 3004.33 -1.94967 -0.169214 0
M  V30 32185 C 3004.63 -1.44548 3.26865 0
M  V30 32186 C 3004.29 -0.554867 4.47473 0
M  V30 32187 C 3002.96 -0.309537 4.80203 0
M  V30 32188 C 3005.31 0.060612 5.21165 0
M  V30 32189 C 3002.64 0.560204 5.84019 0
M  V30 32190 C 3004.99 0.918 6.25904 0
M  V30 32191 C 3003.65 1.17288 6.57115 0
M  V30 32192 H 3002.92 -0.267522 0.691023 0
M  V30 32193 H 3005.57 0.00886561 1.91498 0
M  V30 32194 H 3003.87 -2.25851 3.20154 0
M  V30 32195 H 3005.57 -1.98682 3.4832 0
M  V30 32196 H 3002.16 -0.75623 4.21876 0
M  V30 32197 H 3006.35 -0.115977 4.96164 0
M  V30 32198 H 3001.6 0.76608 6.06582 0
M  V30 32199 H 3005.78 1.40148 6.82152 0
M  V30 32200 H 3003.4 1.84856 7.37382 0
M  V30 32201 N 3004.98 -1.54511 -0.310498 0
M  V30 32202 C 3005.91 -1.87802 -1.38754 0
M  V30 32203 C 3006.89 -0.736018 -1.53352 0
M  V30 32204 O 3008.07 -0.990917 -1.67016 0
M  V30 32205 C 3005.2 -2.11694 -2.75323 0
M  V30 32206 C 3004.16 -3.27541 -2.75501 0
M  V30 32207 C 3003.48 -3.36832 -4.15269 0
M  V30 32208 C 3004.78 -4.6488 -2.38084 0
M  V30 32209 H 3006.48 -2.78007 -1.11141 0
M  V30 32210 H 3004.02 -1.33764 -0.533208 0
M  V30 32211 H 3005.98 -2.33568 -3.50748 0
M  V30 32212 H 3004.7 -1.1825 -3.04441 0
M  V30 32213 H 3003.36 -3.05575 -2.02532 0
M  V30 32214 H 3003.01 -2.40922 -4.41549 0
M  V30 32215 H 3002.71 -4.14699 -4.16291 0
M  V30 32216 H 3004.23 -3.60955 -4.92487 0
M  V30 32217 H 3005.65 -4.86548 -3.03223 0
M  V30 32218 H 3004.04 -5.45392 -2.50335 0
M  V30 32219 H 3005.11 -4.66241 -1.33219 0
M  V30 32220 N 3006.46 0.573222 -1.46806 0
M  V30 32221 C 3007.7 1.33305 -1.52832 0
M  V30 32222 C 3008.03 1.93333 -0.183321 0
M  V30 32223 O 3007.31 1.76999 0.806323 0
M  V30 32224 C 3007.59 2.45526 -2.63418 0
M  V30 32225 C 3007.45 1.90471 -4.07481 0
M  V30 32226 C 3008.76 3.4753 -2.7002 0
M  V30 32227 H 3005.88 0.483333 -0.556379 0
M  V30 32228 H 3008.53 0.643035 -1.78788 0
M  V30 32229 H 3006.68 3.04385 -2.41417 0
M  V30 32230 H 3008.35 1.35996 -4.40798 0
M  V30 32231 H 3006.59 1.21241 -4.16513 0
M  V30 32232 H 3007.26 2.71523 -4.80603 0
M  V30 32233 H 3009.74 2.98567 -2.89823 0
M  V30 32234 H 3008.61 4.23498 -3.492 0
M  V30 32235 H 3008.87 4.05364 -1.76444 0
M  V30 32236 N 3007.93 1.3467 0.818645 0
M  V30 32237 C 3009.16 1.30165 1.60439 0
M  V30 32238 C 3009.57 -0.125546 1.88783 0
M  V30 32239 O 3008.91 -1.08434 1.48282 0
M  V30 32240 C 3008.98 2.02869 2.9679 0
M  V30 32241 C 3008.64 3.5211 2.91321 0
M  V30 32242 C 3009.64 4.46935 2.65604 0
M  V30 32243 C 3007.32 3.94585 3.10818 0
M  V30 32244 C 3009.32 5.8221 2.59442 0
M  V30 32245 C 3007 5.29959 3.0428 0
M  V30 32246 C 3008 6.23584 2.78626 0
M  V30 32247 O 3007.69 7.56476 2.72029 0
M  V30 32248 H 3007.42 0.449086 0.50527 0
M  V30 32249 H 3009.98 1.77922 1.02629 0
M  V30 32250 H 3008.21 1.49731 3.56535 0
M  V30 32251 H 3009.89 1.91598 3.57834 0
M  V30 32252 H 3010.66 4.15439 2.50271 0
M  V30 32253 H 3006.54 3.22106 3.29801 0
M  V30 32254 H 3010.08 6.55258 2.39338 0
M  V30 32255 H 3005.98 5.61073 3.19167 0
M  V30 32256 H 3006.75 7.66262 2.87725 0
M  V30 32257 N 3009.41 -1.03936 1.1847 0
M  V30 32258 C 3010.64 -1.81345 1.00641 0
M  V30 32259 C 3011.06 -1.82871 -0.440445 0
M  V30 32260 O 3010.42 -1.24697 -1.31607 0
M  V30 32261 C 3010.47 -3.24756 1.56735 0
M  V30 32262 O 3009.57 -4.04771 0.789588 0
M  V30 32263 H 3008.91 -0.560219 0.356442 0
M  V30 32264 H 3011.44 -1.30888 1.57256 0
M  V30 32265 H 3011.45 -3.7553 1.59503 0
M  V30 32266 H 3010.13 -3.2296 2.62049 0
M  V30 32267 H 3008.7 -3.63446 0.834331 0
M  V30 32268 N 3010.89 -0.986938 -1.22871 0
M  V30 32269 C 3011.84 -0.525082 -2.26596 0
M  V30 32270 C 3012.83 0.421223 -1.64079 0
M  V30 32271 O 3014.04 0.294398 -1.77576 0
M  V30 32272 H 3010.41 -0.151394 -0.736603 0
M  V30 32273 H 3012.38 -1.41147 -2.62907 0
M  V30 32274 C 3011.13 0.150481 -3.47374 0
M  V30 32275 H 3010.46 -0.56861 -3.95736 0
M  V30 32276 H 3011.9 0.437182 -4.2174 0
M  V30 32277 C 3010.35 1.38387 -3.07166 0
M  V30 32278 O 3010.88 2.47965 -3.16032 0
M  V30 32279 N 3009.09 1.25692 -2.62011 0
M  V30 32280 H 3008.64 0.36531 -2.54997 0
M  V30 32281 H 3008.6 2.08323 -2.35476 0
M  V30 32282 N 3012.37 1.38098 -0.759394 0
M  V30 32283 C 3013.31 2.30402 -0.135549 0
M  V30 32284 C 3014.28 1.50474 0.703329 0
M  V30 32285 O 3015.47 1.79086 0.658255 0
M  V30 32286 C 3012.61 3.36915 0.747169 0
M  V30 32287 C 3011.72 4.31868 -0.106969 0
M  V30 32288 C 3010.86 5.25453 0.779296 0
M  V30 32289 C 3009.9 6.1205 -0.0781255 0
M  V30 32290 N 3009.03 6.97915 0.765423 0
M  V30 32291 H 3013.87 2.83174 -0.928249 0
M  V30 32292 H 3011.41 1.39411 -0.469374 0
M  V30 32293 H 3013.37 3.97284 1.27364 0
M  V30 32294 H 3012 2.85538 1.50559 0
M  V30 32295 H 3011.05 3.7291 -0.751129 0
M  V30 32296 H 3012.36 4.92838 -0.768884 0
M  V30 32297 H 3011.52 5.90966 1.37272 0
M  V30 32298 H 3010.26 4.64863 1.47493 0
M  V30 32299 H 3009.26 5.45526 -0.684174 0
M  V30 32300 H 3010.49 6.7471 -0.770905 0
M  V30 32301 H 3008.43 6.39867 1.4459 0
M  V30 32302 H 3008.35 7.5583 0.160533 0
M  V30 32303 H 3009.62 7.67833 1.34363 0
M  V30 32304 N 3013.85 0.508932 1.49156 0
M  V30 32305 C 3015.09 -0.0310263 2.04376 0
M  V30 32306 C 3015.45 -1.33545 1.37948 0
M  V30 32307 O 3016.65 -1.96014 1.83935 0
M  V30 32308 C 3014.92 -0.172128 3.56985 0
M  V30 32309 S 3016.48 -0.665191 4.33729 0
M  V30 32310 H 3013.3 0.00200515 0.710997 0
M  V30 32311 H 3015.9 0.684706 1.83118 0
M  V30 32312 H 3014.6 0.782411 4.02873 0
M  V30 32313 H 3014.14 -0.912866 3.82662 0
M  V30 32314 H 3016.15 -1.93312 4.56996 0
M  V30 32315 N 3015.32 -1.55714 0.243111 0
M  V30 32316 C 3016.26 -2.18544 -0.690728 0
M  V30 32317 C 3017.27 -1.16066 -1.1416 0
M  V30 32318 O 3018.46 -1.42947 -1.06903 0
M  V30 32319 C 3015.56 -2.77171 -1.95011 0
M  V30 32320 C 3014.73 -4.05032 -1.6513 0
M  V30 32321 C 3013.79 -4.48013 -2.7599 0
M  V30 32322 O 3012.82 -5.14469 -2.43538 0
M  V30 32323 N 3014.02 -4.15483 -4.05406 0
M  V30 32324 H 3016.78 -2.99308 -0.15315 0
M  V30 32325 H 3014.34 -1.61778 0.0629252 0
M  V30 32326 H 3016.34 -3.02885 -2.68408 0
M  V30 32327 H 3014.91 -2.00586 -2.39758 0
M  V30 32328 H 3014.13 -3.86947 -0.7527 0
M  V30 32329 H 3015.41 -4.88401 -1.42625 0
M  V30 32330 H 3014.81 -3.62124 -4.34606 0
M  V30 32331 H 3013.37 -4.46041 -4.7528 0
M  V30 32332 N 3016.8 0.030048 -1.57571 0
M  V30 32333 C 3018.03 0.732857 -1.93486 0
M  V30 32334 C 3018.45 1.68945 -0.842788 0
M  V30 32335 O 3017.8 1.81601 0.180872 0
M  V30 32336 C 3017.85 1.49076 -3.2933 0
M  V30 32337 O 3017.57 0.572563 -4.34342 0
M  V30 32338 C 3019.08 2.29082 -3.79521 0
M  V30 32339 H 3016.3 0.206015 -0.638591 0
M  V30 32340 H 3018.84 -0.0121326 -2.04496 0
M  V30 32341 H 3016.99 2.18764 -3.1972 0
M  V30 32342 H 3017.41 1.10397 -5.1275 0
M  V30 32343 H 3018.88 2.77656 -4.77086 0
M  V30 32344 H 3019.36 3.10458 -3.10664 0
M  V30 32345 H 3019.97 1.6447 -3.92211 0
M  V30 32346 N 3018.28 1.54674 0.3023 0
M  V30 32347 C 3019.69 1.64906 0.87538 0
M  V30 32348 C 3020.04 0.556873 1.88131 0
M  V30 32349 O 3019.17 -0.306716 2.14215 0
M  V30 32350 C 3019.76 2.98933 1.59451 0
M  V30 32351 C 3018.32 3.1129 2.11602 0
M  V30 32352 C 3017.47 2.60582 0.948278 0
M  V30 32353 H 3020.42 1.58502 0.0793341 0
M  V30 32354 H 3020.44 2.90283 2.46 0
M  V30 32355 H 3019.95 3.78403 0.862133 0
M  V30 32356 H 3018.05 2.36537 2.87891 0
M  V30 32357 H 3018.17 4.17426 2.35144 0
M  V30 32358 H 3016.53 2.17003 1.33348 0
M  V30 32359 H 3017.31 3.4253 0.229876 0
M  V30 32360 N 3019.76 -0.565428 1.47108 0
M  V30 32361 C 3020.69 -1.68307 1.61849 0
M  V30 32362 C 3021.67 -1.6353 0.468187 0
M  V30 32363 O 3022.85 -1.81279 0.696536 0
M  V30 32364 C 3019.98 -3.06949 1.6248 0
M  V30 32365 C 3018.94 -3.26568 2.76654 0
M  V30 32366 C 3018.26 -4.65913 2.62353 0
M  V30 32367 C 3019.56 -3.12733 4.18324 0
M  V30 32368 H 3021.26 -1.56226 2.55409 0
M  V30 32369 H 3018.8 -0.750157 1.22917 0
M  V30 32370 H 3020.76 -3.84974 1.71385 0
M  V30 32371 H 3019.48 -3.1997 0.654748 0
M  V30 32372 H 3018.14 -2.50948 2.67247 0
M  V30 32373 H 3017.79 -4.75722 1.63394 0
M  V30 32374 H 3017.49 -4.7999 3.38945 0
M  V30 32375 H 3019.01 -5.46084 2.73175 0
M  V30 32376 H 3020.43 -3.80585 4.28752 0
M  V30 32377 H 3018.82 -3.38324 4.95638 0
M  V30 32378 H 3019.89 -2.09584 4.37267 0
M  V30 32379 N 3021.24 -1.35102 -0.811492 0
M  V30 32380 C 3022.48 -1.27847 -1.56523 0
M  V30 32381 C 3022.81 0.148255 -1.94436 0
M  V30 32382 O 3022.08 1.08356 -1.63205 0
M  V30 32383 H 3020.66 -0.47023 -0.580425 0
M  V30 32384 H 3023.32 -1.69148 -0.968247 0
M  V30 32385 H 3022.41 -1.89102 -2.48288 0
M  V30 32386 N 3022.71 1.03306 -1.19019 0
M  V30 32387 C 3023.65 2.11068 -0.867494 0
M  V30 32388 C 3024.63 1.61669 0.173724 0
M  V30 32389 O 3025.81 1.88431 0.0509746 0
M  V30 32390 C 3022.94 3.37391 -0.297518 0
M  V30 32391 C 3021.98 4.05653 -1.31713 0
M  V30 32392 S 3022.82 4.51716 -2.87599 0
M  V30 32393 C 3023.97 5.81262 -2.32133 0
M  V30 32394 H 3024.2 2.38116 -1.78012 0
M  V30 32395 H 3021.74 1.16185 -1.01688 0
M  V30 32396 H 3023.7 4.10492 0.0248167 0
M  V30 32397 H 3022.36 3.08445 0.593346 0
M  V30 32398 H 3021.55 4.96481 -0.867351 0
M  V30 32399 H 3021.15 3.38702 -1.58609 0
M  V30 32400 H 3023.44 6.556 -1.70866 0
M  V30 32401 H 3024.39 6.31013 -3.21291 0
M  V30 32402 H 3024.79 5.36733 -1.74867 0
M  V30 32403 N 3024.19 0.99344 1.22346 0
M  V30 32404 C 3025.16 0.54929 2.22521 0
M  V30 32405 C 3026.16 -0.368136 1.56529 0
M  V30 32406 O 3027.35 -0.160019 1.73463 0
M  V30 32407 C 3024.48 -0.200978 3.40307 0
M  V30 32408 H 3025.67 1.43519 2.63329 0
M  V30 32409 H 3023.22 0.780704 1.35406 0
M  V30 32410 H 3023.96 -1.10284 3.04972 0
M  V30 32411 H 3023.74 0.457753 3.89419 0
M  V30 32412 H 3025.23 -0.499873 4.14597 0
M  V30 32413 N 3025.67 -1.37693 0.766707 0
M  V30 32414 C 3026.9 -2.04615 0.338751 0
M  V30 32415 C 3027.32 -1.57449 -1.02915 0
M  V30 32416 O 3026.68 -0.732416 -1.65847 0
M  V30 32417 C 3026.73 -3.58535 0.385347 0
M  V30 32418 O 3025.83 -4.07773 -0.616009 0
M  V30 32419 H 3025.17 -0.647401 0.147539 0
M  V30 32420 H 3027.7 -1.76108 1.04149 0
M  V30 32421 H 3027.71 -4.07288 0.240854 0
M  V30 32422 H 3026.39 -3.92221 1.38331 0
M  V30 32423 H 3024.96 -3.70354 -0.43505 0
M  V30 32424 N 3027.15 -0.516835 -1.48884 0
M  V30 32425 C 3028.4 0.0219811 -2.02088 0
M  V30 32426 C 3028.72 1.36009 -1.39738 0
M  V30 32427 O 3027.99 1.8778 -0.558152 0
M  V30 32428 H 3026.57 0.0111124 -0.746917 0
M  V30 32429 H 3029.23 -0.677679 -1.82739 0
M  V30 32430 H 3028.33 0.140013 -3.11786 0
M  V30 32431 N 3028.63 1.55583 -0.251365 0
M  V30 32432 C 3029.58 2.18229 0.660313 0
M  V30 32433 C 3030.56 1.13953 1.13594 0
M  V30 32434 O 3031.75 1.39848 1.08497 0
M  V30 32435 C 3028.88 2.88873 1.85493 0
M  V30 32436 C 3027.97 4.0041 1.39759 0
M  V30 32437 N 3028.36 5.01544 0.654788 0
M  V30 32438 C 3026.66 4.13047 1.68251 0
M  V30 32439 C 3027.36 5.802 0.417419 0
M  V30 32440 N 3026.33 5.34639 0.982938 0
M  V30 32441 H 3030.14 2.93778 0.0846909 0
M  V30 32442 H 3027.65 1.62311 -0.0538741 0
M  V30 32443 H 3029.65 3.32185 2.5191 0
M  V30 32444 H 3028.31 2.14828 2.43473 0
M  V30 32445 H 3029.32 5.17004 0.304454 0
M  V30 32446 H 3025.99 3.50176 2.27338 0
M  V30 32447 H 3027.38 6.7167 -0.175882 0
M  V30 32448 N 3030.1 -0.0216912 1.57585 0
M  V30 32449 C 3031.35 -0.710091 1.88787 0
M  V30 32450 C 3031.67 -1.76125 0.85085 0
M  V30 32451 O 3032.87 -2.50276 1.05235 0
M  V30 32452 C 3031.33 -1.31407 3.35052 0
M  V30 32453 C 3030.94 -0.29888 4.47002 0
M  V30 32454 C 3032.68 -1.98192 3.75393 0
M  V30 32455 C 3030.59 -0.911624 5.84332 0
M  V30 32456 H 3029.52 -0.268973 0.704393 0
M  V30 32457 H 3032.17 0.0352961 1.83466 0
M  V30 32458 H 3030.55 -2.10941 3.35141 0
M  V30 32459 H 3031.72 0.470284 4.58394 0
M  V30 32460 H 3030.04 0.267295 4.15541 0
M  V30 32461 H 3032.64 -2.44902 4.75318 0
M  V30 32462 H 3032.98 -2.80326 3.07771 0
M  V30 32463 H 3033.51 -1.25423 3.7751 0
M  V30 32464 H 3030.25 -0.129544 6.55372 0
M  V30 32465 H 3029.77 -1.65045 5.76646 0
M  V30 32466 H 3031.45 -1.41677 6.31298 0
M  V30 32467 N 3031.58 -1.54832 -0.294093 0
M  V30 32468 C 3033 -1.462 -0.640141 0
M  V30 32469 C 3033.2 -0.658832 -1.90425 0
M  V30 32470 O 3032.26 -0.169272 -2.51932 0
M  V30 32471 C 3033.57 -2.90226 -0.786712 0
M  V30 32472 C 3035.12 -3.00312 -0.882148 0
M  V30 32473 C 3035.59 -4.45549 -1.06066 0
M  V30 32474 N 3037.08 -4.49288 -1.1267 0
M  V30 32475 C 3037.82 -5.58856 -1.28325 0
M  V30 32476 N 3037.31 -6.78335 -1.40833 0
M  V30 32477 N 3039.11 -5.46558 -1.31268 0
M  V30 32478 H 3031.26 -2.05516 0.53637 0
M  V30 32479 H 3033.52 -0.931066 0.178379 0
M  V30 32480 H 3033.23 -3.51628 0.0713636 0
M  V30 32481 H 3033.1 -3.3804 -1.67358 0
M  V30 32482 H 3035.49 -2.3902 -1.73071 0
M  V30 32483 H 3035.57 -2.55784 0.0288854 0
M  V30 32484 H 3035.21 -5.07437 -0.216846 0
M  V30 32485 H 3035.14 -4.87714 -1.98603 0
M  V30 32486 H 3037.63 -3.63213 -1.04329 0
M  V30 32487 H 3037.95 -7.57593 -1.52553 0
M  V30 32488 H 3036.29 -6.81187 -1.37876 0
M  V30 32489 H 3039.48 -4.52161 -1.21112 0
M  V30 32490 H 3039.66 -6.31996 -1.43124 0
M  V30 32491 N 3033.06 0.557619 -1.47405 0
M  V30 32492 C 3034.34 1.3184 -1.4449 0
M  V30 32493 C 3034.72 2.10624 -0.141637 0
M  V30 32494 O 3034.07 2.11005 0.876871 0
M  V30 32495 C 3034.28 2.22327 -2.6902 0
M  V30 32496 C 3035.62 2.83359 -3.16217 0
M  V30 32497 O 3036.65 2.32629 -2.69745 0
M  V30 32498 O 3035.51 3.75564 -3.97006 0
M  V30 32499 H 3032.6 0.593629 -0.57579 0
M  V30 32500 H 3035.15 0.576556 -1.59606 0
M  V30 32501 H 3033.92 1.63709 -3.55408 0
M  V30 32502 H 3033.54 3.03808 -2.56489 0
M  V30 32503 N 3034.54 1.35531 0.804316 0
M  V30 32504 C 3035.79 1.2893 1.56151 0
M  V30 32505 C 3036.11 -0.135648 1.94026 0
M  V30 32506 O 3035.37 -1.10145 1.61761 0
M  V30 32507 C 3035.67 2.14354 2.85984 0
M  V30 32508 C 3035.33 3.63115 2.67317 0
M  V30 32509 C 3034 4.03664 2.61933 0
M  V30 32510 C 3036.35 4.57497 2.49691 0
M  V30 32511 C 3033.68 5.36758 2.36871 0
M  V30 32512 C 3036.03 5.90792 2.26158 0
M  V30 32513 C 3034.69 6.30483 2.19198 0
M  V30 32514 H 3033.96 0.471789 0.571398 0
M  V30 32515 H 3036.61 1.67448 0.929163 0
M  V30 32516 H 3034.91 1.68725 3.53609 0
M  V30 32517 H 3036.61 2.06582 3.43693 0
M  V30 32518 H 3033.2 3.30939 2.72355 0
M  V30 32519 H 3037.39 4.27054 2.52861 0
M  V30 32520 H 3032.64 5.66508 2.29954 0
M  V30 32521 H 3036.82 6.63503 2.11511 0
M  V30 32522 H 3034.44 7.33545 1.9954 0
M  V30 32523 N 3036.02 -1.02674 1.19565 0
M  V30 32524 C 3036.95 -2.11084 0.893091 0
M  V30 32525 C 3037.96 -1.62393 -0.115072 0
M  V30 32526 O 3039.15 -1.78132 0.114621 0
M  V30 32527 C 3036.25 -3.37427 0.315593 0
M  V30 32528 C 3035.42 -4.15298 1.37283 0
M  V30 32529 C 3034.48 -5.19952 0.808489 0
M  V30 32530 O 3033.51 -5.49441 1.48671 0
M  V30 32531 N 3034.71 -5.79208 -0.387151 0
M  V30 32532 H 3037.48 -2.37629 1.82626 0
M  V30 32533 H 3035.04 -1.18982 1.09794 0
M  V30 32534 H 3037.03 -4.04629 -0.0758455 0
M  V30 32535 H 3035.6 -3.08212 -0.521907 0
M  V30 32536 H 3034.82 -3.43213 1.93903 0
M  V30 32537 H 3036.11 -4.6411 2.08517 0
M  V30 32538 H 3035.51 -5.5757 -0.955627 0
M  V30 32539 H 3034.06 -6.47807 -0.720344 0
M  V30 32540 N 3037.5 -0.999914 -1.21817 0
M  V30 32541 C 3038.74 -0.675142 -1.90065 0
M  V30 32542 C 3039.06 0.797018 -1.78625 0
M  V30 32543 O 3040.26 1.23367 -2.41853 0
M  V30 32544 C 3038.72 -1.15708 -3.40793 0
M  V30 32545 C 3038.33 -2.65496 -3.60854 0
M  V30 32546 C 3040.07 -0.906962 -4.14698 0
M  V30 32547 C 3037.98 -3.07257 -5.05319 0
M  V30 32548 H 3036.91 -0.248827 -0.711759 0
M  V30 32549 H 3039.56 -1.2104 -1.37918 0
M  V30 32550 H 3037.94 -0.549901 -3.92163 0
M  V30 32551 H 3039.12 -3.3162 -3.19945 0
M  V30 32552 H 3037.43 -2.88467 -3.00293 0
M  V30 32553 H 3040.03 -1.19459 -5.21185 0
M  V30 32554 H 3040.37 0.156849 -4.16004 0
M  V30 32555 H 3040.9 -1.47668 -3.69376 0
M  V30 32556 H 3037.64 -4.12843 -5.09157 0
M  V30 32557 H 3037.16 -2.45841 -5.47103 0
M  V30 32558 H 3038.84 -2.98951 -5.73792 0
M  V30 32559 N 3038.97 1.37284 -0.773999 0
M  V30 32560 C 3040.2 2.03905 -0.350794 0
M  V30 32561 C 3040.62 1.58375 1.02776 0
M  V30 32562 O 3039.97 0.766039 1.65644 0
M  V30 32563 C 3040.02 3.59418 -0.387399 0
M  V30 32564 O 3039.75 4.03283 -1.71157 0
M  V30 32565 C 3041.25 4.43275 0.0471201 0
M  V30 32566 H 3038.47 0.654773 -0.146675 0
M  V30 32567 H 3041.01 1.75573 -1.04855 0
M  V30 32568 H 3039.17 3.86514 0.261797 0
M  V30 32569 H 3039.58 4.97813 -1.65175 0
M  V30 32570 H 3041.05 5.51992 -0.0296445 0
M  V30 32571 H 3041.53 4.25259 1.09778 0
M  V30 32572 H 3042.14 4.21409 -0.573974 0
M  V30 32573 N 3040.45 0.524724 1.48608 0
M  V30 32574 C 3041.41 -0.230126 2.28042 0
M  V30 32575 C 3042.41 -0.87256 1.35067 0
M  V30 32576 O 3043.6 -0.733423 1.58008 0
M  V30 32577 C 3040.74 -1.33247 3.1378 0
M  V30 32578 H 3041.93 0.467213 2.96238 0
M  V30 32579 H 3039.48 0.280479 1.53763 0
M  V30 32580 H 3040.22 -2.06322 2.50203 0
M  V30 32581 H 3040 -0.876991 3.82167 0
M  V30 32582 H 3041.49 -1.86355 3.73713 0
M  V30 32583 N 3041.93 -1.55447 0.259613 0
M  V30 32584 C 3043.15 -2.04104 -0.368281 0
M  V30 32585 C 3043.58 -1.13728 -1.49825 0
M  V30 32586 O 3042.94 -0.132737 -1.80813 0
M  V30 32587 C 3042.99 -3.50645 -0.841445 0
M  V30 32588 O 3042.09 -3.63384 -1.95001 0
M  V30 32589 H 3041.43 -0.659342 -0.0785112 0
M  V30 32590 H 3043.96 -2.00861 0.389385 0
M  V30 32591 H 3043.97 -3.91712 -1.14131 0
M  V30 32592 H 3042.65 -4.15897 -0.014627 0
M  V30 32593 H 3041.22 -3.34218 -1.65387 0
M  V30 32594 N 3043.41 0.0133338 -1.57594 0
M  V30 32595 C 3044.66 0.699562 -1.89606 0
M  V30 32596 C 3044.98 1.75046 -0.85929 0
M  V30 32597 O 3044.25 1.95618 0.105078 0
M  V30 32598 H 3042.83 0.261373 -0.699781 0
M  V30 32599 H 3045.49 -0.0244386 -1.94885 0
M  V30 32600 H 3044.58 1.17923 -2.88965 0
M  V30 32601 N 3044.89 1.54985 0.285878 0
M  V30 32602 C 3045.82 1.83373 1.37502 0
M  V30 32603 C 3046.83 0.71748 1.46137 0
M  V30 32604 O 3048.02 0.995168 1.48185 0
M  V30 32605 C 3045.12 1.97021 2.75746 0
M  V30 32606 C 3044.29 3.27566 2.8986 0
M  V30 32607 C 3043.35 3.3144 4.08698 0
M  V30 32608 O 3042.38 4.0489 4.00066 0
M  V30 32609 N 3043.58 2.57916 5.20057 0
M  V30 32610 H 3046.34 2.77377 1.135 0
M  V30 32611 H 3043.91 1.54745 0.475979 0
M  V30 32612 H 3045.9 1.96997 3.53517 0
M  V30 32613 H 3044.47 1.09943 2.92628 0
M  V30 32614 H 3043.69 3.40237 1.99079 0
M  V30 32615 H 3044.98 4.13686 2.96212 0
M  V30 32616 H 3044.37 1.979 5.29955 0
M  V30 32617 H 3042.93 2.63629 5.96106 0
M  V30 32618 N 3046.36 -0.549794 1.47699 0
M  V30 32619 C 3047.59 -1.32992 1.58103 0
M  V30 32620 C 3048 -1.8776 0.232972 0
M  V30 32621 O 3047.35 -1.66081 -0.785029 0
M  V30 32622 C 3047.41 -2.53173 2.55232 0
M  V30 32623 C 3047.07 -2.19638 4.0076 0
M  V30 32624 C 3048.07 -1.76488 4.89028 0
M  V30 32625 C 3045.75 -2.30769 4.46151 0
M  V30 32626 C 3047.75 -1.44908 6.2071 0
M  V30 32627 C 3045.43 -1.98802 5.77859 0
M  V30 32628 C 3046.43 -1.5594 6.6496 0
M  V30 32629 O 3046.12 -1.24383 7.94219 0
M  V30 32630 H 3045.85 -0.411442 0.536369 0
M  V30 32631 H 3048.41 -0.672086 1.94093 0
M  V30 32632 H 3046.64 -3.21873 2.14324 0
M  V30 32633 H 3048.33 -3.15247 2.55684 0
M  V30 32634 H 3049.09 -1.67375 4.55204 0
M  V30 32635 H 3044.97 -2.63089 3.78557 0
M  V30 32636 H 3048.51 -1.1138 6.88651 0
M  V30 32637 H 3044.41 -2.0755 6.11223 0
M  V30 32638 H 3045.18 -1.3795 8.06791 0
M  V30 32639 N 3047.84 -1.35955 -0.797117 0
M  V30 32640 C 3049.09 -1.295 -1.55158 0
M  V30 32641 C 3049.41 0.127625 -1.94582 0
M  V30 32642 O 3048.68 1.06619 -1.64345 0
M  V30 32643 H 3047.26 -0.47636 -0.575405 0
M  V30 32644 H 3049.92 -1.70165 -0.950252 0
M  V30 32645 H 3049.02 -1.91725 -2.46268 0
M  V30 32646 N 3049.32 1.02038 -1.20108 0
M  V30 32647 C 3050.25 2.10608 -0.904273 0
M  V30 32648 C 3051.27 1.62452 0.106459 0
M  V30 32649 O 3052.45 1.78068 -0.124066 0
M  V30 32650 C 3049.55 3.37255 -0.333483 0
M  V30 32651 C 3048.73 4.14564 -1.39484 0
M  V30 32652 C 3047.79 5.19516 -0.836052 0
M  V30 32653 O 3046.81 5.48645 -1.51583 0
M  V30 32654 N 3048.01 5.79405 0.356429 0
M  V30 32655 H 3050.78 2.36658 -1.83884 0
M  V30 32656 H 3048.34 1.18398 -1.10424 0
M  V30 32657 H 3050.33 4.04663 0.0543859 0
M  V30 32658 H 3048.9 3.08485 0.505554 0
M  V30 32659 H 3048.12 3.4218 -1.9572 0
M  V30 32660 H 3049.41 4.62998 -2.10975 0
M  V30 32661 H 3048.81 5.58069 0.926045 0
M  V30 32662 H 3047.37 6.4818 0.685979 0
M  V30 32663 N 3050.8 1.00636 1.21285 0
M  V30 32664 C 3052.04 0.700543 1.90955 0
M  V30 32665 C 3052.4 -0.760536 1.7673 0
M  V30 32666 O 3051.69 -1.54432 1.13408 0
M  V30 32667 C 3051.89 1.0583 3.41372 0
M  V30 32668 C 3051.72 2.55261 3.70232 0
M  V30 32669 C 3050.49 3.21883 3.89512 0
M  V30 32670 C 3052.68 3.53423 3.73626 0
M  V30 32671 N 3050.67 4.6065 4.05801 0
M  V30 32672 C 3052.04 4.77707 3.95217 0
M  V30 32673 C 3054.09 3.4754 3.56539 0
M  V30 32674 C 3052.79 5.96822 4.01492 0
M  V30 32675 C 3054.82 4.66046 3.64081 0
M  V30 32676 C 3054.18 5.89135 3.86134 0
M  V30 32677 H 3050.28 0.307848 0.718856 0
M  V30 32678 H 3052.87 1.28911 1.45911 0
M  V30 32679 H 3051.04 0.498174 3.85192 0
M  V30 32680 H 3052.77 0.707076 3.98475 0
M  V30 32681 H 3049.52 2.72325 3.87474 0
M  V30 32682 H 3049.95 5.32668 4.17844 0
M  V30 32683 H 3054.59 2.53381 3.38464 0
M  V30 32684 H 3052.31 6.91372 4.18366 0
M  V30 32685 H 3055.89 4.63099 3.5218 0
M  V30 32686 H 3054.77 6.79302 3.91815 0
M  V30 32687 N 3052.28 -1.36872 0.781268 0
M  V30 32688 C 3053.24 -2.28491 0.180134 0
M  V30 32689 C 3054.24 -1.48459 -0.617772 0
M  V30 32690 O 3055.43 -1.68553 -0.439962 0
M  V30 32691 C 3052.56 -3.32509 -0.751682 0
M  V30 32692 H 3053.75 -2.83162 0.987887 0
M  V30 32693 H 3051.31 -1.46299 0.550127 0
M  V30 32694 H 3052.04 -2.82979 -1.58408 0
M  V30 32695 H 3051.83 -3.91679 -0.181581 0
M  V30 32696 H 3053.32 -4.00951 -1.1674 0
M  V30 32697 N 3053.75 -0.532597 -1.48328 0
M  V30 32698 C 3055.17 -0.0928076 -1.86469 0
M  V30 32699 C 3055.52 1.33057 -1.44188 0
M  V30 32700 O 3054.64 1.99693 -0.833776 0
M  V30 32701 C 3055.24 -0.161648 -3.38414 0
M  V30 32702 C 3053.8 0.222962 -3.75739 0
M  V30 32703 C 3052.94 -0.520247 -2.72376 0
M  V30 32704 H 3055.89 -0.743703 -1.40195 0
M  V30 32705 H 3055.91 0.625994 -3.75315 0
M  V30 32706 H 3055.43 -1.19771 -3.69156 0
M  V30 32707 H 3053.53 1.26107 -3.50611 0
M  V30 32708 H 3053.64 -0.118469 -4.78954 0
M  V30 32709 H 3052 0.0337977 -2.54678 0
M  V30 32710 H 3052.79 -1.55699 -3.05962 0
M  V30 32711 N 3055.23 1.55307 -0.267853 0
M  V30 32712 C 3056.18 2.22239 0.622761 0
M  V30 32713 C 3057.15 1.19336 1.15534 0
M  V30 32714 O 3058.33 1.47854 1.20598 0
M  V30 32715 C 3055.47 2.94168 1.80442 0
M  V30 32716 C 3054.59 4.11774 1.30639 0
M  V30 32717 C 3053.72 4.71364 2.44927 0
M  V30 32718 C 3052.76 5.81178 1.92089 0
M  V30 32719 N 3051.9 6.34863 2.99823 0
M  V30 32720 H 3056.74 2.97966 0.045335 0
M  V30 32721 H 3054.28 1.47096 0.0106112 0
M  V30 32722 H 3056.23 3.34082 2.4989 0
M  V30 32723 H 3054.86 2.20878 2.35399 0
M  V30 32724 H 3053.92 3.7703 0.505247 0
M  V30 32725 H 3055.23 4.90988 0.879322 0
M  V30 32726 H 3054.38 5.13961 3.2238 0
M  V30 32727 H 3053.12 3.91411 2.90945 0
M  V30 32728 H 3052.13 5.38039 1.13113 0
M  V30 32729 H 3053.35 6.62996 1.47016 0
M  V30 32730 H 3051.3 5.57806 3.45236 0
M  V30 32731 H 3051.21 7.09329 2.61512 0
M  V30 32732 H 3052.48 6.82118 3.77274 0
M  V30 32733 N 3056.71 -0.00497598 1.57599 0
M  V30 32734 C 3057.64 -0.997013 2.11144 0
M  V30 32735 C 3058.62 -1.36168 1.01943 0
M  V30 32736 O 3059.81 -1.4463 1.29599 0
M  V30 32737 C 3056.94 -2.29045 2.61066 0
M  V30 32738 C 3055.89 -2.06754 3.74749 0
M  V30 32739 C 3055.22 -3.42068 4.10967 0
M  V30 32740 C 3056.52 -1.43415 5.02224 0
M  V30 32741 H 3058.21 -0.551199 2.94282 0
M  V30 32742 H 3055.76 -0.26369 1.41565 0
M  V30 32743 H 3057.71 -2.98796 2.97151 0
M  V30 32744 H 3056.43 -2.75731 1.75043 0
M  V30 32745 H 3055.09 -1.3943 3.3905 0
M  V30 32746 H 3054.74 -3.86447 3.21974 0
M  V30 32747 H 3054.44 -3.2797 4.87554 0
M  V30 32748 H 3055.96 -4.13142 4.49607 0
M  V30 32749 H 3057.38 -2.03116 5.36113 0
M  V30 32750 H 3055.78 -1.39821 5.83584 0
M  V30 32751 H 3056.85 -0.402765 4.83224 0
M  V30 32752 N 3058.19 -1.55135 -0.277654 0
M  V30 32753 C 3059.15 -1.86926 -1.32632 0
M  V30 32754 C 3060.15 -0.743532 -1.42577 0
M  V30 32755 O 3061.34 -1.01173 -1.41808 0
M  V30 32756 C 3058.47 -2.07039 -2.70828 0
M  V30 32757 H 3059.67 -2.80665 -1.05675 0
M  V30 32758 H 3057.22 -1.47555 -0.515491 0
M  V30 32759 H 3057.95 -1.15666 -3.02972 0
M  V30 32760 H 3057.74 -2.88997 -2.64996 0
M  V30 32761 H 3059.23 -2.32924 -3.46606 0
M  V30 32762 N 3059.67 0.541953 -1.47989 0
M  V30 32763 C 3061.08 0.869359 -1.33844 0
M  V30 32764 C 3061.28 1.98604 -0.340409 0
M  V30 32765 O 3060.34 2.51331 0.242652 0
M  V30 32766 C 3061.65 1.24818 -2.73571 0
M  V30 32767 C 3063.2 1.35875 -2.8197 0
M  V30 32768 C 3063.67 1.77106 -4.22371 0
M  V30 32769 N 3065.17 1.8423 -4.24987 0
M  V30 32770 C 3065.9 2.17493 -5.30551 0
M  V30 32771 N 3065.4 2.49264 -6.46405 0
M  V30 32772 N 3067.19 2.18397 -5.17937 0
M  V30 32773 H 3059.34 -0.195038 -2.11503 0
M  V30 32774 H 3061.6 -0.0246029 -0.947681 0
M  V30 32775 H 3061.31 0.501374 -3.48108 0
M  V30 32776 H 3061.18 2.201 -3.06326 0
M  V30 32777 H 3063.57 2.09635 -2.07695 0
M  V30 32778 H 3063.65 0.387434 -2.52849 0
M  V30 32779 H 3063.3 1.03911 -4.97157 0
M  V30 32780 H 3063.23 2.75267 -4.48927 0
M  V30 32781 H 3065.72 1.62003 -3.41414 0
M  V30 32782 H 3066.03 2.73716 -7.22703 0
M  V30 32783 H 3064.37 2.4681 -6.497 0
M  V30 32784 H 3067.57 1.93026 -4.26449 0
M  V30 32785 H 3067.74 2.4399 -6.00311 0
M  V30 32786 N 3061.15 1.36376 0.789896 0
M  V30 32787 C 3062.08 1.33345 1.91681 0
M  V30 32788 C 3063.06 0.204995 1.6886 0
M  V30 32789 O 3064.24 0.402565 1.89982 0
M  V30 32790 C 3061.37 1.12148 3.28694 0
M  V30 32791 C 3060.33 2.21813 3.66037 0
M  V30 32792 C 3059.65 1.8576 5.01395 0
M  V30 32793 C 3060.95 3.63894 3.74671 0
M  V30 32794 H 3062.65 2.2764 1.94474 0
M  V30 32795 H 3060.19 1.0958 0.934252 0
M  V30 32796 H 3062.14 1.08663 4.07149 0
M  V30 32797 H 3060.87 0.143031 3.26287 0
M  V30 32798 H 3059.53 2.24423 2.89879 0
M  V30 32799 H 3059.18 0.864904 4.95508 0
M  V30 32800 H 3058.88 2.59182 5.2735 0
M  V30 32801 H 3060.4 1.8383 5.82271 0
M  V30 32802 H 3061.81 3.63514 4.43318 0
M  V30 32803 H 3060.21 4.36217 4.1211 0
M  V30 32804 H 3061.28 3.98834 2.75788 0
M  V30 32805 N 3062.62 -1.014 1.20647 0
M  V30 32806 C 3063.57 -2.08382 0.925245 0
M  V30 32807 C 3064.56 -1.60482 -0.115966 0
M  V30 32808 O 3065.75 -1.76762 0.0917586 0
M  V30 32809 C 3062.88 -3.399 0.481989 0
M  V30 32810 C 3061.96 -3.94494 1.55677 0
M  V30 32811 N 3062.36 -4.22565 2.77979 0
M  V30 32812 C 3060.65 -4.22672 1.42354 0
M  V30 32813 C 3061.35 -4.66626 3.47325 0
M  V30 32814 N 3060.33 -4.69059 2.74744 0
M  V30 32815 H 3064.13 -2.27998 1.85456 0
M  V30 32816 H 3061.65 -1.19393 1.10086 0
M  V30 32817 H 3063.64 -4.16076 0.261909 0
M  V30 32818 H 3062.3 -3.21696 -0.440669 0
M  V30 32819 H 3063.31 -4.11392 3.14606 0
M  V30 32820 H 3059.99 -4.13653 0.56549 0
M  V30 32821 H 3061.38 -4.97143 4.51993 0
M  V30 32822 N 3064.1 -1.01278 -1.2075 0
M  V30 32823 C 3065.33 -0.717968 -1.93723 0
M  V30 32824 C 3065.74 0.724702 -1.7477 0
M  V30 32825 O 3065.08 1.50283 -1.05644 0
M  V30 32826 C 3065.14 -0.969015 -3.46194 0
M  V30 32827 C 3064.81 -2.40005 -3.88904 0
M  V30 32828 C 3065.81 -3.38068 -3.94976 0
M  V30 32829 C 3063.49 -2.73977 -4.21001 0
M  V30 32830 C 3065.48 -4.68166 -4.32549 0
M  V30 32831 C 3063.17 -4.0429 -4.5825 0
M  V30 32832 C 3064.17 -5.01196 -4.63996 0
M  V30 32833 O 3063.86 -6.29177 -5.00392 0
M  V30 32834 H 3063.59 -0.263197 -0.622658 0
M  V30 32835 H 3066.14 -1.3558 -1.54296 0
M  V30 32836 H 3064.37 -0.27402 -3.85728 0
M  V30 32837 H 3066.06 -0.666382 -4.00393 0
M  V30 32838 H 3066.83 -3.13157 -3.70348 0
M  V30 32839 H 3062.71 -1.9924 -4.15722 0
M  V30 32840 H 3066.25 -5.43803 -4.36949 0
M  V30 32841 H 3062.15 -4.28981 -4.82333 0
M  V30 32842 H 3062.92 -6.33408 -5.18398 0
M  V30 32843 N 3065.58 1.36456 -0.788516 0
M  V30 32844 C 3066.8 2.0405 -0.37126 0
M  V30 32845 C 3067.23 1.59066 1.00397 0
M  V30 32846 O 3066.59 0.758708 1.64661 0
M  V30 32847 C 3066.64 3.57877 -0.442338 0
M  V30 32848 O 3065.74 4.08702 0.551058 0
M  V30 32849 H 3065.08 0.644972 -0.15782 0
M  V30 32850 H 3067.61 1.74429 -1.06938 0
M  V30 32851 H 3067.62 4.06854 -0.305619 0
M  V30 32852 H 3066.3 3.89971 -1.44554 0
M  V30 32853 H 3064.87 3.70999 0.376075 0
M  V30 32854 N 3067.06 0.540456 1.48043 0
M  V30 32855 C 3068.31 0.0101722 2.02097 0
M  V30 32856 C 3068.63 -1.33769 1.41884 0
M  V30 32857 O 3067.9 -1.86869 0.587956 0
M  V30 32858 H 3066.48 0.000771847 0.747 0
M  V30 32859 H 3069.14 0.706666 1.81638 0
M  V30 32860 H 3068.23 -0.0903925 3.11969 0
M  V30 32861 N 3068.54 -1.55163 0.276085 0
M  V30 32862 C 3069.76 -2.04483 -0.346612 0
M  V30 32863 C 3070.19 -1.1531 -1.48611 0
M  V30 32864 O 3069.54 -0.151907 -1.80662 0
M  V30 32865 C 3069.59 -3.51518 -0.804207 0
M  V30 32866 O 3068.7 -3.65432 -1.91136 0
M  V30 32867 H 3068.04 -0.660138 -0.0715135 0
M  V30 32868 H 3070.57 -2.00436 0.410667 0
M  V30 32869 H 3070.58 -3.929 -1.0997 0
M  V30 32870 H 3069.25 -4.1589 0.0294854 0
M  V30 32871 H 3067.83 -3.35953 -1.61833 0
M  V30 32872 N 3070.01 -0.00338196 -1.576 0
M  V30 32873 C 3071.26 0.679967 -1.89893 0
M  V30 32874 C 3071.58 1.74749 -0.878762 0
M  V30 32875 O 3072.78 2.4857 -1.09203 0
M  V30 32876 C 3071.24 1.2606 -3.37101 0
M  V30 32877 C 3070.85 0.227728 -4.47421 0
M  V30 32878 C 3072.59 1.92195 -3.78499 0
M  V30 32879 C 3070.5 0.818547 -5.85708 0
M  V30 32880 H 3069.43 0.257733 -0.708583 0
M  V30 32881 H 3072.08 -0.0644795 -1.83387 0
M  V30 32882 H 3070.46 2.05583 -3.38455 0
M  V30 32883 H 3071.63 -0.543151 -4.57588 0
M  V30 32884 H 3069.95 -0.33337 -4.15063 0
M  V30 32885 H 3072.55 2.37309 -4.79154 0
M  V30 32886 H 3072.89 2.75394 -3.12192 0
M  V30 32887 H 3073.42 1.19401 -3.79458 0
M  V30 32888 H 3070.16 0.0252635 -6.55495 0
M  V30 32889 H 3069.68 1.55851 -5.79198 0
M  V30 32890 H 3071.36 1.31616 -6.33472 0
M  V30 32891 N 3071.49 1.5528 0.269423 0
M  V30 32892 C 3072.44 1.892 1.353 0
M  V30 32893 C 3073.43 0.768697 1.50955 0
M  V30 32894 O 3074.64 0.953081 1.52697 0
M  V30 32895 H 3071.01 0.600562 0.45258 0
M  V30 32896 H 3072.99 2.79711 1.03944 0
M  V30 32897 C 3071.73 2.1836 2.70581 0
M  V30 32898 H 3071.06 3.04286 2.59327 0
M  V30 32899 H 3072.5 2.46013 3.45331 0
M  V30 32900 C 3070.96 0.992384 3.21952 0
M  V30 32901 O 3071.49 0.228839 4.01048 0
M  V30 32902 N 3069.69 0.789111 2.79681 0
M  V30 32903 H 3069.24 1.41171 2.15473 0
M  V30 32904 H 3069.2 -0.00629249 3.14399 0
M  V30 32905 N 3072.97 -0.534097 1.48274 0
M  V30 32906 C 3073.93 -1.62124 1.62013 0
M  V30 32907 C 3074.93 -1.53034 0.49368 0
M  V30 32908 O 3076.12 -1.56778 0.759364 0
M  V30 32909 C 3073.25 -3.01736 1.58645 0
M  V30 32910 H 3074.45 -1.51284 2.58946 0
M  V30 32911 H 3072 -0.755837 1.36809 0
M  V30 32912 H 3072.74 -3.18087 0.631741 0
M  V30 32913 H 3072.52 -3.09743 2.4042 0
M  V30 32914 H 3074.01 -3.80784 1.71445 0
M  V30 32915 N 3074.45 -1.36793 -0.782652 0
M  V30 32916 C 3075.69 -1.326 -1.54236 0
M  V30 32917 C 3076.05 0.0921028 -1.92179 0
M  V30 32918 O 3075.34 1.04823 -1.60383 0
M  V30 32919 C 3075.54 -2.18877 -2.82538 0
M  V30 32920 C 3075.36 -3.68934 -2.57134 0
M  V30 32921 C 3074.13 -4.38085 -2.51812 0
M  V30 32922 C 3076.33 -4.62047 -2.2587 0
M  V30 32923 N 3074.31 -5.73746 -2.18377 0
M  V30 32924 C 3075.69 -5.86005 -2.02481 0
M  V30 32925 C 3077.74 -4.50543 -2.11933 0
M  V30 32926 C 3076.44 -6.99749 -1.66564 0
M  V30 32927 C 3078.47 -5.64161 -1.77416 0
M  V30 32928 C 3077.83 -6.87162 -1.54879 0
M  V30 32929 H 3073.93 -0.540497 -0.565143 0
M  V30 32930 H 3076.51 -1.71911 -0.914049 0
M  V30 32931 H 3074.69 -1.818 -3.43225 0
M  V30 32932 H 3076.42 -2.06023 -3.48334 0
M  V30 32933 H 3073.17 -3.90963 -2.67292 0
M  V30 32934 H 3073.6 -6.45411 -2.04386 0
M  V30 32935 H 3078.24 -3.56028 -2.28044 0
M  V30 32936 H 3075.96 -7.94209 -1.49191 0
M  V30 32937 H 3079.54 -5.57225 -1.67306 0
M  V30 32938 H 3078.42 -7.7359 -1.28563 0
M  V30 32939 N 3075.93 1.00759 -1.21184 0
M  V30 32940 C 3077.15 1.78613 -1.05414 0
M  V30 32941 C 3077.58 1.83974 0.391805 0
M  V30 32942 O 3076.93 1.28143 1.28254 0
M  V30 32943 C 3076.98 3.20486 -1.65291 0
M  V30 32944 O 3076.09 4.02535 -0.896628 0
M  V30 32945 H 3075.43 0.550572 -0.37117 0
M  V30 32946 H 3077.96 1.26673 -1.60671 0
M  V30 32947 H 3077.97 3.71169 -1.69403 0
M  V30 32948 H 3076.64 3.15899 -2.70519 0
M  V30 32949 H 3075.22 3.61107 -0.930399 0
M  V30 32950 N 3077.4 1.01917 1.20211 0
M  V30 32951 C 3078.63 0.729289 1.93621 0
M  V30 32952 C 3079.05 -0.710413 1.74924 0
M  V30 32953 O 3078.4 -1.48212 1.06487 0
M  V30 32954 C 3078.46 1.05871 3.45649 0
M  V30 32955 O 3078.18 2.44187 3.63737 0
M  V30 32956 C 3079.68 0.790253 4.36199 0
M  V30 32957 H 3076.9 0.267605 0.615328 0
M  V30 32958 H 3079.44 1.36104 1.5263 0
M  V30 32959 H 3077.6 0.472317 3.8451 0
M  V30 32960 H 3078.01 2.56151 4.57697 0
M  V30 32961 H 3079.48 1.0708 5.41514 0
M  V30 32962 H 3079.96 -0.275532 4.38335 0
M  V30 32963 H 3080.57 1.35892 4.03005 0
M  V30 32964 N 3078.88 -1.36036 0.795742 0
M  V30 32965 C 3079.83 -2.29961 0.196588 0
M  V30 32966 C 3080.8 -1.52286 -0.663186 0
M  V30 32967 O 3081.98 -1.80768 -0.610542 0
M  V30 32968 C 3079.12 -3.38777 -0.657579 0
M  V30 32969 C 3078.24 -4.31432 0.221433 0
M  V30 32970 C 3077.37 -5.27334 -0.639707 0
M  V30 32971 C 3076.41 -6.11628 0.240372 0
M  V30 32972 N 3075.55 -6.99699 -0.580114 0
M  V30 32973 H 3080.39 -2.80613 1.003 0
M  V30 32974 H 3077.93 -1.38117 0.506171 0
M  V30 32975 H 3079.88 -4.00521 -1.16786 0
M  V30 32976 H 3078.51 -2.89429 -1.42936 0
M  V30 32977 H 3077.57 -3.70788 0.849736 0
M  V30 32978 H 3078.88 -4.90627 0.899281 0
M  V30 32979 H 3078.03 -5.94398 -1.21555 0
M  V30 32980 H 3076.77 -4.6861 -1.35116 0
M  V30 32981 H 3075.78 -5.43521 0.82857 0
M  V30 32982 H 3077 -6.72429 0.949521 0
M  V30 32983 H 3074.95 -6.43476 -1.27574 0
M  V30 32984 H 3074.86 -7.55989 0.0399182 0
M  V30 32985 H 3076.13 -7.71125 -1.13958 0
M  V30 32986 N 3080.36 -0.5483 -1.47755 0
M  V30 32987 C 3081.27 0.207732 -2.33678 0
M  V30 32988 C 3082.29 0.920817 -1.47638 0
M  V30 32989 O 3083.46 0.891699 -1.80584 0
M  V30 32990 C 3080.53 1.22997 -3.24149 0
M  V30 32991 C 3079.59 0.525275 -4.26074 0
M  V30 32992 C 3078.82 1.49881 -5.12222 0
M  V30 32993 O 3079.04 2.73296 -5.00665 0
M  V30 32994 O 3077.98 1.02818 -5.93053 0
M  V30 32995 H 3081.8 -0.496847 -2.99608 0
M  V30 32996 H 3079.39 -0.309008 -1.46169 0
M  V30 32997 H 3081.27 1.82027 -3.80058 0
M  V30 32998 H 3079.95 1.91663 -2.60858 0
M  V30 32999 H 3078.85 -0.105993 -3.7395 0
M  V30 33000 H 3080.19 -0.119773 -4.92054 0
M  V30 33001 N 3081.84 1.55014 -0.28431 0
M  V30 33002 C 3083.25 1.85496 0.211649 0
M  V30 33003 C 3083.6 1.20633 1.54733 0
M  V30 33004 O 3082.73 0.497955 2.10593 0
M  V30 33005 C 3083.32 3.36538 0.390805 0
M  V30 33006 C 3081.88 3.67112 0.83099 0
M  V30 33007 C 3081.03 2.77211 -0.0704068 0
M  V30 33008 H 3083.98 1.50423 -0.50583 0
M  V30 33009 H 3084 3.6014 1.22797 0
M  V30 33010 H 3083.51 3.83719 -0.581477 0
M  V30 33011 H 3081.61 3.25438 1.81442 0
M  V30 33012 H 3081.72 4.74505 0.661943 0
M  V30 33013 H 3080.09 2.50738 0.447484 0
M  V30 33014 H 3080.87 3.27208 -1.03874 0
M  V30 33015 N 3083.32 0.0117398 1.57596 0
M  V30 33016 C 3084.56 -0.670634 1.91073 0
M  V30 33017 C 3084.89 -1.73123 0.886487 0
M  V30 33018 O 3084.15 -1.95407 -0.107101 0
M  V30 33019 C 3084.45 -1.34076 3.31298 0
M  V30 33020 C 3084.11 -0.412226 4.49012 0
M  V30 33021 C 3082.77 -0.156607 4.80945 0
M  V30 33022 C 3085.13 0.226386 5.20708 0
M  V30 33023 C 3082.45 0.745722 5.81941 0
M  V30 33024 C 3084.81 1.11666 6.22666 0
M  V30 33025 C 3083.47 1.38134 6.53051 0
M  V30 33026 H 3082.74 -0.245402 0.699184 0
M  V30 33027 H 3085.39 0.0697847 1.91373 0
M  V30 33028 H 3083.69 -2.15551 3.27177 0
M  V30 33029 H 3085.39 -1.87499 3.54464 0
M  V30 33030 H 3081.98 -0.62163 4.24068 0
M  V30 33031 H 3086.16 0.0419328 4.96282 0
M  V30 33032 H 3081.42 0.958672 6.03837 0
M  V30 33033 H 3085.59 1.61779 6.77348 0
M  V30 33034 H 3083.22 2.08221 7.31128 0
M  V30 33035 N 3084.79 -1.55421 -0.261185 0
M  V30 33036 C 3086.02 -1.80957 -1.01337 0
M  V30 33037 C 3086.44 -0.58688 -1.7871 0
M  V30 33038 O 3085.8 0.463806 -1.75267 0
M  V30 33039 C 3085.85 -3.04076 -1.9383 0
M  V30 33040 O 3084.95 -2.7999 -3.02786 0
M  V30 33041 H 3084.3 -0.597754 -0.289113 0
M  V30 33042 H 3086.83 -2.02584 -0.286507 0
M  V30 33043 H 3086.84 -3.33127 -2.35564 0
M  V30 33044 H 3085.51 -3.92713 -1.36929 0
M  V30 33045 H 3084.09 -2.62068 -2.65283 0
M  V30 33046 N 3086.27 0.526227 -1.48555 0
M  V30 33047 C 3087.52 1.28124 -1.57974 0
M  V30 33048 C 3087.87 1.90742 -0.252007 0
M  V30 33049 O 3087.17 1.76502 0.745493 0
M  V30 33050 C 3087.36 2.38988 -2.65743 0
M  V30 33051 C 3087.19 1.87237 -4.08867 0
M  V30 33052 C 3085.96 1.69672 -4.75962 0
M  V30 33053 C 3088.16 1.39873 -4.94914 0
M  V30 33054 N 3086.14 1.12586 -6.03488 0
M  V30 33055 C 3087.51 0.947588 -6.12716 0
M  V30 33056 C 3089.57 1.28211 -4.81109 0
M  V30 33057 C 3088.27 0.39138 -7.18234 0
M  V30 33058 C 3090.29 0.739897 -5.86753 0
M  V30 33059 C 3089.66 0.298845 -7.03766 0
M  V30 33060 H 3085.76 0.459724 -0.632596 0
M  V30 33061 H 3088.34 0.592907 -1.85453 0
M  V30 33062 H 3086.51 3.05313 -2.40081 0
M  V30 33063 H 3088.24 3.06021 -2.64826 0
M  V30 33064 H 3085 1.93305 -4.32354 0
M  V30 33065 H 3085.42 0.860423 -6.7151 0
M  V30 33066 H 3090.06 1.60915 -3.90981 0
M  V30 33067 H 3087.78 0.0520264 -8.08083 0
M  V30 33068 H 3091.37 0.652788 -5.78126 0
M  V30 33069 H 3090.25 -0.11419 -7.84117 0
M  V30 33070 N 3087.75 1.37206 0.775387 0
M  V30 33071 C 3089 1.31538 1.52907 0
M  V30 33072 C 3089.31 -0.0989031 1.9535 0
M  V30 33073 O 3090.52 -0.278031 2.70073 0
M  V30 33074 C 3088.97 2.30865 2.76096 0
M  V30 33075 C 3088.58 3.77803 2.40767 0
M  V30 33076 C 3090.33 2.34201 3.54048 0
M  V30 33077 C 3088.23 4.68871 3.60436 0
M  V30 33078 H 3087.16 0.488855 0.574053 0
M  V30 33079 H 3089.81 1.62646 0.849613 0
M  V30 33080 H 3088.2 1.9277 3.45913 0
M  V30 33081 H 3089.37 4.24715 1.78757 0
M  V30 33082 H 3087.69 3.77378 1.75997 0
M  V30 33083 H 3090.28 2.99445 4.42986 0
M  V30 33084 H 3090.63 1.35456 3.93646 0
M  V30 33085 H 3091.16 2.70985 2.91225 0
M  V30 33086 H 3087.9 5.68731 3.25922 0
M  V30 33087 H 3087.42 4.26667 4.21563 0
M  V30 33088 H 3089.1 4.85828 4.27294 0
M  V30 33089 N 3089.23 -1.00115 1.21716 0
M  V30 33090 C 3090.18 -2.08967 0.979874 0
M  V30 33091 C 3091.15 -1.65825 -0.0955033 0
M  V30 33092 O 3092.33 -1.90728 0.0524077 0
M  V30 33093 C 3089.47 -3.40611 0.554817 0
M  V30 33094 C 3088.58 -3.97142 1.70006 0
M  V30 33095 C 3087.72 -5.16911 1.22379 0
M  V30 33096 C 3086.76 -5.6556 2.34111 0
M  V30 33097 N 3085.89 -6.76575 1.87591 0
M  V30 33098 H 3090.73 -2.28599 1.91171 0
M  V30 33099 H 3088.27 -1.12083 0.952665 0
M  V30 33100 H 3090.23 -4.16194 0.289599 0
M  V30 33101 H 3088.86 -3.21004 -0.340016 0
M  V30 33102 H 3087.91 -3.18509 2.07981 0
M  V30 33103 H 3089.22 -4.29237 2.54082 0
M  V30 33104 H 3088.38 -5.99753 0.915463 0
M  V30 33105 H 3087.12 -4.8642 0.353131 0
M  V30 33106 H 3086.12 -4.81312 2.65743 0
M  V30 33107 H 3087.35 -5.98079 3.2168 0
M  V30 33108 H 3085.29 -6.47883 1.02874 0
M  V30 33109 H 3085.21 -7.07944 2.65237 0
M  V30 33110 H 3086.48 -7.62944 1.59803 0
M  V30 33111 N 3090.71 -1.02553 -1.19669 0
M  V30 33112 C 3091.95 -0.721102 -1.89547 0
M  V30 33113 C 3092.29 0.748145 -1.79211 0
M  V30 33114 O 3091.56 1.54446 -1.18223 0
M  V30 33115 C 3091.84 -1.16867 -3.40608 0
M  V30 33116 C 3091.7 -2.69889 -3.59833 0
M  V30 33117 C 3093.02 -0.746858 -4.33717 0
M  V30 33118 H 3090.14 -0.263435 -0.68831 0
M  V30 33119 H 3092.78 -1.27486 -1.40881 0
M  V30 33120 H 3090.93 -0.697545 -3.82187 0
M  V30 33121 H 3092.6 -3.24923 -3.27449 0
M  V30 33122 H 3090.84 -3.10441 -3.03 0
M  V30 33123 H 3091.51 -2.96261 -4.65761 0
M  V30 33124 H 3093.99 -1.15202 -3.99834 0
M  V30 33125 H 3092.87 -1.08795 -5.3801 0
M  V30 33126 H 3093.13 0.35098 -4.40705 0
M  V30 33127 N 3092.19 1.35612 -0.802945 0
M  V30 33128 C 3093.46 1.93207 -0.305027 0
M  V30 33129 C 3093.84 1.7334 1.20485 0
M  V30 33130 O 3093.19 1.10026 2.00266 0
M  V30 33131 C 3093.4 3.41651 -0.712443 0
M  V30 33132 C 3094.75 4.18792 -0.699859 0
M  V30 33133 O 3095.77 3.50149 -0.653759 0
M  V30 33134 O 3094.63 5.41261 -0.754937 0
M  V30 33135 H 3091.73 0.823225 -0.0789272 0
M  V30 33136 H 3094.27 1.4471 -0.886398 0
M  V30 33137 H 3093.04 3.49825 -1.75322 0
M  V30 33138 H 3092.67 3.9746 -0.105683 0
M  V30 33139 N 3093.66 0.556128 1.47462 0
M  V30 33140 C 3094.59 -0.180456 2.32802 0
M  V30 33141 C 3095.57 -0.909823 1.43723 0
M  V30 33142 O 3096.76 -0.8905 1.7258 0
M  V30 33143 C 3093.89 -1.21161 3.2548 0
M  V30 33144 C 3092.84 -0.598771 4.23791 0
M  V30 33145 C 3092.17 -1.73448 5.05786 0
M  V30 33146 C 3093.47 0.44675 5.20386 0
M  V30 33147 H 3095.16 0.532007 2.94635 0
M  V30 33148 H 3092.71 0.257292 1.41683 0
M  V30 33149 H 3094.66 -1.73506 3.84023 0
M  V30 33150 H 3093.39 -1.954 2.61699 0
M  V30 33151 H 3092.05 -0.0966253 3.66473 0
M  V30 33152 H 3091.69 -2.46589 4.3841 0
M  V30 33153 H 3091.39 -1.33021 5.72345 0
M  V30 33154 H 3092.92 -2.26121 5.67187 0
M  V30 33155 H 3094.33 0.00940096 5.73299 0
M  V30 33156 H 3092.73 0.76984 5.95142 0
M  V30 33157 H 3093.8 1.34303 4.6593 0
M  V30 33158 N 3095.14 -1.54861 0.292527 0
M  V30 33159 C 3096.07 -2.26166 -0.580638 0
M  V30 33160 C 3097.05 -1.25808 -1.14483 0
M  V30 33161 O 3098.24 -1.54564 -1.17574 0
M  V30 33162 C 3095.37 -2.996 -1.75663 0
M  V30 33163 C 3094.32 -4.07033 -1.32318 0
M  V30 33164 C 3093.65 -4.68136 -2.58366 0
M  V30 33165 C 3094.95 -5.20265 -0.460612 0
M  V30 33166 H 3096.64 -2.99397 0.0140601 0
M  V30 33167 H 3094.19 -1.43998 0.00820238 0
M  V30 33168 H 3096.14 -3.482 -2.3735 0
M  V30 33169 H 3094.86 -2.23932 -2.37743 0
M  V30 33170 H 3093.52 -3.5927 -0.729414 0
M  V30 33171 H 3093.17 -3.89118 -3.18742 0
M  V30 33172 H 3092.87 -5.40687 -2.30069 0
M  V30 33173 H 3094.4 -5.19494 -3.20871 0
M  V30 33174 H 3095.81 -5.64811 -0.982938 0
M  V30 33175 H 3094.21 -5.99484 -0.271776 0
M  V30 33176 H 3095.28 -4.82143 0.516388 0
M  V30 33177 N 3096.62 -0.0200973 -1.57587 0
M  V30 33178 C 3097.58 0.94973 -2.08597 0
M  V30 33179 C 3098.58 1.25984 -0.999237 0
M  V30 33180 O 3099.77 1.20168 -1.26117 0
M  V30 33181 C 3096.9 2.2689 -2.54428 0
M  V30 33182 H 3098.1 0.50811 -2.95564 0
M  V30 33183 H 3095.65 0.227771 -1.54631 0
M  V30 33184 H 3096.39 2.757 -1.70763 0
M  V30 33185 H 3096.17 2.05696 -3.33813 0
M  V30 33186 H 3097.66 2.96422 -2.94149 0
M  V30 33187 N 3098.1 1.55557 0.252939 0
M  V30 33188 C 3099.51 1.67607 0.822473 0
M  V30 33189 C 3099.86 0.616444 1.86264 0
M  V30 33190 O 3098.98 -0.23841 2.15083 0
M  V30 33191 C 3099.58 3.03854 1.4986 0
M  V30 33192 C 3098.14 3.17865 2.01591 0
M  V30 33193 C 3097.29 2.63467 0.864896 0
M  V30 33194 H 3100.24 1.58674 0.0288679 0
M  V30 33195 H 3100.26 2.97962 2.3664 0
M  V30 33196 H 3099.77 3.80954 0.741311 0
M  V30 33197 H 3097.87 2.45576 2.8022 0
M  V30 33198 H 3097.98 4.24695 2.21744 0
M  V30 33199 H 3096.35 2.21136 1.26377 0
M  V30 33200 H 3097.13 3.43087 0.120787 0
M  V30 33201 N 3099.58 -0.518341 1.48832 0
M  V30 33202 C 3100.51 -1.63881 1.58803 0
M  V30 33203 C 3101.49 -1.56593 0.437874 0
M  V30 33204 O 3102.67 -1.76899 0.651073 0
M  V30 33205 C 3099.8 -3.02332 1.52686 0
M  V30 33206 C 3098.84 -3.2794 2.72686 0
M  V30 33207 S 3099.68 -3.12944 4.34542 0
M  V30 33208 C 3100.83 -4.53821 4.31042 0
M  V30 33209 H 3101.07 -1.55176 2.5359 0
M  V30 33210 H 3098.6 -0.702194 1.37509 0
M  V30 33211 H 3100.56 -3.82174 1.49843 0
M  V30 33212 H 3099.22 -3.08468 0.592161 0
M  V30 33213 H 3098.41 -4.2897 2.64577 0
M  V30 33214 H 3098.01 -2.5579 2.72851 0
M  V30 33215 H 3100.3 -5.45572 4.01693 0
M  V30 33216 H 3101.25 -4.66982 5.32291 0
M  V30 33217 H 3101.66 -4.33689 3.61351 0
M  V30 33218 N 3101.05 -1.37615 -0.7681 0
M  V30 33219 C 3102.3 -1.32347 -1.52207 0
M  V30 33220 C 3102.62 0.0885418 -1.95399 0
M  V30 33221 O 3103.82 0.263705 -2.70216 0
M  V30 33222 C 3102.28 -2.32326 -2.74868 0
M  V30 33223 C 3101.89 -3.79075 -2.3876 0
M  V30 33224 C 3103.63 -2.36076 -3.52801 0
M  V30 33225 C 3101.54 -4.70776 -3.57944 0
M  V30 33226 H 3100.47 -0.491893 -0.571452 0
M  V30 33227 H 3103.12 -1.63095 -0.840976 0
M  V30 33228 H 3101.5 -1.94602 -3.44886 0
M  V30 33229 H 3102.67 -4.25657 -1.76502 0
M  V30 33230 H 3100.99 -3.78306 -1.73993 0
M  V30 33231 H 3103.59 -3.0179 -4.41392 0
M  V30 33232 H 3103.93 -1.37542 -3.92922 0
M  V30 33233 H 3104.46 -2.72526 -2.89783 0
M  V30 33234 H 3101.2 -5.70452 -3.22901 0
M  V30 33235 H 3100.72 -4.28896 -4.19295 0
M  V30 33236 H 3102.4 -4.88088 -4.24711 0
M  V30 33237 N 3102.53 0.994677 -1.22245 0
M  V30 33238 C 3103.78 1.72816 -1.04008 0
M  V30 33239 C 3104.09 1.90919 0.425379 0
M  V30 33240 O 3105.3 2.61575 0.727383 0
M  V30 33241 C 3103.76 3.10928 -1.8125 0
M  V30 33242 C 3103.36 3.00763 -3.32033 0
M  V30 33243 C 3105.11 3.88334 -1.71455 0
M  V30 33244 C 3103.01 4.34019 -4.01723 0
M  V30 33245 H 3101.94 0.64796 -0.38557 0
M  V30 33246 H 3104.6 1.11055 -1.46079 0
M  V30 33247 H 3102.98 3.73361 -1.31977 0
M  V30 33248 H 3104.15 2.47506 -3.88687 0
M  V30 33249 H 3102.47 2.3684 -3.42485 0
M  V30 33250 H 3105.06 4.86962 -2.20845 0
M  V30 33251 H 3105.41 4.10797 -0.67464 0
M  V30 33252 H 3105.94 3.32576 -2.18261 0
M  V30 33253 H 3102.68 4.16756 -5.05959 0
M  V30 33254 H 3102.2 4.87196 -3.49858 0
M  V30 33255 H 3103.88 5.02774 -4.07218 0
M  V30 33256 N 3104.01 1.03186 1.19123 0
M  V30 33257 C 3104.96 0.58577 2.20347 0
M  V30 33258 C 3105.94 -0.367082 1.56657 0
M  V30 33259 O 3107.14 -0.187567 1.76003 0
M  V30 33260 C 3104.26 -0.0589403 3.43249 0
M  V30 33261 C 3103.35 0.91653 4.14078 0
M  V30 33262 N 3103.74 2.08013 4.61047 0
M  V30 33263 C 3102.04 0.740617 4.39808 0
M  V30 33264 C 3102.74 2.69561 5.15472 0
M  V30 33265 N 3101.72 1.97501 5.06452 0
M  V30 33266 H 3105.52 1.47263 2.54344 0
M  V30 33267 H 3103.03 0.899249 1.3523 0
M  V30 33268 H 3105.03 -0.396163 4.15013 0
M  V30 33269 H 3103.69 -0.941452 3.10752 0
M  V30 33270 H 3104.7 2.45942 4.55778 0
M  V30 33271 H 3101.38 -0.0925504 4.17397 0
M  V30 33272 H 3102.77 3.68122 5.62082 0
M  V30 33273 N 3105.49 -1.35184 0.810125 0
M  V30 33274 C 3106.74 -1.98274 0.391378 0
M  V30 33275 C 3107.06 -1.64578 -1.04589 0
M  V30 33276 O 3106.33 -0.930041 -1.72415 0
M  V30 33277 H 3104.91 -0.733432 0.141728 0
M  V30 33278 H 3107.57 -1.65038 1.03675 0
M  V30 33279 H 3106.67 -3.08069 0.499964 0
M  V30 33280 N 3106.97 -0.56394 -1.47165 0
M  V30 33281 C 3108.22 -0.0402225 -2.0166 0
M  V30 33282 C 3108.53 1.32043 -1.44305 0
M  V30 33283 O 3109.73 1.93444 -1.90504 0
M  V30 33284 C 3108.19 -0.021389 -3.59894 0
M  V30 33285 C 3107.8 -1.37921 -4.26241 0
M  V30 33286 C 3109.54 0.449368 -4.22115 0
M  V30 33287 C 3107.45 -1.31912 -5.76501 0
M  V30 33288 H 3106.38 -0.0112667 -0.753916 0
M  V30 33289 H 3109.03 -0.712796 -1.6909 0
M  V30 33290 H 3107.41 0.716969 -3.89455 0
M  V30 33291 H 3108.59 -2.13582 -4.08313 0
M  V30 33292 H 3106.9 -1.78845 -3.76036 0
M  V30 33293 H 3109.5 0.512827 -5.32235 0
M  V30 33294 H 3109.84 1.46284 -3.89752 0
M  V30 33295 H 3110.37 -0.23434 -3.97109 0
M  V30 33296 H 3107.11 -2.30881 -6.13494 0
M  V30 33297 H 3106.63 -0.604429 -5.96747 0
M  V30 33298 H 3108.31 -1.02404 -6.38845 0
M  V30 33299 N 3108.44 1.54704 -0.300735 0
M  V30 33300 C 3109.39 2.2351 0.575481 0
M  V30 33301 C 3110.36 1.2176 1.12977 0
M  V30 33302 O 3111.55 1.50379 1.17434 0
M  V30 33303 C 3108.69 2.97929 1.74162 0
M  V30 33304 C 3107.8 4.14452 1.21875 0
M  V30 33305 C 3106.93 4.76454 2.34873 0
M  V30 33306 C 3105.97 5.85122 1.79718 0
M  V30 33307 N 3105.11 6.4108 2.86289 0
M  V30 33308 H 3109.95 2.97995 -0.0178781 0
M  V30 33309 H 3107.49 1.47086 -0.0205924 0
M  V30 33310 H 3109.45 3.39307 2.42748 0
M  V30 33311 H 3108.08 2.25821 2.30661 0
M  V30 33312 H 3107.13 3.78017 0.42516 0
M  V30 33313 H 3108.44 4.92743 0.774979 0
M  V30 33314 H 3107.59 5.20683 3.11406 0
M  V30 33315 H 3106.33 3.97494 2.82577 0
M  V30 33316 H 3105.34 5.40317 1.01674 0
M  V30 33317 H 3106.56 6.65965 1.32919 0
M  V30 33318 H 3104.51 5.65004 3.33327 0
M  V30 33319 H 3104.43 7.14716 2.46407 0
M  V30 33320 H 3105.69 6.89967 3.6272 0
M  V30 33321 N 3109.92 0.0284543 1.57574 0
M  V30 33322 C 3111.15 -0.660541 1.96073 0
M  V30 33323 C 3111.57 -1.65701 0.90491 0
M  V30 33324 O 3110.92 -1.82148 -0.113347 0
M  V30 33325 C 3110.97 -1.3675 3.34636 0
M  V30 33326 O 3110.69 -0.410965 4.36168 0
M  V30 33327 C 3112.2 -2.14838 3.87762 0
M  V30 33328 H 3109.42 -0.182172 0.645797 0
M  V30 33329 H 3111.96 0.0880217 2.0431 0
M  V30 33330 H 3110.11 -2.06747 3.27619 0
M  V30 33331 H 3110.53 -0.912909 5.16494 0
M  V30 33332 H 3112 -2.59758 4.87062 0
M  V30 33333 H 3112.48 -2.98714 3.21973 0
M  V30 33334 H 3113.09 -1.498 3.98045 0
M  V30 33335 N 3111.4 -1.55689 -0.244686 0
M  V30 33336 C 3112.33 -1.86954 -1.32592 0
M  V30 33337 C 3113.35 -0.755973 -1.44184 0
M  V30 33338 O 3114.53 -1.03411 -1.45494 0
M  V30 33339 C 3111.63 -2.04263 -2.70426 0
M  V30 33340 C 3110.81 -3.35136 -2.81074 0
M  V30 33341 C 3109.87 -3.4216 -3.99767 0
M  V30 33342 O 3108.89 -4.15355 -3.8919 0
M  V30 33343 N 3110.09 -2.71614 -5.13036 0
M  V30 33344 H 3112.86 -2.80288 -1.06106 0
M  V30 33345 H 3110.42 -1.55953 -0.434783 0
M  V30 33346 H 3112.41 -2.06301 -3.4817 0
M  V30 33347 H 3110.98 -1.17663 -2.8961 0
M  V30 33348 H 3110.2 -3.45396 -1.89988 0
M  V30 33349 H 3111.49 -4.21394 -2.8514 0
M  V30 33350 H 3110.89 -2.11881 -5.24521 0
M  V30 33351 H 3109.45 -2.79341 -5.88907 0
M  V30 33352 N 3112.88 0.510441 -1.49105 0
M  V30 33353 C 3114.13 1.26265 -1.57802 0
M  V30 33354 C 3114.45 1.93227 -0.262383 0
M  V30 33355 O 3113.72 1.82284 0.717592 0
M  V30 33356 H 3112.3 0.469029 -0.581395 0
M  V30 33357 H 3114.96 0.59239 -1.85679 0
M  V30 33358 H 3114.06 2.03161 -2.36922 0
M  V30 33359 N 3114.36 1.38021 0.760791 0
M  V30 33360 C 3115.32 1.3448 1.85601 0
M  V30 33361 C 3116.32 0.246688 1.58896 0
M  V30 33362 O 3117.51 0.503169 1.66775 0
M  V30 33363 C 3114.64 1.09182 3.22943 0
M  V30 33364 H 3115.83 2.31911 1.90151 0
M  V30 33365 H 3113.39 1.23209 0.961725 0
M  V30 33366 H 3114.12 0.123272 3.24066 0
M  V30 33367 H 3113.91 1.88678 3.4372 0
M  V30 33368 H 3115.4 1.09382 4.0302 0
M  V30 33369 N 3115.83 -0.98818 1.22771 0
M  V30 33370 C 3117.25 -1.25288 0.988687 0
M  V30 33371 C 3117.45 -1.99024 -0.314903 0
M  V30 33372 O 3116.51 -2.30253 -1.03633 0
M  V30 33373 C 3117.82 -2.06005 2.19049 0
M  V30 33374 C 3119.37 -2.19172 2.23456 0
M  V30 33375 C 3119.84 -3.03277 3.43202 0
M  V30 33376 N 3121.33 -3.10863 3.43393 0
M  V30 33377 C 3122.07 -3.76242 4.327 0
M  V30 33378 N 3121.56 -4.43509 5.32232 0
M  V30 33379 N 3123.36 -3.73051 4.20463 0
M  V30 33380 H 3115.51 -0.493978 2.06576 0
M  V30 33381 H 3117.77 -0.280804 0.905457 0
M  V30 33382 H 3117.48 -1.59192 3.13609 0
M  V30 33383 H 3117.35 -3.06759 2.19497 0
M  V30 33384 H 3119.74 -2.65196 1.29441 0
M  V30 33385 H 3119.82 -1.17832 2.27044 0
M  V30 33386 H 3119.46 -2.57951 4.3752 0
M  V30 33387 H 3119.39 -4.04768 3.36854 0
M  V30 33388 H 3121.88 -2.62993 2.71372 0
M  V30 33389 H 3122.2 -4.91152 5.96649 0
M  V30 33390 H 3120.54 -4.42243 5.3614 0
M  V30 33391 H 3123.73 -3.19663 3.41955 0
M  V30 33392 H 3123.91 -4.23723 4.90268 0
M  V30 33393 N 3117.31 -1.03816 -1.18575 0
M  V30 33394 C 3118.24 -0.585094 -2.21606 0
M  V30 33395 C 3119.26 0.343935 -1.59126 0
M  V30 33396 O 3120.45 0.138851 -1.77959 0
M  V30 33397 C 3117.55 0.165542 -3.38495 0
M  V30 33398 C 3116.72 -0.770737 -4.30556 0
M  V30 33399 C 3115.78 -0.0638459 -5.26161 0
M  V30 33400 O 3114.8 -0.693458 -5.6496 0
M  V30 33401 N 3116.01 1.20367 -5.67884 0
M  V30 33402 H 3118.77 -1.47126 -2.61102 0
M  V30 33403 H 3116.33 -0.918339 -1.33335 0
M  V30 33404 H 3118.32 0.648222 -3.99475 0
M  V30 33405 H 3116.89 0.953215 -2.97712 0
M  V30 33406 H 3116.11 -1.43333 -3.67218 0
M  V30 33407 H 3117.4 -1.40675 -4.88966 0
M  V30 33408 H 3116.8 1.73577 -5.38412 0
M  V30 33409 H 3115.36 1.63067 -6.31072 0
M  V30 33410 N 3118.79 1.34753 -0.817283 0
M  V30 33411 C 3119.74 2.29619 -0.233148 0
M  V30 33412 C 3120.71 1.53322 0.638875 0
M  V30 33413 O 3121.89 1.81716 0.581707 0
M  V30 33414 C 3119.03 3.3978 0.6036 0
M  V30 33415 C 3118.15 4.31025 -0.290042 0
M  V30 33416 C 3117.28 5.28285 0.555732 0
M  V30 33417 C 3116.32 6.11168 -0.337647 0
M  V30 33418 N 3115.46 7.00534 0.468724 0
M  V30 33419 H 3120.3 2.78982 -1.04752 0
M  V30 33420 H 3117.83 1.37294 -0.52808 0
M  V30 33421 H 3119.79 4.02328 1.104 0
M  V30 33422 H 3118.42 2.91666 1.38313 0
M  V30 33423 H 3117.47 3.69389 -0.908617 0
M  V30 33424 H 3118.79 4.89134 -0.977222 0
M  V30 33425 H 3117.94 5.96257 1.12083 0
M  V30 33426 H 3116.68 4.707 1.27644 0
M  V30 33427 H 3115.68 5.42134 -0.914934 0
M  V30 33428 H 3116.91 6.70833 -1.05638 0
M  V30 33429 H 3114.85 6.45424 1.17321 0
M  V30 33430 H 3114.77 7.5583 -0.160184 0
M  V30 33431 H 3116.04 7.7284 1.01676 0
M  V30 33432 N 3120.27 0.571737 1.46864 0
M  V30 33433 C 3121.52 0.0531427 2.0243 0
M  V30 33434 C 3121.84 -1.30249 1.44449 0
M  V30 33435 O 3121.1 -1.86429 0.595215 0
M  V30 33436 C 3121.4 -0.0741683 3.57323 0
M  V30 33437 C 3121.06 1.21245 4.34293 0
M  V30 33438 C 3119.73 1.56497 4.55041 0
M  V30 33439 C 3122.08 2.06438 4.78574 0
M  V30 33440 C 3119.41 2.76761 5.1732 0
M  V30 33441 C 3121.76 3.25918 5.42181 0
M  V30 33442 C 3120.42 3.61466 5.61158 0
M  V30 33443 H 3119.69 0.0194463 0.740745 0
M  V30 33444 H 3122.34 0.746171 1.76365 0
M  V30 33445 H 3120.64 -0.850258 3.82463 0
M  V30 33446 H 3122.34 -0.491007 3.97983 0
M  V30 33447 H 3118.93 0.927996 4.18433 0
M  V30 33448 H 3123.12 1.80509 4.6231 0
M  V30 33449 H 3118.37 3.04454 5.30206 0
M  V30 33450 H 3122.55 3.92208 5.75452 0
M  V30 33451 H 3120.17 4.54748 6.09187 0
M  V30 33452 N 3121.75 -1.54542 0.308935 0
M  V30 33453 C 3122.97 -2.05172 -0.30316 0
M  V30 33454 C 3123.4 -1.18437 -1.46131 0
M  V30 33455 O 3122.76 -0.190194 -1.803 0
M  V30 33456 C 3122.8 -3.53145 -0.729464 0
M  V30 33457 O 3121.91 -3.69404 -1.83342 0
M  V30 33458 H 3121.25 -0.661506 -0.0574949 0
M  V30 33459 H 3123.78 -1.9952 0.45309 0
M  V30 33460 H 3123.79 -3.95144 -1.01612 0
M  V30 33461 H 3122.46 -4.15733 0.117695 0
M  V30 33462 H 3121.04 -3.3931 -1.5467 0
M  V30 33463 N 3123.23 -0.0368104 -1.57557 0
M  V30 33464 C 3124.45 0.653673 -1.9683 0
M  V30 33465 C 3124.88 1.64424 -0.913588 0
M  V30 33466 O 3124.23 1.80871 0.124717 0
M  V30 33467 C 3124.28 1.32964 -3.35191 0
M  V30 33468 O 3123.39 2.44507 -3.32099 0
M  V30 33469 H 3122.73 0.171113 -0.641573 0
M  V30 33470 H 3125.26 -0.100947 -2.04351 0
M  V30 33471 H 3125.27 1.68465 -3.71596 0
M  V30 33472 H 3123.94 0.603582 -4.11497 0
M  V30 33473 H 3122.52 2.1106 -3.07422 0
M  V30 33474 N 3124.7 1.55817 0.236426 0
M  V30 33475 C 3125.63 1.94208 1.29636 0
M  V30 33476 C 3126.61 0.808346 1.49666 0
M  V30 33477 O 3127.8 1.06947 1.62098 0
M  V30 33478 C 3124.93 2.24589 2.6491 0
M  V30 33479 C 3123.88 3.40313 2.59559 0
M  V30 33480 C 3123.21 3.56261 3.98726 0
M  V30 33481 C 3124.51 4.7571 2.15633 0
M  V30 33482 H 3126.2 2.82993 0.977503 0
M  V30 33483 H 3123.75 1.36156 0.46878 0
M  V30 33484 H 3125.7 2.50037 3.39204 0
M  V30 33485 H 3124.43 1.32641 2.98453 0
M  V30 33486 H 3123.09 3.1489 1.87722 0
M  V30 33487 H 3122.73 2.61715 4.29551 0
M  V30 33488 H 3122.43 4.34089 3.96031 0
M  V30 33489 H 3123.96 3.84041 4.74705 0
M  V30 33490 H 3125.37 5.00461 2.79664 0
M  V30 33491 H 3123.77 5.56714 2.24029 0
M  V30 33492 H 3124.84 4.72066 1.10822 0
M  V30 33493 N 3126.18 -0.502526 1.49373 0
M  V30 33494 C 3127.41 -1.27895 1.62254 0
M  V30 33495 C 3127.82 -1.86924 0.292588 0
M  V30 33496 O 3127.16 -1.68495 -0.731794 0
M  V30 33497 C 3127.22 -2.44925 2.63158 0
M  V30 33498 C 3126.89 -2.06777 4.07544 0
M  V30 33499 C 3127.89 -1.6084 4.94395 0
M  V30 33500 C 3125.57 -2.16459 4.53267 0
M  V30 33501 C 3127.56 -1.25087 6.25006 0
M  V30 33502 C 3125.25 -1.80317 5.83891 0
M  V30 33503 C 3126.25 -1.34706 6.69584 0
M  V30 33504 O 3125.94 -0.990521 7.97774 0
M  V30 33505 H 3125.67 -0.39417 0.549187 0
M  V30 33506 H 3128.22 -0.609997 1.96133 0
M  V30 33507 H 3126.45 -3.14891 2.24456 0
M  V30 33508 H 3128.14 -3.06953 2.65584 0
M  V30 33509 H 3128.91 -1.52808 4.60299 0
M  V30 33510 H 3124.79 -2.50912 3.86735 0
M  V30 33511 H 3128.33 -0.894147 6.91846 0
M  V30 33512 H 3124.23 -1.87999 6.17517 0
M  V30 33513 H 3125 -1.12212 8.10772 0
M  V30 33514 N 3127.66 -1.38422 -0.75346 0
M  V30 33515 C 3128.91 -1.33954 -1.50795 0
M  V30 33516 C 3129.22 0.0678121 -1.95482 0
M  V30 33517 O 3130.43 0.23503 -2.70481 0
M  V30 33518 C 3128.88 -2.35229 -2.72388 0
M  V30 33519 C 3128.49 -3.81586 -2.34726 0
M  V30 33520 C 3130.24 -2.39804 -3.50277 0
M  V30 33521 C 3128.14 -4.74546 -3.52931 0
M  V30 33522 H 3127.07 -0.497926 -0.566203 0
M  V30 33523 H 3129.72 -1.63977 -0.82363 0
M  V30 33524 H 3128.11 -1.98249 -3.42802 0
M  V30 33525 H 3129.28 -4.27505 -1.71977 0
M  V30 33526 H 3127.59 -3.8013 -1.69971 0
M  V30 33527 H 3130.19 -3.06454 -4.38166 0
M  V30 33528 H 3130.53 -1.41701 -3.91441 0
M  V30 33529 H 3131.07 -2.75584 -2.86877 0
M  V30 33530 H 3127.81 -5.73844 -3.16833 0
M  V30 33531 H 3127.33 -4.33319 -4.14722 0
M  V30 33532 H 3129.01 -4.92565 -4.1951 0
M  V30 33533 N 3129.14 0.981655 -1.23294 0
M  V30 33534 C 3130.36 1.76337 -1.09179 0
M  V30 33535 C 3130.79 1.84764 0.352693 0
M  V30 33536 O 3130.15 1.30834 1.25507 0
M  V30 33537 C 3130.19 3.16908 -1.72051 0
M  V30 33538 O 3129.3 4.00542 -0.98181 0
M  V30 33539 H 3128.64 0.542575 -0.382764 0
M  V30 33540 H 3131.17 1.23237 -1.63322 0
M  V30 33541 H 3131.18 3.67492 -1.77238 0
M  V30 33542 H 3129.85 3.1009 -2.77159 0
M  V30 33543 H 3128.43 3.59052 -1.00679 0
M  V30 33544 N 3130.62 1.04444 1.18022 0
M  V30 33545 C 3131.55 0.596838 2.21293 0
M  V30 33546 C 3132.56 -0.335492 1.59306 0
M  V30 33547 O 3133.75 -0.129411 1.7803 0
M  V30 33548 C 3130.85 -0.147588 3.38578 0
M  V30 33549 C 3130.02 0.79356 4.30141 0
M  V30 33550 C 3129.08 0.0917486 5.2612 0
M  V30 33551 O 3128.11 0.723409 5.64584 0
M  V30 33552 N 3129.31 -1.17354 5.68514 0
M  V30 33553 H 3132.07 1.48508 2.60318 0
M  V30 33554 H 3129.64 0.925397 1.32846 0
M  V30 33555 H 3131.63 -0.627028 3.99813 0
M  V30 33556 H 3130.2 -0.937414 2.98214 0
M  V30 33557 H 3129.42 1.45278 3.66453 0
M  V30 33558 H 3130.71 1.43266 4.88213 0
M  V30 33559 H 3130.1 -1.70719 5.39325 0
M  V30 33560 H 3128.66 -1.59718 6.31928 0
M  V30 33561 N 3132.09 -1.34317 0.824418 0
M  V30 33562 C 3133.34 -1.98239 0.413201 0
M  V30 33563 C 3133.67 -1.65356 -1.02409 0
M  V30 33564 O 3132.92 -0.91806 -1.7283 0
M  V30 33565 C 3133.22 -3.5292 0.564086 0
M  V30 33566 C 3132.89 -4.05718 1.96732 0
M  V30 33567 C 3131.55 -4.19849 2.35118 0
M  V30 33568 C 3133.9 -4.341 2.88455 0
M  V30 33569 C 3131.23 -4.59688 3.64559 0
M  V30 33570 C 3133.58 -4.75386 4.17361 0
M  V30 33571 C 3132.25 -4.87722 4.55723 0
M  V30 33572 H 3131.52 -0.72541 0.151201 0
M  V30 33573 H 3134.16 -1.60236 1.04865 0
M  V30 33574 H 3132.47 -3.91494 -0.154747 0
M  V30 33575 H 3134.17 -4.0036 0.226418 0
M  V30 33576 H 3130.76 -3.95184 1.65915 0
M  V30 33577 H 3134.94 -4.2272 2.60041 0
M  V30 33578 H 3130.2 -4.6743 3.94105 0
M  V30 33579 H 3134.37 -4.96306 4.88521 0
M  V30 33580 H 3132 -5.1835 5.56073 0
M  V30 33581 N 3133.57 -0.579517 -1.46558 0
M  V30 33582 C 3134.82 -0.061609 -2.01606 0
M  V30 33583 C 3135.13 1.30505 -1.45697 0
M  V30 33584 O 3136.34 1.91413 -1.92545 0
M  V30 33585 C 3134.8 -0.0595593 -3.59851 0
M  V30 33586 C 3134.4 -1.42434 -4.24755 0
M  V30 33587 C 3136.15 0.404572 -4.22568 0
M  V30 33588 C 3134.05 -1.38019 -5.75069 0
M  V30 33589 H 3132.98 -0.0192623 -0.753754 0
M  V30 33590 H 3135.64 -0.73069 -1.68325 0
M  V30 33591 H 3134.02 0.675622 -3.90194 0
M  V30 33592 H 3135.19 -2.179 -4.06025 0
M  V30 33593 H 3133.51 -1.82824 -3.74118 0
M  V30 33594 H 3136.1 0.456347 -5.32749 0
M  V30 33595 H 3136.45 1.42142 -3.91282 0
M  V30 33596 H 3136.98 -0.276445 -3.96838 0
M  V30 33597 H 3133.72 -2.37375 -6.1101 0
M  V30 33598 H 3133.24 -0.667688 -5.96072 0
M  V30 33599 H 3134.92 -1.09174 -6.37723 0
M  V30 33600 N 3135.05 1.54376 -0.317127 0
M  V30 33601 C 3136.3 1.9963 0.288236 0
M  V30 33602 C 3136.61 1.20912 1.53752 0
M  V30 33603 O 3137.82 1.56512 2.21848 0
M  V30 33604 C 3136.27 3.55451 0.564125 0
M  V30 33605 C 3135.88 4.42996 -0.667737 0
M  V30 33606 C 3137.63 4.09189 1.1298 0
M  V30 33607 C 3135.53 5.90278 -0.364107 0
M  V30 33608 H 3134.46 0.745713 0.111479 0
M  V30 33609 H 3137.11 1.7843 -0.428348 0
M  V30 33610 H 3135.5 3.72613 1.34073 0
M  V30 33611 H 3136.67 4.37609 -1.44342 0
M  V30 33612 H 3134.99 4.00114 -1.15317 0
M  V30 33613 H 3137.58 5.16812 1.37148 0
M  V30 33614 H 3137.93 3.60777 2.07716 0
M  V30 33615 H 3138.46 3.95634 0.414526 0
M  V30 33616 H 3135.2 6.42872 -1.28047 0
M  V30 33617 H 3134.72 5.98633 0.373997 0
M  V30 33618 H 3136.4 6.46994 0.0284296 0
M  V30 33619 N 3136.53 0.0451655 1.57535 0
M  V30 33620 C 3137.46 -0.966494 2.06722 0
M  V30 33621 C 3138.44 -1.30764 0.966415 0
M  V30 33622 O 3139.62 -1.42155 1.23791 0
M  V30 33623 C 3136.75 -2.28216 2.5027 0
M  V30 33624 C 3135.8 -2.09449 3.71529 0
M  V30 33625 S 3136.63 -1.37841 5.17455 0
M  V30 33626 C 3137.79 -2.70744 5.64313 0
M  V30 33627 H 3138.02 -0.54786 2.92208 0
M  V30 33628 H 3135.55 -0.166946 1.53495 0
M  V30 33629 H 3137.51 -3.03844 2.76024 0
M  V30 33630 H 3136.17 -2.67209 1.65101 0
M  V30 33631 H 3135.36 -3.06751 3.99899 0
M  V30 33632 H 3134.97 -1.41961 3.4601 0
M  V30 33633 H 3137.26 -3.66933 5.69532 0
M  V30 33634 H 3138.2 -2.47017 6.63618 0
M  V30 33635 H 3138.61 -2.76727 4.92019 0
M  V30 33636 N 3138.01 -1.5594 -0.228159 0
M  V30 33637 C 3139.24 -1.82457 -0.969179 0
M  V30 33638 C 3139.64 -0.621164 -1.78713 0
M  V30 33639 O 3138.99 0.419662 -1.78842 0
M  V30 33640 C 3139.05 -3.02609 -1.94083 0
M  V30 33641 C 3138.71 -4.37881 -1.30803 0
M  V30 33642 C 3139.71 -5.1515 -0.701185 0
M  V30 33643 C 3137.4 -4.84597 -1.32178 0
M  V30 33644 C 3139.39 -6.37293 -0.116519 0
M  V30 33645 C 3137.08 -6.06685 -0.733269 0
M  V30 33646 C 3138.07 -6.82873 -0.131684 0
M  V30 33647 O 3137.76 -8.02652 0.44769 0
M  V30 33648 H 3137.49 -0.610664 -0.28994 0
M  V30 33649 H 3140.05 -2.03866 -0.250541 0
M  V30 33650 H 3138.28 -2.77001 -2.69828 0
M  V30 33651 H 3139.97 -3.16055 -2.54684 0
M  V30 33652 H 3140.73 -4.80168 -0.682938 0
M  V30 33653 H 3136.61 -4.25274 -1.77942 0
M  V30 33654 H 3140.16 -6.96703 0.353661 0
M  V30 33655 H 3136.05 -6.41141 -0.748906 0
M  V30 33656 H 3136.82 -8.17788 0.341368 0
M  V30 33657 N 3139.48 0.494597 -1.49638 0
M  V30 33658 C 3140.71 1.27688 -1.63433 0
M  V30 33659 C 3141.13 1.85559 -0.308163 0
M  V30 33660 O 3140.49 1.66171 0.725054 0
M  V30 33661 C 3140.54 2.37835 -2.71048 0
M  V30 33662 O 3139.64 3.41858 -2.30666 0
M  V30 33663 H 3138.99 0.376688 -0.546811 0
M  V30 33664 H 3141.52 0.591378 -1.95867 0
M  V30 33665 H 3141.53 2.83503 -2.93411 0
M  V30 33666 H 3140.2 1.95082 -3.67309 0
M  V30 33667 H 3138.78 3.02065 -2.18658 0
M  V30 33668 N 3140.96 1.3882 0.746109 0
M  V30 33669 C 3141.89 1.39375 1.87341 0
M  V30 33670 C 3142.87 0.258613 1.68123 0
M  V30 33671 O 3144.06 0.462802 1.88605 0
M  V30 33672 C 3141.19 1.22549 3.2496 0
M  V30 33673 C 3140.14 2.33346 3.58795 0
M  V30 33674 C 3139.47 2.01618 4.95232 0
M  V30 33675 C 3140.77 3.7563 3.62904 0
M  V30 33676 H 3142.46 2.33712 1.87134 0
M  V30 33677 H 3140.01 1.12497 0.898917 0
M  V30 33678 H 3141.96 1.21561 4.03486 0
M  V30 33679 H 3140.69 0.246764 3.25666 0
M  V30 33680 H 3139.34 2.33532 2.82592 0
M  V30 33681 H 3138.99 1.02211 4.92506 0
M  V30 33682 H 3138.69 2.75828 5.18838 0
M  V30 33683 H 3140.22 2.02261 5.76127 0
M  V30 33684 H 3141.63 3.77433 4.31529 0
M  V30 33685 H 3140.03 4.49107 3.98023 0
M  V30 33686 H 3141.1 4.07407 2.6296 0
M  V30 33687 N 3142.44 -0.975103 1.23812 0
M  V30 33688 C 3143.72 -1.6919 0.98153 0
M  V30 33689 C 3144.1 -2.05134 -0.498337 0
M  V30 33690 O 3143.45 -1.74867 -1.47084 0
M  V30 33691 C 3143.66 -2.92938 1.89706 0
M  V30 33692 C 3145 -3.65338 2.16363 0
M  V30 33693 O 3146.03 -3.02981 1.87299 0
M  V30 33694 O 3144.89 -4.77572 2.65683 0
M  V30 33695 H 3141.98 -0.739308 0.370612 0
M  V30 33696 H 3144.53 -1.02985 1.34878 0
M  V30 33697 H 3143.3 -2.63013 2.89723 0
M  V30 33698 H 3142.92 -3.66879 1.53251 0
M  V30 33699 N 3143.92 -1.05068 -1.17467 0
M  V30 33700 C 3145.17 -0.758518 -1.87326 0
M  V30 33701 C 3145.49 0.716517 -1.81359 0
M  V30 33702 O 3144.76 1.51766 -1.2387 0
M  V30 33703 H 3143.34 -0.277591 -0.693507 0
M  V30 33704 H 3146 -1.32957 -1.42508 0
M  V30 33705 H 3145.1 -1.07235 -2.93099 0
M  V30 33706 N 3145.4 1.33878 -0.831529 0
M  V30 33707 C 3146.34 2.29359 -0.257489 0
M  V30 33708 C 3147.31 1.53991 0.622577 0
M  V30 33709 O 3148.5 1.82323 0.5624 0
M  V30 33710 C 3145.64 3.40401 0.567527 0
M  V30 33711 C 3144.75 4.30693 -0.335742 0
M  V30 33712 C 3143.89 5.28845 0.499669 0
M  V30 33713 C 3142.93 6.10776 -0.40245 0
M  V30 33714 N 3142.06 7.00991 0.394397 0
M  V30 33715 H 3146.9 2.77855 -1.07705 0
M  V30 33716 H 3144.44 1.36726 -0.542613 0
M  V30 33717 H 3146.4 4.03476 1.06126 0
M  V30 33718 H 3145.03 2.93117 1.35212 0
M  V30 33719 H 3144.08 3.68405 -0.947745 0
M  V30 33720 H 3145.39 4.8807 -1.02905 0
M  V30 33721 H 3144.55 5.97412 1.05753 0
M  V30 33722 H 3143.28 4.72027 1.22644 0
M  V30 33723 H 3142.29 5.41133 -0.972383 0
M  V30 33724 H 3143.51 6.69675 -1.12747 0
M  V30 33725 H 3141.46 6.46632 1.10469 0
M  V30 33726 H 3141.38 7.55618 -0.240341 0
M  V30 33727 H 3142.65 7.73875 0.934731 0
M  V30 33728 N 3146.87 0.587281 1.46249 0
M  V30 33729 C 3147.82 -0.143343 2.30354 0
M  V30 33730 C 3148.79 -0.879691 1.40892 0
M  V30 33731 O 3149.98 -0.869456 1.69838 0
M  V30 33732 C 3147.12 -1.14809 3.25443 0
M  V30 33733 C 3146.23 -0.414716 4.30005 0
M  V30 33734 C 3145.36 -1.40739 5.12217 0
M  V30 33735 C 3144.4 -0.660679 6.08524 0
M  V30 33736 N 3143.54 -1.60164 6.83588 0
M  V30 33737 H 3148.38 0.579917 2.92303 0
M  V30 33738 H 3145.92 0.297795 1.44054 0
M  V30 33739 H 3147.88 -1.74353 3.79021 0
M  V30 33740 H 3146.51 -1.83901 2.65293 0
M  V30 33741 H 3145.56 0.295853 3.79248 0
M  V30 33742 H 3146.87 0.168826 4.98514 0
M  V30 33743 H 3146.02 -2.0755 5.70095 0
M  V30 33744 H 3144.76 -2.02486 4.43679 0
M  V30 33745 H 3143.77 0.021183 5.49796 0
M  V30 33746 H 3144.99 -0.0485357 6.79083 0
M  V30 33747 H 3142.94 -2.20713 6.17756 0
M  V30 33748 H 3142.86 -1.07102 7.48375 0
M  V30 33749 H 3144.12 -2.25996 7.4602 0
M  V30 33750 N 3148.35 -1.54206 0.325309 0
M  V30 33751 C 3149.6 -2.01601 -0.269908 0
M  V30 33752 C 3149.95 -1.20936 -1.49641 0
M  V30 33753 O 3149.25 -0.283871 -1.89485 0
M  V30 33754 C 3149.44 -3.51361 -0.654231 0
M  V30 33755 C 3149.27 -4.46525 0.533475 0
M  V30 33756 C 3148.04 -4.94626 1.03312 0
M  V30 33757 C 3150.24 -4.95266 1.38621 0
M  V30 33758 N 3148.22 -5.73697 2.18506 0
M  V30 33759 C 3149.59 -5.7228 2.38529 0
M  V30 33760 C 3151.65 -4.77406 1.41378 0
M  V30 33761 C 3150.35 -6.33334 3.41 0
M  V30 33762 C 3152.37 -5.39297 2.42719 0
M  V30 33763 C 3151.74 -6.16163 3.41354 0
M  V30 33764 H 3147.84 -0.779493 -0.0625641 0
M  V30 33765 H 3150.42 -1.8917 0.460744 0
M  V30 33766 H 3148.59 -3.64034 -1.35401 0
M  V30 33767 H 3150.32 -3.85521 -1.23107 0
M  V30 33768 H 3147.08 -4.69731 0.604127 0
M  V30 33769 H 3147.5 -6.1791 2.76616 0
M  V30 33770 H 3152.14 -4.1754 0.664869 0
M  V30 33771 H 3149.86 -6.9232 4.16796 0
M  V30 33772 H 3153.45 -5.27394 2.45656 0
M  V30 33773 H 3152.33 -6.63203 4.18487 0
M  V30 33774 N 3149.83 -0.0535194 -1.57509 0
M  V30 33775 C 3150.76 0.949285 -2.08617 0
M  V30 33776 C 3151.78 1.27326 -1.01449 0
M  V30 33777 O 3152.97 1.23365 -1.29009 0
M  V30 33778 C 3150.07 2.27019 -2.51626 0
M  V30 33779 C 3149.24 2.12778 -3.82157 0
M  V30 33780 C 3148.3 3.28013 -4.11454 0
M  V30 33781 O 3147.32 3.03813 -4.81338 0
M  V30 33782 N 3148.53 4.52561 -3.63551 0
M  V30 33783 H 3151.29 0.513048 -2.95276 0
M  V30 33784 H 3148.85 0.132665 -1.61356 0
M  V30 33785 H 3150.84 3.02982 -2.68299 0
M  V30 33786 H 3149.41 2.62202 -1.70203 0
M  V30 33787 H 3148.63 1.21393 -3.75043 0
M  V30 33788 H 3149.92 2.00493 -4.67632 0
M  V30 33789 H 3149.32 4.75112 -3.07059 0
M  V30 33790 H 3147.88 5.2561 -3.85458 0
M  V30 33791 N 3151.31 1.56059 0.219886 0
M  V30 33792 C 3152.54 1.83234 0.960882 0
M  V30 33793 C 3152.95 0.632859 1.77877 0
M  V30 33794 O 3152.31 -0.398593 1.78094 0
M  V30 33795 C 3152.36 3.08945 1.8771 0
M  V30 33796 O 3152.08 4.24265 1.09227 0
M  V30 33797 C 3153.58 3.4912 2.73186 0
M  V30 33798 H 3150.8 0.60908 0.281535 0
M  V30 33799 H 3153.35 2.0315 0.234613 0
M  V30 33800 H 3151.5 2.91 2.5573 0
M  V30 33801 H 3151.92 4.95691 1.71438 0
M  V30 33802 H 3153.39 4.40113 3.33174 0
M  V30 33803 H 3153.87 2.7095 3.45663 0
M  V30 33804 H 3154.47 3.6951 2.10576 0
M  V30 33805 N 3152.79 -0.486655 1.49898 0
M  V30 33806 C 3154.02 -1.26167 1.63602 0
M  V30 33807 C 3154.43 -1.86603 0.312397 0
M  V30 33808 O 3153.77 -1.69261 -0.713882 0
M  V30 33809 C 3153.83 -2.4212 2.65741 0
M  V30 33810 C 3153.49 -2.02443 4.09714 0
M  V30 33811 C 3154.49 -1.55588 4.96073 0
M  V30 33812 C 3152.18 -2.11639 4.55537 0
M  V30 33813 C 3154.17 -1.18451 6.26297 0
M  V30 33814 C 3151.86 -1.74114 5.85771 0
M  V30 33815 C 3152.86 -1.27596 6.70976 0
M  V30 33816 O 3152.54 -0.905851 7.9878 0
M  V30 33817 H 3152.28 -0.388323 0.553337 0
M  V30 33818 H 3154.83 -0.58916 1.96769 0
M  V30 33819 H 3153.06 -3.12493 2.27783 0
M  V30 33820 H 3154.75 -3.04119 2.68825 0
M  V30 33821 H 3155.51 -1.47917 4.61893 0
M  V30 33822 H 3151.39 -2.46796 3.89375 0
M  V30 33823 H 3154.94 -0.820717 6.92755 0
M  V30 33824 H 3150.83 -1.81439 6.19476 0
M  V30 33825 H 3151.6 -1.03607 8.11916 0
M  V30 33826 N 3154.27 -1.39214 -0.738737 0
M  V30 33827 C 3155.68 -1.20736 -1.04379 0
M  V30 33828 C 3155.88 -0.0663436 -2.01391 0
M  V30 33829 O 3154.94 0.583186 -2.45673 0
M  V30 33830 C 3156.25 -2.53989 -1.60965 0
M  V30 33831 C 3157.8 -2.60802 -1.73064 0
M  V30 33832 C 3158.27 -3.94268 -2.3306 0
M  V30 33833 N 3159.76 -3.95887 -2.40474 0
M  V30 33834 C 3160.5 -4.95928 -2.87825 0
M  V30 33835 N 3160 -6.06366 -3.351 0
M  V30 33836 N 3161.79 -4.83309 -2.87 0
M  V30 33837 H 3153.94 -2.12186 -0.0952623 0
M  V30 33838 H 3156.2 -0.94218 -0.104885 0
M  V30 33839 H 3155.91 -3.38016 -0.971488 0
M  V30 33840 H 3155.78 -2.73443 -2.59824 0
M  V30 33841 H 3158.17 -1.77161 -2.36004 0
M  V30 33842 H 3158.25 -2.45202 -0.728684 0
M  V30 33843 H 3157.89 -4.78338 -1.70749 0
M  V30 33844 H 3157.82 -4.07187 -3.33926 0
M  V30 33845 H 3160.32 -3.16127 -2.07056 0
M  V30 33846 H 3160.63 -6.78616 -3.6973 0
M  V30 33847 H 3158.97 -6.09965 -3.33119 0
M  V30 33848 H 3162.16 -3.96136 -2.49388 0
M  V30 33849 H 3162.34 -5.61422 -3.23588 0
M  V30 33850 N 3155.74 0.968523 -1.24328 0
M  V30 33851 C 3156.99 1.70801 -1.08035 0
M  V30 33852 C 3157.31 1.91228 0.381695 0
M  V30 33853 O 3156.58 1.48944 1.2725 0
M  V30 33854 H 3155.16 0.632905 -0.396788 0
M  V30 33855 H 3157.82 1.1652 -1.56234 0
M  V30 33856 H 3156.92 2.69284 -1.57773 0
M  V30 33857 N 3157.22 1.0569 1.16908 0
M  V30 33858 C 3158.17 0.656301 2.23149 0
M  V30 33859 C 3159.16 -0.324844 1.66256 0
M  V30 33860 O 3160.37 -0.190365 1.78991 0
M  V30 33861 H 3156.74 0.194083 0.726523 0
M  V30 33862 H 3158.72 1.56235 2.5423 0
M  V30 33863 C 3157.46 0.0523042 3.47661 0
M  V30 33864 H 3156.79 0.798368 3.91748 0
M  V30 33865 H 3158.23 -0.190551 4.23572 0
M  V30 33866 C 3156.69 -1.20243 3.14712 0
M  V30 33867 O 3157.22 -2.29118 3.29951 0
M  V30 33868 N 3155.42 -1.10202 2.68894 0
M  V30 33869 H 3154.97 -0.216018 2.56693 0
M  V30 33870 H 3154.93 -1.9424 2.47221 0
M  V30 33871 N 3158.7 -1.33435 0.838617 0
M  V30 33872 C 3159.92 -2.02532 0.446736 0
M  V30 33873 C 3160.35 -1.62682 -0.944246 0
M  V30 33874 O 3159.71 -0.819298 -1.61732 0
M  V30 33875 C 3159.76 -3.55988 0.574857 0
M  V30 33876 O 3158.86 -4.10465 -0.398991 0
M  V30 33877 H 3158.2 -0.63867 0.181649 0
M  V30 33878 H 3160.73 -1.7034 1.13338 0
M  V30 33879 H 3160.74 -4.05439 0.45641 0
M  V30 33880 H 3159.42 -3.84337 1.58928 0
M  V30 33881 H 3157.99 -3.72139 -0.238122 0
M  V30 33882 N 3160.18 -0.595029 -1.45935 0
M  V30 33883 C 3161.41 -0.0913294 -2.06698 0
M  V30 33884 C 3161.82 1.21894 -1.44178 0
M  V30 33885 O 3161.18 1.7397 -0.551433 0
M  V30 33886 C 3161.23 0.0681165 -3.61436 0
M  V30 33887 O 3160.95 -1.19031 -4.2162 0
M  V30 33888 C 3162.45 0.604737 -4.39156 0
M  V30 33889 H 3159.67 -0.0630855 -0.668028 0
M  V30 33890 H 3162.21 -0.819198 -1.87375 0
M  V30 33891 H 3160.37 0.746257 -3.80144 0
M  V30 33892 H 3160.78 -1.01196 -5.14645 0
M  V30 33893 H 3162.26 0.665436 -5.47974 0
M  V30 33894 H 3162.73 1.62437 -4.08058 0
M  V30 33895 H 3163.34 -0.0389405 -4.25282 0
M  V30 33896 N 3161.66 1.54031 -0.333483 0
M  V30 33897 C 3162.9 2.00348 0.265572 0
M  V30 33898 C 3163.22 1.22312 1.51871 0
M  V30 33899 O 3162.49 0.327583 1.93142 0
M  V30 33900 H 3161.07 0.740124 0.101122 0
M  V30 33901 H 3163.74 1.89579 -0.452318 0
M  V30 33902 H 3162.83 3.07821 0.515056 0
M  V30 33903 N 3163.13 0.0618717 1.57479 0
M  V30 33904 C 3164.36 -0.618802 1.9743 0
M  V30 33905 C 3164.78 -1.63744 0.939854 0
M  V30 33906 O 3164.13 -1.82347 -0.0746853 0
M  V30 33907 C 3164.18 -1.29622 3.37462 0
M  V30 33908 O 3163.91 -0.318355 4.36942 0
M  V30 33909 C 3165.41 -2.06565 3.92232 0
M  V30 33910 H 3162.63 -0.168433 0.649516 0
M  V30 33911 H 3165.17 0.131339 2.04078 0
M  V30 33912 H 3163.33 -1.99751 3.31931 0
M  V30 33913 H 3163.74 -0.803148 5.18314 0
M  V30 33914 H 3165.21 -2.49369 4.92462 0
M  V30 33915 H 3165.69 -2.91818 3.28236 0
M  V30 33916 H 3166.3 -1.41323 4.01133 0
M  V30 33917 N 3164.61 -1.56173 -0.211607 0
M  V30 33918 C 3165.54 -1.96246 -1.26529 0
M  V30 33919 C 3166.52 -0.832054 -1.48361 0
M  V30 33920 O 3167.71 -1.09513 -1.60376 0
M  V30 33921 C 3164.84 -2.28775 -2.61303 0
M  V30 33922 C 3163.79 -3.44399 -2.54112 0
M  V30 33923 C 3163.12 -3.62559 -3.93007 0
M  V30 33924 C 3164.42 -4.7908 -2.08038 0
M  V30 33925 H 3166.11 -2.84513 -0.932357 0
M  V30 33926 H 3163.66 -1.36885 -0.44706 0
M  V30 33927 H 3165.61 -2.55402 -3.35184 0
M  V30 33928 H 3164.34 -1.37372 -2.96305 0
M  V30 33929 H 3162.99 -3.17837 -1.82689 0
M  V30 33930 H 3162.64 -2.68516 -4.25333 0
M  V30 33931 H 3162.34 -4.40334 -3.89075 0
M  V30 33932 H 3163.87 -3.91545 -4.68535 0
M  V30 33933 H 3165.28 -5.04846 -2.71667 0
M  V30 33934 H 3163.68 -5.60208 -2.15144 0
M  V30 33935 H 3164.75 -4.73769 -1.03298 0
M  V30 33936 N 3166.09 0.478699 -1.50154 0
M  V30 33937 C 3167.02 1.59613 -1.63092 0
M  V30 33938 C 3168 1.55377 -0.479238 0
M  V30 33939 O 3169.19 1.75111 -0.697746 0
M  V30 33940 C 3166.31 2.98178 -1.60648 0
M  V30 33941 C 3165.36 3.20595 -2.81285 0
M  V30 33942 S 3166.19 3.01313 -4.42686 0
M  V30 33943 C 3167.35 4.42233 -4.42923 0
M  V30 33944 H 3167.58 1.48398 -2.57615 0
M  V30 33945 H 3165.11 0.665489 -1.39322 0
M  V30 33946 H 3167.07 3.78067 -1.59923 0
M  V30 33947 H 3165.73 3.06789 -0.673738 0
M  V30 33948 H 3164.93 4.21804 -2.75857 0
M  V30 33949 H 3164.53 2.48465 -2.79537 0
M  V30 33950 H 3166.82 5.3473 -4.16017 0
M  V30 33951 H 3167.76 4.52705 -5.44485 0
M  V30 33952 H 3168.17 4.23956 -3.72722 0
M  V30 33953 N 3167.57 1.39603 0.731343 0
M  V30 33954 C 3168.81 1.37229 1.49318 0
M  V30 33955 C 3169.15 -0.0306161 1.94176 0
M  V30 33956 O 3168.42 -0.996265 1.67047 0
M  V30 33957 C 3168.71 2.34789 2.73031 0
M  V30 33958 C 3168.56 3.84038 2.34169 0
M  V30 33959 C 3169.88 2.30122 3.75142 0
M  V30 33960 H 3167 0.499792 0.541643 0
M  V30 33961 H 3169.64 1.70623 0.835938 0
M  V30 33962 H 3167.79 2.06443 3.2911 0
M  V30 33963 H 3169.46 4.23148 1.83693 0
M  V30 33964 H 3167.7 4.00636 1.66354 0
M  V30 33965 H 3168.37 4.47793 3.22778 0
M  V30 33966 H 3170.85 2.55195 3.28656 0
M  V30 33967 H 3169.73 3.00459 4.59365 0
M  V30 33968 H 3169.99 1.30748 4.22324 0
M  V30 33969 N 3169.05 -0.961916 1.2484 0
M  V30 33970 C 3170.29 -1.70562 1.09154 0
M  V30 33971 C 3170.62 -1.90974 -0.368686 0
M  V30 33972 O 3169.88 -1.47295 -1.28852 0
M  V30 33973 C 3170.18 -3.09751 1.78295 0
M  V30 33974 C 3169.84 -3.09163 3.28221 0
M  V30 33975 C 3168.5 -3.0871 3.69123 0
M  V30 33976 C 3170.86 -3.0305 4.2404 0
M  V30 33977 C 3168.18 -2.99883 5.04269 0
M  V30 33978 C 3170.54 -2.95766 5.59201 0
M  V30 33979 C 3169.2 -2.93644 5.99441 0
M  V30 33980 H 3168.47 -0.624132 0.399425 0
M  V30 33981 H 3171.12 -1.12435 1.55018 0
M  V30 33982 H 3169.42 -3.71378 1.24842 0
M  V30 33983 H 3171.12 -3.66101 1.63618 0
M  V30 33984 H 3167.71 -3.10283 2.95672 0
M  V30 33985 H 3171.89 -3.02525 3.93437 0
M  V30 33986 H 3167.15 -2.96605 5.34636 0
M  V30 33987 H 3171.32 -2.89996 6.33147 0
M  V30 33988 H 3168.95 -2.86561 7.04121 0
M  V30 33989 N 3170.52 -1.06308 -1.16346 0
M  V30 33990 C 3171.77 -0.779885 -1.8688 0
M  V30 33991 C 3172.1 0.693636 -1.81711 0
M  V30 33992 O 3171.35 1.52399 -1.22772 0
M  V30 33993 C 3171.65 -1.21996 -3.35934 0
M  V30 33994 C 3171.32 -2.69762 -3.61302 0
M  V30 33995 C 3169.98 -3.10125 -3.67935 0
M  V30 33996 C 3172.33 -3.65193 -3.71865 0
M  V30 33997 C 3169.66 -4.44759 -3.82631 0
M  V30 33998 C 3172.01 -4.99575 -3.88082 0
M  V30 33999 C 3170.68 -5.39575 -3.92957 0
M  V30 34000 H 3169.95 -0.28538 -0.683842 0
M  V30 34001 H 3172.59 -1.3322 -1.37567 0
M  V30 34002 H 3170.9 -0.586842 -3.8738 0
M  V30 34003 H 3172.6 -0.977889 -3.88894 0
M  V30 34004 H 3169.19 -2.37511 -3.56773 0
M  V30 34005 H 3173.37 -3.35142 -3.66051 0
M  V30 34006 H 3168.63 -4.75235 -3.84658 0
M  V30 34007 H 3172.8 -5.73404 -3.95197 0
M  V30 34008 H 3170.43 -6.43902 -4.04097 0
M  V30 34009 N 3172 1.32989 -0.845682 0
M  V30 34010 C 3173.25 1.97167 -0.443809 0
M  V30 34011 C 3173.57 1.67294 1.00189 0
M  V30 34012 O 3172.84 0.975427 1.69889 0
M  V30 34013 H 3171.42 0.729416 -0.161124 0
M  V30 34014 H 3174.08 1.62231 -1.08014 0
M  V30 34015 H 3173.18 3.06636 -0.581467 0
M  V30 34016 N 3173.48 0.60276 1.45618 0
M  V30 34017 C 3174.43 -0.131443 2.32228 0
M  V30 34018 C 3175.42 -0.864458 1.45683 0
M  V30 34019 O 3176.63 -0.780572 1.62195 0
M  V30 34020 H 3173 -0.0612506 0.749501 0
M  V30 34021 H 3174.97 0.617547 2.9194 0
M  V30 34022 C 3173.72 -1.1186 3.29215 0
M  V30 34023 H 3173.05 -0.563992 3.95802 0
M  V30 34024 H 3174.49 -1.60235 3.92557 0
M  V30 34025 C 3172.95 -2.18974 2.56031 0
M  V30 34026 O 3173.48 -3.26642 2.33812 0
M  V30 34027 N 3171.68 -1.94126 2.16249 0
M  V30 34028 H 3171.23 -1.06575 2.3452 0
M  V30 34029 H 3171.19 -2.66 1.67605 0
M  V30 34030 N 3174.96 -1.53852 0.341647 0
M  V30 34031 C 3176.2 -2.0118 -0.255827 0
M  V30 34032 C 3176.54 -1.22912 -1.50354 0
M  V30 34033 O 3175.81 -0.316232 -1.91912 0
M  V30 34034 C 3176.1 -3.5553 -0.571871 0
M  V30 34035 C 3175.95 -4.4451 0.687805 0
M  V30 34036 C 3177.27 -4.1783 -1.38225 0
M  V30 34037 H 3174.39 -0.731297 -0.0915081 0
M  V30 34038 H 3177.03 -1.84302 0.461808 0
M  V30 34039 H 3175.18 -3.70043 -1.18324 0
M  V30 34040 H 3176.85 -4.41837 1.3258 0
M  V30 34041 H 3175.09 -4.1345 1.31308 0
M  V30 34042 H 3175.76 -5.50385 0.421955 0
M  V30 34043 H 3178.24 -4.07003 -0.865303 0
M  V30 34044 H 3177.12 -5.25904 -1.57214 0
M  V30 34045 H 3177.38 -3.72327 -2.38379 0
M  V30 34046 N 3176.44 -0.0702223 -1.57443 0
M  V30 34047 C 3177.71 0.640168 -1.84828 0
M  V30 34048 C 3178.09 1.87887 -0.962377 0
M  V30 34049 O 3177.44 2.28483 -0.028261 0
M  V30 34050 C 3177.65 0.979323 -3.34978 0
M  V30 34051 C 3179 1.35348 -4.0245 0
M  V30 34052 O 3180.02 1.0711 -3.39714 0
M  V30 34053 O 3178.88 1.88127 -5.13099 0
M  V30 34054 H 3175.98 0.3178 -0.7635 0
M  V30 34055 H 3178.52 -0.101034 -1.69399 0
M  V30 34056 H 3177.29 0.0994888 -3.91174 0
M  V30 34057 H 3176.92 1.77734 -3.55663 0
M  V30 34058 N 3177.91 1.56283 0.203321 0
M  V30 34059 C 3179.14 1.84594 0.945515 0
M  V30 34060 C 3179.56 0.652803 1.76409 0
M  V30 34061 O 3178.92 -0.398437 1.76868 0
M  V30 34062 C 3178.97 3.1106 1.82411 0
M  V30 34063 O 3178.07 2.91035 2.92186 0
M  V30 34064 H 3177.42 0.608072 0.266728 0
M  V30 34065 H 3179.95 2.03508 0.211122 0
M  V30 34066 H 3179.96 3.4164 2.23038 0
M  V30 34067 H 3178.63 3.97524 1.2226 0
M  V30 34068 H 3177.21 2.71733 2.55373 0
M  V30 34069 N 3179.39 -0.470729 1.50406 0
M  V30 34070 C 3180.62 -1.25072 1.65444 0
M  V30 34071 C 3181.04 -1.85045 0.337645 0
M  V30 34072 O 3180.4 -1.67303 -0.698526 0
M  V30 34073 C 3180.45 -2.33493 2.74797 0
M  V30 34074 O 3179.55 -3.38145 2.36075 0
M  V30 34075 H 3178.89 -0.367941 0.552734 0
M  V30 34076 H 3181.42 -0.560143 1.96783 0
M  V30 34077 H 3181.43 -2.78799 2.97884 0
M  V30 34078 H 3180.11 -1.89213 3.70366 0
M  V30 34079 H 3178.69 -2.98548 2.23436 0
M  V30 34080 N 3180.87 -1.39989 -0.72393 0
M  V30 34081 C 3182.12 -1.37543 -1.48076 0
M  V30 34082 C 3182.44 0.0243015 -1.94985 0
M  V30 34083 O 3181.71 0.977572 -1.69766 0
M  V30 34084 H 3180.29 -0.506191 -0.549345 0
M  V30 34085 H 3182.95 -1.74963 -0.858715 0
M  V30 34086 H 3182.05 -2.04509 -2.35759 0
M  V30 34087 N 3182.35 0.955282 -1.25348 0
M  V30 34088 C 3183.6 1.69419 -1.09453 0
M  V30 34089 C 3183.91 1.92175 0.364425 0
M  V30 34090 O 3185.12 2.63757 0.643797 0
M  V30 34091 C 3183.57 3.05005 -1.9105 0
M  V30 34092 C 3183.18 2.90047 -3.41433 0
M  V30 34093 C 3184.93 3.82683 -1.83723 0
M  V30 34094 C 3182.83 4.21019 -4.15328 0
M  V30 34095 H 3181.76 0.635365 -0.405989 0
M  V30 34096 H 3184.41 1.06351 -1.49538 0
M  V30 34097 H 3182.8 3.68973 -1.43788 0
M  V30 34098 H 3183.97 2.35015 -3.96364 0
M  V30 34099 H 3182.28 2.25824 -3.49846 0
M  V30 34100 H 3184.88 4.79689 -2.36225 0
M  V30 34101 H 3185.22 4.08443 -0.804991 0
M  V30 34102 H 3185.76 3.25464 -2.28732 0
M  V30 34103 H 3182.5 4.00448 -5.18962 0
M  V30 34104 H 3182.02 4.75819 -3.6518 0
M  V30 34105 H 3183.7 4.89565 -4.23008 0
M  V30 34106 N 3183.83 1.06924 1.1578 0
M  V30 34107 C 3184.77 0.685698 2.20379 0
M  V30 34108 C 3185.74 -0.320787 1.62973 0
M  V30 34109 O 3186.93 -0.208224 1.8966 0
M  V30 34110 C 3184.07 0.0850586 3.44995 0
M  V30 34111 C 3183.18 1.14249 4.16619 0
M  V30 34112 C 3182.32 0.507319 5.28772 0
M  V30 34113 C 3181.36 1.54784 5.92206 0
M  V30 34114 N 3180.49 0.935566 6.95839 0
M  V30 34115 H 3185.33 1.58205 2.52537 0
M  V30 34116 H 3182.87 0.790886 1.2403 0
M  V30 34117 H 3184.83 -0.280772 4.16254 0
M  V30 34118 H 3183.46 -0.77467 3.13367 0
M  V30 34119 H 3182.51 1.62595 3.439 0
M  V30 34120 H 3183.82 1.93162 4.5988 0
M  V30 34121 H 3182.98 0.0888785 6.06635 0
M  V30 34122 H 3181.72 -0.313618 4.86691 0
M  V30 34123 H 3180.72 1.97611 5.13059 0
M  V30 34124 H 3181.95 2.37099 6.36365 0
M  V30 34125 H 3179.89 0.135455 6.5586 0
M  V30 34126 H 3179.81 1.66199 7.37505 0
M  V30 34127 H 3181.08 0.542483 7.7761 0
M  V30 34128 N 3185.31 -1.32538 0.852723 0
M  V30 34129 C 3186.26 -2.26422 0.267751 0
M  V30 34130 C 3187.24 -1.49878 -0.585278 0
M  V30 34131 O 3188.43 -1.71572 -0.434978 0
M  V30 34132 C 3185.56 -3.38954 -0.544545 0
M  V30 34133 C 3184.65 -4.22885 0.320764 0
M  V30 34134 N 3185.04 -4.85863 1.4061 0
M  V30 34135 C 3183.34 -4.45864 0.110179 0
M  V30 34136 C 3184.04 -5.48457 1.93828 0
M  V30 34137 N 3183.01 -5.29321 1.23773 0
M  V30 34138 H 3186.81 -2.72639 1.09752 0
M  V30 34139 H 3184.33 -1.46604 0.698633 0
M  V30 34140 H 3186.33 -4.05218 -0.980019 0
M  V30 34141 H 3184.99 -2.94283 -1.37213 0
M  V30 34142 H 3186 -4.86019 1.78903 0
M  V30 34143 H 3182.67 -4.11878 -0.682844 0
M  V30 34144 H 3184.06 -6.08557 2.84794 0
M  V30 34145 N 3186.78 -0.610474 -1.45296 0
M  V30 34146 C 3187.73 0.119126 -2.32295 0
M  V30 34147 C 3188.73 0.85672 -1.46139 0
M  V30 34148 O 3189.93 0.771959 -1.62606 0
M  V30 34149 H 3186.31 0.057275 -0.749816 0
M  V30 34150 H 3188.28 -0.633021 -2.91608 0
M  V30 34151 C 3187.03 1.10113 -3.29804 0
M  V30 34152 H 3186.35 0.542993 -3.96095 0
M  V30 34153 H 3187.79 1.58151 -3.93401 0
M  V30 34154 C 3186.25 2.17613 -2.57189 0
M  V30 34155 O 3186.78 3.25397 -2.35541 0
M  V30 34156 N 3184.98 1.92976 -2.17275 0
M  V30 34157 H 3184.53 1.0533 -2.35082 0
M  V30 34158 H 3184.49 2.65107 -1.69014 0
M  V30 34159 N 3188.26 1.53669 -0.349801 0
M  V30 34160 C 3189.51 2.00196 0.245826 0
M  V30 34161 C 3189.82 1.24147 1.51152 0
M  V30 34162 O 3191.03 1.61182 2.18478 0
M  V30 34163 C 3189.49 3.56568 0.488602 0
M  V30 34164 C 3189.09 4.4148 -0.761553 0
M  V30 34165 C 3190.84 4.11494 1.04275 0
M  V30 34166 C 3188.74 5.89373 -0.489232 0
M  V30 34167 H 3187.67 0.74791 0.0956362 0
M  V30 34168 H 3190.33 1.77482 -0.466099 0
M  V30 34169 H 3188.71 3.75373 1.26139 0
M  V30 34170 H 3189.88 4.34449 -1.53592 0
M  V30 34171 H 3188.2 3.97578 -1.23778 0
M  V30 34172 H 3190.79 5.19605 1.26155 0
M  V30 34173 H 3191.14 3.65102 2.00016 0
M  V30 34174 H 3191.67 3.96425 0.330513 0
M  V30 34175 H 3188.41 6.40011 -1.41654 0
M  V30 34176 H 3187.93 5.99291 0.246934 0
M  V30 34177 H 3189.61 6.46908 -0.108814 0
M  V30 34178 N 3189.74 0.0785709 1.57404 0
M  V30 34179 C 3190.99 -0.58899 1.93745 0
M  V30 34180 C 3191.31 -1.69208 0.959117 0
M  V30 34181 O 3190.57 -1.95685 -0.024126 0
M  V30 34182 C 3190.87 -1.19904 3.36687 0
M  V30 34183 C 3190.53 -0.221414 4.50356 0
M  V30 34184 C 3189.2 0.0475193 4.81177 0
M  V30 34185 C 3191.55 0.447032 5.19279 0
M  V30 34186 C 3188.88 0.991872 5.78255 0
M  V30 34187 C 3191.23 1.37975 6.1737 0
M  V30 34188 C 3189.89 1.65708 6.46604 0
M  V30 34189 H 3189.16 -0.215527 0.708964 0
M  V30 34190 H 3191.81 0.15089 1.90905 0
M  V30 34191 H 3190.11 -2.0148 3.36025 0
M  V30 34192 H 3191.81 -1.72297 3.62098 0
M  V30 34193 H 3188.4 -0.441209 4.26323 0
M  V30 34194 H 3192.59 0.252385 4.95658 0
M  V30 34195 H 3187.84 1.21392 5.99228 0
M  V30 34196 H 3192.02 1.90362 6.69877 0
M  V30 34197 H 3189.64 2.39044 7.21639 0
M  V30 34198 N 3191.22 -1.56389 -0.19503 0
M  V30 34199 C 3192.17 -1.9544 -1.26119 0
M  V30 34200 C 3193.16 -0.839844 -1.47116 0
M  V30 34201 O 3194.37 -1.02485 -1.47976 0
M  V30 34202 H 3190.74 -0.621471 -0.423411 0
M  V30 34203 H 3192.71 -2.84352 -0.904804 0
M  V30 34204 C 3191.46 -2.31022 -2.59854 0
M  V30 34205 H 3190.78 -3.16312 -2.44514 0
M  V30 34206 H 3192.22 -2.62209 -3.332 0
M  V30 34207 C 3190.68 -1.14486 -3.16851 0
M  V30 34208 O 3191.21 -0.419924 -3.99499 0
M  V30 34209 N 3189.42 -0.921652 -2.75597 0
M  V30 34210 H 3188.97 -1.5129 -2.08492 0
M  V30 34211 H 3188.92 -0.143719 -3.14071 0
M  V30 34212 N 3192.7 0.462746 -1.50653 0
M  V30 34213 C 3194.11 1.04339 -1.54823 0
M  V30 34214 C 3194.46 1.92932 -0.356629 0
M  V30 34215 O 3193.58 2.09821 0.529542 0
M  V30 34216 C 3194.18 1.89904 -2.80574 0
M  V30 34217 C 3192.74 2.43062 -2.87398 0
M  V30 34218 C 3191.88 1.21617 -2.49208 0
M  V30 34219 H 3194.83 0.24502 -1.56797 0
M  V30 34220 H 3194.86 2.75069 -2.62902 0
M  V30 34221 H 3194.37 1.25398 -3.67283 0
M  V30 34222 H 3192.47 3.11096 -2.05061 0
M  V30 34223 H 3192.58 2.77598 -3.90482 0
M  V30 34224 H 3190.95 1.55357 -2.01832 0
M  V30 34225 H 3191.73 0.58761 -3.38234 0
M  V30 34226 N 3194.17 1.40371 0.716495 0
M  V30 34227 C 3195.59 1.34429 1.2956 0
M  V30 34228 C 3195.94 0.0173451 1.96192 0
M  V30 34229 O 3195.06 -0.884684 1.9749 0
M  V30 34230 C 3195.66 2.43474 2.35596 0
M  V30 34231 C 3194.22 2.40995 2.89134 0
M  V30 34232 C 3193.36 2.244 1.62911 0
M  V30 34233 H 3196.31 1.50191 0.512688 0
M  V30 34234 H 3196.33 2.11329 3.16418 0
M  V30 34235 H 3195.85 3.40038 1.87071 0
M  V30 34236 H 3193.95 1.48126 3.41891 0
M  V30 34237 H 3194.06 3.36546 3.40989 0
M  V30 34238 H 3192.42 1.71899 1.87944 0
M  V30 34239 H 3193.21 3.2296 1.16412 0
M  V30 34240 N 3195.65 -0.948621 1.25853 0
M  V30 34241 C 3196.9 -1.68836 1.1035 0
M  V30 34242 C 3197.21 -1.92366 -0.354228 0
M  V30 34243 O 3198.42 -2.64094 -0.6298 0
M  V30 34244 C 3196.88 -3.03987 1.92665 0
M  V30 34245 C 3196.48 -2.88232 3.42967 0
M  V30 34246 C 3198.23 -3.81703 1.85749 0
M  V30 34247 C 3196.14 -4.1881 4.17555 0
M  V30 34248 H 3195.07 -0.633203 0.409353 0
M  V30 34249 H 3197.72 -1.05557 1.501 0
M  V30 34250 H 3196.1 -3.68205 1.45743 0
M  V30 34251 H 3197.27 -2.3291 3.97605 0
M  V30 34252 H 3195.59 -2.23966 3.51039 0
M  V30 34253 H 3198.18 -4.7843 2.38766 0
M  V30 34254 H 3198.53 -4.0801 0.82664 0
M  V30 34255 H 3199.06 -3.24246 2.30454 0
M  V30 34256 H 3195.8 -3.9769 5.21079 0
M  V30 34257 H 3195.32 -4.73875 3.67699 0
M  V30 34258 H 3197 -4.87314 4.25598 0
M  V30 34259 N 3197.13 -1.07536 -1.15212 0
M  V30 34260 C 3198.38 -0.794649 -1.85387 0
M  V30 34261 C 3198.69 0.681806 -1.83332 0
M  V30 34262 O 3199.9 1.07736 -2.49209 0
M  V30 34263 C 3198.35 -1.37147 -3.32744 0
M  V30 34264 C 3197.96 -2.87908 -3.43239 0
M  V30 34265 C 3199.71 -1.16886 -4.08091 0
M  V30 34266 C 3197.61 -3.38771 -4.84756 0
M  V30 34267 H 3196.54 -0.293589 -0.694494 0
M  V30 34268 H 3199.19 -1.29566 -1.29941 0
M  V30 34269 H 3197.58 -0.798189 -3.87872 0
M  V30 34270 H 3198.75 -3.51296 -2.98208 0
M  V30 34271 H 3197.07 -3.0698 -2.8134 0
M  V30 34272 H 3199.66 -1.52362 -5.12533 0
M  V30 34273 H 3200.01 -0.108031 -4.1616 0
M  V30 34274 H 3200.54 -1.7086 -3.59238 0
M  V30 34275 H 3197.28 -4.44388 -4.81871 0
M  V30 34276 H 3196.8 -2.80137 -5.30361 0
M  V30 34277 H 3198.48 -3.34837 -5.53618 0
M  V30 34278 N 3198.61 1.32084 -0.85974 0
M  V30 34279 C 3199.57 2.27052 -0.313044 0
M  V30 34280 C 3200.57 1.51809 0.530165 0
M  V30 34281 O 3201.76 1.70831 0.340942 0
M  V30 34282 C 3198.89 3.36326 0.556541 0
M  V30 34283 H 3200.09 2.76921 -1.1513 0
M  V30 34284 H 3197.64 1.42842 -0.634488 0
M  V30 34285 H 3198.37 2.91734 1.4164 0
M  V30 34286 H 3198.16 3.92072 -0.0470886 0
M  V30 34287 H 3199.65 4.07075 0.931653 0
M  V30 34288 N 3200.09 0.618171 1.4497 0
M  V30 34289 C 3201.5 0.282694 1.57076 0
M  V30 34290 C 3201.7 -1.21453 1.60784 0
M  V30 34291 O 3200.76 -1.99804 1.54385 0
M  V30 34292 C 3202.07 0.963198 2.84856 0
M  V30 34293 C 3203.62 0.940115 2.98548 0
M  V30 34294 C 3204.09 1.60083 4.29112 0
M  V30 34295 N 3205.59 1.56681 4.35896 0
M  V30 34296 C 3206.32 2.0471 5.35613 0
M  V30 34297 N 3205.82 2.60872 6.41808 0
M  V30 34298 N 3207.61 1.95415 5.27038 0
M  V30 34299 H 3199.76 1.59019 1.40807 0
M  V30 34300 H 3202.02 0.666753 0.673902 0
M  V30 34301 H 3201.73 2.01785 2.88055 0
M  V30 34302 H 3201.6 0.492967 3.73965 0
M  V30 34303 H 3203.99 -0.106019 2.94909 0
M  V30 34304 H 3204.07 1.44871 2.10822 0
M  V30 34305 H 3203.72 2.64635 4.3351 0
M  V30 34306 H 3203.65 1.06717 5.15673 0
M  V30 34307 H 3206.14 1.15665 3.59764 0
M  V30 34308 H 3206.45 2.95286 7.14161 0
M  V30 34309 H 3204.79 2.64916 6.4253 0
M  V30 34310 H 3207.99 1.51271 4.42984 0
M  V30 34311 H 3208.16 2.33158 6.046 0
M  V30 34312 N 3201.56 -1.53481 0.357946 0
M  V30 34313 C 3202.79 -2.05262 -0.234763 0
M  V30 34314 C 3203.2 -1.23172 -1.43615 0
M  V30 34315 O 3202.55 -0.263467 -1.81801 0
M  V30 34316 C 3202.61 -3.52625 -0.699686 0
M  V30 34317 C 3202.27 -4.55384 0.383986 0
M  V30 34318 C 3203.27 -5.05107 1.23138 0
M  V30 34319 C 3200.95 -4.99367 0.542041 0
M  V30 34320 C 3202.95 -5.97407 2.22225 0
M  V30 34321 C 3200.63 -5.91474 1.53628 0
M  V30 34322 C 3201.63 -6.40384 2.37483 0
M  V30 34323 O 3201.32 -7.30677 3.35212 0
M  V30 34324 H 3201.05 -0.674397 -0.0465245 0
M  V30 34325 H 3203.61 -1.98906 0.51239 0
M  V30 34326 H 3201.84 -3.56493 -1.49832 0
M  V30 34327 H 3203.53 -3.87303 -1.21454 0
M  V30 34328 H 3204.29 -4.71881 1.12043 0
M  V30 34329 H 3200.17 -4.6089 -0.100848 0
M  V30 34330 H 3203.71 -6.35505 2.87713 0
M  V30 34331 H 3199.61 -6.24115 1.64774 0
M  V30 34332 H 3200.38 -7.48652 3.30851 0
M  V30 34333 N 3203.04 -0.0869173 -1.5736 0
M  V30 34334 C 3204.29 0.578353 -1.9323 0
M  V30 34335 C 3204.6 1.69845 -0.970157 0
M  V30 34336 O 3205.81 2.42432 -1.22226 0
M  V30 34337 C 3204.27 1.08014 -3.43309 0
M  V30 34338 C 3203.87 -0.0097601 -4.47999 0
M  V30 34339 C 3205.62 1.71861 -3.88154 0
M  V30 34340 C 3203.53 0.506925 -5.89223 0
M  V30 34341 H 3202.46 0.21981 -0.721249 0
M  V30 34342 H 3205.11 -0.161598 -1.82787 0
M  V30 34343 H 3203.49 1.87353 -3.48877 0
M  V30 34344 H 3204.66 -0.784944 -4.54065 0
M  V30 34345 H 3202.98 -0.552918 -4.12713 0
M  V30 34346 H 3205.57 2.11577 -4.91059 0
M  V30 34347 H 3205.92 2.58458 -3.26351 0
M  V30 34348 H 3206.45 0.991192 -3.85253 0
M  V30 34349 H 3203.19 -0.322236 -6.54707 0
M  V30 34350 H 3202.71 1.24929 -5.86645 0
M  V30 34351 H 3204.39 0.978515 -6.39558 0
M  V30 34352 N 3204.52 1.5649 0.186734 0
M  V30 34353 C 3205.94 1.50262 0.537907 0
M  V30 34354 C 3206.14 0.788446 1.85434 0
M  V30 34355 O 3205.19 0.342421 2.50167 0
M  V30 34356 C 3206.51 2.94956 0.584913 0
M  V30 34357 C 3208.05 3.05675 0.673174 0
M  V30 34358 C 3208.53 4.51797 0.751214 0
M  V30 34359 N 3210.02 4.55982 0.814519 0
M  V30 34360 C 3210.75 5.66369 0.895214 0
M  V30 34361 N 3210.25 6.86425 0.937694 0
M  V30 34362 N 3212.04 5.54302 0.933048 0
M  V30 34363 H 3204.19 2.01333 -0.676672 0
M  V30 34364 H 3206.46 0.916566 -0.242095 0
M  V30 34365 H 3206.16 3.50301 -0.313423 0
M  V30 34366 H 3206.04 3.48766 1.43674 0
M  V30 34367 H 3208.42 2.50375 1.56194 0
M  V30 34368 H 3208.51 2.54977 -0.205021 0
M  V30 34369 H 3208.15 5.07725 -0.133232 0
M  V30 34370 H 3208.08 5.00236 1.64533 0
M  V30 34371 H 3210.57 3.69538 0.790597 0
M  V30 34372 H 3210.88 7.66303 1.00001 0
M  V30 34373 H 3209.23 6.89066 0.906229 0
M  V30 34374 H 3212.42 4.5943 0.896755 0
M  V30 34375 H 3212.59 6.40355 0.992476 0
M  V30 34376 N 3206 -0.45475 1.50897 0
M  V30 34377 C 3206.93 -1.55837 1.73888 0
M  V30 34378 C 3207.91 -1.59606 0.5882 0
M  V30 34379 O 3209.09 -1.75613 0.829085 0
M  V30 34380 C 3206.22 -2.94051 1.84801 0
M  V30 34381 C 3205.18 -3.05146 3.00116 0
M  V30 34382 C 3204.5 -4.45169 2.96191 0
M  V30 34383 C 3205.8 -2.80842 4.4037 0
M  V30 34384 H 3207.5 -1.3685 2.66294 0
M  V30 34385 H 3205.04 -0.656913 1.28143 0
M  V30 34386 H 3207 -3.71201 1.99469 0
M  V30 34387 H 3205.72 -3.14231 0.89029 0
M  V30 34388 H 3204.38 -2.30432 2.85125 0
M  V30 34389 H 3204.03 -4.62291 1.98232 0
M  V30 34390 H 3203.73 -4.53525 3.73616 0
M  V30 34391 H 3205.25 -5.24316 3.12929 0
M  V30 34392 H 3206.67 -3.47733 4.55801 0
M  V30 34393 H 3205.06 -3.00627 5.19368 0
M  V30 34394 H 3206.13 -1.76571 4.51609 0
M  V30 34395 N 3207.48 -1.40749 -0.709041 0
M  V30 34396 C 3208.43 -1.38009 -1.81487 0
M  V30 34397 C 3209.41 -0.256572 -1.58841 0
M  V30 34398 O 3210.6 -0.496194 -1.69903 0
M  V30 34399 C 3207.73 -1.25148 -3.19676 0
M  V30 34400 C 3206.82 -2.42307 -3.48063 0
M  V30 34401 N 3207.21 -3.67786 -3.47227 0
M  V30 34402 C 3205.51 -2.35829 -3.78551 0
M  V30 34403 C 3206.21 -4.45413 -3.74142 0
M  V30 34404 N 3205.18 -3.75342 -3.93217 0
M  V30 34405 H 3208.99 -2.3296 -1.79184 0
M  V30 34406 H 3206.5 -1.34614 -0.908453 0
M  V30 34407 H 3208.5 -1.21267 -3.98873 0
M  V30 34408 H 3207.16 -0.311699 -3.232 0
M  V30 34409 H 3208.17 -4.00858 -3.27923 0
M  V30 34410 H 3204.84 -1.50252 -3.89526 0
M  V30 34411 H 3206.23 -5.54295 -3.79745 0
M  V30 34412 N 3208.96 0.941933 -1.26354 0
M  V30 34413 C 3210.37 1.50285 -1.10776 0
M  V30 34414 C 3210.72 1.937 0.312194 0
M  V30 34415 O 3209.84 1.7984 1.20361 0
M  V30 34416 C 3210.44 2.7312 -2.00477 0
M  V30 34417 C 3209 3.25481 -1.89047 0
M  V30 34418 C 3208.14 1.98264 -1.93873 0
M  V30 34419 H 3211.09 0.757498 -1.39455 0
M  V30 34420 H 3211.12 3.47399 -1.55222 0
M  V30 34421 H 3210.63 2.4149 -3.03816 0
M  V30 34422 H 3208.73 3.61903 -0.886405 0
M  V30 34423 H 3208.84 3.92638 -2.74539 0
M  V30 34424 H 3207.21 2.14129 -1.37916 0
M  V30 34425 H 3207.99 1.68967 -2.9884 0
M  V30 34426 N 3210.43 1.08146 1.1464 0
M  V30 34427 C 3211.66 0.830898 1.89483 0
M  V30 34428 C 3212.08 -0.616691 1.78444 0
M  V30 34429 O 3211.43 -1.42359 1.14194 0
M  V30 34430 C 3211.48 1.24045 3.39551 0
M  V30 34431 O 3211.21 2.63125 3.50281 0
M  V30 34432 C 3212.71 1.02036 4.31397 0
M  V30 34433 H 3209.93 0.299846 0.600278 0
M  V30 34434 H 3212.47 1.44003 1.45201 0
M  V30 34435 H 3210.63 0.675474 3.81466 0
M  V30 34436 H 3211.04 2.80053 4.43476 0
M  V30 34437 H 3212.51 1.35634 5.35077 0
M  V30 34438 H 3212.99 -0.0427925 4.39179 0
M  V30 34439 H 3213.6 1.57064 3.95236 0
M  V30 34440 N 3211.91 -1.31626 0.866732 0
M  V30 34441 C 3212.86 -2.26126 0.291751 0
M  V30 34442 C 3213.85 -1.5049 -0.569349 0
M  V30 34443 O 3215.04 -1.72024 -0.416756 0
M  V30 34444 C 3212.17 -3.39512 -0.508564 0
M  V30 34445 C 3211.25 -4.22521 0.365599 0
M  V30 34446 N 3211.64 -4.84344 1.45755 0
M  V30 34447 C 3209.94 -4.45722 0.157463 0
M  V30 34448 C 3210.64 -5.46371 1.99635 0
M  V30 34449 N 3209.62 -5.27979 1.2938 0
M  V30 34450 H 3213.42 -2.71459 1.12637 0
M  V30 34451 H 3210.93 -1.45855 0.714143 0
M  V30 34452 H 3212.93 -4.06234 -0.936985 0
M  V30 34453 H 3211.59 -2.95722 -1.34084 0
M  V30 34454 H 3212.6 -4.84094 1.84048 0
M  V30 34455 H 3209.28 -4.12579 -0.639121 0
M  V30 34456 H 3210.67 -6.05503 2.91232 0
M  V30 34457 N 3213.39 -0.62585 -1.4464 0
M  V30 34458 C 3214.62 -0.134957 -2.06159 0
M  V30 34459 C 3215.03 1.19354 -1.46803 0
M  V30 34460 O 3214.37 1.74191 -0.583376 0
M  V30 34461 C 3214.43 0.0597849 -3.5945 0
M  V30 34462 C 3214.1 -1.18973 -4.41242 0
M  V30 34463 C 3215.09 -2.1122 -4.7506 0
M  V30 34464 C 3212.78 -1.42367 -4.81702 0
M  V30 34465 C 3214.77 -3.25175 -5.48215 0
M  V30 34466 C 3212.46 -2.5662 -5.54608 0
M  V30 34467 C 3213.46 -3.47851 -5.87783 0
M  V30 34468 O 3213.15 -4.60112 -6.59205 0
M  V30 34469 H 3212.88 -0.0744582 -0.671887 0
M  V30 34470 H 3215.43 -0.858808 -1.86584 0
M  V30 34471 H 3213.66 0.838726 -3.77495 0
M  V30 34472 H 3215.35 0.504568 -4.02752 0
M  V30 34473 H 3216.12 -1.94379 -4.44344 0
M  V30 34474 H 3212 -0.722481 -4.55303 0
M  V30 34475 H 3215.54 -3.96406 -5.74028 0
M  V30 34476 H 3211.44 -2.73407 -5.84738 0
M  V30 34477 H 3212.2 -4.59027 -6.7767 0
M  V30 34478 N 3214.87 1.53289 -0.36608 0
M  V30 34479 C 3216.09 2.06156 0.226803 0
M  V30 34480 C 3216.52 1.23779 1.41635 0
M  V30 34481 O 3215.88 0.25698 1.7947 0
M  V30 34482 C 3215.92 3.55609 0.597894 0
M  V30 34483 O 3215.03 3.75954 1.69505 0
M  V30 34484 H 3214.37 0.663184 0.032904 0
M  V30 34485 H 3216.9 1.97701 -0.526828 0
M  V30 34486 H 3216.91 3.98643 0.868761 0
M  V30 34487 H 3215.58 4.1501 -0.271911 0
M  V30 34488 H 3214.16 3.44817 1.4197 0
M  V30 34489 N 3216.35 0.0952613 1.57312 0
M  V30 34490 C 3217.59 -0.568097 1.93534 0
M  V30 34491 C 3217.91 -1.69328 0.979151 0
M  V30 34492 O 3219.11 -2.4178 1.2351 0
M  V30 34493 C 3217.57 -1.06192 3.43877 0
M  V30 34494 C 3217.18 0.0335184 4.47987 0
M  V30 34495 C 3218.92 -1.69801 3.8906 0
M  V30 34496 C 3216.83 -0.47567 5.89484 0
M  V30 34497 H 3215.76 -0.215982 0.722404 0
M  V30 34498 H 3218.41 0.171289 1.82699 0
M  V30 34499 H 3216.79 -1.855 3.49865 0
M  V30 34500 H 3217.97 0.809014 4.53643 0
M  V30 34501 H 3216.28 0.574797 4.12414 0
M  V30 34502 H 3218.88 -2.08969 4.92175 0
M  V30 34503 H 3219.22 -2.56724 3.27717 0
M  V30 34504 H 3219.75 -0.970747 3.85774 0
M  V30 34505 H 3216.49 0.356952 6.54527 0
M  V30 34506 H 3216.01 -1.21817 5.873 0
M  V30 34507 H 3217.69 -0.944584 6.40068 0
M  V30 34508 N 3217.82 -1.56587 -0.178432 0
M  V30 34509 C 3219.24 -1.50545 -0.52993 0
M  V30 34510 C 3219.44 -0.798269 -1.85013 0
M  V30 34511 O 3218.5 -0.355683 -2.49982 0
M  V30 34512 C 3219.81 -2.95262 -0.569262 0
M  V30 34513 C 3221.36 -3.06028 -0.656954 0
M  V30 34514 C 3221.83 -4.52189 -0.727244 0
M  V30 34515 N 3223.32 -4.56408 -0.790325 0
M  V30 34516 C 3224.06 -5.66835 -0.865165 0
M  V30 34517 N 3223.55 -6.86913 -0.901278 0
M  V30 34518 N 3225.35 -5.54789 -0.903639 0
M  V30 34519 H 3217.5 -2.00971 0.687339 0
M  V30 34520 H 3219.76 -0.91527 0.246952 0
M  V30 34521 H 3219.47 -3.5013 0.331996 0
M  V30 34522 H 3219.34 -3.49523 -1.41822 0
M  V30 34523 H 3221.73 -2.512 -1.54864 0
M  V30 34524 H 3221.81 -2.54865 0.21854 0
M  V30 34525 H 3221.45 -5.07647 0.160156 0
M  V30 34526 H 3221.38 -5.01102 -1.61878 0
M  V30 34527 H 3223.87 -3.69952 -0.770989 0
M  V30 34528 H 3224.19 -7.66822 -0.95936 0
M  V30 34529 H 3222.53 -6.89537 -0.869674 0
M  V30 34530 H 3225.72 -4.59899 -0.872378 0
M  V30 34531 H 3225.9 -6.40872 -0.958502 0
M  V30 34532 N 3219.3 0.446741 -1.51136 0
M  V30 34533 C 3220.53 1.22424 -1.67413 0
M  V30 34534 C 3220.95 1.84484 -0.367041 0
M  V30 34535 O 3220.31 1.68393 0.671821 0
M  V30 34536 C 3220.36 2.29092 -2.78477 0
M  V30 34537 O 3219.46 3.34347 -2.41425 0
M  V30 34538 H 3218.8 0.359101 -0.558518 0
M  V30 34539 H 3221.33 0.528765 -1.97649 0
M  V30 34540 H 3221.34 2.74025 -3.02282 0
M  V30 34541 H 3220.02 1.83297 -3.7333 0
M  V30 34542 H 3218.59 2.94956 -2.28157 0
M  V30 34543 N 3220.78 1.41123 0.701567 0
M  V30 34544 C 3222.01 1.43502 1.49046 0
M  V30 34545 C 3222.42 0.0386016 1.88761 0
M  V30 34546 O 3221.78 -0.940728 1.56386 0
M  V30 34547 C 3221.83 2.33836 2.75686 0
M  V30 34548 O 3221.55 3.68043 2.37647 0
M  V30 34549 C 3223.05 2.44955 3.69475 0
M  V30 34550 H 3220.27 0.488969 0.459511 0
M  V30 34551 H 3222.82 1.85338 0.864286 0
M  V30 34552 H 3220.97 1.95324 3.34555 0
M  V30 34553 H 3221.39 4.16161 3.19233 0
M  V30 34554 H 3222.86 3.12342 4.55134 0
M  V30 34555 H 3223.34 1.47894 4.1355 0
M  V30 34556 H 3223.94 2.84078 3.16512 0
M  V30 34557 N 3222.26 -0.935219 1.26852 0
M  V30 34558 C 3223.19 -2.05194 1.11434 0
M  V30 34559 C 3224.17 -1.70091 0.0178661 0
M  V30 34560 O 3225.35 -1.93259 0.190985 0
M  V30 34561 C 3222.48 -3.39042 0.752839 0
M  V30 34562 C 3221.44 -3.8823 1.80171 0
M  V30 34563 C 3220.76 -5.18797 1.29437 0
M  V30 34564 C 3222.06 -4.12452 3.20439 0
M  V30 34565 H 3223.76 -2.18351 2.04849 0
M  V30 34566 H 3221.3 -1.0492 0.986295 0
M  V30 34567 H 3223.26 -4.16636 0.63183 0
M  V30 34568 H 3221.98 -3.25878 -0.217018 0
M  V30 34569 H 3220.64 -3.12822 1.91149 0
M  V30 34570 H 3220.29 -5.02018 0.314188 0
M  V30 34571 H 3219.99 -5.52677 1.99556 0
M  V30 34572 H 3221.51 -5.98968 1.18615 0
M  V30 34573 H 3222.93 -4.8064 3.12503 0
M  V30 34574 H 3221.32 -4.57625 3.88201 0
M  V30 34575 H 3222.39 -3.18016 3.66052 0
M  V30 34576 N 3223.74 -1.08752 -1.14065 0
M  V30 34577 C 3225.15 -0.815847 -1.37172 0
M  V30 34578 C 3225.35 0.573181 -1.93176 0
M  V30 34579 O 3224.41 1.32933 -2.14674 0
M  V30 34580 C 3225.72 -1.90142 -2.32952 0
M  V30 34581 C 3227.27 -1.92785 -2.46583 0
M  V30 34582 C 3227.74 -3.00466 -3.45665 0
M  V30 34583 N 3229.24 -2.99661 -3.5321 0
M  V30 34584 C 3229.97 -3.79623 -4.29737 0
M  V30 34585 N 3229.47 -4.69475 -5.09476 0
M  V30 34586 N 3231.26 -3.67911 -4.24968 0
M  V30 34587 H 3223.41 -1.98314 -0.760613 0
M  V30 34588 H 3225.67 -0.860814 -0.39712 0
M  V30 34589 H 3225.38 -2.90025 -1.98944 0
M  V30 34590 H 3225.25 -1.77374 -3.32894 0
M  V30 34591 H 3227.64 -0.935453 -2.79881 0
M  V30 34592 H 3227.72 -2.09631 -1.46589 0
M  V30 34593 H 3227.37 -3.99914 -3.13099 0
M  V30 34594 H 3227.3 -2.80864 -4.45447 0
M  V30 34595 H 3229.79 -2.3454 -2.96309 0
M  V30 34596 H 3230.1 -5.27087 -5.65154 0
M  V30 34597 H 3228.44 -4.73515 -5.08732 0
M  V30 34598 H 3231.64 -2.97081 -3.61746 0
M  V30 34599 H 3231.81 -4.30468 -4.84357 0
M  V30 34600 N 3225.21 1.31165 -0.873701 0
M  V30 34601 C 3226.15 2.26514 -0.276844 0
M  V30 34602 C 3227.13 1.51278 0.59614 0
M  V30 34603 O 3228.31 1.80336 0.548737 0
M  V30 34604 C 3225.44 3.33205 0.607652 0
M  V30 34605 C 3224.48 4.26056 -0.194485 0
M  V30 34606 S 3225.32 5.11801 -1.57543 0
M  V30 34607 C 3226.47 6.22005 -0.697156 0
M  V30 34608 H 3226.7 2.7679 -1.0851 0
M  V30 34609 H 3224.24 1.38988 -0.672443 0
M  V30 34610 H 3226.2 3.95144 1.11227 0
M  V30 34611 H 3224.86 2.81675 1.38989 0
M  V30 34612 H 3224.05 5.01709 0.480006 0
M  V30 34613 H 3223.65 3.68633 -0.631327 0
M  V30 34614 H 3225.94 6.77439 0.0906729 0
M  V30 34615 H 3226.89 6.93615 -1.42493 0
M  V30 34616 H 3227.29 5.63887 -0.263053 0
M  V30 34617 N 3226.69 0.633512 1.44307 0
M  V30 34618 C 3227.6 -0.0711375 2.34492 0
M  V30 34619 C 3228.62 -0.833173 1.52755 0
M  V30 34620 O 3229.79 -0.784896 1.85476 0
M  V30 34621 C 3226.86 -1.03889 3.30769 0
M  V30 34622 C 3225.92 -0.275968 4.28412 0
M  V30 34623 C 3225.15 -1.19762 5.20089 0
M  V30 34624 O 3225.38 -2.43641 5.15747 0
M  V30 34625 O 3224.31 -0.680659 5.98039 0
M  V30 34626 H 3228.14 0.670682 2.96202 0
M  V30 34627 H 3225.72 0.393703 1.44119 0
M  V30 34628 H 3227.6 -1.59559 3.90024 0
M  V30 34629 H 3226.28 -1.76128 2.71589 0
M  V30 34630 H 3225.19 0.323836 3.72696 0
M  V30 34631 H 3226.52 0.406451 4.90519 0
M  V30 34632 N 3228.17 -1.53093 0.374204 0
M  V30 34633 C 3229.1 -2.28925 -0.459936 0
M  V30 34634 C 3230.08 -1.31699 -1.07653 0
M  V30 34635 O 3231.27 -1.60579 -1.09216 0
M  V30 34636 C 3228.4 -3.0849 -1.59535 0
M  V30 34637 C 3227.35 -4.13475 -1.10556 0
M  V30 34638 C 3226.68 -4.81173 -2.33188 0
M  V30 34639 C 3227.98 -5.21975 -0.184183 0
M  V30 34640 H 3229.67 -2.98901 0.172744 0
M  V30 34641 H 3227.22 -1.43752 0.0845209 0
M  V30 34642 H 3229.17 -3.60291 -2.18559 0
M  V30 34643 H 3227.89 -2.3622 -2.25539 0
M  V30 34644 H 3226.55 -3.62632 -0.537947 0
M  V30 34645 H 3226.2 -4.05466 -2.97668 0
M  V30 34646 H 3225.9 -5.52122 -2.01084 0
M  V30 34647 H 3227.42 -5.35773 -2.92883 0
M  V30 34648 H 3228.84 -5.69227 -0.682162 0
M  V30 34649 H 3227.24 -6.00082 0.0463801 0
M  V30 34650 H 3228.31 -4.78727 0.771236 0
M  V30 34651 N 3229.65 -0.103603 -1.57259 0
M  V30 34652 C 3230.58 0.889104 -2.10167 0
M  V30 34653 C 3231.56 1.27087 -1.01428 0
M  V30 34654 O 3232.74 1.37462 -1.28982 0
M  V30 34655 C 3229.87 2.1877 -2.58568 0
M  V30 34656 C 3228.92 1.95515 -3.79046 0
M  V30 34657 S 3229.75 1.18541 -5.22215 0
M  V30 34658 C 3230.91 2.49613 -5.73972 0
M  V30 34659 H 3231.14 0.439031 -2.9404 0
M  V30 34660 H 3228.67 0.109863 -1.54009 0
M  V30 34661 H 3230.63 2.9339 -2.87111 0
M  V30 34662 H 3229.29 2.60897 -1.74905 0
M  V30 34663 H 3228.48 2.91698 -4.11009 0
M  V30 34664 H 3228.09 1.29022 -3.5104 0
M  V30 34665 H 3230.38 3.45543 -5.82758 0
M  V30 34666 H 3231.32 2.22217 -6.72328 0
M  V30 34667 H 3231.73 2.58275 -5.0195 0
M  V30 34668 N 3231.13 1.56679 0.170126 0
M  V30 34669 C 3232.37 1.81702 0.884809 0
M  V30 34670 C 3232.7 0.680795 1.8273 0
M  V30 34671 O 3231.97 -0.29926 1.93601 0
M  V30 34672 H 3230.55 0.670291 0.329726 0
M  V30 34673 H 3233.21 1.9416 0.169657 0
M  V30 34674 H 3232.3 2.75792 1.46099 0
M  V30 34675 N 3232.6 -0.43872 1.5137 0
M  V30 34676 C 3233.84 -1.19777 1.65629 0
M  V30 34677 C 3234.21 -1.8852 0.363918 0
M  V30 34678 O 3235.41 -2.66068 0.382261 0
M  V30 34679 C 3233.68 -2.18874 2.8254 0
M  V30 34680 S 3235.24 -3.03284 3.17119 0
M  V30 34681 H 3232.06 -0.406202 0.583542 0
M  V30 34682 H 3234.66 -0.489549 1.89271 0
M  V30 34683 H 3233.36 -1.67008 3.74882 0
M  V30 34684 H 3232.89 -2.94279 2.61082 0
M  V30 34685 H 3234.91 -4.20489 2.63446 0
M  V30 34686 N 3234.08 -1.41493 -0.694073 0
M  V30 34687 C 3235.36 -1.31421 -1.44872 0
M  V30 34688 C 3235.74 0.0575167 -2.11022 0
M  V30 34689 O 3235.09 1.07185 -2.01801 0
M  V30 34690 C 3235.3 -2.46867 -2.46693 0
M  V30 34691 C 3236.65 -2.88101 -3.11902 0
M  V30 34692 O 3237.67 -2.46618 -2.57018 0
M  V30 34693 O 3236.53 -3.5984 -4.11312 0
M  V30 34694 H 3233.62 -0.517274 -0.645257 0
M  V30 34695 H 3236.17 -1.53461 -0.724425 0
M  V30 34696 H 3234.94 -3.38396 -1.96479 0
M  V30 34697 H 3234.56 -2.26712 -3.2663 0
M  V30 34698 N 3235.56 0.928479 -1.27346 0
M  V30 34699 C 3236.49 2.04601 -1.12521 0
M  V30 34700 C 3237.47 1.70079 -0.0268862 0
M  V30 34701 O 3238.66 1.93155 -0.201231 0
M  V30 34702 C 3235.79 3.38638 -0.770808 0
M  V30 34703 C 3234.74 3.87269 -1.82227 0
M  V30 34704 C 3234.07 5.18103 -1.32187 0
M  V30 34705 C 3235.37 4.10746 -3.22621 0
M  V30 34706 H 3237.06 2.17262 -2.06004 0
M  V30 34707 H 3234.61 1.04396 -0.991845 0
M  V30 34708 H 3236.56 4.16295 -0.653916 0
M  V30 34709 H 3235.28 3.25989 0.199732 0
M  V30 34710 H 3233.94 3.11804 -1.92805 0
M  V30 34711 H 3233.59 5.01844 -0.340807 0
M  V30 34712 H 3233.29 5.5161 -2.02484 0
M  V30 34713 H 3234.81 5.98331 -1.2179 0
M  V30 34714 H 3236.23 4.78976 -3.15048 0
M  V30 34715 H 3234.63 4.55559 -3.90622 0
M  V30 34716 H 3235.7 3.1607 -3.67733 0
M  V30 34717 N 3237.04 1.09355 1.13486 0
M  V30 34718 C 3237.99 0.726962 2.20948 0
M  V30 34719 C 3238.98 -0.271786 1.67206 0
M  V30 34720 O 3240.19 -0.133324 1.79506 0
M  V30 34721 H 3236.56 0.217098 0.719981 0
M  V30 34722 H 3238.53 1.64244 2.49131 0
M  V30 34723 C 3237.28 0.162883 3.47318 0
M  V30 34724 H 3236.6 0.922596 3.89009 0
M  V30 34725 H 3238.04 -0.0556989 4.23963 0
M  V30 34726 C 3236.5 -1.10169 3.18378 0
M  V30 34727 O 3237.03 -2.18505 3.37074 0
M  V30 34728 N 3235.24 -1.01592 2.72264 0
M  V30 34729 H 3234.79 -0.134244 2.5725 0
M  V30 34730 H 3234.74 -1.86276 2.53275 0
M  V30 34731 N 3238.52 -1.307 0.880644 0
M  V30 34732 C 3239.74 -2.01008 0.510944 0
M  V30 34733 C 3240.17 -1.65604 -0.892012 0
M  V30 34734 O 3239.53 -0.870337 -1.59043 0
M  V30 34735 C 3239.57 -3.53979 0.687821 0
M  V30 34736 O 3238.68 -4.11527 -0.268203 0
M  V30 34737 H 3238.02 -0.632568 0.201876 0
M  V30 34738 H 3240.55 -1.66648 1.187 0
M  V30 34739 H 3240.56 -4.03782 0.585166 0
M  V30 34740 H 3239.23 -3.79086 1.71075 0
M  V30 34741 H 3237.81 -3.72708 -0.119608 0
M  V30 34742 N 3240 -0.641156 -1.43969 0
M  V30 34743 C 3241.24 -0.153107 -2.03826 0
M  V30 34744 C 3241.6 1.20583 -1.49412 0
M  V30 34745 O 3242.8 1.78658 -2.00835 0
M  V30 34746 C 3241.07 -0.149977 -3.57085 0
M  V30 34747 S 3242.63 0.271988 -4.37956 0
M  V30 34748 H 3239.45 -0.0660106 -0.707929 0
M  V30 34749 H 3242.05 -0.846792 -1.76209 0
M  V30 34750 H 3240.75 -1.14195 -3.94192 0
M  V30 34751 H 3240.29 0.564635 -3.89327 0
M  V30 34752 H 3242.3 1.51382 -4.72544 0
M  V30 34753 N 3241.47 1.52892 -0.382318 0
M  V30 34754 C 3242.7 2.06385 0.204925 0
M  V30 34755 C 3243.12 1.25274 1.40314 0
M  V30 34756 O 3242.48 0.276001 1.79187 0
M  V30 34757 C 3242.53 3.56223 0.560143 0
M  V30 34758 O 3241.63 3.77731 1.65508 0
M  V30 34759 H 3240.97 0.663496 0.0258682 0
M  V30 34760 H 3243.5 1.97131 -0.547767 0
M  V30 34761 H 3243.51 3.99542 0.826431 0
M  V30 34762 H 3242.19 4.14698 -0.315913 0
M  V30 34763 H 3240.77 3.46303 1.38305 0
M  V30 34764 N 3242.95 0.111941 1.57202 0
M  V30 34765 C 3243.88 -0.877946 2.10636 0
M  V30 34766 C 3244.86 -1.26547 1.02101 0
M  V30 34767 O 3246.05 -1.36776 1.29709 0
M  V30 34768 C 3243.17 -2.17395 2.59725 0
M  V30 34769 C 3242.22 -1.93503 3.80078 0
M  V30 34770 S 3243.05 -1.1577 5.22836 0
M  V30 34771 C 3244.21 -2.46565 5.75288 0
M  V30 34772 H 3244.44 -0.423431 2.94269 0
M  V30 34773 H 3241.97 -0.101694 1.54065 0
M  V30 34774 H 3243.93 -2.91863 2.88663 0
M  V30 34775 H 3242.59 -2.59966 1.76286 0
M  V30 34776 H 3241.79 -2.89514 4.1255 0
M  V30 34777 H 3241.39 -1.27158 3.5172 0
M  V30 34778 H 3243.68 -3.42447 5.84582 0
M  V30 34779 H 3244.62 -2.18648 6.73497 0
M  V30 34780 H 3245.03 -2.5561 5.03313 0
M  V30 34781 N 3244.43 -1.56767 -0.161814 0
M  V30 34782 C 3245.84 -1.72118 -0.723354 0
M  V30 34783 C 3246.19 -0.723993 -1.82353 0
M  V30 34784 O 3245.32 0.112605 -2.16107 0
M  V30 34785 C 3245.91 -3.12075 -1.3189 0
M  V30 34786 C 3244.47 -3.29077 -1.82716 0
M  V30 34787 C 3243.62 -2.68061 -0.709816 0
M  V30 34788 H 3246.57 -1.58572 0.0636926 0
M  V30 34789 H 3246.59 -3.11252 -2.18866 0
M  V30 34790 H 3246.1 -3.84628 -0.517942 0
M  V30 34791 H 3244.2 -2.61496 -2.65425 0
M  V30 34792 H 3244.32 -4.36901 -1.96606 0
M  V30 34793 H 3242.68 -2.28128 -1.13269 0
M  V30 34794 H 3243.46 -3.43208 0.0794488 0
M  V30 34795 N 3245.91 0.430686 -1.51601 0
M  V30 34796 C 3246.84 1.53051 -1.76345 0
M  V30 34797 C 3247.82 1.5865 -0.613517 0
M  V30 34798 O 3249 1.74271 -0.856918 0
M  V30 34799 C 3246.13 2.91074 -1.89456 0
M  V30 34800 C 3245.09 3.00333 -3.04933 0
M  V30 34801 C 3244.41 4.404 -3.03236 0
M  V30 34802 C 3245.71 2.738 -4.44782 0
M  V30 34803 H 3247.41 1.32596 -2.68438 0
M  V30 34804 H 3244.95 0.636444 -1.29172 0
M  V30 34805 H 3246.91 3.67981 -2.05349 0
M  V30 34806 H 3245.63 3.12775 -0.940169 0
M  V30 34807 H 3244.29 2.25867 -2.88755 0
M  V30 34808 H 3243.94 4.59079 -2.05561 0
M  V30 34809 H 3243.64 4.47524 -3.80784 0
M  V30 34810 H 3245.16 5.19272 -3.21231 0
M  V30 34811 H 3246.58 3.40437 -4.61276 0
M  V30 34812 H 3244.97 2.92326 -5.24085 0
M  V30 34813 H 3246.04 1.69364 -4.54361 0
M  V30 34814 N 3247.39 1.4186 0.686559 0
M  V30 34815 C 3248.63 1.4142 1.44377 0
M  V30 34816 C 3248.95 0.0274038 1.94981 0
M  V30 34817 O 3248.22 -0.932218 1.72298 0
M  V30 34818 H 3246.8 0.520578 0.535731 0
M  V30 34819 H 3249.47 1.77178 0.812025 0
M  V30 34820 H 3248.56 2.10688 2.30254 0
M  V30 34821 N 3248.86 -0.921712 1.27837 0
M  V30 34822 C 3249.8 -2.02401 1.054 0
M  V30 34823 C 3250.77 -1.62577 -0.0274618 0
M  V30 34824 O 3251.96 -1.88125 0.118883 0
M  V30 34825 C 3249.09 -3.33342 0.600074 0
M  V30 34826 C 3248.13 -3.92147 1.677 0
M  V30 34827 S 3248.96 -4.23988 3.271 0
M  V30 34828 C 3250.12 -5.58001 2.83523 0
M  V30 34829 H 3250.35 -2.21122 1.98727 0
M  V30 34830 H 3247.89 -1.06558 1.11735 0
M  V30 34831 H 3249.84 -4.09049 0.344865 0
M  V30 34832 H 3248.51 -3.12534 -0.313233 0
M  V30 34833 H 3247.7 -4.86655 1.31083 0
M  V30 34834 H 3247.3 -3.23047 1.88459 0
M  V30 34835 H 3249.59 -6.37553 2.29198 0
M  V30 34836 H 3250.54 -5.99523 3.76799 0
M  V30 34837 H 3250.94 -5.18809 2.22481 0
M  V30 34838 N 3250.34 -1.09956 -1.12905 0
M  V30 34839 C 3251.25 -0.756134 -2.22081 0
M  V30 34840 C 3252.27 0.244241 -1.72277 0
M  V30 34841 O 3253.44 0.0842284 -2.01224 0
M  V30 34842 C 3250.51 -0.187703 -3.46192 0
M  V30 34843 C 3249.57 -1.24472 -4.10859 0
M  V30 34844 C 3248.8 -0.70332 -5.29045 0
M  V30 34845 O 3249.03 0.471943 -5.68444 0
M  V30 34846 O 3247.96 -1.46092 -5.83901 0
M  V30 34847 H 3251.79 -1.66731 -2.53839 0
M  V30 34848 H 3249.37 -0.874337 -1.21143 0
M  V30 34849 H 3251.25 0.1257 -4.21212 0
M  V30 34850 H 3249.93 0.696403 -3.1612 0
M  V30 34851 H 3248.83 -1.6109 -3.3764 0
M  V30 34852 H 3250.17 -2.10167 -4.45074 0
M  V30 34853 N 3251.82 1.30231 -0.887563 0
M  V30 34854 C 3253.04 2.00734 -0.521597 0
M  V30 34855 C 3253.47 1.66075 0.883217 0
M  V30 34856 O 3252.83 0.878759 1.5858 0
M  V30 34857 C 3252.88 3.5361 -0.706583 0
M  V30 34858 O 3251.98 4.11663 0.246375 0
M  V30 34859 H 3251.32 0.631489 -0.205227 0
M  V30 34860 H 3253.85 1.66016 -1.19582 0
M  V30 34861 H 3253.86 4.03466 -0.606572 0
M  V30 34862 H 3252.54 3.78174 -1.73083 0
M  V30 34863 H 3251.11 3.72766 0.0998407 0
M  V30 34864 N 3253.3 0.648782 1.43627 0
M  V30 34865 C 3254.25 -0.0455131 2.30755 0
M  V30 34866 C 3255.22 -0.819142 1.44497 0
M  V30 34867 O 3256.4 -0.79664 1.73373 0
M  V30 34868 C 3253.54 -1.00902 3.30019 0
M  V30 34869 C 3252.65 -0.231963 4.31377 0
M  V30 34870 C 3251.79 -1.18887 5.17725 0
M  V30 34871 C 3250.83 -0.401989 6.10779 0
M  V30 34872 N 3249.96 -1.31026 6.89766 0
M  V30 34873 H 3254.8 0.703371 2.8958 0
M  V30 34874 H 3252.34 0.358625 1.42661 0
M  V30 34875 H 3254.3 -1.58121 3.86075 0
M  V30 34876 H 3252.93 -1.72483 2.72854 0
M  V30 34877 H 3251.98 0.456439 3.77652 0
M  V30 34878 H 3253.29 0.380111 4.9735 0
M  V30 34879 H 3252.45 -1.83184 5.78385 0
M  V30 34880 H 3251.19 -1.83486 4.51867 0
M  V30 34881 H 3250.19 0.254351 5.49211 0
M  V30 34882 H 3251.42 0.23953 6.78677 0
M  V30 34883 H 3249.36 -1.94313 6.26561 0
M  V30 34884 H 3249.28 -0.752642 7.52244 0
M  V30 34885 H 3250.55 -1.94151 7.54934 0
M  V30 34886 N 3254.78 -1.52688 0.390421 0
M  V30 34887 C 3255.74 -2.2509 -0.43211 0
M  V30 34888 C 3256.74 -1.26768 -0.989273 0
M  V30 34889 O 3257.93 -1.50856 -0.871099 0
M  V30 34890 C 3255.06 -3.00681 -1.60636 0
M  V30 34891 H 3256.25 -2.9922 0.201786 0
M  V30 34892 H 3253.81 -1.55649 0.142559 0
M  V30 34893 H 3254.54 -2.30854 -2.27765 0
M  V30 34894 H 3254.33 -3.72848 -1.21354 0
M  V30 34895 H 3255.82 -3.5565 -2.18867 0
M  V30 34896 N 3256.25 -0.120276 -1.5714 0
M  V30 34897 C 3257.5 0.537236 -1.94414 0
M  V30 34898 C 3257.82 1.67749 -1.00597 0
M  V30 34899 O 3259.02 2.39785 -1.27341 0
M  V30 34900 C 3257.48 1.00708 -3.45523 0
M  V30 34901 C 3257.09 -0.104785 -4.47877 0
M  V30 34902 C 3258.83 1.63589 -3.91713 0
M  V30 34903 C 3256.74 0.381828 -5.90166 0
M  V30 34904 H 3255.67 0.204462 -0.725749 0
M  V30 34905 H 3258.32 -0.200334 -1.82403 0
M  V30 34906 H 3256.7 1.79911 -3.52772 0
M  V30 34907 H 3257.87 -0.881082 -4.52298 0
M  V30 34908 H 3256.19 -0.640336 -4.11447 0
M  V30 34909 H 3258.79 2.01113 -4.95437 0
M  V30 34910 H 3259.13 2.51478 -3.3176 0
M  V30 34911 H 3259.66 0.909251 -3.87269 0
M  V30 34912 H 3256.4 -0.461036 -6.53877 0
M  V30 34913 H 3255.92 1.12458 -5.89163 0
M  V30 34914 H 3257.6 0.842635 -6.41489 0
M  V30 34915 N 3257.73 1.56851 0.153498 0
M  V30 34916 C 3258.96 1.87508 0.88631 0
M  V30 34917 C 3259.38 0.708595 1.74243 0
M  V30 34918 O 3258.74 -0.341966 1.78046 0
M  V30 34919 C 3258.79 3.16706 1.72422 0
M  V30 34920 O 3257.89 3.00183 2.82779 0
M  V30 34921 H 3257.23 0.61625 0.247248 0
M  V30 34922 H 3259.76 2.04076 0.146271 0
M  V30 34923 H 3259.77 3.48563 2.12056 0
M  V30 34924 H 3258.45 4.01212 1.09551 0
M  V30 34925 H 3257.03 2.7972 2.46599 0
M  V30 34926 N 3259.21 -0.42264 1.51827 0
M  V30 34927 C 3260.49 -1.18296 1.55774 0
M  V30 34928 C 3260.87 -2.08494 0.330694 0
M  V30 34929 O 3260.22 -2.18043 -0.683335 0
M  V30 34930 C 3260.43 -1.97203 2.87944 0
M  V30 34931 C 3261.77 -2.53738 3.40444 0
M  V30 34932 O 3262.8 -2.07398 2.89594 0
M  V30 34933 O 3261.66 -3.38295 4.29207 0
M  V30 34934 H 3258.75 -0.539377 0.626898 0
M  V30 34935 H 3261.3 -0.430516 1.64148 0
M  V30 34936 H 3260.07 -1.31045 3.68704 0
M  V30 34937 H 3259.69 -2.79481 2.828 0
M  V30 34938 N 3260.69 -1.42222 -0.679027 0
M  V30 34939 C 3261.65 -1.45072 -1.77445 0
M  V30 34940 C 3262.65 -0.338909 -1.57188 0
M  V30 34941 O 3263.84 -0.599548 -1.63558 0
M  V30 34942 C 3260.97 -1.27825 -3.16028 0
M  V30 34943 H 3262.17 -2.42603 -1.76306 0
M  V30 34944 H 3259.72 -1.28607 -0.888254 0
M  V30 34945 H 3260.45 -0.312002 -3.22796 0
M  V30 34946 H 3260.24 -2.08397 -3.32134 0
M  V30 34947 H 3261.73 -1.32693 -3.95957 0
M  V30 34948 N 3262.17 0.91492 -1.28324 0
M  V30 34949 C 3263.1 2.02186 -1.07951 0
M  V30 34950 C 3264.11 1.62769 -0.0316029 0
M  V30 34951 O 3265.3 1.76376 -0.274534 0
M  V30 34952 C 3262.4 3.33216 -0.618108 0
M  V30 34953 C 3261.57 4.01251 -1.74116 0
M  V30 34954 C 3260.63 5.10561 -1.27334 0
M  V30 34955 O 3259.66 5.33824 -1.97535 0
M  V30 34956 N 3260.86 5.80341 -0.135902 0
M  V30 34957 H 3263.63 2.20222 -2.03279 0
M  V30 34958 H 3261.19 1.08614 -1.20061 0
M  V30 34959 H 3263.18 4.03668 -0.288764 0
M  V30 34960 H 3261.75 3.1166 0.242293 0
M  V30 34961 H 3260.97 3.24362 -2.24016 0
M  V30 34962 H 3262.26 4.43452 -2.49455 0
M  V30 34963 H 3261.65 5.63909 0.449747 0
M  V30 34964 H 3260.21 6.51662 0.134175 0
M  V30 34965 N 3263.64 1.10553 1.1232 0
M  V30 34966 C 3264.89 0.843522 1.83215 0
M  V30 34967 C 3265.21 -0.632959 1.85076 0
M  V30 34968 O 3266.41 -1.01091 2.51978 0
M  V30 34969 C 3264.87 1.45921 3.28991 0
M  V30 34970 C 3264.48 2.96907 3.35485 0
M  V30 34971 C 3266.22 1.27665 4.04848 0
M  V30 34972 C 3264.13 3.51505 4.75603 0
M  V30 34973 H 3263.06 0.311899 0.686466 0
M  V30 34974 H 3265.71 1.32966 1.26461 0
M  V30 34975 H 3264.09 0.900746 3.8562 0
M  V30 34976 H 3265.26 3.59079 2.88789 0
M  V30 34977 H 3263.58 3.14332 2.73102 0
M  V30 34978 H 3266.18 1.65898 5.08313 0
M  V30 34979 H 3266.52 0.218331 4.15727 0
M  V30 34980 H 3267.05 1.80325 3.54581 0
M  V30 34981 H 3263.79 4.57008 4.69919 0
M  V30 34982 H 3263.31 2.94101 5.22747 0
M  V30 34983 H 3264.99 3.49398 5.44546 0
M  V30 34984 N 3265.12 -1.29758 0.894457 0
M  V30 34985 C 3266.35 -1.99918 0.532951 0
M  V30 34986 C 3266.77 -1.66985 -0.880993 0
M  V30 34987 O 3266.12 -0.912063 -1.58075 0
M  V30 34988 C 3266.17 -3.54471 0.709422 0
M  V30 34989 O 3265.89 -3.86235 2.06771 0
M  V30 34990 C 3267.4 -4.41899 0.352167 0
M  V30 34991 H 3264.62 -0.638908 0.20503 0
M  V30 34992 H 3267.16 -1.65419 1.20236 0
M  V30 34993 H 3265.31 -3.87302 0.0872582 0
M  V30 34994 H 3265.73 -4.8092 2.09324 0
M  V30 34995 H 3267.2 -5.49483 0.526502 0
M  V30 34996 H 3267.68 -4.33416 -0.710451 0
M  V30 34997 H 3268.29 -4.1453 0.951052 0
M  V30 34998 N 3266.6 -0.65639 -1.4328 0
M  V30 34999 C 3267.56 0.023877 -2.29188 0
M  V30 35000 C 3268.56 0.747411 -1.42374 0
M  V30 35001 O 3269.75 0.588184 -1.6397 0
M  V30 35002 C 3266.89 1.04455 -3.24503 0
M  V30 35003 H 3268.08 -0.732029 -2.90829 0
M  V30 35004 H 3265.63 -0.417778 -1.50613 0
M  V30 35005 H 3266.37 1.82958 -2.67763 0
M  V30 35006 H 3266.15 0.529352 -3.8851 0
M  V30 35007 H 3267.64 1.51951 -3.88974 0
M  V30 35008 N 3268.08 1.52478 -0.398513 0
M  V30 35009 C 3269.3 2.06591 0.183023 0
M  V30 35010 C 3269.73 1.26755 1.38978 0
M  V30 35011 O 3269.09 0.29499 1.78884 0
M  V30 35012 C 3269.14 3.56797 0.522329 0
M  V30 35013 O 3268.24 3.79465 1.61493 0
M  V30 35014 H 3267.58 0.663733 0.0188294 0
M  V30 35015 H 3270.11 1.96539 -0.568645 0
M  V30 35016 H 3270.12 4.00396 0.784008 0
M  V30 35017 H 3268.8 4.1434 -0.359879 0
M  V30 35018 H 3267.37 3.47751 1.34624 0
M  V30 35019 N 3269.56 0.128608 1.57074 0
M  V30 35020 C 3270.78 -0.537804 2.00306 0
M  V30 35021 C 3271.21 -1.58818 1.0079 0
M  V30 35022 O 3270.57 -1.8129 -0.019052 0
M  V30 35023 C 3270.61 -1.13195 3.42373 0
M  V30 35024 O 3269.72 -2.24729 3.4579 0
M  V30 35025 H 3269.06 -0.133416 0.650458 0
M  V30 35026 H 3271.59 0.219918 2.03415 0
M  V30 35027 H 3271.6 -1.46513 3.80786 0
M  V30 35028 H 3270.27 -0.362641 4.14316 0
M  V30 35029 H 3268.85 -1.92777 3.19204 0
M  V30 35030 N 3271.04 -1.5693 -0.145178 0
M  V30 35031 C 3272.27 -1.87338 -0.8711 0
M  V30 35032 C 3272.67 -0.715023 -1.75169 0
M  V30 35033 O 3272.02 0.324272 -1.80815 0
M  V30 35034 C 3272.08 -3.12471 -1.77769 0
M  V30 35035 C 3271.74 -4.44199 -1.07408 0
M  V30 35036 C 3272.74 -5.18142 -0.427129 0
M  V30 35037 C 3270.42 -4.90922 -1.06305 0
M  V30 35038 C 3272.42 -6.37015 0.22146 0
M  V30 35039 C 3270.11 -6.09719 -0.410647 0
M  V30 35040 C 3271.1 -6.82611 0.230477 0
M  V30 35041 O 3270.79 -7.99151 0.872529 0
M  V30 35042 H 3270.52 -0.625175 -0.257163 0
M  V30 35043 H 3273.08 -2.04908 -0.142123 0
M  V30 35044 H 3271.31 -2.90915 -2.54766 0
M  V30 35045 H 3273 -3.29111 -2.37573 0
M  V30 35046 H 3273.76 -4.83113 -0.427451 0
M  V30 35047 H 3269.64 -4.34108 -1.55149 0
M  V30 35048 H 3273.19 -6.93849 0.722471 0
M  V30 35049 H 3269.08 -6.44209 -0.407998 0
M  V30 35050 H 3269.85 -8.14829 0.774379 0
M  V30 35051 N 3272.51 0.414582 -1.52049 0
M  V30 35052 C 3273.76 1.16203 -1.6584 0
M  V30 35053 C 3274.09 1.90638 -0.385657 0
M  V30 35054 O 3273.34 1.85242 0.631182 0
M  V30 35055 C 3273.64 2.18617 -2.82739 0
M  V30 35056 C 3273.31 1.61029 -4.21165 0
M  V30 35057 C 3271.97 1.45048 -4.58819 0
M  V30 35058 C 3274.32 1.1892 -5.07452 0
M  V30 35059 C 3271.65 0.854659 -5.80442 0
M  V30 35060 C 3274 0.607575 -6.29676 0
M  V30 35061 C 3272.67 0.434851 -6.66082 0
M  V30 35062 H 3271.94 0.425219 -0.606853 0
M  V30 35063 H 3274.58 0.449976 -1.86138 0
M  V30 35064 H 3272.89 2.95947 -2.56754 0
M  V30 35065 H 3274.59 2.76313 -2.90606 0
M  V30 35066 H 3271.18 1.7445 -3.91491 0
M  V30 35067 H 3275.36 1.30078 -4.7895 0
M  V30 35068 H 3270.62 0.708803 -6.07277 0
M  V30 35069 H 3274.79 0.272866 -6.95865 0
M  V30 35070 H 3272.42 -0.0289452 -7.60194 0
M  V30 35071 N 3273.99 1.4258 0.671475 0
M  V30 35072 C 3275.22 1.46631 1.45969 0
M  V30 35073 C 3275.63 0.0786318 1.88636 0
M  V30 35074 O 3274.99 -0.907344 1.58346 0
M  V30 35075 C 3275.04 2.39632 2.70664 0
M  V30 35076 O 3274.76 3.73001 2.29787 0
M  V30 35077 C 3276.26 2.52737 3.64196 0
M  V30 35078 H 3273.48 0.498606 0.449035 0
M  V30 35079 H 3276.03 1.8713 0.824778 0
M  V30 35080 H 3274.18 2.02377 3.30337 0
M  V30 35081 H 3274.6 4.22839 3.10334 0
M  V30 35082 H 3276.07 3.21925 4.48406 0
M  V30 35083 H 3276.55 1.56633 4.1032 0
M  V30 35084 H 3277.15 2.90728 3.10415 0
M  V30 35085 N 3275.47 -0.908102 1.28807 0
M  V30 35086 C 3276.42 -2.03259 1.13086 0
M  V30 35087 C 3277.41 -1.6933 0.0486392 0
M  V30 35088 O 3278.62 -1.78796 0.207825 0
M  V30 35089 H 3274.99 -0.666074 0.349069 0
M  V30 35090 H 3276.96 -2.13659 2.08308 0
M  V30 35091 C 3275.71 -3.38004 0.815398 0
M  V30 35092 H 3275.04 -3.64609 1.64014 0
M  V30 35093 H 3276.48 -4.17397 0.745385 0
M  V30 35094 C 3274.93 -3.33448 -0.481072 0
M  V30 35095 O 3275.46 -3.72252 -1.50968 0
M  V30 35096 N 3273.67 -2.86543 -0.483862 0
M  V30 35097 H 3273.22 -2.55161 0.353638 0
M  V30 35098 H 3273.18 -2.83878 -1.35133 0
M  V30 35099 N 3276.95 -1.11147 -1.11732 0
M  V30 35100 C 3277.88 -0.710847 -2.16846 0
M  V30 35101 C 3278.86 0.291465 -1.59966 0
M  V30 35102 O 3280.04 0.188612 -1.87554 0
M  V30 35103 C 3277.17 -0.050034 -3.38663 0
M  V30 35104 C 3276.22 -1.017 -4.14197 0
M  V30 35105 S 3277.05 -2.53801 -4.71535 0
M  V30 35106 C 3278.2 -1.89012 -5.96679 0
M  V30 35107 H 3278.44 -1.60125 -2.50494 0
M  V30 35108 H 3275.97 -0.929204 -1.23309 0
M  V30 35109 H 3277.93 0.324887 -4.09212 0
M  V30 35110 H 3276.59 0.817281 -3.03281 0
M  V30 35111 H 3275.78 -0.502022 -5.01494 0
M  V30 35112 H 3275.38 -1.3342 -3.49393 0
M  V30 35113 H 3277.68 -1.22474 -6.66338 0
M  V30 35114 H 3278.62 -2.74294 -6.52816 0
M  V30 35115 H 3279.03 -1.35155 -5.48082 0
M  V30 35116 N 3278.43 1.29282 -0.901326 0
M  V30 35117 C 3279.67 1.95493 -0.528078 0
M  V30 35118 C 3280 1.71046 0.92594 0
M  V30 35119 O 3279.26 1.01726 1.67183 0
M  V30 35120 C 3279.55 3.49031 -0.76889 0
M  V30 35121 C 3279.22 3.93558 -2.20052 0
M  V30 35122 C 3277.88 4.05426 -2.59196 0
M  V30 35123 C 3280.23 4.16544 -3.13273 0
M  V30 35124 C 3277.56 4.37652 -3.9074 0
M  V30 35125 C 3279.91 4.50244 -4.44368 0
M  V30 35126 C 3278.58 4.60323 -4.83383 0
M  V30 35127 H 3277.85 0.71536 -0.193237 0
M  V30 35128 H 3280.5 1.53849 -1.14029 0
M  V30 35129 H 3278.8 3.91731 -0.0737685 0
M  V30 35130 H 3280.5 3.98359 -0.459454 0
M  V30 35131 H 3277.09 3.84838 -1.88673 0
M  V30 35132 H 3281.27 4.0684 -2.84245 0
M  V30 35133 H 3276.53 4.43658 -4.20687 0
M  V30 35134 H 3280.7 4.6698 -5.16626 0
M  V30 35135 H 3278.33 4.85048 -5.85348 0
M  V30 35136 N 3279.9 0.663979 1.4293 0
M  V30 35137 C 3280.87 -0.0117223 2.29197 0
M  V30 35138 C 3281.87 -0.73985 1.42769 0
M  V30 35139 O 3283.06 -0.57948 1.64279 0
M  V30 35140 C 3280.19 -1.02732 3.25052 0
M  V30 35141 H 3281.38 0.747442 2.90436 0
M  V30 35142 H 3278.93 0.42576 1.50389 0
M  V30 35143 H 3279.67 -1.81535 2.68729 0
M  V30 35144 H 3279.45 -0.50874 3.88786 0
M  V30 35145 H 3280.94 -1.49887 3.89774 0
M  V30 35146 N 3281.38 -1.52265 0.406593 0
M  V30 35147 C 3282.61 -2.06204 -0.169588 0
M  V30 35148 C 3283.02 -1.27687 -1.39074 0
M  V30 35149 O 3282.38 -0.328054 -1.79527 0
M  V30 35150 C 3282.43 -3.57703 -0.522548 0
M  V30 35151 O 3282.15 -4.3325 0.650105 0
M  V30 35152 C 3283.65 -4.2805 -1.15273 0
M  V30 35153 H 3280.87 -0.670655 -0.0215073 0
M  V30 35154 H 3283.42 -1.96197 0.576815 0
M  V30 35155 H 3281.57 -3.67727 -1.21884 0
M  V30 35156 H 3281.99 -5.2329 0.356081 0
M  V30 35157 H 3283.46 -5.35239 -1.34993 0
M  V30 35158 H 3283.94 -3.84364 -2.12511 0
M  V30 35159 H 3284.54 -4.22389 -0.496712 0
M  V30 35160 N 3282.86 -0.136936 -1.57004 0
M  V30 35161 C 3284.11 0.511102 -1.96874 0
M  V30 35162 C 3284.46 1.63135 -1.02004 0
M  V30 35163 O 3283.75 1.91526 -0.0532475 0
M  V30 35164 C 3283.95 1.07325 -3.40905 0
M  V30 35165 C 3283.78 0.00900208 -4.49699 0
M  V30 35166 C 3282.55 -0.428979 -5.03476 0
M  V30 35167 C 3284.75 -0.77872 -5.0837 0
M  V30 35168 N 3282.73 -1.47713 -5.95864 0
M  V30 35169 C 3284.1 -1.67761 -5.96872 0
M  V30 35170 C 3286.15 -0.827625 -4.90973 0
M  V30 35171 C 3284.86 -2.62119 -6.6984 0
M  V30 35172 C 3286.88 -1.75899 -5.64636 0
M  V30 35173 C 3286.24 -2.64543 -6.52837 0
M  V30 35174 H 3282.34 0.156127 -0.766256 0
M  V30 35175 H 3284.93 -0.22921 -1.93346 0
M  V30 35176 H 3283.1 1.78321 -3.45045 0
M  V30 35177 H 3284.83 1.68708 -3.67858 0
M  V30 35178 H 3281.59 -0.0331432 -4.73588 0
M  V30 35179 H 3282.01 -2.00066 -6.46763 0
M  V30 35180 H 3286.65 -0.156393 -4.22511 0
M  V30 35181 H 3284.37 -3.30248 -7.37538 0
M  V30 35182 H 3287.96 -1.8025 -5.53174 0
M  V30 35183 H 3286.84 -3.35439 -7.08837 0
M  V30 35184 N 3284.34 1.57005 0.136853 0
M  V30 35185 C 3285.56 1.88438 0.866372 0
M  V30 35186 C 3285.99 0.727036 1.73481 0
M  V30 35187 O 3285.35 -0.323063 1.78398 0
M  V30 35188 C 3285.39 3.18517 1.69054 0
M  V30 35189 O 3284.5 3.03165 2.79579 0
M  V30 35190 H 3283.84 0.618838 0.240698 0
M  V30 35191 H 3286.37 2.0422 0.124617 0
M  V30 35192 H 3286.38 3.50793 2.08347 0
M  V30 35193 H 3285.05 4.02352 1.05289 0
M  V30 35194 H 3283.63 2.8232 2.43619 0
M  V30 35195 N 3285.82 -0.406513 1.52267 0
M  V30 35196 C 3287.23 -0.985214 1.58589 0
M  V30 35197 C 3287.58 -1.91475 0.427989 0
M  V30 35198 O 3286.7 -2.11642 -0.451304 0
M  V30 35199 C 3287.3 -1.7936 2.87429 0
M  V30 35200 C 3285.86 -2.32228 2.96221 0
M  V30 35201 C 3285 -1.12284 2.5355 0
M  V30 35202 H 3287.96 -0.186657 1.57598 0
M  V30 35203 H 3287.98 -2.65122 2.72929 0
M  V30 35204 H 3287.49 -1.1168 3.71684 0
M  V30 35205 H 3285.59 -3.03271 2.16466 0
M  V30 35206 H 3285.7 -2.62914 4.00516 0
M  V30 35207 H 3284.07 -1.47759 2.07459 0
M  V30 35208 H 3284.85 -0.461671 3.40182 0
M  V30 35209 N 3287.29 -1.42934 -0.663904 0
M  V30 35210 C 3288.52 -1.47614 -1.45688 0
M  V30 35211 C 3288.94 -0.0920636 -1.87875 0
M  V30 35212 O 3288.3 0.911892 -1.56698 0
M  V30 35213 C 3288.35 -2.41804 -2.67513 0
M  V30 35214 O 3287.45 -1.89692 -3.66184 0
M  V30 35215 H 3286.8 -0.49971 -0.437248 0
M  V30 35216 H 3289.33 -1.87738 -0.813364 0
M  V30 35217 H 3289.34 -2.5875 -3.15456 0
M  V30 35218 H 3288.01 -3.42354 -2.36149 0
M  V30 35219 H 3286.59 -1.82355 -3.25271 0
M  V30 35220 N 3288.77 0.901258 -1.29287 0
M  V30 35221 C 3289.72 2.00519 -1.14283 0
M  V30 35222 C 3290.69 1.6606 -0.036572 0
M  V30 35223 O 3291.87 1.89708 -0.203804 0
M  V30 35224 C 3289.01 3.35125 -0.82373 0
M  V30 35225 C 3288.13 3.82377 -2.01027 0
M  V30 35226 C 3287.26 5.05551 -1.63069 0
M  V30 35227 C 3286.3 5.45168 -2.78313 0
M  V30 35228 N 3285.44 6.59529 -2.40762 0
M  V30 35229 H 3290.28 2.12685 -2.08732 0
M  V30 35230 H 3287.82 1.04159 -1.03872 0
M  V30 35231 H 3289.77 4.12576 -0.619412 0
M  V30 35232 H 3288.4 3.22691 0.0838545 0
M  V30 35233 H 3287.46 3.00974 -2.32634 0
M  V30 35234 H 3288.77 4.07688 -2.87387 0
M  V30 35235 H 3287.92 5.90582 -1.38916 0
M  V30 35236 H 3286.66 4.82075 -0.738548 0
M  V30 35237 H 3285.67 4.58672 -3.0315 0
M  V30 35238 H 3286.89 5.70626 -3.68189 0
M  V30 35239 H 3284.84 6.3766 -1.54033 0
M  V30 35240 H 3284.75 6.84629 -3.20655 0
M  V30 35241 H 3286.02 7.47832 -2.19925 0
M  V30 35242 N 3290.25 1.11738 1.11141 0
M  V30 35243 C 3291.21 0.781778 2.15455 0
M  V30 35244 C 3292.21 -0.200355 1.59547 0
M  V30 35245 O 3293.4 0.0245199 1.74183 0
M  V30 35246 C 3290.54 0.160423 3.40522 0
M  V30 35247 H 3291.73 1.70591 2.46655 0
M  V30 35248 H 3289.28 0.919666 1.2638 0
M  V30 35249 H 3290.02 -0.773779 3.14934 0
M  V30 35250 H 3289.8 0.867445 3.82384 0
M  V30 35251 H 3291.29 -0.0581441 4.1756 0
M  V30 35252 N 3291.73 -1.28802 0.90817 0
M  V30 35253 C 3293.14 -1.47668 0.6055 0
M  V30 35254 C 3293.34 -1.82661 -0.850727 0
M  V30 35255 O 3292.4 -1.92819 -1.63025 0
M  V30 35256 C 3293.71 -2.58355 1.5386 0
M  V30 35257 C 3295.26 -2.72227 1.54472 0
M  V30 35258 C 3295.74 -3.86052 2.46431 0
M  V30 35259 N 3297.23 -3.93397 2.44526 0
M  V30 35260 C 3297.96 -4.80839 3.1238 0
M  V30 35261 N 3297.46 -5.72912 3.89543 0
M  V30 35262 N 3299.25 -4.74402 3.01495 0
M  V30 35263 H 3291.4 -1.04367 1.8499 0
M  V30 35264 H 3293.67 -0.51926 0.793141 0
M  V30 35265 H 3293.37 -2.39388 2.57655 0
M  V30 35266 H 3293.25 -3.55338 1.26549 0
M  V30 35267 H 3295.63 -2.90586 0.514178 0
M  V30 35268 H 3295.71 -1.75792 1.85824 0
M  V30 35269 H 3295.36 -3.68448 3.49584 0
M  V30 35270 H 3295.29 -4.81872 2.12384 0
M  V30 35271 H 3297.78 -3.27548 1.8847 0
M  V30 35272 H 3298.09 -6.36449 4.38352 0
M  V30 35273 H 3296.44 -5.7277 3.93649 0
M  V30 35274 H 3299.63 -4.01462 2.4072 0
M  V30 35275 H 3299.8 -5.42336 3.54649 0
M  V30 35276 N 3293.21 -0.67155 -1.42576 0
M  V30 35277 C 3294.14 -0.00511088 -2.33499 0
M  V30 35278 C 3295.12 0.792736 -1.50498 0
M  V30 35279 O 3296.3 0.750543 -1.7911 0
M  V30 35280 C 3293.43 0.949135 -3.34079 0
M  V30 35281 C 3292.39 0.260111 -4.27209 0
M  V30 35282 C 3291.71 1.32707 -5.1797 0
M  V30 35283 C 3293.01 -0.858863 -5.1519 0
M  V30 35284 H 3294.71 -0.764457 -2.89476 0
M  V30 35285 H 3292.25 -0.369067 -1.3919 0
M  V30 35286 H 3294.21 1.42441 -3.96596 0
M  V30 35287 H 3292.93 1.73986 -2.76399 0
M  V30 35288 H 3291.59 -0.194898 -3.66082 0
M  V30 35289 H 3291.24 2.1097 -4.56619 0
M  V30 35290 H 3290.94 0.871191 -5.81106 0
M  V30 35291 H 3292.46 1.80334 -5.83363 0
M  V30 35292 H 3293.87 -0.464944 -5.71412 0
M  V30 35293 H 3292.27 -1.24034 -5.87142 0
M  V30 35294 H 3293.34 -1.70903 -4.53784 0
M  V30 35295 N 3294.68 1.52047 -0.414663 0
M  V30 35296 C 3295.63 2.23993 0.42557 0
M  V30 35297 C 3296.62 1.25338 1.00892 0
M  V30 35298 O 3297.81 1.50548 0.930816 0
M  V30 35299 C 3294.94 3.06887 1.53868 0
M  V30 35300 C 3294.03 4.12956 0.96584 0
M  V30 35301 N 3294.42 5.05657 0.120141 0
M  V30 35302 C 3292.71 4.28538 1.23578 0
M  V30 35303 C 3293.42 5.81359 -0.199165 0
M  V30 35304 N 3292.39 5.42041 0.41141 0
M  V30 35305 H 3296.19 2.93024 -0.226798 0
M  V30 35306 H 3293.71 1.60828 -0.225404 0
M  V30 35307 H 3295.7 3.56987 2.15328 0
M  V30 35308 H 3294.36 2.39396 2.19362 0
M  V30 35309 H 3295.38 5.17322 -0.244592 0
M  V30 35310 H 3292.05 3.72276 1.88989 0
M  V30 35311 H 3293.44 6.66033 -0.885967 0
M  V30 35312 N 3296.16 0.145261 1.56929 0
M  V30 35313 C 3297.09 -0.791224 2.19686 0
M  V30 35314 C 3298.07 -1.25831 1.14457 0
M  V30 35315 O 3299.26 -1.31619 1.42794 0
M  V30 35316 C 3296.39 -2.03119 2.81709 0
M  V30 35317 C 3295.34 -1.70094 3.92749 0
M  V30 35318 C 3294.67 -3.0134 4.417 0
M  V30 35319 C 3295.97 -0.948935 5.13607 0
M  V30 35320 H 3297.66 -0.268197 2.98196 0
M  V30 35321 H 3295.21 -0.127558 1.43434 0
M  V30 35322 H 3297.16 -2.69113 3.24278 0
M  V30 35323 H 3295.89 -2.57791 2.00527 0
M  V30 35324 H 3294.54 -1.06479 3.50796 0
M  V30 35325 H 3294.19 -3.53999 3.57342 0
M  V30 35326 H 3293.89 -2.80006 5.16595 0
M  V30 35327 H 3295.42 -3.68407 4.86938 0
M  V30 35328 H 3296.83 -1.51092 5.53032 0
M  V30 35329 H 3295.23 -0.835607 5.94254 0
M  V30 35330 H 3296.3 0.0596483 4.84863 0
M  V30 35331 N 3297.64 -1.57075 -0.128525 0
M  V30 35332 C 3298.57 -1.96275 -1.18359 0
M  V30 35333 C 3299.59 -0.860842 -1.38179 0
M  V30 35334 O 3300.78 -1.13918 -1.37422 0
M  V30 35335 C 3297.88 -2.23759 -2.54529 0
M  V30 35336 C 3297.05 -3.55062 -2.5544 0
M  V30 35337 C 3296.11 -3.70871 -3.73285 0
M  V30 35338 O 3295.13 -4.4308 -3.57308 0
M  V30 35339 N 3296.34 -3.08921 -4.91475 0
M  V30 35340 H 3299.1 -2.87387 -0.850225 0
M  V30 35341 H 3296.66 -1.58748 -0.317904 0
M  V30 35342 H 3298.65 -2.31559 -3.31908 0
M  V30 35343 H 3297.22 -1.38821 -2.80085 0
M  V30 35344 H 3296.44 -3.58537 -1.63844 0
M  V30 35345 H 3297.73 -4.41384 -2.53096 0
M  V30 35346 H 3297.13 -2.50205 -5.0736 0
M  V30 35347 H 3295.69 -3.22255 -5.66564 0
M  V30 35348 N 3299.12 0.398432 -1.5248 0
M  V30 35349 C 3300.37 1.14212 -1.66733 0
M  V30 35350 C 3300.69 1.90748 -0.404991 0
M  V30 35351 O 3299.96 1.87105 0.580402 0
M  V30 35352 H 3298.54 0.424611 -0.614585 0
M  V30 35353 H 3301.2 0.453026 -1.89562 0
M  V30 35354 H 3300.3 1.85027 -2.5134 0
M  V30 35355 N 3300.6 1.43284 0.656314 0
M  V30 35356 C 3302.01 1.26616 0.971623 0
M  V30 35357 C 3302.21 0.183647 2.00661 0
M  V30 35358 O 3301.27 -0.43896 2.48655 0
M  V30 35359 C 3302.58 2.62942 1.45883 0
M  V30 35360 C 3304.13 2.70449 1.57564 0
M  V30 35361 C 3304.61 4.07185 2.09677 0
M  V30 35362 N 3306.1 4.09234 2.16984 0
M  V30 35363 C 3306.83 5.11865 2.58421 0
M  V30 35364 N 3306.33 6.24872 2.99177 0
M  V30 35365 N 3308.12 4.9922 2.58334 0
M  V30 35366 H 3300.27 2.12381 -0.0286104 0
M  V30 35367 H 3302.53 0.946692 0.0497751 0
M  V30 35368 H 3302.24 3.43105 0.772762 0
M  V30 35369 H 3302.11 2.88126 2.4344 0
M  V30 35370 H 3304.5 1.9062 2.25273 0
M  V30 35371 H 3304.58 2.49033 0.584485 0
M  V30 35372 H 3304.23 4.87479 1.42571 0
M  V30 35373 H 3304.16 4.25963 3.09618 0
M  V30 35374 H 3306.65 3.27661 1.88272 0
M  V30 35375 H 3306.96 6.99018 3.29536 0
M  V30 35376 H 3305.31 6.28349 2.96989 0
M  V30 35377 H 3308.5 4.10002 2.25868 0
M  V30 35378 H 3308.67 5.79333 2.90305 0
M  V30 35379 N 3302.08 -0.894389 1.29763 0
M  V30 35380 C 3303.3 -1.68397 1.21067 0
M  V30 35381 C 3303.73 -1.86755 -0.224575 0
M  V30 35382 O 3303.08 -1.3917 -1.16196 0
M  V30 35383 C 3303.13 -3.04303 1.93474 0
M  V30 35384 O 3302.24 -3.92827 1.2554 0
M  V30 35385 H 3301.58 -0.514918 0.419232 0
M  V30 35386 H 3304.11 -1.11693 1.71423 0
M  V30 35387 H 3304.12 -3.5441 2.02133 0
M  V30 35388 H 3302.79 -2.9026 2.97862 0
M  V30 35389 H 3301.37 -3.51263 1.25174 0
M  V30 35390 N 3303.55 -1.12326 -1.10547 0
M  V30 35391 C 3304.5 -0.785287 -2.18943 0
M  V30 35392 C 3305.5 0.227359 -1.67867 0
M  V30 35393 O 3306.7 0.0856846 -1.79796 0
M  V30 35394 H 3303.08 -0.236111 -0.713972 0
M  V30 35395 H 3305.05 -1.70792 -2.44689 0
M  V30 35396 C 3303.8 -0.254911 -3.46764 0
M  V30 35397 H 3303.12 -1.02541 -3.86426 0
M  V30 35398 H 3304.56 -0.0567271 -4.23962 0
M  V30 35399 C 3303.02 1.01689 -3.21187 0
M  V30 35400 O 3303.55 2.09491 -3.42748 0
M  V30 35401 N 3301.75 0.943375 -2.74861 0
M  V30 35402 H 3301.3 0.0659914 -2.57515 0
M  V30 35403 H 3301.26 1.79496 -2.58125 0
M  V30 35404 N 3305.03 1.28319 -0.914988 0
M  V30 35405 C 3305.99 2.2552 -0.409063 0
M  V30 35406 C 3306.99 1.53921 0.4653 0
M  V30 35407 O 3308.18 1.72123 0.26818 0
M  V30 35408 C 3305.32 3.38384 0.413393 0
M  V30 35409 H 3306.51 2.71789 -1.26771 0
M  V30 35410 H 3304.06 1.40023 -0.694501 0
M  V30 35411 H 3304.8 2.97479 1.29139 0
M  V30 35412 H 3304.58 3.91519 -0.213337 0
M  V30 35413 H 3306.07 4.1066 0.75816 0
M  V30 35414 N 3306.51 0.679102 1.42218 0
M  V30 35415 C 3307.76 0.21215 2.02291 0
M  V30 35416 C 3308.11 -1.16974 1.52757 0
M  V30 35417 O 3307.4 -1.77482 0.721859 0
M  V30 35418 C 3307.6 0.19109 3.56889 0
M  V30 35419 C 3307.43 1.5694 4.21426 0
M  V30 35420 C 3306.2 2.16822 4.56417 0
M  V30 35421 C 3308.39 2.5129 4.48729 0
M  V30 35422 N 3306.38 3.4739 5.06156 0
M  V30 35423 C 3307.75 3.66517 5.00065 0
M  V30 35424 C 3309.8 2.49766 4.30722 0
M  V30 35425 C 3308.51 4.80479 5.35288 0
M  V30 35426 C 3310.53 3.62827 4.67023 0
M  V30 35427 C 3309.89 4.76782 5.18515 0
M  V30 35428 H 3305.99 0.12265 0.772322 0
M  V30 35429 H 3308.58 0.89302 1.73012 0
M  V30 35430 H 3306.75 -0.459208 3.85676 0
M  V30 35431 H 3308.48 -0.289146 4.03666 0
M  V30 35432 H 3305.23 1.69269 4.42318 0
M  V30 35433 H 3305.66 4.14273 5.3545 0
M  V30 35434 H 3310.3 1.62889 3.90163 0
M  V30 35435 H 3308.02 5.68028 5.74778 0
M  V30 35436 H 3311.6 3.6288 4.54763 0
M  V30 35437 H 3310.48 5.62819 5.46081 0
M  V30 35438 N 3307.99 -1.51825 0.42272 0
M  V30 35439 C 3309.4 -1.59427 0.0742644 0
M  V30 35440 C 3309.6 -1.43468 -1.41489 0
M  V30 35441 O 3308.66 -1.2685 -2.18324 0
M  V30 35442 C 3309.97 -2.95027 0.581324 0
M  V30 35443 C 3311.52 -3.08298 0.540484 0
M  V30 35444 C 3312 -4.464 1.02428 0
M  V30 35445 N 3313.49 -4.52678 0.981655 0
M  V30 35446 C 3314.22 -5.57833 1.32703 0
M  V30 35447 N 3313.72 -6.70476 1.74453 0
M  V30 35448 N 3315.51 -5.48113 1.24613 0
M  V30 35449 H 3307.66 -1.60445 1.39181 0
M  V30 35450 H 3309.92 -0.755519 0.572621 0
M  V30 35451 H 3309.63 -3.12029 1.62267 0
M  V30 35452 H 3309.5 -3.772 -0.00170339 0
M  V30 35453 H 3311.89 -2.90972 -0.491844 0
M  V30 35454 H 3311.97 -2.28 1.15973 0
M  V30 35455 H 3311.62 -4.6447 2.055 0
M  V30 35456 H 3311.55 -5.25215 0.381705 0
M  V30 35457 H 3314.04 -3.71825 0.674874 0
M  V30 35458 H 3314.35 -7.46717 1.99081 0
M  V30 35459 H 3312.7 -6.71722 1.78368 0
M  V30 35460 H 3315.89 -4.58996 0.918721 0
M  V30 35461 H 3316.06 -6.29955 1.51858 0
M  V30 35462 N 3309.47 -0.153581 -1.5685 0
M  V30 35463 C 3310.88 0.366148 -1.83074 0
M  V30 35464 C 3311.23 1.64286 -1.0726 0
M  V30 35465 O 3310.35 2.14021 -0.319962 0
M  V30 35466 C 3310.95 0.671084 -3.32087 0
M  V30 35467 C 3309.51 1.13531 -3.5887 0
M  V30 35468 C 3308.65 0.161838 -2.76827 0
M  V30 35469 H 3311.6 -0.378166 -1.54128 0
M  V30 35470 H 3311.63 1.52506 -3.486 0
M  V30 35471 H 3311.14 -0.258302 -3.87239 0
M  V30 35472 H 3309.24 2.08041 -3.09111 0
M  V30 35473 H 3309.35 1.05673 -4.67301 0
M  V30 35474 H 3307.72 0.655757 -2.46114 0
M  V30 35475 H 3308.5 -0.761254 -3.34753 0
M  V30 35476 N 3310.94 1.57141 0.120193 0
M  V30 35477 C 3311.88 1.969 1.17316 0
M  V30 35478 C 3312.89 0.868158 1.3772 0
M  V30 35479 O 3314.08 1.14645 1.36816 0
M  V30 35480 C 3311.18 2.25106 2.53339 0
M  V30 35481 C 3310.35 3.56412 2.53553 0
M  V30 35482 C 3309.41 3.72845 3.71313 0
M  V30 35483 O 3308.44 4.44969 3.54953 0
M  V30 35484 N 3309.64 3.11523 4.8983 0
M  V30 35485 H 3312.4 2.87834 0.834972 0
M  V30 35486 H 3309.96 1.58915 0.30948 0
M  V30 35487 H 3311.96 2.33316 3.30675 0
M  V30 35488 H 3310.53 1.40305 2.79344 0
M  V30 35489 H 3309.75 3.59401 1.6194 0
M  V30 35490 H 3311.03 4.4272 2.50752 0
M  V30 35491 H 3310.43 2.52892 5.06026 0
M  V30 35492 H 3308.99 3.25256 5.64847 0
M  V30 35493 N 3312.42 -0.39034 1.5269 0
M  V30 35494 C 3313.67 -1.13719 1.67916 0
M  V30 35495 C 3314 -1.89666 0.417192 0
M  V30 35496 O 3313.28 -1.85495 -0.584972 0
M  V30 35497 C 3313.56 -2.11651 2.91335 0
M  V30 35498 C 3313.41 -1.39476 4.27629 0
M  V30 35499 C 3314.73 -3.12094 3.10299 0
M  V30 35500 H 3311.85 -0.412046 0.611054 0
M  V30 35501 H 3314.49 -0.420721 1.85283 0
M  V30 35502 H 3312.64 -2.72749 2.76659 0
M  V30 35503 H 3314.31 -0.813528 4.5407 0
M  V30 35504 H 3312.56 -0.696615 4.2817 0
M  V30 35505 H 3313.23 -2.11029 5.10069 0
M  V30 35506 H 3315.7 -2.61085 3.23997 0
M  V30 35507 H 3314.58 -3.77863 3.98134 0
M  V30 35508 H 3314.84 -3.80884 2.24454 0
M  V30 35509 N 3313.9 -1.4363 -0.648706 0
M  V30 35510 C 3314.85 -1.49412 -1.78266 0
M  V30 35511 C 3315.84 -0.367317 -1.6537 0
M  V30 35512 O 3317.05 -0.541506 -1.71662 0
M  V30 35513 H 3313.42 -0.468495 -0.588232 0
M  V30 35514 H 3315.39 -2.44886 -1.7051 0
M  V30 35515 C 3314.14 -1.43861 -3.16543 0
M  V30 35516 H 3313.47 -2.29874 -3.27106 0
M  V30 35517 H 3314.91 -1.51968 -3.9583 0
M  V30 35518 C 3313.37 -0.156838 -3.36535 0
M  V30 35519 O 3313.9 0.780054 -3.94053 0
M  V30 35520 N 3312.1 -0.065583 -2.90526 0
M  V30 35521 H 3311.65 -0.828811 -2.43903 0
M  V30 35522 H 3311.61 0.791325 -3.04278 0
M  V30 35523 N 3315.38 0.887495 -1.30236 0
M  V30 35524 C 3316.33 2.01434 -1.16306 0
M  V30 35525 C 3317.32 1.69231 -0.075572 0
M  V30 35526 O 3318.53 1.78443 -0.236244 0
M  V30 35527 H 3314.9 0.660437 -0.359621 0
M  V30 35528 H 3316.87 2.10318 -2.11681 0
M  V30 35529 C 3315.62 3.36664 -0.869069 0
M  V30 35530 H 3314.94 3.61953 -1.69794 0
M  V30 35531 H 3316.38 4.16158 -0.811694 0
M  V30 35532 C 3314.84 3.34171 0.427962 0
M  V30 35533 O 3315.37 3.74607 1.45026 0
M  V30 35534 N 3313.58 2.87277 0.438214 0
M  V30 35535 H 3313.13 2.54566 -0.394187 0
M  V30 35536 H 3313.08 2.85992 1.30599 0
M  V30 35537 N 3316.86 1.12911 1.0995 0
M  V30 35538 C 3318.27 0.901115 1.63514 0
M  V30 35539 C 3318.62 -0.563514 1.87933 0
M  V30 35540 O 3317.74 -1.42905 1.62503 0
M  V30 35541 C 3318.34 1.62929 2.97051 0
M  V30 35542 C 3316.9 1.44732 3.47462 0
M  V30 35543 C 3316.04 1.66198 2.21976 0
M  V30 35544 H 3319 1.28317 0.933836 0
M  V30 35545 H 3319.02 1.08324 3.64755 0
M  V30 35546 H 3318.53 2.69524 2.79246 0
M  V30 35547 H 3316.63 0.404155 3.70402 0
M  V30 35548 H 3316.74 2.20678 4.2525 0
M  V30 35549 H 3315.11 1.08644 2.30366 0
M  V30 35550 H 3315.89 2.74101 2.06697 0
M  V30 35551 N 3318.33 -1.27832 0.92178 0
M  V30 35552 C 3319.28 -2.27041 0.414878 0
M  V30 35553 C 3320.25 -1.57914 -0.515017 0
M  V30 35554 O 3321.44 -1.85764 -0.435466 0
M  V30 35555 C 3318.58 -3.43502 -0.331684 0
M  V30 35556 C 3317.69 -4.27357 0.63164 0
M  V30 35557 C 3316.82 -5.31031 -0.134172 0
M  V30 35558 C 3315.86 -6.06552 0.822244 0
M  V30 35559 N 3315 -7.02043 0.0894383 0
M  V30 35560 H 3319.84 -2.69776 1.2659 0
M  V30 35561 H 3317.38 -1.32664 0.635512 0
M  V30 35562 H 3319.34 -4.09829 -0.780793 0
M  V30 35563 H 3317.97 -3.01735 -1.14699 0
M  V30 35564 H 3317.02 -3.61001 1.19928 0
M  V30 35565 H 3318.33 -4.79821 1.36282 0
M  V30 35566 H 3317.48 -6.03278 -0.643473 0
M  V30 35567 H 3316.22 -4.79355 -0.898358 0
M  V30 35568 H 3315.23 -5.33149 1.34285 0
M  V30 35569 H 3316.45 -6.60317 1.58612 0
M  V30 35570 H 3314.4 -6.52706 -0.656611 0
M  V30 35571 H 3314.32 -7.52167 0.7603 0
M  V30 35572 H 3315.58 -7.78476 -0.399404 0
M  V30 35573 N 3319.81 -0.686634 -1.41856 0
M  V30 35574 C 3320.72 -0.0159418 -2.34595 0
M  V30 35575 C 3321.74 0.775905 -1.55742 0
M  V30 35576 O 3322.91 0.715517 -1.88261 0
M  V30 35577 C 3319.98 0.915414 -3.34397 0
M  V30 35578 C 3319.04 0.116775 -4.29141 0
M  V30 35579 C 3318.27 1.00377 -5.24176 0
M  V30 35580 O 3318.5 2.24331 -5.24435 0
M  V30 35581 O 3317.43 0.458232 -6.00153 0
M  V30 35582 H 3321.26 -0.780153 -2.93509 0
M  V30 35583 H 3318.84 -0.446921 -1.42559 0
M  V30 35584 H 3320.72 1.44974 -3.95677 0
M  V30 35585 H 3319.4 1.65927 -2.77939 0
M  V30 35586 H 3318.31 -0.461936 -3.71237 0
M  V30 35587 H 3319.64 -0.588223 -4.88672 0
M  V30 35588 N 3321.29 1.51599 -0.430766 0
M  V30 35589 C 3322.54 2.02982 0.130388 0
M  V30 35590 C 3322.89 1.30957 1.40954 0
M  V30 35591 O 3322.18 0.413729 1.8708 0
M  V30 35592 C 3322.38 3.55033 0.410631 0
M  V30 35593 C 3322.21 4.41789 -0.839809 0
M  V30 35594 C 3320.98 4.86334 -1.37141 0
M  V30 35595 C 3323.18 4.8454 -1.7241 0
M  V30 35596 N 3321.16 5.57282 -2.57507 0
M  V30 35597 C 3322.53 5.54488 -2.77386 0
M  V30 35598 C 3324.58 4.66533 -1.73929 0
M  V30 35599 C 3323.29 6.08339 -3.83819 0
M  V30 35600 C 3325.31 5.21295 -2.79294 0
M  V30 35601 C 3324.67 5.91184 -3.8299 0
M  V30 35602 H 3320.77 0.781951 0.00871781 0
M  V30 35603 H 3323.36 1.85547 -0.589964 0
M  V30 35604 H 3321.53 3.72497 1.10002 0
M  V30 35605 H 3323.26 3.93086 0.962566 0
M  V30 35606 H 3320.02 4.64453 -0.92628 0
M  V30 35607 H 3320.44 5.97387 -3.18525 0
M  V30 35608 H 3325.08 4.11968 -0.950924 0
M  V30 35609 H 3322.8 6.61963 -4.63498 0
M  V30 35610 H 3326.39 5.09218 -2.81404 0
M  V30 35611 H 3325.27 6.32799 -4.6318 0
M  V30 35612 N 3322.77 0.161897 1.56766 0
M  V30 35613 C 3323.7 -0.767879 2.20513 0
M  V30 35614 C 3324.68 -1.2461 1.15785 0
M  V30 35615 O 3325.86 -1.30097 1.44182 0
M  V30 35616 C 3322.99 -2.0012 2.83847 0
M  V30 35617 C 3321.95 -1.65919 3.94531 0
M  V30 35618 C 3321.27 -2.96638 4.44871 0
M  V30 35619 C 3322.57 -0.894406 5.14585 0
M  V30 35620 H 3324.27 -0.236555 2.98464 0
M  V30 35621 H 3321.81 -0.112338 1.43561 0
M  V30 35622 H 3323.77 -2.65658 3.27114 0
M  V30 35623 H 3322.49 -2.5565 2.0325 0
M  V30 35624 H 3321.15 -1.02753 3.51905 0
M  V30 35625 H 3320.8 -3.50189 3.61077 0
M  V30 35626 H 3320.5 -2.74512 5.19536 0
M  V30 35627 H 3322.02 -3.63222 4.90818 0
M  V30 35628 H 3323.44 -1.45218 5.54603 0
M  V30 35629 H 3321.83 -0.772531 5.95107 0
M  V30 35630 H 3322.9 0.111071 4.84773 0
M  V30 35631 N 3324.25 -1.57203 -0.111858 0
M  V30 35632 C 3325.18 -1.97519 -1.16271 0
M  V30 35633 C 3326.19 -0.87545 -1.37258 0
M  V30 35634 O 3327.38 -1.15369 -1.36206 0
M  V30 35635 C 3324.48 -2.26446 -2.52141 0
M  V30 35636 C 3323.65 -3.57752 -2.51659 0
M  V30 35637 C 3322.71 -3.74809 -3.6933 0
M  V30 35638 O 3321.74 -4.46845 -3.52588 0
M  V30 35639 N 3322.94 -3.14116 -4.88171 0
M  V30 35640 H 3325.71 -2.88273 -0.819696 0
M  V30 35641 H 3323.27 -1.59076 -0.301048 0
M  V30 35642 H 3325.26 -2.35066 -3.29433 0
M  V30 35643 H 3323.83 -1.41784 -2.78596 0
M  V30 35644 H 3323.05 -3.60255 -1.60032 0
M  V30 35645 H 3324.34 -4.44044 -2.484 0
M  V30 35646 H 3323.73 -2.55573 -5.04677 0
M  V30 35647 H 3322.29 -3.28246 -5.63114 0
M  V30 35648 N 3325.72 0.382237 -1.52894 0
M  V30 35649 C 3326.97 1.12827 -1.68517 0
M  V30 35650 C 3327.3 1.89442 -0.427245 0
M  V30 35651 O 3326.58 1.85802 0.575127 0
M  V30 35652 C 3326.86 2.10103 -2.92453 0
M  V30 35653 C 3326.71 1.37207 -4.28362 0
M  V30 35654 C 3328.03 3.10444 -3.1195 0
M  V30 35655 H 3325.15 0.4088 -0.613231 0
M  V30 35656 H 3327.79 0.410889 -1.85504 0
M  V30 35657 H 3325.94 2.71278 -2.78101 0
M  V30 35658 H 3327.62 0.789436 -4.54495 0
M  V30 35659 H 3325.86 0.673898 -4.28534 0
M  V30 35660 H 3326.53 2.08321 -5.11181 0
M  V30 35661 H 3329.01 2.59363 -3.25377 0
M  V30 35662 H 3327.88 3.75747 -4.00132 0
M  V30 35663 H 3328.14 3.79688 -2.26471 0
M  V30 35664 N 3327.2 1.43972 0.64108 0
M  V30 35665 C 3328.48 1.36707 1.39895 0
M  V30 35666 C 3328.86 0.0208422 2.1109 0
M  V30 35667 O 3328.21 -0.996214 2.0564 0
M  V30 35668 C 3328.42 2.55853 2.37361 0
M  V30 35669 C 3329.77 2.99479 3.00995 0
M  V30 35670 O 3330.79 2.55987 2.47688 0
M  V30 35671 O 3329.65 3.74858 3.97673 0
M  V30 35672 H 3326.74 0.540866 0.625614 0
M  V30 35673 H 3329.29 1.56044 0.66697 0
M  V30 35674 H 3328.06 3.45455 1.83784 0
M  V30 35675 H 3327.68 2.38678 3.17991 0
M  V30 35676 N 3328.68 -0.880575 1.30704 0
M  V30 35677 C 3329.93 -1.63275 1.19781 0
M  V30 35678 C 3330.26 -1.92932 -0.246487 0
M  V30 35679 O 3329.51 -1.55191 -1.19223 0
M  V30 35680 C 3329.81 -2.97785 1.97633 0
M  V30 35681 C 3329.48 -2.87663 3.47218 0
M  V30 35682 C 3328.14 -2.8461 3.88009 0
M  V30 35683 C 3330.49 -2.75469 4.42455 0
M  V30 35684 C 3327.82 -2.67207 5.22319 0
M  V30 35685 C 3330.17 -2.59604 5.76878 0
M  V30 35686 C 3328.83 -2.54928 6.16902 0
M  V30 35687 H 3328.1 -0.597467 0.438309 0
M  V30 35688 H 3330.75 -1.02349 1.61855 0
M  V30 35689 H 3329.06 -3.62687 1.48207 0
M  V30 35690 H 3330.75 -3.54955 1.8657 0
M  V30 35691 H 3327.34 -2.90852 3.14807 0
M  V30 35692 H 3331.53 -2.76891 4.1188 0
M  V30 35693 H 3326.78 -2.62004 5.52416 0
M  V30 35694 H 3330.96 -2.49143 6.50308 0
M  V30 35695 H 3328.58 -2.41201 7.2092 0
M  V30 35696 N 3330.16 -1.13492 -1.09349 0
M  V30 35697 C 3331.09 -0.770801 -2.1585 0
M  V30 35698 C 3332.1 0.207838 -1.61468 0
M  V30 35699 O 3333.29 -0.0124699 -1.78496 0
M  V30 35700 C 3330.39 -0.12193 -3.38681 0
M  V30 35701 C 3329.57 -1.13286 -4.22475 0
M  V30 35702 C 3328.63 -0.50954 -5.23727 0
M  V30 35703 O 3327.65 -1.16977 -5.5705 0
M  V30 35704 N 3328.85 0.718058 -5.76042 0
M  V30 35705 H 3331.62 -1.68725 -2.47693 0
M  V30 35706 H 3329.18 -1.02804 -1.25072 0
M  V30 35707 H 3331.17 0.307333 -4.03531 0
M  V30 35708 H 3329.74 0.697473 -3.0472 0
M  V30 35709 H 3328.96 -1.73939 -3.5375 0
M  V30 35710 H 3330.25 -1.81609 -4.75285 0
M  V30 35711 H 3329.65 1.27322 -5.51186 0
M  V30 35712 H 3328.2 1.08997 -6.42622 0
M  V30 35713 N 3331.64 1.27341 -0.928546 0
M  V30 35714 C 3332.58 2.26817 -0.426913 0
M  V30 35715 C 3333.55 1.58185 0.506635 0
M  V30 35716 O 3334.74 1.85993 0.425608 0
M  V30 35717 C 3331.88 3.43673 0.313462 0
M  V30 35718 C 3330.99 4.27016 -0.654295 0
M  V30 35719 C 3330.13 5.31094 0.106008 0
M  V30 35720 C 3329.17 6.06108 -0.8544 0
M  V30 35721 N 3328.3 7.01986 -0.126668 0
M  V30 35722 H 3333.14 2.69101 -1.28019 0
M  V30 35723 H 3330.68 1.32325 -0.642538 0
M  V30 35724 H 3332.64 4.10237 0.759048 0
M  V30 35725 H 3331.27 3.02339 1.13097 0
M  V30 35726 H 3330.32 3.6036 -1.21841 0
M  V30 35727 H 3331.63 4.79092 -1.38825 0
M  V30 35728 H 3330.79 6.03611 0.61147 0
M  V30 35729 H 3329.53 4.79824 0.872924 0
M  V30 35730 H 3328.53 5.32429 -1.3711 0
M  V30 35731 H 3329.76 6.59467 -1.62111 0
M  V30 35732 H 3327.7 6.53045 0.621987 0
M  V30 35733 H 3327.62 7.51753 -0.800178 0
M  V30 35734 H 3328.89 7.78677 0.358114 0
M  V30 35735 N 3333.12 0.694147 1.4149 0
M  V30 35736 C 3334.34 0.233503 2.05578 0
M  V30 35737 C 3334.76 -1.11673 1.52232 0
M  V30 35738 O 3334.12 -1.69758 0.669967 0
M  V30 35739 C 3334.17 0.181031 3.61046 0
M  V30 35740 O 3333.89 1.47792 4.12419 0
M  V30 35741 C 3335.39 -0.300776 4.42278 0
M  V30 35742 H 3332.61 0.108955 0.662095 0
M  V30 35743 H 3335.15 0.946331 1.81287 0
M  V30 35744 H 3333.31 -0.482611 3.84382 0
M  V30 35745 H 3333.72 1.36409 5.06451 0
M  V30 35746 H 3335.2 -0.286367 5.51257 0
M  V30 35747 H 3335.67 -1.33941 4.18278 0
M  V30 35748 H 3336.28 0.331816 4.24004 0
M  V30 35749 N 3334.59 -1.51368 0.438799 0
M  V30 35750 C 3335.53 -2.24354 -0.417175 0
M  V30 35751 C 3336.5 -1.26347 -1.02349 0
M  V30 35752 O 3337.69 -1.55486 -1.06567 0
M  V30 35753 C 3334.82 -2.99506 -1.58158 0
M  V30 35754 C 3333.86 -4.12182 -1.09581 0
M  V30 35755 S 3334.69 -5.35487 -0.036655 0
M  V30 35756 C 3335.85 -6.14177 -1.20569 0
M  V30 35757 H 3336.08 -2.9661 0.202468 0
M  V30 35758 H 3333.62 -1.52776 0.223333 0
M  V30 35759 H 3335.57 -3.43403 -2.24911 0
M  V30 35760 H 3334.24 -2.26837 -2.17264 0
M  V30 35761 H 3333.43 -4.64049 -1.96659 0
M  V30 35762 H 3333.03 -3.70554 -0.506499 0
M  V30 35763 H 3335.32 -6.43353 -2.12376 0
M  V30 35764 H 3336.27 -7.04358 -0.726963 0
M  V30 35765 H 3336.67 -5.45694 -1.44492 0
M  V30 35766 N 3336.07 -0.170208 -1.56678 0
M  V30 35767 C 3337.02 0.760518 -2.1791 0
M  V30 35768 C 3337.99 1.22771 -1.11877 0
M  V30 35769 O 3339.17 1.29608 -1.40023 0
M  V30 35770 C 3336.31 1.98485 -2.82308 0
M  V30 35771 C 3335.43 1.56133 -4.02798 0
M  V30 35772 C 3334.56 2.73924 -4.55126 0
M  V30 35773 C 3333.6 2.28057 -5.68029 0
M  V30 35774 N 3332.74 3.38937 -6.14871 0
M  V30 35775 H 3337.58 0.231577 -2.97099 0
M  V30 35776 H 3335.11 0.102576 -1.46742 0
M  V30 35777 H 3337.07 2.70293 -3.17801 0
M  V30 35778 H 3335.7 2.48751 -2.05725 0
M  V30 35779 H 3334.75 0.740031 -3.73132 0
M  V30 35780 H 3336.07 1.18464 -4.84528 0
M  V30 35781 H 3335.22 3.5389 -4.92795 0
M  V30 35782 H 3333.96 3.14852 -3.72451 0
M  V30 35783 H 3332.96 1.46537 -5.29912 0
M  V30 35784 H 3334.19 1.88188 -6.52505 0
M  V30 35785 H 3332.14 3.79443 -5.35126 0
M  V30 35786 H 3332.05 3.05357 -6.91587 0
M  V30 35787 H 3333.32 4.19191 -6.5719 0
M  V30 35788 N 3337.55 1.5726 0.10352 0
M  V30 35789 C 3338.8 1.85933 0.809742 0
M  V30 35790 C 3339.13 0.758153 1.78789 0
M  V30 35791 O 3338.4 -0.234648 1.93079 0
M  V30 35792 C 3338.69 3.25226 1.54596 0
M  V30 35793 C 3338.54 4.45962 0.586361 0
M  V30 35794 C 3339.86 3.623 2.49853 0
M  V30 35795 H 3336.98 0.67629 0.292918 0
M  V30 35796 H 3339.62 1.89857 0.0735732 0
M  V30 35797 H 3337.77 3.22011 2.1735 0
M  V30 35798 H 3339.44 4.61288 -0.0335252 0
M  V30 35799 H 3337.68 4.33683 -0.100926 0
M  V30 35800 H 3338.36 5.40133 1.13845 0
M  V30 35801 H 3340.83 3.66405 1.97196 0
M  V30 35802 H 3339.71 4.60713 2.98388 0
M  V30 35803 H 3339.97 2.90537 3.33228 0
M  V30 35804 N 3339.03 -0.374123 1.53095 0
M  V30 35805 C 3340.26 -1.13849 1.7276 0
M  V30 35806 C 3340.67 -1.83293 0.45267 0
M  V30 35807 O 3340.03 -1.73242 -0.573876 0
M  V30 35808 C 3340.08 -2.17528 2.88728 0
M  V30 35809 O 3339.8 -1.50913 4.11287 0
M  V30 35810 C 3341.3 -3.06578 3.20195 0
M  V30 35811 H 3338.52 -0.340761 0.578034 0
M  V30 35812 H 3341.06 -0.435648 1.99806 0
M  V30 35813 H 3339.22 -2.83425 2.64101 0
M  V30 35814 H 3339.63 -2.19924 4.76166 0
M  V30 35815 H 3341.11 -3.75325 4.04766 0
M  V30 35816 H 3341.58 -3.70915 2.35199 0
M  V30 35817 H 3342.19 -2.46309 3.46716 0
M  V30 35818 N 3340.51 -1.4431 -0.633436 0
M  V30 35819 C 3341.75 -1.46681 -1.39029 0
M  V30 35820 C 3342.07 -0.0997508 -1.94745 0
M  V30 35821 O 3341.34 0.867628 -1.75639 0
M  V30 35822 H 3339.92 -0.540102 -0.516041 0
M  V30 35823 H 3342.59 -1.8007 -0.745707 0
M  V30 35824 H 3341.68 -2.19089 -2.22276 0
M  V30 35825 N 3341.98 0.873632 -1.3117 0
M  V30 35826 C 3343.23 1.62879 -1.20824 0
M  V30 35827 C 3343.56 1.92786 0.23396 0
M  V30 35828 O 3342.84 1.55686 1.16586 0
M  V30 35829 C 3343.12 2.96135 -2.0488 0
M  V30 35830 C 3342.97 2.7313 -3.5738 0
M  V30 35831 C 3344.29 3.97195 -1.89537 0
M  V30 35832 H 3341.41 0.591042 -0.440271 0
M  V30 35833 H 3344.05 1.01016 -1.60922 0
M  V30 35834 H 3342.2 3.48935 -1.70812 0
M  V30 35835 H 3343.88 2.27031 -4.01565 0
M  V30 35836 H 3342.12 2.07428 -3.80994 0
M  V30 35837 H 3342.79 3.67932 -4.11497 0
M  V30 35838 H 3345.27 3.53592 -2.19343 0
M  V30 35839 H 3344.14 4.88325 -2.50659 0
M  V30 35840 H 3344.4 4.33701 -0.857652 0
M  V30 35841 N 3343.46 1.1407 1.08746 0
M  V30 35842 C 3344.69 0.93017 1.84812 0
M  V30 35843 C 3345.11 -0.521235 1.81462 0
M  V30 35844 O 3344.46 -1.36106 1.21579 0
M  V30 35845 C 3344.51 1.41869 3.32499 0
M  V30 35846 O 3344.23 2.81322 3.35841 0
M  V30 35847 C 3345.74 1.2476 4.25382 0
M  V30 35848 H 3342.96 0.331243 0.58354 0
M  V30 35849 H 3345.5 1.51498 1.37364 0
M  V30 35850 H 3343.65 0.876731 3.77349 0
M  V30 35851 H 3344.07 3.03167 4.28007 0
M  V30 35852 H 3345.54 1.63807 5.27135 0
M  V30 35853 H 3346.02 0.190067 4.38789 0
M  V30 35854 H 3346.63 1.77793 3.86354 0
M  V30 35855 N 3344.94 -1.26847 0.935286 0
M  V30 35856 C 3346.17 -1.98121 0.596284 0
M  V30 35857 C 3346.58 -1.69703 -0.827422 0
M  V30 35858 O 3345.94 -0.961892 -1.55093 0
M  V30 35859 C 3345.99 -3.52034 0.821835 0
M  V30 35860 O 3345.71 -3.79461 2.18954 0
M  V30 35861 C 3347.21 -4.40555 0.492576 0
M  V30 35862 H 3344.43 -0.632062 0.225253 0
M  V30 35863 H 3346.98 -1.6151 1.25438 0
M  V30 35864 H 3345.13 -3.86828 0.210431 0
M  V30 35865 H 3345.55 -4.74017 2.24518 0
M  V30 35866 H 3347.02 -5.4753 0.701049 0
M  V30 35867 H 3347.5 -4.35457 -0.572203 0
M  V30 35868 H 3348.1 -4.11294 1.08245 0
M  V30 35869 N 3346.42 -0.701641 -1.4112 0
M  V30 35870 C 3347.35 -0.00092113 -2.292 0
M  V30 35871 C 3348.36 0.738167 -1.45103 0
M  V30 35872 O 3349.55 0.587861 -1.68542 0
M  V30 35873 C 3346.65 1.02286 -3.23096 0
M  V30 35874 C 3345.83 0.352155 -4.3598 0
M  V30 35875 C 3344.88 1.27938 -5.1041 0
M  V30 35876 O 3343.91 0.769461 -5.63975 0
M  V30 35877 N 3345.11 2.61138 -5.18447 0
M  V30 35878 H 3347.88 -0.757145 -2.89978 0
M  V30 35879 H 3345.44 -0.548153 -1.52338 0
M  V30 35880 H 3347.43 1.64502 -3.69758 0
M  V30 35881 H 3346 1.68056 -2.63583 0
M  V30 35882 H 3345.22 -0.449989 -3.91623 0
M  V30 35883 H 3346.51 -0.113971 -5.08672 0
M  V30 35884 H 3345.91 3.05078 -4.76386 0
M  V30 35885 H 3344.46 3.18534 -5.68664 0
M  V30 35886 N 3347.9 1.51133 -0.446821 0
M  V30 35887 C 3349.14 2.01766 0.116228 0
M  V30 35888 C 3349.47 1.33241 1.42379 0
M  V30 35889 O 3348.74 0.469948 1.9018 0
M  V30 35890 H 3347.32 0.745586 0.0459427 0
M  V30 35891 H 3349.98 1.85701 -0.591697 0
M  V30 35892 H 3349.07 3.10793 0.285303 0
M  V30 35893 N 3349.37 0.178515 1.56586 0
M  V30 35894 C 3350.62 -0.465271 1.97391 0
M  V30 35895 C 3350.95 -1.62408 1.06477 0
M  V30 35896 O 3350.23 -1.94169 0.11335 0
M  V30 35897 C 3350.51 -0.941347 3.47578 0
M  V30 35898 C 3350.36 0.218133 4.49271 0
M  V30 35899 C 3351.68 -1.81256 4.01041 0
M  V30 35900 H 3348.8 -0.16765 0.717678 0
M  V30 35901 H 3351.44 0.2661 1.88127 0
M  V30 35902 H 3349.59 -1.56456 3.55603 0
M  V30 35903 H 3351.27 0.855412 4.53299 0
M  V30 35904 H 3349.51 0.872515 4.24935 0
M  V30 35905 H 3350.18 -0.157218 5.51776 0
M  V30 35906 H 3352.66 -1.28711 3.95693 0
M  V30 35907 H 3351.53 -2.11467 5.0653 0
M  V30 35908 H 3351.79 -2.76089 3.45293 0
M  V30 35909 N 3350.85 -1.57312 -0.0951784 0
M  V30 35910 C 3351.8 -2.02054 -1.11547 0
M  V30 35911 C 3352.77 -0.896842 -1.39807 0
M  V30 35912 O 3353.95 -1.16283 -1.51271 0
M  V30 35913 C 3351.09 -2.44989 -2.43052 0
M  V30 35914 C 3350.21 -3.70879 -2.21524 0
M  V30 35915 C 3349.34 -4.02693 -3.46427 0
M  V30 35916 C 3348.38 -5.21693 -3.20161 0
M  V30 35917 N 3347.52 -5.4926 -4.3733 0
M  V30 35918 H 3352.36 -2.88997 -0.726949 0
M  V30 35919 H 3349.9 -1.42939 -0.347416 0
M  V30 35920 H 3351.85 -2.67927 -3.19799 0
M  V30 35921 H 3350.48 -1.61056 -2.79752 0
M  V30 35922 H 3349.54 -3.55418 -1.35581 0
M  V30 35923 H 3350.85 -4.57772 -1.98107 0
M  V30 35924 H 3350 -4.26407 -4.31581 0
M  V30 35925 H 3348.74 -3.14322 -3.72898 0
M  V30 35926 H 3347.75 -4.978 -2.334 0
M  V30 35927 H 3348.97 -6.11662 -2.95036 0
M  V30 35928 H 3346.92 -4.63848 -4.63876 0
M  V30 35929 H 3346.83 -6.30525 -4.17103 0
M  V30 35930 H 3348.1 -5.77509 -5.23549 0
M  V30 35931 N 3352.33 0.365999 -1.53291 0
M  V30 35932 C 3353.56 1.13378 -1.73667 0
M  V30 35933 C 3353.98 1.82279 -0.464316 0
M  V30 35934 O 3353.34 1.71718 0.581615 0
M  V30 35935 C 3353.39 2.14008 -2.90229 0
M  V30 35936 O 3352.49 3.21079 -2.58808 0
M  V30 35937 H 3351.83 0.32899 -0.576768 0
M  V30 35938 H 3354.36 0.423252 -2.00174 0
M  V30 35939 H 3354.37 2.57616 -3.16383 0
M  V30 35940 H 3353.05 1.6325 -3.82521 0
M  V30 35941 H 3351.62 2.82447 -2.43471 0
M  V30 35942 N 3353.81 1.44644 0.625774 0
M  V30 35943 C 3354.74 1.54751 1.74855 0
M  V30 35944 C 3355.72 0.400167 1.65326 0
M  V30 35945 O 3356.9 0.620981 1.84004 0
M  V30 35946 C 3354.03 1.49648 3.13405 0
M  V30 35947 C 3352.99 2.62914 3.37728 0
M  V30 35948 C 3352.31 2.42864 4.76363 0
M  V30 35949 C 3353.61 4.05035 3.29764 0
M  V30 35950 H 3355.31 2.48731 1.66653 0
M  V30 35951 H 3352.85 1.1971 0.800342 0
M  V30 35952 H 3354.81 1.55319 3.91732 0
M  V30 35953 H 3353.53 0.52188 3.22403 0
M  V30 35954 H 3352.19 2.56642 2.61784 0
M  V30 35955 H 3351.84 1.43583 4.82071 0
M  V30 35956 H 3351.54 3.18807 4.93595 0
M  V30 35957 H 3353.06 2.5036 5.56913 0
M  V30 35958 H 3354.48 4.12648 3.97988 0
M  V30 35959 H 3352.87 4.81224 3.58529 0
M  V30 35960 H 3353.94 4.28227 2.27486 0
M  V30 35961 N 3355.29 -0.866663 1.31631 0
M  V30 35962 C 3356.22 -1.98999 1.22154 0
M  V30 35963 C 3357.2 -1.69757 0.108002 0
M  V30 35964 O 3358.38 -1.91975 0.293158 0
M  V30 35965 C 3355.51 -3.34575 0.931499 0
M  V30 35966 C 3354.47 -3.78134 2.00497 0
M  V30 35967 C 3353.79 -5.11206 1.56756 0
M  V30 35968 C 3355.09 -3.94886 3.41851 0
M  V30 35969 H 3356.79 -2.07186 2.16135 0
M  V30 35970 H 3354.33 -0.995444 1.04052 0
M  V30 35971 H 3356.29 -4.12701 0.851792 0
M  V30 35972 H 3355.01 -3.2657 -0.0439715 0
M  V30 35973 H 3353.67 -3.0225 2.07462 0
M  V30 35974 H 3353.32 -4.99647 0.579855 0
M  V30 35975 H 3353.02 -5.41322 2.28571 0
M  V30 35976 H 3354.54 -5.91838 1.50199 0
M  V30 35977 H 3355.95 -4.63399 3.37542 0
M  V30 35978 H 3354.35 -4.36403 4.11913 0
M  V30 35979 H 3355.42 -2.98165 3.82394 0
M  V30 35980 N 3356.77 -1.14645 -1.0814 0
M  V30 35981 C 3357.99 -0.939958 -1.84316 0
M  V30 35982 C 3358.41 0.511604 -1.81736 0
M  V30 35983 O 3357.77 1.35459 -1.22299 0
M  V30 35984 C 3357.82 -1.4363 -3.31742 0
M  V30 35985 O 3357.54 -2.831 -3.34345 0
M  V30 35986 C 3359.04 -1.27014 -4.24714 0
M  V30 35987 H 3356.26 -0.334333 -0.581775 0
M  V30 35988 H 3358.8 -1.52224 -1.36558 0
M  V30 35989 H 3356.96 -0.89673 -3.76879 0
M  V30 35990 H 3357.37 -3.05432 -4.26393 0
M  V30 35991 H 3358.85 -1.666 -5.26259 0
M  V30 35992 H 3359.32 -0.213334 -4.38682 0
M  V30 35993 H 3359.93 -1.7984 -3.85406 0
M  V30 35994 N 3358.24 1.26349 -0.942 0
M  V30 35995 C 3359.47 1.98341 -0.606266 0
M  V30 35996 C 3359.89 1.69672 0.811985 0
M  V30 35997 O 3359.25 0.945228 1.5471 0
M  V30 35998 C 3359.3 3.50295 -0.855926 0
M  V30 35999 O 3358.4 4.12338 0.0715526 0
M  V30 36000 H 3357.74 0.622216 -0.231826 0
M  V30 36001 H 3360.27 1.60795 -1.26516 0
M  V30 36002 H 3360.28 4.0053 -0.777149 0
M  V30 36003 H 3358.96 3.70492 -1.88967 0
M  V30 36004 H 3357.54 3.72854 -0.0583521 0
M  V30 36005 N 3359.72 0.709115 1.40746 0
M  V30 36006 C 3360.65 0.00160917 2.282 0
M  V30 36007 C 3361.63 -0.774254 1.42983 0
M  V30 36008 O 3362.82 -0.762246 1.72401 0
M  V30 36009 C 3359.94 -1.00512 3.23443 0
M  V30 36010 C 3358.99 -0.320829 4.25292 0
M  V30 36011 S 3359.82 0.946611 5.27067 0
M  V30 36012 C 3360.98 -0.0581756 6.25873 0
M  V30 36013 H 3361.21 0.743322 2.87858 0
M  V30 36014 H 3358.74 0.499892 1.46084 0
M  V30 36015 H 3360.7 -1.58075 3.78843 0
M  V30 36016 H 3359.36 -1.71949 2.62854 0
M  V30 36017 H 3358.56 -1.08165 4.92256 0
M  V30 36018 H 3358.16 0.182085 3.73556 0
M  V30 36019 H 3360.45 -0.907115 6.714 0
M  V30 36020 H 3361.39 0.577911 7.05738 0
M  V30 36021 H 3361.8 -0.419009 5.62943 0
M  V30 36022 N 3361.2 -1.50894 0.454829 0
M  V30 36023 C 3362.43 -2.06339 -0.103749 0
M  V30 36024 C 3362.84 -1.32056 -1.35491 0
M  V30 36025 O 3362.18 -0.378552 -1.79757 0
M  V30 36026 C 3362.24 -3.56361 -0.474013 0
M  V30 36027 C 3361.91 -4.5202 0.672815 0
M  V30 36028 C 3362.9 -4.96253 1.55012 0
M  V30 36029 C 3360.59 -4.94909 0.858522 0
M  V30 36030 C 3362.58 -5.82065 2.59768 0
M  V30 36031 C 3360.27 -5.80507 1.90933 0
M  V30 36032 C 3361.27 -6.23984 2.77728 0
M  V30 36033 O 3360.96 -7.07879 3.81002 0
M  V30 36034 H 3360.69 -0.675991 -0.00354122 0
M  V30 36035 H 3363.24 -1.95245 0.63785 0
M  V30 36036 H 3361.47 -3.653 -1.26857 0
M  V30 36037 H 3363.16 -3.94243 -0.965775 0
M  V30 36038 H 3363.93 -4.638 1.41826 0
M  V30 36039 H 3359.81 -4.60598 0.192464 0
M  V30 36040 H 3363.35 -6.15922 3.27546 0
M  V30 36041 H 3359.25 -6.12373 2.04132 0
M  V30 36042 H 3360.01 -7.26095 3.77793 0
M  V30 36043 N 3362.68 -0.186817 -1.56489 0
M  V30 36044 C 3363.92 0.454796 -1.97635 0
M  V30 36045 C 3364.26 1.61841 -1.07337 0
M  V30 36046 O 3363.53 1.94107 -0.123646 0
M  V30 36047 C 3363.81 0.922901 -3.48073 0
M  V30 36048 C 3363.67 -0.241956 -4.49149 0
M  V30 36049 C 3364.99 1.79127 -4.01997 0
M  V30 36050 H 3362.11 0.163842 -0.718557 0
M  V30 36051 H 3364.75 -0.276073 -1.87984 0
M  V30 36052 H 3362.9 1.54568 -3.56428 0
M  V30 36053 H 3364.57 -0.879439 -4.52839 0
M  V30 36054 H 3362.81 -0.895039 -4.24466 0
M  V30 36055 H 3363.48 0.127954 -5.51852 0
M  V30 36056 H 3365.96 1.26611 -3.9637 0
M  V30 36057 H 3364.84 2.08778 -5.07645 0
M  V30 36058 H 3365.1 2.74254 -3.46752 0
M  V30 36059 N 3364.16 1.57361 0.0868344 0
M  V30 36060 C 3365.1 2.02643 1.10474 0
M  V30 36061 C 3366.07 0.904244 1.39329 0
M  V30 36062 O 3367.26 1.17084 1.50652 0
M  V30 36063 C 3364.4 2.46275 2.41749 0
M  V30 36064 C 3363.51 3.72048 2.19554 0
M  V30 36065 C 3362.65 4.04525 3.44286 0
M  V30 36066 C 3361.68 5.23383 3.1739 0
M  V30 36067 N 3360.82 5.51572 4.34411 0
M  V30 36068 H 3365.66 2.89379 0.711612 0
M  V30 36069 H 3363.2 1.43121 0.33983 0
M  V30 36070 H 3365.16 2.69619 3.18373 0
M  V30 36071 H 3363.79 1.62537 2.78894 0
M  V30 36072 H 3362.84 3.56132 1.33694 0
M  V30 36073 H 3364.15 4.58816 1.95677 0
M  V30 36074 H 3363.3 4.28689 4.29314 0
M  V30 36075 H 3362.04 3.16295 3.71226 0
M  V30 36076 H 3361.05 4.9903 2.30757 0
M  V30 36077 H 3362.27 6.13218 2.91788 0
M  V30 36078 H 3360.22 4.66301 4.6141 0
M  V30 36079 H 3360.14 6.32728 4.13753 0
M  V30 36080 H 3361.4 5.80278 5.20479 0
M  V30 36081 N 3365.63 -0.357865 1.53483 0
M  V30 36082 C 3366.54 -1.46247 1.83437 0
M  V30 36083 C 3367.56 -1.58252 0.723341 0
M  V30 36084 O 3368.74 -1.74 1.01419 0
M  V30 36085 C 3365.8 -2.81419 2.02495 0
M  V30 36086 C 3364.86 -2.78877 3.26383 0
M  V30 36087 C 3364.09 -4.07602 3.44523 0
M  V30 36088 O 3364.32 -5.04159 2.66796 0
M  V30 36089 O 3363.25 -4.12944 4.37905 0
M  V30 36090 H 3367.08 -1.23856 2.77296 0
M  V30 36091 H 3364.66 -0.548698 1.38959 0
M  V30 36092 H 3366.54 -3.61498 2.16558 0
M  V30 36093 H 3365.22 -3.03771 1.11825 0
M  V30 36094 H 3364.13 -1.97469 3.17737 0
M  V30 36095 H 3365.46 -2.61479 4.17001 0
M  V30 36096 N 3367.11 -1.44974 -0.618094 0
M  V30 36097 C 3368.36 -1.48441 -1.37737 0
M  V30 36098 C 3368.69 -0.122033 -1.94117 0
M  V30 36099 O 3367.94 0.877943 -1.74902 0
M  V30 36100 C 3368.24 -2.50278 -2.55138 0
M  V30 36101 C 3367.91 -3.95266 -2.16969 0
M  V30 36102 C 3366.57 -4.34747 -2.06273 0
M  V30 36103 C 3368.92 -4.8649 -1.87022 0
M  V30 36104 C 3366.25 -5.6336 -1.63836 0
M  V30 36105 C 3368.6 -6.15504 -1.46074 0
M  V30 36106 C 3367.26 -6.53926 -1.33929 0
M  V30 36107 H 3366.53 -0.543184 -0.504016 0
M  V30 36108 H 3369.18 -1.78261 -0.699653 0
M  V30 36109 H 3367.49 -2.13989 -3.28201 0
M  V30 36110 H 3369.18 -2.50203 -3.13368 0
M  V30 36111 H 3365.77 -3.64038 -2.26217 0
M  V30 36112 H 3369.96 -4.56733 -1.94188 0
M  V30 36113 H 3365.21 -5.91935 -1.53047 0
M  V30 36114 H 3369.39 -6.8564 -1.21944 0
M  V30 36115 H 3367.01 -7.53485 -1.00819 0
M  V30 36116 N 3368.59 0.85967 -1.32089 0
M  V30 36117 C 3369.52 1.98348 -1.23208 0
M  V30 36118 C 3370.5 1.69697 -0.117003 0
M  V30 36119 O 3371.69 1.91816 -0.303335 0
M  V30 36120 C 3368.82 3.34076 -0.949229 0
M  V30 36121 C 3367.77 3.77065 -2.02499 0
M  V30 36122 C 3367.1 5.10368 -1.59464 0
M  V30 36123 C 3368.4 3.93068 -3.43941 0
M  V30 36124 H 3370.09 2.06037 -2.17231 0
M  V30 36125 H 3367.64 0.989912 -1.04579 0
M  V30 36126 H 3369.59 4.12244 -0.873666 0
M  V30 36127 H 3368.31 3.26589 0.0266521 0
M  V30 36128 H 3366.97 3.01145 -2.09062 0
M  V30 36129 H 3366.62 4.99332 -0.606344 0
M  V30 36130 H 3366.32 5.40102 -2.31439 0
M  V30 36131 H 3367.84 5.91034 -1.53335 0
M  V30 36132 H 3369.26 4.61602 -3.39995 0
M  V30 36133 H 3367.65 4.34213 -4.14221 0
M  V30 36134 H 3368.72 2.96133 -3.8397 0
M  V30 36135 N 3370.07 1.15217 1.0753 0
M  V30 36136 C 3371.32 0.92047 1.79472 0
M  V30 36137 C 3371.63 -0.553893 1.87594 0
M  V30 36138 O 3372.84 -0.903124 2.56039 0
M  V30 36139 C 3371.29 1.59743 3.22506 0
M  V30 36140 C 3370.9 3.10869 3.22591 0
M  V30 36141 C 3372.64 1.44721 3.99069 0
M  V30 36142 C 3370.55 3.7136 4.60267 0
M  V30 36143 H 3369.48 0.340734 0.672619 0
M  V30 36144 H 3372.13 1.3821 1.20707 0
M  V30 36145 H 3370.51 1.06349 3.81452 0
M  V30 36146 H 3371.69 3.71004 2.73299 0
M  V30 36147 H 3370 3.25632 2.59524 0
M  V30 36148 H 3372.6 1.87308 5.00819 0
M  V30 36149 H 3372.94 0.394458 4.14427 0
M  V30 36150 H 3373.48 1.95201 3.46614 0
M  V30 36151 H 3370.21 4.76527 4.50113 0
M  V30 36152 H 3369.73 3.16007 5.09803 0
M  V30 36153 H 3371.41 3.72179 5.29237 0
M  V30 36154 N 3371.55 -1.25848 0.948687 0
M  V30 36155 C 3372.77 -1.98017 0.616776 0
M  V30 36156 C 3373.2 -1.701 -0.802975 0
M  V30 36157 O 3372.55 -0.953419 -1.54206 0
M  V30 36158 C 3372.6 -3.49836 0.874491 0
M  V30 36159 O 3371.71 -4.1237 -0.0496843 0
M  V30 36160 H 3371.05 -0.620978 0.235123 0
M  V30 36161 H 3373.58 -1.60122 1.27367 0
M  V30 36162 H 3373.59 -4.00112 0.79838 0
M  V30 36163 H 3372.26 -3.69485 1.90929 0
M  V30 36164 H 3370.84 -3.72818 0.0781247 0
M  V30 36165 N 3373.02 -0.716569 -1.40368 0
M  V30 36166 C 3374.25 -0.264765 -2.05703 0
M  V30 36167 C 3374.67 1.08525 -1.53636 0
M  V30 36168 O 3374.03 1.6838 -0.67215 0
M  V30 36169 C 3374.08 -0.255841 -3.59691 0
M  V30 36170 O 3373.18 0.762615 -4.05287 0
M  V30 36171 H 3372.53 -0.124103 -0.652299 0
M  V30 36172 H 3375.06 -0.977327 -1.79748 0
M  V30 36173 H 3375.07 -0.0938661 -4.07892 0
M  V30 36174 H 3373.74 -1.24102 -3.96953 0
M  V30 36175 H 3372.32 0.568283 -3.68544 0
M  V30 36176 N 3374.5 1.50651 -0.462825 0
M  V30 36177 C 3375.73 2.07181 0.0952362 0
M  V30 36178 C 3376.15 1.32535 1.33476 0
M  V30 36179 O 3375.51 0.370596 1.77472 0
M  V30 36180 C 3375.56 3.58691 0.370529 0
M  V30 36181 O 3374.66 3.85973 1.45253 0
M  V30 36182 H 3374 0.663934 -0.00933869 0
M  V30 36183 H 3376.53 1.9395 -0.651492 0
M  V30 36184 H 3376.54 4.03361 0.61348 0
M  V30 36185 H 3375.22 4.12441 -0.535291 0
M  V30 36186 H 3373.8 3.53148 1.19754 0
M  V30 36187 N 3375.98 0.195113 1.56388 0
M  V30 36188 C 3376.91 -0.757605 2.16317 0
M  V30 36189 C 3377.93 -1.17676 1.125 0
M  V30 36190 O 3379.11 -1.11248 1.39592 0
M  V30 36191 C 3376.21 -2.03442 2.71043 0
M  V30 36192 C 3375.39 -1.77507 3.99763 0
M  V30 36193 C 3374.45 -2.89636 4.39315 0
M  V30 36194 O 3373.47 -2.59243 5.06736 0
M  V30 36195 N 3374.67 -4.17991 4.0282 0
M  V30 36196 H 3377.44 -0.245117 2.98696 0
M  V30 36197 H 3375 0.0131479 1.61895 0
M  V30 36198 H 3376.99 -2.77595 2.94488 0
M  V30 36199 H 3375.56 -2.45813 1.93118 0
M  V30 36200 H 3374.78 -0.871333 3.8445 0
M  V30 36201 H 3376.07 -1.57576 4.83784 0
M  V30 36202 H 3375.47 -4.45536 3.48588 0
M  V30 36203 H 3374.03 -4.88771 4.31215 0
M  V30 36204 N 3377.46 -1.57404 -0.0784879 0
M  V30 36205 C 3378.74 -1.77971 -0.811526 0
M  V30 36206 C 3379.12 -0.781001 -1.96121 0
M  V30 36207 O 3378.46 0.18722 -2.27732 0
M  V30 36208 C 3378.67 -3.24256 -1.2907 0
M  V30 36209 C 3380.02 -3.87901 -1.72678 0
M  V30 36210 O 3381.05 -3.28107 -1.38653 0
M  V30 36211 O 3379.9 -4.93083 -2.35651 0
M  V30 36212 H 3377 -0.730147 -0.388348 0
M  V30 36213 H 3379.54 -1.69597 -0.059082 0
M  V30 36214 H 3378.32 -3.88494 -0.467745 0
M  V30 36215 H 3377.94 -3.37328 -2.10466 0
M  V30 36216 N 3378.94 0.34972 -1.53671 0
M  V30 36217 C 3380.18 1.0885 -1.70283 0
M  V30 36218 C 3380.51 1.89363 -0.465471 0
M  V30 36219 O 3379.78 1.88856 0.520582 0
M  V30 36220 H 3378.36 0.404843 -0.627783 0
M  V30 36221 H 3381.02 0.392489 -1.90907 0
M  V30 36222 H 3380.11 1.76937 -2.57099 0
M  V30 36223 N 3380.41 1.45299 0.610397 0
M  V30 36224 C 3381.36 1.50183 1.71549 0
M  V30 36225 C 3382.35 0.365384 1.56696 0
M  V30 36226 O 3383.54 0.612058 1.66081 0
M  V30 36227 C 3380.67 1.46873 3.10295 0
M  V30 36228 C 3379.76 2.65709 3.30544 0
M  V30 36229 N 3380.15 3.90833 3.21066 0
M  V30 36230 C 3378.44 2.61346 3.61406 0
M  V30 36231 C 3379.15 4.70129 3.42569 0
M  V30 36232 N 3378.12 4.01538 3.66426 0
M  V30 36233 H 3381.92 2.4475 1.6271 0
M  V30 36234 H 3379.44 1.40552 0.813562 0
M  V30 36235 H 3381.43 1.48456 3.89572 0
M  V30 36236 H 3380.09 0.533604 3.20285 0
M  V30 36237 H 3381.11 4.22495 2.9953 0
M  V30 36238 H 3377.78 1.76728 3.7825 0
M  V30 36239 H 3379.17 5.79138 3.40659 0
M  V30 36240 N 3381.89 -0.852653 1.32543 0
M  V30 36241 C 3382.82 -1.96805 1.17475 0
M  V30 36242 C 3383.84 -1.62433 0.109226 0
M  V30 36243 O 3385.03 -1.74865 0.358372 0
M  V30 36244 C 3382.13 -3.29887 0.776386 0
M  V30 36245 C 3381.3 -3.92487 1.93062 0
M  V30 36246 C 3380.36 -5.03904 1.51548 0
M  V30 36247 O 3379.38 -5.23792 2.2278 0
M  V30 36248 N 3380.59 -5.79032 0.412635 0
M  V30 36249 H 3383.35 -2.10272 2.13555 0
M  V30 36250 H 3380.91 -1.02762 1.25106 0
M  V30 36251 H 3382.9 -4.01831 0.481031 0
M  V30 36252 H 3381.47 -3.12461 -0.09332 0
M  V30 36253 H 3380.69 -3.13304 2.39236 0
M  V30 36254 H 3381.98 -4.31045 2.70329 0
M  V30 36255 H 3381.38 -5.65413 -0.180186 0
M  V30 36256 H 3379.94 -6.5156 0.176894 0
M  V30 36257 N 3383.37 -1.15786 -1.06918 0
M  V30 36258 C 3384.62 -0.946826 -1.80019 0
M  V30 36259 C 3384.97 0.520236 -1.85233 0
M  V30 36260 O 3384.26 1.38085 -1.32828 0
M  V30 36261 C 3384.46 -1.50028 -3.24386 0
M  V30 36262 C 3384.29 -3.01963 -3.33239 0
M  V30 36263 C 3383.06 -3.70549 -3.43543 0
M  V30 36264 C 3385.26 -3.99712 -3.23627 0
M  V30 36265 N 3383.24 -5.10252 -3.41345 0
M  V30 36266 C 3384.61 -5.2576 -3.28598 0
M  V30 36267 C 3386.66 -3.91622 -3.07468 0
M  V30 36268 C 3385.37 -6.44659 -3.19072 0
M  V30 36269 C 3387.39 -5.10085 -2.99277 0
M  V30 36270 C 3386.75 -6.35009 -3.04865 0
M  V30 36271 H 3382.85 -0.400174 -0.671852 0
M  V30 36272 H 3385.44 -1.47068 -1.27589 0
M  V30 36273 H 3383.61 -1.003 -3.75226 0
M  V30 36274 H 3385.34 -1.22763 -3.85631 0
M  V30 36275 H 3382.1 -3.21157 -3.48074 0
M  V30 36276 H 3382.52 -5.8323 -3.43762 0
M  V30 36277 H 3387.16 -2.959 -3.01998 0
M  V30 36278 H 3384.88 -7.4061 -3.233 0
M  V30 36279 H 3388.47 -5.0559 -2.87871 0
M  V30 36280 H 3387.35 -7.25135 -2.98577 0
M  V30 36281 N 3384.85 1.25343 -0.955348 0
M  V30 36282 C 3386.08 1.97148 -0.627728 0
M  V30 36283 C 3386.49 1.70998 0.800319 0
M  V30 36284 O 3385.85 0.986444 1.53543 0
M  V30 36285 C 3385.9 3.50682 -0.877737 0
M  V30 36286 O 3385.62 3.7593 -2.24963 0
M  V30 36287 C 3387.12 4.39715 -0.562602 0
M  V30 36288 H 3384.34 0.628398 -0.23528 0
M  V30 36289 H 3386.89 1.59494 -1.27992 0
M  V30 36290 H 3385.04 3.86444 -0.271945 0
M  V30 36291 H 3385.45 4.70385 -2.3203 0
M  V30 36292 H 3386.93 5.46346 -0.788068 0
M  V30 36293 H 3387.41 4.36312 0.502853 0
M  V30 36294 H 3388.01 4.0952 -1.14775 0
M  V30 36295 N 3386.33 0.724003 1.39986 0
M  V30 36296 C 3387.26 0.0917692 2.3332 0
M  V30 36297 C 3388.24 -0.736334 1.53337 0
M  V30 36298 O 3389.42 -0.68355 1.81772 0
M  V30 36299 C 3386.55 -0.82449 3.37371 0
M  V30 36300 C 3385.51 -0.101376 4.2788 0
M  V30 36301 C 3384.83 -1.13392 5.22538 0
M  V30 36302 C 3386.13 1.04948 5.11648 0
M  V30 36303 H 3387.83 0.871368 2.86439 0
M  V30 36304 H 3385.37 0.420472 1.37724 0
M  V30 36305 H 3387.33 -1.27624 4.01609 0
M  V30 36306 H 3386.05 -1.63608 2.82666 0
M  V30 36307 H 3384.71 0.330633 3.65106 0
M  V30 36308 H 3384.36 -1.93878 4.64134 0
M  V30 36309 H 3384.06 -0.654917 5.83939 0
M  V30 36310 H 3385.58 -1.58559 5.89654 0
M  V30 36311 H 3387 0.6767 5.69292 0
M  V30 36312 H 3385.39 1.4574 5.82134 0
M  V30 36313 H 3386.46 1.87628 4.47128 0
M  V30 36314 N 3387.81 -1.50403 0.470808 0
M  V30 36315 C 3389.05 -2.02325 -0.0842804 0
M  V30 36316 C 3389.38 -1.35282 -1.39747 0
M  V30 36317 O 3388.64 -0.467397 -1.90037 0
M  V30 36318 C 3388.93 -3.55997 -0.316356 0
M  V30 36319 C 3388.6 -4.41517 0.915094 0
M  V30 36320 C 3387.26 -4.64608 1.25273 0
M  V30 36321 C 3389.61 -4.91473 1.73503 0
M  V30 36322 C 3386.94 -5.34901 2.41036 0
M  V30 36323 C 3389.29 -5.63038 2.88394 0
M  V30 36324 C 3387.96 -5.84383 3.22572 0
M  V30 36325 H 3387.23 -0.740358 -0.0308404 0
M  V30 36326 H 3389.88 -1.8102 0.624831 0
M  V30 36327 H 3388.18 -3.75815 -1.10771 0
M  V30 36328 H 3389.88 -3.93736 -0.759813 0
M  V30 36329 H 3386.47 -4.23764 0.642051 0
M  V30 36330 H 3390.65 -4.73488 1.48736 0
M  V30 36331 H 3385.91 -5.49635 2.67791 0
M  V30 36332 H 3390.08 -6.00729 3.52275 0
M  V30 36333 H 3387.71 -6.38628 4.12382 0
M  V30 36334 N 3389.28 -0.203404 -1.56282 0
M  V30 36335 C 3390.53 0.433167 -1.97813 0
M  V30 36336 C 3390.86 1.61051 -1.09054 0
M  V30 36337 O 3390.11 1.95258 -0.131452 0
M  V30 36338 C 3390.41 0.927699 -3.4515 0
M  V30 36339 C 3390.08 -0.137162 -4.50691 0
M  V30 36340 C 3388.74 -0.429737 -4.79277 0
M  V30 36341 C 3391.09 -0.858265 -5.14085 0
M  V30 36342 C 3388.42 -1.44825 -5.68544 0
M  V30 36343 C 3390.77 -1.86598 -6.04453 0
M  V30 36344 C 3389.44 -2.16567 -6.31391 0
M  V30 36345 H 3388.71 0.158507 -0.723848 0
M  V30 36346 H 3391.35 -0.302115 -1.89102 0
M  V30 36347 H 3389.66 1.74141 -3.50973 0
M  V30 36348 H 3391.36 1.42978 -3.74644 0
M  V30 36349 H 3387.95 0.101036 -4.28481 0
M  V30 36350 H 3392.13 -0.645462 -4.92085 0
M  V30 36351 H 3387.39 -1.68626 -5.87686 0
M  V30 36352 H 3391.56 -2.42992 -6.52632 0
M  V30 36353 H 3389.19 -2.95633 -7.00361 0
M  V30 36354 N 3390.76 1.57444 0.0701393 0
M  V30 36355 C 3391.69 2.00532 1.10993 0
M  V30 36356 C 3392.71 0.911533 1.34889 0
M  V30 36357 O 3393.9 1.1894 1.331 0
M  V30 36358 C 3391 2.33052 2.46049 0
M  V30 36359 C 3390.17 3.64298 2.42086 0
M  V30 36360 C 3389.23 3.84469 3.59263 0
M  V30 36361 O 3388.25 4.56036 3.40617 0
M  V30 36362 N 3389.46 3.26949 4.79671 0
M  V30 36363 H 3392.22 2.90345 0.742978 0
M  V30 36364 H 3389.78 1.59819 0.258766 0
M  V30 36365 H 3391.77 2.43718 3.23085 0
M  V30 36366 H 3390.34 1.49121 2.74739 0
M  V30 36367 H 3389.56 3.64371 1.50424 0
M  V30 36368 H 3390.85 4.50473 2.3654 0
M  V30 36369 H 3390.25 2.68863 4.97724 0
M  V30 36370 H 3388.81 3.43061 5.54213 0
M  V30 36371 N 3392.24 -0.341566 1.53854 0
M  V30 36372 C 3393.19 -1.43978 1.82683 0
M  V30 36373 C 3394.18 -1.54376 0.697442 0
M  V30 36374 O 3395.39 -1.56977 0.880813 0
M  V30 36375 H 3391.76 -0.480103 0.578796 0
M  V30 36376 H 3393.73 -1.16879 2.74558 0
M  V30 36377 C 3392.48 -2.80472 2.05501 0
M  V30 36378 H 3391.81 -2.73239 2.91857 0
M  V30 36379 H 3393.25 -3.56431 2.29636 0
M  V30 36380 C 3391.7 -3.26231 0.841118 0
M  V30 36381 O 3392.23 -4.01679 0.0415082 0
M  V30 36382 N 3390.44 -2.83057 0.657786 0
M  V30 36383 H 3389.99 -2.21824 1.30966 0
M  V30 36384 H 3389.95 -3.14028 -0.152948 0
M  V30 36385 N 3393.72 -1.45621 -0.602683 0
M  V30 36386 C 3394.97 -1.49597 -1.35886 0
M  V30 36387 C 3395.29 -0.141037 -1.94489 0
M  V30 36388 O 3394.56 0.830178 -1.7744 0
M  V30 36389 H 3393.14 -0.550927 -0.504469 0
M  V30 36390 H 3395.8 -1.81611 -0.707344 0
M  V30 36391 H 3394.89 -2.23754 -2.17579 0
M  V30 36392 N 3395.2 0.845612 -1.32993 0
M  V30 36393 C 3396.14 1.95492 -1.22685 0
M  V30 36394 C 3397.11 1.65755 -0.106971 0
M  V30 36395 O 3398.3 1.88673 -0.284083 0
M  V30 36396 C 3395.44 3.3133 -0.965127 0
M  V30 36397 C 3394.55 3.73506 -2.17064 0
M  V30 36398 C 3393.69 4.9818 -1.84364 0
M  V30 36399 C 3392.72 5.32873 -3.01185 0
M  V30 36400 N 3391.86 6.48724 -2.68518 0
M  V30 36401 H 3396.7 2.0364 -2.17565 0
M  V30 36402 H 3394.24 0.996594 -1.08196 0
M  V30 36403 H 3396.2 4.09578 -0.793843 0
M  V30 36404 H 3394.83 3.22756 -0.0530852 0
M  V30 36405 H 3393.88 2.90837 -2.4519 0
M  V30 36406 H 3395.19 3.95133 -3.0442 0
M  V30 36407 H 3394.34 5.84159 -1.6384 0
M  V30 36408 H 3393.08 4.78509 -0.942349 0
M  V30 36409 H 3392.09 4.45402 -3.22331 0
M  V30 36410 H 3393.31 5.54496 -3.9206 0
M  V30 36411 H 3391.26 6.30553 -1.8094 0
M  V30 36412 H 3391.18 6.70412 -3.49404 0
M  V30 36413 H 3392.44 7.37832 -2.51445 0
M  V30 36414 N 3396.67 1.16351 1.06302 0
M  V30 36415 C 3397.92 0.946372 1.79365 0
M  V30 36416 C 3398.25 -0.524536 1.86982 0
M  V30 36417 O 3397.53 -1.38914 1.36136 0
M  V30 36418 C 3397.81 1.57442 3.23858 0
M  V30 36419 C 3397.66 3.11666 3.24321 0
M  V30 36420 C 3398.98 1.26902 4.21407 0
M  V30 36421 H 3396.1 0.345226 0.651144 0
M  V30 36422 H 3398.74 1.4368 1.24322 0
M  V30 36423 H 3396.89 1.15738 3.7086 0
M  V30 36424 H 3398.57 3.62351 2.85481 0
M  V30 36425 H 3396.81 3.45001 2.62977 0
M  V30 36426 H 3397.48 3.50731 4.26254 0
M  V30 36427 H 3399.96 1.62995 3.82847 0
M  V30 36428 H 3398.83 1.73448 5.20775 0
M  V30 36429 H 3399.09 0.187846 4.41701 0
M  V30 36430 N 3398.15 -1.24835 0.961982 0
M  V30 36431 C 3399.1 -2.25606 0.486899 0
M  V30 36432 C 3400.07 -1.59472 -0.464518 0
M  V30 36433 O 3401.25 -1.87056 -0.376146 0
M  V30 36434 C 3398.39 -3.44384 -0.222233 0
M  V30 36435 C 3397.51 -4.25132 0.767281 0
M  V30 36436 C 3396.64 -5.31189 0.0348392 0
M  V30 36437 C 3395.68 -6.03629 1.0148 0
M  V30 36438 N 3394.82 -7.01403 0.312743 0
M  V30 36439 H 3399.66 -2.65612 1.35109 0
M  V30 36440 H 3397.19 -1.30575 0.677396 0
M  V30 36441 H 3399.15 -4.12105 -0.650014 0
M  V30 36442 H 3397.78 -3.05231 -1.05041 0
M  V30 36443 H 3396.83 -3.57002 1.31352 0
M  V30 36444 H 3398.15 -4.75243 1.51478 0
M  V30 36445 H 3397.3 -6.0502 -0.451219 0
M  V30 36446 H 3396.04 -4.8197 -0.745401 0
M  V30 36447 H 3395.04 -5.28607 1.51179 0
M  V30 36448 H 3396.27 -6.54937 1.79539 0
M  V30 36449 H 3394.22 -6.54464 -0.448625 0
M  V30 36450 H 3394.13 -7.49368 0.999211 0
M  V30 36451 H 3395.4 -7.79353 -0.151536 0
M  V30 36452 N 3399.63 -0.731417 -1.396 0
M  V30 36453 C 3400.88 -0.278203 -2.00883 0
M  V30 36454 C 3401.21 1.13056 -1.57899 0
M  V30 36455 O 3400.48 1.77003 -0.806234 0
M  V30 36456 C 3400.77 -0.376032 -3.58131 0
M  V30 36457 C 3400.62 -1.82431 -4.11144 0
M  V30 36458 C 3401.94 0.243625 -4.39425 0
M  V30 36459 H 3399.06 -0.102562 -0.729829 0
M  V30 36460 H 3401.7 -0.926898 -1.65857 0
M  V30 36461 H 3399.85 0.17626 -3.881 0
M  V30 36462 H 3401.52 -2.4332 -3.9191 0
M  V30 36463 H 3399.76 -2.34682 -3.64838 0
M  V30 36464 H 3400.44 -1.84405 -5.20287 0
M  V30 36465 H 3402.91 -0.22714 -4.1548 0
M  V30 36466 H 3401.79 0.144811 -5.48709 0
M  V30 36467 H 3402.05 1.32922 -4.21645 0
M  V30 36468 N 3401.11 1.50152 -0.478778 0
M  V30 36469 C 3402.36 2.02366 0.0735495 0
M  V30 36470 C 3402.68 1.36021 1.39027 0
M  V30 36471 O 3401.94 0.477469 1.89786 0
M  V30 36472 C 3402.24 3.5616 0.297472 0
M  V30 36473 C 3401.9 4.41025 -0.938496 0
M  V30 36474 C 3400.57 4.63937 -1.27735 0
M  V30 36475 C 3402.92 4.90546 -1.76107 0
M  V30 36476 C 3400.25 5.33615 -2.43869 0
M  V30 36477 C 3402.6 5.61501 -2.91376 0
M  V30 36478 C 3401.26 5.82664 -3.25667 0
M  V30 36479 H 3400.53 0.740511 0.0269137 0
M  V30 36480 H 3403.18 1.80686 -0.634422 0
M  V30 36481 H 3401.48 3.76397 1.08776 0
M  V30 36482 H 3403.18 3.94133 0.738921 0
M  V30 36483 H 3399.77 4.23417 -0.664516 0
M  V30 36484 H 3403.95 4.72693 -1.51245 0
M  V30 36485 H 3399.21 5.48207 -2.70702 0
M  V30 36486 H 3403.38 5.98853 -3.55455 0
M  V30 36487 H 3401.01 6.36432 -4.15763 0
M  V30 36488 N 3402.59 0.211689 1.56172 0
M  V30 36489 C 3403.52 -0.734619 2.17108 0
M  V30 36490 C 3404.53 -1.16476 1.13742 0
M  V30 36491 O 3405.72 -1.09762 1.40765 0
M  V30 36492 C 3402.82 -2.00556 2.73186 0
M  V30 36493 C 3401.99 -1.73257 4.01623 0
M  V30 36494 C 3401.05 -2.8496 4.42362 0
M  V30 36495 O 3400.08 -2.53854 5.09458 0
M  V30 36496 N 3401.28 -4.13695 4.07231 0
M  V30 36497 H 3404.05 -0.213423 2.98939 0
M  V30 36498 H 3401.61 0.0303182 1.61872 0
M  V30 36499 H 3403.6 -2.74456 2.97415 0
M  V30 36500 H 3402.17 -2.43751 1.95715 0
M  V30 36501 H 3401.39 -0.830508 3.85352 0
M  V30 36502 H 3402.68 -1.52436 4.85428 0
M  V30 36503 H 3402.07 -4.41814 3.53294 0
M  V30 36504 H 3400.63 -4.8417 4.36375 0
M  V30 36505 N 3404.06 -1.57479 -0.0617887 0
M  V30 36506 C 3405.31 -1.87365 -0.757536 0
M  V30 36507 C 3405.63 -0.805056 -1.77606 0
M  V30 36508 O 3404.9 0.165182 -1.95202 0
M  V30 36509 H 3403.48 -0.691413 -0.282768 0
M  V30 36510 H 3406.15 -1.94868 -0.0355011 0
M  V30 36511 H 3405.24 -2.85202 -1.26753 0
M  V30 36512 N 3405.54 0.333401 -1.54033 0
M  V30 36513 C 3406.49 1.43008 -1.83444 0
M  V30 36514 C 3407.48 1.54004 -0.70562 0
M  V30 36515 O 3408.69 1.56507 -0.889125 0
M  V30 36516 H 3405.07 0.477027 -0.581334 0
M  V30 36517 H 3407.04 1.15421 -2.75174 0
M  V30 36518 C 3405.79 2.79379 -2.06985 0
M  V30 36519 H 3405.11 2.71687 -2.93302 0
M  V30 36520 H 3406.55 3.55208 -2.31523 0
M  V30 36521 C 3405.01 3.25781 -0.858407 0
M  V30 36522 O 3405.54 4.01651 -0.0628096 0
M  V30 36523 N 3403.74 2.82705 -0.672788 0
M  V30 36524 H 3403.29 2.21126 -1.3214 0
M  V30 36525 H 3403.25 3.14104 0.136292 0
M  V30 36526 N 3407.02 1.45939 0.594952 0
M  V30 36527 C 3407.95 1.51594 1.71906 0
M  V30 36528 C 3408.97 0.405443 1.57671 0
M  V30 36529 O 3410.15 0.673173 1.6532 0
M  V30 36530 C 3407.25 1.36856 3.10038 0
M  V30 36531 C 3406.43 2.61807 3.50394 0
M  V30 36532 C 3405.49 2.41443 4.67538 0
M  V30 36533 O 3404.51 3.15115 4.74016 0
M  V30 36534 N 3405.71 1.46818 5.61627 0
M  V30 36535 H 3408.48 2.48514 1.67513 0
M  V30 36536 H 3406.04 1.41839 0.780596 0
M  V30 36537 H 3408.03 1.21024 3.8618 0
M  V30 36538 H 3406.6 0.481644 3.08867 0
M  V30 36539 H 3405.82 2.92667 2.64083 0
M  V30 36540 H 3407.11 3.44837 3.74119 0
M  V30 36541 H 3406.51 0.860431 5.59118 0
M  V30 36542 H 3405.07 1.36953 6.3725 0
M  V30 36543 N 3408.5 -0.838547 1.3344 0
M  V30 36544 C 3409.78 -1.57848 1.15513 0
M  V30 36545 C 3410.16 -2.09257 -0.278368 0
M  V30 36546 O 3409.5 -1.89456 -1.27745 0
M  V30 36547 C 3409.71 -2.71208 2.19652 0
M  V30 36548 C 3411.06 -3.4038 2.53824 0
M  V30 36549 O 3412.09 -2.8145 2.18322 0
M  V30 36550 O 3410.94 -4.46761 3.14749 0
M  V30 36551 H 3408.04 -0.695918 0.446797 0
M  V30 36552 H 3410.58 -0.881274 1.45023 0
M  V30 36553 H 3409.36 -2.30863 3.1594 0
M  V30 36554 H 3408.98 -3.48593 1.9123 0
M  V30 36555 N 3409.98 -1.16914 -1.05683 0
M  V30 36556 C 3411.2 -0.979381 -1.82819 0
M  V30 36557 C 3411.63 0.467543 -1.82197 0
M  V30 36558 O 3410.98 1.33443 -1.2273 0
M  V30 36559 C 3411.03 -1.51897 -3.27047 0
M  V30 36560 O 3410.14 -0.729413 -4.05898 0
M  V30 36561 H 3409.48 -0.348086 -0.565449 0
M  V30 36562 H 3412.01 -1.55295 -1.33209 0
M  V30 36563 H 3412.02 -1.53911 -3.77856 0
M  V30 36564 H 3410.69 -2.57225 -3.26815 0
M  V30 36565 H 3409.27 -0.780285 -3.64645 0
M  V30 36566 N 3411.45 1.24323 -0.968589 0
M  V30 36567 C 3412.7 1.92419 -0.630962 0
M  V30 36568 C 3413.03 1.75713 0.83397 0
M  V30 36569 O 3412.28 1.10445 1.61556 0
M  V30 36570 C 3412.58 3.44465 -0.952822 0
M  V30 36571 C 3412.25 3.8134 -2.40604 0
M  V30 36572 C 3410.91 3.91117 -2.80323 0
M  V30 36573 C 3413.26 3.99353 -3.34913 0
M  V30 36574 C 3410.59 4.16324 -4.1339 0
M  V30 36575 C 3412.94 4.26057 -4.67609 0
M  V30 36576 C 3411.61 4.34053 -5.07104 0
M  V30 36577 H 3410.88 0.704111 -0.230885 0
M  V30 36578 H 3413.52 1.47588 -1.22024 0
M  V30 36579 H 3411.83 3.90789 -0.281313 0
M  V30 36580 H 3413.53 3.95364 -0.669969 0
M  V30 36581 H 3410.12 3.74296 -2.08807 0
M  V30 36582 H 3414.3 3.91201 -3.05411 0
M  V30 36583 H 3409.56 4.20734 -4.43613 0
M  V30 36584 H 3413.73 4.38938 -5.40654 0
M  V30 36585 H 3411.36 4.53338 -6.10237 0
M  V30 36586 N 3412.93 0.73881 1.3921 0
M  V30 36587 C 3414.16 0.298787 2.04731 0
M  V30 36588 C 3414.58 -1.06773 1.55708 0
M  V30 36589 O 3413.93 -1.6754 0.723635 0
M  V30 36590 C 3413.98 0.295803 3.60288 0
M  V30 36591 O 3413.7 1.60838 4.07508 0
M  V30 36592 C 3415.21 -0.159916 4.43011 0
M  V30 36593 H 3412.43 0.129964 0.658294 0
M  V30 36594 H 3414.97 1.00353 1.78184 0
M  V30 36595 H 3413.12 -0.360078 3.85723 0
M  V30 36596 H 3413.54 1.52452 5.01855 0
M  V30 36597 H 3415.01 -0.110844 5.51889 0
M  V30 36598 H 3415.49 -1.20566 4.22328 0
M  V30 36599 H 3416.1 0.466541 4.22733 0
M  V30 36600 N 3414.41 -1.49895 0.486734 0
M  V30 36601 C 3415.82 -1.86666 0.0354234 0
M  V30 36602 C 3416.17 -1.40029 -1.37428 0
M  V30 36603 O 3415.3 -0.771975 -2.02162 0
M  V30 36604 C 3415.89 -3.38751 0.057507 0
M  V30 36605 C 3414.45 -3.74876 -0.338398 0
M  V30 36606 C 3413.6 -2.73847 0.436244 0
M  V30 36607 H 3416.55 -1.42416 0.70024 0
M  V30 36608 H 3416.57 -3.73213 -0.741109 0
M  V30 36609 H 3416.08 -3.72665 1.08363 0
M  V30 36610 H 3414.18 -3.46567 -1.36829 0
M  V30 36611 H 3414.3 -4.79091 -0.0288677 0
M  V30 36612 H 3412.66 -2.54453 -0.112097 0
M  V30 36613 H 3413.44 -3.10605 1.46217 0
M  V30 36614 N 3415.89 -0.219968 -1.56057 0
M  V30 36615 C 3417.14 0.412773 -1.98555 0
M  V30 36616 C 3417.47 1.59528 -1.10745 0
M  V30 36617 O 3416.74 1.93801 -0.164791 0
M  V30 36618 C 3417.03 0.848862 -3.49952 0
M  V30 36619 C 3416.88 -0.337172 -4.48534 0
M  V30 36620 C 3418.2 1.70559 -4.05706 0
M  V30 36621 H 3415.32 0.148563 -0.721871 0
M  V30 36622 H 3417.96 -0.315885 -1.87356 0
M  V30 36623 H 3416.11 1.46973 -3.59626 0
M  V30 36624 H 3417.78 -0.975295 -4.50872 0
M  V30 36625 H 3416.02 -0.984873 -4.22472 0
M  V30 36626 H 3416.7 0.0108695 -5.51999 0
M  V30 36627 H 3419.17 1.18175 -3.98966 0
M  V30 36628 H 3418.05 1.97963 -5.11959 0
M  V30 36629 H 3418.31 2.66838 -3.52491 0
M  V30 36630 N 3417.37 1.57509 0.0534363 0
M  V30 36631 C 3418.61 1.88415 0.750179 0
M  V30 36632 C 3418.95 0.81465 1.76287 0
M  V30 36633 O 3418.22 -0.173102 1.93728 0
M  V30 36634 C 3418.5 3.2998 1.44171 0
M  V30 36635 C 3418.36 4.47601 0.444185 0
M  V30 36636 C 3419.68 3.70066 2.382 0
M  V30 36637 H 3416.8 0.685267 0.271254 0
M  V30 36638 H 3419.44 1.89995 0.0131342 0
M  V30 36639 H 3417.59 3.28763 2.06995 0
M  V30 36640 H 3419.26 4.60948 -0.180263 0
M  V30 36641 H 3417.5 4.33142 -0.238847 0
M  V30 36642 H 3418.17 5.43481 0.966038 0
M  V30 36643 H 3420.65 3.72493 1.8544 0
M  V30 36644 H 3419.53 4.69972 2.83579 0
M  V30 36645 H 3419.79 3.00991 3.23816 0
M  V30 36646 N 3418.85 -0.325228 1.54208 0
M  V30 36647 C 3419.79 -1.42033 1.842 0
M  V30 36648 C 3420.79 -1.53628 0.713777 0
M  V30 36649 O 3421.99 -1.56034 0.897413 0
M  V30 36650 H 3418.37 -0.473937 0.583856 0
M  V30 36651 H 3420.34 -1.1396 2.75782 0
M  V30 36652 C 3419.09 -2.78277 2.08464 0
M  V30 36653 H 3418.41 -2.70128 2.94739 0
M  V30 36654 H 3419.85 -3.53976 2.33404 0
M  V30 36655 C 3418.31 -3.25321 0.875672 0
M  V30 36656 O 3418.84 -4.01612 0.0841093 0
M  V30 36657 N 3417.05 -2.82344 0.687771 0
M  V30 36658 H 3416.59 -2.20422 1.33311 0
M  V30 36659 H 3416.55 -3.14172 -0.119632 0
M  V30 36660 N 3420.32 -1.46252 -0.587204 0
M  V30 36661 C 3421.55 -1.55129 -1.37658 0
M  V30 36662 C 3421.97 -0.191522 -1.87122 0
M  V30 36663 O 3421.33 0.827548 -1.61311 0
M  V30 36664 C 3421.38 -2.55644 -2.54319 0
M  V30 36665 O 3420.48 -2.08836 -3.55614 0
M  V30 36666 H 3419.82 -0.522185 -0.410145 0
M  V30 36667 H 3422.35 -1.91786 -0.712705 0
M  V30 36668 H 3422.36 -2.75108 -3.01296 0
M  V30 36669 H 3421.04 -3.54391 -2.17669 0
M  V30 36670 H 3419.62 -1.9934 -3.15147 0
M  V30 36671 N 3421.8 0.831459 -1.33883 0
M  V30 36672 C 3422.73 1.9569 -1.27387 0
M  V30 36673 C 3423.71 1.69411 -0.152972 0
M  V30 36674 O 3424.9 1.9113 -0.343954 0
M  V30 36675 C 3422.03 3.31988 -1.01988 0
M  V30 36676 C 3420.98 3.72685 -2.10452 0
M  V30 36677 C 3420.31 5.0687 -1.70254 0
M  V30 36678 C 3421.61 3.85684 -3.52201 0
M  V30 36679 H 3423.3 2.01382 -2.21552 0
M  V30 36680 H 3420.85 0.967507 -1.06655 0
M  V30 36681 H 3422.8 4.10298 -0.960913 0
M  V30 36682 H 3421.52 3.26572 -0.0426283 0
M  V30 36683 H 3420.18 2.96643 -2.15403 0
M  V30 36684 H 3419.83 4.97934 -0.712124 0
M  V30 36685 H 3419.53 5.35071 -2.42843 0
M  V30 36686 H 3421.06 5.87648 -1.65837 0
M  V30 36687 H 3422.47 4.54287 -3.49709 0
M  V30 36688 H 3420.87 4.25329 -4.23338 0
M  V30 36689 H 3421.94 2.87922 -3.90165 0
M  V30 36690 N 3423.28 1.17472 1.05062 0
M  V30 36691 C 3424.56 0.873807 1.74997 0
M  V30 36692 C 3424.94 -0.62564 2.01616 0
M  V30 36693 O 3424.28 -1.57731 1.65327 0
M  V30 36694 C 3424.49 1.71016 3.04228 0
M  V30 36695 C 3425.84 1.93093 3.78154 0
M  V30 36696 O 3426.87 1.67985 3.14101 0
M  V30 36697 O 3425.73 2.35299 4.93251 0
M  V30 36698 H 3422.82 0.323655 0.761037 0
M  V30 36699 H 3425.37 1.28174 1.11218 0
M  V30 36700 H 3424.14 2.72709 2.80616 0
M  V30 36701 H 3423.76 1.30008 3.75744 0
M  V30 36702 N 3424.76 -1.23807 0.975168 0
M  V30 36703 C 3426.17 -1.73919 0.678903 0
M  V30 36704 C 3426.52 -1.78921 -0.805101 0
M  V30 36705 O 3425.64 -1.42359 -1.62981 0
M  V30 36706 C 3426.24 -3.15852 1.22567 0
M  V30 36707 C 3424.8 -3.63441 0.97916 0
M  V30 36708 C 3423.95 -2.41854 1.35653 0
M  V30 36709 H 3426.9 -1.09404 1.14962 0
M  V30 36710 H 3426.92 -3.7581 0.595555 0
M  V30 36711 H 3426.43 -3.1218 2.30576 0
M  V30 36712 H 3424.53 -3.72503 -0.0850752 0
M  V30 36713 H 3424.64 -4.50517 1.63006 0
M  V30 36714 H 3423.01 -2.42624 0.774959 0
M  V30 36715 H 3423.79 -2.40857 2.44628 0
M  V30 36716 N 3426.24 -0.746182 -1.38816 0
M  V30 36717 C 3427.65 -0.367661 -1.83044 0
M  V30 36718 C 3428 1.10261 -1.62287 0
M  V30 36719 O 3427.12 1.8516 -1.12004 0
M  V30 36720 C 3427.72 -0.660541 -3.32299 0
M  V30 36721 C 3426.28 -0.335384 -3.74903 0
M  V30 36722 C 3425.42 -0.917492 -2.61682 0
M  V30 36723 H 3428.37 -0.942933 -1.2765 0
M  V30 36724 H 3428.4 0.0638392 -3.80446 0
M  V30 36725 H 3427.91 -1.73068 -3.47374 0
M  V30 36726 H 3426.01 0.728474 -3.65409 0
M  V30 36727 H 3426.12 -0.82576 -4.7193 0
M  V30 36728 H 3424.49 -0.343361 -2.52375 0
M  V30 36729 H 3425.27 -1.99252 -2.7956 0
M  V30 36730 N 3427.71 1.49635 -0.494676 0
M  V30 36731 C 3428.64 2.31856 0.276566 0
M  V30 36732 C 3429.62 1.39838 0.968474 0
M  V30 36733 O 3430.81 1.6875 0.9611 0
M  V30 36734 C 3427.94 3.20192 1.34516 0
M  V30 36735 C 3426.89 4.20953 0.773497 0
M  V30 36736 C 3426.22 4.98182 1.94214 0
M  V30 36737 C 3427.52 5.21788 -0.231188 0
M  V30 36738 H 3429.21 2.96583 -0.40972 0
M  V30 36739 H 3426.76 1.42625 -0.198486 0
M  V30 36740 H 3428.71 3.7652 1.89237 0
M  V30 36741 H 3427.44 2.53395 2.06054 0
M  V30 36742 H 3426.1 3.6576 0.24808 0
M  V30 36743 H 3425.74 4.27838 2.64506 0
M  V30 36744 H 3425.44 5.66355 1.56574 0
M  V30 36745 H 3426.97 5.57352 2.49381 0
M  V30 36746 H 3428.38 5.72848 0.227667 0
M  V30 36747 H 3426.78 5.97816 -0.52309 0
M  V30 36748 H 3427.85 4.71085 -1.14922 0
M  V30 36749 N 3429.19 0.228241 1.55939 0
M  V30 36750 C 3430.12 -0.673661 2.23571 0
M  V30 36751 C 3431.1 -1.19587 1.20966 0
M  V30 36752 O 3432.29 -1.23865 1.4957 0
M  V30 36753 C 3429.42 -1.87901 2.9208 0
M  V30 36754 C 3428.37 -1.49036 4.01214 0
M  V30 36755 C 3427.7 -2.77503 4.57052 0
M  V30 36756 C 3429 -0.675349 5.17915 0
M  V30 36757 H 3430.69 -0.109753 2.99199 0
M  V30 36758 H 3428.24 -0.0513479 1.43908 0
M  V30 36759 H 3430.19 -2.51545 3.38087 0
M  V30 36760 H 3428.91 -2.468 2.1391 0
M  V30 36761 H 3427.57 -0.877349 3.55947 0
M  V30 36762 H 3427.22 -3.3456 3.75605 0
M  V30 36763 H 3426.92 -2.52229 5.30711 0
M  V30 36764 H 3428.45 -3.42078 5.05782 0
M  V30 36765 H 3429.86 -1.21565 5.60263 0
M  V30 36766 H 3428.26 -0.519431 5.97848 0
M  V30 36767 H 3429.33 0.31658 4.83865 0
M  V30 36768 N 3430.67 -1.57536 -0.0450825 0
M  V30 36769 C 3431.9 -1.92778 -0.751286 0
M  V30 36770 C 3432.31 -0.826628 -1.69742 0
M  V30 36771 O 3431.67 0.198192 -1.81421 0
M  V30 36772 C 3431.72 -3.27893 -1.52212 0
M  V30 36773 O 3431.44 -4.33776 -0.613982 0
M  V30 36774 C 3432.94 -3.77318 -2.32693 0
M  V30 36775 H 3430.16 -0.636596 -0.212099 0
M  V30 36776 H 3432.71 -2.04499 -0.00738146 0
M  V30 36777 H 3430.86 -3.17618 -2.21805 0
M  V30 36778 H 3431.28 -5.11673 -1.15285 0
M  V30 36779 H 3432.75 -4.74415 -2.82196 0
M  V30 36780 H 3433.23 -3.07687 -3.13409 0
M  V30 36781 H 3433.83 -3.90624 -1.68205 0
M  V30 36782 N 3432.15 0.317045 -1.54378 0
M  V30 36783 C 3433.56 0.661774 -1.45233 0
M  V30 36784 C 3433.76 1.91382 -0.63049 0
M  V30 36785 O 3432.82 2.52155 -0.131854 0
M  V30 36786 C 3434.13 0.82971 -2.89026 0
M  V30 36787 C 3435.68 0.926632 -2.98969 0
M  V30 36788 C 3436.16 1.12669 -4.43925 0
M  V30 36789 N 3437.65 1.19327 -4.47566 0
M  V30 36790 C 3438.38 1.36607 -5.5689 0
M  V30 36791 N 3437.88 1.50887 -6.76169 0
M  V30 36792 N 3439.67 1.39367 -5.44549 0
M  V30 36793 H 3431.82 -0.505802 -2.0629 0
M  V30 36794 H 3434.09 -0.164538 -0.933612 0
M  V30 36795 H 3433.79 -0.0191563 -3.51695 0
M  V30 36796 H 3433.67 1.72358 -3.35518 0
M  V30 36797 H 3436.05 1.766 -2.36424 0
M  V30 36798 H 3436.13 0.00908906 -2.55798 0
M  V30 36799 H 3435.78 0.292151 -5.07059 0
M  V30 36800 H 3435.71 2.05821 -4.84712 0
M  V30 36801 H 3438.2 1.09709 -3.61625 0
M  V30 36802 H 3438.51 1.63782 -7.55245 0
M  V30 36803 H 3436.86 1.47973 -6.79065 0
M  V30 36804 H 3440.05 1.27811 -4.50313 0
M  V30 36805 H 3440.22 1.52491 -6.29802 0
M  V30 36806 N 3433.63 1.46561 0.57944 0
M  V30 36807 C 3434.86 1.55392 1.36151 0
M  V30 36808 C 3435.26 0.195095 1.88191 0
M  V30 36809 O 3434.61 -0.818331 1.64466 0
M  V30 36810 C 3434.67 2.5008 2.58264 0
M  V30 36811 C 3434.33 3.96253 2.27668 0
M  V30 36812 C 3435.33 4.85373 1.86305 0
M  V30 36813 C 3433.02 4.41411 2.39711 0
M  V30 36814 C 3435.01 6.17664 1.57385 0
M  V30 36815 C 3432.7 5.73736 2.10404 0
M  V30 36816 C 3433.69 6.61683 1.69306 0
M  V30 36817 O 3433.38 7.91552 1.40359 0
M  V30 36818 H 3433.11 0.52797 0.422165 0
M  V30 36819 H 3435.67 1.927 0.711055 0
M  V30 36820 H 3433.9 2.07796 3.26125 0
M  V30 36821 H 3435.59 2.49281 3.20334 0
M  V30 36822 H 3436.35 4.51739 1.76512 0
M  V30 36823 H 3432.23 3.73179 2.70662 0
M  V30 36824 H 3435.78 6.86267 1.25232 0
M  V30 36825 H 3431.67 6.06917 2.19822 0
M  V30 36826 H 3432.44 8.03848 1.54177 0
M  V30 36827 N 3435.1 -0.824347 1.34322 0
M  V30 36828 C 3436.03 -1.95012 1.28423 0
M  V30 36829 C 3437.02 -1.69327 0.161954 0
M  V30 36830 O 3438.2 -1.90945 0.354085 0
M  V30 36831 C 3435.33 -3.31442 1.03747 0
M  V30 36832 C 3434.28 -3.71564 2.12425 0
M  V30 36833 C 3433.61 -5.0596 1.7294 0
M  V30 36834 C 3434.91 -3.8381 3.54241 0
M  V30 36835 H 3436.6 -2.00205 2.22617 0
M  V30 36836 H 3434.15 -0.961837 1.07167 0
M  V30 36837 H 3436.1 -4.09783 0.982658 0
M  V30 36838 H 3434.83 -3.26545 0.0599466 0
M  V30 36839 H 3433.49 -2.95496 2.16973 0
M  V30 36840 H 3433.13 -4.97549 0.73852 0
M  V30 36841 H 3432.83 -5.33776 2.45677 0
M  V30 36842 H 3434.36 -5.8676 1.68952 0
M  V30 36843 H 3435.77 -4.52426 3.52114 0
M  V30 36844 H 3434.17 -4.23078 4.25588 0
M  V30 36845 H 3435.24 -2.85849 3.91687 0
M  V30 36846 N 3436.58 -1.18028 -1.04437 0
M  V30 36847 C 3438 -0.929165 -1.29764 0
M  V30 36848 C 3438.2 0.407402 -1.97339 0
M  V30 36849 O 3437.25 1.14261 -2.25168 0
M  V30 36850 C 3438.57 -2.09201 -2.15999 0
M  V30 36851 C 3440.12 -2.12989 -2.29357 0
M  V30 36852 C 3440.59 -3.28681 -3.18956 0
M  V30 36853 N 3442.08 -3.28518 -3.26543 0
M  V30 36854 C 3442.82 -4.14678 -3.96017 0
M  V30 36855 N 3442.31 -5.10964 -4.67854 0
M  V30 36856 N 3444.11 -4.02604 -3.92259 0
M  V30 36857 H 3436.26 -2.04047 -0.589804 0
M  V30 36858 H 3438.52 -0.891373 -0.322737 0
M  V30 36859 H 3438.23 -3.05842 -1.73648 0
M  V30 36860 H 3438.1 -2.04948 -3.16664 0
M  V30 36861 H 3440.49 -1.16929 -2.70946 0
M  V30 36862 H 3440.57 -2.21301 -1.28295 0
M  V30 36863 H 3440.21 -4.25011 -2.7808 0
M  V30 36864 H 3440.14 -3.17605 -4.20041 0
M  V30 36865 H 3442.63 -2.58809 -2.75366 0
M  V30 36866 H 3442.95 -5.73088 -5.1845 0
M  V30 36867 H 3441.29 -5.14927 -4.66771 0
M  V30 36868 H 3444.48 -3.26671 -3.35267 0
M  V30 36869 H 3444.65 -4.69969 -4.46132 0
M  V30 36870 N 3438.06 1.23288 -0.98172 0
M  V30 36871 C 3439.31 1.91046 -0.646852 0
M  V30 36872 C 3439.62 1.77422 0.823448 0
M  V30 36873 O 3440.83 2.39995 1.26943 0
M  V30 36874 C 3439.28 3.42473 -1.10636 0
M  V30 36875 C 3438.89 3.64756 -2.6011 0
M  V30 36876 C 3440.64 4.15999 -0.8453 0
M  V30 36877 C 3438.54 5.09825 -2.99721 0
M  V30 36878 H 3437.47 0.715374 -0.238234 0
M  V30 36879 H 3440.12 1.397 -1.1898 0
M  V30 36880 H 3438.51 3.92936 -0.491623 0
M  V30 36881 H 3439.68 3.24833 -3.26834 0
M  V30 36882 H 3438 3.04542 -2.83977 0
M  V30 36883 H 3440.59 5.22901 -1.11708 0
M  V30 36884 H 3440.94 4.15726 0.218588 0
M  V30 36885 H 3441.47 3.71528 -1.42168 0
M  V30 36886 H 3438.21 5.15229 -4.05239 0
M  V30 36887 H 3437.73 5.50693 -2.37693 0
M  V30 36888 H 3439.41 5.78167 -2.904 0
M  V30 36889 N 3439.54 0.753533 1.38418 0
M  V30 36890 C 3440.49 0.101483 2.27774 0
M  V30 36891 C 3441.47 -0.693297 1.45197 0
M  V30 36892 O 3442.66 -0.559261 1.67932 0
M  V30 36893 C 3439.79 -0.790918 3.34065 0
M  V30 36894 C 3438.88 0.0107075 4.24099 0
M  V30 36895 N 3439.27 1.04709 4.94843 0
M  V30 36896 C 3437.57 -0.216115 4.45476 0
M  V30 36897 C 3438.27 1.53208 5.61161 0
M  V30 36898 N 3437.25 0.847398 5.36954 0
M  V30 36899 H 3441.05 0.895237 2.79933 0
M  V30 36900 H 3438.56 0.589571 1.5132 0
M  V30 36901 H 3440.56 -1.27368 3.96967 0
M  V30 36902 H 3439.22 -1.58362 2.83463 0
M  V30 36903 H 3440.23 1.42888 4.97799 0
M  V30 36904 H 3436.91 -0.982167 4.05783 0
M  V30 36905 H 3438.3 2.39536 6.27752 0
M  V30 36906 N 3441.02 -1.49371 0.502605 0
M  V30 36907 C 3442.43 -1.86618 0.0552198 0
M  V30 36908 C 3442.78 -1.41478 -1.35935 0
M  V30 36909 O 3441.9 -0.793374 -2.01332 0
M  V30 36910 C 3442.5 -3.38671 0.0934329 0
M  V30 36911 C 3441.06 -3.75214 -0.298619 0
M  V30 36912 C 3440.2 -2.73369 0.465264 0
M  V30 36913 H 3443.16 -1.41665 0.715306 0
M  V30 36914 H 3443.18 -3.73978 -0.701483 0
M  V30 36915 H 3442.69 -3.71495 1.12309 0
M  V30 36916 H 3440.79 -3.47999 -1.33145 0
M  V30 36917 H 3440.9 -4.79095 0.0219479 0
M  V30 36918 H 3439.27 -2.54558 -0.0851021 0
M  V30 36919 H 3440.05 -3.09037 1.49503 0
M  V30 36920 N 3442.49 -0.236508 -1.55815 0
M  V30 36921 C 3443.43 0.699986 -2.18249 0
M  V30 36922 C 3444.44 1.14651 -1.15581 0
M  V30 36923 O 3445.63 1.07508 -1.42493 0
M  V30 36924 C 3442.73 1.96185 -2.76342 0
M  V30 36925 C 3441.9 1.66845 -4.04328 0
M  V30 36926 C 3440.96 2.77887 -4.46839 0
M  V30 36927 O 3439.99 2.45716 -5.13432 0
M  V30 36928 N 3441.19 4.07164 -4.13761 0
M  V30 36929 H 3443.95 0.165837 -2.99241 0
M  V30 36930 H 3441.51 -0.0560668 -1.61803 0
M  V30 36931 H 3443.51 2.6969 -3.01744 0
M  V30 36932 H 3442.08 2.40607 -1.99568 0
M  V30 36933 H 3441.3 0.769096 -3.86625 0
M  V30 36934 H 3442.58 1.44694 -4.87792 0
M  V30 36935 H 3441.98 4.36138 -3.60278 0
M  V30 36936 H 3440.54 4.77166 -4.44022 0
M  V30 36937 N 3443.97 1.57557 0.0367273 0
M  V30 36938 C 3445.2 1.93566 0.744779 0
M  V30 36939 C 3445.62 0.835892 1.68507 0
M  V30 36940 O 3444.98 -0.208954 1.80092 0
M  V30 36941 C 3445.03 3.28624 1.48455 0
M  V30 36942 O 3444.13 3.20332 2.59733 0
M  V30 36943 H 3443.47 0.632893 0.200855 0
M  V30 36944 H 3446 2.04599 -0.0055114 0
M  V30 36945 H 3446.01 3.63333 1.85616 0
M  V30 36946 H 3444.69 4.08233 0.794881 0
M  V30 36947 H 3443.27 2.97241 2.25171 0
M  V30 36948 N 3445.45 -0.308854 1.54544 0
M  V30 36949 C 3446.7 -1.0427 1.74641 0
M  V30 36950 C 3447.05 -1.85194 0.521616 0
M  V30 36951 O 3446.35 -1.85334 -0.485997 0
M  V30 36952 C 3446.54 -1.98621 2.97127 0
M  V30 36953 C 3446.37 -1.26976 4.31401 0
M  V30 36954 C 3445.14 -1.00016 4.95303 0
M  V30 36955 C 3447.34 -0.67818 5.09809 0
M  V30 36956 N 3445.32 -0.253161 6.13378 0
M  V30 36957 C 3446.69 -0.0635484 6.19967 0
M  V30 36958 C 3448.74 -0.582451 4.94481 0
M  V30 36959 C 3447.45 0.637542 7.16469 0
M  V30 36960 C 3449.47 0.104968 5.91307 0
M  V30 36961 C 3448.84 0.708483 7.00828 0
M  V30 36962 H 3444.93 -0.364748 0.691725 0
M  V30 36963 H 3447.52 -0.3222 1.92016 0
M  V30 36964 H 3445.69 -2.67929 2.81192 0
M  V30 36965 H 3447.42 -2.65099 3.05785 0
M  V30 36966 H 3444.18 -1.2963 4.55514 0
M  V30 36967 H 3444.6 0.106624 6.76916 0
M  V30 36968 H 3449.24 -1.03475 4.09942 0
M  V30 36969 H 3446.96 1.10164 8.00556 0
M  V30 36970 H 3450.55 0.178876 5.81525 0
M  V30 36971 H 3449.43 1.23195 7.74463 0
M  V30 36972 N 3446.93 -1.46867 -0.571659 0
M  V30 36973 C 3448.18 -1.52974 -1.33142 0
M  V30 36974 C 3448.51 -0.185378 -1.93313 0
M  V30 36975 O 3447.78 0.804439 -1.77085 0
M  V30 36976 C 3448.07 -2.63679 -2.45246 0
M  V30 36977 C 3447.92 -4.07684 -1.90037 0
M  V30 36978 C 3449.24 -2.7039 -3.47243 0
M  V30 36979 H 3446.36 -0.556893 -0.482741 0
M  V30 36980 H 3449 -1.78856 -0.641132 0
M  V30 36981 H 3447.15 -2.41741 -3.04128 0
M  V30 36982 H 3448.82 -4.40942 -1.35527 0
M  V30 36983 H 3447.06 -4.16642 -1.20797 0
M  V30 36984 H 3447.74 -4.80892 -2.71011 0
M  V30 36985 H 3450.21 -2.9014 -2.98258 0
M  V30 36986 H 3449.09 -3.4965 -4.23126 0
M  V30 36987 H 3449.35 -1.76875 -4.05176 0
M  V30 36988 N 3448.41 0.817212 -1.34757 0
M  V30 36989 C 3449.36 1.91749 -1.23354 0
M  V30 36990 C 3450.34 1.60364 -0.131243 0
M  V30 36991 O 3451.53 1.7327 -0.361456 0
M  V30 36992 C 3448.66 3.28504 -0.99699 0
M  V30 36993 C 3447.75 3.6599 -2.14272 0
M  V30 36994 N 3448.14 3.74994 -3.3943 0
M  V30 36995 C 3446.44 3.95876 -2.05423 0
M  V30 36996 C 3447.14 4.07912 -4.14708 0
M  V30 36997 N 3446.11 4.21435 -3.43356 0
M  V30 36998 H 3449.92 1.96897 -2.18194 0
M  V30 36999 H 3447.43 1.0112 -1.27077 0
M  V30 37000 H 3449.43 4.07153 -0.896202 0
M  V30 37001 H 3448.09 3.24649 -0.057336 0
M  V30 37002 H 3449.1 3.58342 -3.73913 0
M  V30 37003 H 3445.78 4.00107 -1.19249 0
M  V30 37004 H 3447.17 4.22035 -5.22815 0
M  V30 37005 N 3449.89 1.1858 1.0381 0
M  V30 37006 C 3450.82 0.872908 2.11927 0
M  V30 37007 C 3451.83 -0.130563 1.62276 0
M  V30 37008 O 3453.02 0.0976182 1.78233 0
M  V30 37009 C 3450.12 0.28338 3.37713 0
M  V30 37010 C 3449.29 1.33314 4.16589 0
M  V30 37011 C 3448.35 0.758837 5.207 0
M  V30 37012 O 3447.38 1.43421 5.50835 0
M  V30 37013 N 3448.58 -0.442403 5.78812 0
M  V30 37014 H 3451.34 1.8035 2.39361 0
M  V30 37015 H 3448.91 1.08654 1.20025 0
M  V30 37016 H 3450.9 -0.114453 4.04538 0
M  V30 37017 H 3449.47 -0.551293 3.077 0
M  V30 37018 H 3448.69 1.90619 3.45048 0
M  V30 37019 H 3449.98 2.04079 4.66079 0
M  V30 37020 H 3449.37 -1.00879 5.56633 0
M  V30 37021 H 3447.93 -0.782126 6.4709 0
M  V30 37022 N 3451.36 -1.22766 0.988245 0
M  V30 37023 C 3452.61 -1.90701 0.656974 0
M  V30 37024 C 3452.93 -1.77857 -0.814027 0
M  V30 37025 O 3454.13 -2.40665 -1.25669 0
M  V30 37026 C 3452.59 -3.41881 1.12451 0
M  V30 37027 C 3452.2 -3.63371 2.62041 0
M  V30 37028 C 3453.94 -4.15545 0.86735 0
M  V30 37029 C 3451.85 -5.08228 3.02421 0
M  V30 37030 H 3450.78 -0.714101 0.242024 0
M  V30 37031 H 3453.43 -1.39067 1.19719 0
M  V30 37032 H 3451.81 -3.9267 0.512455 0
M  V30 37033 H 3452.98 -3.23095 3.28552 0
M  V30 37034 H 3451.3 -3.03032 2.85588 0
M  V30 37035 H 3453.9 -5.22301 1.1448 0
M  V30 37036 H 3454.24 -4.15836 -0.196538 0
M  V30 37037 H 3454.77 -3.70769 1.44137 0
M  V30 37038 H 3451.51 -5.13073 4.07966 0
M  V30 37039 H 3451.03 -5.49424 2.4061 0
M  V30 37040 H 3452.71 -5.76618 2.93462 0
M  V30 37041 N 3452.84 -0.760864 -1.38017 0
M  V30 37042 C 3453.8 -0.146195 -2.28733 0
M  V30 37043 C 3454.8 0.639742 -1.47526 0
M  V30 37044 O 3455.99 0.464935 -1.67881 0
M  V30 37045 C 3453.13 0.800961 -3.31357 0
M  V30 37046 H 3454.32 -0.945742 -2.84597 0
M  V30 37047 H 3451.87 -0.528348 -1.47099 0
M  V30 37048 H 3452.61 1.62592 -2.80597 0
M  V30 37049 H 3452.39 0.239706 -3.91367 0
M  V30 37050 H 3453.88 1.2268 -3.99173 0
M  V30 37051 N 3454.32 1.49102 -0.510519 0
M  V30 37052 C 3455.25 2.32137 0.251958 0
M  V30 37053 C 3456.23 1.40857 0.953588 0
M  V30 37054 O 3457.42 1.6976 0.943148 0
M  V30 37055 C 3454.55 3.216 1.31112 0
M  V30 37056 C 3453.5 4.21749 0.728806 0
M  V30 37057 C 3452.83 5.00214 1.88919 0
M  V30 37058 C 3454.13 5.21514 -0.286517 0
M  V30 37059 H 3455.82 2.96132 -0.441154 0
M  V30 37060 H 3453.37 1.42407 -0.213602 0
M  V30 37061 H 3455.32 3.78506 1.85233 0
M  V30 37062 H 3454.04 2.55567 2.03355 0
M  V30 37063 H 3452.7 3.66002 0.209272 0
M  V30 37064 H 3452.35 4.3062 2.59953 0
M  V30 37065 H 3452.05 5.67984 1.50558 0
M  V30 37066 H 3453.57 5.59966 2.43456 0
M  V30 37067 H 3454.99 5.73057 0.166896 0
M  V30 37068 H 3453.38 5.97227 -0.586466 0
M  V30 37069 H 3454.45 4.6984 -1.19912 0
M  V30 37070 N 3455.8 0.244768 1.55688 0
M  V30 37071 C 3457.21 -0.110131 1.5922 0
M  V30 37072 C 3457.41 -1.57093 1.2619 0
M  V30 37073 O 3456.47 -2.31499 1.0082 0
M  V30 37074 C 3457.78 0.237128 2.99764 0
M  V30 37075 C 3459.33 0.181253 3.12475 0
M  V30 37076 C 3459.81 0.502515 4.55235 0
M  V30 37077 N 3461.3 0.452936 4.6098 0
M  V30 37078 C 3462.03 0.674705 5.69417 0
M  V30 37079 N 3461.53 0.959487 6.86124 0
M  V30 37080 N 3463.32 0.605557 5.58829 0
M  V30 37081 H 3455.47 1.19744 1.75428 0
M  V30 37082 H 3457.73 0.481649 0.816528 0
M  V30 37083 H 3457.44 1.25191 3.28664 0
M  V30 37084 H 3457.31 -0.436794 3.74662 0
M  V30 37085 H 3459.7 -0.824198 2.83357 0
M  V30 37086 H 3459.78 0.888994 2.39855 0
M  V30 37087 H 3459.43 1.50551 4.85074 0
M  V30 37088 H 3459.36 -0.22668 5.26112 0
M  V30 37089 H 3461.85 0.241467 3.77128 0
M  V30 37090 H 3462.16 1.11618 7.64697 0
M  V30 37091 H 3460.51 0.996937 6.87813 0
M  V30 37092 H 3463.7 0.383135 4.66529 0
M  V30 37093 H 3463.87 0.781787 6.43267 0
M  V30 37094 N 3457.28 -1.57574 -0.0283712 0
M  V30 37095 C 3458.21 -2.01989 -1.06187 0
M  V30 37096 C 3459.19 -0.904364 -1.3513 0
M  V30 37097 O 3460.37 -1.17025 -1.47775 0
M  V30 37098 C 3457.5 -2.39352 -2.39642 0
M  V30 37099 C 3456.54 -3.61354 -2.26552 0
M  V30 37100 S 3457.38 -5.10462 -1.6183 0
M  V30 37101 C 3458.53 -5.51069 -2.96773 0
M  V30 37102 H 3458.77 -2.89335 -0.683574 0
M  V30 37103 H 3456.3 -1.52549 -0.238367 0
M  V30 37104 H 3458.26 -2.6155 -3.16389 0
M  V30 37105 H 3456.92 -1.52457 -2.74619 0
M  V30 37106 H 3456.11 -3.85155 -3.25072 0
M  V30 37107 H 3455.71 -3.39011 -1.57948 0
M  V30 37108 H 3458 -5.51795 -3.93101 0
M  V30 37109 H 3458.95 -6.51372 -2.77704 0
M  V30 37110 H 3459.36 -4.78574 -2.99378 0
M  V30 37111 N 3458.75 0.300654 -1.54706 0
M  V30 37112 C 3459.66 1.39338 -1.88738 0
M  V30 37113 C 3460.68 1.55459 -0.781577 0
M  V30 37114 O 3461.86 1.70116 -1.07807 0
M  V30 37115 C 3458.92 2.7371 -2.128 0
M  V30 37116 C 3457.98 2.66571 -3.36509 0
M  V30 37117 C 3457.21 3.94534 -3.59414 0
M  V30 37118 O 3457.44 4.93909 -2.85324 0
M  V30 37119 O 3456.37 3.96407 -4.5293 0
M  V30 37120 H 3460.2 1.13479 -2.81702 0
M  V30 37121 H 3457.78 0.496746 -1.409 0
M  V30 37122 H 3459.66 3.53211 -2.29826 0
M  V30 37123 H 3458.34 2.99412 -1.23022 0
M  V30 37124 H 3457.25 1.85541 -3.24847 0
M  V30 37125 H 3458.58 2.45822 -4.26418 0
M  V30 37126 N 3460.23 1.47168 0.563863 0
M  V30 37127 C 3461.48 1.53678 1.32329 0
M  V30 37128 C 3461.81 0.195627 1.93212 0
M  V30 37129 O 3461.09 -0.795037 1.77509 0
M  V30 37130 C 3461.37 2.64976 2.43844 0
M  V30 37131 C 3461.22 4.08686 1.87872 0
M  V30 37132 C 3462.54 2.72227 3.45804 0
M  V30 37133 H 3459.66 0.559445 0.479781 0
M  V30 37134 H 3462.3 1.79194 0.631637 0
M  V30 37135 H 3460.45 2.4335 3.02841 0
M  V30 37136 H 3462.12 4.41655 1.33187 0
M  V30 37137 H 3460.37 4.17277 1.18586 0
M  V30 37138 H 3461.04 4.82322 2.68457 0
M  V30 37139 H 3463.51 2.91718 2.96715 0
M  V30 37140 H 3462.39 3.51889 4.21266 0
M  V30 37141 H 3462.65 1.79021 4.04232 0
M  V30 37142 N 3461.71 -0.810054 1.35188 0
M  V30 37143 C 3462.64 -1.93639 1.30484 0
M  V30 37144 C 3463.62 -1.69146 0.179905 0
M  V30 37145 O 3464.81 -1.90558 0.374317 0
M  V30 37146 C 3461.94 -3.30323 1.07257 0
M  V30 37147 C 3460.89 -3.6929 2.16354 0
M  V30 37148 C 3460.22 -5.04098 1.78297 0
M  V30 37149 C 3461.52 -3.80032 3.58292 0
M  V30 37150 H 3463.21 -1.97832 2.24728 0
M  V30 37151 H 3460.76 -0.950416 1.08181 0
M  V30 37152 H 3462.71 -4.08717 1.02607 0
M  V30 37153 H 3461.43 -3.26463 0.0945777 0
M  V30 37154 H 3460.09 -2.93179 2.20095 0
M  V30 37155 H 3459.74 -4.96738 0.79125 0
M  V30 37156 H 3459.44 -5.3114 2.51325 0
M  V30 37157 H 3460.96 -5.84935 1.75165 0
M  V30 37158 H 3462.38 -4.48665 3.56892 0
M  V30 37159 H 3460.78 -4.1854 4.30051 0
M  V30 37160 H 3461.85 -2.81678 3.94696 0
M  V30 37161 N 3463.19 -1.19129 -1.0318 0
M  V30 37162 C 3464.44 -0.990165 -1.76182 0
M  V30 37163 C 3464.76 0.480513 -1.88987 0
M  V30 37164 O 3464.03 1.34815 -1.42133 0
M  V30 37165 H 3462.61 -0.363376 -0.652661 0
M  V30 37166 H 3465.27 -1.49971 -1.24478 0
M  V30 37167 H 3464.37 -1.43572 -2.77116 0
M  V30 37168 N 3464.67 1.2224 -0.994741 0
M  V30 37169 C 3465.91 1.92762 -0.679865 0
M  V30 37170 C 3466.27 1.75708 0.773993 0
M  V30 37171 O 3467.47 2.40509 1.20037 0
M  V30 37172 C 3465.74 3.40789 -1.07691 0
M  V30 37173 S 3467.3 4.29871 -0.880683 0
M  V30 37174 H 3464.12 0.666152 -0.24852 0
M  V30 37175 H 3466.72 1.47995 -1.27741 0
M  V30 37176 H 3465.43 3.50715 -2.13136 0
M  V30 37177 H 3464.96 3.90567 -0.471241 0
M  V30 37178 H 3466.97 4.95677 0.2278 0
M  V30 37179 N 3466.14 0.768172 1.37611 0
M  V30 37180 C 3467.05 0.15269 2.34103 0
M  V30 37181 C 3468.07 -0.683783 1.60001 0
M  V30 37182 O 3469.25 -0.604538 1.92113 0
M  V30 37183 C 3466.31 -0.718894 3.39165 0
M  V30 37184 C 3465.37 0.133625 4.29092 0
M  V30 37185 C 3464.61 -0.696454 5.29136 0
M  V30 37186 O 3464.83 -1.93374 5.36622 0
M  V30 37187 O 3463.76 -0.107546 6.01804 0
M  V30 37188 H 3467.59 0.94995 2.88461 0
M  V30 37189 H 3465.17 0.529277 1.3971 0
M  V30 37190 H 3467.06 -1.21658 4.03457 0
M  V30 37191 H 3465.73 -1.4944 2.8714 0
M  V30 37192 H 3464.64 0.677592 3.67912 0
M  V30 37193 H 3465.97 0.872133 4.84412 0
M  V30 37194 N 3467.62 -1.48829 0.518419 0
M  V30 37195 C 3468.59 -2.27942 -0.23979 0
M  V30 37196 C 3469.59 -1.34696 -0.878278 0
M  V30 37197 O 3470.78 -1.57696 -0.740114 0
M  V30 37198 C 3467.91 -3.13213 -1.34575 0
M  V30 37199 H 3469.1 -2.96434 0.454651 0
M  V30 37200 H 3466.65 -1.5388 0.273959 0
M  V30 37201 H 3467.39 -2.49326 -2.07381 0
M  V30 37202 H 3467.17 -3.81791 -0.893184 0
M  V30 37203 H 3468.66 -3.7292 -1.87938 0
M  V30 37204 N 3469.1 -0.253021 -1.55556 0
M  V30 37205 C 3470.03 0.676798 -2.1898 0
M  V30 37206 C 3471.05 1.13419 -1.1679 0
M  V30 37207 O 3472.23 1.05991 -1.43625 0
M  V30 37208 C 3469.33 1.93243 -2.78407 0
M  V30 37209 C 3468.51 1.62548 -4.06075 0
M  V30 37210 C 3467.57 2.73132 -4.49762 0
M  V30 37211 O 3466.59 2.40257 -5.16009 0
M  V30 37212 N 3467.79 4.02752 -4.18056 0
M  V30 37213 H 3470.56 0.134089 -2.994 0
M  V30 37214 H 3468.12 -0.073225 -1.61734 0
M  V30 37215 H 3470.11 2.66474 -3.04587 0
M  V30 37216 H 3468.68 2.38476 -2.02108 0
M  V30 37217 H 3467.9 0.728047 -3.87419 0
M  V30 37218 H 3469.19 1.39512 -4.89299 0
M  V30 37219 H 3468.59 4.32292 -3.64884 0
M  V30 37220 H 3467.15 4.7243 -4.49058 0
M  V30 37221 N 3470.58 1.57587 0.0200142 0
M  V30 37222 C 3471.86 1.8086 0.744914 0
M  V30 37223 C 3472.24 0.853252 1.93088 0
M  V30 37224 O 3471.58 -0.10257 2.2827 0
M  V30 37225 C 3471.79 3.28823 1.16946 0
M  V30 37226 C 3473.14 3.94043 1.58163 0
M  V30 37227 O 3474.17 3.33026 1.2638 0
M  V30 37228 O 3473.02 5.01489 2.17188 0
M  V30 37229 H 3470.12 0.744057 0.360982 0
M  V30 37230 H 3472.66 1.697 -0.00390357 0
M  V30 37231 H 3471.44 3.89963 0.323235 0
M  V30 37232 H 3471.06 3.44907 1.97801 0
M  V30 37233 N 3472.06 -0.292445 1.54863 0
M  V30 37234 C 3472.99 -1.36553 1.89409 0
M  V30 37235 C 3473.97 -1.52482 0.753864 0
M  V30 37236 O 3475.15 -1.65849 1.01034 0
M  V30 37237 C 3472.28 -2.72834 2.14893 0
M  V30 37238 C 3471.24 -2.71659 3.30734 0
M  V30 37239 C 3470.56 -4.1131 3.41655 0
M  V30 37240 C 3471.86 -2.32643 4.67627 0
M  V30 37241 H 3473.56 -1.07889 2.79285 0
M  V30 37242 H 3471.1 -0.517561 1.34377 0
M  V30 37243 H 3473.06 -3.47998 2.37646 0
M  V30 37244 H 3471.78 -3.0304 1.21795 0
M  V30 37245 H 3470.44 -1.98952 3.07918 0
M  V30 37246 H 3470.09 -4.38707 2.46059 0
M  V30 37247 H 3469.79 -4.11423 4.19529 0
M  V30 37248 H 3471.31 -4.88241 3.66678 0
M  V30 37249 H 3472.72 -2.97524 4.90053 0
M  V30 37250 H 3471.12 -2.43953 5.48276 0
M  V30 37251 H 3472.19 -1.27769 4.67764 0
M  V30 37252 N 3473.53 -1.47465 -0.55605 0
M  V30 37253 C 3474.76 -1.57538 -1.33661 0
M  V30 37254 C 3475.17 -0.22501 -1.87857 0
M  V30 37255 O 3474.52 0.792062 -1.65747 0
M  V30 37256 C 3474.58 -2.54157 -2.54253 0
M  V30 37257 C 3474.24 -3.99825 -2.21335 0
M  V30 37258 C 3475.24 -4.88275 -1.78559 0
M  V30 37259 C 3472.92 -4.45169 -2.32658 0
M  V30 37260 C 3474.92 -6.2009 -1.47538 0
M  V30 37261 C 3472.6 -5.77011 -2.0125 0
M  V30 37262 C 3473.6 -6.64293 -1.58757 0
M  V30 37263 O 3473.29 -7.93685 -1.27748 0
M  V30 37264 H 3473.02 -0.53462 -0.413712 0
M  V30 37265 H 3475.58 -1.93807 -0.680308 0
M  V30 37266 H 3473.81 -2.12958 -3.22778 0
M  V30 37267 H 3475.5 -2.54345 -3.16328 0
M  V30 37268 H 3476.26 -4.5449 -1.69303 0
M  V30 37269 H 3472.14 -3.77438 -2.64691 0
M  V30 37270 H 3475.68 -6.88173 -1.14298 0
M  V30 37271 H 3471.58 -6.10338 -2.10139 0
M  V30 37272 H 3472.35 -8.06199 -1.41369 0
M  V30 37273 O 3475.05 0.70071 -1.45507 0
M  V30 37274 H 3475.74 1.35229 -1.38682 0
M  V30 END ATOM
M  V30 BEGIN BOND
M  V30 END BOND
M  V30 END CTAB
M  END
$$$$
