drugbank_target|O75460 Serine/threonine-protein kinase/endoribonuclease IRE1 (DB07382; DB12010)
 OpenBabel12092120423D

  0  0  0     0  0            999 V3000
M  V30 BEGIN CTAB
M  V30 COUNTS 15387 15579 0 0 0
M  V30 BEGIN ATOM
M  V30 1 H -0.908 1.98254 -0.117106 0
M  V30 2 N 0 1.576 0 0
M  V30 3 C 0.933 2.03868 1.02534 0
M  V30 4 C 1.911 0.928543 1.3348 0
M  V30 5 O 3.095 1.19667 1.45644 0
M  V30 6 C 0.222 2.43627 2.35294 0
M  V30 7 C -0.732 3.65373 2.2001 0
M  V30 8 S 0.101 5.13292 1.52614 0
M  V30 9 C 1.257 5.56322 2.86805 0
M  V30 10 H 1.49 2.90518 0.631377 0
M  V30 11 H -0.977 1.52953 0.210867 0
M  V30 12 H 0.981 2.67203 3.11629 0
M  V30 13 H -0.358 1.57376 2.7183 0
M  V30 14 H -1.165 3.90944 3.18086 0
M  V30 15 H -1.563 3.418 1.51819 0
M  V30 16 H 0.729 5.58782 3.83104 0
M  V30 17 H 1.672 6.56266 2.65933 0
M  V30 18 H 2.08 4.83886 2.90714 0
M  V30 19 N 1.4781 -0.272755 1.55222 0
M  V30 20 C 2.8891 -0.84378 1.66545 0
M  V30 21 C 3.2401 -1.87035 0.592641 0
M  V30 22 O 2.3651 -2.14761 -0.265818 0
M  V30 23 C 2.9601 -1.53723 3.01918 0
M  V30 24 C 1.5191 -2.05628 3.15268 0
M  V30 25 C 0.6661 -0.898424 2.62343 0
M  V30 26 H 3.6171 -0.0490998 1.58624 0
M  V30 27 H 3.6381 -2.40421 2.94921 0
M  V30 28 H 3.1501 -0.78983 3.79978 0
M  V30 29 H 1.2511 -2.83329 2.41983 0
M  V30 30 H 1.3641 -2.27142 4.21833 0
M  V30 31 H -0.2719 -1.29186 2.19506 0
M  V30 32 H 0.5111 -0.164528 3.42906 0
M  V30 33 N 2.9562 -1.48159 -0.537278 0
M  V30 34 C 3.9192 -1.61665 -1.62472 0
M  V30 35 C 4.9192 -0.490395 -1.5314 0
M  V30 36 O 6.1092 -0.755998 -1.5694 0
M  V30 37 C 3.2412 -1.57997 -3.02076 0
M  V30 38 H 4.4342 -2.58621 -1.51839 0
M  V30 39 H 1.9872 -1.36647 -0.758771 0
M  V30 40 H 2.7222 -0.624913 -3.18222 0
M  V30 41 H 2.5072 -2.39755 -3.10258 0
M  V30 42 H 3.9972 -1.70627 -3.81151 0
M  V30 43 N 4.4343 0.785586 -1.36625 0
M  V30 44 C 5.8503 1.08419 -1.17122 0
M  V30 45 C 6.0503 2.015 0.00208491 0
M  V30 46 O 5.1063 2.43551 0.666278 0
M  V30 47 C 6.4193 1.69498 -2.48377 0
M  V30 48 C 7.9673 1.81821 -2.54775 0
M  V30 49 C 8.4423 2.46315 -3.86126 0
M  V30 50 N 9.9333 2.53779 -3.87492 0
M  V30 51 C 10.6683 3.045 -4.85868 0
M  V30 52 N 10.1643 3.55499 -5.94637 0
M  V30 53 N 11.9573 3.03247 -4.73284 0
M  V30 54 H 4.1083 0.167264 -2.1174 0
M  V30 55 H 6.3713 0.13682 -0.938075 0
M  V30 56 H 6.0773 1.08571 -3.34522 0
M  V30 57 H 5.9513 2.6896 -2.64462 0
M  V30 58 H 8.3383 2.41884 -1.69045 0
M  V30 59 H 8.4193 0.811532 -2.42586 0
M  V30 60 H 8.0633 1.86895 -4.72263 0
M  V30 61 H 7.9933 3.47561 -3.95612 0
M  V30 62 H 10.4843 2.17672 -3.08913 0
M  V30 63 H 10.7973 3.92562 -6.65669 0
M  V30 64 H 9.1423 3.5364 -5.98301 0
M  V30 65 H 12.3333 2.62696 -3.87438 0
M  V30 66 H 12.5063 3.42467 -5.50109 0
M  V30 67 N 5.9124 1.20967 1.01018 0
M  V30 68 C 7.3284 0.965905 1.27053 0
M  V30 69 C 7.5284 -0.350785 1.98423 0
M  V30 70 O 6.5844 -1.07773 2.28344 0
M  V30 71 C 7.8974 2.15294 2.09926 0
M  V30 72 C 9.4454 2.19463 2.23171 0
M  V30 73 C 9.9204 3.3767 3.09424 0
M  V30 74 N 11.4114 3.37724 3.17012 0
M  V30 75 C 12.1464 4.25837 3.83993 0
M  V30 76 N 11.6424 5.24138 4.53047 0
M  V30 77 N 13.4354 4.1366 3.80581 0
M  V30 78 H 5.5864 2.0565 0.531194 0
M  V30 79 H 7.8494 0.90024 0.297106 0
M  V30 80 H 7.5554 3.10684 1.64828 0
M  V30 81 H 7.4294 2.13923 3.10672 0
M  V30 82 H 9.8164 1.24632 2.6749 0
M  V30 83 H 9.8974 2.2488 1.21912 0
M  V30 84 H 9.5414 4.32791 2.65808 0
M  V30 85 H 9.4714 3.29491 4.10784 0
M  V30 86 H 11.9624 2.6658 2.6785 0
M  V30 87 H 12.2754 5.87684 5.01844 0
M  V30 88 H 10.6204 5.28068 4.5185 0
M  V30 89 H 13.8114 3.36127 3.25785 0
M  V30 90 H 13.9844 4.82538 4.32505 0
M  V30 91 N 7.3905 -1.2043 1.01659 0
M  V30 92 C 8.3205 -2.25466 0.607226 0
M  V30 93 C 9.3015 -1.65853 -0.377716 0
M  V30 94 O 10.4865 -1.92409 -0.263149 0
M  V30 95 C 7.6165 -3.47256 -0.0552949 0
M  V30 96 C 6.5705 -4.19462 0.850632 0
M  V30 97 C 5.8965 -5.34673 0.0538859 0
M  V30 98 C 7.1965 -4.75603 2.15868 0
M  V30 99 H 8.8905 -2.59962 1.48526 0
M  V30 100 H 6.4365 -1.2496 0.715605 0
M  V30 101 H 8.3895 -4.19917 -0.353233 0
M  V30 102 H 7.1135 -3.11924 -0.968045 0
M  V30 103 H 5.7725 -3.48667 1.13257 0
M  V30 104 H 5.4205 -4.95585 -0.860514 0
M  V30 105 H 5.1205 -5.83913 0.657192 0
M  V30 106 H 6.6445 -6.10138 -0.237598 0
M  V30 107 H 8.0585 -5.40083 1.92311 0
M  V30 108 H 6.4555 -5.3528 2.71284 0
M  V30 109 H 7.5255 -3.94346 2.82169 0
M  V30 110 N 8.8686 -0.792821 -1.36206 0
M  V30 111 C 9.7986 -0.207853 -2.32573 0
M  V30 112 C 10.7796 0.659055 -1.56813 0
M  V30 113 O 11.9646 0.592176 -1.84951 0
M  V30 114 C 9.0946 0.655449 -3.41059 0
M  V30 115 C 8.0486 -0.111842 -4.27854 0
M  V30 116 C 7.3746 0.872274 -5.27537 0
M  V30 117 C 8.6746 -1.30299 -5.05786 0
M  V30 118 H 10.3686 -1.01294 -2.81744 0
M  V30 119 H 7.9146 -0.48854 -1.3546 0
M  V30 120 H 9.8676 1.07464 -4.07467 0
M  V30 121 H 8.5916 1.49328 -2.90463 0
M  V30 122 H 7.2506 -0.512053 -3.63006 0
M  V30 123 H 6.8986 1.70523 -4.73214 0
M  V30 124 H 6.5986 0.363291 -5.86476 0
M  V30 125 H 8.1226 1.28996 -5.96818 0
M  V30 126 H 9.5366 -0.959379 -5.65216 0
M  V30 127 H 7.9336 -1.7455 -5.74154 0
M  V30 128 H 9.0036 -2.09663 -4.37229 0
M  V30 129 N 10.3467 1.47872 -0.545128 0
M  V30 130 C 11.2767 2.32661 0.197793 0
M  V30 131 C 12.2577 1.43041 0.920504 0
M  V30 132 O 13.4427 1.71912 0.90333 0
M  V30 133 C 10.5727 3.24569 1.23582 0
M  V30 134 C 9.5267 4.23333 0.630323 0
M  V30 135 C 8.8527 5.0448 1.77211 0
M  V30 136 C 10.1527 5.20704 -0.407974 0
M  V30 137 H 11.8467 2.95024 -0.510045 0
M  V30 138 H 9.3927 1.4187 -0.246731 0
M  V30 139 H 11.3457 3.8272 1.76362 0
M  V30 140 H 10.0697 2.60236 1.97344 0
M  V30 141 H 8.7287 3.6639 0.123922 0
M  V30 142 H 8.3767 4.36561 2.49847 0
M  V30 143 H 8.0767 5.71339 1.37281 0
M  V30 144 H 9.6007 5.65487 2.3034 0
M  V30 145 H 11.0147 5.7329 0.033305 0
M  V30 146 H 9.4117 5.95699 -0.725486 0
M  V30 147 H 10.4817 4.66917 -1.30828 0
M  V30 148 N 11.8248 0.280983 1.55075 0
M  V30 149 C 12.7548 -0.597469 2.25727 0
M  V30 150 C 13.7358 -1.15417 1.24952 0
M  V30 151 O 14.9208 -1.18722 1.53684 0
M  V30 152 C 12.0508 -1.7789 2.98283 0
M  V30 153 C 11.0048 -1.35347 4.06036 0
M  V30 154 C 10.3308 -2.61846 4.66198 0
M  V30 155 C 11.6308 -0.499354 5.19907 0
M  V30 156 H 13.3248 -0.00824265 2.99399 0
M  V30 157 H 10.8708 -0.0025244 1.44 0
M  V30 158 H 12.8238 -2.39937 3.46422 0
M  V30 159 H 11.5478 -2.39405 2.22155 0
M  V30 160 H 10.2068 -0.756156 3.58717 0
M  V30 161 H 9.8548 -3.21632 3.86732 0
M  V30 162 H 9.5548 -2.3409 5.38958 0
M  V30 163 H 11.0788 -3.24732 5.1709 0
M  V30 164 H 12.4928 -1.02498 5.64063 0
M  V30 165 H 10.8898 -0.316424 5.99265 0
M  V30 166 H 11.9598 0.480459 4.82514 0
M  V30 167 N 13.3029 -1.57598 0.00835791 0
M  V30 168 C 14.2329 -2.1198 -0.979113 0
M  V30 169 C 15.2139 -1.03091 -1.35301 0
M  V30 170 O 16.3989 -1.30818 -1.43528 0
M  V30 171 C 13.5289 -2.62995 -2.26828 0
M  V30 172 C 12.4829 -3.76485 -2.03576 0
M  V30 173 C 11.8089 -4.13846 -3.38579 0
M  V30 174 C 13.1089 -5.0342 -1.39161 0
M  V30 175 H 14.8029 -2.94738 -0.526281 0
M  V30 176 H 12.3489 -1.41783 -0.251704 0
M  V30 177 H 14.3019 -2.99669 -2.96271 0
M  V30 178 H 13.0259 -1.7737 -2.7424 0
M  V30 179 H 11.6849 -3.40217 -1.36557 0
M  V30 180 H 11.3329 -3.25232 -3.83709 0
M  V30 181 H 11.0329 -4.90312 -3.23834 0
M  V30 182 H 12.5569 -4.53086 -4.09323 0
M  V30 183 H 13.9709 -5.37812 -1.98573 0
M  V30 184 H 12.3679 -5.84746 -1.34878 0
M  V30 185 H 13.4379 -4.83548 -0.361868 0
M  V30 186 N 14.781 0.264519 -1.55364 0
M  V30 187 C 16.009 1.013 -1.80405 0
M  V30 188 C 16.424 1.79618 -0.581622 0
M  V30 189 O 15.781 1.76879 0.449468 0
M  V30 190 C 15.832 1.96487 -3.03439 0
M  V30 191 O 15.553 1.21341 -4.20961 0
M  V30 192 C 17.054 2.83079 -3.41147 0
M  V30 193 H 14.274 0.298875 -0.600762 0
M  V30 194 H 16.818 0.292736 -2.02394 0
M  V30 195 H 14.973 2.63965 -2.83551 0
M  V30 196 H 15.387 1.85573 -4.90574 0
M  V30 197 H 16.861 3.4565 -4.30384 0
M  V30 198 H 17.338 3.53286 -2.60932 0
M  V30 199 H 17.944 2.2108 -3.63323 0
M  V30 200 N 16.2591 1.48442 0.529413 0
M  V30 201 C 17.1891 1.65902 1.64313 0
M  V30 202 C 18.1701 0.507897 1.6234 0
M  V30 203 O 19.3551 0.740503 1.79528 0
M  V30 204 C 16.4851 1.69911 3.02898 0
M  V30 205 C 15.4391 2.8453 3.19729 0
M  V30 206 C 14.7651 2.73629 4.59381 0
M  V30 207 C 16.0651 4.25821 3.02447 0
M  V30 208 H 17.7591 2.5914 1.49955 0
M  V30 209 H 15.3051 1.24709 0.719982 0
M  V30 210 H 17.2581 1.80715 3.80684 0
M  V30 211 H 15.9821 0.732524 3.18279 0
M  V30 212 H 14.6411 2.73283 2.44361 0
M  V30 213 H 14.2891 1.74938 4.71599 0
M  V30 214 H 13.9891 3.50541 4.71588 0
M  V30 215 H 15.5131 2.86401 5.39265 0
M  V30 216 H 16.9271 4.37898 3.70024 0
M  V30 217 H 15.3241 5.03735 3.26146 0
M  V30 218 H 16.3941 4.42244 1.98867 0
M  V30 219 N 17.7372 -0.778329 1.37039 0
M  V30 220 C 18.6672 -1.90546 1.34962 0
M  V30 221 C 19.6482 -1.68681 0.219274 0
M  V30 222 O 20.8332 -1.89634 0.418624 0
M  V30 223 C 17.9632 -3.27734 1.14925 0
M  V30 224 C 16.9172 -3.64147 2.24902 0
M  V30 225 C 16.2432 -4.99806 1.89996 0
M  V30 226 C 17.5432 -3.71579 3.67051 0
M  V30 227 H 19.2372 -1.92541 2.29277 0
M  V30 228 H 16.7832 -0.924948 1.10366 0
M  V30 229 H 18.7362 -4.06215 1.12104 0
M  V30 230 H 17.4602 -3.26154 0.170631 0
M  V30 231 H 16.1192 -2.8797 2.26868 0
M  V30 232 H 15.7672 -4.94759 0.906796 0
M  V30 233 H 15.4672 -5.25139 2.63634 0
M  V30 234 H 16.9912 -5.80694 1.88749 0
M  V30 235 H 18.4052 -4.40227 3.67251 0
M  V30 236 H 16.8022 -4.08405 4.39688 0
M  V30 237 H 17.8722 -2.72404 4.01154 0
M  V30 238 N 19.2153 -1.21501 -1.00376 0
M  V30 239 C 20.1453 -0.999478 -2.11028 0
M  V30 240 C 21.1263 0.0759671 -1.6993 0
M  V30 241 O 22.3113 -0.0841106 -1.94018 0
M  V30 242 C 19.4413 -0.564709 -3.42678 0
M  V30 243 C 18.3953 -1.58486 -3.97576 0
M  V30 244 C 17.7213 -1.00628 -5.25146 0
M  V30 245 C 19.0213 -2.97204 -4.29496 0
M  V30 246 H 20.7153 -1.92495 -2.29317 0
M  V30 247 H 18.2613 -0.92693 -1.102 0
M  V30 248 H 20.2143 -0.401091 -4.19487 0
M  V30 249 H 18.9383 0.396411 -3.24185 0
M  V30 250 H 17.5973 -1.73606 -3.22888 0
M  V30 251 H 17.2453 -0.0368439 -5.02987 0
M  V30 252 H 16.9453 -1.68771 -5.62841 0
M  V30 253 H 18.4693 -0.854015 -6.04598 0
M  V30 254 H 19.8833 -2.8552 -4.97143 0
M  V30 255 H 18.2803 -3.62372 -4.78338 0
M  V30 256 H 19.3503 -3.47956 -3.3772 0
M  V30 257 N 20.6934 1.19889 -1.02296 0
M  V30 258 C 22.1044 1.71124 -0.746568 0
M  V30 259 C 22.4554 1.81939 0.734335 0
M  V30 260 O 21.5804 1.48639 1.57275 0
M  V30 261 C 22.1754 3.10804 -1.34857 0
M  V30 262 C 20.7344 3.59323 -1.1209 0
M  V30 263 C 19.8814 2.3635 -1.45031 0
M  V30 264 H 22.8324 1.04813 -1.19163 0
M  V30 265 H 22.8534 3.73186 -0.742437 0
M  V30 266 H 22.3654 3.029 -2.42638 0
M  V30 267 H 20.4664 3.7255 -0.0610337 0
M  V30 268 H 20.5794 4.4378 -1.80544 0
M  V30 269 H 18.9434 2.39399 -0.869487 0
M  V30 270 H 19.7264 2.31081 -2.53883 0
M  V30 271 N 22.1715 0.800033 1.35784 0
M  V30 272 C 23.4195 0.376597 1.9856 0
M  V30 273 C 23.7405 -1.05812 1.63795 0
M  V30 274 O 23.0105 -1.73103 0.917171 0
M  V30 275 H 21.5905 0.136261 0.734467 0
M  V30 276 H 24.2525 1.02442 1.65806 0
M  V30 277 H 23.3485 0.477002 3.08433 0
M  V30 278 N 23.6496 -1.47581 0.552962 0
M  V30 279 C 24.5796 -2.32762 -0.185451 0
M  V30 280 C 25.5606 -1.43527 -0.912905 0
M  V30 281 O 26.7456 -1.72388 -0.894201 0
M  V30 282 C 23.8756 -3.25219 -1.21859 0
M  V30 283 C 22.8296 -4.23661 -0.607864 0
M  V30 284 C 22.1556 -5.05413 -1.74533 0
M  V30 285 C 23.4556 -5.20481 0.435582 0
M  V30 286 H 25.1496 -2.94749 0.525684 0
M  V30 287 H 22.6956 -1.41738 0.254251 0
M  V30 288 H 24.6486 -3.8365 -1.7433 0
M  V30 289 H 23.3726 -2.61279 -1.95961 0
M  V30 290 H 22.0316 -3.66451 -0.104489 0
M  V30 291 H 21.6796 -4.3788 -2.47529 0
M  V30 292 H 21.3796 -5.72059 -1.34249 0
M  V30 293 H 22.9036 -5.66701 -2.27338 0
M  V30 294 H 24.3176 -5.733 -0.00290157 0
M  V30 295 H 22.7146 -5.95305 0.757067 0
M  V30 296 H 23.7846 -4.66217 1.33303 0
M  V30 297 N 25.1277 -0.289203 -1.54924 0
M  V30 298 C 26.3757 0.322879 -1.99504 0
M  V30 299 C 26.6967 1.55313 -1.1791 0
M  V30 300 O 25.9667 1.94001 -0.272097 0
M  V30 301 H 24.5467 0.122291 -0.736922 0
M  V30 302 H 27.2087 -0.397802 -1.90797 0
M  V30 303 H 26.3047 0.603061 -3.06218 0
M  V30 304 N 26.6058 1.57591 -0.0167156 0
M  V30 305 C 27.8548 1.90461 0.663877 0
M  V30 306 C 28.1678 0.893515 1.73999 0
M  V30 307 O 29.3738 1.11302 2.47637 0
M  V30 308 C 27.8298 3.38155 1.23204 0
M  V30 309 C 27.4378 4.47597 0.189866 0
M  V30 310 C 29.1818 3.80111 1.88986 0
M  V30 311 C 27.0888 5.86379 0.768964 0
M  V30 312 H 26.0188 0.710738 0.251729 0
M  V30 313 H 28.6698 1.83326 -0.0799926 0
M  V30 314 H 27.0518 3.40182 2.02712 0
M  V30 315 H 28.2258 4.57112 -0.581846 0
M  V30 316 H 26.5408 4.14766 -0.368475 0
M  V30 317 H 29.1378 4.81145 2.33247 0
M  V30 318 H 29.4808 3.14511 2.72743 0
M  V30 319 H 30.0138 3.80454 1.16187 0
M  V30 320 H 26.7528 6.55493 -0.0301957 0
M  V30 321 H 26.2728 5.80496 1.50945 0
M  V30 322 H 27.9518 6.34563 1.26251 0
M  V30 323 N 28.0839 -0.256276 1.55502 0
M  V30 324 C 29.3309 -0.985619 1.76895 0
M  V30 325 C 29.6589 -1.85671 0.579355 0
M  V30 326 O 28.9139 -1.90744 -0.437651 0
M  V30 327 C 29.2129 -1.88432 3.03691 0
M  V30 328 C 28.8789 -1.16936 4.35473 0
M  V30 329 C 27.5409 -0.97173 4.71286 0
M  V30 330 C 29.8929 -0.661889 5.1698 0
M  V30 331 C 27.2209 -0.254179 5.86149 0
M  V30 332 C 29.5729 0.042149 6.32586 0
M  V30 333 C 28.2369 0.25134 6.67027 0
M  V30 334 H 27.5069 -0.360663 0.647304 0
M  V30 335 H 30.1539 -0.256483 1.89775 0
M  V30 336 H 28.4589 -2.68021 2.85783 0
M  V30 337 H 30.1559 -2.45015 3.1744 0
M  V30 338 H 26.7459 -1.33332 4.07333 0
M  V30 339 H 30.9299 -0.802145 4.89775 0
M  V30 340 H 26.1859 -0.0815408 6.11346 0
M  V30 341 H 30.3599 0.443049 6.94989 0
M  V30 342 H 27.9869 0.809314 7.5588 0
M  V30 343 N 29.562 -1.4872 -0.521534 0
M  V30 344 C 30.81 -1.56857 -1.27437 0
M  V30 345 C 31.131 -0.247982 -1.93417 0
M  V30 346 O 30.401 0.731151 -1.81744 0
M  V30 347 H 28.981 -0.577885 -0.473347 0
M  V30 348 H 31.643 -1.85233 -0.606205 0
M  V30 349 H 30.739 -2.35402 -2.0492 0
M  V30 350 N 31.0401 0.771051 -1.3745 0
M  V30 351 C 32.2651 1.56529 -1.36065 0
M  V30 352 C 32.6901 1.88029 0.0515859 0
M  V30 353 O 32.0481 1.49282 1.02882 0
M  V30 354 C 32.0961 2.85187 -2.20683 0
M  V30 355 O 31.2001 3.79593 -1.61193 0
M  V30 356 H 30.5411 0.47411 -0.464883 0
M  V30 357 H 33.0711 0.954269 -1.80983 0
M  V30 358 H 33.0811 3.34283 -2.33921 0
M  V30 359 H 31.7561 2.61588 -3.23334 0
M  V30 360 H 30.3331 3.38239 -1.56999 0
M  V30 361 N 32.5182 1.22032 0.997298 0
M  V30 362 C 33.7462 1.06841 1.7718 0
M  V30 363 C 34.1612 -0.381325 1.84909 0
M  V30 364 O 33.5182 -1.26437 1.31605 0
M  V30 365 C 33.5692 1.66814 3.20711 0
M  V30 366 O 33.2902 3.06116 3.13408 0
M  V30 367 C 34.7912 1.56838 4.14628 0
M  V30 368 H 32.0112 0.374782 0.556578 0
M  V30 369 H 34.5552 1.61532 1.2541 0
M  V30 370 H 32.7102 1.16196 3.69564 0
M  V30 371 H 33.1242 3.34926 4.0364 0
M  V30 372 H 34.5982 2.03532 5.13107 0
M  V30 373 H 35.0752 0.524155 4.36061 0
M  V30 374 H 35.6812 2.06741 3.7167 0
M  V30 375 N 33.9963 -1.19345 1.0293 0
M  V30 376 C 35.2213 -1.93538 0.745511 0
M  V30 377 C 35.6463 -1.75007 -0.689511 0
M  V30 378 O 35.0043 -1.05265 -1.47611 0
M  V30 379 C 35.0523 -3.43336 1.10239 0
M  V30 380 O 34.1563 -4.11806 0.221289 0
M  V30 381 H 33.4973 -0.604193 0.275404 0
M  V30 382 H 36.0273 -1.5141 1.37609 0
M  V30 383 H 36.0373 -3.94004 1.05947 0
M  V30 384 H 34.7123 -3.56146 2.14786 0
M  V30 385 H 33.2893 -3.715 0.322842 0
M  V30 386 N 35.4744 -0.807222 -1.35358 0
M  V30 387 C 36.7024 -0.400377 -2.02989 0
M  V30 388 C 37.1174 0.988859 -1.60832 0
M  V30 389 O 36.4744 1.63729 -0.806175 0
M  V30 390 C 36.5254 -0.474867 -3.58368 0
M  V30 391 O 36.2464 -1.80933 -3.98992 0
M  V30 392 C 37.7474 -0.0609112 -4.43258 0
M  V30 393 H 34.9674 -0.162587 -0.651004 0
M  V30 394 H 37.5114 -1.09102 -1.72965 0
M  V30 395 H 35.6664 0.167534 -3.87038 0
M  V30 396 H 36.0804 -1.77256 -4.9364 0
M  V30 397 H 37.5544 -0.164145 -5.51756 0
M  V30 398 H 38.0314 0.993831 -4.27808 0
M  V30 399 H 38.6374 -0.676492 -4.19885 0
M  V30 400 N 36.9525 1.47285 -0.560781 0
M  V30 401 C 38.1985 2.02764 -0.0381184 0
M  V30 402 C 38.5315 1.43384 1.30976 0
M  V30 403 O 37.8065 0.590733 1.85312 0
M  V30 404 C 38.0895 3.60064 0.0511427 0
M  V30 405 C 37.9425 4.2987 -1.32408 0
M  V30 406 C 39.2615 4.33439 0.762795 0
M  V30 407 H 36.3805 0.736841 -0.0153264 0
M  V30 408 H 39.0225 1.75675 -0.723759 0
M  V30 409 H 37.1725 3.83274 0.635065 0
M  V30 410 H 38.8445 4.17989 -1.95148 0
M  V30 411 H 37.0875 3.90085 -1.8978 0
M  V30 412 H 37.7585 5.38478 -1.21431 0
M  V30 413 H 40.2345 4.15243 0.266965 0
M  V30 414 H 39.1105 5.43124 0.794221 0
M  V30 415 H 39.3715 4.02915 1.81966 0
M  V30 416 N 38.4306 0.297415 1.54768 0
M  V30 417 C 39.6586 -0.315623 2.04478 0
M  V30 418 C 40.0736 -1.47792 1.17486 0
M  V30 419 O 39.4306 -1.81404 0.19971 0
M  V30 420 C 39.4816 -0.7753 3.53088 0
M  V30 421 O 39.2026 0.340732 4.36773 0
M  V30 422 C 40.7036 -1.45386 4.18781 0
M  V30 423 H 37.9236 -0.0690887 0.667434 0
M  V30 424 H 40.4676 0.436003 1.99798 0
M  V30 425 H 38.6226 -1.47696 3.58141 0
M  V30 426 H 39.0366 -0.0165035 5.24497 0
M  V30 427 H 40.5106 -1.72669 5.24299 0
M  V30 428 H 40.9876 -2.39275 3.68299 0
M  V30 429 H 41.5936 -0.795475 4.17795 0
M  V30 430 N 39.9087 -1.5758 0.0250728 0
M  V30 431 C 40.8387 -2.13007 -0.956575 0
M  V30 432 C 41.8197 -1.0452 -1.342 0
M  V30 433 O 43.0047 -1.32332 -1.42133 0
M  V30 434 C 40.1347 -2.65386 -2.24026 0
M  V30 435 C 39.0887 -3.78623 -1.99571 0
M  V30 436 C 38.4147 -4.17414 -3.3417 0
M  V30 437 C 39.7147 -5.04867 -1.33814 0
M  V30 438 H 41.4087 -2.9528 -0.494991 0
M  V30 439 H 38.9547 -1.42042 -0.236651 0
M  V30 440 H 40.9077 -3.02794 -2.93076 0
M  V30 441 H 39.6317 -1.80268 -2.72343 0
M  V30 442 H 38.2907 -3.41646 -1.32941 0
M  V30 443 H 37.9387 -3.29284 -3.80238 0
M  V30 444 H 37.6387 -4.93719 -3.18615 0
M  V30 445 H 39.1627 -4.57402 -4.04495 0
M  V30 446 H 40.5767 -5.39888 -1.92857 0
M  V30 447 H 38.9737 -5.86144 -1.28669 0
M  V30 448 H 40.0437 -4.83904 -0.310561 0
M  V30 449 N 41.3868 0.248026 -1.55636 0
M  V30 450 C 42.7978 0.817177 -1.67866 0
M  V30 451 C 43.1488 1.86069 -0.622322 0
M  V30 452 O 42.2738 2.15157 0.231618 0
M  V30 453 C 42.8688 1.489 -3.04326 0
M  V30 454 C 41.4278 2.00587 -3.185 0
M  V30 455 C 40.5748 0.856573 -2.63739 0
M  V30 456 H 43.5258 0.0238579 -1.58682 0
M  V30 457 H 43.5468 2.35698 -2.98708 0
M  V30 458 H 43.0588 0.729279 -3.81186 0
M  V30 459 H 41.1598 2.79443 -2.4646 0
M  V30 460 H 41.2728 2.20402 -4.25393 0
M  V30 461 H 39.6368 1.25678 -2.21534 0
M  V30 462 H 40.4198 0.109953 -3.43124 0
M  V30 463 N 42.8649 1.48995 0.513639 0
M  V30 464 C 43.7749 1.67443 1.64317 0
M  V30 465 C 44.7909 0.556947 1.64846 0
M  V30 466 O 45.9669 0.830082 1.83498 0
M  V30 467 C 43.0319 1.72515 3.00732 0
M  V30 468 C 42.0929 2.96009 3.1093 0
M  V30 469 C 41.3259 3.00829 4.40837 0
M  V30 470 O 41.5489 2.13594 5.28898 0
M  V30 471 O 40.4829 3.93168 4.55744 0
M  V30 472 H 44.3089 2.63106 1.51687 0
M  V30 473 H 41.8939 1.32588 0.688543 0
M  V30 474 H 43.7759 1.78277 3.81831 0
M  V30 475 H 42.4509 0.800278 3.13651 0
M  V30 476 H 41.3579 2.9577 2.29065 0
M  V30 477 H 42.6909 3.87934 3.02933 0
M  V30 478 N 44.343 -0.763751 1.37857 0
M  V30 479 C 45.571 -1.55293 1.36718 0
M  V30 480 C 45.986 -1.88745 -0.0455434 0
M  V30 481 O 45.343 -1.52039 -1.00947 0
M  V30 482 C 45.394 -2.85831 2.2132 0
M  V30 483 O 45.115 -2.5381 3.57089 0
M  V30 484 C 46.616 -3.80023 2.28249 0
M  V30 485 H 43.836 -0.480841 0.468009 0
M  V30 486 H 46.38 -0.946009 1.81303 0
M  V30 487 H 44.535 -3.42926 1.80223 0
M  V30 488 H 44.949 -3.37459 4.01524 0
M  V30 489 H 46.423 -4.68599 2.91752 0
M  V30 490 H 46.9 -4.1973 1.2932 0
M  V30 491 H 47.506 -3.28855 2.69693 0
M  V30 492 N 45.8211 -1.22559 -0.990812 0
M  V30 493 C 46.7511 -1.0218 -2.09956 0
M  V30 494 C 47.7321 0.0579394 -1.70001 0
M  V30 495 O 48.9171 -0.104684 -1.93918 0
M  V30 496 C 46.0471 -0.601023 -3.4206 0
M  V30 497 C 45.0011 -1.62694 -3.95872 0
M  V30 498 C 44.3271 -1.06193 -5.24049 0
M  V30 499 C 45.6271 -3.01743 -4.2632 0
M  V30 500 H 47.3211 -1.94916 -2.27262 0
M  V30 501 H 44.8671 -0.938566 -1.09211 0
M  V30 502 H 46.8201 -0.445561 -4.19038 0
M  V30 503 H 45.5441 0.362005 -3.24588 0
M  V30 504 H 44.2031 -1.77021 -3.21028 0
M  V30 505 H 43.8511 -0.0901903 -5.02919 0
M  V30 506 H 43.5511 -1.74732 -5.61019 0
M  V30 507 H 45.0751 -0.918092 -6.03658 0
M  V30 508 H 46.4891 -2.90777 -4.94087 0
M  V30 509 H 44.8861 -3.67425 -4.74467 0
M  V30 510 H 45.9561 -3.51518 -3.34011 0
M  V30 511 N 47.2992 1.18797 -1.03562 0
M  V30 512 C 48.2292 2.24472 -0.643019 0
M  V30 513 C 49.2102 1.66433 0.351283 0
M  V30 514 O 50.3952 1.92803 0.232505 0
M  V30 515 C 47.5252 3.473 4.24935e-05 0
M  V30 516 C 46.4792 4.18055 -0.917257 0
M  V30 517 C 45.8052 5.34519 -0.138941 0
M  V30 518 C 47.1052 4.72109 -2.23407 0
M  V30 519 H 48.7992 2.57566 -1.52643 0
M  V30 520 H 46.3452 1.23806 -0.735394 0
M  V30 521 H 48.2982 4.20426 0.286383 0
M  V30 522 H 47.0222 3.13424 0.918299 0
M  V30 523 H 45.6812 3.46821 -1.1879 0
M  V30 524 H 45.3292 4.96891 0.781562 0
M  V30 525 H 45.0292 5.82794 -0.750005 0
M  V30 526 H 46.5532 6.10438 0.1405 0
M  V30 527 H 47.9672 5.36955 -2.00879 0
M  V30 528 H 46.3642 5.30897 -2.79765 0
M  V30 529 H 47.4342 3.89807 -2.88407 0
M  V30 530 N 48.7773 0.814389 1.34928 0
M  V30 531 C 50.0243 0.398423 1.98542 0
M  V30 532 C 50.3523 -1.03638 1.64589 0
M  V30 533 O 49.6073 -1.73509 0.90516 0
M  V30 534 C 49.9063 0.537781 3.53331 0
M  V30 535 C 49.5723 1.93704 4.07172 0
M  V30 536 C 48.2343 2.31984 4.21589 0
M  V30 537 C 50.5863 2.85213 4.36237 0
M  V30 538 C 47.9143 3.61125 4.62391 0
M  V30 539 C 50.2663 4.13809 4.78482 0
M  V30 540 C 48.9303 4.52077 4.91104 0
M  V30 541 H 48.2003 0.145793 0.726516 0
M  V30 542 H 50.8473 1.03669 1.61012 0
M  V30 543 H 49.1523 -0.183906 3.91368 0
M  V30 544 H 50.8493 0.196588 4.00518 0
M  V30 545 H 47.4393 1.62966 3.96409 0
M  V30 546 H 51.6233 2.56885 4.24645 0
M  V30 547 H 46.8793 3.90612 4.70353 0
M  V30 548 H 51.0533 4.84811 4.99932 0
M  V30 549 H 48.6803 5.52196 5.22478 0
M  V30 550 N 50.2554 -1.46986 0.568584 0
M  V30 551 C 51.5014 -2.02741 0.0488709 0
M  V30 552 C 51.8344 -1.44077 -1.30214 0
M  V30 553 O 51.1094 -0.600552 -1.84996 0
M  V30 554 C 51.3924 -3.60086 -0.032047 0
M  V30 555 C 51.2454 -4.29162 1.34686 0
M  V30 556 C 52.5644 -4.33838 -0.739798 0
M  V30 557 H 49.6834 -0.736749 0.0192338 0
M  V30 558 H 52.3254 -1.75289 0.733065 0
M  V30 559 H 50.4754 -3.83606 -0.61473 0
M  V30 560 H 52.1474 -4.16948 1.97362 0
M  V30 561 H 50.3904 -3.89073 1.91846 0
M  V30 562 H 51.0614 -5.37826 1.24285 0
M  V30 563 H 53.5374 -4.15378 -0.244939 0
M  V30 564 H 52.4134 -5.43537 -0.765406 0
M  V30 565 H 52.6744 -4.03875 -1.79827 0
M  V30 566 N 51.7335 -0.305618 -1.54608 0
M  V30 567 C 52.9585 0.307562 -2.05107 0
M  V30 568 C 53.3835 1.46385 -1.18123 0
M  V30 569 O 52.7415 1.8034 -0.186324 0
M  V30 570 C 52.7895 0.73704 -3.52987 0
M  V30 571 O 51.8935 1.84134 -3.6901 0
M  V30 572 H 51.2345 0.0589143 -0.661381 0
M  V30 573 H 53.7645 -0.448807 -1.99617 0
M  V30 574 H 53.7745 1.02459 -3.94925 0
M  V30 575 H 52.4495 -0.108773 -4.15758 0
M  V30 576 H 51.0265 1.55398 -3.38978 0
M  V30 577 N 53.2116 1.57565 -0.0334293 0
M  V30 578 C 54.4396 1.9628 0.654347 0
M  V30 579 C 54.8546 0.910138 1.65414 0
M  V30 580 O 54.2116 -0.107595 1.82183 0
M  V30 581 C 54.2626 3.35067 1.35693 0
M  V30 582 O 53.9836 4.36296 0.397191 0
M  V30 583 C 55.4846 3.88439 2.13613 0
M  V30 584 H 52.7046 0.646369 0.180132 0
M  V30 585 H 55.2486 2.04282 -0.0944721 0
M  V30 586 H 53.4036 3.2827 2.05712 0
M  V30 587 H 53.8176 5.1678 0.896597 0
M  V30 588 H 55.2916 4.8788 2.58219 0
M  V30 589 H 55.7686 3.22914 2.97696 0
M  V30 590 H 56.3746 3.98516 1.48543 0
M  V30 591 N 54.6897 -0.239769 1.55765 0
M  V30 592 C 55.6197 -1.30052 1.9393 0
M  V30 593 C 56.6007 -1.49839 0.805132 0
M  V30 594 O 57.7857 -1.62328 1.06599 0
M  V30 595 C 54.9157 -2.65391 2.2402 0
M  V30 596 C 53.8697 -2.60289 3.39755 0
M  V30 597 C 53.1957 -3.99489 3.55405 0
M  V30 598 C 54.4957 -2.16654 4.75246 0
M  V30 599 H 56.1897 -0.983573 2.82783 0
M  V30 600 H 53.7357 -0.471701 1.36055 0
M  V30 601 H 55.6887 -3.3974 2.49308 0
M  V30 602 H 54.4127 -2.98736 1.32 0
M  V30 603 H 53.0717 -1.88398 3.14487 0
M  V30 604 H 52.7197 -4.30112 2.60793 0
M  V30 605 H 52.4197 -3.96962 4.33238 0
M  V30 606 H 53.9437 -4.75528 3.83022 0
M  V30 607 H 55.3577 -2.80737 4.99859 0
M  V30 608 H 53.7547 -2.25223 5.56232 0
M  V30 609 H 54.8247 -1.11835 4.71827 0
M  V30 610 N 56.1678 -1.49265 -0.50573 0
M  V30 611 C 57.4448 -1.49012 -1.26707 0
M  V30 612 C 57.8248 -0.215205 -2.1 0
M  V30 613 O 57.1728 0.802547 -2.13943 0
M  V30 614 C 57.3828 -2.7663 -2.12783 0
M  V30 615 C 58.7308 -3.25932 -2.72127 0
M  V30 616 O 59.7548 -2.77715 -2.23054 0
M  V30 617 O 58.6138 -4.09897 -3.61451 0
M  V30 618 H 55.7078 -0.596197 -0.57313 0
M  V30 619 H 58.2538 -1.61524 -0.52039 0
M  V30 620 H 57.0258 -3.60916 -1.5118 0
M  V30 621 H 56.6488 -2.66956 -2.94653 0
M  V30 622 N 57.6459 0.756429 -1.3826 0
M  V30 623 C 58.8939 1.51248 -1.34047 0
M  V30 624 C 59.2149 1.94875 0.0698372 0
M  V30 625 O 58.4849 1.67436 1.01696 0
M  V30 626 H 57.0649 0.561018 -0.493222 0
M  V30 627 H 59.7269 0.899347 -1.7291 0
M  V30 628 H 58.8229 2.40472 -1.98947 0
M  V30 629 N 59.124 1.23083 0.984299 0
M  V30 630 C 60.349 1.088 1.76571 0
M  V30 631 C 60.774 -0.356657 1.84688 0
M  V30 632 O 60.132 -1.25788 1.30565 0
M  V30 633 C 60.18 1.71371 3.17277 0
M  V30 634 O 59.284 0.973213 4.00752 0
M  V30 635 H 58.625 0.381599 0.543395 0
M  V30 636 H 61.155 1.63057 1.23587 0
M  V30 637 H 61.165 1.76449 3.67872 0
M  V30 638 H 59.84 2.76493 3.10684 0
M  V30 639 H 58.417 0.999078 3.59267 0
M  V30 640 N 60.6021 -1.18246 1.0419 0
M  V30 641 C 61.5321 -2.24127 0.654914 0
M  V30 642 C 62.5131 -1.66617 -0.342451 0
M  V30 643 O 63.6981 -1.92924 -0.222277 0
M  V30 644 C 60.8281 -3.47295 0.0183757 0
M  V30 645 C 59.7821 -4.17563 0.939414 0
M  V30 646 C 59.1081 -5.34438 0.167286 0
M  V30 647 C 60.4081 -4.70917 2.25908 0
M  V30 648 H 62.1021 -2.56753 1.54007 0
M  V30 649 H 59.6481 -1.23414 0.74195 0
M  V30 650 H 61.6011 -4.20572 -0.264082 0
M  V30 651 H 60.3251 -3.13907 -0.901664 0
M  V30 652 H 58.9841 -3.46186 1.20628 0
M  V30 653 H 58.6321 -4.97298 -0.7552 0
M  V30 654 H 58.3321 -5.82388 0.780901 0
M  V30 655 H 59.8561 -6.10504 -0.108125 0
M  V30 656 H 61.2701 -5.35882 2.03724 0
M  V30 657 H 59.6671 -5.29406 2.82577 0
M  V30 658 H 60.7371 -3.88272 2.9047 0
M  V30 659 N 62.0802 -0.821533 -1.34494 0
M  V30 660 C 63.0302 -0.214793 -2.26986 0
M  V30 661 C 64.0142 0.620125 -1.4847 0
M  V30 662 O 65.2062 0.474933 -1.70509 0
M  V30 663 C 62.3352 0.623566 -3.37589 0
M  V30 664 C 61.4212 -0.221904 -4.23519 0
M  V30 665 N 61.8122 -1.29223 -4.89014 0
M  V30 666 C 60.1102 -0.00600922 -4.46 0
M  V30 667 C 60.8112 -1.80965 -5.52835 0
M  V30 668 N 59.7872 -1.11376 -5.32068 0
M  V30 669 H 63.5892 -1.03354 -2.75128 0
M  V30 670 H 61.1032 -0.6642 -1.48196 0
M  V30 671 H 63.1002 1.0744 -4.02818 0
M  V30 672 H 61.7602 1.44049 -2.90998 0
M  V30 673 H 62.7712 -1.67502 -4.90065 0
M  V30 674 H 59.4482 0.77886 -4.10171 0
M  V30 675 H 60.8382 -2.70502 -6.15043 0
M  V30 676 N 63.5583 1.46682 -0.576371 0
M  V30 677 C 64.5213 2.28707 0.150239 0
M  V30 678 C 65.5213 1.38035 0.824794 0
M  V30 679 O 66.7113 1.60476 0.677719 0
M  V30 680 C 63.8433 3.18248 1.22192 0
M  V30 681 H 65.0363 2.94423 -0.570521 0
M  V30 682 H 62.5893 1.52688 -0.334078 0
M  V30 683 H 63.3243 2.57265 1.97447 0
M  V30 684 H 63.1093 3.85 0.742812 0
M  V30 685 H 64.5993 3.80001 1.73172 0
M  V30 686 N 65.0364 0.313813 1.54444 0
M  V30 687 C 66.2824 -0.292108 2.00685 0
M  V30 688 C 66.6154 -1.52548 1.20177 0
M  V30 689 O 65.8904 -1.92452 0.281531 0
M  V30 690 C 66.1734 -0.635968 3.5444 0
M  V30 691 C 66.0264 0.607437 4.4568 0
M  V30 692 C 67.3454 -1.45747 4.15266 0
M  V30 693 H 64.4644 -0.104697 0.729526 0
M  V30 694 H 67.1064 0.428457 1.85106 0
M  V30 695 H 65.2564 -1.24986 3.67846 0
M  V30 696 H 66.9284 1.24581 4.44159 0
M  V30 697 H 65.1714 1.23822 4.15753 0
M  V30 698 H 65.8424 0.322515 5.51057 0
M  V30 699 H 68.3184 -0.938645 4.05375 0
M  V30 700 H 67.1944 -1.66683 5.2298 0
M  V30 701 H 67.4554 -2.45063 3.67963 0
M  V30 702 N 66.5145 -1.57545 0.0417849 0
M  V30 703 C 67.7395 -1.97035 -0.647455 0
M  V30 704 C 68.1645 -0.918775 -1.64135 0
M  V30 705 O 67.5225 0.119006 -1.80909 0
M  V30 706 C 67.5705 -3.35609 -1.31905 0
M  V30 707 O 66.6745 -3.3287 -2.43457 0
M  V30 708 H 66.0155 -0.64211 -0.169086 0
M  V30 709 H 68.5455 -2.04318 0.107399 0
M  V30 710 H 68.5555 -3.72126 -1.67291 0
M  V30 711 H 67.2305 -4.11685 -0.590586 0
M  V30 712 H 65.8075 -3.08087 -2.10088 0
M  V30 713 N 67.9926 0.231505 -1.5589 0
M  V30 714 C 68.9396 1.28682 -1.91598 0
M  V30 715 C 69.9096 1.47071 -0.771974 0
M  V30 716 O 71.0946 1.60802 -1.027 0
M  V30 717 C 68.2346 2.6342 -2.22944 0
M  V30 718 C 67.3476 2.52912 -3.50228 0
M  V30 719 C 66.4826 3.80106 -3.7107 0
M  V30 720 C 65.5216 3.64279 -4.91902 0
M  V30 721 N 64.6586 4.834 -5.09184 0
M  V30 722 H 69.4986 0.975305 -2.81588 0
M  V30 723 H 67.0356 0.470299 -1.39379 0
M  V30 724 H 68.9936 3.41869 -2.39126 0
M  V30 725 H 67.6236 2.92687 -1.36139 0
M  V30 726 H 66.6756 1.6595 -3.42294 0
M  V30 727 H 67.9876 2.37133 -4.38827 0
M  V30 728 H 67.1416 4.66999 -3.87295 0
M  V30 729 H 65.8806 3.98799 -2.80733 0
M  V30 730 H 64.8856 2.7577 -4.75637 0
M  V30 731 H 66.1106 3.47067 -5.83714 0
M  V30 732 H 64.0566 5.02425 -4.21788 0
M  V30 733 H 63.9736 4.70311 -5.91898 0
M  V30 734 H 65.2416 5.71747 -5.29835 0
M  V30 735 N 69.4707 1.49531 0.497807 0
M  V30 736 C 70.8867 1.36365 0.829266 0
M  V30 737 C 71.0867 0.399184 1.97506 0
M  V30 738 O 70.1427 -0.167977 2.51941 0
M  V30 739 C 71.4557 2.77153 1.16647 0
M  V30 740 C 73.0037 2.85877 1.27449 0
M  V30 741 C 73.4787 4.2744 1.64497 0
M  V30 742 N 74.9697 4.30265 1.7154 0
M  V30 743 C 75.7047 5.3677 2.01656 0
M  V30 744 N 75.2007 6.53516 2.29976 0
M  V30 745 N 76.9937 5.24189 2.02934 0
M  V30 746 H 69.1447 2.10831 -0.257703 0
M  V30 747 H 71.4077 0.946534 -0.0527091 0
M  V30 748 H 71.1137 3.49442 0.397872 0
M  V30 749 H 70.9877 3.12722 2.10915 0
M  V30 750 H 73.3747 2.13824 2.0338 0
M  V30 751 H 73.4557 2.53887 0.312244 0
M  V30 752 H 73.0997 5.00021 0.891151 0
M  V30 753 H 73.0297 4.56896 2.61827 0
M  V30 754 H 75.5207 3.4607 1.51802 0
M  V30 755 H 75.8337 7.30506 2.52153 0
M  V30 756 H 74.1787 6.56737 2.27425 0
M  V30 757 H 77.3697 4.31988 1.80289 0
M  V30 758 H 77.5427 6.07286 2.26071 0
M  V30 759 N 70.9488 -0.749086 1.3866 0
M  V30 760 C 72.1768 -1.53834 1.38358 0
M  V30 761 C 72.5918 -1.88783 -0.0255219 0
M  V30 762 O 71.9488 -1.53101 -0.993292 0
M  V30 763 C 71.9998 -2.83468 2.2434 0
M  V30 764 O 71.7208 -2.50008 3.5976 0
M  V30 765 C 73.2218 -3.7758 2.32267 0
M  V30 766 H 70.4418 -0.47585 0.473083 0
M  V30 767 H 72.9858 -0.926726 1.82297 0
M  V30 768 H 71.1408 -3.40995 1.83851 0
M  V30 769 H 71.5548 -3.33182 4.05081 0
M  V30 770 H 73.0288 -4.65478 2.96706 0
M  V30 771 H 73.5058 -4.18334 1.33765 0
M  V30 772 H 74.1118 -3.25976 2.73166 0
M  V30 773 N 72.4269 -1.23603 -0.977757 0
M  V30 774 C 73.6749 -1.06759 -1.71601 0
M  V30 775 C 73.9959 0.395929 -1.90938 0
M  V30 776 O 73.2659 1.28356 -1.47992 0
M  V30 777 H 71.8459 -0.392062 -0.635843 0
M  V30 778 H 74.5079 -1.55362 -1.1768 0
M  V30 779 H 73.6039 -1.55763 -2.70452 0
M  V30 780 N 73.905 1.17692 -1.04816 0
M  V30 781 C 75.13 1.92327 -0.776207 0
M  V30 782 C 75.555 1.76082 0.661581 0
M  V30 783 O 74.913 1.076 1.45917 0
M  V30 784 C 74.961 3.41539 -1.15687 0
M  V30 785 O 74.065 4.11402 -0.286775 0
M  V30 786 H 73.406 0.599735 -0.284981 0
M  V30 787 H 75.936 1.49201 -1.4 0
M  V30 788 H 75.946 3.92269 -1.12202 0
M  V30 789 H 74.621 3.52684 -2.20425 0
M  V30 790 H 73.198 3.70939 -0.381903 0
M  V30 791 N 75.3831 0.828654 1.34056 0
M  V30 792 C 76.6321 0.415828 1.97367 0
M  V30 793 C 76.9451 -1.02796 1.6641 0
M  V30 794 O 78.1511 -1.54497 2.23255 0
M  V30 795 C 76.6071 0.692601 3.53173 0
M  V30 796 C 76.2151 2.15038 3.93017 0
M  V30 797 C 77.9591 0.346222 4.23086 0
M  V30 798 C 75.8661 2.37174 5.41758 0
M  V30 799 H 74.7961 0.151755 0.738571 0
M  V30 800 H 77.4471 1.01581 1.52819 0
M  V30 801 H 75.8291 0.0223764 3.95994 0
M  V30 802 H 77.0031 2.86024 3.61285 0
M  V30 803 H 75.3181 2.45875 3.36057 0
M  V30 804 H 77.9151 0.48937 5.32456 0
M  V30 805 H 78.2581 -0.709842 4.10204 0
M  V30 806 H 78.7911 0.971258 3.85761 0
M  V30 807 H 75.5301 3.41308 5.59633 0
M  V30 808 H 75.0501 1.70738 5.74986 0
M  V30 809 H 76.7291 2.19818 6.08514 0
M  V30 810 N 76.8612 -1.46375 0.584142 0
M  V30 811 C 77.8082 -2.30323 -0.148286 0
M  V30 812 C 78.7782 -1.40703 -0.882713 0
M  V30 813 O 79.9632 -1.69651 -0.873099 0
M  V30 814 C 77.1032 -3.25196 -1.15507 0
M  V30 815 C 76.2162 -4.29915 -0.423943 0
M  V30 816 C 75.3512 -5.11914 -1.41838 0
M  V30 817 C 74.3902 -6.08381 -0.673736 0
M  V30 818 N 73.5272 -6.83242 -1.6163 0
M  V30 819 H 78.3672 -2.92427 0.573644 0
M  V30 820 H 75.9042 -1.44118 0.294703 0
M  V30 821 H 77.8622 -3.78646 -1.75166 0
M  V30 822 H 76.4922 -2.64898 -1.8447 0
M  V30 823 H 75.5442 -3.7931 0.287714 0
M  V30 824 H 76.8562 -4.98549 0.158128 0
M  V30 825 H 76.0102 -5.69648 -2.08773 0
M  V30 826 H 74.7492 -4.43243 -2.03438 0
M  V30 827 H 73.7542 -5.49799 0.00938483 0
M  V30 828 H 74.9792 -6.79071 -0.0631082 0
M  V30 829 H 72.9252 -6.1728 -2.22038 0
M  V30 830 H 72.8422 -7.48144 -1.08707 0
M  V30 831 H 74.1102 -7.45534 -2.27596 0
M  V30 832 N 78.3393 -0.321999 -1.54275 0
M  V30 833 C 79.5853 0.274234 -2.01543 0
M  V30 834 C 79.9403 1.499 -1.20614 0
M  V30 835 O 79.2333 1.89546 -0.279804 0
M  V30 836 C 79.4273 0.661769 -3.5122 0
M  V30 837 C 79.2563 -0.523892 -4.46638 0
M  V30 838 C 78.0263 -1.02251 -4.94846 0
M  V30 839 C 80.2243 -1.37558 -4.95563 0
M  V30 840 N 78.2063 -2.17274 -5.74165 0
M  V30 841 C 79.5773 -2.37301 -5.7279 0
M  V30 842 C 81.6323 -1.40353 -4.77709 0
M  V30 843 C 80.3353 -3.3964 -6.34064 0
M  V30 844 C 82.3613 -2.41562 -5.39817 0
M  V30 845 C 81.7233 -3.40031 -6.16894 0
M  V30 846 H 77.8223 0.0642367 -0.779357 0
M  V30 847 H 80.4063 -0.456683 -1.89268 0
M  V30 848 H 78.5773 1.36182 -3.63743 0
M  V30 849 H 80.3093 1.23934 -3.85256 0
M  V30 850 H 77.0643 -0.594046 -4.6986 0
M  V30 851 H 77.4883 -2.75289 -6.18502 0
M  V30 852 H 82.1303 -0.655907 -4.17681 0
M  V30 853 H 79.8483 -4.15309 -6.93213 0
M  V30 854 H 83.4343 -2.44524 -5.2792 0
M  V30 855 H 82.3143 -4.17063 -6.64099 0
M  V30 856 N 79.8174 1.5752 -0.0501392 0
M  V30 857 C 81.0454 1.96963 0.633492 0
M  V30 858 C 81.4604 0.927631 1.6444 0
M  V30 859 O 80.8174 -0.0882665 1.82286 0
M  V30 860 C 80.8684 3.36487 1.32132 0
M  V30 861 O 80.5894 4.36693 0.350894 0
M  V30 862 C 82.0904 3.90682 2.09481 0
M  V30 863 H 79.3104 0.648244 0.173266 0
M  V30 864 H 81.8544 2.0417 -0.116134 0
M  V30 865 H 80.0094 3.30434 2.02218 0
M  V30 866 H 80.4234 5.17702 0.841735 0
M  V30 867 H 81.8974 4.90591 2.5303 0
M  V30 868 H 82.3744 3.26053 2.94255 0
M  V30 869 H 82.9804 4.00069 1.44307 0
M  V30 870 N 81.2955 -0.223234 1.56011 0
M  V30 871 C 82.2255 -1.27988 1.95298 0
M  V30 872 C 83.2065 -1.48976 0.820979 0
M  V30 873 O 84.3915 -1.61188 1.08315 0
M  V30 874 C 81.5215 -2.63 2.26822 0
M  V30 875 C 80.4755 -2.56671 3.42497 0
M  V30 876 C 79.8015 -3.95697 3.59622 0
M  V30 877 C 81.1015 -2.11601 4.77517 0
M  V30 878 H 82.7955 -0.953525 2.8381 0
M  V30 879 H 80.3415 -0.457244 1.36548 0
M  V30 880 H 82.2945 -3.37077 2.52898 0
M  V30 881 H 81.0185 -2.9732 1.35161 0
M  V30 882 H 79.6775 -1.85051 3.16467 0
M  V30 883 H 79.3255 -4.27322 2.6534 0
M  V30 884 H 79.0255 -3.92345 4.37424 0
M  V30 885 H 80.5495 -4.71438 3.88044 0
M  V30 886 H 81.9635 -2.7542 5.02809 0
M  V30 887 H 80.3605 -2.19311 5.5859 0
M  V30 888 H 81.4305 -1.06824 4.72987 0
M  V30 889 N 82.7736 -1.49793 -0.48987 0
M  V30 890 C 83.7206 -1.67281 -1.59014 0
M  V30 891 C 84.6906 -0.514177 -1.57941 0
M  V30 892 O 85.8756 -0.742533 -1.75759 0
M  V30 893 C 83.0156 -1.75569 -2.97102 0
M  V30 894 C 82.1286 -3.0281 -3.08107 0
M  V30 895 C 81.2636 -3.02008 -4.36995 0
M  V30 896 C 80.3026 -4.23782 -4.41673 0
M  V30 897 N 79.4396 -4.20826 -5.62005 0
M  V30 898 H 84.2796 -2.61224 -1.43409 0
M  V30 899 H 81.8166 -1.29508 -0.697565 0
M  V30 900 H 83.7746 -1.78354 -3.77155 0
M  V30 901 H 82.4046 -0.850827 -3.11385 0
M  V30 902 H 81.4566 -3.09584 -2.21047 0
M  V30 903 H 82.7686 -3.92801 -3.07423 0
M  V30 904 H 81.9226 -3.03418 -5.25378 0
M  V30 905 H 80.6616 -2.09815 -4.4026 0
M  V30 906 H 79.6666 -4.22604 -3.5169 0
M  V30 907 H 80.8916 -5.17181 -4.40115 0
M  V30 908 H 78.8376 -3.31476 -5.66091 0
M  V30 909 H 78.7546 -5.04564 -5.62984 0
M  V30 910 H 80.0226 -4.26355 -6.52565 0
M  V30 911 N 84.2517 0.741722 -1.39055 0
M  V30 912 C 85.1617 1.88621 -1.39496 0
M  V30 913 C 86.1777 1.71557 -0.290578 0
M  V30 914 O 87.3537 1.94275 -0.530954 0
M  V30 915 C 84.4187 3.24134 -1.23037 0
M  V30 916 C 83.4797 3.5364 -2.43387 0
M  V30 917 C 82.7127 4.82687 -2.27703 0
M  V30 918 O 82.9357 5.55922 -1.27696 0
M  V30 919 O 81.8697 5.1194 -3.16545 0
M  V30 920 H 85.6957 1.91203 -2.35956 0
M  V30 921 H 83.2807 0.888625 -1.20099 0
M  V30 922 H 85.1627 4.0513 -1.15964 0
M  V30 923 H 83.8377 3.22337 -0.296691 0
M  V30 924 H 82.7447 2.72758 -2.56035 0
M  V30 925 H 84.0777 3.60209 -3.35425 0
M  V30 926 N 85.7298 1.2412 0.971189 0
M  V30 927 C 87.0068 0.986867 1.6888 0
M  V30 928 C 87.3868 -0.491857 2.0529 0
M  V30 929 O 86.7348 -1.46531 1.75331 0
M  V30 930 C 86.9448 1.9063 2.92338 0
M  V30 931 C 88.2928 2.17515 3.64654 0
M  V30 932 O 89.3168 1.88254 3.02388 0
M  V30 933 O 88.1758 2.6719 4.7673 0
M  V30 934 H 85.2698 0.372944 0.738134 0
M  V30 935 H 87.8158 1.35203 1.02559 0
M  V30 936 H 86.5878 2.90552 2.62097 0
M  V30 937 H 86.2108 1.54408 3.66393 0
M  V30 938 N 87.2079 -1.17134 1.05439 0
M  V30 939 C 88.6189 -1.69084 0.791676 0
M  V30 940 C 88.9699 -1.83822 -0.685839 0
M  V30 941 O 88.0949 -1.52757 -1.53278 0
M  V30 942 C 88.6899 -3.07119 1.4305 0
M  V30 943 C 87.2489 -3.56225 1.21577 0
M  V30 944 C 86.3959 -2.32421 1.51247 0
M  V30 945 H 89.3469 -1.01617 1.219 0
M  V30 946 H 89.3679 -3.71087 0.84112 0
M  V30 947 H 88.8799 -2.9636 2.50584 0
M  V30 948 H 86.9809 -3.72257 0.159787 0
M  V30 949 H 87.0939 -4.38837 1.92246 0
M  V30 950 H 85.4579 -2.3701 0.932653 0
M  V30 951 H 86.2409 -2.24268 2.5992 0
M  V30 952 N 88.686 -0.835752 -1.33615 0
M  V30 953 C 89.932 -0.430596 -1.98176 0
M  V30 954 C 90.265 1.00684 -1.66061 0
M  V30 955 O 89.54 1.70339 -0.938877 0
M  V30 956 C 89.823 -0.648065 -3.5422 0
M  V30 957 C 89.676 -2.13255 -3.96033 0
M  V30 958 C 90.995 -0.0922113 -4.40003 0
M  V30 959 H 88.114 -0.157924 -0.719881 0
M  V30 960 H 90.756 -1.05069 -1.58305 0
M  V30 961 H 88.906 -0.120237 -3.88314 0
M  V30 962 H 90.578 -2.725 -3.72211 0
M  V30 963 H 88.821 -2.61823 -3.45878 0
M  V30 964 H 89.492 -2.23547 -5.04708 0
M  V30 965 H 91.968 -0.543343 -4.12537 0
M  V30 966 H 90.844 -0.274083 -5.48215 0
M  V30 967 H 91.105 1.00378 -4.30554 0
M  V30 968 N 90.1641 1.46063 -0.591896 0
M  V30 969 C 91.0941 2.33172 0.123673 0
M  V30 970 C 92.0751 1.45897 0.87453 0
M  V30 971 O 93.2601 1.74698 0.848181 0
M  V30 972 C 90.3901 3.28336 1.13194 0
M  V30 973 C 89.3441 4.25124 0.495324 0
M  V30 974 C 88.6701 5.09863 1.61071 0
M  V30 975 C 89.9701 5.19143 -0.573425 0
M  V30 976 H 91.6641 2.93252 -0.603646 0
M  V30 977 H 89.2101 1.41014 -0.291741 0
M  V30 978 H 91.1631 3.88137 1.64097 0
M  V30 979 H 89.8871 2.66383 1.88965 0
M  V30 980 H 88.5461 3.66599 0.00729452 0
M  V30 981 H 88.1941 4.44288 2.35832 0
M  V30 982 H 87.8941 5.75417 1.19035 0
M  V30 983 H 89.4181 5.72529 2.12233 0
M  V30 984 H 90.8321 5.73106 -0.1491 0
M  V30 985 H 89.2291 5.93089 -0.914636 0
M  V30 986 H 90.2991 4.62519 -1.45617 0
M  V30 987 N 91.6422 0.330177 1.54103 0
M  V30 988 C 92.5742 -0.566902 2.22079 0
M  V30 989 C 93.5872 -1.07462 1.22294 0
M  V30 990 O 94.7762 -0.987065 1.48726 0
M  V30 991 C 91.8762 -1.79138 2.87685 0
M  V30 992 C 91.0492 -1.42123 4.13666 0
M  V30 993 C 90.1082 -2.50394 4.62806 0
M  V30 994 O 89.1342 -2.14261 5.27334 0
M  V30 995 N 90.3362 -3.81433 4.37595 0
M  V30 996 H 93.1012 0.0151844 2.99696 0
M  V30 997 H 90.6622 0.153681 1.61169 0
M  V30 998 H 92.6542 -2.50975 3.1748 0
M  V30 999 H 91.2242 -2.28115 2.13734 0
M  V30 1000 H 90.4442 -0.534201 3.90564 0
M  V30 1001 H 91.7322 -1.14971 4.9564 0
M  V30 1002 H 91.1302 -4.13584 3.8596 0
M  V30 1003 H 89.6872 -4.4948 4.72029 0
M  V30 1004 N 93.1203 -1.57491 0.0584922 0
M  V30 1005 C 94.3663 -1.93264 -0.614558 0
M  V30 1006 C 94.6993 -0.937717 -1.7006 0
M  V30 1007 O 93.9743 0.0351652 -1.94468 0
M  V30 1008 C 94.2573 -3.3938 -1.20386 0
M  V30 1009 C 94.1103 -4.49625 -0.125375 0
M  V30 1010 C 95.4293 -3.86039 -2.11334 0
M  V30 1011 H 92.5483 -0.702791 -0.221933 0
M  V30 1012 H 95.1903 -1.8961 0.12175 0
M  V30 1013 H 93.3403 -3.42626 -1.83139 0
M  V30 1014 H 95.0123 -4.58506 0.506971 0
M  V30 1015 H 93.2553 -4.30354 0.545672 0
M  V30 1016 H 93.9263 -5.48967 -0.577861 0
M  V30 1017 H 96.4023 -3.84716 -1.58534 0
M  V30 1018 H 95.2783 -4.88914 -2.49507 0
M  V30 1019 H 95.5393 -3.23215 -3.01636 0
M  V30 1020 N 94.5984 0.214957 -1.56127 0
M  V30 1021 C 96.0094 0.781386 -1.69562 0
M  V30 1022 C 96.3604 1.84707 -0.66165 0
M  V30 1023 O 95.4854 2.156 0.185927 0
M  V30 1024 C 96.0804 1.42411 -3.07416 0
M  V30 1025 C 94.6394 1.93786 -3.22683 0
M  V30 1026 C 93.7864 0.800438 -2.65496 0
M  V30 1027 H 96.7374 -0.00980633 -1.58697 0
M  V30 1028 H 96.7584 2.29309 -3.0364 0
M  V30 1029 H 96.2704 0.64826 -3.82648 0
M  V30 1030 H 94.3714 2.74152 -2.52332 0
M  V30 1031 H 94.4844 2.1133 -4.29973 0
M  V30 1032 H 92.8484 1.2095 -2.2415 0
M  V30 1033 H 93.6314 0.0371471 -3.4328 0
M  V30 1034 N 96.0765 1.50051 0.48192 0
M  V30 1035 C 97.3045 1.64237 1.25832 0
M  V30 1036 C 97.7195 0.321336 1.86045 0
M  V30 1037 O 97.0765 -0.695478 1.68729 0
M  V30 1038 C 97.1275 2.72548 2.37487 0
M  V30 1039 O 96.8485 3.99529 1.79745 0
M  V30 1040 C 98.3495 2.9761 3.28547 0
M  V30 1041 H 95.5695 0.55237 0.380957 0
M  V30 1042 H 98.1135 1.96207 0.576467 0
M  V30 1043 H 96.2685 2.43303 3.01467 0
M  V30 1044 H 96.6825 4.59342 2.5319 0
M  V30 1045 H 98.1565 3.77084 4.03127 0
M  V30 1046 H 98.6335 2.0826 3.86684 0
M  V30 1047 H 99.2395 3.28345 2.70314 0
M  V30 1048 N 97.5546 -0.734337 1.39446 0
M  V30 1049 C 98.5046 -1.83949 1.34709 0
M  V30 1050 C 99.4886 -1.59279 0.227851 0
M  V30 1051 O 100.681 -1.70771 0.465438 0
M  V30 1052 C 97.8096 -3.21884 1.19356 0
M  V30 1053 C 96.8956 -3.52381 2.35984 0
M  V30 1054 N 97.2866 -3.53811 3.61457 0
M  V30 1055 C 95.5846 -3.82747 2.28956 0
M  V30 1056 C 96.2856 -3.82122 4.38586 0
M  V30 1057 N 95.2616 -3.9993 3.68181 0
M  V30 1058 H 99.0636 -1.83361 2.29687 0
M  V30 1059 H 96.5776 -0.932609 1.32952 0
M  V30 1060 H 98.5746 -4.00998 1.14046 0
M  V30 1061 H 97.2346 -3.23711 0.253295 0
M  V30 1062 H 98.2456 -3.35107 3.94872 0
M  V30 1063 H 94.9226 -3.92175 1.43194 0
M  V30 1064 H 96.3126 -3.89691 5.47349 0
M  V30 1065 N 99.0327 -1.24633 -0.964593 0
M  V30 1066 C 100.279 -1.08949 -1.71049 0
M  V30 1067 C 100.612 0.370302 -1.90637 0
M  V30 1068 O 99.8867 1.27349 -1.47011 0
M  V30 1069 C 100.17 -1.83329 -3.0994 0
M  V30 1070 C 100.023 -3.37077 -2.97824 0
M  V30 1071 C 101.342 -1.60846 -4.09654 0
M  V30 1072 H 98.4607 -0.397178 -0.620821 0
M  V30 1073 H 101.103 -1.5334 -1.12191 0
M  V30 1074 H 99.2527 -1.45597 -3.60186 0
M  V30 1075 H 100.925 -3.84425 -2.5498 0
M  V30 1076 H 99.1677 -3.65298 -2.33965 0
M  V30 1077 H 99.8387 -3.84324 -3.96231 0
M  V30 1078 H 102.315 -1.93674 -3.68279 0
M  V30 1079 H 101.191 -2.1534 -5.04896 0
M  V30 1080 H 101.452 -0.547434 -4.38698 0
M  V30 1081 N 100.511 1.16574 -1.06058 0
M  V30 1082 C 101.421 2.2452 -0.680282 0
M  V30 1083 C 102.437 1.71348 0.302604 0
M  V30 1084 O 103.613 2.00822 0.152513 0
M  V30 1085 C 100.678 3.46629 -0.0700315 0
M  V30 1086 C 99.7388 4.14849 -1.10448 0
M  V30 1087 C 98.9718 5.31129 -0.523256 0
M  V30 1088 O 99.1948 5.66514 0.664709 0
M  V30 1089 O 98.1288 5.88526 -1.26179 0
M  V30 1090 H 101.955 2.59355 -1.58015 0
M  V30 1091 H 99.5398 1.24043 -0.832694 0
M  V30 1092 H 101.422 4.20543 0.268667 0
M  V30 1093 H 100.097 3.13573 0.803353 0
M  V30 1094 H 99.0038 3.42916 -1.49532 0
M  V30 1095 H 100.337 4.51954 -1.94931 0
M  V30 1096 N 101.989 0.842826 1.3317 0
M  V30 1097 C 102.899 0.281444 2.32906 0
M  V30 1098 C 103.915 -0.594587 1.63526 0
M  V30 1099 O 105.091 -0.49777 1.95152 0
M  V30 1100 C 102.156 -0.530929 3.42611 0
M  V30 1101 C 101.217 0.369843 4.27704 0
M  V30 1102 C 100.45 -0.403853 5.3217 0
M  V30 1103 O 100.673 -1.63513 5.46461 0
M  V30 1104 O 99.6069 0.224199 6.01482 0
M  V30 1105 H 103.433 1.10744 2.82789 0
M  V30 1106 H 101.018 0.60545 1.36582 0
M  V30 1107 H 102.9 -0.992437 4.09547 0
M  V30 1108 H 101.575 -1.33392 2.94938 0
M  V30 1109 H 100.482 0.879275 3.6362 0
M  V30 1110 H 101.815 1.13771 4.78871 0
M  V30 1111 N 103.467 -1.45747 0.599634 0
M  V30 1112 C 104.878 -1.85853 0.177681 0
M  V30 1113 C 105.229 -1.50102 -1.26348 0
M  V30 1114 O 104.354 -0.923905 -1.95686 0
M  V30 1115 C 104.949 -3.37326 0.315688 0
M  V30 1116 C 103.508 -3.76365 -0.0515144 0
M  V30 1117 C 102.655 -2.69722 0.643822 0
M  V30 1118 H 105.606 -1.36661 0.806814 0
M  V30 1119 H 105.627 -3.77778 -0.454321 0
M  V30 1120 H 105.139 -3.63315 1.36468 0
M  V30 1121 H 103.24 -3.55993 -1.09999 0
M  V30 1122 H 103.353 -4.77916 0.336594 0
M  V30 1123 H 101.717 -2.54567 0.0822881 0
M  V30 1124 H 102.5 -2.98549 1.6948 0
M  V30 1125 N 104.945 -0.338344 -1.53925 0
M  V30 1126 C 105.908 0.508299 -2.23493 0
M  V30 1127 C 106.908 1.03175 -1.23335 0
M  V30 1128 O 108.098 0.921826 -1.47811 0
M  V30 1129 C 105.23 1.70754 -2.95052 0
M  V30 1130 H 106.423 -0.100058 -2.99733 0
M  V30 1131 H 103.976 -0.0896198 -1.56043 0
M  V30 1132 H 104.711 2.35474 -2.22986 0
M  V30 1133 H 104.496 1.33946 -3.68512 0
M  V30 1134 H 105.986 2.30818 -3.48013 0
M  V30 1135 N 106.423 1.57458 -0.0668435 0
M  V30 1136 C 107.67 1.93301 0.603406 0
M  V30 1137 C 107.998 0.946486 1.69917 0
M  V30 1138 O 107.253 -0.0387021 1.95662 0
M  V30 1139 C 107.552 3.35784 1.22409 0
M  V30 1140 C 107.218 4.50179 0.254955 0
M  V30 1141 C 105.88 4.81199 -0.0116746 0
M  V30 1142 C 108.232 5.19598 -0.408338 0
M  V30 1143 C 105.56 5.78978 -0.94877 0
M  V30 1144 C 107.912 6.18381 -1.33372 0
M  V30 1145 C 106.576 6.47821 -1.60887 0
M  V30 1146 H 105.846 0.707338 0.220802 0
M  V30 1147 H 108.493 1.91012 -0.136665 0
M  V30 1148 H 106.798 3.34515 2.03978 0
M  V30 1149 H 108.495 3.60804 1.74989 0
M  V30 1150 H 105.085 4.25983 0.472954 0
M  V30 1151 H 109.269 4.95832 -0.215456 0
M  V30 1152 H 104.525 6.00115 -1.16925 0
M  V30 1153 H 108.699 6.71277 -1.85367 0
M  V30 1154 H 106.326 7.23399 -2.33661 0
M  V30 1155 N 107.901 -0.206675 1.56239 0
M  V30 1156 C 108.831 -1.25909 1.96645 0
M  V30 1157 C 109.812 -1.48097 0.836734 0
M  V30 1158 O 110.997 -1.6003 1.10019 0
M  V30 1159 C 108.127 -2.6058 2.29599 0
M  V30 1160 C 107.081 -2.53024 3.452 0
M  V30 1161 C 106.407 -3.91861 3.63798 0
M  V30 1162 C 107.707 -2.06524 4.79734 0
M  V30 1163 H 109.401 -0.923369 2.84806 0
M  V30 1164 H 106.947 -0.442735 1.37025 0
M  V30 1165 H 108.9 -3.34375 2.56459 0
M  V30 1166 H 107.624 -2.95869 1.38307 0
M  V30 1167 H 106.283 -1.81684 3.18412 0
M  V30 1168 H 105.931 -4.24483 2.69857 0
M  V30 1169 H 105.631 -3.87683 4.4156 0
M  V30 1170 H 107.155 -4.67296 3.93022 0
M  V30 1171 H 108.569 -2.70072 5.05702 0
M  V30 1172 H 106.966 -2.13374 5.60885 0
M  V30 1173 H 108.036 -1.01802 4.74093 0
M  V30 1174 N 109.379 -1.50304 -0.473955 0
M  V30 1175 C 110.79 -1.54042 -1.0549 0
M  V30 1176 C 111.141 -0.342248 -1.93192 0
M  V30 1177 O 110.266 0.545157 -2.09421 0
M  V30 1178 C 110.861 -2.79152 -1.91989 0
M  V30 1179 C 109.42 -2.8558 -2.45196 0
M  V30 1180 C 108.567 -2.48295 -1.2347 0
M  V30 1181 H 111.518 -1.5661 -0.256693 0
M  V30 1182 H 111.539 -2.60845 -2.7702 0
M  V30 1183 H 111.051 -3.66339 -1.28131 0
M  V30 1184 H 109.152 -2.02738 -3.12615 0
M  V30 1185 H 109.265 -3.88403 -2.80499 0
M  V30 1186 H 107.629 -2.00669 -1.56856 0
M  V30 1187 H 108.412 -3.37787 -0.612789 0
M  V30 1188 N 110.857 0.726932 -1.39834 0
M  V30 1189 C 112.134 1.47902 -1.28001 0
M  V30 1190 C 112.514 2.1083 0.106789 0
M  V30 1191 O 111.862 1.99242 1.11869 0
M  V30 1192 C 112.072 2.52392 -2.41038 0
M  V30 1193 C 113.42 3.18546 -2.80737 0
M  V30 1194 O 114.444 2.62708 -2.40547 0
M  V30 1195 O 113.303 4.19604 -3.50135 0
M  V30 1196 H 110.397 0.657163 -0.502062 0
M  V30 1197 H 112.943 0.760071 -1.51727 0
M  V30 1198 H 111.715 2.04329 -3.33715 0
M  V30 1199 H 111.338 3.31837 -2.19021 0
M  V30 1200 N 112.336 1.25143 0.95797 0
M  V30 1201 C 113.747 1.08851 1.51685 0
M  V30 1202 C 114.098 -0.33687 1.93286 0
M  V30 1203 O 113.223 -1.22644 1.7829 0
M  V30 1204 C 113.818 1.96978 2.75654 0
M  V30 1205 C 112.377 1.84881 3.27866 0
M  V30 1206 C 111.524 1.91329 2.0072 0
M  V30 1207 H 114.475 1.38478 0.77522 0
M  V30 1208 H 114.496 1.5078 3.4935 0
M  V30 1209 H 114.008 3.00712 2.45345 0
M  V30 1210 H 112.109 0.840182 3.63004 0
M  V30 1211 H 112.222 2.6951 3.96107 0
M  V30 1212 H 110.586 1.35174 2.15871 0
M  V30 1213 H 111.369 2.96661 1.72764 0
M  V30 1214 N 113.814 -1.1601 1.06675 0
M  V30 1215 C 114.762 -2.22586 0.675157 0
M  V30 1216 C 115.756 -1.66525 -0.310766 0
M  V30 1217 O 116.962 -1.79145 -0.175215 0
M  V30 1218 H 113.337 -0.724855 0.200223 0
M  V30 1219 H 115.308 -2.52899 1.58381 0
M  V30 1220 C 114.057 -3.47604 0.0817162 0
M  V30 1221 H 113.38 -3.91058 0.831484 0
M  V30 1222 H 114.82 -4.23718 -0.154708 0
M  V30 1223 C 113.279 -3.15718 -1.17576 0
M  V30 1224 O 113.809 -3.31878 -2.26318 0
M  V30 1225 N 112.015 -2.69816 -1.07923 0
M  V30 1226 H 111.562 -2.56866 -0.194293 0
M  V30 1227 H 111.52 -2.48855 -1.92141 0
M  V30 1228 N 115.292 -0.849877 -1.32721 0
M  V30 1229 C 116.569 -0.372405 -1.92022 0
M  V30 1230 C 116.949 1.1435 -1.77447 0
M  V30 1231 O 116.297 1.96296 -1.16962 0
M  V30 1232 C 116.507 -0.831482 -3.3895 0
M  V30 1233 C 117.855 -0.845882 -4.16089 0
M  V30 1234 O 118.879 -0.775806 -3.47649 0
M  V30 1235 O 117.738 -0.943753 -5.38289 0
M  V30 1236 H 114.832 -0.107667 -0.819961 0
M  V30 1237 H 117.378 -0.93646 -1.41522 0
M  V30 1238 H 116.15 -1.87448 -3.4348 0
M  V30 1239 H 115.773 -0.24461 -3.96847 0
M  V30 1240 N 116.77 1.45427 -0.607355 0
M  V30 1241 C 118.018 2.01841 -0.102253 0
M  V30 1242 C 118.339 1.47832 1.27164 0
M  V30 1243 O 117.609 0.672497 1.83995 0
M  V30 1244 H 116.189 0.746188 -0.0348101 0
M  V30 1245 H 118.851 1.78229 -0.7887 0
M  V30 1246 H 117.947 3.12057 -0.0518585 0
M  V30 1247 N 118.248 0.346503 1.53744 0
M  V30 1248 C 119.473 -0.253074 2.0585 0
M  V30 1249 C 119.898 -1.43202 1.21962 0
M  V30 1250 O 119.256 -1.79783 0.234073 0
M  V30 1251 C 119.304 -0.643193 3.54817 0
M  V30 1252 O 118.408 -1.74286 3.73762 0
M  V30 1253 H 117.749 -0.0413583 0.662711 0
M  V30 1254 H 120.279 0.501574 1.98357 0
M  V30 1255 H 120.289 -0.919526 3.97503 0
M  V30 1256 H 118.964 0.218966 4.15323 0
M  V30 1257 H 117.541 -1.46356 3.42979 0
M  V30 1258 N 119.726 -1.57421 0.075193 0
M  V30 1259 C 120.656 -2.15942 -0.888324 0
M  V30 1260 C 121.637 -1.08737 -1.30806 0
M  V30 1261 O 122.822 -1.36787 -1.37851 0
M  V30 1262 C 119.952 -2.72379 -2.1547 0
M  V30 1263 C 118.906 -3.8478 -1.87425 0
M  V30 1264 C 118.232 -4.27834 -3.20721 0
M  V30 1265 C 119.532 -5.08869 -1.17684 0
M  V30 1266 H 121.226 -2.96705 -0.400799 0
M  V30 1267 H 118.772 -1.42723 -0.191342 0
M  V30 1268 H 120.725 -3.11965 -2.83295 0
M  V30 1269 H 119.449 -1.88841 -2.6647 0
M  V30 1270 H 118.108 -3.45703 -1.22004 0
M  V30 1271 H 117.756 -3.41214 -3.6957 0
M  V30 1272 H 117.456 -5.03605 -3.02746 0
M  V30 1273 H 118.98 -4.70039 -3.89738 0
M  V30 1274 H 120.394 -5.4575 -1.75584 0
M  V30 1275 H 118.791 -5.8994 -1.09956 0
M  V30 1276 H 119.861 -4.84648 -0.156453 0
M  V30 1277 N 121.204 0.198386 -1.56346 0
M  V30 1278 C 122.434 0.934215 -1.84271 0
M  V30 1279 C 122.842 1.77496 -0.655125 0
M  V30 1280 O 122.185 1.7961 0.385488 0
M  V30 1281 C 122.247 1.88278 -3.06254 0
M  V30 1282 C 121.911 1.22431 -4.40295 0
M  V30 1283 C 122.908 0.602839 -5.16393 0
M  V30 1284 C 120.593 1.22915 -4.87029 0
M  V30 1285 C 122.587 -0.0050083 -6.374 0
M  V30 1286 C 120.274 0.617465 -6.07973 0
M  V30 1287 C 121.272 0.00146341 -6.83 0
M  V30 1288 O 120.96 -0.600642 -8.01653 0
M  V30 1289 H 120.692 0.278245 -0.616081 0
M  V30 1290 H 123.246 0.211626 -2.04307 0
M  V30 1291 H 121.476 2.64498 -2.82095 0
M  V30 1292 H 123.165 2.48612 -3.20853 0
M  V30 1293 H 123.931 0.591265 -4.81382 0
M  V30 1294 H 119.81 1.69801 -4.28589 0
M  V30 1295 H 123.354 -0.48643 -6.95902 0
M  V30 1296 H 119.251 0.62653 -6.42452 0
M  V30 1297 H 120.019 -0.497225 -8.16988 0
M  V30 1298 N 122.682 1.50554 0.465978 0
M  V30 1299 C 123.91 1.65563 1.24083 0
M  V30 1300 C 124.325 0.341051 1.85694 0
M  V30 1301 O 123.682 -0.677543 1.69457 0
M  V30 1302 C 123.733 2.75051 2.34583 0
M  V30 1303 O 123.454 4.01413 1.75497 0
M  V30 1304 C 124.955 3.01078 3.25372 0
M  V30 1305 H 122.175 0.55638 0.375077 0
M  V30 1306 H 124.719 1.96807 0.555624 0
M  V30 1307 H 122.874 2.46486 2.9887 0
M  V30 1308 H 123.288 4.62002 2.48303 0
M  V30 1309 H 124.762 3.81339 3.99105 0
M  V30 1310 H 125.239 2.12349 3.84453 0
M  V30 1311 H 125.845 3.31194 2.66816 0
M  V30 1312 N 124.16 -0.719506 1.40217 0
M  V30 1313 C 125.09 -1.8465 1.42922 0
M  V30 1314 C 126.071 -1.67599 0.29062 0
M  V30 1315 O 127.256 -1.87688 0.498677 0
M  V30 1316 C 124.386 -3.22565 1.28722 0
M  V30 1317 C 123.34 -3.54281 2.40144 0
M  V30 1318 C 122.666 -4.91298 2.11023 0
M  V30 1319 C 123.966 -3.55676 3.82481 0
M  V30 1320 H 125.66 -1.82644 2.37237 0
M  V30 1321 H 123.206 -0.877305 1.1419 0
M  V30 1322 H 125.159 -4.01095 1.29232 0
M  V30 1323 H 123.883 -3.25137 0.308811 0
M  V30 1324 H 122.542 -2.78088 2.38877 0
M  V30 1325 H 122.19 -4.90468 1.11582 0
M  V30 1326 H 121.89 -5.13485 2.8567 0
M  V30 1327 H 123.414 -5.72166 2.13209 0
M  V30 1328 H 124.828 -4.24254 3.85592 0
M  V30 1329 H 123.225 -3.89388 4.56614 0
M  V30 1330 H 124.295 -2.55144 4.12346 0
M  V30 1331 N 125.638 -1.25649 -0.95132 0
M  V30 1332 C 126.886 -1.10375 -1.69298 0
M  V30 1333 C 127.207 0.355339 -1.91735 0
M  V30 1334 O 126.477 1.25188 -1.50681 0
M  V30 1335 H 125.057 -0.405461 -0.627384 0
M  V30 1336 H 127.719 -1.57823 -1.14358 0
M  V30 1337 H 126.815 -1.61465 -2.67087 0
M  V30 1338 N 127.117 1.15442 -1.07289 0
M  V30 1339 C 128.342 1.90638 -0.816828 0
M  V30 1340 C 128.767 1.77445 0.624083 0
M  V30 1341 O 128.125 1.10671 1.43602 0
M  V30 1342 C 128.173 3.39008 -1.22906 0
M  V30 1343 O 127.277 4.10701 -0.373975 0
M  V30 1344 H 126.618 0.593555 -0.297638 0
M  V30 1345 H 129.148 1.46198 -1.43134 0
M  V30 1346 H 129.158 3.89801 -1.20497 0
M  V30 1347 H 127.833 3.47929 -2.27856 0
M  V30 1348 H 126.41 3.70046 -0.460499 0
M  V30 1349 N 128.595 0.856903 1.32268 0
M  V30 1350 C 129.542 0.301172 2.28827 0
M  V30 1351 C 130.512 -0.593104 1.5515 0
M  V30 1352 O 131.697 -0.527537 1.83362 0
M  V30 1353 C 128.837 -0.502523 3.41422 0
M  V30 1354 C 127.95 0.417797 4.29975 0
M  V30 1355 C 127.085 -0.398749 5.29701 0
M  V30 1356 C 126.124 0.518827 6.09897 0
M  V30 1357 N 125.261 -0.260674 7.01616 0
M  V30 1358 H 130.101 1.12983 2.75751 0
M  V30 1359 H 127.638 0.568582 1.35667 0
M  V30 1360 H 129.596 -0.984141 4.05426 0
M  V30 1361 H 128.226 -1.29599 2.95642 0
M  V30 1362 H 127.278 1.01781 3.66531 0
M  V30 1363 H 128.59 1.12191 4.86019 0
M  V30 1364 H 127.744 -0.943435 5.9932 0
M  V30 1365 H 126.483 -1.13622 4.7428 0
M  V30 1366 H 125.488 1.07538 5.39181 0
M  V30 1367 H 126.713 1.25495 6.67404 0
M  V30 1368 H 124.659 -0.981198 6.4862 0
M  V30 1369 H 124.576 0.384364 7.55022 0
M  V30 1370 H 125.844 -0.787014 7.75517 0
M  V30 1371 N 130.073 -1.45103 0.615059 0
M  V30 1372 C 131.021 -2.32331 -0.111791 0
M  V30 1373 C 132.015 -1.46409 -0.852102 0
M  V30 1374 O 133.221 -1.62849 -0.766821 0
M  V30 1375 H 129.596 -0.749993 -0.0549072 0
M  V30 1376 H 131.567 -2.91407 0.642225 0
M  V30 1377 C 130.316 -3.3015 -1.09071 0
M  V30 1378 H 129.639 -3.96265 -0.530485 0
M  V30 1379 H 131.079 -3.93898 -1.56908 0
M  V30 1380 C 129.538 -2.57875 -2.168 0
M  V30 1381 O 130.068 -2.36567 -3.24652 0
M  V30 1382 N 128.274 -2.17884 -1.92289 0
M  V30 1383 H 127.821 -2.35413 -1.04587 0
M  V30 1384 H 127.779 -1.6985 -2.64572 0
M  V30 1385 N 131.551 -0.354651 -1.53558 0
M  V30 1386 C 132.499 0.512195 -2.26891 0
M  V30 1387 C 133.493 1.09263 -1.29452 0
M  V30 1388 O 134.699 1.03709 -1.47121 0
M  V30 1389 H 131.074 0.183878 -0.729173 0
M  V30 1390 H 133.045 -0.128202 -2.98124 0
M  V30 1391 C 131.794 1.64563 -3.06291 0
M  V30 1392 H 131.117 1.20829 -3.81104 0
M  V30 1393 H 132.557 2.22711 -3.60799 0
M  V30 1394 C 131.016 2.58158 -2.16462 0
M  V30 1395 O 131.546 3.60695 -1.76811 0
M  V30 1396 N 129.752 2.27096 -1.81317 0
M  V30 1397 H 129.299 1.43751 -2.1376 0
M  V30 1398 H 129.257 2.89975 -1.21498 0
M  V30 1399 N 133.029 1.57378 -0.0835403 0
M  V30 1400 C 133.939 2.16897 0.894021 0
M  V30 1401 C 134.955 1.13528 1.31861 0
M  V30 1402 O 136.131 1.45848 1.3889 0
M  V30 1403 C 133.196 2.72831 2.13925 0
M  V30 1404 C 132.257 3.91115 1.76997 0
M  V30 1405 C 131.49 4.44371 2.95584 0
M  V30 1406 O 131.713 3.96596 4.09961 0
M  V30 1407 O 130.647 5.35549 2.74719 0
M  V30 1408 H 134.473 3.00814 0.417679 0
M  V30 1409 H 132.058 1.48741 0.140181 0
M  V30 1410 H 133.94 3.0863 2.86924 0
M  V30 1411 H 132.615 1.91967 2.60635 0
M  V30 1412 H 131.522 3.60148 1.01214 0
M  V30 1413 H 132.855 4.73307 1.3506 0
M  V30 1414 N 134.507 -0.190092 1.56449 0
M  V30 1415 C 135.755 -0.907908 1.80559 0
M  V30 1416 C 136.076 -1.83583 0.657438 0
M  V30 1417 O 135.346 -1.93203 -0.323924 0
M  V30 1418 H 133.926 -0.338247 0.666032 0
M  V30 1419 H 136.588 -0.194403 1.93928 0
M  V30 1420 H 135.684 -1.49604 2.73907 0
M  V30 1421 N 135.985 -1.50799 -0.457987 0
M  V30 1422 C 136.915 -1.73553 -1.5621 0
M  V30 1423 C 137.896 -0.584774 -1.59732 0
M  V30 1424 O 139.081 -0.825314 -1.7579 0
M  V30 1425 C 136.211 -1.84169 -2.94447 0
M  V30 1426 C 135.165 -2.99461 -3.0579 0
M  V30 1427 C 134.491 -2.95235 -4.45803 0
M  V30 1428 C 135.791 -4.39766 -2.81786 0
M  V30 1429 H 137.485 -2.66 -1.37421 0
M  V30 1430 H 135.031 -1.28002 -0.659662 0
M  V30 1431 H 136.984 -1.98672 -3.71628 0
M  V30 1432 H 135.708 -0.883545 -3.14422 0
M  V30 1433 H 134.367 -2.8463 -2.31044 0
M  V30 1434 H 134.015 -1.97239 -4.62715 0
M  V30 1435 H 133.715 -3.72642 -4.54326 0
M  V30 1436 H 135.239 -3.11803 -5.24987 0
M  V30 1437 H 136.653 -4.55054 -3.4871 0
M  V30 1438 H 135.05 -5.18722 -3.0174 0
M  V30 1439 H 136.12 -4.51229 -1.7754 0
M  V30 1440 N 137.463 0.71206 -1.40597 0
M  V30 1441 C 138.691 1.50111 -1.42388 0
M  V30 1442 C 139.106 1.88784 -0.0245395 0
M  V30 1443 O 138.463 1.55681 0.952351 0
M  V30 1444 C 138.514 2.7742 -2.31776 0
M  V30 1445 O 138.235 2.40382 -3.66262 0
M  V30 1446 C 139.736 3.7129 -2.42196 0
M  V30 1447 H 136.956 0.46314 -0.485533 0
M  V30 1448 H 139.5 0.878068 -1.8469 0
M  V30 1449 H 137.655 3.36001 -1.92827 0
M  V30 1450 H 138.069 3.22324 -4.13772 0
M  V30 1451 H 139.543 4.57448 -3.08943 0
M  V30 1452 H 140.02 4.14641 -1.44809 0
M  V30 1453 H 140.626 3.18619 -2.81712 0
M  V30 1454 N 138.941 1.26152 0.944643 0
M  V30 1455 C 139.888 1.07408 2.04285 0
M  V30 1456 C 140.858 -0.0198413 1.66088 0
M  V30 1457 O 142.043 0.139264 1.90291 0
M  V30 1458 C 139.183 0.70945 3.37729 0
M  V30 1459 C 138.296 1.87926 3.88983 0
M  V30 1460 C 137.431 1.45807 5.10797 0
M  V30 1461 C 136.47 2.5964 5.54305 0
M  V30 1462 N 135.607 2.18226 6.67324 0
M  V30 1463 H 140.447 2.01389 2.1965 0
M  V30 1464 H 137.984 1.00275 1.07626 0
M  V30 1465 H 139.942 0.478948 4.14442 0
M  V30 1466 H 138.572 -0.193389 3.2222 0
M  V30 1467 H 137.624 2.22279 3.08701 0
M  V30 1468 H 138.936 2.73377 4.17213 0
M  V30 1469 H 138.09 1.18781 5.94959 0
M  V30 1470 H 136.829 0.574414 4.84305 0
M  V30 1471 H 135.834 2.87399 4.68702 0
M  V30 1472 H 137.059 3.48599 5.828 0
M  V30 1473 H 135.005 1.3229 6.42523 0
M  V30 1474 H 134.922 2.97221 6.95123 0
M  V30 1475 H 136.19 1.94403 7.54869 0
M  V30 1476 N 140.419 -1.14872 1.07899 0
M  V30 1477 C 141.349 -2.2193 0.725887 0
M  V30 1478 C 142.33 -1.67622 -0.28927 0
M  V30 1479 O 143.515 -1.93533 -0.160787 0
M  V30 1480 C 140.645 -3.47061 0.128856 0
M  V30 1481 C 139.599 -4.14363 1.07178 0
M  V30 1482 C 138.925 -5.33636 0.337229 0
M  V30 1483 C 140.225 -4.63492 2.40775 0
M  V30 1484 H 141.919 -2.51724 1.62097 0
M  V30 1485 H 139.465 -1.20991 0.780838 0
M  V30 1486 H 141.418 -4.21199 -0.130147 0
M  V30 1487 H 140.142 -3.16617 -0.80134 0
M  V30 1488 H 138.801 -3.42173 1.3158 0
M  V30 1489 H 138.449 -4.99449 -0.596606 0
M  V30 1490 H 138.149 -5.79609 0.965788 0
M  V30 1491 H 139.673 -6.10539 0.0861567 0
M  V30 1492 H 141.087 -5.2913 2.20669 0
M  V30 1493 H 139.484 -5.20148 2.99276 0
M  V30 1494 H 140.554 -3.78834 3.02676 0
M  V30 1495 N 141.898 -0.863906 -1.31812 0
M  V30 1496 C 143.309 -0.52522 -1.7916 0
M  V30 1497 C 143.66 0.957518 -1.71248 0
M  V30 1498 O 142.785 1.74734 -1.27659 0
M  V30 1499 C 143.38 -0.9466 -3.25307 0
M  V30 1500 C 141.939 -0.659668 -3.70574 0
M  V30 1501 C 141.086 -1.14126 -2.52726 0
M  V30 1502 H 144.037 -1.05022 -1.1898 0
M  V30 1503 H 144.058 -0.266766 -3.79564 0
M  V30 1504 H 143.57 -2.02579 -3.31034 0
M  V30 1505 H 141.671 0.408416 -3.70355 0
M  V30 1506 H 141.784 -1.23245 -4.62977 0
M  V30 1507 H 140.148 -0.561216 -2.4844 0
M  V30 1508 H 140.931 -2.22775 -2.61201 0
M  V30 1509 N 143.376 1.44774 -0.622745 0
M  V30 1510 C 144.623 2.02121 -0.1239 0
M  V30 1511 C 144.951 1.48915 1.25118 0
M  V30 1512 O 144.206 0.660045 1.84233 0
M  V30 1513 C 144.505 3.57364 -0.0508323 0
M  V30 1514 C 144.171 4.29787 -1.36358 0
M  V30 1515 C 142.833 4.4929 -1.72314 0
M  V30 1516 C 145.185 4.71062 -2.23048 0
M  V30 1517 C 142.513 5.07325 -2.94682 0
M  V30 1518 C 144.865 5.30452 -3.44679 0
M  V30 1519 C 143.529 5.48175 -3.80868 0
M  V30 1520 H 142.799 0.739612 -0.0453381 0
M  V30 1521 H 145.446 1.73648 -0.807389 0
M  V30 1522 H 143.751 3.85202 0.715991 0
M  V30 1523 H 145.448 3.99456 0.351533 0
M  V30 1524 H 142.038 4.14932 -1.07375 0
M  V30 1525 H 146.222 4.55715 -1.96565 0
M  V30 1526 H 141.478 5.19235 -3.22809 0
M  V30 1527 H 145.652 5.61385 -4.12092 0
M  V30 1528 H 143.279 5.92912 -4.75773 0
M  V30 1529 N 144.854 0.36279 1.53368 0
M  V30 1530 C 146.082 -0.228613 2.05633 0
M  V30 1531 C 146.497 -1.42676 1.23649 0
M  V30 1532 O 145.854 -1.80394 0.27647 0
M  V30 1533 C 145.905 -0.624845 3.56059 0
M  V30 1534 O 145.626 0.525675 4.34935 0
M  V30 1535 C 147.127 -1.27493 4.24571 0
M  V30 1536 H 144.347 -0.0407183 0.669763 0
M  V30 1537 H 146.891 0.520352 1.97769 0
M  V30 1538 H 145.046 -1.32373 3.64083 0
M  V30 1539 H 145.46 0.205969 5.24095 0
M  V30 1540 H 146.934 -1.50277 5.31151 0
M  V30 1541 H 147.411 -2.23439 3.78116 0
M  V30 1542 H 148.017 -0.617558 4.20792 0
M  V30 1543 N 146.332 -1.57332 0.0918853 0
M  V30 1544 C 147.581 -1.93412 -0.572249 0
M  V30 1545 C 147.894 -0.975515 -1.69538 0
M  V30 1546 O 149.1 -1.22991 -2.42045 0
M  V30 1547 C 147.556 -3.43648 -1.0693 0
M  V30 1548 C 147.164 -4.47994 0.0239049 0
M  V30 1549 C 148.908 -3.88695 -1.70635 0
M  V30 1550 C 146.815 -5.89381 -0.488319 0
M  V30 1551 H 145.745 -0.721939 -0.217532 0
M  V30 1552 H 148.396 -1.82735 0.167369 0
M  V30 1553 H 146.778 -3.49466 -1.8625 0
M  V30 1554 H 147.952 -4.53815 0.799277 0
M  V30 1555 H 146.267 -4.12536 0.565946 0
M  V30 1556 H 148.864 -4.91725 -2.10025 0
M  V30 1557 H 149.207 -3.27166 -2.57426 0
M  V30 1558 H 149.74 -3.85564 -0.979023 0
M  V30 1559 H 146.479 -6.54602 0.342906 0
M  V30 1560 H 145.999 -5.87037 -1.23077 0
M  V30 1561 H 147.678 -6.39863 -0.958317 0
M  V30 1562 N 147.81 0.181792 -1.56548 0
M  V30 1563 C 149.221 0.745244 -1.71181 0
M  V30 1564 C 149.572 1.83262 -0.70068 0
M  V30 1565 O 148.697 2.15946 0.140154 0
M  V30 1566 C 149.292 1.35859 -3.10367 0
M  V30 1567 C 147.851 1.86898 -3.2672 0
M  V30 1568 C 146.998 0.743942 -2.67134 0
M  V30 1569 H 149.949 -0.0434661 -1.5864 0
M  V30 1570 H 149.97 2.22817 -3.08436 0
M  V30 1571 H 149.482 0.566948 -3.83937 0
M  V30 1572 H 147.583 2.68738 -2.5809 0
M  V30 1573 H 147.696 2.02162 -4.34359 0
M  V30 1574 H 146.06 1.16169 -2.26665 0
M  V30 1575 H 146.843 -0.035676 -3.43281 0
M  V30 1576 N 149.288 1.51039 0.449983 0
M  V30 1577 C 150.198 1.74261 1.57067 0
M  V30 1578 C 151.214 0.626363 1.62335 0
M  V30 1579 O 152.39 0.907162 1.79812 0
M  V30 1580 C 149.455 1.85114 2.93144 0
M  V30 1581 C 148.516 3.0893 2.98095 0
M  V30 1582 C 147.749 3.19256 4.27681 0
M  V30 1583 O 147.972 2.35835 5.19363 0
M  V30 1584 O 146.906 4.12144 4.38658 0
M  V30 1585 H 150.732 2.69303 1.40391 0
M  V30 1586 H 148.317 1.35389 0.631688 0
M  V30 1587 H 150.199 1.94311 3.73926 0
M  V30 1588 H 148.874 0.932588 3.09975 0
M  V30 1589 H 147.781 3.0522 2.16314 0
M  V30 1590 H 149.114 4.00433 2.86206 0
M  V30 1591 N 150.766 -0.704594 1.40972 0
M  V30 1592 C 151.696 -1.83124 1.44872 0
M  V30 1593 C 152.677 -1.67281 0.30838 0
M  V30 1594 O 153.862 -1.87149 0.518556 0
M  V30 1595 C 150.992 -3.21181 1.32136 0
M  V30 1596 C 149.946 -3.51714 2.43888 0
M  V30 1597 C 149.272 -4.89032 2.16222 0
M  V30 1598 C 150.572 -3.516 3.86232 0
M  V30 1599 H 152.266 -1.80117 2.39161 0
M  V30 1600 H 149.812 -0.865145 1.15114 0
M  V30 1601 H 151.765 -3.99702 1.33479 0
M  V30 1602 H 150.489 -3.24791 0.343279 0
M  V30 1603 H 149.148 -2.75539 2.41813 0
M  V30 1604 H 148.796 -4.89256 1.16778 0
M  V30 1605 H 148.496 -5.10426 2.911 0
M  V30 1606 H 150.02 -5.69873 2.19265 0
M  V30 1607 H 151.434 -4.2014 3.9007 0
M  V30 1608 H 149.831 -3.84523 4.60719 0
M  V30 1609 H 150.901 -2.50757 4.15029 0
M  V30 1610 N 152.244 -1.26651 -0.937939 0
M  V30 1611 C 153.49 -1.12553 -1.687 0
M  V30 1612 C 153.823 0.329782 -1.91379 0
M  V30 1613 O 153.098 1.24202 -1.4968 0
M  V30 1614 C 153.381 -1.89862 -3.05981 0
M  V30 1615 C 153.234 -3.43318 -2.90607 0
M  V30 1616 C 154.553 -1.69499 -4.0615 0
M  V30 1617 H 151.672 -0.410257 -0.612257 0
M  V30 1618 H 154.314 -1.55685 -1.08913 0
M  V30 1619 H 152.464 -1.53204 -3.57017 0
M  V30 1620 H 154.136 -3.89747 -2.46769 0
M  V30 1621 H 152.379 -3.70179 -2.26164 0
M  V30 1622 H 153.05 -3.92642 -3.8799 0
M  V30 1623 H 155.526 -2.01442 -3.64088 0
M  V30 1624 H 154.402 -2.26002 -5.00214 0
M  V30 1625 H 154.663 -0.640365 -4.37438 0
M  V30 1626 N 153.722 1.14298 -1.08507 0
M  V30 1627 C 154.654 2.1907 -0.673859 0
M  V30 1628 C 155.667 1.60381 0.279577 0
M  V30 1629 O 156.856 1.78374 0.0670754 0
M  V30 1630 C 153.956 3.38888 0.0290979 0
M  V30 1631 C 153.129 4.27103 -0.943494 0
M  V30 1632 C 152.188 5.25477 -0.275676 0
M  V30 1633 O 151.214 5.61709 -0.920401 0
M  V30 1634 N 152.416 5.7227 0.974013 0
M  V30 1635 H 155.181 2.54965 -1.57521 0
M  V30 1636 H 152.742 1.29528 -0.971287 0
M  V30 1637 H 154.734 4.01761 0.48683 0
M  V30 1638 H 153.304 3.01309 0.832555 0
M  V30 1639 H 152.524 3.61149 -1.58004 0
M  V30 1640 H 153.812 4.82905 -1.60251 0
M  V30 1641 H 153.21 5.44965 1.51755 0
M  V30 1642 H 151.767 6.37127 1.37522 0
M  V30 1643 N 155.201 0.870884 1.31352 0
M  V30 1644 C 156.164 0.332243 2.26779 0
M  V30 1645 C 157.164 -0.517302 1.52252 0
M  V30 1646 O 158.354 -0.326477 1.71113 0
M  V30 1647 C 155.486 -0.528066 3.36785 0
M  V30 1648 H 156.679 1.17469 2.75937 0
M  V30 1649 H 154.232 0.64655 1.423 0
M  V30 1650 H 154.967 -1.39167 2.92922 0
M  V30 1651 H 154.752 0.0802582 3.92018 0
M  V30 1652 H 156.242 -0.897179 4.07849 0
M  V30 1653 N 156.679 -1.44442 0.630414 0
M  V30 1654 C 157.904 -2.06927 0.139944 0
M  V30 1655 C 158.329 -1.46795 -1.17613 0
M  V30 1656 O 157.687 -0.569144 -1.72135 0
M  V30 1657 C 157.735 -3.6058 0.0379581 0
M  V30 1658 O 156.839 -3.99937 -1.0062 0
M  V30 1659 H 156.18 -0.658608 0.0844483 0
M  V30 1660 H 158.71 -1.85327 0.866891 0
M  V30 1661 H 158.72 -4.07714 -0.152856 0
M  V30 1662 H 157.395 -4.03728 0.998809 0
M  V30 1663 H 155.972 -3.64436 -0.79001 0
M  V30 1664 N 158.157 -0.370918 -1.53173 0
M  V30 1665 C 159.568 0.107139 -1.86392 0
M  V30 1666 C 159.919 1.47714 -1.29132 0
M  V30 1667 O 159.044 2.07464 -0.615439 0
M  V30 1668 C 159.639 0.201187 -3.38202 0
M  V30 1669 C 158.198 0.623507 -3.712 0
M  V30 1670 C 157.345 -0.225978 -2.76378 0
M  V30 1671 H 160.296 -0.58951 -1.47345 0
M  V30 1672 H 160.317 1.02377 -3.66468 0
M  V30 1673 H 159.829 -0.796058 -3.79848 0
M  V30 1674 H 157.93 1.62879 -3.35114 0
M  V30 1675 H 158.043 0.394414 -4.77474 0
M  V30 1676 H 156.407 0.305962 -2.52856 0
M  V30 1677 H 157.19 -1.22086 -3.20858 0
M  V30 1678 N 159.635 1.57281 -0.100228 0
M  V30 1679 C 160.875 1.96419 0.56558 0
M  V30 1680 C 161.239 0.981265 1.65031 0
M  V30 1681 O 162.44 1.26133 2.37369 0
M  V30 1682 C 160.711 3.39996 1.10171 0
M  V30 1683 S 162.27 4.01134 1.77867 0
M  V30 1684 H 159.088 0.68667 0.184406 0
M  V30 1685 H 161.69 1.94662 -0.180851 0
M  V30 1686 H 160.394 4.09296 0.300803 0
M  V30 1687 H 159.925 3.45361 1.88385 0
M  V30 1688 H 161.94 3.90358 3.06326 0
M  V30 1689 N 161.113 -0.173488 1.56642 0
M  V30 1690 C 162.529 -0.525174 1.50712 0
M  V30 1691 C 162.729 -1.8476 0.804107 0
M  V30 1692 O 161.785 -2.49869 0.363574 0
M  V30 1693 C 163.098 -0.559937 2.95441 0
M  V30 1694 C 164.646 -0.647288 3.06234 0
M  V30 1695 C 165.121 -0.712963 4.52417 0
M  V30 1696 N 166.612 -0.775911 4.56655 0
M  V30 1697 C 167.347 -0.847264 5.67106 0
M  V30 1698 N 166.843 -0.879585 6.87194 0
M  V30 1699 N 168.636 -0.886117 5.55071 0
M  V30 1700 H 160.787 0.693681 2.00753 0
M  V30 1701 H 163.05 0.249841 0.914485 0
M  V30 1702 H 162.756 0.343049 3.50023 0
M  V30 1703 H 162.63 -1.40718 3.49969 0
M  V30 1704 H 165.017 -1.5407 2.51687 0
M  V30 1705 H 165.098 0.226586 2.54794 0
M  V30 1706 H 164.742 0.176183 5.07594 0
M  V30 1707 H 164.672 -1.60295 5.0161 0
M  V30 1708 H 167.163 -0.759304 3.70193 0
M  V30 1709 H 167.476 -0.935144 7.67121 0
M  V30 1710 H 165.821 -0.847898 6.89808 0
M  V30 1711 H 169.012 -0.857853 4.60172 0
M  V30 1712 H 169.185 -0.938263 6.41171 0
M  V30 1713 N 162.591 -1.51276 -0.441967 0
M  V30 1714 C 163.816 -1.67799 -1.21895 0
M  V30 1715 C 164.241 -0.372864 -1.84367 0
M  V30 1716 O 163.599 0.666501 -1.68604 0
M  V30 1717 C 163.647 -2.79199 -2.28211 0
M  V30 1718 O 162.751 -2.42479 -3.33583 0
M  V30 1719 H 162.092 -0.559649 -0.357336 0
M  V30 1720 H 164.622 -1.97815 -0.522522 0
M  V30 1721 H 164.632 -3.03146 -2.73069 0
M  V30 1722 H 163.307 -3.73906 -1.82118 0
M  V30 1723 H 161.884 -2.29087 -2.94234 0
M  V30 1724 N 164.069 0.697108 -1.41344 0
M  V30 1725 C 165.294 1.49096 -1.44171 0
M  V30 1726 C 165.719 1.88038 -0.0481568 0
M  V30 1727 O 165.077 1.54525 0.948243 0
M  V30 1728 C 165.125 2.73088 -2.3549 0
M  V30 1729 O 164.229 3.70514 -1.81088 0
M  V30 1730 H 163.57 0.448801 -0.489361 0
M  V30 1731 H 166.1 0.856992 -1.85787 0
M  V30 1732 H 166.11 3.21413 -2.51312 0
M  V30 1733 H 164.785 2.44081 -3.36745 0
M  V30 1734 H 163.362 3.29441 -1.74708 0
M  V30 1735 N 165.547 1.27147 0.931209 0
M  V30 1736 C 166.824 1.0401 1.65654 0
M  V30 1737 C 167.204 -0.426297 2.06751 0
M  V30 1738 O 166.552 -1.40879 1.79904 0
M  V30 1739 C 166.762 1.99834 2.86125 0
M  V30 1740 C 168.11 2.29007 3.57549 0
M  V30 1741 O 169.134 1.97779 2.96246 0
M  V30 1742 O 167.993 2.82222 4.67989 0
M  V30 1743 H 165.087 0.396239 0.725895 0
M  V30 1744 H 167.633 1.38397 0.982056 0
M  V30 1745 H 166.405 2.98744 2.52721 0
M  V30 1746 H 166.028 1.65987 3.61295 0
M  V30 1747 N 167.025 -1.13721 1.09112 0
M  V30 1748 C 168.273 -1.84559 0.823562 0
M  V30 1749 C 168.594 -1.83754 -0.652658 0
M  V30 1750 O 167.864 -1.29102 -1.47342 0
M  V30 1751 H 166.444 -0.683376 0.301673 0
M  V30 1752 H 169.106 -1.37771 1.37859 0
M  V30 1753 H 168.202 -2.8917 1.17419 0
M  V30 1754 N 168.503 -0.877838 -1.30888 0
M  V30 1755 C 169.752 -0.488793 -1.95688 0
M  V30 1756 C 170.065 0.965485 -1.70111 0
M  V30 1757 O 171.271 1.46104 -2.28836 0
M  V30 1758 C 169.727 -0.823201 -3.50359 0
M  V30 1759 C 169.335 -2.29477 -3.84765 0
M  V30 1760 C 171.079 -0.503009 -4.21509 0
M  V30 1761 C 168.986 -2.57118 -5.32583 0
M  V30 1762 H 167.916 -0.179062 -0.732429 0
M  V30 1763 H 170.567 -1.07183 -1.48943 0
M  V30 1764 H 168.949 -0.169331 -3.95638 0
M  V30 1765 H 170.123 -2.99236 -3.5042 0
M  V30 1766 H 168.438 -2.58178 -3.267 0
M  V30 1767 H 171.035 -0.68665 -5.30273 0
M  V30 1768 H 171.378 0.557109 -4.12555 0
M  V30 1769 H 171.911 -1.11376 -3.8189 0
M  V30 1770 H 168.65 -3.61843 -5.4658 0
M  V30 1771 H 168.17 -1.91961 -5.68253 0
M  V30 1772 H 169.849 -2.42251 -5.99936 0
M  V30 1773 N 169.982 1.44106 -0.638065 0
M  V30 1774 C 170.912 2.33448 0.0494287 0
M  V30 1775 C 171.893 1.48606 0.827672 0
M  V30 1776 O 173.078 1.77308 0.792173 0
M  V30 1777 C 170.208 3.31771 1.02691 0
M  V30 1778 C 169.162 4.26485 0.359823 0
M  V30 1779 C 168.488 5.14729 1.44769 0
M  V30 1780 C 169.788 5.17056 -0.738296 0
M  V30 1781 H 171.482 2.91183 -0.696636 0
M  V30 1782 H 169.028 1.40014 -0.336456 0
M  V30 1783 H 170.981 3.93161 1.51666 0
M  V30 1784 H 169.705 2.7226 1.80395 0
M  V30 1785 H 168.364 3.66437 -0.10934 0
M  V30 1786 H 168.012 4.51566 2.21578 0
M  V30 1787 H 167.712 5.78913 1.00668 0
M  V30 1788 H 169.236 5.78991 1.93911 0
M  V30 1789 H 170.65 5.72342 -0.331354 0
M  V30 1790 H 169.047 5.89879 -1.10286 0
M  V30 1791 H 170.117 4.57652 -1.60258 0
M  V30 1792 N 171.46 0.379036 1.52974 0
M  V30 1793 C 172.69 -0.20649 2.05566 0
M  V30 1794 C 173.098 -1.41906 1.25137 0
M  V30 1795 O 172.441 -1.81421 0.288464 0
M  V30 1796 C 172.503 -0.651086 3.53555 0
M  V30 1797 C 172.167 0.446626 4.54812 0
M  V30 1798 C 173.164 1.30079 5.03364 0
M  V30 1799 C 170.849 0.610719 4.98573 0
M  V30 1800 C 172.843 2.30426 5.94292 0
M  V30 1801 C 170.53 1.61754 5.89304 0
M  V30 1802 C 171.528 2.46274 6.37054 0
M  V30 1803 O 171.216 3.45237 7.25994 0
M  V30 1804 H 170.948 -0.0372381 0.674974 0
M  V30 1805 H 173.502 0.539718 1.98182 0
M  V30 1806 H 171.732 -1.44911 3.58522 0
M  V30 1807 H 173.421 -1.16112 3.88938 0
M  V30 1808 H 174.187 1.18527 4.70294 0
M  V30 1809 H 170.066 -0.0374044 4.60985 0
M  V30 1810 H 173.61 2.96432 6.31485 0
M  V30 1811 H 169.507 1.73348 6.21788 0
M  V30 1812 H 170.275 3.41124 7.44027 0
M  V30 1813 N 172.938 -1.57226 0.108567 0
M  V30 1814 C 173.871 -2.10447 -0.882464 0
M  V30 1815 C 174.849 -1.01829 -1.26766 0
M  V30 1816 O 176.033 -1.29415 -1.37054 0
M  V30 1817 C 173.16 -2.59258 -2.17952 0
M  V30 1818 C 172.206 -3.79662 -1.94318 0
M  V30 1819 S 173.039 -5.22586 -1.16892 0
M  V30 1820 C 174.195 -5.74758 -2.47799 0
M  V30 1821 H 174.428 -2.94178 -0.429745 0
M  V30 1822 H 171.961 -1.54043 -0.105 0
M  V30 1823 H 173.919 -2.88036 -2.92482 0
M  V30 1824 H 172.58 -1.75728 -2.60343 0
M  V30 1825 H 171.773 -4.11928 -2.90399 0
M  V30 1826 H 171.375 -3.51446 -1.27913 0
M  V30 1827 H 173.667 -5.83846 -3.43701 0
M  V30 1828 H 174.61 -6.73027 -2.20093 0
M  V30 1829 H 175.018 -5.02763 -2.56689 0
M  V30 1830 N 174.416 0.165178 -1.56732 0
M  V30 1831 C 175.664 0.879068 -1.8198 0
M  V30 1832 C 175.985 1.82514 -0.686561 0
M  V30 1833 O 175.255 1.93694 0.293146 0
M  V30 1834 H 173.835 0.327608 -0.671329 0
M  V30 1835 H 176.497 0.163526 -1.94213 0
M  V30 1836 H 175.593 1.45228 -2.76252 0
M  V30 1837 N 175.894 1.51508 0.433938 0
M  V30 1838 C 176.841 1.73068 1.52696 0
M  V30 1839 C 177.811 0.572441 1.55924 0
M  V30 1840 O 178.996 0.807253 1.72882 0
M  V30 1841 C 176.136 1.86474 2.90381 0
M  V30 1842 C 175.249 3.14037 2.96656 0
M  V30 1843 C 174.384 3.18019 4.25485 0
M  V30 1844 C 173.423 4.39882 4.2564 0
M  V30 1845 N 172.56 4.41394 5.45999 0
M  V30 1846 H 177.4 2.66366 1.33615 0
M  V30 1847 H 174.937 1.32008 0.649018 0
M  V30 1848 H 176.895 1.92229 3.70275 0
M  V30 1849 H 175.525 0.965809 3.08013 0
M  V30 1850 H 174.577 3.17575 2.09404 0
M  V30 1851 H 175.889 4.0394 2.92633 0
M  V30 1852 H 175.043 3.22708 5.13755 0
M  V30 1853 H 173.782 2.2601 4.3217 0
M  V30 1854 H 172.787 4.35366 3.35763 0
M  V30 1855 H 174.012 5.33159 4.20617 0
M  V30 1856 H 171.958 3.52258 5.53399 0
M  V30 1857 H 171.875 5.25111 5.4387 0
M  V30 1858 H 173.143 4.50281 6.36292 0
M  V30 1859 N 177.372 -0.689602 1.41712 0
M  V30 1860 C 178.319 -1.80345 1.44029 0
M  V30 1861 C 179.289 -1.63478 0.293948 0
M  V30 1862 O 180.474 -1.84244 0.495869 0
M  V30 1863 C 177.614 -3.18272 1.33405 0
M  V30 1864 C 176.727 -3.46529 2.57956 0
M  V30 1865 C 175.862 -4.74103 2.39582 0
M  V30 1866 C 174.901 -4.95347 3.5958 0
M  V30 1867 N 174.038 -6.14151 3.40239 0
M  V30 1868 H 178.878 -1.77698 2.39222 0
M  V30 1869 H 176.415 -0.867688 1.18784 0
M  V30 1870 H 178.373 -3.97956 1.25246 0
M  V30 1871 H 177.003 -3.2008 0.418164 0
M  V30 1872 H 176.055 -2.61207 2.76542 0
M  V30 1873 H 177.367 -3.58126 3.47199 0
M  V30 1874 H 176.521 -5.61853 2.28924 0
M  V30 1875 H 175.26 -4.64763 1.47805 0
M  V30 1876 H 174.265 -4.06044 3.70686 0
M  V30 1877 H 175.49 -5.06542 4.52318 0
M  V30 1878 H 173.436 -6.06013 2.51167 0
M  V30 1879 H 173.353 -6.26543 4.23061 0
M  V30 1880 H 174.621 -7.04619 3.33365 0
M  V30 1881 N 178.85 -1.27639 -0.924453 0
M  V30 1882 C 179.782 -1.06442 -2.02985 0
M  V30 1883 C 180.795 -0.0194771 -1.62788 0
M  V30 1884 O 181.984 -0.261388 -1.76576 0
M  V30 1885 C 179.084 -0.59327 -3.33667 0
M  V30 1886 C 178.257 -1.71123 -4.02537 0
M  V30 1887 C 177.316 -1.23527 -5.11495 0
M  V30 1888 O 176.342 -1.93553 -5.35281 0
M  V30 1889 N 177.544 -0.0926678 -5.80426 0
M  V30 1890 H 180.309 -2.01633 -2.2173 0
M  V30 1891 H 177.87 -1.19248 -1.09505 0
M  V30 1892 H 179.862 -0.258686 -4.03872 0
M  V30 1893 H 178.432 0.265502 -3.1147 0
M  V30 1894 H 177.652 -2.21593 -3.26022 0
M  V30 1895 H 178.94 -2.46145 -4.45298 0
M  V30 1896 H 178.338 0.491741 -5.63559 0
M  V30 1897 H 176.895 0.182714 -6.51544 0
M  V30 1898 N 180.328 1.1314 -1.09713 0
M  V30 1899 C 181.605 1.80762 -0.747302 0
M  V30 1900 C 181.985 1.96663 0.767265 0
M  V30 1901 O 181.333 1.53706 1.69076 0
M  V30 1902 C 181.543 3.15606 -1.48975 0
M  V30 1903 C 182.891 3.90914 -1.65746 0
M  V30 1904 O 183.915 3.25239 -1.45251 0
M  V30 1905 O 182.774 5.08718 -1.9967 0
M  V30 1906 H 179.868 0.782103 -0.268782 0
M  V30 1907 H 182.414 1.20041 -1.19951 0
M  V30 1908 H 181.186 2.99278 -2.52088 0
M  V30 1909 H 180.809 3.84029 -1.02991 0
M  V30 1910 N 181.806 0.884767 1.30421 0
M  V30 1911 C 183.055 0.499164 1.95426 0
M  V30 1912 C 183.368 -0.95645 1.70621 0
M  V30 1913 O 184.574 -1.44889 2.29607 0
M  V30 1914 C 183.03 0.84177 3.49917 0
M  V30 1915 C 182.638 2.31514 3.83543 0
M  V30 1916 C 184.382 0.525355 4.21237 0
M  V30 1917 C 182.289 2.59939 5.31212 0
M  V30 1918 H 181.219 0.182944 0.73147 0
M  V30 1919 H 183.87 1.07971 1.48373 0
M  V30 1920 H 182.252 0.190311 3.95542 0
M  V30 1921 H 183.426 3.0109 3.48829 0
M  V30 1922 H 181.741 2.59907 3.25326 0
M  V30 1923 H 184.338 0.714762 5.29901 0
M  V30 1924 H 184.681 -0.535222 4.12845 0
M  V30 1925 H 185.214 1.134 3.81294 0
M  V30 1926 H 181.953 3.64736 5.44654 0
M  V30 1927 H 181.473 1.94972 5.67227 0
M  V30 1928 H 183.152 2.45429 5.98643 0
M  V30 1929 N 183.284 -1.43765 0.645699 0
M  V30 1930 C 184.53 -2.02731 0.164844 0
M  V30 1931 C 184.885 -1.49983 -1.2051 0
M  V30 1932 O 184.178 -0.680208 -1.79119 0
M  V30 1933 C 184.372 -3.57238 0.107679 0
M  V30 1934 C 184.201 -4.24977 1.47054 0
M  V30 1935 C 182.971 -4.61356 2.06103 0
M  V30 1936 C 185.169 -4.54476 2.40741 0
M  V30 1937 N 183.151 -5.14132 3.35473 0
M  V30 1938 C 184.522 -5.08489 3.54737 0
M  V30 1939 C 186.577 -4.36438 2.39637 0
M  V30 1940 C 185.28 -5.46364 4.67845 0
M  V30 1941 C 187.306 -4.7537 3.5182 0
M  V30 1942 C 186.668 -5.2951 4.64541 0
M  V30 1943 H 182.767 -0.774976 0.104578 0
M  V30 1944 H 185.351 -1.75051 0.852367 0
M  V30 1945 H 183.522 -3.84498 -0.549165 0
M  V30 1946 H 185.254 -4.0288 -0.383351 0
M  V30 1947 H 182.009 -4.46151 1.58892 0
M  V30 1948 H 182.433 -5.4498 4.01654 0
M  V30 1949 H 187.075 -3.93861 1.53731 0
M  V30 1950 H 184.793 -5.87888 5.54448 0
M  V30 1951 H 188.379 -4.63115 3.52159 0
M  V30 1952 H 187.259 -5.59077 5.49911 0
M  V30 1953 N 184.763 -0.387143 -1.52771 0
M  V30 1954 C 185.993 0.195585 -2.05672 0
M  V30 1955 C 186.401 1.41241 -1.25887 0
M  V30 1956 O 185.744 1.81265 -0.298081 0
M  V30 1957 C 185.806 0.632327 -3.53895 0
M  V30 1958 C 185.47 -0.470739 -4.54569 0
M  V30 1959 C 186.467 -1.32746 -5.02667 0
M  V30 1960 C 184.152 -0.637151 -4.98243 0
M  V30 1961 C 186.146 -2.33574 -5.93061 0
M  V30 1962 C 183.833 -1.64877 -5.88438 0
M  V30 1963 C 184.831 -2.49649 -6.35739 0
M  V30 1964 O 184.519 -3.49082 -7.24153 0
M  V30 1965 H 184.251 0.033658 -0.675162 0
M  V30 1966 H 186.805 -0.550221 -1.97893 0
M  V30 1967 H 185.035 1.43008 -3.59285 0
M  V30 1968 H 186.724 1.14048 -3.89548 0
M  V30 1969 H 187.49 -1.21019 -4.69659 0
M  V30 1970 H 183.369 0.0129567 -4.60998 0
M  V30 1971 H 186.913 -2.99777 -6.29904 0
M  V30 1972 H 182.81 -1.76643 -6.2086 0
M  V30 1973 H 183.578 -3.45065 -7.42208 0
M  V30 1974 N 186.241 1.57166 -0.116904 0
M  V30 1975 C 187.487 1.95412 0.542405 0
M  V30 1976 C 187.82 1.00019 1.66463 0
M  V30 1977 O 187.095 0.0370346 1.94465 0
M  V30 1978 C 187.378 3.43615 1.07708 0
M  V30 1979 C 187.231 4.49781 -0.0415868 0
M  V30 1980 C 188.55 3.93616 1.96861 0
M  V30 1981 H 185.669 0.710543 0.195696 0
M  V30 1982 H 188.311 1.89027 -0.192038 0
M  V30 1983 H 186.461 3.49187 1.70296 0
M  V30 1984 H 188.133 4.56308 -0.676793 0
M  V30 1985 H 186.376 4.28033 -0.705019 0
M  V30 1986 H 187.047 5.50733 0.373717 0
M  V30 1987 H 189.523 3.90335 1.44146 0
M  V30 1988 H 188.399 4.97838 2.3119 0
M  V30 1989 H 188.66 3.34188 2.89432 0
M  V30 1990 N 187.719 -0.156864 1.56817 0
M  V30 1991 C 188.968 -0.869504 1.81996 0
M  V30 1992 C 189.281 -1.82777 0.696545 0
M  V30 1993 O 190.487 -2.58384 0.833658 0
M  V30 1994 C 188.943 -1.59679 3.22538 0
M  V30 1995 C 188.551 -0.681431 4.42787 0
M  V30 1996 C 190.295 -2.2968 3.56997 0
M  V30 1997 C 188.202 -1.40978 5.74351 0
M  V30 1998 H 187.132 -0.328438 0.678708 0
M  V30 1999 H 189.783 -0.1223 1.83092 0
M  V30 2000 H 188.165 -2.38927 3.158 0
M  V30 2001 H 189.339 0.0751166 4.60739 0
M  V30 2002 H 187.654 -0.0903431 4.16302 0
M  V30 2003 H 190.251 -2.84794 4.52544 0
M  V30 2004 H 190.594 -3.05707 2.82576 0
M  V30 2005 H 191.127 -1.57361 3.65352 0
M  V30 2006 H 187.866 -0.691561 6.51842 0
M  V30 2007 H 187.386 -2.13929 5.60352 0
M  V30 2008 H 189.065 -1.95337 6.16808 0
M  V30 2009 N 189.197 -1.51736 -0.425897 0
M  V30 2010 C 190.474 -1.55519 -1.1863 0
M  V30 2011 C 190.854 -0.326219 -2.08564 0
M  V30 2012 O 190.202 0.688012 -2.17896 0
M  V30 2013 C 190.412 -2.87521 -1.9782 0
M  V30 2014 C 191.76 -3.39899 -2.54468 0
M  V30 2015 O 192.784 -2.89148 -2.08019 0
M  V30 2016 O 191.643 -4.2848 -3.39215 0
M  V30 2017 H 188.737 -0.625739 -0.540721 0
M  V30 2018 H 191.283 -1.64055 -0.434038 0
M  V30 2019 H 190.055 -3.68422 -1.31836 0
M  V30 2020 H 189.678 -2.822 -2.80088 0
M  V30 2021 N 190.675 0.682077 -1.42076 0
M  V30 2022 C 191.605 1.80796 -1.47767 0
M  V30 2023 C 192.586 1.6677 -0.334954 0
M  V30 2024 O 193.771 1.863 -0.548264 0
M  V30 2025 C 190.901 3.19038 -1.37229 0
M  V30 2026 C 189.855 3.47789 -2.49453 0
M  V30 2027 C 189.181 4.8553 -2.23975 0
M  V30 2028 C 190.481 3.45411 -3.91776 0
M  V30 2029 H 192.175 1.7629 -2.41997 0
M  V30 2030 H 189.721 0.846721 -1.16476 0
M  V30 2031 H 191.674 3.97528 -1.39821 0
M  V30 2032 H 190.398 3.24204 -0.394907 0
M  V30 2033 H 189.057 2.71657 -2.46166 0
M  V30 2034 H 188.705 4.87337 -1.24547 0
M  V30 2035 H 188.405 5.0573 -2.99184 0
M  V30 2036 H 189.929 5.66312 -2.28304 0
M  V30 2037 H 191.343 4.13882 -3.96705 0
M  V30 2038 H 189.74 3.77145 -4.66778 0
M  V30 2039 H 190.81 2.44122 -4.18966 0
M  V30 2040 N 192.153 1.28127 0.917671 0
M  V30 2041 C 193.083 1.14248 2.03641 0
M  V30 2042 C 194.064 0.0412748 1.7005 0
M  V30 2043 O 195.249 0.217566 1.92977 0
M  V30 2044 C 192.379 0.799431 3.37974 0
M  V30 2045 C 191.333 1.85497 3.85713 0
M  V30 2046 C 190.659 1.36565 5.16966 0
M  V30 2047 C 191.959 3.26085 4.08002 0
M  V30 2048 H 193.653 2.07835 2.15511 0
M  V30 2049 H 191.199 1.00064 1.03553 0
M  V30 2050 H 193.152 0.689114 4.15727 0
M  V30 2051 H 191.876 -0.172145 3.26146 0
M  V30 2052 H 190.535 1.95437 3.10161 0
M  V30 2053 H 190.183 0.383253 5.01538 0
M  V30 2054 H 189.883 2.07143 5.49878 0
M  V30 2055 H 191.407 1.26848 5.97279 0
M  V30 2056 H 192.821 3.19089 4.76293 0
M  V30 2057 H 191.218 3.94462 4.52238 0
M  V30 2058 H 192.288 3.70394 3.12948 0
M  V30 2059 N 193.631 -1.12557 1.10312 0
M  V30 2060 C 194.859 -1.87864 0.866873 0
M  V30 2061 C 195.274 -1.79588 -0.582557 0
M  V30 2062 O 194.631 -1.16887 -1.40156 0
M  V30 2063 C 194.682 -3.37125 1.30496 0
M  V30 2064 O 194.403 -3.45201 2.69755 0
M  V30 2065 C 195.904 -4.29373 1.10243 0
M  V30 2066 H 193.124 -0.594452 0.311236 0
M  V30 2067 H 195.668 -1.42429 1.46745 0
M  V30 2068 H 193.823 -3.80109 0.748081 0
M  V30 2069 H 194.237 -4.38056 2.88457 0
M  V30 2070 H 195.711 -5.32394 1.45811 0
M  V30 2071 H 196.188 -4.39181 0.0409492 0
M  V30 2072 H 196.794 -3.92169 1.64571 0
M  V30 2073 N 195.109 -0.891671 -1.2995 0
M  V30 2074 C 196.357 -0.512486 -1.95494 0
M  V30 2075 C 196.678 0.942776 -1.70695 0
M  V30 2076 O 195.948 1.66374 -1.03424 0
M  V30 2077 H 194.528 -0.186533 -0.723336 0
M  V30 2078 H 197.19 -1.13621 -1.58355 0
M  V30 2079 H 196.286 -0.688342 -3.04415 0
M  V30 2080 N 196.587 1.43421 -0.653314 0
M  V30 2081 C 197.497 2.34568 0.0388565 0
M  V30 2082 C 198.513 1.53888 0.81207 0
M  V30 2083 O 199.689 1.86539 0.759294 0
M  V30 2084 C 196.754 3.32167 0.993269 0
M  V30 2085 C 195.815 4.28751 0.216977 0
M  V30 2086 C 195.048 5.21688 1.12593 0
M  V30 2087 O 195.271 5.19052 2.36519 0
M  V30 2088 O 194.205 5.98919 0.598284 0
M  V30 2089 H 198.031 2.95251 -0.711386 0
M  V30 2090 H 195.616 1.43564 -0.413502 0
M  V30 2091 H 197.498 3.92183 1.54176 0
M  V30 2092 H 196.173 2.73987 1.72374 0
M  V30 2093 H 195.08 3.72215 -0.375101 0
M  V30 2094 H 196.413 4.89913 -0.473924 0
M  V30 2095 N 198.065 0.39524 1.52563 0
M  V30 2096 C 199.012 -0.437036 2.26624 0
M  V30 2097 C 199.982 -1.05281 1.28472 0
M  V30 2098 O 201.167 -1.07971 1.57311 0
M  V30 2099 C 198.307 -1.55524 3.08069 0
M  V30 2100 C 197.42 -0.961745 4.21158 0
M  V30 2101 C 196.555 -2.05149 4.89987 0
M  V30 2102 C 195.594 -1.4342 5.95061 0
M  V30 2103 N 194.731 -2.46351 6.57462 0
M  V30 2104 H 199.571 0.200976 2.97322 0
M  V30 2105 H 197.108 0.110944 1.46681 0
M  V30 2106 H 199.066 -2.21437 3.53584 0
M  V30 2107 H 197.696 -2.16348 2.3957 0
M  V30 2108 H 196.748 -0.192048 3.79915 0
M  V30 2109 H 198.06 -0.470701 4.96574 0
M  V30 2110 H 197.214 -2.78819 5.38837 0
M  V30 2111 H 195.953 -2.57615 4.14109 0
M  V30 2112 H 194.958 -0.682774 5.45544 0
M  V30 2113 H 196.183 -0.917416 6.72875 0
M  V30 2114 H 194.129 -2.97975 5.8442 0
M  V30 2115 H 194.046 -2.02019 7.28508 0
M  V30 2116 H 195.314 -3.19633 7.10954 0
M  V30 2117 N 199.544 -1.57102 0.125237 0
M  V30 2118 C 200.476 -2.12726 -0.853237 0
M  V30 2119 C 201.489 -1.07145 -1.22571 0
M  V30 2120 O 202.678 -1.34497 -1.17358 0
M  V30 2121 C 199.778 -2.61709 -2.15317 0
M  V30 2122 C 198.951 -3.91456 -1.95143 0
M  V30 2123 C 198.01 -4.25973 -3.08923 0
M  V30 2124 O 197.036 -4.94682 -2.81564 0
M  V30 2125 N 198.238 -3.83795 -4.35524 0
M  V30 2126 H 201.003 -2.97307 -0.377964 0
M  V30 2127 H 198.564 -1.61792 -0.0590011 0
M  V30 2128 H 200.556 -2.81826 -2.90441 0
M  V30 2129 H 199.126 -1.81974 -2.54174 0
M  V30 2130 H 198.346 -3.80185 -1.04177 0
M  V30 2131 H 199.634 -4.76283 -1.78976 0
M  V30 2132 H 199.032 -3.2839 -4.60626 0
M  V30 2133 H 197.589 -4.09008 -5.07499 0
M  V30 2134 N 201.022 0.148545 -1.56898 0
M  V30 2135 C 201.954 1.20852 -1.9475 0
M  V30 2136 C 202.967 1.39265 -0.843152 0
M  V30 2137 O 204.156 1.38864 -1.12156 0
M  V30 2138 C 201.256 2.57362 -2.20495 0
M  V30 2139 C 200.429 2.59947 -3.51776 0
M  V30 2140 C 199.488 3.77984 -3.6608 0
M  V30 2141 O 198.514 3.62929 -4.38487 0
M  V30 2142 N 199.716 4.95375 -3.02629 0
M  V30 2143 H 202.481 0.886804 -2.86279 0
M  V30 2144 H 200.042 0.338121 -1.5833 0
M  V30 2145 H 202.034 3.34833 -2.27307 0
M  V30 2146 H 200.604 2.81832 -1.35238 0
M  V30 2147 H 199.824 1.68403 -3.56419 0
M  V30 2148 H 201.112 2.58704 -4.38121 0
M  V30 2149 H 200.51 5.10509 -2.43715 0
M  V30 2150 H 199.067 5.70627 -3.15004 0
M  V30 2151 N 202.5 1.5196 0.417844 0
M  V30 2152 C 203.728 1.69426 1.18753 0
M  V30 2153 C 204.143 0.399955 1.84515 0
M  V30 2154 O 203.5 -0.623288 1.71527 0
M  V30 2155 C 203.551 2.82375 2.25714 0
M  V30 2156 O 203.272 4.06793 1.62638 0
M  V30 2157 C 204.773 3.11277 3.15628 0
M  V30 2158 H 201.993 0.568031 0.357186 0
M  V30 2159 H 204.537 1.98475 0.49273 0
M  V30 2160 H 202.692 2.5587 2.90877 0
M  V30 2161 H 203.106 4.69667 2.3348 0
M  V30 2162 H 204.58 3.93843 3.86771 0
M  V30 2163 H 205.057 2.24473 3.77503 0
M  V30 2164 H 205.663 3.39515 2.56144 0
M  V30 2165 N 203.978 -0.674533 1.42435 0
M  V30 2166 C 204.908 -1.80009 1.48724 0
M  V30 2167 C 205.889 -1.6659 0.343793 0
M  V30 2168 O 207.074 -1.86007 0.558137 0
M  V30 2169 C 204.204 -3.18306 1.38919 0
M  V30 2170 C 203.158 -3.46461 2.51294 0
M  V30 2171 C 202.484 -4.84335 2.26547 0
M  V30 2172 C 203.784 -3.43328 3.93603 0
M  V30 2173 H 205.478 -1.75004 2.42928 0
M  V30 2174 H 203.024 -0.840533 1.16923 0
M  V30 2175 H 204.977 -3.9678 1.41927 0
M  V30 2176 H 203.701 -3.2399 0.412094 0
M  V30 2177 H 202.36 -2.70348 2.47604 0
M  V30 2178 H 202.008 -4.86669 1.2713 0
M  V30 2179 H 201.708 -5.04136 3.01861 0
M  V30 2180 H 203.232 -5.65094 2.31304 0
M  V30 2181 H 204.646 -4.11772 3.98894 0
M  V30 2182 H 203.043 -3.74664 4.68771 0
M  V30 2183 H 204.113 -2.41897 4.20255 0
M  V30 2184 N 205.456 -1.28612 -0.910864 0
M  V30 2185 C 206.681 -1.1891 -1.69927 0
M  V30 2186 C 207.106 0.248372 -1.86453 0
M  V30 2187 O 206.464 1.17961 -1.37676 0
M  V30 2188 C 206.512 -1.89578 -3.06745 0
M  V30 2189 O 205.616 -1.20521 -3.94396 0
M  V30 2190 H 204.957 -0.412632 -0.520222 0
M  V30 2191 H 207.487 -1.69985 -1.1387 0
M  V30 2192 H 207.497 -1.97597 -3.56958 0
M  V30 2193 H 206.172 -2.94136 -2.94035 0
M  V30 2194 H 204.749 -1.20684 -3.52831 0
M  V30 2195 N 206.934 1.1197 -1.10907 0
M  V30 2196 C 208.159 1.87942 -0.877064 0
M  V30 2197 C 208.584 1.79341 0.567314 0
M  V30 2198 O 207.942 1.15184 1.40009 0
M  V30 2199 C 207.99 3.34926 -1.33629 0
M  V30 2200 O 207.094 4.09303 -0.504447 0
M  V30 2201 H 206.435 0.583785 -0.316371 0
M  V30 2202 H 208.965 1.4157 -1.47712 0
M  V30 2203 H 208.975 3.8577 -1.32837 0
M  V30 2204 H 207.65 3.40504 -2.3881 0
M  V30 2205 H 206.227 3.68393 -0.577993 0
M  V30 2206 N 208.412 0.89855 1.29475 0
M  V30 2207 C 209.375 0.380272 2.26023 0
M  V30 2208 C 210.375 -0.484891 1.53315 0
M  V30 2209 O 211.565 -0.290108 1.71767 0
M  V30 2210 C 208.697 -0.45651 3.3783 0
M  V30 2211 H 209.89 1.23295 2.73383 0
M  V30 2212 H 207.443 0.676589 1.40897 0
M  V30 2213 H 208.178 -1.32922 2.95808 0
M  V30 2214 H 207.963 0.163393 3.91759 0
M  V30 2215 H 209.453 -0.810466 4.0966 0
M  V30 2216 N 209.89 -1.43072 0.660911 0
M  V30 2217 C 211.137 -2.01721 0.177445 0
M  V30 2218 C 211.465 -1.5218 -1.21126 0
M  V30 2219 O 210.72 -0.708659 -1.82419 0
M  V30 2220 C 211.019 -3.57103 0.145563 0
M  V30 2221 C 210.685 -4.26021 1.47705 0
M  V30 2222 C 209.347 -4.44563 1.84165 0
M  V30 2223 C 211.699 -4.64983 2.35458 0
M  V30 2224 C 209.027 -4.99334 3.0803 0
M  V30 2225 C 211.379 -5.21127 3.58622 0
M  V30 2226 C 210.043 -5.37884 3.95268 0
M  V30 2227 H 209.313 -0.73815 0.0649317 0
M  V30 2228 H 211.96 -1.71446 0.853144 0
M  V30 2229 H 210.265 -3.86965 -0.61361 0
M  V30 2230 H 211.962 -4.00248 -0.2455 0
M  V30 2231 H 208.552 -4.11939 1.18339 0
M  V30 2232 H 212.736 -4.50343 2.08579 0
M  V30 2233 H 207.992 -5.10493 3.36462 0
M  V30 2234 H 212.166 -5.50262 4.26831 0
M  V30 2235 H 209.793 -5.80089 4.91325 0
M  V30 2236 N 211.368 -0.403325 -1.52352 0
M  V30 2237 C 212.331 0.413051 -2.25447 0
M  V30 2238 C 213.331 0.978513 -1.276 0
M  V30 2239 O 214.521 0.858305 -1.51587 0
M  V30 2240 C 211.653 1.58087 -3.02029 0
M  V30 2241 H 212.846 -0.227094 -2.99039 0
M  V30 2242 H 210.399 -0.155722 -1.55522 0
M  V30 2243 H 211.134 2.25804 -2.32772 0
M  V30 2244 H 210.919 1.18195 -3.73861 0
M  V30 2245 H 212.409 2.1585 -3.57489 0
M  V30 2246 N 212.846 1.57033 -0.133567 0
M  V30 2247 C 214.123 1.87256 0.56522 0
M  V30 2248 C 214.503 1.03726 1.83859 0
M  V30 2249 O 213.851 0.120247 2.28183 0
M  V30 2250 C 214.061 3.3865 0.843636 0
M  V30 2251 C 215.409 4.07574 1.19032 0
M  V30 2252 O 216.433 3.43752 0.933429 0
M  V30 2253 O 215.292 5.20259 1.67312 0
M  V30 2254 H 212.386 0.775678 0.286796 0
M  V30 2255 H 214.932 1.68855 -0.169168 0
M  V30 2256 H 213.704 3.91257 -0.0581149 0
M  V30 2257 H 213.327 3.62532 1.63268 0
M  V30 2258 N 214.325 -0.140222 1.56975 0
M  V30 2259 C 215.55 -0.870414 1.88251 0
M  V30 2260 C 215.975 -1.73637 0.723312 0
M  V30 2261 O 215.333 -1.78329 -0.32689 0
M  V30 2262 C 215.381 -1.69737 3.18154 0
M  V30 2263 O 214.485 -2.80229 3.02565 0
M  V30 2264 H 213.826 -0.242025 0.61832 0
M  V30 2265 H 216.356 -0.128999 2.04193 0
M  V30 2266 H 216.366 -2.09099 3.50345 0
M  V30 2267 H 215.041 -1.06152 4.02125 0
M  V30 2268 H 213.618 -2.44224 2.81796 0
M  V30 2269 N 215.803 -1.52179 -0.40978 0
M  V30 2270 C 216.733 -1.78435 -1.5061 0
M  V30 2271 C 217.714 -0.635295 -1.57791 0
M  V30 2272 O 218.899 -0.880823 -1.73076 0
M  V30 2273 C 216.029 -1.93444 -2.88439 0
M  V30 2274 C 214.983 -3.09038 -2.96108 0
M  V30 2275 C 214.309 -3.09268 -4.36185 0
M  V30 2276 C 215.609 -4.48508 -2.67652 0
M  V30 2277 H 217.303 -2.70237 -1.28889 0
M  V30 2278 H 214.849 -1.30036 -0.618605 0
M  V30 2279 H 216.802 -2.10394 -3.65119 0
M  V30 2280 H 215.526 -0.983129 -3.11452 0
M  V30 2281 H 214.185 -2.91837 -2.21872 0
M  V30 2282 H 213.833 -2.11861 -4.56206 0
M  V30 2283 H 213.533 -3.86907 -4.42241 0
M  V30 2284 H 215.057 -3.28348 -5.14801 0
M  V30 2285 H 216.471 -4.65918 -3.34056 0
M  V30 2286 H 214.868 -5.28059 -2.85085 0
M  V30 2287 H 215.938 -4.56649 -1.63095 0
M  V30 2288 N 217.281 0.66697 -1.42791 0
M  V30 2289 C 218.521 1.43892 -1.4517 0
M  V30 2290 C 218.885 1.91877 -0.0687551 0
M  V30 2291 O 220.086 2.6878 0.0327455 0
M  V30 2292 C 218.357 2.59839 -2.45395 0
M  V30 2293 S 219.916 3.48572 -2.66539 0
M  V30 2294 H 216.734 0.491356 -0.513897 0
M  V30 2295 H 219.336 0.775656 -1.79454 0
M  V30 2296 H 218.04 2.22838 -3.44632 0
M  V30 2297 H 217.571 3.3103 -2.12562 0
M  V30 2298 H 219.586 4.56094 -1.95429 0
M  V30 2299 N 218.759 1.29093 0.90403 0
M  V30 2300 C 220.17 1.15186 1.46932 0
M  V30 2301 C 220.521 -0.254587 1.94541 0
M  V30 2302 O 219.646 -1.14972 1.83332 0
M  V30 2303 C 220.241 2.08492 2.67051 0
M  V30 2304 C 218.8 1.98621 3.19729 0
M  V30 2305 C 217.947 1.9967 1.92425 0
M  V30 2306 H 220.898 1.41641 0.715789 0
M  V30 2307 H 220.919 1.65461 3.42641 0
M  V30 2308 H 220.431 3.10847 2.3237 0
M  V30 2309 H 218.532 0.993389 3.59114 0
M  V30 2310 H 218.645 2.86068 3.8432 0
M  V30 2311 H 217.009 1.44208 2.09943 0
M  V30 2312 H 217.792 3.03721 1.60026 0
M  V30 2313 N 220.237 -1.11381 1.11499 0
M  V30 2314 C 221.462 -1.87475 0.887019 0
M  V30 2315 C 221.887 -1.79639 -0.557796 0
M  V30 2316 O 221.245 -1.15924 -1.39396 0
M  V30 2317 C 221.293 -3.34213 1.35403 0
M  V30 2318 O 220.397 -4.0903 0.526146 0
M  V30 2319 H 219.738 -0.582099 0.319463 0
M  V30 2320 H 222.268 -1.40785 1.48461 0
M  V30 2321 H 222.278 -3.8506 1.34881 0
M  V30 2322 H 220.953 -3.39232 2.40612 0
M  V30 2323 H 219.53 -3.68082 0.597522 0
M  V30 2324 N 221.715 -0.905404 -1.28997 0
M  V30 2325 C 222.943 -0.549846 -1.9946 0
M  V30 2326 C 223.358 0.866834 -1.67724 0
M  V30 2327 O 222.715 1.57298 -0.925404 0
M  V30 2328 C 222.766 -0.739387 -3.53858 0
M  V30 2329 O 222.487 -2.10031 -3.84472 0
M  V30 2330 C 223.988 -0.389541 -4.41585 0
M  V30 2331 H 221.208 -0.210429 -0.637151 0
M  V30 2332 H 223.752 -1.21632 -1.64396 0
M  V30 2333 H 221.907 -0.120023 -3.87214 0
M  V30 2334 H 222.321 -2.13385 -4.79132 0
M  V30 2335 H 223.795 -0.572972 -5.49018 0
M  V30 2336 H 224.272 0.673756 -4.34001 0
M  V30 2337 H 224.878 -0.986089 -4.1371 0
M  V30 2338 N 223.193 1.4272 -0.668489 0
M  V30 2339 C 224.418 2.06484 -0.194758 0
M  V30 2340 C 224.843 1.49862 1.13679 0
M  V30 2341 O 224.201 0.614582 1.70565 0
M  V30 2342 C 224.249 3.60353 -0.133546 0
M  V30 2343 O 223.353 4.02464 0.899806 0
M  V30 2344 H 222.694 0.656137 -0.10188 0
M  V30 2345 H 225.224 1.82964 -0.915722 0
M  V30 2346 H 225.234 4.07976 0.0447041 0
M  V30 2347 H 223.909 4.00938 -1.1055 0
M  V30 2348 H 222.486 3.66402 0.693109 0
M  V30 2349 N 224.671 0.411399 1.52136 0
M  V30 2350 C 225.601 -0.404015 2.29978 0
M  V30 2351 C 226.582 -1.04412 1.34284 0
M  V30 2352 O 227.767 -1.0527 1.63192 0
M  V30 2353 C 224.897 -1.5197 3.12286 0
M  V30 2354 C 223.851 -1.00448 4.16046 0
M  V30 2355 C 223.177 -2.21393 4.86712 0
M  V30 2356 C 224.477 -0.0569336 5.22269 0
M  V30 2357 H 226.171 0.245529 2.98392 0
M  V30 2358 H 223.717 0.119525 1.43503 0
M  V30 2359 H 225.67 -2.09715 3.6551 0
M  V30 2360 H 224.394 -2.19716 2.41646 0
M  V30 2361 H 223.053 -0.449421 3.63835 0
M  V30 2362 H 222.701 -2.87699 4.12599 0
M  V30 2363 H 222.401 -1.87571 5.56858 0
M  V30 2364 H 223.925 -2.7974 5.4275 0
M  V30 2365 H 225.339 -0.54325 5.7072 0
M  V30 2366 H 223.736 0.192594 5.99791 0
M  V30 2367 H 224.806 0.887663 4.76706 0
M  V30 2368 N 226.149 -1.5696 0.141893 0
M  V30 2369 C 227.079 -2.19516 -0.795936 0
M  V30 2370 C 228.06 -1.14187 -1.26077 0
M  V30 2371 O 229.245 -1.42511 -1.31925 0
M  V30 2372 C 226.375 -2.81272 -2.03723 0
M  V30 2373 C 225.329 -3.92384 -1.70936 0
M  V30 2374 C 224.655 -4.41052 -3.02287 0
M  V30 2375 C 225.955 -5.13403 -0.959954 0
M  V30 2376 H 227.649 -2.98138 -0.274596 0
M  V30 2377 H 225.195 -1.43406 -0.130636 0
M  V30 2378 H 227.148 -3.237 -2.69808 0
M  V30 2379 H 225.872 -1.99973 -2.58221 0
M  V30 2380 H 224.531 -3.50566 -1.07232 0
M  V30 2381 H 224.179 -3.56582 -3.54765 0
M  V30 2382 H 223.879 -5.15993 -2.81114 0
M  V30 2383 H 225.403 -4.86146 -3.69451 0
M  V30 2384 H 226.817 -5.52706 -1.52279 0
M  V30 2385 H 225.214 -5.94073 -0.848357 0
M  V30 2386 H 226.284 -4.84875 0.0492434 0
M  V30 2387 N 227.627 0.131896 -1.57047 0
M  V30 2388 C 228.857 0.855219 -1.88068 0
M  V30 2389 C 229.265 1.74557 -0.729817 0
M  V30 2390 O 228.608 1.81083 0.308962 0
M  V30 2391 C 228.67 1.75119 -3.13964 0
M  V30 2392 C 228.334 1.03646 -4.45091 0
M  V30 2393 C 229.331 0.383276 -5.18485 0
M  V30 2394 C 227.016 1.02148 -4.91804 0
M  V30 2395 C 229.01 -0.275347 -6.36805 0
M  V30 2396 C 226.697 0.359047 -6.10044 0
M  V30 2397 C 227.695 -0.288222 -6.82392 0
M  V30 2398 O 227.383 -0.94011 -7.98384 0
M  V30 2399 H 227.115 0.251864 -0.627328 0
M  V30 2400 H 229.669 0.124782 -2.05021 0
M  V30 2401 H 227.899 2.52295 -2.9306 0
M  V30 2402 H 229.588 2.3478 -3.31109 0
M  V30 2403 H 230.354 0.386562 -4.83457 0
M  V30 2404 H 226.233 1.5147 -4.35405 0
M  V30 2405 H 229.777 -0.781148 -6.93213 0
M  V30 2406 H 225.674 0.35348 -6.44531 0
M  V30 2407 H 226.442 -0.84329 -8.14144 0
M  V30 2408 N 229.106 1.52395 0.401703 0
M  V30 2409 C 230.036 1.79231 1.49661 0
M  V30 2410 C 231.017 0.643654 1.57452 0
M  V30 2411 O 232.202 0.889989 1.72606 0
M  V30 2412 C 229.332 1.94971 2.87409 0
M  V30 2413 C 228.286 3.10604 2.94465 0
M  V30 2414 C 227.612 3.11577 4.34538 0
M  V30 2415 C 228.912 4.49921 2.6527 0
M  V30 2416 H 230.606 2.70917 1.27454 0
M  V30 2417 H 228.152 1.30362 0.6117 0
M  V30 2418 H 230.105 2.12328 3.63999 0
M  V30 2419 H 228.829 0.999632 3.10926 0
M  V30 2420 H 227.488 2.93009 2.20321 0
M  V30 2421 H 227.136 2.14277 4.55076 0
M  V30 2422 H 226.836 3.89247 4.40183 0
M  V30 2423 H 228.36 3.31073 5.13053 0
M  V30 2424 H 229.774 4.67683 3.31581 0
M  V30 2425 H 228.171 5.29564 2.82281 0
M  V30 2426 H 229.241 4.57507 1.60671 0
M  V30 2427 N 230.584 -0.659388 1.43143 0
M  V30 2428 C 231.832 -1.41654 1.44147 0
M  V30 2429 C 232.153 -1.94893 0.0645739 0
M  V30 2430 O 231.423 -1.74044 -0.899198 0
M  V30 2431 H 230.003 -0.525708 0.530697 0
M  V30 2432 H 232.665 -0.778097 1.78694 0
M  V30 2433 H 231.761 -2.26195 2.1504 0
M  V30 2434 N 232.062 -1.29571 -0.897171 0
M  V30 2435 C 233.478 -1.07637 -1.17841 0
M  V30 2436 C 233.678 0.170713 -2.00776 0
M  V30 2437 O 232.734 0.867768 -2.3712 0
M  V30 2438 C 234.047 -2.3332 -1.8969 0
M  V30 2439 C 235.595 -2.38664 -2.02505 0
M  V30 2440 C 236.07 -3.64157 -2.77765 0
M  V30 2441 N 237.561 -3.64894 -2.85318 0
M  V30 2442 C 238.296 -4.58679 -3.44094 0
M  V30 2443 N 237.792 -5.62799 -4.04017 0
M  V30 2444 N 239.585 -4.46245 -3.41793 0
M  V30 2445 H 231.736 -2.09598 -0.343883 0
M  V30 2446 H 233.999 -0.923333 -0.214848 0
M  V30 2447 H 233.705 -3.24262 -1.36187 0
M  V30 2448 H 233.579 -2.41025 -2.9015 0
M  V30 2449 H 235.966 -1.48208 -2.55183 0
M  V30 2450 H 236.047 -2.34943 -1.01171 0
M  V30 2451 H 235.691 -4.54965 -2.25763 0
M  V30 2452 H 235.621 -3.65137 -3.7945 0
M  V30 2453 H 238.112 -2.89613 -2.42761 0
M  V30 2454 H 238.425 -6.3048 -4.46895 0
M  V30 2455 H 236.77 -5.66605 -4.02472 0
M  V30 2456 H 239.961 -3.64094 -2.94199 0
M  V30 2457 H 240.134 -5.19518 -3.87304 0
M  V30 2458 N 233.54 1.10788 -1.12088 0
M  V30 2459 C 234.768 1.86461 -0.896651 0
M  V30 2460 C 235.183 1.80492 0.553912 0
M  V30 2461 O 234.54 1.19102 1.38278 0
M  V30 2462 C 234.591 3.35006 -1.35843 0
M  V30 2463 O 234.312 3.40866 -2.75213 0
M  V30 2464 C 235.813 4.27565 -1.1706 0
M  V30 2465 H 233.033 0.589425 -0.320654 0
M  V30 2466 H 235.577 1.40076 -1.48993 0
M  V30 2467 H 233.732 3.7887 -0.808458 0
M  V30 2468 H 234.146 4.33411 -2.9539 0
M  V30 2469 H 235.62 5.30007 -1.54263 0
M  V30 2470 H 236.097 4.3906 -0.110814 0
M  V30 2471 H 236.703 3.89501 -1.70789 0
M  V30 2472 N 235.018 0.912232 1.28515 0
M  V30 2473 C 235.928 0.404506 2.31086 0
M  V30 2474 C 236.944 -0.50707 1.66448 0
M  V30 2475 O 238.12 -0.393624 1.97516 0
M  V30 2476 C 235.185 -0.348572 3.44943 0
M  V30 2477 C 234.246 0.59604 4.25142 0
M  V30 2478 C 233.479 -0.121194 5.33562 0
M  V30 2479 O 233.702 -1.34317 5.5436 0
M  V30 2480 O 232.636 0.542716 5.99448 0
M  V30 2481 H 236.462 1.25579 2.76521 0
M  V30 2482 H 234.047 0.676998 1.33181 0
M  V30 2483 H 235.929 -0.77395 4.14232 0
M  V30 2484 H 234.604 -1.17571 3.01594 0
M  V30 2485 H 233.511 1.07079 3.58448 0
M  V30 2486 H 234.844 1.38995 4.72167 0
M  V30 2487 N 236.496 -1.42363 0.676048 0
M  V30 2488 C 237.726 -2.05561 0.206967 0
M  V30 2489 C 238.134 -1.50887 -1.14148 0
M  V30 2490 O 237.477 -0.643933 -1.72044 0
M  V30 2491 C 237.539 -3.5944 0.0659508 0
M  V30 2492 C 237.203 -4.36812 1.34331 0
M  V30 2493 C 238.2 -4.67383 2.27704 0
M  V30 2494 C 235.885 -4.76429 1.59125 0
M  V30 2495 C 237.879 -5.36509 3.44147 0
M  V30 2496 C 235.566 -5.45294 2.75857 0
M  V30 2497 C 236.564 -5.75259 3.68193 0
M  V30 2498 O 236.252 -6.42712 4.82883 0
M  V30 2499 H 235.984 -0.668872 0.0979084 0
M  V30 2500 H 238.538 -1.83467 0.923531 0
M  V30 2501 H 236.768 -3.80197 -0.706204 0
M  V30 2502 H 238.457 -4.0427 -0.363418 0
M  V30 2503 H 239.223 -4.37275 2.09799 0
M  V30 2504 H 235.102 -4.52498 0.881258 0
M  V30 2505 H 238.646 -5.59814 4.16238 0
M  V30 2506 H 234.543 -5.7482 2.93688 0
M  V30 2507 H 235.311 -6.61204 4.82444 0
M  V30 2508 N 237.974 -0.419461 -1.51915 0
M  V30 2509 C 239.202 0.152136 -2.0634 0
M  V30 2510 C 239.617 1.37988 -1.28859 0
M  V30 2511 O 238.974 1.79243 -0.343232 0
M  V30 2512 C 239.025 0.492266 -3.58133 0
M  V30 2513 O 238.746 -0.686736 -4.32684 0
M  V30 2514 C 240.247 1.11648 -4.2901 0
M  V30 2515 H 237.467 0.0158325 -0.670813 0
M  V30 2516 H 240.011 -0.593394 -1.95702 0
M  V30 2517 H 238.166 1.18769 -3.68745 0
M  V30 2518 H 238.58 -0.400341 -5.2297 0
M  V30 2519 H 240.054 1.3046 -5.36362 0
M  V30 2520 H 240.531 2.09251 -3.86148 0
M  V30 2521 H 241.137 0.460958 -4.22795 0
M  V30 2522 N 239.452 1.56882 -0.150215 0
M  V30 2523 C 240.701 1.95403 0.500071 0
M  V30 2524 C 241.014 1.03777 1.658 0
M  V30 2525 O 242.22 1.31889 2.37313 0
M  V30 2526 C 240.676 3.4738 0.941018 0
M  V30 2527 C 240.284 4.47596 -0.190158 0
M  V30 2528 C 242.028 3.9476 1.56091 0
M  V30 2529 C 239.935 5.90787 0.269237 0
M  V30 2530 H 238.865 0.729515 0.190588 0
M  V30 2531 H 241.516 1.81988 -0.235074 0
M  V30 2532 H 239.898 3.56138 1.73152 0
M  V30 2533 H 241.072 4.50536 -0.967157 0
M  V30 2534 H 239.387 4.10151 -0.718666 0
M  V30 2535 H 241.984 4.99181 1.9163 0
M  V30 2536 H 242.327 3.36494 2.45107 0
M  V30 2537 H 242.86 3.88932 0.835249 0
M  V30 2538 H 239.599 6.52879 -0.585621 0
M  V30 2539 H 239.119 5.912 1.01204 0
M  V30 2540 H 240.798 6.42979 0.720176 0
M  V30 2541 N 240.93 -0.123565 1.57115 0
M  V30 2542 C 242.158 -0.846461 1.88793 0
M  V30 2543 C 242.573 -1.73652 0.740976 0
M  V30 2544 O 241.93 -1.80207 -0.288393 0
M  V30 2545 C 241.981 -1.6837 3.19897 0
M  V30 2546 O 241.702 -0.829477 4.30176 0
M  V30 2547 C 243.203 -2.51214 3.65248 0
M  V30 2548 H 240.423 -0.243573 0.625231 0
M  V30 2549 H 242.967 -0.109324 2.04208 0
M  V30 2550 H 241.122 -2.37364 3.06165 0
M  V30 2551 H 241.536 -1.40651 5.0529 0
M  V30 2552 H 243.01 -3.05497 4.59756 0
M  V30 2553 H 243.487 -3.28359 2.9168 0
M  V30 2554 H 244.093 -1.8747 3.81752 0
M  V30 2555 N 242.408 -1.52605 -0.393616 0
M  V30 2556 C 243.341 -1.71798 -1.50202 0
M  V30 2557 C 244.319 -0.565743 -1.52441 0
M  V30 2558 O 245.503 -0.794987 -1.70916 0
M  V30 2559 C 242.63 -1.7714 -2.88685 0
M  V30 2560 C 241.676 -2.98845 -3.04292 0
M  V30 2561 S 242.509 -4.58909 -2.75976 0
M  V30 2562 C 243.665 -4.6706 -4.1666 0
M  V30 2563 H 243.898 -2.65542 -1.33696 0
M  V30 2564 H 241.431 -1.42839 -0.586195 0
M  V30 2565 H 243.389 -1.80903 -3.68489 0
M  V30 2566 H 242.05 -0.844969 -3.02521 0
M  V30 2567 H 241.243 -2.99111 -4.05646 0
M  V30 2568 H 240.845 -2.9305 -2.32374 0
M  V30 2569 H 243.137 -4.45391 -5.10523 0
M  V30 2570 H 244.08 -5.6905 -4.21412 0
M  V30 2571 H 244.488 -3.95944 -4.02354 0
M  V30 2572 N 243.887 0.651787 -1.4349 0
M  V30 2573 C 245.117 1.43728 -1.48411 0
M  V30 2574 C 245.525 1.8893 -0.10103 0
M  V30 2575 O 244.868 1.60182 0.899307 0
M  V30 2576 C 244.93 2.70411 -2.36893 0
M  V30 2577 C 244.594 2.4714 -3.8441 0
M  V30 2578 C 245.591 2.10271 -4.75481 0
M  V30 2579 C 243.276 2.6142 -4.28912 0
M  V30 2580 C 245.27 1.87982 -6.0905 0
M  V30 2581 C 242.957 2.38746 -5.62533 0
M  V30 2582 C 243.955 2.02083 -6.5242 0
M  V30 2583 O 243.643 1.79647 -7.8357 0
M  V30 2584 H 243.375 0.447962 -0.506267 0
M  V30 2585 H 245.929 0.80624 -1.88915 0
M  V30 2586 H 244.159 3.36079 -1.91278 0
M  V30 2587 H 245.848 3.32364 -2.33 0
M  V30 2588 H 246.614 1.98814 -4.42378 0
M  V30 2589 H 242.493 2.88931 -3.59222 0
M  V30 2590 H 246.037 1.5929 -6.7917 0
M  V30 2591 H 241.934 2.49806 -5.95203 0
M  V30 2592 H 242.702 1.9406 -7.95162 0
M  V30 2593 N 245.365 1.30045 0.890287 0
M  V30 2594 C 246.642 1.09227 1.62262 0
M  V30 2595 C 247.022 -0.360305 2.08002 0
M  V30 2596 O 246.37 -1.35084 1.84295 0
M  V30 2597 C 246.58 2.08835 2.79623 0
M  V30 2598 C 247.928 2.40266 3.50082 0
M  V30 2599 O 248.952 2.07104 2.89804 0
M  V30 2600 O 247.811 2.96967 4.58773 0
M  V30 2601 H 244.905 0.419132 0.712922 0
M  V30 2602 H 247.451 1.41451 0.937529 0
M  V30 2603 H 246.223 3.06633 2.43089 0
M  V30 2604 H 245.846 1.77397 3.55832 0
M  V30 2605 N 246.843 -1.10192 1.12674 0
M  V30 2606 C 248.071 -1.85983 0.906527 0
M  V30 2607 C 248.486 -1.80783 -0.544333 0
M  V30 2608 O 247.843 -1.19834 -1.37645 0
M  V30 2609 C 247.894 -3.34281 1.37618 0
M  V30 2610 O 247.615 -3.39401 2.77017 0
M  V30 2611 C 249.116 -4.26938 1.19325 0
M  V30 2612 H 246.336 -0.587716 0.323775 0
M  V30 2613 H 248.88 -1.39284 1.49734 0
M  V30 2614 H 247.035 -3.78436 0.828539 0
M  V30 2615 H 247.449 -4.31838 2.97684 0
M  V30 2616 H 248.923 -5.29181 1.57071 0
M  V30 2617 H 249.4 -4.38995 0.134097 0
M  V30 2618 H 250.006 -3.8859 1.72852 0
M  V30 2619 N 248.321 -0.919034 -1.28029 0
M  V30 2620 C 249.268 -0.410005 -2.27129 0
M  V30 2621 C 250.238 0.518405 -1.57803 0
M  V30 2622 O 251.423 0.439451 -1.8567 0
M  V30 2623 C 248.563 0.339054 -3.4343 0
M  V30 2624 C 247.676 -0.622468 -4.27492 0
M  V30 2625 C 246.811 0.145567 -5.31001 0
M  V30 2626 C 245.85 -0.809226 -6.06727 0
M  V30 2627 N 244.987 -0.0743728 -7.02061 0
M  V30 2628 H 249.827 -1.26011 -2.70047 0
M  V30 2629 H 247.364 -0.632663 -1.328 0
M  V30 2630 H 249.322 0.789586 -4.0966 0
M  V30 2631 H 247.952 1.15346 -3.01488 0
M  V30 2632 H 247.004 -1.19153 -3.61257 0
M  V30 2633 H 248.316 -1.35252 -4.80113 0
M  V30 2634 H 247.47 0.656417 -6.03139 0
M  V30 2635 H 246.209 0.908643 -4.79161 0
M  V30 2636 H 245.214 -1.3314 -5.33436 0
M  V30 2637 H 246.439 -1.57194 -6.60656 0
M  V30 2638 H 244.385 0.670616 -6.52563 0
M  V30 2639 H 244.302 -0.744157 -7.52329 0
M  V30 2640 H 245.57 0.416109 -7.78389 0
M  V30 2641 N 249.799 1.42003 -0.683588 0
M  V30 2642 C 251.027 2.05746 -0.218182 0
M  V30 2643 C 251.442 1.51396 1.12804 0
M  V30 2644 O 250.799 0.657303 1.70252 0
M  V30 2645 C 250.85 3.61171 -0.154131 0
M  V30 2646 O 250.571 4.13508 -1.44716 0
M  V30 2647 C 252.072 4.42042 0.333713 0
M  V30 2648 H 249.292 0.662888 -0.10402 0
M  V30 2649 H 251.836 1.81987 -0.9328 0
M  V30 2650 H 249.991 3.84012 0.511231 0
M  V30 2651 H 250.405 5.07453 -1.32632 0
M  V30 2652 H 251.879 5.51028 0.327423 0
M  V30 2653 H 252.356 4.17269 1.37053 0
M  V30 2654 H 252.962 4.24239 -0.300222 0
M  V30 2655 N 251.277 0.427512 1.51691 0
M  V30 2656 C 252.693 0.0792977 1.59403 0
M  V30 2657 C 252.893 -1.41035 1.43914 0
M  V30 2658 O 251.949 -2.17922 1.27539 0
M  V30 2659 C 253.262 0.590636 2.94842 0
M  V30 2660 C 254.81 0.550215 3.08126 0
M  V30 2661 C 255.285 1.03836 4.46074 0
M  V30 2662 N 256.776 0.995943 4.52366 0
M  V30 2663 C 257.511 1.34463 5.57411 0
M  V30 2664 N 257.007 1.76569 6.69922 0
M  V30 2665 N 258.8 1.26343 5.47717 0
M  V30 2666 H 250.951 1.39687 1.60004 0
M  V30 2667 H 253.214 0.575003 0.753708 0
M  V30 2668 H 252.92 1.63251 3.11516 0
M  V30 2669 H 252.794 0.0102061 3.77199 0
M  V30 2670 H 255.181 -0.482654 2.91126 0
M  V30 2671 H 255.262 1.16693 2.27632 0
M  V30 2672 H 254.906 2.06965 4.63819 0
M  V30 2673 H 254.836 0.398286 5.25092 0
M  V30 2674 H 257.327 0.68661 3.7161 0
M  V30 2675 H 257.64 2.01438 7.46085 0
M  V30 2676 H 255.985 1.80488 6.71155 0
M  V30 2677 H 259.176 0.933209 4.58703 0
M  V30 2678 H 259.349 1.53846 6.29472 0
M  V30 2679 N 252.755 -1.56801 0.158532 0
M  V30 2680 C 253.665 -2.20916 -0.789518 0
M  V30 2681 C 254.681 -1.1969 -1.26294 0
M  V30 2682 O 255.857 -1.52308 -1.31773 0
M  V30 2683 C 252.922 -2.82727 -2.00665 0
M  V30 2684 C 251.983 -3.99114 -1.58134 0
M  V30 2685 C 251.216 -4.57968 -2.74045 0
M  V30 2686 O 251.439 -4.15704 -3.90572 0
M  V30 2687 O 250.373 -5.48047 -2.48855 0
M  V30 2688 H 254.199 -3.02464 -0.273681 0
M  V30 2689 H 251.784 -1.4924 -0.0690548 0
M  V30 2690 H 253.666 -3.21968 -2.71872 0
M  V30 2691 H 252.341 -2.04184 -2.51179 0
M  V30 2692 H 251.248 -3.64567 -0.839155 0
M  V30 2693 H 252.581 -4.79212 -1.12325 0
M  V30 2694 N 254.233 0.115231 -1.57178 0
M  V30 2695 C 255.163 1.1423 -2.03651 0
M  V30 2696 C 256.144 1.42967 -0.921655 0
M  V30 2697 O 257.329 1.53343 -1.19162 0
M  V30 2698 C 254.459 2.4675 -2.44401 0
M  V30 2699 C 253.413 2.32467 -3.59365 0
M  V30 2700 C 252.739 3.69984 -3.86026 0
M  V30 2701 C 254.039 1.78203 -4.90959 0
M  V30 2702 H 255.733 0.755749 -2.89705 0
M  V30 2703 H 253.279 0.362093 -1.39373 0
M  V30 2704 H 255.232 3.18854 -2.75517 0
M  V30 2705 H 253.956 2.87302 -1.55322 0
M  V30 2706 H 252.615 1.62811 -3.28463 0
M  V30 2707 H 252.263 4.08028 -2.94147 0
M  V30 2708 H 251.963 3.61279 -4.63412 0
M  V30 2709 H 253.487 4.43587 -4.19599 0
M  V30 2710 H 254.901 2.40128 -5.20587 0
M  V30 2711 H 253.298 1.8031 -5.72371 0
M  V30 2712 H 254.368 0.739876 -4.79222 0
M  V30 2713 N 255.711 1.52812 0.385517 0
M  V30 2714 C 257.127 1.4214 0.725829 0
M  V30 2715 C 257.327 0.544589 1.94001 0
M  V30 2716 O 256.383 0.0193693 2.52493 0
M  V30 2717 C 257.696 2.85042 0.957668 0
M  V30 2718 C 259.244 2.94543 1.05892 0
M  V30 2719 C 259.719 4.38464 1.32337 0
M  V30 2720 N 261.21 4.41804 1.39151 0
M  V30 2721 C 261.945 5.5025 1.61285 0
M  V30 2722 N 261.441 6.68775 1.80866 0
M  V30 2723 N 263.234 5.37798 1.63492 0
M  V30 2724 H 255.385 2.08338 -0.413383 0
M  V30 2725 H 257.648 0.940016 -0.122775 0
M  V30 2726 H 257.354 3.51431 0.137568 0
M  V30 2727 H 257.228 3.27505 1.87137 0
M  V30 2728 H 259.615 2.28321 1.86959 0
M  V30 2729 H 259.696 2.55504 0.123057 0
M  V30 2730 H 259.34 5.05254 0.517793 0
M  V30 2731 H 259.27 4.75059 2.27214 0
M  V30 2732 H 261.761 3.56377 1.25713 0
M  V30 2733 H 262.074 7.47197 1.97271 0
M  V30 2734 H 260.419 6.71797 1.78083 0
M  V30 2735 H 263.61 4.44171 1.47749 0
M  V30 2736 H 263.783 6.22382 1.80402 0
M  V30 2737 N 257.189 -0.644168 1.43834 0
M  V30 2738 C 258.435 -1.40431 1.47141 0
M  V30 2739 C 258.79 -1.92153 0.0975577 0
M  V30 2740 O 258.083 -1.69924 -0.885232 0
M  V30 2741 C 258.277 -2.59615 2.45631 0
M  V30 2742 C 258.106 -2.1956 3.92458 0
M  V30 2743 C 256.876 -2.07456 4.60749 0
M  V30 2744 C 259.074 -1.79281 4.8204 0
M  V30 2745 N 257.056 -1.60827 5.92459 0
M  V30 2746 C 258.427 -1.43801 6.03093 0
M  V30 2747 C 260.482 -1.66545 4.6922 0
M  V30 2748 C 259.185 -0.968599 7.12749 0
M  V30 2749 C 261.211 -1.21008 5.78888 0
M  V30 2750 C 260.573 -0.864711 6.99072 0
M  V30 2751 H 256.672 -0.509182 0.593513 0
M  V30 2752 H 259.256 -0.740351 1.80075 0
M  V30 2753 H 257.427 -3.23658 2.1471 0
M  V30 2754 H 259.159 -3.26357 2.39318 0
M  V30 2755 H 255.914 -2.275 4.1538 0
M  V30 2756 H 256.338 -1.39848 6.62398 0
M  V30 2757 H 260.98 -1.91883 3.7675 0
M  V30 2758 H 258.698 -0.702715 8.05039 0
M  V30 2759 H 262.284 -1.11631 5.7099 0
M  V30 2760 H 261.164 -0.517736 7.82489 0
M  V30 2761 N 258.668 -1.30515 -0.883378 0
M  V30 2762 C 259.616 -1.16941 -2.01066 0
M  V30 2763 C 260.61 -0.0809148 -1.69207 0
M  V30 2764 O 261.816 -0.241877 -1.78367 0
M  V30 2765 H 258.191 -0.361705 -0.659298 0
M  V30 2766 H 260.162 -2.12344 -2.09649 0
M  V30 2767 C 258.911 -0.879694 -3.36388 0
M  V30 2768 H 258.234 -1.70936 -3.61415 0
M  V30 2769 H 259.674 -0.82483 -4.159 0
M  V30 2770 C 258.133 0.417409 -3.34304 0
M  V30 2771 O 258.663 1.43843 -3.75063 0
M  V30 2772 N 256.869 0.429141 -2.87414 0
M  V30 2773 H 256.416 -0.402222 -2.5444 0
M  V30 2774 H 256.374 1.29696 -2.86403 0
M  V30 2775 N 260.146 1.09593 -1.13257 0
M  V30 2776 C 261.109 2.14359 -0.811358 0
M  V30 2777 C 262.109 1.59808 0.178377 0
M  V30 2778 O 263.299 1.74132 -0.0484911 0
M  V30 2779 C 260.431 3.40269 -0.207276 0
M  V30 2780 H 261.624 2.44284 -1.73969 0
M  V30 2781 H 259.177 1.25102 -0.936973 0
M  V30 2782 H 259.912 3.15969 0.73036 0
M  V30 2783 H 259.697 3.81154 -0.919992 0
M  V30 2784 H 261.187 4.176 0.000667944 0
M  V30 2785 N 261.624 0.925811 1.2754 0
M  V30 2786 C 262.852 0.581509 1.9856 0
M  V30 2787 C 263.267 -0.840041 1.69082 0
M  V30 2788 O 262.624 -1.55805 0.950312 0
M  V30 2789 C 262.675 0.795589 3.52637 0
M  V30 2790 O 262.396 2.16121 3.81082 0
M  V30 2791 C 263.897 0.459744 4.4091 0
M  V30 2792 H 261.117 0.220538 0.633722 0
M  V30 2793 H 263.661 1.24232 1.6244 0
M  V30 2794 H 261.816 0.18161 3.86974 0
M  V30 2795 H 262.23 2.2098 4.75676 0
M  V30 2796 H 263.704 0.660244 5.48037 0
M  V30 2797 H 264.181 -0.604625 4.35018 0
M  V30 2798 H 264.787 1.05178 4.12089 0
M  V30 2799 N 263.102 -1.41638 0.69111 0
M  V30 2800 C 264.332 -2.0533 0.228758 0
M  V30 2801 C 264.74 -1.52089 -1.12541 0
M  V30 2802 O 264.083 -0.662145 -1.71351 0
M  V30 2803 C 264.145 -3.59349 0.10407 0
M  V30 2804 C 263.809 -4.35362 1.38956 0
M  V30 2805 C 264.806 -4.64942 2.32648 0
M  V30 2806 C 262.491 -4.74714 1.64169 0
M  V30 2807 C 264.485 -5.32828 3.49818 0
M  V30 2808 C 262.172 -5.42338 2.81625 0
M  V30 2809 C 263.17 -5.71322 3.74273 0
M  V30 2810 O 262.858 -6.37554 4.89673 0
M  V30 2811 H 262.59 -0.667796 0.104997 0
M  V30 2812 H 265.144 -1.82477 0.942938 0
M  V30 2813 H 263.374 -3.80924 -0.665839 0
M  V30 2814 H 265.063 -4.04633 -0.320519 0
M  V30 2815 H 265.829 -4.35025 2.14425 0
M  V30 2816 H 261.708 -4.51538 0.929202 0
M  V30 2817 H 265.252 -5.55368 4.22152 0
M  V30 2818 H 261.149 -5.71673 2.99768 0
M  V30 2819 H 261.917 -6.56049 4.8943 0
M  V30 2820 N 264.58 -0.43555 -1.51462 0
M  V30 2821 C 265.827 0.131514 -2.02072 0
M  V30 2822 C 266.155 1.42868 -1.31981 0
M  V30 2823 O 265.41 1.91076 -0.422883 0
M  V30 2824 C 265.709 0.39942 -3.55161 0
M  V30 2825 C 265.375 -0.81172 -4.43533 0
M  V30 2826 C 264.037 -1.14387 -4.67407 0
M  V30 2827 C 266.389 -1.61976 -4.95392 0
M  V30 2828 C 263.717 -2.28477 -5.40384 0
M  V30 2829 C 266.069 -2.75164 -5.6962 0
M  V30 2830 C 264.733 -3.08835 -5.91758 0
M  V30 2831 H 264.003 0.0481244 -0.739436 0
M  V30 2832 H 266.65 -0.58238 -1.8243 0
M  V30 2833 H 264.955 1.19519 -3.73125 0
M  V30 2834 H 266.652 0.85157 -3.91854 0
M  V30 2835 H 263.242 -0.542898 -4.25148 0
M  V30 2836 H 267.426 -1.37637 -4.76833 0
M  V30 2837 H 262.682 -2.5488 -5.55739 0
M  V30 2838 H 266.856 -3.38147 -6.08793 0
M  V30 2839 H 264.483 -3.97353 -6.48086 0
M  V30 2840 N 266.058 1.56714 -0.166846 0
M  V30 2841 C 267.335 1.88412 0.525373 0
M  V30 2842 C 267.715 1.07602 1.81618 0
M  V30 2843 O 267.063 0.168621 2.27877 0
M  V30 2844 C 267.273 3.40363 0.771613 0
M  V30 2845 C 268.621 4.10007 1.1036 0
M  V30 2846 O 269.645 3.45655 0.860304 0
M  V30 2847 O 268.504 5.2369 1.56239 0
M  V30 2848 H 265.598 0.781587 0.270278 0
M  V30 2849 H 268.144 1.68458 -0.204946 0
M  V30 2850 H 266.916 3.91046 -0.141093 0
M  V30 2851 H 266.539 3.65914 1.55541 0
M  V30 2852 N 267.536 -0.106894 1.57237 0
M  V30 2853 C 268.766 -0.825191 1.89405 0
M  V30 2854 C 269.174 -1.73374 0.757496 0
M  V30 2855 O 268.517 -1.81552 -0.280115 0
M  V30 2856 C 268.579 -1.70102 3.1671 0
M  V30 2857 C 268.243 -0.965523 4.46684 0
M  V30 2858 C 269.24 -0.300741 5.19029 0
M  V30 2859 C 266.925 -0.943105 4.93367 0
M  V30 2860 C 268.919 0.376622 6.36286 0
M  V30 2861 C 266.606 -0.261949 6.10538 0
M  V30 2862 C 267.604 0.396748 6.81847 0
M  V30 2863 O 267.292 1.06701 7.96787 0
M  V30 2864 H 267.024 -0.241852 0.631255 0
M  V30 2865 H 269.578 -0.0921491 2.05193 0
M  V30 2866 H 267.808 -2.47601 2.97036 0
M  V30 2867 H 269.497 -2.29483 3.34802 0
M  V30 2868 H 270.263 -0.309599 4.84011 0
M  V30 2869 H 266.142 -1.44524 4.3776 0
M  V30 2870 H 269.686 0.891334 6.91882 0
M  V30 2871 H 265.583 -0.250896 6.45012 0
M  V30 2872 H 266.351 0.972707 8.127 0
M  V30 2873 N 269.014 -1.53014 -0.377408 0
M  V30 2874 C 269.977 -1.77957 -1.44444 0
M  V30 2875 C 270.977 -0.649763 -1.47087 0
M  V30 2876 O 272.167 -0.917897 -1.48055 0
M  V30 2877 C 269.299 -1.89089 -2.83651 0
M  V30 2878 H 270.492 -2.73243 -1.23606 0
M  V30 2879 H 268.045 -1.43912 -0.609844 0
M  V30 2880 H 268.78 -0.958293 -3.09818 0
M  V30 2881 H 268.565 -2.71254 -2.83132 0
M  V30 2882 H 270.055 -2.1002 -3.60945 0
M  V30 2883 N 270.492 0.636531 -1.44174 0
M  V30 2884 C 271.455 1.73063 -1.50273 0
M  V30 2885 C 272.455 1.56113 -0.385397 0
M  V30 2886 O 273.645 1.61707 -0.64781 0
M  V30 2887 C 270.777 3.12096 -1.37145 0
M  V30 2888 H 271.97 1.69031 -2.47727 0
M  V30 2889 H 269.523 0.849706 -1.31186 0
M  V30 2890 H 270.258 3.21728 -0.407636 0
M  V30 2891 H 270.043 3.25805 -2.18159 0
M  V30 2892 H 271.533 3.91846 -1.44382 0
M  V30 2893 N 271.97 1.30982 0.876444 0
M  V30 2894 C 273.195 1.23373 1.66715 0
M  V30 2895 C 273.62 -0.19885 1.87046 0
M  V30 2896 O 272.978 -1.1427 1.40756 0
M  V30 2897 C 273.026 1.97644 3.01611 0
M  V30 2898 O 272.13 1.30935 3.91062 0
M  V30 2899 H 271.471 0.426279 0.509099 0
M  V30 2900 H 274.001 1.72944 1.09323 0
M  V30 2901 H 274.011 2.06992 3.51594 0
M  V30 2902 H 272.686 3.01829 2.86133 0
M  V30 2903 H 271.263 1.29996 3.49507 0
M  V30 2904 N 273.449 -1.08991 1.13837 0
M  V30 2905 C 274.379 -2.17771 0.842507 0
M  V30 2906 C 275.36 -1.6892 -0.20001 0
M  V30 2907 O 276.545 -1.94113 -0.0579731 0
M  V30 2908 C 273.675 -3.4589 0.312644 0
M  V30 2909 C 272.629 -4.08099 1.28992 0
M  V30 2910 C 271.955 -5.31098 0.619623 0
M  V30 2911 C 273.255 -4.50077 2.65005 0
M  V30 2912 H 274.949 -2.42777 1.75213 0
M  V30 2913 H 272.495 -1.16682 0.843875 0
M  V30 2914 H 274.448 -4.21297 0.0933043 0
M  V30 2915 H 273.172 -3.20419 -0.632382 0
M  V30 2916 H 271.831 -3.34717 1.49533 0
M  V30 2917 H 271.479 -5.0191 -0.33102 0
M  V30 2918 H 271.179 -5.73674 1.27167 0
M  V30 2919 H 272.703 -6.09224 0.409669 0
M  V30 2920 H 274.117 -5.16688 2.48407 0
M  V30 2921 H 272.514 -5.03553 3.26427 0
M  V30 2922 H 273.584 -3.62257 3.22332 0
M  V30 2923 N 274.927 -0.932562 -1.27047 0
M  V30 2924 C 276.338 -0.619451 -1.76124 0
M  V30 2925 C 276.689 0.865397 -1.76083 0
M  V30 2926 O 275.814 1.67722 -1.36742 0
M  V30 2927 C 276.409 -1.11771 -3.19832 0
M  V30 2928 C 274.968 -0.855174 -3.66557 0
M  V30 2929 C 274.115 -1.27362 -2.46321 0
M  V30 2930 H 277.066 -1.11181 -1.13245 0
M  V30 2931 H 277.087 -0.46759 -3.77616 0
M  V30 2932 H 276.599 -2.19842 -3.1983 0
M  V30 2933 H 274.7 0.211524 -3.71999 0
M  V30 2934 H 274.813 -1.47613 -4.55793 0
M  V30 2935 H 273.177 -0.692119 -2.45116 0
M  V30 2936 H 273.96 -2.36307 -2.49025 0
M  V30 2937 N 276.405 1.4127 -0.698611 0
M  V30 2938 C 277.315 2.34573 -0.0357891 0
M  V30 2939 C 278.331 1.56393 0.762701 0
M  V30 2940 O 279.507 1.8886 0.699564 0
M  V30 2941 C 276.572 3.35159 0.887089 0
M  V30 2942 C 275.633 4.29225 0.0804634 0
M  V30 2943 C 274.866 5.25006 0.959387 0
M  V30 2944 O 275.089 5.26314 2.19886 0
M  V30 2945 O 274.023 6.00519 0.407439 0
M  V30 2946 H 277.849 2.92838 -0.804957 0
M  V30 2947 H 275.434 1.42175 -0.458966 0
M  V30 2948 H 277.316 3.9689 1.41621 0
M  V30 2949 H 275.991 2.79333 1.6357 0
M  V30 2950 H 274.898 3.70833 -0.493328 0
M  V30 2951 H 276.231 4.88157 -0.629547 0
M  V30 2952 N 277.883 0.443576 1.51229 0
M  V30 2953 C 279.16 -0.181038 1.9476 0
M  V30 2954 C 279.54 -1.59523 1.38259 0
M  V30 2955 O 278.888 -2.2122 0.572198 0
M  V30 2956 C 279.098 -0.152422 3.48667 0
M  V30 2957 C 280.446 -0.354923 4.23114 0
M  V30 2958 O 281.47 -0.230257 3.55455 0
M  V30 2959 O 280.329 -0.603674 5.43156 0
M  V30 2960 H 277.423 -0.1266 0.817252 0
M  V30 2961 H 279.969 0.502004 1.62105 0
M  V30 2962 H 278.741 0.836022 3.82265 0
M  V30 2963 H 278.364 -0.878107 3.87782 0
M  V30 2964 N 279.361 -1.56624 0.175154 0
M  V30 2965 C 280.638 -1.88688 -0.515373 0
M  V30 2966 C 281.018 -1.08564 -1.81044 0
M  V30 2967 O 280.366 -0.180703 -2.27784 0
M  V30 2968 C 280.576 -3.40768 -0.753552 0
M  V30 2969 C 281.924 -4.10587 -1.08184 0
M  V30 2970 O 282.948 -3.46106 -0.841961 0
M  V30 2971 O 281.807 -5.24512 -1.53459 0
M  V30 2972 H 278.901 -0.78301 -0.26613 0
M  V30 2973 H 281.447 -1.68347 0.213877 0
M  V30 2974 H 280.219 -3.90965 0.161829 0
M  V30 2975 H 279.842 -3.66733 -1.53598 0
M  V30 2976 N 280.839 0.0985539 -1.57292 0
M  V30 2977 C 282.085 0.803867 -1.86188 0
M  V30 2978 C 282.418 1.78549 -0.763794 0
M  V30 2979 O 281.693 1.93153 0.22855 0
M  V30 2980 C 281.976 1.53568 -3.25713 0
M  V30 2981 C 281.829 0.572277 -4.46145 0
M  V30 2982 C 283.148 2.48708 -3.63087 0
M  V30 2983 H 280.267 0.290781 -0.677211 0
M  V30 2984 H 282.909 0.0675783 -1.8988 0
M  V30 2985 H 281.059 2.16332 -3.22696 0
M  V30 2986 H 282.731 -0.0480894 -4.61275 0
M  V30 2987 H 280.974 -0.114618 -4.33649 0
M  V30 2988 H 281.645 1.12139 -5.40489 0
M  V30 2989 H 284.121 1.96039 -3.67026 0
M  V30 2990 H 282.997 2.96932 -4.61652 0
M  V30 2991 H 283.258 3.32309 -2.91588 0
M  V30 2992 N 282.317 1.53212 0.369288 0
M  V30 2993 C 283.594 1.59815 1.12776 0
M  V30 2994 C 283.974 0.403402 2.0721 0
M  V30 2995 O 283.322 -0.606667 2.20299 0
M  V30 2996 C 283.532 2.94664 1.87013 0
M  V30 2997 C 284.88 3.49109 2.41677 0
M  V30 2998 O 285.904 2.96669 1.97144 0
M  V30 2999 O 284.763 4.40775 3.23079 0
M  V30 3000 H 281.857 0.645376 0.517125 0
M  V30 3001 H 284.403 1.65553 0.37285 0
M  V30 3002 H 283.175 3.73061 1.18071 0
M  V30 3003 H 282.798 2.92401 2.69421 0
M  V30 3004 N 283.795 -0.628877 1.44509 0
M  V30 3005 C 285.025 -1.41349 1.50678 0
M  V30 3006 C 285.433 -1.88745 0.131075 0
M  V30 3007 O 284.776 -1.61592 -0.87371 0
M  V30 3008 C 284.838 -2.66608 2.41165 0
M  V30 3009 C 284.502 -2.40993 3.88293 0
M  V30 3010 C 285.499 -2.0268 4.78766 0
M  V30 3011 C 283.184 -2.54563 4.33016 0
M  V30 3012 C 285.178 -1.78269 6.11963 0
M  V30 3013 C 282.865 -2.29766 5.6626 0
M  V30 3014 C 283.863 -1.91678 6.55552 0
M  V30 3015 O 283.551 -1.67158 7.86329 0
M  V30 3016 H 283.283 -0.439851 0.51333 0
M  V30 3017 H 285.837 -0.776084 1.90174 0
M  V30 3018 H 284.067 -3.32994 1.96601 0
M  V30 3019 H 285.756 -3.28615 2.38259 0
M  V30 3020 H 286.522 -1.91751 4.45485 0
M  V30 3021 H 282.401 -2.83179 3.63773 0
M  V30 3022 H 285.945 -1.48465 6.81619 0
M  V30 3023 H 281.842 -2.40306 5.99102 0
M  V30 3024 H 282.61 -1.81386 7.98149 0
M  V30 3025 N 285.273 -1.31445 -0.869486 0
M  V30 3026 C 286.22 -1.19135 -1.97675 0
M  V30 3027 C 287.19 -0.0770266 -1.65921 0
M  V30 3028 O 288.375 -0.249972 -1.89155 0
M  V30 3029 C 285.515 -0.905149 -3.33018 0
M  V30 3030 C 284.628 -2.10285 -3.77365 0
M  V30 3031 C 283.763 -1.75339 -5.01427 0
M  V30 3032 C 282.802 -2.91515 -5.38224 0
M  V30 3033 N 281.939 -2.56762 -6.53466 0
M  V30 3034 H 286.779 -2.13853 -2.07535 0
M  V30 3035 H 284.316 -1.06379 -1.01597 0
M  V30 3036 H 286.274 -0.719765 -4.10944 0
M  V30 3037 H 284.904 0.00519624 -3.228 0
M  V30 3038 H 283.956 -2.39899 -2.95216 0
M  V30 3039 H 285.268 -2.97237 -4.00564 0
M  V30 3040 H 284.422 -1.53266 -5.87022 0
M  V30 3041 H 283.161 -0.855801 -4.80133 0
M  V30 3042 H 282.166 -3.14237 -4.51149 0
M  V30 3043 H 283.391 -3.81985 -5.61484 0
M  V30 3044 H 281.337 -1.69526 -6.33717 0
M  V30 3045 H 281.254 -3.37243 -6.76612 0
M  V30 3046 H 282.522 -2.38083 -7.42251 0
M  V30 3047 N 286.751 1.08385 -1.14413 0
M  V30 3048 C 287.684 2.14642 -0.774871 0
M  V30 3049 C 288.662 1.60761 0.243876 0
M  V30 3050 O 289.846 1.88031 0.132883 0
M  V30 3051 C 286.973 3.38366 -0.150491 0
M  V30 3052 C 286.019 4.10997 -1.13945 0
M  V30 3053 S 286.852 4.63797 -2.67679 0
M  V30 3054 C 288.008 5.90808 -2.06631 0
M  V30 3055 H 288.241 2.45633 -1.67487 0
M  V30 3056 H 285.774 1.20498 -0.96538 0
M  V30 3057 H 287.732 4.09996 0.203334 0
M  V30 3058 H 286.393 3.05572 0.72694 0
M  V30 3059 H 285.586 4.99783 -0.65059 0
M  V30 3060 H 285.188 3.4528 -1.43727 0
M  V30 3061 H 287.48 6.62411 -1.4219 0
M  V30 3062 H 288.423 6.4439 -2.93542 0
M  V30 3063 H 288.831 5.4383 -1.51357 0
M  V30 3064 N 288.23 0.939286 1.26551 0
M  V30 3065 C 289.455 0.602008 1.98471 0
M  V30 3066 C 289.88 -0.815624 1.69497 0
M  V30 3067 O 289.238 -1.54912 0.941905 0
M  V30 3068 C 289.286 0.848407 3.50477 0
M  V30 3069 O 288.39 -0.0804009 4.12322 0
M  V30 3070 H 287.731 0.23049 0.622712 0
M  V30 3071 H 290.261 1.2617 1.61066 0
M  V30 3072 H 290.271 0.768553 4.00696 0
M  V30 3073 H 288.946 1.88171 3.70897 0
M  V30 3074 H 287.523 0.0503508 3.72866 0
M  V30 3075 N 289.708 -1.40897 0.706093 0
M  V30 3076 C 290.658 -2.27987 0.0240746 0
M  V30 3077 C 291.642 -1.42759 -0.742204 0
M  V30 3078 O 292.834 -1.65936 -0.615966 0
M  V30 3079 C 289.963 -3.31186 -0.903907 0
M  V30 3080 C 289.049 -4.2389 -0.133318 0
M  V30 3081 N 289.44 -4.98113 0.878444 0
M  V30 3082 C 287.738 -4.44485 -0.367269 0
M  V30 3083 C 288.439 -5.6604 1.34064 0
M  V30 3084 N 287.415 -5.39522 0.664565 0
M  V30 3085 H 291.217 -2.82812 0.799658 0
M  V30 3086 H 288.731 -1.53235 0.537845 0
M  V30 3087 H 290.728 -3.92413 -1.40775 0
M  V30 3088 H 289.388 -2.77922 -1.67897 0
M  V30 3089 H 290.399 -5.02364 1.25901 0
M  V30 3090 H 287.076 -4.02213 -1.1194 0
M  V30 3091 H 288.466 -6.35524 2.1808 0
M  V30 3092 N 291.186 -0.45159 -1.50991 0
M  V30 3093 C 292.433 0.110074 -2.02201 0
M  V30 3094 C 292.761 1.4146 -1.33489 0
M  V30 3095 O 292.016 1.90617 -0.443125 0
M  V30 3096 C 292.315 0.361728 -3.55565 0
M  V30 3097 C 291.981 -0.858717 -4.42648 0
M  V30 3098 C 290.643 -1.19338 -4.66167 0
M  V30 3099 C 292.995 -1.67221 -4.93646 0
M  V30 3100 C 290.323 -2.34195 -5.37931 0
M  V30 3101 C 292.675 -2.8119 -5.6667 0
M  V30 3102 C 291.339 -3.15094 -5.88449 0
M  V30 3103 H 290.609 0.040279 -0.739904 0
M  V30 3104 H 293.256 -0.601696 -1.81802 0
M  V30 3105 H 291.561 1.15554 -3.74372 0
M  V30 3106 H 293.258 0.80996 -3.92735 0
M  V30 3107 H 289.848 -0.58796 -4.24548 0
M  V30 3108 H 294.032 -1.42686 -4.75347 0
M  V30 3109 H 289.288 -2.6076 -5.53005 0
M  V30 3110 H 293.462 -3.44585 -6.05173 0
M  V30 3111 H 291.089 -4.04204 -6.43835 0
M  V30 3112 N 292.664 1.56529 -0.183458 0
M  V30 3113 C 293.91 1.97537 0.459036 0
M  V30 3114 C 294.243 1.06989 1.62071 0
M  V30 3115 O 293.518 0.11948 1.94133 0
M  V30 3116 C 293.801 3.47874 0.930368 0
M  V30 3117 C 293.654 4.492 -0.232317 0
M  V30 3118 C 294.973 4.01612 1.79989 0
M  V30 3119 H 292.092 0.718204 0.165383 0
M  V30 3120 H 294.734 1.88042 -0.272038 0
M  V30 3121 H 292.884 3.56095 1.55333 0
M  V30 3122 H 294.556 4.53027 -0.86972 0
M  V30 3123 H 292.799 4.24657 -0.885928 0
M  V30 3124 H 293.47 5.51823 0.139796 0
M  V30 3125 H 295.946 3.96097 1.27461 0
M  V30 3126 H 294.822 5.07195 2.09867 0
M  V30 3127 H 295.083 3.46163 2.74998 0
M  V30 3128 N 294.142 -0.090211 1.57342 0
M  V30 3129 C 295.367 -0.810082 1.90925 0
M  V30 3130 C 295.792 -1.71248 0.778187 0
M  V30 3131 O 295.15 -1.79278 -0.269991 0
M  V30 3132 C 295.198 -1.59529 3.23393 0
M  V30 3133 O 294.302 -2.70461 3.11327 0
M  V30 3134 H 293.643 -0.222231 0.625707 0
M  V30 3135 H 296.173 -0.0639716 2.045 0
M  V30 3136 H 296.183 -1.97847 3.5682 0
M  V30 3137 H 294.858 -0.933055 4.05299 0
M  V30 3138 H 293.435 -2.35135 2.89423 0
M  V30 3139 N 295.62 -1.53406 -0.361157 0
M  V30 3140 C 296.568 -1.80832 -1.46296 0
M  V30 3141 C 297.562 -0.677699 -1.55253 0
M  V30 3142 O 298.768 -0.860723 -1.58087 0
M  V30 3143 H 295.143 -0.572627 -0.487445 0
M  V30 3144 H 297.114 -2.73045 -1.20371 0
M  V30 3145 C 295.863 -2.01907 -2.8307 0
M  V30 3146 H 295.186 -2.88349 -2.76938 0
M  V30 3147 H 296.626 -2.25072 -3.59331 0
M  V30 3148 C 295.085 -0.799449 -3.27277 0
M  V30 3149 O 295.615 0.00971761 -4.01699 0
M  V30 3150 N 293.821 -0.621637 -2.83873 0
M  V30 3151 H 293.368 -1.28126 -2.23476 0
M  V30 3152 H 293.326 0.19298 -3.13807 0
M  V30 3153 N 297.098 0.621204 -1.44841 0
M  V30 3154 C 298.346 1.37783 -1.47852 0
M  V30 3155 C 298.667 1.94653 -0.116224 0
M  V30 3156 O 297.937 1.76367 0.852737 0
M  V30 3157 H 296.517 0.511453 -0.544449 0
M  V30 3158 H 299.179 0.730446 -1.80694 0
M  V30 3159 H 298.275 2.20414 -2.20961 0
M  V30 3160 N 298.576 1.31904 0.862503 0
M  V30 3161 C 299.853 1.12644 1.59908 0
M  V30 3162 C 300.233 -0.316104 2.0872 0
M  V30 3163 O 299.581 -1.31145 1.87118 0
M  V30 3164 C 299.791 2.1472 2.7513 0
M  V30 3165 C 301.139 2.47637 3.44907 0
M  V30 3166 O 302.163 2.13205 2.85346 0
M  V30 3167 O 301.022 3.06632 4.52371 0
M  V30 3168 H 298.116 0.43416 0.703871 0
M  V30 3169 H 300.662 1.43408 0.907314 0
M  V30 3170 H 299.434 3.1172 2.3653 0
M  V30 3171 H 299.057 1.84905 3.51989 0
M  V30 3172 N 300.054 -1.07777 1.14986 0
M  V30 3173 C 301.302 -1.79934 0.920235 0
M  V30 3174 C 301.623 -1.86955 -0.554336 0
M  V30 3175 O 300.893 -1.36731 -1.40291 0
M  V30 3176 H 299.473 -0.666424 0.337473 0
M  V30 3177 H 302.135 -1.3027 1.44968 0
M  V30 3178 H 301.231 -2.82539 1.32583 0
M  V30 3179 N 301.532 -0.945985 -1.26051 0
M  V30 3180 C 302.462 -0.477172 -2.28572 0
M  V30 3181 C 303.443 0.472032 -1.63419 0
M  V30 3182 O 304.628 0.372853 -1.90587 0
M  V30 3183 C 301.758 0.253975 -3.4637 0
M  V30 3184 C 300.712 -0.609135 -4.23643 0
M  V30 3185 C 300.038 0.252252 -5.34105 0
M  V30 3186 C 301.338 -1.8829 -4.8718 0
M  V30 3187 H 303.032 -1.33402 -2.68038 0
M  V30 3188 H 300.578 -0.642904 -1.28852 0
M  V30 3189 H 302.531 0.593016 -4.17207 0
M  V30 3190 H 301.255 1.145 -3.05871 0
M  V30 3191 H 299.914 -0.931138 -3.54578 0
M  V30 3192 H 299.562 1.14278 -4.89846 0
M  V30 3193 H 299.262 -0.32188 -5.86718 0
M  V30 3194 H 300.786 0.586454 -6.07777 0
M  V30 3195 H 302.2 -1.61081 -5.50205 0
M  V30 3196 H 300.597 -2.40199 -5.49931 0
M  V30 3197 H 301.667 -2.59134 -4.09851 0
M  V30 3198 N 303.011 1.40521 -0.713556 0
M  V30 3199 C 304.257 2.01221 -0.252564 0
M  V30 3200 C 304.59 1.56444 1.1506 0
M  V30 3201 O 303.865 0.783597 1.78017 0
M  V30 3202 C 304.148 3.58582 -0.330332 0
M  V30 3203 C 304.001 4.13437 -1.77173 0
M  V30 3204 C 305.32 4.39079 0.299641 0
M  V30 3205 H 302.439 0.731077 -0.0932471 0
M  V30 3206 H 305.081 1.67026 -0.905673 0
M  V30 3207 H 303.231 3.87844 0.225737 0
M  V30 3208 H 304.903 3.9498 -2.38303 0
M  V30 3209 H 303.146 3.67801 -2.3001 0
M  V30 3210 H 303.817 5.22597 -1.77755 0
M  V30 3211 H 306.293 4.15735 -0.174139 0
M  V30 3212 H 305.169 5.4848 0.214771 0
M  V30 3213 H 305.43 4.19915 1.38288 0
M  V30 3214 N 304.489 0.459591 1.5075 0
M  V30 3215 C 305.735 -0.0994966 2.02556 0
M  V30 3216 C 306.068 -1.40399 1.3417 0
M  V30 3217 O 305.343 -1.88892 0.463683 0
M  V30 3218 C 305.626 -0.295242 3.58888 0
M  V30 3219 C 305.479 1.02947 4.37861 0
M  V30 3220 C 306.798 -1.05502 4.27267 0
M  V30 3221 H 303.917 -0.034686 0.736183 0
M  V30 3222 H 306.559 0.602938 1.8018 0
M  V30 3223 H 304.709 -0.893563 3.78084 0
M  V30 3224 H 306.381 1.66348 4.30263 0
M  V30 3225 H 304.624 1.62885 4.02058 0
M  V30 3226 H 305.295 0.846281 5.45474 0
M  V30 3227 H 307.771 -0.547993 4.12476 0
M  V30 3228 H 306.647 -1.16077 5.36486 0
M  V30 3229 H 306.908 -2.08875 3.89645 0
M  V30 3230 N 305.967 -1.56429 0.191757 0
M  V30 3231 C 307.195 -2.01867 -0.453586 0
M  V30 3232 C 307.61 -1.07191 -1.5542 0
M  V30 3233 O 306.967 -0.0762108 -1.82341 0
M  V30 3234 C 307.018 -3.47017 -1.013 0
M  V30 3235 O 306.739 -4.38078 0.0437005 0
M  V30 3236 C 308.24 -4.07956 -1.73456 0
M  V30 3237 H 305.46 -0.661211 -0.114199 0
M  V30 3238 H 308.004 -2.02295 0.299483 0
M  V30 3239 H 306.159 -3.47298 -1.71647 0
M  V30 3240 H 306.573 -5.23178 -0.372212 0
M  V30 3241 H 308.047 -5.1138 -2.07833 0
M  V30 3242 H 308.524 -3.51222 -2.63704 0
M  V30 3243 H 309.13 -4.11437 -1.07702 0
M  V30 3244 N 307.445 0.0818655 -1.57387 0
M  V30 3245 C 308.691 0.784074 -1.8703 0
M  V30 3246 C 309.024 1.77729 -0.782689 0
M  V30 3247 O 308.299 1.93384 0.208051 0
M  V30 3248 C 308.582 1.50105 -3.27323 0
M  V30 3249 C 308.435 0.524925 -4.46727 0
M  V30 3250 C 309.754 2.44843 -3.65705 0
M  V30 3251 H 306.873 0.283582 -0.680257 0
M  V30 3252 H 309.515 0.0474352 -1.89941 0
M  V30 3253 H 307.665 2.12897 -3.24972 0
M  V30 3254 H 309.337 -0.0970111 -4.61198 0
M  V30 3255 H 307.58 -0.160606 -4.33503 0
M  V30 3256 H 308.251 1.064 -5.41648 0
M  V30 3257 H 310.727 1.92135 -3.69085 0
M  V30 3258 H 309.603 2.92018 -4.64776 0
M  V30 3259 H 309.864 3.29197 -2.95096 0
M  V30 3260 N 308.923 1.53595 0.353017 0
M  V30 3261 C 310.2 1.61002 1.11075 0
M  V30 3262 C 310.58 0.425356 2.0677 0
M  V30 3263 O 309.928 -0.583267 2.2093 0
M  V30 3264 C 310.138 2.96631 1.83877 0
M  V30 3265 C 311.486 3.51653 2.37961 0
M  V30 3266 O 312.51 2.98743 1.93987 0
M  V30 3267 O 311.369 4.44177 3.18386 0
M  V30 3268 H 308.463 0.650825 0.510251 0
M  V30 3269 H 311.009 1.6594 0.35527 0
M  V30 3270 H 309.781 3.74293 1.14108 0
M  V30 3271 H 309.404 2.95242 2.66304 0
M  V30 3272 N 310.401 -0.613514 1.45168 0
M  V30 3273 C 311.626 -1.40437 1.52618 0
M  V30 3274 C 312.051 -1.87438 0.157707 0
M  V30 3275 O 311.409 -1.59791 -0.856537 0
M  V30 3276 C 311.457 -2.58894 2.51011 0
M  V30 3277 O 310.561 -3.59326 2.02382 0
M  V30 3278 H 309.902 -0.419506 0.514695 0
M  V30 3279 H 312.432 -0.747215 1.90467 0
M  V30 3280 H 312.442 -3.06214 2.69624 0
M  V30 3281 H 311.117 -2.24032 3.50403 0
M  V30 3282 H 309.694 -3.18695 1.93618 0
M  V30 3283 N 311.879 -1.3236 -0.855495 0
M  V30 3284 C 312.789 -1.23221 -1.99634 0
M  V30 3285 C 313.805 -0.145983 -1.73387 0
M  V30 3286 O 314.981 -0.366502 -1.98037 0
M  V30 3287 C 312.046 -0.954782 -3.33294 0
M  V30 3288 C 311.107 -2.12937 -3.72769 0
M  V30 3289 C 310.34 -1.86508 -5.00051 0
M  V30 3290 O 310.563 -0.807231 -5.64659 0
M  V30 3291 O 309.497 -2.72591 -5.36636 0
M  V30 3292 H 313.323 -2.19126 -2.1028 0
M  V30 3293 H 310.908 -1.12241 -0.986018 0
M  V30 3294 H 312.79 -0.816519 -4.13414 0
M  V30 3295 H 311.465 -0.0258854 -3.2369 0
M  V30 3296 H 310.372 -2.3231 -2.93228 0
M  V30 3297 H 311.705 -3.04102 -3.87018 0
M  V30 3298 N 313.357 1.07166 -1.15556 0
M  V30 3299 C 314.582 1.84053 -0.955988 0
M  V30 3300 C 315.007 1.81586 0.490739 0
M  V30 3301 O 314.365 1.21018 1.34997 0
M  V30 3302 C 314.413 3.28957 -1.47714 0
M  V30 3303 O 313.517 4.06795 -0.677593 0
M  V30 3304 H 312.858 0.569842 -0.340847 0
M  V30 3305 H 315.388 1.35178 -1.53584 0
M  V30 3306 H 315.398 3.79788 -1.4908 0
M  V30 3307 H 314.073 3.30068 -2.53037 0
M  V30 3308 H 312.65 3.6561 -0.733721 0
M  V30 3309 N 314.835 0.952656 1.25548 0
M  V30 3310 C 316.083 0.605176 1.92826 0
M  V30 3311 C 316.404 -0.860261 1.74999 0
M  V30 3312 O 315.674 -1.6125 1.11244 0
M  V30 3313 H 314.254 0.220832 0.713612 0
M  V30 3314 H 316.916 1.21047 1.52754 0
M  V30 3315 H 316.012 0.832798 3.00784 0
M  V30 3316 N 316.313 -1.40141 0.720998 0
M  V30 3317 C 317.59 -1.94677 0.189757 0
M  V30 3318 C 317.97 -1.65879 -1.30566 0
M  V30 3319 O 317.318 -0.979391 -2.06447 0
M  V30 3320 C 317.528 -3.45279 0.508304 0
M  V30 3321 C 318.876 -4.22209 0.449934 0
M  V30 3322 O 319.9 -3.53413 0.444677 0
M  V30 3323 O 318.759 -5.44788 0.432189 0
M  V30 3324 H 315.853 -0.826459 0.0299026 0
M  V30 3325 H 318.399 -1.49719 0.7989 0
M  V30 3326 H 317.171 -3.59619 1.54239 0
M  V30 3327 H 316.794 -3.97386 -0.130525 0
M  V30 3328 N 317.792 -0.46758 -1.50504 0
M  V30 3329 C 319.038 0.0887532 -2.02606 0
M  V30 3330 C 319.371 1.39686 -1.34913 0
M  V30 3331 O 318.646 1.88644 -0.473694 0
M  V30 3332 C 318.929 0.276206 -3.59039 0
M  V30 3333 C 318.782 -1.05267 -4.37309 0
M  V30 3334 C 320.101 1.03235 -4.27821 0
M  V30 3335 H 317.22 0.0307814 -0.736357 0
M  V30 3336 H 319.862 -0.612485 -1.79857 0
M  V30 3337 H 318.012 0.8735 -3.78553 0
M  V30 3338 H 319.684 -1.68628 -4.29374 0
M  V30 3339 H 317.927 -1.65015 -4.01189 0
M  V30 3340 H 318.598 -0.875197 -5.45018 0
M  V30 3341 H 321.074 0.526111 -4.12761 0
M  V30 3342 H 319.95 1.1323 -5.37094 0
M  V30 3343 H 320.211 2.06806 -3.90748 0
M  V30 3344 N 319.27 1.56325 -0.20005 0
M  V30 3345 C 320.2 2.22318 0.713916 0
M  V30 3346 C 321.181 1.18788 1.21752 0
M  V30 3347 O 322.366 1.47309 1.26545 0
M  V30 3348 C 319.496 2.88639 1.93144 0
M  V30 3349 C 318.45 3.98457 1.56255 0
M  V30 3350 C 317.776 4.51967 2.85709 0
M  V30 3351 C 319.076 5.16612 0.768747 0
M  V30 3352 H 320.77 2.98952 0.163755 0
M  V30 3353 H 318.316 1.43792 0.0773219 0
M  V30 3354 H 320.269 3.33491 2.57608 0
M  V30 3355 H 318.993 2.09419 2.50621 0
M  V30 3356 H 317.652 3.54305 0.941471 0
M  V30 3357 H 317.3 3.69503 3.41287 0
M  V30 3358 H 317 5.26071 2.6177 0
M  V30 3359 H 318.524 4.99523 3.51154 0
M  V30 3360 H 319.938 5.57977 1.3166 0
M  V30 3361 H 318.335 5.96812 0.627286 0
M  V30 3362 H 319.405 4.84358 -0.229168 0
M  V30 3363 N 320.748 -0.0735177 1.57428 0
M  V30 3364 C 321.994 -0.768909 1.88307 0
M  V30 3365 C 322.349 -1.75273 0.793535 0
M  V30 3366 O 321.642 -1.90527 -0.202466 0
M  V30 3367 C 321.836 -1.51799 3.23561 0
M  V30 3368 C 321.665 -0.608217 4.45568 0
M  V30 3369 C 320.435 -0.245808 5.04702 0
M  V30 3370 C 322.633 0.0942904 5.14214 0
M  V30 3371 N 320.615 0.66987 6.10234 0
M  V30 3372 C 321.986 0.867222 6.13905 0
M  V30 3373 C 324.041 0.165943 4.97623 0
M  V30 3374 C 322.744 1.70515 6.98797 0
M  V30 3375 C 324.77 0.990837 5.83041 0
M  V30 3376 C 324.132 1.75182 6.82269 0
M  V30 3377 H 320.231 -0.25685 0.738615 0
M  V30 3378 H 322.815 -0.030499 1.94676 0
M  V30 3379 H 320.986 -2.22713 3.18203 0
M  V30 3380 H 322.718 -2.16226 3.42094 0
M  V30 3381 H 319.473 -0.598284 4.69806 0
M  V30 3382 H 319.897 1.1209 6.67656 0
M  V30 3383 H 324.539 -0.408064 4.20826 0
M  V30 3384 H 322.257 2.29013 7.7497 0
M  V30 3385 H 325.843 1.04923 5.72261 0
M  V30 3386 H 324.723 2.37983 7.47217 0
M  V30 3387 N 322.226 -1.5378 -0.344866 0
M  V30 3388 C 323.475 -1.7018 -1.08267 0
M  V30 3389 C 323.788 -0.471 -1.89845 0
M  V30 3390 O 324.994 -0.515917 -2.66553 0
M  V30 3391 C 323.45 -3.00923 -1.97417 0
M  V30 3392 C 323.058 -4.31335 -1.21053 0
M  V30 3393 C 324.802 -3.26688 -2.71063 0
M  V30 3394 C 322.709 -5.53153 -2.09225 0
M  V30 3395 H 321.639 -0.634138 -0.407903 0
M  V30 3396 H 324.29 -1.8028 -0.342246 0
M  V30 3397 H 322.672 -2.84676 -2.75274 0
M  V30 3398 H 323.846 -4.58281 -0.481159 0
M  V30 3399 H 322.161 -4.12173 -0.591813 0
M  V30 3400 H 324.758 -4.1489 -3.37299 0
M  V30 3401 H 325.101 -2.43639 -3.37558 0
M  V30 3402 H 325.634 -3.43705 -2.0028 0
M  V30 3403 H 322.373 -6.38741 -1.47274 0
M  V30 3404 H 321.893 -5.30458 -2.79955 0
M  V30 3405 H 323.572 -5.88744 -2.68308 0
M  V30 3406 N 323.704 0.605807 -1.45491 0
M  V30 3407 C 324.636 1.73031 -1.5031 0
M  V30 3408 C 325.649 1.57968 -0.393687 0
M  V30 3409 O 326.838 1.65817 -0.660839 0
M  V30 3410 C 323.938 3.11049 -1.34543 0
M  V30 3411 C 323.111 3.52334 -2.59189 0
M  V30 3412 C 322.17 4.69323 -2.37954 0
M  V30 3413 O 321.196 4.7635 -3.11575 0
M  V30 3414 N 322.398 5.62705 -1.4263 0
M  V30 3415 H 325.163 1.6936 -2.4726 0
M  V30 3416 H 322.724 0.79114 -1.41254 0
M  V30 3417 H 324.716 3.87071 -1.18144 0
M  V30 3418 H 323.286 3.09217 -0.458623 0
M  V30 3419 H 322.506 2.66256 -2.90691 0
M  V30 3420 H 323.794 3.76677 -3.42041 0
M  V30 3421 H 323.192 5.59744 -0.818758 0
M  V30 3422 H 321.749 6.38252 -1.32202 0
M  V30 3423 N 325.182 1.32811 0.848464 0
M  V30 3424 C 326.13 1.22231 1.97895 0
M  V30 3425 C 327.124 0.125749 1.68933 0
M  V30 3426 O 328.33 0.289083 1.77663 0
M  V30 3427 H 324.705 0.379058 0.649476 0
M  V30 3428 H 326.676 2.17828 2.03945 0
M  V30 3429 C 325.425 0.968572 3.33937 0
M  V30 3430 H 324.748 1.80458 3.56756 0
M  V30 3431 H 326.188 0.934808 4.13567 0
M  V30 3432 C 324.647 -0.328628 3.35293 0
M  V30 3433 O 325.177 -1.33848 3.78745 0
M  V30 3434 N 323.383 -0.352788 2.88451 0
M  V30 3435 H 322.93 0.469541 2.53285 0
M  V30 3436 H 322.888 -1.22057 2.89741 0
M  V30 3437 N 326.66 -1.06551 1.16123 0
M  V30 3438 C 327.89 -1.8274 0.963838 0
M  V30 3439 C 328.298 -1.82712 -0.491228 0
M  V30 3440 O 327.641 -1.24294 -1.35265 0
M  V30 3441 C 327.703 -3.3065 1.41106 0
M  V30 3442 C 327.367 -3.54384 2.88549 0
M  V30 3443 C 328.364 -3.4765 3.86569 0
M  V30 3444 C 326.049 -3.81789 3.26408 0
M  V30 3445 C 328.043 -3.67982 5.2045 0
M  V30 3446 C 325.73 -4.01772 4.60459 0
M  V30 3447 C 326.728 -3.94866 5.57288 0
M  V30 3448 O 326.416 -4.14306 6.88916 0
M  V30 3449 H 326.148 -0.583136 0.341948 0
M  V30 3450 H 328.702 -1.35351 1.54497 0
M  V30 3451 H 326.932 -3.78887 0.773394 0
M  V30 3452 H 328.621 -3.88324 1.1815 0
M  V30 3453 H 329.387 -3.2647 3.58667 0
M  V30 3454 H 325.266 -3.86276 2.51619 0
M  V30 3455 H 328.81 -3.62507 5.96015 0
M  V30 3456 H 324.707 -4.2244 4.88072 0
M  V30 3457 H 325.475 -4.31609 6.95454 0
M  V30 3458 N 328.138 -0.959301 -1.25041 0
M  V30 3459 C 329.101 -0.487677 -2.23952 0
M  V30 3460 C 330.101 0.41119 -1.55454 0
M  V30 3461 O 331.291 0.207825 -1.72956 0
M  V30 3462 C 328.423 0.294807 -3.39623 0
M  V30 3463 H 329.616 -1.36198 -2.67189 0
M  V30 3464 H 327.169 -0.743042 -1.37508 0
M  V30 3465 H 327.904 1.18658 -3.01813 0
M  V30 3466 H 327.689 -0.35012 -3.90534 0
M  V30 3467 H 329.179 0.614089 -4.1306 0
M  V30 3468 N 329.616 1.39756 -0.72842 0
M  V30 3469 C 330.841 2.05472 -0.282159 0
M  V30 3470 C 331.266 1.54549 1.07221 0
M  V30 3471 O 330.624 0.686372 1.67805 0
M  V30 3472 C 330.672 3.59462 -0.286264 0
M  V30 3473 O 329.776 4.05918 0.728298 0
M  V30 3474 H 329.117 0.651226 -0.129618 0
M  V30 3475 H 331.647 1.78915 -0.992499 0
M  V30 3476 H 331.657 4.07798 -0.128373 0
M  V30 3477 H 330.332 3.95889 -1.27456 0
M  V30 3478 H 328.909 3.69012 0.537081 0
M  V30 3479 N 331.094 0.475555 1.50254 0
M  V30 3480 C 332.505 0.0215174 1.86688 0
M  V30 3481 C 332.856 -1.38467 1.39001 0
M  V30 3482 O 331.981 -2.02732 0.756894 0
M  V30 3483 C 332.576 0.0322715 3.38785 0
M  V30 3484 C 331.135 -0.366314 3.74613 0
M  V30 3485 C 330.282 0.415832 2.74164 0
M  V30 3486 H 333.233 0.689612 1.42934 0
M  V30 3487 H 333.254 -0.76889 3.7265 0
M  V30 3488 H 332.766 1.05584 3.73462 0
M  V30 3489 H 330.867 -1.39406 3.45538 0
M  V30 3490 H 330.98 -0.064555 4.79057 0
M  V30 3491 H 329.344 -0.131048 2.54363 0
M  V30 3492 H 330.127 1.43899 3.11686 0
M  V30 3493 N 332.573 -1.56217 0.208337 0
M  V30 3494 C 333.819 -1.98242 -0.427552 0
M  V30 3495 C 334.152 -1.09554 -1.60348 0
M  V30 3496 O 333.427 -0.15035 -1.93918 0
M  V30 3497 C 333.71 -3.4931 -0.874907 0
M  V30 3498 C 333.563 -4.48773 0.303751 0
M  V30 3499 C 334.882 -4.04424 -1.73577 0
M  V30 3500 H 332.001 -0.720744 -0.153936 0
M  V30 3501 H 334.643 -1.87586 0.30192 0
M  V30 3502 H 332.793 -3.58522 -1.49648 0
M  V30 3503 H 334.465 -4.51586 0.941682 0
M  V30 3504 H 332.708 -4.23194 0.953375 0
M  V30 3505 H 333.379 -5.51976 -0.0519883 0
M  V30 3506 H 335.855 -3.98075 -1.21143 0
M  V30 3507 H 334.731 -5.1047 -2.01771 0
M  V30 3508 H 334.992 -3.50494 -2.69456 0
M  V30 3509 N 334.051 0.0651679 -1.57465 0
M  V30 3510 C 335.297 0.764193 -1.87851 0
M  V30 3511 C 335.63 1.76889 -0.801495 0
M  V30 3512 O 334.905 1.93594 0.187528 0
M  V30 3513 C 335.188 1.46625 -3.28897 0
M  V30 3514 C 335.041 0.477515 -4.47258 0
M  V30 3515 C 336.36 2.4095 -3.68281 0
M  V30 3516 H 333.479 0.276351 -0.683227 0
M  V30 3517 H 336.121 0.0272868 -1.8998 0
M  V30 3518 H 334.271 2.09438 -3.27212 0
M  V30 3519 H 335.943 -0.145922 -4.61069 0
M  V30 3520 H 334.186 -0.206576 -4.33308 0
M  V30 3521 H 334.857 1.0065 -5.42746 0
M  V30 3522 H 337.333 1.88209 -3.71102 0
M  V30 3523 H 336.209 2.87072 -4.67847 0
M  V30 3524 H 336.47 3.26049 -2.98571 0
M  V30 3525 N 335.529 1.53961 0.336706 0
M  V30 3526 C 336.492 1.81724 1.39675 0
M  V30 3527 C 337.492 0.688532 1.45313 0
M  V30 3528 O 338.682 0.956829 1.45569 0
M  V30 3529 C 335.814 1.96543 2.78538 0
M  V30 3530 H 337.007 2.76424 1.16318 0
M  V30 3531 H 334.56 1.45478 0.571474 0
M  V30 3532 H 335.295 1.0401 3.07168 0
M  V30 3533 H 335.08 2.78665 2.75841 0
M  V30 3534 H 336.57 2.19516 3.5525 0
M  V30 3535 N 337.007 -0.598083 1.45811 0
M  V30 3536 C 338.254 -1.35681 1.50323 0
M  V30 3537 C 338.582 -1.9393 0.148739 0
M  V30 3538 O 337.837 -1.76094 -0.853787 0
M  V30 3539 C 338.136 -2.51669 2.53766 0
M  V30 3540 C 337.802 -2.11508 3.98215 0
M  V30 3541 C 336.464 -2.0027 4.37545 0
M  V30 3542 C 338.816 -1.80308 4.89018 0
M  V30 3543 C 336.144 -1.56067 5.65562 0
M  V30 3544 C 338.496 -1.37589 6.17456 0
M  V30 3545 C 337.16 -1.24916 6.55708 0
M  V30 3546 H 336.43 -0.496492 0.550069 0
M  V30 3547 H 339.077 -0.675052 1.79207 0
M  V30 3548 H 337.382 -3.25225 2.18486 0
M  V30 3549 H 339.079 -3.09895 2.54492 0
M  V30 3550 H 335.669 -2.21185 3.67117 0
M  V30 3551 H 339.853 -1.87884 4.59362 0
M  V30 3552 H 335.109 -1.44886 5.93985 0
M  V30 3553 H 339.283 -1.12495 6.87254 0
M  V30 3554 H 336.91 -0.904386 7.54801 0
M  V30 3555 N 338.485 -1.33259 -0.841409 0
M  V30 3556 C 339.715 -1.2742 -1.62628 0
M  V30 3557 C 340.123 0.157604 -1.88542 0
M  V30 3558 O 339.466 1.10938 -1.46419 0
M  V30 3559 C 339.528 -1.97797 -3.00194 0
M  V30 3560 C 339.192 -3.47109 -2.97261 0
M  V30 3561 C 340.189 -4.42358 -2.73159 0
M  V30 3562 C 337.874 -3.89247 -3.17478 0
M  V30 3563 C 339.868 -5.77718 -2.69296 0
M  V30 3564 C 337.555 -5.24713 -3.13241 0
M  V30 3565 C 338.553 -6.1876 -2.89181 0
M  V30 3566 O 338.241 -7.51745 -2.84843 0
M  V30 3567 H 337.973 -0.440436 -0.512827 0
M  V30 3568 H 340.527 -1.76153 -1.05638 0
M  V30 3569 H 338.757 -1.43652 -3.59028 0
M  V30 3570 H 340.446 -1.8549 -3.61038 0
M  V30 3571 H 341.212 -4.11127 -2.57294 0
M  V30 3572 H 337.091 -3.16456 -3.35226 0
M  V30 3573 H 340.635 -6.51097 -2.50436 0
M  V30 3574 H 336.532 -5.55569 -3.28654 0
M  V30 3575 H 337.3 -7.61262 -3.00702 0
M  V30 3576 N 339.963 1.05934 -1.16686 0
M  V30 3577 C 341.209 1.79065 -0.95203 0
M  V30 3578 C 341.542 1.87147 0.518629 0
M  V30 3579 O 340.817 1.36574 1.38484 0
M  V30 3580 C 341.1 3.23359 -1.58464 0
M  V30 3581 C 340.953 3.23336 -3.12689 0
M  V30 3582 C 342.272 4.21004 -1.28232 0
M  V30 3583 H 339.391 0.65005 -0.34728 0
M  V30 3584 H 342.033 1.23868 -1.44072 0
M  V30 3585 H 340.183 3.70493 -1.16908 0
M  V30 3586 H 341.855 2.84336 -3.6325 0
M  V30 3587 H 340.098 2.61886 -3.4583 0
M  V30 3588 H 340.769 4.25144 -3.52075 0
M  V30 3589 H 343.245 3.8233 -1.64203 0
M  V30 3590 H 342.121 5.20225 -1.75092 0
M  V30 3591 H 342.382 4.41639 -0.201791 0
M  V30 3592 N 341.441 0.965919 1.2453 0
M  V30 3593 C 342.687 0.637349 1.93156 0
M  V30 3594 C 343.042 -0.818261 1.74133 0
M  V30 3595 O 342.335 -1.58079 1.08266 0
M  V30 3596 C 342.529 0.945428 3.44669 0
M  V30 3597 C 342.358 2.42944 3.78429 0
M  V30 3598 C 341.128 3.08895 3.9989 0
M  V30 3599 C 343.326 3.40941 3.8505 0
M  V30 3600 N 341.308 4.47052 4.20735 0
M  V30 3601 C 342.679 4.64448 4.10717 0
M  V30 3602 C 344.734 3.35624 3.67779 0
M  V30 3603 C 343.437 5.83292 4.20907 0
M  V30 3604 C 345.463 4.53818 3.79214 0
M  V30 3605 C 344.825 5.76114 4.05304 0
M  V30 3606 H 340.924 0.284034 0.728594 0
M  V30 3607 H 343.508 1.24041 1.50073 0
M  V30 3608 H 341.679 0.371193 3.86622 0
M  V30 3609 H 343.411 0.575613 4.00586 0
M  V30 3610 H 340.166 2.59432 3.96222 0
M  V30 3611 H 340.59 5.18634 4.35141 0
M  V30 3612 H 345.232 2.4211 3.46616 0
M  V30 3613 H 342.95 6.77236 4.40883 0
M  V30 3614 H 346.536 4.51263 3.67224 0
M  V30 3615 H 345.416 6.66045 4.13949 0
M  V30 3616 N 342.919 -1.39368 0.735821 0
M  V30 3617 C 343.851 -2.2913 0.0567723 0
M  V30 3618 C 344.864 -1.46859 -0.702589 0
M  V30 3619 O 346.053 -1.69925 -0.546616 0
M  V30 3620 C 343.153 -3.25492 -0.943823 0
M  V30 3621 C 342.326 -4.36709 -0.24581 0
M  V30 3622 C 341.385 -5.13376 -1.15463 0
M  V30 3623 O 340.411 -5.65683 -0.631803 0
M  V30 3624 N 341.613 -5.24656 -2.48427 0
M  V30 3625 H 344.378 -2.88047 0.827582 0
M  V30 3626 H 341.939 -1.50957 0.585112 0
M  V30 3627 H 343.931 -3.73657 -1.55443 0
M  V30 3628 H 342.501 -2.676 -1.61583 0
M  V30 3629 H 341.721 -3.9041 0.545286 0
M  V30 3630 H 343.009 -5.08244 0.237891 0
M  V30 3631 H 342.407 -4.83679 -2.93379 0
M  V30 3632 H 340.964 -5.76258 -3.04582 0
M  V30 3633 N 344.397 -0.483516 -1.5 0
M  V30 3634 C 345.813 -0.138404 -1.58999 0
M  V30 3635 C 346.013 1.35597 -1.4905 0
M  V30 3636 O 345.069 2.13039 -1.35539 0
M  V30 3637 C 346.382 -0.699658 -2.92447 0
M  V30 3638 C 347.93 -0.664195 -3.05872 0
M  V30 3639 C 348.405 -1.20321 -4.41913 0
M  V30 3640 N 349.896 -1.16315 -4.48358 0
M  V30 3641 C 350.631 -1.55058 -5.52037 0
M  V30 3642 N 350.127 -2.01311 -6.62907 0
M  V30 3643 N 351.92 -1.46584 -5.42651 0
M  V30 3644 H 344.071 -1.45529 -1.5471 0
M  V30 3645 H 346.334 -0.60258 -0.731848 0
M  V30 3646 H 346.04 -1.747 -3.05242 0
M  V30 3647 H 345.914 -0.150194 -3.76901 0
M  V30 3648 H 348.301 0.374272 -2.92717 0
M  V30 3649 H 348.382 -1.25061 -2.23144 0
M  V30 3650 H 348.026 -2.24037 -4.55818 0
M  V30 3651 H 347.956 -0.592896 -5.23252 0
M  V30 3652 H 350.447 -0.824058 -3.68806 0
M  V30 3653 H 350.76 -2.2899 -7.38095 0
M  V30 3654 H 349.105 -2.05273 -6.63994 0
M  V30 3655 H 352.296 -1.10281 -4.54924 0
M  V30 3656 H 352.469 -1.77103 -6.23329 0
M  V30 3657 N 345.875 1.56104 -0.216619 0
M  V30 3658 C 346.785 2.23694 0.706982 0
M  V30 3659 C 347.801 1.24295 1.21765 0
M  V30 3660 O 348.977 1.57094 1.2603 0
M  V30 3661 C 346.042 2.8998 1.90033 0
M  V30 3662 C 345.103 4.04708 1.43213 0
M  V30 3663 C 344.336 4.67824 2.56859 0
M  V30 3664 O 344.559 4.29913 3.74874 0
M  V30 3665 O 343.493 5.56905 2.28343 0
M  V30 3666 H 347.319 3.03272 0.161235 0
M  V30 3667 H 344.904 1.49394 0.0136177 0
M  V30 3668 H 346.786 3.31837 2.59735 0
M  V30 3669 H 345.461 2.13365 2.43428 0
M  V30 3670 H 344.368 3.6743 0.70327 0
M  V30 3671 H 345.701 4.83051 0.944615 0
M  V30 3672 N 347.353 -0.0568162 1.57498 0
M  V30 3673 C 348.601 -0.751617 1.87604 0
M  V30 3674 C 348.922 -1.77351 0.81066 0
M  V30 3675 O 348.192 -1.95254 -0.159018 0
M  V30 3676 H 346.772 -0.280583 0.692302 0
M  V30 3677 H 349.434 -0.0293483 1.94878 0
M  V30 3678 H 348.53 -1.25852 2.856 0
M  V30 3679 N 348.832 -1.54138 -0.328536 0
M  V30 3680 C 349.762 -1.86167 -1.40939 0
M  V30 3681 C 350.743 -0.718044 -1.54202 0
M  V30 3682 O 351.928 -0.971328 -1.68163 0
M  V30 3683 C 349.058 -2.08461 -2.77779 0
M  V30 3684 C 348.012 -3.24299 -2.7931 0
M  V30 3685 C 347.338 -3.31955 -4.19178 0
M  V30 3686 C 348.638 -4.62065 -2.43502 0
M  V30 3687 H 350.332 -2.76689 -1.14383 0
M  V30 3688 H 347.878 -1.33132 -0.548806 0
M  V30 3689 H 349.831 -2.29453 -3.53454 0
M  V30 3690 H 348.555 -1.14684 -3.05802 0
M  V30 3691 H 347.214 -3.03187 -2.0609 0
M  V30 3692 H 346.862 -2.35745 -4.44335 0
M  V30 3693 H 346.562 -4.09805 -4.2111 0
M  V30 3694 H 348.086 -3.55175 -4.96672 0
M  V30 3695 H 349.5 -4.8297 -3.08889 0
M  V30 3696 H 347.897 -5.42429 -2.56693 0
M  V30 3697 H 348.967 -4.64652 -1.38659 0
M  V30 3698 N 350.31 0.590341 -1.46126 0
M  V30 3699 C 351.726 0.912917 -1.30912 0
M  V30 3700 C 351.926 1.99616 -0.274893 0
M  V30 3701 O 350.982 2.50397 0.325197 0
M  V30 3702 C 352.295 1.3375 -2.69317 0
M  V30 3703 C 353.843 1.45077 -2.77348 0
M  V30 3704 C 354.318 1.90904 -4.16317 0
M  V30 3705 N 355.809 1.9811 -4.18696 0
M  V30 3706 C 356.544 2.34828 -5.23109 0
M  V30 3707 N 356.04 2.70393 -6.37856 0
M  V30 3708 N 357.833 2.35317 -5.10473 0
M  V30 3709 H 349.984 -0.125358 -2.1203 0
M  V30 3710 H 352.247 0.00658481 -0.947977 0
M  V30 3711 H 351.953 0.615614 -3.4627 0
M  V30 3712 H 351.827 2.30058 -2.9892 0
M  V30 3713 H 354.214 2.16353 -2.00687 0
M  V30 3714 H 354.295 0.4704 -2.51438 0
M  V30 3715 H 353.939 1.20209 -4.9347 0
M  V30 3716 H 353.869 2.89886 -4.39629 0
M  V30 3717 H 356.36 1.73146 -3.359 0
M  V30 3718 H 356.673 2.97341 -7.13308 0
M  V30 3719 H 355.018 2.68048 -6.41229 0
M  V30 3720 H 358.209 2.0695 -4.19868 0
M  V30 3721 H 358.382 2.63605 -5.9196 0
M  V30 3722 N 351.788 1.33704 0.83433 0
M  V30 3723 C 352.735 1.24335 1.94447 0
M  V30 3724 C 353.705 0.120991 1.65659 0
M  V30 3725 O 354.89 0.300035 1.88426 0
M  V30 3726 C 352.03 0.993124 3.30501 0
M  V30 3727 C 351.143 2.20217 3.71657 0
M  V30 3728 C 350.278 1.88572 4.96602 0
M  V30 3729 C 349.317 3.05683 5.30306 0
M  V30 3730 N 348.454 2.73997 6.46429 0
M  V30 3731 H 353.294 2.1928 2.01792 0
M  V30 3732 H 350.831 1.09035 0.987404 0
M  V30 3733 H 352.789 0.828467 4.08892 0
M  V30 3734 H 351.419 0.0803902 3.227 0
M  V30 3735 H 350.471 2.47642 2.88752 0
M  V30 3736 H 351.783 3.07752 3.92543 0
M  V30 3737 H 350.937 1.68776 5.82752 0
M  V30 3738 H 349.676 0.982799 4.77695 0
M  V30 3739 H 348.681 3.26088 4.42659 0
M  V30 3740 H 349.906 3.96737 5.51159 0
M  V30 3741 H 347.852 1.86268 6.28999 0
M  V30 3742 H 347.769 3.55064 6.67432 0
M  V30 3743 H 349.037 2.57679 7.35678 0
M  V30 3744 N 353.266 -1.05314 1.17247 0
M  V30 3745 C 354.512 -1.78557 0.961513 0
M  V30 3746 C 354.845 -1.87419 -0.508697 0
M  V30 3747 O 354.12 -1.37307 -1.37757 0
M  V30 3748 C 354.403 -3.22514 1.60176 0
M  V30 3749 C 354.256 -3.21673 3.14399 0
M  V30 3750 C 355.575 -4.20318 1.30463 0
M  V30 3751 H 352.694 -0.6482 0.350723 0
M  V30 3752 H 355.336 -1.23102 1.44727 0
M  V30 3753 H 353.486 -3.69867 1.18871 0
M  V30 3754 H 355.158 -2.82405 3.64753 0
M  V30 3755 H 353.401 -2.60048 3.47214 0
M  V30 3756 H 354.072 -4.23271 3.54324 0
M  V30 3757 H 356.548 -3.81454 1.66229 0
M  V30 3758 H 355.424 -5.19289 1.77848 0
M  V30 3759 H 355.685 -4.41526 0.22521 0
M  V30 3760 N 354.744 -0.972509 -1.24016 0
M  V30 3761 C 355.677 -0.45117 -2.23696 0
M  V30 3762 C 356.655 0.477378 -1.55434 0
M  V30 3763 O 357.839 0.407647 -1.84039 0
M  V30 3764 C 354.966 0.34818 -3.36906 0
M  V30 3765 C 354.012 -0.523355 -4.23277 0
M  V30 3766 S 354.845 -1.96647 -4.98087 0
M  V30 3767 C 356.001 -1.17604 -6.14752 0
M  V30 3768 H 356.234 -1.29588 -2.67571 0
M  V30 3769 H 353.767 -0.777903 -1.33372 0
M  V30 3770 H 355.725 0.803387 -4.02562 0
M  V30 3771 H 354.386 1.16792 -2.91579 0
M  V30 3772 H 353.579 0.0906181 -5.03919 0
M  V30 3773 H 353.181 -0.914485 -3.62647 0
M  V30 3774 H 355.473 -0.433434 -6.76112 0
M  V30 3775 H 356.416 -1.95701 -6.8052 0
M  V30 3776 H 356.824 -0.698295 -5.60164 0
M  V30 3777 N 356.222 1.38976 -0.743202 0
M  V30 3778 C 357.172 2.27843 -0.084513 0
M  V30 3779 C 358.156 1.44677 0.704094 0
M  V30 3780 O 359.348 1.67511 0.571755 0
M  V30 3781 C 356.477 3.33466 0.815781 0
M  V30 3782 C 355.563 4.24095 0.0208844 0
M  V30 3783 N 355.954 4.95609 -1.0102 0
M  V30 3784 C 354.252 4.45303 0.249293 0
M  V30 3785 C 354.953 5.62287 -1.49024 0
M  V30 3786 N 353.929 5.37571 -0.807377 0
M  V30 3787 H 357.731 2.80593 -0.87436 0
M  V30 3788 H 355.245 1.51755 -0.578283 0
M  V30 3789 H 357.242 3.96008 1.30321 0
M  V30 3790 H 355.902 2.82276 1.6047 0
M  V30 3791 H 356.913 4.98849 -1.39176 0
M  V30 3792 H 353.59 4.0504 1.01237 0
M  V30 3793 H 354.98 6.29519 -2.34853 0
M  V30 3794 N 357.7 0.491464 1.49741 0
M  V30 3795 C 358.949 -0.0582189 2.01616 0
M  V30 3796 C 359.262 -1.38927 1.3769 0
M  V30 3797 O 360.468 -2.02509 1.80838 0
M  V30 3798 C 358.924 -0.154235 3.59569 0
M  V30 3799 C 358.532 1.1696 4.32463 0
M  V30 3800 C 360.276 -0.65479 4.1942 0
M  V30 3801 C 358.183 1.03627 5.8225 0
M  V30 3802 H 357.113 -0.0255317 0.753568 0
M  V30 3803 H 359.764 0.629445 1.72367 0
M  V30 3804 H 358.146 -0.906138 3.85493 0
M  V30 3805 H 359.32 1.93405 4.18248 0
M  V30 3806 H 357.635 1.60285 3.84315 0
M  V30 3807 H 360.232 -0.771903 5.29099 0
M  V30 3808 H 360.575 -1.65127 3.8215 0
M  V30 3809 H 361.108 0.040304 3.9778 0
M  V30 3810 H 357.847 2.00672 6.24028 0
M  V30 3811 H 357.367 0.312546 5.98985 0
M  V30 3812 H 359.046 0.711114 6.4308 0
M  V30 3813 N 359.178 -1.55987 0.224894 0
M  V30 3814 C 360.126 -2.21808 -0.700283 0
M  V30 3815 C 361.12 -1.19854 -1.19714 0
M  V30 3816 O 362.326 -1.37925 -1.15658 0
M  V30 3817 H 358.701 -0.711226 -0.244258 0
M  V30 3818 H 360.672 -2.98152 -0.121749 0
M  V30 3819 C 359.421 -2.91444 -1.8962 0
M  V30 3820 H 358.744 -3.69655 -1.52299 0
M  V30 3821 H 360.184 -3.40894 -2.52125 0
M  V30 3822 C 358.643 -1.94098 -2.75368 0
M  V30 3823 O 359.173 -1.46004 -3.74227 0
M  V30 3824 N 357.379 -1.61675 -2.41474 0
M  V30 3825 H 356.926 -2.00979 -1.61137 0
M  V30 3826 H 356.884 -0.968036 -2.99126 0
M  V30 3827 N 360.656 0.0484629 -1.57525 0
M  V30 3828 C 361.902 0.744226 -1.88651 0
M  V30 3829 C 362.235 1.76029 -0.820212 0
M  V30 3830 O 361.51 1.93782 0.166985 0
M  V30 3831 C 361.793 1.43128 -3.30434 0
M  V30 3832 C 361.646 0.43005 -4.47739 0
M  V30 3833 C 362.965 2.37031 -3.70816 0
M  V30 3834 H 360.084 0.269089 -0.68612 0
M  V30 3835 H 362.726 0.00713532 -1.89999 0
M  V30 3836 H 360.876 2.05956 -3.29415 0
M  V30 3837 H 362.548 -0.194816 -4.60888 0
M  V30 3838 H 360.791 -0.252522 -4.33064 0
M  V30 3839 H 361.462 0.948874 -5.43783 0
M  V30 3840 H 363.938 1.84263 -3.73077 0
M  V30 3841 H 362.814 2.82094 -4.70865 0
M  V30 3842 H 363.075 3.22864 -3.02012 0
M  V30 3843 N 362.134 1.5431 0.320358 0
M  V30 3844 C 363.097 1.83195 1.3774 0
M  V30 3845 C 364.097 0.703906 1.44575 0
M  V30 3846 O 365.287 0.972214 1.44546 0
M  V30 3847 C 362.419 1.99487 2.76438 0
M  V30 3848 H 363.612 2.77642 1.1338 0
M  V30 3849 H 361.165 1.46076 0.556012 0
M  V30 3850 H 361.9 1.07262 3.06048 0
M  V30 3851 H 361.685 2.81575 2.7287 0
M  V30 3852 H 363.175 2.23271 3.52902 0
M  V30 3853 N 363.613 -0.582584 1.46437 0
M  V30 3854 C 364.859 -1.34278 1.51978 0
M  V30 3855 C 365.192 -1.93446 0.170973 0
M  V30 3856 O 364.467 -1.76481 -0.817608 0
M  V30 3857 C 364.75 -2.47203 2.61845 0
M  V30 3858 C 364.603 -1.93069 4.06257 0
M  V30 3859 C 365.922 -3.49247 2.67795 0
M  V30 3860 H 363.041 -0.486876 0.553282 0
M  V30 3861 H 365.683 -0.654437 1.78374 0
M  V30 3862 H 363.833 -3.0592 2.39469 0
M  V30 3863 H 365.505 -1.38808 4.3992 0
M  V30 3864 H 363.748 -1.23898 4.1573 0
M  V30 3865 H 364.419 -2.74586 4.7886 0
M  V30 3866 H 366.895 -3.00411 2.8791 0
M  V30 3867 H 365.771 -4.25719 3.46489 0
M  V30 3868 H 366.032 -4.06482 1.73852 0
M  V30 3869 N 365.091 -1.34144 -0.827227 0
M  V30 3870 C 366.001 -1.27428 -1.96975 0
M  V30 3871 C 367.017 -0.182728 -1.73038 0
M  V30 3872 O 368.193 -0.408426 -1.97215 0
M  V30 3873 C 365.258 -1.02526 -3.31194 0
M  V30 3874 C 364.319 -2.20796 -3.68168 0
M  V30 3875 C 363.552 -1.97073 -4.95982 0
M  V30 3876 O 363.775 -0.926822 -5.6282 0
M  V30 3877 O 362.709 -2.83912 -5.30733 0
M  V30 3878 H 366.535 -2.23537 -2.05584 0
M  V30 3879 H 364.12 -1.14307 -0.961989 0
M  V30 3880 H 366.002 -0.904026 -4.11589 0
M  V30 3881 H 364.677 -0.0945389 -3.23562 0
M  V30 3882 H 363.584 -2.38477 -2.88235 0
M  V30 3883 H 364.917 -3.12243 -3.8048 0
M  V30 3884 N 366.569 1.04691 -1.17803 0
M  V30 3885 C 367.797 1.81446 -0.99423 0
M  V30 3886 C 368.212 1.83174 0.457459 0
M  V30 3887 O 367.569 1.26265 1.31771 0
M  V30 3888 C 367.62 3.27334 -1.5341 0
M  V30 3889 O 367.341 3.25798 -2.92895 0
M  V30 3890 C 368.842 4.20759 -1.39559 0
M  V30 3891 H 366.062 0.571599 -0.351447 0
M  V30 3892 H 368.606 1.31982 -1.56208 0
M  V30 3893 H 366.761 3.74052 -1.00815 0
M  V30 3894 H 367.175 4.17144 -3.17949 0
M  V30 3895 H 368.649 5.21084 -1.82141 0
M  V30 3896 H 369.126 4.37856 -0.343394 0
M  V30 3897 H 369.732 3.79901 -1.91195 0
M  V30 3898 N 368.047 0.979072 1.23499 0
M  V30 3899 C 368.977 0.537606 2.27227 0
M  V30 3900 C 369.958 -0.428539 1.64613 0
M  V30 3901 O 371.143 -0.322191 1.91509 0
M  V30 3902 C 368.273 -0.162052 3.46922 0
M  V30 3903 C 367.227 0.721242 4.21879 0
M  V30 3904 C 366.553 -0.110555 5.34586 0
M  V30 3905 C 367.853 2.01141 4.82016 0
M  V30 3906 H 369.547 1.40462 2.64406 0
M  V30 3907 H 367.093 0.67684 1.27102 0
M  V30 3908 H 369.046 -0.482192 4.18632 0
M  V30 3909 H 367.77 -1.06351 3.08799 0
M  V30 3910 H 366.429 1.02482 3.51984 0
M  V30 3911 H 366.077 -1.0125 4.92704 0
M  V30 3912 H 365.777 0.477325 5.85658 0
M  V30 3913 H 367.301 -0.425107 6.09118 0
M  V30 3914 H 368.715 1.75612 5.45741 0
M  V30 3915 H 367.112 2.54695 5.43369 0
M  V30 3916 H 368.182 2.69909 4.02836 0
M  V30 3917 N 369.525 -1.3858 0.750561 0
M  V30 3918 C 370.941 -1.53759 0.427824 0
M  V30 3919 C 371.141 -1.71401 -1.05943 0
M  V30 3920 O 370.197 -1.72331 -1.84549 0
M  V30 3921 C 371.51 -2.74642 1.22443 0
M  V30 3922 C 373.058 -2.88489 1.2142 0
M  V30 3923 C 373.533 -4.12329 1.9937 0
M  V30 3924 N 375.024 -4.194 1.96616 0
M  V30 3925 C 375.759 -5.14209 2.53727 0
M  V30 3926 N 375.255 -6.14709 3.19539 0
M  V30 3927 N 377.048 -5.06537 2.43673 0
M  V30 3928 H 369.199 -1.25377 1.71447 0
M  V30 3929 H 371.462 -0.608844 0.726645 0
M  V30 3930 H 371.168 -2.68 2.27747 0
M  V30 3931 H 371.042 -3.67745 0.839273 0
M  V30 3932 H 373.429 -2.94614 0.169232 0
M  V30 3933 H 373.51 -1.96406 1.63885 0
M  V30 3934 H 373.154 -4.06966 3.03877 0
M  V30 3935 H 373.084 -5.03486 1.54302 0
M  V30 3936 H 375.575 -3.47421 1.48684 0
M  V30 3937 H 375.888 -6.8354 3.60545 0
M  V30 3938 H 374.233 -6.1505 3.23633 0
M  V30 3939 H 377.424 -4.26962 1.91889 0
M  V30 3940 H 377.597 -5.80245 2.88479 0
M  V30 3941 N 371.003 -0.499398 -1.49478 0
M  V30 3942 C 372.233 0.0424839 -2.06556 0
M  V30 3943 C 372.641 1.31514 -1.36018 0
M  V30 3944 O 371.984 1.78555 -0.431718 0
M  V30 3945 C 372.046 0.368074 -3.57611 0
M  V30 3946 C 371.71 -0.806631 -4.49825 0
M  V30 3947 C 372.707 -1.69667 -4.91436 0
M  V30 3948 C 370.392 -1.00498 -4.92144 0
M  V30 3949 C 372.386 -2.76923 -5.74101 0
M  V30 3950 C 370.073 -2.08072 -5.74586 0
M  V30 3951 C 371.071 -2.96119 -6.15469 0
M  V30 3952 O 370.759 -4.01836 -6.96264 0
M  V30 3953 H 370.491 -0.0165165 -0.675798 0
M  V30 3954 H 373.045 -0.695497 -1.93267 0
M  V30 3955 H 371.275 1.15963 -3.68903 0
M  V30 3956 H 372.964 0.848381 -3.96935 0
M  V30 3957 H 373.73 -1.55524 -4.59388 0
M  V30 3958 H 369.609 -0.329036 -4.59824 0
M  V30 3959 H 373.153 -3.45676 -6.05932 0
M  V30 3960 H 369.05 -2.22211 -6.06047 0
M  V30 3961 H 369.818 -3.9917 -7.14567 0
M  V30 3962 N 372.481 1.55866 -0.233164 0
M  V30 3963 C 373.411 2.23783 0.666599 0
M  V30 3964 C 374.392 1.21343 1.19205 0
M  V30 3965 O 375.577 1.4996 1.23392 0
M  V30 3966 C 372.707 2.92671 1.86978 0
M  V30 3967 C 371.661 4.01682 1.47768 0
M  V30 3968 C 370.987 4.57926 2.76058 0
M  V30 3969 C 372.287 5.18126 0.658993 0
M  V30 3970 H 373.981 2.99232 0.100306 0
M  V30 3971 H 371.527 1.43924 0.046804 0
M  V30 3972 H 373.48 3.3888 2.50476 0
M  V30 3973 H 372.204 2.14688 2.46123 0
M  V30 3974 H 370.863 3.56222 0.866106 0
M  V30 3975 H 370.511 3.76659 3.33372 0
M  V30 3976 H 370.211 5.31505 2.50552 0
M  V30 3977 H 371.735 5.06859 3.40479 0
M  V30 3978 H 373.149 5.60644 1.19795 0
M  V30 3979 H 371.546 5.98009 0.500552 0
M  V30 3980 H 372.616 4.83763 -0.331856 0
M  V30 3981 N 373.959 -0.0401083 1.57549 0
M  V30 3982 C 375.187 -0.745196 1.93014 0
M  V30 3983 C 375.602 -1.6948 0.831984 0
M  V30 3984 O 374.959 -1.81482 -0.192463 0
M  V30 3985 C 375.01 -1.51176 3.28372 0
M  V30 3986 O 374.731 -0.600284 4.33968 0
M  V30 3987 C 376.232 -2.315 3.78051 0
M  V30 3988 H 373.452 -0.210088 0.637263 0
M  V30 3989 H 375.996 -0.000924689 2.045 0
M  V30 3990 H 374.151 -2.20801 3.18317 0
M  V30 3991 H 374.565 -1.13669 5.12035 0
M  V30 3992 H 376.039 -2.80697 4.75303 0
M  V30 3993 H 376.516 -3.12436 3.08675 0
M  V30 3994 H 377.122 -1.66971 3.91153 0
M  V30 3995 N 375.437 -1.54477 -0.31217 0
M  V30 3996 C 376.684 -1.73227 -1.04875 0
M  V30 3997 C 377.012 -0.512042 -1.87639 0
M  V30 3998 O 376.267 0.506131 -1.89042 0
M  V30 3999 C 376.566 -2.967 -1.99258 0
M  V30 4000 C 376.232 -4.30974 -1.32559 0
M  V30 4001 C 374.894 -4.67477 -1.141 0
M  V30 4002 C 377.246 -5.14258 -0.847835 0
M  V30 4003 C 374.574 -5.84852 -0.465326 0
M  V30 4004 C 376.926 -6.32327 -0.185931 0
M  V30 4005 C 375.59 -6.67499 0.0107077 0
M  V30 4006 H 374.86 -0.633881 -0.383765 0
M  V30 4007 H 377.507 -1.88727 -0.324731 0
M  V30 4008 H 375.812 -2.75935 -2.7815 0
M  V30 4009 H 377.509 -3.08401 -2.563 0
M  V30 4010 H 374.099 -4.02262 -1.4793 0
M  V30 4011 H 378.283 -4.86565 -0.978192 0
M  V30 4012 H 373.539 -6.10654 -0.301883 0
M  V30 4013 H 377.713 -6.96135 0.192211 0
M  V30 4014 H 375.34 -7.58306 0.536287 0
M  V30 4015 N 376.915 0.57481 -1.46744 0
M  V30 4016 C 377.848 1.69827 -1.52427 0
M  V30 4017 C 378.826 1.58151 -0.377744 0
M  V30 4018 O 380.01 1.79257 -0.58303 0
M  V30 4019 C 377.137 3.07943 -1.41027 0
M  V30 4020 C 376.183 3.38116 -2.59961 0
M  V30 4021 S 377.016 3.29313 -4.22272 0
M  V30 4022 C 378.172 4.69953 -4.13394 0
M  V30 4023 H 378.405 1.64748 -2.47478 0
M  V30 4024 H 375.938 0.754203 -1.34726 0
M  V30 4025 H 377.896 3.87619 -1.35137 0
M  V30 4026 H 376.557 3.10504 -0.473909 0
M  V30 4027 H 375.75 4.38762 -2.47999 0
M  V30 4028 H 375.352 2.66024 -2.62882 0
M  V30 4029 H 377.644 5.60517 -3.80562 0
M  V30 4030 H 378.587 4.86972 -5.14066 0
M  V30 4031 H 378.995 4.47174 -3.44522 0
M  V30 4032 N 378.394 1.34581 0.820102 0
M  V30 4033 C 379.619 1.30333 1.61332 0
M  V30 4034 C 380.044 -0.119339 1.87721 0
M  V30 4035 O 379.402 -1.08197 1.45475 0
M  V30 4036 C 379.45 2.10258 2.92957 0
M  V30 4037 O 378.554 1.47404 3.85157 0
M  V30 4038 H 377.895 0.447488 0.490561 0
M  V30 4039 H 380.425 1.77425 1.01889 0
M  V30 4040 H 380.435 2.21718 3.42498 0
M  V30 4041 H 379.11 3.13693 2.73074 0
M  V30 4042 H 377.687 1.44703 3.43679 0
M  V30 4043 N 379.872 -1.04064 1.18357 0
M  V30 4044 C 381.12 -1.76915 0.977013 0
M  V30 4045 C 381.441 -1.88624 -0.494577 0
M  V30 4046 O 380.711 -1.41125 -1.3587 0
M  V30 4047 H 379.291 -0.65535 0.358504 0
M  V30 4048 H 381.953 -1.25592 1.49039 0
M  V30 4049 H 381.049 -2.78178 1.41504 0
M  V30 4050 N 381.35 -0.985608 -1.22978 0
M  V30 4051 C 382.26 -0.538548 -2.28335 0
M  V30 4052 C 383.276 0.409163 -1.69121 0
M  V30 4053 O 384.452 0.277797 -1.99475 0
M  V30 4054 C 381.517 0.146867 -3.46389 0
M  V30 4055 C 380.578 -0.842896 -4.20944 0
M  V30 4056 C 379.811 -0.190095 -5.33361 0
M  V30 4057 O 380.034 1.01767 -5.61248 0
M  V30 4058 O 378.968 -0.891289 -5.95264 0
M  V30 4059 H 382.794 -1.41487 -2.68729 0
M  V30 4060 H 380.379 -0.753495 -1.29007 0
M  V30 4061 H 382.261 0.531125 -4.1804 0
M  V30 4062 H 380.936 0.997871 -3.07935 0
M  V30 4063 H 379.843 -1.27795 -3.51595 0
M  V30 4064 H 381.176 -1.66287 -4.6326 0
M  V30 4065 N 382.828 1.3818 -0.7579 0
M  V30 4066 C 384.074 2.00316 -0.316453 0
M  V30 4067 C 384.407 1.60026 1.10025 0
M  V30 4068 O 383.682 0.839835 1.75434 0
M  V30 4069 C 383.965 3.57349 -0.444245 0
M  V30 4070 C 383.818 4.07591 -1.90236 0
M  V30 4071 C 385.137 4.3981 0.1598 0
M  V30 4072 H 382.256 0.727741 -0.116459 0
M  V30 4073 H 384.898 1.6406 -0.958352 0
M  V30 4074 H 383.048 3.88365 0.102233 0
M  V30 4075 H 384.72 3.87199 -2.50748 0
M  V30 4076 H 382.963 3.60297 -2.41595 0
M  V30 4077 H 383.634 5.16677 -1.94291 0
M  V30 4078 H 386.11 4.14971 -0.306314 0
M  V30 4079 H 384.986 5.48885 0.0401675 0
M  V30 4080 H 385.247 4.24102 1.24859 0
M  V30 4081 N 384.306 0.507319 1.49211 0
M  V30 4082 C 385.554 -0.0348839 2.0207 0
M  V30 4083 C 385.875 -1.36898 1.38866 0
M  V30 4084 O 385.145 -1.88133 0.546151 0
M  V30 4085 H 383.725 -0.0158812 0.746831 0
M  V30 4086 H 386.387 0.665998 1.83168 0
M  V30 4087 H 385.483 -0.159917 3.1169 0
M  V30 4088 N 385.784 -1.5574 0.241426 0
M  V30 4089 C 387.2 -1.59196 -0.113548 0
M  V30 4090 C 387.4 -1.25852 -1.57364 0
M  V30 4091 O 386.456 -1.00322 -2.31715 0
M  V30 4092 C 387.769 -2.99814 0.230695 0
M  V30 4093 C 389.317 -3.12513 0.174547 0
M  V30 4094 C 389.792 -4.55342 0.492744 0
M  V30 4095 N 391.283 -4.61076 0.443043 0
M  V30 4096 C 392.018 -5.6956 0.662484 0
M  V30 4097 N 391.514 -6.86328 0.944761 0
M  V30 4098 N 393.307 -5.58957 0.593564 0
M  V30 4099 H 385.458 -1.75685 1.19368 0
M  V30 4100 H 387.721 -0.81756 0.479896 0
M  V30 4101 H 387.427 -3.28932 1.24485 0
M  V30 4102 H 387.301 -3.74568 -0.444833 0
M  V30 4103 H 389.688 -2.83179 -0.830277 0
M  V30 4104 H 389.769 -2.40045 0.883845 0
M  V30 4105 H 389.413 -4.85396 1.4951 0
M  V30 4106 H 389.343 -5.26062 -0.23797 0
M  V30 4107 H 391.834 -3.77179 0.233374 0
M  V30 4108 H 392.147 -7.64935 1.09977 0
M  V30 4109 H 390.492 -6.88025 0.982175 0
M  V30 4110 H 393.683 -4.66611 0.373123 0
M  V30 4111 H 393.856 -6.43433 0.767981 0
M  V30 4112 N 387.262 0.0317525 -1.57568 0
M  V30 4113 C 388.511 0.722131 -1.8833 0
M  V30 4114 C 388.824 1.76664 -0.839587 0
M  V30 4115 O 390.03 2.50942 -1.03635 0
M  V30 4116 C 388.486 1.33544 -3.34207 0
M  V30 4117 C 388.094 0.327415 -4.46802 0
M  V30 4118 C 389.838 2.00585 -3.7412 0
M  V30 4119 C 387.745 0.948915 -5.83738 0
M  V30 4120 H 386.675 0.273466 -0.702661 0
M  V30 4121 H 389.326 -0.0235811 -1.83485 0
M  V30 4122 H 387.708 2.13077 -3.33788 0
M  V30 4123 H 388.882 -0.441006 -4.58685 0
M  V30 4124 H 387.197 -0.240758 -4.15703 0
M  V30 4125 H 389.794 2.47932 -4.73744 0
M  V30 4126 H 390.137 2.82285 -3.05975 0
M  V30 4127 H 390.67 1.27831 -3.76702 0
M  V30 4128 H 387.409 0.171387 -6.55276 0
M  V30 4129 H 386.929 1.68724 -5.7558 0
M  V30 4130 H 388.608 1.45705 -6.3038 0
M  V30 4131 N 388.74 1.54641 0.303973 0
M  V30 4132 C 389.968 1.77768 1.05858 0
M  V30 4133 C 390.383 0.535722 1.8104 0
M  V30 4134 O 389.74 -0.494337 1.75677 0
M  V30 4135 C 389.791 2.9834 2.04146 0
M  V30 4136 O 389.512 4.17736 1.32015 0
M  V30 4137 C 391.013 3.33832 2.91669 0
M  V30 4138 H 388.233 0.592961 0.314067 0
M  V30 4139 H 390.777 2.01583 0.344149 0
M  V30 4140 H 388.932 2.76742 2.71096 0
M  V30 4141 H 389.346 4.85693 1.97998 0
M  V30 4142 H 390.82 4.21448 3.56491 0
M  V30 4143 H 391.297 2.51857 3.59812 0
M  V30 4144 H 391.903 3.57579 2.30254 0
M  V30 4145 N 390.218 -0.567019 1.47046 0
M  V30 4146 C 391.165 -1.67489 1.58796 0
M  V30 4147 C 392.135 -1.60399 0.43144 0
M  V30 4148 O 393.32 -1.79378 0.650233 0
M  V30 4149 C 390.46 -3.05821 1.59899 0
M  V30 4150 C 389.573 -3.2342 2.86397 0
M  V30 4151 C 388.708 -4.52093 2.789 0
M  V30 4152 C 387.747 -4.6309 4.00267 0
M  V30 4153 N 386.884 -5.83106 3.91064 0
M  V30 4154 H 391.724 -1.56785 2.53422 0
M  V30 4155 H 389.261 -0.763896 1.2571 0
M  V30 4156 H 391.219 -3.8591 1.58522 0
M  V30 4157 H 389.849 -3.15384 0.687929 0
M  V30 4158 H 388.901 -2.3683 2.97684 0
M  V30 4159 H 390.213 -3.27412 3.76301 0
M  V30 4160 H 389.367 -5.4043 2.75718 0
M  V30 4161 H 388.106 -4.50565 1.86662 0
M  V30 4162 H 387.111 -3.73168 4.03765 0
M  V30 4163 H 388.336 -4.66386 4.93621 0
M  V30 4164 H 386.282 -5.82546 3.01623 0
M  V30 4165 H 386.199 -5.88434 4.74638 0
M  V30 4166 H 387.467 -6.73831 3.91882 0
M  V30 4167 N 391.696 -1.35014 -0.812953 0
M  V30 4168 C 392.942 -1.29129 -1.57154 0
M  V30 4169 C 393.297 0.134922 -1.91926 0
M  V30 4170 O 392.59 1.08373 -1.58006 0
M  V30 4171 C 392.784 -2.12524 -2.87347 0
M  V30 4172 C 392.613 -3.6311 -2.65294 0
M  V30 4173 C 391.383 -4.32363 -2.61516 0
M  V30 4174 C 393.581 -4.56897 -2.36114 0
M  V30 4175 N 391.563 -5.68735 -2.31113 0
M  V30 4176 C 392.934 -5.81345 -2.15494 0
M  V30 4177 C 394.989 -4.45706 -2.21925 0
M  V30 4178 C 393.692 -6.95862 -1.82122 0
M  V30 4179 C 395.718 -5.60066 -1.89948 0
M  V30 4180 C 395.08 -6.83539 -1.7016 0
M  V30 4181 H 391.179 -0.527764 -0.577052 0
M  V30 4182 H 393.763 -1.6983 -0.952146 0
M  V30 4183 H 391.934 -1.74104 -3.47192 0
M  V30 4184 H 393.666 -1.98207 -3.5284 0
M  V30 4185 H 390.421 -3.84907 -2.75941 0
M  V30 4186 H 390.845 -6.40694 -2.18724 0
M  V30 4187 H 395.487 -3.50855 -2.35925 0
M  V30 4188 H 393.205 -7.90685 -1.6686 0
M  V30 4189 H 396.791 -5.53357 -1.79687 0
M  V30 4190 H 395.671 -7.70531 -1.45777 0
M  V30 4191 N 393.175 1.03435 -1.18907 0
M  V30 4192 C 394.122 2.11591 -0.921837 0
M  V30 4193 C 395.092 1.65499 0.141226 0
M  V30 4194 O 396.277 1.908 0.000242829 0
M  V30 4195 C 393.417 3.42012 -0.460616 0
M  V30 4196 C 392.53 4.01682 -1.58982 0
M  V30 4197 C 391.665 5.20091 -1.08069 0
M  V30 4198 C 390.704 5.71805 -2.18416 0
M  V30 4199 N 389.841 6.81494 -1.68849 0
M  V30 4200 H 394.681 2.33787 -1.8479 0
M  V30 4201 H 392.218 1.1467 -0.921373 0
M  V30 4202 H 394.176 4.16834 -0.174642 0
M  V30 4203 H 392.806 3.19944 0.428467 0
M  V30 4204 H 391.858 3.24127 -1.99113 0
M  V30 4205 H 393.17 4.36084 -2.4214 0
M  V30 4206 H 392.324 6.02051 -0.749615 0
M  V30 4207 H 391.063 4.87209 -0.218771 0
M  V30 4208 H 390.068 4.88461 -2.5236 0
M  V30 4209 H 391.293 6.06728 -3.05054 0
M  V30 4210 H 389.239 6.50475 -0.849572 0
M  V30 4211 H 389.156 7.14994 -2.45601 0
M  V30 4212 H 390.424 7.67063 -1.38689 0
M  V30 4213 N 394.653 0.992116 1.22453 0
M  V30 4214 C 395.883 0.684949 1.94915 0
M  V30 4215 C 396.291 -0.754292 1.73514 0
M  V30 4216 O 395.634 -1.52056 1.03076 0
M  V30 4217 C 395.696 0.910054 3.47791 0
M  V30 4218 C 395.36 2.33363 3.92926 0
M  V30 4219 C 396.357 3.31308 4.00663 0
M  V30 4220 C 394.042 2.66785 4.25595 0
M  V30 4221 C 396.036 4.6075 4.40441 0
M  V30 4222 C 393.723 3.96446 4.65053 0
M  V30 4223 C 394.721 4.9324 4.72444 0
M  V30 4224 O 394.409 6.20584 5.1101 0
M  V30 4225 H 394.141 0.25258 0.62704 0
M  V30 4226 H 396.695 1.32939 1.56577 0
M  V30 4227 H 394.925 0.208443 3.86138 0
M  V30 4228 H 396.614 0.598257 4.01467 0
M  V30 4229 H 397.38 3.0682 3.75615 0
M  V30 4230 H 393.259 1.92148 4.19047 0
M  V30 4231 H 396.803 5.363 4.46126 0
M  V30 4232 H 392.7 4.20724 4.89552 0
M  V30 4233 H 393.468 6.24509 5.29085 0
M  V30 4234 N 396.131 -1.37776 0.765217 0
M  V30 4235 C 397.542 -1.82521 0.392819 0
M  V30 4236 C 397.893 -1.63789 -1.08017 0
M  V30 4237 O 397.018 -1.14542 -1.83601 0
M  V30 4238 C 397.613 -3.31358 0.706214 0
M  V30 4239 C 396.172 -3.74406 0.386952 0
M  V30 4240 C 395.319 -2.60394 0.953422 0
M  V30 4241 H 398.27 -1.2634 0.960412 0
M  V30 4242 H 398.291 -3.80498 -0.0114706 0
M  V30 4243 H 397.803 -3.44959 1.77833 0
M  V30 4244 H 395.904 -3.66377 -0.678112 0
M  V30 4245 H 396.017 -4.70749 0.890636 0
M  V30 4246 H 394.381 -2.51878 0.378064 0
M  V30 4247 H 395.164 -2.76791 2.03081 0
M  V30 4248 N 397.609 -0.515225 -1.4894 0
M  V30 4249 C 398.856 0.024215 -2.02486 0
M  V30 4250 C 399.184 1.35671 -1.39368 0
M  V30 4251 O 398.439 1.88566 -0.523574 0
M  V30 4252 C 398.738 0.210595 -3.56779 0
M  V30 4253 C 398.404 -1.04569 -4.38607 0
M  V30 4254 C 397.066 -1.39002 -4.60686 0
M  V30 4255 C 399.418 -1.88008 -4.86109 0
M  V30 4256 C 396.746 -2.568 -5.27514 0
M  V30 4257 C 399.098 -3.04972 -5.54234 0
M  V30 4258 C 397.762 -3.39768 -5.74555 0
M  V30 4259 H 397.032 0.00886088 -0.740947 0
M  V30 4260 H 399.679 -0.678263 -1.79086 0
M  V30 4261 H 397.984 0.99572 -3.78936 0
M  V30 4262 H 399.681 0.642659 -3.95817 0
M  V30 4263 H 396.271 -0.767497 -4.21672 0
M  V30 4264 H 400.455 -1.62719 -4.68867 0
M  V30 4265 H 395.711 -2.8398 -5.41447 0
M  V30 4266 H 399.885 -3.69943 -5.90013 0
M  V30 4267 H 397.512 -4.31148 -6.26112 0
M  V30 4268 N 399.087 1.5561 -0.249682 0
M  V30 4269 C 400.498 1.84979 0.252949 0
M  V30 4270 C 400.849 1.17153 1.57384 0
M  V30 4271 O 399.974 0.450884 2.11651 0
M  V30 4272 C 400.569 3.35584 0.465732 0
M  V30 4273 C 399.128 3.65169 0.912624 0
M  V30 4274 C 398.275 2.77299 -0.00859085 0
M  V30 4275 H 401.226 1.51513 -0.47217 0
M  V30 4276 H 401.247 3.57313 1.30795 0
M  V30 4277 H 400.759 3.8492 -0.49579 0
M  V30 4278 H 398.86 3.21312 1.88652 0
M  V30 4279 H 398.973 4.72912 0.767559 0
M  V30 4280 H 397.337 2.49678 0.50327 0
M  V30 4281 H 398.12 3.29442 -0.965537 0
M  V30 4282 N 400.565 -0.0233959 1.57583 0
M  V30 4283 C 401.512 -1.02224 2.06927 0
M  V30 4284 C 402.482 -1.35575 0.959617 0
M  V30 4285 O 403.667 -1.45815 1.23055 0
M  V30 4286 C 400.807 -2.31636 2.5581 0
M  V30 4287 C 399.92 -2.04394 3.80588 0
M  V30 4288 C 399.055 -3.27717 4.18061 0
M  V30 4289 C 398.094 -2.96056 5.3574 0
M  V30 4290 N 397.231 -4.11847 5.68618 0
M  V30 4291 H 402.071 -0.594504 2.9201 0
M  V30 4292 H 399.608 -0.281921 1.44373 0
M  V30 4293 H 401.566 -3.07258 2.82221 0
M  V30 4294 H 400.196 -2.72122 1.73636 0
M  V30 4295 H 399.248 -1.19244 3.61227 0
M  V30 4296 H 400.56 -1.77042 4.66323 0
M  V30 4297 H 399.714 -4.11702 4.4563 0
M  V30 4298 H 398.453 -3.58188 3.30988 0
M  V30 4299 H 397.458 -2.10474 5.07918 0
M  V30 4300 H 398.683 -2.66857 6.24471 0
M  V30 4301 H 396.629 -4.42258 4.84504 0
M  V30 4302 H 396.546 -3.87938 6.48876 0
M  V30 4303 H 397.814 -4.96689 6.00766 0
M  V30 4304 N 402.043 -1.548 -0.295768 0
M  V30 4305 C 402.953 -1.89177 -1.38742 0
M  V30 4306 C 403.969 -0.786481 -1.55211 0
M  V30 4307 O 405.145 -1.08344 -1.69775 0
M  V30 4308 C 402.21 -2.13663 -2.73036 0
M  V30 4309 C 401.271 -3.37349 -2.65508 0
M  V30 4310 C 400.504 -3.60658 -3.93398 0
M  V30 4311 O 400.727 -2.86882 -4.93006 0
M  V30 4312 O 399.661 -4.54179 -3.94975 0
M  V30 4313 H 403.487 -2.82059 -1.12589 0
M  V30 4314 H 401.072 -1.41056 -0.492295 0
M  V30 4315 H 402.954 -2.3094 -3.52484 0
M  V30 4316 H 401.629 -1.23967 -2.99022 0
M  V30 4317 H 400.536 -3.25431 -1.84514 0
M  V30 4318 H 401.869 -4.27192 -2.44474 0
M  V30 4319 N 403.521 0.559213 -1.47345 0
M  V30 4320 C 404.749 1.34194 -1.57479 0
M  V30 4321 C 405.164 1.87463 -0.224261 0
M  V30 4322 O 404.521 1.64888 0.782185 0
M  V30 4323 C 404.572 2.51324 -2.59843 0
M  V30 4324 O 404.293 2.00256 -3.89653 0
M  V30 4325 C 405.794 3.43563 -2.80142 0
M  V30 4326 H 403.014 0.409136 -0.531835 0
M  V30 4327 H 405.558 0.677609 -1.92947 0
M  V30 4328 H 403.713 3.13699 -2.27314 0
M  V30 4329 H 404.127 2.76708 -4.4557 0
M  V30 4330 H 405.601 4.2217 -3.55635 0
M  V30 4331 H 406.078 3.9698 -1.87892 0
M  V30 4332 H 406.684 2.87005 -3.1386 0
M  V30 4333 N 404.999 1.35443 0.805782 0
M  V30 4334 C 405.909 1.30546 1.94923 0
M  V30 4335 C 406.925 0.210233 1.72725 0
M  V30 4336 O 408.101 0.43975 1.9654 0
M  V30 4337 C 405.166 1.07782 3.29521 0
M  V30 4338 C 404.227 2.26625 3.64609 0
M  V30 4339 C 403.46 2.04938 4.92784 0
M  V30 4340 O 403.683 1.01624 5.61274 0
M  V30 4341 O 402.617 2.9232 5.26149 0
M  V30 4342 H 406.443 2.26779 2.02002 0
M  V30 4343 H 404.028 1.15823 0.943682 0
M  V30 4344 H 405.91 0.969392 4.10098 0
M  V30 4345 H 404.585 0.146003 3.23371 0
M  V30 4346 H 403.492 2.43033 2.84404 0
M  V30 4347 H 404.825 3.18257 3.75464 0
M  V30 4348 N 406.477 -1.02803 1.19454 0
M  V30 4349 C 407.44 -2.09264 0.934955 0
M  V30 4350 C 408.44 -1.60576 -0.0849015 0
M  V30 4351 O 409.63 -1.73554 0.149933 0
M  V30 4352 C 406.762 -3.38482 0.40531 0
M  V30 4353 H 407.955 -2.33726 1.87916 0
M  V30 4354 H 405.508 -1.19426 1.00832 0
M  V30 4355 H 406.243 -3.19689 -0.544899 0
M  V30 4356 H 406.028 -3.75142 1.14065 0
M  V30 4357 H 407.518 -4.16894 0.242806 0
M  V30 4358 N 407.956 -0.998596 -1.21925 0
M  V30 4359 C 408.903 -0.553621 -2.24062 0
M  V30 4360 C 409.873 0.416999 -1.6078 0
M  V30 4361 O 411.058 0.320482 -1.88089 0
M  V30 4362 C 408.198 0.119959 -3.44891 0
M  V30 4363 C 407.311 -0.893077 -4.22668 0
M  V30 4364 C 406.446 -0.192424 -5.30851 0
M  V30 4365 C 405.485 -1.19344 -6.00353 0
M  V30 4366 N 404.622 -0.520707 -7.00166 0
M  V30 4367 H 409.462 -1.4293 -2.61486 0
M  V30 4368 H 406.999 -0.715838 -1.28507 0
M  V30 4369 H 408.957 0.527459 -4.13852 0
M  V30 4370 H 407.587 0.959389 -3.08214 0
M  V30 4371 H 406.639 -1.41886 -3.52948 0
M  V30 4372 H 407.951 -1.65512 -4.70539 0
M  V30 4373 H 407.105 0.271515 -6.06092 0
M  V30 4374 H 405.844 0.602075 -4.83969 0
M  V30 4375 H 404.849 -1.66795 -5.23889 0
M  V30 4376 H 406.074 -1.98891 -6.49322 0
M  V30 4377 H 404.02 0.254252 -6.55507 0
M  V30 4378 H 403.937 -1.2211 -7.46073 0
M  V30 4379 H 405.205 -0.0797596 -7.79459 0
M  V30 4380 N 409.434 1.37368 -0.772513 0
M  V30 4381 C 410.659 2.0447 -0.347386 0
M  V30 4382 C 411.084 1.57882 1.0225 0
M  V30 4383 O 410.442 0.73941 1.65537 0
M  V30 4384 C 410.49 3.58369 -0.400479 0
M  V30 4385 O 409.594 4.0803 0.598789 0
M  V30 4386 H 408.935 0.646773 -0.15027 0
M  V30 4387 H 411.465 1.75667 -1.04892 0
M  V30 4388 H 411.475 4.07183 -0.258045 0
M  V30 4389 H 410.15 3.91633 -1.39986 0
M  V30 4390 H 408.727 3.70534 0.419411 0
M  V30 4391 N 410.912 0.523116 1.48665 0
M  V30 4392 C 411.859 -0.243398 2.29513 0
M  V30 4393 C 412.829 -0.940139 1.36933 0
M  V30 4394 O 414.014 -0.942503 1.65896 0
M  V30 4395 C 411.154 -1.28855 3.20141 0
M  V30 4396 C 410.267 -0.60135 4.27794 0
M  V30 4397 C 409.402 -1.62884 5.05611 0
M  V30 4398 C 408.441 -0.924726 6.05075 0
M  V30 4399 N 407.578 -1.89744 6.75975 0
M  V30 4400 H 412.418 0.452234 2.94549 0
M  V30 4401 H 409.955 0.234858 1.45213 0
M  V30 4402 H 411.913 -1.90674 3.71079 0
M  V30 4403 H 410.543 -1.95266 2.57043 0
M  V30 4404 H 409.595 0.130623 3.80176 0
M  V30 4405 H 410.907 -0.0481585 4.98777 0
M  V30 4406 H 410.061 -2.32149 5.60528 0
M  V30 4407 H 408.8 -2.21592 4.34452 0
M  V30 4408 H 407.805 -0.217966 5.49368 0
M  V30 4409 H 409.03 -0.343851 6.78229 0
M  V30 4410 H 406.976 -2.47373 6.07571 0
M  V30 4411 H 406.893 -1.3955 7.43009 0
M  V30 4412 H 408.161 -2.58229 7.35485 0
M  V30 4413 N 412.39 -1.55475 0.257931 0
M  V30 4414 C 413.32 -2.24815 -0.630912 0
M  V30 4415 C 414.301 -1.23224 -1.17259 0
M  V30 4416 O 415.486 -1.51904 -1.20991 0
M  V30 4417 C 412.616 -2.95609 -1.82298 0
M  V30 4418 C 411.57 -4.03982 -1.41359 0
M  V30 4419 C 410.896 -4.6226 -2.68738 0
M  V30 4420 C 412.196 -5.19109 -0.57648 0
M  V30 4421 H 413.89 -2.99354 -0.0526878 0
M  V30 4422 H 411.436 -1.4398 -0.023901 0
M  V30 4423 H 413.389 -3.42822 -2.45054 0
M  V30 4424 H 412.113 -2.18577 -2.42676 0
M  V30 4425 H 410.772 -3.57555 -0.809324 0
M  V30 4426 H 410.42 -3.81915 -3.27338 0
M  V30 4427 H 410.12 -5.35424 -2.42065 0
M  V30 4428 H 411.644 -5.12212 -3.32372 0
M  V30 4429 H 413.058 -5.62479 -1.10861 0
M  V30 4430 H 411.455 -5.98729 -0.405351 0
M  V30 4431 H 412.525 -4.83174 0.408776 0
M  V30 4432 N 413.868 0.0150385 -1.57593 0
M  V30 4433 C 415.096 0.714395 -1.94175 0
M  V30 4434 C 415.511 1.68135 -0.858841 0
M  V30 4435 O 414.868 1.81766 0.163567 0
M  V30 4436 C 414.919 1.45933 -3.30735 0
M  V30 4437 O 414.64 0.531167 -4.34868 0
M  V30 4438 C 416.141 2.25456 -3.81686 0
M  V30 4439 H 413.361 0.199923 -0.640525 0
M  V30 4440 H 415.905 -0.0316096 -2.04476 0
M  V30 4441 H 414.06 2.15709 -3.21789 0
M  V30 4442 H 414.474 1.05509 -5.13778 0
M  V30 4443 H 415.948 2.731 -4.79709 0
M  V30 4444 H 416.425 3.07485 -3.13607 0
M  V30 4445 H 417.031 1.60727 -3.9376 0
M  V30 4446 N 415.346 1.54954 0.287554 0
M  V30 4447 C 416.757 1.65732 0.859634 0
M  V30 4448 C 417.108 0.574767 1.87592 0
M  V30 4449 O 416.233 -0.286299 2.14498 0
M  V30 4450 C 416.828 3.00438 1.56597 0
M  V30 4451 C 415.387 3.13292 2.08627 0
M  V30 4452 C 414.534 2.61473 0.923416 0
M  V30 4453 H 417.485 1.5857 0.0642338 0
M  V30 4454 H 417.506 2.92613 2.43224 0
M  V30 4455 H 417.018 3.79207 0.826053 0
M  V30 4456 H 415.119 2.39268 2.85625 0
M  V30 4457 H 415.232 4.19647 2.31157 0
M  V30 4458 H 413.596 2.18264 1.31275 0
M  V30 4459 H 414.379 3.42733 0.197241 0
M  V30 4460 N 416.824 -0.551391 1.4764 0
M  V30 4461 C 418.052 -1.33357 1.58189 0
M  V30 4462 C 418.467 -1.87342 0.234199 0
M  V30 4463 O 417.824 -1.65301 -0.77343 0
M  V30 4464 C 417.875 -2.49942 2.61173 0
M  V30 4465 O 417.596 -1.98187 3.90709 0
M  V30 4466 C 419.097 -3.42072 2.8196 0
M  V30 4467 H 416.317 -0.40631 0.533998 0
M  V30 4468 H 418.861 -0.667367 1.93304 0
M  V30 4469 H 417.016 -3.12489 2.28975 0
M  V30 4470 H 417.43 -2.74342 4.47031 0
M  V30 4471 H 418.904 -4.20278 3.57869 0
M  V30 4472 H 419.381 -3.95978 1.89995 0
M  V30 4473 H 419.987 -2.85336 3.15378 0
M  V30 4474 N 418.302 -1.35869 -0.798587 0
M  V30 4475 C 419.232 -1.32118 -1.92528 0
M  V30 4476 C 420.213 -0.194209 -1.68988 0
M  V30 4477 O 421.398 -0.390426 -1.90235 0
M  V30 4478 C 418.528 -1.10047 -3.29404 0
M  V30 4479 C 417.482 -2.19471 -3.67446 0
M  V30 4480 C 416.808 -1.82555 -5.02571 0
M  V30 4481 C 418.108 -3.61495 -3.76987 0
M  V30 4482 H 419.802 -2.26394 -1.95924 0
M  V30 4483 H 417.348 -1.08981 -0.94123 0
M  V30 4484 H 419.301 -1.06061 -4.07835 0
M  V30 4485 H 418.025 -0.122195 -3.26371 0
M  V30 4486 H 416.684 -2.22568 -2.91306 0
M  V30 4487 H 416.332 -0.833249 -4.9605 0
M  V30 4488 H 416.032 -2.5581 -5.28995 0
M  V30 4489 H 417.556 -1.80108 -5.83432 0
M  V30 4490 H 418.97 -3.60676 -4.4563 0
M  V30 4491 H 417.367 -4.33577 -4.14887 0
M  V30 4492 H 418.437 -3.97065 -2.78329 0
M  V30 4493 N 419.78 1.02168 -1.19998 0
M  V30 4494 C 421.01 1.79036 -1.031 0
M  V30 4495 C 421.418 1.84409 0.423078 0
M  V30 4496 O 420.761 1.29228 1.30559 0
M  V30 4497 C 420.823 3.25185 -1.53281 0
M  V30 4498 C 420.487 3.43431 -3.01503 0
M  V30 4499 C 421.484 3.33063 -3.99206 0
M  V30 4500 C 419.169 3.69412 -3.40353 0
M  V30 4501 C 421.163 3.48413 -5.33748 0
M  V30 4502 C 418.85 3.84406 -4.75053 0
M  V30 4503 C 419.848 3.7391 -5.71559 0
M  V30 4504 O 419.536 3.88452 -7.03818 0
M  V30 4505 H 419.268 0.570043 -0.363355 0
M  V30 4506 H 421.822 1.29524 -1.59414 0
M  V30 4507 H 420.052 3.75756 -0.913483 0
M  V30 4508 H 421.741 3.83671 -1.32481 0
M  V30 4509 H 422.507 3.12934 -3.70537 0
M  V30 4510 H 418.386 3.76671 -2.65782 0
M  V30 4511 H 421.93 3.40137 -6.09059 0
M  V30 4512 H 417.827 4.04035 -5.03415 0
M  V30 4513 H 418.595 4.055 -7.10993 0
M  V30 4514 N 421.258 1.00505 1.21394 0
M  V30 4515 C 422.504 0.688793 1.90745 0
M  V30 4516 C 422.837 -0.778486 1.77914 0
M  V30 4517 O 422.112 -1.56433 1.15581 0
M  V30 4518 C 422.395 1.11063 3.42545 0
M  V30 4519 C 422.248 2.63737 3.64367 0
M  V30 4520 C 423.567 0.673059 4.34923 0
M  V30 4521 H 420.686 0.251702 0.692687 0
M  V30 4522 H 423.328 1.25074 1.43026 0
M  V30 4523 H 421.478 0.632508 3.83317 0
M  V30 4524 H 423.15 3.19313 3.32922 0
M  V30 4525 H 421.393 3.05248 3.08231 0
M  V30 4526 H 422.064 2.88305 4.70727 0
M  V30 4527 H 424.54 1.08392 4.01734 0
M  V30 4528 H 423.416 0.996383 5.39781 0
M  V30 4529 H 423.677 -0.425808 4.40045 0
M  V30 4530 N 422.737 -1.36956 0.779787 0
M  V30 4531 C 423.985 -1.99097 0.347079 0
M  V30 4532 C 424.306 -1.62206 -1.08232 0
M  V30 4533 O 423.576 -0.891373 -1.74446 0
M  V30 4534 H 422.156 -0.736409 0.125342 0
M  V30 4535 H 424.818 -1.67308 0.999696 0
M  V30 4536 H 423.914 -3.09107 0.431162 0
M  V30 4537 N 424.215 -0.530993 -1.48385 0
M  V30 4538 C 425.162 0.231223 -2.29639 0
M  V30 4539 C 426.132 0.932864 -1.37429 0
M  V30 4540 O 427.317 0.933692 -1.66394 0
M  V30 4541 C 424.457 1.27155 -3.2082 0
M  V30 4542 C 423.57 0.578655 -4.28107 0
M  V30 4543 C 422.705 1.602 -5.06467 0
M  V30 4544 C 421.744 0.892625 -6.05556 0
M  V30 4545 N 420.881 1.86157 -6.76971 0
M  V30 4546 H 425.721 -0.467848 -2.94305 0
M  V30 4547 H 423.258 -0.242556 -1.45086 0
M  V30 4548 H 425.216 1.88703 -3.72085 0
M  V30 4549 H 423.846 1.939 -2.58075 0
M  V30 4550 H 422.898 -0.150782 -3.80101 0
M  V30 4551 H 424.21 0.0217065 -4.98795 0
M  V30 4552 H 423.364 2.29173 -5.61751 0
M  V30 4553 H 422.103 2.19285 -4.35621 0
M  V30 4554 H 421.108 0.188829 -5.49476 0
M  V30 4555 H 422.333 0.307878 -6.78402 0
M  V30 4556 H 420.279 2.44147 -6.08875 0
M  V30 4557 H 420.196 1.35608 -7.43738 0
M  V30 4558 H 421.464 2.54325 -7.36844 0
M  V30 4559 N 425.693 1.55336 -0.266172 0
M  V30 4560 C 426.923 2.03506 0.356239 0
M  V30 4561 C 427.331 1.14426 1.50676 0
M  V30 4562 O 426.674 0.155043 1.83045 0
M  V30 4563 C 426.736 3.47848 0.90785 0
M  V30 4564 C 426.4 4.56861 -0.112888 0
M  V30 4565 C 427.397 5.11528 -0.929264 0
M  V30 4566 C 425.082 5.01704 -0.244546 0
M  V30 4567 C 427.076 6.09549 -1.86357 0
M  V30 4568 C 424.763 5.99553 -1.18234 0
M  V30 4569 C 425.761 6.53356 -1.99036 0
M  V30 4570 O 425.449 7.49293 -2.91231 0
M  V30 4571 H 425.181 0.670444 0.08649 0
M  V30 4572 H 427.735 2.01598 -0.39337 0
M  V30 4573 H 425.965 3.46967 1.70737 0
M  V30 4574 H 427.654 3.79407 1.44239 0
M  V30 4575 H 428.42 4.77701 -0.838237 0
M  V30 4576 H 424.299 4.59477 0.374359 0
M  V30 4577 H 427.843 6.51469 -2.49467 0
M  V30 4578 H 423.74 6.32799 -1.27421 0
M  V30 4579 H 424.508 7.66978 -2.8581 0
M  V30 4580 N 427.171 -0.0066808 1.57599 0
M  V30 4581 C 428.396 -0.707738 1.94951 0
M  V30 4582 C 428.821 -1.66882 0.867868 0
M  V30 4583 O 428.179 -1.80457 -0.17458 0
M  V30 4584 C 428.227 -1.42162 3.31394 0
M  V30 4585 O 427.331 -2.53578 3.25226 0
M  V30 4586 H 426.672 -0.188752 0.636607 0
M  V30 4587 H 429.202 0.0445193 2.04552 0
M  V30 4588 H 429.212 -1.78655 3.66806 0
M  V30 4589 H 427.887 -0.716903 4.09675 0
M  V30 4590 H 426.464 -2.19463 3.01481 0
M  V30 4591 N 428.649 -1.55105 -0.279332 0
M  V30 4592 C 429.877 -1.7943 -1.03017 0
M  V30 4593 C 430.292 -0.564456 -1.80165 0
M  V30 4594 O 429.649 0.466326 -1.76442 0
M  V30 4595 C 429.7 -3.0155 -1.99374 0
M  V30 4596 O 429.421 -4.19784 -1.25352 0
M  V30 4597 C 430.922 -3.3843 -2.86321 0
M  V30 4598 H 428.142 -0.597882 -0.304594 0
M  V30 4599 H 430.686 -2.02105 -0.312035 0
M  V30 4600 H 428.841 -2.81019 -2.66659 0
M  V30 4601 H 429.255 -4.88781 -1.90246 0
M  V30 4602 H 430.729 -4.27066 -3.49741 0
M  V30 4603 H 431.206 -2.57549 -3.5576 0
M  V30 4604 H 431.812 -3.61197 -2.24536 0
M  V30 4605 N 430.127 0.543554 -1.4793 0
M  V30 4606 C 431.352 1.32995 -1.59145 0
M  V30 4607 C 431.777 1.86472 -0.246956 0
M  V30 4608 O 431.135 1.63696 0.779324 0
M  V30 4609 C 431.183 2.46623 -2.63077 0
M  V30 4610 O 430.287 3.49261 -2.19295 0
M  V30 4611 H 429.628 0.394472 -0.534124 0
M  V30 4612 H 432.158 0.655489 -1.93816 0
M  V30 4613 H 432.168 2.93001 -2.83926 0
M  V30 4614 H 430.843 2.07059 -3.60693 0
M  V30 4615 H 429.42 3.09094 -2.08603 0
M  V30 4616 N 431.605 1.3629 0.791371 0
M  V30 4617 C 432.535 1.33137 1.91825 0
M  V30 4618 C 433.516 0.203168 1.68882 0
M  V30 4619 O 434.701 0.400509 1.90025 0
M  V30 4620 C 431.831 1.11793 3.28816 0
M  V30 4621 C 430.785 2.21417 3.66277 0
M  V30 4622 C 430.111 1.85218 5.01596 0
M  V30 4623 C 431.411 3.63489 3.75064 0
M  V30 4624 H 433.105 2.2743 1.9472 0
M  V30 4625 H 430.651 1.09479 0.935437 0
M  V30 4626 H 432.604 1.08222 4.07266 0
M  V30 4627 H 431.328 0.139501 3.26302 0
M  V30 4628 H 429.987 2.2411 2.90121 0
M  V30 4629 H 429.635 0.859544 4.95602 0
M  V30 4630 H 429.335 2.58611 5.27631 0
M  V30 4631 H 430.859 1.832 5.82469 0
M  V30 4632 H 432.273 3.63034 4.43711 0
M  V30 4633 H 430.67 4.35771 4.12582 0
M  V30 4634 H 431.74 3.98536 2.76219 0
M  V30 4635 N 433.083 -1.0153 1.20538 0
M  V30 4636 C 434.313 -1.78487 1.04048 0
M  V30 4637 C 434.721 -1.84631 -0.413292 0
M  V30 4638 O 434.064 -1.29919 -1.29872 0
M  V30 4639 C 434.126 -3.24367 1.55003 0
M  V30 4640 C 433.79 -3.41827 3.0332 0
M  V30 4641 C 434.787 -3.30941 4.00966 0
M  V30 4642 C 432.472 -3.67602 3.42307 0
M  V30 4643 C 434.466 -3.45577 5.35589 0
M  V30 4644 C 432.153 -3.81881 4.77085 0
M  V30 4645 C 433.151 -3.70874 5.73534 0
M  V30 4646 O 432.839 -3.84714 7.05868 0
M  V30 4647 H 432.571 -0.568108 0.366373 0
M  V30 4648 H 435.125 -1.28677 1.60098 0
M  V30 4649 H 433.355 -3.75266 0.933397 0
M  V30 4650 H 435.044 -3.82963 1.34514 0
M  V30 4651 H 435.81 -3.10964 3.72191 0
M  V30 4652 H 431.689 -3.75256 2.67776 0
M  V30 4653 H 435.233 -3.36902 6.10854 0
M  V30 4654 H 431.13 -4.01359 5.0555 0
M  V30 4655 H 431.898 -4.01724 7.13134 0
M  V30 4656 N 434.561 -1.01147 -1.20859 0
M  V30 4657 C 435.524 -0.582224 -2.21682 0
M  V30 4658 C 436.524 0.344887 -1.57058 0
M  V30 4659 O 437.714 0.134281 -1.73682 0
M  V30 4660 C 434.846 0.150496 -3.40568 0
M  V30 4661 H 436.039 -1.47408 -2.61172 0
M  V30 4662 H 433.592 -0.800695 -1.34233 0
M  V30 4663 H 434.327 1.0575 -3.06574 0
M  V30 4664 H 434.112 -0.515444 -3.88697 0
M  V30 4665 H 435.602 0.438344 -4.15293 0
M  V30 4666 N 436.039 1.36541 -0.78704 0
M  V30 4667 C 437.264 2.0409 -0.369053 0
M  V30 4668 C 437.689 1.58957 1.00569 0
M  V30 4669 O 437.047 0.756926 1.64743 0
M  V30 4670 C 437.095 3.57924 -0.438466 0
M  V30 4671 O 436.199 4.08642 0.555479 0
M  V30 4672 H 435.54 0.645142 -0.157122 0
M  V30 4673 H 438.07 1.74545 -1.06749 0
M  V30 4674 H 438.08 4.06887 -0.301218 0
M  V30 4675 H 436.755 3.90127 -1.44132 0
M  V30 4676 H 435.332 3.70958 0.380088 0
M  V30 4677 N 437.518 0.538854 1.48102 0
M  V30 4678 C 438.929 0.100679 1.86428 0
M  V30 4679 C 439.28 -1.32447 1.44749 0
M  V30 4680 O 438.405 -1.99339 0.842199 0
M  V30 4681 C 439 0.175933 3.38343 0
M  V30 4682 C 437.559 -0.207098 3.7583 0
M  V30 4683 C 436.706 0.531741 2.72154 0
M  V30 4684 H 439.657 0.749614 1.3988 0
M  V30 4685 H 439.678 -0.610144 3.75576 0
M  V30 4686 H 439.19 1.21328 3.68648 0
M  V30 4687 H 437.291 -1.24626 3.5114 0
M  V30 4688 H 437.404 0.138687 4.78899 0
M  V30 4689 H 435.768 -0.0230462 2.5469 0
M  V30 4690 H 436.551 1.56989 3.05302 0
M  V30 4691 N 438.996 -1.55193 0.274407 0
M  V30 4692 C 440.221 -2.04446 -0.348824 0
M  V30 4693 C 440.646 -1.15149 -1.48735 0
M  V30 4694 O 440.004 -0.149952 -1.80679 0
M  V30 4695 C 440.052 -3.51431 -0.808009 0
M  V30 4696 O 439.156 -3.65225 -1.91531 0
M  V30 4697 H 438.497 -0.66006 -0.0722276 0
M  V30 4698 H 441.027 -2.00481 0.408498 0
M  V30 4699 H 441.037 -3.92781 -1.10395 0
M  V30 4700 H 439.712 -4.15892 0.0249865 0
M  V30 4701 H 438.289 -3.35778 -1.62196 0
M  V30 4702 N 440.474 -0.00167713 -1.576 0
M  V30 4703 C 441.407 1.02317 -2.03977 0
M  V30 4704 C 442.385 1.33381 -0.929963 0
M  V30 4705 O 443.569 1.45517 -1.19822 0
M  V30 4706 C 440.696 2.35035 -2.43878 0
M  V30 4707 C 439.742 2.19621 -3.65607 0
M  V30 4708 S 440.575 1.52068 -5.13455 0
M  V30 4709 C 441.731 2.86212 -5.56627 0
M  V30 4710 H 441.964 0.628285 -2.90585 0
M  V30 4711 H 439.497 0.209239 -1.52976 0
M  V30 4712 H 441.455 3.11345 -2.67534 0
M  V30 4713 H 440.116 2.71663 -1.57665 0
M  V30 4714 H 439.309 3.1767 -3.91282 0
M  V30 4715 H 438.911 1.51455 -3.41961 0
M  V30 4716 H 441.203 3.82509 -5.59189 0
M  V30 4717 H 442.146 2.65235 -6.56549 0
M  V30 4718 H 442.554 2.90199 -4.84195 0
M  V30 4719 N 441.952 1.55251 0.271103 0
M  V30 4720 C 443.198 1.76207 1.00394 0
M  V30 4721 C 443.531 0.562604 1.85872 0
M  V30 4722 O 442.806 -0.439785 1.89463 0
M  V30 4723 C 443.089 3.06828 1.8849 0
M  V30 4724 C 442.942 4.37134 1.05992 0
M  V30 4725 C 444.261 3.33503 2.87165 0
M  V30 4726 H 441.38 0.641086 0.363562 0
M  V30 4727 H 444.022 1.87982 0.276189 0
M  V30 4728 H 442.172 2.96921 2.5054 0
M  V30 4729 H 443.844 4.59001 0.459978 0
M  V30 4730 H 442.087 4.32275 0.363443 0
M  V30 4731 H 442.758 5.2486 1.70955 0
M  V30 4732 H 445.234 3.43215 2.3525 0
M  V30 4733 H 444.11 4.2616 3.45946 0
M  V30 4734 H 444.371 2.53235 3.62387 0
M  V30 4735 N 443.43 -0.535701 1.48216 0
M  V30 4736 C 444.38 -1.63688 1.58714 0
M  V30 4737 C 445.364 -1.54635 0.444615 0
M  V30 4738 O 446.556 -1.62753 0.695742 0
M  V30 4739 C 443.685 -3.02423 1.62466 0
M  V30 4740 C 442.771 -3.16601 2.82178 0
M  V30 4741 N 443.162 -3.00771 4.06658 0
M  V30 4742 C 441.46 -3.47645 2.79391 0
M  V30 4743 C 442.161 -3.18213 4.86945 0
M  V30 4744 N 441.137 -3.45528 4.19656 0
M  V30 4745 H 444.939 -1.5005 2.5271 0
M  V30 4746 H 442.453 -0.741018 1.44508 0
M  V30 4747 H 444.45 -3.81517 1.6808 0
M  V30 4748 H 443.11 -3.17157 0.695826 0
M  V30 4749 H 444.121 -2.77652 4.37184 0
M  V30 4750 H 440.798 -3.68771 1.95739 0
M  V30 4751 H 442.188 -3.1076 5.95716 0
M  V30 4752 N 444.908 -1.36708 -0.784132 0
M  V30 4753 C 445.818 -1.3363 -1.92822 0
M  V30 4754 C 446.834 -0.237686 -1.72369 0
M  V30 4755 O 448.01 -0.470962 -1.95816 0
M  V30 4756 C 445.075 -1.13011 -3.27764 0
M  V30 4757 C 444.136 -2.32397 -3.60957 0
M  V30 4758 C 443.369 -2.12752 -4.89461 0
M  V30 4759 O 443.592 -1.10541 -5.59586 0
M  V30 4760 O 442.526 -3.00653 -5.21432 0
M  V30 4761 H 446.352 -2.29964 -1.98369 0
M  V30 4762 H 443.937 -1.1731 -0.925136 0
M  V30 4763 H 445.819 -1.03451 -4.08504 0
M  V30 4764 H 444.494 -0.19743 -3.23097 0
M  V30 4765 H 443.401 -2.47527 -2.80502 0
M  V30 4766 H 444.734 -3.2419 -3.70354 0
M  V30 4767 N 446.386 1.0089 -1.21074 0
M  V30 4768 C 447.634 1.74262 -1.02358 0
M  V30 4769 C 447.955 1.89869 0.444393 0
M  V30 4770 O 447.225 1.44677 1.32081 0
M  V30 4771 H 445.805 0.645615 -0.375754 0
M  V30 4772 H 448.467 1.21596 -1.52317 0
M  V30 4773 H 447.563 2.74328 -1.4883 0
M  V30 4774 N 447.864 1.01787 1.20321 0
M  V30 4775 C 449.11 0.708985 1.90003 0
M  V30 4776 C 449.443 -0.759572 1.78729 0
M  V30 4777 O 448.718 -1.55198 1.17234 0
M  V30 4778 C 449.001 1.1469 3.41348 0
M  V30 4779 C 448.854 2.67586 3.61549 0
M  V30 4780 C 450.173 0.71915 4.34185 0
M  V30 4781 H 447.292 0.259034 0.689978 0
M  V30 4782 H 449.934 1.26584 1.41692 0
M  V30 4783 H 448.084 0.673128 3.82624 0
M  V30 4784 H 449.756 3.22826 3.29517 0
M  V30 4785 H 447.999 3.085 3.04976 0
M  V30 4786 H 448.67 2.93281 4.67643 0
M  V30 4787 H 451.146 1.12647 4.00562 0
M  V30 4788 H 450.022 1.05358 5.38694 0
M  V30 4789 H 450.283 -0.379111 4.40472 0
M  V30 4790 N 449.342 -1.36122 0.79427 0
M  V30 4791 C 450.305 -2.28309 0.201889 0
M  V30 4792 C 451.305 -1.49041 -0.603603 0
M  V30 4793 O 452.495 -1.68964 -0.423888 0
M  V30 4794 C 449.627 -3.3321 -0.719978 0
M  V30 4795 H 450.82 -2.82208 1.01481 0
M  V30 4796 H 448.373 -1.45768 0.564037 0
M  V30 4797 H 449.108 -2.84475 -1.55706 0
M  V30 4798 H 448.893 -3.91835 -0.144266 0
M  V30 4799 H 450.383 -4.02044 -1.12916 0
M  V30 4800 N 450.82 -0.546701 -1.47814 0
M  V30 4801 C 452.066 -0.0187684 -2.02791 0
M  V30 4802 C 452.399 1.32338 -1.42128 0
M  V30 4803 O 451.674 1.85867 -0.573023 0
M  V30 4804 C 451.957 0.0854985 -3.59998 0
M  V30 4805 C 451.81 -1.283 -4.31114 0
M  V30 4806 C 453.129 0.80412 -4.32691 0
M  V30 4807 H 450.248 -0.0082946 -0.736953 0
M  V30 4808 H 452.89 -0.706962 -1.76358 0
M  V30 4809 H 451.04 0.671609 -3.82651 0
M  V30 4810 H 452.712 -1.91151 -4.19832 0
M  V30 4811 H 450.955 -1.86049 -3.91878 0
M  V30 4812 H 451.626 -1.16287 -5.39612 0
M  V30 4813 H 454.102 0.306576 -4.14969 0
M  V30 4814 H 452.978 0.846011 -5.42341 0
M  V30 4815 H 453.239 1.85802 -4.01161 0
M  V30 4816 N 452.299 1.55045 -0.282633 0
M  V30 4817 C 453.545 2.00056 0.332481 0
M  V30 4818 C 453.878 1.1708 1.54939 0
M  V30 4819 O 453.153 0.2427 1.9298 0
M  V30 4820 C 453.436 3.53086 0.70725 0
M  V30 4821 C 453.289 4.46813 -0.517521 0
M  V30 4822 C 454.608 4.12245 1.54084 0
M  V30 4823 H 451.727 0.727268 0.119373 0
M  V30 4824 H 454.369 1.85932 -0.391076 0
M  V30 4825 H 452.519 3.65253 1.32372 0
M  V30 4826 H 454.191 4.46579 -1.15607 0
M  V30 4827 H 452.434 4.18163 -1.1542 0
M  V30 4828 H 453.105 5.51595 -0.211426 0
M  V30 4829 H 455.581 4.03401 1.02013 0
M  V30 4830 H 454.457 5.19515 1.77186 0
M  V30 4831 H 454.718 3.62951 2.52427 0
M  V30 4832 N 453.777 0.010035 1.57597 0
M  V30 4833 C 455.188 -0.531426 1.78977 0
M  V30 4834 C 455.539 -1.73375 0.918454 0
M  V30 4835 O 454.664 -2.16047 0.123635 0
M  V30 4836 C 455.259 -0.97086 3.24592 0
M  V30 4837 C 453.818 -1.45756 3.47033 0
M  V30 4838 C 452.965 -0.413384 2.74201 0
M  V30 4839 H 455.916 0.236166 1.56933 0
M  V30 4840 H 455.937 -1.83633 3.33255 0
M  V30 4841 H 455.449 -0.0955893 3.87982 0
M  V30 4842 H 453.55 -2.35339 2.88871 0
M  V30 4843 H 453.663 -1.4781 4.55729 0
M  V30 4844 H 452.027 -0.877266 2.39115 0
M  V30 4845 H 452.81 0.453092 3.40297 0
M  V30 4846 N 455.255 -1.55392 -0.262866 0
M  V30 4847 C 456.671 -1.47459 -0.610582 0
M  V30 4848 C 456.871 -0.697031 -1.8906 0
M  V30 4849 O 455.927 -0.219952 -2.5154 0
M  V30 4850 C 457.24 -2.91751 -0.728131 0
M  V30 4851 C 458.788 -3.02027 -0.821517 0
M  V30 4852 C 459.263 -4.47594 -0.97076 0
M  V30 4853 N 460.754 -4.51465 -1.03603 0
M  V30 4854 C 461.489 -5.61326 -1.17049 0
M  V30 4855 N 460.985 -6.81032 -1.2715 0
M  V30 4856 N 462.778 -5.49089 -1.20239 0
M  V30 4857 H 454.929 -2.04395 0.577632 0
M  V30 4858 H 457.192 -0.927287 0.197086 0
M  V30 4859 H 456.898 -3.51413 0.142132 0
M  V30 4860 H 456.772 -3.4134 -1.6052 0
M  V30 4861 H 459.159 -2.42456 -1.68224 0
M  V30 4862 H 459.24 -2.55674 0.0803688 0
M  V30 4863 H 458.884 -5.07771 -0.114655 0
M  V30 4864 H 458.814 -4.91613 -1.88745 0
M  V30 4865 H 461.305 -3.6524 -0.96996 0
M  V30 4866 H 461.618 -7.60511 -1.37271 0
M  V30 4867 H 459.963 -6.83824 -1.24136 0
M  V30 4868 H 463.154 -4.54507 -1.11985 0
M  V30 4869 H 463.327 -6.34749 -1.30373 0
M  V30 4870 N 456.733 0.527833 -1.48498 0
M  V30 4871 C 457.981 1.28101 -1.56316 0
M  V30 4872 C 458.302 1.9352 -0.239781 0
M  V30 4873 O 457.572 1.81433 0.738849 0
M  V30 4874 H 456.152 0.475793 -0.575873 0
M  V30 4875 H 458.814 0.614052 -1.84974 0
M  V30 4876 H 457.91 2.05916 -2.34532 0
M  V30 4877 N 458.211 1.37122 0.776871 0
M  V30 4878 C 459.436 1.354 1.57104 0
M  V30 4879 C 459.861 -0.0595562 1.88006 0
M  V30 4880 O 459.219 -1.03514 1.48844 0
M  V30 4881 C 459.267 2.19472 2.8612 0
M  V30 4882 O 458.371 1.59582 3.80273 0
M  V30 4883 H 457.712 0.462869 0.476076 0
M  V30 4884 H 460.242 1.80577 0.961932 0
M  V30 4885 H 460.252 2.32502 3.35271 0
M  V30 4886 H 458.927 3.22222 2.62956 0
M  V30 4887 H 457.504 1.55564 3.38902 0
M  V30 4888 N 459.689 -1.00246 1.21608 0
M  V30 4889 C 460.917 -1.77631 1.06089 0
M  V30 4890 C 461.332 -1.84746 -0.38916 0
M  V30 4891 O 460.689 -1.31068 -1.26994 0
M  V30 4892 C 460.74 -3.21415 1.65453 0
M  V30 4893 O 460.461 -3.14703 3.04785 0
M  V30 4894 C 461.962 -4.15289 1.55079 0
M  V30 4895 H 459.182 -0.558162 0.37242 0
M  V30 4896 H 461.726 -1.26093 1.60999 0
M  V30 4897 H 459.881 -3.70053 1.14629 0
M  V30 4898 H 460.295 -4.05056 3.33212 0
M  V30 4899 H 461.769 -5.13965 2.01355 0
M  V30 4900 H 462.246 -4.36279 0.505665 0
M  V30 4901 H 462.852 -3.72543 2.05163 0
M  V30 4902 N 461.167 -1.02423 -1.1978 0
M  V30 4903 C 462.097 -0.62157 -2.25075 0
M  V30 4904 C 463.078 0.367148 -1.6609 0
M  V30 4905 O 464.263 0.250892 -1.92573 0
M  V30 4906 C 461.393 0.0331826 -3.47284 0
M  V30 4907 C 460.347 -0.877323 -4.18912 0
M  V30 4908 C 459.673 -0.0879296 -5.34628 0
M  V30 4909 C 460.973 -2.18892 -4.74219 0
M  V30 4910 H 462.667 -1.50179 -2.59011 0
M  V30 4911 H 460.213 -0.723547 -1.24502 0
M  V30 4912 H 462.166 0.326488 -4.20133 0
M  V30 4913 H 460.89 0.948164 -3.12534 0
M  V30 4914 H 459.549 -1.15475 -3.47938 0
M  V30 4915 H 459.197 0.828941 -4.96123 0
M  V30 4916 H 458.897 -0.694359 -5.83483 0
M  V30 4917 H 460.421 0.198743 -6.10276 0
M  V30 4918 H 461.835 -1.95746 -5.38847 0
M  V30 4919 H 460.232 -2.74686 -5.33542 0
M  V30 4920 H 461.302 -2.84674 -3.92541 0
M  V30 4921 N 462.645 1.35699 -0.801477 0
M  V30 4922 C 464.056 1.81415 -0.441073 0
M  V30 4923 C 464.407 1.66595 1.03636 0
M  V30 4924 O 463.532 1.19369 1.80499 0
M  V30 4925 C 464.127 3.29369 -0.793819 0
M  V30 4926 C 462.686 3.73248 -0.486083 0
M  V30 4927 C 461.833 2.57775 -1.02213 0
M  V30 4928 H 464.784 1.23749 -0.993572 0
M  V30 4929 H 464.805 3.80395 -0.0894158 0
M  V30 4930 H 464.317 3.40123 -1.86917 0
M  V30 4931 H 462.418 3.68046 0.580735 0
M  V30 4932 H 462.531 4.68222 -1.01513 0
M  V30 4933 H 460.895 2.50788 -0.444712 0
M  V30 4934 H 461.678 2.71309 -2.10348 0
M  V30 4935 N 464.123 0.554532 1.47522 0
M  V30 4936 C 465.053 -0.182974 2.32782 0
M  V30 4937 C 466.034 -0.911377 1.43624 0
M  V30 4938 O 467.219 -0.892366 1.72483 0
M  V30 4939 C 464.349 -1.21513 3.25349 0
M  V30 4940 C 463.303 -0.603355 4.23726 0
M  V30 4941 C 462.629 -1.73995 5.05598 0
M  V30 4942 C 463.929 0.441121 5.20434 0
M  V30 4943 H 465.623 0.52882 2.94693 0
M  V30 4944 H 463.169 0.255759 1.41711 0
M  V30 4945 H 465.122 -1.73922 3.83835 0
M  V30 4946 H 463.846 -1.95683 2.61487 0
M  V30 4947 H 462.505 -0.10059 3.66462 0
M  V30 4948 H 462.153 -2.47063 4.38143 0
M  V30 4949 H 461.853 -1.3364 5.72201 0
M  V30 4950 H 463.377 -2.26735 5.66942 0
M  V30 4951 H 464.791 0.00319931 5.733 0
M  V30 4952 H 463.188 0.763402 5.95224 0
M  V30 4953 H 464.258 1.33799 4.66075 0
M  V30 4954 N 465.601 -1.54893 0.290851 0
M  V30 4955 C 466.531 -2.26103 -0.583084 0
M  V30 4956 C 467.512 -1.25684 -1.14619 0
M  V30 4957 O 468.697 -1.54436 -1.17741 0
M  V30 4958 C 465.827 -2.99409 -1.75987 0
M  V30 4959 C 464.781 -4.0689 -1.32758 0
M  V30 4960 C 464.107 -4.67856 -2.58872 0
M  V30 4961 C 465.407 -5.20215 -0.46624 0
M  V30 4962 H 467.101 -2.99398 0.0108214 0
M  V30 4963 H 464.647 -1.43998 0.00664468 0
M  V30 4964 H 466.6 -3.47943 -2.37727 0
M  V30 4965 H 465.324 -2.23675 -2.37985 0
M  V30 4966 H 463.983 -3.59191 -0.733299 0
M  V30 4967 H 463.631 -3.88772 -3.19163 0
M  V30 4968 H 463.331 -5.40438 -2.30653 0
M  V30 4969 H 464.855 -5.19147 -3.21433 0
M  V30 4970 H 466.269 -5.64704 -0.989047 0
M  V30 4971 H 464.666 -5.99455 -0.27826 0
M  V30 4972 H 465.736 -4.82198 0.511173 0
M  V30 4973 N 467.08 -0.0183926 -1.57589 0
M  V30 4974 C 467.99 0.982943 -2.13015 0
M  V30 4975 C 469.006 1.36443 -1.07979 0
M  V30 4976 O 470.182 1.44802 -1.3998 0
M  V30 4977 C 467.247 2.25024 -2.63752 0
M  V30 4978 C 466.308 1.93018 -3.83461 0
M  V30 4979 C 465.541 3.13706 -4.31769 0
M  V30 4980 O 465.764 4.2601 -3.79305 0
M  V30 4981 O 464.698 2.96629 -5.23732 0
M  V30 4982 H 468.524 0.541709 -2.9883 0
M  V30 4983 H 466.109 0.201565 -1.48034 0
M  V30 4984 H 467.991 2.99441 -2.96502 0
M  V30 4985 H 466.666 2.68349 -1.81026 0
M  V30 4986 H 465.573 1.16019 -3.55655 0
M  V30 4987 H 466.906 1.54516 -4.67317 0
M  V30 4988 N 468.558 1.5553 0.254621 0
M  V30 4989 C 469.806 1.7665 0.981793 0
M  V30 4990 C 470.127 0.580963 1.86145 0
M  V30 4991 O 469.397 -0.403537 1.91699 0
M  V30 4992 H 467.977 0.651475 0.365498 0
M  V30 4993 H 470.639 1.92958 0.274426 0
M  V30 4994 H 469.735 2.67486 1.60802 0
M  V30 4995 N 470.036 -0.519951 1.48776 0
M  V30 4996 C 471.447 -1.10177 1.50725 0
M  V30 4997 C 471.798 -1.94153 0.282678 0
M  V30 4998 O 470.923 -2.07645 -0.609298 0
M  V30 4999 C 471.518 -2.00482 2.73116 0
M  V30 5000 C 470.077 -2.53862 2.77905 0
M  V30 5001 C 469.224 -1.31047 2.44381 0
M  V30 5002 H 472.175 -0.30473 1.55747 0
M  V30 5003 H 472.196 -2.8491 2.52203 0
M  V30 5004 H 471.708 -1.39335 3.62225 0
M  V30 5005 H 469.809 -3.18702 1.93029 0
M  V30 5006 H 469.922 -2.9231 3.79594 0
M  V30 5007 H 468.286 -1.62953 1.95751 0
M  V30 5008 H 469.069 -0.71637 3.35743 0
M  V30 5009 N 471.514 -1.37532 -0.769588 0
M  V30 5010 C 472.446 -1.29347 -1.89214 0
M  V30 5011 C 473.459 -0.208842 -1.61455 0
M  V30 5012 O 474.648 -0.465158 -1.72333 0
M  V30 5013 C 471.748 -0.977649 -3.24492 0
M  V30 5014 C 470.921 -2.16817 -3.7988 0
M  V30 5015 C 469.98 -1.82229 -4.93639 0
M  V30 5016 O 469.006 -2.54548 -5.09111 0
M  V30 5017 N 470.208 -0.767696 -5.75401 0
M  V30 5018 H 472.973 -2.26073 -1.96751 0
M  V30 5019 H 470.534 -1.31185 -0.948795 0
M  V30 5020 H 472.526 -0.727065 -3.98115 0
M  V30 5021 H 471.096 -0.0988777 -3.12444 0
M  V30 5022 H 470.316 -2.58038 -2.9801 0
M  V30 5023 H 471.604 -2.96308 -4.13617 0
M  V30 5024 H 471.002 -0.167626 -5.65452 0
M  V30 5025 H 469.559 -0.576973 -6.49241 0
M  V30 5026 N 472.992 0.995999 -1.22138 0
M  V30 5027 C 474.22 1.77066 -1.07029 0
M  V30 5028 C 474.635 1.8495 0.379357 0
M  V30 5029 O 473.992 1.3174 1.26297 0
M  V30 5030 C 474.043 3.20533 -1.67155 0
M  V30 5031 O 473.764 3.13082 -3.06449 0
M  V30 5032 C 475.265 4.14461 -1.5728 0
M  V30 5033 H 472.485 0.556179 -0.375374 0
M  V30 5034 H 475.029 1.25238 -1.61666 0
M  V30 5035 H 473.184 3.6944 -1.16589 0
M  V30 5036 H 473.598 4.03283 -3.35355 0
M  V30 5037 H 475.072 5.1289 -2.04078 0
M  V30 5038 H 475.549 4.36005 -0.528795 0
M  V30 5039 H 476.155 3.71449 -2.07136 0
M  V30 5040 N 474.47 1.03057 1.19235 0
M  V30 5041 C 475.747 0.642608 1.84743 0
M  V30 5042 C 476.127 -0.878577 1.91948 0
M  V30 5043 O 475.475 -1.77597 1.43776 0
M  V30 5044 C 475.685 1.30665 3.23616 0
M  V30 5045 C 477.033 1.43098 3.9976 0
M  V30 5046 O 478.057 1.26396 3.3302 0
M  V30 5047 O 476.916 1.70223 5.19313 0
M  V30 5048 H 474.01 0.223573 0.796206 0
M  V30 5049 H 476.556 1.12883 1.26711 0
M  V30 5050 H 475.328 2.34544 3.13217 0
M  V30 5051 H 474.951 0.808405 3.89295 0
M  V30 5052 N 475.948 -1.35272 0.808662 0
M  V30 5053 C 477.196 -1.98316 0.389233 0
M  V30 5054 C 477.517 -1.64465 -1.04767 0
M  V30 5055 O 476.787 -0.928175 -1.72516 0
M  V30 5056 H 475.367 -0.733585 0.140935 0
M  V30 5057 H 478.029 -1.6515 1.03496 0
M  V30 5058 H 477.125 -3.08123 0.496631 0
M  V30 5059 N 477.426 -0.562348 -1.47226 0
M  V30 5060 C 478.672 -0.0402761 -2.0276 0
M  V30 5061 C 479.005 1.30823 -1.43523 0
M  V30 5062 O 478.28 1.85249 -0.592705 0
M  V30 5063 C 478.563 0.047311 -3.60069 0
M  V30 5064 C 478.416 -1.32865 -4.29729 0
M  V30 5065 C 479.735 0.758182 -4.3352 0
M  V30 5066 H 476.854 -0.0161105 -0.736824 0
M  V30 5067 H 479.496 -0.725628 -1.75598 0
M  V30 5068 H 477.646 0.630986 -3.83342 0
M  V30 5069 H 479.318 -1.95593 -4.17781 0
M  V30 5070 H 477.561 -1.90195 -3.89882 0
M  V30 5071 H 478.232 -1.22004 -5.38349 0
M  V30 5072 H 480.708 0.262546 -4.15271 0
M  V30 5073 H 479.584 0.78844 -5.43208 0
M  V30 5074 H 479.845 1.81537 -4.03109 0
M  V30 5075 N 478.904 1.54736 -0.299062 0
M  V30 5076 C 480.132 2.04512 0.313447 0
M  V30 5077 C 480.547 1.17643 1.47667 0
M  V30 5078 O 479.904 0.20164 1.81383 0
M  V30 5079 C 479.955 3.53171 0.771542 0
M  V30 5080 O 479.676 4.36736 -0.345379 0
M  V30 5081 C 481.177 4.18936 1.4494 0
M  V30 5082 H 478.397 0.667507 0.0683784 0
M  V30 5083 H 480.941 1.99752 -0.438129 0
M  V30 5084 H 479.096 3.58298 1.47314 0
M  V30 5085 H 479.51 5.24499 0.0109219 0
M  V30 5086 H 480.984 5.24482 1.72111 0
M  V30 5087 H 481.461 3.68554 2.38883 0
M  V30 5088 H 482.067 4.17879 0.791028 0
M  V30 5089 N 480.382 0.0267497 1.57577 0
M  V30 5090 C 481.631 -0.651736 1.9088 0
M  V30 5091 C 481.944 -1.73427 0.904576 0
M  V30 5092 O 483.15 -2.46923 1.12877 0
M  V30 5093 C 481.606 -1.21048 3.38933 0
M  V30 5094 C 481.214 -0.161362 4.47709 0
M  V30 5095 C 482.958 -1.86562 3.81307 0
M  V30 5096 C 480.865 -0.731611 5.86857 0
M  V30 5097 H 479.795 -0.247198 0.712326 0
M  V30 5098 H 482.446 0.0916641 1.83271 0
M  V30 5099 H 480.828 -2.00542 3.41466 0
M  V30 5100 H 482.002 0.61094 4.56732 0
M  V30 5101 H 480.317 0.394877 4.14523 0
M  V30 5102 H 482.914 -2.30178 4.8262 0
M  V30 5103 H 483.257 -2.70735 3.16241 0
M  V30 5104 H 483.79 -1.13762 3.81186 0
M  V30 5105 H 480.529 0.0719329 6.55461 0
M  V30 5106 H 480.049 -1.47245 5.81445 0
M  V30 5107 H 481.728 -1.22208 6.35354 0
M  V30 5108 N 481.861 -1.55662 -0.24637 0
M  V30 5109 C 483.109 -1.77168 -0.972411 0
M  V30 5110 C 483.43 -0.590827 -1.85834 0
M  V30 5111 O 482.7 0.393365 -1.9191 0
M  V30 5112 H 481.28 -0.653405 -0.362038 0
M  V30 5113 H 483.942 -1.93101 -0.264189 0
M  V30 5114 H 483.038 -2.68335 -1.59382 0
M  V30 5115 N 483.339 0.512053 -1.4905 0
M  V30 5116 C 484.616 1.27337 -1.48474 0
M  V30 5117 C 484.996 2.1009 -0.206301 0
M  V30 5118 O 484.344 2.136 0.811609 0
M  V30 5119 C 484.554 2.13954 -2.75726 0
M  V30 5120 C 485.902 2.73507 -3.24776 0
M  V30 5121 O 486.926 2.24229 -2.76767 0
M  V30 5122 O 485.785 3.63186 -4.08361 0
M  V30 5123 H 482.879 0.575652 -0.593762 0
M  V30 5124 H 485.425 0.527232 -1.61302 0
M  V30 5125 H 484.197 1.52709 -3.60272 0
M  V30 5126 H 483.82 2.95782 -2.65705 0
M  V30 5127 N 484.817 1.37938 0.762283 0
M  V30 5128 C 485.764 1.34467 1.87583 0
M  V30 5129 C 486.734 0.208633 1.64785 0
M  V30 5130 O 487.919 0.399494 1.86571 0
M  V30 5131 C 485.059 1.16692 3.24772 0
M  V30 5132 C 484.172 2.39608 3.59461 0
M  V30 5133 C 483.307 2.14631 4.85908 0
M  V30 5134 C 482.346 3.33364 5.13357 0
M  V30 5135 N 481.483 3.07877 6.30996 0
M  V30 5136 H 486.323 2.29669 1.89885 0
M  V30 5137 H 483.86 1.14116 0.928219 0
M  V30 5138 H 485.818 1.04405 4.03925 0
M  V30 5139 H 484.448 0.251333 3.2182 0
M  V30 5140 H 483.5 2.626 2.75219 0
M  V30 5141 H 484.812 3.28128 3.75678 0
M  V30 5142 H 483.966 1.99429 5.72986 0
M  V30 5143 H 482.705 1.23463 4.71814 0
M  V30 5144 H 481.71 3.49094 4.24751 0
M  V30 5145 H 482.935 4.25395 5.29354 0
M  V30 5146 H 480.881 2.19348 6.18241 0
M  V30 5147 H 480.798 3.89944 6.47673 0
M  V30 5148 H 482.066 2.96313 7.20985 0
M  V30 5149 N 486.295 -0.989507 1.22664 0
M  V30 5150 C 487.543 -1.72612 1.05117 0
M  V30 5151 C 487.864 -1.90552 -0.414131 0
M  V30 5152 O 487.134 -1.4676 -1.29762 0
M  V30 5153 H 485.714 -0.639555 0.385977 0
M  V30 5154 H 488.376 -1.19158 1.54232 0
M  V30 5155 H 487.472 -2.71926 1.53175 0
M  V30 5156 N 487.773 -1.03688 -1.18687 0
M  V30 5157 C 488.683 -0.634908 -2.25845 0
M  V30 5158 C 489.699 0.337065 -1.70704 0
M  V30 5159 O 490.875 0.192943 -2.00474 0
M  V30 5160 C 487.94 -0.000180054 -3.467 0
M  V30 5161 C 487.001 -1.02067 -4.1699 0
M  V30 5162 C 486.234 -0.41614 -5.32075 0
M  V30 5163 O 486.457 0.778712 -5.65059 0
M  V30 5164 O 485.391 -1.14296 -5.90948 0
M  V30 5165 H 489.217 -1.52757 -2.62486 0
M  V30 5166 H 486.802 -0.807533 -1.25695 0
M  V30 5167 H 488.684 0.353342 -4.19916 0
M  V30 5168 H 487.359 0.866367 -3.11891 0
M  V30 5169 H 486.266 -1.42592 -3.45859 0
M  V30 5170 H 487.599 -1.85786 -4.5579 0
M  V30 5171 N 489.251 1.34841 -0.815825 0
M  V30 5172 C 490.491 2.00321 -0.406297 0
M  V30 5173 C 490.855 1.63293 1.00992 0
M  V30 5174 O 492.056 2.21563 1.52195 0
M  V30 5175 C 490.327 3.52421 -0.594469 0
M  V30 5176 S 491.886 4.37926 -0.276735 0
M  V30 5177 H 488.704 0.694155 -0.153848 0
M  V30 5178 H 491.306 1.64263 -1.06009 0
M  V30 5179 H 490.01 3.76858 -1.625 0
M  V30 5180 H 489.541 3.9333 0.0743157 0
M  V30 5181 H 491.556 4.87743 0.912215 0
M  V30 5182 N 490.729 0.570148 1.46925 0
M  V30 5183 C 491.975 0.0510284 2.02736 0
M  V30 5184 C 492.308 -1.3006 1.44215 0
M  V30 5185 O 491.583 -1.84932 0.602521 0
M  V30 5186 C 491.866 -0.028215 3.60089 0
M  V30 5187 C 491.719 1.35142 4.29018 0
M  V30 5188 C 493.038 -0.735181 4.33916 0
M  V30 5189 H 490.157 0.0200178 0.736728 0
M  V30 5190 H 492.799 0.73493 1.75211 0
M  V30 5191 H 490.949 -0.610648 3.83671 0
M  V30 5192 H 492.621 1.97806 4.16738 0
M  V30 5193 H 490.864 1.9226 3.88868 0
M  V30 5194 H 491.535 1.24857 5.37694 0
M  V30 5195 H 494.011 -0.240519 4.15404 0
M  V30 5196 H 492.887 -0.759622 5.43618 0
M  V30 5197 H 493.148 -1.79397 4.04066 0
M  V30 5198 N 492.207 -1.54576 0.307264 0
M  V30 5199 C 493.456 -1.99442 -0.300976 0
M  V30 5200 C 493.769 -1.19928 -1.5452 0
M  V30 5201 O 494.975 -1.55092 -2.22842 0
M  V30 5202 C 493.431 -3.55084 -0.586809 0
M  V30 5203 C 493.039 -4.43413 0.639438 0
M  V30 5204 C 494.783 -4.0846 -1.1559 0
M  V30 5205 C 492.69 -5.90499 0.326411 0
M  V30 5206 H 491.62 -0.744986 -0.116238 0
M  V30 5207 H 494.271 -1.787 0.416947 0
M  V30 5208 H 492.653 -3.71749 -1.36449 0
M  V30 5209 H 493.827 -4.38522 1.41545 0
M  V30 5210 H 492.142 -4.00842 1.1276 0
M  V30 5211 H 494.739 -5.15926 -1.40445 0
M  V30 5212 H 495.082 -3.59443 -2.10015 0
M  V30 5213 H 495.615 -3.95362 -0.439778 0
M  V30 5214 H 492.354 -6.43676 1.23939 0
M  V30 5215 H 491.874 -5.98382 -0.412212 0
M  V30 5216 H 493.553 -6.46962 -0.0697393 0
M  V30 5217 N 493.685 -0.035106 -1.57561 0
M  V30 5218 C 494.913 0.652258 -1.9635 0
M  V30 5219 C 495.328 1.65317 -0.911897 0
M  V30 5220 O 494.685 1.82194 0.105657 0
M  V30 5221 C 494.736 1.35337 -3.35211 0
M  V30 5222 O 494.457 0.392548 -4.36338 0
M  V30 5223 C 495.958 2.13199 -3.88666 0
M  V30 5224 H 493.178 0.179444 -0.646561 0
M  V30 5225 H 495.722 -0.0966459 -2.04271 0
M  V30 5226 H 493.877 2.05362 -3.28489 0
M  V30 5227 H 494.291 0.891097 -5.16875 0
M  V30 5228 H 495.765 2.577 -4.88154 0
M  V30 5229 H 496.242 2.97353 -3.23231 0
M  V30 5230 H 496.848 1.48118 -3.98674 0
M  V30 5231 N 495.163 1.55791 0.238111 0
M  V30 5232 C 496.574 1.68383 0.806472 0
M  V30 5233 C 496.925 0.634157 1.85669 0
M  V30 5234 O 496.05 -0.217913 2.153 0
M  V30 5235 C 496.645 3.05268 1.46959 0
M  V30 5236 C 495.204 3.1977 1.98555 0
M  V30 5237 C 494.351 2.64279 0.839763 0
M  V30 5238 H 497.302 1.58694 0.0137535 0
M  V30 5239 H 497.323 3.00203 2.33792 0
M  V30 5240 H 496.835 3.81643 0.704993 0
M  V30 5241 H 494.936 2.48234 2.77868 0
M  V30 5242 H 495.049 4.26788 2.17689 0
M  V30 5243 H 493.413 2.22329 1.24265 0
M  V30 5244 H 494.196 3.43187 0.0881032 0
M  V30 5245 N 496.642 -0.504142 1.49319 0
M  V30 5246 C 497.867 -1.28729 1.62615 0
M  V30 5247 C 498.292 -1.85752 0.296309 0
M  V30 5248 O 497.65 -1.65704 -0.735649 0
M  V30 5249 C 497.698 -2.39561 2.69524 0
M  V30 5250 O 496.802 -3.43324 2.28478 0
M  V30 5251 H 496.143 -0.380172 0.544395 0
M  V30 5252 H 498.673 -0.603872 1.95485 0
M  V30 5253 H 498.683 -2.8537 2.91595 0
M  V30 5254 H 497.358 -1.97423 3.66056 0
M  V30 5255 H 495.935 -3.03455 2.16725 0
M  V30 5256 N 498.12 -1.38341 -0.754957 0
M  V30 5257 C 499.348 -1.37704 -1.54419 0
M  V30 5258 C 499.763 0.0335243 -1.8877 0
M  V30 5259 O 499.12 0.999773 -1.52679 0
M  V30 5260 C 499.171 -2.23136 -2.84416 0
M  V30 5261 O 498.892 -3.58697 -2.51531 0
M  V30 5262 C 500.393 -2.30664 -3.78562 0
M  V30 5263 H 497.613 -0.471061 -0.477852 0
M  V30 5264 H 500.157 -1.81902 -0.934446 0
M  V30 5265 H 498.312 -1.82403 -3.41772 0
M  V30 5266 H 498.726 -4.03665 -3.34896 0
M  V30 5267 H 500.2 -2.9473 -4.66732 0
M  V30 5268 H 500.677 -1.3199 -4.18898 0
M  V30 5269 H 501.283 -2.71781 -3.27131 0
M  V30 5270 N 499.598 0.982988 -1.23187 0
M  V30 5271 C 500.875 1.69814 -0.970707 0
M  V30 5272 C 501.255 2.04811 0.511424 0
M  V30 5273 O 500.603 1.73924 1.48198 0
M  V30 5274 C 500.813 2.94143 -1.87831 0
M  V30 5275 C 502.161 3.66712 -2.14026 0
M  V30 5276 O 503.185 3.04171 -1.8536 0
M  V30 5277 O 502.044 4.79258 -2.62629 0
M  V30 5278 H 499.138 0.741659 -0.365884 0
M  V30 5279 H 501.684 1.03844 -1.34218 0
M  V30 5280 H 500.456 2.64858 -2.88038 0
M  V30 5281 H 500.079 3.6785 -1.50905 0
M  V30 5282 N 501.076 1.04316 1.18135 0
M  V30 5283 C 502.322 0.749128 1.88457 0
M  V30 5284 C 502.655 -0.72149 1.803 0
M  V30 5285 O 501.93 -1.52676 1.205 0
M  V30 5286 C 502.213 1.21905 3.38838 0
M  V30 5287 C 502.066 2.75195 3.55792 0
M  V30 5288 C 503.385 0.811085 4.32561 0
M  V30 5289 H 500.504 0.273611 0.684329 0
M  V30 5290 H 503.146 1.29561 1.38975 0
M  V30 5291 H 501.296 0.754137 3.8111 0
M  V30 5292 H 502.968 3.29743 3.22595 0
M  V30 5293 H 501.211 3.14899 2.98364 0
M  V30 5294 H 501.882 3.03135 4.61317 0
M  V30 5295 H 504.358 1.21118 3.98082 0
M  V30 5296 H 503.234 1.16761 5.36338 0
M  V30 5297 H 503.495 -0.285596 4.41177 0
M  V30 5298 N 502.554 -1.34406 0.822964 0
M  V30 5299 C 503.501 -2.29519 0.24284 0
M  V30 5300 C 504.471 -1.5359 -0.632397 0
M  V30 5301 O 505.656 -1.8196 -0.57403 0
M  V30 5302 C 502.796 -3.40032 -0.58925 0
M  V30 5303 C 501.909 -4.30899 0.308236 0
M  V30 5304 C 501.044 -5.28515 -0.533425 0
M  V30 5305 C 500.083 -6.1102 0.363444 0
M  V30 5306 N 499.22 -7.00725 -0.439147 0
M  V30 5307 H 504.06 -2.78537 1.05929 0
M  V30 5308 H 501.597 -1.3707 0.533872 0
M  V30 5309 H 503.555 -4.0279 -1.087 0
M  V30 5310 H 502.185 -2.92248 -1.37081 0
M  V30 5311 H 501.237 -3.69002 0.924203 0
M  V30 5312 H 502.549 -4.88717 0.997862 0
M  V30 5313 H 501.703 -5.96725 -1.09565 0
M  V30 5314 H 500.442 -4.71235 -1.25656 0
M  V30 5315 H 499.447 -5.41743 0.937812 0
M  V30 5316 H 500.672 -6.70381 1.08469 0
M  V30 5317 H 498.618 -6.45913 -1.14595 0
M  V30 5318 H 498.535 -7.55756 0.19209 0
M  V30 5319 H 499.803 -7.73263 -0.984124 0
M  V30 5320 N 504.032 -0.577932 -1.46621 0
M  V30 5321 C 505.279 -0.0616879 -2.02406 0
M  V30 5322 C 505.607 1.29638 -1.44997 0
M  V30 5323 O 504.862 1.86176 -0.60308 0
M  V30 5324 C 505.161 0.0590832 -3.57351 0
M  V30 5325 C 504.827 -1.23077 -4.33777 0
M  V30 5326 C 503.489 -1.58416 -4.54376 0
M  V30 5327 C 505.841 -2.08457 -4.77698 0
M  V30 5328 C 503.169 -2.78943 -5.16147 0
M  V30 5329 C 505.521 -3.28204 -5.408 0
M  V30 5330 C 504.185 -3.63832 -5.59627 0
M  V30 5331 H 503.455 -0.0225732 -0.740656 0
M  V30 5332 H 506.102 -0.753609 -1.76048 0
M  V30 5333 H 504.407 0.834104 -3.82818 0
M  V30 5334 H 506.104 0.474202 -3.98186 0
M  V30 5335 H 502.694 -0.945652 -4.18038 0
M  V30 5336 H 506.878 -1.82459 -4.61544 0
M  V30 5337 H 502.134 -3.06689 -5.28916 0
M  V30 5338 H 506.308 -3.94634 -5.73792 0
M  V30 5339 H 503.935 -4.57315 -6.07262 0
M  V30 5340 N 505.51 1.54411 -0.315457 0
M  V30 5341 C 506.787 1.92562 0.343398 0
M  V30 5342 C 507.167 1.24423 1.70535 0
M  V30 5343 O 506.515 0.385051 2.25232 0
M  V30 5344 C 506.725 3.46168 0.443687 0
M  V30 5345 C 508.073 4.18659 0.707783 0
M  V30 5346 O 509.097 3.52281 0.52693 0
M  V30 5347 O 507.956 5.36198 1.05612 0
M  V30 5348 H 505.05 0.80379 0.194552 0
M  V30 5349 H 507.596 1.65738 -0.364577 0
M  V30 5350 H 506.368 3.8792 -0.513172 0
M  V30 5351 H 505.991 3.79073 1.19956 0
M  V30 5352 N 506.988 0.0434614 1.5754 0
M  V30 5353 C 508.399 -0.493343 1.80064 0
M  V30 5354 C 508.75 -1.71388 0.955023 0
M  V30 5355 O 507.875 -2.15736 0.169434 0
M  V30 5356 C 508.47 -0.90179 3.26578 0
M  V30 5357 C 507.029 -1.38362 3.50047 0
M  V30 5358 C 506.176 -0.355129 2.75017 0
M  V30 5359 H 509.127 0.2694 1.56397 0
M  V30 5360 H 509.148 -1.76523 3.37075 0
M  V30 5361 H 508.66 -0.013271 3.88098 0
M  V30 5362 H 506.761 -2.29159 2.93798 0
M  V30 5363 H 506.874 -1.3811 4.58762 0
M  V30 5364 H 505.238 -0.826348 2.40922 0
M  V30 5365 H 506.021 0.525172 3.39259 0
M  V30 5366 N 508.466 -1.55915 -0.229846 0
M  V30 5367 C 509.714 -1.7819 -0.953565 0
M  V30 5368 C 510.035 -0.610504 -1.85197 0
M  V30 5369 O 509.305 0.372988 -1.92316 0
M  V30 5370 H 507.885 -0.657208 -0.355087 0
M  V30 5371 H 510.547 -1.9337 -0.243693 0
M  V30 5372 H 509.643 -2.70011 -1.56527 0
M  V30 5373 N 509.944 0.496216 -1.49584 0
M  V30 5374 C 510.874 1.60576 -1.69521 0
M  V30 5375 C 511.855 1.61169 -0.543933 0
M  V30 5376 O 513.04 1.77834 -0.78031 0
M  V30 5377 C 510.17 2.99038 -1.76616 0
M  V30 5378 C 509.124 3.13312 -2.91581 0
M  V30 5379 C 508.45 4.53172 -2.83794 0
M  V30 5380 C 509.75 2.92886 -4.32452 0
M  V30 5381 H 511.444 1.44146 -2.62416 0
M  V30 5382 H 508.99 0.692024 -1.26282 0
M  V30 5383 H 510.943 3.76564 -1.8915 0
M  V30 5384 H 509.667 3.16568 -0.80324 0
M  V30 5385 H 508.326 2.38213 -2.78658 0
M  V30 5386 H 507.974 4.67585 -1.854 0
M  V30 5387 H 507.674 4.63662 -3.60958 0
M  V30 5388 H 509.198 5.32752 -2.98342 0
M  V30 5389 H 510.612 3.60178 -4.46032 0
M  V30 5390 H 509.009 3.14844 -5.10875 0
M  V30 5391 H 510.079 1.88966 -4.46565 0
M  V30 5392 N 511.423 1.38739 0.74761 0
M  V30 5393 C 512.37 1.36449 1.86146 0
M  V30 5394 C 513.34 0.226098 1.64554 0
M  V30 5395 O 514.525 0.41926 1.86137 0
M  V30 5396 C 511.665 1.2013 3.23516 0
M  V30 5397 C 510.778 2.43407 3.56899 0
M  V30 5398 C 509.913 2.19773 4.83605 0
M  V30 5399 C 508.952 3.3879 5.09792 0
M  V30 5400 N 508.089 3.14553 6.27695 0
M  V30 5401 H 512.929 2.3167 1.87438 0
M  V30 5402 H 510.466 1.15094 0.916063 0
M  V30 5403 H 512.424 1.08683 4.02795 0
M  V30 5404 H 511.054 0.285453 3.21535 0
M  V30 5405 H 510.106 2.65504 2.72418 0
M  V30 5406 H 511.418 3.32094 3.72176 0
M  V30 5407 H 510.572 2.05496 5.70838 0
M  V30 5408 H 509.311 1.28461 4.70478 0
M  V30 5409 H 508.316 3.53579 4.21025 0
M  V30 5410 H 509.541 4.30986 5.24812 0
M  V30 5411 H 507.487 2.25893 6.1588 0
M  V30 5412 H 507.404 3.96791 6.435 0
M  V30 5413 H 508.672 3.03943 7.17801 0
M  V30 5414 N 512.901 -0.976442 1.23707 0
M  V30 5415 C 514.126 -1.75875 1.09922 0
M  V30 5416 C 514.551 -1.84911 -0.34489 0
M  V30 5417 O 513.909 -1.31363 -1.24954 0
M  V30 5418 C 513.957 -3.16179 1.73388 0
M  V30 5419 O 513.061 -4.00124 0.99871 0
M  V30 5420 H 512.402 -0.540954 0.385052 0
M  V30 5421 H 514.932 -1.22546 1.6384 0
M  V30 5422 H 514.942 -3.66741 1.78788 0
M  V30 5423 H 513.617 -3.08917 2.78466 0
M  V30 5424 H 512.194 -3.58624 1.02193 0
M  V30 5425 N 514.379 -1.04941 -1.1758 0
M  V30 5426 C 515.326 -0.648155 -2.21512 0
M  V30 5427 C 516.296 0.348431 -1.62404 0
M  V30 5428 O 517.481 0.240419 -1.89279 0
M  V30 5429 C 514.621 -0.0264291 -3.4509 0
M  V30 5430 C 513.734 -1.07154 -4.185 0
M  V30 5431 C 512.869 -0.417403 -5.29558 0
M  V30 5432 C 511.908 -1.447 -5.94751 0
M  V30 5433 N 511.045 -0.817203 -6.97328 0
M  V30 5434 H 515.885 -1.53891 -2.55189 0
M  V30 5435 H 513.422 -0.769699 -1.25356 0
M  V30 5436 H 515.38 0.351456 -4.15717 0
M  V30 5437 H 514.01 0.827802 -3.12005 0
M  V30 5438 H 513.062 -1.56728 -3.46613 0
M  V30 5439 H 514.374 -1.8532 -4.63096 0
M  V30 5440 H 513.528 0.0142061 -6.06698 0
M  V30 5441 H 512.267 0.396265 -4.86087 0
M  V30 5442 H 511.272 -1.88865 -5.16343 0
M  V30 5443 H 512.497 -2.26252 -6.40302 0
M  V30 5444 H 510.443 -0.0239995 -6.55996 0
M  V30 5445 H 510.36 -1.53644 -7.40223 0
M  V30 5446 H 511.628 -0.410283 -7.7842 0
M  V30 5447 N 515.857 1.33968 -0.830081 0
M  V30 5448 C 516.805 2.31301 -0.245435 0
M  V30 5449 C 517.799 1.57734 0.617762 0
M  V30 5450 O 519.005 1.72674 0.508303 0
M  V30 5451 H 515.38 0.749552 -0.0606316 0
M  V30 5452 H 517.351 2.78129 -1.08105 0
M  V30 5453 C 516.1 3.42961 0.572084 0
M  V30 5454 H 515.423 3.99714 -0.0828118 0
M  V30 5455 H 516.863 4.13286 0.94715 0
M  V30 5456 C 515.322 2.88043 1.74737 0
M  V30 5457 O 515.852 2.83508 2.8458 0
M  V30 5458 N 514.058 2.44768 1.56642 0
M  V30 5459 H 513.605 2.48656 0.672901 0
M  V30 5460 H 513.563 2.08375 2.3543 0
M  V30 5461 N 517.335 0.585699 1.46312 0
M  V30 5462 C 518.282 -0.145835 2.30339 0
M  V30 5463 C 519.252 -0.881215 1.40797 0
M  V30 5464 O 520.437 -0.871293 1.69744 0
M  V30 5465 C 517.577 -1.15161 3.25318 0
M  V30 5466 C 516.69 -0.419367 4.2996 0
M  V30 5467 C 515.825 -1.41293 5.12064 0
M  V30 5468 C 514.864 -0.667261 6.08452 0
M  V30 5469 N 514.001 -1.60903 6.83414 0
M  V30 5470 H 518.841 0.576755 2.92365 0
M  V30 5471 H 516.378 0.296237 1.44086 0
M  V30 5472 H 518.336 -1.74763 3.78832 0
M  V30 5473 H 516.966 -1.84188 2.65094 0
M  V30 5474 H 516.018 0.291751 3.7928 0
M  V30 5475 H 517.33 0.163433 4.98532 0
M  V30 5476 H 516.484 -2.08167 5.6987 0
M  V30 5477 H 515.223 -2.02966 4.43459 0
M  V30 5478 H 514.228 0.0152356 5.49798 0
M  V30 5479 H 515.453 -0.0558817 6.79077 0
M  V30 5480 H 513.399 -2.21381 6.17516 0
M  V30 5481 H 513.316 -1.07911 7.48259 0
M  V30 5482 H 514.584 -2.26802 7.45775 0
M  V30 5483 N 518.813 -1.54241 0.323641 0
M  V30 5484 C 519.743 -2.27289 -0.534993 0
M  V30 5485 C 520.724 -1.28087 -1.11927 0
M  V30 5486 O 521.909 -1.56899 -1.14439 0
M  V30 5487 C 519.039 -3.03075 -1.69596 0
M  V30 5488 C 517.993 -4.09614 -1.24098 0
M  V30 5489 C 517.319 -4.73242 -2.4889 0
M  V30 5490 C 518.619 -5.21087 -0.355789 0
M  V30 5491 H 520.313 -2.99308 0.0743257 0
M  V30 5492 H 517.859 -1.43952 0.0371874 0
M  V30 5493 H 519.812 -3.52907 -2.30293 0
M  V30 5494 H 518.536 -2.28673 -2.33187 0
M  V30 5495 H 517.195 -3.60666 -0.656945 0
M  V30 5496 H 516.843 -3.95455 -3.10845 0
M  V30 5497 H 516.543 -5.45209 -2.19138 0
M  V30 5498 H 518.067 -5.25848 -3.10348 0
M  V30 5499 H 519.481 -5.66675 -0.869042 0
M  V30 5500 H 517.878 -5.9991 -0.151045 0
M  V30 5501 H 518.948 -4.81005 0.613339 0
M  V30 5502 N 520.291 -0.0518155 -1.57515 0
M  V30 5503 C 521.239 0.940195 -2.12751 0
M  V30 5504 C 522.233 1.3218 -1.05948 0
M  V30 5505 O 523.439 1.30138 -1.24355 0
M  V30 5506 H 519.814 0.321066 -0.680015 0
M  V30 5507 H 521.785 0.449217 -2.94999 0
M  V30 5508 C 520.534 2.2055 -2.68799 0
M  V30 5509 H 519.857 1.92066 -3.50643 0
M  V30 5510 H 521.297 2.88119 -3.11068 0
M  V30 5511 C 519.756 2.95061 -1.62605 0
M  V30 5512 O 520.286 3.88025 -1.03921 0
M  V30 5513 N 518.492 2.57804 -1.34111 0
M  V30 5514 H 518.039 1.82281 -1.8202 0
M  V30 5515 H 517.997 3.07964 -0.632872 0
M  V30 5516 N 521.769 1.56035 0.221574 0
M  V30 5517 C 522.999 1.82864 0.961468 0
M  V30 5518 C 523.407 0.628703 1.78449 0
M  V30 5519 O 522.75 -0.412109 1.79018 0
M  V30 5520 C 522.812 3.03425 1.92804 0
M  V30 5521 C 522.476 4.38429 1.28954 0
M  V30 5522 C 523.473 5.15441 0.679431 0
M  V30 5523 C 521.158 4.85151 1.30131 0
M  V30 5524 C 523.152 6.37337 0.0896148 0
M  V30 5525 C 520.839 6.06989 0.707651 0
M  V30 5526 C 521.837 6.82923 0.102855 0
M  V30 5527 O 521.525 8.02456 -0.48157 0
M  V30 5528 H 521.257 0.611883 0.28736 0
M  V30 5529 H 523.811 2.0397 0.241932 0
M  V30 5530 H 522.041 2.78138 2.68656 0
M  V30 5531 H 523.73 3.17127 2.53348 0
M  V30 5532 H 524.496 4.80452 0.662661 0
M  V30 5533 H 520.375 4.26021 1.76145 0
M  V30 5534 H 523.919 6.96547 -0.383069 0
M  V30 5535 H 519.816 6.41451 0.721834 0
M  V30 5536 H 520.584 8.17636 -0.375887 0
M  V30 5537 N 523.247 -0.488276 1.49845 0
M  V30 5538 C 524.177 -1.59675 1.70371 0
M  V30 5539 C 525.158 -1.60878 0.552473 0
M  V30 5540 O 526.343 -1.77417 0.78973 0
M  V30 5541 C 523.473 -2.98098 1.782 0
M  V30 5542 C 522.427 -3.11761 2.93239 0
M  V30 5543 C 521.753 -4.51661 2.86193 0
M  V30 5544 C 523.053 -2.90589 4.33999 0
M  V30 5545 H 524.747 -1.42752 2.63177 0
M  V30 5546 H 522.293 -0.685317 1.26647 0
M  V30 5547 H 524.246 -3.75555 1.91144 0
M  V30 5548 H 522.97 -3.16138 0.820018 0
M  V30 5549 H 521.629 -2.36732 2.79917 0
M  V30 5550 H 521.277 -4.66595 1.87877 0
M  V30 5551 H 520.977 -4.61742 3.63412 0
M  V30 5552 H 522.501 -5.31162 3.01163 0
M  V30 5553 H 523.915 -3.57807 4.47936 0
M  V30 5554 H 522.312 -3.1213 5.12538 0
M  V30 5555 H 523.382 -1.86595 4.4756 0
M  V30 5556 N 524.725 -1.39134 -0.740242 0
M  V30 5557 C 526.141 -1.20623 -1.0451 0
M  V30 5558 C 526.341 -0.0641651 -2.01398 0
M  V30 5559 O 525.397 0.585843 -2.4561 0
M  V30 5560 C 526.71 -2.53815 -1.6124 0
M  V30 5561 C 528.258 -2.60615 -1.73346 0
M  V30 5562 C 528.733 -3.94015 -2.33486 0
M  V30 5563 N 530.224 -3.95627 -2.40902 0
M  V30 5564 C 530.959 -4.95616 -2.88361 0
M  V30 5565 N 530.455 -6.06003 -3.35756 0
M  V30 5566 N 532.248 -4.82998 -2.87523 0
M  V30 5567 H 524.399 -2.12176 -0.0975576 0
M  V30 5568 H 526.662 -0.942066 -0.105904 0
M  V30 5569 H 526.368 -3.37911 -0.975144 0
M  V30 5570 H 526.242 -2.73162 -2.6012 0
M  V30 5571 H 528.629 -1.76906 -2.36195 0
M  V30 5572 H 528.71 -2.45123 -0.731336 0
M  V30 5573 H 528.354 -4.78153 -1.71267 0
M  V30 5574 H 528.284 -4.06825 -3.34366 0
M  V30 5575 H 530.775 -3.15903 -2.07398 0
M  V30 5576 H 531.088 -6.78215 -3.70464 0
M  V30 5577 H 529.433 -6.09604 -3.33778 0
M  V30 5578 H 532.624 -3.95866 -2.49816 0
M  V30 5579 H 532.797 -5.61072 -3.24196 0
M  V30 5580 N 526.204 0.969867 -1.24223 0
M  V30 5581 C 527.152 2.08535 -1.03034 0
M  V30 5582 C 528.146 1.69366 0.0340379 0
M  V30 5583 O 529.352 1.79597 -0.12034 0
M  V30 5584 H 525.727 0.682313 -0.316154 0
M  V30 5585 H 527.698 2.23569 -1.97635 0
M  V30 5586 C 526.447 3.4158 -0.649509 0
M  V30 5587 H 525.77 3.72177 -1.46028 0
M  V30 5588 H 527.21 4.20536 -0.540841 0
M  V30 5589 C 525.669 3.30703 0.643194 0
M  V30 5590 O 526.199 3.64443 1.68951 0
M  V30 5591 N 524.405 2.83841 0.623095 0
M  V30 5592 H 523.952 2.56583 -0.228719 0
M  V30 5593 H 523.91 2.76946 1.48823 0
M  V30 5594 N 527.682 1.05563 1.17022 0
M  V30 5595 C 528.912 0.787307 1.91011 0
M  V30 5596 C 529.32 -0.661256 1.77268 0
M  V30 5597 O 528.663 -1.46379 1.10991 0
M  V30 5598 C 528.725 1.09313 3.42478 0
M  V30 5599 C 528.389 2.53863 3.80004 0
M  V30 5600 C 529.386 3.52081 3.82538 0
M  V30 5601 C 527.071 2.88969 4.10855 0
M  V30 5602 C 529.065 4.83449 4.15399 0
M  V30 5603 C 526.752 4.2054 4.43384 0
M  V30 5604 C 527.75 5.17589 4.45635 0
M  V30 5605 O 527.438 6.46799 4.77395 0
M  V30 5606 H 527.17 0.285463 0.61277 0
M  V30 5607 H 529.724 1.41051 1.49311 0
M  V30 5608 H 527.954 0.412833 3.8449 0
M  V30 5609 H 529.643 0.810224 3.97731 0
M  V30 5610 H 530.409 3.26299 3.58823 0
M  V30 5611 H 526.288 2.1409 4.08272 0
M  V30 5612 H 529.832 5.59194 4.1707 0
M  V30 5613 H 525.729 4.46083 4.66563 0
M  V30 5614 H 526.497 6.51677 4.95237 0
M  V30 5615 N 529.16 -1.33526 0.837174 0
M  V30 5616 C 530.406 -1.98541 0.44193 0
M  V30 5617 C 530.761 -1.65124 -0.987517 0
M  V30 5618 O 530.054 -0.919948 -1.6807 0
M  V30 5619 C 530.248 -3.52367 0.597675 0
M  V30 5620 C 530.077 -4.00731 2.04071 0
M  V30 5621 C 528.847 -4.28649 2.67559 0
M  V30 5622 C 531.045 -4.17073 3.00923 0
M  V30 5623 N 529.027 -4.63142 4.02955 0
M  V30 5624 C 530.398 -4.54905 4.21261 0
M  V30 5625 C 532.453 -3.99358 2.97351 0
M  V30 5626 C 531.156 -4.76874 5.38501 0
M  V30 5627 C 533.182 -4.22501 4.1382 0
M  V30 5628 C 532.544 -4.60634 5.32912 0
M  V30 5629 H 528.643 -0.753246 0.210105 0
M  V30 5630 H 531.227 -1.61674 1.08488 0
M  V30 5631 H 529.398 -3.88397 -0.0154658 0
M  V30 5632 H 531.13 -4.04326 0.17404 0
M  V30 5633 H 527.885 -4.20077 2.18706 0
M  V30 5634 H 528.309 -4.84601 4.72748 0
M  V30 5635 H 532.951 -3.68993 2.06408 0
M  V30 5636 H 530.669 -5.06101 6.2999 0
M  V30 5637 H 534.255 -4.10316 4.12471 0
M  V30 5638 H 533.135 -4.78187 6.21536 0
M  V30 5639 N 530.638 -0.59345 -1.46 0
M  V30 5640 C 531.568 0.121192 -2.33185 0
M  V30 5641 C 532.549 0.872977 -1.4599 0
M  V30 5642 O 533.734 0.846321 -1.74789 0
M  V30 5643 C 530.864 1.12844 -3.28456 0
M  V30 5644 C 529.818 0.4908 -4.25177 0
M  V30 5645 C 529.144 1.60529 -5.10034 0
M  V30 5646 C 530.444 -0.578949 -5.19081 0
M  V30 5647 H 532.138 -0.606767 -2.93187 0
M  V30 5648 H 529.684 -0.293242 -1.40983 0
M  V30 5649 H 531.637 1.63684 -3.88311 0
M  V30 5650 H 530.361 1.88681 -2.66584 0
M  V30 5651 H 529.02 0.00339328 -3.666 0
M  V30 5652 H 528.668 2.35359 -4.44539 0
M  V30 5653 H 528.368 1.18422 -5.75543 0
M  V30 5654 H 529.892 2.11623 -5.72755 0
M  V30 5655 H 531.306 -0.155199 -5.7309 0
M  V30 5656 H 529.703 -0.920947 -5.92991 0
M  V30 5657 H 530.773 -1.46109 -4.62364 0
M  V30 5658 N 532.116 1.54067 -0.331816 0
M  V30 5659 C 533.046 2.27569 0.522932 0
M  V30 5660 C 534.027 1.28679 1.11247 0
M  V30 5661 O 535.212 1.57504 1.13605 0
M  V30 5662 C 532.342 3.0397 1.67987 0
M  V30 5663 C 531.296 4.10267 1.21924 0
M  V30 5664 C 530.622 4.74555 2.46377 0
M  V30 5665 C 531.922 5.21268 0.32815 0
M  V30 5666 H 533.616 2.99264 -0.0901977 0
M  V30 5667 H 531.162 1.4393 -0.044821 0
M  V30 5668 H 533.115 3.54123 2.28418 0
M  V30 5669 H 531.839 2.29906 2.31971 0
M  V30 5670 H 530.498 3.61009 0.637809 0
M  V30 5671 H 530.146 3.97098 3.08743 0
M  V30 5672 H 529.846 5.46363 2.16243 0
M  V30 5673 H 531.37 5.27487 3.07555 0
M  V30 5674 H 532.784 5.67128 0.838978 0
M  V30 5675 H 531.181 5.99982 0.119228 0
M  V30 5676 H 532.251 4.80673 -0.638839 0
M  V30 5677 N 533.594 0.0601682 1.57485 0
M  V30 5678 C 534.843 -0.611101 1.9222 0
M  V30 5679 C 535.156 -1.71469 0.941159 0
M  V30 5680 O 536.362 -2.44473 1.18089 0
M  V30 5681 C 534.818 -1.13832 3.41424 0
M  V30 5682 C 534.426 -0.0663596 4.47951 0
M  V30 5683 C 536.17 -1.78432 3.85178 0
M  V30 5684 C 534.077 -0.606965 5.88277 0
M  V30 5685 H 533.007 -0.232033 0.71741 0
M  V30 5686 H 535.658 0.130518 1.83035 0
M  V30 5687 H 534.04 -1.93254 3.45643 0
M  V30 5688 H 535.214 0.707682 4.55333 0
M  V30 5689 H 533.529 0.482715 4.13593 0
M  V30 5690 H 536.126 -2.1989 4.87394 0
M  V30 5691 H 536.469 -2.63966 3.21913 0
M  V30 5692 H 537.002 -1.05651 3.83514 0
M  V30 5693 H 533.741 0.21095 6.5516 0
M  V30 5694 H 533.261 -1.34879 5.84438 0
M  V30 5695 H 534.94 -1.08704 6.37803 0
M  V30 5696 N 535.072 -1.5615 -0.213296 0
M  V30 5697 C 536.32 -1.79191 -0.934612 0
M  V30 5698 C 536.641 -0.630112 -1.84539 0
M  V30 5699 O 535.911 0.35257 -1.92701 0
M  V30 5700 H 534.491 -0.660937 -0.348097 0
M  V30 5701 H 537.153 -1.93618 -0.22317 0
M  V30 5702 H 536.249 -2.71656 -1.53654 0
M  V30 5703 N 536.55 0.480323 -1.50102 0
M  V30 5704 C 537.5 1.57685 -1.6468 0
M  V30 5705 C 538.484 1.52878 -0.5017 0
M  V30 5706 O 539.676 1.60058 -0.755668 0
M  V30 5707 C 536.805 2.96185 -1.73578 0
M  V30 5708 C 535.891 3.0591 -2.93734 0
M  V30 5709 N 536.282 2.85471 -4.1754 0
M  V30 5710 C 534.58 3.37036 -2.92101 0
M  V30 5711 C 535.281 2.99921 -4.9842 0
M  V30 5712 N 534.257 3.29715 -4.32191 0
M  V30 5713 H 538.059 1.40568 -2.58104 0
M  V30 5714 H 535.573 0.686874 -1.47159 0
M  V30 5715 H 537.57 3.75015 -1.82124 0
M  V30 5716 H 536.23 3.14356 -0.813057 0
M  V30 5717 H 537.241 2.61235 -4.47188 0
M  V30 5718 H 533.918 3.61253 -2.09291 0
M  V30 5719 H 535.308 2.88436 -6.06839 0
M  V30 5720 N 538.028 1.39524 0.732853 0
M  V30 5721 C 538.978 1.34905 1.83806 0
M  V30 5722 C 539.962 0.229546 1.59254 0
M  V30 5723 O 541.154 0.467255 1.70721 0
M  V30 5724 C 538.283 1.19699 3.21756 0
M  V30 5725 C 537.369 2.36359 3.5213 0
M  V30 5726 N 537.76 3.61834 3.53426 0
M  V30 5727 C 536.058 2.29363 3.82503 0
M  V30 5728 C 536.759 4.38992 3.81655 0
M  V30 5729 N 535.735 3.68606 3.99538 0
M  V30 5730 H 539.537 2.29882 1.83116 0
M  V30 5731 H 537.051 1.33051 0.931194 0
M  V30 5732 H 539.048 1.14472 4.00876 0
M  V30 5733 H 537.708 0.256739 3.23683 0
M  V30 5734 H 538.719 3.95228 3.34686 0
M  V30 5735 H 535.396 1.43612 3.92023 0
M  V30 5736 H 536.786 5.47763 3.89108 0
M  V30 5737 N 539.506 -0.963266 1.24736 0
M  V30 5738 C 540.416 -2.09246 1.06082 0
M  V30 5739 C 541.432 -1.74 0.000363101 0
M  V30 5740 O 542.608 -2.0041 0.199479 0
M  V30 5741 C 539.673 -3.40115 0.672498 0
M  V30 5742 C 538.734 -3.89282 1.80993 0
M  V30 5743 C 537.967 -5.13905 1.44004 0
M  V30 5744 O 538.19 -5.69434 0.331835 0
M  V30 5745 O 537.124 -5.57566 2.26723 0
M  V30 5746 H 540.95 -2.27881 2.00759 0
M  V30 5747 H 538.535 -1.07649 1.03595 0
M  V30 5748 H 540.417 -4.18797 0.467668 0
M  V30 5749 H 539.092 -3.22771 -0.245102 0
M  V30 5750 H 537.999 -3.11642 2.06955 0
M  V30 5751 H 539.332 -4.1111 2.70646 0
M  V30 5752 N 540.985 -1.06182 -1.16461 0
M  V30 5753 C 542.213 -0.798583 -1.90867 0
M  V30 5754 C 542.628 0.646921 -1.77371 0
M  V30 5755 O 541.985 1.44279 -1.11758 0
M  V30 5756 C 542.036 -1.18258 -3.4161 0
M  V30 5757 O 541.757 -2.57135 -3.54701 0
M  V30 5758 C 543.258 -0.946917 -4.33069 0
M  V30 5759 H 540.478 -0.289603 -0.605286 0
M  V30 5760 H 543.022 -1.41515 -1.47627 0
M  V30 5761 H 541.177 -0.610562 -3.82558 0
M  V30 5762 H 541.591 -2.72477 -4.4817 0
M  V30 5763 H 543.065 -1.26523 -5.37304 0
M  V30 5764 H 543.542 0.117406 -4.39043 0
M  V30 5765 H 544.148 -1.50326 -3.97847 0
M  V30 5766 N 542.463 1.3308 -0.844243 0
M  V30 5767 C 543.874 1.7992 -0.498566 0
M  V30 5768 C 544.225 1.69808 0.982834 0
M  V30 5769 O 543.35 1.25051 1.7661 0
M  V30 5770 C 543.945 3.26677 -0.898204 0
M  V30 5771 C 542.504 3.71513 -0.604583 0
M  V30 5772 C 541.651 2.54393 -1.10362 0
M  V30 5773 H 544.602 1.20526 -1.03244 0
M  V30 5774 H 544.623 3.79918 -0.21039 0
M  V30 5775 H 544.135 3.34004 -1.97643 0
M  V30 5776 H 542.236 3.69708 0.46335 0
M  V30 5777 H 542.349 4.64755 -1.16358 0
M  V30 5778 H 540.713 2.49246 -0.524273 0
M  V30 5779 H 541.496 2.6448 -2.18873 0
M  V30 5780 N 543.941 0.601185 1.45683 0
M  V30 5781 C 544.871 -0.108824 2.33246 0
M  V30 5782 C 545.852 -0.865223 1.46451 0
M  V30 5783 O 547.037 -0.83704 1.75235 0
M  V30 5784 C 544.167 -1.11101 3.2905 0
M  V30 5785 C 543.121 -0.468244 4.25431 0
M  V30 5786 C 542.447 -1.57822 5.10878 0
M  V30 5787 C 543.747 0.606469 5.18767 0
M  V30 5788 H 545.441 0.622306 2.92861 0
M  V30 5789 H 542.987 0.300714 1.40825 0
M  V30 5790 H 544.94 -1.61622 3.89174 0
M  V30 5791 H 543.664 -1.87265 2.67581 0
M  V30 5792 H 542.323 0.0160484 3.66596 0
M  V30 5793 H 541.971 -2.32998 4.45781 0
M  V30 5794 H 541.671 -1.15369 5.76163 0
M  V30 5795 H 543.195 -2.08583 5.73869 0
M  V30 5796 H 544.609 0.185589 5.73 0
M  V30 5797 H 543.006 0.952381 5.92494 0
M  V30 5798 H 544.076 1.48559 4.61582 0
M  V30 5799 N 545.419 -1.53889 0.339982 0
M  V30 5800 C 546.644 -2.05741 -0.261798 0
M  V30 5801 C 547.069 -1.21354 -1.43718 0
M  V30 5802 O 546.427 -0.22645 -1.7988 0
M  V30 5803 C 546.475 -3.54542 -0.658228 0
M  V30 5804 O 545.579 -3.7302 -1.75869 0
M  V30 5805 H 544.92 -0.662529 -0.0441672 0
M  V30 5806 H 547.45 -1.98568 0.493161 0
M  V30 5807 H 547.46 -3.9711 -0.936368 0
M  V30 5808 H 546.135 -4.15412 0.201358 0
M  V30 5809 H 544.712 -3.42355 -1.47809 0
M  V30 5810 N 546.897 -0.0685191 -1.57451 0
M  V30 5811 C 547.86 0.885173 -2.11417 0
M  V30 5812 C 548.86 1.22853 -1.03748 0
M  V30 5813 O 550.05 1.16235 -1.2975 0
M  V30 5814 C 547.182 2.18964 -2.61281 0
M  V30 5815 H 548.375 0.417034 -2.96986 0
M  V30 5816 H 545.928 0.18014 -1.55258 0
M  V30 5817 H 546.663 2.70321 -1.79156 0
M  V30 5818 H 546.448 1.9534 -3.39977 0
M  V30 5819 H 547.938 2.87242 -3.0312 0
M  V30 5820 N 548.375 1.56261 0.205012 0
M  V30 5821 C 549.6 1.84491 0.947512 0
M  V30 5822 C 550.025 0.650894 1.76479 0
M  V30 5823 O 549.383 -0.40035 1.76824 0
M  V30 5824 C 549.431 3.10863 1.82747 0
M  V30 5825 O 548.535 2.90719 2.925 0
M  V30 5826 H 547.876 0.607783 0.267386 0
M  V30 5827 H 550.406 2.03485 0.213323 0
M  V30 5828 H 550.416 3.41399 2.23407 0
M  V30 5829 H 549.091 3.97392 1.2269 0
M  V30 5830 H 547.668 2.71457 2.55667 0
M  V30 5831 N 549.853 -0.472356 1.50355 0
M  V30 5832 C 551.081 -1.24784 1.65035 0
M  V30 5833 C 551.496 -1.85837 0.333176 0
M  V30 5834 O 550.853 -1.69168 -0.68472 0
M  V30 5835 C 550.904 -2.35747 2.74054 0
M  V30 5836 O 550.625 -1.77197 4.00665 0
M  V30 5837 C 552.126 -3.26645 2.99696 0
M  V30 5838 H 549.346 -0.377432 0.554785 0
M  V30 5839 H 551.89 -0.563962 1.9657 0
M  V30 5840 H 550.045 -2.99912 2.45217 0
M  V30 5841 H 550.459 -2.5026 4.60945 0
M  V30 5842 H 551.933 -4.00718 3.79644 0
M  V30 5843 H 552.41 -3.8535 2.10718 0
M  V30 5844 H 553.016 -2.68218 3.3006 0
M  V30 5845 N 551.331 -1.39911 -0.725443 0
M  V30 5846 C 552.278 -1.39393 -1.83952 0
M  V30 5847 C 553.248 -0.252249 -1.64173 0
M  V30 5848 O 554.433 -0.44882 -1.85446 0
M  V30 5849 C 551.573 -1.25262 -3.21564 0
M  V30 5850 C 550.686 -2.49054 -3.52982 0
M  V30 5851 C 549.821 -2.27439 -4.80047 0
M  V30 5852 C 548.86 -3.46857 -5.04338 0
M  V30 5853 N 547.997 -3.24499 -6.22611 0
M  V30 5854 H 552.837 -2.34622 -1.83729 0
M  V30 5855 H 550.374 -1.16537 -0.897636 0
M  V30 5856 H 552.332 -1.15077 -4.01015 0
M  V30 5857 H 550.962 -0.33657 -3.21041 0
M  V30 5858 H 550.014 -2.69805 -2.6816 0
M  V30 5859 H 551.326 -3.37973 -3.66846 0
M  V30 5860 H 550.48 -2.14551 -5.67497 0
M  V30 5861 H 549.219 -1.35929 -4.68374 0
M  V30 5862 H 548.224 -3.60232 -4.15346 0
M  V30 5863 H 549.449 -4.3928 -5.17889 0
M  V30 5864 H 547.395 -2.35663 -6.12208 0
M  V30 5865 H 547.312 -4.06978 -6.37106 0
M  V30 5866 H 548.58 -3.15325 -7.12875 0
M  V30 5867 N 552.809 0.956637 -1.25245 0
M  V30 5868 C 553.742 2.05232 -0.99775 0
M  V30 5869 C 554.72 1.62439 0.0723137 0
M  V30 5870 O 555.904 1.88381 -0.066926 0
M  V30 5871 C 553.031 3.34871 -0.507861 0
M  V30 5872 C 552.077 3.96625 -1.56815 0
M  V30 5873 S 552.91 4.32853 -3.15276 0
M  V30 5874 C 554.066 5.65613 -2.68017 0
M  V30 5875 H 554.299 2.26521 -1.9255 0
M  V30 5876 H 551.832 1.09601 -1.08752 0
M  V30 5877 H 553.79 4.09845 -0.231858 0
M  V30 5878 H 552.451 3.11551 0.399356 0
M  V30 5879 H 551.644 4.90087 -1.17604 0
M  V30 5880 H 551.246 3.28124 -1.79473 0
M  V30 5881 H 553.538 6.43635 -2.11518 0
M  V30 5882 H 554.481 6.09693 -3.60112 0
M  V30 5883 H 554.889 5.24751 -2.0808 0
M  V30 5884 N 554.287 1.06798 1.15896 0
M  V30 5885 C 555.217 0.704677 2.22613 0
M  V30 5886 C 556.198 -0.305252 1.67339 0
M  V30 5887 O 557.383 -0.179247 1.93371 0
M  V30 5888 C 554.513 0.0957325 3.47168 0
M  V30 5889 C 553.467 1.0322 4.15367 0
M  V30 5890 C 552.793 0.286293 5.33933 0
M  V30 5891 C 554.093 2.36341 4.65768 0
M  V30 5892 H 555.787 1.59688 2.53259 0
M  V30 5893 H 553.333 0.769257 1.21731 0
M  V30 5894 H 555.286 -0.170333 4.21056 0
M  V30 5895 H 554.01 -0.831516 3.15838 0
M  V30 5896 H 552.669 1.28309 3.43413 0
M  V30 5897 H 552.317 -0.644237 4.98857 0
M  V30 5898 H 552.017 0.910436 5.80504 0
M  V30 5899 H 553.541 0.0278938 6.10594 0
M  V30 5900 H 554.955 2.1561 5.31211 0
M  V30 5901 H 553.352 2.94299 5.2298 0
M  V30 5902 H 554.422 2.99047 3.81705 0
M  V30 5903 N 555.766 -1.3263 0.851289 0
M  V30 5904 C 556.676 -2.32722 0.296268 0
M  V30 5905 C 557.692 -1.63901 -0.584162 0
M  V30 5906 O 558.868 -1.95465 -0.485334 0
M  V30 5907 C 555.933 -3.42942 -0.509103 0
M  V30 5908 C 554.994 -4.2746 0.397069 0
M  V30 5909 C 554.227 -5.32416 -0.36996 0
M  V30 5910 O 554.45 -5.47491 -1.6003 0
M  V30 5911 O 553.384 -6.01327 0.262493 0
M  V30 5912 H 557.21 -2.82078 1.12543 0
M  V30 5913 H 554.795 -1.36194 0.614135 0
M  V30 5914 H 556.677 -4.1017 -0.96634 0
M  V30 5915 H 555.352 -2.95781 -1.31512 0
M  V30 5916 H 554.259 -3.63053 0.902411 0
M  V30 5917 H 555.592 -4.78136 1.16818 0
M  V30 5918 N 557.244 -0.608902 -1.45362 0
M  V30 5919 C 558.66 -0.272659 -1.57254 0
M  V30 5920 C 558.86 1.22477 -1.60005 0
M  V30 5921 O 557.916 2.00785 -1.53106 0
M  V30 5922 C 559.229 -0.944991 -2.85465 0
M  V30 5923 C 560.777 -0.921033 -2.99142 0
M  V30 5924 C 561.252 -1.5734 -4.30126 0
M  V30 5925 N 562.743 -1.53895 -4.36887 0
M  V30 5926 C 563.478 -2.01286 -5.36909 0
M  V30 5927 N 562.974 -2.56768 -6.43461 0
M  V30 5928 N 564.767 -1.92046 -5.28275 0
M  V30 5929 H 556.918 -1.58117 -1.4182 0
M  V30 5930 H 559.181 -0.662437 -0.678146 0
M  V30 5931 H 558.887 -1.99941 -2.89338 0
M  V30 5932 H 558.761 -0.469079 -3.74272 0
M  V30 5933 H 561.148 0.124846 -2.94836 0
M  V30 5934 H 561.229 -1.43522 -2.11743 0
M  V30 5935 H 560.873 -2.61862 -4.35191 0
M  V30 5936 H 560.803 -1.03422 -5.16344 0
M  V30 5937 H 563.294 -1.13366 -3.60495 0
M  V30 5938 H 563.607 -2.9072 -7.16032 0
M  V30 5939 H 561.952 -2.60808 -6.44208 0
M  V30 5940 H 565.143 -1.48439 -4.43941 0
M  V30 5941 H 565.316 -2.29293 -6.06077 0
M  V30 5942 N 558.722 1.53707 -0.348139 0
M  V30 5943 C 559.969 2.00988 0.246966 0
M  V30 5944 C 560.297 1.23586 1.50189 0
M  V30 5945 O 559.552 0.312817 1.93184 0
M  V30 5946 C 559.851 3.52292 0.602061 0
M  V30 5947 C 559.517 4.47453 -0.556509 0
M  V30 5948 C 558.179 4.73188 -0.874446 0
M  V30 5949 C 560.531 5.03851 -1.33354 0
M  V30 5950 C 557.859 5.52577 -1.9717 0
M  V30 5951 C 560.211 5.84437 -2.42108 0
M  V30 5952 C 558.875 6.08465 -2.74456 0
M  V30 5953 H 558.145 0.735469 0.0903712 0
M  V30 5954 H 560.792 1.85464 -0.477001 0
M  V30 5955 H 559.097 3.65672 1.40681 0
M  V30 5956 H 560.794 3.86337 1.07447 0
M  V30 5957 H 557.384 4.27558 -0.298652 0
M  V30 5958 H 561.568 4.8393 -1.10117 0
M  V30 5959 H 556.824 5.69418 -2.22651 0
M  V30 5960 H 560.998 6.27151 -3.02745 0
M  V30 5961 H 558.625 6.69768 -3.59604 0
M  V30 5962 N 560.2 0.0768682 1.57412 0
M  V30 5963 C 561.611 -0.455037 1.8107 0
M  V30 5964 C 561.962 -1.69323 0.991162 0
M  V30 5965 O 561.087 -2.15328 0.215156 0
M  V30 5966 C 561.682 -0.832316 3.28417 0
M  V30 5967 C 560.241 -1.30906 3.52903 0
M  V30 5968 C 559.388 -0.296714 2.75708 0
M  V30 5969 H 562.339 0.302514 1.5579 0
M  V30 5970 H 562.36 -1.69333 3.40744 0
M  V30 5971 H 561.872 0.0690532 3.88039 0
M  V30 5972 H 559.973 -2.22875 2.98592 0
M  V30 5973 H 560.086 -1.28348 4.61588 0
M  V30 5974 H 558.45 -0.775059 2.42621 0
M  V30 5975 H 559.233 0.597015 3.38069 0
M  V30 5976 N 561.678 -1.56367 -0.196722 0
M  V30 5977 C 562.626 -1.95304 -1.2633 0
M  V30 5978 C 563.62 -0.838252 -1.47206 0
M  V30 5979 O 564.826 -1.02325 -1.48087 0
M  V30 5980 H 561.201 -0.621013 -0.424083 0
M  V30 5981 H 563.172 -2.84254 -0.907879 0
M  V30 5982 C 561.921 -2.3074 -2.60104 0
M  V30 5983 H 561.244 -3.16047 -2.44856 0
M  V30 5984 H 562.684 -2.61849 -3.33484 0
M  V30 5985 C 561.143 -1.14143 -3.16975 0
M  V30 5986 O 561.673 -0.415602 -3.99544 0
M  V30 5987 N 559.879 -0.91867 -2.75697 0
M  V30 5988 H 559.426 -1.51065 -2.08656 0
M  V30 5989 H 559.384 -0.140321 -3.14087 0
M  V30 5990 N 563.156 0.464375 -1.50603 0
M  V30 5991 C 564.104 1.58224 -1.70493 0
M  V30 5992 C 565.098 1.59492 -0.570836 0
M  V30 5993 O 566.304 1.63561 -0.751517 0
M  V30 5994 H 562.679 0.525161 -0.538247 0
M  V30 5995 H 564.65 1.38613 -2.64252 0
M  V30 5996 C 563.399 2.96113 -1.82243 0
M  V30 5997 H 562.722 2.95858 -2.68901 0
M  V30 5998 H 564.162 3.73769 -2.00182 0
M  V30 5999 C 562.621 3.31946 -0.575628 0
M  V30 6000 O 563.151 4.00708 0.282152 0
M  V30 6001 N 561.357 2.87436 -0.427665 0
M  V30 6002 H 560.904 2.31652 -1.12674 0
M  V30 6003 H 560.862 3.11776 0.405379 0
M  V30 6004 N 564.634 1.40294 0.718013 0
M  V30 6005 C 565.564 1.43118 1.84498 0
M  V30 6006 C 566.545 0.292403 1.67568 0
M  V30 6007 O 567.73 0.500675 1.87635 0
M  V30 6008 C 564.86 1.29065 3.22427 0
M  V30 6009 C 563.814 2.40521 3.54025 0
M  V30 6010 C 563.14 2.11546 4.91073 0
M  V30 6011 C 564.44 3.82859 3.55269 0
M  V30 6012 H 566.134 2.37432 1.82391 0
M  V30 6013 H 563.68 1.14283 0.87609 0
M  V30 6014 H 565.633 1.29658 4.00957 0
M  V30 6015 H 564.357 0.312271 3.25104 0
M  V30 6016 H 563.016 2.39173 2.77834 0
M  V30 6017 H 562.664 1.12104 4.90348 0
M  V30 6018 H 562.364 2.86216 5.1318 0
M  V30 6019 H 563.888 2.13817 5.71939 0
M  V30 6020 H 565.302 3.86044 4.23843 0
M  V30 6021 H 563.699 4.57029 3.88902 0
M  V30 6022 H 564.769 4.12617 2.54706 0
M  V30 6023 N 566.112 -0.949982 1.2575 0
M  V30 6024 C 567.523 -1.50989 1.09815 0
M  V30 6025 C 567.874 -1.93497 -0.324556 0
M  V30 6026 O 566.999 -1.79068 -1.21506 0
M  V30 6027 C 567.594 -2.74394 1.98729 0
M  V30 6028 C 566.153 -3.26682 1.86965 0
M  V30 6029 C 565.3 -1.99498 1.92603 0
M  V30 6030 H 568.251 -0.766387 1.38968 0
M  V30 6031 H 568.272 -3.48383 1.53001 0
M  V30 6032 H 567.784 -2.43425 3.02268 0
M  V30 6033 H 565.885 -3.62461 0.863279 0
M  V30 6034 H 565.998 -3.94383 2.72027 0
M  V30 6035 H 564.362 -2.15005 1.36546 0
M  V30 6036 H 565.145 -1.70871 2.97755 0
M  V30 6037 N 567.59 -1.07411 -1.15328 0
M  V30 6038 C 568.537 -0.694995 -2.20087 0
M  V30 6039 C 569.507 0.313904 -1.63107 0
M  V30 6040 O 570.692 0.200216 -1.89747 0
M  V30 6041 C 567.832 -0.0996218 -3.44956 0
M  V30 6042 C 566.945 -1.16007 -4.16133 0
M  V30 6043 C 566.08 -0.529636 -5.28553 0
M  V30 6044 C 565.119 -1.57283 -5.91548 0
M  V30 6045 N 564.256 -0.964932 -6.95438 0
M  V30 6046 H 569.096 -1.5927 -2.51867 0
M  V30 6047 H 566.633 -0.796115 -1.23695 0
M  V30 6048 H 568.591 0.263197 -4.16369 0
M  V30 6049 H 567.221 0.761435 -3.13691 0
M  V30 6050 H 566.273 -1.64045 -3.4321 0
M  V30 6051 H 567.585 -1.95101 -4.59061 0
M  V30 6052 H 566.739 -0.114487 -6.06592 0
M  V30 6053 H 565.478 0.29307 -4.86819 0
M  V30 6054 H 564.483 -1.99775 -5.12221 0
M  V30 6055 H 565.708 -2.39783 -6.35359 0
M  V30 6056 H 563.654 -0.16314 -6.55797 0
M  V30 6057 H 563.571 -1.69311 -7.36797 0
M  V30 6058 H 564.839 -0.575305 -7.77374 0
M  V30 6059 N 569.068 1.32177 -0.85831 0
M  V30 6060 C 570.018 2.26307 -0.277307 0
M  V30 6061 C 571.002 1.50123 0.578946 0
M  V30 6062 O 572.194 1.71754 0.427731 0
M  V30 6063 C 569.323 3.39181 0.530232 0
M  V30 6064 C 568.409 4.22746 -0.338613 0
M  V30 6065 N 568.8 4.85265 -1.4266 0
M  V30 6066 C 567.098 4.45813 -0.129 0
M  V30 6067 C 567.799 5.47634 -1.96142 0
M  V30 6068 N 566.775 5.28794 -1.26007 0
M  V30 6069 H 570.577 2.72173 -1.10902 0
M  V30 6070 H 568.091 1.46308 -0.704816 0
M  V30 6071 H 570.088 4.05628 0.962904 0
M  V30 6072 H 568.748 2.9486 1.35969 0
M  V30 6073 H 569.759 4.85259 -1.80953 0
M  V30 6074 H 566.436 4.12163 0.665451 0
M  V30 6075 H 567.826 6.0735 -2.8736 0
M  V30 6076 N 570.547 0.616602 1.45037 0
M  V30 6077 C 571.963 0.280994 1.57107 0
M  V30 6078 C 572.163 -1.21627 1.60653 0
M  V30 6079 O 571.219 -1.9997 1.54169 0
M  V30 6080 C 572.532 0.960116 2.8496 0
M  V30 6081 C 574.08 0.936884 2.98649 0
M  V30 6082 C 574.555 1.59619 4.29285 0
M  V30 6083 N 576.046 1.5621 4.36065 0
M  V30 6084 C 576.781 2.04131 5.35834 0
M  V30 6085 N 576.277 2.60177 6.4209 0
M  V30 6086 N 578.07 1.94845 5.27249 0
M  V30 6087 H 570.221 1.58867 1.40979 0
M  V30 6088 H 572.484 0.666024 0.674623 0
M  V30 6089 H 572.19 2.01473 2.88273 0
M  V30 6090 H 572.064 0.488921 3.74018 0
M  V30 6091 H 574.451 -0.109209 2.94898 0
M  V30 6092 H 574.532 1.44643 2.10979 0
M  V30 6093 H 574.176 2.64166 4.33796 0
M  V30 6094 H 574.106 1.06159 5.15789 0
M  V30 6095 H 576.597 1.15276 3.59889 0
M  V30 6096 H 576.91 2.94513 7.1448 0
M  V30 6097 H 575.255 2.64221 6.42816 0
M  V30 6098 H 578.446 1.50792 4.43147 0
M  V30 6099 H 578.619 2.32504 6.04852 0
M  V30 6100 N 572.025 -1.5352 0.356285 0
M  V30 6101 C 572.935 -2.29151 -0.502712 0
M  V30 6102 C 573.951 -1.34753 -1.1008 0
M  V30 6103 O 575.127 -1.67803 -1.11374 0
M  V30 6104 C 572.192 -3.05911 -1.63154 0
M  V30 6105 C 571.253 -4.15958 -1.06194 0
M  V30 6106 C 570.486 -4.8905 -2.13696 0
M  V30 6107 O 570.709 -4.61919 -3.34645 0
M  V30 6108 O 569.643 -5.75202 -1.77275 0
M  V30 6109 H 573.469 -3.03492 0.112466 0
M  V30 6110 H 571.054 -1.4891 0.120942 0
M  V30 6111 H 572.936 -3.53874 -2.28804 0
M  V30 6112 H 571.611 -2.34415 -2.23229 0
M  V30 6113 H 570.518 -3.7227 -0.369603 0
M  V30 6114 H 571.851 -4.89593 -0.505872 0
M  V30 6115 N 573.503 -0.0852151 -1.57369 0
M  V30 6116 C 574.451 0.894856 -2.14698 0
M  V30 6117 C 575.445 1.29903 -1.08727 0
M  V30 6118 O 576.651 1.27471 -1.27088 0
M  V30 6119 H 573.026 0.306569 -0.686673 0
M  V30 6120 H 574.997 0.386542 -2.95886 0
M  V30 6121 C 573.746 2.14798 -2.73417 0
M  V30 6122 H 573.069 1.84585 -3.54638 0
M  V30 6123 H 574.509 2.81456 -3.1711 0
M  V30 6124 C 572.968 2.91546 -1.68828 0
M  V30 6125 O 573.498 3.85733 -1.12129 0
M  V30 6126 N 571.704 2.54901 -1.39549 0
M  V30 6127 H 571.251 1.7838 -1.85845 0
M  V30 6128 H 571.209 3.06553 -0.698054 0
M  V30 6129 N 574.981 1.5647 0.188427 0
M  V30 6130 C 576.227 1.81281 0.909124 0
M  V30 6131 C 576.56 0.66034 1.82628 0
M  V30 6132 O 575.835 -0.338737 1.91528 0
M  V30 6133 C 576.118 3.16388 1.7196 0
M  V30 6134 C 575.971 4.42137 0.826714 0
M  V30 6135 C 577.29 3.48256 2.69083 0
M  V30 6136 H 574.409 0.659457 0.329068 0
M  V30 6137 H 577.051 1.89182 0.176156 0
M  V30 6138 H 575.201 3.09784 2.34448 0
M  V30 6139 H 576.873 4.60794 0.216025 0
M  V30 6140 H 575.116 4.33594 0.133792 0
M  V30 6141 H 575.787 5.33184 1.42893 0
M  V30 6142 H 578.263 3.55203 2.16726 0
M  V30 6143 H 577.139 4.43899 3.2287 0
M  V30 6144 H 577.4 2.72088 3.48455 0
M  V30 6145 N 576.459 -0.456382 1.50847 0
M  V30 6146 C 577.708 -1.2042 1.61808 0
M  V30 6147 C 578.021 -1.9278 0.330932 0
M  V30 6148 O 579.227 -2.69612 0.319643 0
M  V30 6149 C 577.683 -2.18891 2.85683 0
M  V30 6150 C 577.291 -1.52267 4.2133 0
M  V30 6151 C 579.035 -2.94224 3.05994 0
M  V30 6152 C 576.942 -2.4911 5.36375 0
M  V30 6153 H 575.872 -0.453177 0.602616 0
M  V30 6154 H 578.523 -0.473144 1.77295 0
M  V30 6155 H 576.905 -2.95351 2.63787 0
M  V30 6156 H 578.079 -0.814949 4.53536 0
M  V30 6157 H 576.394 -0.891594 4.06743 0
M  V30 6158 H 578.991 -3.66732 3.89117 0
M  V30 6159 H 579.334 -3.54469 2.18306 0
M  V30 6160 H 579.867 -2.24874 3.28141 0
M  V30 6161 H 576.606 -1.93582 6.26264 0
M  V30 6162 H 576.126 -3.17991 5.08569 0
M  V30 6163 H 577.805 -3.10637 5.67551 0
M  V30 6164 N 577.937 -1.40673 -0.710563 0
M  V30 6165 C 579.348 -1.34975 -1.28991 0
M  V30 6166 C 579.699 -0.0256272 -1.96183 0
M  V30 6167 O 578.824 0.876339 -1.97862 0
M  V30 6168 C 579.419 -2.44467 -2.34567 0
M  V30 6169 C 577.978 -2.42213 -2.88114 0
M  V30 6170 C 577.125 -2.25085 -1.61963 0
M  V30 6171 H 580.076 -1.50406 -0.506343 0
M  V30 6172 H 580.097 -2.12663 -3.15523 0
M  V30 6173 H 579.609 -3.40825 -1.85634 0
M  V30 6174 H 577.71 -1.49568 -3.41263 0
M  V30 6175 H 577.823 -3.37983 -3.39565 0
M  V30 6176 H 576.187 -1.72691 -1.87216 0
M  V30 6177 H 576.97 -3.23449 -1.15047 0
M  V30 6178 N 579.415 0.9433 -1.26252 0
M  V30 6179 C 580.378 2.02326 -1.07689 0
M  V30 6180 C 581.378 1.60779 -0.0259174 0
M  V30 6181 O 582.568 1.72108 -0.269134 0
M  V30 6182 C 579.7 3.34886 -0.63752 0
M  V30 6183 H 580.893 2.20225 -2.0357 0
M  V30 6184 H 578.446 1.12197 -1.08819 0
M  V30 6185 H 579.181 3.22684 0.323377 0
M  V30 6186 H 578.966 3.66393 -1.39637 0
M  V30 6187 H 580.456 4.14231 -0.529418 0
M  V30 6188 N 580.893 1.08022 1.14757 0
M  V30 6189 C 582.17 0.720386 1.81851 0
M  V30 6190 C 582.55 -0.796375 1.95502 0
M  V30 6191 O 581.898 -1.71339 1.51179 0
M  V30 6192 C 582.108 1.44273 3.17783 0
M  V30 6193 C 583.456 1.59925 3.93331 0
M  V30 6194 O 584.48 1.40407 3.2736 0
M  V30 6195 O 583.339 1.92096 5.11626 0
M  V30 6196 H 580.433 0.257142 0.786007 0
M  V30 6197 H 582.979 1.18155 1.21809 0
M  V30 6198 H 581.751 2.47618 3.02987 0
M  V30 6199 H 581.374 0.97279 3.85516 0
M  V30 6200 N 582.371 -1.3172 0.865308 0
M  V30 6201 C 583.596 -2.01591 0.487415 0
M  V30 6202 C 584.021 -1.6455 -0.911307 0
M  V30 6203 O 583.379 -0.851689 -1.6005 0
M  V30 6204 C 583.427 -3.54759 0.646401 0
M  V30 6205 O 582.531 -4.11185 -0.316284 0
M  V30 6206 H 581.872 -0.634884 0.194468 0
M  V30 6207 H 584.402 -1.68024 1.16744 0
M  V30 6208 H 584.412 -4.04438 0.537932 0
M  V30 6209 H 583.087 -3.8106 1.66632 0
M  V30 6210 H 581.664 -3.72543 -0.163162 0
M  V30 6211 N 583.85 -0.624285 -1.44708 0
M  V30 6212 C 584.76 0.0861083 -2.34442 0
M  V30 6213 C 585.776 0.84291 -1.5222 0
M  V30 6214 O 586.952 0.796723 -1.84971 0
M  V30 6215 C 584.017 1.05999 -3.30099 0
M  V30 6216 C 583.077 0.303316 -4.28227 0
M  V30 6217 C 582.311 1.23081 -5.19314 0
M  V30 6218 O 582.534 2.46929 -5.14181 0
M  V30 6219 O 581.468 0.71883 -5.97592 0
M  V30 6220 H 585.293 -0.651756 -2.96624 0
M  V30 6221 H 582.879 -0.384493 -1.44368 0
M  V30 6222 H 584.76 1.62046 -3.88997 0
M  V30 6223 H 583.436 1.77859 -2.70459 0
M  V30 6224 H 582.343 -0.300033 -3.72895 0
M  V30 6225 H 583.676 -0.375123 -4.90768 0
M  V30 6226 N 585.328 1.53329 -0.364422 0
M  V30 6227 C 586.275 2.25698 0.482607 0
M  V30 6228 C 587.245 1.26325 1.07848 0
M  V30 6229 O 588.43 1.55104 1.11119 0
M  V30 6230 C 585.57 3.04873 1.61699 0
M  V30 6231 C 584.683 4.19135 1.0464 0
M  V30 6232 C 583.818 4.85754 2.14979 0
M  V30 6233 C 582.857 5.9205 1.5538 0
M  V30 6234 N 581.994 6.52365 2.59547 0
M  V30 6235 H 586.834 2.97666 -0.141032 0
M  V30 6236 H 584.371 1.46875 -0.0813692 0
M  V30 6237 H 586.329 3.49051 2.28516 0
M  V30 6238 H 584.959 2.35162 2.2113 0
M  V30 6239 H 584.011 3.79451 0.268553 0
M  V30 6240 H 585.323 4.95525 0.570653 0
M  V30 6241 H 584.477 5.3311 2.89619 0
M  V30 6242 H 583.216 4.08834 2.65906 0
M  V30 6243 H 582.221 5.44058 0.792549 0
M  V30 6244 H 583.446 6.7089 1.0528 0
M  V30 6245 H 581.392 5.78298 3.09689 0
M  V30 6246 H 581.309 7.2429 2.16655 0
M  V30 6247 H 582.577 7.0437 3.33892 0
M  V30 6248 N 586.806 0.0935595 1.57322 0
M  V30 6249 C 587.753 -0.865935 2.1394 0
M  V30 6250 C 588.723 -1.28083 1.05754 0
M  V30 6251 O 589.908 -1.36285 1.33533 0
M  V30 6252 C 587.048 -2.12023 2.72287 0
M  V30 6253 C 586.161 -1.756 3.94701 0
M  V30 6254 C 585.296 -2.95804 4.41218 0
M  V30 6255 C 584.335 -2.555 5.56225 0
M  V30 6256 N 583.472 -3.68534 5.97601 0
M  V30 6257 H 588.312 -0.376261 2.95615 0
M  V30 6258 H 585.849 -0.174052 1.46067 0
M  V30 6259 H 587.807 -2.85477 3.04235 0
M  V30 6260 H 586.437 -2.58492 1.93343 0
M  V30 6261 H 585.489 -0.921208 3.69077 0
M  V30 6262 H 586.801 -1.41964 4.78171 0
M  V30 6263 H 585.955 -3.77513 4.74941 0
M  V30 6264 H 584.694 -3.32649 3.56645 0
M  V30 6265 H 583.699 -1.72218 5.22131 0
M  V30 6266 H 584.924 -2.19801 6.42545 0
M  V30 6267 H 582.87 -4.051 5.15974 0
M  V30 6268 H 582.787 -3.38737 6.75865 0
M  V30 6269 H 584.055 -4.50757 6.35955 0
M  V30 6270 N 588.284 -1.56567 -0.180126 0
M  V30 6271 C 589.509 -1.85975 -0.918041 0
M  V30 6272 C 589.934 -0.678888 -1.75422 0
M  V30 6273 O 589.292 0.372168 -1.77439 0
M  V30 6274 C 589.34 -3.13731 -1.77779 0
M  V30 6275 O 588.444 -2.95335 -2.87838 0
M  V30 6276 H 587.785 -0.61196 -0.257683 0
M  V30 6277 H 590.315 -2.03798 -0.180923 0
M  V30 6278 H 590.325 -3.4491 -2.17948 0
M  V30 6279 H 589 -3.99293 -1.16352 0
M  V30 6280 H 587.577 -2.7549 -2.51316 0
M  V30 6281 N 589.762 0.448376 -1.51087 0
M  V30 6282 C 591.009 1.19872 -1.63209 0
M  V30 6283 C 591.337 1.91451 -0.343062 0
M  V30 6284 O 590.592 1.83789 0.672321 0
M  V30 6285 C 590.891 2.24866 -2.77795 0
M  V30 6286 C 590.557 1.70378 -4.17471 0
M  V30 6287 C 589.219 1.55241 -4.55471 0
M  V30 6288 C 591.571 1.30203 -5.04675 0
M  V30 6289 C 588.899 0.983844 -5.78392 0
M  V30 6290 C 591.251 0.747798 -6.28165 0
M  V30 6291 C 589.915 0.583233 -6.64947 0
M  V30 6292 H 589.185 0.438642 -0.597222 0
M  V30 6293 H 591.832 0.49136 -1.85089 0
M  V30 6294 H 590.137 3.01598 -2.50092 0
M  V30 6295 H 591.834 2.82723 -2.84374 0
M  V30 6296 H 588.424 1.83134 -3.87505 0
M  V30 6297 H 592.608 1.40723 -4.75932 0
M  V30 6298 H 587.864 0.844007 -6.05546 0
M  V30 6299 H 592.038 0.427927 -6.95084 0
M  V30 6300 H 589.665 0.140532 -7.6007 0
M  V30 6301 N 591.24 1.41047 0.703093 0
M  V30 6302 C 592.15 1.44645 1.84703 0
M  V30 6303 C 593.166 0.337778 1.7069 0
M  V30 6304 O 594.342 0.584327 1.92737 0
M  V30 6305 C 591.407 1.31928 3.20618 0
M  V30 6306 C 590.468 2.53047 3.46794 0
M  V30 6307 C 589.701 2.40927 4.76224 0
M  V30 6308 O 589.924 1.42978 5.5219 0
M  V30 6309 O 588.858 3.30543 5.03016 0
M  V30 6310 H 592.684 2.41139 1.84624 0
M  V30 6311 H 590.269 1.22504 0.855167 0
M  V30 6312 H 592.151 1.27092 4.01778 0
M  V30 6313 H 590.826 0.385469 3.21397 0
M  V30 6314 H 589.733 2.6346 2.65593 0
M  V30 6315 H 591.066 3.45231 3.50822 0
M  V30 6316 N 592.718 -0.936591 1.26751 0
M  V30 6317 C 593.628 -2.06949 1.10496 0
M  V30 6318 C 594.644 -1.7396 0.037271 0
M  V30 6319 O 595.82 -1.99941 0.241944 0
M  V30 6320 C 592.885 -3.38612 0.744491 0
M  V30 6321 C 591.946 -3.85355 1.89209 0
M  V30 6322 C 591.179 -5.10735 1.54873 0
M  V30 6323 O 591.402 -5.68602 0.452546 0
M  V30 6324 O 590.336 -5.52632 2.38499 0
M  V30 6325 H 594.162 -2.23571 2.05547 0
M  V30 6326 H 591.747 -1.05428 1.05855 0
M  V30 6327 H 593.629 -4.17711 0.556396 0
M  V30 6328 H 592.304 -3.23218 -0.176582 0
M  V30 6329 H 591.211 -3.07182 2.13518 0
M  V30 6330 H 592.544 -4.05277 2.79305 0
M  V30 6331 N 594.196 -1.08629 -1.14182 0
M  V30 6332 C 595.442 -0.818556 -1.85546 0
M  V30 6333 C 595.775 0.654076 -1.82854 0
M  V30 6334 O 595.05 1.48099 -1.26083 0
M  V30 6335 C 595.333 -1.34397 -3.3408 0
M  V30 6336 C 595.186 -2.8821 -3.45333 0
M  V30 6337 C 596.505 -0.971069 -4.29253 0
M  V30 6338 H 593.624 -0.298821 -0.673702 0
M  V30 6339 H 596.266 -1.34629 -1.34071 0
M  V30 6340 H 594.416 -0.895064 -3.78049 0
M  V30 6341 H 596.088 -3.41488 -3.10134 0
M  V30 6342 H 594.331 -3.25756 -2.86471 0
M  V30 6343 H 595.002 -3.20047 -4.49749 0
M  V30 6344 H 597.478 -1.35809 -3.93313 0
M  V30 6345 H 596.354 -1.36586 -5.31635 0
M  V30 6346 H 596.615 0.121659 -4.41933 0
M  V30 6347 N 595.674 1.31259 -0.872281 0
M  V30 6348 C 596.923 1.95893 -0.480493 0
M  V30 6349 C 597.236 1.697 0.972688 0
M  V30 6350 O 598.442 2.28214 1.47073 0
M  V30 6351 C 596.898 3.50705 -0.808342 0
M  V30 6352 C 596.506 3.85735 -2.27844 0
M  V30 6353 C 598.25 4.21719 -0.485136 0
M  V30 6354 C 596.157 5.33668 -2.54858 0
M  V30 6355 H 595.087 0.733182 -0.175955 0
M  V30 6356 H 597.738 1.49396 -1.0655 0
M  V30 6357 H 596.12 3.95706 -0.152558 0
M  V30 6358 H 597.294 3.51686 -2.97748 0
M  V30 6359 H 595.609 3.27792 -2.56791 0
M  V30 6360 H 598.206 5.30559 -0.664166 0
M  V30 6361 H 598.549 4.12316 0.574592 0
M  V30 6362 H 599.082 3.82359 -1.09756 0
M  V30 6363 H 595.821 5.48109 -3.59523 0
M  V30 6364 H 595.341 5.69061 -1.8955 0
M  V30 6365 H 597.02 6.00958 -2.39706 0
M  V30 6366 N 597.152 0.631951 1.44375 0
M  V30 6367 C 598.1 -0.0846693 2.32446 0
M  V30 6368 C 599.094 -0.834957 1.47393 0
M  V30 6369 O 600.3 -0.747764 1.63733 0
M  V30 6370 H 596.675 -0.0461508 0.750583 0
M  V30 6371 H 598.646 0.67619 2.90638 0
M  V30 6372 C 597.395 -1.05211 3.314 0
M  V30 6373 H 596.718 -0.484203 3.96857 0
M  V30 6374 H 598.158 -1.523 3.95703 0
M  V30 6375 C 596.617 -2.13776 2.60387 0
M  V30 6376 O 597.147 -3.21869 2.4034 0
M  V30 6377 N 595.353 -1.89733 2.20113 0
M  V30 6378 H 594.9 -1.01833 2.36618 0
M  V30 6379 H 594.858 -2.62572 1.72926 0
M  V30 6380 N 598.631 -1.53133 0.372548 0
M  V30 6381 C 599.561 -2.28876 -0.462412 0
M  V30 6382 C 600.542 -1.31583 -1.07796 0
M  V30 6383 O 601.727 -1.60461 -1.09389 0
M  V30 6384 C 598.857 -3.08317 -1.59868 0
M  V30 6385 C 597.811 -4.13355 -1.11003 0
M  V30 6386 C 597.137 -4.8092 -2.33708 0
M  V30 6387 C 598.437 -5.21955 -0.18983 0
M  V30 6388 H 600.131 -2.9892 0.169511 0
M  V30 6389 H 597.677 -1.43761 0.0829658 0
M  V30 6390 H 599.63 -3.60055 -2.18949 0
M  V30 6391 H 598.354 -2.35976 -2.25794 0
M  V30 6392 H 597.013 -3.62573 -0.541869 0
M  V30 6393 H 596.661 -4.05144 -2.98106 0
M  V30 6394 H 596.361 -5.51904 -2.01682 0
M  V30 6395 H 597.885 -5.35455 -2.93462 0
M  V30 6396 H 599.299 -5.69153 -0.688319 0
M  V30 6397 H 597.696 -6.00087 0.0398887 0
M  V30 6398 H 598.766 -4.78811 0.766057 0
M  V30 6399 N 600.109 -0.101901 -1.5727 0
M  V30 6400 C 601.355 0.561027 -1.94885 0
M  V30 6401 C 601.688 1.6741 -0.984258 0
M  V30 6402 O 600.963 1.94491 -0.0184767 0
M  V30 6403 C 601.246 1.10982 -3.42571 0
M  V30 6404 C 601.099 0.00133418 -4.498 0
M  V30 6405 C 602.418 2.00608 -3.9172 0
M  V30 6406 H 599.537 0.202467 -0.708644 0
M  V30 6407 H 602.179 -0.173992 -1.89202 0
M  V30 6408 H 600.329 1.73621 -3.47546 0
M  V30 6409 H 602.001 -0.63322 -4.56933 0
M  V30 6410 H 600.244 -0.664143 -4.28686 0
M  V30 6411 H 600.915 0.426253 -5.50352 0
M  V30 6412 H 603.391 1.47864 -3.88941 0
M  V30 6413 H 602.267 2.3593 -4.95609 0
M  V30 6414 H 602.528 2.92608 -3.3141 0
M  V30 6415 N 601.587 1.56661 0.17182 0
M  V30 6416 C 602.864 1.72838 0.915778 0
M  V30 6417 C 603.244 0.66316 2.00413 0
M  V30 6418 O 602.592 -0.322123 2.26218 0
M  V30 6419 C 602.802 3.16019 1.48097 0
M  V30 6420 C 604.15 3.76962 1.95408 0
M  V30 6421 O 605.174 3.19294 1.57892 0
M  V30 6422 O 604.033 4.78219 2.64516 0
M  V30 6423 H 601.127 0.705797 0.431021 0
M  V30 6424 H 603.673 1.68947 0.159689 0
M  V30 6425 H 602.445 3.85031 0.697618 0
M  V30 6426 H 602.068 3.24234 2.30126 0
M  V30 6427 N 603.065 -0.440357 1.51323 0
M  V30 6428 C 603.997 -1.55254 1.68609 0
M  V30 6429 C 605.01 -1.52614 0.566812 0
M  V30 6430 O 606.199 -1.57445 0.841032 0
M  V30 6431 C 603.299 -2.94169 1.68279 0
M  V30 6432 C 602.472 -3.21346 2.96742 0
M  V30 6433 C 601.531 -4.3997 2.8864 0
M  V30 6434 O 600.557 -4.38771 3.62586 0
M  V30 6435 N 601.759 -5.43367 2.04285 0
M  V30 6436 H 604.524 -1.40831 2.6455 0
M  V30 6437 H 602.085 -0.629251 1.49171 0
M  V30 6438 H 604.077 -3.71543 1.60431 0
M  V30 6439 H 602.647 -3.02205 0.799441 0
M  V30 6440 H 601.867 -2.32299 3.18482 0
M  V30 6441 H 603.155 -3.3633 3.81785 0
M  V30 6442 H 602.553 -5.47176 1.43578 0
M  V30 6443 H 601.11 -6.19605 2.02318 0
M  V30 6444 N 604.543 -1.41418 -0.695603 0
M  V30 6445 C 605.771 -1.4413 -1.48439 0
M  V30 6446 C 606.186 -0.0465698 -1.88743 0
M  V30 6447 O 605.543 0.934117 -1.56782 0
M  V30 6448 C 605.594 -2.34998 -2.74696 0
M  V30 6449 O 605.315 -3.69043 -2.36091 0
M  V30 6450 C 606.816 -2.46513 -3.68438 0
M  V30 6451 H 604.036 -0.490905 -0.457442 0
M  V30 6452 H 606.58 -1.85702 -0.856454 0
M  V30 6453 H 604.735 -1.96735 -3.33728 0
M  V30 6454 H 605.149 -4.17505 -3.17474 0
M  V30 6455 H 606.623 -3.1426 -4.53811 0
M  V30 6456 H 607.1 -1.49638 -4.12922 0
M  V30 6457 H 607.706 -2.85412 -3.1531 0
M  V30 6458 N 606.021 0.929856 -1.27246 0
M  V30 6459 C 607.246 1.71674 -1.16374 0
M  V30 6460 C 607.671 1.86064 0.276024 0
M  V30 6461 O 607.029 1.3591 1.19992 0
M  V30 6462 C 607.077 3.09526 -1.85003 0
M  V30 6463 O 606.181 3.96142 -1.14653 0
M  V30 6464 H 605.522 0.52629 -0.404863 0
M  V30 6465 H 608.052 1.16381 -1.68276 0
M  V30 6466 H 608.062 3.59852 -1.92276 0
M  V30 6467 H 606.737 2.98369 -2.89739 0
M  V30 6468 H 605.314 3.54584 -1.15433 0
M  V30 6469 N 607.499 1.09233 1.13605 0
M  V30 6470 C 608.409 0.741939 2.22559 0
M  V30 6471 C 609.425 -0.255236 1.72118 0
M  V30 6472 O 610.601 -0.0970747 2.01166 0
M  V30 6473 C 607.666 0.165595 3.46304 0
M  V30 6474 C 606.727 1.21846 4.11645 0
M  V30 6475 C 605.96 0.669526 5.29484 0
M  V30 6476 O 606.183 -0.508228 5.68131 0
M  V30 6477 O 605.117 1.42361 5.84822 0
M  V30 6478 H 608.943 1.65107 2.54899 0
M  V30 6479 H 606.528 0.866584 1.21699 0
M  V30 6480 H 608.41 -0.152592 4.21124 0
M  V30 6481 H 607.085 -0.716573 3.15669 0
M  V30 6482 H 605.992 1.58931 3.38662 0
M  V30 6483 H 607.325 2.07321 4.46407 0
M  V30 6484 N 608.977 -1.30795 0.87923 0
M  V30 6485 C 609.925 -2.30231 0.331112 0
M  V30 6486 C 610.919 -1.59918 -0.558794 0
M  V30 6487 O 612.125 -1.74441 -0.443866 0
M  V30 6488 H 608.5 -0.746785 0.088409 0
M  V30 6489 H 610.471 -2.73925 1.18353 0
M  V30 6490 C 609.22 -3.44848 -0.444401 0
M  V30 6491 H 608.543 -3.99131 0.231106 0
M  V30 6492 H 609.983 -4.16516 -0.793109 0
M  V30 6493 C 608.442 -2.94329 -1.63926 0
M  V30 6494 O 608.972 -2.93875 -2.73862 0
M  V30 6495 N 607.178 -2.50413 -1.4745 0
M  V30 6496 H 606.725 -2.50982 -0.58015 0
M  V30 6497 H 606.683 -2.16969 -2.27534 0
M  V30 6498 N 610.455 -0.639598 -1.44038 0
M  V30 6499 C 611.418 0.0506628 -2.29144 0
M  V30 6500 C 612.418 0.764001 -1.41491 0
M  V30 6501 O 613.608 0.607309 -1.63271 0
M  V30 6502 C 610.74 1.0824 -3.2326 0
M  V30 6503 H 611.933 -0.697987 -2.91664 0
M  V30 6504 H 609.486 -0.400146 -1.51091 0
M  V30 6505 H 610.221 1.86075 -2.65606 0
M  V30 6506 H 610.006 0.574725 -3.87865 0
M  V30 6507 H 611.496 1.56487 -3.87171 0
M  V30 6508 N 611.933 1.52934 -0.380664 0
M  V30 6509 C 613.344 1.86457 0.0952684 0
M  V30 6510 C 613.695 1.3007 1.46889 0
M  V30 6511 O 612.82 0.628636 2.07068 0
M  V30 6512 C 613.415 3.38323 0.179648 0
M  V30 6513 C 611.974 3.71589 0.599858 0
M  V30 6514 C 611.121 2.76228 -0.243572 0
M  V30 6515 H 614.072 1.46966 -0.59888 0
M  V30 6516 H 614.093 3.67113 1.00042 0
M  V30 6517 H 613.605 3.79333 -0.820228 0
M  V30 6518 H 611.706 3.36144 1.60742 0
M  V30 6519 H 611.819 4.77715 0.364003 0
M  V30 6520 H 610.183 2.53045 0.289855 0
M  V30 6521 H 610.966 3.20074 -1.24127 0
M  V30 6522 N 613.412 0.11024 1.57214 0
M  V30 6523 C 614.64 -0.557834 1.99238 0
M  V30 6524 C 615.055 -1.60778 0.989734 0
M  V30 6525 O 614.412 -1.82491 -0.0186092 0
M  V30 6526 C 614.463 -1.19189 3.41286 0
M  V30 6527 O 614.184 -0.183919 4.37714 0
M  V30 6528 C 615.685 -1.94413 3.98395 0
M  V30 6529 H 612.905 -0.148392 0.654386 0
M  V30 6530 H 615.449 0.193996 2.03578 0
M  V30 6531 H 613.604 -1.89456 3.37913 0
M  V30 6532 H 614.018 -0.643475 5.20538 0
M  V30 6533 H 615.492 -2.34116 4.99894 0
M  V30 6534 H 615.969 -2.81592 3.3705 0
M  V30 6535 H 616.575 -1.28928 4.05287 0
M  V30 6536 N 614.89 -1.56749 -0.16351 0
M  V30 6537 C 616.118 -1.86577 -0.894233 0
M  V30 6538 C 616.533 -0.696543 -1.75481 0
M  V30 6539 O 615.89 0.334161 -1.79415 0
M  V30 6540 C 615.941 -3.15508 -1.76456 0
M  V30 6541 O 615.662 -4.27926 -0.938685 0
M  V30 6542 C 617.163 -3.58737 -2.60428 0
M  V30 6543 H 614.383 -0.618829 -0.259405 0
M  V30 6544 H 616.927 -2.03863 -0.161259 0
M  V30 6545 H 615.082 -3.00025 -2.45079 0
M  V30 6546 H 615.496 -5.01546 -1.53465 0
M  V30 6547 H 616.97 -4.51832 -3.17099 0
M  V30 6548 H 617.447 -2.83229 -3.35675 0
M  V30 6549 H 618.053 -3.76858 -1.97125 0
M  V30 6550 N 616.368 0.432326 -1.51554 0
M  V30 6551 C 617.614 1.18309 -1.64714 0
M  V30 6552 C 617.947 1.90745 -0.364696 0
M  V30 6553 O 617.222 1.8381 0.635936 0
M  V30 6554 C 617.505 2.1961 -2.85383 0
M  V30 6555 C 617.358 1.51223 -4.23617 0
M  V30 6556 C 618.677 3.20538 -3.01569 0
M  V30 6557 H 615.796 0.428751 -0.599451 0
M  V30 6558 H 618.438 0.471689 -1.84052 0
M  V30 6559 H 616.588 2.8028 -2.69027 0
M  V30 6560 H 618.26 0.938516 -4.51652 0
M  V30 6561 H 616.503 0.814501 -4.26085 0
M  V30 6562 H 617.174 2.25024 -5.04052 0
M  V30 6563 H 619.65 2.69926 -3.16669 0
M  V30 6564 H 618.526 3.88706 -3.87555 0
M  V30 6565 H 618.787 3.86933 -2.13859 0
M  V30 6566 N 617.846 1.41785 0.688094 0
M  V30 6567 C 619.071 1.45117 1.48175 0
M  V30 6568 C 619.496 0.060129 1.88004 0
M  V30 6569 O 618.854 -0.938385 1.55126 0
M  V30 6570 C 618.902 2.37224 2.71583 0
M  V30 6571 O 618.006 1.83443 3.69354 0
M  V30 6572 H 617.347 0.492208 0.445676 0
M  V30 6573 H 619.877 1.86329 0.845145 0
M  V30 6574 H 619.887 2.53353 3.19806 0
M  V30 6575 H 618.562 3.38293 2.41931 0
M  V30 6576 H 617.139 1.76802 3.28322 0
M  V30 6577 N 619.324 -0.923095 1.27737 0
M  V30 6578 C 620.74 -1.19985 1.05241 0
M  V30 6579 C 620.94 -2.00391 -0.21113 0
M  V30 6580 O 619.996 -2.35324 -0.915366 0
M  V30 6581 C 621.309 -1.94352 2.29451 0
M  V30 6582 C 622.857 -2.07273 2.34536 0
M  V30 6583 C 623.332 -2.85046 3.58487 0
M  V30 6584 N 624.823 -2.92612 3.59072 0
M  V30 6585 C 625.558 -3.53266 4.51654 0
M  V30 6586 N 625.054 -4.15274 5.54545 0
M  V30 6587 N 626.847 -3.50714 4.39268 0
M  V30 6588 H 618.998 -0.386042 2.08862 0
M  V30 6589 H 621.261 -0.233407 0.918817 0
M  V30 6590 H 620.967 -1.42692 3.21453 0
M  V30 6591 H 620.841 -2.94947 2.3513 0
M  V30 6592 H 623.228 -2.58117 1.43037 0
M  V30 6593 H 623.309 -1.05884 2.32857 0
M  V30 6594 H 622.953 -2.34884 4.50324 0
M  V30 6595 H 622.883 -3.8673 3.57418 0
M  V30 6596 H 625.374 -2.48547 2.84663 0
M  V30 6597 H 625.687 -4.59507 6.21348 0
M  V30 6598 H 624.032 -4.13806 5.58382 0
M  V30 6599 H 627.223 -3.01475 3.58093 0
M  V30 6600 H 627.396 -3.97693 5.1161 0
M  V30 6601 N 620.802 -1.09834 -1.13024 0
M  V30 6602 C 622.079 -0.749225 -1.80682 0
M  V30 6603 C 622.459 0.765171 -1.96744 0
M  V30 6604 O 621.807 1.68912 -1.53886 0
M  V30 6605 C 622.017 -1.49311 -3.15448 0
M  V30 6606 C 623.365 -1.66162 -3.90737 0
M  V30 6607 O 624.389 -1.45597 -3.25085 0
M  V30 6608 O 623.248 -2.00211 -5.08505 0
M  V30 6609 H 620.342 -0.269614 -0.781817 0
M  V30 6610 H 622.888 -1.20078 -1.19914 0
M  V30 6611 H 621.66 -2.52407 -2.99009 0
M  V30 6612 H 621.283 -1.034 -3.8392 0
M  V30 6613 N 622.28 1.30327 -0.886154 0
M  V30 6614 C 623.526 1.96388 -0.505941 0
M  V30 6615 C 623.859 1.69784 0.942712 0
M  V30 6616 O 623.134 1.00322 1.6663 0
M  V30 6617 C 623.417 3.51488 -0.782826 0
M  V30 6618 C 623.27 3.87603 -2.28219 0
M  V30 6619 C 624.589 4.39331 -0.260128 0
M  V30 6620 H 621.708 0.713327 -0.185292 0
M  V30 6621 H 624.35 1.54178 -1.11036 0
M  V30 6622 H 622.5 3.87572 -0.268399 0
M  V30 6623 H 624.172 3.61537 -2.86512 0
M  V30 6624 H 622.415 3.3563 -2.74837 0
M  V30 6625 H 623.086 4.95806 -2.42653 0
M  V30 6626 H 625.562 4.10162 -0.700444 0
M  V30 6627 H 624.438 5.46769 -0.483179 0
M  V30 6628 H 624.699 4.34072 0.838674 0
M  V30 6629 N 623.758 0.647228 1.43697 0
M  V30 6630 C 624.668 -0.0487997 2.34549 0
M  V30 6631 C 625.684 -0.818586 1.53542 0
M  V30 6632 O 626.86 -0.767195 1.86215 0
M  V30 6633 C 623.925 -1.00734 3.31743 0
M  V30 6634 C 622.986 -0.23515 4.28655 0
M  V30 6635 C 622.219 -1.14803 5.21206 0
M  V30 6636 O 622.442 -2.38717 5.18045 0
M  V30 6637 O 621.376 -0.623667 5.9866 0
M  V30 6638 H 625.202 0.698863 2.9555 0
M  V30 6639 H 622.787 0.407412 1.43738 0
M  V30 6640 H 624.669 -1.55837 3.91526 0
M  V30 6641 H 623.344 -1.73534 2.73254 0
M  V30 6642 H 622.251 0.359319 3.7237 0
M  V30 6643 H 623.584 0.453152 4.9011 0
M  V30 6644 N 625.236 -1.5273 0.388769 0
M  V30 6645 C 626.146 -2.30165 -0.453993 0
M  V30 6646 C 627.162 -1.37058 -1.07197 0
M  V30 6647 O 628.338 -1.70127 -1.0779 0
M  V30 6648 C 625.403 -3.09303 -1.56628 0
M  V30 6649 C 624.464 -4.18117 -0.973467 0
M  V30 6650 C 623.697 -4.93472 -2.03275 0
M  V30 6651 O 623.92 -4.68913 -3.24772 0
M  V30 6652 O 622.854 -5.78833 -1.65034 0
M  V30 6653 H 626.68 -3.03185 0.176816 0
M  V30 6654 H 624.265 -1.4862 0.152501 0
M  V30 6655 H 626.147 -3.58648 -2.21246 0
M  V30 6656 H 624.822 -2.39098 -2.18206 0
M  V30 6657 H 623.729 -3.7297 -0.290556 0
M  V30 6658 H 625.062 -4.90556 -0.401908 0
M  V30 6659 N 626.714 -0.118576 -1.57153 0
M  V30 6660 C 627.661 0.831789 -2.1529 0
M  V30 6661 C 628.631 1.26385 -1.07778 0
M  V30 6662 O 629.816 1.34144 -1.35684 0
M  V30 6663 C 626.956 2.07664 -2.75626 0
M  V30 6664 C 626.069 1.69298 -3.97444 0
M  V30 6665 C 625.204 2.88747 -4.45868 0
M  V30 6666 C 624.243 2.46619 -5.60219 0
M  V30 6667 N 623.38 3.5898 -6.03389 0
M  V30 6668 H 628.22 0.329183 -2.96176 0
M  V30 6669 H 625.757 0.150792 -1.46325 0
M  V30 6670 H 627.715 2.80601 -3.08738 0
M  V30 6671 H 626.345 2.55384 -1.97431 0
M  V30 6672 H 625.397 0.862374 -3.70496 0
M  V30 6673 H 626.709 1.34338 -4.80369 0
M  V30 6674 H 625.863 3.69909 -4.80887 0
M  V30 6675 H 624.602 3.26933 -3.61892 0
M  V30 6676 H 623.607 1.63889 -5.24805 0
M  V30 6677 H 624.832 2.0955 -6.45961 0
M  V30 6678 H 622.778 3.9684 -5.22354 0
M  V30 6679 H 622.695 3.27942 -6.81168 0
M  V30 6680 H 623.963 4.40583 -6.43045 0
M  V30 6681 N 628.193 1.56834 0.155195 0
M  V30 6682 C 629.604 1.72421 0.716082 0
M  V30 6683 C 629.955 0.731685 1.82046 0
M  V30 6684 O 629.08 -0.103481 2.16152 0
M  V30 6685 C 629.675 3.12629 1.30571 0
M  V30 6686 C 628.234 3.29846 1.81325 0
M  V30 6687 C 627.381 2.68359 0.698494 0
M  V30 6688 H 630.332 1.58544 -0.0703861 0
M  V30 6689 H 630.353 3.12174 2.1755 0
M  V30 6690 H 629.865 3.84844 0.501701 0
M  V30 6691 H 627.966 2.62614 2.64319 0
M  V30 6692 H 628.079 4.37727 1.9476 0
M  V30 6693 H 626.443 2.28604 1.12305 0
M  V30 6694 H 627.226 3.43171 -0.0939366 0
M  V30 6695 N 629.671 -0.424282 1.51781 0
M  V30 6696 C 630.634 -1.49848 1.73431 0
M  V30 6697 C 631.634 -1.49016 0.604225 0
M  V30 6698 O 632.824 -1.50808 0.871935 0
M  V30 6699 C 629.956 -2.89332 1.80277 0
M  V30 6700 H 631.149 -1.3195 2.69312 0
M  V30 6701 H 628.702 -0.653809 1.41968 0
M  V30 6702 H 629.437 -3.12618 0.862568 0
M  V30 6703 H 629.222 -2.9134 2.62419 0
M  V30 6704 H 630.712 -3.67233 1.98821 0
M  V30 6705 N 631.149 -1.42148 -0.680565 0
M  V30 6706 C 632.099 -1.41634 -1.78672 0
M  V30 6707 C 633.083 -0.288494 -1.58293 0
M  V30 6708 O 634.275 -0.530295 -1.68869 0
M  V30 6709 C 631.404 -1.31558 -3.17092 0
M  V30 6710 C 630.49 -2.49265 -3.43115 0
M  V30 6711 N 630.881 -3.74702 -3.39753 0
M  V30 6712 C 629.179 -2.43401 -3.73727 0
M  V30 6713 C 629.88 -4.52854 -3.651 0
M  V30 6714 N 628.856 -3.83181 -3.85582 0
M  V30 6715 H 632.658 -2.3652 -1.74458 0
M  V30 6716 H 630.172 -1.36415 -0.881171 0
M  V30 6717 H 632.169 -1.29272 -3.96351 0
M  V30 6718 H 630.829 -0.376696 -3.22508 0
M  V30 6719 H 631.84 -4.07378 -3.19787 0
M  V30 6720 H 628.517 -1.58062 -3.86423 0
M  V30 6721 H 629.907 -5.61827 -3.6851 0
M  V30 6722 N 632.627 0.916307 -1.28225 0
M  V30 6723 C 633.59 1.99996 -1.11957 0
M  V30 6724 C 634.59 1.60688 -0.0600152 0
M  V30 6725 O 635.78 1.71499 -0.30558 0
M  V30 6726 C 632.912 3.33458 -0.708411 0
M  V30 6727 H 634.105 2.15858 -2.08196 0
M  V30 6728 H 631.658 1.09863 -1.11175 0
M  V30 6729 H 632.393 3.23297 0.254859 0
M  V30 6730 H 632.178 3.63349 -1.47377 0
M  V30 6731 H 633.668 4.13014 -0.617164 0
M  V30 6732 N 634.105 1.10431 1.1244 0
M  V30 6733 C 635.516 0.864439 1.65482 0
M  V30 6734 C 635.867 -0.60527 1.8663 0
M  V30 6735 O 634.992 -1.46492 1.59276 0
M  V30 6736 C 635.587 1.56267 3.0061 0
M  V30 6737 C 634.146 1.3695 3.50602 0
M  V30 6738 C 633.293 1.61209 2.25626 0
M  V30 6739 H 636.244 1.26203 0.962209 0
M  V30 6740 H 636.265 1.00166 3.67079 0
M  V30 6741 H 635.777 2.63231 2.85186 0
M  V30 6742 H 633.878 0.321481 3.71211 0
M  V30 6743 H 633.991 2.11143 4.30064 0
M  V30 6744 H 632.355 1.03482 2.32731 0
M  V30 6745 H 633.138 2.69425 2.12756 0
M  V30 6746 N 635.583 -1.29855 0.893053 0
M  V30 6747 C 636.546 -2.26183 0.370687 0
M  V30 6748 C 637.546 -1.53108 -0.491385 0
M  V30 6749 O 638.736 -1.71643 -0.297386 0
M  V30 6750 C 635.868 -3.37633 -0.470827 0
M  V30 6751 H 637.061 -2.73903 1.22135 0
M  V30 6752 H 634.614 -1.41183 0.67061 0
M  V30 6753 H 635.349 -2.95241 -1.34175 0
M  V30 6754 H 635.134 -3.91825 0.146784 0
M  V30 6755 H 636.624 -4.09313 -0.827825 0
M  V30 6756 N 637.061 -0.65484 -1.43351 0
M  V30 6757 C 638.477 -0.32255 -1.56307 0
M  V30 6758 C 638.677 1.17324 -1.63821 0
M  V30 6759 O 637.733 1.95813 -1.59417 0
M  V30 6760 C 639.046 -1.03533 -2.82314 0
M  V30 6761 C 640.594 -1.01574 -2.9606 0
M  V30 6762 C 641.069 -1.70945 -4.24902 0
M  V30 6763 N 642.56 -1.67716 -4.3177 0
M  V30 6764 C 643.295 -2.18265 -5.30234 0
M  V30 6765 N 642.791 -2.7711 -6.34966 0
M  V30 6766 N 644.584 -2.08756 -5.21898 0
M  V30 6767 H 636.735 -1.62549 -1.36717 0
M  V30 6768 H 638.998 -0.683676 -0.656727 0
M  V30 6769 H 638.704 -2.09045 -2.8283 0
M  V30 6770 H 638.578 -0.587913 -3.7259 0
M  V30 6771 H 640.965 0.0309834 -2.95084 0
M  V30 6772 H 641.046 -1.50186 -2.07069 0
M  V30 6773 H 640.69 -2.75574 -4.26639 0
M  V30 6774 H 640.62 -1.19797 -5.12793 0
M  V30 6775 H 643.111 -1.24777 -3.56706 0
M  V30 6776 H 643.424 -3.13353 -7.06421 0
M  V30 6777 H 641.769 -2.81171 -6.35585 0
M  V30 6778 H 644.96 -1.62488 -4.38994 0
M  V30 6779 H 645.133 -2.48459 -5.98475 0
M  V30 6780 N 638.539 1.52521 -0.396863 0
M  V30 6781 C 639.95 1.86547 0.0754868 0
M  V30 6782 C 640.301 1.31621 1.45501 0
M  V30 6783 O 639.426 0.650563 2.0639 0
M  V30 6784 C 640.021 3.38495 0.143754 0
M  V30 6785 C 638.58 3.72205 0.560413 0
M  V30 6786 C 637.727 2.75954 -0.272856 0
M  V30 6787 H 640.678 1.46323 -0.614434 0
M  V30 6788 H 640.699 3.68153 0.961425 0
M  V30 6789 H 640.211 3.78442 -0.860415 0
M  V30 6790 H 638.312 3.3783 1.57167 0
M  V30 6791 H 638.425 4.78074 0.313314 0
M  V30 6792 H 636.789 2.53339 0.263 0
M  V30 6793 H 637.572 3.1874 -1.27515 0
M  V30 6794 N 640.017 0.126909 1.57088 0
M  V30 6795 C 640.927 -0.833867 2.1928 0
M  V30 6796 C 641.943 -1.2868 1.17122 0
M  V30 6797 O 643.119 -1.34815 1.49622 0
M  V30 6798 C 640.184 -2.0632 2.78627 0
M  V30 6799 C 639.245 -1.66143 3.95847 0
M  V30 6800 C 638.478 -2.83217 4.52354 0
M  V30 6801 O 638.701 -3.98868 4.0775 0
M  V30 6802 O 637.635 -2.59846 5.42922 0
M  V30 6803 H 641.461 -0.334564 3.01852 0
M  V30 6804 H 639.046 -0.0991091 1.49071 0
M  V30 6805 H 640.928 -2.78304 3.16425 0
M  V30 6806 H 639.603 -2.55242 1.99082 0
M  V30 6807 H 638.51 -0.912435 3.62802 0
M  V30 6808 H 639.843 -1.21957 4.76852 0
M  V30 6809 N 641.495 -1.56914 -0.146875 0
M  V30 6810 C 642.458 -1.97368 -1.16526 0
M  V30 6811 C 643.458 -0.860223 -1.35856 0
M  V30 6812 O 644.648 -1.12684 -1.32846 0
M  V30 6813 C 641.78 -2.28974 -2.52555 0
M  V30 6814 H 642.973 -2.88523 -0.818209 0
M  V30 6815 H 640.526 -1.5135 -0.390221 0
M  V30 6816 H 641.261 -1.40611 -2.92231 0
M  V30 6817 H 641.046 -3.10157 -2.39886 0
M  V30 6818 H 642.536 -2.61109 -3.25902 0
M  V30 6819 N 642.974 0.416227 -1.52004 0
M  V30 6820 C 644.385 0.995319 -1.57957 0
M  V30 6821 C 644.736 1.91744 -0.415754 0
M  V30 6822 O 643.861 2.11349 0.464808 0
M  V30 6823 C 644.456 1.81191 -2.86278 0
M  V30 6824 C 643.015 2.34115 -2.94732 0
M  V30 6825 C 642.162 1.139 -2.52828 0
M  V30 6826 H 645.113 0.196716 -1.57476 0
M  V30 6827 H 645.134 2.66859 -2.71231 0
M  V30 6828 H 644.646 1.14051 -3.70963 0
M  V30 6829 H 642.747 3.04647 -2.14525 0
M  V30 6830 H 642.86 2.65466 -3.98829 0
M  V30 6831 H 641.224 1.49081 -2.06511 0
M  V30 6832 H 642.007 0.483383 -3.3988 0
M  V30 6833 N 644.452 1.42507 0.673017 0
M  V30 6834 C 645.698 1.43284 1.43519 0
M  V30 6835 C 646.031 0.049668 1.94136 0
M  V30 6836 O 645.306 -0.926369 1.71022 0
M  V30 6837 C 645.589 2.45874 2.63093 0
M  V30 6838 C 645.442 3.93388 2.18096 0
M  V30 6839 C 646.761 2.45431 3.6531 0
M  V30 6840 H 643.88 0.521752 0.520522 0
M  V30 6841 H 646.522 1.73932 0.764701 0
M  V30 6842 H 644.672 2.19869 3.20296 0
M  V30 6843 H 646.344 4.30379 1.66046 0
M  V30 6844 H 644.587 4.07169 1.49652 0
M  V30 6845 H 645.258 4.60752 3.03993 0
M  V30 6846 H 647.734 2.68561 3.17827 0
M  V30 6847 H 646.61 3.19189 4.46553 0
M  V30 6848 H 646.871 1.48092 4.16559 0
M  V30 6849 N 645.93 -0.909495 1.28709 0
M  V30 6850 C 647.207 -1.63865 1.06806 0
M  V30 6851 C 647.587 -2.07445 -0.391143 0
M  V30 6852 O 646.935 -1.82269 -1.37805 0
M  V30 6853 C 647.145 -2.82692 2.04661 0
M  V30 6854 C 648.493 -3.5361 2.35042 0
M  V30 6855 O 649.517 -2.92847 2.02779 0
M  V30 6856 O 648.376 -4.63131 2.90124 0
M  V30 6857 H 645.47 -0.719065 0.408502 0
M  V30 6858 H 648.016 -0.958424 1.40044 0
M  V30 6859 H 646.788 -2.47614 3.0299 0
M  V30 6860 H 646.411 -3.58426 1.72095 0
M  V30 6861 N 647.408 -1.11026 -1.11852 0
M  V30 6862 C 648.633 -0.879064 -1.87849 0
M  V30 6863 C 649.058 0.565406 -1.79401 0
M  V30 6864 O 648.416 1.39886 -1.15333 0
M  V30 6865 C 648.464 -1.33985 -3.34784 0
M  V30 6866 O 647.568 -0.508803 -4.09249 0
M  V30 6867 H 646.909 -0.316992 -0.583448 0
M  V30 6868 H 649.439 -1.47863 -1.41413 0
M  V30 6869 H 649.449 -1.33248 -3.85628 0
M  V30 6870 H 648.124 -2.39172 -3.40249 0
M  V30 6871 H 646.701 -0.581913 -3.68332 0
M  V30 6872 N 648.886 1.2938 -0.899927 0
M  V30 6873 C 649.819 2.25911 -0.322386 0
M  V30 6874 C 650.797 1.52447 0.565567 0
M  V30 6875 O 651.981 1.81404 0.512324 0
M  V30 6876 C 649.108 3.3436 0.540455 0
M  V30 6877 C 648.154 4.25579 -0.280211 0
M  V30 6878 S 648.987 5.08526 -1.67814 0
M  V30 6879 C 650.143 6.20476 -0.822224 0
M  V30 6880 H 650.376 2.7455 -1.1406 0
M  V30 6881 H 647.909 1.37606 -0.700285 0
M  V30 6882 H 649.867 3.97303 1.0325 0
M  V30 6883 H 648.528 2.84416 1.33291 0
M  V30 6884 H 647.721 5.02574 0.378915 0
M  V30 6885 H 647.323 3.67287 -0.705405 0
M  V30 6886 H 649.615 6.77485 -0.0457138 0
M  V30 6887 H 650.558 6.90606 -1.56426 0
M  V30 6888 H 650.966 5.63243 -0.37651 0
M  V30 6889 N 650.364 0.662433 1.43002 0
M  V30 6890 C 651.294 -0.00979809 2.33498 0
M  V30 6891 C 652.275 -0.802329 1.49989 0
M  V30 6892 O 653.46 -0.761964 1.78627 0
M  V30 6893 C 650.59 -0.970446 3.33466 0
M  V30 6894 C 649.544 -0.287383 4.27034 0
M  V30 6895 C 648.87 -1.36012 5.17112 0
M  V30 6896 C 650.17 0.82595 5.15728 0
M  V30 6897 H 651.864 0.745959 2.89958 0
M  V30 6898 H 649.41 0.360172 1.39423 0
M  V30 6899 H 651.363 -1.44971 3.95679 0
M  V30 6900 H 650.087 -1.75748 2.75282 0
M  V30 6901 H 648.746 0.17152 3.66199 0
M  V30 6902 H 648.394 -2.13882 4.55262 0
M  V30 6903 H 648.094 -0.908276 5.80538 0
M  V30 6904 H 649.618 -1.84056 5.82199 0
M  V30 6905 H 651.032 0.42845 5.71697 0
M  V30 6906 H 649.429 1.20282 5.87922 0
M  V30 6907 H 650.499 1.68003 4.54866 0
M  V30 6908 N 651.842 -1.52309 0.404946 0
M  V30 6909 C 652.789 -2.26898 -0.422597 0
M  V30 6910 C 653.759 -1.2914 -1.04461 0
M  V30 6911 O 654.944 -1.57996 -1.06967 0
M  V30 6912 C 652.084 -3.09053 -1.53559 0
M  V30 6913 C 651.197 -4.21762 -0.934908 0
M  V30 6914 C 650.332 -4.91283 -2.02025 0
M  V30 6915 C 649.371 -5.95962 -1.39628 0
M  V30 6916 N 648.508 -6.59017 -2.42159 0
M  V30 6917 H 653.348 -2.97188 0.219903 0
M  V30 6918 H 650.885 -1.46607 0.120282 0
M  V30 6919 H 652.843 -3.54987 -2.19181 0
M  V30 6920 H 651.473 -2.40942 -2.14818 0
M  V30 6921 H 650.525 -3.80029 -0.167854 0
M  V30 6922 H 651.837 -4.96864 -0.439073 0
M  V30 6923 H 650.991 -5.40601 -2.75383 0
M  V30 6924 H 649.73 -4.15741 -2.54973 0
M  V30 6925 H 648.735 -5.45968 -0.648023 0
M  V30 6926 H 649.96 -6.73445 -0.874553 0
M  V30 6927 H 647.906 -5.86306 -2.94247 0
M  V30 6928 H 647.823 -7.2978 -1.97376 0
M  V30 6929 H 649.091 -7.12974 -3.15099 0
M  V30 6930 N 653.32 -0.135238 -1.57019 0
M  V30 6931 C 654.597 0.563227 -1.87316 0
M  V30 6932 C 654.977 1.83749 -1.03921 0
M  V30 6933 O 654.325 2.2817 -0.122675 0
M  V30 6934 C 654.535 0.840031 -3.3874 0
M  V30 6935 C 655.883 1.18598 -4.077 0
M  V30 6936 O 656.907 0.92977 -3.43851 0
M  V30 6937 O 655.766 1.66758 -5.20436 0
M  V30 6938 H 652.86 0.285971 -0.775983 0
M  V30 6939 H 655.406 -0.170965 -1.68837 0
M  V30 6940 H 654.178 -0.0622785 -3.9125 0
M  V30 6941 H 653.801 1.62882 -3.62706 0
M  V30 6942 N 654.798 1.5699 0.138552 0
M  V30 6943 C 655.731 1.94064 1.2006 0
M  V30 6944 C 656.709 0.807601 1.41126 0
M  V30 6945 O 657.893 1.06399 1.556 0
M  V30 6946 C 655.02 2.21999 2.55801 0
M  V30 6947 C 654.066 3.44617 2.5128 0
M  V30 6948 S 654.899 4.97888 1.97149 0
M  V30 6949 C 656.055 5.28954 3.34602 0
M  V30 6950 H 656.288 2.83843 0.884337 0
M  V30 6951 H 653.821 1.50507 0.344517 0
M  V30 6952 H 655.779 2.38772 3.33914 0
M  V30 6953 H 654.44 1.32869 2.84613 0
M  V30 6954 H 653.633 3.61466 3.51224 0
M  V30 6955 H 653.235 3.27129 1.8128 0
M  V30 6956 H 655.527 5.22938 4.30745 0
M  V30 6957 H 656.47 6.30346 3.22598 0
M  V30 6958 H 656.878 4.56455 3.32128 0
M  V30 6959 N 656.276 -0.40816 1.52223 0
M  V30 6960 C 657.239 -1.48 1.7501 0
M  V30 6961 C 658.239 -1.48367 0.619996 0
M  V30 6962 O 659.429 -1.49874 0.887881 0
M  V30 6963 C 656.561 -2.87403 1.83336 0
M  V30 6964 H 657.754 -1.29086 2.70697 0
M  V30 6965 H 655.307 -0.638715 1.42654 0
M  V30 6966 H 656.042 -3.11686 0.895677 0
M  V30 6967 H 655.827 -2.8854 2.65494 0
M  V30 6968 H 657.317 -3.65103 2.02705 0
M  V30 6969 N 657.755 -1.42862 -0.66545 0
M  V30 6970 C 658.983 -1.47246 -1.45349 0
M  V30 6971 C 659.398 -0.0865944 -1.88601 0
M  V30 6972 O 658.755 0.900652 -1.58728 0
M  V30 6973 C 658.806 -2.40772 -2.6965 0
M  V30 6974 O 658.527 -3.73968 -2.2821 0
M  V30 6975 C 660.028 -2.54272 -3.63126 0
M  V30 6976 H 657.248 -0.500497 -0.446927 0
M  V30 6977 H 659.792 -1.87477 -0.816871 0
M  V30 6978 H 657.947 -2.0377 -3.29479 0
M  V30 6979 H 658.361 -4.24146 -3.08546 0
M  V30 6980 H 659.835 -3.23815 -4.47043 0
M  V30 6981 H 660.312 -1.58364 -4.09656 0
M  V30 6982 H 660.918 -2.92036 -3.09185 0
M  V30 6983 N 659.233 0.902656 -1.29189 0
M  V30 6984 C 660.482 1.6475 -1.16362 0
M  V30 6985 C 660.795 1.93517 0.284682 0
M  V30 6986 O 662.001 2.66192 0.534229 0
M  V30 6987 C 660.457 2.96848 -2.03493 0
M  V30 6988 C 660.065 2.75687 -3.5313 0
M  V30 6989 C 661.809 3.74762 -1.99383 0
M  V30 6990 C 659.716 4.03492 -4.32375 0
M  V30 6991 H 658.646 0.618041 -0.431904 0
M  V30 6992 H 661.297 1.0008 -1.53806 0
M  V30 6993 H 659.679 3.62715 -1.58916 0
M  V30 6994 H 660.853 2.18431 -4.05739 0
M  V30 6995 H 659.168 2.11171 -3.58881 0
M  V30 6996 H 661.765 4.69515 -2.5585 0
M  V30 6997 H 662.108 4.04767 -0.973123 0
M  V30 6998 H 662.641 3.15732 -2.41988 0
M  V30 6999 H 659.38 3.78656 -5.3507 0
M  V30 7000 H 658.9 4.60318 -3.84535 0
M  V30 7001 H 660.579 4.71662 -4.42881 0
M  V30 7002 N 660.711 1.11618 1.11262 0
M  V30 7003 C 661.96 0.860934 1.82403 0
M  V30 7004 C 662.273 -0.615303 1.8567 0
M  V30 7005 O 663.479 -0.986861 2.52929 0
M  V30 7006 C 661.935 1.49048 3.27586 0
M  V30 7007 C 661.543 3.00089 3.32642 0
M  V30 7008 C 663.287 1.31515 4.03614 0
M  V30 7009 C 661.194 3.56019 4.72234 0
M  V30 7010 H 660.124 0.318423 0.683464 0
M  V30 7011 H 662.775 1.34165 1.25188 0
M  V30 7012 H 661.157 0.937434 3.84744 0
M  V30 7013 H 662.331 3.61813 2.85356 0
M  V30 7014 H 660.646 3.16919 2.70096 0
M  V30 7015 H 663.243 1.70732 5.0671 0
M  V30 7016 H 663.586 0.257917 4.155 0
M  V30 7017 H 664.119 1.83694 3.52848 0
M  V30 7018 H 660.858 4.61463 4.65545 0
M  V30 7019 H 660.378 2.99066 5.19923 0
M  V30 7020 H 662.057 3.54568 5.41193 0
M  V30 7021 N 662.189 -1.289 0.906776 0
M  V30 7022 C 663.119 -2.29932 0.406659 0
M  V30 7023 C 664.1 -1.6189 -0.522061 0
M  V30 7024 O 665.285 -1.8935 -0.431283 0
M  V30 7025 C 662.415 -3.45425 -0.360366 0
M  V30 7026 C 661.369 -4.25316 0.478574 0
M  V30 7027 C 660.695 -5.33076 -0.416373 0
M  V30 7028 C 661.995 -4.92739 1.7322 0
M  V30 7029 H 663.689 -2.72013 1.25097 0
M  V30 7030 H 661.235 -1.30768 0.602977 0
M  V30 7031 H 663.188 -4.15186 -0.721029 0
M  V30 7032 H 661.912 -3.02206 -1.23852 0
M  V30 7033 H 660.571 -3.57273 0.821662 0
M  V30 7034 H 660.219 -4.86101 -1.29287 0
M  V30 7035 H 659.919 -5.8743 0.141309 0
M  V30 7036 H 661.443 -6.05686 -0.773072 0
M  V30 7037 H 662.857 -5.54898 1.44086 0
M  V30 7038 H 661.254 -5.57057 2.23175 0
M  V30 7039 H 662.324 -4.17625 2.46408 0
M  V30 7040 N 663.667 -0.670007 -1.42649 0
M  V30 7041 C 664.892 -0.196955 -2.06463 0
M  V30 7042 C 665.317 1.1352 -1.49983 0
M  V30 7043 O 664.675 1.705 -0.616397 0
M  V30 7044 C 664.723 -0.137381 -3.60338 0
M  V30 7045 O 663.827 0.895523 -4.02559 0
M  V30 7046 H 663.168 -0.102579 -0.656029 0
M  V30 7047 H 665.698 -0.917669 -1.82866 0
M  V30 7048 H 665.708 0.0403625 -4.0798 0
M  V30 7049 H 664.383 -1.10977 -4.0082 0
M  V30 7050 H 662.96 0.689209 -3.66476 0
M  V30 7051 N 665.145 1.52092 -0.413018 0
M  V30 7052 C 666.373 2.06274 0.160881 0
M  V30 7053 C 666.788 1.28273 1.38533 0
M  V30 7054 O 666.145 0.33563 1.79387 0
M  V30 7055 C 666.196 3.57921 0.507443 0
M  V30 7056 O 665.917 4.32971 -0.668388 0
M  V30 7057 C 667.418 4.28533 1.13465 0
M  V30 7058 H 664.638 0.67074 0.0186759 0
M  V30 7059 H 667.182 1.95951 -0.585092 0
M  V30 7060 H 665.337 3.68238 1.20331 0
M  V30 7061 H 665.751 5.23135 -0.378169 0
M  V30 7062 H 667.225 5.35804 1.32732 0
M  V30 7063 H 667.702 3.85258 2.10886 0
M  V30 7064 H 668.308 4.22595 0.478876 0
M  V30 7065 N 666.623 0.143563 1.56945 0
M  V30 7066 C 667.87 -0.508407 1.96014 0
M  V30 7067 C 668.198 -1.65099 1.02824 0
M  V30 7068 O 667.453 -1.95618 0.0567764 0
M  V30 7069 C 667.752 -1.05885 3.41355 0
M  V30 7070 C 667.418 -0.0350809 4.50886 0
M  V30 7071 C 666.08 0.246362 4.80569 0
M  V30 7072 C 668.432 0.661282 5.16988 0
M  V30 7073 C 665.76 1.23003 5.73661 0
M  V30 7074 C 668.112 1.63375 6.11139 0
M  V30 7075 C 666.776 1.92292 6.39203 0
M  V30 7076 H 666.046 -0.186039 0.717266 0
M  V30 7077 H 668.693 0.229667 1.90118 0
M  V30 7078 H 666.998 -1.87419 3.44066 0
M  V30 7079 H 668.695 -1.57183 3.6891 0
M  V30 7080 H 665.285 -0.264622 4.27782 0
M  V30 7081 H 669.469 0.457038 4.94191 0
M  V30 7082 H 664.725 1.46056 5.93698 0
M  V30 7083 H 668.899 2.17887 6.61436 0
M  V30 7084 H 666.526 2.68666 7.11142 0
M  V30 7085 N 668.101 -1.57061 -0.130224 0
M  V30 7086 C 669.031 -2.02552 -1.16168 0
M  V30 7087 C 670.012 -0.907971 -1.4384 0
M  V30 7088 O 671.197 -1.17693 -1.54473 0
M  V30 7089 C 668.327 -2.42035 -2.49071 0
M  V30 7090 C 667.281 -3.5713 -2.35886 0
M  V30 7091 C 666.607 -3.82478 -3.7365 0
M  V30 7092 C 667.907 -4.89236 -1.8288 0
M  V30 7093 H 669.601 -2.8897 -0.783359 0
M  V30 7094 H 667.147 -1.39021 -0.375376 0
M  V30 7095 H 669.1 -2.72462 -3.21469 0
M  V30 7096 H 667.824 -1.52573 -2.88771 0
M  V30 7097 H 666.483 -3.26895 -1.65938 0
M  V30 7098 H 666.131 -2.9024 -4.10816 0
M  V30 7099 H 665.831 -4.59944 -3.65685 0
M  V30 7100 H 667.355 -4.15347 -4.47571 0
M  V30 7101 H 668.769 -5.18272 -2.45085 0
M  V30 7102 H 667.166 -5.70624 -1.85763 0
M  V30 7103 H 668.236 -4.78494 -0.785571 0
M  V30 7104 N 669.579 0.400081 -1.52437 0
M  V30 7105 C 670.509 1.4947 -1.7939 0
M  V30 7106 C 671.49 1.57383 -0.645329 0
M  V30 7107 O 672.675 1.72511 -0.891826 0
M  V30 7108 C 669.805 2.87201 -1.95276 0
M  V30 7109 C 668.759 2.94134 -3.10917 0
M  V30 7110 C 668.085 4.34207 -3.1204 0
M  V30 7111 C 669.385 2.64791 -4.50203 0
M  V30 7112 H 671.079 1.27165 -2.71052 0
M  V30 7113 H 668.625 0.610312 -1.30427 0
M  V30 7114 H 670.578 3.63772 -2.12715 0
M  V30 7115 H 669.302 3.10819 -1.00294 0
M  V30 7116 H 667.961 2.20009 -2.93243 0
M  V30 7117 H 667.609 4.54848 -2.14761 0
M  V30 7118 H 667.309 4.39768 -3.89715 0
M  V30 7119 H 668.833 5.127 -3.31619 0
M  V30 7120 H 670.247 3.31083 -4.68035 0
M  V30 7121 H 668.644 2.81717 -5.29864 0
M  V30 7122 H 669.714 1.60184 -4.57678 0
M  V30 7123 N 671.057 1.43213 0.657864 0
M  V30 7124 C 672.306 1.43871 1.41365 0
M  V30 7125 C 672.619 0.064898 1.95492 0
M  V30 7126 O 673.825 -0.0510796 2.71452 0
M  V30 7127 C 672.281 2.53158 2.55811 0
M  V30 7128 C 671.889 3.96624 2.08311 0
M  V30 7129 C 673.633 2.63004 3.3321 0
M  V30 7130 C 671.54 4.97385 3.1994 0
M  V30 7131 H 670.47 0.535174 0.531136 0
M  V30 7132 H 673.121 1.69185 0.710543 0
M  V30 7133 H 671.503 2.21037 3.2857 0
M  V30 7134 H 672.677 4.38182 1.42593 0
M  V30 7135 H 670.992 3.90781 1.43804 0
M  V30 7136 H 673.589 3.3546 4.16378 0
M  V30 7137 H 673.932 1.67918 3.80932 0
M  V30 7138 H 674.465 2.94403 2.67529 0
M  V30 7139 H 671.204 5.94007 2.77192 0
M  V30 7140 H 670.724 4.60444 3.84385 0
M  V30 7141 H 672.403 5.19877 3.85145 0
M  V30 7142 N 672.536 -0.895792 1.29666 0
M  V30 7143 C 673.784 -1.64339 1.17631 0
M  V30 7144 C 674.105 -1.93099 -0.271643 0
M  V30 7145 O 673.375 -1.55981 -1.18518 0
M  V30 7146 H 671.955 -0.609162 0.432354 0
M  V30 7147 H 674.617 -1.07389 1.62646 0
M  V30 7148 H 673.713 -2.59815 1.72924 0
M  V30 7149 N 674.014 -1.12206 -1.10668 0
M  V30 7150 C 675.26 -0.887096 -1.83036 0
M  V30 7151 C 675.615 0.580887 -1.83422 0
M  V30 7152 O 674.908 1.42379 -1.28213 0
M  V30 7153 C 675.102 -1.39276 -3.29146 0
M  V30 7154 C 674.931 -2.90837 -3.42992 0
M  V30 7155 C 673.701 -3.59047 -3.55546 0
M  V30 7156 C 675.899 -3.8885 -3.36601 0
M  V30 7157 N 673.881 -4.98747 -3.57945 0
M  V30 7158 C 675.252 -5.14666 -3.45716 0
M  V30 7159 C 677.307 -3.81296 -3.20184 0
M  V30 7160 C 676.01 -6.33814 -3.40106 0
M  V30 7161 C 678.036 -4.99965 -3.15895 0
M  V30 7162 C 677.398 -6.24637 -3.25589 0
M  V30 7163 H 673.497 -0.377857 -0.684652 0
M  V30 7164 H 676.081 -1.42791 -1.32358 0
M  V30 7165 H 674.252 -0.879026 -3.78322 0
M  V30 7166 H 675.984 -1.10011 -3.89461 0
M  V30 7167 H 672.739 -3.09533 -3.5845 0
M  V30 7168 H 673.163 -5.71606 -3.62762 0
M  V30 7169 H 677.805 -2.85806 -3.11569 0
M  V30 7170 H 675.523 -7.29574 -3.47487 0
M  V30 7171 H 679.109 -4.95847 -3.04347 0
M  V30 7172 H 677.989 -7.14921 -3.22269 0
M  V30 7173 N 675.492 1.28418 -0.913599 0
M  V30 7174 C 676.738 1.9527 -0.547484 0
M  V30 7175 C 677.071 1.71745 0.906486 0
M  V30 7176 O 676.346 1.03834 1.64465 0
M  V30 7177 C 676.629 3.49748 -0.857205 0
M  V30 7178 C 676.482 3.82675 -2.3639 0
M  V30 7179 C 677.801 4.3868 -0.353258 0
M  V30 7180 H 674.92 0.709236 -0.200381 0
M  V30 7181 H 677.562 1.51789 -1.14281 0
M  V30 7182 H 675.712 3.86915 -0.350548 0
M  V30 7183 H 677.384 3.55378 -2.94116 0
M  V30 7184 H 675.627 3.29724 -2.81894 0
M  V30 7185 H 676.298 4.90547 -2.53115 0
M  V30 7186 H 678.774 4.08584 -0.787288 0
M  V30 7187 H 677.65 5.45621 -0.599049 0
M  V30 7188 H 677.911 4.35753 0.746413 0
M  V30 7189 N 676.97 0.677563 1.42291 0
M  V30 7190 C 677.933 0.0101085 2.29198 0
M  V30 7191 C 678.933 -0.726219 1.43467 0
M  V30 7192 O 680.123 -0.563807 1.64824 0
M  V30 7193 C 677.255 -0.996316 3.26016 0
M  V30 7194 H 678.448 0.775071 2.89711 0
M  V30 7195 H 676.001 0.440065 1.49977 0
M  V30 7196 H 676.736 -1.78967 2.70446 0
M  V30 7197 H 676.521 -0.471687 3.89253 0
M  V30 7198 H 678.011 -1.46167 3.91184 0
M  V30 7199 N 678.448 -1.51871 0.421078 0
M  V30 7200 C 679.695 -2.01938 -0.15079 0
M  V30 7201 C 680.023 -1.30611 -1.44121 0
M  V30 7202 O 679.278 -0.404631 -1.91471 0
M  V30 7203 C 679.577 -3.54764 -0.433292 0
M  V30 7204 C 679.243 -4.44288 0.76936 0
M  V30 7205 C 677.905 -4.68477 1.09921 0
M  V30 7206 C 680.257 -4.96915 1.57242 0
M  V30 7207 C 677.585 -5.4254 2.2331 0
M  V30 7208 C 679.937 -5.7222 2.69716 0
M  V30 7209 C 678.601 -5.94678 3.03174 0
M  V30 7210 H 677.871 -0.738943 -0.0551781 0
M  V30 7211 H 680.518 -1.82977 0.564945 0
M  V30 7212 H 678.823 -3.71968 -1.23074 0
M  V30 7213 H 680.52 -3.91023 -0.888922 0
M  V30 7214 H 677.11 -4.25646 0.502305 0
M  V30 7215 H 681.294 -4.78125 1.3308 0
M  V30 7216 H 676.55 -5.58146 2.49565 0
M  V30 7217 H 680.724 -6.11992 3.32323 0
M  V30 7218 H 678.351 -6.51848 3.9115 0
M  V30 7219 N 679.926 -0.151884 -1.56866 0
M  V30 7220 C 681.175 0.497992 -1.95456 0
M  V30 7221 C 681.488 1.6569 -1.03953 0
M  V30 7222 O 682.694 2.37173 -1.32142 0
M  V30 7223 C 681.15 0.93732 -3.4748 0
M  V30 7224 C 680.758 -0.194921 -4.47576 0
M  V30 7225 C 682.502 1.55671 -3.94926 0
M  V30 7226 C 680.409 0.26295 -5.90815 0
M  V30 7227 H 679.339 0.189811 -0.729717 0
M  V30 7228 H 681.99 -0.237011 -1.81963 0
M  V30 7229 H 680.372 1.72773 -3.56322 0
M  V30 7230 H 681.546 -0.971951 -4.50433 0
M  V30 7231 H 679.861 -0.72303 -4.10075 0
M  V30 7232 H 682.458 1.91099 -4.99385 0
M  V30 7233 H 682.801 2.44748 -3.36755 0
M  V30 7234 H 683.334 0.831109 -3.89021 0
M  V30 7235 H 680.073 -0.592568 -6.52816 0
M  V30 7236 H 679.593 1.00575 -5.91308 0
M  V30 7237 H 681.272 0.713333 -6.43056 0
M  V30 7238 N 681.404 1.57128 0.121893 0
M  V30 7239 C 682.653 1.83888 0.828748 0
M  V30 7240 C 682.966 0.737087 1.81181 0
M  V30 7241 O 684.172 0.891007 2.56463 0
M  V30 7242 C 682.628 3.26014 1.52455 0
M  V30 7243 C 682.236 4.44195 0.58263 0
M  V30 7244 C 683.98 3.62025 2.21671 0
M  V30 7245 C 681.887 5.77349 1.28149 0
M  V30 7246 H 680.817 0.685856 0.313238 0
M  V30 7247 H 683.468 1.83319 0.0814851 0
M  V30 7248 H 681.85 3.21044 2.31834 0
M  V30 7249 H 683.024 4.60457 -0.177729 0
M  V30 7250 H 681.339 4.164 -0.00241228 0
M  V30 7251 H 683.936 4.58776 2.74643 0
M  V30 7252 H 684.279 2.89315 2.99337 0
M  V30 7253 H 684.812 3.68767 1.49184 0
M  V30 7254 H 681.551 6.53221 0.546189 0
M  V30 7255 H 681.071 5.64978 2.01394 0
M  V30 7256 H 682.75 6.21006 1.81549 0
M  V30 7257 N 682.882 -0.391992 1.52647 0
M  V30 7258 C 684.11 -1.1586 1.71418 0
M  V30 7259 C 684.525 -1.8381 0.431216 0
M  V30 7260 O 683.882 -1.7256 -0.594085 0
M  V30 7261 C 683.933 -2.20888 2.86165 0
M  V30 7262 O 683.654 -1.5571 4.09495 0
M  V30 7263 C 685.155 -3.103 3.1659 0
M  V30 7264 H 682.375 -0.347494 0.574011 0
M  V30 7265 H 684.919 -0.458972 1.99283 0
M  V30 7266 H 683.074 -2.86492 2.6077 0
M  V30 7267 H 683.488 -2.25474 4.73563 0
M  V30 7268 H 684.962 -3.8003 4.00351 0
M  V30 7269 H 685.439 -3.73639 2.30848 0
M  V30 7270 H 686.045 -2.50345 3.43813 0
M  V30 7271 N 684.36 -1.4356 -0.65026 0
M  V30 7272 C 685.59 -1.48563 -1.4357 0
M  V30 7273 C 685.998 -0.103041 -1.88919 0
M  V30 7274 O 685.341 0.897602 -1.60277 0
M  V30 7275 C 685.403 -2.37181 -2.70158 0
M  V30 7276 C 685.067 -3.84673 -2.4673 0
M  V30 7277 C 686.064 -4.75704 -2.09765 0
M  V30 7278 C 683.749 -4.29189 -2.60963 0
M  V30 7279 C 685.743 -6.09249 -1.87334 0
M  V30 7280 C 683.43 -5.62787 -2.38147 0
M  V30 7281 C 684.428 -6.52634 -2.01389 0
M  V30 7282 O 684.116 -7.83761 -1.78813 0
M  V30 7283 H 683.848 -0.506743 -0.447423 0
M  V30 7284 H 686.402 -1.89001 -0.80423 0
M  V30 7285 H 684.632 -1.91636 -3.35876 0
M  V30 7286 H 686.321 -2.33354 -3.32116 0
M  V30 7287 H 687.087 -4.42589 -1.98343 0
M  V30 7288 H 682.966 -3.59529 -2.88548 0
M  V30 7289 H 686.51 -6.7934 -1.58567 0
M  V30 7290 H 682.407 -5.95469 -2.49173 0
M  V30 7291 H 683.175 -7.95368 -1.93214 0
M  V30 7292 N 685.838 0.888903 -1.30139 0
M  V30 7293 C 687.249 1.45578 -1.16893 0
M  V30 7294 C 687.6 1.94825 0.231866 0
M  V30 7295 O 686.725 1.84661 1.12824 0
M  V30 7296 C 687.32 2.646 -2.11595 0
M  V30 7297 C 685.879 3.17389 -2.02339 0
M  V30 7298 C 685.026 1.90081 -2.01902 0
M  V30 7299 H 687.977 0.69921 -1.42467 0
M  V30 7300 H 687.998 3.40687 -1.69449 0
M  V30 7301 H 687.51 2.28726 -3.13538 0
M  V30 7302 H 685.611 3.5793 -1.03523 0
M  V30 7303 H 685.724 3.80955 -2.90534 0
M  V30 7304 H 684.088 2.08246 -1.46648 0
M  V30 7305 H 684.871 1.5647 -3.05568 0
M  V30 7306 N 687.317 1.12792 1.10072 0
M  V30 7307 C 688.247 0.821688 2.18565 0
M  V30 7308 C 689.228 -0.21612 1.68721 0
M  V30 7309 O 690.413 -0.0764932 1.94049 0
M  V30 7310 C 687.543 0.279624 3.46172 0
M  V30 7311 C 686.497 1.25092 4.09312 0
M  V30 7312 C 685.823 0.568916 5.31665 0
M  V30 7313 C 687.123 2.60699 4.52585 0
M  V30 7314 H 688.817 1.72888 2.44438 0
M  V30 7315 H 686.363 0.832702 1.17482 0
M  V30 7316 H 688.316 0.053099 4.21367 0
M  V30 7317 H 687.04 -0.662929 3.19801 0
M  V30 7318 H 685.699 1.46332 3.36129 0
M  V30 7319 H 685.347 -0.378898 5.01571 0
M  V30 7320 H 685.047 1.21687 5.74862 0
M  V30 7321 H 686.571 0.351517 6.09587 0
M  V30 7322 H 687.985 2.43465 5.19035 0
M  V30 7323 H 686.382 3.21608 5.06644 0
M  V30 7324 H 687.452 3.1886 3.65317 0
M  V30 7325 N 688.795 -1.27931 0.920396 0
M  V30 7326 C 690.02 -1.99343 0.572478 0
M  V30 7327 C 690.445 -1.68267 -0.840696 0
M  V30 7328 O 689.803 -0.918805 -1.56294 0
M  V30 7329 C 689.851 -3.51698 0.796284 0
M  V30 7330 O 688.955 -4.12157 -0.141602 0
M  V30 7331 H 688.296 -0.626065 0.221221 0
M  V30 7332 H 690.826 -1.62921 1.23765 0
M  V30 7333 H 690.836 -4.01793 0.708984 0
M  V30 7334 H 689.511 -3.73649 1.82644 0
M  V30 7335 H 688.088 -3.729 -0.005007 0
M  V30 7336 N 690.273 -0.685099 -1.4193 0
M  V30 7337 C 691.206 0.0371639 -2.2817 0
M  V30 7338 C 692.184 0.798436 -1.41647 0
M  V30 7339 O 693.368 0.791428 -1.71081 0
M  V30 7340 C 690.495 1.05993 -3.21688 0
M  V30 7341 C 689.541 0.393043 -4.24685 0
M  V30 7342 S 690.374 -0.856921 -5.28599 0
M  V30 7343 C 691.53 0.164508 -6.25684 0
M  V30 7344 H 691.763 -0.694305 -2.89079 0
M  V30 7345 H 689.296 -0.474999 -1.46912 0
M  V30 7346 H 691.254 1.64489 -3.76103 0
M  V30 7347 H 689.915 1.7639 -2.59895 0
M  V30 7348 H 689.108 1.16513 -4.90348 0
M  V30 7349 H 688.71 -0.118589 -3.73812 0
M  V30 7350 H 691.002 1.02106 -6.69762 0
M  V30 7351 H 691.945 -0.457917 -7.06618 0
M  V30 7352 H 692.353 0.514596 -5.6215 0
M  V30 7353 N 691.751 1.51645 -0.429126 0
M  V30 7354 C 692.701 2.24388 0.404217 0
M  V30 7355 C 693.685 1.26294 0.996933 0
M  V30 7356 O 694.877 1.51428 0.916434 0
M  V30 7357 C 692.006 3.08338 1.50938 0
M  V30 7358 C 691.092 4.13857 0.926464 0
M  V30 7359 N 691.483 5.05749 0.0719732 0
M  V30 7360 C 689.781 4.29695 1.19491 0
M  V30 7361 C 690.482 5.81143 -0.254528 0
M  V30 7362 N 689.458 5.42408 0.359763 0
M  V30 7363 H 693.26 2.92794 -0.254697 0
M  V30 7364 H 690.774 1.60606 -0.240712 0
M  V30 7365 H 692.771 3.59022 2.11918 0
M  V30 7366 H 691.431 2.41475 2.17072 0
M  V30 7367 H 692.442 5.17066 -0.293854 0
M  V30 7368 H 689.119 3.74059 1.85434 0
M  V30 7369 H 690.509 6.65159 -0.949365 0
M  V30 7370 N 693.229 0.160201 1.56784 0
M  V30 7371 C 694.161 -0.80564 2.14574 0
M  V30 7372 C 695.174 -1.20154 1.09849 0
M  V30 7373 O 696.363 -1.14333 1.37078 0
M  V30 7374 C 693.463 -2.09434 2.6644 0
M  V30 7375 C 692.636 -1.86375 3.95706 0
M  V30 7376 C 691.695 -2.99358 4.32749 0
M  V30 7377 O 690.721 -2.70475 5.00831 0
M  V30 7378 N 691.923 -4.26867 3.93402 0
M  V30 7379 H 694.688 -0.311644 2.98075 0
M  V30 7380 H 692.249 -0.0229465 1.61884 0
M  V30 7381 H 694.241 -2.84091 2.88226 0
M  V30 7382 H 692.811 -2.50057 1.8759 0
M  V30 7383 H 692.031 -0.956821 3.82412 0
M  V30 7384 H 693.319 -1.68322 4.80151 0
M  V30 7385 H 692.717 -4.53197 3.38569 0
M  V30 7386 H 691.274 -4.98263 4.20211 0
M  V30 7387 N 694.707 -1.5719 -0.113559 0
M  V30 7388 C 695.639 -1.97393 -1.16484 0
M  V30 7389 C 696.652 -0.873964 -1.37352 0
M  V30 7390 O 697.841 -1.15222 -1.36331 0
M  V30 7391 C 694.941 -2.26174 -2.52386 0
M  V30 7392 C 694.114 -3.57479 -2.52046 0
M  V30 7393 C 693.173 -3.74409 -3.69735 0
M  V30 7394 O 692.199 -4.46463 -3.53071 0
M  V30 7395 N 693.401 -3.13588 -4.88511 0
M  V30 7396 H 696.166 -2.88184 -0.822814 0
M  V30 7397 H 693.727 -1.59044 -0.302769 0
M  V30 7398 H 695.719 -2.3471 -3.29687 0
M  V30 7399 H 694.289 -1.41483 -2.7875 0
M  V30 7400 H 693.509 -3.60081 -1.60421 0
M  V30 7401 H 694.797 -4.43775 -2.48881 0
M  V30 7402 H 694.195 -2.55026 -5.04953 0
M  V30 7403 H 692.752 -3.27637 -5.63469 0
M  V30 7404 N 696.185 0.383891 -1.52853 0
M  V30 7405 C 697.117 1.48889 -1.74255 0
M  V30 7406 C 698.13 1.50405 -0.623063 0
M  V30 7407 O 699.319 1.54215 -0.898887 0
M  V30 7408 C 696.419 2.87721 -1.79081 0
M  V30 7409 C 695.592 3.10111 -3.08464 0
M  V30 7410 C 694.651 4.28954 -3.0477 0
M  V30 7411 O 693.677 4.25012 -3.78621 0
M  V30 7412 N 694.879 5.35411 -2.24311 0
M  V30 7413 H 697.644 1.30915 -2.69595 0
M  V30 7414 H 695.205 0.573454 -1.51404 0
M  V30 7415 H 697.197 3.65333 -1.7411 0
M  V30 7416 H 695.767 2.99029 -0.911052 0
M  V30 7417 H 694.987 2.20319 -3.26884 0
M  V30 7418 H 696.275 3.21928 -3.94005 0
M  V30 7419 H 695.673 5.41471 -1.63787 0
M  V30 7420 H 694.23 6.1167 -2.25175 0
M  V30 7421 N 697.663 1.43903 0.642637 0
M  V30 7422 C 698.595 1.45857 1.768 0
M  V30 7423 C 699.608 0.353358 1.58919 0
M  V30 7424 O 700.797 0.618426 1.67445 0
M  V30 7425 C 697.897 1.26583 3.14372 0
M  V30 7426 C 697.07 2.50139 3.58817 0
M  V30 7427 C 696.129 2.25933 4.75227 0
M  V30 7428 O 695.155 2.99351 4.84125 0
M  V30 7429 N 696.357 1.28263 5.66153 0
M  V30 7430 H 699.122 2.42869 1.75598 0
M  V30 7431 H 696.683 1.39194 0.826832 0
M  V30 7432 H 698.675 1.08255 3.89953 0
M  V30 7433 H 697.245 0.37978 3.10284 0
M  V30 7434 H 696.465 2.83821 2.73568 0
M  V30 7435 H 697.753 3.32344 3.8526 0
M  V30 7436 H 697.151 0.676041 5.61646 0
M  V30 7437 H 695.708 1.15916 6.4141 0
M  V30 7438 N 699.141 -0.881989 1.30609 0
M  V30 7439 C 700.071 -2.00413 1.1982 0
M  V30 7440 C 701.052 -1.69871 0.0881538 0
M  V30 7441 O 702.237 -1.92304 0.2707 0
M  V30 7442 C 699.367 -3.35641 0.89233 0
M  V30 7443 C 698.321 -3.80451 1.96064 0
M  V30 7444 C 697.647 -5.13003 1.5077 0
M  V30 7445 C 698.947 -3.98855 3.37213 0
M  V30 7446 H 700.641 -2.09698 2.13699 0
M  V30 7447 H 698.187 -1.00754 1.02882 0
M  V30 7448 H 700.14 -4.13669 0.803497 0
M  V30 7449 H 698.864 -3.26497 -0.0821381 0
M  V30 7450 H 697.523 -3.04654 2.03916 0
M  V30 7451 H 697.171 -5.0029 0.521417 0
M  V30 7452 H 696.871 -5.43956 2.22229 0
M  V30 7453 H 698.395 -5.93554 1.43271 0
M  V30 7454 H 699.809 -4.67312 3.32103 0
M  V30 7455 H 698.206 -4.41188 4.06784 0
M  V30 7456 H 699.276 -3.02614 3.78883 0
M  V30 7457 N 700.619 -1.13374 -1.09472 0
M  V30 7458 C 701.551 -0.768466 -2.15933 0
M  V30 7459 C 702.564 0.209585 -1.61445 0
M  V30 7460 O 703.753 -0.010539 -1.78497 0
M  V30 7461 C 700.853 -0.118266 -3.38694 0
M  V30 7462 C 700.026 -1.12829 -4.22597 0
M  V30 7463 C 699.085 -0.503875 -5.23782 0
M  V30 7464 O 698.111 -1.16374 -5.57177 0
M  V30 7465 N 699.313 0.724288 -5.75964 0
M  V30 7466 H 702.078 -1.68457 -2.47876 0
M  V30 7467 H 699.639 -1.02668 -1.25183 0
M  V30 7468 H 701.631 0.311698 -4.03498 0
M  V30 7469 H 700.201 0.700769 -3.04644 0
M  V30 7470 H 699.421 -1.73556 -3.53938 0
M  V30 7471 H 700.709 -1.81095 -4.75481 0
M  V30 7472 H 700.107 1.27918 -5.51048 0
M  V30 7473 H 698.664 1.09692 -6.42504 0
M  V30 7474 N 702.098 1.27442 -0.927168 0
M  V30 7475 C 703.048 2.24519 -0.396878 0
M  V30 7476 C 704.032 1.52981 0.498555 0
M  V30 7477 O 705.224 1.7378 0.336087 0
M  V30 7478 C 702.353 3.41514 0.349694 0
M  V30 7479 C 701.439 4.20357 -0.562226 0
M  V30 7480 N 701.83 4.7702 -1.68182 0
M  V30 7481 C 700.128 4.44503 -0.365135 0
M  V30 7482 C 700.829 5.36467 -2.24895 0
M  V30 7483 N 699.805 5.21371 -1.5386 0
M  V30 7484 H 703.607 2.65911 -1.25173 0
M  V30 7485 H 701.121 1.42366 -0.78138 0
M  V30 7486 H 703.118 4.10161 0.746536 0
M  V30 7487 H 701.778 3.01653 1.20148 0
M  V30 7488 H 702.789 4.74985 -2.06421 0
M  V30 7489 H 699.466 4.15111 0.446037 0
M  V30 7490 H 700.856 5.91264 -3.1915 0
M  V30 7491 N 703.576 0.692616 1.41565 0
M  V30 7492 C 704.508 -0.0137132 2.29196 0
M  V30 7493 C 705.521 -0.747417 1.44629 0
M  V30 7494 O 706.71 -0.598611 1.68163 0
M  V30 7495 C 703.81 -1.04347 3.22436 0
M  V30 7496 C 702.983 -0.379985 4.35746 0
M  V30 7497 C 702.042 -1.31195 5.09583 0
M  V30 7498 O 701.068 -0.805455 5.63472 0
M  V30 7499 N 702.27 -2.64443 5.16769 0
M  V30 7500 H 705.035 0.738614 2.90456 0
M  V30 7501 H 702.596 0.538415 1.52685 0
M  V30 7502 H 704.588 -1.6686 3.687 0
M  V30 7503 H 703.158 -1.69736 2.62504 0
M  V30 7504 H 702.378 0.424975 3.91903 0
M  V30 7505 H 703.666 0.0814904 5.08735 0
M  V30 7506 H 703.064 -3.08114 4.74428 0
M  V30 7507 H 701.621 -3.22159 5.66619 0
M  V30 7508 N 705.054 -1.51416 0.437162 0
M  V30 7509 C 705.986 -2.255 -0.410171 0
M  V30 7510 C 706.999 -1.29511 -0.986444 0
M  V30 7511 O 708.188 -1.55266 -0.880614 0
M  V30 7512 C 705.288 -2.99511 -1.58575 0
M  V30 7513 C 704.461 -4.22595 -1.12839 0
M  V30 7514 C 703.52 -4.79187 -2.17407 0
M  V30 7515 O 702.546 -5.4103 -1.76849 0
M  V30 7516 N 703.748 -4.63204 -3.49889 0
M  V30 7517 H 706.513 -2.98856 0.224783 0
M  V30 7518 H 704.074 -1.59699 0.266041 0
M  V30 7519 H 706.066 -3.34258 -2.28152 0
M  V30 7520 H 704.636 -2.29167 -2.12606 0
M  V30 7521 H 703.856 -3.93344 -0.259695 0
M  V30 7522 H 705.144 -5.02468 -0.800196 0
M  V30 7523 H 704.542 -4.13945 -3.85573 0
M  V30 7524 H 703.099 -5.02313 -4.15361 0
M  V30 7525 N 706.532 -0.168513 -1.56696 0
M  V30 7526 C 707.779 0.477158 -1.96798 0
M  V30 7527 C 708.107 1.63442 -1.05437 0
M  V30 7528 O 707.362 1.95503 -0.0878903 0
M  V30 7529 C 707.661 1.00441 -3.42996 0
M  V30 7530 C 707.327 -0.0366556 -4.50885 0
M  V30 7531 C 705.989 -0.322785 -4.80116 0
M  V30 7532 C 708.341 -0.743447 -5.1587 0
M  V30 7533 C 705.669 -1.32114 -5.71632 0
M  V30 7534 C 708.021 -1.73077 -6.08463 0
M  V30 7535 C 706.685 -2.02437 -6.36062 0
M  V30 7536 H 705.955 0.174604 -0.720135 0
M  V30 7537 H 708.602 -0.259884 -1.89728 0
M  V30 7538 H 706.907 1.81922 -3.47004 0
M  V30 7539 H 708.604 1.51294 -3.71364 0
M  V30 7540 H 705.194 0.196532 -4.28149 0
M  V30 7541 H 709.378 -0.535602 -4.93401 0
M  V30 7542 H 704.634 -1.55482 -5.913 0
M  V30 7543 H 708.808 -2.28382 -6.57886 0
M  V30 7544 H 706.435 -2.79946 -7.06777 0
M  V30 7545 N 708.01 1.57248 0.105221 0
M  V30 7546 C 708.942 1.98008 1.15436 0
M  V30 7547 C 709.955 0.881236 1.36887 0
M  V30 7548 O 711.144 1.15943 1.35718 0
M  V30 7549 C 708.244 2.27509 2.51183 0
M  V30 7550 C 707.417 3.58811 2.50147 0
M  V30 7551 C 706.476 3.76365 3.67745 0
M  V30 7552 O 705.502 4.48329 3.50699 0
M  V30 7553 N 706.704 3.16174 4.86841 0
M  V30 7554 H 709.469 2.88616 0.807519 0
M  V30 7555 H 707.03 1.59202 0.29433 0
M  V30 7556 H 709.022 2.36455 3.28438 0
M  V30 7557 H 707.592 1.42959 2.77995 0
M  V30 7558 H 706.812 3.60927 1.5851 0
M  V30 7559 H 708.1 4.45088 2.46524 0
M  V30 7560 H 707.498 2.57701 5.03594 0
M  V30 7561 H 706.055 3.30621 5.61723 0
M  V30 7562 N 709.488 -0.375779 1.53054 0
M  V30 7563 C 710.435 -1.45978 1.78771 0
M  V30 7564 C 711.405 -1.53625 0.631552 0
M  V30 7565 O 712.59 -1.69674 0.872667 0
M  V30 7566 C 709.73 -2.8305 1.97425 0
M  V30 7567 C 708.843 -2.84451 3.25134 0
M  V30 7568 C 707.978 -4.13034 3.34031 0
M  V30 7569 C 707.017 -4.08536 4.55812 0
M  V30 7570 N 706.154 -5.2875 4.61918 0
M  V30 7571 H 710.994 -1.23349 2.71273 0
M  V30 7572 H 708.531 -0.598147 1.3439 0
M  V30 7573 H 710.489 -3.62666 2.06225 0
M  V30 7574 H 709.119 -3.04101 1.0827 0
M  V30 7575 H 708.171 -1.97127 3.25338 0
M  V30 7576 H 709.483 -2.76998 4.14818 0
M  V30 7577 H 708.637 -5.0106 3.42087 0
M  V30 7578 H 707.376 -4.23226 2.42345 0
M  V30 7579 H 706.381 -3.18897 4.47867 0
M  V30 7580 H 707.606 -3.99955 5.48828 0
M  V30 7581 H 705.552 -5.39547 3.73129 0
M  V30 7582 H 705.469 -5.23426 5.45492 0
M  V30 7583 H 706.737 -6.18637 4.74245 0
M  V30 7584 N 710.966 -1.44241 -0.634997 0
M  V30 7585 C 711.876 -1.53293 -1.77591 0
M  V30 7586 C 712.892 -0.418831 -1.68884 0
M  V30 7587 O 714.068 -0.675619 -1.8973 0
M  V30 7588 C 711.133 -1.47075 -3.13958 0
M  V30 7589 C 710.194 -2.69304 -3.34326 0
M  V30 7590 C 709.427 -2.63374 -4.64187 0
M  V30 7591 O 709.65 -1.69161 -5.44739 0
M  V30 7592 O 708.584 -3.54166 -4.86673 0
M  V30 7593 H 712.41 -2.49673 -1.72908 0
M  V30 7594 H 709.995 -1.26445 -0.795745 0
M  V30 7595 H 711.877 -1.46117 -3.95257 0
M  V30 7596 H 710.552 -0.538373 -3.19192 0
M  V30 7597 H 709.459 -2.75831 -2.52721 0
M  V30 7598 H 710.792 -3.61576 -3.33951 0
M  V30 7599 N 712.444 0.87505 -1.31075 0
M  V30 7600 C 713.374 1.99775 -1.20881 0
M  V30 7601 C 714.355 1.69822 -0.0971612 0
M  V30 7602 O 715.54 1.92158 -0.280895 0
M  V30 7603 C 712.67 3.35163 -0.910118 0
M  V30 7604 C 711.624 3.79406 -1.98078 0
M  V30 7605 C 710.95 5.12197 -1.53488 0
M  V30 7606 C 712.25 3.97061 -3.39323 0
M  V30 7607 H 713.944 2.08562 -2.14808 0
M  V30 7608 H 711.49 1.00207 -1.03415 0
M  V30 7609 H 713.443 4.13237 -0.825423 0
M  V30 7610 H 712.167 3.26536 0.064822 0
M  V30 7611 H 710.826 3.03568 -2.05528 0
M  V30 7612 H 710.474 5.00007 -0.547941 0
M  V30 7613 H 710.174 5.4277 -2.2511 0
M  V30 7614 H 711.698 5.92785 -1.46417 0
M  V30 7615 H 713.112 4.65545 -3.34576 0
M  V30 7616 H 711.509 4.39025 -4.09118 0
M  V30 7617 H 712.579 3.00601 -3.80483 0
M  V30 7618 N 713.922 1.13953 1.08869 0
M  V30 7619 C 714.832 0.835666 2.19212 0
M  V30 7620 C 715.848 -0.182005 1.73045 0
M  V30 7621 O 717.024 -0.0116661 2.01397 0
M  V30 7622 C 714.089 0.312325 3.4529 0
M  V30 7623 C 713.15 1.39196 4.06107 0
M  V30 7624 C 712.383 0.893496 5.26168 0
M  V30 7625 O 712.606 -0.266807 5.69776 0
M  V30 7626 O 711.54 1.67037 5.78258 0
M  V30 7627 H 715.366 1.75769 2.47667 0
M  V30 7628 H 712.951 0.917421 1.17914 0
M  V30 7629 H 714.833 0.0261582 4.21392 0
M  V30 7630 H 713.508 -0.582042 3.18424 0
M  V30 7631 H 712.415 1.73152 3.31616 0
M  V30 7632 H 713.748 2.26068 4.37212 0
M  V30 7633 N 715.4 -1.26948 0.933913 0
M  V30 7634 C 716.347 -2.26635 0.436484 0
M  V30 7635 C 717.317 -1.58397 -0.499953 0
M  V30 7636 O 718.502 -1.86171 -0.417753 0
M  V30 7637 C 715.642 -3.43803 -0.298951 0
M  V30 7638 C 714.755 -4.26736 0.672316 0
M  V30 7639 C 713.89 -5.31134 -0.0835872 0
M  V30 7640 C 712.929 -6.05742 0.879979 0
M  V30 7641 N 712.066 -7.01926 0.156301 0
M  V30 7642 H 716.906 -2.68558 1.29154 0
M  V30 7643 H 714.443 -1.32052 0.648118 0
M  V30 7644 H 716.401 -4.10554 -0.741723 0
M  V30 7645 H 715.031 -3.02814 -1.1182 0
M  V30 7646 H 714.083 -3.59842 1.23361 0
M  V30 7647 H 715.395 -4.78502 1.40846 0
M  V30 7648 H 714.549 -6.03863 -0.585984 0
M  V30 7649 H 713.288 -4.80188 -0.852661 0
M  V30 7650 H 712.293 -5.31846 1.39357 0
M  V30 7651 H 713.518 -6.58777 1.64894 0
M  V30 7652 H 711.464 -6.53301 -0.594413 0
M  V30 7653 H 711.381 -7.51409 0.831906 0
M  V30 7654 H 712.649 -7.78821 -0.325239 0
M  V30 7655 N 716.879 -0.700114 -1.41195 0
M  V30 7656 C 718.128 -0.230082 -2.00383 0
M  V30 7657 C 718.441 1.17857 -1.56106 0
M  V30 7658 O 719.647 1.74631 -2.07885 0
M  V30 7659 C 718.103 -0.360447 -3.5809 0
M  V30 7660 C 717.711 -1.77475 -4.11347 0
M  V30 7661 C 719.455 0.0495799 -4.24471 0
M  V30 7662 C 717.362 -1.85653 -5.61504 0
M  V30 7663 H 716.292 -0.0822633 -0.749499 0
M  V30 7664 H 718.943 -0.868969 -1.6162 0
M  V30 7665 H 717.325 0.346768 -3.94479 0
M  V30 7666 H 718.499 -2.51109 -3.86369 0
M  V30 7667 H 716.814 -2.13486 -3.57509 0
M  V30 7668 H 719.411 0.00898219 -5.34699 0
M  V30 7669 H 719.754 1.08904 -4.01803 0
M  V30 7670 H 720.287 -0.607521 -3.93134 0
M  V30 7671 H 717.026 -2.87667 -5.89006 0
M  V30 7672 H 716.546 -1.1641 -5.88395 0
M  V30 7673 H 718.225 -1.62151 -6.26351 0
M  V30 7674 N 718.357 1.51182 -0.445186 0
M  V30 7675 C 719.289 2.25714 0.398206 0
M  V30 7676 C 720.302 1.30032 0.979562 0
M  V30 7677 O 721.491 1.55731 0.872368 0
M  V30 7678 C 718.591 3.00348 1.56985 0
M  V30 7679 C 717.764 4.23187 1.10596 0
M  V30 7680 C 716.823 4.80334 2.14863 0
M  V30 7681 O 715.849 5.4196 1.73977 0
M  V30 7682 N 717.051 4.65053 3.47427 0
M  V30 7683 H 719.816 2.98732 -0.240629 0
M  V30 7684 H 717.377 1.59556 -0.274507 0
M  V30 7685 H 719.369 3.35464 2.26376 0
M  V30 7686 H 717.939 2.30291 2.11387 0
M  V30 7687 H 717.159 3.93476 0.238832 0
M  V30 7688 H 718.447 5.02886 0.773537 0
M  V30 7689 H 717.845 4.15984 3.83372 0
M  V30 7690 H 716.402 5.04509 4.12691 0
M  V30 7691 N 719.835 0.176821 1.56605 0
M  V30 7692 C 720.765 -0.746841 2.21234 0
M  V30 7693 C 721.746 -1.23502 1.16967 0
M  V30 7694 O 722.931 -1.28718 1.45414 0
M  V30 7695 C 720.061 -1.97407 2.8574 0
M  V30 7696 C 719.015 -1.62153 3.96094 0
M  V30 7697 C 718.341 -2.92387 4.47676 0
M  V30 7698 C 719.641 -0.845353 5.15413 0
M  V30 7699 H 721.335 -0.208116 2.98676 0
M  V30 7700 H 718.881 -0.0986594 1.43662 0
M  V30 7701 H 720.834 -2.62531 3.2963 0
M  V30 7702 H 719.558 -2.53703 2.05676 0
M  V30 7703 H 718.217 -0.993964 3.52868 0
M  V30 7704 H 717.865 -3.46734 3.64396 0
M  V30 7705 H 717.565 -2.69551 5.22127 0
M  V30 7706 H 719.089 -3.5853 4.94255 0
M  V30 7707 H 720.503 -1.39929 5.55961 0
M  V30 7708 H 718.9 -0.715814 5.95815 0
M  V30 7709 H 719.97 0.157239 4.84645 0
M  V30 7710 N 721.313 -1.57302 -0.09688 0
M  V30 7711 C 722.243 -2.0497 -1.11846 0
M  V30 7712 C 723.224 -0.938278 -1.41882 0
M  V30 7713 O 724.409 -1.20943 -1.51942 0
M  V30 7714 C 721.539 -2.47264 -2.43881 0
M  V30 7715 C 720.493 -3.62053 -2.28257 0
M  V30 7716 C 719.819 -3.90318 -3.65453 0
M  V30 7717 C 721.119 -4.93005 -1.72461 0
M  V30 7718 H 722.813 -2.90567 -0.721888 0
M  V30 7719 H 720.359 -1.39786 -0.345803 0
M  V30 7720 H 722.312 -2.7922 -3.15617 0
M  V30 7721 H 721.036 -1.58664 -2.8547 0
M  V30 7722 H 719.695 -3.30341 -1.58967 0
M  V30 7723 H 719.343 -2.98889 -4.04567 0
M  V30 7724 H 719.043 -4.67597 -3.55846 0
M  V30 7725 H 720.567 -4.24747 -4.3866 0
M  V30 7726 H 721.981 -5.23354 -2.34036 0
M  V30 7727 H 720.378 -5.74436 -1.73618 0
M  V30 7728 H 721.448 -4.80053 -0.683898 0
M  V30 7729 N 722.791 0.367657 -1.53252 0
M  V30 7730 C 723.723 1.47032 -1.75824 0
M  V30 7731 C 724.736 1.49736 -0.63898 0
M  V30 7732 O 725.925 1.53253 -0.915193 0
M  V30 7733 C 723.025 2.85805 -1.82122 0
M  V30 7734 C 722.198 3.06822 -3.11736 0
M  V30 7735 C 721.257 4.25698 -3.09302 0
M  V30 7736 O 720.283 4.20972 -3.83107 0
M  V30 7737 N 721.485 5.33002 -2.29977 0
M  V30 7738 H 724.25 1.28048 -2.70968 0
M  V30 7739 H 721.811 0.557363 -1.52004 0
M  V30 7740 H 723.803 3.63465 -1.77975 0
M  V30 7741 H 722.373 2.98046 -0.942716 0
M  V30 7742 H 721.593 2.1684 -3.29202 0
M  V30 7743 H 722.881 3.17731 -3.97397 0
M  V30 7744 H 722.279 5.39703 -1.69521 0
M  V30 7745 H 720.836 6.09247 -2.3165 0
M  V30 7746 N 724.269 1.44576 0.627338 0
M  V30 7747 C 725.201 1.47724 1.75243 0
M  V30 7748 C 726.214 0.370193 1.58535 0
M  V30 7749 O 727.403 0.636151 1.66779 0
M  V30 7750 C 724.503 1.2991 3.13012 0
M  V30 7751 C 723.676 2.5393 3.56143 0
M  V30 7752 C 722.735 2.30961 4.72804 0
M  V30 7753 O 721.761 3.04469 4.80923 0
M  V30 7754 N 722.963 1.34261 5.6476 0
M  V30 7755 H 725.728 2.44718 1.73012 0
M  V30 7756 H 723.289 1.40064 0.812022 0
M  V30 7757 H 725.281 1.12385 3.88782 0
M  V30 7758 H 723.851 0.412668 3.09864 0
M  V30 7759 H 723.071 2.86707 2.70542 0
M  V30 7760 H 724.359 3.36411 3.81713 0
M  V30 7761 H 723.757 0.735573 5.60897 0
M  V30 7762 H 722.314 1.22713 6.40144 0
M  V30 7763 N 725.747 -0.868086 1.31537 0
M  V30 7764 C 726.679 -1.98165 1.15166 0
M  V30 7765 C 727.692 -1.6255 0.0902335 0
M  V30 7766 O 728.881 -1.75272 0.33791 0
M  V30 7767 C 725.981 -3.30772 0.737776 0
M  V30 7768 C 725.154 -3.94716 1.88462 0
M  V30 7769 C 724.213 -5.05641 1.45648 0
M  V30 7770 O 723.239 -5.2636 2.16642 0
M  V30 7771 N 724.441 -5.79474 0.34493 0
M  V30 7772 H 727.206 -2.12754 2.11083 0
M  V30 7773 H 724.767 -1.04217 1.23897 0
M  V30 7774 H 726.759 -4.02366 0.434032 0
M  V30 7775 H 725.329 -3.1233 -0.129834 0
M  V30 7776 H 724.549 -3.16079 2.35558 0
M  V30 7777 H 725.837 -4.34175 2.65273 0
M  V30 7778 H 725.235 -5.65164 -0.246259 0
M  V30 7779 H 723.792 -6.51722 0.100728 0
M  V30 7780 N 727.225 -1.14528 -1.08264 0
M  V30 7781 C 728.157 -0.791325 -2.15106 0
M  V30 7782 C 729.17 0.192449 -1.61659 0
M  V30 7783 O 730.359 -0.0294704 -1.78476 0
M  V30 7784 C 727.459 -0.154183 -3.38549 0
M  V30 7785 C 726.632 -1.17305 -4.21377 0
M  V30 7786 C 725.691 -0.559401 -5.23218 0
M  V30 7787 O 724.717 -1.22277 -5.55911 0
M  V30 7788 N 725.919 0.663159 -5.767 0
M  V30 7789 H 728.684 -1.71076 -2.46075 0
M  V30 7790 H 726.245 -1.0399 -1.24087 0
M  V30 7791 H 728.237 0.268884 -4.03806 0
M  V30 7792 H 726.807 0.668418 -3.0537 0
M  V30 7793 H 726.027 -1.773 -3.52077 0
M  V30 7794 H 727.315 -1.86128 -4.73533 0
M  V30 7795 H 726.713 1.22066 -5.52373 0
M  V30 7796 H 725.27 1.02871 -6.43631 0
M  V30 7797 N 728.703 1.26451 -0.940633 0
M  V30 7798 C 729.635 2.25556 -0.407104 0
M  V30 7799 C 730.648 1.55888 0.469324 0
M  V30 7800 O 731.837 1.76292 0.279858 0
M  V30 7801 C 728.937 3.36109 0.434064 0
M  V30 7802 C 728.11 4.3532 -0.426082 0
M  V30 7803 C 727.169 5.25004 0.354563 0
M  V30 7804 O 726.195 5.68684 -0.242219 0
M  V30 7805 N 727.397 5.5652 1.65123 0
M  V30 7806 H 730.162 2.7197 -1.25907 0
M  V30 7807 H 727.723 1.40212 -0.809456 0
M  V30 7808 H 729.715 3.93059 0.963684 0
M  V30 7809 H 728.285 2.89194 1.18683 0
M  V30 7810 H 727.505 3.77449 -1.13692 0
M  V30 7811 H 728.793 4.986 -1.01366 0
M  V30 7812 H 728.191 5.22912 2.15822 0
M  V30 7813 H 726.748 6.16115 2.12711 0
M  V30 7814 N 730.181 0.707592 1.40822 0
M  V30 7815 C 731.113 0.0105968 2.29198 0
M  V30 7816 C 732.126 -0.732035 1.45414 0
M  V30 7817 O 733.315 -0.580741 1.68789 0
M  V30 7818 C 730.415 -1.00921 3.23525 0
M  V30 7819 C 729.588 -0.333747 4.36125 0
M  V30 7820 C 728.647 -1.25783 5.10945 0
M  V30 7821 O 727.673 -0.745646 5.64295 0
M  V30 7822 N 728.875 -2.58947 5.19545 0
M  V30 7823 H 731.64 0.76938 2.89656 0
M  V30 7824 H 729.201 0.554579 1.52105 0
M  V30 7825 H 731.193 -1.6294 3.70449 0
M  V30 7826 H 729.763 -1.66942 2.6429 0
M  V30 7827 H 728.983 0.466518 3.9143 0
M  V30 7828 H 730.271 0.135444 5.0862 0
M  V30 7829 H 729.669 -3.03065 4.7767 0
M  V30 7830 H 728.226 -3.16131 5.70004 0
M  V30 7831 N 731.66 -1.50943 0.453197 0
M  V30 7832 C 732.59 -2.31005 -0.34044 0
M  V30 7833 C 733.571 -1.37112 -1.00669 0
M  V30 7834 O 734.756 -1.66033 -1.0073 0
M  V30 7835 C 731.886 -3.16358 -1.433 0
M  V30 7836 C 730.84 -4.18658 -0.889363 0
M  V30 7837 C 730.166 -4.92633 -2.07887 0
M  V30 7838 C 731.466 -5.22227 0.0871142 0
M  V30 7839 H 733.16 -2.97601 0.327723 0
M  V30 7840 H 730.706 -1.43119 0.159054 0
M  V30 7841 H 732.659 -3.71155 -1.99555 0
M  V30 7842 H 731.383 -2.47613 -2.12968 0
M  V30 7843 H 730.042 -3.64936 -0.348915 0
M  V30 7844 H 729.69 -4.20376 -2.76211 0
M  V30 7845 H 729.39 -5.61819 -1.72143 0
M  V30 7846 H 730.914 -5.50258 -2.64666 0
M  V30 7847 H 732.328 -5.72001 -0.385656 0
M  V30 7848 H 730.725 -5.99032 0.357926 0
M  V30 7849 H 731.795 -4.74077 1.01879 0
M  V30 7850 N 733.138 -0.185124 -1.56509 0
M  V30 7851 C 734.549 0.329221 -1.83774 0
M  V30 7852 C 734.9 1.62093 -1.10545 0
M  V30 7853 O 734.025 2.13334 -0.36298 0
M  V30 7854 C 734.62 0.604099 -3.33371 0
M  V30 7855 C 733.179 1.06284 -3.61083 0
M  V30 7856 C 732.326 0.10608 -2.77097 0
M  V30 7857 H 735.277 -0.409116 -1.53336 0
M  V30 7858 H 735.298 1.45458 -3.51599 0
M  V30 7859 H 734.81 -0.336201 -3.86641 0
M  V30 7860 H 732.911 2.01777 -3.13236 0
M  V30 7861 H 733.024 0.962453 -4.69333 0
M  V30 7862 H 731.388 0.606082 -2.47384 0
M  V30 7863 H 732.171 -0.828486 -3.33153 0
M  V30 7864 N 734.616 1.57351 0.0885366 0
M  V30 7865 C 735.863 1.86419 0.790824 0
M  V30 7866 C 736.191 0.774561 1.78412 0
M  V30 7867 O 735.446 -0.23119 1.9433 0
M  V30 7868 C 735.745 3.22098 1.5488 0
M  V30 7869 C 735.411 4.4548 0.697025 0
M  V30 7870 C 734.073 4.78975 0.462237 0
M  V30 7871 C 736.425 5.21094 0.105315 0
M  V30 7872 C 733.753 5.85507 -0.374016 0
M  V30 7873 C 736.105 6.28509 -0.718298 0
M  V30 7874 C 734.769 6.60515 -0.963116 0
M  V30 7875 H 734.039 0.682157 0.289383 0
M  V30 7876 H 736.686 1.91429 0.0520961 0
M  V30 7877 H 734.991 3.12803 2.35927 0
M  V30 7878 H 736.688 3.41819 2.09669 0
M  V30 7879 H 733.278 4.19255 0.890137 0
M  V30 7880 H 737.462 4.95544 0.273856 0
M  V30 7881 H 732.718 6.08713 -0.572606 0
M  V30 7882 H 736.892 6.86268 -1.18362 0
M  V30 7883 H 734.519 7.42893 -1.6129 0
M  V30 7884 N 736.094 -0.359525 1.53444 0
M  V30 7885 C 737.044 -1.441 1.7669 0
M  V30 7886 C 738.028 -1.48408 0.621599 0
M  V30 7887 O 739.22 -1.53547 0.880468 0
M  V30 7888 C 736.349 -2.81455 1.96566 0
M  V30 7889 C 735.435 -2.81601 3.17115 0
M  V30 7890 N 735.826 -2.51388 4.38905 0
M  V30 7891 C 734.124 -3.12758 3.1796 0
M  V30 7892 C 734.825 -2.59365 5.20677 0
M  V30 7893 N 733.801 -2.94328 4.57025 0
M  V30 7894 H 737.603 -1.19613 2.68458 0
M  V30 7895 H 735.117 -0.567761 1.52152 0
M  V30 7896 H 737.114 -3.59357 2.11348 0
M  V30 7897 H 735.774 -3.06901 1.06029 0
M  V30 7898 H 736.785 -2.24873 4.66533 0
M  V30 7899 H 733.462 -3.43479 2.37336 0
M  V30 7900 H 734.852 -2.39301 6.27841 0
M  V30 7901 N 737.572 -1.44907 -0.619662 0
M  V30 7902 C 738.983 -1.42905 -1.20146 0
M  V30 7903 C 739.334 -0.150341 -1.95623 0
M  V30 7904 O 738.459 0.748732 -2.03034 0
M  V30 7905 C 739.054 -2.58889 -2.18545 0
M  V30 7906 C 737.613 -2.60046 -2.72127 0
M  V30 7907 C 736.76 -2.3493 -1.4732 0
M  V30 7908 H 739.711 -1.53321 -0.409666 0
M  V30 7909 H 739.732 -2.32298 -3.0136 0
M  V30 7910 H 739.244 -3.51941 -1.63583 0
M  V30 7911 H 737.345 -1.70968 -3.3106 0
M  V30 7912 H 737.458 -3.58893 -3.17384 0
M  V30 7913 H 735.822 -1.84248 -1.75855 0
M  V30 7914 H 736.605 -3.3011 -0.942442 0
M  V30 7915 N 739.05 0.861098 -1.31996 0
M  V30 7916 C 740.461 1.43065 -1.19955 0
M  V30 7917 C 740.812 1.95273 0.190489 0
M  V30 7918 O 739.937 1.87012 1.08882 0
M  V30 7919 C 740.532 2.60052 -2.1716 0
M  V30 7920 C 739.091 3.13026 -2.09026 0
M  V30 7921 C 738.238 1.85756 -2.05888 0
M  V30 7922 H 741.189 0.668834 -1.43918 0
M  V30 7923 H 741.21 3.37016 -1.76637 0
M  V30 7924 H 740.722 2.22024 -3.18319 0
M  V30 7925 H 738.823 3.55653 -1.11092 0
M  V30 7926 H 738.936 3.74707 -2.98549 0
M  V30 7927 H 737.3 2.05088 -1.51033 0
M  V30 7928 H 738.083 1.49954 -3.08818 0
M  V30 7929 N 740.528 1.15101 1.07655 0
M  V30 7930 C 741.776 0.922149 1.79836 0
M  V30 7931 C 742.097 -0.552346 1.87014 0
M  V30 7932 O 741.367 -1.40145 1.3688 0
M  V30 7933 H 739.947 0.338182 0.666064 0
M  V30 7934 H 742.609 1.45107 1.30115 0
M  V30 7935 H 741.705 1.32883 2.82398 0
M  V30 7936 N 742.006 -1.2595 0.947325 0
M  V30 7937 C 743.283 -1.88676 0.515824 0
M  V30 7938 C 743.663 -1.85547 -1.00675 0
M  V30 7939 O 743.011 -1.31399 -1.8694 0
M  V30 7940 C 743.221 -3.31734 1.08415 0
M  V30 7941 C 744.569 -4.08545 1.15654 0
M  V30 7942 O 745.593 -3.40826 1.03517 0
M  V30 7943 O 744.452 -5.29663 1.34608 0
M  V30 7944 H 741.546 -0.809537 0.169055 0
M  V30 7945 H 744.092 -1.34075 1.04029 0
M  V30 7946 H 742.864 -3.28404 2.1276 0
M  V30 7947 H 742.487 -3.93882 0.542499 0
M  V30 7948 N 743.484 -0.715051 -1.40445 0
M  V30 7949 C 744.712 -0.263959 -2.05209 0
M  V30 7950 C 745.127 1.09403 -1.53871 0
M  V30 7951 O 744.484 1.68746 -0.695064 0
M  V30 7952 C 744.535 -0.234545 -3.60738 0
M  V30 7953 O 744.256 -1.53891 -4.10182 0
M  V30 7954 C 745.757 0.235164 -4.42676 0
M  V30 7955 H 742.977 -0.11876 -0.660407 0
M  V30 7956 H 745.521 -0.973107 -1.79864 0
M  V30 7957 H 743.676 0.425563 -3.85055 0
M  V30 7958 H 744.09 -1.43903 -5.04373 0
M  V30 7959 H 745.564 0.204598 -5.51621 0
M  V30 7960 H 746.041 1.27724 -4.20218 0
M  V30 7961 H 746.647 -0.394649 -4.23465 0
M  V30 7962 N 744.962 1.50701 -0.461195 0
M  V30 7963 C 745.925 2.2686 0.326679 0
M  V30 7964 C 746.925 1.31243 0.929085 0
M  V30 7965 O 748.115 1.54754 0.799807 0
M  V30 7966 C 745.247 3.07844 1.46441 0
M  V30 7967 H 746.44 2.97954 -0.341095 0
M  V30 7968 H 743.993 1.54814 -0.214984 0
M  V30 7969 H 744.728 2.41223 2.16753 0
M  V30 7970 H 744.513 3.78101 1.03836 0
M  V30 7971 H 746.003 3.65469 2.02044 0
M  V30 7972 N 746.441 0.193421 1.56409 0
M  V30 7973 C 747.373 -0.759944 2.16235 0
M  V30 7974 C 748.386 -1.17797 1.12373 0
M  V30 7975 O 749.575 -1.11399 1.39472 0
M  V30 7976 C 746.675 -2.03735 2.70823 0
M  V30 7977 C 745.848 -1.77939 3.9957 0
M  V30 7978 C 744.907 -2.90111 4.39001 0
M  V30 7979 O 743.933 -2.59791 5.06456 0
M  V30 7980 N 745.135 -4.18426 4.02368 0
M  V30 7981 H 747.9 -0.248348 2.98669 0
M  V30 7982 H 745.461 0.0113966 1.61896 0
M  V30 7983 H 747.453 -2.77914 2.94187 0
M  V30 7984 H 746.023 -2.46022 1.92852 0
M  V30 7985 H 745.243 -0.875491 3.84355 0
M  V30 7986 H 746.531 -1.58099 4.83614 0
M  V30 7987 H 745.929 -4.45913 3.48106 0
M  V30 7988 H 744.486 -4.89237 4.30686 0
M  V30 7989 N 747.919 -1.57396 -0.0801906 0
M  V30 7990 C 749.196 -1.77883 -0.813451 0
M  V30 7991 C 749.576 -0.778879 -1.96206 0
M  V30 7992 O 748.924 0.189683 -2.27711 0
M  V30 7993 C 749.134 -3.24116 -1.2942 0
M  V30 7994 C 750.482 -3.87714 -1.73098 0
M  V30 7995 O 751.506 -3.27956 -1.39007 0
M  V30 7996 O 750.365 -4.92828 -2.36184 0
M  V30 7997 H 747.459 -0.729727 -0.389138 0
M  V30 7998 H 750.005 -1.69591 -0.0609166 0
M  V30 7999 H 748.777 -3.88443 -0.471947 0
M  V30 8000 H 748.4 -3.371 -2.1083 0
M  V30 8001 N 749.397 0.351382 -1.53633 0
M  V30 8002 C 750.645 1.09034 -1.70165 0
M  V30 8003 C 750.966 1.89413 -0.463422 0
M  V30 8004 O 750.236 1.888 0.522624 0
M  V30 8005 H 748.816 0.405522 -0.627344 0
M  V30 8006 H 751.478 0.394554 -1.90865 0
M  V30 8007 H 750.574 1.77215 -2.56907 0
M  V30 8008 N 750.875 1.45233 0.611969 0
M  V30 8009 C 751.785 1.56098 1.7513 0
M  V30 8010 C 752.801 0.445646 1.68196 0
M  V30 8011 O 753.977 0.705718 1.88631 0
M  V30 8012 C 751.042 1.52052 3.11579 0
M  V30 8013 C 750.103 2.74589 3.29999 0
M  V30 8014 C 749.336 2.70726 4.59938 0
M  V30 8015 O 749.559 1.77806 5.41979 0
M  V30 8016 O 748.493 3.61864 4.80976 0
M  V30 8017 H 752.319 2.52392 1.68914 0
M  V30 8018 H 749.904 1.27695 0.775528 0
M  V30 8019 H 751.786 1.52387 3.92882 0
M  V30 8020 H 750.461 0.589085 3.18295 0
M  V30 8021 H 749.368 2.79817 2.48301 0
M  V30 8022 H 750.701 3.66843 3.28157 0
M  V30 8023 N 752.353 -0.854086 1.3245 0
M  V30 8024 C 753.283 -1.97827 1.24044 0
M  V30 8025 C 754.264 -1.69646 0.124166 0
M  V30 8026 O 755.449 -1.91687 0.31143 0
M  V30 8027 C 752.579 -3.33673 0.963324 0
M  V30 8028 C 751.533 -3.76207 2.04089 0
M  V30 8029 C 750.859 -5.0969 1.61618 0
M  V30 8030 C 752.159 -3.91612 3.45597 0
M  V30 8031 H 753.853 -2.05118 2.18099 0
M  V30 8032 H 751.399 -0.985489 1.04996 0
M  V30 8033 H 753.352 -4.11871 0.891061 0
M  V30 8034 H 752.076 -3.26597 -0.0128649 0
M  V30 8035 H 750.735 -3.0026 2.10332 0
M  V30 8036 H 750.383 -4.99072 0.627418 0
M  V30 8037 H 750.083 -5.3912 2.33717 0
M  V30 8038 H 751.607 -5.90381 1.55829 0
M  V30 8039 H 753.021 -4.60163 3.4194 0
M  V30 8040 H 751.418 -4.3246 4.16051 0
M  V30 8041 H 752.488 -2.9451 3.85217 0
M  V30 8042 N 753.831 -1.1567 -1.07043 0
M  V30 8043 C 754.761 -0.879348 -2.16309 0
M  V30 8044 C 755.742 0.171311 -1.69235 0
M  V30 8045 O 756.927 0.0250175 -1.94184 0
M  V30 8046 C 754.057 -0.371307 -3.45309 0
M  V30 8047 C 753.011 -1.359 -4.05851 0
M  V30 8048 C 752.337 -0.709678 -5.29969 0
M  V30 8049 C 753.637 -2.72606 -4.45514 0
M  V30 8050 H 755.331 -1.79308 -2.39768 0
M  V30 8051 H 752.877 -0.863558 -1.15233 0
M  V30 8052 H 754.83 -0.164798 -4.21078 0
M  V30 8053 H 753.554 0.577906 -3.21446 0
M  V30 8054 H 752.213 -1.55193 -3.32131 0
M  V30 8055 H 751.861 0.245782 -5.02399 0
M  V30 8056 H 751.561 -1.36886 -5.71433 0
M  V30 8057 H 753.085 -0.513015 -6.08441 0
M  V30 8058 H 754.499 -2.57141 -5.12398 0
M  V30 8059 H 752.896 -3.34927 -4.97939 0
M  V30 8060 H 753.966 -3.28434 -3.56734 0
M  V30 8061 N 755.309 1.25446 -0.953992 0
M  V30 8062 C 756.586 1.884 -0.525823 0
M  V30 8063 C 756.966 1.86079 0.996891 0
M  V30 8064 O 756.314 1.32389 1.8624 0
M  V30 8065 C 756.524 3.31154 -1.10172 0
M  V30 8066 C 757.872 4.07926 -1.17819 0
M  V30 8067 O 758.896 3.40273 -1.05323 0
M  V30 8068 O 757.755 5.28942 -1.37415 0
M  V30 8069 H 754.849 0.808629 -0.173345 0
M  V30 8070 H 757.395 1.33522 -1.04738 0
M  V30 8071 H 756.167 3.27271 -2.14499 0
M  V30 8072 H 755.79 3.93588 -0.56338 0
M  V30 8073 N 756.787 0.722489 1.40064 0
M  V30 8074 C 758.015 0.274838 2.05066 0
M  V30 8075 C 758.43 -1.08586 1.54449 0
M  V30 8076 O 757.787 -1.68375 0.704003 0
M  V30 8077 C 757.838 0.253673 3.60609 0
M  V30 8078 O 757.559 1.56064 4.0936 0
M  V30 8079 C 759.06 -0.211684 4.42794 0
M  V30 8080 H 756.28 0.12226 0.659768 0
M  V30 8081 H 758.824 0.982632 1.79345 0
M  V30 8082 H 756.979 -0.405137 3.85276 0
M  V30 8083 H 757.393 1.46576 5.03603 0
M  V30 8084 H 758.867 -0.175341 5.51721 0
M  V30 8085 H 759.344 -1.25493 4.2089 0
M  V30 8086 H 759.95 0.4171 4.2325 0
M  V30 8087 N 758.265 -1.50454 0.469181 0
M  V30 8088 C 759.49 -2.0722 -0.0864892 0
M  V30 8089 C 759.915 -1.33098 -1.32916 0
M  V30 8090 O 759.273 -0.378084 -1.77314 0
M  V30 8091 C 759.321 -3.58845 -0.355384 0
M  V30 8092 O 758.425 -3.86583 -1.43622 0
M  V30 8093 H 757.766 -0.663889 0.0121414 0
M  V30 8094 H 760.296 -1.93674 0.659674 0
M  V30 8095 H 760.306 -4.03617 -0.596447 0
M  V30 8096 H 758.981 -4.12211 0.552698 0
M  V30 8097 H 757.558 -3.5365 -1.18262 0
M  V30 8098 N 759.743 -0.201713 -1.56304 0
M  V30 8099 C 760.991 0.434447 -1.97375 0
M  V30 8100 C 761.312 1.61692 -1.08998 0
M  V30 8101 O 760.582 1.95223 -0.162682 0
M  V30 8102 H 759.162 0.163497 -0.728888 0
M  V30 8103 H 761.824 -0.289988 -1.92731 0
M  V30 8104 H 760.92 0.774136 -3.02347 0
M  V30 8105 N 761.222 1.57436 0.0718424 0
M  V30 8106 C 762.633 1.75975 0.623678 0
M  V30 8107 C 762.984 0.827155 1.77912 0
M  V30 8108 O 762.109 0.0112425 2.16397 0
M  V30 8109 C 762.704 3.1911 1.13816 0
M  V30 8110 C 761.263 3.38994 1.63586 0
M  V30 8111 C 760.41 2.71684 0.555261 0
M  V30 8112 H 763.361 1.57948 -0.154328 0
M  V30 8113 H 763.382 3.23267 2.00696 0
M  V30 8114 H 762.894 3.86962 0.296998 0
M  V30 8115 H 760.995 2.76256 2.50027 0
M  V30 8116 H 761.108 4.47436 1.71283 0
M  V30 8117 H 759.472 2.34236 1.00029 0
M  V30 8118 H 760.255 3.42191 -0.275712 0
M  V30 8119 N 762.7 -0.34323 1.53817 0
M  V30 8120 C 763.93 -1.10188 1.74763 0
M  V30 8121 C 764.338 -1.82829 0.486856 0
M  V30 8122 O 763.681 -1.75236 -0.551198 0
M  V30 8123 C 763.743 -2.16 2.87375 0
M  V30 8124 C 763.407 -1.62931 4.26969 0
M  V30 8125 C 764.404 -1.08147 5.08528 0
M  V30 8126 C 762.089 -1.67769 4.73454 0
M  V30 8127 C 764.083 -0.589039 6.34672 0
M  V30 8128 C 761.77 -1.18138 5.99572 0
M  V30 8129 C 762.768 -0.637979 6.80014 0
M  V30 8130 O 762.456 -0.149073 8.03762 0
M  V30 8131 H 762.188 -0.33445 0.587469 0
M  V30 8132 H 764.742 -0.401109 2.01445 0
M  V30 8133 H 762.972 -2.89637 2.56218 0
M  V30 8134 H 764.661 -2.77432 2.96287 0
M  V30 8135 H 765.427 -1.03732 4.73777 0
M  V30 8136 H 761.306 -2.09004 4.10899 0
M  V30 8137 H 764.85 -0.164233 6.97407 0
M  V30 8138 H 760.747 -1.22254 6.33817 0
M  V30 8139 H 761.515 -0.266332 8.18067 0
M  V30 8140 N 764.178 -1.45556 -0.604258 0
M  V30 8141 C 765.403 -1.53509 -1.39462 0
M  V30 8142 C 765.828 -0.169638 -1.87333 0
M  V30 8143 O 765.186 0.846346 -1.60333 0
M  V30 8144 C 765.234 -2.52654 -2.5729 0
M  V30 8145 O 764.338 -2.04666 -3.5803 0
M  V30 8146 H 763.679 -0.517355 -0.416221 0
M  V30 8147 H 766.209 -1.90939 -0.735072 0
M  V30 8148 H 766.219 -2.71568 -3.04491 0
M  V30 8149 H 764.894 -3.51823 -2.21797 0
M  V30 8150 H 763.471 -1.95643 -3.17456 0
M  V30 8151 N 765.656 0.84705 -1.32902 0
M  V30 8152 C 766.566 1.98845 -1.2449 0
M  V30 8153 C 767.582 1.7329 -0.15702 0
M  V30 8154 O 768.758 1.978 -0.379104 0
M  V30 8155 C 765.823 3.32679 -0.975985 0
M  V30 8156 C 764.884 3.71405 -2.15306 0
M  V30 8157 C 764.117 4.98853 -1.89688 0
M  V30 8158 O 764.34 5.64134 -0.843168 0
M  V30 8159 O 763.274 5.34889 -2.76002 0
M  V30 8160 H 767.1 2.0888 -2.2046 0
M  V30 8161 H 764.685 0.978852 -1.12867 0
M  V30 8162 H 766.567 4.12885 -0.842826 0
M  V30 8163 H 765.242 3.23667 -0.0464954 0
M  V30 8164 H 764.149 2.91743 -2.34172 0
M  V30 8165 H 765.482 3.85073 -3.06561 0
M  V30 8166 N 767.134 1.16236 1.06428 0
M  V30 8167 C 768.359 0.967688 1.83441 0
M  V30 8168 C 768.784 -0.479167 1.81894 0
M  V30 8169 O 768.142 -1.34224 1.21875 0
M  V30 8170 C 768.19 1.49806 3.2801 0
M  V30 8171 O 767.294 0.703481 4.06356 0
M  V30 8172 H 766.635 0.344468 0.56766 0
M  V30 8173 H 769.165 1.54442 1.34197 0
M  V30 8174 H 769.175 1.51495 3.78831 0
M  V30 8175 H 767.85 2.55133 3.2845 0
M  V30 8176 H 766.427 0.756986 3.65136 0
M  V30 8177 N 768.612 -1.24939 0.960631 0
M  V30 8178 C 769.837 -1.9742 0.635608 0
M  V30 8179 C 770.262 -1.70857 -0.786737 0
M  V30 8180 O 769.62 -0.968063 -1.53291 0
M  V30 8181 C 769.668 -3.48987 0.907771 0
M  V30 8182 O 768.772 -4.12399 -0.0104053 0
M  V30 8183 H 768.113 -0.61871 0.241027 0
M  V30 8184 H 770.643 -1.58901 1.28886 0
M  V30 8185 H 770.653 -3.99334 0.836453 0
M  V30 8186 H 769.328 -3.6765 1.94439 0
M  V30 8187 H 767.905 -3.72727 0.113631 0
M  V30 8188 N 770.09 -0.729906 -1.39679 0
M  V30 8189 C 771.338 -0.275077 -2.00219 0
M  V30 8190 C 771.659 1.1401 -1.58199 0
M  V30 8191 O 770.929 1.77546 -0.827904 0
M  V30 8192 H 769.509 -0.0987127 -0.740449 0
M  V30 8193 H 772.171 -0.93873 -1.70804 0
M  V30 8194 H 771.267 -0.319446 -3.10461 0
M  V30 8195 N 771.568 1.50203 -0.477153 0
M  V30 8196 C 772.796 2.0677 0.0732489 0
M  V30 8197 C 773.211 1.34033 1.32968 0
M  V30 8198 O 772.568 0.411412 1.77802 0
M  V30 8199 C 772.619 3.59751 0.35518 0
M  V30 8200 O 772.34 4.29747 -0.851425 0
M  V30 8201 C 773.841 4.3296 0.951877 0
M  V30 8202 H 771.061 0.670929 -0.00978923 0
M  V30 8203 H 773.605 1.93293 -0.667676 0
M  V30 8204 H 771.76 3.7301 1.04605 0
M  V30 8205 H 772.174 5.2106 -0.599708 0
M  V30 8206 H 773.648 5.40952 1.09888 0
M  V30 8207 H 774.125 3.93856 1.94356 0
M  V30 8208 H 774.731 4.24246 0.299208 0
M  V30 8209 N 773.046 0.209999 1.56195 0
M  V30 8210 C 774.271 -0.433064 2.02828 0
M  V30 8211 C 774.696 -1.5337 1.08901 0
M  V30 8212 O 774.054 -1.81144 0.0751132 0
M  V30 8213 C 774.102 -0.952635 3.47789 0
M  V30 8214 O 773.206 -2.0647 3.56993 0
M  V30 8215 H 772.547 -0.0994594 0.656509 0
M  V30 8216 H 775.077 0.32525 2.01998 0
M  V30 8217 H 775.087 -1.26542 3.8788 0
M  V30 8218 H 773.762 -0.147007 4.1564 0
M  V30 8219 H 772.339 -1.75942 3.28784 0
M  V30 8220 N 774.524 -1.57472 -0.0634922 0
M  V30 8221 C 775.749 -1.92273 -0.77756 0
M  V30 8222 C 776.174 -0.807141 -1.69902 0
M  V30 8223 O 775.532 0.239523 -1.79711 0
M  V30 8224 C 775.58 -3.26054 -1.54017 0
M  V30 8225 O 774.684 -3.15873 -2.65138 0
M  V30 8226 H 774.025 -0.629389 -0.211579 0
M  V30 8227 H 776.555 -2.04579 -0.0292523 0
M  V30 8228 H 776.565 -3.60127 -1.91763 0
M  V30 8229 H 775.24 -4.06824 -0.864128 0
M  V30 8230 H 773.817 -2.93373 -2.30189 0
M  V30 8231 N 776.003 0.335068 -1.53997 0
M  V30 8232 C 777.414 0.910191 -1.6301 0
M  V30 8233 C 777.765 1.89271 -0.516809 0
M  V30 8234 O 776.89 2.13516 0.352123 0
M  V30 8235 C 777.485 1.65761 -2.9548 0
M  V30 8236 C 776.044 2.18163 -3.06728 0
M  V30 8237 C 775.191 1.00338 -2.5851 0
M  V30 8238 H 778.142 0.112965 -1.58297 0
M  V30 8239 H 778.163 2.52107 -2.84995 0
M  V30 8240 H 777.675 0.94227 -3.76488 0
M  V30 8241 H 775.776 2.92847 -2.30372 0
M  V30 8242 H 775.889 2.43952 -4.1234 0
M  V30 8243 H 774.253 1.37925 -2.14124 0
M  V30 8244 H 775.036 0.30254 -3.41964 0
M  V30 8245 N 777.481 1.45874 0.596531 0
M  V30 8246 C 778.706 1.54247 1.38646 0
M  V30 8247 C 779.131 0.179571 1.87241 0
M  V30 8248 O 778.489 -0.837831 1.6078 0
M  V30 8249 C 778.537 2.54015 2.55946 0
M  V30 8250 O 777.641 2.06561 3.5694 0
M  V30 8251 H 776.982 0.519555 0.413471 0
M  V30 8252 H 779.512 1.91327 0.724936 0
M  V30 8253 H 779.522 2.73179 3.03047 0
M  V30 8254 H 778.197 3.52994 2.19928 0
M  V30 8255 H 776.774 1.97324 3.16414 0
M  V30 8256 N 778.959 -0.83999 1.33349 0
M  V30 8257 C 780.187 -1.62728 1.27778 0
M  V30 8258 C 780.602 -1.88191 -0.151505 0
M  V30 8259 O 779.959 -1.46128 -1.09329 0
M  V30 8260 C 780.01 -2.97813 2.04913 0
M  V30 8261 O 779.731 -2.73469 3.42266 0
M  V30 8262 C 781.232 -3.92245 2.0654 0
M  V30 8263 H 778.452 -0.506374 0.440257 0
M  V30 8264 H 780.996 -1.04637 1.75703 0
M  V30 8265 H 779.151 -3.52509 1.60674 0
M  V30 8266 H 779.565 -3.59483 3.81932 0
M  V30 8267 H 781.039 -4.84249 2.64966 0
M  V30 8268 H 781.516 -4.26332 1.05537 0
M  V30 8269 H 782.122 -3.43487 2.50793 0
M  V30 8270 N 780.437 -1.16799 -1.0581 0
M  V30 8271 C 781.662 -0.977402 -1.82925 0
M  V30 8272 C 782.087 0.469514 -1.82146 0
M  V30 8273 O 781.445 1.33576 -1.22585 0
M  V30 8274 C 781.493 -1.51543 -3.27211 0
M  V30 8275 O 780.597 -0.725021 -4.05977 0
M  V30 8276 H 779.938 -0.347474 -0.565825 0
M  V30 8277 H 782.468 -1.55151 -1.33376 0
M  V30 8278 H 782.478 -1.53502 -3.78023 0
M  V30 8279 H 781.153 -2.56872 -3.27093 0
M  V30 8280 H 779.73 -0.77634 -3.64729 0
M  V30 8281 N 781.915 1.24427 -0.967243 0
M  V30 8282 C 783.326 1.74349 -0.667785 0
M  V30 8283 C 783.677 1.78403 0.816509 0
M  V30 8284 O 782.802 1.41315 1.63887 0
M  V30 8285 C 783.397 3.16628 -1.20548 0
M  V30 8286 C 781.956 3.64059 -0.955934 0
M  V30 8287 C 781.103 2.42715 -1.34106 0
M  V30 8288 H 784.054 1.10136 -1.14262 0
M  V30 8289 H 784.075 3.76183 -0.571547 0
M  V30 8290 H 783.587 3.13646 -2.28578 0
M  V30 8291 H 781.688 3.72441 0.108858 0
M  V30 8292 H 781.801 4.51549 -1.60126 0
M  V30 8293 H 780.165 2.43114 -0.759452 0
M  V30 8294 H 780.948 2.42414 -2.43085 0
M  V30 8295 N 783.393 0.737304 1.3929 0
M  V30 8296 C 784.809 0.413132 1.5416 0
M  V30 8297 C 785.009 -1.07574 1.70382 0
M  V30 8298 O 784.065 -1.86185 1.70562 0
M  V30 8299 C 785.378 1.19817 2.75798 0
M  V30 8300 C 786.926 1.18662 2.89635 0
M  V30 8301 C 787.401 1.95427 4.14213 0
M  V30 8302 N 788.892 1.92605 4.21257 0
M  V30 8303 C 789.627 2.48808 5.16606 0
M  V30 8304 N 789.123 3.13659 6.1773 0
M  V30 8305 N 790.916 2.38829 5.08839 0
M  V30 8306 H 783.067 1.70243 1.27008 0
M  V30 8307 H 785.33 0.720802 0.61575 0
M  V30 8308 H 785.036 2.25179 2.70161 0
M  V30 8309 H 784.91 0.804144 3.68529 0
M  V30 8310 H 787.297 0.141112 2.94762 0
M  V30 8311 H 787.378 1.62003 1.97961 0
M  V30 8312 H 787.022 2.9998 4.09847 0
M  V30 8313 H 786.952 1.4949 5.04936 0
M  V30 8314 H 789.443 1.45362 3.48824 0
M  V30 8315 H 789.756 3.54006 6.8695 0
M  V30 8316 H 788.101 3.17749 6.1811 0
M  V30 8317 H 791.292 1.87806 4.28773 0
M  V30 8318 H 791.465 2.82929 5.82971 0
M  V30 8319 N 784.871 -1.49948 0.485112 0
M  V30 8320 C 785.834 -2.27351 -0.290546 0
M  V30 8321 C 786.834 -1.32704 -0.908087 0
M  V30 8322 O 788.024 -1.56007 -0.775085 0
M  V30 8323 C 785.156 -3.10135 -1.41524 0
M  V30 8324 H 786.349 -2.97374 0.388454 0
M  V30 8325 H 783.902 -1.54453 0.239586 0
M  V30 8326 H 784.637 -2.44641 -2.12888 0
M  V30 8327 H 784.422 -3.79705 -0.978074 0
M  V30 8328 H 785.912 -3.68638 -1.96204 0
M  V30 8329 N 786.349 -0.21828 -1.56081 0
M  V30 8330 C 787.574 0.422302 -2.03055 0
M  V30 8331 C 787.999 1.5279 -1.09713 0
M  V30 8332 O 787.357 1.81102 -0.0847187 0
M  V30 8333 C 787.405 0.934177 -3.48289 0
M  V30 8334 O 786.509 2.04574 -3.58083 0
M  V30 8335 H 785.85 0.0959764 -0.657027 0
M  V30 8336 H 788.38 -0.335958 -2.01823 0
M  V30 8337 H 788.39 1.24484 -3.88546 0
M  V30 8338 H 787.065 0.124963 -4.15712 0
M  V30 8339 H 785.642 1.74196 -3.29712 0
M  V30 8340 N 787.827 1.57504 0.0551401 0
M  V30 8341 C 788.775 2.05884 1.08233 0
M  V30 8342 C 789.769 0.967383 1.39061 0
M  V30 8343 O 790.975 1.15242 1.38273 0
M  V30 8344 H 787.35 0.656673 0.366449 0
M  V30 8345 H 789.321 2.91273 0.648269 0
M  V30 8346 C 788.07 2.53221 2.38273 0
M  V30 8347 H 787.393 3.36809 2.15406 0
M  V30 8348 H 788.833 2.9081 3.08554 0
M  V30 8349 C 787.292 1.42218 3.05411 0
M  V30 8350 O 787.822 0.773638 3.9418 0
M  V30 8351 N 786.028 1.16316 2.66306 0
M  V30 8352 H 785.575 1.69237 1.94207 0
M  V30 8353 H 785.533 0.422534 3.11548 0
M  V30 8354 N 789.305 -0.326896 1.54172 0
M  V30 8355 C 790.255 -1.40319 1.79707 0
M  V30 8356 C 791.239 -1.47056 0.652938 0
M  V30 8357 O 792.431 -1.51645 0.91284 0
M  V30 8358 C 789.56 -2.77222 2.02491 0
M  V30 8359 C 788.646 -2.74811 3.23016 0
M  V30 8360 N 789.037 -2.42022 4.44138 0
M  V30 8361 C 787.335 -3.05943 3.24522 0
M  V30 8362 C 788.036 -2.48263 5.26061 0
M  V30 8363 N 787.012 -2.84567 4.63166 0
M  V30 8364 H 790.814 -1.13892 2.70935 0
M  V30 8365 H 788.328 -0.53536 1.53322 0
M  V30 8366 H 790.325 -3.54793 2.18923 0
M  V30 8367 H 788.985 -3.04582 1.12515 0
M  V30 8368 H 789.996 -2.14926 4.71197 0
M  V30 8369 H 786.673 -3.38367 2.44569 0
M  V30 8370 H 788.063 -2.2593 6.32776 0
M  V30 8371 N 790.784 -1.46188 -0.588786 0
M  V30 8372 C 792.009 -1.5498 -1.37826 0
M  V30 8373 C 792.434 -0.189498 -1.87143 0
M  V30 8374 O 791.792 0.829293 -1.61222 0
M  V30 8375 C 791.84 -2.55369 -2.54596 0
M  V30 8376 O 790.944 -2.08452 -3.55839 0
M  V30 8377 H 790.285 -0.521741 -0.41071 0
M  V30 8378 H 792.815 -1.91708 -0.714779 0
M  V30 8379 H 792.825 -2.74782 -3.01594 0
M  V30 8380 H 791.5 -3.54155 -2.18052 0
M  V30 8381 H 790.077 -1.98999 -3.15363 0
M  V30 8382 N 792.262 0.832906 -1.33792 0
M  V30 8383 C 793.192 1.95828 -1.27176 0
M  V30 8384 C 794.173 1.69427 -0.15114 0
M  V30 8385 O 795.358 1.91167 -0.341886 0
M  V30 8386 C 792.488 3.32098 -1.01629 0
M  V30 8387 C 791.442 3.72912 -2.10049 0
M  V30 8388 C 790.768 5.07054 -1.69706 0
M  V30 8389 C 792.068 3.86064 -3.51783 0
M  V30 8390 H 793.762 2.01622 -2.21334 0
M  V30 8391 H 791.308 0.96866 -1.0655 0
M  V30 8392 H 793.261 4.10402 -0.956474 0
M  V30 8393 H 791.985 3.26577 -0.0390956 0
M  V30 8394 H 790.644 2.96876 -2.15082 0
M  V30 8395 H 790.292 4.9801 -0.706737 0
M  V30 8396 H 789.992 5.35333 -2.42264 0
M  V30 8397 H 791.516 5.87827 -1.65202 0
M  V30 8398 H 792.93 4.54665 -3.49218 0
M  V30 8399 H 791.327 4.25787 -4.22878 0
M  V30 8400 H 792.397 2.88344 -3.89854 0
M  V30 8401 N 793.74 1.17359 1.05189 0
M  V30 8402 C 794.98 0.972812 1.79766 0
M  V30 8403 C 795.344 -0.489832 1.85647 0
M  V30 8404 O 796.545 -0.809682 2.56315 0
M  V30 8405 C 794.816 1.59636 3.19767 0
M  V30 8406 S 796.375 1.54178 4.10822 0
M  V30 8407 H 793.193 0.34959 0.619119 0
M  V30 8408 H 795.795 1.49304 1.26209 0
M  V30 8409 H 794.499 2.65336 3.13089 0
M  V30 8410 H 794.03 1.07594 3.78401 0
M  V30 8411 H 796.045 0.549785 4.93145 0
M  V30 8412 N 795.218 -1.23913 0.973828 0
M  V30 8413 C 796.443 -1.96735 0.656511 0
M  V30 8414 C 796.868 -1.71682 -0.768571 0
M  V30 8415 O 796.226 -0.984267 -1.52256 0
M  V30 8416 C 796.274 -3.48004 0.944735 0
M  V30 8417 O 795.378 -4.12387 0.0333357 0
M  V30 8418 H 794.719 -0.616119 0.247575 0
M  V30 8419 H 797.249 -1.57525 1.30564 0
M  V30 8420 H 797.259 -3.98424 0.87876 0
M  V30 8421 H 795.934 -3.65567 1.98328 0
M  V30 8422 H 794.511 -3.72585 0.153157 0
M  V30 8423 N 796.696 -0.74468 -1.38897 0
M  V30 8424 C 797.944 -0.296298 -1.99916 0
M  V30 8425 C 798.265 1.12325 -1.59399 0
M  V30 8426 O 797.535 1.76658 -0.846689 0
M  V30 8427 H 796.115 -0.106561 -0.73936 0
M  V30 8428 H 798.777 -0.956793 -1.69798 0
M  V30 8429 H 797.873 -0.352356 -3.10105 0
M  V30 8430 N 798.174 1.49689 -0.493057 0
M  V30 8431 C 799.399 2.07331 0.0535114 0
M  V30 8432 C 799.824 1.35196 1.30781 0
M  V30 8433 O 799.182 0.406246 1.7669 0
M  V30 8434 C 799.23 3.59364 0.29825 0
M  V30 8435 O 798.334 3.88819 1.37454 0
M  V30 8436 H 797.675 0.663612 -0.0227018 0
M  V30 8437 H 800.205 1.926 -0.690402 0
M  V30 8438 H 800.215 4.04515 0.532159 0
M  V30 8439 H 798.89 4.1128 -0.618207 0
M  V30 8440 H 797.467 3.55487 1.12621 0
M  V30 8441 N 799.652 0.226554 1.55963 0
M  V30 8442 C 800.877 -0.411527 2.03276 0
M  V30 8443 C 801.302 -1.52206 1.10521 0
M  V30 8444 O 800.66 -1.81054 0.0943217 0
M  V30 8445 C 800.708 -0.915694 3.4878 0
M  V30 8446 O 799.812 -2.02672 3.59163 0
M  V30 8447 H 799.153 -0.0924907 0.657527 0
M  V30 8448 H 801.683 0.346656 2.01642 0
M  V30 8449 H 801.693 -1.22421 3.892 0
M  V30 8450 H 800.368 -0.102915 4.15773 0
M  V30 8451 H 798.945 -1.72445 3.30632 0
M  V30 8452 N 801.13 -1.57531 -0.0467866 0
M  V30 8453 C 802.093 -2.04379 -1.03738 0
M  V30 8454 C 803.093 -0.944881 -1.3011 0
M  V30 8455 O 804.283 -1.20904 -1.25411 0
M  V30 8456 C 801.415 -2.44572 -2.37482 0
M  V30 8457 H 802.608 -2.93142 -0.633063 0
M  V30 8458 H 800.161 -1.53526 -0.293177 0
M  V30 8459 H 800.896 -1.58911 -2.82697 0
M  V30 8460 H 800.681 -3.24785 -2.19675 0
M  V30 8461 H 802.171 -2.81307 -3.08636 0
M  V30 8462 N 802.608 0.318715 -1.54344 0
M  V30 8463 C 803.833 1.07987 -1.77069 0
M  V30 8464 C 804.258 1.80766 -0.520117 0
M  V30 8465 O 803.616 1.73424 0.528566 0
M  V30 8466 C 803.664 2.04987 -2.96669 0
M  V30 8467 O 802.768 3.12974 -2.68554 0
M  V30 8468 H 802.109 0.311109 -0.586606 0
M  V30 8469 H 804.639 0.361533 -2.0138 0
M  V30 8470 H 804.649 2.47771 -3.2415 0
M  V30 8471 H 803.324 1.51417 -3.87357 0
M  V30 8472 H 801.901 2.74831 -2.52037 0
M  V30 8473 N 804.086 1.46499 0.581025 0
M  V30 8474 C 805.033 1.5719 1.68997 0
M  V30 8475 C 806.003 0.416114 1.60803 0
M  V30 8476 O 807.188 0.633086 1.79991 0
M  V30 8477 C 804.328 1.56973 3.07333 0
M  V30 8478 C 803.441 2.83298 3.26139 0
M  V30 8479 C 802.576 2.74574 4.54734 0
M  V30 8480 C 801.615 3.9583 4.66889 0
M  V30 8481 N 800.752 3.85482 5.86811 0
M  V30 8482 H 805.592 2.51914 1.59196 0
M  V30 8483 H 803.129 1.24975 0.775857 0
M  V30 8484 H 805.087 1.54832 3.87405 0
M  V30 8485 H 803.717 0.657803 3.16027 0
M  V30 8486 H 802.769 2.95411 2.3966 0
M  V30 8487 H 804.081 3.7316 3.30988 0
M  V30 8488 H 803.235 2.70548 5.43036 0
M  V30 8489 H 801.974 1.82354 4.52325 0
M  V30 8490 H 800.979 4.00186 3.77003 0
M  V30 8491 H 802.204 4.89148 4.71075 0
M  V30 8492 H 800.15 2.96051 5.85397 0
M  V30 8493 H 800.067 4.69002 5.92936 0
M  V30 8494 H 801.335 3.85434 6.7754 0
M  V30 8495 N 805.565 -0.825799 1.34232 0
M  V30 8496 C 806.528 -1.91808 1.25468 0
M  V30 8497 C 807.528 -1.59893 0.170567 0
M  V30 8498 O 808.718 -1.68986 0.422996 0
M  V30 8499 C 805.85 -3.27786 0.93644 0
M  V30 8500 H 807.043 -2.01003 2.22571 0
M  V30 8501 H 804.596 -1.01944 1.18479 0
M  V30 8502 H 805.331 -3.24285 -0.0315408 0
M  V30 8503 H 805.116 -3.52333 1.72057 0
M  V30 8504 H 806.606 -4.07782 0.900214 0
M  V30 8505 N 807.043 -1.17915 -1.04565 0
M  V30 8506 C 808.291 -0.969505 -1.77327 0
M  V30 8507 C 808.612 0.502569 -1.88412 0
M  V30 8508 O 807.882 1.36467 -1.40547 0
M  V30 8509 H 806.462 -0.355723 -0.656864 0
M  V30 8510 H 809.124 -1.48506 -1.26223 0
M  V30 8511 H 808.22 -1.40324 -2.78775 0
M  V30 8512 N 808.521 1.23394 -0.980386 0
M  V30 8513 C 809.746 1.96384 -0.666935 0
M  V30 8514 C 810.171 1.72087 0.759456 0
M  V30 8515 O 809.529 0.992328 1.51732 0
M  V30 8516 C 809.577 3.47499 -0.963177 0
M  V30 8517 O 808.681 4.12363 -0.0552051 0
M  V30 8518 H 808.022 0.614797 -0.250839 0
M  V30 8519 H 810.552 1.56831 -1.31398 0
M  V30 8520 H 810.562 3.97953 -0.899877 0
M  V30 8521 H 809.237 3.6451 -2.00264 0
M  V30 8522 H 807.814 3.72499 -0.172914 0
M  V30 8523 N 809.999 0.752036 1.385 0
M  V30 8524 C 811.224 0.316993 2.04963 0
M  V30 8525 C 811.649 -1.04582 1.56346 0
M  V30 8526 O 811.007 -1.66616 0.714755 0
M  V30 8527 C 811.055 0.347235 3.58924 0
M  V30 8528 O 810.159 -0.659296 4.07096 0
M  V30 8529 H 809.5 0.140652 0.648932 0
M  V30 8530 H 812.03 1.02272 1.77205 0
M  V30 8531 H 812.04 0.19757 4.07521 0
M  V30 8532 H 810.715 1.34157 3.93668 0
M  V30 8533 H 809.292 -0.474371 3.6987 0
M  V30 8534 N 811.477 -1.49425 0.500989 0
M  V30 8535 C 812.888 -1.86624 0.0532011 0
M  V30 8536 C 813.239 -1.41331 -1.36088 0
M  V30 8537 O 812.364 -0.791195 -2.01418 0
M  V30 8538 C 812.959 -3.38681 0.0897693 0
M  V30 8539 C 811.518 -3.75181 -0.302677 0
M  V30 8540 C 810.665 -2.73419 0.462307 0
M  V30 8541 H 813.616 -1.41743 0.713773 0
M  V30 8542 H 813.637 -3.73902 -0.705528 0
M  V30 8543 H 813.149 -3.71616 1.11907 0
M  V30 8544 H 811.25 -3.47855 -1.33521 0
M  V30 8545 H 811.363 -4.79097 0.0167653 0
M  V30 8546 H 809.727 -2.54548 -0.0878557 0
M  V30 8547 H 810.51 -3.09198 1.49169 0
M  V30 8548 N 812.955 -0.234822 -1.55841 0
M  V30 8549 C 814.18 0.400741 -2.03492 0
M  V30 8550 C 814.605 1.51618 -1.11327 0
M  V30 8551 O 813.963 1.81002 -0.103922 0
M  V30 8552 C 814.011 0.897184 -3.49261 0
M  V30 8553 O 813.115 2.00764 -3.60233 0
M  V30 8554 H 812.456 0.0890023 -0.658008 0
M  V30 8555 H 814.986 -0.357345 -2.01455 0
M  V30 8556 H 814.996 1.20356 -3.89844 0
M  V30 8557 H 813.671 0.0808639 -4.15821 0
M  V30 8558 H 812.248 1.70689 -3.31541 0
M  V30 8559 N 814.433 1.57553 0.0384317 0
M  V30 8560 C 815.363 2.0898 1.04161 0
M  V30 8561 C 816.344 0.99029 1.38301 0
M  V30 8562 O 817.529 1.26499 1.47349 0
M  V30 8563 C 814.659 2.56145 2.34536 0
M  V30 8564 C 813.613 3.70275 2.14663 0
M  V30 8565 C 812.939 4.03612 3.50715 0
M  V30 8566 C 814.239 4.99067 1.54045 0
M  V30 8567 H 815.933 2.93046 0.613548 0
M  V30 8568 H 813.479 1.40973 0.293684 0
M  V30 8569 H 815.432 2.90741 3.05037 0
M  V30 8570 H 814.156 1.6915 2.79385 0
M  V30 8571 H 812.815 3.36013 1.46597 0
M  V30 8572 H 812.463 3.13698 3.93195 0
M  V30 8573 H 812.163 4.80482 3.38247 0
M  V30 8574 H 813.687 4.40735 4.22593 0
M  V30 8575 H 815.101 5.3168 2.14451 0
M  V30 8576 H 813.498 5.80484 1.52178 0
M  V30 8577 H 814.568 4.8226 0.505259 0
M  V30 8578 N 815.911 -0.310526 1.54511 0
M  V30 8579 C 816.821 -1.4054 1.87844 0
M  V30 8580 C 817.837 -1.55954 0.771635 0
M  V30 8581 O 819.013 -1.70801 1.06719 0
M  V30 8582 C 816.078 -2.75063 2.11048 0
M  V30 8583 C 815.139 -2.68715 3.348 0
M  V30 8584 C 814.372 -3.96821 3.56887 0
M  V30 8585 O 814.595 -4.95721 2.82165 0
M  V30 8586 O 813.529 -3.99291 4.50389 0
M  V30 8587 H 817.355 -1.15275 2.80972 0
M  V30 8588 H 814.94 -0.505732 1.4058 0
M  V30 8589 H 816.822 -3.54671 2.27566 0
M  V30 8590 H 815.497 -3.00191 1.21108 0
M  V30 8591 H 814.404 -1.87611 3.23655 0
M  V30 8592 H 815.737 -2.4854 4.2484 0
M  V30 8593 N 817.389 -1.46805 -0.573248 0
M  V30 8594 C 818.321 -1.54127 -1.6964 0
M  V30 8595 C 819.334 -0.428778 -1.57052 0
M  V30 8596 O 820.523 -0.697612 -1.64303 0
M  V30 8597 C 817.623 -1.41438 -3.07975 0
M  V30 8598 C 816.796 -2.66974 -3.46474 0
M  V30 8599 C 815.855 -2.48349 -4.63906 0
M  V30 8600 O 814.881 -3.22109 -4.69292 0
M  V30 8601 N 816.083 -1.55129 -5.59388 0
M  V30 8602 H 818.848 -2.50971 -1.6381 0
M  V30 8603 H 816.409 -1.42981 -0.759479 0
M  V30 8604 H 818.401 -1.26737 -3.84343 0
M  V30 8605 H 816.971 -0.527388 -3.08119 0
M  V30 8606 H 816.191 -2.9655 -2.59715 0
M  V30 8607 H 817.479 -3.50347 -3.68964 0
M  V30 8608 H 816.877 -0.94324 -5.57781 0
M  V30 8609 H 815.434 -1.46387 -6.35149 0
M  V30 8610 N 818.867 0.818669 -1.34668 0
M  V30 8611 C 820.144 1.56118 -1.17841 0
M  V30 8612 C 820.524 2.09646 0.24731 0
M  V30 8613 O 819.872 1.91329 1.24922 0
M  V30 8614 C 820.082 2.67922 -2.23649 0
M  V30 8615 C 821.43 3.36579 -2.58843 0
M  V30 8616 O 822.454 2.78182 -2.22471 0
M  V30 8617 O 821.313 4.42045 -3.21339 0
M  V30 8618 H 818.407 0.689216 -0.457067 0
M  V30 8619 H 820.953 0.859674 -1.46314 0
M  V30 8620 H 819.725 2.26153 -3.19328 0
M  V30 8621 H 819.348 3.45719 -1.96377 0
M  V30 8622 N 820.346 1.18468 1.03938 0
M  V30 8623 C 821.623 0.890435 1.74157 0
M  V30 8624 C 822.003 -0.606409 2.02203 0
M  V30 8625 O 821.351 -1.5615 1.66822 0
M  V30 8626 C 821.561 1.73906 3.02585 0
M  V30 8627 C 822.909 1.96686 3.76297 0
M  V30 8628 O 823.933 1.70969 3.12487 0
M  V30 8629 O 822.792 2.39986 4.90988 0
M  V30 8630 H 819.886 0.330889 0.757919 0
M  V30 8631 H 822.432 1.29228 1.09992 0
M  V30 8632 H 821.204 2.75369 2.78006 0
M  V30 8633 H 820.827 1.33581 3.74489 0
M  V30 8634 N 821.824 -1.22873 0.986916 0
M  V30 8635 C 823.072 -1.91084 0.658121 0
M  V30 8636 C 823.393 -1.77304 -0.811675 0
M  V30 8637 O 822.663 -1.15649 -1.58121 0
M  V30 8638 H 821.243 -0.707251 0.240427 0
M  V30 8639 H 823.905 -1.49357 1.25213 0
M  V30 8640 H 823.001 -2.98373 0.915428 0
M  V30 8641 N 823.302 -0.75937 -1.38099 0
M  V30 8642 C 824.579 -0.243371 -1.9408 0
M  V30 8643 C 824.959 1.25942 -1.69416 0
M  V30 8644 O 824.307 2.03667 -1.03595 0
M  V30 8645 C 824.517 -0.603328 -3.43745 0
M  V30 8646 C 825.865 -0.566195 -4.20808 0
M  V30 8647 O 826.889 -0.541969 -3.52053 0
M  V30 8648 O 825.748 -0.582261 -5.43389 0
M  V30 8649 H 822.842 -0.0526825 -0.82532 0
M  V30 8650 H 825.388 -0.839884 -1.47459 0
M  V30 8651 H 824.16 -1.64098 -3.55229 0
M  V30 8652 H 823.783 0.0208887 -3.97595 0
M  V30 8653 N 824.78 1.49157 -0.508906 0
M  V30 8654 C 825.69 2.33045 0.269656 0
M  V30 8655 C 826.706 1.45143 0.959662 0
M  V30 8656 O 827.882 1.78155 0.939295 0
M  V30 8657 C 824.947 3.20772 1.31554 0
M  V30 8658 C 824.008 4.24531 0.638131 0
M  V30 8659 C 823.241 5.08065 1.63418 0
M  V30 8660 O 823.464 4.93238 2.86483 0
M  V30 8661 O 822.398 5.90117 1.18516 0
M  V30 8662 H 826.224 3.00821 -0.417183 0
M  V30 8663 H 823.809 1.46938 -0.270119 0
M  V30 8664 H 825.691 3.75095 1.92047 0
M  V30 8665 H 824.366 2.55681 1.98516 0
M  V30 8666 H 823.273 3.74099 -0.00674357 0
M  V30 8667 H 824.606 4.92199 0.0108155 0
M  V30 8668 N 826.258 0.243083 1.55714 0
M  V30 8669 C 827.168 -0.668913 2.24862 0
M  V30 8670 C 828.184 -1.19638 1.26344 0
M  V30 8671 O 829.36 -1.23345 1.5921 0
M  V30 8672 C 826.425 -1.85084 2.93163 0
M  V30 8673 C 825.486 -1.36323 4.07081 0
M  V30 8674 C 824.719 -2.48882 4.72116 0
M  V30 8675 O 824.942 -3.67523 4.36214 0
M  V30 8676 O 823.876 -2.18857 5.60701 0
M  V30 8677 H 827.702 -0.109737 3.03502 0
M  V30 8678 H 825.287 0.0117411 1.49395 0
M  V30 8679 H 827.169 -2.54065 3.36197 0
M  V30 8680 H 825.844 -2.39771 2.17466 0
M  V30 8681 H 824.751 -0.640804 3.68571 0
M  V30 8682 H 826.084 -0.86249 4.84584 0
M  V30 8683 N 827.736 -1.57571 -0.0300757 0
M  V30 8684 C 828.964 -1.93485 -0.732891 0
M  V30 8685 C 829.379 -0.842758 -1.68947 0
M  V30 8686 O 828.736 0.180904 -1.81601 0
M  V30 8687 C 828.787 -3.29328 -1.49082 0
M  V30 8688 O 828.508 -4.34341 -0.572639 0
M  V30 8689 C 830.009 -3.79517 -2.29088 0
M  V30 8690 H 827.229 -0.638588 -0.206026 0
M  V30 8691 H 829.773 -2.04496 0.0120966 0
M  V30 8692 H 827.928 -3.19716 -2.1877 0
M  V30 8693 H 828.342 -5.12748 -1.10406 0
M  V30 8694 H 829.816 -4.77081 -2.77665 0
M  V30 8695 H 830.293 -3.10659 -3.10464 0
M  V30 8696 H 830.899 -3.92208 -1.64477 0
M  V30 8697 N 829.214 0.302327 -1.54673 0
M  V30 8698 C 830.439 1.06103 -1.78205 0
M  V30 8699 C 830.864 1.80204 -0.53926 0
M  V30 8700 O 830.222 1.73975 0.510142 0
M  V30 8701 C 830.27 2.01829 -2.98827 0
M  V30 8702 O 829.374 3.10108 -2.71858 0
M  V30 8703 H 828.715 0.30487 -0.589873 0
M  V30 8704 H 831.245 0.340153 -2.01753 0
M  V30 8705 H 831.255 2.44319 -3.2676 0
M  V30 8706 H 829.93 1.473 -3.88942 0
M  V30 8707 H 828.507 2.72142 -2.54937 0
M  V30 8708 N 830.692 1.47107 0.565454 0
M  V30 8709 C 831.938 1.53535 1.32495 0
M  V30 8710 C 832.271 0.193537 1.93233 0
M  V30 8711 O 831.546 -0.796956 1.77423 0
M  V30 8712 C 831.829 2.64712 2.4413 0
M  V30 8713 C 831.682 4.08482 1.88314 0
M  V30 8714 C 833.001 2.71853 3.46098 0
M  V30 8715 H 830.12 0.558926 0.480386 0
M  V30 8716 H 832.762 1.79125 0.633575 0
M  V30 8717 H 830.912 2.43023 3.03104 0
M  V30 8718 H 832.584 4.4151 1.33665 0
M  V30 8719 H 830.827 4.17148 1.19037 0
M  V30 8720 H 831.498 4.82032 2.68978 0
M  V30 8721 H 833.974 2.91397 2.97031 0
M  V30 8722 H 832.85 3.51433 4.21646 0
M  V30 8723 H 833.111 1.78584 4.04426 0
M  V30 8724 N 832.17 -0.811516 1.35101 0
M  V30 8725 C 833.416 -1.57068 1.28287 0
M  V30 8726 C 833.749 -1.93667 -0.143808 0
M  V30 8727 O 833.024 -1.60953 -1.09199 0
M  V30 8728 C 833.307 -2.86259 2.18466 0
M  V30 8729 C 833.16 -2.56168 3.69727 0
M  V30 8730 C 834.479 -3.87924 2.07852 0
M  V30 8731 H 831.598 -0.569869 0.467353 0
M  V30 8732 H 834.24 -0.934023 1.65457 0
M  V30 8733 H 832.39 -3.4059 1.86898 0
M  V30 8734 H 834.062 -2.08059 4.11715 0
M  V30 8735 H 832.305 -1.89436 3.90252 0
M  V30 8736 H 832.976 -3.48344 4.28206 0
M  V30 8737 H 835.452 -3.4298 2.35593 0
M  V30 8738 H 834.328 -4.76106 2.73157 0
M  V30 8739 H 834.589 -4.2923 1.05896 0
M  V30 8740 N 833.648 -1.19017 -1.03309 0
M  V30 8741 C 834.897 -0.984542 -1.76039 0
M  V30 8742 C 835.21 0.485937 -1.89468 0
M  V30 8743 O 836.416 0.810278 -2.59127 0
M  V30 8744 C 834.872 -1.71261 -3.1654 0
M  V30 8745 C 834.48 -3.22291 -3.11179 0
M  V30 8746 C 836.224 -1.59007 -3.93595 0
M  V30 8747 C 834.131 -3.87704 -4.46587 0
M  V30 8748 H 833.061 -0.364749 -0.659905 0
M  V30 8749 H 835.712 -1.4247 -1.15649 0
M  V30 8750 H 834.094 -1.20025 -3.77373 0
M  V30 8751 H 835.268 -3.80611 -2.59753 0
M  V30 8752 H 833.583 -3.34772 -2.47622 0
M  V30 8753 H 836.18 -2.05232 -4.93745 0
M  V30 8754 H 836.523 -0.543534 -4.12736 0
M  V30 8755 H 837.056 -2.07564 -3.39355 0
M  V30 8756 H 833.795 -4.92437 -4.3265 0
M  V30 8757 H 833.315 -3.34172 -4.98085 0
M  V30 8758 H 834.994 -3.91008 -5.15482 0
M  V30 8759 N 835.127 1.22348 -0.993418 0
M  V30 8760 C 836.373 1.91393 -0.67056 0
M  V30 8761 C 836.706 1.77163 0.795428 0
M  V30 8762 O 835.981 1.14084 1.57528 0
M  V30 8763 C 836.264 3.43589 -1.0779 0
M  V30 8764 C 836.117 3.66867 -2.60248 0
M  V30 8765 C 837.436 4.35545 -0.631527 0
M  V30 8766 H 834.555 0.695057 -0.24508 0
M  V30 8767 H 837.197 1.44213 -1.23703 0
M  V30 8768 H 835.347 3.83903 -0.595902 0
M  V30 8769 H 837.019 3.35954 -3.16121 0
M  V30 8770 H 835.262 3.1113 -3.02293 0
M  V30 8771 H 835.933 4.73457 -2.838 0
M  V30 8772 H 838.409 4.0275 -1.04554 0
M  V30 8773 H 837.285 5.40707 -0.944831 0
M  V30 8774 H 837.546 4.39618 0.467779 0
M  V30 8775 N 836.605 0.766683 1.37694 0
M  V30 8776 C 837.853 0.328065 1.9942 0
M  V30 8777 C 838.174 -1.09775 1.61166 0
M  V30 8778 O 837.444 -1.75288 0.874686 0
M  V30 8779 H 836.024 0.11831 0.737572 0
M  V30 8780 H 838.686 0.983686 1.68255 0
M  V30 8781 H 837.782 0.401647 3.09505 0
M  V30 8782 N 838.083 -1.48885 0.516809 0
M  V30 8783 C 839.03 -2.29408 -0.253125 0
M  V30 8784 C 840 -1.36533 -0.945935 0
M  V30 8785 O 841.185 -1.65495 -0.949527 0
M  V30 8786 C 838.325 -3.19592 -1.30211 0
M  V30 8787 C 837.438 -4.27535 -0.61948 0
M  V30 8788 C 836.573 -5.04916 -1.65026 0
M  V30 8789 C 835.612 -6.04677 -0.950368 0
M  V30 8790 N 834.749 -6.75164 -1.92608 0
M  V30 8791 H 839.589 -2.94738 0.439744 0
M  V30 8792 H 837.126 -1.45311 0.2287 0
M  V30 8793 H 839.084 -3.70267 -1.92245 0
M  V30 8794 H 837.714 -2.56213 -1.96353 0
M  V30 8795 H 836.766 -3.80228 0.114505 0
M  V30 8796 H 838.078 -4.98752 -0.0693016 0
M  V30 8797 H 837.232 -5.59539 -2.34523 0
M  V30 8798 H 835.971 -4.33508 -2.23432 0
M  V30 8799 H 834.976 -5.4927 -0.241252 0
M  V30 8800 H 836.201 -6.78077 -0.372599 0
M  V30 8801 H 834.147 -6.06517 -2.49946 0
M  V30 8802 H 834.064 -7.4241 -1.42699 0
M  V30 8803 H 835.332 -7.34384 -2.61345 0
M  V30 8804 N 839.561 -0.251338 -1.55583 0
M  V30 8805 C 840.81 0.372681 -1.98227 0
M  V30 8806 C 841.123 1.58743 -1.1428 0
M  V30 8807 O 842.329 2.28289 -1.46957 0
M  V30 8808 C 840.785 0.714439 -3.52738 0
M  V30 8809 C 840.393 -0.479168 -4.4543 0
M  V30 8810 C 842.137 1.3024 -4.04027 0
M  V30 8811 C 840.044 -0.113318 -5.91291 0
M  V30 8812 H 838.974 0.14302 -0.740312 0
M  V30 8813 H 841.625 -0.352253 -1.80087 0
M  V30 8814 H 840.007 1.49762 -3.66589 0
M  V30 8815 H 841.181 -1.25644 -4.4334 0
M  V30 8816 H 839.496 -0.982359 -4.04646 0
M  V30 8817 H 842.093 1.58953 -5.10527 0
M  V30 8818 H 842.436 2.22837 -3.51638 0
M  V30 8819 H 842.969 0.582024 -3.93519 0
M  V30 8820 H 839.708 -1.00654 -6.47726 0
M  V30 8821 H 839.228 0.627666 -5.96507 0
M  V30 8822 H 840.907 0.30293 -6.4629 0
M  V30 8823 N 841.039 1.57585 0.0217189 0
M  V30 8824 C 842.264 1.94267 0.726309 0
M  V30 8825 C 842.689 0.851904 1.67703 0
M  V30 8826 O 842.047 -0.191792 1.80283 0
M  V30 8827 C 842.095 3.30023 1.45318 0
M  V30 8828 O 841.199 3.22791 2.5667 0
M  V30 8829 H 840.54 0.634777 0.194818 0
M  V30 8830 H 843.07 2.04585 -0.0249985 0
M  V30 8831 H 843.08 3.65084 1.82147 0
M  V30 8832 H 841.755 4.08972 0.755962 0
M  V30 8833 H 840.332 2.99373 2.2233 0
M  V30 8834 N 842.517 -0.29412 1.54831 0
M  V30 8835 C 843.764 -1.02846 1.74439 0
M  V30 8836 C 844.092 -1.87029 0.533905 0
M  V30 8837 O 843.347 -1.8962 -0.484035 0
M  V30 8838 C 843.646 -1.95782 2.99006 0
M  V30 8839 C 843.312 -1.2752 4.32492 0
M  V30 8840 C 841.974 -1.08637 4.68777 0
M  V30 8841 C 844.326 -0.787761 5.15212 0
M  V30 8842 C 841.654 -0.39704 5.85355 0
M  V30 8843 C 844.006 -0.112123 6.32501 0
M  V30 8844 C 842.67 0.0886071 6.67441 0
M  V30 8845 H 841.94 -0.376341 0.638317 0
M  V30 8846 H 844.587 -0.302684 1.89093 0
M  V30 8847 H 842.892 -2.74911 2.79162 0
M  V30 8848 H 844.589 -2.52684 3.11371 0
M  V30 8849 H 841.179 -1.43226 4.03961 0
M  V30 8850 H 845.363 -0.921341 4.87673 0
M  V30 8851 H 840.619 -0.230597 6.10965 0
M  V30 8852 H 844.793 0.27344 6.95863 0
M  V30 8853 H 842.42 0.624748 7.57628 0
M  V30 8854 N 843.995 -1.47404 -0.557645 0
M  V30 8855 C 845.235 -1.55585 -1.32562 0
M  V30 8856 C 845.599 -0.212926 -1.90816 0
M  V30 8857 O 846.8 -0.169574 -2.68265 0
M  V30 8858 C 845.071 -2.64249 -2.40639 0
M  V30 8859 S 846.63 -2.9201 -3.2753 0
M  V30 8860 H 843.448 -0.549409 -0.451298 0
M  V30 8861 H 846.05 -1.84782 -0.638438 0
M  V30 8862 H 844.754 -3.60421 -1.96277 0
M  V30 8863 H 844.285 -2.36866 -3.14099 0
M  V30 8864 H 846.3 -2.29191 -4.40098 0
M  V30 8865 N 845.473 0.80434 -1.35529 0
M  V30 8866 C 846.884 1.37849 -1.25915 0
M  V30 8867 C 847.235 1.95905 0.107495 0
M  V30 8868 O 846.36 1.91462 1.00852 0
M  V30 8869 C 846.955 2.50608 -2.27994 0
M  V30 8870 C 845.514 3.03879 -2.22114 0
M  V30 8871 C 844.661 1.76856 -2.13582 0
M  V30 8872 H 847.612 0.607192 -1.46625 0
M  V30 8873 H 847.633 3.29221 -1.90772 0
M  V30 8874 H 847.145 2.08323 -3.27449 0
M  V30 8875 H 845.246 3.50622 -1.26077 0
M  V30 8876 H 845.359 3.61707 -3.14173 0
M  V30 8877 H 843.723 1.98498 -1.59595 0
M  V30 8878 H 844.506 1.36721 -3.14901 0
M  V30 8879 N 846.951 1.19563 1.02676 0
M  V30 8880 C 847.898 0.935291 2.11 0
M  V30 8881 C 848.868 -0.130685 1.65585 0
M  V30 8882 O 850.053 0.0119062 1.90796 0
M  V30 8883 C 847.193 0.482384 3.41712 0
M  V30 8884 C 846.306 1.61537 4.00662 0
M  V30 8885 C 845.441 1.11378 5.19392 0
M  V30 8886 C 844.48 2.22052 5.70403 0
M  V30 8887 N 843.617 1.73185 6.80405 0
M  V30 8888 H 848.457 1.86275 2.32606 0
M  V30 8889 H 845.994 0.928656 1.14081 0
M  V30 8890 H 847.952 0.20118 4.16715 0
M  V30 8891 H 846.582 -0.408086 3.2021 0
M  V30 8892 H 845.634 2.01173 3.22852 0
M  V30 8893 H 846.946 2.44912 4.34534 0
M  V30 8894 H 846.1 0.787935 6.01562 0
M  V30 8895 H 844.839 0.249789 4.8706 0
M  V30 8896 H 843.844 2.55465 4.86845 0
M  V30 8897 H 845.069 3.08911 6.04774 0
M  V30 8898 H 843.015 0.890973 6.49921 0
M  V30 8899 H 842.932 2.50148 7.13416 0
M  V30 8900 H 844.2 1.4357 7.66164 0
M  V30 8901 N 848.429 -1.21819 0.999893 0
M  V30 8902 C 849.706 -1.86318 0.595384 0
M  V30 8903 C 850.086 -1.8965 -0.927143 0
M  V30 8904 O 849.434 -1.3921 -1.81199 0
M  V30 8905 C 849.644 -3.26837 1.22387 0
M  V30 8906 C 850.992 -4.03272 1.32878 0
M  V30 8907 O 852.016 -3.36129 1.1788 0
M  V30 8908 O 850.875 -5.23477 1.56952 0
M  V30 8909 H 847.969 -0.801638 0.203238 0
M  V30 8910 H 850.515 -1.29542 1.09622 0
M  V30 8911 H 849.287 -3.19084 2.26497 0
M  V30 8912 H 848.91 -3.91226 0.709069 0
M  V30 8913 N 849.908 -0.773975 -1.37286 0
M  V30 8914 C 851.154 -0.339809 -1.99933 0
M  V30 8915 C 851.487 1.0815 -1.61299 0
M  V30 8916 O 850.762 1.74442 -0.860252 0
M  V30 8917 C 851.045 -0.485919 -3.56806 0
M  V30 8918 C 850.898 -1.9498 -4.05343 0
M  V30 8919 C 852.217 0.108461 -4.39966 0
M  V30 8920 H 849.336 -0.124944 -0.726332 0
M  V30 8921 H 851.978 -0.977433 -1.6293 0
M  V30 8922 H 850.128 0.0569023 -3.88458 0
M  V30 8923 H 851.8 -2.5525 -3.84246 0
M  V30 8924 H 850.043 -2.45784 -3.57453 0
M  V30 8925 H 850.714 -2.00308 -5.14374 0
M  V30 8926 H 853.19 -0.354722 -4.14585 0
M  V30 8927 H 852.066 -0.0238926 -5.48895 0
M  V30 8928 H 852.327 1.19901 -4.25531 0
M  V30 8929 N 851.386 1.48609 -0.524698 0
M  V30 8930 C 852.316 2.32366 0.229837 0
M  V30 8931 C 853.297 1.41759 0.940129 0
M  V30 8932 O 854.482 1.7065 0.926936 0
M  V30 8933 C 851.612 3.22835 1.28043 0
M  V30 8934 C 850.566 4.22424 0.688603 0
M  V30 8935 C 849.892 5.0199 1.84146 0
M  V30 8936 C 851.192 5.21217 -0.336176 0
M  V30 8937 H 852.886 2.95698 -0.469339 0
M  V30 8938 H 850.432 1.42197 -0.227156 0
M  V30 8939 H 852.385 3.80253 1.8162 0
M  V30 8940 H 851.109 2.57492 2.00912 0
M  V30 8941 H 849.768 3.66185 0.174402 0
M  V30 8942 H 849.416 4.33076 2.5584 0
M  V30 8943 H 849.116 5.69392 1.45142 0
M  V30 8944 H 850.64 5.62259 2.38111 0
M  V30 8945 H 852.054 5.7319 0.112307 0
M  V30 8946 H 850.451 5.96642 -0.643324 0
M  V30 8947 H 851.521 4.68676 -1.24381 0
M  V30 8948 N 852.864 0.259585 1.55447 0
M  V30 8949 C 854.112 -0.360893 1.98852 0
M  V30 8950 C 854.433 -1.57535 1.14924 0
M  V30 8951 O 853.703 -1.94485 0.235025 0
M  V30 8952 H 852.283 -0.136332 0.734454 0
M  V30 8953 H 854.945 0.361319 1.91522 0
M  V30 8954 H 854.041 -0.661388 3.05012 0
M  V30 8955 N 854.342 -1.57594 -0.0133615 0
M  V30 8956 C 855.292 -2.04048 -1.01726 0
M  V30 8957 C 856.276 -0.932682 -1.3111 0
M  V30 8958 O 857.468 -1.19652 -1.30432 0
M  V30 8959 C 854.597 -2.53637 -2.31351 0
M  V30 8960 C 853.683 -3.71269 -2.04989 0
M  V30 8961 N 854.074 -4.83436 -1.48739 0
M  V30 8962 C 852.372 -3.78943 -2.35198 0
M  V30 8963 C 853.073 -5.64961 -1.38542 0
M  V30 8964 N 852.049 -5.10554 -1.86643 0
M  V30 8965 H 855.851 -2.88188 -0.576623 0
M  V30 8966 H 853.365 -1.60912 -0.219344 0
M  V30 8967 H 855.362 -2.85186 -3.04096 0
M  V30 8968 H 854.022 -1.7091 -2.76079 0
M  V30 8969 H 855.033 -5.04558 -1.16798 0
M  V30 8970 H 851.71 -3.07047 -2.82893 0
M  V30 8971 H 853.1 -6.65092 -0.954075 0
M  V30 8972 N 855.82 0.285905 -1.54985 0
M  V30 8973 C 857.068 1.01718 -1.74636 0
M  V30 8974 C 857.389 1.87277 -0.543342 0
M  V30 8975 O 856.659 1.90847 0.442078 0
M  V30 8976 H 855.239 0.378549 -0.643979 0
M  V30 8977 H 857.901 0.313247 -1.92366 0
M  V30 8978 H 856.997 1.66159 -2.64192 0
M  V30 8979 N 857.298 1.47698 0.54982 0
M  V30 8980 C 858.261 1.60282 1.63837 0
M  V30 8981 C 859.261 0.477394 1.5355 0
M  V30 8982 O 860.451 0.742665 1.57576 0
M  V30 8983 C 857.583 1.55431 3.03404 0
M  V30 8984 H 858.776 2.57325 1.54026 0
M  V30 8985 H 856.329 1.35999 0.770329 0
M  V30 8986 H 857.064 0.597912 3.1874 0
M  V30 8987 H 856.849 2.37116 3.12279 0
M  V30 8988 H 858.339 1.6739 3.82584 0
M  V30 8989 N 858.776 -0.797141 1.35954 0
M  V30 8990 C 859.686 -1.94088 1.31784 0
M  V30 8991 C 860.702 -1.72588 0.221227 0
M  V30 8992 O 861.878 -1.96256 0.452255 0
M  V30 8993 C 858.943 -3.28828 1.09878 0
M  V30 8994 C 858.004 -3.63158 2.28942 0
M  V30 8995 C 857.237 -4.91469 2.08072 0
M  V30 8996 O 857.46 -5.60616 1.05196 0
M  V30 8997 O 856.394 -5.24277 2.95664 0
M  V30 8998 H 860.22 -2.00554 2.28061 0
M  V30 8999 H 857.805 -0.936288 1.16422 0
M  V30 9000 H 859.687 -4.09473 0.995485 0
M  V30 9001 H 858.362 -3.23271 0.16659 0
M  V30 9002 H 857.269 -2.82851 2.44839 0
M  V30 9003 H 858.602 -3.7343 3.20641 0
M  V30 9004 N 860.254 -1.20106 -1.0204 0
M  V30 9005 C 861.502 -1.0069 -1.75231 0
M  V30 9006 C 861.823 0.462491 -1.89436 0
M  V30 9007 O 861.093 1.33455 -1.4341 0
M  V30 9008 H 859.673 -0.369576 -0.649171 0
M  V30 9009 H 862.335 -1.51149 -1.23044 0
M  V30 9010 H 861.431 -1.46205 -2.75736 0
M  V30 9011 N 861.732 1.21287 -1.00634 0
M  V30 9012 C 862.96 1.94385 -0.708678 0
M  V30 9013 C 863.375 1.7416 0.728957 0
M  V30 9014 O 862.732 1.04906 1.49335 0
M  V30 9015 C 862.783 3.46755 -1.02193 0
M  V30 9016 O 862.504 3.6631 -2.40309 0
M  V30 9017 C 864.005 4.37014 -0.743867 0
M  V30 9018 H 861.225 0.618136 -0.261052 0
M  V30 9019 H 863.769 1.54067 -1.34475 0
M  V30 9020 H 861.924 3.8499 -0.431441 0
M  V30 9021 H 862.338 4.60393 -2.51274 0
M  V30 9022 H 863.812 5.42621 -1.01321 0
M  V30 9023 H 864.289 4.38017 0.322084 0
M  V30 9024 H 864.895 4.04426 -1.31603 0
M  V30 9025 N 863.21 0.781244 1.36873 0
M  V30 9026 C 864.459 0.34652 1.98701 0
M  V30 9027 C 864.772 -1.08555 1.62712 0
M  V30 9028 O 865.978 -1.62213 2.17713 0
M  V30 9029 C 864.434 0.568611 3.5538 0
M  V30 9030 C 864.042 2.01156 4.003 0
M  V30 9031 C 865.786 0.197983 4.24038 0
M  V30 9032 C 863.693 2.18074 5.49725 0
M  V30 9033 H 862.623 0.125821 0.743428 0
M  V30 9034 H 865.274 0.961721 1.56279 0
M  V30 9035 H 863.656 -0.116185 3.9583 0
M  V30 9036 H 864.83 2.73209 3.71071 0
M  V30 9037 H 863.145 2.33967 3.44454 0
M  V30 9038 H 865.742 0.302778 5.33842 0
M  V30 9039 H 866.085 -0.852927 4.07469 0
M  V30 9040 H 866.618 0.835696 3.88923 0
M  V30 9041 H 863.357 3.21519 5.71232 0
M  V30 9042 H 862.877 1.50517 5.80607 0
M  V30 9043 H 864.556 1.98393 6.15832 0
M  V30 9044 N 864.689 -1.48329 0.532571 0
M  V30 9045 C 865.935 -2.028 -0.000583219 0
M  V30 9046 C 866.268 -1.40858 -1.33688 0
M  V30 9047 O 865.543 -0.555261 -1.86406 0
M  V30 9048 C 865.826 -3.59901 -0.119846 0
M  V30 9049 C 865.679 -4.32318 1.2418 0
M  V30 9050 C 866.998 -4.31904 -0.845372 0
M  V30 9051 H 864.117 -0.736999 0.00126205 0
M  V30 9052 H 866.759 -1.77024 0.690102 0
M  V30 9053 H 864.909 -3.81993 -0.708092 0
M  V30 9054 H 866.581 -4.21637 1.87136 0
M  V30 9055 H 864.824 -3.93635 1.82301 0
M  V30 9056 H 865.495 -5.40697 1.11132 0
M  V30 9057 H 867.971 -4.14658 -0.346159 0
M  V30 9058 H 866.847 -5.41509 -0.897723 0
M  V30 9059 H 867.108 -3.99369 -1.89622 0
M  V30 9060 N 866.167 -0.267825 -1.55308 0
M  V30 9061 C 867.397 0.354073 -2.03543 0
M  V30 9062 C 867.805 1.50554 -1.14586 0
M  V30 9063 O 867.148 1.83028 -0.156991 0
M  V30 9064 C 867.21 0.904148 -3.47945 0
M  V30 9065 C 866.874 -0.11775 -4.56848 0
M  V30 9066 C 867.871 -0.934707 -5.11429 0
M  V30 9067 C 865.556 -0.249885 -5.01678 0
M  V30 9068 C 867.55 -1.87005 -6.0935 0
M  V30 9069 C 865.237 -1.18872 -5.99427 0
M  V30 9070 C 866.235 -1.99731 -6.53144 0
M  V30 9071 O 865.923 -2.92028 -7.48983 0
M  V30 9072 H 865.655 0.0857765 -0.670536 0
M  V30 9073 H 868.209 -0.395515 -2.01556 0
M  V30 9074 H 866.439 1.70368 -3.47148 0
M  V30 9075 H 868.128 1.43835 -3.79561 0
M  V30 9076 H 868.894 -0.84332 -4.77612 0
M  V30 9077 H 864.773 0.369469 -4.59517 0
M  V30 9078 H 868.317 -2.5016 -6.51203 0
M  V30 9079 H 864.214 -1.28095 -6.32663 0
M  V30 9080 H 864.982 -2.86627 -7.66673 0
M  V30 9081 N 867.645 1.57599 0.00500368 0
M  V30 9082 C 869.061 1.55463 0.361015 0
M  V30 9083 C 869.261 0.997051 1.75103 0
M  V30 9084 O 868.317 0.628661 2.44549 0
M  V30 9085 C 869.63 2.99734 0.240828 0
M  V30 9086 C 871.178 3.11399 0.316138 0
M  V30 9087 C 871.653 4.57446 0.22513 0
M  V30 9088 N 873.144 4.62334 0.283186 0
M  V30 9089 C 873.879 5.72914 0.23603 0
M  V30 9090 N 873.375 6.92659 0.139762 0
M  V30 9091 N 875.168 5.61364 0.287529 0
M  V30 9092 H 867.319 1.92185 -0.904359 0
M  V30 9093 H 869.582 0.882529 -0.34619 0
M  V30 9094 H 869.288 3.44348 -0.715343 0
M  V30 9095 H 869.162 3.63009 1.02491 0
M  V30 9096 H 871.549 2.66718 1.26275 0
M  V30 9097 H 871.63 2.50911 -0.497725 0
M  V30 9098 H 871.274 5.02801 -0.717917 0
M  V30 9099 H 871.204 5.15874 1.05742 0
M  V30 9100 H 873.695 3.7619 0.359123 0
M  V30 9101 H 874.008 7.72722 0.10954 0
M  V30 9102 H 872.353 6.9492 0.105462 0
M  V30 9103 H 875.544 4.66707 0.360897 0
M  V30 9104 H 875.717 6.47528 0.247313 0
M  V30 9105 N 869.123 -0.277682 1.55134 0
M  V30 9106 C 870.371 -1.00791 1.75173 0
M  V30 9107 C 870.692 -1.86987 0.553266 0
M  V30 9108 O 869.962 -1.91079 -0.43195 0
M  V30 9109 H 868.542 -0.375129 0.645978 0
M  V30 9110 H 871.204 -0.303041 1.9253 0
M  V30 9111 H 870.3 -1.64756 2.6507 0
M  V30 9112 N 870.601 -1.47988 -0.541979 0
M  V30 9113 C 871.534 -1.56172 -1.66389 0
M  V30 9114 C 872.512 -0.412879 -1.57271 0
M  V30 9115 O 873.696 -0.622816 -1.77914 0
M  V30 9116 C 870.823 -1.47851 -3.04726 0
M  V30 9117 C 869.869 -2.67428 -3.32242 0
M  V30 9118 S 870.702 -4.29502 -3.19825 0
M  V30 9119 C 871.858 -4.2376 -4.60628 0
M  V30 9120 H 872.091 -2.51086 -1.59195 0
M  V30 9121 H 869.624 -1.36373 -0.724005 0
M  V30 9122 H 871.582 -1.43738 -3.84512 0
M  V30 9123 H 870.243 -0.542958 -3.09372 0
M  V30 9124 H 869.436 -2.57711 -4.33129 0
M  V30 9125 H 869.038 -2.68743 -2.60103 0
M  V30 9126 H 871.33 -3.92953 -5.51901 0
M  V30 9127 H 872.273 -5.24786 -4.75401 0
M  V30 9128 H 872.681 -3.54398 -4.39389 0
M  V30 9129 N 872.079 0.78992 -1.36375 0
M  V30 9130 C 873.326 1.54777 -1.30576 0
M  V30 9131 C 873.654 1.94159 0.115095 0
M  V30 9132 O 872.909 1.62918 1.08426 0
M  V30 9133 C 873.208 2.83698 -2.17371 0
M  V30 9134 C 872.874 2.63457 -3.65925 0
M  V30 9135 C 871.536 2.57645 -4.06415 0
M  V30 9136 C 873.888 2.44833 -4.60115 0
M  V30 9137 C 871.216 2.31174 -5.39236 0
M  V30 9138 C 873.568 2.19889 -5.93154 0
M  V30 9139 C 872.232 2.1251 -6.32768 0
M  V30 9140 H 871.502 0.566371 -0.477813 0
M  V30 9141 H 874.149 0.91138 -1.68422 0
M  V30 9142 H 872.454 3.51802 -1.72459 0
M  V30 9143 H 874.151 3.41487 -2.10209 0
M  V30 9144 H 870.741 2.68836 -3.33804 0
M  V30 9145 H 874.925 2.48325 -4.29707 0
M  V30 9146 H 870.181 2.23942 -5.68911 0
M  V30 9147 H 874.355 2.04473 -6.65705 0
M  V30 9148 H 871.982 1.91761 -7.35616 0
M  V30 9149 N 873.557 1.20646 1.01402 0
M  V30 9150 C 874.834 0.927176 1.72229 0
M  V30 9151 C 875.214 -0.563382 2.03443 0
M  V30 9152 O 874.562 -1.52576 1.70096 0
M  V30 9153 C 874.772 1.80285 2.98828 0
M  V30 9154 C 876.12 2.04624 3.72041 0
M  V30 9155 O 877.144 1.77559 3.0879 0
M  V30 9156 O 876.003 2.50347 4.85787 0
M  V30 9157 H 873.097 0.346891 0.75073 0
M  V30 9158 H 875.643 1.31532 1.07227 0
M  V30 9159 H 874.415 2.81204 2.72102 0
M  V30 9160 H 874.038 1.41495 3.71571 0
M  V30 9161 N 875.035 -1.20752 1.01276 0
M  V30 9162 C 875.983 -2.25432 0.572989 0
M  V30 9163 C 876.977 -1.64935 -0.386354 0
M  V30 9164 O 878.183 -1.7816 -0.256696 0
M  V30 9165 H 874.558 -0.733229 0.166972 0
M  V30 9166 H 876.529 -2.59856 1.46687 0
M  V30 9167 C 875.278 -3.47615 -0.0768249 0
M  V30 9168 H 874.601 -3.94442 0.652354 0
M  V30 9169 H 876.041 -4.22572 -0.3477 0
M  V30 9170 C 874.5 -3.1003 -1.31845 0
M  V30 9171 O 875.03 -3.21216 -2.41211 0
M  V30 9172 N 873.236 -2.64616 -1.20111 0
M  V30 9173 H 872.783 -2.55714 -0.311184 0
M  V30 9174 H 872.741 -2.39838 -2.03286 0
M  V30 9175 N 876.513 -0.788492 -1.36457 0
M  V30 9176 C 877.929 -0.470063 -1.52521 0
M  V30 9177 C 878.129 1.01176 -1.74258 0
M  V30 9178 O 877.185 1.79726 -1.77355 0
M  V30 9179 C 878.498 -1.2997 -2.71161 0
M  V30 9180 C 880.046 -1.2933 -2.85031 0
M  V30 9181 C 880.521 -2.10665 -4.06674 0
M  V30 9182 N 882.012 -2.08107 -4.13819 0
M  V30 9183 C 882.747 -2.6781 -5.07016 0
M  V30 9184 N 882.243 -3.36369 -6.05663 0
M  V30 9185 N 884.036 -2.57549 -4.99625 0
M  V30 9186 H 876.187 -1.7484 -1.20602 0
M  V30 9187 H 878.45 -0.743159 -0.588574 0
M  V30 9188 H 878.156 -2.35051 -2.61618 0
M  V30 9189 H 878.03 -0.940367 -3.6529 0
M  V30 9190 H 880.417 -0.250414 -2.94036 0
M  V30 9191 H 880.498 -1.69239 -1.91812 0
M  V30 9192 H 880.142 -3.14984 -3.98431 0
M  V30 9193 H 880.072 -1.68128 -4.9904 0
M  V30 9194 H 882.563 -1.58208 -3.43189 0
M  V30 9195 H 882.876 -3.79258 -6.73338 0
M  V30 9196 H 881.221 -3.40471 -6.05891 0
M  V30 9197 H 884.412 -2.0359 -4.21508 0
M  V30 9198 H 884.585 -3.0437 -5.72069 0
M  V30 9199 N 877.991 1.48044 -0.54043 0
M  V30 9200 C 879.268 1.95523 0.0547302 0
M  V30 9201 C 879.648 1.48284 1.5025 0
M  V30 9202 O 878.996 0.714037 2.17057 0
M  V30 9203 C 879.206 3.48923 -0.0733393 0
M  V30 9204 C 880.554 4.24523 0.0806026 0
M  V30 9205 O 881.578 3.562 -5.58687e-05 0
M  V30 9206 O 880.437 5.45922 0.251216 0
M  V30 9207 H 877.531 0.823728 0.073493 0
M  V30 9208 H 880.077 1.5852 -0.605768 0
M  V30 9209 H 878.849 3.76059 -1.08144 0
M  V30 9210 H 878.472 3.92648 0.625536 0
M  V30 9211 N 879.47 0.276058 1.55163 0
M  V30 9212 C 880.716 -0.340959 1.99913 0
M  V30 9213 C 881.049 -1.55434 1.16422 0
M  V30 9214 O 880.324 -1.93081 0.234517 0
M  V30 9215 C 880.607 -0.722211 3.52783 0
M  V30 9216 C 880.46 0.498575 4.47028 0
M  V30 9217 C 881.779 -1.5583 4.11589 0
M  V30 9218 H 878.898 -0.122455 0.726756 0
M  V30 9219 H 881.54 0.38319 1.86096 0
M  V30 9220 H 879.69 -1.33919 3.64689 0
M  V30 9221 H 881.362 1.13713 4.47065 0
M  V30 9222 H 879.605 1.13646 4.18649 0
M  V30 9223 H 880.276 0.188041 5.5168 0
M  V30 9224 H 882.752 -1.03722 4.02965 0
M  V30 9225 H 881.628 -1.79387 5.1876 0
M  V30 9226 H 881.889 -2.53963 3.61877 0
M  V30 9227 N 880.948 -1.576 0.00335426 0
M  V30 9228 C 881.911 -2.07576 -0.971838 0
M  V30 9229 C 882.911 -0.985796 -1.27038 0
M  V30 9230 O 884.101 -1.24833 -1.21501 0
M  V30 9231 C 881.233 -2.52003 -2.29581 0
M  V30 9232 H 882.426 -2.95008 -0.539481 0
M  V30 9233 H 879.979 -1.54381 -0.244186 0
M  V30 9234 H 880.714 -1.67825 -2.77498 0
M  V30 9235 H 880.499 -3.31609 -2.09231 0
M  V30 9236 H 881.989 -2.90983 -2.99531 0
M  V30 9237 N 882.426 0.269451 -1.5528 0
M  V30 9238 C 883.672 1.00206 -1.76314 0
M  V30 9239 C 884.005 1.85812 -0.564581 0
M  V30 9240 O 883.28 1.89509 0.437769 0
M  V30 9241 C 883.563 1.88163 -3.07029 0
M  V30 9242 C 883.416 1.05527 -4.37246 0
M  V30 9243 C 884.735 2.8681 -3.33808 0
M  V30 9244 H 881.854 0.36288 -0.641473 0
M  V30 9245 H 884.496 0.274188 -1.88011 0
M  V30 9246 H 882.646 2.50224 -2.97187 0
M  V30 9247 H 884.318 0.455094 -4.5905 0
M  V30 9248 H 882.561 0.358842 -4.32313 0
M  V30 9249 H 883.232 1.70397 -5.25042 0
M  V30 9250 H 885.708 2.34884 -3.43466 0
M  V30 9251 H 884.584 3.45492 -4.26528 0
M  V30 9252 H 884.845 3.62118 -2.5362 0
M  V30 9253 N 883.904 1.48273 0.534124 0
M  V30 9254 C 884.851 1.62487 1.6391 0
M  V30 9255 C 885.821 0.467062 1.59398 0
M  V30 9256 O 887.006 0.690029 1.77885 0
M  V30 9257 C 884.146 1.66671 3.02183 0
M  V30 9258 C 883.259 2.9353 3.16961 0
M  V30 9259 C 882.394 2.88902 4.45768 0
M  V30 9260 C 881.433 4.10483 4.54059 0
M  V30 9261 N 880.57 4.03956 5.74251 0
M  V30 9262 H 885.41 2.56851 1.51101 0
M  V30 9263 H 882.947 1.27381 0.735704 0
M  V30 9264 H 884.905 1.67079 3.82283 0
M  V30 9265 H 883.535 0.758011 3.13774 0
M  V30 9266 H 882.587 3.02886 2.3014 0
M  V30 9267 H 883.899 3.83501 3.18949 0
M  V30 9268 H 883.053 2.87688 5.34154 0
M  V30 9269 H 881.792 1.96652 4.46295 0
M  V30 9270 H 880.797 4.11977 3.64081 0
M  V30 9271 H 882.022 5.03887 4.55274 0
M  V30 9272 H 879.968 3.14525 5.75682 0
M  V30 9273 H 879.885 4.87628 5.77715 0
M  V30 9274 H 881.153 4.06795 6.64935 0
M  V30 9275 N 885.382 -0.782676 1.36792 0
M  V30 9276 C 886.798 -1.08169 1.17352 0
M  V30 9277 C 886.998 -2.015 0.0022037 0
M  V30 9278 O 886.054 -2.43692 -0.661093 0
M  V30 9279 C 887.367 -1.68969 2.48737 0
M  V30 9280 C 888.915 -1.81278 2.55161 0
M  V30 9281 C 889.39 -2.45492 3.86649 0
M  V30 9282 N 890.881 -2.52954 3.88032 0
M  V30 9283 C 891.616 -3.03465 4.86515 0
M  V30 9284 N 891.112 -3.54232 5.95392 0
M  V30 9285 N 892.905 -3.02239 4.73928 0
M  V30 9286 H 885.056 -0.162757 2.11775 0
M  V30 9287 H 887.319 -0.134823 0.938364 0
M  V30 9288 H 887.025 -1.07859 3.34753 0
M  V30 9289 H 886.899 -2.68397 2.65034 0
M  V30 9290 H 889.286 -2.41524 1.69559 0
M  V30 9291 H 889.367 -0.806367 2.42758 0
M  V30 9292 H 889.011 -1.85889 4.7266 0
M  V30 9293 H 888.941 -3.46718 3.96351 0
M  V30 9294 H 891.432 -2.17014 3.09376 0
M  V30 9295 H 891.745 -3.91145 6.66503 0
M  V30 9296 H 890.09 -3.52366 5.99052 0
M  V30 9297 H 893.281 -2.61871 3.87996 0
M  V30 9298 H 893.454 -3.41295 5.50837 0
M  V30 9299 N 886.86 -1.21182 -1.00761 0
M  V30 9300 C 888.109 -1.02166 -1.73911 0
M  V30 9301 C 888.422 0.445638 -1.90456 0
M  V30 9302 O 889.628 0.755132 -2.60787 0
M  V30 9303 C 888.084 -1.77936 -3.12837 0
M  V30 9304 C 887.692 -3.28819 -3.04273 0
M  V30 9305 C 889.436 -1.67319 -3.90134 0
M  V30 9306 C 887.343 -3.97089 -4.38262 0
M  V30 9307 H 886.273 -0.378665 -0.652019 0
M  V30 9308 H 888.924 -1.44891 -1.12601 0
M  V30 9309 H 887.306 -1.28003 -3.74742 0
M  V30 9310 H 888.48 -3.86035 -2.51622 0
M  V30 9311 H 886.795 -3.39949 -2.40465 0
M  V30 9312 H 889.392 -2.15659 -4.8928 0
M  V30 9313 H 889.735 -0.630959 -4.11491 0
M  V30 9314 H 890.268 -2.14716 -3.34876 0
M  V30 9315 H 887.007 -5.01503 -4.22107 0
M  V30 9316 H 886.527 -3.44662 -4.90885 0
M  V30 9317 H 888.206 -4.01854 -5.07072 0
M  V30 9318 N 888.338 1.20213 -1.01915 0
M  V30 9319 C 889.268 2.25336 -0.612023 0
M  V30 9320 C 890.249 1.65933 0.374186 0
M  V30 9321 O 891.434 1.92464 0.259053 0
M  V30 9322 C 888.564 3.47267 0.047904 0
M  V30 9323 C 887.518 4.1928 -0.859557 0
M  V30 9324 C 886.844 5.3466 -0.0652655 0
M  V30 9325 C 888.144 4.75143 -2.1688 0
M  V30 9326 H 889.838 2.59645 -1.49079 0
M  V30 9327 H 887.384 1.24808 -0.718263 0
M  V30 9328 H 889.337 4.19991 0.344294 0
M  V30 9329 H 888.061 3.12129 0.961404 0
M  V30 9330 H 886.72 3.48425 -1.13999 0
M  V30 9331 H 886.368 4.95767 0.849964 0
M  V30 9332 H 886.068 5.83772 -0.669618 0
M  V30 9333 H 887.592 6.10187 0.224612 0
M  V30 9334 H 889.006 5.39672 -1.9346 0
M  V30 9335 H 887.403 5.34702 -2.72422 0
M  V30 9336 H 888.473 3.93744 -2.83008 0
M  V30 9337 N 889.816 0.795718 1.36037 0
M  V30 9338 C 891.227 0.433379 1.816 0
M  V30 9339 C 891.578 -1.04341 1.66155 0
M  V30 9340 O 890.703 -1.81004 1.18603 0
M  V30 9341 C 891.298 0.77985 3.29703 0
M  V30 9342 C 889.857 0.470256 3.73451 0
M  V30 9343 C 889.004 1.01119 2.58206 0
M  V30 9344 H 891.955 0.988317 1.24169 0
M  V30 9345 H 891.976 0.0732898 3.80429 0
M  V30 9346 H 891.488 1.85473 3.40913 0
M  V30 9347 H 889.589 -0.596332 3.67797 0
M  V30 9348 H 889.702 0.995276 4.68648 0
M  V30 9349 H 888.066 0.434077 2.50974 0
M  V30 9350 H 888.849 2.09196 2.72198 0
M  V30 9351 N 891.294 -1.47756 0.548274 0
M  V30 9352 C 892.204 -2.33678 -0.207773 0
M  V30 9353 C 893.22 -1.47636 -0.920843 0
M  V30 9354 O 894.396 -1.80583 -0.89173 0
M  V30 9355 C 891.461 -3.24147 -1.23003 0
M  V30 9356 C 890.522 -4.26073 -0.52535 0
M  V30 9357 C 889.755 -5.12219 -1.4989 0
M  V30 9358 O 889.978 -5.0066 -2.73305 0
M  V30 9359 O 888.912 -5.93051 -1.02828 0
M  V30 9360 H 892.738 -2.99609 0.496794 0
M  V30 9361 H 890.323 -1.4617 0.308982 0
M  V30 9362 H 892.205 -3.80055 -1.82034 0
M  V30 9363 H 890.88 -2.60855 -1.91668 0
M  V30 9364 H 889.787 -3.7395 0.105927 0
M  V30 9365 H 891.12 -4.92054 0.119686 0
M  V30 9366 N 892.772 -0.284283 -1.55015 0
M  V30 9367 C 894.012 0.330942 -2.01703 0
M  V30 9368 C 894.376 1.52362 -1.16832 0
M  V30 9369 O 895.577 2.20909 -1.53142 0
M  V30 9370 C 893.848 0.694712 -3.50583 0
M  V30 9371 S 895.407 1.29517 -4.1925 0
M  V30 9372 H 892.225 0.10247 -0.703577 0
M  V30 9373 H 894.827 -0.408257 -1.9119 0
M  V30 9374 H 893.531 -0.182056 -4.09996 0
M  V30 9375 H 893.062 1.46513 -3.65099 0
M  V30 9376 H 895.077 2.58352 -4.23638 0
M  V30 9377 N 894.251 1.57596 -0.0117121 0
M  V30 9378 C 895.498 1.91071 0.670667 0
M  V30 9379 C 895.826 0.886457 1.73125 0
M  V30 9380 O 895.081 -0.107135 1.95407 0
M  V30 9381 C 895.38 3.31296 1.34082 0
M  V30 9382 C 895.046 4.49011 0.412305 0
M  V30 9383 C 893.708 4.80945 0.156691 0
M  V30 9384 C 896.06 5.20709 -0.226294 0
M  V30 9385 C 893.388 5.81943 -0.745619 0
M  V30 9386 C 895.74 6.22668 -1.11655 0
M  V30 9387 C 894.404 6.53053 -1.38123 0
M  V30 9388 H 893.674 0.69918 0.245415 0
M  V30 9389 H 896.321 1.91373 -0.0697511 0
M  V30 9390 H 894.626 3.27174 2.15557 0
M  V30 9391 H 896.323 3.54461 1.87506 0
M  V30 9392 H 892.913 4.24067 0.621705 0
M  V30 9393 H 897.097 4.96282 -0.0418456 0
M  V30 9394 H 892.353 6.03839 -0.958566 0
M  V30 9395 H 896.527 6.77351 -1.61767 0
M  V30 9396 H 894.154 7.31132 -2.08208 0
M  V30 9397 N 895.729 -0.261212 1.5542 0
M  V30 9398 C 896.954 -1.01341 1.80955 0
M  V30 9399 C 897.379 -1.78711 0.586849 0
M  V30 9400 O 896.737 -1.75266 -0.463837 0
M  V30 9401 C 896.785 -1.93835 3.04073 0
M  V30 9402 O 895.889 -3.02791 2.79985 0
M  V30 9403 H 895.23 -0.289123 0.597749 0
M  V30 9404 H 897.76 -0.286543 2.02584 0
M  V30 9405 H 897.77 -2.3557 3.33123 0
M  V30 9406 H 896.445 -1.36936 3.9271 0
M  V30 9407 H 895.022 -2.65287 2.62063 0
M  V30 9408 N 897.207 -1.48554 -0.526253 0
M  V30 9409 C 898.454 -1.56761 -1.28188 0
M  V30 9410 C 898.782 -0.24315 -1.92974 0
M  V30 9411 O 898.037 0.766883 -1.80048 0
M  V30 9412 C 898.336 -2.65739 -2.38993 0
M  V30 9413 C 898.002 -4.08057 -1.91834 0
M  V30 9414 C 896.664 -4.46792 -1.78691 0
M  V30 9415 C 899.016 -4.9723 -1.56242 0
M  V30 9416 C 896.344 -5.72501 -1.28296 0
M  V30 9417 C 898.696 -6.23432 -1.07309 0
M  V30 9418 C 897.36 -6.6102 -0.927853 0
M  V30 9419 H 896.63 -0.573631 -0.469072 0
M  V30 9420 H 899.277 -1.82287 -0.586842 0
M  V30 9421 H 897.582 -2.34088 -3.14181 0
M  V30 9422 H 899.279 -2.69304 -2.97113 0
M  V30 9423 H 895.869 -3.77469 -2.03016 0
M  V30 9424 H 900.053 -4.67979 -1.65255 0
M  V30 9425 H 895.309 -6.00345 -1.15742 0
M  V30 9426 H 899.483 -6.91923 -0.788412 0
M  V30 9427 H 897.11 -7.58314 -0.535162 0
M  V30 9428 N 898.685 0.775411 -1.37205 0
M  V30 9429 C 899.648 1.8702 -1.325 0
M  V30 9430 C 900.648 1.5915 -0.229793 0
M  V30 9431 O 901.838 1.673 -0.485423 0
M  V30 9432 C 898.97 3.24085 -1.05745 0
M  V30 9433 H 900.163 1.92604 -2.29878 0
M  V30 9434 H 897.716 0.97476 -1.22181 0
M  V30 9435 H 898.451 3.24178 -0.0888371 0
M  V30 9436 H 898.236 3.45705 -1.85016 0
M  V30 9437 H 899.726 4.0416 -1.05094 0
M  V30 9438 N 900.163 1.21714 1.00117 0
M  V30 9439 C 901.44 0.945391 1.71236 0
M  V30 9440 C 901.82 -0.541772 2.0403 0
M  V30 9441 O 901.168 -1.50763 1.71705 0
M  V30 9442 C 901.378 1.83444 2.96899 0
M  V30 9443 C 902.726 2.08558 3.69849 0
M  V30 9444 O 903.75 1.80824 3.06889 0
M  V30 9445 O 902.609 2.55485 4.83104 0
M  V30 9446 H 899.703 0.354834 0.747009 0
M  V30 9447 H 902.249 1.32661 1.05825 0
M  V30 9448 H 901.021 2.84075 2.69105 0
M  V30 9449 H 900.644 1.45428 3.70049 0
M  V30 9450 N 901.641 -1.19671 1.02551 0
M  V30 9451 C 903.057 -1.41305 0.741963 0
M  V30 9452 C 903.257 -1.89865 -0.674807 0
M  V30 9453 O 902.313 -2.07323 -1.44129 0
M  V30 9454 C 903.626 -2.42706 1.77522 0
M  V30 9455 C 905.174 -2.56458 1.79438 0
M  V30 9456 C 905.649 -3.61111 2.81715 0
M  V30 9457 N 907.14 -3.68603 2.8051 0
M  V30 9458 C 907.875 -4.49262 3.56302 0
M  V30 9459 N 907.371 -5.33653 4.41799 0
M  V30 9460 N 909.164 -4.43879 3.44859 0
M  V30 9461 H 901.315 -0.8647 1.94002 0
M  V30 9462 H 903.578 -0.442206 0.838545 0
M  V30 9463 H 903.284 -2.14042 2.79068 0
M  V30 9464 H 903.158 -3.41831 1.59472 0
M  V30 9465 H 905.545 -2.84447 0.78573 0
M  V30 9466 H 905.626 -1.57499 2.01563 0
M  V30 9467 H 905.27 -3.33864 3.82749 0
M  V30 9468 H 905.2 -4.59713 2.56849 0
M  V30 9469 H 907.691 -3.08329 2.18498 0
M  V30 9470 H 908.004 -5.92308 4.96378 0
M  V30 9471 H 906.349 -5.33125 4.45873 0
M  V30 9472 H 909.54 -3.7699 2.77482 0
M  V30 9473 H 909.713 -5.06501 4.04179 0
M  V30 9474 N 903.119 -0.802921 -1.35613 0
M  V30 9475 C 904.029 -0.212177 -2.33639 0
M  V30 9476 C 905.045 0.642871 -1.61689 0
M  V30 9477 O 906.221 0.555485 -1.93588 0
M  V30 9478 C 903.286 0.632406 -3.40883 0
M  V30 9479 C 902.347 -0.242708 -4.28613 0
M  V30 9480 C 901.58 0.56166 -5.30736 0
M  V30 9481 O 901.803 1.79664 -5.41366 0
M  V30 9482 O 900.737 -0.0455387 -6.01883 0
M  V30 9483 H 904.563 -1.023 -2.85952 0
M  V30 9484 H 902.148 -0.564636 -1.38319 0
M  V30 9485 H 904.03 1.11358 -4.0642 0
M  V30 9486 H 902.705 1.42089 -2.90848 0
M  V30 9487 H 901.612 -0.77094 -3.6607 0
M  V30 9488 H 902.945 -0.995046 -4.82037 0
M  V30 9489 N 904.597 1.47463 -0.556102 0
M  V30 9490 C 905.843 2.02775 -0.0316806 0
M  V30 9491 C 906.176 1.42967 1.3143 0
M  V30 9492 O 905.451 0.584847 1.85499 0
M  V30 9493 C 905.734 3.60046 0.0625742 0
M  V30 9494 C 905.587 4.30288 -1.31043 0
M  V30 9495 C 906.906 4.33195 0.776553 0
M  V30 9496 H 904.025 0.736886 -0.0129869 0
M  V30 9497 H 906.667 1.75904 -0.718177 0
M  V30 9498 H 904.817 3.83071 0.647231 0
M  V30 9499 H 906.489 4.18607 -1.9382 0
M  V30 9500 H 904.732 3.90685 -1.8854 0
M  V30 9501 H 905.403 5.38861 -1.1972 0
M  V30 9502 H 907.879 4.15156 0.280147 0
M  V30 9503 H 906.755 5.42869 0.81146 0
M  V30 9504 H 907.016 4.02336 1.83244 0
M  V30 9505 N 906.075 0.2925 1.54862 0
M  V30 9506 C 907.007 -0.620889 2.2063 0
M  V30 9507 C 908.02 -1.10412 1.19637 0
M  V30 9508 O 909.209 -1.02304 1.46274 0
M  V30 9509 C 906.309 -1.861 2.83232 0
M  V30 9510 C 905.482 -1.52168 4.10078 0
M  V30 9511 C 904.541 -2.61605 4.56562 0
M  V30 9512 O 903.567 -2.27056 5.21952 0
M  V30 9513 N 904.769 -3.9199 4.28163 0
M  V30 9514 H 907.534 -0.0579028 2.99644 0
M  V30 9515 H 905.095 0.114333 1.61496 0
M  V30 9516 H 907.087 -2.58642 3.11266 0
M  V30 9517 H 905.657 -2.33259 2.08108 0
M  V30 9518 H 904.877 -0.629283 3.89145 0
M  V30 9519 H 906.165 -1.27023 4.92689 0
M  V30 9520 H 905.563 -4.22872 3.7576 0
M  V30 9521 H 904.12 -4.60857 4.60928 0
M  V30 9522 N 907.553 -1.57587 0.0200696 0
M  V30 9523 C 908.483 -2.12702 -0.963333 0
M  V30 9524 C 909.464 -1.04094 -1.34531 0
M  V30 9525 O 910.649 -1.31881 -1.42552 0
M  V30 9526 C 907.779 -2.64673 -2.24868 0
M  V30 9527 C 906.733 -3.77987 -2.00772 0
M  V30 9528 C 906.059 -4.16351 -3.35494 0
M  V30 9529 C 907.359 -5.0444 -1.35416 0
M  V30 9530 H 909.053 -2.95121 -0.504363 0
M  V30 9531 H 906.599 -1.41966 -0.24116 0
M  V30 9532 H 908.552 -3.01862 -2.94036 0
M  V30 9533 H 907.276 -1.79403 -2.72914 0
M  V30 9534 H 905.935 -3.41223 -1.34025 0
M  V30 9535 H 905.583 -3.28075 -3.81282 0
M  V30 9536 H 905.283 -4.92705 -3.20181 0
M  V30 9537 H 906.807 -4.56115 -4.05945 0
M  V30 9538 H 908.221 -5.39273 -1.94571 0
M  V30 9539 H 906.618 -5.85732 -1.30529 0
M  V30 9540 H 907.688 -4.83803 -0.325923 0
M  V30 9541 N 909.032 0.252966 -1.55557 0
M  V30 9542 C 909.962 1.31691 -1.9282 0
M  V30 9543 C 910.943 1.50516 -0.7924 0
M  V30 9544 O 912.128 1.63225 -1.05219 0
M  V30 9545 C 909.258 2.67281 -2.21762 0
M  V30 9546 C 908.212 2.6316 -3.37536 0
M  V30 9547 C 907.538 4.02488 -3.52005 0
M  V30 9548 C 908.838 2.20675 -4.73392 0
M  V30 9549 H 910.532 1.00751 -2.81939 0
M  V30 9550 H 908.078 0.483219 -1.3565 0
M  V30 9551 H 910.031 3.41842 -2.46419 0
M  V30 9552 H 908.755 2.99845 -1.29463 0
M  V30 9553 H 907.414 1.91057 -3.12878 0
M  V30 9554 H 907.062 4.32307 -2.57137 0
M  V30 9555 H 906.762 4.00621 -4.29857 0
M  V30 9556 H 908.286 4.78758 -3.78977 0
M  V30 9557 H 909.7 2.84965 -4.97461 0
M  V30 9558 H 908.097 2.29931 -5.54303 0
M  V30 9559 H 909.167 1.15831 -4.70862 0
M  V30 9560 N 910.51 1.48831 0.518367 0
M  V30 9561 C 911.926 1.35209 0.847979 0
M  V30 9562 C 912.126 0.371927 1.98038 0
M  V30 9563 O 911.182 -0.202681 2.51685 0
M  V30 9564 C 912.495 2.7552 1.20455 0
M  V30 9565 C 914.043 2.84094 1.31377 0
M  V30 9566 C 914.518 4.25132 1.70372 0
M  V30 9567 N 916.009 4.27861 1.77453 0
M  V30 9568 C 916.744 5.3394 2.09035 0
M  V30 9569 N 916.24 6.50285 2.3896 0
M  V30 9570 N 918.033 5.21343 2.10139 0
M  V30 9571 H 910.184 2.11166 -0.228624 0
M  V30 9572 H 912.447 0.94717 -0.0396599 0
M  V30 9573 H 912.153 3.48861 0.445991 0
M  V30 9574 H 912.027 3.09785 2.15204 0
M  V30 9575 H 914.414 2.11001 2.06307 0
M  V30 9576 H 914.495 2.53433 0.347203 0
M  V30 9577 H 914.139 4.98745 0.959975 0
M  V30 9578 H 914.069 4.53245 2.68098 0
M  V30 9579 H 916.56 3.43945 1.56557 0
M  V30 9580 H 916.873 7.26961 2.62196 0
M  V30 9581 H 915.218 6.5354 2.36454 0
M  V30 9582 H 918.409 4.29462 1.86225 0
M  V30 9583 H 918.582 6.04112 2.34419 0
M  V30 9584 N 911.988 -0.768124 1.37614 0
M  V30 9585 C 912.898 -1.91249 1.35871 0
M  V30 9586 C 913.914 -1.7208 0.257786 0
M  V30 9587 O 915.09 -1.95253 0.493782 0
M  V30 9588 C 912.155 -3.26423 1.16829 0
M  V30 9589 C 911.216 -3.5822 2.36594 0
M  V30 9590 C 910.449 -4.86945 2.1845 0
M  V30 9591 O 910.672 -5.58258 1.17064 0
M  V30 9592 O 909.606 -5.17888 3.06718 0
M  V30 9593 H 913.432 -1.95671 2.32264 0
M  V30 9594 H 911.017 -0.911382 1.18382 0
M  V30 9595 H 912.899 -4.07269 1.08212 0
M  V30 9596 H 911.574 -3.22845 0.235123 0
M  V30 9597 H 910.481 -2.77594 2.50783 0
M  V30 9598 H 911.814 -3.66545 3.2849 0
M  V30 9599 N 913.466 -1.22244 -0.994698 0
M  V30 9600 C 914.691 -1.07299 -1.77487 0
M  V30 9601 C 915.116 0.372302 -1.84379 0
M  V30 9602 O 914.474 1.2689 -1.29494 0
M  V30 9603 C 914.522 -1.68675 -3.18718 0
M  V30 9604 O 913.626 -0.939202 -4.01563 0
M  V30 9605 H 912.967 -0.376979 -0.546611 0
M  V30 9606 H 915.497 -1.62003 -1.24965 0
M  V30 9607 H 915.507 -1.73324 -3.69354 0
M  V30 9608 H 914.182 -2.73849 -3.13017 0
M  V30 9609 H 912.759 -0.968583 -3.60101 0
M  V30 9610 N 914.944 1.19125 -1.03184 0
M  V30 9611 C 916.221 1.84674 -0.644574 0
M  V30 9612 C 916.601 1.92042 0.876534 0
M  V30 9613 O 915.949 1.43965 1.77444 0
M  V30 9614 C 916.159 3.23477 -1.3101 0
M  V30 9615 C 917.507 3.99608 -1.43524 0
M  V30 9616 O 918.531 3.32886 -1.2675 0
M  V30 9617 O 917.39 5.19132 -1.70776 0
M  V30 9618 H 914.484 0.795968 -0.22442 0
M  V30 9619 H 917.03 1.2659 -1.13018 0
M  V30 9620 H 915.802 3.12967 -2.34878 0
M  V30 9621 H 915.425 3.89209 -0.812547 0
M  V30 9622 N 916.422 0.810101 1.35185 0
M  V30 9623 C 917.332 0.224565 2.33523 0
M  V30 9624 C 918.348 -0.634287 1.62027 0
M  V30 9625 O 919.524 -0.545211 1.9388 0
M  V30 9626 C 916.589 -0.614319 3.41214 0
M  V30 9627 C 915.65 0.265435 4.28479 0
M  V30 9628 C 914.883 -0.533506 5.31027 0
M  V30 9629 O 915.106 -1.7679 5.42311 0
M  V30 9630 O 914.04 0.0774573 6.0185 0
M  V30 9631 H 917.866 1.03815 2.85405 0
M  V30 9632 H 915.451 0.571964 1.38018 0
M  V30 9633 H 917.333 -1.09201 4.07005 0
M  V30 9634 H 916.008 -1.40545 2.91597 0
M  V30 9635 H 914.915 0.790343 3.65656 0
M  V30 9636 H 916.248 1.0206 4.81503 0
M  V30 9637 N 917.9 -1.47166 0.563914 0
M  V30 9638 C 918.85 -2.27116 -0.20055 0
M  V30 9639 C 919.834 -1.34756 -0.879177 0
M  V30 9640 O 921.026 -1.59064 -0.776377 0
M  V30 9641 C 918.155 -3.20676 -1.22565 0
M  V30 9642 C 917.241 -4.20517 -0.550092 0
M  V30 9643 N 917.632 -5.04343 0.383662 0
M  V30 9644 C 915.93 -4.38708 -0.803186 0
M  V30 9645 C 916.631 -5.76491 0.776718 0
M  V30 9646 N 915.607 -5.43444 0.130047 0
M  V30 9647 H 919.409 -2.89312 0.517275 0
M  V30 9648 H 916.923 -1.57787 0.384334 0
M  V30 9649 H 918.92 -3.76643 -1.78733 0
M  V30 9650 H 917.58 -2.60038 -1.94449 0
M  V30 9651 H 918.591 -5.1232 0.758192 0
M  V30 9652 H 915.268 -3.89235 -1.51003 0
M  V30 9653 H 916.658 -6.5391 1.54437 0
M  V30 9654 N 919.378 -0.300708 -1.54705 0
M  V30 9655 C 920.789 0.191995 -1.8571 0
M  V30 9656 C 921.14 1.53447 -1.22264 0
M  V30 9657 O 920.265 2.10054 -0.520226 0
M  V30 9658 C 920.86 0.355148 -3.36933 0
M  V30 9659 C 919.419 0.792071 -3.67972 0
M  V30 9660 C 918.566 -0.099756 -2.77121 0
M  V30 9661 H 921.517 -0.521729 -1.49879 0
M  V30 9662 H 921.538 1.18977 -3.61421 0
M  V30 9663 H 921.05 -0.622075 -3.83082 0
M  V30 9664 H 919.151 1.77986 -3.27341 0
M  V30 9665 H 919.264 0.611661 -4.75179 0
M  V30 9666 H 917.628 0.420909 -2.51198 0
M  V30 9667 H 918.411 -1.07333 -3.2609 0
M  V30 9668 N 920.856 1.57574 -0.0284266 0
M  V30 9669 C 921.804 2.11332 0.971675 0
M  V30 9670 C 922.798 1.03974 1.33738 0
M  V30 9671 O 924.004 1.22409 1.31969 0
M  V30 9672 H 920.379 0.675174 0.331125 0
M  V30 9673 H 922.35 2.943 0.49296 0
M  V30 9674 C 921.099 2.65496 2.24516 0
M  V30 9675 H 920.422 3.47753 1.9725 0
M  V30 9676 H 921.862 3.06757 2.92705 0
M  V30 9677 C 920.321 1.58207 2.97443 0
M  V30 9678 O 920.851 0.981496 3.89525 0
M  V30 9679 N 919.057 1.30269 2.59766 0
M  V30 9680 H 918.604 1.79294 1.84963 0
M  V30 9681 H 918.562 0.587085 3.0887 0
M  V30 9682 N 922.334 -0.244713 1.55689 0
M  V30 9683 C 923.58 -0.973886 1.77886 0
M  V30 9684 C 923.913 -1.8489 0.594071 0
M  V30 9685 O 923.188 -1.90182 -0.407564 0
M  V30 9686 C 923.471 -1.83255 3.09983 0
M  V30 9687 C 923.324 -0.985571 4.3887 0
M  V30 9688 C 924.643 -2.81464 3.38329 0
M  V30 9689 H 921.762 -0.352629 0.647165 0
M  V30 9690 H 924.404 -0.244243 1.88424 0
M  V30 9691 H 922.554 -2.45464 3.01131 0
M  V30 9692 H 924.226 -0.382005 4.59716 0
M  V30 9693 H 922.469 -0.29002 4.32829 0
M  V30 9694 H 923.14 -1.62022 5.27686 0
M  V30 9695 H 925.616 -2.2939 3.47159 0
M  V30 9696 H 924.492 -3.38663 4.31971 0
M  V30 9697 H 924.753 -3.58037 2.59349 0
M  V30 9698 N 923.813 -1.49104 -0.510467 0
M  V30 9699 C 925.062 -1.57362 -1.26175 0
M  V30 9700 C 925.375 -0.261218 -1.93848 0
M  V30 9701 O 926.581 -0.222238 -2.70589 0
M  V30 9702 C 925.037 -2.77606 -2.29048 0
M  V30 9703 C 924.645 -4.15567 -1.67357 0
M  V30 9704 C 926.389 -2.95188 -3.05064 0
M  V30 9705 C 924.296 -5.27046 -2.68285 0
M  V30 9706 H 923.226 -0.585887 -0.474608 0
M  V30 9707 H 925.877 -1.75474 -0.536753 0
M  V30 9708 H 924.259 -2.52968 -3.04669 0
M  V30 9709 H 925.433 -4.50304 -0.977924 0
M  V30 9710 H 923.748 -4.03264 -1.03765 0
M  V30 9711 H 926.345 -3.75643 -3.80521 0
M  V30 9712 H 926.688 -2.05385 -3.62108 0
M  V30 9713 H 927.221 -3.19821 -2.36558 0
M  V30 9714 H 923.96 -6.18878 -2.16034 0
M  V30 9715 H 923.48 -4.96774 -3.36118 0
M  V30 9716 H 925.159 -5.55983 -3.30896 0
M  V30 9717 N 925.291 0.760815 -1.38019 0
M  V30 9718 C 926.707 1.06289 -1.19058 0
M  V30 9719 C 926.907 2.01471 -0.0342603 0
M  V30 9720 O 925.963 2.44713 0.62224 0
M  V30 9721 C 927.276 1.6499 -2.51394 0
M  V30 9722 C 928.824 1.77196 -2.58013 0
M  V30 9723 C 929.299 2.3931 -3.90506 0
M  V30 9724 N 930.79 2.46749 -3.92007 0
M  V30 9725 C 931.525 2.95687 -4.91281 0
M  V30 9726 N 931.021 3.44715 -6.00952 0
M  V30 9727 N 932.814 2.94661 -4.78677 0
M  V30 9728 H 924.965 0.129045 -2.12008 0
M  V30 9729 H 927.228 0.119878 -0.94039 0
M  V30 9730 H 926.934 1.0252 -3.36426 0
M  V30 9731 H 926.808 2.64146 -2.6927 0
M  V30 9732 H 929.195 2.38796 -1.7338 0
M  V30 9733 H 929.276 0.767645 -2.4401 0
M  V30 9734 H 928.92 1.78346 -4.75558 0
M  V30 9735 H 928.85 3.40369 -4.01817 0
M  V30 9736 H 931.341 2.12064 -3.12789 0
M  V30 9737 H 931.654 3.80492 -6.72641 0
M  V30 9738 H 929.999 3.42791 -6.04582 0
M  V30 9739 H 933.19 2.55665 -3.92113 0
M  V30 9740 H 933.363 3.32489 -5.56197 0
M  V30 9741 N 926.769 1.22769 0.988202 0
M  V30 9742 C 927.999 1.07998 1.76125 0
M  V30 9743 C 928.407 -0.372062 1.85506 0
M  V30 9744 O 927.75 -1.26946 1.3278 0
M  V30 9745 C 927.812 1.6219 3.20834 0
M  V30 9746 C 927.476 3.1086 3.34986 0
M  V30 9747 C 928.473 4.08239 3.21927 0
M  V30 9748 C 926.158 3.50411 3.59886 0
M  V30 9749 C 928.152 5.43154 3.33561 0
M  V30 9750 C 925.839 4.85473 3.71159 0
M  V30 9751 C 926.837 5.81653 3.58006 0
M  V30 9752 O 926.525 7.14263 3.68895 0
M  V30 9753 H 926.257 0.378937 0.559806 0
M  V30 9754 H 928.811 1.62925 1.25078 0
M  V30 9755 H 927.041 1.01676 3.73094 0
M  V30 9756 H 928.73 1.43011 3.79872 0
M  V30 9757 H 929.496 3.79025 3.02597 0
M  V30 9758 H 925.375 2.76068 3.69198 0
M  V30 9759 H 928.919 6.18207 3.23211 0
M  V30 9760 H 924.816 5.14365 3.89998 0
M  V30 9761 H 925.584 7.21906 3.85739 0
M  V30 9762 N 928.247 -1.18576 1.03814 0
M  V30 9763 C 929.494 -1.88493 0.740036 0
M  V30 9764 C 929.822 -1.80198 -0.732056 0
M  V30 9765 O 929.077 -1.19509 -1.54971 0
M  V30 9766 C 929.376 -3.38448 1.14837 0
M  V30 9767 C 929.042 -3.66947 2.62031 0
M  V30 9768 C 927.704 -3.74435 3.02244 0
M  V30 9769 C 930.056 -3.79534 3.57217 0
M  V30 9770 C 927.384 -3.91986 4.36536 0
M  V30 9771 C 929.736 -3.986 4.91223 0
M  V30 9772 C 928.4 -4.04323 5.31111 0
M  V30 9773 H 927.67 -0.689746 0.270798 0
M  V30 9774 H 930.317 -1.40364 1.3027 0
M  V30 9775 H 928.622 -3.88539 0.504472 0
M  V30 9776 H 930.319 -3.90882 0.89511 0
M  V30 9777 H 926.909 -3.61734 2.29883 0
M  V30 9778 H 931.093 -3.73083 3.27296 0
M  V30 9779 H 926.349 -3.9466 4.66962 0
M  V30 9780 H 930.523 -4.07281 5.64885 0
M  V30 9781 H 928.15 -4.17676 6.35178 0
M  V30 9782 N 929.725 -0.817259 -1.34754 0
M  V30 9783 C 930.965 -0.408429 -2.00278 0
M  V30 9784 C 931.329 1.00818 -1.634 0
M  V30 9785 O 932.53 1.51959 -2.21725 0
M  V30 9786 C 930.801 -0.598219 -3.52358 0
M  V30 9787 S 932.36 -0.281395 -4.37897 0
M  V30 9788 H 929.178 -0.154587 -0.693991 0
M  V30 9789 H 931.78 -1.06184 -1.6415 0
M  V30 9790 H 930.484 -1.62901 -3.76685 0
M  V30 9791 H 930.015 0.0701299 -3.93337 0
M  V30 9792 H 932.03 0.907024 -4.8784 0
M  V30 9793 N 931.203 1.46865 -0.571711 0
M  V30 9794 C 932.431 2.06818 -0.0583975 0
M  V30 9795 C 932.846 1.42218 1.24175 0
M  V30 9796 O 932.203 0.523655 1.74826 0
M  V30 9797 C 932.254 3.61281 0.125673 0
M  V30 9798 O 931.975 4.23462 -1.123 0
M  V30 9799 C 933.476 4.38137 0.674604 0
M  V30 9800 H 930.696 0.668948 -0.052438 0
M  V30 9801 H 933.24 1.88656 -0.789251 0
M  V30 9802 H 931.395 3.78908 0.806707 0
M  V30 9803 H 931.809 5.16192 -0.929869 0
M  V30 9804 H 933.283 5.46845 0.752626 0
M  V30 9805 H 933.76 4.05419 1.68915 0
M  V30 9806 H 934.366 4.2529 0.0287979 0
M  V30 9807 N 932.681 0.308908 1.54543 0
M  V30 9808 C 933.591 -0.572939 2.27496 0
M  V30 9809 C 934.607 -1.14171 1.31305 0
M  V30 9810 O 935.783 -1.16481 1.64299 0
M  V30 9811 C 932.848 -1.72483 3.0075 0
M  V30 9812 C 931.909 -1.18934 4.12496 0
M  V30 9813 C 931.142 -2.28634 4.82247 0
M  V30 9814 O 931.365 -3.48691 4.5141 0
M  V30 9815 O 930.299 -1.94879 5.69478 0
M  V30 9816 H 934.125 0.0190877 3.03694 0
M  V30 9817 H 931.71 0.0750943 1.49211 0
M  V30 9818 H 933.592 -2.39578 3.46671 0
M  V30 9819 H 932.267 -2.30332 2.2744 0
M  V30 9820 H 931.174 -0.483904 3.70957 0
M  V30 9821 H 932.507 -0.656185 4.87806 0
M  V30 9822 N 934.159 -1.57557 0.0367827 0
M  V30 9823 C 935.106 -2.10679 -0.942499 0
M  V30 9824 C 936.076 -1.01068 -1.31812 0
M  V30 9825 O 937.261 -1.28533 -1.41011 0
M  V30 9826 C 934.401 -2.64467 -2.21701 0
M  V30 9827 C 933.514 -3.88114 -1.89715 0
M  V30 9828 C 932.649 -4.30268 -3.11518 0
M  V30 9829 C 931.688 -5.46652 -2.75387 0
M  V30 9830 N 930.825 -5.83927 -3.89838 0
M  V30 9831 H 935.665 -2.94066 -0.482588 0
M  V30 9832 H 933.202 -1.45344 -0.226597 0
M  V30 9833 H 935.16 -2.93745 -2.96259 0
M  V30 9834 H 933.79 -1.83898 -2.65295 0
M  V30 9835 H 932.842 -3.65516 -1.05366 0
M  V30 9836 H 934.154 -4.72743 -1.5911 0
M  V30 9837 H 933.308 -4.61023 -3.94389 0
M  V30 9838 H 932.047 -3.44421 -3.4529 0
M  V30 9839 H 931.052 -5.15583 -1.90929 0
M  V30 9840 H 932.277 -6.34204 -2.42822 0
M  V30 9841 H 930.223 -5.01035 -4.23438 0
M  V30 9842 H 930.14 -6.63214 -3.62883 0
M  V30 9843 H 931.408 -6.19291 -4.73391 0
M  V30 9844 N 935.637 0.236453 -1.55816 0
M  V30 9845 C 936.914 0.986463 -1.68903 0
M  V30 9846 C 937.294 2.02984 -0.579722 0
M  V30 9847 O 936.642 2.24693 0.415389 0
M  V30 9848 C 936.852 1.61038 -3.09625 0
M  V30 9849 C 938.2 2.10829 -3.6856 0
M  V30 9850 O 939.224 1.7096 -3.12492 0
M  V30 9851 O 938.083 2.84064 -4.66873 0
M  V30 9852 H 935.177 0.459837 -0.687371 0
M  V30 9853 H 937.723 0.229412 -1.68142 0
M  V30 9854 H 936.495 0.856232 -3.81817 0
M  V30 9855 H 936.118 2.43336 -3.14441 0
M  V30 9856 N 937.115 1.49373 0.502552 0
M  V30 9857 C 938.531 1.36101 0.833591 0
M  V30 9858 C 938.731 0.392911 1.97632 0
M  V30 9859 O 937.787 -0.175975 2.51886 0
M  V30 9860 C 939.1 2.76782 1.17526 0
M  V30 9861 C 940.648 2.85471 1.28356 0
M  V30 9862 C 941.123 4.26915 1.65853 0
M  V30 9863 N 942.614 4.29719 1.72905 0
M  V30 9864 C 943.349 5.36127 2.0336 0
M  V30 9865 N 942.845 6.52782 2.32049 0
M  V30 9866 N 944.638 5.23542 2.04598 0
M  V30 9867 H 936.789 2.10912 -0.251008 0
M  V30 9868 H 939.052 0.946696 -0.0497037 0
M  V30 9869 H 938.758 3.49314 0.408965 0
M  V30 9870 H 938.632 3.1205 2.11907 0
M  V30 9871 H 941.019 2.13177 2.04058 0
M  V30 9872 H 941.1 2.53787 0.320304 0
M  V30 9873 H 940.744 4.99735 0.907022 0
M  V30 9874 H 940.674 4.56063 2.63276 0
M  V30 9875 H 943.165 3.45586 1.529 0
M  V30 9876 H 943.478 7.29701 2.54471 0
M  V30 9877 H 941.823 6.56011 2.29509 0
M  V30 9878 H 945.014 4.31413 1.8166 0
M  V30 9879 H 945.187 6.06565 2.27998 0
M  V30 9880 N 938.594 -0.753485 1.38421 0
M  V30 9881 C 939.526 -1.87692 1.31547 0
M  V30 9882 C 940.539 -1.612 0.227671 0
M  V30 9883 O 941.728 -1.71778 0.485238 0
M  V30 9884 C 938.828 -3.23329 1.01545 0
M  V30 9885 C 938.001 -3.77324 2.21236 0
M  V30 9886 C 937.06 -4.91478 1.87977 0
M  V30 9887 O 936.086 -5.06106 2.60472 0
M  V30 9888 N 937.288 -5.74466 0.834796 0
M  V30 9889 H 940.053 -1.94099 2.28354 0
M  V30 9890 H 937.614 -0.933421 1.32283 0
M  V30 9891 H 939.606 -3.9724 0.773477 0
M  V30 9892 H 938.176 -3.12307 0.135334 0
M  V30 9893 H 937.396 -2.94978 2.61498 0
M  V30 9894 H 938.684 -4.10131 3.01115 0
M  V30 9895 H 938.082 -5.65217 0.233606 0
M  V30 9896 H 936.639 -6.48524 0.652703 0
M  V30 9897 N 940.072 -1.23292 -0.981677 0
M  V30 9898 C 941.319 -1.06424 -1.72279 0
M  V30 9899 C 941.647 0.399055 -1.90362 0
M  V30 9900 O 940.902 1.31181 -1.45224 0
M  V30 9901 C 941.201 -1.73339 -3.12551 0
M  V30 9902 C 940.867 -3.23256 -3.14351 0
M  V30 9903 C 939.529 -3.64159 -3.14549 0
M  V30 9904 C 941.881 -4.1916 -3.09765 0
M  V30 9905 C 939.209 -4.99428 -3.07877 0
M  V30 9906 C 941.561 -5.54419 -3.04635 0
M  V30 9907 C 940.225 -5.94688 -3.03154 0
M  V30 9908 H 939.495 -0.389434 -0.630415 0
M  V30 9909 H 942.142 -1.53208 -1.1489 0
M  V30 9910 H 940.447 -1.18911 -3.73319 0
M  V30 9911 H 942.144 -1.57767 -3.68661 0
M  V30 9912 H 938.734 -2.90693 -3.14953 0
M  V30 9913 H 942.918 -3.88569 -3.08753 0
M  V30 9914 H 938.174 -5.29844 -3.05083 0
M  V30 9915 H 942.348 -6.28448 -3.00043 0
M  V30 9916 H 939.975 -6.99468 -2.97739 0
M  V30 9917 N 941.55 1.18024 -1.04442 0
M  V30 9918 C 942.482 2.21294 -0.596799 0
M  V30 9919 C 943.495 1.59305 0.33552 0
M  V30 9920 O 944.684 1.7803 0.129443 0
M  V30 9921 C 941.784 3.38578 0.147648 0
M  V30 9922 C 940.957 4.30143 -0.793484 0
M  V30 9923 C 940.016 5.2612 -0.0916561 0
M  V30 9924 O 939.042 5.64586 -0.72331 0
M  V30 9925 N 940.244 5.68512 1.17364 0
M  V30 9926 H 943.009 2.6032 -1.48504 0
M  V30 9927 H 940.57 1.32847 -0.925374 0
M  V30 9928 H 942.562 3.99812 0.627098 0
M  V30 9929 H 941.132 2.98212 0.937466 0
M  V30 9930 H 940.352 3.66456 -1.45272 0
M  V30 9931 H 941.64 4.88216 -1.43258 0
M  V30 9932 H 941.038 5.39322 1.70729 0
M  V30 9933 H 939.595 6.31925 1.5973 0
M  V30 9934 N 943.028 0.824394 1.34319 0
M  V30 9935 C 944.258 0.425576 2.02169 0
M  V30 9936 C 944.666 -0.973596 1.62227 0
M  V30 9937 O 944.009 -1.64173 0.824199 0
M  V30 9938 C 944.071 0.449902 3.56674 0
M  V30 9939 C 943.735 1.80266 4.19944 0
M  V30 9940 C 944.732 2.76373 4.40357 0
M  V30 9941 C 942.417 2.09155 4.56683 0
M  V30 9942 C 944.411 3.9954 4.96635 0
M  V30 9943 C 942.098 3.32581 5.12672 0
M  V30 9944 C 943.096 4.27591 5.32592 0
M  V30 9945 O 942.784 5.48837 5.87395 0
M  V30 9946 H 942.516 0.168866 0.654569 0
M  V30 9947 H 945.07 1.11441 1.7254 0
M  V30 9948 H 943.3 -0.295631 3.85568 0
M  V30 9949 H 944.989 0.0709302 4.05838 0
M  V30 9950 H 945.755 2.55351 4.12336 0
M  V30 9951 H 941.634 1.36004 4.40481 0
M  V30 9952 H 945.178 4.73709 5.12099 0
M  V30 9953 H 941.075 3.53466 5.40122 0
M  V30 9954 H 941.843 5.50377 6.05828 0
M  V30 9955 N 944.506 -1.46559 0.579492 0
M  V30 9956 C 945.755 -2.01606 0.0615735 0
M  V30 9957 C 946.068 -1.45695 -1.30508 0
M  V30 9958 O 947.274 -1.92541 -1.91416 0
M  V30 9959 C 945.73 -3.59851 0.059496 0
M  V30 9960 C 945.338 -4.24757 1.42427 0
M  V30 9961 C 947.082 -4.22567 -0.404646 0
M  V30 9962 C 944.989 -5.75072 1.38009 0
M  V30 9963 H 943.919 -0.753754 0.0192491 0
M  V30 9964 H 946.57 -1.68326 0.73066 0
M  V30 9965 H 944.952 -3.90193 -0.675691 0
M  V30 9966 H 946.126 -4.06029 2.17893 0
M  V30 9967 H 944.441 -3.74121 1.82817 0
M  V30 9968 H 947.038 -5.32748 -0.456441 0
M  V30 9969 H 947.381 -3.91279 -1.42149 0
M  V30 9970 H 947.914 -3.96839 0.276376 0
M  V30 9971 H 944.653 -6.11014 2.37364 0
M  V30 9972 H 944.173 -5.96073 0.667583 0
M  V30 9973 H 945.852 -6.37724 1.09163 0
M  V30 9974 N 945.984 -0.3171 -1.54377 0
M  V30 9975 C 946.947 0.53905 -2.22771 0
M  V30 9976 C 947.947 1.04865 -1.21901 0
M  V30 9977 O 949.137 0.942108 -1.46526 0
M  V30 9978 C 946.269 1.74804 -2.92671 0
M  V30 9979 H 947.462 -0.0587417 -2.99842 0
M  V30 9980 H 945.015 -0.068107 -1.56152 0
M  V30 9981 H 945.75 2.38524 -2.1972 0
M  V30 9982 H 945.535 1.39011 -3.66631 0
M  V30 9983 H 947.025 2.35592 -3.44799 0
M  V30 9984 N 947.462 1.57535 -0.0451378 0
M  V30 9985 C 948.711 1.91628 0.629415 0
M  V30 9986 C 949.024 0.924754 1.72359 0
M  V30 9987 O 950.23 1.15751 2.45589 0
M  V30 9988 C 948.686 3.40322 1.17084 0
M  V30 9989 C 948.294 4.47867 0.109101 0
M  V30 9990 C 950.038 3.83458 1.82099 0
M  V30 9991 C 947.945 5.87671 0.663072 0
M  V30 9992 H 946.875 0.715163 0.238868 0
M  V30 9993 H 949.526 1.83151 -0.113046 0
M  V30 9994 H 947.908 3.43783 1.96543 0
M  V30 9995 H 949.082 4.55988 -0.664201 0
M  V30 9996 H 947.397 4.14034 -0.443227 0
M  V30 9997 H 949.994 4.85273 2.2453 0
M  V30 9998 H 950.337 3.19379 2.67026 0
M  V30 9999 H 950.87 3.82488 1.09305 0
M  V30 10000 H 947.609 6.55332 -0.148423 0
M  V30 10001 H 947.129 5.83124 1.4045 0
M  V30 10002 H 948.808 6.36737 1.14785 0
M  V30 10003 N 948.94 -0.228186 1.55939 0
M  V30 10004 C 949.85 -1.30386 1.9503 0
M  V30 10005 C 950.866 -1.51645 0.853218 0
M  V30 10006 O 952.042 -1.64904 1.15623 0
M  V30 10007 C 949.107 -2.63489 2.25332 0
M  V30 10008 C 948.168 -2.5059 3.48573 0
M  V30 10009 C 947.401 -3.77345 3.7742 0
M  V30 10010 O 947.624 -4.80067 3.08045 0
M  V30 10011 O 946.558 -3.74855 4.70922 0
M  V30 10012 H 950.384 -1.0022 2.86687 0
M  V30 10013 H 947.969 -0.430503 1.43063 0
M  V30 10014 H 949.851 -3.4211 2.46046 0
M  V30 10015 H 948.526 -2.93349 1.3685 0
M  V30 10016 H 947.433 -1.70191 3.33145 0
M  V30 10017 H 948.766 -2.2567 4.37417 0
M  V30 10018 N 950.418 -1.49637 -0.494624 0
M  V30 10019 C 951.348 -1.69692 -1.60396 0
M  V30 10020 C 952.329 -0.545648 -1.61111 0
M  V30 10021 O 953.514 -0.782202 -1.77751 0
M  V30 10022 C 950.644 -1.76934 -2.9885 0
M  V30 10023 C 949.598 -2.91915 -3.13001 0
M  V30 10024 C 948.924 -2.84276 -4.5287 0
M  V30 10025 C 950.224 -4.32764 -2.92426 0
M  V30 10026 H 951.918 -2.6257 -1.43866 0
M  V30 10027 H 949.464 -1.26355 -0.690679 0
M  V30 10028 H 951.417 -1.8955 -3.76362 0
M  V30 10029 H 950.141 -0.806609 -3.16483 0
M  V30 10030 H 948.8 -2.78911 -2.37916 0
M  V30 10031 H 948.448 -1.85897 -4.67388 0
M  V30 10032 H 948.148 -3.61452 -4.63278 0
M  V30 10033 H 949.672 -2.98909 -5.32434 0
M  V30 10034 H 951.086 -4.46415 -3.59703 0
M  V30 10035 H 949.483 -5.1121 -3.143 0
M  V30 10036 H 950.553 -4.46765 -1.88491 0
M  V30 10037 N 951.896 0.746133 -1.38819 0
M  V30 10038 C 953.136 1.51821 -1.36857 0
M  V30 10039 C 953.5 1.9196 0.0391461 0
M  V30 10040 O 954.701 2.68172 0.183689 0
M  V30 10041 C 952.972 2.73214 -2.3041 0
M  V30 10042 S 954.531 3.62995 -2.46536 0
M  V30 10043 H 951.349 0.51945 -0.485482 0
M  V30 10044 H 953.951 0.875244 -1.74813 0
M  V30 10045 H 952.655 2.41847 -3.31569 0
M  V30 10046 H 952.186 3.42449 -1.9363 0
M  V30 10047 H 954.201 4.66353 -1.69498 0
M  V30 10048 N 953.375 1.23811 0.975125 0
M  V30 10049 C 954.338 1.02505 2.05001 0
M  V30 10050 C 955.338 -0.0150084 1.60793 0
M  V30 10051 O 956.528 0.225246 1.72738 0
M  V30 10052 C 953.66 0.552087 3.364 0
M  V30 10053 H 954.853 1.979 2.25335 0
M  V30 10054 H 952.406 1.05929 1.1493 0
M  V30 10055 H 953.141 -0.405394 3.21756 0
M  V30 10056 H 952.926 1.30267 3.69828 0
M  V30 10057 H 954.416 0.423828 4.15444 0
M  V30 10058 N 954.853 -1.17469 1.05066 0
M  V30 10059 C 955.816 -2.19648 0.654793 0
M  V30 10060 C 956.816 -1.58107 -0.293063 0
M  V30 10061 O 958.006 -1.74029 -0.077106 0
M  V30 10062 C 955.138 -3.40878 -0.0384437 0
M  V30 10063 H 956.331 -2.56184 1.55915 0
M  V30 10064 H 953.884 -1.31528 0.844396 0
M  V30 10065 H 954.619 -3.09885 -0.956133 0
M  V30 10066 H 954.404 -3.86792 0.642961 0
M  V30 10067 H 955.894 -4.1651 -0.301568 0
M  V30 10068 N 956.331 -0.831506 -1.3388 0
M  V30 10069 C 957.559 -0.436925 -2.02234 0
M  V30 10070 C 957.974 0.959689 -1.6259 0
M  V30 10071 O 957.331 1.62248 -0.835576 0
M  V30 10072 C 957.382 -0.539429 -3.57453 0
M  V30 10073 O 957.103 -1.88101 -3.95664 0
M  V30 10074 C 958.604 -0.140852 -4.43076 0
M  V30 10075 H 955.824 -0.174302 -0.647966 0
M  V30 10076 H 958.368 -1.12204 -1.70969 0
M  V30 10077 H 956.523 0.0976959 -3.87277 0
M  V30 10078 H 956.937 -1.86131 -4.90363 0
M  V30 10079 H 958.411 -0.26364 -5.5137 0
M  V30 10080 H 958.888 0.916505 -4.29531 0
M  V30 10081 H 959.494 -0.752117 -4.18597 0
M  V30 10082 N 957.809 1.4625 -0.587256 0
M  V30 10083 C 958.739 2.33132 0.131076 0
M  V30 10084 C 959.72 1.45619 0.879158 0
M  V30 10085 O 960.905 1.74428 0.853723 0
M  V30 10086 C 958.035 3.27975 1.14236 0
M  V30 10087 C 956.989 4.24965 0.508819 0
M  V30 10088 C 956.315 5.09349 1.62689 0
M  V30 10089 C 957.615 5.19322 -0.55694 0
M  V30 10090 H 959.309 2.93442 -0.594333 0
M  V30 10091 H 956.855 1.41106 -0.287263 0
M  V30 10092 H 958.808 3.87614 1.65328 0
M  V30 10093 H 957.532 2.65781 1.8981 0
M  V30 10094 H 956.191 3.66595 0.0189337 0
M  V30 10095 H 955.839 4.43537 2.37242 0
M  V30 10096 H 955.539 5.75036 1.20861 0
M  V30 10097 H 957.063 5.71852 2.14049 0
M  V30 10098 H 958.477 5.73151 -0.130903 0
M  V30 10099 H 956.874 5.93376 -0.895801 0
M  V30 10100 H 957.944 4.62979 -1.44148 0
M  V30 10101 N 959.287 0.325282 1.54207 0
M  V30 10102 C 960.219 -0.57395 2.21897 0
M  V30 10103 C 961.232 -1.0785 1.21952 0
M  V30 10104 O 962.421 -0.991782 1.48411 0
M  V30 10105 C 959.521 -1.8005 2.87115 0
M  V30 10106 C 958.694 -1.43435 4.13213 0
M  V30 10107 C 957.753 -2.51862 4.62009 0
M  V30 10108 O 956.779 -2.15934 5.26651 0
M  V30 10109 N 957.981 -3.8282 4.36382 0
M  V30 10110 H 960.746 0.00566918 2.99699 0
M  V30 10111 H 958.307 0.148563 1.61217 0
M  V30 10112 H 960.299 -2.51981 3.16682 0
M  V30 10113 H 958.869 -2.28792 2.13009 0
M  V30 10114 H 958.089 -0.546598 3.90392 0
M  V30 10115 H 959.377 -1.16544 4.95273 0
M  V30 10116 H 958.775 -4.14807 3.84645 0
M  V30 10117 H 957.332 -4.50976 4.70599 0
M  V30 10118 N 960.765 -1.57509 0.0534917 0
M  V30 10119 C 961.675 -2.15152 -0.935249 0
M  V30 10120 C 962.691 -1.10991 -1.34003 0
M  V30 10121 O 963.867 -1.43171 -1.41648 0
M  V30 10122 C 960.932 -2.68699 -2.19093 0
M  V30 10123 C 959.993 -3.87666 -1.84428 0
M  V30 10124 C 959.226 -4.3865 -3.0401 0
M  V30 10125 O 959.449 -3.887 -4.17455 0
M  V30 10126 O 958.383 -5.30209 -2.84889 0
M  V30 10127 H 962.209 -2.99962 -0.475009 0
M  V30 10128 H 959.794 -1.48446 -0.16854 0
M  V30 10129 H 961.676 -3.03098 -2.92762 0
M  V30 10130 H 960.351 -1.86958 -2.6425 0
M  V30 10131 H 959.258 -3.58151 -1.08068 0
M  V30 10132 H 960.591 -4.70643 -1.44068 0
M  V30 10133 N 962.243 0.219913 -1.56058 0
M  V30 10134 C 963.473 0.959521 -1.82967 0
M  V30 10135 C 963.881 1.78382 -0.630602 0
M  V30 10136 O 963.224 1.79062 0.410203 0
M  V30 10137 C 963.286 1.92481 -3.0363 0
M  V30 10138 C 962.95 1.28487 -4.38566 0
M  V30 10139 C 963.947 0.673946 -5.15513 0
M  V30 10140 C 961.632 1.29615 -4.85289 0
M  V30 10141 C 963.626 0.0828324 -6.37346 0
M  V30 10142 C 961.313 0.701191 -6.07064 0
M  V30 10143 C 962.311 0.0955877 -6.82933 0
M  V30 10144 O 961.999 -0.490109 -8.02405 0
M  V30 10145 H 961.731 0.286709 -0.612188 0
M  V30 10146 H 964.285 0.239761 -2.03996 0
M  V30 10147 H 962.515 2.6836 -2.78424 0
M  V30 10148 H 964.204 2.5301 -3.17397 0
M  V30 10149 H 964.97 0.657548 -4.80522 0
M  V30 10150 H 960.849 1.75691 -4.26208 0
M  V30 10151 H 964.393 -0.390482 -6.96506 0
M  V30 10152 H 960.29 0.715007 -6.41528 0
M  V30 10153 H 961.058 -0.384588 -8.17596 0
M  V30 10154 N 963.721 1.49897 0.486681 0
M  V30 10155 C 964.967 1.60342 1.2417 0
M  V30 10156 C 965.3 0.295694 1.91936 0
M  V30 10157 O 964.575 -0.701788 1.81398 0
M  V30 10158 C 964.858 2.77281 2.29755 0
M  V30 10159 C 964.711 4.1789 1.66397 0
M  V30 10160 C 966.03 2.89817 3.31201 0
M  V30 10161 H 963.149 0.583605 0.450083 0
M  V30 10162 H 965.791 1.82232 0.537734 0
M  V30 10163 H 963.941 2.58748 2.89796 0
M  V30 10164 H 965.613 4.47975 1.10073 0
M  V30 10165 H 963.856 4.22872 0.967579 0
M  V30 10166 H 964.527 4.95612 2.43049 0
M  V30 10167 H 967.003 3.06732 2.81167 0
M  V30 10168 H 965.879 3.7329 4.02425 0
M  V30 10169 H 966.14 1.9977 3.94391 0
M  V30 10170 N 965.199 -0.738761 1.39212 0
M  V30 10171 C 966.109 -1.88324 1.39897 0
M  V30 10172 C 967.125 -1.71494 0.294229 0
M  V30 10173 O 968.301 -1.94162 0.535087 0
M  V30 10174 C 965.366 -3.23871 1.23726 0
M  V30 10175 C 964.427 -3.53121 2.44139 0
M  V30 10176 C 963.66 -4.82202 2.2873 0
M  V30 10177 O 963.883 -5.55649 1.28879 0
M  V30 10178 O 962.817 -5.11265 3.17634 0
M  V30 10179 H 966.643 -1.90701 2.36362 0
M  V30 10180 H 964.228 -0.886067 1.20288 0
M  V30 10181 H 966.11 -4.04882 1.16826 0
M  V30 10182 H 964.785 -3.22274 0.303551 0
M  V30 10183 H 963.692 -2.72212 2.56615 0
M  V30 10184 H 965.025 -3.59495 3.36191 0
M  V30 10185 N 966.677 -1.24326 -0.968545 0
M  V30 10186 C 967.609 -0.992749 -2.06584 0
M  V30 10187 C 968.622 0.0374902 -1.62757 0
M  V30 10188 O 969.811 -0.199448 -1.77382 0
M  V30 10189 C 966.911 -0.476165 -3.35538 0
M  V30 10190 C 966.084 -1.56934 -4.08277 0
M  V30 10191 C 965.143 -1.05555 -5.15504 0
M  V30 10192 O 964.169 -1.74707 -5.41725 0
M  V30 10193 N 965.371 0.110465 -5.80395 0
M  V30 10194 H 968.136 -1.93752 -2.28649 0
M  V30 10195 H 965.697 -1.15344 -1.13611 0
M  V30 10196 H 967.689 -0.117223 -4.0453 0
M  V30 10197 H 966.259 0.374315 -3.10351 0
M  V30 10198 H 965.479 -2.10051 -3.33575 0
M  V30 10199 H 966.767 -2.30415 -4.53637 0
M  V30 10200 H 966.165 0.688614 -5.61493 0
M  V30 10201 H 964.722 0.41056 -6.50506 0
M  V30 10202 N 968.156 1.1691 -1.05688 0
M  V30 10203 C 969.103 2.21095 -0.662246 0
M  V30 10204 C 970.073 1.62623 0.338083 0
M  V30 10205 O 971.258 1.89428 0.228362 0
M  V30 10206 C 968.398 3.45066 -0.0484018 0
M  V30 10207 C 967.511 4.17809 -1.09817 0
M  V30 10208 C 966.646 5.29281 -0.451114 0
M  V30 10209 C 965.685 5.93817 -1.48484 0
M  V30 10210 N 964.822 6.96793 -0.861588 0
M  V30 10211 H 969.662 2.54204 -1.55513 0
M  V30 10212 H 967.199 1.24863 -0.777665 0
M  V30 10213 H 969.157 4.15932 0.324978 0
M  V30 10214 H 967.787 3.12526 0.807918 0
M  V30 10215 H 966.839 3.45608 -1.58932 0
M  V30 10216 H 968.151 4.61907 -1.88265 0
M  V30 10217 H 967.305 6.06695 -0.0244251 0
M  V30 10218 H 966.044 4.8633 0.365306 0
M  V30 10219 H 965.049 5.1513 -1.92149 0
M  V30 10220 H 966.274 6.38848 -2.30325 0
M  V30 10221 H 964.22 6.55967 -0.0657688 0
M  V30 10222 H 964.137 7.39229 -1.58354 0
M  V30 10223 H 965.405 7.78142 -0.45984 0
M  V30 10224 N 969.634 0.838594 1.33437 0
M  V30 10225 C 970.911 0.356112 1.92331 0
M  V30 10226 C 971.291 -1.1585 1.76471 0
M  V30 10227 O 970.639 -1.97281 1.15293 0
M  V30 10228 C 970.849 0.802715 3.39643 0
M  V30 10229 C 972.197 0.810575 4.16791 0
M  V30 10230 O 973.221 0.746304 3.48294 0
M  V30 10231 O 972.08 0.898082 5.3907 0
M  V30 10232 H 969.174 0.100711 0.820845 0
M  V30 10233 H 971.72 0.924428 1.42311 0
M  V30 10234 H 970.492 1.84529 3.45057 0
M  V30 10235 H 970.115 0.210956 3.9704 0
M  V30 10236 N 971.112 -1.45937 0.595003 0
M  V30 10237 C 972.359 -2.0232 0.0853053 0
M  V30 10238 C 972.687 -1.465 -1.27937 0
M  V30 10239 O 971.942 -0.624767 -1.85459 0
M  V30 10240 C 972.241 -3.57396 -0.0173747 0
M  V30 10241 C 971.907 -4.32311 1.28131 0
M  V30 10242 C 970.569 -4.52496 1.63708 0
M  V30 10243 C 972.921 -4.75233 2.14017 0
M  V30 10244 C 970.249 -5.12857 2.84947 0
M  V30 10245 C 972.601 -5.36933 3.34493 0
M  V30 10246 C 971.265 -5.55343 3.70338 0
M  V30 10247 H 970.535 -0.740342 0.0312154 0
M  V30 10248 H 973.182 -1.75157 0.774103 0
M  V30 10249 H 971.487 -3.83766 -0.789371 0
M  V30 10250 H 973.184 -3.98713 -0.427699 0
M  V30 10251 H 969.774 -4.16905 0.994374 0
M  V30 10252 H 973.958 -4.59383 1.87833 0
M  V30 10253 H 969.214 -5.253 3.12841 0
M  V30 10254 H 973.388 -5.69147 4.01304 0
M  V30 10255 H 971.015 -6.01883 4.64371 0
M  V30 10256 N 972.59 -0.333456 -1.54032 0
M  V30 10257 C 973.553 0.515392 -2.2333 0
M  V30 10258 C 974.553 1.03566 -1.23007 0
M  V30 10259 O 975.743 0.926514 -1.47517 0
M  V30 10260 C 972.875 1.7169 -2.94508 0
M  V30 10261 H 974.068 -0.0905407 -2.99763 0
M  V30 10262 H 971.621 -0.0846651 -1.56071 0
M  V30 10263 H 972.356 2.3618 -2.22237 0
M  V30 10264 H 972.141 1.35115 -3.68085 0
M  V30 10265 H 973.631 2.31922 -3.47278 0
M  V30 10266 N 974.068 1.57479 -0.061844 0
M  V30 10267 C 975.018 2.0867 0.918749 0
M  V30 10268 C 976.002 0.994174 1.26511 0
M  V30 10269 O 977.194 1.25738 1.24575 0
M  V30 10270 C 974.323 2.64386 2.18986 0
M  V30 10271 C 973.409 3.80626 1.87042 0
M  V30 10272 N 973.8 4.89982 1.25504 0
M  V30 10273 C 972.098 3.89733 2.1685 0
M  V30 10274 C 972.799 5.70928 1.11429 0
M  V30 10275 N 971.775 5.18877 1.62072 0
M  V30 10276 H 975.577 2.90611 0.438469 0
M  V30 10277 H 973.091 1.61775 0.142321 0
M  V30 10278 H 975.088 2.9937 2.90144 0
M  V30 10279 H 973.748 1.83888 2.67611 0
M  V30 10280 H 974.759 5.09556 0.925914 0
M  V30 10281 H 971.436 3.20194 2.67921 0
M  V30 10282 H 972.826 6.68886 0.635665 0
M  V30 10283 N 975.546 -0.211634 1.56173 0
M  V30 10284 C 976.476 -1.26533 1.96244 0
M  V30 10285 C 977.457 -1.48362 0.832028 0
M  V30 10286 O 978.642 -1.60378 1.0951 0
M  V30 10287 C 975.772 -2.61307 2.2877 0
M  V30 10288 C 974.726 -2.54119 3.44395 0
M  V30 10289 C 974.052 -3.93014 3.62552 0
M  V30 10290 C 975.352 -2.08046 4.79076 0
M  V30 10291 H 977.046 -0.932407 2.84511 0
M  V30 10292 H 974.592 -0.447084 1.36884 0
M  V30 10293 H 976.545 -3.35188 2.55396 0
M  V30 10294 H 975.269 -2.96307 1.37367 0
M  V30 10295 H 973.928 -1.82694 3.17834 0
M  V30 10296 H 973.576 -4.25338 2.68508 0
M  V30 10297 H 973.276 -3.89083 4.40327 0
M  V30 10298 H 974.8 -4.68542 3.91537 0
M  V30 10299 H 976.214 -2.71676 5.04842 0
M  V30 10300 H 974.611 -2.15154 5.60204 0
M  V30 10301 H 975.681 -1.03306 4.73768 0
M  V30 10302 N 977.024 -1.50153 -0.478725 0
M  V30 10303 C 978.272 -1.60443 -1.22892 0
M  V30 10304 C 978.593 -0.303276 -1.92627 0
M  V30 10305 O 977.863 0.678798 -1.83764 0
M  V30 10306 H 976.443 -0.591205 -0.456602 0
M  V30 10307 H 979.105 -1.86893 -0.552905 0
M  V30 10308 H 978.201 -2.41175 -1.98094 0
M  V30 10309 N 978.502 0.731368 -1.39602 0
M  V30 10310 C 979.432 1.85855 -1.41351 0
M  V30 10311 C 980.413 1.67839 -0.2764 0
M  V30 10312 O 981.598 1.88104 -0.482747 0
M  V30 10313 C 978.728 3.23644 -1.25983 0
M  V30 10314 C 977.682 3.56304 -2.37132 0
M  V30 10315 C 977.008 4.93069 -2.0685 0
M  V30 10316 C 978.308 3.58906 -3.79452 0
M  V30 10317 H 980.002 1.84648 -2.3568 0
M  V30 10318 H 977.548 0.886955 -1.13442 0
M  V30 10319 H 979.501 4.02176 -1.25826 0
M  V30 10320 H 978.225 3.25387 -0.281234 0
M  V30 10321 H 976.884 2.80104 -2.36511 0
M  V30 10322 H 976.532 4.91396 -1.0742 0
M  V30 10323 H 976.232 5.15888 -2.81306 0
M  V30 10324 H 977.756 5.73953 -2.0835 0
M  V30 10325 H 979.17 4.27508 -3.81982 0
M  V30 10326 H 977.567 3.93246 -4.53297 0
M  V30 10327 H 978.637 2.58631 -4.10168 0
M  V30 10328 N 979.98 1.24838 0.961938 0
M  V30 10329 C 980.89 1.06304 2.09133 0
M  V30 10330 C 981.906 0.00221475 1.74 0
M  V30 10331 O 983.082 0.201611 2.00388 0
M  V30 10332 C 980.147 0.676117 3.40043 0
M  V30 10333 C 979.208 1.81407 3.89089 0
M  V30 10334 C 978.441 1.44551 5.13752 0
M  V30 10335 O 978.664 0.337894 5.69398 0
M  V30 10336 O 977.598 2.27316 5.57325 0
M  V30 10337 H 981.424 2.01001 2.27667 0
M  V30 10338 H 979.009 1.0371 1.07539 0
M  V30 10339 H 980.891 0.472124 4.18747 0
M  V30 10340 H 979.566 -0.241667 3.22797 0
M  V30 10341 H 978.473 2.07286 3.11421 0
M  V30 10342 H 979.806 2.71083 4.10822 0
M  V30 10343 N 981.458 -1.16348 1.06306 0
M  V30 10344 C 982.869 -1.68491 0.80422 0
M  V30 10345 C 983.22 -1.84327 -0.672159 0
M  V30 10346 O 982.345 -1.53892 -1.52139 0
M  V30 10347 C 982.94 -3.06048 1.45328 0
M  V30 10348 C 981.499 -3.55311 1.24221 0
M  V30 10349 C 980.646 -2.31291 1.5297 0
M  V30 10350 H 983.597 -1.00708 1.22652 0
M  V30 10351 H 983.618 -3.70451 0.868674 0
M  V30 10352 H 983.13 -2.9449 2.52779 0
M  V30 10353 H 981.231 -3.72128 0.187447 0
M  V30 10354 H 981.344 -4.37397 1.95502 0
M  V30 10355 H 979.708 -2.3631 0.950241 0
M  V30 10356 H 980.491 -2.22331 2.6158 0
M  V30 10357 N 982.937 -0.845659 -1.3299 0
M  V30 10358 C 984.186 -0.440928 -1.96822 0
M  V30 10359 C 984.499 1.00668 -1.67706 0
M  V30 10360 O 985.705 1.51641 -2.25205 0
M  V30 10361 C 984.161 -0.73752 -3.52262 0
M  V30 10362 C 983.769 -2.20026 -3.90247 0
M  V30 10363 C 985.513 -0.400072 -4.22611 0
M  V30 10364 C 983.42 -2.44054 -5.38694 0
M  V30 10365 H 982.35 -0.161148 -0.736578 0
M  V30 10366 H 985.001 -1.03519 -1.51513 0
M  V30 10367 H 983.383 -0.0728025 -3.95933 0
M  V30 10368 H 984.557 -2.90602 -3.57613 0
M  V30 10369 H 982.872 -2.50135 -3.32899 0
M  V30 10370 H 985.469 -0.557136 -5.3179 0
M  V30 10371 H 985.812 0.657547 -4.11074 0
M  V30 10372 H 986.345 -1.0203 -3.84493 0
M  V30 10373 H 983.084 -3.48407 -5.55241 0
M  V30 10374 H 982.604 -1.78047 -5.72765 0
M  V30 10375 H 984.283 -2.27549 -6.05665 0
M  V30 10376 N 984.415 1.45619 -0.602734 0
M  V30 10377 C 985.643 2.06647 -0.102253 0
M  V30 10378 C 986.058 1.4482 1.21131 0
M  V30 10379 O 985.415 0.560621 1.73676 0
M  V30 10380 C 985.466 3.61467 0.0490113 0
M  V30 10381 O 985.187 4.20985 -1.21257 0
M  V30 10382 C 986.688 4.39469 0.581517 0
M  V30 10383 H 983.908 0.667685 -0.0666155 0
M  V30 10384 H 986.452 1.86939 -0.829091 0
M  V30 10385 H 984.607 3.80534 0.726153 0
M  V30 10386 H 985.021 5.14103 -1.03915 0
M  V30 10387 H 986.495 5.48318 0.636462 0
M  V30 10388 H 986.972 4.0891 1.60277 0
M  V30 10389 H 987.578 4.25256 -0.061419 0
M  V30 10390 N 985.893 0.34162 1.53853 0
M  V30 10391 C 986.823 -0.508431 2.27897 0
M  V30 10392 C 987.804 -1.10425 1.29384 0
M  V30 10393 O 988.989 -1.126 1.58224 0
M  V30 10394 C 986.119 -1.66048 3.05034 0
M  V30 10395 C 985.073 -1.19309 4.11035 0
M  V30 10396 C 984.399 -2.4335 4.76114 0
M  V30 10397 C 985.699 -0.294952 5.21467 0
M  V30 10398 H 987.393 0.109251 2.99201 0
M  V30 10399 H 984.939 0.0539847 1.43899 0
M  V30 10400 H 986.892 -2.26158 3.5557 0
M  V30 10401 H 985.616 -2.30503 2.31379 0
M  V30 10402 H 984.275 -0.614809 3.61408 0
M  V30 10403 H 983.923 -3.06208 3.99056 0
M  V30 10404 H 983.623 -2.1276 5.47729 0
M  V30 10405 H 985.147 -3.0419 5.29434 0
M  V30 10406 H 986.561 -0.80285 5.67651 0
M  V30 10407 H 984.958 -0.0810221 6.00045 0
M  V30 10408 H 986.028 0.669433 4.80257 0
M  V30 10409 N 987.371 -1.57444 0.0701946 0
M  V30 10410 C 988.301 -2.15659 -0.895176 0
M  V30 10411 C 989.282 -1.08321 -1.31151 0
M  V30 10412 O 990.467 -1.36349 -1.38284 0
M  V30 10413 C 987.597 -2.71693 -2.16334 0
M  V30 10414 C 986.551 -3.84183 -1.88645 0
M  V30 10415 C 985.877 -4.26814 -3.22078 0
M  V30 10416 C 987.177 -5.08493 -1.19299 0
M  V30 10417 H 988.871 -2.96576 -0.410217 0
M  V30 10418 H 986.417 -1.42662 -0.195872 0
M  V30 10419 H 988.37 -3.11064 -2.84284 0
M  V30 10420 H 987.094 -1.87994 -2.67069 0
M  V30 10421 H 985.753 -3.45314 -1.23101 0
M  V30 10422 H 985.401 -3.40039 -3.70651 0
M  V30 10423 H 985.101 -5.02642 -3.04344 0
M  V30 10424 H 986.625 -4.68799 -3.91228 0
M  V30 10425 H 988.039 -5.4519 -1.77316 0
M  V30 10426 H 986.436 -5.89588 -1.11828 0
M  V30 10427 H 987.506 -4.84595 -0.171839 0
M  V30 10428 N 988.849 0.203349 -1.56283 0
M  V30 10429 C 989.781 1.27592 -1.90402 0
M  V30 10430 C 990.794 1.4213 -0.79391 0
M  V30 10431 O 991.983 1.42703 -1.07229 0
M  V30 10432 C 989.083 2.64919 -2.11356 0
M  V30 10433 C 988.256 2.72095 -3.42466 0
M  V30 10434 C 987.315 3.9056 -3.52631 0
M  V30 10435 O 986.341 3.78048 -4.25521 0
M  V30 10436 N 987.543 5.0566 -2.85111 0
M  V30 10437 H 990.308 0.986423 -2.83001 0
M  V30 10438 H 987.869 0.39331 -1.5705 0
M  V30 10439 H 989.861 3.42581 -2.15453 0
M  V30 10440 H 988.431 2.86391 -1.25295 0
M  V30 10441 H 987.651 1.8077 -3.50308 0
M  V30 10442 H 988.939 2.73874 -4.28801 0
M  V30 10443 H 988.337 5.18723 -2.25705 0
M  V30 10444 H 986.894 5.81299 -2.94847 0
M  V30 10445 N 990.327 1.50405 0.470755 0
M  V30 10446 C 991.259 1.65447 1.58619 0
M  V30 10447 C 992.272 0.535949 1.53725 0
M  V30 10448 O 993.461 0.80914 1.59107 0
M  V30 10449 C 990.561 1.62318 2.975 0
M  V30 10450 C 989.734 2.90207 3.27259 0
M  V30 10451 C 988.793 2.79717 4.45696 0
M  V30 10452 O 987.819 3.53672 4.45987 0
M  V30 10453 N 989.021 1.93296 5.47373 0
M  V30 10454 H 991.786 2.61659 1.46132 0
M  V30 10455 H 989.347 1.47873 0.659178 0
M  V30 10456 H 991.339 1.52912 3.747 0
M  V30 10457 H 989.909 0.738392 3.03754 0
M  V30 10458 H 989.129 3.13737 2.38669 0
M  V30 10459 H 990.417 3.74931 3.43953 0
M  V30 10460 H 989.815 1.32524 5.49958 0
M  V30 10461 H 988.372 1.89793 6.23556 0
M  V30 10462 N 991.805 -0.723954 1.39988 0
M  V30 10463 C 993.033 -1.51313 1.4111 0
M  V30 10464 C 993.448 -1.88798 0.00853333 0
M  V30 10465 O 992.805 -1.54868 -0.965516 0
M  V30 10466 C 992.856 -2.79375 2.29416 0
M  V30 10467 O 992.577 -2.43478 3.64211 0
M  V30 10468 C 994.078 -3.7333 2.3904 0
M  V30 10469 H 991.298 -0.46724 0.481589 0
M  V30 10470 H 993.842 -0.893694 1.83938 0
M  V30 10471 H 991.997 -3.37624 1.89971 0
M  V30 10472 H 992.411 -3.25821 4.11024 0
M  V30 10473 H 993.885 -4.60051 3.05053 0
M  V30 10474 H 994.362 -4.15854 1.41289 0
M  V30 10475 H 994.968 -3.20996 2.79001 0
M  V30 10476 N 993.283 -1.25346 -0.955304 0
M  V30 10477 C 994.511 -1.12793 -1.73451 0
M  V30 10478 C 994.926 0.318344 -1.86097 0
M  V30 10479 O 994.283 1.21897 -1.35821 0
M  V30 10480 C 994.334 -1.77603 -3.14864 0
M  V30 10481 O 994.055 -3.16577 -3.02837 0
M  V30 10482 C 995.556 -1.70821 -4.09066 0
M  V30 10483 H 992.776 -0.393457 -0.543537 0
M  V30 10484 H 995.32 -1.65696 -1.19855 0
M  V30 10485 H 993.475 -1.28673 -3.65407 0
M  V30 10486 H 993.889 -3.48433 -3.92039 0
M  V30 10487 H 995.363 -2.2083 -5.05903 0
M  V30 10488 H 995.84 -0.671858 -4.34031 0
M  V30 10489 H 996.446 -2.19237 -3.64438 0
M  V30 10490 N 994.761 1.15782 -1.06922 0
M  V30 10491 C 995.986 1.90896 -0.810771 0
M  V30 10492 C 996.411 1.77246 0.629714 0
M  V30 10493 O 995.769 1.10215 1.43953 0
M  V30 10494 C 995.817 3.39397 -1.21829 0
M  V30 10495 O 994.921 4.10818 -0.360934 0
M  V30 10496 H 994.262 0.594497 -0.295752 0
M  V30 10497 H 996.792 1.46652 -1.42669 0
M  V30 10498 H 996.802 3.90181 -1.19259 0
M  V30 10499 H 995.477 3.4865 -2.2675 0
M  V30 10500 H 994.054 3.7019 -0.448748 0
M  V30 10501 N 996.239 0.8527 1.3254 0
M  V30 10502 C 997.487 0.454224 1.96929 0
M  V30 10503 C 997.808 -0.993034 1.67821 0
M  V30 10504 O 997.078 -1.69371 0.984393 0
M  V30 10505 H 995.658 0.164977 0.728554 0
M  V30 10506 H 998.32 1.0887 1.61658 0
M  V30 10507 H 997.416 0.597667 3.06324 0
M  V30 10508 N 997.718 -1.45297 0.610449 0
M  V30 10509 C 998.648 -2.33311 -0.0939698 0
M  V30 10510 C 999.629 -1.46999 -0.85588 0
M  V30 10511 O 1000.81 -1.75764 -0.825865 0
M  V30 10512 C 997.944 -3.29751 -1.09003 0
M  V30 10513 C 996.898 -4.2572 -0.441146 0
M  V30 10514 C 996.224 -5.11873 -1.54566 0
M  V30 10515 C 997.524 -5.1837 0.639489 0
M  V30 10516 H 999.218 -2.92459 0.640941 0
M  V30 10517 H 996.764 -1.40631 0.309675 0
M  V30 10518 H 998.717 -3.90195 -1.59141 0
M  V30 10519 H 997.441 -2.68768 -1.85557 0
M  V30 10520 H 996.1 -3.66579 0.0393908 0
M  V30 10521 H 995.748 -4.47256 -2.30155 0
M  V30 10522 H 995.448 -5.76886 -1.11698 0
M  V30 10523 H 996.972 -5.75185 -2.04925 0
M  V30 10524 H 998.386 -5.7287 0.22207 0
M  V30 10525 H 996.783 -5.91876 0.990089 0
M  V30 10526 H 997.853 -4.60627 1.51495 0
M  V30 10527 N 999.196 -0.349774 -1.5367 0
M  V30 10528 C 1000.16 0.491676 -2.23864 0
M  V30 10529 C 1001.16 1.02256 -1.24098 0
M  V30 10530 O 1002.35 0.910816 -1.48492 0
M  V30 10531 C 999.481 1.68557 -2.96313 0
M  V30 10532 H 1000.67 -0.12233 -2.9965 0
M  V30 10533 H 998.227 -0.101214 -1.55972 0
M  V30 10534 H 998.962 2.3381 -2.2473 0
M  V30 10535 H 998.747 1.31203 -3.69497 0
M  V30 10536 H 1000.24 2.28225 -3.49718 0
M  V30 10537 N 1000.67 1.57404 -0.0785433 0
M  V30 10538 C 1001.62 2.09632 0.896565 0
M  V30 10539 C 1002.61 1.00754 1.25449 0
M  V30 10540 O 1003.8 1.27053 1.23234 0
M  V30 10541 C 1000.93 2.66694 2.16169 0
M  V30 10542 C 1000.01 3.82588 1.82994 0
M  V30 10543 N 1000.41 4.91286 1.203 0
M  V30 10544 C 998.704 3.92011 2.12704 0
M  V30 10545 C 999.405 5.72077 1.05367 0
M  V30 10546 N 998.381 5.20567 1.56559 0
M  V30 10547 H 1002.18 2.9106 0.407621 0
M  V30 10548 H 999.697 1.61917 0.125155 0
M  V30 10549 H 1001.69 3.0243 2.86952 0
M  V30 10550 H 1000.35 1.86716 2.65645 0
M  V30 10551 H 1001.36 5.10509 0.871817 0
M  V30 10552 H 998.042 3.23018 2.6451 0
M  V30 10553 H 999.432 6.69523 0.564685 0
M  V30 10554 N 1002.15 -0.195058 1.56388 0
M  V30 10555 C 1003.08 -1.24444 1.97575 0
M  V30 10556 C 1004.06 -1.47471 0.847717 0
M  V30 10557 O 1005.25 -1.59208 1.11205 0
M  V30 10558 C 1002.38 -2.58866 2.31529 0
M  V30 10559 C 1001.33 -2.50451 3.47071 0
M  V30 10560 C 1000.66 -3.89146 3.667 0
M  V30 10561 C 1001.96 -2.02953 4.81256 0
M  V30 10562 H 1003.65 -0.902178 2.85484 0
M  V30 10563 H 1001.2 -0.43254 1.3735 0
M  V30 10564 H 1003.15 -3.3246 2.58936 0
M  V30 10565 H 1001.87 -2.94833 1.40502 0
M  V30 10566 H 1000.53 -1.79313 3.19754 0
M  V30 10567 H 1000.18 -4.22466 2.73004 0
M  V30 10568 H 999.882 -3.84391 4.44429 0
M  V30 10569 H 1001.41 -4.64363 3.96484 0
M  V30 10570 H 1002.82 -2.66306 5.07695 0
M  V30 10571 H 1001.22 -2.092 5.62455 0
M  V30 10572 H 1002.29 -0.982757 4.74837 0
M  V30 10573 N 1003.63 -1.50653 -0.462772 0
M  V30 10574 C 1004.58 -1.66509 -1.55752 0
M  V30 10575 C 1005.56 -0.519508 -1.52282 0
M  V30 10576 O 1006.76 -0.774296 -1.59166 0
M  V30 10577 C 1003.88 -1.77023 -2.94139 0
M  V30 10578 C 1002.97 -2.97284 -3.02461 0
M  V30 10579 N 1003.36 -4.20843 -2.80579 0
M  V30 10580 C 1001.66 -2.96014 -3.33604 0
M  V30 10581 C 1002.36 -5.01886 -2.94084 0
M  V30 10582 N 1001.34 -4.3601 -3.24648 0
M  V30 10583 H 1005.14 -2.59727 -1.37546 0
M  V30 10584 H 1002.65 -1.47951 -0.669653 0
M  V30 10585 H 1004.65 -1.86488 -3.72864 0
M  V30 10586 H 1003.31 -0.849688 -3.13385 0
M  V30 10587 H 1004.32 -4.50206 -2.55998 0
M  V30 10588 H 1001 -2.13493 -3.58786 0
M  V30 10589 H 1002.39 -6.10164 -2.81334 0
M  V30 10590 N 1005.11 0.71652 -1.4037 0
M  V30 10591 C 1006.33 1.51069 -1.42102 0
M  V30 10592 C 1006.76 1.88087 -0.0222387 0
M  V30 10593 O 1006.12 1.53204 0.969448 0
M  V30 10594 C 1006.16 2.76307 -2.31704 0
M  V30 10595 O 1005.27 3.72975 -1.75964 0
M  V30 10596 H 1004.61 0.455502 -0.483129 0
M  V30 10597 H 1007.14 0.882514 -1.84588 0
M  V30 10598 H 1007.15 3.24846 -2.46859 0
M  V30 10599 H 1005.82 2.48698 -3.3335 0
M  V30 10600 H 1004.4 3.31818 -1.70151 0
M  V30 10601 N 1006.59 1.25851 0.948643 0
M  V30 10602 C 1007.52 1.09248 2.06367 0
M  V30 10603 C 1008.5 -0.000205168 1.701 0
M  V30 10604 O 1009.68 0.170442 1.93451 0
M  V30 10605 C 1006.81 0.716777 3.39823 0
M  V30 10606 C 1005.77 1.76036 3.90122 0
M  V30 10607 C 1005.09 1.23918 5.20143 0
M  V30 10608 C 1006.39 3.16039 4.15833 0
M  V30 10609 H 1008.09 2.02518 2.20515 0
M  V30 10610 H 1005.63 0.975093 1.05962 0
M  V30 10611 H 1007.59 0.587531 4.17284 0
M  V30 10612 H 1006.31 -0.251626 3.25629 0
M  V30 10613 H 1004.97 1.87815 3.14835 0
M  V30 10614 H 1004.62 0.260836 5.02323 0
M  V30 10615 H 1004.32 1.93673 5.54765 0
M  V30 10616 H 1005.84 1.12245 6.00194 0
M  V30 10617 H 1007.25 3.0738 4.83933 0
M  V30 10618 H 1005.65 3.83317 4.61723 0
M  V30 10619 H 1006.72 3.62652 3.21887 0
M  V30 10620 N 1008.06 -1.15214 1.07534 0
M  V30 10621 C 1009.01 -2.22078 0.69168 0
M  V30 10622 C 1010.01 -1.66751 -0.298382 0
M  V30 10623 O 1011.21 -1.7927 -0.161897 0
M  V30 10624 H 1007.59 -0.723347 0.205604 0
M  V30 10625 H 1009.56 -2.51716 1.60256 0
M  V30 10626 C 1008.31 -3.47534 0.107546 0
M  V30 10627 H 1007.63 -3.90429 0.860522 0
M  V30 10628 H 1009.07 -4.23821 -0.123215 0
M  V30 10629 C 1007.53 -3.16583 -1.15226 0
M  V30 10630 O 1008.06 -3.33551 -2.23845 0
M  V30 10631 N 1006.27 -2.70611 -1.05915 0
M  V30 10632 H 1005.81 -2.57004 -0.175198 0
M  V30 10633 H 1005.77 -2.50277 -1.90287 0
M  V30 10634 N 1009.54 -0.859717 -1.32086 0
M  V30 10635 C 1010.79 -0.461779 -1.96343 0
M  V30 10636 C 1011.1 0.988837 -1.68764 0
M  V30 10637 O 1012.31 1.49244 -2.268 0
M  V30 10638 C 1010.77 -0.77484 -3.5146 0
M  V30 10639 C 1010.37 -2.24153 -3.87891 0
M  V30 10640 C 1012.12 -0.444873 -4.22162 0
M  V30 10641 C 1010.03 -2.49754 -5.36075 0
M  V30 10642 H 1008.96 -0.168951 -0.734828 0
M  V30 10643 H 1011.61 -1.0512 -1.50406 0
M  V30 10644 H 1009.99 -0.114792 -3.95834 0
M  V30 10645 H 1011.16 -2.94378 -3.54511 0
M  V30 10646 H 1009.48 -2.53651 -3.30227 0
M  V30 10647 H 1012.07 -0.613508 -5.31169 0
M  V30 10648 H 1012.42 0.61391 -4.11749 0
M  V30 10649 H 1012.95 -1.06103 -3.83389 0
M  V30 10650 H 1009.69 -3.54276 -5.51515 0
M  V30 10651 H 1009.21 -1.84112 -5.70844 0
M  V30 10652 H 1010.89 -2.3396 -6.03218 0
M  V30 10653 N 1011.02 1.44971 -0.618145 0
M  V30 10654 C 1012.27 2.02458 -0.117656 0
M  V30 10655 C 1012.6 1.48413 1.25248 0
M  V30 10656 O 1011.87 0.662997 1.82851 0
M  V30 10657 C 1012.16 3.59987 -0.0901897 0
M  V30 10658 C 1012.01 4.24343 -1.49175 0
M  V30 10659 C 1013.33 4.36099 0.592121 0
M  V30 10660 H 1010.45 0.735672 -0.0442291 0
M  V30 10661 H 1013.09 1.727 -0.792138 0
M  V30 10662 H 1011.24 3.85471 0.484175 0
M  V30 10663 H 1012.91 4.10009 -2.114 0
M  V30 10664 H 1011.16 3.82337 -2.04941 0
M  V30 10665 H 1011.83 5.33298 -1.42468 0
M  V30 10666 H 1014.3 4.1597 0.103813 0
M  V30 10667 H 1013.18 5.45822 0.580481 0
M  V30 10668 H 1013.44 4.09746 1.66015 0
M  V30 10669 N 1012.5 0.357919 1.53482 0
M  V30 10670 C 1013.45 -0.50845 2.22258 0
M  V30 10671 C 1014.43 -1.05476 1.21506 0
M  V30 10672 O 1015.62 -0.986075 1.46988 0
M  V30 10673 C 1012.75 -1.65157 3.00962 0
M  V30 10674 C 1011.84 -1.11851 4.09084 0
M  V30 10675 N 1012.23 -0.307818 5.04862 0
M  V30 10676 C 1010.53 -1.39405 4.23653 0
M  V30 10677 C 1011.23 -0.016842 5.81698 0
M  V30 10678 N 1010.21 -0.612396 5.40139 0
M  V30 10679 H 1014.01 0.117836 2.93664 0
M  V30 10680 H 1011.52 0.16553 1.61554 0
M  V30 10681 H 1013.52 -2.28435 3.48745 0
M  V30 10682 H 1012.18 -2.281 2.31086 0
M  V30 10683 H 1013.19 0.0523313 5.17874 0
M  V30 10684 H 1009.87 -2.02682 3.65002 0
M  V30 10685 H 1011.26 0.638046 6.68864 0
M  V30 10686 N 1013.98 -1.5736 0.0868897 0
M  V30 10687 C 1015.39 -1.57304 -0.269762 0
M  V30 10688 C 1015.59 -1.09745 -1.68992 0
M  V30 10689 O 1014.65 -0.77017 -2.40468 0
M  V30 10690 C 1015.96 -3.00628 -0.0656646 0
M  V30 10691 C 1017.51 -3.12713 -0.134045 0
M  V30 10692 C 1017.98 -4.57981 0.0419569 0
M  V30 10693 N 1019.48 -4.63198 -0.0131501 0
M  V30 10694 C 1020.21 -5.73316 0.0983964 0
M  V30 10695 N 1019.71 -6.92296 0.264315 0
M  V30 10696 N 1021.5 -5.62086 0.0402517 0
M  V30 10697 H 1013.65 -1.86585 1.01487 0
M  V30 10698 H 1015.91 -0.860843 0.397055 0
M  V30 10699 H 1015.62 -3.39592 0.914891 0
M  V30 10700 H 1015.49 -3.68367 -0.811522 0
M  V30 10701 H 1017.88 -2.73627 -1.1051 0
M  V30 10702 H 1017.96 -2.47582 0.643167 0
M  V30 10703 H 1017.61 -4.9776 1.00984 0
M  V30 10704 H 1017.54 -5.21162 -0.754847 0
M  V30 10705 H 1020.03 -3.77644 -0.139183 0
M  V30 10706 H 1020.34 -7.72047 0.341165 0
M  V30 10707 H 1018.68 -6.94353 0.299876 0
M  V30 10708 H 1021.88 -4.68017 -0.0881801 0
M  V30 10709 H 1022.05 -6.47868 0.130635 0
M  V30 10710 N 1015.45 0.186762 -1.56489 0
M  V30 10711 C 1016.73 0.932229 -1.71956 0
M  V30 10712 C 1017.11 2.01037 -0.644006 0
M  V30 10713 O 1016.46 2.259 0.343694 0
M  V30 10714 C 1016.67 1.51106 -3.14592 0
M  V30 10715 C 1018.02 1.98997 -3.75081 0
M  V30 10716 O 1019.04 1.60931 -3.17773 0
M  V30 10717 O 1017.9 2.69067 -4.75673 0
M  V30 10718 H 1014.99 0.437736 -0.701652 0
M  V30 10719 H 1017.54 0.175803 -1.68787 0
M  V30 10720 H 1016.31 0.734327 -3.84348 0
M  V30 10721 H 1015.94 2.33209 -3.22024 0
M  V30 10722 N 1016.93 1.50896 0.454776 0
M  V30 10723 C 1017.86 1.73885 1.5584 0
M  V30 10724 C 1018.84 0.588172 1.59607 0
M  V30 10725 O 1020.03 0.829054 1.75614 0
M  V30 10726 C 1017.16 1.84796 2.94054 0
M  V30 10727 C 1016.11 3.00111 3.05152 0
M  V30 10728 C 1015.44 2.96183 4.45174 0
M  V30 10729 C 1016.74 4.40365 2.80849 0
M  V30 10730 H 1018.43 2.66292 1.36854 0
M  V30 10731 H 1015.98 1.28142 0.656936 0
M  V30 10732 H 1017.93 1.99462 3.71204 0
M  V30 10733 H 1016.66 0.890235 3.14233 0
M  V30 10734 H 1015.31 2.85121 2.30438 0
M  V30 10735 H 1014.96 1.98224 4.62295 0
M  V30 10736 H 1014.66 3.73608 4.53532 0
M  V30 10737 H 1016.19 3.1292 5.24322 0
M  V30 10738 H 1017.6 4.55795 3.47741 0
M  V30 10739 H 1016 5.19363 3.00636 0
M  V30 10740 H 1017.07 4.51606 1.76579 0
M  V30 10741 N 1018.41 -0.709066 1.40748 0
M  V30 10742 C 1019.36 -1.82312 1.4153 0
M  V30 10743 C 1020.33 -1.63868 0.271392 0
M  V30 10744 O 1021.51 -1.8491 0.470431 0
M  V30 10745 C 1018.65 -3.2008 1.29006 0
M  V30 10746 C 1017.77 -3.50051 2.53156 0
M  V30 10747 C 1016.9 -4.7736 2.33025 0
M  V30 10748 C 1015.94 -5.00255 3.52719 0
M  V30 10749 N 1015.08 -6.18782 3.31743 0
M  V30 10750 H 1019.92 -1.80978 2.36751 0
M  V30 10751 H 1017.45 -0.883975 1.17577 0
M  V30 10752 H 1019.41 -3.99645 1.19749 0
M  V30 10753 H 1018.04 -3.20626 0.374014 0
M  V30 10754 H 1017.09 -2.64993 2.72916 0
M  V30 10755 H 1018.41 -3.62877 3.42231 0
M  V30 10756 H 1017.56 -5.64954 2.21159 0
M  V30 10757 H 1016.3 -4.66756 1.41386 0
M  V30 10758 H 1015.3 -4.11114 3.65055 0
M  V30 10759 H 1016.53 -5.12728 4.45295 0
M  V30 10760 H 1014.47 -6.09416 2.42791 0
M  V30 10761 H 1014.39 -6.32313 4.14386 0
M  V30 10762 H 1015.66 -7.09146 3.23623 0
M  V30 10763 N 1019.89 -1.26353 -0.941956 0
M  V30 10764 C 1021.3 -1.10774 -1.50287 0
M  V30 10765 C 1021.65 0.312229 -1.937 0
M  V30 10766 O 1020.78 1.20364 -1.79838 0
M  V30 10767 C 1021.37 -2.00473 -2.73123 0
M  V30 10768 C 1019.93 -1.89042 -3.25485 0
M  V30 10769 C 1019.08 -1.93869 -1.98267 0
M  V30 10770 H 1022.03 -1.39454 -0.757523 0
M  V30 10771 H 1022.05 -1.55216 -3.47402 0
M  V30 10772 H 1021.56 -3.03812 -2.41495 0
M  V30 10773 H 1019.66 -0.886341 -3.61904 0
M  V30 10774 H 1019.78 -2.74533 -3.92643 0
M  V30 10775 H 1018.14 -1.37912 -2.14132 0
M  V30 10776 H 1018.92 -2.98837 -1.68972 0
M  V30 10777 N 1021.37 1.14642 -1.08144 0
M  V30 10778 C 1022.32 2.17665 -0.678661 0
M  V30 10779 C 1023.3 1.58072 0.300336 0
M  V30 10780 O 1024.49 1.7664 0.112781 0
M  V30 10781 C 1021.62 3.43191 -0.0866362 0
M  V30 10782 C 1020.71 4.0982 -1.09126 0
M  V30 10783 N 1021.1 4.51814 -2.27372 0
M  V30 10784 C 1019.4 4.36272 -0.926411 0
M  V30 10785 C 1020.1 5.03581 -2.91172 0
M  V30 10786 N 1019.07 4.97624 -2.18795 0
M  V30 10787 H 1022.88 2.47872 -1.57914 0
M  V30 10788 H 1020.39 1.31296 -0.955772 0
M  V30 10789 H 1022.39 4.1632 0.219859 0
M  V30 10790 H 1021.05 3.14464 0.80886 0
M  V30 10791 H 1022.06 4.44941 -2.65044 0
M  V30 10792 H 1018.74 4.17414 -0.084492 0
M  V30 10793 H 1020.13 5.45969 -3.91621 0
M  V30 10794 N 1022.85 0.866709 1.31628 0
M  V30 10795 C 1023.79 0.309128 2.30537 0
M  V30 10796 C 1024.79 -0.574028 1.59378 0
M  V30 10797 O 1025.99 -0.460491 1.7401 0
M  V30 10798 H 1022.37 0.081279 0.747595 0
M  V30 10799 H 1024.34 1.15734 2.75042 0
M  V30 10800 C 1023.09 -0.477287 3.44409 0
M  V30 10801 H 1022.41 0.19301 3.99334 0
M  V30 10802 H 1023.85 -0.832818 4.1574 0
M  V30 10803 C 1022.31 -1.66727 2.92752 0
M  V30 10804 O 1022.84 -2.76654 2.91248 0
M  V30 10805 N 1021.05 -1.49833 2.48995 0
M  V30 10806 H 1020.59 -0.604073 2.50417 0
M  V30 10807 H 1020.55 -2.29594 2.14788 0
M  V30 10808 N 1024.32 -1.44642 0.625825 0
M  V30 10809 C 1025.57 -2.01308 0.125682 0
M  V30 10810 C 1025.89 -1.49773 -1.25807 0
M  V30 10811 O 1027.09 -1.98533 -1.85194 0
M  V30 10812 C 1025.55 -3.59479 0.17395 0
M  V30 10813 C 1025.16 -4.20011 1.55868 0
M  V30 10814 C 1026.9 -4.2364 -0.270005 0
M  V30 10815 C 1024.81 -5.7039 1.56235 0
M  V30 10816 H 1023.74 -0.75276 0.0432194 0
M  V30 10817 H 1026.39 -1.65916 0.783842 0
M  V30 10818 H 1024.77 -3.92145 -0.551212 0
M  V30 10819 H 1025.94 -3.98891 2.307 0
M  V30 10820 H 1024.26 -3.68116 1.94627 0
M  V30 10821 H 1026.86 -5.33931 -0.28672 0
M  V30 10822 H 1027.2 -3.95603 -1.29629 0
M  V30 10823 H 1027.73 -3.95759 0.402487 0
M  V30 10824 H 1024.47 -6.03154 2.56683 0
M  V30 10825 H 1023.99 -5.93648 0.856881 0
M  V30 10826 H 1025.67 -6.33929 1.29396 0
M  V30 10827 N 1025.8 -0.366053 -1.5329 0
M  V30 10828 C 1026.73 0.47211 -2.28677 0
M  V30 10829 C 1027.71 1.08353 -1.31125 0
M  V30 10830 O 1028.9 1.10069 -1.59995 0
M  V30 10831 C 1026.03 1.61174 -3.07637 0
M  V30 10832 C 1024.98 1.12755 -4.12881 0
M  V30 10833 C 1024.31 2.35745 -4.79925 0
M  V30 10834 C 1025.61 0.211954 -5.2187 0
M  V30 10835 H 1027.3 -0.156838 -2.98989 0
M  V30 10836 H 1024.85 -0.0768709 -1.43795 0
M  V30 10837 H 1026.8 2.20473 -3.59123 0
M  V30 10838 H 1025.52 2.26793 -2.35016 0
M  V30 10839 H 1024.18 0.557234 -3.6234 0
M  V30 10840 H 1023.83 2.99821 -4.03877 0
M  V30 10841 H 1023.53 2.04019 -5.51044 0
M  V30 10842 H 1025.06 2.95729 -5.34207 0
M  V30 10843 H 1026.47 0.71244 -5.68856 0
M  V30 10844 H 1024.87 -0.0144501 -6.00098 0
M  V30 10845 H 1025.94 -0.745753 -4.79131 0
M  V30 10846 N 1027.28 1.57312 -0.0952337 0
M  V30 10847 C 1028.53 1.93533 0.568131 0
M  V30 10848 C 1028.84 0.979121 1.6933 0
M  V30 10849 O 1030.05 1.23506 2.41782 0
M  V30 10850 C 1028.5 3.43875 1.06198 0
M  V30 10851 C 1028.11 4.47988 -0.0334397 0
M  V30 10852 C 1029.86 3.89057 1.69807 0
M  V30 10853 C 1027.76 5.89483 0.475774 0
M  V30 10854 H 1026.69 0.7224 0.215995 0
M  V30 10855 H 1029.34 1.82699 -0.171257 0
M  V30 10856 H 1027.73 3.49862 1.85506 0
M  V30 10857 H 1028.9 4.53644 -0.808934 0
M  V30 10858 H 1027.21 4.12415 -0.574725 0
M  V30 10859 H 1029.81 4.92171 2.08978 0
M  V30 10860 H 1030.15 3.27713 2.5673 0
M  V30 10861 H 1030.69 3.85772 0.970815 0
M  V30 10862 H 1027.43 6.54528 -0.356837 0
M  V30 10863 H 1026.95 5.87297 1.21827 0
M  V30 10864 H 1028.63 6.40066 0.944697 0
M  V30 10865 N 1028.76 -0.17846 1.56586 0
M  V30 10866 C 1029.98 -0.916061 1.86073 0
M  V30 10867 C 1030.41 -1.75349 0.680754 0
M  V30 10868 O 1029.77 -1.77479 -0.37028 0
M  V30 10869 C 1029.81 -1.77445 3.1392 0
M  V30 10870 O 1028.92 -2.87524 2.95641 0
M  V30 10871 H 1028.26 -0.257031 0.612234 0
M  V30 10872 H 1030.79 -0.178755 2.03818 0
M  V30 10873 H 1030.8 -2.1758 3.45142 0
M  V30 10874 H 1029.47 -1.15927 3.99417 0
M  V30 10875 H 1028.05 -2.51023 2.75757 0
M  V30 10876 N 1030.24 -1.51135 -0.446768 0
M  V30 10877 C 1031.17 -1.66438 -1.56121 0
M  V30 10878 C 1032.15 -0.512061 -1.54327 0
M  V30 10879 O 1033.33 -0.734702 -1.73593 0
M  V30 10880 C 1030.46 -1.66932 -2.94706 0
M  V30 10881 C 1029.5 -2.88016 -3.14562 0
M  V30 10882 S 1030.34 -4.48973 -2.91863 0
M  V30 10883 C 1031.49 -4.52196 -4.32746 0
M  V30 10884 H 1031.73 -2.60702 -1.42904 0
M  V30 10885 H 1029.26 -1.40701 -0.635812 0
M  V30 10886 H 1031.22 -1.679 -3.74593 0
M  V30 10887 H 1029.88 -0.738607 -3.05292 0
M  V30 10888 H 1029.07 -2.84735 -4.15863 0
M  V30 10889 H 1028.67 -2.8474 -2.42485 0
M  V30 10890 H 1030.96 -4.27256 -5.25793 0
M  V30 10891 H 1031.91 -5.53957 -4.41064 0
M  V30 10892 H 1032.32 -3.81624 -4.15961 0
M  V30 10893 N 1031.71 0.701592 -1.41122 0
M  V30 10894 C 1033.12 1.28129 -1.35793 0
M  V30 10895 C 1033.48 1.96163 -0.0381185 0
M  V30 10896 O 1032.6 1.98416 0.863723 0
M  V30 10897 C 1033.2 2.33005 -2.45955 0
M  V30 10898 C 1031.75 2.86566 -2.44043 0
M  V30 10899 C 1030.9 1.60526 -2.26112 0
M  V30 10900 H 1033.85 0.496756 -1.50725 0
M  V30 10901 H 1033.87 3.14163 -2.14667 0
M  V30 10902 H 1033.39 1.8346 -3.42 0
M  V30 10903 H 1031.49 3.40304 -1.51737 0
M  V30 10904 H 1031.6 3.37406 -3.40138 0
M  V30 10905 H 1029.96 1.86113 -1.7388 0
M  V30 10906 H 1030.75 1.12985 -3.24175 0
M  V30 10907 N 1033.19 1.2685 0.935242 0
M  V30 10908 C 1034.14 1.08746 2.05614 0
M  V30 10909 C 1035.13 0.012681 1.69395 0
M  V30 10910 O 1036.34 0.169822 1.79197 0
M  V30 10911 H 1032.71 0.33485 0.673335 0
M  V30 10912 H 1034.69 2.03725 2.18033 0
M  V30 10913 C 1033.43 0.74346 3.39659 0
M  V30 10914 H 1032.76 1.56236 3.68008 0
M  V30 10915 H 1034.2 0.656607 4.18885 0
M  V30 10916 C 1032.66 -0.551751 3.32351 0
M  V30 10917 O 1033.19 -1.58836 3.68963 0
M  V30 10918 N 1031.39 -0.544583 2.85452 0
M  V30 10919 H 1030.94 0.29939 2.55854 0
M  V30 10920 H 1030.9 -1.41129 2.80945 0
M  V30 10921 N 1034.67 -1.14067 1.0875 0
M  V30 10922 C 1035.63 -2.17453 0.724341 0
M  V30 10923 C 1036.63 -1.58959 -0.242614 0
M  V30 10924 O 1037.82 -1.74186 -0.0217008 0
M  V30 10925 C 1034.96 -3.40828 0.0700236 0
M  V30 10926 H 1036.15 -2.51094 1.63987 0
M  V30 10927 H 1033.7 -1.28775 0.885813 0
M  V30 10928 H 1034.44 -3.1277 -0.857061 0
M  V30 10929 H 1034.22 -3.84551 0.76569 0
M  V30 10930 H 1035.71 -4.17258 -0.168905 0
M  V30 10931 N 1036.15 -0.873678 -1.31166 0
M  V30 10932 C 1037.1 -0.303699 -2.25968 0
M  V30 10933 C 1038.08 0.561387 -1.50789 0
M  V30 10934 O 1039.27 0.407658 -1.72242 0
M  V30 10935 C 1036.4 0.490612 -3.39776 0
M  V30 10936 C 1035.49 -0.387927 -4.22322 0
M  V30 10937 N 1035.88 -1.48313 -4.83567 0
M  V30 10938 C 1034.18 -0.18102 -4.45632 0
M  V30 10939 C 1034.88 -2.0252 -5.45308 0
M  V30 10940 N 1033.86 -1.32169 -5.27288 0
M  V30 10941 H 1037.66 -1.14071 -2.7086 0
M  V30 10942 H 1035.17 -0.721843 -1.45476 0
M  V30 10943 H 1037.17 0.9155 -4.06724 0
M  V30 10944 H 1035.83 1.32519 -2.96427 0
M  V30 10945 H 1036.84 -1.86604 -4.83114 0
M  V30 10946 H 1033.52 0.617304 -4.12911 0
M  V30 10947 H 1034.91 -2.94429 -6.03955 0
M  V30 10948 N 1037.63 1.44308 -0.633487 0
M  V30 10949 C 1038.87 2.01624 -0.138643 0
M  V30 10950 C 1039.2 1.50101 1.24477 0
M  V30 10951 O 1038.47 0.705575 1.82752 0
M  V30 10952 H 1037.05 0.745439 -0.0482636 0
M  V30 10953 H 1039.71 1.76777 -0.820719 0
M  V30 10954 H 1038.8 3.11913 -0.108136 0
M  V30 10955 N 1039.1 0.374177 1.53094 0
M  V30 10956 C 1040.05 -0.468226 2.26001 0
M  V30 10957 C 1041.02 -1.07041 1.27009 0
M  V30 10958 O 1042.21 -1.10129 1.55809 0
M  V30 10959 C 1039.35 -1.59754 3.05896 0
M  V30 10960 C 1038.46 -1.01969 4.19793 0
M  V30 10961 C 1037.59 -2.11882 4.87113 0
M  V30 10962 C 1036.63 -1.51607 5.93028 0
M  V30 10963 N 1035.77 -2.55388 6.54004 0
M  V30 10964 H 1040.61 0.159983 2.9757 0
M  V30 10965 H 1038.15 0.0907196 1.4682 0
M  V30 10966 H 1040.11 -2.26288 3.50499 0
M  V30 10967 H 1038.74 -2.19628 2.36565 0
M  V30 10968 H 1037.79 -0.244386 3.79614 0
M  V30 10969 H 1039.1 -0.539089 4.95878 0
M  V30 10970 H 1038.25 -2.86218 5.34943 0
M  V30 10971 H 1036.99 -2.63297 4.10519 0
M  V30 10972 H 1036 -0.757891 5.44551 0
M  V30 10973 H 1037.22 -1.01006 6.71546 0
M  V30 10974 H 1035.17 -3.06 5.80258 0
M  V30 10975 H 1035.09 -2.12039 7.25655 0
M  V30 10976 H 1036.35 -3.294 7.06481 0
M  V30 10977 N 1040.58 -1.57259 0.103575 0
M  V30 10978 C 1041.83 -1.93832 -0.55786 0
M  V30 10979 C 1042.14 -0.988087 -1.68808 0
M  V30 10980 O 1043.35 -1.24786 -2.41124 0
M  V30 10981 C 1041.81 -3.44433 -1.04373 0
M  V30 10982 C 1041.41 -4.47963 0.0571971 0
M  V30 10983 C 1043.16 -3.89953 -1.67742 0
M  V30 10984 C 1041.07 -5.89727 -0.444505 0
M  V30 10985 H 1040 -0.723536 -0.212161 0
M  V30 10986 H 1042.65 -1.82606 0.180944 0
M  V30 10987 H 1041.03 -3.50841 -1.83648 0
M  V30 10988 H 1042.2 -4.53209 0.83298 0
M  V30 10989 H 1040.52 -4.12104 0.596588 0
M  V30 10990 H 1043.11 -4.93272 -2.06365 0
M  V30 10991 H 1043.46 -3.2907 -2.54988 0
M  V30 10992 H 1043.99 -3.86281 -0.950342 0
M  V30 10993 H 1040.73 -6.5433 0.391543 0
M  V30 10994 H 1040.25 -5.87935 -1.18711 0
M  V30 10995 H 1041.93 -6.40558 -0.910739 0
M  V30 10996 N 1042.06 0.170153 -1.56679 0
M  V30 10997 C 1043.01 1.21064 -1.965 0
M  V30 10998 C 1043.98 1.43928 -0.829092 0
M  V30 10999 O 1045.16 1.56649 -1.08931 0
M  V30 11000 C 1042.3 2.54468 -2.33109 0
M  V30 11001 C 1041.42 2.38974 -3.59883 0
M  V30 11002 C 1040.55 3.65252 -3.857 0
M  V30 11003 C 1039.59 3.44696 -5.05817 0
M  V30 11004 N 1038.73 4.63047 -5.27761 0
M  V30 11005 H 1043.57 0.864055 -2.85198 0
M  V30 11006 H 1041.1 0.415243 -1.41117 0
M  V30 11007 H 1043.06 3.32222 -2.52358 0
M  V30 11008 H 1041.69 2.8712 -1.4752 0
M  V30 11009 H 1040.74 1.5239 -3.48542 0
M  V30 11010 H 1042.06 2.19731 -4.47794 0
M  V30 11011 H 1041.21 4.51441 -4.05322 0
M  V30 11012 H 1039.95 3.87475 -2.96166 0
M  V30 11013 H 1038.95 2.56893 -4.86092 0
M  V30 11014 H 1040.18 3.23894 -5.96883 0
M  V30 11015 H 1038.12 4.85487 -4.41179 0
M  V30 11016 H 1038.04 4.46722 -6.09898 0
M  V30 11017 H 1039.31 5.50516 -5.51863 0
M  V30 11018 N 1043.54 1.5137 0.438746 0
M  V30 11019 C 1044.5 1.71993 1.51496 0
M  V30 11020 C 1045.5 0.589978 1.49586 0
M  V30 11021 O 1046.69 0.857505 1.51633 0
M  V30 11022 C 1043.82 1.77508 2.91039 0
M  V30 11023 H 1045.02 2.68041 1.34514 0
M  V30 11024 H 1042.57 1.41338 0.667326 0
M  V30 11025 H 1043.3 0.832698 3.13427 0
M  V30 11026 H 1043.09 2.59627 2.9383 0
M  V30 11027 H 1044.58 1.95308 3.69113 0
M  V30 11028 N 1045.02 -0.694098 1.41492 0
M  V30 11029 C 1045.95 -1.81841 1.37873 0
M  V30 11030 C 1046.93 -1.60732 0.245772 0
M  V30 11031 O 1048.11 -1.83461 0.432917 0
M  V30 11032 C 1045.24 -3.18543 1.15099 0
M  V30 11033 C 1044.28 -3.5844 2.31133 0
M  V30 11034 S 1045.12 -3.63079 3.93617 0
M  V30 11035 C 1046.27 -5.02505 3.73148 0
M  V30 11036 H 1046.51 -1.84634 2.33018 0
M  V30 11037 H 1044.04 -0.862948 1.28033 0
M  V30 11038 H 1046 -3.9746 1.02646 0
M  V30 11039 H 1044.66 -3.13358 0.21572 0
M  V30 11040 H 1043.85 -4.57754 2.10896 0
M  V30 11041 H 1043.45 -2.86837 2.40002 0
M  V30 11042 H 1045.75 -5.90046 3.32945 0
M  V30 11043 H 1046.69 -5.27784 4.72069 0
M  V30 11044 H 1047.1 -4.74113 3.06394 0
M  V30 11045 N 1046.49 -1.27344 -0.928501 0
M  V30 11046 C 1047.74 -1.13019 -1.67061 0
M  V30 11047 C 1048.06 0.323614 -1.92904 0
M  V30 11048 O 1049.26 0.587752 -2.65062 0
M  V30 11049 C 1047.72 -1.97471 -3.00887 0
M  V30 11050 C 1047.33 -3.47504 -2.82746 0
M  V30 11051 C 1049.07 -1.91792 -3.78703 0
M  V30 11052 C 1046.98 -4.24158 -4.12122 0
M  V30 11053 H 1045.91 -0.419364 -0.626618 0
M  V30 11054 H 1048.56 -1.51759 -1.03158 0
M  V30 11055 H 1046.94 -1.51576 -3.65843 0
M  V30 11056 H 1048.11 -4.01256 -2.26562 0
M  V30 11057 H 1046.43 -3.54554 -2.18359 0
M  V30 11058 H 1049.03 -2.46339 -4.74575 0
M  V30 11059 H 1049.37 -0.891375 -4.06645 0
M  V30 11060 H 1049.9 -2.35578 -3.20543 0
M  V30 11061 H 1046.64 -5.27333 -3.89359 0
M  V30 11062 H 1046.16 -3.75183 -4.67972 0
M  V30 11063 H 1047.84 -4.33288 -4.80489 0
M  V30 11064 N 1047.97 1.13488 -1.09353 0
M  V30 11065 C 1049.2 1.89133 -0.85108 0
M  V30 11066 C 1049.62 1.78542 0.591976 0
M  V30 11067 O 1048.98 1.13243 1.41583 0
M  V30 11068 C 1049.03 3.36736 -1.29001 0
M  V30 11069 O 1048.13 4.09959 -0.447993 0
M  V30 11070 H 1047.47 0.58809 -0.308296 0
M  V30 11071 H 1050 1.43593 -1.45747 0
M  V30 11072 H 1050.01 3.87564 -1.27508 0
M  V30 11073 H 1048.69 3.43762 -2.34095 0
M  V30 11074 H 1047.27 3.69155 -0.52717 0
M  V30 11075 N 1049.45 0.880621 1.30701 0
M  V30 11076 C 1050.73 0.41712 1.91101 0
M  V30 11077 C 1051.11 -1.10177 1.80067 0
M  V30 11078 O 1050.46 -1.93513 1.21511 0
M  V30 11079 C 1050.67 0.910364 3.36917 0
M  V30 11080 C 1052.01 0.942764 4.14001 0
M  V30 11081 O 1053.04 0.856733 3.45743 0
M  V30 11082 O 1051.9 1.06913 5.3594 0
M  V30 11083 H 1048.99 0.126775 0.817225 0
M  V30 11084 H 1051.54 0.969236 1.39298 0
M  V30 11085 H 1050.31 1.95414 3.39012 0
M  V30 11086 H 1049.93 0.337164 3.96168 0
M  V30 11087 N 1050.93 -1.4397 0.641131 0
M  V30 11088 C 1052.18 -2.01946 0.149629 0
M  V30 11089 C 1052.5 -1.50496 -1.23212 0
M  V30 11090 O 1051.76 -0.683453 -1.83378 0
M  V30 11091 C 1052.06 -3.5727 0.0963368 0
M  V30 11092 C 1051.72 -4.28016 1.4182 0
M  V30 11093 C 1050.39 -4.47059 1.78021 0
M  V30 11094 C 1052.74 -4.68183 2.29028 0
M  V30 11095 C 1050.07 -5.03532 3.01119 0
M  V30 11096 C 1052.42 -5.26019 3.51406 0
M  V30 11097 C 1051.08 -5.4328 3.87818 0
M  V30 11098 H 1050.35 -0.738974 0.0547531 0
M  V30 11099 H 1053 -1.72605 0.829436 0
M  V30 11100 H 1051.3 -3.86083 -0.666879 0
M  V30 11101 H 1053 -3.99871 -0.300635 0
M  V30 11102 H 1049.59 -4.13531 1.12651 0
M  V30 11103 H 1053.78 -4.53175 2.02353 0
M  V30 11104 H 1049.03 -5.15082 3.29395 0
M  V30 11105 H 1053.21 -5.56092 4.19208 0
M  V30 11106 H 1050.83 -5.86805 4.83284 0
M  V30 11107 N 1052.41 -0.382291 -1.52893 0
M  V30 11108 C 1053.66 0.201734 -2.01091 0
M  V30 11109 C 1053.98 1.47905 -1.2708 0
M  V30 11110 O 1053.25 1.92002 -0.38883 0
M  V30 11111 H 1051.83 0.0775373 -0.742965 0
M  V30 11112 H 1054.49 -0.512369 -1.88045 0
M  V30 11113 H 1053.58 0.416919 -3.09303 0
M  V30 11114 N 1053.89 1.57202 -0.111913 0
M  V30 11115 C 1054.82 2.17957 0.837683 0
M  V30 11116 C 1055.8 1.1176 1.28233 0
M  V30 11117 O 1056.98 1.39967 1.34621 0
M  V30 11118 C 1054.11 2.77333 2.09054 0
M  V30 11119 C 1053.07 3.8905 1.78393 0
M  V30 11120 C 1052.39 4.35203 3.10649 0
M  V30 11121 C 1053.69 5.11477 1.05775 0
M  V30 11122 H 1055.39 2.9756 0.331441 0
M  V30 11123 H 1052.93 1.43131 0.157979 0
M  V30 11124 H 1054.88 3.18492 2.75936 0
M  V30 11125 H 1053.61 1.95009 2.6199 0
M  V30 11126 H 1052.27 3.48456 1.13903 0
M  V30 11127 H 1051.92 3.49747 3.61506 0
M  V30 11128 H 1051.62 5.10534 2.9091 0
M  V30 11129 H 1053.14 4.79007 3.78661 0
M  V30 11130 H 1054.55 5.497 1.62798 0
M  V30 11131 H 1052.95 5.92346 0.961573 0
M  V30 11132 H 1054.02 4.84881 0.043297 0
M  V30 11133 N 1055.36 -0.161842 1.56767 0
M  V30 11134 C 1056.6 -0.88331 1.84329 0
M  V30 11135 C 1056.97 -1.79012 0.694165 0
M  V30 11136 O 1058.17 -2.54991 0.850461 0
M  V30 11137 C 1056.44 -1.65 3.17033 0
M  V30 11138 S 1058 -2.41893 3.66106 0
M  V30 11139 H 1054.82 -0.295667 0.646608 0
M  V30 11140 H 1057.42 -0.14429 1.94967 0
M  V30 11141 H 1056.12 -0.975025 3.9865 0
M  V30 11142 H 1055.65 -2.43021 3.09361 0
M  V30 11143 H 1057.67 -3.66788 3.34187 0
M  V30 11144 N 1056.84 -1.516 -0.430713 0
M  V30 11145 C 1057.79 -1.73392 -1.52328 0
M  V30 11146 C 1058.76 -0.575758 -1.55802 0
M  V30 11147 O 1059.94 -0.810931 -1.72709 0
M  V30 11148 C 1057.08 -1.87092 -2.89984 0
M  V30 11149 C 1056.2 -3.14668 -2.95987 0
M  V30 11150 C 1055.33 -3.18923 -4.24807 0
M  V30 11151 C 1054.37 -4.40787 -4.24703 0
M  V30 11152 N 1053.51 -4.42556 -5.45059 0
M  V30 11153 H 1058.35 -2.6665 -1.33048 0
M  V30 11154 H 1055.88 -1.32146 -0.646207 0
M  V30 11155 H 1057.84 -1.93017 -3.69865 0
M  V30 11156 H 1056.47 -0.972363 -3.07807 0
M  V30 11157 H 1055.52 -3.1802 -2.08728 0
M  V30 11158 H 1056.84 -4.04562 -2.91772 0
M  V30 11159 H 1055.99 -3.23801 -5.13067 0
M  V30 11160 H 1054.73 -2.2693 -4.31688 0
M  V30 11161 H 1053.73 -4.36079 -3.34836 0
M  V30 11162 H 1054.96 -5.34053 -4.19481 0
M  V30 11163 H 1052.91 -3.53435 -5.52648 0
M  V30 11164 H 1052.82 -5.26267 -5.42751 0
M  V30 11165 H 1054.09 -4.51634 -6.35332 0
M  V30 11166 N 1058.32 0.686584 -1.41858 0
M  V30 11167 C 1059.27 1.80038 -1.44413 0
M  V30 11168 C 1060.24 1.63415 -0.297427 0
M  V30 11169 O 1061.42 1.84138 -0.499789 0
M  V30 11170 C 1058.56 3.17988 -1.34082 0
M  V30 11171 C 1057.67 3.45979 -2.58693 0
M  V30 11172 C 1056.81 4.73592 -2.4059 0
M  V30 11173 C 1055.85 4.94581 -3.60633 0
M  V30 11174 N 1054.99 6.13426 -3.41545 0
M  V30 11175 H 1059.83 1.77189 -2.396 0
M  V30 11176 H 1057.36 0.865158 -1.18968 0
M  V30 11177 H 1059.32 3.97689 -1.26092 0
M  V30 11178 H 1057.95 3.1999 -0.424975 0
M  V30 11179 H 1057 2.60617 -2.77097 0
M  V30 11180 H 1058.31 3.57386 -3.47961 0
M  V30 11181 H 1057.47 5.61364 -2.30119 0
M  V30 11182 H 1056.21 4.64448 -1.48794 0
M  V30 11183 H 1055.21 4.05254 -3.71549 0
M  V30 11184 H 1056.44 5.05578 -4.53395 0
M  V30 11185 H 1054.38 6.05477 -2.52456 0
M  V30 11186 H 1054.3 6.25641 -4.24393 0
M  V30 11187 H 1055.57 7.03908 -3.34864 0
M  V30 11188 N 1059.8 1.27835 0.921735 0
M  V30 11189 C 1060.73 1.136 2.04003 0
M  V30 11190 C 1061.71 0.0358756 1.70062 0
M  V30 11191 O 1062.89 0.211438 1.93046 0
M  V30 11192 C 1060.02 0.788697 3.38226 0
M  V30 11193 C 1058.98 1.84272 3.863 0
M  V30 11194 C 1058.3 1.34923 5.17397 0
M  V30 11195 C 1059.6 3.24788 4.09035 0
M  V30 11196 H 1061.3 2.07149 2.1617 0
M  V30 11197 H 1058.84 0.997349 1.0387 0
M  V30 11198 H 1060.8 0.675911 4.15944 0
M  V30 11199 H 1059.52 -0.182499 3.2609 0
M  V30 11200 H 1058.18 1.94451 3.1078 0
M  V30 11201 H 1057.83 0.367328 5.01657 0
M  V30 11202 H 1057.53 2.05397 5.50532 0
M  V30 11203 H 1059.05 1.24951 5.97678 0
M  V30 11204 H 1060.47 3.17575 4.77304 0
M  V30 11205 H 1058.86 3.93025 4.53488 0
M  V30 11206 H 1059.93 3.69398 3.14122 0
M  V30 11207 N 1061.28 -1.12907 1.09954 0
M  V30 11208 C 1062.24 -2.16673 0.747364 0
M  V30 11209 C 1063.24 -1.59208 -0.225741 0
M  V30 11210 O 1064.43 -1.742 -0.00322482 0
M  V30 11211 C 1061.56 -3.40735 0.106169 0
M  V30 11212 H 1062.75 -2.49341 1.6664 0
M  V30 11213 H 1060.31 -1.27828 0.899421 0
M  V30 11214 H 1061.04 -3.13661 -0.82384 0
M  V30 11215 H 1060.83 -3.83717 0.806434 0
M  V30 11216 H 1062.32 -4.17414 -0.12464 0
M  V30 11217 N 1062.75 -0.88754 -1.30232 0
M  V30 11218 C 1064 -0.508031 -1.96334 0
M  V30 11219 C 1064.33 0.940905 -1.69884 0
M  V30 11220 O 1063.61 1.66523 -1.005 0
M  V30 11221 C 1063.89 -0.786566 -3.51405 0
M  V30 11222 C 1063.74 -2.28632 -3.8736 0
M  V30 11223 C 1065.06 -0.264803 -4.39303 0
M  V30 11224 H 1062.18 -0.186051 -0.71313 0
M  V30 11225 H 1064.82 -1.112 -1.5406 0
M  V30 11226 H 1062.97 -0.272523 -3.87543 0
M  V30 11227 H 1064.65 -2.86896 -3.61231 0
M  V30 11228 H 1062.89 -2.75194 -3.35337 0
M  V30 11229 H 1063.56 -2.43181 -4.95547 0
M  V30 11230 H 1066.04 -0.704809 -4.10087 0
M  V30 11231 H 1064.91 -0.488998 -5.46717 0
M  V30 11232 H 1065.17 0.834055 -4.34161 0
M  V30 11233 N 1064.23 1.43628 -0.648757 0
M  V30 11234 C 1065.48 2.01465 -0.16002 0
M  V30 11235 C 1065.8 1.51413 1.22878 0
M  V30 11236 O 1065.07 0.724919 1.81994 0
M  V30 11237 H 1063.65 0.744885 -0.0561672 0
M  V30 11238 H 1066.31 1.75897 -0.839422 0
M  V30 11239 H 1065.41 3.1178 -0.141213 0
M  V30 11240 N 1065.71 0.390394 1.52688 0
M  V30 11241 C 1067.13 0.0404028 1.59549 0
M  V30 11242 C 1067.33 -1.44503 1.40432 0
M  V30 11243 O 1066.38 -2.20968 1.22187 0
M  V30 11244 C 1067.7 0.518561 2.96195 0
M  V30 11245 C 1069.24 0.474913 3.09376 0
M  V30 11246 C 1069.72 0.929278 4.48473 0
M  V30 11247 N 1071.21 0.885335 4.5466 0
M  V30 11248 C 1071.94 1.2083 5.60524 0
M  V30 11249 N 1071.44 1.6018 6.74028 0
M  V30 11250 N 1073.23 1.12949 5.50635 0
M  V30 11251 H 1065.38 1.35743 1.63363 0
M  V30 11252 H 1067.65 0.556453 0.767505 0
M  V30 11253 H 1067.35 1.55606 3.15404 0
M  V30 11254 H 1067.23 -0.081779 3.77111 0
M  V30 11255 H 1069.61 -0.553503 2.89863 0
M  V30 11256 H 1069.7 1.11107 2.3041 0
M  V30 11257 H 1069.34 1.95593 4.68728 0
M  V30 11258 H 1069.27 0.270121 5.25907 0
M  V30 11259 H 1071.76 0.595787 3.73174 0
M  V30 11260 H 1072.07 1.83184 7.50775 0
M  V30 11261 H 1070.42 1.64067 6.75357 0
M  V30 11262 H 1073.61 0.821074 4.60843 0
M  V30 11263 H 1073.78 1.3845 6.33037 0
M  V30 11264 N 1067.19 -1.57141 0.120249 0
M  V30 11265 C 1068.14 -2.11936 -0.84067 0
M  V30 11266 C 1069.12 -1.04044 -1.22734 0
M  V30 11267 O 1070.31 -1.30275 -1.19822 0
M  V30 11268 C 1067.44 -2.72332 -2.09023 0
M  V30 11269 C 1066.53 -3.87306 -1.72786 0
M  V30 11270 N 1066.92 -4.94302 -1.07232 0
M  V30 11271 C 1065.22 -3.97513 -2.02236 0
M  V30 11272 C 1065.92 -5.7467 -0.901626 0
M  V30 11273 N 1064.9 -5.24535 -1.42702 0
M  V30 11274 H 1068.7 -2.92038 -0.330308 0
M  V30 11275 H 1066.21 -1.62192 -0.0821814 0
M  V30 11276 H 1068.21 -3.09932 -2.78833 0
M  V30 11277 H 1066.87 -1.93693 -2.60601 0
M  V30 11278 H 1067.88 -5.12641 -0.736158 0
M  V30 11279 H 1064.56 -3.29917 -2.55853 0
M  V30 11280 H 1065.95 -6.70785 -0.386974 0
M  V30 11281 N 1068.67 0.153526 -1.5685 0
M  V30 11282 C 1069.89 0.886343 -1.87507 0
M  V30 11283 C 1070.32 1.74244 -0.708565 0
M  V30 11284 O 1069.67 1.78045 0.341997 0
M  V30 11285 C 1069.72 1.72428 -3.16703 0
M  V30 11286 O 1068.83 2.82784 -3.00178 0
M  V30 11287 H 1068.17 0.247259 -0.616246 0
M  V30 11288 H 1070.7 0.146306 -2.04076 0
M  V30 11289 H 1070.71 2.12062 -3.4856 0
M  V30 11290 H 1069.38 1.09558 -4.01211 0
M  V30 11291 H 1067.96 2.46604 -2.79716 0
M  V30 11292 N 1070.14 1.51827 0.422667 0
M  V30 11293 C 1071.39 1.6522 1.17084 0
M  V30 11294 C 1071.72 0.375508 1.90841 0
M  V30 11295 O 1070.97 -0.641029 1.84903 0
M  V30 11296 C 1071.27 2.81572 2.20119 0
M  V30 11297 C 1070.94 4.20303 1.63268 0
M  V30 11298 C 1069.6 4.5804 1.47488 0
M  V30 11299 C 1071.95 5.06812 1.21618 0
M  V30 11300 C 1069.28 5.79979 0.885531 0
M  V30 11301 C 1071.63 6.29343 0.641071 0
M  V30 11302 C 1070.3 6.65841 0.470286 0
M  V30 11303 H 1069.57 0.604581 0.428442 0
M  V30 11304 H 1072.21 1.85896 0.459874 0
M  V30 11305 H 1070.52 2.55175 2.97309 0
M  V30 11306 H 1072.22 2.89132 2.77856 0
M  V30 11307 H 1068.81 3.90557 1.76531 0
M  V30 11308 H 1072.99 4.78251 1.32624 0
M  V30 11309 H 1068.25 6.06892 0.741105 0
M  V30 11310 H 1072.42 6.9571 0.309888 0
M  V30 11311 H 1070.05 7.60199 0.0115038 0
M  V30 11312 N 1071.62 -0.679052 1.4222 0
M  V30 11313 C 1072.85 -1.47248 1.46058 0
M  V30 11314 C 1073.27 -1.87962 0.0720987 0
M  V30 11315 O 1072.63 -1.5572 -0.928488 0
M  V30 11316 C 1072.68 -2.70067 2.38948 0
M  V30 11317 O 1071.78 -3.68178 1.85791 0
M  V30 11318 H 1071.12 -0.442533 0.495036 0
M  V30 11319 H 1073.65 -0.833263 1.86863 0
M  V30 11320 H 1073.66 -3.18187 2.55385 0
M  V30 11321 H 1072.34 -2.39773 3.39826 0
M  V30 11322 H 1070.92 -3.2719 1.78889 0
M  V30 11323 N 1073.1 -1.28322 -0.914942 0
M  V30 11324 C 1074.52 -1.06003 -1.19313 0
M  V30 11325 C 1074.72 0.198366 -2.00521 0
M  V30 11326 O 1073.77 0.900364 -2.35902 0
M  V30 11327 C 1075.09 -2.30684 -1.92887 0
M  V30 11328 C 1076.63 -2.35851 -2.05775 0
M  V30 11329 C 1077.11 -3.60295 -2.82757 0
M  V30 11330 N 1078.6 -3.60928 -2.9032 0
M  V30 11331 C 1079.33 -4.53894 -3.50383 0
M  V30 11332 N 1078.83 -5.57178 -4.11734 0
M  V30 11333 N 1080.62 -4.41492 -3.4791 0
M  V30 11334 H 1072.77 -2.09104 -0.372735 0
M  V30 11335 H 1075.04 -0.920285 -0.227552 0
M  V30 11336 H 1074.74 -3.22355 -1.40643 0
M  V30 11337 H 1074.62 -2.37003 -2.93444 0
M  V30 11338 H 1077 -1.44678 -2.57201 0
M  V30 11339 H 1077.09 -2.33526 -1.04399 0
M  V30 11340 H 1076.73 -4.51811 -2.32011 0
M  V30 11341 H 1076.66 -3.59873 -3.84446 0
M  V30 11342 H 1079.15 -2.8624 -2.46729 0
M  V30 11343 H 1079.46 -6.24261 -4.55541 0
M  V30 11344 H 1077.81 -5.61005 -4.10242 0
M  V30 11345 H 1081 -3.60005 -2.99189 0
M  V30 11346 H 1081.17 -5.14132 -3.94427 0
M  V30 11347 N 1074.58 1.12322 -1.10551 0
M  V30 11348 C 1075.99 1.35858 -0.837543 0
M  V30 11349 C 1076.19 1.94062 0.54241 0
M  V30 11350 O 1075.25 2.1676 1.29505 0
M  V30 11351 C 1076.56 2.299 -1.9382 0
M  V30 11352 C 1078.11 2.43488 -1.96679 0
M  V30 11353 C 1078.59 3.40846 -3.05922 0
M  V30 11354 N 1080.08 3.48404 -3.05236 0
M  V30 11355 C 1080.81 4.2365 -3.86405 0
M  V30 11356 N 1080.31 5.01951 -4.77512 0
M  V30 11357 N 1082.1 4.19068 -3.74618 0
M  V30 11358 H 1074.25 0.729002 -1.99498 0
M  V30 11359 H 1076.52 0.38339 -0.867016 0
M  V30 11360 H 1076.22 1.94309 -2.9315 0
M  V30 11361 H 1076.1 3.30033 -1.82641 0
M  V30 11362 H 1078.48 2.78359 -0.979813 0
M  V30 11363 H 1078.56 1.43239 -2.11934 0
M  V30 11364 H 1078.21 3.06704 -4.04839 0
M  V30 11365 H 1078.14 4.40927 -2.87907 0
M  V30 11366 H 1080.63 2.92545 -2.39219 0
M  V30 11367 H 1080.94 5.56707 -5.36002 0
M  V30 11368 H 1079.29 5.01143 -4.8154 0
M  V30 11369 H 1082.48 3.5698 -3.02792 0
M  V30 11370 H 1082.65 4.77455 -4.38111 0
M  V30 11371 N 1076.06 0.894434 1.2976 0
M  V30 11372 C 1077.28 0.5322 2.00455 0
M  V30 11373 C 1077.71 -0.874427 1.66539 0
M  V30 11374 O 1077.06 -1.58113 0.887129 0
M  V30 11375 C 1077.11 0.725264 3.53231 0
M  V30 11376 O 1076.22 -0.224612 4.11788 0
M  V30 11377 H 1075.56 0.208562 0.630395 0
M  V30 11378 H 1078.09 1.20458 1.65382 0
M  V30 11379 H 1078.1 0.627889 4.0314 0
M  V30 11380 H 1076.77 1.75079 3.77253 0
M  V30 11381 H 1075.35 -0.0801361 3.72814 0
M  V30 11382 N 1077.53 -1.43282 0.656365 0
M  V30 11383 C 1078.78 -2.01378 0.170702 0
M  V30 11384 C 1079.1 -1.52063 -1.22073 0
M  V30 11385 O 1078.37 -0.73456 -1.81607 0
M  V30 11386 H 1076.95 -0.744577 0.0601168 0
M  V30 11387 H 1079.62 -1.75449 0.848739 0
M  V30 11388 H 1078.71 -3.11701 0.157745 0
M  V30 11389 N 1079.01 -0.398486 -1.52479 0
M  V30 11390 C 1080.26 0.181019 -2.0199 0
M  V30 11391 C 1080.59 1.45691 -1.28405 0
M  V30 11392 O 1079.87 1.90607 -0.387207 0
M  V30 11393 C 1080.15 0.439587 -3.57407 0
M  V30 11394 C 1080 -0.85223 -4.41653 0
M  V30 11395 C 1081.32 1.2263 -4.2267 0
M  V30 11396 H 1078.44 0.0643164 -0.734188 0
M  V30 11397 H 1081.08 -0.52986 -1.82462 0
M  V30 11398 H 1079.23 1.04516 -3.74177 0
M  V30 11399 H 1080.91 -1.48879 -4.36615 0
M  V30 11400 H 1079.15 -1.46555 -4.08294 0
M  V30 11401 H 1079.82 -0.625839 -5.48441 0
M  V30 11402 H 1082.3 0.713722 -4.09933 0
M  V30 11403 H 1081.17 1.37596 -5.31374 0
M  V30 11404 H 1081.43 2.24403 -3.80914 0
M  V30 11405 N 1080.49 1.57075 -0.12858 0
M  V30 11406 C 1081.9 1.82468 0.39526 0
M  V30 11407 C 1082.25 1.0463 1.65973 0
M  V30 11408 O 1081.38 0.285835 2.14504 0
M  V30 11409 C 1081.97 3.30976 0.723889 0
M  V30 11410 C 1080.53 3.57016 1.19232 0
M  V30 11411 C 1079.68 2.76534 0.205907 0
M  V30 11412 H 1082.63 1.54711 -0.353571 0
M  V30 11413 H 1082.65 3.46127 1.58039 0
M  V30 11414 H 1082.16 3.87602 -0.196595 0
M  V30 11415 H 1080.26 3.05758 2.12938 0
M  V30 11416 H 1080.38 4.65558 1.13103 0
M  V30 11417 H 1078.74 2.45038 0.694872 0
M  V30 11418 H 1079.52 3.35923 -0.707842 0
M  V30 11419 N 1081.97 -0.145205 1.5693 0
M  V30 11420 C 1083.22 -0.855822 1.83085 0
M  V30 11421 C 1083.54 -1.81625 0.709747 0
M  V30 11422 O 1082.81 -1.94052 -0.268456 0
M  V30 11423 H 1081.39 -0.319032 0.675446 0
M  V30 11424 H 1084.05 -0.138781 1.94405 0
M  V30 11425 H 1083.15 -1.41698 2.78079 0
M  V30 11426 N 1083.45 -1.52049 -0.414609 0
M  V30 11427 C 1084.68 -1.69679 -1.18392 0
M  V30 11428 C 1085.09 -0.403881 -1.84429 0
M  V30 11429 O 1084.45 0.619636 -1.71659 0
M  V30 11430 C 1084.5 -2.82855 -2.25112 0
M  V30 11431 O 1084.22 -4.07138 -1.61772 0
M  V30 11432 C 1085.72 -3.11948 -3.14965 0
M  V30 11433 H 1082.94 -0.56879 -0.355977 0
M  V30 11434 H 1085.48 -1.9858 -0.488505 0
M  V30 11435 H 1083.64 -2.56488 -2.90332 0
M  V30 11436 H 1084.05 -4.70163 -2.32479 0
M  V30 11437 H 1085.53 -3.94665 -3.85932 0
M  V30 11438 H 1086 -2.25276 -3.77024 0
M  V30 11439 H 1086.61 -3.40059 -2.55421 0
M  V30 11440 N 1084.93 0.6715 -1.42579 0
M  V30 11441 C 1085.84 1.81435 -1.48723 0
M  V30 11442 C 1086.85 1.69895 -0.375716 0
M  V30 11443 O 1088.03 1.91388 -0.627115 0
M  V30 11444 C 1085.09 3.17599 -1.39038 0
M  V30 11445 C 1084.15 3.41071 -2.60709 0
M  V30 11446 C 1083.39 4.7074 -2.51476 0
M  V30 11447 O 1083.61 5.48868 -1.55243 0
M  V30 11448 O 1082.54 4.95528 -3.41666 0
M  V30 11449 H 1086.37 1.79206 -2.45191 0
M  V30 11450 H 1083.95 0.827666 -1.24379 0
M  V30 11451 H 1085.84 3.98847 -1.3601 0
M  V30 11452 H 1084.51 3.20458 -0.456966 0
M  V30 11453 H 1083.42 2.59659 -2.69311 0
M  V30 11454 H 1084.75 3.43045 -3.5296 0
M  V30 11455 N 1086.4 1.28806 0.908124 0
M  V30 11456 C 1087.65 1.16058 1.65454 0
M  V30 11457 C 1087.97 -0.290057 1.92831 0
M  V30 11458 O 1087.24 -1.20001 1.54843 0
M  V30 11459 H 1085.82 0.426522 0.61326 0
M  V30 11460 H 1088.48 1.61614 1.08936 0
M  V30 11461 H 1087.58 1.70437 2.61453 0
M  V30 11462 N 1087.88 -1.11734 1.11145 0
M  V30 11463 C 1089.13 -1.83874 0.86959 0
M  V30 11464 C 1089.48 -1.82859 -0.598363 0
M  V30 11465 O 1088.78 -1.26849 -1.43596 0
M  V30 11466 C 1088.97 -3.3046 1.36129 0
M  V30 11467 C 1088.8 -3.45752 2.87551 0
M  V30 11468 C 1087.57 -3.58956 3.55638 0
M  V30 11469 C 1089.77 -3.40296 3.85621 0
M  V30 11470 N 1087.75 -3.62688 4.95309 0
M  V30 11471 C 1089.12 -3.50611 5.11343 0
M  V30 11472 C 1091.17 -3.23808 3.78223 0
M  V30 11473 C 1089.88 -3.46138 6.3054 0
M  V30 11474 C 1091.9 -3.20651 4.96927 0
M  V30 11475 C 1091.27 -3.31534 6.21502 0
M  V30 11476 H 1087.36 -0.688226 0.371306 0
M  V30 11477 H 1089.95 -1.33715 1.41522 0
M  V30 11478 H 1088.12 -3.79144 0.842885 0
M  V30 11479 H 1089.85 -3.90493 1.0629 0
M  V30 11480 H 1086.61 -3.61387 3.06098 0
M  V30 11481 H 1087.03 -3.68199 5.68118 0
M  V30 11482 H 1091.67 -3.14282 2.8282 0
M  V30 11483 H 1089.39 -3.54433 7.26225 0
M  V30 11484 H 1092.98 -3.09064 4.9292 0
M  V30 11485 H 1091.86 -3.29076 7.11814 0
M  V30 11486 N 1089.36 -0.901303 -1.29284 0
M  V30 11487 C 1090.61 -0.52401 -1.94774 0
M  V30 11488 C 1090.92 0.934645 -1.71825 0
M  V30 11489 O 1092.13 1.41953 -2.31434 0
M  V30 11490 C 1090.58 -0.886262 -3.48817 0
M  V30 11491 C 1090.19 -2.3638 -3.80564 0
M  V30 11492 C 1091.94 -0.578955 -4.20533 0
M  V30 11493 C 1089.84 -2.66682 -5.27858 0
M  V30 11494 H 1088.77 -0.192244 -0.72908 0
M  V30 11495 H 1091.42 -1.09852 -1.46986 0
M  V30 11496 H 1089.81 -0.240666 -3.95268 0
M  V30 11497 H 1090.98 -3.05508 -3.44966 0
M  V30 11498 H 1089.29 -2.64029 -3.2199 0
M  V30 11499 H 1091.89 -0.782185 -5.28948 0
M  V30 11500 H 1092.23 0.482605 -4.13493 0
M  V30 11501 H 1092.77 -1.18246 -3.79819 0
M  V30 11502 H 1089.51 -3.71643 -5.39965 0
M  V30 11503 H 1089.03 -2.02179 -5.64698 0
M  V30 11504 H 1090.71 -2.53033 -5.95469 0
M  V30 11505 N 1090.84 1.42931 -0.663954 0
M  V30 11506 C 1091.8 2.29197 0.0117626 0
M  V30 11507 C 1092.8 1.42767 0.739875 0
M  V30 11508 O 1093.99 1.64278 0.579509 0
M  V30 11509 C 1091.12 3.2505 1.02738 0
M  V30 11510 H 1092.32 2.90438 -0.747391 0
M  V30 11511 H 1089.87 1.5039 -0.425733 0
M  V30 11512 H 1090.6 2.68726 1.8154 0
M  V30 11513 H 1090.39 3.88785 0.508809 0
M  V30 11514 H 1091.88 3.89771 1.49893 0
M  V30 11515 N 1092.32 0.406567 1.52266 0
M  V30 11516 C 1093.73 -0.063607 1.86592 0
M  V30 11517 C 1094.08 -1.4466 1.32544 0
M  V30 11518 O 1093.2 -2.05971 0.663692 0
M  V30 11519 C 1093.8 -0.122198 3.3858 0
M  V30 11520 C 1092.36 -0.536701 3.72554 0
M  V30 11521 C 1091.5 0.290422 2.75775 0
M  V30 11522 H 1094.45 0.623738 1.45929 0
M  V30 11523 H 1094.48 -0.937964 3.68758 0
M  V30 11524 H 1093.99 0.884495 3.77887 0
M  V30 11525 H 1092.09 -1.55013 3.38824 0
M  V30 11526 H 1092.2 -0.282867 4.78264 0
M  V30 11527 H 1090.57 -0.246864 2.53501 0
M  V30 11528 H 1091.35 1.29541 3.17921 0
M  V30 11529 N 1093.79 -1.57004 0.136909 0
M  V30 11530 C 1094.7 -2.19807 -0.819887 0
M  V30 11531 C 1095.72 -1.17939 -1.27932 0
M  V30 11532 O 1096.9 -1.50478 -1.3386 0
M  V30 11533 C 1093.96 -2.79935 -2.04542 0
M  V30 11534 C 1093.02 -3.96897 -1.6362 0
M  V30 11535 C 1092.26 -4.54148 -2.80331 0
M  V30 11536 O 1092.48 -4.10282 -3.96264 0
M  V30 11537 O 1091.41 -5.44565 -2.56384 0
M  V30 11538 H 1095.24 -3.02058 -0.315337 0
M  V30 11539 H 1092.82 -1.49131 -0.0896151 0
M  V30 11540 H 1094.71 -3.18191 -2.76283 0
M  V30 11541 H 1093.38 -2.00703 -2.53969 0
M  V30 11542 H 1092.29 -3.63376 -0.889316 0
M  V30 11543 H 1093.62 -4.77618 -1.18918 0
M  V30 11544 N 1095.27 0.136881 -1.57004 0
M  V30 11545 C 1096.21 1.19853 -1.94192 0
M  V30 11546 C 1097.18 1.4104 -0.809103 0
M  V30 11547 O 1098.37 1.55487 -1.06565 0
M  V30 11548 C 1095.49 2.55565 -2.22271 0
M  V30 11549 C 1094.54 2.50913 -3.44884 0
M  V30 11550 S 1095.37 1.96619 -4.98098 0
M  V30 11551 C 1096.53 3.34039 -5.2931 0
M  V30 11552 H 1096.76 0.881316 -2.83937 0
M  V30 11553 H 1094.3 0.342915 -1.50544 0
M  V30 11554 H 1096.25 3.33659 -2.39127 0
M  V30 11555 H 1094.91 2.84472 -1.33172 0
M  V30 11556 H 1094.11 3.50839 -3.6184 0
M  V30 11557 H 1093.71 1.80932 -3.27322 0
M  V30 11558 H 1096 4.30189 -5.23397 0
M  V30 11559 H 1096.94 3.21927 -6.30689 0
M  V30 11560 H 1097.35 3.31642 -4.56808 0
M  V30 11561 N 1096.75 1.52266 0.40654 0
M  V30 11562 C 1097.68 1.78755 1.50229 0
M  V30 11563 C 1098.66 0.638652 1.57655 0
M  V30 11564 O 1099.85 0.884505 1.72888 0
M  V30 11565 C 1096.98 1.94057 2.88026 0
M  V30 11566 C 1095.93 3.09667 2.95449 0
M  V30 11567 C 1095.26 3.10196 4.35526 0
M  V30 11568 C 1096.56 4.49077 2.66697 0
M  V30 11569 H 1098.25 2.70511 1.28313 0
M  V30 11570 H 1095.8 1.30167 0.615836 0
M  V30 11571 H 1097.75 2.11171 3.64671 0
M  V30 11572 H 1096.47 0.989755 3.11242 0
M  V30 11573 H 1095.13 2.92308 2.2125 0
M  V30 11574 H 1094.78 2.12831 4.55754 0
M  V30 11575 H 1094.48 3.87847 4.41416 0
M  V30 11576 H 1096 3.29443 5.14101 0
M  V30 11577 H 1097.42 4.66628 3.33064 0
M  V30 11578 H 1095.82 5.28665 2.8396 0
M  V30 11579 H 1096.89 4.56995 1.62122 0
M  V30 11580 N 1098.23 -0.663929 1.42933 0
M  V30 11581 C 1099.45 -1.45691 1.47611 0
M  V30 11582 C 1099.88 -1.87875 0.0920305 0
M  V30 11583 O 1099.24 -1.56696 -0.91192 0
M  V30 11584 C 1099.28 -2.67517 2.41799 0
M  V30 11585 O 1098.39 -3.66187 1.89686 0
M  V30 11586 H 1097.73 -0.437257 0.499702 0
M  V30 11587 H 1100.26 -0.813397 1.87737 0
M  V30 11588 H 1100.27 -3.1546 2.58745 0
M  V30 11589 H 1098.94 -2.36155 3.4235 0
M  V30 11590 H 1097.52 -3.25274 1.82349 0
M  V30 11591 N 1099.71 -1.29285 -0.901281 0
M  V30 11592 C 1100.62 -1.16161 -2.03823 0
M  V30 11593 C 1101.63 -0.0852298 -1.73791 0
M  V30 11594 O 1102.81 -0.29699 -1.99198 0
M  V30 11595 C 1099.87 -0.837586 -3.3643 0
M  V30 11596 C 1098.93 -1.99764 -3.7999 0
M  V30 11597 C 1098.17 -1.68898 -5.0627 0
M  V30 11598 O 1098.39 -0.609177 -5.67138 0
M  V30 11599 O 1097.32 -2.53648 -5.45845 0
M  V30 11600 H 1101.15 -2.11635 -2.17817 0
M  V30 11601 H 1098.74 -1.08722 -1.02468 0
M  V30 11602 H 1100.62 -0.671376 -4.16017 0
M  V30 11603 H 1099.29 0.0873811 -3.23582 0
M  V30 11604 H 1098.2 -2.21908 -3.01177 0
M  V30 11605 H 1099.53 -2.90376 -3.9742 0
M  V30 11606 N 1101.18 1.11143 -1.11736 0
M  V30 11607 C 1102.46 1.79384 -0.779785 0
M  V30 11608 C 1102.84 1.98015 0.731668 0
M  V30 11609 O 1102.19 1.56731 1.66276 0
M  V30 11610 C 1102.4 3.12868 -1.54643 0
M  V30 11611 C 1103.75 3.8786 -1.7277 0
M  V30 11612 O 1104.77 3.22566 -1.51094 0
M  V30 11613 O 1103.63 5.05034 -2.08813 0
M  V30 11614 H 1100.72 0.777128 -0.282845 0
M  V30 11615 H 1103.27 1.17858 -1.22096 0
M  V30 11616 H 1102.04 2.94682 -2.57446 0
M  V30 11617 H 1101.67 3.82109 -1.09901 0
M  V30 11618 N 1102.66 0.908147 1.28804 0
M  V30 11619 C 1103.9 0.545425 1.96989 0
M  V30 11620 C 1104.27 -0.893226 1.69957 0
M  V30 11621 O 1105.47 -1.36324 2.31666 0
M  V30 11622 C 1103.74 0.83953 3.474 0
M  V30 11623 S 1105.3 0.582385 4.34918 0
M  V30 11624 H 1102.12 0.202027 0.681693 0
M  V30 11625 H 1104.72 1.1724 1.56445 0
M  V30 11626 H 1103.42 1.88463 3.64568 0
M  V30 11627 H 1102.95 0.200999 3.92886 0
M  V30 11628 H 1104.97 -0.568807 4.92929 0
M  V30 11629 N 1104.14 -1.42577 0.671525 0
M  V30 11630 C 1105.09 -2.30798 -0.00883676 0
M  V30 11631 C 1106.06 -1.4578 -0.796076 0
M  V30 11632 O 1107.24 -1.74617 -0.768987 0
M  V30 11633 C 1104.38 -3.31581 -0.956452 0
M  V30 11634 C 1103.5 -4.31691 -0.163381 0
M  V30 11635 C 1102.63 -5.19549 -1.10645 0
M  V30 11636 C 1101.67 -6.1134 -0.304876 0
M  V30 11637 N 1100.81 -6.91761 -1.20048 0
M  V30 11638 H 1105.65 -2.88426 0.749301 0
M  V30 11639 H 1103.18 -1.42074 0.381251 0
M  V30 11640 H 1105.14 -3.88539 -1.51966 0
M  V30 11641 H 1103.77 -2.75561 -1.68126 0
M  V30 11642 H 1102.82 -3.76879 0.516396 0
M  V30 11643 H 1104.14 -4.96683 0.459099 0
M  V30 11644 H 1103.29 -5.81223 -1.73969 0
M  V30 11645 H 1102.03 -4.54726 -1.76282 0
M  V30 11646 H 1101.03 -5.48738 0.341597 0
M  V30 11647 H 1102.26 -6.78211 0.347352 0
M  V30 11648 H 1100.2 -6.2957 -1.84331 0
M  V30 11649 H 1100.12 -7.53345 -0.633003 0
M  V30 11650 H 1101.39 -7.57924 -1.82129 0
M  V30 11651 N 1105.62 -0.414636 -1.52048 0
M  V30 11652 C 1106.53 0.414861 -2.30903 0
M  V30 11653 C 1107.54 1.04855 -1.38858 0
M  V30 11654 O 1108.72 1.04886 -1.71933 0
M  V30 11655 C 1105.79 1.51356 -3.11917 0
M  V30 11656 C 1104.85 0.902359 -4.19709 0
M  V30 11657 C 1104.08 1.9487 -4.96852 0
M  V30 11658 O 1104.3 3.16766 -4.74358 0
M  V30 11659 O 1103.24 1.55186 -5.8155 0
M  V30 11660 H 1107.06 -0.228251 -3.02841 0
M  V30 11661 H 1104.65 -0.177704 -1.48339 0
M  V30 11662 H 1106.53 2.15127 -3.62351 0
M  V30 11663 H 1105.2 2.14117 -2.42767 0
M  V30 11664 H 1104.11 0.22721 -3.73409 0
M  V30 11665 H 1105.44 0.318587 -4.91168 0
M  V30 11666 N 1107.1 1.56929 -0.145233 0
M  V30 11667 C 1108.04 2.17958 0.812237 0
M  V30 11668 C 1109.04 1.13608 1.25657 0
M  V30 11669 O 1110.24 1.31861 1.22526 0
M  V30 11670 H 1106.62 0.697876 0.28013 0
M  V30 11671 H 1108.59 2.97146 0.273297 0
M  V30 11672 C 1107.34 2.81418 2.04203 0
M  V30 11673 H 1106.66 3.61427 1.70911 0
M  V30 11674 H 1108.1 3.27624 2.69144 0
M  V30 11675 C 1106.56 1.79835 2.84888 0
M  V30 11676 O 1107.09 1.26773 3.81171 0
M  V30 11677 N 1105.3 1.49179 2.49387 0
M  V30 11678 H 1104.84 1.9252 1.71154 0
M  V30 11679 H 1104.8 0.81458 3.03664 0
M  V30 11680 N 1108.58 -0.128553 1.57075 0
M  V30 11681 C 1109.99 -0.686713 1.73612 0
M  V30 11682 C 1110.34 -1.80778 0.762478 0
M  V30 11683 O 1109.46 -2.16297 -0.0667779 0
M  V30 11684 C 1110.06 -1.25246 3.148 0
M  V30 11685 C 1108.62 -1.757 3.32876 0
M  V30 11686 C 1107.76 -0.652844 2.69506 0
M  V30 11687 H 1110.71 0.0972859 1.58402 0
M  V30 11688 H 1110.74 -2.1222 3.15821 0
M  V30 11689 H 1110.25 -0.436308 3.8564 0
M  V30 11690 H 1108.35 -2.59824 2.67063 0
M  V30 11691 H 1108.46 -1.87302 4.4097 0
M  V30 11692 H 1106.83 -1.08408 2.30477 0
M  V30 11693 H 1107.61 0.15217 3.42963 0
M  V30 11694 N 1110.05 -1.5248 -0.398459 0
M  V30 11695 C 1111.28 -1.70925 -1.16586 0
M  V30 11696 C 1111.7 -0.42342 -1.83991 0
M  V30 11697 O 1111.05 0.601395 -1.72306 0
M  V30 11698 C 1111.1 -2.85226 -2.22099 0
M  V30 11699 O 1110.83 -4.08831 -1.57444 0
M  V30 11700 C 1112.33 -3.15272 -3.11639 0
M  V30 11701 H 1109.55 -0.572533 -0.349924 0
M  V30 11702 H 1112.09 -1.99087 -0.467416 0
M  V30 11703 H 1110.25 -2.59553 -2.87595 0
M  V30 11704 H 1110.66 -4.72603 -2.2748 0
M  V30 11705 H 1112.13 -3.98737 -3.81724 0
M  V30 11706 H 1112.61 -2.29262 -3.74614 0
M  V30 11707 H 1113.22 -3.42749 -2.518 0
M  V30 11708 N 1111.53 0.65634 -1.43283 0
M  V30 11709 C 1112.76 1.44199 -1.47954 0
M  V30 11710 C 1113.17 1.88961 -0.0950315 0
M  V30 11711 O 1112.51 1.59895 0.904388 0
M  V30 11712 C 1112.57 2.71161 -2.36033 0
M  V30 11713 C 1112.24 2.48359 -3.83623 0
M  V30 11714 C 1113.24 2.1178 -4.74811 0
M  V30 11715 C 1110.92 2.6278 -4.28079 0
M  V30 11716 C 1112.91 1.89915 -6.0845 0
M  V30 11717 C 1110.6 2.4053 -5.61772 0
M  V30 11718 C 1111.6 2.04154 -6.51775 0
M  V30 11719 O 1111.29 1.82134 -7.82996 0
M  V30 11720 H 1111.02 0.449567 -0.504842 0
M  V30 11721 H 1113.57 0.812234 -1.88658 0
M  V30 11722 H 1111.8 3.36685 -1.9021 0
M  V30 11723 H 1113.49 3.33102 -2.31944 0
M  V30 11724 H 1114.26 2.00217 -4.41744 0
M  V30 11725 H 1110.14 2.9007 -3.58302 0
M  V30 11726 H 1113.68 1.61445 -6.78661 0
M  V30 11727 H 1109.58 2.51695 -5.94407 0
M  V30 11728 H 1110.35 1.96584 -7.94542 0
M  V30 11729 N 1113.01 1.29761 0.894412 0
M  V30 11730 C 1114.24 1.2094 1.67872 0
M  V30 11731 C 1114.65 -0.229192 1.87404 0
M  V30 11732 O 1114.01 -1.15278 1.41482 0
M  V30 11733 C 1114.06 1.92424 3.06032 0
M  V30 11734 O 1113.78 3.30665 2.87388 0
M  V30 11735 C 1115.28 1.90144 4.0045 0
M  V30 11736 H 1112.5 0.418942 0.524145 0
M  V30 11737 H 1115.05 1.71226 1.11813 0
M  V30 11738 H 1113.2 1.4596 3.58851 0
M  V30 11739 H 1113.62 3.66741 3.74969 0
M  V30 11740 H 1115.09 2.44716 4.94791 0
M  V30 11741 H 1115.57 0.878175 4.30331 0
M  V30 11742 H 1116.17 2.36375 3.53563 0
M  V30 11743 N 1114.49 -1.10549 1.12324 0
M  V30 11744 C 1115.73 -1.82755 0.879117 0
M  V30 11745 C 1116.07 -1.84905 -0.593604 0
M  V30 11746 O 1115.34 -1.30884 -1.43873 0
M  V30 11747 C 1115.62 -3.29481 1.45308 0
M  V30 11748 C 1115.48 -3.3567 2.99408 0
M  V30 11749 C 1116.8 -4.25828 1.11167 0
M  V30 11750 H 1113.92 -0.663513 0.32081 0
M  V30 11751 H 1116.56 -1.29572 1.38965 0
M  V30 11752 H 1114.71 -3.74902 1.01887 0
M  V30 11753 H 1116.38 -2.98739 3.515 0
M  V30 11754 H 1114.62 -2.75606 3.34998 0
M  V30 11755 H 1115.29 -4.38983 3.34661 0
M  V30 11756 H 1117.77 -3.88635 1.48667 0
M  V30 11757 H 1116.65 -5.26857 1.53991 0
M  V30 11758 H 1116.91 -4.42094 0.0237046 0
M  V30 11759 N 1115.97 -0.914965 -1.28321 0
M  V30 11760 C 1117.24 -0.46764 -1.89928 0
M  V30 11761 C 1117.62 1.05364 -1.82925 0
M  V30 11762 O 1116.97 1.90223 -1.26599 0
M  V30 11763 C 1117.18 -0.999372 -3.34385 0
M  V30 11764 C 1118.53 -1.0522 -4.11356 0
M  V30 11765 O 1119.55 -0.9481 -3.4335 0
M  V30 11766 O 1118.41 -1.21085 -5.32917 0
M  V30 11767 H 1115.51 -0.148398 -0.813577 0
M  V30 11768 H 1118.05 -1.00583 -1.36679 0
M  V30 11769 H 1116.82 -2.04333 -3.33712 0
M  V30 11770 H 1116.45 -0.442083 -3.95135 0
M  V30 11771 N 1117.44 1.42219 -0.679077 0
M  V30 11772 C 1118.69 2.00703 -0.200309 0
M  V30 11773 C 1119.01 1.54339 1.20161 0
M  V30 11774 O 1120.21 2.0527 1.77698 0
M  V30 11775 C 1118.67 3.58586 -0.307248 0
M  V30 11776 C 1118.28 4.13937 -1.71349 0
M  V30 11777 C 1120.02 4.24351 0.112588 0
M  V30 11778 C 1117.93 5.64198 -1.77297 0
M  V30 11779 H 1116.86 0.750638 -0.0711279 0
M  V30 11780 H 1119.51 1.62893 -0.844881 0
M  V30 11781 H 1117.89 3.93921 0.40529 0
M  V30 11782 H 1119.06 3.90054 -2.45346 0
M  V30 11783 H 1117.38 3.60639 -2.08155 0
M  V30 11784 H 1119.98 5.34627 0.0883578 0
M  V30 11785 H 1120.32 4.00142 1.14857 0
M  V30 11786 H 1120.85 3.93992 -0.549093 0
M  V30 11787 H 1117.59 5.93211 -2.78892 0
M  V30 11788 H 1117.11 5.90058 -1.07662 0
M  V30 11789 H 1118.79 6.2869 -1.52835 0
M  V30 11790 N 1118.92 0.422693 1.51826 0
M  V30 11791 C 1120.17 -0.148641 2.01954 0
M  V30 11792 C 1120.5 -1.43982 1.30765 0
M  V30 11793 O 1119.75 -1.91428 0.406668 0
M  V30 11794 C 1120.05 -0.429516 3.5481 0
M  V30 11795 C 1119.72 0.774088 4.44206 0
M  V30 11796 C 1118.38 1.1042 4.6836 0
M  V30 11797 C 1120.73 1.5777 4.96747 0
M  V30 11798 C 1118.06 2.23887 5.42302 0
M  V30 11799 C 1120.41 2.70325 5.71933 0
M  V30 11800 C 1119.07 3.03807 5.94355 0
M  V30 11801 H 1118.34 -0.0543917 0.739001 0
M  V30 11802 H 1120.99 0.566892 1.82917 0
M  V30 11803 H 1119.3 -1.22678 3.72099 0
M  V30 11804 H 1120.99 -0.884761 3.91118 0
M  V30 11805 H 1117.58 0.506834 4.25593 0
M  V30 11806 H 1121.77 1.33589 4.77983 0
M  V30 11807 H 1117.02 2.50159 5.5788 0
M  V30 11808 H 1121.2 3.32974 6.11638 0
M  V30 11809 H 1118.82 3.91844 6.51431 0
M  V30 11810 N 1120.4 -1.5685 0.153553 0
M  V30 11811 C 1121.62 -2.01135 -0.505904 0
M  V30 11812 C 1122.05 -1.03301 -1.57196 0
M  V30 11813 O 1121.41 -0.00976022 -1.81297 0
M  V30 11814 C 1121.46 -3.44129 -1.0774 0
M  V30 11815 O 1120.56 -3.49318 -2.19205 0
M  V30 11816 H 1119.9 -0.652496 -0.123062 0
M  V30 11817 H 1122.43 -2.03039 0.252216 0
M  V30 11818 H 1122.44 -3.83066 -1.40444 0
M  V30 11819 H 1121.12 -4.1484 -0.296754 0
M  V30 11820 H 1119.69 -3.22227 -1.8768 0
M  V30 11821 N 1121.88 0.120221 -1.57141 0
M  V30 11822 C 1122.84 1.13159 -1.99318 0
M  V30 11823 C 1123.84 1.34376 -0.883158 0
M  V30 11824 O 1125.03 1.30914 -1.14922 0
M  V30 11825 C 1122.16 2.48632 -2.33227 0
M  V30 11826 H 1123.36 0.769119 -2.8987 0
M  V30 11827 H 1120.91 0.364475 -1.51991 0
M  V30 11828 H 1121.64 2.89802 -1.45551 0
M  V30 11829 H 1121.43 2.34587 -3.14184 0
M  V30 11830 H 1122.92 3.21423 -2.66603 0
M  V30 11831 N 1123.36 1.52689 0.390367 0
M  V30 11832 C 1124.6 1.67335 1.13329 0
M  V30 11833 C 1124.93 0.415068 1.90531 0
M  V30 11834 O 1124.2 -0.570504 1.87409 0
M  V30 11835 H 1122.78 0.616821 0.421356 0
M  V30 11836 H 1125.44 1.89799 0.443 0
M  V30 11837 H 1124.53 2.52314 1.83696 0
M  V30 11838 N 1124.83 -0.648732 1.43629 0
M  V30 11839 C 1126.07 -1.42032 1.46991 0
M  V30 11840 C 1126.44 -1.91774 0.0931841 0
M  V30 11841 O 1127.64 -2.688 0.00148504 0
M  V30 11842 C 1125.91 -2.56693 2.48684 0
M  V30 11843 S 1127.47 -3.45149 2.70956 0
M  V30 11844 H 1124.29 -0.484772 0.520113 0
M  V30 11845 H 1126.89 -0.75274 1.80427 0
M  V30 11846 H 1125.59 -2.18431 3.47442 0
M  V30 11847 H 1125.12 -3.28296 2.1676 0
M  V30 11848 H 1127.14 -4.53569 2.01221 0
M  V30 11849 N 1126.31 -1.30234 -0.887518 0
M  V30 11850 C 1127.56 -1.19086 -1.64153 0
M  V30 11851 C 1127.89 0.254428 -1.92526 0
M  V30 11852 O 1127.17 1.18233 -1.54438 0
M  V30 11853 C 1127.45 -2.01723 -2.98295 0
M  V30 11854 C 1127.3 -3.54458 -2.76911 0
M  V30 11855 C 1128.62 -1.85307 -3.99186 0
M  V30 11856 H 1125.74 -0.433967 -0.595686 0
M  V30 11857 H 1128.38 -1.59839 -1.0272 0
M  V30 11858 H 1126.53 -1.67096 -3.5073 0
M  V30 11859 H 1128.2 -3.99131 -2.31284 0
M  V30 11860 H 1126.45 -3.78768 -2.11464 0
M  V30 11861 H 1127.12 -4.07565 -3.72283 0
M  V30 11862 H 1129.59 -2.15575 -3.55903 0
M  V30 11863 H 1128.47 -2.45456 -4.90961 0
M  V30 11864 H 1128.73 -0.811528 -4.34588 0
M  V30 11865 N 1127.79 1.09952 -1.12909 0
M  V30 11866 C 1129.04 1.82016 -0.887482 0
M  V30 11867 C 1129.37 1.85445 0.586546 0
M  V30 11868 O 1128.62 1.31446 1.44984 0
M  V30 11869 C 1128.92 3.28252 -1.41369 0
M  V30 11870 C 1128.59 3.44965 -2.90362 0
M  V30 11871 C 1127.25 3.49233 -3.31043 0
M  V30 11872 C 1129.6 3.49947 -3.86247 0
M  V30 11873 C 1126.93 3.56057 -4.66305 0
M  V30 11874 C 1129.28 3.58305 -5.21345 0
M  V30 11875 C 1127.94 3.6084 -5.61561 0
M  V30 11876 H 1127.21 0.666046 -0.324753 0
M  V30 11877 H 1129.86 1.29568 -1.41012 0
M  V30 11878 H 1128.17 3.83301 -0.81163 0
M  V30 11879 H 1129.86 3.82533 -1.20289 0
M  V30 11880 H 1126.45 3.42323 -2.57901 0
M  V30 11881 H 1130.64 3.45895 -3.55908 0
M  V30 11882 H 1125.89 3.56305 -4.96847 0
M  V30 11883 H 1130.07 3.61104 -5.95463 0
M  V30 11884 H 1127.69 3.6588 -6.6636 0
M  V30 11885 N 1129.27 0.921757 1.27833 0
M  V30 11886 C 1130.5 0.574368 1.98455 0
M  V30 11887 C 1130.91 -0.850577 1.69002 0
M  V30 11888 O 1130.25 -1.57607 0.943708 0
M  V30 11889 C 1130.31 0.713235 3.52354 0
M  V30 11890 C 1129.98 2.1092 4.05415 0
M  V30 11891 C 1130.97 3.08276 4.18643 0
M  V30 11892 C 1128.66 2.42454 4.3991 0
M  V30 11893 C 1130.65 4.35279 4.6563 0
M  V30 11894 C 1128.34 3.69694 4.8659 0
M  V30 11895 C 1129.34 4.6592 4.99407 0
M  V30 11896 O 1129.02 5.90896 5.45066 0
M  V30 11897 H 1128.76 0.216955 0.640239 0
M  V30 11898 H 1131.31 1.23932 1.63798 0
M  V30 11899 H 1129.54 -0.00881115 3.86699 0
M  V30 11900 H 1131.23 0.371776 4.04194 0
M  V30 11901 H 1132 2.85234 3.92258 0
M  V30 11902 H 1127.87 1.68303 4.2918 0
M  V30 11903 H 1131.42 5.10391 4.75549 0
M  V30 11904 H 1127.32 3.92557 5.12415 0
M  V30 11905 H 1128.08 5.938 5.63333 0
M  V30 11906 N 1130.75 -1.41857 0.686609 0
M  V30 11907 C 1131.98 -2.05401 0.222238 0
M  V30 11908 C 1132.38 -1.51731 -1.13023 0
M  V30 11909 O 1131.73 -0.656701 -1.71561 0
M  V30 11910 C 1131.79 -3.59381 0.0926608 0
M  V30 11911 C 1131.45 -4.35801 1.37573 0
M  V30 11912 C 1132.45 -4.65678 2.31171 0
M  V30 11913 C 1130.14 -4.75233 1.62661 0
M  V30 11914 C 1132.13 -5.33936 3.48125 0
M  V30 11915 C 1129.82 -5.43229 2.79902 0
M  V30 11916 C 1130.81 -5.72507 3.72458 0
M  V30 11917 O 1130.5 -6.39106 4.87646 0
M  V30 11918 H 1130.23 -0.668126 0.102876 0
M  V30 11919 H 1132.79 -1.82775 0.93714 0
M  V30 11920 H 1131.02 -3.80711 -0.67793 0
M  V30 11921 H 1132.71 -4.04529 -0.333364 0
M  V30 11922 H 1133.47 -4.35704 2.13042 0
M  V30 11923 H 1129.35 -4.51831 0.914862 0
M  V30 11924 H 1132.9 -5.56706 4.20386 0
M  V30 11925 H 1128.79 -5.72621 2.97951 0
M  V30 11926 H 1129.56 -6.576 4.87344 0
M  V30 11927 N 1132.22 -0.430739 -1.51599 0
M  V30 11928 C 1133.47 0.138133 -2.02329 0
M  V30 11929 C 1133.8 1.42934 -1.31466 0
M  V30 11930 O 1133.08 1.89743 -0.427551 0
M  V30 11931 C 1133.36 0.363677 -3.58259 0
M  V30 11932 C 1133.21 -0.94572 -4.39746 0
M  V30 11933 C 1134.53 1.13637 -4.25176 0
M  V30 11934 H 1131.65 0.0487287 -0.735387 0
M  V30 11935 H 1134.29 -0.568444 -1.81297 0
M  V30 11936 H 1132.44 0.965552 -3.7631 0
M  V30 11937 H 1134.12 -1.58107 -4.33359 0
M  V30 11938 H 1132.36 -1.55183 -4.05094 0
M  V30 11939 H 1133.03 -0.742031 -5.4699 0
M  V30 11940 H 1135.51 0.626608 -4.11355 0
M  V30 11941 H 1134.38 1.26294 -5.34173 0
M  V30 11942 H 1134.64 2.16273 -3.85588 0
M  V30 11943 N 1133.7 1.56767 -0.161869 0
M  V30 11944 C 1134.95 1.95769 0.485536 0
M  V30 11945 C 1135.26 1.05006 1.65025 0
M  V30 11946 O 1136.47 1.33649 2.36326 0
M  V30 11947 C 1134.93 3.4807 0.915176 0
M  V30 11948 C 1134.53 4.47443 -0.223416 0
M  V30 11949 C 1136.28 3.95909 1.53153 0
M  V30 11950 C 1134.19 5.90971 0.225325 0
M  V30 11951 H 1133.12 0.730911 0.185161 0
M  V30 11952 H 1135.77 1.81808 -0.248592 0
M  V30 11953 H 1134.15 3.57415 1.705 0
M  V30 11954 H 1135.32 4.49805 -1.00061 0
M  V30 11955 H 1133.64 4.09606 -0.749127 0
M  V30 11956 H 1136.23 5.00592 1.87915 0
M  V30 11957 H 1136.58 3.38307 2.42599 0
M  V30 11958 H 1137.11 3.89542 0.806322 0
M  V30 11959 H 1133.85 6.52426 -0.634124 0
M  V30 11960 H 1133.37 5.91936 0.96808 0
M  V30 11961 H 1135.05 6.43497 0.672373 0
M  V30 11962 N 1135.18 -0.111886 1.57202 0
M  V30 11963 C 1136.41 -0.836317 1.89791 0
M  V30 11964 C 1136.83 -1.72304 0.754513 0
M  V30 11965 O 1136.19 -1.78889 -0.294672 0
M  V30 11966 C 1136.24 -1.63971 3.21164 0
M  V30 11967 O 1135.34 -2.74726 3.0757 0
M  V30 11968 H 1134.68 -0.230833 0.622585 0
M  V30 11969 H 1137.21 -0.0921478 2.04392 0
M  V30 11970 H 1137.22 -2.02746 3.54059 0
M  V30 11971 H 1135.9 -0.98882 4.03974 0
M  V30 11972 H 1134.47 -2.39101 2.86156 0
M  V30 11973 N 1136.66 -1.52894 -0.382264 0
M  V30 11974 C 1137.57 -1.81084 -1.4915 0
M  V30 11975 C 1138.58 -0.698045 -1.59384 0
M  V30 11976 O 1139.76 -0.98635 -1.75594 0
M  V30 11977 C 1136.83 -1.97987 -2.84608 0
M  V30 11978 C 1135.89 -3.219 -2.8404 0
M  V30 11979 C 1135.12 -3.37988 -4.13037 0
M  V30 11980 O 1135.34 -2.58733 -5.08344 0
M  V30 11981 O 1134.28 -4.31273 -4.19866 0
M  V30 11982 H 1138.1 -2.75289 -1.28257 0
M  V30 11983 H 1135.69 -1.38068 -0.57076 0
M  V30 11984 H 1137.57 -2.10773 -3.64901 0
M  V30 11985 H 1136.24 -1.06972 -3.05514 0
M  V30 11986 H 1135.15 -3.14551 -2.02505 0
M  V30 11987 H 1136.48 -4.12783 -2.68087 0
M  V30 11988 N 1138.14 0.641106 -1.43971 0
M  V30 11989 C 1139.39 1.39807 -1.4594 0
M  V30 11990 C 1139.71 1.94795 -0.0893874 0
M  V30 11991 O 1138.98 1.75175 0.876962 0
M  V30 11992 H 1137.56 0.518908 -0.537349 0
M  V30 11993 H 1140.22 0.755278 -1.79671 0
M  V30 11994 H 1139.31 2.23439 -2.17903 0
M  V30 11995 N 1139.62 1.30703 0.880598 0
M  V30 11996 C 1140.84 1.22843 1.67106 0
M  V30 11997 C 1141.27 -0.204788 1.86982 0
M  V30 11998 O 1140.62 -1.14716 1.40392 0
M  V30 11999 C 1140.67 1.96685 3.02237 0
M  V30 12000 O 1139.78 1.29693 3.91476 0
M  V30 12001 H 1139.12 0.424661 0.51045 0
M  V30 12002 H 1141.65 1.72596 1.09871 0
M  V30 12003 H 1141.66 2.05874 3.52249 0
M  V30 12004 H 1140.33 3.00919 2.8709 0
M  V30 12005 H 1138.91 1.28886 3.49918 0
M  V30 12006 N 1141.09 -1.09351 1.1349 0
M  V30 12007 C 1142.04 -2.14179 0.781739 0
M  V30 12008 C 1143.03 -1.59325 -0.224575 0
M  V30 12009 O 1144.22 -1.76977 -0.0283747 0
M  V30 12010 C 1141.35 -3.42386 0.250278 0
M  V30 12011 C 1140.43 -4.04147 1.28555 0
M  V30 12012 N 1140.83 -4.40451 2.4867 0
M  V30 12013 C 1139.12 -4.31356 1.13351 0
M  V30 12014 C 1139.82 -4.89115 3.14867 0
M  V30 12015 N 1138.8 -4.86618 2.42289 0
M  V30 12016 H 1142.6 -2.40055 1.69561 0
M  V30 12017 H 1140.12 -1.26587 1.01733 0
M  V30 12018 H 1142.11 -4.16895 -0.0209767 0
M  V30 12019 H 1140.77 -3.17965 -0.657904 0
M  V30 12020 H 1141.78 -4.31789 2.8597 0
M  V30 12021 H 1138.46 -4.16536 0.28355 0
M  V30 12022 H 1139.85 -5.26663 4.17224 0
M  V30 12023 N 1142.57 -0.928524 -1.27343 0
M  V30 12024 C 1143.98 -0.613856 -1.7632 0
M  V30 12025 C 1144.33 0.870983 -1.75808 0
M  V30 12026 O 1143.46 1.68155 -1.36209 0
M  V30 12027 C 1144.05 -1.10755 -3.20186 0
M  V30 12028 C 1142.61 -0.843532 -3.66826 0
M  V30 12029 C 1141.76 -1.26579 -2.46724 0
M  V30 12030 H 1144.71 -1.10821 -1.13598 0
M  V30 12031 H 1144.73 -0.455598 -3.77763 0
M  V30 12032 H 1144.24 -2.18825 -3.20526 0
M  V30 12033 H 1142.34 0.223334 -3.7193 0
M  V30 12034 H 1142.46 -1.46165 -4.56259 0
M  V30 12035 H 1140.82 -0.684334 -2.45334 0
M  V30 12036 H 1141.6 -2.35516 -2.49774 0
M  V30 12037 N 1144.05 1.41491 -0.694123 0
M  V30 12038 C 1145.3 2.01252 -0.224477 0
M  V30 12039 C 1145.62 1.54965 1.17541 0
M  V30 12040 O 1144.88 0.751041 1.80715 0
M  V30 12041 C 1145.18 3.56666 -0.228869 0
M  V30 12042 C 1144.84 4.22458 -1.57608 0
M  V30 12043 C 1143.51 4.40144 -1.94491 0
M  V30 12044 C 1145.86 4.5936 -2.46247 0
M  V30 12045 C 1143.19 4.92009 -3.196 0
M  V30 12046 C 1145.54 5.12615 -3.70687 0
M  V30 12047 C 1144.2 5.28512 -4.07715 0
M  V30 12048 H 1143.47 0.736433 -0.0821419 0
M  V30 12049 H 1146.12 1.69408 -0.892926 0
M  V30 12050 H 1144.42 3.88292 0.523128 0
M  V30 12051 H 1146.12 4.00712 0.152019 0
M  V30 12052 H 1142.71 4.09065 -1.27921 0
M  V30 12053 H 1146.9 4.45352 -2.19032 0
M  V30 12054 H 1142.15 5.02502 -3.48285 0
M  V30 12055 H 1146.33 5.4015 -4.39558 0
M  V30 12056 H 1143.95 5.68464 -5.0473 0
M  V30 12057 N 1145.53 0.438773 1.51369 0
M  V30 12058 C 1146.78 -0.126962 2.01701 0
M  V30 12059 C 1147.1 -1.43086 1.32481 0
M  V30 12060 O 1146.37 -1.90427 0.459823 0
M  V30 12061 H 1144.95 -0.0499092 0.745331 0
M  V30 12062 H 1147.61 0.581808 1.86013 0
M  V30 12063 H 1146.7 -0.301836 3.10637 0
M  V30 12064 N 1147.01 -1.56678 0.170181 0
M  V30 12065 C 1147.95 -2.17909 -0.760556 0
M  V30 12066 C 1148.92 -1.11875 -1.22773 0
M  V30 12067 O 1150.11 -1.40021 -1.2961 0
M  V30 12068 C 1147.25 -2.82305 -1.9849 0
M  V30 12069 C 1146.36 -4.02796 -1.5614 0
M  V30 12070 C 1145.5 -4.55121 -2.73932 0
M  V30 12071 C 1144.53 -5.68025 -2.28067 0
M  V30 12072 N 1143.67 -6.14865 -3.38947 0
M  V30 12073 H 1148.51 -2.97098 -0.231629 0
M  V30 12074 H 1146.05 -1.46742 -0.102602 0
M  V30 12075 H 1148.01 -3.17797 -2.70298 0
M  V30 12076 H 1146.64 -2.05721 -2.48755 0
M  V30 12077 H 1145.69 -3.73131 -0.740097 0
M  V30 12078 H 1147 -4.84526 -1.18472 0
M  V30 12079 H 1146.15 -4.92789 -3.53898 0
M  V30 12080 H 1144.89 -3.72445 -3.14858 0
M  V30 12081 H 1143.9 -5.2991 -1.46546 0
M  V30 12082 H 1145.12 -6.52501 -1.88199 0
M  V30 12083 H 1143.07 -5.35119 -3.79452 0
M  V30 12084 H 1142.99 -6.91582 -3.05369 0
M  V30 12085 H 1144.25 -6.57183 -4.19203 0
M  V30 12086 N 1148.48 0.103547 -1.57259 0
M  V30 12087 C 1149.71 0.82624 -1.90232 0
M  V30 12088 C 1150.13 1.71902 -0.763641 0
M  V30 12089 O 1149.49 1.79043 0.285181 0
M  V30 12090 C 1149.54 1.62265 -3.22029 0
M  V30 12091 O 1148.64 2.73091 -3.09023 0
M  V30 12092 H 1147.98 0.227528 -0.6238 0
M  V30 12093 H 1150.51 0.081307 -2.04438 0
M  V30 12094 H 1150.52 2.00865 -3.5513 0
M  V30 12095 H 1149.2 0.967383 -4.04493 0
M  V30 12096 H 1147.78 2.3758 -2.8742 0
M  V30 12097 N 1149.96 1.53094 0.37415 0
M  V30 12098 C 1150.89 1.81901 1.46404 0
M  V30 12099 C 1151.87 0.671949 1.56265 0
M  V30 12100 O 1153.06 0.920978 1.70973 0
M  V30 12101 C 1150.19 2.00123 2.83845 0
M  V30 12102 C 1149.14 3.15864 2.88814 0
M  V30 12103 C 1148.47 3.19364 4.28848 0
M  V30 12104 C 1149.77 4.54633 2.57112 0
M  V30 12105 H 1151.46 2.73172 1.22546 0
M  V30 12106 H 1149.01 1.31444 0.588087 0
M  V30 12107 H 1150.96 2.18859 3.6011 0
M  V30 12108 H 1149.68 1.05555 3.09072 0
M  V30 12109 H 1148.34 2.96935 2.15 0
M  V30 12110 H 1147.99 2.2245 4.51137 0
M  V30 12111 H 1147.69 3.97123 4.3309 0
M  V30 12112 H 1149.22 3.40273 5.06997 0
M  V30 12113 H 1150.63 4.73587 3.23091 0
M  V30 12114 H 1149.03 5.34569 2.72683 0
M  V30 12115 H 1150.1 4.60331 1.52392 0
M  V30 12116 N 1151.44 -0.633461 1.44309 0
M  V30 12117 C 1152.37 -1.75868 1.4698 0
M  V30 12118 C 1153.38 -1.58691 0.363469 0
M  V30 12119 O 1154.57 -1.67048 0.629075 0
M  V30 12120 C 1151.67 -3.1356 1.28582 0
M  V30 12121 C 1150.85 -3.57217 2.52418 0
M  V30 12122 C 1149.91 -4.73779 2.28954 0
M  V30 12123 O 1148.93 -4.8221 3.02428 0
M  V30 12124 N 1150.13 -5.65324 1.31866 0
M  V30 12125 H 1152.9 -1.74048 2.43983 0
M  V30 12126 H 1150.46 -0.817952 1.39718 0
M  V30 12127 H 1152.45 -3.89255 1.10736 0
M  V30 12128 H 1151.02 -3.10036 0.399529 0
M  V30 12129 H 1150.24 -2.71755 2.85557 0
M  V30 12130 H 1151.53 -3.83136 3.3479 0
M  V30 12131 H 1150.93 -5.61204 0.71179 0
M  V30 12132 H 1149.48 -6.40659 1.19998 0
M  V30 12133 N 1152.92 -1.31168 -0.873655 0
M  V30 12134 C 1154.33 -1.09745 -1.1588 0
M  V30 12135 C 1154.53 0.134471 -2.01051 0
M  V30 12136 O 1153.59 0.824857 -2.38647 0
M  V30 12137 C 1154.9 -2.36704 -1.85451 0
M  V30 12138 C 1156.45 -2.42278 -1.98167 0
M  V30 12139 C 1156.93 -3.69108 -2.71152 0
M  V30 12140 N 1158.42 -3.69981 -2.7869 0
M  V30 12141 C 1159.15 -4.64811 -3.35765 0
M  V30 12142 N 1158.65 -5.69995 -3.938 0
M  V30 12143 N 1160.44 -4.52337 -3.33688 0
M  V30 12144 H 1152.59 -2.10184 -0.306021 0
M  V30 12145 H 1154.86 -0.927058 -0.198159 0
M  V30 12146 H 1154.56 -3.26666 -1.30316 0
M  V30 12147 H 1154.44 -2.46219 -2.85755 0
M  V30 12148 H 1156.82 -1.52787 -2.52468 0
M  V30 12149 H 1156.9 -2.3673 -0.969164 0
M  V30 12150 H 1156.55 -4.58963 -2.1752 0
M  V30 12151 H 1156.48 -3.71922 -3.72803 0
M  V30 12152 H 1158.97 -2.93944 -2.37498 0
M  V30 12153 H 1159.28 -6.38438 -4.3545 0
M  V30 12154 H 1157.63 -5.73773 -3.92186 0
M  V30 12155 H 1160.82 -3.69341 -2.87584 0
M  V30 12156 H 1160.99 -5.2642 -3.77871 0
M  V30 12157 N 1154.4 1.08748 -1.14068 0
M  V30 12158 C 1155.33 2.1544 -0.782199 0
M  V30 12159 C 1156.34 1.61575 0.199301 0
M  V30 12160 O 1157.53 1.78487 -0.0219044 0
M  V30 12161 C 1154.63 3.38611 -0.13983 0
M  V30 12162 C 1153.8 4.2187 -1.15518 0
M  V30 12163 C 1152.86 5.23451 -0.537216 0
M  V30 12164 O 1151.89 5.56424 -1.1992 0
M  V30 12165 N 1153.09 5.76413 0.6876 0
M  V30 12166 H 1155.86 2.46798 -1.70032 0
M  V30 12167 H 1153.42 1.24527 -1.03463 0
M  V30 12168 H 1155.41 4.03688 0.285999 0
M  V30 12169 H 1153.98 3.05084 0.681357 0
M  V30 12170 H 1153.2 3.52825 -1.75806 0
M  V30 12171 H 1154.49 4.74318 -1.84119 0
M  V30 12172 H 1153.88 5.51851 1.24406 0
M  V30 12173 H 1152.44 6.43189 1.05599 0
M  V30 12174 N 1155.87 0.935264 1.26849 0
M  V30 12175 C 1156.84 0.44485 2.24842 0
M  V30 12176 C 1157.84 -0.440781 1.54641 0
M  V30 12177 O 1159.03 -0.240793 1.72528 0
M  V30 12178 C 1156.16 -0.359566 3.38998 0
M  V30 12179 H 1157.35 1.31074 2.6974 0
M  V30 12180 H 1154.91 0.716665 1.38901 0
M  V30 12181 H 1155.64 -1.24396 2.99493 0
M  V30 12182 H 1155.43 0.275529 3.91131 0
M  V30 12183 H 1156.92 -0.692804 4.11813 0
M  V30 12184 N 1157.35 -1.41121 0.701616 0
M  V30 12185 C 1158.3 -2.32582 0.0288052 0
M  V30 12186 C 1159.29 -1.5129 -0.762074 0
M  V30 12187 O 1160.5 -1.67185 -0.667014 0
M  V30 12188 H 1156.88 -0.75194 -0.00948675 0
M  V30 12189 H 1158.85 -2.86994 0.817141 0
M  V30 12190 C 1157.6 -3.36137 -0.889217 0
M  V30 12191 H 1156.92 -3.98746 -0.290062 0
M  V30 12192 H 1158.36 -4.0266 -1.32819 0
M  V30 12193 C 1156.82 -2.70504 -2.00821 0
M  V30 12194 O 1157.35 -2.55753 -3.09763 0
M  V30 12195 N 1155.55 -2.29105 -1.78772 0
M  V30 12196 H 1155.1 -2.41303 -0.901708 0
M  V30 12197 H 1155.06 -1.85527 -2.53825 0
M  V30 12198 N 1158.83 -0.446794 -1.51134 0
M  V30 12199 C 1160.08 0.118047 -2.01354 0
M  V30 12200 C 1160.39 1.42953 -1.33505 0
M  V30 12201 O 1161.6 2.07788 -1.74747 0
M  V30 12202 C 1160.05 0.260912 -3.58953 0
M  V30 12203 C 1159.66 -1.0407 -4.35745 0
M  V30 12204 C 1161.41 0.779014 -4.17291 0
M  V30 12205 C 1159.31 -0.862958 -5.8507 0
M  V30 12206 H 1158.24 0.0478915 -0.752478 0
M  V30 12207 H 1160.89 -0.577997 -1.74159 0
M  V30 12208 H 1159.28 1.02018 -3.82633 0
M  V30 12209 H 1160.45 -1.80903 -4.23805 0
M  V30 12210 H 1158.77 -1.48805 -3.88904 0
M  V30 12211 H 1161.36 0.928636 -5.26574 0
M  V30 12212 H 1161.71 1.76399 -3.7708 0
M  V30 12213 H 1162.24 0.0778022 -3.97724 0
M  V30 12214 H 1158.98 -1.82059 -6.2971 0
M  V30 12215 H 1158.5 -0.134588 -5.99649 0
M  V30 12216 H 1160.18 -0.51989 -6.44908 0
M  V30 12217 N 1160.31 1.56586 -0.178487 0
M  V30 12218 C 1161.24 2.21313 0.744486 0
M  V30 12219 C 1162.22 1.17098 1.23377 0
M  V30 12220 O 1163.4 1.45551 1.28563 0
M  V30 12221 C 1160.53 2.8595 1.97103 0
M  V30 12222 C 1159.49 3.96266 1.61732 0
M  V30 12223 C 1158.81 4.47987 2.91911 0
M  V30 12224 C 1160.11 5.15503 0.839868 0
M  V30 12225 H 1161.81 2.98698 0.204938 0
M  V30 12226 H 1159.35 1.43672 0.0971306 0
M  V30 12227 H 1161.31 3.29909 2.6218 0
M  V30 12228 H 1160.03 2.05946 2.53484 0
M  V30 12229 H 1158.69 3.52974 0.990208 0
M  V30 12230 H 1158.34 3.64765 3.46346 0
M  V30 12231 H 1158.04 5.22413 2.68995 0
M  V30 12232 H 1159.56 4.94637 3.58004 0
M  V30 12233 H 1160.98 5.5611 1.39337 0
M  V30 12234 H 1159.37 5.95891 0.709473 0
M  V30 12235 H 1160.44 4.84628 -0.162396 0
M  V30 12236 N 1161.79 -0.095206 1.57312 0
M  V30 12237 C 1162.72 -1.11627 2.05089 0
M  V30 12238 C 1163.7 -1.41782 0.939787 0
M  V30 12239 O 1164.88 -1.51813 1.21105 0
M  V30 12240 C 1162.01 -2.43618 2.47523 0
M  V30 12241 C 1160.97 -2.27872 3.62296 0
M  V30 12242 C 1160.29 -3.65038 3.90706 0
M  V30 12243 C 1161.59 -1.71936 4.93189 0
M  V30 12244 H 1163.29 -0.718795 2.90644 0
M  V30 12245 H 1160.83 -0.344315 1.39823 0
M  V30 12246 H 1162.79 -3.1532 2.79556 0
M  V30 12247 H 1161.51 -2.85301 1.58968 0
M  V30 12248 H 1160.17 -1.58615 3.3051 0
M  V30 12249 H 1159.82 -4.04249 2.99319 0
M  V30 12250 H 1159.52 -3.55349 4.67976 0
M  V30 12251 H 1161.04 -4.38208 4.25213 0
M  V30 12252 H 1162.45 -2.33479 5.23603 0
M  V30 12253 H 1160.85 -1.73006 5.74621 0
M  V30 12254 H 1161.92 -0.678789 4.80125 0
M  V30 12255 N 1163.26 -1.53291 -0.366026 0
M  V30 12256 C 1164.51 -1.69117 -1.10653 0
M  V30 12257 C 1164.83 -0.445327 -1.89847 0
M  V30 12258 O 1164.1 0.540616 -1.88293 0
M  V30 12259 H 1162.68 -0.623446 -0.41149 0
M  V30 12260 H 1165.35 -1.90479 -0.412749 0
M  V30 12261 H 1164.44 -2.55205 -1.79658 0
M  V30 12262 N 1164.74 0.6258 -1.44643 0
M  V30 12263 C 1165.71 1.71941 -1.51555 0
M  V30 12264 C 1166.71 1.55822 -0.396988 0
M  V30 12265 O 1167.9 1.61221 -0.65981 0
M  V30 12266 C 1165.03 3.11068 -1.39461 0
M  V30 12267 H 1166.22 1.67185 -2.48976 0
M  V30 12268 H 1163.77 0.839934 -1.31814 0
M  V30 12269 H 1164.51 3.21416 -0.431534 0
M  V30 12270 H 1164.29 3.24175 -2.20574 0
M  V30 12271 H 1165.78 3.90762 -1.4729 0
M  V30 12272 N 1166.22 1.31629 0.866686 0
M  V30 12273 C 1167.46 1.22806 1.63395 0
M  V30 12274 C 1167.82 -0.209785 1.9085 0
M  V30 12275 O 1169.03 -0.421562 2.65474 0
M  V30 12276 C 1167.3 2.05187 2.92631 0
M  V30 12277 S 1168.86 2.13261 3.83491 0
M  V30 12278 H 1165.67 0.437339 0.560585 0
M  V30 12279 H 1168.28 1.66333 1.02731 0
M  V30 12280 H 1166.98 3.08736 2.70389 0
M  V30 12281 H 1166.51 1.62393 3.58318 0
M  V30 12282 H 1168.53 1.27333 4.79584 0
M  V30 12283 N 1167.7 -1.08142 1.14644 0
M  V30 12284 C 1168.92 -1.84857 0.940349 0
M  V30 12285 C 1169.35 -1.81163 -0.506117 0
M  V30 12286 O 1168.71 -1.19869 -1.36019 0
M  V30 12287 C 1168.76 -3.30198 1.4492 0
M  V30 12288 O 1167.86 -4.07355 0.64308 0
M  V30 12289 H 1167.2 -0.572711 0.336003 0
M  V30 12290 H 1169.73 -1.36475 1.52432 0
M  V30 12291 H 1169.74 -3.81039 1.45854 0
M  V30 12292 H 1168.42 -3.32202 2.50229 0
M  V30 12293 H 1166.99 -3.66219 0.702698 0
M  V30 12294 N 1169.18 -0.941978 -1.26351 0
M  V30 12295 C 1170.11 -0.469913 -2.28723 0
M  V30 12296 C 1171.09 0.477218 -1.63269 0
M  V30 12297 O 1172.27 0.378902 -1.90468 0
M  V30 12298 C 1169.4 0.264971 -3.46288 0
M  V30 12299 C 1168.36 -0.595682 -4.23834 0
M  V30 12300 C 1167.68 0.269208 -5.34022 0
M  V30 12301 C 1168.98 -1.86743 -4.87775 0
M  V30 12302 H 1170.68 -1.32551 -2.6846 0
M  V30 12303 H 1168.22 -0.638809 -1.29055 0
M  V30 12304 H 1170.18 0.606259 -4.17016 0
M  V30 12305 H 1168.9 1.15471 -3.05506 0
M  V30 12306 H 1167.56 -0.919875 -3.54872 0
M  V30 12307 H 1167.21 1.15832 -4.89481 0
M  V30 12308 H 1166.91 -0.30325 -5.86817 0
M  V30 12309 H 1168.43 0.605748 -6.07588 0
M  V30 12310 H 1169.85 -1.59333 -5.50714 0
M  V30 12311 H 1168.24 -2.38452 -5.50691 0
M  V30 12312 H 1169.31 -2.57831 -4.10671 0
M  V30 12313 N 1170.66 1.40747 -0.709091 0
M  V30 12314 C 1171.93 1.94831 -0.173246 0
M  V30 12315 C 1172.31 1.64766 1.31967 0
M  V30 12316 O 1171.66 0.961853 2.07269 0
M  V30 12317 C 1171.87 3.45697 -0.479013 0
M  V30 12318 C 1173.22 4.22576 -0.414122 0
M  V30 12319 O 1174.24 3.53778 -0.414699 0
M  V30 12320 O 1173.1 5.45135 -0.385986 0
M  V30 12321 H 1170.2 0.826683 -0.0228947 0
M  V30 12322 H 1172.74 1.50391 -0.786178 0
M  V30 12323 H 1171.51 3.60914 -1.51185 0
M  V30 12324 H 1171.14 3.97261 0.164211 0
M  V30 12325 N 1172.13 0.454803 1.50895 0
M  V30 12326 C 1173.37 -0.104722 2.04132 0
M  V30 12327 C 1173.74 -1.38434 1.33042 0
M  V30 12328 O 1174.94 -2.02521 1.76745 0
M  V30 12329 C 1173.21 -0.300775 3.56132 0
M  V30 12330 S 1174.77 -0.821197 4.31047 0
M  V30 12331 H 1171.59 -0.0236407 0.710607 0
M  V30 12332 H 1174.19 0.618213 1.85468 0
M  V30 12333 H 1172.89 0.636592 4.05433 0
M  V30 12334 H 1172.42 -1.05029 3.79121 0
M  V30 12335 H 1174.44 -2.09669 4.49726 0
M  V30 12336 N 1173.61 -1.56489 0.186789 0
M  V30 12337 C 1174.54 -2.21705 -0.732739 0
M  V30 12338 C 1175.52 -1.17751 -1.22755 0
M  V30 12339 O 1176.71 -1.46231 -1.27789 0
M  V30 12340 C 1173.84 -2.86992 -1.95584 0
M  V30 12341 C 1172.79 -3.97118 -1.59628 0
M  V30 12342 C 1172.12 -4.49529 -2.89531 0
M  V30 12343 C 1173.42 -5.15941 -0.812518 0
M  V30 12344 H 1175.11 -2.98802 -0.189094 0
M  V30 12345 H 1172.66 -1.43722 -0.0895099 0
M  V30 12346 H 1174.61 -3.31295 -2.60426 0
M  V30 12347 H 1173.33 -2.07287 -2.52388 0
M  V30 12348 H 1171.99 -3.53494 -0.971475 0
M  V30 12349 H 1171.64 -3.66596 -3.44407 0
M  V30 12350 H 1171.34 -5.23832 -2.66221 0
M  V30 12351 H 1172.87 -4.96528 -3.55376 0
M  V30 12352 H 1174.28 -5.56841 -1.36386 0
M  V30 12353 H 1172.68 -5.96259 -0.677862 0
M  V30 12354 H 1173.75 -4.84535 0.188095 0
M  V30 12355 N 1175.09 0.086862 -1.5736 0
M  V30 12356 C 1176.04 1.11134 -1.99081 0
M  V30 12357 C 1177.02 1.35318 -0.870506 0
M  V30 12358 O 1178.22 1.35871 -1.13437 0
M  V30 12359 C 1175.34 2.42931 -2.42569 0
M  V30 12360 C 1174.43 2.22085 -3.61302 0
M  V30 12361 N 1174.82 1.71128 -4.75971 0
M  V30 12362 C 1173.12 2.52619 -3.67559 0
M  V30 12363 C 1173.82 1.64745 -5.57883 0
M  V30 12364 N 1172.8 2.10257 -5.01291 0
M  V30 12365 H 1176.6 0.710431 -2.85184 0
M  V30 12366 H 1174.11 0.294168 -1.59714 0
M  V30 12367 H 1176.11 3.17069 -2.7069 0
M  V30 12368 H 1174.77 2.83751 -1.57846 0
M  V30 12369 H 1175.78 1.40207 -4.9856 0
M  V30 12370 H 1172.46 2.96908 -2.93516 0
M  V30 12371 H 1173.85 1.26329 -6.59917 0
M  V30 12372 N 1176.57 1.53483 0.357892 0
M  V30 12373 C 1177.98 1.61641 0.934289 0
M  V30 12374 C 1178.33 0.488655 1.90017 0
M  V30 12375 O 1177.45 -0.38378 2.1297 0
M  V30 12376 C 1178.05 2.92987 1.7013 0
M  V30 12377 C 1176.61 3.03456 2.22692 0
M  V30 12378 C 1175.76 2.56992 1.04165 0
M  V30 12379 H 1178.71 1.58112 0.136452 0
M  V30 12380 H 1178.73 2.81221 2.5631 0
M  V30 12381 H 1178.24 3.75047 0.998056 0
M  V30 12382 H 1176.34 2.25999 2.96235 0
M  V30 12383 H 1176.45 4.08673 2.50046 0
M  V30 12384 H 1174.82 2.12052 1.41088 0
M  V30 12385 H 1175.6 3.41477 0.353272 0
M  V30 12386 N 1178.05 -0.61812 1.44973 0
M  V30 12387 C 1178.96 -1.7579 1.55355 0
M  V30 12388 C 1179.97 -1.68384 0.438512 0
M  V30 12389 O 1181.15 -1.88928 0.697715 0
M  V30 12390 C 1178.21 -3.1222 1.50729 0
M  V30 12391 C 1177.27 -3.3116 2.73188 0
M  V30 12392 C 1176.51 -4.61082 2.68774 0
M  V30 12393 O 1176.73 -5.42728 1.75507 0
M  V30 12394 O 1175.66 -4.82506 3.59821 0
M  V30 12395 H 1179.49 -1.69983 2.51674 0
M  V30 12396 H 1177.07 -0.780934 1.27365 0
M  V30 12397 H 1178.96 -3.93524 1.5072 0
M  V30 12398 H 1177.63 -3.18541 0.575587 0
M  V30 12399 H 1176.54 -2.49485 2.78762 0
M  V30 12400 H 1177.87 -3.29709 3.65449 0
M  V30 12401 N 1179.52 -1.32087 -0.859693 0
M  V30 12402 C 1180.47 -1.20601 -1.96784 0
M  V30 12403 C 1181.44 -0.089355 -1.65859 0
M  V30 12404 O 1182.63 -0.264022 -1.88964 0
M  V30 12405 C 1179.77 -0.929872 -3.32336 0
M  V30 12406 C 1178.88 -2.13084 -3.75791 0
M  V30 12407 C 1178.01 -1.79061 -5.00111 0
M  V30 12408 C 1177.05 -2.95507 -5.36043 0
M  V30 12409 N 1176.19 -2.61611 -6.5154 0
M  V30 12410 H 1181.03 -2.1539 -2.0594 0
M  V30 12411 H 1178.57 -1.07131 -1.00803 0
M  V30 12412 H 1180.52 -0.750285 -4.10398 0
M  V30 12413 H 1179.15 -0.0187929 -3.22795 0
M  V30 12414 H 1178.21 -2.42086 -2.93425 0
M  V30 12415 H 1179.52 -3.00205 -3.98344 0
M  V30 12416 H 1178.67 -1.57625 -5.85866 0
M  V30 12417 H 1177.41 -0.891459 -4.79483 0
M  V30 12418 H 1176.42 -3.17581 -4.48801 0
M  V30 12419 H 1177.64 -3.86147 -5.5863 0
M  V30 12420 H 1175.59 -1.74231 -6.32439 0
M  V30 12421 H 1175.5 -3.42262 -6.74087 0
M  V30 12422 H 1176.77 -2.43592 -7.40461 0
M  V30 12423 N 1181 1.07532 -1.15215 0
M  V30 12424 C 1181.95 2.12909 -0.815714 0
M  V30 12425 C 1182.94 1.59662 0.1992 0
M  V30 12426 O 1184.13 1.77 0.000215597 0
M  V30 12427 C 1181.26 3.41945 -0.304717 0
M  V30 12428 C 1180.34 4.0205 -1.34968 0
M  V30 12429 N 1180.73 4.36439 -2.55646 0
M  V30 12430 C 1179.03 4.29498 -1.20199 0
M  V30 12431 C 1179.73 4.84044 -3.22609 0
M  V30 12432 N 1178.71 4.82702 -2.5 0
M  V30 12433 H 1182.51 2.37327 -1.73358 0
M  V30 12434 H 1180.02 1.24952 -1.03734 0
M  V30 12435 H 1182.02 4.16875 -0.0453503 0
M  V30 12436 H 1180.68 3.18971 0.607235 0
M  V30 12437 H 1181.69 4.27184 -2.92804 0
M  V30 12438 H 1178.37 4.16032 -0.349781 0
M  V30 12439 H 1179.76 5.19959 -4.2555 0
M  V30 12440 N 1182.48 0.948665 1.2585 0
M  V30 12441 C 1183.39 0.470525 2.29833 0
M  V30 12442 C 1184.41 -0.45919 1.67832 0
M  V30 12443 O 1185.58 -0.336893 1.98562 0
M  V30 12444 C 1182.65 -0.249635 3.458 0
M  V30 12445 C 1181.71 0.717559 4.23261 0
M  V30 12446 C 1180.94 0.0316724 5.33691 0
M  V30 12447 O 1181.16 -1.18384 5.5798 0
M  V30 12448 O 1180.1 0.71418 5.97648 0
M  V30 12449 H 1183.92 1.33447 2.72811 0
M  V30 12450 H 1181.51 0.714864 1.31187 0
M  V30 12451 H 1183.39 -0.654993 4.16279 0
M  V30 12452 H 1182.07 -1.08885 3.04837 0
M  V30 12453 H 1180.97 1.17301 3.55234 0
M  V30 12454 H 1182.31 1.52461 4.67992 0
M  V30 12455 N 1183.96 -1.40369 0.716545 0
M  V30 12456 C 1185.24 -1.94737 0.183576 0
M  V30 12457 C 1185.62 -1.65464 -1.31092 0
M  V30 12458 O 1184.96 -0.972832 -2.06756 0
M  V30 12459 C 1185.17 -3.45438 0.497339 0
M  V30 12460 C 1186.52 -4.2235 0.436526 0
M  V30 12461 O 1187.55 -3.53553 0.433454 0
M  V30 12462 O 1186.4 -5.44923 0.41489 0
M  V30 12463 H 1183.5 -0.82655 0.0272785 0
M  V30 12464 H 1186.04 -1.49972 0.794143 0
M  V30 12465 H 1184.82 -3.60107 1.53097 0
M  V30 12466 H 1184.44 -3.97342 -0.143141 0
M  V30 12467 N 1185.44 -0.462799 -1.50652 0
M  V30 12468 C 1186.68 0.0951853 -2.02576 0
M  V30 12469 C 1187.02 1.40113 -1.34469 0
M  V30 12470 O 1186.29 1.88793 -0.467702 0
M  V30 12471 C 1186.57 0.287603 -3.5895 0
M  V30 12472 C 1186.43 -1.03878 -4.37641 0
M  V30 12473 C 1187.75 1.04593 -4.27491 0
M  V30 12474 H 1184.86 0.0331191 -0.736255 0
M  V30 12475 H 1187.51 -0.606772 -1.80051 0
M  V30 12476 H 1185.66 0.885514 -3.78274 0
M  V30 12477 H 1187.33 -1.67263 -4.29908 0
M  V30 12478 H 1185.57 -1.6374 -4.01711 0
M  V30 12479 H 1186.24 -0.857889 -5.45293 0
M  V30 12480 H 1188.72 0.539213 -4.12591 0
M  V30 12481 H 1187.59 1.14935 -5.36732 0
M  V30 12482 H 1187.86 2.08045 -3.90089 0
M  V30 12483 N 1186.91 1.56388 -0.195085 0
M  V30 12484 C 1188.16 1.96755 0.443901 0
M  V30 12485 C 1188.48 1.08483 1.6276 0
M  V30 12486 O 1189.68 1.38632 2.33438 0
M  V30 12487 C 1188.14 3.49933 0.841139 0
M  V30 12488 C 1187.75 4.46868 -0.318275 0
M  V30 12489 C 1189.49 3.99069 1.44721 0
M  V30 12490 C 1187.4 5.91316 0.0999211 0
M  V30 12491 H 1186.33 0.734674 0.169616 0
M  V30 12492 H 1188.98 1.8124 -0.287101 0
M  V30 12493 H 1187.36 3.60951 1.62881 0
M  V30 12494 H 1188.53 4.47581 -1.0958 0
M  V30 12495 H 1186.85 4.07925 -0.835842 0
M  V30 12496 H 1189.45 5.04465 1.77255 0
M  V30 12497 H 1189.79 3.43376 2.35369 0
M  V30 12498 H 1190.32 3.91165 0.723513 0
M  V30 12499 H 1187.06 6.50934 -0.77237 0
M  V30 12500 H 1186.58 5.93856 0.842304 0
M  V30 12501 H 1188.26 6.44778 0.535726 0
M  V30 12502 N 1188.39 -0.0785156 1.57404 0
M  V30 12503 C 1189.36 -1.07835 2.02248 0
M  V30 12504 C 1190.36 -1.31987 0.918475 0
M  V30 12505 O 1191.55 -1.27821 1.18353 0
M  V30 12506 C 1188.68 -2.42361 2.39737 0
M  V30 12507 H 1189.87 -0.691995 2.91807 0
M  V30 12508 H 1187.42 -0.32405 1.52904 0
M  V30 12509 H 1188.16 -2.85841 1.53183 0
M  V30 12510 H 1187.94 -2.26174 3.20293 0
M  V30 12511 H 1189.43 -3.14241 2.75031 0
M  V30 12512 N 1189.87 -1.5367 -0.349747 0
M  V30 12513 C 1191.29 -1.43796 -0.692457 0
M  V30 12514 C 1191.49 -0.58972 -1.92677 0
M  V30 12515 O 1190.54 -0.078294 -2.52379 0
M  V30 12516 C 1191.86 -2.872 -0.890881 0
M  V30 12517 C 1193.4 -2.96935 -0.989892 0
M  V30 12518 C 1193.88 -4.41433 -1.22068 0
M  V30 12519 N 1195.37 -4.44932 -1.28802 0
M  V30 12520 C 1196.1 -5.53864 -1.48398 0
M  V30 12521 N 1195.6 -6.72814 -1.65208 0
M  V30 12522 N 1197.39 -5.41467 -1.50896 0
M  V30 12523 H 1189.54 -2.07317 0.461895 0
M  V30 12524 H 1191.81 -0.936895 0.144681 0
M  V30 12525 H 1191.51 -3.51656 -0.0555095 0
M  V30 12526 H 1191.39 -3.31784 -1.79442 0
M  V30 12527 H 1193.77 -2.32622 -1.81579 0
M  V30 12528 H 1193.86 -2.55721 -0.0633906 0
M  V30 12529 H 1193.5 -5.06325 -0.399729 0
M  V30 12530 H 1193.43 -4.80233 -2.16064 0
M  V30 12531 H 1195.92 -3.59214 -1.17361 0
M  V30 12532 H 1196.23 -7.51598 -1.79779 0
M  V30 12533 H 1194.58 -6.7577 -1.62356 0
M  V30 12534 H 1197.77 -4.47498 -1.37342 0
M  V30 12535 H 1197.94 -6.26423 -1.65826 0
M  V30 12536 N 1191.35 0.610423 -1.45298 0
M  V30 12537 C 1192.26 1.74964 -1.56285 0
M  V30 12538 C 1193.27 1.68149 -0.447436 0
M  V30 12539 O 1194.45 1.88556 -0.707725 0
M  V30 12540 C 1191.52 3.11417 -1.52383 0
M  V30 12541 C 1190.58 3.29707 -2.7494 0
M  V30 12542 C 1189.81 4.5965 -2.71215 0
M  V30 12543 O 1190.03 5.41789 -1.78383 0
M  V30 12544 O 1188.97 4.80591 -3.62375 0
M  V30 12545 H 1192.79 1.68646 -2.52571 0
M  V30 12546 H 1190.38 0.774168 -1.27777 0
M  V30 12547 H 1192.26 3.9272 -1.52805 0
M  V30 12548 H 1190.93 3.18232 -0.592472 0
M  V30 12549 H 1189.84 2.48003 -2.80081 0
M  V30 12550 H 1191.17 3.27766 -3.67192 0
M  V30 12551 N 1192.83 1.32541 0.852676 0
M  V30 12552 C 1193.76 1.24254 1.97694 0
M  V30 12553 C 1194.74 0.125971 1.69633 0
M  V30 12554 O 1195.92 0.31347 1.91653 0
M  V30 12555 C 1193.05 0.966874 3.3357 0
M  V30 12556 C 1192.01 2.0449 3.75989 0
M  V30 12557 C 1191.33 1.6216 5.09518 0
M  V30 12558 C 1192.63 3.46013 3.91244 0
M  V30 12559 H 1194.33 2.18317 2.04886 0
M  V30 12560 H 1191.87 1.05101 0.984371 0
M  V30 12561 H 1193.83 0.895444 4.11776 0
M  V30 12562 H 1192.55 -0.0093893 3.26599 0
M  V30 12563 H 1191.21 2.10651 3.00036 0
M  V30 12564 H 1190.86 0.632729 4.99005 0
M  V30 12565 H 1190.56 2.3429 5.38871 0
M  V30 12566 H 1192.08 1.56457 5.90215 0
M  V30 12567 H 1193.49 3.4243 4.59799 0
M  V30 12568 H 1191.89 4.1651 4.32017 0
M  V30 12569 H 1192.96 3.8553 2.941 0
M  V30 12570 N 1194.3 -1.0692 1.15784 0
M  V30 12571 C 1195.55 -1.78983 0.929944 0
M  V30 12572 C 1195.87 -1.87884 -0.543969 0
M  V30 12573 O 1197.07 -2.56513 -0.889578 0
M  V30 12574 C 1195.53 -3.21657 1.61446 0
M  V30 12575 C 1195.14 -3.20943 3.12569 0
M  V30 12576 C 1196.88 -3.98299 1.46828 0
M  V30 12577 C 1194.79 -4.58298 3.73788 0
M  V30 12578 H 1193.72 -0.670809 0.344284 0
M  V30 12579 H 1196.37 -1.19975 1.38846 0
M  V30 12580 H 1194.75 -3.80885 1.08364 0
M  V30 12581 H 1195.92 -2.71334 3.72444 0
M  V30 12582 H 1194.24 -2.57799 3.26999 0
M  V30 12583 H 1196.84 -4.99822 1.89952 0
M  V30 12584 H 1197.18 -4.14213 0.416358 0
M  V30 12585 H 1197.71 -3.45577 1.97031 0
M  V30 12586 H 1194.45 -4.47588 4.789 0
M  V30 12587 H 1193.97 -5.08126 3.18698 0
M  V30 12588 H 1195.65 -5.27262 3.74972 0
M  V30 12589 N 1195.78 -0.955326 -1.25345 0
M  V30 12590 C 1196.69 -0.482707 -2.2958 0
M  V30 12591 C 1197.71 0.450283 -1.68073 0
M  V30 12592 O 1198.88 0.326358 -1.98738 0
M  V30 12593 C 1195.95 0.231293 -3.45928 0
M  V30 12594 C 1195.01 -0.739995 -4.22874 0
M  V30 12595 C 1194.24 -0.0599748 -5.33666 0
M  V30 12596 O 1194.47 1.15423 -5.586 0
M  V30 12597 O 1193.4 -0.745865 -5.97261 0
M  V30 12598 H 1197.23 -1.34892 -2.72099 0
M  V30 12599 H 1194.81 -0.721812 -1.30806 0
M  V30 12600 H 1196.69 0.632908 -4.1662 0
M  V30 12601 H 1195.37 1.07267 -3.0541 0
M  V30 12602 H 1194.28 -1.19183 -3.54607 0
M  V30 12603 H 1195.61 -1.54941 -4.67177 0
M  V30 12604 N 1197.26 1.39987 -0.723979 0
M  V30 12605 C 1198.21 2.30672 -0.0768286 0
M  V30 12606 C 1199.18 1.48634 0.741422 0
M  V30 12607 O 1200.36 1.77351 0.703649 0
M  V30 12608 C 1197.5 3.34902 0.832729 0
M  V30 12609 C 1196.62 4.32 0.00304942 0
M  V30 12610 C 1195.75 5.23298 0.91286 0
M  V30 12611 C 1194.79 6.12051 0.0777706 0
M  V30 12612 N 1193.93 6.9574 0.942912 0
M  V30 12613 H 1198.77 2.85446 -0.855832 0
M  V30 12614 H 1196.3 1.40561 -0.433718 0
M  V30 12615 H 1198.26 3.93911 1.37441 0
M  V30 12616 H 1196.89 2.81611 1.57782 0
M  V30 12617 H 1195.94 3.74702 -0.655916 0
M  V30 12618 H 1197.26 4.94637 -0.643124 0
M  V30 12619 H 1196.41 5.87279 1.52277 0
M  V30 12620 H 1195.15 4.60956 1.59284 0
M  V30 12621 H 1194.15 5.47092 -0.545022 0
M  V30 12622 H 1195.38 6.76455 -0.598827 0
M  V30 12623 H 1193.33 6.35977 1.60838 0
M  V30 12624 H 1193.24 7.55176 0.352968 0
M  V30 12625 H 1194.51 7.64162 1.53874 0
M  V30 12626 N 1198.74 0.470782 1.50404 0
M  V30 12627 C 1199.67 -0.369532 2.25188 0
M  V30 12628 C 1200.65 -0.996478 1.28488 0
M  V30 12629 O 1201.83 -1.03247 1.57709 0
M  V30 12630 C 1198.96 -1.51775 3.02791 0
M  V30 12631 C 1198.01 -1.00821 4.14412 0
M  V30 12632 S 1198.84 0.076844 5.35445 0
M  V30 12633 C 1200 -1.07525 6.16595 0
M  V30 12634 H 1200.23 0.265286 2.96114 0
M  V30 12635 H 1197.76 0.255662 1.52269 0
M  V30 12636 H 1199.72 -2.17582 3.48092 0
M  V30 12637 H 1198.38 -2.12408 2.31391 0
M  V30 12638 H 1197.57 -1.8678 4.68112 0
M  V30 12639 H 1197.18 -0.427851 3.71545 0
M  V30 12640 H 1199.47 -1.98693 6.47709 0
M  V30 12641 H 1200.41 -0.577518 7.05741 0
M  V30 12642 H 1200.82 -1.32894 5.48634 0
M  V30 12643 N 1200.22 -1.56282 0.203376 0
M  V30 12644 C 1201.47 -1.96987 -0.433461 0
M  V30 12645 C 1201.78 -1.09344 -1.62183 0
M  V30 12646 O 1202.99 -1.39868 -2.327 0
M  V30 12647 C 1201.44 -3.50374 -0.82257 0
M  V30 12648 C 1201.05 -4.46693 0.341969 0
M  V30 12649 C 1202.79 -3.99831 -1.42603 0
M  V30 12650 C 1200.7 -5.9136 -0.0685608 0
M  V30 12651 H 1199.63 -0.735564 -0.165717 0
M  V30 12652 H 1202.28 -1.81085 0.296708 0
M  V30 12653 H 1200.66 -3.6181 -1.60964 0
M  V30 12654 H 1201.84 -4.46994 1.11952 0
M  V30 12655 H 1200.15 -4.07476 0.857463 0
M  V30 12656 H 1202.75 -5.05398 -1.74577 0
M  V30 12657 H 1203.09 -3.4462 -2.33544 0
M  V30 12658 H 1203.63 -3.91543 -0.702758 0
M  V30 12659 H 1200.36 -6.50515 0.80688 0
M  V30 12660 H 1199.88 -5.94295 -0.810798 0
M  V30 12661 H 1201.56 -6.45053 -0.501525 0
M  V30 12662 N 1201.7 0.070167 -1.57444 0
M  V30 12663 C 1202.66 1.06761 -2.02817 0
M  V30 12664 C 1203.66 1.31498 -0.925462 0
M  V30 12665 O 1204.85 1.27192 -1.19029 0
M  V30 12666 C 1201.98 2.41086 -2.41019 0
M  V30 12667 H 1203.17 0.67651 -2.9217 0
M  V30 12668 H 1200.73 0.315936 -1.53074 0
M  V30 12669 H 1201.46 2.85025 -1.54697 0
M  V30 12670 H 1201.25 2.24472 -3.21488 0
M  V30 12671 H 1202.74 3.12778 -2.76694 0
M  V30 12672 N 1203.17 1.53854 0.341593 0
M  V30 12673 C 1204.11 1.76797 1.44284 0
M  V30 12674 C 1205.08 0.617157 1.50432 0
M  V30 12675 O 1206.27 0.85254 1.68119 0
M  V30 12676 C 1203.4 1.86837 2.82506 0
M  V30 12677 C 1202.44 3.09001 2.93974 0
M  V30 12678 S 1203.27 4.68012 2.60241 0
M  V30 12679 C 1204.43 4.80933 4.00567 0
M  V30 12680 H 1204.66 2.69927 1.24606 0
M  V30 12681 H 1202.2 1.44747 0.537375 0
M  V30 12682 H 1204.15 1.93306 3.62137 0
M  V30 12683 H 1202.82 0.947162 2.99479 0
M  V30 12684 H 1202.01 3.12707 3.9526 0
M  V30 12685 H 1201.61 3.00768 2.22294 0
M  V30 12686 H 1203.9 4.62462 4.95111 0
M  V30 12687 H 1204.85 5.83025 4.01855 0
M  V30 12688 H 1205.25 4.09372 3.88684 0
M  V30 12689 N 1204.65 -0.602709 1.4562 0
M  V30 12690 C 1205.93 -1.36224 1.40366 0
M  V30 12691 C 1206.31 -2.1096 0.0767645 0
M  V30 12692 O 1205.66 -2.08207 -0.941378 0
M  V30 12693 C 1205.87 -2.30499 2.62052 0
M  V30 12694 C 1207.21 -2.92954 3.07348 0
M  V30 12695 O 1208.24 -2.40818 2.62459 0
M  V30 12696 O 1207.1 -3.87601 3.85263 0
M  V30 12697 H 1204.19 -0.611064 0.557253 0
M  V30 12698 H 1206.74 -0.625391 1.57756 0
M  V30 12699 H 1205.51 -1.74566 3.50203 0
M  V30 12700 H 1205.13 -3.11556 2.4702 0
M  V30 12701 N 1206.13 -1.32992 -0.845635 0
M  V30 12702 C 1207.54 -1.21616 -1.41656 0
M  V30 12703 C 1207.89 0.167687 -1.95482 0
M  V30 12704 O 1207.02 1.06692 -1.8827 0
M  V30 12705 C 1207.61 -2.2018 -2.575 0
M  V30 12706 C 1206.17 -2.12664 -3.10565 0
M  V30 12707 C 1205.32 -2.08042 -1.83341 0
M  V30 12708 H 1208.27 -1.44688 -0.651993 0
M  V30 12709 H 1208.29 -1.80558 -3.34931 0
M  V30 12710 H 1207.8 -3.20888 -2.18294 0
M  V30 12711 H 1205.9 -1.15235 -3.54333 0
M  V30 12712 H 1206.02 -3.02902 -3.71197 0
M  V30 12713 H 1204.38 -1.53416 -2.03312 0
M  V30 12714 H 1205.16 -3.10547 -1.46339 0
M  V30 12715 N 1207.61 1.06304 -1.1635 0
M  V30 12716 C 1208.54 2.13732 -0.827721 0
M  V30 12717 C 1209.55 1.61962 0.164983 0
M  V30 12718 O 1210.74 1.784 -0.0597591 0
M  V30 12719 C 1207.84 3.38239 -0.211623 0
M  V30 12720 C 1207.01 4.19325 -1.2444 0
M  V30 12721 C 1206.07 5.22193 -0.648127 0
M  V30 12722 O 1205.1 5.53755 -1.31695 0
M  V30 12723 N 1206.3 5.77742 0.565179 0
M  V30 12724 H 1209.07 2.43136 -1.75228 0
M  V30 12725 H 1206.63 1.22304 -1.06081 0
M  V30 12726 H 1208.62 4.04204 0.200306 0
M  V30 12727 H 1207.19 3.06461 0.616491 0
M  V30 12728 H 1206.41 3.49017 -1.83251 0
M  V30 12729 H 1207.7 4.70306 -1.94138 0
M  V30 12730 H 1207.1 5.54366 1.12673 0
M  V30 12731 H 1205.65 6.45284 0.919321 0
M  V30 12732 N 1209.09 0.96196 1.24836 0
M  V30 12733 C 1210.03 0.48686 2.25607 0
M  V30 12734 C 1211 -0.464546 1.59472 0
M  V30 12735 O 1212.19 -0.376179 1.87055 0
M  V30 12736 C 1209.33 -0.222294 3.44383 0
M  V30 12737 C 1208.44 0.767206 4.25133 0
M  V30 12738 C 1207.58 0.0347458 5.31189 0
M  V30 12739 C 1206.61 1.01469 6.03631 0
M  V30 12740 N 1205.75 0.312619 7.01404 0
M  V30 12741 H 1210.59 1.35104 2.65614 0
M  V30 12742 H 1208.13 0.677373 1.30576 0
M  V30 12743 H 1210.09 -0.650087 4.12104 0
M  V30 12744 H 1208.72 -1.05047 3.0523 0
M  V30 12745 H 1207.77 1.31346 3.57005 0
M  V30 12746 H 1209.08 1.5147 4.75245 0
M  V30 12747 H 1208.23 -0.451325 6.05019 0
M  V30 12748 H 1206.97 -0.745485 4.81969 0
M  V30 12749 H 1205.98 1.51169 5.28609 0
M  V30 12750 H 1207.2 1.79527 6.5494 0
M  V30 12751 H 1205.15 -0.44874 6.54463 0
M  V30 12752 H 1205.07 0.999079 7.49369 0
M  V30 12753 H 1206.33 -0.151673 7.79352 0
M  V30 12754 N 1210.56 -1.39601 0.731392 0
M  V30 12755 C 1211.98 -1.54334 0.406594 0
M  V30 12756 C 1212.18 -1.69925 -1.08295 0
M  V30 12757 O 1211.24 -1.69771 -1.86906 0
M  V30 12758 C 1212.55 -2.76303 1.18647 0
M  V30 12759 C 1214.1 -2.90135 1.17433 0
M  V30 12760 C 1214.57 -4.15038 1.93669 0
M  V30 12761 N 1216.06 -4.2207 1.90817 0
M  V30 12762 C 1216.8 -5.17656 2.46616 0
M  V30 12763 N 1216.29 -6.19054 3.11037 0
M  V30 12764 N 1218.09 -5.09847 2.3667 0
M  V30 12765 H 1210.24 -1.27728 1.69703 0
M  V30 12766 H 1212.5 -0.6188 0.718186 0
M  V30 12767 H 1212.21 -2.71113 2.24032 0
M  V30 12768 H 1212.08 -3.68866 0.788514 0
M  V30 12769 H 1214.47 -2.9482 0.128615 0
M  V30 12770 H 1214.55 -1.98646 1.61163 0
M  V30 12771 H 1214.19 -4.11115 2.9824 0
M  V30 12772 H 1214.12 -5.05565 1.47349 0
M  V30 12773 H 1216.61 -3.49437 1.43882 0
M  V30 12774 H 1216.93 -6.88444 3.51091 0
M  V30 12775 H 1215.27 -6.19452 3.15126 0
M  V30 12776 H 1218.46 -4.29566 1.85987 0
M  V30 12777 H 1218.64 -5.84165 2.80455 0
M  V30 12778 N 1212.04 -0.478751 -1.50152 0
M  V30 12779 C 1213.45 -0.0254907 -1.86683 0
M  V30 12780 C 1213.8 1.38171 -1.39295 0
M  V30 12781 O 1212.93 2.0257 -0.761207 0
M  V30 12782 C 1213.52 -0.0394819 -3.38777 0
M  V30 12783 C 1212.08 0.35834 -3.7469 0
M  V30 12784 C 1211.23 -0.421667 -2.74075 0
M  V30 12785 H 1214.18 -0.692653 -1.42787 0
M  V30 12786 H 1214.2 0.760957 -3.72813 0
M  V30 12787 H 1213.71 -1.06378 -3.73236 0
M  V30 12788 H 1211.82 1.38671 -3.45834 0
M  V30 12789 H 1211.93 0.0543589 -4.79069 0
M  V30 12790 H 1210.29 0.125634 -2.5439 0
M  V30 12791 H 1211.08 -1.44562 -3.11379 0
M  V30 12792 N 1213.52 1.56172 -0.211661 0
M  V30 12793 C 1214.75 2.02874 0.430905 0
M  V30 12794 C 1215.17 1.09064 1.53254 0
M  V30 12795 O 1214.53 0.0770408 1.81136 0
M  V30 12796 C 1214.58 3.4789 0.948933 0
M  V30 12797 O 1213.68 3.57213 2.0609 0
M  V30 12798 H 1213.02 0.656614 0.0987607 0
M  V30 12799 H 1215.55 2.01964 -0.327399 0
M  V30 12800 H 1215.56 3.88015 1.2613 0
M  V30 12801 H 1214.24 4.15656 0.142584 0
M  V30 12802 H 1212.81 3.28971 1.75592 0
M  V30 12803 N 1215 -0.0618163 1.57479 0
M  V30 12804 C 1215.96 -1.05684 2.0338 0
M  V30 12805 C 1216.96 -1.31006 0.932423 0
M  V30 12806 O 1218.15 -1.26559 1.19702 0
M  V30 12807 C 1215.28 -2.39805 2.42294 0
M  V30 12808 H 1216.48 -0.661006 2.92525 0
M  V30 12809 H 1214.03 -0.307814 1.53239 0
M  V30 12810 H 1214.76 -2.84201 1.56207 0
M  V30 12811 H 1214.55 -2.22764 3.22674 0
M  V30 12812 H 1216.04 -3.11307 2.78349 0
M  V30 12813 N 1216.48 -1.54033 -0.333429 0
M  V30 12814 C 1217.42 -1.82729 -1.40992 0
M  V30 12815 C 1218.39 -0.673677 -1.51825 0
M  V30 12816 O 1219.58 -0.919126 -1.67203 0
M  V30 12817 C 1216.72 -2.05155 -2.77498 0
M  V30 12818 C 1215.83 -3.32854 -2.75376 0
M  V30 12819 C 1214.97 -3.45294 -4.03665 0
M  V30 12820 C 1214.01 -4.66905 -3.95811 0
M  V30 12821 N 1213.14 -4.76323 -5.1581 0
M  V30 12822 H 1217.98 -2.74572 -1.15821 0
M  V30 12823 H 1215.52 -1.35988 -0.560859 0
M  V30 12824 H 1217.48 -2.16148 -3.56841 0
M  V30 12825 H 1216.11 -1.16615 -3.01 0
M  V30 12826 H 1215.16 -3.30651 -1.88081 0
M  V30 12827 H 1216.47 -4.22299 -2.65453 0
M  V30 12828 H 1215.63 -3.55775 -4.91436 0
M  V30 12829 H 1214.36 -2.53924 -4.16382 0
M  V30 12830 H 1213.37 -4.56491 -3.06425 0
M  V30 12831 H 1214.59 -5.59649 -3.84668 0
M  V30 12832 H 1212.54 -3.87866 -5.29052 0
M  V30 12833 H 1212.46 -5.59719 -5.08184 0
M  V30 12834 H 1213.73 -4.91125 -6.05324 0
M  V30 12835 N 1217.95 0.594978 -1.45938 0
M  V30 12836 C 1218.9 1.69949 -1.51991 0
M  V30 12837 C 1219.89 1.56301 -0.381956 0
M  V30 12838 O 1221.08 1.65423 -0.62961 0
M  V30 12839 C 1218.21 3.08723 -1.5015 0
M  V30 12840 C 1217.3 3.27712 -2.69194 0
M  V30 12841 N 1217.69 3.1691 -3.9421 0
M  V30 12842 C 1215.98 3.58618 -2.65158 0
M  V30 12843 C 1216.69 3.37572 -4.7373 0
M  V30 12844 N 1215.66 3.62154 -4.05395 0
M  V30 12845 H 1219.46 1.60109 -2.46459 0
M  V30 12846 H 1216.98 0.798634 -1.41406 0
M  V30 12847 H 1218.97 3.87978 -1.52573 0
M  V30 12848 H 1217.63 3.19702 -0.567488 0
M  V30 12849 H 1218.65 2.95039 -4.25643 0
M  V30 12850 H 1215.32 3.76358 -1.80724 0
M  V30 12851 H 1216.71 3.34507 -5.82713 0
M  V30 12852 N 1219.43 1.33438 0.838571 0
M  V30 12853 C 1220.68 1.25097 1.5962 0
M  V30 12854 C 1221.01 -0.182798 1.93338 0
M  V30 12855 O 1220.29 -1.1242 1.5872 0
M  V30 12856 C 1220.57 2.12655 2.90603 0
M  V30 12857 C 1220.42 3.64491 2.63565 0
M  V30 12858 C 1221.74 1.99994 3.92033 0
M  V30 12859 H 1218.86 0.455776 0.579169 0
M  V30 12860 H 1221.5 1.63542 0.967169 0
M  V30 12861 H 1219.65 1.79998 3.44286 0
M  V30 12862 H 1221.32 4.0744 2.16312 0
M  V30 12863 H 1219.57 3.86356 1.9726 0
M  V30 12864 H 1220.24 4.21101 3.569 0
M  V30 12865 H 1222.71 2.28635 3.47657 0
M  V30 12866 H 1221.59 2.63509 4.81512 0
M  V30 12867 H 1221.85 0.972263 4.31277 0
M  V30 12868 N 1220.91 -1.05686 1.16912 0
M  V30 12869 C 1221.84 -2.15268 0.904532 0
M  V30 12870 C 1222.82 -1.69424 -0.151548 0
M  V30 12871 O 1224.01 -1.942 -0.00235371 0
M  V30 12872 C 1221.14 -3.44853 0.411581 0
M  V30 12873 C 1220.09 -4.04237 1.40628 0
M  V30 12874 C 1219.42 -5.29105 0.771479 0
M  V30 12875 C 1220.72 -4.42303 2.77787 0
M  V30 12876 H 1222.41 -2.37659 1.82094 0
M  V30 12877 H 1219.96 -1.14217 0.876947 0
M  V30 12878 H 1221.91 -4.20857 0.213929 0
M  V30 12879 H 1220.63 -3.22099 -0.540352 0
M  V30 12880 H 1219.29 -3.30297 1.59058 0
M  V30 12881 H 1218.94 -5.02652 -0.187133 0
M  V30 12882 H 1218.64 -5.69797 1.43545 0
M  V30 12883 H 1220.16 -6.07801 0.583988 0
M  V30 12884 H 1221.58 -5.09362 2.63103 0
M  V30 12885 H 1219.98 -4.93997 3.40716 0
M  V30 12886 H 1221.05 -3.52877 3.32575 0
M  V30 12887 N 1222.39 -0.968567 -1.24324 0
M  V30 12888 C 1223.34 -0.498817 -2.25345 0
M  V30 12889 C 1224.31 0.456082 -1.59716 0
M  V30 12890 O 1225.49 0.366254 -1.87252 0
M  V30 12891 C 1222.63 0.204027 -3.44496 0
M  V30 12892 C 1221.74 -0.789741 -4.2472 0
M  V30 12893 C 1220.88 -0.0629156 -5.31163 0
M  V30 12894 C 1219.92 -1.04669 -6.03084 0
M  V30 12895 N 1219.05 -0.349812 -7.01228 0
M  V30 12896 H 1223.89 -1.36511 -2.64894 0
M  V30 12897 H 1221.43 -0.684288 -1.30215 0
M  V30 12898 H 1223.39 0.628223 -4.12443 0
M  V30 12899 H 1222.02 1.03426 -3.05782 0
M  V30 12900 H 1221.07 -1.33237 -3.56303 0
M  V30 12901 H 1222.38 -1.53988 -4.74436 0
M  V30 12902 H 1221.54 0.419233 -6.0525 0
M  V30 12903 H 1220.28 0.719915 -4.82357 0
M  V30 12904 H 1219.28 -1.53971 -5.278 0
M  V30 12905 H 1220.51 -1.82998 -6.53979 0
M  V30 12906 H 1218.45 0.414026 -6.54692 0
M  V30 12907 H 1218.37 -1.03881 -7.48829 0
M  V30 12908 H 1219.64 0.11034 -7.79422 0
M  V30 12909 N 1223.87 1.39211 -0.738786 0
M  V30 12910 C 1224.82 2.27869 -0.0772787 0
M  V30 12911 C 1225.8 1.44452 0.708683 0
M  V30 12912 O 1226.99 1.67329 0.57707 0
M  V30 12913 C 1224.12 3.33206 0.826364 0
M  V30 12914 C 1223.21 4.24086 0.034349 0
M  V30 12915 N 1223.6 4.95928 -0.99446 0
M  V30 12916 C 1221.9 4.45221 0.26343 0
M  V30 12917 C 1222.6 5.62757 -1.47238 0
M  V30 12918 N 1221.57 5.37824 -0.790305 0
M  V30 12919 H 1225.38 2.80869 -0.865447 0
M  V30 12920 H 1222.89 1.51938 -0.573462 0
M  V30 12921 H 1224.89 3.95592 1.31578 0
M  V30 12922 H 1223.55 2.81765 1.61365 0
M  V30 12923 H 1224.56 4.99289 -1.37591 0
M  V30 12924 H 1221.23 4.04717 1.02522 0
M  V30 12925 H 1222.62 6.30261 -2.32853 0
M  V30 12926 N 1225.34 0.486708 1.49896 0
M  V30 12927 C 1226.76 0.0353906 1.86666 0
M  V30 12928 C 1227.11 -1.3743 1.40026 0
M  V30 12929 O 1226.23 -2.02163 0.77194 0
M  V30 12930 C 1226.83 0.0574475 3.38751 0
M  V30 12931 C 1225.39 -0.338464 3.74875 0
M  V30 12932 C 1224.53 0.436196 2.73848 0
M  V30 12933 H 1227.48 0.700215 1.42417 0
M  V30 12934 H 1227.5 -0.741175 3.73212 0
M  V30 12935 H 1227.02 1.08356 3.72667 0
M  V30 12936 H 1225.12 -1.36835 3.46565 0
M  V30 12937 H 1225.23 -0.0289519 4.79091 0
M  V30 12938 H 1223.59 -0.112141 2.54453 0
M  V30 12939 H 1224.38 1.46212 3.10608 0
M  V30 12940 N 1226.82 -1.56058 0.219941 0
M  V30 12941 C 1228.07 -1.9826 -0.412197 0
M  V30 12942 C 1228.4 -1.10754 -1.59887 0
M  V30 12943 O 1227.65 -0.15212 -1.95108 0
M  V30 12944 C 1227.95 -3.46113 -0.8911 0
M  V30 12945 C 1227.62 -4.50521 0.184877 0
M  V30 12946 C 1226.28 -4.78795 0.480462 0
M  V30 12947 C 1228.63 -5.13147 0.912652 0
M  V30 12948 C 1225.96 -5.66979 1.50837 0
M  V30 12949 C 1228.31 -6.02444 1.92988 0
M  V30 12950 C 1226.98 -6.29063 2.2324 0
M  V30 12951 H 1226.25 -0.725486 -0.150834 0
M  V30 12952 H 1228.89 -1.88771 0.322122 0
M  V30 12953 H 1227.2 -3.52797 -1.70415 0
M  V30 12954 H 1228.9 -3.76137 -1.39003 0
M  V30 12955 H 1225.49 -4.28564 -0.0556594 0
M  V30 12956 H 1229.67 -4.91374 0.697532 0
M  V30 12957 H 1224.93 -5.85868 1.74839 0
M  V30 12958 H 1229.1 -6.50022 2.49889 0
M  V30 12959 H 1226.73 -6.97191 3.03032 0
M  V30 12960 N 1228.3 0.053464 -1.57509 0
M  V30 12961 C 1229.55 0.749102 -1.88135 0
M  V30 12962 C 1229.88 1.76642 -0.814111 0
M  V30 12963 O 1229.13 1.94796 0.187845 0
M  V30 12964 C 1229.43 1.47666 -3.25468 0
M  V30 12965 C 1229.1 0.597619 -4.46922 0
M  V30 12966 C 1227.76 0.355429 -4.79886 0
M  V30 12967 C 1230.11 -0.0107869 -5.21199 0
M  V30 12968 C 1227.44 -0.504347 -5.84528 0
M  V30 12969 C 1229.79 -0.858123 -6.26753 0
M  V30 12970 C 1228.45 -1.11001 -6.58206 0
M  V30 12971 H 1227.72 0.274116 -0.688434 0
M  V30 12972 H 1230.37 0.00944162 -1.91498 0
M  V30 12973 H 1228.68 2.28901 -3.1798 0
M  V30 12974 H 1230.37 2.02002 -3.46404 0
M  V30 12975 H 1226.96 0.796526 -4.21134 0
M  V30 12976 H 1231.15 0.163404 -4.96031 0
M  V30 12977 H 1226.4 -0.708057 -6.07286 0
M  V30 12978 H 1230.58 -1.3362 -6.83461 0
M  V30 12979 H 1228.2 -1.77798 -7.39116 0
M  V30 12980 N 1229.78 1.54207 0.325255 0
M  V30 12981 C 1231.03 1.73523 1.06119 0
M  V30 12982 C 1231.38 0.501912 1.85738 0
M  V30 12983 O 1230.67 -0.505659 1.84807 0
M  V30 12984 C 1230.87 2.95 2.01766 0
M  V30 12985 C 1230.7 4.30028 1.31552 0
M  V30 12986 C 1229.47 4.94212 1.05273 0
M  V30 12987 C 1231.66 5.0906 0.732304 0
M  V30 12988 N 1229.65 6.13074 0.318312 0
M  V30 12989 C 1231.02 6.19865 0.12941 0
M  V30 12990 C 1233.07 4.93835 0.634951 0
M  V30 12991 C 1231.78 7.17106 -0.561389 0
M  V30 12992 C 1233.8 5.91385 -0.0421426 0
M  V30 12993 C 1233.16 7.01541 -0.633988 0
M  V30 12994 H 1229.26 0.687811 0.372076 0
M  V30 12995 H 1231.85 1.91662 0.342581 0
M  V30 12996 H 1230.02 2.78329 2.70901 0
M  V30 12997 H 1231.75 3.02952 2.68333 0
M  V30 12998 H 1228.5 4.54111 1.34462 0
M  V30 12999 H 1228.93 6.76991 -0.0347026 0
M  V30 13000 H 1233.57 4.0882 1.07825 0
M  V30 13001 H 1231.29 8.01681 -1.01652 0
M  V30 13002 H 1234.87 5.81682 -0.117085 0
M  V30 13003 H 1233.75 7.75728 -1.1496 0
M  V30 13004 N 1231.26 -0.58723 1.46251 0
M  V30 13005 C 1232.48 -1.37661 1.55126 0
M  V30 13006 C 1232.91 -1.87123 0.191489 0
M  V30 13007 O 1232.27 -1.6131 -0.827576 0
M  V30 13008 C 1232.31 -2.54324 2.5564 0
M  V30 13009 O 1231.42 -3.55617 2.0883 0
M  V30 13010 H 1230.76 -0.410154 0.522178 0
M  V30 13011 H 1233.29 -0.712738 1.91784 0
M  V30 13012 H 1233.3 -3.01301 2.75103 0
M  V30 13013 H 1231.97 -2.17675 3.54387 0
M  V30 13014 H 1230.55 -3.15151 1.99335 0
M  V30 13015 N 1232.74 -1.33881 -0.831482 0
M  V30 13016 C 1233.67 -1.27384 -1.95693 0
M  V30 13017 C 1234.65 -0.152943 -1.69411 0
M  V30 13018 O 1235.83 -0.34392 -1.9113 0
M  V30 13019 C 1232.96 -1.01982 -3.31989 0
M  V30 13020 C 1231.92 -2.10445 -3.72689 0
M  V30 13021 C 1231.24 -1.70245 -5.06873 0
M  V30 13022 C 1232.54 -3.52194 -3.8569 0
M  V30 13023 H 1234.24 -2.21549 -2.01386 0
M  V30 13024 H 1231.78 -1.06653 -0.967526 0
M  V30 13025 H 1233.73 -0.960841 -4.103 0
M  V30 13026 H 1232.46 -0.0425709 -3.26572 0
M  V30 13027 H 1231.12 -2.15398 -2.96647 0
M  V30 13028 H 1230.77 -0.712036 -4.97935 0
M  V30 13029 H 1230.47 -2.42834 -5.35075 0
M  V30 13030 H 1231.99 -1.65827 -5.87651 0
M  V30 13031 H 1233.4 -3.49701 -4.54293 0
M  V30 13032 H 1231.8 -4.23331 -4.25336 0
M  V30 13033 H 1232.87 -3.9016 -2.87929 0
M  V30 13034 N 1234.21 1.05064 -1.1747 0
M  V30 13035 C 1235.12 2.16346 -0.907286 0
M  V30 13036 C 1236.14 1.7355 0.125013 0
M  V30 13037 O 1237.32 2.01326 -0.0545551 0
M  V30 13038 C 1234.38 3.44077 -0.425681 0
M  V30 13039 C 1233.44 4.01311 -1.52473 0
M  V30 13040 C 1232.67 5.22946 -1.06601 0
M  V30 13041 O 1232.9 5.70345 0.0793329 0
M  V30 13042 O 1231.83 5.72454 -1.85958 0
M  V30 13043 H 1235.66 2.41754 -1.83817 0
M  V30 13044 H 1233.24 1.14834 -0.955693 0
M  V30 13045 H 1235.12 4.21078 -0.164689 0
M  V30 13046 H 1233.8 3.20166 0.477037 0
M  V30 13047 H 1232.71 3.25744 -1.83961 0
M  V30 13048 H 1234.04 4.29543 -2.4032 0
M  V30 13049 N 1235.69 0.975146 1.23809 0
M  V30 13050 C 1236.64 0.510761 2.25077 0
M  V30 13051 C 1237.61 -0.447605 1.59955 0
M  V30 13052 O 1238.79 -0.356318 1.87443 0
M  V30 13053 C 1235.93 -0.185755 3.446 0
M  V30 13054 C 1235.05 0.812254 4.24295 0
M  V30 13055 C 1234.18 0.0910835 5.31122 0
M  V30 13056 C 1233.22 1.07866 6.02521 0
M  V30 13057 N 1232.36 0.386995 7.01033 0
M  V30 13058 H 1237.2 1.37913 2.64166 0
M  V30 13059 H 1234.73 0.691184 1.2985 0
M  V30 13060 H 1236.69 -0.606341 4.1277 0
M  V30 13061 H 1235.32 -1.01803 3.06327 0
M  V30 13062 H 1234.37 1.35125 3.55592 0
M  V30 13063 H 1235.69 1.56502 4.73612 0
M  V30 13064 H 1234.84 -0.387129 6.05464 0
M  V30 13065 H 1233.58 -0.694324 4.82732 0
M  V30 13066 H 1232.58 1.56767 5.26976 0
M  V30 13067 H 1233.81 1.86464 6.52999 0
M  V30 13068 H 1231.76 -0.3793 6.54903 0
M  V30 13069 H 1231.67 1.0785 7.48268 0
M  V30 13070 H 1232.94 -0.0690036 7.79469 0
M  V30 13071 N 1237.17 -1.38817 0.746158 0
M  V30 13072 C 1238.1 -2.29081 0.0737986 0
M  V30 13073 C 1239.11 -1.47377 -0.691656 0
M  V30 13074 O 1240.3 -1.70326 -0.533973 0
M  V30 13075 C 1237.4 -3.26185 -0.919607 0
M  V30 13076 C 1236.58 -4.36879 -0.213349 0
M  V30 13077 C 1235.64 -5.1422 -1.11644 0
M  V30 13078 O 1234.66 -5.66137 -0.589747 0
M  V30 13079 N 1235.86 -5.26488 -2.44521 0
M  V30 13080 H 1238.63 -2.87424 0.848966 0
M  V30 13081 H 1236.19 -1.50518 0.596314 0
M  V30 13082 H 1238.18 -3.74802 -1.52662 0
M  V30 13083 H 1236.75 -2.68793 -1.5959 0
M  V30 13084 H 1235.97 -3.89994 0.574285 0
M  V30 13085 H 1237.26 -5.08053 0.275655 0
M  V30 13086 H 1236.66 -4.85846 -2.89777 0
M  V30 13087 H 1235.21 -5.78505 -3.00291 0
M  V30 13088 N 1238.65 -0.49465 -1.49636 0
M  V30 13089 C 1239.58 0.276606 -2.31856 0
M  V30 13090 C 1240.56 0.968499 -1.39836 0
M  V30 13091 O 1241.74 0.96113 -1.68748 0
M  V30 13092 C 1238.87 1.34522 -3.20189 0
M  V30 13093 C 1237.83 0.773571 -4.20951 0
M  V30 13094 C 1237.15 1.94223 -4.98178 0
M  V30 13095 C 1238.45 -0.231096 -5.21788 0
M  V30 13096 H 1240.15 -0.409668 -2.96584 0
M  V30 13097 H 1237.69 -0.198461 -1.42626 0
M  V30 13098 H 1239.65 1.89244 -3.76517 0
M  V30 13099 H 1238.37 2.06059 -2.53392 0
M  V30 13100 H 1237.03 0.248144 -3.65759 0
M  V30 13101 H 1236.68 2.64514 -4.27834 0
M  V30 13102 H 1236.38 1.56584 -5.66353 0
M  V30 13103 H 1237.9 2.49391 -5.57348 0
M  V30 13104 H 1239.32 0.227768 -5.72847 0
M  V30 13105 H 1237.71 -0.522984 -5.97817 0
M  V30 13106 H 1238.78 -1.14914 -4.71087 0
M  V30 13107 N 1240.13 1.55939 -0.228214 0
M  V30 13108 C 1241.06 2.17874 0.711589 0
M  V30 13109 C 1242.07 1.14969 1.15265 0
M  V30 13110 O 1243.26 1.41919 1.08265 0
M  V30 13111 C 1240.36 2.75294 1.97652 0
M  V30 13112 C 1239.53 4.03435 1.68994 0
M  V30 13113 C 1238.59 4.45354 2.8026 0
M  V30 13114 O 1237.62 5.12117 2.48445 0
M  V30 13115 N 1238.82 4.11588 4.0936 0
M  V30 13116 H 1241.58 2.99148 0.181757 0
M  V30 13117 H 1239.15 1.6183 -0.0474567 0
M  V30 13118 H 1241.14 3.00305 2.71292 0
M  V30 13119 H 1239.71 1.98285 2.41665 0
M  V30 13120 H 1238.93 3.8621 0.789657 0
M  V30 13121 H 1240.22 4.87015 1.47287 0
M  V30 13122 H 1239.61 3.57953 4.38048 0
M  V30 13123 H 1238.17 4.41477 4.79522 0
M  V30 13124 N 1241.6 -0.0451101 1.57535 0
M  V30 13125 C 1242.85 -0.739114 1.88529 0
M  V30 13126 C 1243.18 -1.76208 0.823468 0
M  V30 13127 O 1242.43 -1.94893 -0.177512 0
M  V30 13128 C 1242.73 -1.45938 3.26247 0
M  V30 13129 C 1242.4 -0.57391 4.47233 0
M  V30 13130 C 1241.06 -0.329974 4.80067 0
M  V30 13131 C 1243.41 0.0384272 5.21186 0
M  V30 13132 C 1240.74 0.535339 5.84253 0
M  V30 13133 C 1243.09 0.891349 6.26289 0
M  V30 13134 C 1241.76 1.1449 6.57608 0
M  V30 13135 H 1241.03 -0.270461 0.689878 0
M  V30 13136 H 1243.67 0.000714103 1.915 0
M  V30 13137 H 1241.98 -2.27212 3.1919 0
M  V30 13138 H 1243.68 -2.00162 3.47471 0
M  V30 13139 H 1240.27 -0.774181 4.2155 0
M  V30 13140 H 1244.45 -0.137096 4.96111 0
M  V30 13141 H 1239.71 0.740253 6.06902 0
M  V30 13142 H 1243.88 1.37243 6.82743 0
M  V30 13143 H 1241.51 1.81715 7.38162 0
M  V30 13144 N 1243.08 -1.54377 -0.317073 0
M  V30 13145 C 1244.33 -1.72893 -1.05424 0
M  V30 13146 C 1244.66 -0.506082 -1.87801 0
M  V30 13147 O 1243.91 0.51213 -1.8888 0
M  V30 13148 C 1244.21 -2.96066 -2.00199 0
M  V30 13149 C 1243.88 -4.30551 -1.33927 0
M  V30 13150 C 1242.54 -4.67112 -1.15584 0
M  V30 13151 C 1244.89 -5.13986 -0.864158 0
M  V30 13152 C 1242.22 -5.84701 -0.483892 0
M  V30 13153 C 1244.57 -6.32264 -0.206006 0
M  V30 13154 C 1243.24 -6.67499 -0.0104849 0
M  V30 13155 H 1242.51 -0.63266 -0.385776 0
M  V30 13156 H 1245.15 -1.88623 -0.330722 0
M  V30 13157 H 1243.46 -2.7505 -2.79024 0
M  V30 13158 H 1245.15 -3.07586 -2.57278 0
M  V30 13159 H 1241.74 -4.0179 -1.49207 0
M  V30 13160 H 1245.93 -4.86252 -0.993635 0
M  V30 13161 H 1241.18 -6.10555 -0.32127 0
M  V30 13162 H 1245.36 -6.96192 0.170108 0
M  V30 13163 H 1242.99 -7.58472 0.512209 0
M  V30 13164 N 1244.56 0.579466 -1.4656 0
M  V30 13165 C 1245.49 1.70291 -1.53406 0
M  V30 13166 C 1246.51 1.57232 -0.422116 0
M  V30 13167 O 1247.69 1.64598 -0.69064 0
M  V30 13168 C 1244.79 3.08572 -1.40131 0
M  V30 13169 C 1243.97 3.47602 -2.65502 0
M  V30 13170 C 1243.03 4.64955 -2.4638 0
M  V30 13171 O 1242.05 4.70653 -3.20116 0
M  V30 13172 N 1243.25 5.60041 -1.52756 0
M  V30 13173 H 1246.02 1.64873 -2.50274 0
M  V30 13174 H 1243.58 0.765533 -1.42658 0
M  V30 13175 H 1245.57 3.84877 -1.25106 0
M  V30 13176 H 1244.14 3.0834 -0.514322 0
M  V30 13177 H 1243.36 2.60969 -2.95446 0
M  V30 13178 H 1244.65 3.70446 -3.48779 0
M  V30 13179 H 1244.05 5.58176 -0.919587 0
M  V30 13180 H 1242.61 6.35764 -1.43693 0
M  V30 13181 N 1246.04 1.3432 0.824371 0
M  V30 13182 C 1247.32 1.17178 1.56616 0
M  V30 13183 C 1247.7 -0.256195 2.0954 0
M  V30 13184 O 1247.04 -1.25732 1.90798 0
M  V30 13185 C 1247.25 2.22511 2.68867 0
M  V30 13186 C 1248.6 2.57414 3.37673 0
M  V30 13187 O 1249.63 2.2129 2.79122 0
M  V30 13188 O 1248.48 3.19462 4.43403 0
M  V30 13189 H 1245.58 0.454141 0.691147 0
M  V30 13190 H 1248.12 1.45948 0.865869 0
M  V30 13191 H 1246.9 3.18366 2.27505 0
M  V30 13192 H 1246.52 1.9491 3.46548 0
M  V30 13193 N 1247.52 -1.0444 1.18026 0
M  V30 13194 C 1248.76 -1.77838 0.974756 0
M  V30 13195 C 1249.1 -1.87792 -0.494755 0
M  V30 13196 O 1248.37 -1.38327 -1.36733 0
M  V30 13197 C 1248.65 -3.21315 1.62569 0
M  V30 13198 C 1248.51 -3.19327 3.16781 0
M  V30 13199 C 1249.83 -4.19337 1.33583 0
M  V30 13200 H 1246.94 -0.645575 0.35553 0
M  V30 13201 H 1249.59 -1.22023 1.45638 0
M  V30 13202 H 1247.74 -3.68974 1.21617 0
M  V30 13203 H 1249.41 -2.79687 3.66842 0
M  V30 13204 H 1247.65 -2.57461 3.49137 0
M  V30 13205 H 1248.32 -4.20626 3.5746 0
M  V30 13206 H 1250.8 -3.80208 1.69059 0
M  V30 13207 H 1249.67 -5.17953 1.81702 0
M  V30 13208 H 1249.94 -4.41346 0.258016 0
M  V30 13209 N 1248.99 -0.981699 -1.2329 0
M  V30 13210 C 1250.22 -0.669025 -1.96313 0
M  V30 13211 C 1250.64 0.757624 -1.72168 0
M  V30 13212 O 1250 1.51626 -0.993942 0
M  V30 13213 C 1250.05 -0.966875 -3.47396 0
M  V30 13214 O 1249.15 -0.0595933 -4.12357 0
M  V30 13215 H 1248.5 -0.251493 -0.61453 0
M  V30 13216 H 1251.03 -1.31564 -1.56691 0
M  V30 13217 H 1251.04 -0.904112 -3.97857 0
M  V30 13218 H 1249.71 -2.00651 -3.64296 0
M  V30 13219 H 1248.29 -0.176878 -3.7248 0
M  V30 13220 N 1250.47 1.3842 -0.753509 0
M  V30 13221 C 1251.75 1.94181 -0.235142 0
M  V30 13222 C 1252.13 1.68881 1.26659 0
M  V30 13223 O 1251.48 1.02731 2.04104 0
M  V30 13224 C 1251.69 3.43998 -0.588751 0
M  V30 13225 C 1253.04 4.21044 -0.548352 0
M  V30 13226 O 1254.06 3.52279 -0.52704 0
M  V30 13227 O 1252.92 5.43631 -0.559221 0
M  V30 13228 H 1250.01 0.825536 -0.0491834 0
M  V30 13229 H 1252.56 1.47813 -0.833626 0
M  V30 13230 H 1251.33 3.55921 -1.6259 0
M  V30 13231 H 1250.95 3.97582 0.0377429 0
M  V30 13232 N 1251.95 0.502579 1.49372 0
M  V30 13233 C 1253.37 0.158641 1.5881 0
M  V30 13234 C 1253.57 -1.33688 1.50764 0
M  V30 13235 O 1252.62 -2.11295 1.38241 0
M  V30 13236 C 1253.94 0.736843 2.91532 0
M  V30 13237 C 1255.48 0.703093 3.05001 0
M  V30 13238 C 1255.96 1.25938 4.40345 0
M  V30 13239 N 1257.45 1.22015 4.46841 0
M  V30 13240 C 1258.18 1.62076 5.50017 0
M  V30 13241 N 1257.68 2.09736 6.6029 0
M  V30 13242 N 1259.47 1.53482 5.4074 0
M  V30 13243 H 1251.62 1.47487 1.52844 0
M  V30 13244 H 1253.89 0.611851 0.724115 0
M  V30 13245 H 1253.59 1.78573 3.02992 0
M  V30 13246 H 1253.47 0.198178 3.76679 0
M  V30 13247 H 1255.85 -0.336965 2.9317 0
M  V30 13248 H 1255.94 1.27892 2.21534 0
M  V30 13249 H 1255.58 2.29823 4.52928 0
M  V30 13250 H 1255.51 0.659481 5.22454 0
M  V30 13251 H 1258 0.870957 3.67726 0
M  V30 13252 H 1258.31 2.3837 7.35119 0
M  V30 13253 H 1256.66 2.13712 6.61326 0
M  V30 13254 H 1259.85 1.16065 4.53483 0
M  V30 13255 H 1260.02 1.85026 6.21023 0
M  V30 13256 N 1253.43 -1.55816 0.23648 0
M  V30 13257 C 1254.68 -1.97862 -0.391579 0
M  V30 13258 C 1254.99 -1.1276 -1.59827 0
M  V30 13259 O 1256.2 -1.44772 -2.29681 0
M  V30 13260 C 1254.65 -3.5204 -0.748065 0
M  V30 13261 C 1254.26 -4.45867 0.436643 0
M  V30 13262 C 1256 -4.02766 -1.3409 0
M  V30 13263 C 1253.91 -5.91373 0.0568909 0
M  V30 13264 H 1252.84 -0.738913 -0.150078 0
M  V30 13265 H 1255.49 -1.80415 0.335052 0
M  V30 13266 H 1253.87 -3.65143 -1.53254 0
M  V30 13267 H 1255.05 -4.44519 1.21408 0
M  V30 13268 H 1253.36 -4.05565 0.943702 0
M  V30 13269 H 1255.96 -5.08987 -1.63817 0
M  V30 13270 H 1256.3 -3.49496 -2.26182 0
M  V30 13271 H 1256.84 -3.92946 -0.619548 0
M  V30 13272 H 1253.58 -6.48657 0.944682 0
M  V30 13273 H 1253.1 -5.95881 -0.684557 0
M  V30 13274 H 1254.77 -6.45972 -0.364586 0
M  V30 13275 N 1254.91 0.036755 -1.57557 0
M  V30 13276 C 1255.82 1.05687 -2.09446 0
M  V30 13277 C 1256.83 1.40137 -1.03139 0
M  V30 13278 O 1258.01 1.49611 -1.34828 0
M  V30 13279 C 1255.07 2.34114 -2.55717 0
M  V30 13280 C 1254.13 2.06316 -3.76473 0
M  V30 13281 C 1253.37 3.2862 -4.20529 0
M  V30 13282 O 1253.59 4.3902 -3.64167 0
M  V30 13283 O 1252.52 3.14772 -5.13033 0
M  V30 13284 H 1256.35 0.64593 -2.96751 0
M  V30 13285 H 1253.94 0.253235 -1.47238 0
M  V30 13286 H 1255.82 3.09631 -2.85844 0
M  V30 13287 H 1254.49 2.74519 -1.71526 0
M  V30 13288 H 1253.4 1.28392 -3.51378 0
M  V30 13289 H 1254.73 1.70772 -4.61625 0
M  V30 13290 N 1256.39 1.54543 0.308881 0
M  V30 13291 C 1257.33 1.84949 1.38067 0
M  V30 13292 C 1258.3 0.697746 1.50734 0
M  V30 13293 O 1259.49 0.94561 1.65719 0
M  V30 13294 C 1256.63 2.09544 2.74199 0
M  V30 13295 C 1255.74 3.37193 2.70046 0
M  V30 13296 C 1254.88 3.51672 3.98121 0
M  V30 13297 C 1253.91 4.73143 3.88333 0
M  V30 13298 N 1253.05 4.84469 5.08167 0
M  V30 13299 H 1257.89 2.76379 1.11438 0
M  V30 13300 H 1255.43 1.36863 0.539153 0
M  V30 13301 H 1257.39 2.21798 3.53358 0
M  V30 13302 H 1256.02 1.21389 2.99106 0
M  V30 13303 H 1255.07 3.33601 1.82796 0
M  V30 13304 H 1256.38 4.26468 2.58701 0
M  V30 13305 H 1255.53 3.63548 4.85714 0
M  V30 13306 H 1254.27 2.60516 4.1229 0
M  V30 13307 H 1253.28 4.61308 2.99124 0
M  V30 13308 H 1254.5 5.65698 3.75716 0
M  V30 13309 H 1252.45 3.96234 5.22814 0
M  V30 13310 H 1252.37 5.67733 4.99215 0
M  V30 13311 H 1253.63 5.00693 5.97434 0
M  V30 13312 N 1257.86 -0.571685 1.46866 0
M  V30 13313 C 1258.77 -1.70758 1.60869 0
M  V30 13314 C 1259.79 -1.66903 0.49186 0
M  V30 13315 O 1260.97 -1.86613 0.757468 0
M  V30 13316 C 1258.03 -3.07267 1.60586 0
M  V30 13317 C 1257.09 -3.22301 2.83585 0
M  V30 13318 C 1256.32 -4.52298 2.83306 0
M  V30 13319 O 1256.55 -5.36869 1.92685 0
M  V30 13320 O 1255.48 -4.70814 3.7499 0
M  V30 13321 H 1259.31 -1.6189 2.56954 0
M  V30 13322 H 1256.89 -0.740018 1.29785 0
M  V30 13323 H 1258.77 -3.8853 1.63163 0
M  V30 13324 H 1257.45 -3.16549 0.676637 0
M  V30 13325 H 1256.36 -2.4049 2.86558 0
M  V30 13326 H 1257.69 -3.17916 3.75753 0
M  V30 13327 N 1259.34 -1.34755 -0.817236 0
M  V30 13328 C 1260.57 -1.30676 -1.61054 0
M  V30 13329 C 1260.99 0.115343 -1.87746 0
M  V30 13330 O 1260.35 1.07887 -1.45705 0
M  V30 13331 C 1260.4 -2.10881 -2.92509 0
M  V30 13332 O 1259.5 -1.48223 -3.84842 0
M  V30 13333 H 1258.84 -0.448531 -0.489608 0
M  V30 13334 H 1261.37 -1.77642 -1.01512 0
M  V30 13335 H 1261.38 -2.22446 -3.42026 0
M  V30 13336 H 1260.06 -3.14274 -2.72406 0
M  V30 13337 H 1258.63 -1.45434 -3.4337 0
M  V30 13338 N 1260.82 1.03812 -1.18578 0
M  V30 13339 C 1261.75 2.13802 -0.938665 0
M  V30 13340 C 1262.73 1.69643 0.124575 0
M  V30 13341 O 1263.92 1.94179 -0.0285421 0
M  V30 13342 C 1261.05 3.44154 -0.466392 0
M  V30 13343 C 1260 4.01949 -1.47041 0
M  V30 13344 C 1259.33 5.27811 -0.855558 0
M  V30 13345 C 1260.63 4.37827 -2.84789 0
M  V30 13346 H 1262.32 2.34732 -1.85852 0
M  V30 13347 H 1259.87 1.12808 -0.895007 0
M  V30 13348 H 1261.82 4.20463 -0.280856 0
M  V30 13349 H 1260.54 3.22918 0.489041 0
M  V30 13350 H 1259.2 3.27725 -1.64293 0
M  V30 13351 H 1258.85 5.02886 0.107142 0
M  V30 13352 H 1258.55 5.67441 -1.52592 0
M  V30 13353 H 1260.07 6.06795 -0.680609 0
M  V30 13354 H 1261.49 5.05112 -2.71173 0
M  V30 13355 H 1259.88 4.88514 -3.48532 0
M  V30 13356 H 1260.95 3.47541 -3.38147 0
M  V30 13357 N 1262.3 0.988223 1.22768 0
M  V30 13358 C 1263.57 0.577578 1.86878 0
M  V30 13359 C 1263.95 -0.945197 1.88757 0
M  V30 13360 O 1263.3 -1.82519 1.37474 0
M  V30 13361 C 1263.51 1.19263 3.2799 0
M  V30 13362 C 1264.86 1.29024 4.04522 0
M  V30 13363 O 1265.88 1.14667 3.37239 0
M  V30 13364 O 1264.74 1.51949 5.24951 0
M  V30 13365 H 1261.84 0.195579 0.803541 0
M  V30 13366 H 1264.38 1.0838 1.30582 0
M  V30 13367 H 1263.16 2.23442 3.21231 0
M  V30 13368 H 1262.78 0.671706 3.91885 0
M  V30 13369 N 1263.78 -1.38018 0.760839 0
M  V30 13370 C 1265.02 -1.99557 0.319609 0
M  V30 13371 C 1265.34 -1.60699 -1.10457 0
M  V30 13372 O 1264.61 -0.867248 -1.75658 0
M  V30 13373 H 1263.19 -0.738066 0.115182 0
M  V30 13374 H 1265.86 -1.6867 0.976544 0
M  V30 13375 H 1264.95 -3.09672 0.388523 0
M  V30 13376 N 1265.25 -0.510493 -1.49103 0
M  V30 13377 C 1266.66 -0.0650831 -1.86587 0
M  V30 13378 C 1267.02 1.35185 -1.42195 0
M  V30 13379 O 1266.14 2.0091 -0.804004 0
M  V30 13380 C 1266.74 -0.111333 -3.38617 0
M  V30 13381 C 1265.29 0.278782 -3.75366 0
M  V30 13382 C 1264.44 -0.479707 -2.73119 0
M  V30 13383 H 1267.39 -0.722784 -1.41285 0
M  V30 13384 H 1267.41 0.681706 -3.74343 0
M  V30 13385 H 1266.93 -1.14271 -3.70896 0
M  V30 13386 H 1265.03 1.31304 -3.48698 0
M  V30 13387 H 1265.14 -0.047271 -4.79077 0
M  V30 13388 H 1263.5 0.0716459 -2.54599 0
M  V30 13389 H 1264.29 -1.51135 -3.08242 0
M  V30 13390 N 1266.73 1.55688 -0.24474 0
M  V30 13391 C 1267.98 1.98067 0.381081 0
M  V30 13392 C 1268.29 1.13606 1.59227 0
M  V30 13393 O 1269.5 1.45988 2.2891 0
M  V30 13394 C 1267.96 3.52432 0.729385 0
M  V30 13395 C 1267.56 4.45629 -0.460282 0
M  V30 13396 C 1269.31 4.03471 1.31952 0
M  V30 13397 C 1267.21 5.91334 -0.088252 0
M  V30 13398 H 1266.14 0.739699 0.146157 0
M  V30 13399 H 1268.8 1.80235 -0.344615 0
M  V30 13400 H 1267.18 3.65951 1.51315 0
M  V30 13401 H 1268.35 4.43868 -1.23764 0
M  V30 13402 H 1266.67 4.05059 -0.965197 0
M  V30 13403 H 1269.26 5.09849 1.61116 0
M  V30 13404 H 1269.61 3.50691 2.24325 0
M  V30 13405 H 1270.14 3.93269 0.5987 0
M  V30 13406 H 1266.88 6.48147 -0.979069 0
M  V30 13407 H 1266.4 5.96235 0.652947 0
M  V30 13408 H 1268.08 6.46156 0.330324 0
M  V30 13409 N 1268.21 -0.0283989 1.57574 0
M  V30 13410 C 1269.46 -0.720142 1.89583 0
M  V30 13411 C 1269.79 -1.7497 0.842562 0
M  V30 13412 O 1269.06 -1.93979 -0.142294 0
M  V30 13413 C 1269.35 -1.38909 3.32229 0
M  V30 13414 C 1269.2 -0.372998 4.48251 0
M  V30 13415 C 1270.52 -2.32289 3.73804 0
M  V30 13416 H 1267.64 -0.26033 0.689491 0
M  V30 13417 H 1270.28 0.0170607 1.89992 0
M  V30 13418 H 1268.43 -2.01744 3.32011 0
M  V30 13419 H 1270.1 0.253492 4.60603 0
M  V30 13420 H 1268.34 0.30765 4.32708 0
M  V30 13421 H 1269.02 -0.879549 5.44948 0
M  V30 13422 H 1271.49 -1.79497 3.75393 0
M  V30 13423 H 1270.37 -2.76075 4.74419 0
M  V30 13424 H 1270.63 -3.18992 3.06099 0
M  V30 13425 N 1269.69 -1.54705 -0.300681 0
M  V30 13426 C 1270.63 -1.85678 -1.37084 0
M  V30 13427 C 1271.6 -0.70573 -1.50362 0
M  V30 13428 O 1272.79 -0.954385 -1.65215 0
M  V30 13429 C 1269.93 -2.10995 -2.73084 0
M  V30 13430 C 1269.04 -3.38621 -2.68254 0
M  V30 13431 C 1268.18 -3.53779 -3.9625 0
M  V30 13432 C 1267.22 -4.75195 -3.85818 0
M  V30 13433 N 1266.35 -4.87157 -5.05591 0
M  V30 13434 H 1271.19 -2.76967 -1.09971 0
M  V30 13435 H 1268.73 -1.37147 -0.531887 0
M  V30 13436 H 1270.69 -2.23669 -3.52176 0
M  V30 13437 H 1269.32 -1.22973 -2.98458 0
M  V30 13438 H 1268.37 -3.34566 -1.81025 0
M  V30 13439 H 1269.68 -4.27834 -2.56436 0
M  V30 13440 H 1268.84 -3.66119 -4.83779 0
M  V30 13441 H 1267.58 -2.62699 -4.10902 0
M  V30 13442 H 1266.58 -4.62888 -2.96673 0
M  V30 13443 H 1267.81 -5.67683 -3.72711 0
M  V30 13444 H 1265.75 -3.99001 -5.20706 0
M  V30 13445 H 1265.67 -5.70372 -4.96197 0
M  V30 13446 H 1266.94 -5.03854 -5.9477 0
M  V30 13447 N 1271.17 0.563888 -1.47167 0
M  V30 13448 C 1272.1 1.68655 -1.55204 0
M  V30 13449 C 1273.11 1.56776 -0.438769 0
M  V30 13450 O 1274.3 1.63856 -0.708059 0
M  V30 13451 C 1271.4 3.07068 -1.43396 0
M  V30 13452 C 1270.57 3.44767 -2.69174 0
M  V30 13453 C 1269.63 4.62316 -2.51298 0
M  V30 13454 O 1268.66 4.67231 -3.2509 0
M  V30 13455 N 1269.86 5.58389 -1.58688 0
M  V30 13456 H 1272.63 1.62209 -2.52009 0
M  V30 13457 H 1270.19 0.750359 -1.43462 0
M  V30 13458 H 1272.18 3.83529 -1.29181 0
M  V30 13459 H 1270.75 3.07777 -0.546997 0
M  V30 13460 H 1269.97 2.57821 -2.98198 0
M  V30 13461 H 1271.26 3.66726 -3.52689 0
M  V30 13462 H 1270.65 5.57169 -0.978737 0
M  V30 13463 H 1269.21 6.34204 -1.50428 0
M  V30 13464 N 1272.64 1.35187 0.810078 0
M  V30 13465 C 1273.57 1.30481 1.93641 0
M  V30 13466 C 1274.56 0.179875 1.69146 0
M  V30 13467 O 1275.74 0.374284 1.90559 0
M  V30 13468 C 1272.87 1.07251 3.30325 0
M  V30 13469 C 1271.82 2.16348 3.69293 0
M  V30 13470 C 1271.15 1.78288 5.04101 0
M  V30 13471 C 1272.45 3.58285 3.80038 0
M  V30 13472 H 1274.14 2.24725 1.97836 0
M  V30 13473 H 1271.69 1.08179 0.950436 0
M  V30 13474 H 1273.64 1.02599 4.08719 0
M  V30 13475 H 1272.37 0.0945203 3.26463 0
M  V30 13476 H 1271.03 2.2009 2.93182 0
M  V30 13477 H 1270.67 0.791163 4.96739 0
M  V30 13478 H 1270.37 2.51315 5.31144 0
M  V30 13479 H 1271.9 1.75155 5.84938 0
M  V30 13480 H 1273.31 3.56884 4.48672 0
M  V30 13481 H 1271.71 4.30044 4.18548 0
M  V30 13482 H 1272.78 3.94691 2.81685 0
M  V30 13483 N 1274.12 -1.03182 1.19127 0
M  V30 13484 C 1275.03 -2.14875 0.94159 0
M  V30 13485 C 1276.05 -1.73727 -0.0973872 0
M  V30 13486 O 1277.22 -2.01214 0.0865775 0
M  V30 13487 C 1274.29 -3.43356 0.480366 0
M  V30 13488 C 1273.35 -3.98835 1.58838 0
M  V30 13489 C 1272.58 -5.21183 1.14907 0
M  V30 13490 O 1272.81 -5.70399 0.0114141 0
M  V30 13491 O 1271.74 -5.69423 1.95042 0
M  V30 13492 H 1275.57 -2.38799 1.8764 0
M  V30 13493 H 1273.15 -1.13299 0.973841 0
M  V30 13494 H 1275.03 -4.20763 0.231658 0
M  V30 13495 H 1273.71 -3.20884 -0.426041 0
M  V30 13496 H 1272.62 -3.22776 1.8912 0
M  V30 13497 H 1273.95 -4.25665 2.47123 0
M  V30 13498 N 1275.6 -0.99472 -1.22242 0
M  V30 13499 C 1277.02 -0.705762 -1.43147 0
M  V30 13500 C 1277.22 0.722908 -1.88086 0
M  V30 13501 O 1276.27 1.49359 -2.03588 0
M  V30 13502 C 1277.59 -1.71288 -2.47145 0
M  V30 13503 C 1279.13 -1.72853 -2.60942 0
M  V30 13504 C 1279.61 -2.72433 -3.68163 0
M  V30 13505 N 1281.1 -2.71039 -3.75623 0
M  V30 13506 C 1281.83 -3.44753 -4.58184 0
M  V30 13507 N 1281.33 -4.28075 -5.44724 0
M  V30 13508 N 1283.12 -3.33451 -4.52512 0
M  V30 13509 H 1275.27 -1.91738 -0.913792 0
M  V30 13510 H 1277.54 -0.82702 -0.463403 0
M  V30 13511 H 1277.24 -2.7353 -2.21075 0
M  V30 13512 H 1277.12 -1.50721 -3.45779 0
M  V30 13513 H 1279.5 -0.713085 -2.86355 0
M  V30 13514 H 1279.59 -1.9749 -1.62577 0
M  V30 13515 H 1279.23 -3.74129 -3.43497 0
M  V30 13516 H 1279.16 -2.45066 -4.66101 0
M  V30 13517 H 1281.65 -2.10581 -3.1379 0
M  V30 13518 H 1281.96 -4.81143 -6.04749 0
M  V30 13519 H 1280.31 -4.32161 -5.44299 0
M  V30 13520 H 1283.5 -2.67797 -3.8393 0
M  V30 13521 H 1283.67 -3.91158 -5.16623 0
M  V30 13522 N 1277.08 1.37613 -0.768148 0
M  V30 13523 C 1278.33 1.99384 -0.330187 0
M  V30 13524 C 1278.65 1.61283 1.09604 0
M  V30 13525 O 1277.92 0.876551 1.75195 0
M  V30 13526 H 1276.5 0.737445 -0.119095 0
M  V30 13527 H 1279.16 1.6815 -0.985476 0
M  V30 13528 H 1278.26 3.09462 -0.40494 0
M  V30 13529 N 1278.56 0.518393 1.4883 0
M  V30 13530 C 1279.8 -0.019866 2.0209 0
M  V30 13531 C 1280.13 -1.35863 1.3988 0
M  V30 13532 O 1279.4 -1.87722 0.560117 0
M  V30 13533 H 1277.98 -0.0103306 0.746929 0
M  V30 13534 H 1280.64 0.679591 1.82668 0
M  V30 13535 H 1279.73 -0.136749 3.118 0
M  V30 13536 N 1280.03 -1.55556 0.252993 0
M  V30 13537 C 1281.45 -1.59276 -0.101714 0
M  V30 13538 C 1281.65 -1.27018 -1.56424 0
M  V30 13539 O 1280.71 -1.02042 -2.30963 0
M  V30 13540 C 1282.02 -2.99634 0.252969 0
M  V30 13541 C 1283.57 -3.12375 0.197767 0
M  V30 13542 C 1284.04 -4.54963 0.52657 0
M  V30 13543 N 1285.53 -4.60734 0.477296 0
M  V30 13544 C 1286.27 -5.69052 0.704793 0
M  V30 13545 N 1285.76 -6.85607 0.99574 0
M  V30 13546 N 1287.56 -5.58501 0.635086 0
M  V30 13547 H 1279.71 -1.74793 1.2067 0
M  V30 13548 H 1281.97 -0.813971 0.485958 0
M  V30 13549 H 1281.68 -3.27998 1.26926 0
M  V30 13550 H 1281.55 -3.74888 -0.416984 0
M  V30 13551 H 1283.94 -2.83788 -0.809209 0
M  V30 13552 H 1284.02 -2.39382 0.901659 0
M  V30 13553 H 1283.66 -4.84271 1.53113 0
M  V30 13554 H 1283.59 -5.26224 -0.198869 0
M  V30 13555 H 1286.08 -3.76995 0.261398 0
M  V30 13556 H 1286.4 -7.64096 1.15659 0
M  V30 13557 H 1284.74 -6.87276 1.03328 0
M  V30 13558 H 1287.93 -4.6632 0.407789 0
M  V30 13559 H 1288.11 -6.42845 0.815777 0
M  V30 13560 N 1281.51 0.0200419 -1.57587 0
M  V30 13561 C 1282.48 1.00255 -2.06111 0
M  V30 13562 C 1283.48 1.28488 -0.966829 0
M  V30 13563 O 1284.67 1.2334 -1.23015 0
M  V30 13564 C 1281.8 2.33296 -2.48567 0
M  V30 13565 H 1282.99 0.583216 -2.94174 0
M  V30 13566 H 1280.54 0.267077 -1.54001 0
M  V30 13567 H 1281.28 2.79959 -1.63687 0
M  V30 13568 H 1281.06 2.14131 -3.28467 0
M  V30 13569 H 1282.55 3.03817 -2.86505 0
M  V30 13570 N 1282.99 1.54862 0.292472 0
M  V30 13571 C 1284.24 1.74807 1.02813 0
M  V30 13572 C 1284.57 0.536935 1.8663 0
M  V30 13573 O 1283.84 -0.465854 1.88839 0
M  V30 13574 C 1284.13 3.04202 1.927 0
M  V30 13575 C 1283.98 4.35631 1.12006 0
M  V30 13576 C 1285.3 3.29514 2.91734 0
M  V30 13577 H 1282.42 0.636015 0.372362 0
M  V30 13578 H 1285.06 1.87583 0.302069 0
M  V30 13579 H 1283.21 2.9344 2.54608 0
M  V30 13580 H 1284.88 4.58323 0.52319 0
M  V30 13581 H 1283.13 4.31733 0.42298 0
M  V30 13582 H 1283.8 5.22454 1.78172 0
M  V30 13583 H 1286.27 3.39941 2.39957 0
M  V30 13584 H 1285.15 4.21352 3.51786 0
M  V30 13585 H 1285.41 2.48216 3.65843 0
M  V30 13586 N 1284.47 -0.556076 1.47464 0
M  V30 13587 C 1285.71 -1.31515 1.54375 0
M  V30 13588 C 1286.05 -1.93106 0.205837 0
M  V30 13589 O 1285.32 -1.77927 -0.785643 0
M  V30 13590 C 1285.61 -2.4244 2.66261 0
M  V30 13591 C 1285.46 -1.8571 4.09673 0
M  V30 13592 C 1286.78 -3.4436 2.74051 0
M  V30 13593 H 1283.9 -0.476817 0.561974 0
M  V30 13594 H 1286.54 -0.622157 1.79525 0
M  V30 13595 H 1284.69 -3.01551 2.44948 0
M  V30 13596 H 1286.36 -1.30851 4.42353 0
M  V30 13597 H 1284.6 -1.16379 4.17898 0
M  V30 13598 H 1285.27 -2.65904 4.83735 0
M  V30 13599 H 1287.75 -2.95169 2.93282 0
M  V30 13600 H 1286.63 -4.194 3.54111 0
M  V30 13601 H 1286.89 -4.03281 1.81155 0
M  V30 13602 N 1285.95 -1.35615 -0.802897 0
M  V30 13603 C 1286.89 -1.28839 -1.91492 0
M  V30 13604 C 1287.86 -0.159621 -1.65331 0
M  V30 13605 O 1289.05 -0.343931 -1.87675 0
M  V30 13606 C 1286.19 -1.06999 -3.28093 0
M  V30 13607 C 1285.3 -2.28831 -3.66416 0
M  V30 13608 C 1284.44 -2.00111 -4.92066 0
M  V30 13609 C 1283.48 -3.17977 -5.23027 0
M  V30 13610 N 1282.61 -2.89009 -6.39858 0
M  V30 13611 H 1287.45 -2.2393 -1.96619 0
M  V30 13612 H 1284.99 -1.1131 -0.961687 0
M  V30 13613 H 1286.95 -0.923673 -4.06847 0
M  V30 13614 H 1285.58 -0.155684 -3.22424 0
M  V30 13615 H 1284.63 -2.54314 -2.82893 0
M  V30 13616 H 1285.94 -3.1683 -3.85253 0
M  V30 13617 H 1285.1 -1.82331 -5.78654 0
M  V30 13618 H 1283.84 -1.09402 -4.75271 0
M  V30 13619 H 1282.84 -3.3633 -4.34928 0
M  V30 13620 H 1284.07 -4.09493 -5.41749 0
M  V30 13621 H 1282.01 -2.00898 -6.24481 0
M  V30 13622 H 1281.93 -3.70544 -6.58964 0
M  V30 13623 H 1283.2 -2.74779 -7.29463 0
M  V30 13624 N 1287.43 1.02549 -1.19673 0
M  V30 13625 C 1288.36 2.10513 -0.880879 0
M  V30 13626 C 1289.34 1.61776 0.163455 0
M  V30 13627 O 1290.52 1.8846 0.0390085 0
M  V30 13628 C 1287.65 3.37195 -0.318936 0
M  V30 13629 C 1286.69 4.04808 -1.34286 0
M  V30 13630 S 1287.53 4.49881 -2.90461 0
M  V30 13631 C 1288.68 5.79776 -2.35819 0
M  V30 13632 H 1288.92 2.3698 -1.7952 0
M  V30 13633 H 1286.45 1.15537 -1.02423 0
M  V30 13634 H 1288.41 4.105 -0.00124931 0
M  V30 13635 H 1287.07 3.08815 0.573749 0
M  V30 13636 H 1286.26 4.9592 -0.898859 0
M  V30 13637 H 1285.86 3.37688 -1.60756 0
M  V30 13638 H 1288.15 6.54501 -1.75026 0
M  V30 13639 H 1289.1 6.2896 -3.25292 0
M  V30 13640 H 1289.51 5.35611 -1.78272 0
M  V30 13641 N 1288.9 1.00119 1.21713 0
M  V30 13642 C 1290.18 0.597366 1.86255 0
M  V30 13643 C 1290.56 -0.925124 1.89749 0
M  V30 13644 O 1289.91 -1.8105 1.39402 0
M  V30 13645 C 1290.12 1.22735 3.26707 0
M  V30 13646 C 1291.47 1.33307 4.03131 0
M  V30 13647 O 1292.49 1.18237 3.36003 0
M  V30 13648 O 1291.35 1.57509 5.2331 0
M  V30 13649 H 1288.44 0.204091 0.801421 0
M  V30 13650 H 1290.99 1.09759 1.29426 0
M  V30 13651 H 1289.76 2.26837 3.18843 0
M  V30 13652 H 1289.38 0.713232 3.91151 0
M  V30 13653 N 1290.38 -1.37203 0.775435 0
M  V30 13654 C 1291.63 -2.00349 0.350965 0
M  V30 13655 C 1291.98 -1.6045 -1.06176 0
M  V30 13656 O 1291.28 -0.842377 -1.72089 0
M  V30 13657 C 1291.47 -3.54725 0.436426 0
M  V30 13658 C 1291.3 -4.09617 1.85591 0
M  V30 13659 C 1290.07 -4.404 2.47741 0
M  V30 13660 C 1292.27 -4.30357 2.81598 0
M  V30 13661 N 1290.25 -4.81029 3.81424 0
M  V30 13662 C 1291.62 -4.73636 4.00087 0
M  V30 13663 C 1293.67 -4.12498 2.78837 0
M  V30 13664 C 1292.38 -5.00926 5.16203 0
M  V30 13665 C 1294.4 -4.40926 3.9413 0
M  V30 13666 C 1293.77 -4.84448 5.1136 0
M  V30 13667 H 1289.86 -0.762041 0.175549 0
M  V30 13668 H 1292.45 -1.66451 1.01005 0
M  V30 13669 H 1290.62 -3.87923 -0.192502 0
M  V30 13670 H 1292.35 -4.04699 -0.0104534 0
M  V30 13671 H 1289.11 -4.2961 1.9933 0
M  V30 13672 H 1289.53 -5.05648 4.50166 0
M  V30 13673 H 1294.17 -3.78018 1.89373 0
M  V30 13674 H 1291.89 -5.34293 6.06265 0
M  V30 13675 H 1295.48 -4.28692 3.93338 0
M  V30 13676 H 1294.36 -5.06022 5.99092 0
M  V30 13677 N 1291.86 -0.526279 -1.48553 0
M  V30 13678 C 1293.28 -0.183886 -1.58537 0
M  V30 13679 C 1293.48 1.31272 -1.52872 0
M  V30 13680 O 1292.53 2.09069 -1.41585 0
M  V30 13681 C 1293.84 -0.78313 -2.90323 0
M  V30 13682 C 1295.39 -0.751527 -3.03844 0
M  V30 13683 C 1295.87 -1.32928 -4.38285 0
M  V30 13684 N 1297.36 -1.29109 -4.44843 0
M  V30 13685 C 1298.09 -1.70806 -5.47369 0
M  V30 13686 N 1297.59 -2.20215 -6.56869 0
M  V30 13687 N 1299.38 -1.62065 -5.3823 0
M  V30 13688 H 1291.53 -1.499 -1.50478 0
M  V30 13689 H 1293.8 -0.623294 -0.714289 0
M  V30 13690 H 1293.5 -1.83371 -3.00113 0
M  V30 13691 H 1293.38 -0.25808 -3.76316 0
M  V30 13692 H 1295.76 0.290282 -2.93669 0
M  V30 13693 H 1295.84 -1.314 -2.19471 0
M  V30 13694 H 1295.49 -2.37 -4.49214 0
M  V30 13695 H 1295.42 -0.742516 -5.21339 0
M  V30 13696 H 1297.91 -0.929348 -3.66294 0
M  V30 13697 H 1298.22 -2.50035 -7.31233 0
M  V30 13698 H 1296.57 -2.24206 -6.57842 0
M  V30 13699 H 1299.76 -1.23265 -4.51579 0
M  V30 13700 H 1299.93 -1.94883 -6.18001 0
M  V30 13701 N 1293.34 1.5542 -0.261239 0
M  V30 13702 C 1294.25 2.25627 0.642625 0
M  V30 13703 C 1295.26 1.27732 1.18155 0
M  V30 13704 O 1296.44 1.60639 1.21479 0
M  V30 13705 C 1293.5 2.95303 1.8165 0
M  V30 13706 C 1292.57 4.08644 1.31563 0
M  V30 13707 C 1291.8 4.74988 2.43355 0
M  V30 13708 O 1292.02 4.40474 3.62407 0
M  V30 13709 O 1290.96 5.63217 2.12299 0
M  V30 13710 H 1294.78 3.03609 0.0743091 0
M  V30 13711 H 1292.37 1.49372 -0.0291754 0
M  V30 13712 H 1294.25 3.3914 2.50125 0
M  V30 13713 H 1292.92 2.2025 2.37217 0
M  V30 13714 H 1291.83 3.69294 0.597746 0
M  V30 13715 H 1293.16 4.85558 0.805878 0
M  V30 13716 N 1294.82 -0.0116844 1.57596 0
M  V30 13717 C 1295.76 -1.02514 2.08791 0
M  V30 13718 C 1296.76 -1.36341 1.00536 0
M  V30 13719 O 1297.96 -1.35042 1.19011 0
M  V30 13720 H 1294.34 -0.348201 0.666528 0
M  V30 13721 H 1296.31 -0.567698 2.9295 0
M  V30 13722 C 1295.06 -2.312 2.59696 0
M  V30 13723 H 1294.38 -2.06036 3.42621 0
M  V30 13724 H 1295.82 -3.00417 2.99208 0
M  V30 13725 C 1294.28 -3.01372 1.50586 0
M  V30 13726 O 1294.81 -3.91896 0.882046 0
M  V30 13727 N 1293.02 -2.62997 1.23616 0
M  V30 13728 H 1292.56 -1.89466 1.74529 0
M  V30 13729 H 1292.52 -3.10264 0.508289 0
M  V30 13730 N 1296.29 -1.55015 -0.284256 0
M  V30 13731 C 1297.54 -1.74297 -1.01506 0
M  V30 13732 C 1297.86 -0.545134 -1.8785 0
M  V30 13733 O 1299.06 -0.620118 -2.64323 0
M  V30 13734 C 1297.52 -3.08438 -1.85456 0
M  V30 13735 C 1297.13 -4.35753 -1.04034 0
M  V30 13736 C 1298.87 -3.37073 -2.58035 0
M  V30 13737 C 1296.78 -5.60938 -1.87358 0
M  V30 13738 H 1295.71 -0.649656 -0.382705 0
M  V30 13739 H 1298.36 -1.81484 -0.271239 0
M  V30 13740 H 1296.74 -2.95259 -2.63891 0
M  V30 13741 H 1297.91 -4.59816 -0.300954 0
M  V30 13742 H 1296.23 -4.14178 -0.429616 0
M  V30 13743 H 1298.83 -4.27806 -3.20759 0
M  V30 13744 H 1299.17 -2.56698 -3.27738 0
M  V30 13745 H 1299.7 -3.51299 -1.86638 0
M  V30 13746 H 1296.44 -6.44029 -1.22096 0
M  V30 13747 H 1295.96 -5.41035 -2.58923 0
M  V30 13748 H 1297.64 -5.98819 -2.44999 0
M  V30 13749 N 1297.77 0.548248 -1.47757 0
M  V30 13750 C 1299 1.3302 -1.58472 0
M  V30 13751 C 1299.41 1.87292 -0.238186 0
M  V30 13752 O 1298.77 1.65465 0.76991 0
M  V30 13753 C 1298.82 2.49386 -2.61704 0
M  V30 13754 O 1298.54 1.97355 -3.9113 0
M  V30 13755 C 1300.04 3.41471 -2.82688 0
M  V30 13756 H 1297.26 0.405172 -0.534861 0
M  V30 13757 H 1299.81 0.663251 -1.93446 0
M  V30 13758 H 1297.96 3.12001 -2.29639 0
M  V30 13759 H 1298.38 2.7339 -4.47614 0
M  V30 13760 H 1299.85 4.19516 -3.58762 0
M  V30 13761 H 1300.33 3.95573 -1.90837 0
M  V30 13762 H 1300.93 2.84664 -3.15985 0
M  V30 13763 N 1299.25 1.36039 0.795694 0
M  V30 13764 C 1300.5 1.30112 1.5556 0
M  V30 13765 C 1300.83 -0.121197 1.93821 0
M  V30 13766 O 1300.1 -1.07313 1.62216 0
M  V30 13767 C 1300.39 2.21792 2.8369 0
M  V30 13768 C 1300.24 3.72691 2.51836 0
M  V30 13769 C 1301.56 2.12365 3.85472 0
M  V30 13770 H 1298.68 0.473971 0.564376 0
M  V30 13771 H 1301.32 1.66536 0.91465 0
M  V30 13772 H 1299.47 1.9086 3.38386 0
M  V30 13773 H 1301.14 4.14115 2.0324 0
M  V30 13774 H 1299.38 3.92436 1.84869 0
M  V30 13775 H 1300.06 4.32242 3.43323 0
M  V30 13776 H 1302.53 2.3958 3.40207 0
M  V30 13777 H 1301.41 2.78695 4.72885 0
M  V30 13778 H 1301.67 1.10898 4.27965 0
M  V30 13779 N 1300.73 -1.01913 1.20215 0
M  V30 13780 C 1302.14 -1.5692 1.01159 0
M  V30 13781 C 1302.49 -1.91368 -0.432746 0
M  V30 13782 O 1301.62 -1.71959 -1.31374 0
M  V30 13783 C 1302.21 -2.85125 1.83001 0
M  V30 13784 C 1300.77 -3.36669 1.68318 0
M  V30 13785 C 1299.92 -2.10003 1.81091 0
M  V30 13786 H 1302.87 -0.843246 1.34443 0
M  V30 13787 H 1302.89 -3.56428 1.33188 0
M  V30 13788 H 1302.4 -2.60021 2.88116 0
M  V30 13789 H 1300.5 -3.66739 0.658292 0
M  V30 13790 H 1300.61 -4.09042 2.49442 0
M  V30 13791 H 1298.98 -2.22337 1.24252 0
M  V30 13792 H 1299.76 -1.87329 2.87685 0
M  V30 13793 N 1302.21 -1.00763 -1.2118 0
M  V30 13794 C 1303.14 -0.590493 -2.2591 0
M  V30 13795 C 1304.12 0.390002 -1.65569 0
M  V30 13796 O 1305.3 0.277406 -1.92208 0
M  V30 13797 C 1302.43 0.0810388 -3.47205 0
M  V30 13798 C 1301.39 -0.81951 -4.20081 0
M  V30 13799 C 1300.71 -0.014244 -5.34698 0
M  V30 13800 C 1302.01 -2.12336 -4.7719 0
M  V30 13801 H 1303.71 -1.46595 -2.61056 0
M  V30 13802 H 1301.25 -0.706321 -1.25487 0
M  V30 13803 H 1303.21 0.384355 -4.19644 0
M  V30 13804 H 1301.93 0.991145 -3.11197 0
M  V30 13805 H 1300.59 -1.10669 -3.49497 0
M  V30 13806 H 1300.24 0.897233 -4.94933 0
M  V30 13807 H 1299.94 -0.613883 -5.84384 0
M  V30 13808 H 1301.46 0.282827 -6.09945 0
M  V30 13809 H 1302.87 -1.88301 -5.41494 0
M  V30 13810 H 1301.27 -2.67308 -5.37277 0
M  V30 13811 H 1302.34 -2.79238 -3.96427 0
M  V30 13812 N 1303.68 1.3679 -0.7827 0
M  V30 13813 C 1304.62 2.28805 -0.13451 0
M  V30 13814 C 1305.63 1.49159 0.652338 0
M  V30 13815 O 1306.82 1.71682 0.488626 0
M  V30 13816 C 1303.92 3.28508 0.832802 0
M  V30 13817 C 1303.09 4.37291 0.0974435 0
M  V30 13818 C 1302.15 5.16999 0.979715 0
M  V30 13819 O 1301.18 5.67501 0.439439 0
M  V30 13820 N 1302.38 5.32786 2.30477 0
M  V30 13821 H 1305.14 2.85072 -0.924873 0
M  V30 13822 H 1302.7 1.48884 -0.636012 0
M  V30 13823 H 1304.7 3.78718 1.42671 0
M  V30 13824 H 1303.27 2.7293 1.52408 0
M  V30 13825 H 1302.49 3.88335 -0.677483 0
M  V30 13826 H 1303.77 5.07143 -0.410259 0
M  V30 13827 H 1303.17 4.93358 2.76793 0
M  V30 13828 H 1301.73 5.86264 2.84848 0
M  V30 13829 N 1305.16 0.53415 1.48272 0
M  V30 13830 C 1306.39 0.00574475 2.06899 0
M  V30 13831 C 1306.81 -1.27754 1.39012 0
M  V30 13832 O 1306.16 -1.76102 0.478993 0
M  V30 13833 C 1306.21 -0.217576 3.60845 0
M  V30 13834 O 1305.93 1.01487 4.26183 0
M  V30 13835 C 1307.44 -0.785888 4.36278 0
M  V30 13836 H 1304.66 0.0353967 0.670066 0
M  V30 13837 H 1307.2 0.740984 1.90603 0
M  V30 13838 H 1305.35 -0.902875 3.76732 0
M  V30 13839 H 1305.77 0.7982 5.18391 0
M  V30 13840 H 1307.24 -0.891551 5.44753 0
M  V30 13841 H 1307.72 -1.79178 4.00989 0
M  V30 13842 H 1308.33 -0.137022 4.25079 0
M  V30 13843 N 1306.64 -1.55279 0.269478 0
M  V30 13844 C 1307.92 -1.91458 -0.400412 0
M  V30 13845 C 1308.3 -1.19306 -1.74153 0
M  V30 13846 O 1307.65 -0.318017 -2.26276 0
M  V30 13847 C 1307.86 -3.44698 -0.546258 0
M  V30 13848 C 1309.2 -4.16374 -0.831758 0
M  V30 13849 O 1310.23 -3.50561 -0.631279 0
M  V30 13850 O 1309.09 -5.32826 -1.21484 0
M  V30 13851 H 1306.18 -0.79766 -0.218328 0
M  V30 13852 H 1308.73 -1.66747 0.315214 0
M  V30 13853 H 1307.5 -3.89273 0.397784 0
M  V30 13854 H 1307.12 -3.75345 -1.31157 0
M  V30 13855 N 1308.12 0.00332656 -1.576 0
M  V30 13856 C 1309.05 0.994803 -2.11248 0
M  V30 13857 C 1310.03 1.36061 -1.02085 0
M  V30 13858 O 1311.21 1.44494 -1.2975 0
M  V30 13859 C 1308.34 2.28772 -2.61306 0
M  V30 13860 C 1307.3 2.06362 -3.74965 0
M  V30 13861 C 1306.62 3.41638 -4.11324 0
M  V30 13862 C 1307.92 1.4289 -5.02374 0
M  V30 13863 H 1309.62 0.548119 -2.9434 0
M  V30 13864 H 1307.16 0.262208 -1.41593 0
M  V30 13865 H 1309.12 2.98485 -2.97464 0
M  V30 13866 H 1307.84 2.75547 -1.75332 0
M  V30 13867 H 1306.5 1.39076 -3.39195 0
M  V30 13868 H 1306.15 3.8611 -3.22379 0
M  V30 13869 H 1305.85 3.2746 -4.87897 0
M  V30 13870 H 1307.37 4.12671 -4.50039 0
M  V30 13871 H 1308.79 2.02555 -5.36325 0
M  V30 13872 H 1307.18 1.3921 -5.8373 0
M  V30 13873 H 1308.25 0.397708 -4.83266 0
M  V30 13874 N 1309.6 1.55164 0.276031 0
M  V30 13875 C 1311.01 1.46936 0.623061 0
M  V30 13876 C 1311.21 0.680977 1.89644 0
M  V30 13877 O 1310.27 0.198618 2.51718 0
M  V30 13878 C 1311.58 2.91123 0.752839 0
M  V30 13879 C 1313.13 3.01319 0.847093 0
M  V30 13880 C 1313.6 4.46755 1.00867 0
M  V30 13881 N 1315.1 4.5057 1.07427 0
M  V30 13882 C 1315.83 5.60314 1.21804 0
M  V30 13883 N 1315.33 6.7993 1.32919 0
M  V30 13884 N 1317.12 5.4805 1.2489 0
M  V30 13885 H 1309.27 2.04877 -0.560282 0
M  V30 13886 H 1311.53 0.928925 -0.189217 0
M  V30 13887 H 1311.24 3.51521 -0.112333 0
M  V30 13888 H 1311.11 3.39967 1.63408 0
M  V30 13889 H 1313.5 2.41021 1.70274 0
M  V30 13890 H 1313.58 2.55733 -0.0586896 0
M  V30 13891 H 1313.23 5.07655 0.1577 0
M  V30 13892 H 1313.16 4.89995 1.92906 0
M  V30 13893 H 1315.65 3.64404 1.00089 0
M  V30 13894 H 1315.96 7.59319 1.43714 0
M  V30 13895 H 1314.3 6.82747 1.29929 0
M  V30 13896 H 1317.5 4.53542 1.15834 0
M  V30 13897 H 1317.67 6.33621 1.3575 0
M  V30 13898 N 1311.07 -0.540404 1.48045 0
M  V30 13899 C 1312.02 -1.64598 1.61791 0
M  V30 13900 C 1312.99 -1.59595 0.460301 0
M  V30 13901 O 1314.18 -1.78176 0.682482 0
M  V30 13902 C 1311.32 -3.02887 1.65389 0
M  V30 13903 C 1310.43 -3.18202 2.92184 0
M  V30 13904 C 1309.56 -4.46989 2.87009 0
M  V30 13905 C 1308.6 -4.55795 4.08555 0
M  V30 13906 N 1307.74 -5.75958 4.01518 0
M  V30 13907 H 1312.58 -1.52188 2.56208 0
M  V30 13908 H 1310.12 -0.741097 1.27068 0
M  V30 13909 H 1312.08 -3.82988 1.65457 0
M  V30 13910 H 1310.71 -3.14092 0.744703 0
M  V30 13911 H 1309.76 -2.31422 3.01907 0
M  V30 13912 H 1311.07 -3.20571 3.82146 0
M  V30 13913 H 1310.22 -5.35369 2.85421 0
M  V30 13914 H 1308.96 -4.47125 1.94759 0
M  V30 13915 H 1307.97 -3.65824 4.1043 0
M  V30 13916 H 1309.19 -4.57406 5.01953 0
M  V30 13917 H 1307.14 -5.77011 3.12081 0
M  V30 13918 H 1307.06 -5.79777 4.85175 0
M  V30 13919 H 1308.32 -6.66653 4.03972 0
M  V30 13920 N 1312.55 -1.36459 -0.788468 0
M  V30 13921 C 1313.8 -1.30741 -1.54638 0
M  V30 13922 C 1314.13 0.113029 -1.94171 0
M  V30 13923 O 1313.38 1.08252 -1.63034 0
M  V30 13924 C 1313.68 -2.17672 -2.83467 0
M  V30 13925 C 1313.35 -3.66205 -2.63067 0
M  V30 13926 C 1312.01 -4.06688 -2.57212 0
M  V30 13927 C 1314.36 -4.60376 -2.44343 0
M  V30 13928 C 1311.69 -5.39482 -2.306 0
M  V30 13929 C 1314.04 -5.93388 -2.19258 0
M  V30 13930 C 1312.71 -6.32994 -2.11836 0
M  V30 13931 H 1311.98 -0.478416 -0.565862 0
M  V30 13932 H 1314.62 -1.68519 -0.909588 0
M  V30 13933 H 1312.93 -1.72834 -3.51619 0
M  V30 13934 H 1314.62 -2.10573 -3.41263 0
M  V30 13935 H 1311.21 -3.3409 -2.6848 0
M  V30 13936 H 1315.4 -4.29971 -2.47868 0
M  V30 13937 H 1310.65 -5.69149 -2.23337 0
M  V30 13938 H 1314.83 -6.65923 -2.03765 0
M  V30 13939 H 1312.46 -7.3582 -1.90978 0
M  V30 13940 N 1314.03 1.01274 -1.20754 0
M  V30 13941 C 1315.45 1.27256 -0.963221 0
M  V30 13942 C 1315.65 1.98349 0.354972 0
M  V30 13943 O 1314.7 2.28116 1.08255 0
M  V30 13944 C 1316.02 2.1038 -2.14851 0
M  V30 13945 C 1317.56 2.23633 -2.18991 0
M  V30 13946 C 1318.04 3.10136 -3.37016 0
M  V30 13947 N 1319.53 3.17724 -3.37054 0
M  V30 13948 C 1320.26 3.84891 -4.25025 0
M  V30 13949 N 1319.76 4.54152 -5.23181 0
M  V30 13950 N 1321.55 3.81454 -4.12855 0
M  V30 13951 H 1313.7 0.535534 -2.05538 0
M  V30 13952 H 1315.97 0.299006 -0.899611 0
M  V30 13953 H 1315.67 1.65484 -3.10335 0
M  V30 13954 H 1315.55 3.11122 -2.13267 0
M  V30 13955 H 1317.93 2.67753 -1.24067 0
M  V30 13956 H 1318.02 1.22387 -2.24622 0
M  V30 13957 H 1317.66 2.66721 -4.32229 0
M  V30 13958 H 1317.59 4.11478 -3.28623 0
M  V30 13959 H 1320.08 2.68412 -2.66014 0
M  V30 13960 H 1320.39 5.03084 -5.86623 0
M  V30 13961 H 1318.74 4.52964 -5.27113 0
M  V30 13962 H 1321.93 3.26494 -3.35439 0
M  V30 13963 H 1322.1 4.33523 -4.81624 0
M  V30 13964 N 1315.51 1.01404 1.20644 0
M  V30 13965 C 1316.74 0.72104 1.93929 0
M  V30 13966 C 1317.15 -0.717853 1.7462 0
M  V30 13967 O 1316.51 -1.48664 1.05855 0
M  V30 13968 C 1316.56 1.04399 3.46097 0
M  V30 13969 O 1316.28 2.42637 3.64773 0
M  V30 13970 C 1317.78 0.771678 4.36532 0
M  V30 13971 H 1315 0.264983 0.616462 0
M  V30 13972 H 1317.55 1.35453 1.53208 0
M  V30 13973 H 1315.7 0.455946 3.84708 0
M  V30 13974 H 1316.12 2.54201 4.58783 0
M  V30 13975 H 1317.59 1.04774 5.41965 0
M  V30 13976 H 1318.07 -0.294188 4.38214 0
M  V30 13977 H 1318.67 1.34176 4.0358 0
M  V30 13978 N 1316.99 -1.36373 0.789944 0
M  V30 13979 C 1318.22 -2.03187 0.373987 0
M  V30 13980 C 1318.63 -1.59697 -1.01457 0
M  V30 13981 O 1317.97 -0.782151 -1.66217 0
M  V30 13982 C 1318.03 -3.57703 0.358985 0
M  V30 13983 C 1317.69 -4.24396 1.69521 0
M  V30 13984 C 1318.69 -4.47247 2.65077 0
M  V30 13985 C 1316.38 -4.61858 1.97465 0
M  V30 13986 C 1318.37 -5.06642 3.86772 0
M  V30 13987 C 1316.06 -5.2097 3.19426 0
M  V30 13988 C 1317.06 -5.43302 4.13899 0
M  V30 13989 O 1316.74 -6.01173 5.3371 0
M  V30 13990 H 1316.48 -0.658654 0.152153 0
M  V30 13991 H 1319.03 -1.7532 1.07014 0
M  V30 13992 H 1317.26 -3.84691 -0.39366 0
M  V30 13993 H 1318.95 -4.05887 -0.0323762 0
M  V30 13994 H 1319.71 -4.18701 2.44775 0
M  V30 13995 H 1315.59 -4.438 1.2475 0
M  V30 13996 H 1319.14 -5.23989 4.60523 0
M  V30 13997 H 1315.03 -5.48943 3.39606 0
M  V30 13998 H 1315.8 -6.19638 5.34781 0
M  V30 13999 N 1318.47 -0.542005 -1.47987 0
M  V30 14000 C 1319.41 0.214151 -2.29804 0
M  V30 14001 C 1320.38 0.922625 -1.38119 0
M  V30 14002 O 1321.57 0.921301 -1.67083 0
M  V30 14003 C 1318.71 1.24768 -3.21756 0
M  V30 14004 C 1317.82 0.546824 -4.28525 0
M  V30 14005 C 1316.96 1.56432 -5.07644 0
M  V30 14006 C 1315.99 0.847598 -6.06203 0
M  V30 14007 N 1315.13 1.81121 -6.78336 0
M  V30 14008 H 1319.97 -0.489707 -2.93949 0
M  V30 14009 H 1317.51 -0.253331 -1.44902 0
M  V30 14010 H 1319.47 1.85933 -3.73477 0
M  V30 14011 H 1318.1 1.91976 -2.59509 0
M  V30 14012 H 1317.15 -0.179026 -3.79978 0
M  V30 14013 H 1318.46 -0.0153623 -4.98798 0
M  V30 14014 H 1317.61 2.24992 -5.63439 0
M  V30 14015 H 1316.35 2.16041 -4.37238 0
M  V30 14016 H 1315.36 0.147989 -5.49601 0
M  V30 14017 H 1316.58 0.257454 -6.78612 0
M  V30 14018 H 1314.53 2.39615 -6.10672 0
M  V30 14019 H 1314.45 1.30077 -7.44725 0
M  V30 14020 H 1315.71 2.48842 -7.38714 0
M  V30 14021 N 1319.94 1.55134 -0.277709 0
M  V30 14022 C 1321.19 1.99259 0.337662 0
M  V30 14023 C 1321.51 1.16755 1.56183 0
M  V30 14024 O 1320.78 0.257707 1.94198 0
M  V30 14025 H 1319.36 0.735995 0.127751 0
M  V30 14026 H 1322.02 1.91087 -0.383646 0
M  V30 14027 H 1321.12 3.05763 0.625747 0
M  V30 14028 N 1321.42 0.00503138 1.57599 0
M  V30 14029 C 1322.67 -0.67742 1.90409 0
M  V30 14030 C 1322.99 -1.74033 0.87963 0
M  V30 14031 O 1322.26 -1.95727 -0.0822757 0
M  V30 14032 H 1320.84 -0.2532 0.702779 0
M  V30 14033 H 1323.5 0.0471466 1.94843 0
M  V30 14034 H 1322.6 -1.14548 2.90319 0
M  V30 14035 N 1322.9 -1.55308 -0.267798 0
M  V30 14036 C 1324.12 -1.80524 -1.02107 0
M  V30 14037 C 1324.55 -0.579268 -1.78958 0
M  V30 14038 O 1323.91 0.471262 -1.75068 0
M  V30 14039 C 1323.96 -3.03248 -1.95123 0
M  V30 14040 O 1323.06 -2.78699 -3.03975 0
M  V30 14041 H 1322.4 -0.596518 -0.291655 0
M  V30 14042 H 1324.93 -2.0246 -0.295128 0
M  V30 14043 H 1324.94 -3.32121 -2.3698 0
M  V30 14044 H 1323.62 -3.92126 -1.386 0
M  V30 14045 H 1322.19 -2.60936 -2.66396 0
M  V30 14046 N 1324.38 0.532545 -1.4833 0
M  V30 14047 C 1325.62 1.29042 -1.56448 0
M  V30 14048 C 1325.96 1.92754 -0.236532 0
M  V30 14049 O 1325.23 1.79154 0.757237 0
M  V30 14050 C 1325.51 2.38173 -2.70084 0
M  V30 14051 C 1325.37 1.79169 -4.12576 0
M  V30 14052 C 1326.69 3.39957 -2.79495 0
M  V30 14053 H 1323.81 0.467816 -0.569488 0
M  V30 14054 H 1326.45 0.593517 -1.80492 0
M  V30 14055 H 1324.6 2.97616 -2.49714 0
M  V30 14056 H 1326.27 1.23797 -4.44378 0
M  V30 14057 H 1324.51 1.09716 -4.19696 0
M  V30 14058 H 1325.18 2.58174 -4.87904 0
M  V30 14059 H 1327.66 2.90466 -2.97941 0
M  V30 14060 H 1326.54 4.13714 -3.60739 0
M  V30 14061 H 1326.8 4.00347 -1.87548 0
M  V30 14062 N 1325.86 1.36875 0.78122 0
M  V30 14063 C 1327.27 1.17467 1.08044 0
M  V30 14064 C 1327.47 0.00434799 2.015 0
M  V30 14065 O 1326.53 -0.658499 2.43762 0
M  V30 14066 C 1327.84 2.48917 1.68704 0
M  V30 14067 C 1329.39 2.55354 1.81007 0
M  V30 14068 C 1329.86 3.8691 2.45081 0
M  V30 14069 N 1331.35 3.88301 2.52541 0
M  V30 14070 C 1332.09 4.86837 3.02947 0
M  V30 14071 N 1331.59 5.95768 3.53598 0
M  V30 14072 N 1333.38 4.74249 3.01735 0
M  V30 14073 H 1325.53 2.11793 0.160503 0
M  V30 14074 H 1327.79 0.938507 0.133825 0
M  V30 14075 H 1327.5 3.34867 1.07503 0
M  V30 14076 H 1327.37 2.65319 2.68115 0
M  V30 14077 H 1329.76 1.69816 2.41343 0
M  V30 14078 H 1329.84 2.42843 0.803783 0
M  V30 14079 H 1329.48 4.72858 1.85386 0
M  V30 14080 H 1329.41 3.9672 3.46296 0
M  V30 14081 H 1331.91 3.09607 2.16684 0
M  V30 14082 H 1332.22 6.66918 3.90435 0
M  V30 14083 H 1330.56 5.99426 3.51728 0
M  V30 14084 H 1333.75 3.88275 2.61458 0
M  V30 14085 H 1333.93 5.512 3.40709 0
M  V30 14086 N 1327.33 -1.00632 1.21289 0
M  V30 14087 C 1328.61 -1.71635 0.938124 0
M  V30 14088 C 1328.99 -2.03798 -0.550416 0
M  V30 14089 O 1328.34 -1.71065 -1.5149 0
M  V30 14090 C 1328.55 -2.97674 1.82184 0
M  V30 14091 C 1329.9 -3.7073 2.06989 0
M  V30 14092 O 1330.92 -3.07653 1.79522 0
M  V30 14093 O 1329.78 -4.84183 2.53435 0
M  V30 14094 H 1326.87 -0.748506 0.351664 0
M  V30 14095 H 1329.42 -1.06387 1.32212 0
M  V30 14096 H 1328.19 -2.70306 2.82931 0
M  V30 14097 H 1327.81 -3.70663 1.43858 0
M  V30 14098 N 1328.81 -1.02043 -1.20104 0
M  V30 14099 C 1329.74 -0.614421 -2.25271 0
M  V30 14100 C 1330.72 0.37242 -1.65973 0
M  V30 14101 O 1331.91 0.257005 -1.92492 0
M  V30 14102 C 1329.04 0.0442085 -3.47272 0
M  V30 14103 C 1327.99 -0.864019 -4.19188 0
M  V30 14104 C 1327.32 -0.0709551 -5.34653 0
M  V30 14105 C 1328.62 -2.17385 -4.74912 0
M  V30 14106 H 1330.31 -1.49355 -2.59487 0
M  V30 14107 H 1327.86 -0.719591 -1.24731 0
M  V30 14108 H 1329.81 0.339825 -4.20028 0
M  V30 14109 H 1328.53 0.958082 -3.12231 0
M  V30 14110 H 1327.19 -1.1437 -3.48303 0
M  V30 14111 H 1326.84 0.844688 -4.95857 0
M  V30 14112 H 1326.54 -0.67583 -5.83701 0
M  V30 14113 H 1328.07 0.218118 -6.1021 0
M  V30 14114 H 1329.48 -1.94034 -5.39466 0
M  V30 14115 H 1327.88 -2.72991 -5.34412 0
M  V30 14116 H 1328.95 -2.83427 -3.93443 0
M  V30 14117 N 1330.29 1.35952 -0.797165 0
M  V30 14118 C 1331.22 2.32506 -0.215277 0
M  V30 14119 C 1332.2 1.57023 0.654046 0
M  V30 14120 O 1333.39 1.85139 0.586268 0
M  V30 14121 C 1330.52 3.41266 0.644557 0
M  V30 14122 C 1329.47 4.27816 -0.125501 0
M  V30 14123 C 1328.8 5.27813 0.855428 0
M  V30 14124 C 1330.1 5.05367 -1.31913 0
M  V30 14125 H 1331.79 2.8142 -1.02193 0
M  V30 14126 H 1329.34 1.35303 -0.492862 0
M  V30 14127 H 1331.29 4.07808 1.06163 0
M  V30 14128 H 1330.01 2.90938 1.484 0
M  V30 14129 H 1328.67 3.62841 -0.523639 0
M  V30 14130 H 1328.32 4.73755 1.69011 0
M  V30 14131 H 1328.02 5.86589 0.344566 0
M  V30 14132 H 1329.54 5.97227 1.2709 0
M  V30 14133 H 1330.96 5.64907 -0.977418 0
M  V30 14134 H 1329.36 5.73593 -1.76382 0
M  V30 14135 H 1330.43 4.36558 -2.11057 0
M  V30 14136 N 1331.77 0.549846 1.47697 0
M  V30 14137 C 1333.18 0.209085 1.58225 0
M  V30 14138 C 1333.38 -1.28823 1.54941 0
M  V30 14139 O 1332.44 -2.0679 1.44893 0
M  V30 14140 C 1333.75 0.829219 2.89041 0
M  V30 14141 C 1335.3 0.79977 3.0261 0
M  V30 14142 C 1335.78 1.39884 4.36115 0
M  V30 14143 N 1337.27 1.36169 4.42733 0
M  V30 14144 C 1338 1.79492 5.44583 0
M  V30 14145 N 1337.5 2.30637 6.53283 0
M  V30 14146 N 1339.29 1.70608 5.35583 0
M  V30 14147 H 1331.44 1.52275 1.48074 0
M  V30 14148 H 1333.71 0.634579 0.704283 0
M  V30 14149 H 1333.41 1.88122 2.97158 0
M  V30 14150 H 1333.29 0.317916 3.75858 0
M  V30 14151 H 1335.67 -0.243525 2.94093 0
M  V30 14152 H 1335.75 1.34875 2.17353 0
M  V30 14153 H 1335.4 2.44116 4.45387 0
M  V30 14154 H 1335.33 0.825362 5.20092 0
M  V30 14155 H 1337.82 0.987505 3.64769 0
M  V30 14156 H 1338.13 2.61637 7.27163 0
M  V30 14157 H 1336.48 2.34643 6.54192 0
M  V30 14158 H 1339.67 1.30434 4.4956 0
M  V30 14159 H 1339.84 2.0469 6.14822 0
M  V30 14160 N 1333.25 -1.54984 0.285932 0
M  V30 14161 C 1334.21 -2.2164 -0.583824 0
M  V30 14162 C 1335.21 -1.19764 -1.073 0
M  V30 14163 O 1336.4 -1.44598 -0.971439 0
M  V30 14164 C 1333.53 -2.8909 -1.80665 0
M  V30 14165 H 1334.72 -2.999 -0.00168109 0
M  V30 14166 H 1332.28 -1.56257 0.0366325 0
M  V30 14167 H 1333.01 -2.14869 -2.42903 0
M  V30 14168 H 1332.8 -3.63756 -1.4637 0
M  V30 14169 H 1334.29 -3.39982 -2.42491 0
M  V30 14170 N 1334.72 -0.0133892 -1.57594 0
M  V30 14171 C 1335.66 1.00798 -2.04731 0
M  V30 14172 C 1336.64 1.32686 -0.93985 0
M  V30 14173 O 1337.82 1.44622 -1.209 0
M  V30 14174 C 1334.95 2.33216 -2.45618 0
M  V30 14175 C 1333.99 2.16898 -3.67229 0
M  V30 14176 S 1334.83 1.48248 -5.14571 0
M  V30 14177 C 1335.98 2.82068 -5.58738 0
M  V30 14178 H 1336.21 0.606673 -2.91044 0
M  V30 14179 H 1333.75 0.197865 -1.53127 0
M  V30 14180 H 1335.71 3.09348 -2.69841 0
M  V30 14181 H 1334.37 2.70483 -1.59679 0
M  V30 14182 H 1333.56 3.14753 -3.93632 0
M  V30 14183 H 1333.16 1.4891 -3.43077 0
M  V30 14184 H 1335.45 3.78343 -5.62017 0
M  V30 14185 H 1336.4 2.60348 -6.58502 0
M  V30 14186 H 1336.8 2.86592 -4.86338 0
M  V30 14187 N 1336.2 1.55448 0.259558 0
M  V30 14188 C 1337.62 1.47588 0.607442 0
M  V30 14189 C 1337.82 0.701053 1.88911 0
M  V30 14190 O 1336.87 0.225305 2.51493 0
M  V30 14191 C 1338.19 2.91905 0.72192 0
M  V30 14192 C 1339.74 3.02201 0.815087 0
M  V30 14193 C 1340.21 4.47799 0.961231 0
M  V30 14194 N 1341.7 4.51684 1.02642 0
M  V30 14195 C 1342.44 5.61574 1.15854 0
M  V30 14196 N 1341.93 6.81301 1.257 0
M  V30 14197 N 1343.73 5.49344 1.1907 0
M  V30 14198 H 1335.88 2.04271 -0.581981 0
M  V30 14199 H 1338.14 0.926865 -0.199059 0
M  V30 14200 H 1337.85 3.51382 -0.149611 0
M  V30 14201 H 1337.72 3.41681 1.59793 0
M  V30 14202 H 1340.11 2.42813 1.67708 0
M  V30 14203 H 1340.19 2.55656 -0.0858102 0
M  V30 14204 H 1339.83 5.07794 0.103848 0
M  V30 14205 H 1339.76 4.92013 1.87698 0
M  V30 14206 H 1342.25 3.65446 0.962184 0
M  V30 14207 H 1342.57 7.60801 1.35652 0
M  V30 14208 H 1340.91 6.84087 1.2268 0
M  V30 14209 H 1344.1 4.54745 1.11018 0
M  V30 14210 H 1344.27 6.35025 1.29022 0
M  V30 14211 N 1337.68 -0.524672 1.4861 0
M  V30 14212 C 1338.63 -1.64965 1.6398 0
M  V30 14213 C 1339.62 -1.61663 0.506118 0
M  V30 14214 O 1340.83 -1.66456 0.685013 0
M  V30 14215 H 1337.2 -0.546419 0.516653 0
M  V30 14216 H 1339.17 -1.49146 2.58453 0
M  V30 14217 C 1337.92 -3.03215 1.70165 0
M  V30 14218 H 1337.25 -3.06451 2.56764 0
M  V30 14219 H 1338.69 -3.8153 1.84962 0
M  V30 14220 C 1337.15 -3.33996 0.44143 0
M  V30 14221 O 1337.68 -3.99246 -0.443356 0
M  V30 14222 N 1335.88 -2.88925 0.311518 0
M  V30 14223 H 1335.43 -2.36003 1.0325 0
M  V30 14224 H 1335.39 -3.09889 -0.530655 0
M  V30 14225 N 1339.16 -1.37287 -0.77395 0
M  V30 14226 C 1340.11 -1.32872 -1.88716 0
M  V30 14227 C 1341.08 -0.194655 -1.64955 0
M  V30 14228 O 1342.26 -0.383662 -1.86903 0
M  V30 14229 C 1339.4 -1.13934 -3.2575 0
M  V30 14230 C 1338.51 -2.36552 -3.61479 0
M  V30 14231 C 1337.65 -2.10504 -4.87711 0
M  V30 14232 C 1336.69 -3.28999 -5.16165 0
M  V30 14233 N 1335.82 -3.02517 -6.33584 0
M  V30 14234 H 1340.66 -2.28051 -1.91825 0
M  V30 14235 H 1338.2 -1.13325 -0.93786 0
M  V30 14236 H 1340.16 -1.00976 -4.04796 0
M  V30 14237 H 1338.79 -0.22404 -3.22022 0
M  V30 14238 H 1337.84 -2.60257 -2.77435 0
M  V30 14239 H 1339.15 -3.24931 -3.78446 0
M  V30 14240 H 1338.31 -1.94564 -5.74656 0
M  V30 14241 H 1337.05 -1.19459 -4.72843 0
M  V30 14242 H 1336.05 -3.4548 -4.27696 0
M  V30 14243 H 1337.28 -4.20892 -5.32942 0
M  V30 14244 H 1335.22 -2.14099 -6.20079 0
M  V30 14245 H 1335.14 -3.84439 -6.50955 0
M  V30 14246 H 1336.41 -2.9019 -7.23471 0
M  V30 14247 N 1340.64 0.999871 -1.21821 0
M  V30 14248 C 1341.58 2.08864 -0.98206 0
M  V30 14249 C 1342.55 1.65835 0.0937677 0
M  V30 14250 O 1343.74 1.90722 -0.0544038 0
M  V30 14251 C 1340.88 3.40553 -0.558382 0
M  V30 14252 C 1339.99 3.96964 -1.70422 0
M  V30 14253 C 1339.13 5.16782 -1.2292 0
M  V30 14254 C 1338.17 5.65315 -2.34703 0
M  V30 14255 N 1337.3 6.76379 -1.88299 0
M  V30 14256 H 1342.14 2.28399 -1.9141 0
M  V30 14257 H 1339.68 1.11984 -0.953837 0
M  V30 14258 H 1341.64 4.16163 -0.293955 0
M  V30 14259 H 1340.27 3.2104 0.336656 0
M  V30 14260 H 1339.32 3.18291 -2.08315 0
M  V30 14261 H 1340.63 4.2897 -2.54531 0
M  V30 14262 H 1339.79 5.99657 -0.92174 0
M  V30 14263 H 1338.52 4.86383 -0.358222 0
M  V30 14264 H 1337.53 4.81033 -2.66246 0
M  V30 14265 H 1338.75 5.97742 -3.22306 0
M  V30 14266 H 1336.7 6.47775 -1.03552 0
M  V30 14267 H 1336.62 7.07666 -2.65978 0
M  V30 14268 H 1337.89 7.62776 -1.60601 0
M  V30 14269 N 1342.11 1.02678 1.19562 0
M  V30 14270 C 1343.06 0.576385 2.20594 0
M  V30 14271 C 1344.05 -0.373747 1.56499 0
M  V30 14272 O 1345.24 -0.195058 1.75922 0
M  V30 14273 C 1342.37 -0.0735507 3.43221 0
M  V30 14274 C 1341.46 0.898896 4.14464 0
M  V30 14275 N 1341.85 2.06048 4.61928 0
M  V30 14276 C 1340.14 0.721889 4.40119 0
M  V30 14277 C 1340.85 2.67364 5.16615 0
M  V30 14278 N 1339.82 1.95344 5.07289 0
M  V30 14279 H 1343.62 1.46179 2.54968 0
M  V30 14280 H 1341.14 0.893484 1.35612 0
M  V30 14281 H 1343.13 -0.413825 4.14841 0
M  V30 14282 H 1341.79 -0.954671 3.10348 0
M  V30 14283 H 1342.81 2.43999 4.5682 0
M  V30 14284 H 1339.48 -0.110317 4.17354 0
M  V30 14285 H 1340.87 3.65726 5.63644 0
M  V30 14286 N 1343.59 -1.35528 0.804364 0
M  V30 14287 C 1344.54 -2.27241 0.18591 0
M  V30 14288 C 1345.53 -1.47669 -0.638956 0
M  V30 14289 O 1346.72 -1.69891 -0.496578 0
M  V30 14290 C 1343.85 -3.36769 -0.666446 0
M  V30 14291 C 1342.93 -4.23767 0.168027 0
M  V30 14292 N 1343.32 -4.90618 1.22994 0
M  V30 14293 C 1341.62 -4.45971 -0.0507088 0
M  V30 14294 C 1342.32 -5.55092 1.7392 0
M  V30 14295 N 1341.3 -5.33441 1.04601 0
M  V30 14296 H 1345.1 -2.7642 0.998467 0
M  V30 14297 H 1342.62 -1.49029 0.645301 0
M  V30 14298 H 1344.61 -4.01419 -1.12554 0
M  V30 14299 H 1343.27 -2.89143 -1.47738 0
M  V30 14300 H 1344.28 -4.92155 1.61256 0
M  V30 14301 H 1340.96 -4.09147 -0.830958 0
M  V30 14302 H 1342.35 -6.18434 2.62659 0
M  V30 14303 N 1345.07 -0.557671 -1.47404 0
M  V30 14304 C 1346.3 -0.0386038 -2.06564 0
M  V30 14305 C 1346.71 1.26075 -1.41074 0
M  V30 14306 O 1346.05 1.76723 -0.501453 0
M  V30 14307 C 1346.11 0.22746 -3.5878 0
M  V30 14308 C 1345.78 -0.982526 -4.46313 0
M  V30 14309 C 1346.78 -1.88821 -4.84399 0
M  V30 14310 C 1344.46 -1.19733 -4.87821 0
M  V30 14311 C 1346.45 -2.99238 -5.62793 0
M  V30 14312 C 1344.14 -2.30459 -5.65979 0
M  V30 14313 C 1345.14 -3.20042 -6.03375 0
M  V30 14314 O 1344.83 -4.28849 -6.79959 0
M  V30 14315 H 1344.56 -0.0430229 -0.67463 0
M  V30 14316 H 1347.11 -0.770801 -1.90389 0
M  V30 14317 H 1345.34 1.01397 -3.73169 0
M  V30 14318 H 1347.03 0.691966 -3.99958 0
M  V30 14319 H 1347.8 -1.73431 -4.52931 0
M  V30 14320 H 1343.68 -0.509223 -4.58179 0
M  V30 14321 H 1347.22 -3.69187 -5.91901 0
M  V30 14322 H 1343.12 -2.45821 -5.9686 0
M  V30 14323 H 1343.89 -4.26903 -6.98353 0
M  V30 14324 N 1346.55 1.54831 -0.294147 0
M  V30 14325 C 1347.97 1.59489 0.0594489 0
M  V30 14326 C 1348.17 1.31121 1.53002 0
M  V30 14327 O 1347.22 1.08129 2.28176 0
M  V30 14328 C 1348.53 2.98858 -0.332323 0
M  V30 14329 C 1350.08 3.1174 -0.280518 0
M  V30 14330 C 1350.56 4.53407 -0.64701 0
M  V30 14331 N 1352.05 4.59307 -0.599284 0
M  V30 14332 C 1352.78 5.66983 -0.85542 0
M  V30 14333 N 1352.28 6.82726 -1.17717 0
M  V30 14334 N 1354.07 5.56621 -0.78294 0
M  V30 14335 H 1346.22 1.71532 -1.25262 0
M  V30 14336 H 1348.49 0.800801 -0.507368 0
M  V30 14337 H 1348.19 3.24517 -1.35578 0
M  V30 14338 H 1348.07 3.75862 0.317443 0
M  V30 14339 H 1350.45 2.85834 0.733683 0
M  V30 14340 H 1350.53 2.36907 -0.96481 0
M  V30 14341 H 1350.18 4.80042 -1.65899 0
M  V30 14342 H 1350.11 5.26567 0.0592796 0
M  V30 14343 H 1352.6 3.76169 -0.361259 0
M  V30 14344 H 1352.91 7.60761 -1.35877 0
M  V30 14345 H 1351.26 6.84295 -1.21513 0
M  V30 14346 H 1354.45 4.65075 -0.531282 0
M  V30 14347 H 1354.62 6.40456 -0.985929 0
M  V30 14348 N 1348.03 0.0217466 1.57585 0
M  V30 14349 C 1348.94 -0.978407 2.13224 0
M  V30 14350 C 1349.95 -1.36212 1.08269 0
M  V30 14351 O 1351.13 -1.44504 1.40288 0
M  V30 14352 C 1348.19 -2.24462 2.6423 0
M  V30 14353 C 1347.26 -1.92201 3.83871 0
M  V30 14354 C 1346.49 -3.12786 4.32436 0
M  V30 14355 O 1346.71 -4.25201 3.8021 0
M  V30 14356 O 1345.65 -2.95514 5.24362 0
M  V30 14357 H 1349.47 -0.535347 2.98944 0
M  V30 14358 H 1347.06 -0.198414 1.48077 0
M  V30 14359 H 1348.94 -2.98809 2.97138 0
M  V30 14360 H 1347.61 -2.67964 1.81596 0
M  V30 14361 H 1346.52 -1.15262 3.55901 0
M  V30 14362 H 1347.85 -1.53521 4.67645 0
M  V30 14363 N 1349.51 -1.55583 -0.251311 0
M  V30 14364 C 1350.44 -1.9296 -1.31486 0
M  V30 14365 C 1351.42 -0.794001 -1.50431 0
M  V30 14366 O 1352.6 -1.05393 -1.63113 0
M  V30 14367 C 1349.73 -2.22046 -2.67045 0
M  V30 14368 C 1348.69 -3.37816 -2.62801 0
M  V30 14369 C 1348.01 -3.52433 -4.02113 0
M  V30 14370 C 1349.31 -4.73626 -2.20171 0
M  V30 14371 H 1351.01 -2.82046 -1.00451 0
M  V30 14372 H 1348.55 -1.35702 -0.481775 0
M  V30 14373 H 1350.5 -2.46783 -3.41579 0
M  V30 14374 H 1349.23 -1.29782 -2.99707 0
M  V30 14375 H 1347.89 -3.13081 -1.90724 0
M  V30 14376 H 1347.54 -2.57597 -4.32034 0
M  V30 14377 H 1347.24 -4.30283 -4.00163 0
M  V30 14378 H 1348.76 -3.79486 -4.78354 0
M  V30 14379 H 1350.17 -4.97764 -2.84436 0
M  V30 14380 H 1348.57 -5.54547 -2.29341 0
M  V30 14381 H 1349.64 -4.70985 -1.1533 0
M  V30 14382 N 1350.98 0.516783 -1.48886 0
M  V30 14383 C 1352.39 1.09856 -1.50959 0
M  V30 14384 C 1352.75 1.94092 -0.28681 0
M  V30 14385 O 1351.87 2.07774 0.604877 0
M  V30 14386 C 1352.47 1.999 -2.73542 0
M  V30 14387 C 1351.02 2.5327 -2.78444 0
M  V30 14388 C 1350.17 1.30526 -2.44659 0
M  V30 14389 H 1353.12 0.301415 -1.55811 0
M  V30 14390 H 1353.14 2.84373 -2.52809 0
M  V30 14391 H 1352.66 1.38564 -3.62521 0
M  V30 14392 H 1350.76 3.1829 -1.93707 0
M  V30 14393 H 1350.87 2.91502 -3.80215 0
M  V30 14394 H 1349.23 1.62536 -1.96097 0
M  V30 14395 H 1350.02 0.709223 -3.35894 0
M  V30 14396 N 1352.46 1.37696 0.766659 0
M  V30 14397 C 1353.42 1.33688 1.86172 0
M  V30 14398 C 1354.42 0.239922 1.59 0
M  V30 14399 O 1355.61 0.496066 1.66988 0
M  V30 14400 C 1352.75 1.07807 3.23405 0
M  V30 14401 H 1353.94 2.311 1.91136 0
M  V30 14402 H 1351.49 1.22799 0.966961 0
M  V30 14403 H 1352.23 0.109477 3.24115 0
M  V30 14404 H 1352.01 1.87213 3.4452 0
M  V30 14405 H 1353.5 1.07665 4.03482 0
M  V30 14406 N 1353.94 -0.993397 1.22349 0
M  V30 14407 C 1354.85 -2.11771 1.00947 0
M  V30 14408 C 1355.87 -1.73949 -0.0420679 0
M  V30 14409 O 1357.04 -2.00837 0.150548 0
M  V30 14410 C 1354.11 -3.41654 0.589359 0
M  V30 14411 C 1353.17 -3.93579 1.71446 0
M  V30 14412 C 1352.4 -5.17264 1.3143 0
M  V30 14413 O 1352.62 -5.70074 0.192876 0
M  V30 14414 O 1351.56 -5.62929 2.13059 0
M  V30 14415 H 1355.38 -2.32708 1.95142 0
M  V30 14416 H 1352.97 -1.10144 1.00939 0
M  V30 14417 H 1354.85 -4.19813 0.365403 0
M  V30 14418 H 1353.53 -3.22077 -0.323738 0
M  V30 14419 H 1352.43 -3.16596 1.99294 0
M  V30 14420 H 1353.77 -4.17588 2.6054 0
M  V30 14421 N 1355.42 -1.03311 -1.19015 0
M  V30 14422 C 1356.66 -0.733124 -1.89085 0
M  V30 14423 C 1357 0.73675 -1.79682 0
M  V30 14424 O 1356.27 1.53692 -1.19201 0
M  V30 14425 C 1356.55 -1.19028 -3.39859 0
M  V30 14426 C 1356.41 -2.72169 -3.58112 0
M  V30 14427 C 1357.73 -0.774383 -4.33234 0
M  V30 14428 H 1354.85 -0.2678 -0.686624 0
M  V30 14429 H 1357.49 -1.28378 -1.40068 0
M  V30 14430 H 1355.64 -0.721799 -3.81736 0
M  V30 14431 H 1357.31 -3.26996 -3.25379 0
M  V30 14432 H 1355.55 -3.12358 -3.01023 0
M  V30 14433 H 1356.22 -2.99213 -4.6387 0
M  V30 14434 H 1358.7 -1.17739 -3.99095 0
M  V30 14435 H 1357.58 -1.12209 -5.37308 0
M  V30 14436 H 1357.84 0.322989 -4.40919 0
M  V30 14437 N 1356.9 1.35099 -0.81154 0
M  V30 14438 C 1358.31 1.51701 -0.495883 0
M  V30 14439 C 1358.51 1.7595 0.982035 0
M  V30 14440 O 1357.57 1.8038 1.7669 0
M  V30 14441 C 1358.88 2.68916 -1.34554 0
M  V30 14442 C 1360.43 2.82795 -1.34149 0
M  V30 14443 C 1360.9 4.0304 -2.17538 0
M  V30 14444 N 1362.39 4.10227 -2.151 0
M  V30 14445 C 1363.13 5.02397 -2.76377 0
M  V30 14446 N 1362.63 5.99866 -3.46601 0
M  V30 14447 N 1364.42 4.95181 -2.65992 0
M  V30 14448 H 1356.57 1.17617 -1.76862 0
M  V30 14449 H 1358.83 0.575875 -0.753042 0
M  V30 14450 H 1358.54 2.57591 -2.39458 0
M  V30 14451 H 1358.41 3.63641 -1.00223 0
M  V30 14452 H 1360.8 2.93568 -0.300285 0
M  V30 14453 H 1360.88 1.88912 -1.7247 0
M  V30 14454 H 1360.52 3.93027 -3.21702 0
M  V30 14455 H 1360.45 4.96114 -1.76574 0
M  V30 14456 H 1362.95 3.40454 -1.6401 0
M  V30 14457 H 1363.26 6.66803 -3.90632 0
M  V30 14458 H 1361.6 6.00025 -3.50706 0
M  V30 14459 H 1364.79 4.17991 -2.10715 0
M  V30 14460 H 1364.97 5.6682 -3.14036 0
M  V30 14461 N 1358.37 0.56548 1.47106 0
M  V30 14462 C 1359.28 -0.180488 2.33905 0
M  V30 14463 C 1360.3 -0.90355 1.48701 0
M  V30 14464 O 1361.48 -0.870595 1.81611 0
M  V30 14465 C 1358.54 -1.19212 3.2556 0
M  V30 14466 C 1357.6 -0.475589 4.26658 0
M  V30 14467 C 1356.83 -1.43902 5.13934 0
M  V30 14468 O 1357.06 -2.67443 5.03816 0
M  V30 14469 O 1355.99 -0.958998 5.94211 0
M  V30 14470 H 1359.82 0.531726 2.99009 0
M  V30 14471 H 1357.4 0.32602 1.45799 0
M  V30 14472 H 1359.28 -1.77586 3.82153 0
M  V30 14473 H 1357.96 -1.8861 2.63074 0
M  V30 14474 H 1356.87 0.149561 3.73801 0
M  V30 14475 H 1358.2 0.177103 4.91881 0
M  V30 14476 N 1359.85 -1.54672 0.302354 0
M  V30 14477 C 1361.08 -2.04578 -0.309093 0
M  V30 14478 C 1361.5 -1.17957 -1.47416 0
M  V30 14479 O 1360.85 -0.2055 -1.81339 0
M  V30 14480 C 1360.9 -3.53334 -0.764023 0
M  V30 14481 O 1360.62 -4.36662 0.354674 0
M  V30 14482 C 1362.13 -4.19243 -1.44048 0
M  V30 14483 H 1359.35 -0.667651 -0.0669575 0
M  V30 14484 H 1361.89 -1.99658 0.442379 0
M  V30 14485 H 1360.04 -3.5861 -1.46552 0
M  V30 14486 H 1360.46 -5.245 0.000241188 0
M  V30 14487 H 1361.93 -5.24847 -1.70995 0
M  V30 14488 H 1362.41 -3.69061 -2.38098 0
M  V30 14489 H 1363.02 -4.18046 -0.782132 0
M  V30 14490 N 1361.33 -0.0301034 -1.57571 0
M  V30 14491 C 1362.26 0.94977 -2.13311 0
M  V30 14492 C 1363.24 1.33865 -1.04948 0
M  V30 14493 O 1364.43 1.4171 -1.32786 0
M  V30 14494 C 1361.56 2.23178 -2.66099 0
M  V30 14495 C 1360.51 1.98362 -3.79258 0
M  V30 14496 C 1359.84 3.32836 -4.18479 0
M  V30 14497 C 1361.14 1.32201 -5.05292 0
M  V30 14498 H 1362.83 0.485562 -2.95436 0
M  V30 14499 H 1360.38 0.232116 -1.42117 0
M  V30 14500 H 1362.33 2.92108 -3.03728 0
M  V30 14501 H 1361.05 2.71766 -1.81137 0
M  V30 14502 H 1359.71 1.31849 -3.42069 0
M  V30 14503 H 1359.36 3.79185 -3.30496 0
M  V30 14504 H 1359.06 3.17037 -4.94733 0
M  V30 14505 H 1360.58 4.03032 -4.58691 0
M  V30 14506 H 1362 1.91133 -5.40501 0
M  V30 14507 H 1360.4 1.26797 -5.86551 0
M  V30 14508 H 1361.47 0.29511 -4.84001 0
M  V30 14509 N 1362.81 1.55714 0.243056 0
M  V30 14510 C 1364.06 1.77375 0.968638 0
M  V30 14511 C 1364.38 0.594781 1.85708 0
M  V30 14512 O 1363.65 -0.38928 1.91993 0
M  V30 14513 H 1362.23 0.654174 0.360646 0
M  V30 14514 H 1364.89 1.93157 0.260079 0
M  V30 14515 H 1363.99 2.68674 1.5881 0
M  V30 14516 N 1364.29 -0.50888 1.49158 0
M  V30 14517 C 1365.51 -1.29245 1.62205 0
M  V30 14518 C 1365.94 -1.85845 0.29041 0
M  V30 14519 O 1365.29 -1.6547 -0.740906 0
M  V30 14520 C 1365.34 -2.40415 2.68762 0
M  V30 14521 O 1364.45 -3.44048 2.27387 0
M  V30 14522 H 1363.79 -0.381898 0.543185 0
M  V30 14523 H 1366.32 -0.610076 1.95293 0
M  V30 14524 H 1366.33 -2.86295 2.90688 0
M  V30 14525 H 1365 -1.98584 3.65427 0
M  V30 14526 H 1363.58 -3.04141 2.1576 0
M  V30 14527 N 1365.76 -1.381 -0.759346 0
M  V30 14528 C 1366.69 -1.37578 -1.88665 0
M  V30 14529 C 1367.68 -0.242529 -1.68362 0
M  V30 14530 O 1368.86 -0.444751 -1.89039 0
M  V30 14531 C 1365.99 -1.19437 -3.26117 0
M  V30 14532 C 1364.94 -2.29905 -3.61009 0
M  V30 14533 C 1364.27 -1.96874 -4.97136 0
M  V30 14534 C 1365.57 -3.72143 -3.66479 0
M  V30 14535 H 1367.26 -2.31912 -1.89359 0
M  V30 14536 H 1364.81 -1.11632 -0.909631 0
M  V30 14537 H 1366.76 -1.17698 -4.0463 0
M  V30 14538 H 1365.49 -0.21562 -3.25887 0
M  V30 14539 H 1364.15 -2.3082 -2.84812 0
M  V30 14540 H 1363.79 -0.974979 -4.9346 0
M  V30 14541 H 1363.49 -2.70855 -5.21451 0
M  V30 14542 H 1365.02 -1.96744 -5.78035 0
M  V30 14543 H 1366.43 -3.73291 -4.35117 0
M  V30 14544 H 1364.83 -4.45282 -4.02299 0
M  V30 14545 H 1365.9 -4.04874 -2.66843 0
M  V30 14546 N 1367.24 0.986894 -1.22875 0
M  V30 14547 C 1368.65 1.54182 -1.05284 0
M  V30 14548 C 1369 1.92448 0.381856 0
M  V30 14549 O 1368.13 1.75381 1.26769 0
M  V30 14550 C 1368.72 2.80173 -1.90496 0
M  V30 14551 C 1367.28 3.32088 -1.77185 0
M  V30 14552 C 1366.43 2.05128 -1.86596 0
M  V30 14553 H 1369.38 0.807304 -1.36632 0
M  V30 14554 H 1369.4 3.52772 -1.42591 0
M  V30 14555 H 1368.91 2.52291 -2.94908 0
M  V30 14556 H 1367.02 3.64864 -0.755295 0
M  V30 14557 H 1367.13 4.02285 -2.60199 0
M  V30 14558 H 1365.49 2.18964 -1.30103 0
M  V30 14559 H 1366.28 1.79635 -2.92551 0
M  V30 14560 N 1368.72 1.0394 1.18466 0
M  V30 14561 C 1370 0.65632 1.8426 0
M  V30 14562 C 1370.38 -0.864288 1.92596 0
M  V30 14563 O 1369.73 -1.76524 1.45092 0
M  V30 14564 C 1369.94 1.33067 3.22636 0
M  V30 14565 C 1371.28 1.46065 3.98686 0
M  V30 14566 O 1372.31 1.28867 3.32072 0
M  V30 14567 O 1371.17 1.74078 5.18034 0
M  V30 14568 H 1368.26 0.229484 0.794523 0
M  V30 14569 H 1370.81 1.13821 1.25868 0
M  V30 14570 H 1369.58 2.36866 3.11465 0
M  V30 14571 H 1369.2 0.837313 3.88683 0
M  V30 14572 N 1370.2 -1.34667 0.818693 0
M  V30 14573 C 1371.48 -1.92838 0.327521 0
M  V30 14574 C 1371.86 -1.74732 -1.18457 0
M  V30 14575 O 1371.2 -1.12352 -1.98971 0
M  V30 14576 C 1371.41 -3.40797 0.752207 0
M  V30 14577 C 1372.76 -4.17948 0.748613 0
M  V30 14578 O 1373.79 -3.49364 0.694517 0
M  V30 14579 O 1372.64 -5.40344 0.817958 0
M  V30 14580 H 1369.74 -0.822249 0.0885148 0
M  V30 14581 H 1372.28 -1.43668 0.9032 0
M  V30 14582 H 1371.06 -3.47759 1.79387 0
M  V30 14583 H 1370.68 -3.97309 0.151992 0
M  V30 14584 N 1371.68 -0.573274 -1.46804 0
M  V30 14585 C 1372.92 -0.0552613 -2.02425 0
M  V30 14586 C 1373.25 1.30098 -1.44585 0
M  V30 14587 O 1372.51 1.86366 -0.597166 0
M  V30 14588 C 1372.81 0.0704285 -3.57331 0
M  V30 14589 C 1372.47 -1.217 -4.34166 0
M  V30 14590 C 1371.13 -1.56973 -4.54877 0
M  V30 14591 C 1373.49 -2.06939 -4.78357 0
M  V30 14592 C 1370.81 -2.77302 -5.1703 0
M  V30 14593 C 1373.17 -3.26486 -5.41839 0
M  V30 14594 C 1371.83 -3.62053 -5.6078 0
M  V30 14595 H 1371.1 -0.0202215 -0.740724 0
M  V30 14596 H 1373.75 -0.748016 -1.76287 0
M  V30 14597 H 1372.05 0.846254 -3.82552 0
M  V30 14598 H 1373.75 0.486841 -3.98034 0
M  V30 14599 H 1370.34 -0.932374 -4.18336 0
M  V30 14600 H 1374.52 -1.80992 -4.62121 0
M  V30 14601 H 1369.78 -3.05008 -5.29887 0
M  V30 14602 H 1373.95 -3.92811 -5.75042 0
M  V30 14603 H 1371.58 -4.55385 -6.08711 0
M  V30 14604 N 1373.15 1.5451 -0.310553 0
M  V30 14605 C 1374.4 2.00623 0.296343 0
M  V30 14606 C 1374.73 1.19855 1.52802 0
M  V30 14607 O 1374.01 0.277468 1.92511 0
M  V30 14608 C 1374.29 3.54305 0.643448 0
M  V30 14609 C 1374.14 4.45807 -0.598029 0
M  V30 14610 C 1375.46 4.14958 1.46623 0
M  V30 14611 H 1372.58 0.729303 0.106236 0
M  V30 14612 H 1375.22 1.85196 -0.424549 0
M  V30 14613 H 1373.37 3.67581 1.25762 0
M  V30 14614 H 1375.05 4.44421 -1.23643 0
M  V30 14615 H 1373.29 4.16014 -1.22944 0
M  V30 14616 H 1373.96 5.51124 -0.310883 0
M  V30 14617 H 1376.44 4.05176 0.947199 0
M  V30 14618 H 1375.31 5.22627 1.67787 0
M  V30 14619 H 1375.57 3.67445 2.45839 0
M  V30 14620 N 1374.63 0.0384594 1.57553 0
M  V30 14621 C 1375.87 -0.642187 1.9405 0
M  V30 14622 C 1376.24 -1.68753 0.915779 0
M  V30 14623 O 1377.44 -2.42133 1.16726 0
M  V30 14624 C 1375.71 -1.23422 3.35413 0
M  V30 14625 S 1377.27 -1.93464 3.93849 0
M  V30 14626 H 1374.09 -0.211198 0.678908 0
M  V30 14627 H 1376.69 0.104358 1.95221 0
M  V30 14628 H 1375.39 -0.461112 4.07801 0
M  V30 14629 H 1374.92 -2.01787 3.37707 0
M  V30 14630 H 1376.94 -3.21401 3.78042 0
M  V30 14631 N 1376.11 -1.55841 -0.234795 0
M  V30 14632 C 1377.34 -1.82043 -0.976937 0
M  V30 14633 C 1377.75 -0.613552 -1.78975 0
M  V30 14634 O 1377.09 0.427271 -1.78662 0
M  V30 14635 C 1377.15 -3.0178 -1.95369 0
M  V30 14636 C 1376.82 -4.3732 -1.32666 0
M  V30 14637 C 1377.82 -5.14847 -0.723107 0
M  V30 14638 C 1375.5 -4.8403 -1.3424 0
M  V30 14639 C 1377.49 -6.37238 -0.143646 0
M  V30 14640 C 1375.18 -6.06367 -0.759087 0
M  V30 14641 C 1376.18 -6.82811 -0.16075 0
M  V30 14642 O 1375.87 -8.02836 0.41352 0
M  V30 14643 H 1375.6 -0.609424 -0.292537 0
M  V30 14644 H 1378.15 -2.03758 -0.259216 0
M  V30 14645 H 1376.38 -2.7585 -2.71005 0
M  V30 14646 H 1378.07 -3.14968 -2.56027 0
M  V30 14647 H 1378.84 -4.79873 -0.703371 0
M  V30 14648 H 1374.72 -4.24512 -1.7975 0
M  V30 14649 H 1378.26 -6.96847 0.324002 0
M  V30 14650 H 1374.16 -6.40816 -0.776191 0
M  V30 14651 H 1374.93 -8.17926 0.306554 0
M  V30 14652 N 1377.59 0.500963 -1.49426 0
M  V30 14653 C 1378.84 1.25509 -1.58915 0
M  V30 14654 C 1379.16 1.92534 -0.275868 0
M  V30 14655 O 1378.42 1.81324 0.736212 0
M  V30 14656 C 1378.72 2.34448 -2.69757 0
M  V30 14657 C 1378.38 1.8488 -4.11254 0
M  V30 14658 C 1377.05 1.71081 -4.49761 0
M  V30 14659 C 1379.4 1.4778 -4.9981 0
M  V30 14660 C 1376.73 1.18561 -5.74596 0
M  V30 14661 C 1379.08 0.967118 -6.25164 0
M  V30 14662 C 1377.74 0.815523 -6.62499 0
M  V30 14663 H 1377.01 0.459268 -0.58151 0
M  V30 14664 H 1379.66 0.555817 -1.83256 0
M  V30 14665 H 1377.96 3.10163 -2.39387 0
M  V30 14666 H 1379.66 2.925 -2.74308 0
M  V30 14667 H 1376.25 1.9658 -3.8086 0
M  V30 14668 H 1380.44 1.57288 -4.70717 0
M  V30 14669 H 1375.69 1.05536 -6.02223 0
M  V30 14670 H 1379.87 0.670857 -6.93161 0
M  V30 14671 H 1377.49 0.406375 -7.59113 0
M  V30 14672 N 1379.07 1.38501 0.752011 0
M  V30 14673 C 1380.3 1.38032 1.54125 0
M  V30 14674 C 1380.71 -0.0295066 1.88777 0
M  V30 14675 O 1380.07 -0.996522 1.52891 0
M  V30 14676 C 1380.12 2.23741 2.83941 0
M  V30 14677 O 1379.84 3.59232 2.50767 0
M  V30 14678 C 1381.34 2.31469 3.7807 0
M  V30 14679 H 1378.56 0.472077 0.476848 0
M  V30 14680 H 1381.1 1.82101 0.930572 0
M  V30 14681 H 1379.26 1.8313 3.41383 0
M  V30 14682 H 1379.67 4.04376 3.34036 0
M  V30 14683 H 1381.15 2.95722 4.66103 0
M  V30 14684 H 1381.62 1.32882 4.18616 0
M  V30 14685 H 1382.23 2.72477 3.26552 0
M  V30 14686 N 1380.55 -0.980364 1.23396 0
M  V30 14687 C 1381.77 -1.76223 1.09363 0
M  V30 14688 C 1382.2 -1.84801 -0.350759 0
M  V30 14689 O 1381.55 -1.30966 -1.2537 0
M  V30 14690 C 1381.6 -3.16728 1.72383 0
M  V30 14691 O 1380.71 -4.00439 0.986002 0
M  V30 14692 H 1380.05 -0.542174 0.383332 0
M  V30 14693 H 1382.58 -1.23066 1.6345 0
M  V30 14694 H 1382.59 -3.67307 1.77623 0
M  V30 14695 H 1381.26 -3.098 2.77483 0
M  V30 14696 H 1379.84 -3.58946 1.01054 0
M  V30 14697 N 1382.02 -1.04567 -1.17913 0
M  V30 14698 C 1383.44 -0.76584 -1.40025 0
M  V30 14699 C 1383.64 0.642484 -1.90983 0
M  V30 14700 O 1382.7 1.40589 -2.0974 0
M  V30 14701 C 1384.01 -1.81616 -2.39658 0
M  V30 14702 C 1385.56 -1.83765 -2.53376 0
M  V30 14703 C 1386.03 -2.87803 -3.56277 0
M  V30 14704 N 1387.52 -2.86726 -3.63789 0
M  V30 14705 C 1388.26 -3.63876 -4.4315 0
M  V30 14706 N 1387.75 -4.50793 -5.26077 0
M  V30 14707 N 1389.55 -3.52344 -4.37962 0
M  V30 14708 H 1381.7 -1.95442 -0.831647 0
M  V30 14709 H 1383.96 -0.84593 -0.42791 0
M  V30 14710 H 1383.67 -2.8266 -2.09275 0
M  V30 14711 H 1383.54 -1.65251 -3.39075 0
M  V30 14712 H 1385.93 -0.833896 -2.83073 0
M  V30 14713 H 1386.01 -2.04208 -1.54055 0
M  V30 14714 H 1385.65 -3.88361 -3.2732 0
M  V30 14715 H 1385.58 -2.64614 -4.55288 0
M  V30 14716 H 1388.07 -2.237 -3.04576 0
M  V30 14717 H 1388.39 -5.0636 -5.83798 0
M  V30 14718 H 1386.73 -4.54858 -5.2548 0
M  V30 14719 H 1389.92 -2.8384 -3.72226 0
M  V30 14720 H 1390.1 -4.12718 -4.99568 0
M  V30 14721 N 1383.5 1.34231 -0.825823 0
M  V30 14722 C 1384.75 1.98196 -0.415276 0
M  V30 14723 C 1385.08 1.65463 1.02236 0
M  V30 14724 O 1384.33 0.919868 1.72734 0
M  V30 14725 C 1384.63 3.52861 -0.56778 0
M  V30 14726 C 1384.3 4.05512 -1.97157 0
M  V30 14727 C 1382.96 4.19602 -2.35557 0
M  V30 14728 C 1385.31 4.33798 -2.88909 0
M  V30 14729 C 1382.64 4.59307 -3.6504 0
M  V30 14730 C 1384.99 4.74949 -4.17859 0
M  V30 14731 C 1383.65 4.87245 -4.56233 0
M  V30 14732 H 1382.92 0.725251 -0.15196 0
M  V30 14733 H 1385.57 1.60126 -1.05033 0
M  V30 14734 H 1383.88 3.9151 0.15065 0
M  V30 14735 H 1385.57 4.00336 -0.230608 0
M  V30 14736 H 1382.16 3.9501 -1.66328 0
M  V30 14737 H 1386.35 4.22448 -2.60483 0
M  V30 14738 H 1381.6 4.67017 -3.94594 0
M  V30 14739 H 1385.78 4.95795 -4.8904 0
M  V30 14740 H 1383.4 5.17768 -5.56615 0
M  V30 14741 N 1384.98 0.581051 1.46498 0
M  V30 14742 C 1386.39 0.154032 1.86064 0
M  V30 14743 C 1386.74 -1.28247 1.48483 0
M  V30 14744 O 1385.87 -1.96845 0.898945 0
M  V30 14745 C 1386.46 0.272764 3.377 0
M  V30 14746 C 1385.02 -0.0993724 3.76269 0
M  V30 14747 C 1384.17 0.60947 2.70519 0
M  V30 14748 H 1387.12 0.78937 1.37676 0
M  V30 14749 H 1387.14 -0.502326 3.7717 0
M  V30 14750 H 1386.65 1.31837 3.65021 0
M  V30 14751 H 1384.75 -1.14517 3.54565 0
M  V30 14752 H 1384.87 0.275791 4.78306 0
M  V30 14753 H 1383.23 0.0499083 2.54651 0
M  V30 14754 H 1384.01 1.65669 3.0068 0
M  V30 14755 N 1386.46 -1.54343 0.318742 0
M  V30 14756 C 1387.41 -2.20892 -0.564849 0
M  V30 14757 C 1388.39 -1.18782 -1.08534 0
M  V30 14758 O 1389.58 -1.44431 -1.02316 0
M  V30 14759 C 1386.71 -2.96661 -1.72763 0
M  V30 14760 C 1385.8 -4.06105 -1.22226 0
M  V30 14761 N 1386.19 -5.03916 -0.436203 0
M  V30 14762 C 1384.49 -4.19968 -1.50142 0
M  V30 14763 C 1385.19 -5.81466 -0.164875 0
M  V30 14764 N 1384.16 -5.38406 -0.74966 0
M  V30 14765 H 1387.97 -2.93868 0.0430622 0
M  V30 14766 H 1385.48 -1.61923 0.124362 0
M  V30 14767 H 1387.48 -3.42819 -2.37236 0
M  V30 14768 H 1386.14 -2.25206 -2.33907 0
M  V30 14769 H 1387.15 -5.17839 -0.0794815 0
M  V30 14770 H 1383.83 -3.59726 -2.11905 0
M  V30 14771 H 1385.22 -6.70271 0.467617 0
M  V30 14772 N 1387.94 -0.0468143 -1.5753 0
M  V30 14773 C 1388.87 0.927092 -2.14306 0
M  V30 14774 C 1389.85 1.32745 -1.06362 0
M  V30 14775 O 1391.03 1.40293 -1.34281 0
M  V30 14776 C 1388.16 2.20343 -2.68452 0
M  V30 14777 C 1387.12 1.94328 -3.81341 0
M  V30 14778 C 1386.44 3.28379 -4.21985 0
M  V30 14779 C 1387.74 1.26835 -5.06666 0
M  V30 14780 H 1389.44 0.454199 -2.95935 0
M  V30 14781 H 1386.98 0.217029 -1.42355 0
M  V30 14782 H 1388.93 2.8887 -3.0681 0
M  V30 14783 H 1387.66 2.6983 -1.84009 0
M  V30 14784 H 1386.32 1.28214 -3.43448 0
M  V30 14785 H 1385.97 3.75658 -3.34499 0
M  V30 14786 H 1385.67 3.11772 -4.98068 0
M  V30 14787 H 1387.19 3.98145 -4.6294 0
M  V30 14788 H 1388.6 1.85389 -5.42498 0
M  V30 14789 H 1387 1.20569 -5.87863 0
M  V30 14790 H 1388.07 0.243759 -4.84287 0
M  V30 14791 N 1389.41 1.55964 0.226527 0
M  V30 14792 C 1390.34 1.95028 1.284 0
M  V30 14793 C 1391.33 0.817833 1.49149 0
M  V30 14794 O 1392.51 1.07975 1.61416 0
M  V30 14795 C 1389.64 2.26266 2.63478 0
M  V30 14796 C 1388.59 3.41954 2.57393 0
M  V30 14797 C 1387.92 3.58786 3.96456 0
M  V30 14798 C 1389.22 4.77069 2.12608 0
M  V30 14799 H 1390.91 2.83608 0.959513 0
M  V30 14800 H 1388.46 1.36451 0.460125 0
M  V30 14801 H 1390.41 2.52186 3.3761 0
M  V30 14802 H 1389.14 1.34533 2.97604 0
M  V30 14803 H 1387.8 3.16076 1.85719 0
M  V30 14804 H 1387.44 2.64437 4.27881 0
M  V30 14805 H 1387.14 4.36595 3.93267 0
M  V30 14806 H 1388.67 3.87048 4.72256 0
M  V30 14807 H 1390.08 5.02226 2.76481 0
M  V30 14808 H 1388.48 5.58126 2.2049 0
M  V30 14809 H 1389.55 4.7276 1.07823 0
M  V30 14810 N 1390.89 -0.493031 1.4969 0
M  V30 14811 C 1391.86 -1.57598 1.6642 0
M  V30 14812 C 1392.86 -1.51615 0.535668 0
M  V30 14813 O 1394.05 -1.54626 0.802283 0
M  V30 14814 C 1391.18 -2.97249 1.66901 0
M  V30 14815 H 1392.37 -1.4409 2.63017 0
M  V30 14816 H 1389.92 -0.717846 1.3884 0
M  V30 14817 H 1390.66 -3.16225 0.719164 0
M  V30 14818 H 1390.44 -3.02999 2.48865 0
M  V30 14819 H 1391.93 -3.75914 1.81874 0
M  V30 14820 N 1392.37 -1.38898 -0.744656 0
M  V30 14821 C 1393.32 -1.33342 -1.84943 0
M  V30 14822 C 1394.3 -0.216036 -1.59443 0
M  V30 14823 O 1395.5 -0.452764 -1.71111 0
M  V30 14824 C 1392.63 -1.16966 -3.2276 0
M  V30 14825 C 1391.71 -2.33365 -3.54121 0
M  V30 14826 N 1392.1 -3.58824 -3.56481 0
M  V30 14827 C 1390.4 -2.26112 -3.84434 0
M  V30 14828 C 1391.1 -4.35741 -3.85364 0
M  V30 14829 N 1390.08 -3.65206 -4.02648 0
M  V30 14830 H 1393.88 -2.28321 -1.85059 0
M  V30 14831 H 1391.39 -1.32257 -0.94244 0
M  V30 14832 H 1393.39 -1.11069 -4.01832 0
M  V30 14833 H 1392.05 -0.229288 -3.23889 0
M  V30 14834 H 1393.06 -3.92377 -3.38025 0
M  V30 14835 H 1389.74 -1.40283 -3.93226 0
M  V30 14836 H 1391.13 -5.44445 -3.93738 0
M  V30 14837 N 1393.85 0.973806 -1.23914 0
M  V30 14838 C 1395.08 1.75107 -1.10206 0
M  V30 14839 C 1395.49 1.85604 0.345935 0
M  V30 14840 O 1394.85 1.33996 1.239 0
M  V30 14841 C 1394.9 3.17466 -1.72909 0
M  V30 14842 O 1394.62 3.07504 -3.12047 0
M  V30 14843 C 1396.12 4.11557 -1.6473 0
M  V30 14844 H 1393.34 0.549318 -0.385345 0
M  V30 14845 H 1395.89 1.22301 -1.63898 0
M  V30 14846 H 1394.04 3.67277 -1.23234 0
M  V30 14847 H 1394.45 3.97169 -3.42575 0
M  V30 14848 H 1395.93 5.09126 -2.13295 0
M  V30 14849 H 1396.41 4.3498 -0.607352 0
M  V30 14850 H 1397.01 3.67653 -2.13802 0
M  V30 14851 N 1395.33 1.05191 1.17357 0
M  V30 14852 C 1396.56 0.781238 1.9126 0
M  V30 14853 C 1396.96 -0.66688 1.77057 0
M  V30 14854 O 1396.31 -1.4673 1.10526 0
M  V30 14855 C 1396.37 1.08225 3.42823 0
M  V30 14856 C 1396.03 2.52655 3.80808 0
M  V30 14857 C 1397.03 3.50864 3.83654 0
M  V30 14858 C 1394.72 2.87664 4.11771 0
M  V30 14859 C 1396.71 4.82127 4.16932 0
M  V30 14860 C 1394.4 4.1913 4.44717 0
M  V30 14861 C 1395.39 5.16172 4.47276 0
M  V30 14862 O 1395.08 6.4528 4.79447 0
M  V30 14863 H 1394.81 0.283516 0.613673 0
M  V30 14864 H 1397.37 1.40577 1.49758 0
M  V30 14865 H 1395.6 0.400623 3.84619 0
M  V30 14866 H 1397.29 0.797593 3.97987 0
M  V30 14867 H 1398.05 3.25158 3.59857 0
M  V30 14868 H 1393.93 2.12793 4.0895 0
M  V30 14869 H 1397.48 5.57867 4.18844 0
M  V30 14870 H 1393.37 4.44599 4.67976 0
M  V30 14871 H 1394.14 6.50101 4.97304 0
M  V30 14872 N 1396.8 -1.33791 0.83293 0
M  V30 14873 C 1398.22 -1.50893 0.519955 0
M  V30 14874 C 1398.42 -1.7749 -0.953919 0
M  V30 14875 O 1397.48 -1.83168 -1.73798 0
M  V30 14876 C 1398.79 -2.66741 1.38815 0
M  V30 14877 C 1400.34 -2.80625 1.38631 0
M  V30 14878 C 1400.81 -3.99528 2.23922 0
M  V30 14879 N 1402.3 -4.06753 2.21599 0
M  V30 14880 C 1403.04 -4.97937 2.84335 0
M  V30 14881 N 1402.53 -5.94276 3.561 0
M  V30 14882 N 1404.33 -4.90887 2.73837 0
M  V30 14883 H 1396.48 -1.14788 1.7871 0
M  V30 14884 H 1398.74 -0.563822 0.762108 0
M  V30 14885 H 1398.45 -2.53748 2.43525 0
M  V30 14886 H 1398.32 -3.62001 1.05996 0
M  V30 14887 H 1400.71 -2.93053 0.346951 0
M  V30 14888 H 1400.79 -1.86144 1.75454 0
M  V30 14889 H 1400.43 -3.8786 3.27914 0
M  V30 14890 H 1400.36 -4.93242 1.84444 0
M  V30 14891 H 1402.85 -3.37802 1.69406 0
M  V30 14892 H 1403.17 -6.60504 4.01191 0
M  V30 14893 H 1401.51 -5.9437 3.60207 0
M  V30 14894 H 1404.7 -4.14586 2.17338 0
M  V30 14895 H 1404.88 -5.61752 3.23014 0
M  V30 14896 N 1398.28 -0.588812 -1.46187 0
M  V30 14897 C 1399.25 0.130803 -2.28826 0
M  V30 14898 C 1400.25 0.813037 -1.38731 0
M  V30 14899 O 1401.44 0.664061 -1.61046 0
M  V30 14900 C 1398.57 1.19484 -3.19275 0
M  V30 14901 H 1399.76 -0.595514 -2.93928 0
M  V30 14902 H 1397.31 -0.347038 -1.52399 0
M  V30 14903 H 1398.05 1.95254 -2.58933 0
M  V30 14904 H 1397.83 0.710077 -3.85617 0
M  V30 14905 H 1399.32 1.69938 -3.81459 0
M  V30 14906 N 1399.76 1.54172 -0.326923 0
M  V30 14907 C 1400.69 2.20703 0.580137 0
M  V30 14908 C 1401.67 1.18523 1.11315 0
M  V30 14909 O 1402.86 1.47276 1.17652 0
M  V30 14910 C 1399.98 2.87137 1.79638 0
M  V30 14911 C 1399.03 4.03064 1.39432 0
M  V30 14912 S 1399.86 5.33785 0.428179 0
M  V30 14913 C 1401.02 6.03715 1.65163 0
M  V30 14914 H 1401.25 2.97296 0.0149964 0
M  V30 14915 H 1398.78 1.54 -0.111004 0
M  V30 14916 H 1400.74 3.26035 2.49423 0
M  V30 14917 H 1399.4 2.1034 2.33272 0
M  V30 14918 H 1398.6 4.48424 2.3007 0
M  V30 14919 H 1398.2 3.65858 0.776144 0
M  V30 14920 H 1400.49 6.26098 2.58858 0
M  V30 14921 H 1401.43 6.97156 1.24014 0
M  V30 14922 H 1401.84 5.33666 1.84014 0
M  V30 14923 N 1401.24 0.0551678 1.57503 0
M  V30 14924 C 1402.15 -0.932959 2.15251 0
M  V30 14925 C 1403.16 -1.33885 1.11134 0
M  V30 14926 O 1404.34 -1.41495 1.43321 0
M  V30 14927 C 1401.41 -2.18807 2.68932 0
M  V30 14928 C 1400.47 -1.84016 3.87862 0
M  V30 14929 C 1399.7 -3.03543 4.38973 0
M  V30 14930 O 1399.92 -4.17041 3.89144 0
M  V30 14931 O 1398.86 -2.84325 5.30512 0
M  V30 14932 H 1402.68 -0.471816 3.00013 0
M  V30 14933 H 1400.27 -0.16696 1.48464 0
M  V30 14934 H 1402.15 -2.92439 3.0341 0
M  V30 14935 H 1400.82 -2.64051 1.87239 0
M  V30 14936 H 1399.73 -1.07687 3.58266 0
M  V30 14937 H 1401.06 -1.43567 4.70796 0
M  V30 14938 N 1402.72 -1.56081 -0.218252 0
M  V30 14939 C 1403.65 -1.95706 -1.27364 0
M  V30 14940 C 1404.63 -0.825731 -1.48713 0
M  V30 14941 O 1405.81 -1.08829 -1.60841 0
M  V30 14942 C 1402.94 -2.2766 -2.62275 0
M  V30 14943 C 1401.9 -3.43314 -2.55576 0
M  V30 14944 C 1401.22 -3.60883 -3.94547 0
M  V30 14945 C 1402.52 -4.7819 -2.10075 0
M  V30 14946 H 1404.22 -2.84113 -0.944459 0
M  V30 14947 H 1401.76 -1.36693 -0.452882 0
M  V30 14948 H 1403.72 -2.53973 -3.36268 0
M  V30 14949 H 1402.44 -1.3611 -2.96887 0
M  V30 14950 H 1401.1 -3.17056 -1.8404 0
M  V30 14951 H 1400.75 -2.66703 -4.26472 0
M  V30 14952 H 1400.45 -4.38674 -3.90946 0
M  V30 14953 H 1401.97 -3.89547 -4.70197 0
M  V30 14954 H 1403.38 -5.03686 -2.73813 0
M  V30 14955 H 1401.78 -5.59287 -2.17527 0
M  V30 14956 H 1402.85 -4.73325 -1.05314 0
M  V30 14957 N 1404.2 0.485086 -1.49949 0
M  V30 14958 C 1405.44 1.24816 -1.61865 0
M  V30 14959 C 1405.8 1.8955 -0.305741 0
M  V30 14960 O 1407 2.67118 -0.300216 0
M  V30 14961 C 1405.27 2.27464 -2.75672 0
M  V30 14962 S 1406.83 3.12898 -3.07637 0
M  V30 14963 H 1403.65 0.423964 -0.570767 0
M  V30 14964 H 1406.25 0.547552 -1.87676 0
M  V30 14965 H 1404.95 1.78464 -3.69566 0
M  V30 14966 H 1404.49 3.02172 -2.51904 0
M  V30 14967 H 1406.5 4.28395 -2.50384 0
M  V30 14968 N 1405.67 1.39291 0.737279 0
M  V30 14969 C 1406.9 1.39844 1.53162 0
M  V30 14970 C 1407.32 -0.00568546 1.88099 0
M  V30 14971 O 1406.68 -0.992085 1.51748 0
M  V30 14972 C 1406.73 2.27577 2.79716 0
M  V30 14973 O 1405.83 1.70408 3.75546 0
M  V30 14974 H 1405.17 0.476314 0.462624 0
M  V30 14975 H 1407.7 1.83258 0.909819 0
M  V30 14976 H 1407.71 2.42009 3.28475 0
M  V30 14977 H 1406.39 3.29621 2.53619 0
M  V30 14978 H 1404.97 1.65206 3.34307 0
M  V30 14979 N 1407.15 -0.967221 1.24429 0
M  V30 14980 C 1408.1 -2.047 1.00409 0
M  V30 14981 C 1409.09 -1.60807 -0.0546412 0
M  V30 14982 O 1410.28 -1.76283 0.159145 0
M  V30 14983 C 1407.41 -3.37813 0.611345 0
M  V30 14984 C 1406.49 -3.88266 1.70618 0
M  V30 14985 N 1406.88 -4.1165 2.93901 0
M  V30 14986 C 1405.18 -4.16931 1.5838 0
M  V30 14987 C 1405.88 -4.53032 3.64879 0
M  V30 14988 N 1404.86 -4.58233 2.92444 0
M  V30 14989 H 1408.66 -2.20755 1.94021 0
M  V30 14990 H 1406.17 -1.15105 1.14562 0
M  V30 14991 H 1408.17 -4.14774 0.420493 0
M  V30 14992 H 1406.83 -3.23143 -0.317588 0
M  V30 14993 H 1407.84 -3.99087 3.30075 0
M  V30 14994 H 1404.52 -4.11193 0.722929 0
M  V30 14995 H 1405.91 -4.79533 4.70635 0
M  V30 14996 N 1408.63 -1.05812 -1.16797 0
M  V30 14997 C 1409.54 -0.675541 -2.24663 0
M  V30 14998 C 1410.56 0.30622 -1.71284 0
M  V30 14999 O 1411.73 0.156752 -2.00789 0
M  V30 15000 C 1408.8 -0.0627149 -3.46643 0
M  V30 15001 C 1407.86 -1.09572 -4.15081 0
M  V30 15002 C 1407.09 -0.512044 -5.31238 0
M  V30 15003 O 1407.31 0.676665 -5.66372 0
M  V30 15004 O 1406.25 -1.24936 -5.88791 0
M  V30 15005 H 1410.07 -1.57467 -2.59688 0
M  V30 15006 H 1407.66 -0.830073 -1.24218 0
M  V30 15007 H 1409.54 0.277543 -4.20485 0
M  V30 15008 H 1408.22 0.80997 -3.13403 0
M  V30 15009 H 1407.12 -1.48807 -3.4323 0
M  V30 15010 H 1408.46 -1.93977 -4.52365 0
M  V30 15011 N 1410.11 1.33347 -0.840014 0
M  V30 15012 C 1411.52 1.50615 -0.52795 0
M  V30 15013 C 1411.72 1.77993 0.944493 0
M  V30 15014 O 1410.78 1.84087 1.72824 0
M  V30 15015 C 1412.09 2.66001 -1.40228 0
M  V30 15016 C 1413.64 2.79886 -1.40117 0
M  V30 15017 C 1414.12 3.98335 -2.26038 0
M  V30 15018 N 1415.61 4.05572 -2.23753 0
M  V30 15019 C 1416.34 4.96422 -2.86972 0
M  V30 15020 N 1415.84 5.9238 -3.59247 0
M  V30 15021 N 1417.63 4.89428 -2.76436 0
M  V30 15022 H 1409.78 1.13839 -1.79317 0
M  V30 15023 H 1412.04 0.559772 -0.765088 0
M  V30 15024 H 1411.75 2.52453 -2.44868 0
M  V30 15025 H 1411.62 3.61434 -1.07914 0
M  V30 15026 H 1414.01 2.92865 -0.362487 0
M  V30 15027 H 1414.09 1.85211 -1.76439 0
M  V30 15028 H 1413.74 3.86115 -3.29966 0
M  V30 15029 H 1413.67 4.92257 -1.87057 0
M  V30 15030 H 1416.16 3.36899 -1.71195 0
M  V30 15031 H 1416.47 6.58367 -4.04688 0
M  V30 15032 H 1414.82 5.92451 -3.63354 0
M  V30 15033 H 1418.01 4.13428 -2.19534 0
M  V30 15034 H 1418.18 5.60032 -3.25989 0
M  V30 15035 N 1411.59 0.596556 1.45873 0
M  V30 15036 C 1412.52 -0.116229 2.33211 0
M  V30 15037 C 1413.5 -0.869868 1.46176 0
M  V30 15038 O 1414.68 -0.842599 1.74968 0
M  V30 15039 C 1411.81 -1.12145 3.28696 0
M  V30 15040 C 1410.77 -0.481749 4.2528 0
M  V30 15041 C 1410.09 -1.59443 5.10374 0
M  V30 15042 C 1411.39 0.589996 5.18957 0
M  V30 15043 H 1413.09 0.613005 2.93057 0
M  V30 15044 H 1410.63 0.296242 1.4092 0
M  V30 15045 H 1412.58 -1.62857 3.88659 0
M  V30 15046 H 1411.31 -1.88114 2.66985 0
M  V30 15047 H 1409.97 0.0044092 3.666 0
M  V30 15048 H 1409.62 -2.34413 4.45039 0
M  V30 15049 H 1409.32 -1.17197 5.75794 0
M  V30 15050 H 1410.84 -2.10404 5.73204 0
M  V30 15051 H 1412.25 0.167395 5.73056 0
M  V30 15052 H 1410.65 0.933565 5.92794 0
M  V30 15053 H 1411.72 1.47093 4.62052 0
M  V30 15054 N 1413.06 -1.53996 0.335095 0
M  V30 15055 C 1414.31 -2.00772 -0.263997 0
M  V30 15056 C 1414.64 -1.22309 -1.51231 0
M  V30 15057 O 1413.89 -0.296427 -1.93442 0
M  V30 15058 C 1414.19 -3.51769 -0.631907 0
M  V30 15059 C 1413.86 -4.47908 0.518553 0
M  V30 15060 C 1412.52 -4.73912 0.834297 0
M  V30 15061 C 1414.87 -5.04964 1.29078 0
M  V30 15062 C 1412.2 -5.54228 1.92478 0
M  V30 15063 C 1414.55 -5.86469 2.37144 0
M  V30 15064 C 1413.22 -6.1077 2.69288 0
M  V30 15065 H 1412.49 -0.734676 -0.0966033 0
M  V30 15066 H 1415.13 -1.85862 0.46126 0
M  V30 15067 H 1413.44 -3.64466 -1.43776 0
M  V30 15068 H 1415.14 -3.85412 -1.10719 0
M  V30 15069 H 1411.73 -4.27796 0.262392 0
M  V30 15070 H 1415.91 -4.84846 1.0601 0
M  V30 15071 H 1411.17 -5.71285 2.17816 0
M  V30 15072 H 1415.34 -6.29695 2.97417 0
M  V30 15073 H 1412.97 -6.72792 3.53913 0
M  V30 15074 N 1414.54 -0.0635198 -1.57472 0
M  V30 15075 C 1415.47 0.93602 -2.09216 0
M  V30 15076 C 1416.49 1.2668 -1.02255 0
M  V30 15077 O 1417.68 1.22543 -1.2979 0
M  V30 15078 C 1414.78 2.25417 -2.53062 0
M  V30 15079 C 1413.95 2.10347 -3.83501 0
M  V30 15080 C 1413.01 3.25394 -4.13528 0
M  V30 15081 O 1412.03 3.00751 -4.83257 0
M  V30 15082 N 1413.24 4.50243 -3.66417 0
M  V30 15083 H 1416 0.494288 -2.95596 0
M  V30 15084 H 1413.56 0.122416 -1.61437 0
M  V30 15085 H 1415.55 3.01272 -2.70217 0
M  V30 15086 H 1414.12 2.61116 -1.71864 0
M  V30 15087 H 1413.34 1.19009 -3.75807 0
M  V30 15088 H 1414.63 1.97519 -4.68896 0
M  V30 15089 H 1414.03 4.73152 -3.1007 0
M  V30 15090 H 1412.59 5.23152 -3.88787 0
M  V30 15091 N 1416.02 1.56195 0.209972 0
M  V30 15092 C 1417.43 1.69811 0.775969 0
M  V30 15093 C 1417.78 0.667543 1.84495 0
M  V30 15094 O 1416.91 -0.179043 2.15658 0
M  V30 15095 C 1417.5 3.07869 1.41429 0
M  V30 15096 C 1416.06 3.233 1.92755 0
M  V30 15097 C 1415.21 2.6575 0.791958 0
M  V30 15098 H 1418.16 1.58693 -0.0148727 0
M  V30 15099 H 1418.18 3.04371 2.28339 0
M  V30 15100 H 1417.69 3.82853 0.63604 0
M  V30 15101 H 1415.79 2.53206 2.73345 0
M  V30 15102 H 1415.91 4.30645 2.09956 0
M  V30 15103 H 1414.27 2.24535 1.20234 0
M  V30 15104 H 1415.05 3.4329 0.0261877 0
M  V30 15105 N 1417.5 -0.477127 1.50204 0
M  V30 15106 C 1418.73 -1.25126 1.64399 0
M  V30 15107 C 1419.14 -1.86401 0.32424 0
M  V30 15108 O 1418.48 -1.69711 -0.703119 0
M  V30 15109 C 1418.54 -2.40428 2.67273 0
M  V30 15110 C 1418.2 -1.99837 4.10992 0
M  V30 15111 C 1419.2 -1.52435 4.97051 0
M  V30 15112 C 1416.89 -2.08742 4.56872 0
M  V30 15113 C 1418.88 -1.14472 6.27037 0
M  V30 15114 C 1416.57 -1.70391 5.86865 0
M  V30 15115 C 1417.57 -1.23333 6.71772 0
M  V30 15116 O 1417.25 -0.855111 7.99339 0
M  V30 15117 H 1416.99 -0.384801 0.555791 0
M  V30 15118 H 1419.54 -0.576654 1.97139 0
M  V30 15119 H 1417.77 -3.1104 2.29763 0
M  V30 15120 H 1419.46 -3.02406 2.7075 0
M  V30 15121 H 1420.22 -1.44981 4.62823 0
M  V30 15122 H 1416.1 -2.44319 3.90934 0
M  V30 15123 H 1419.65 -0.776712 6.93263 0
M  V30 15124 H 1415.54 -1.77501 6.20615 0
M  V30 15125 H 1416.31 -0.984492 8.12558 0
M  V30 15126 N 1418.98 -1.3968 -0.729882 0
M  V30 15127 C 1420.21 -1.40263 -1.5169 0
M  V30 15128 C 1420.61 0.00325293 -1.892 0
M  V30 15129 O 1419.96 0.986225 -1.54982 0
M  V30 15130 C 1420.02 -2.21629 -2.83056 0
M  V30 15131 C 1419.68 -3.70204 -2.67951 0
M  V30 15132 C 1420.68 -4.63169 -2.36158 0
M  V30 15133 C 1418.37 -4.13851 -2.84662 0
M  V30 15134 C 1420.36 -5.97763 -2.21265 0
M  V30 15135 C 1418.05 -5.4852 -2.69387 0
M  V30 15136 C 1419.04 -6.4029 -2.37734 0
M  V30 15137 O 1418.73 -7.72478 -2.22561 0
M  V30 15138 H 1418.46 -0.480808 -0.475184 0
M  V30 15139 H 1421.02 -1.84184 -0.909136 0
M  V30 15140 H 1419.25 -1.72465 -3.46111 0
M  V30 15141 H 1420.94 -2.14328 -3.447 0
M  V30 15142 H 1421.7 -4.30748 -2.22893 0
M  V30 15143 H 1417.58 -3.42751 -3.0829 0
M  V30 15144 H 1421.13 -6.69359 -1.96481 0
M  V30 15145 H 1417.02 -5.8053 -2.82232 0
M  V30 15146 H 1417.79 -7.83258 -2.37591 0
M  V30 15147 N 1420.45 0.960609 -1.2494 0
M  V30 15148 C 1421.7 1.70448 -1.09333 0
M  V30 15149 C 1422.03 1.91012 0.366687 0
M  V30 15150 O 1421.28 1.4743 1.28697 0
M  V30 15151 C 1421.58 3.09564 -1.78619 0
M  V30 15152 C 1421.25 3.08819 -3.28545 0
M  V30 15153 C 1419.91 3.08323 -3.69446 0
M  V30 15154 C 1422.26 3.02606 -4.24357 0
M  V30 15155 C 1419.59 2.99356 -5.04582 0
M  V30 15156 C 1421.94 2.9518 -5.5951 0
M  V30 15157 C 1420.61 2.93017 -5.99748 0
M  V30 15158 H 1419.88 0.623714 -0.400078 0
M  V30 15159 H 1422.52 1.12273 -1.55136 0
M  V30 15160 H 1420.83 3.71247 -1.2523 0
M  V30 15161 H 1422.53 3.6593 -1.64001 0
M  V30 15162 H 1419.12 3.09974 -2.95997 0
M  V30 15163 H 1423.3 3.02113 -3.93753 0
M  V30 15164 H 1418.56 2.96046 -5.34946 0
M  V30 15165 H 1422.73 2.89333 -6.3345 0
M  V30 15166 H 1420.36 2.85824 -7.04421 0
M  V30 15167 N 1421.93 1.0643 1.16234 0
M  V30 15168 C 1422.88 0.646274 2.18649 0
M  V30 15169 C 1423.87 -0.323768 1.57609 0
M  V30 15170 O 1425.06 -0.138991 1.76453 0
M  V30 15171 C 1422.19 0.0356797 3.43281 0
M  V30 15172 C 1421.27 1.0303 4.11395 0
M  V30 15173 N 1421.66 2.2064 4.55139 0
M  V30 15174 C 1419.96 0.861544 4.376 0
M  V30 15175 C 1420.66 2.83665 5.07848 0
M  V30 15176 N 1419.64 2.11384 5.00817 0
M  V30 15177 H 1423.44 1.54217 2.50189 0
M  V30 15178 H 1420.96 0.936176 1.32701 0
M  V30 15179 H 1422.95 -0.281637 4.15948 0
M  V30 15180 H 1421.61 -0.855453 3.13228 0
M  V30 15181 H 1422.62 2.58409 4.48826 0
M  V30 15182 H 1419.3 0.0225171 4.17494 0
M  V30 15183 H 1420.69 3.83473 5.51723 0
M  V30 15184 N 1423.41 -1.329 0.847073 0
M  V30 15185 C 1424.32 -2.32815 0.288878 0
M  V30 15186 C 1425.34 -1.63715 -0.589363 0
M  V30 15187 O 1426.51 -1.9531 -0.491537 0
M  V30 15188 C 1423.58 -3.42778 -0.519988 0
M  V30 15189 C 1422.64 -4.27584 0.383496 0
M  V30 15190 C 1421.87 -5.32296 -0.386862 0
M  V30 15191 O 1422.09 -5.4698 -1.61768 0
M  V30 15192 O 1421.03 -6.01408 0.2434 0
M  V30 15193 H 1424.85 -2.82434 1.11647 0
M  V30 15194 H 1422.44 -1.36388 0.609807 0
M  V30 15195 H 1424.32 -4.09862 -0.979357 0
M  V30 15196 H 1423 -2.95362 -1.3245 0
M  V30 15197 H 1421.9 -3.63338 0.890879 0
M  V30 15198 H 1423.24 -4.78505 1.15299 0
M  V30 15199 N 1424.89 -0.604284 -1.45555 0
M  V30 15200 C 1426.3 -0.183613 -1.85795 0
M  V30 15201 C 1426.65 1.25869 -1.50504 0
M  V30 15202 O 1425.78 1.9539 -0.930148 0
M  V30 15203 C 1426.37 -0.326455 -3.37224 0
M  V30 15204 C 1424.93 0.0394987 -3.76379 0
M  V30 15205 C 1424.08 -0.65243 -2.69516 0
M  V30 15206 H 1427.03 -0.811173 -1.36403 0
M  V30 15207 H 1427.05 0.442258 -3.77921 0
M  V30 15208 H 1426.56 -1.37627 -3.62878 0
M  V30 15209 H 1424.66 1.08862 -3.56342 0
M  V30 15210 H 1424.77 -0.35185 -4.77806 0
M  V30 15211 H 1423.14 -0.0904148 -2.54539 0
M  V30 15212 H 1423.92 -1.70432 -2.98007 0
M  V30 15213 N 1426.37 1.53816 -0.343257 0
M  V30 15214 C 1427.78 1.86169 0.140709 0
M  V30 15215 C 1428.13 1.26449 1.50017 0
M  V30 15216 O 1427.25 0.577955 2.08539 0
M  V30 15217 C 1427.85 3.37785 0.262097 0
M  V30 15218 C 1426.41 3.70016 0.690294 0
M  V30 15219 C 1425.55 2.7674 -0.17614 0
M  V30 15220 H 1428.51 1.48383 -0.562863 0
M  V30 15221 H 1428.53 3.64564 1.08964 0
M  V30 15222 H 1428.04 3.81221 -0.727481 0
M  V30 15223 H 1426.14 3.32124 1.68891 0
M  V30 15224 H 1426.25 4.76686 0.480388 0
M  V30 15225 H 1424.62 2.52263 0.351476 0
M  V30 15226 H 1425.4 3.23006 -1.16285 0
M  V30 15227 N 1427.84 0.0718701 1.57436 0
M  V30 15228 C 1428.75 -0.910077 2.16229 0
M  V30 15229 C 1429.77 -1.32699 1.12548 0
M  V30 15230 O 1430.95 -1.39967 1.44814 0
M  V30 15231 C 1428.01 -2.15942 2.71238 0
M  V30 15232 C 1427.07 -1.79891 3.89792 0
M  V30 15233 C 1426.31 -2.9887 4.42168 0
M  V30 15234 O 1426.53 -4.1289 3.93545 0
M  V30 15235 O 1425.46 -2.78682 5.33498 0
M  V30 15236 H 1429.29 -0.439969 3.00496 0
M  V30 15237 H 1426.87 -0.151204 1.48633 0
M  V30 15238 H 1428.76 -2.89204 3.06494 0
M  V30 15239 H 1427.43 -2.62051 1.90029 0
M  V30 15240 H 1426.34 -1.03881 3.59388 0
M  V30 15241 H 1427.67 -1.38566 4.72293 0
M  V30 15242 N 1429.32 -1.56304 -0.201686 0
M  V30 15243 C 1430.73 -1.7022 -0.766953 0
M  V30 15244 C 1431.08 -0.677318 -1.84138 0
M  V30 15245 O 1430.21 0.167604 -2.1575 0
M  V30 15246 C 1430.8 -3.08615 -1.39795 0
M  V30 15247 C 1429.36 -3.24317 -1.91037 0
M  V30 15248 C 1428.51 -2.66167 -0.777853 0
M  V30 15249 H 1431.46 -1.58683 0.0232884 0
M  V30 15250 H 1431.48 -3.05578 -2.26721 0
M  V30 15251 H 1430.99 -3.83185 -0.615728 0
M  V30 15252 H 1429.1 -2.54652 -2.71999 0
M  V30 15253 H 1429.21 -4.31753 -2.07669 0
M  V30 15254 H 1427.57 -2.25169 -1.19042 0
M  V30 15255 H 1428.36 -3.43299 -0.00798179 0
M  V30 15256 N 1430.8 0.469154 -1.50455 0
M  V30 15257 C 1431.73 1.58443 -1.65615 0
M  V30 15258 C 1432.75 1.53668 -0.537584 0
M  V30 15259 O 1433.93 1.59021 -0.810832 0
M  V30 15260 C 1431.03 2.97327 -1.62634 0
M  V30 15261 C 1430.21 3.2695 -2.90555 0
M  V30 15262 C 1429.27 4.45398 -2.80191 0
M  V30 15263 O 1428.29 4.45611 -3.54146 0
M  V30 15264 N 1429.49 5.47167 -1.93878 0
M  V30 15265 H 1432.26 1.45854 -2.61814 0
M  V30 15266 H 1429.82 0.657604 -1.47943 0
M  V30 15267 H 1431.81 3.74537 -1.53311 0
M  V30 15268 H 1430.38 3.03675 -0.741624 0
M  V30 15269 H 1429.6 2.38335 -3.13991 0
M  V30 15270 H 1430.89 3.43554 -3.75297 0
M  V30 15271 H 1430.29 5.49817 -1.33109 0
M  V30 15272 H 1428.85 6.23353 -1.90457 0
M  V30 15273 N 1432.28 1.40065 0.722464 0
M  V30 15274 C 1433.69 1.33876 1.30131 0
M  V30 15275 C 1434.04 0.00899369 1.96198 0
M  V30 15276 O 1433.17 -0.893082 1.97112 0
M  V30 15277 C 1433.76 2.42469 2.36631 0
M  V30 15278 C 1432.32 2.39762 2.90157 0
M  V30 15279 C 1431.47 2.23704 1.63865 0
M  V30 15280 H 1434.42 1.49971 0.519077 0
M  V30 15281 H 1434.44 2.0998 3.17315 0
M  V30 15282 H 1433.95 3.39239 1.88517 0
M  V30 15283 H 1432.05 1.46669 3.42519 0
M  V30 15284 H 1432.16 3.35092 3.42419 0
M  V30 15285 H 1430.53 1.71098 1.88674 0
M  V30 15286 H 1431.31 3.22462 1.17785 0
M  V30 15287 N 1433.76 -0.95397 1.25448 0
M  V30 15288 C 1435.17 -1.51337 1.09335 0
M  V30 15289 C 1435.52 -1.93393 -0.330698 0
M  V30 15290 O 1434.64 -1.78681 -1.22074 0
M  V30 15291 C 1435.24 -2.75024 1.97857 0
M  V30 15292 C 1433.8 -3.27274 1.85927 0
M  V30 15293 C 1432.95 -2.00108 1.91969 0
M  V30 15294 H 1435.9 -0.770795 1.38724 0
M  V30 15295 H 1435.92 -3.48867 1.51894 0
M  V30 15296 H 1435.43 -2.44383 3.01494 0
M  V30 15297 H 1433.53 -3.62734 0.851767 0
M  V30 15298 H 1433.64 -3.95245 2.70773 0
M  V30 15299 H 1432.01 -2.15438 1.35862 0
M  V30 15300 H 1432.79 -1.71816 2.97211 0
M  V30 15301 N 1435.24 -1.07045 -1.15668 0
M  V30 15302 C 1436.48 -0.792908 -1.86657 0
M  V30 15303 C 1436.81 0.679213 -1.81935 0
M  V30 15304 O 1436.09 1.49822 -1.2403 0
M  V30 15305 C 1436.37 -1.2978 -3.35901 0
M  V30 15306 C 1436.23 -2.83424 -3.49272 0
M  V30 15307 C 1437.54 -0.911821 -4.30551 0
M  V30 15308 H 1434.66 -0.289509 -0.677756 0
M  V30 15309 H 1437.31 -1.32769 -1.35913 0
M  V30 15310 H 1435.46 -0.84288 -3.79246 0
M  V30 15311 H 1437.13 -3.37182 -3.14811 0
M  V30 15312 H 1435.37 -3.21777 -2.90933 0
M  V30 15313 H 1436.04 -3.13819 -4.54116 0
M  V30 15314 H 1438.52 -1.30376 -3.95147 0
M  V30 15315 H 1437.39 -1.29247 -5.33467 0
M  V30 15316 H 1437.65 0.18255 -4.41723 0
M  V30 15317 N 1436.71 1.32449 -0.85411 0
M  V30 15318 C 1437.94 2.01463 -0.471188 0
M  V30 15319 C 1438.36 1.64195 0.931954 0
M  V30 15320 O 1437.71 0.862994 1.60806 0
M  V30 15321 C 1437.76 3.56486 -0.600022 0
M  V30 15322 O 1437.49 3.92414 -1.94789 0
M  V30 15323 C 1438.99 4.42773 -0.216036 0
M  V30 15324 H 1436.21 0.644914 -0.185275 0
M  V30 15325 H 1438.75 1.6904 -1.1509 0
M  V30 15326 H 1436.91 3.87387 0.0319488 0
M  V30 15327 H 1437.32 4.87133 -1.94427 0
M  V30 15328 H 1438.79 5.50843 -0.357186 0
M  V30 15329 H 1439.27 4.31025 0.843468 0
M  V30 15330 H 1439.88 4.1726 -0.823058 0
M  V30 15331 N 1438.19 0.611994 1.45232 0
M  V30 15332 C 1439.6 0.193464 1.85695 0
M  V30 15333 C 1439.95 -1.25069 1.5117 0
M  V30 15334 O 1439.08 -1.94894 0.940497 0
M  V30 15335 C 1439.67 0.344334 3.37046 0
M  V30 15336 C 1438.23 -0.0195378 3.76395 0
M  V30 15337 C 1437.38 0.666714 2.69166 0
M  V30 15338 H 1440.33 0.818395 1.35971 0
M  V30 15339 H 1440.35 -0.422209 3.7815 0
M  V30 15340 H 1439.86 1.3955 3.62143 0
M  V30 15341 H 1437.96 -1.06971 3.56915 0
M  V30 15342 H 1438.08 0.377184 4.77613 0
M  V30 15343 H 1436.44 0.103912 2.54488 0
M  V30 15344 H 1437.22 1.7201 2.97099 0
M  V30 15345 N 1439.67 -1.53632 0.351409 0
M  V30 15346 C 1440.95 -1.93311 -0.298362 0
M  V30 15347 C 1441.33 -1.28369 -1.67584 0
M  V30 15348 O 1440.67 -0.437514 -2.24272 0
M  V30 15349 C 1440.88 -3.47109 -0.362773 0
M  V30 15350 C 1442.23 -4.20197 -0.609878 0
M  V30 15351 O 1443.26 -3.53415 -0.444566 0
M  V30 15352 O 1442.12 -5.38517 -0.930691 0
M  V30 15353 H 1439.21 -0.808112 -0.175739 0
M  V30 15354 H 1441.76 -1.64841 0.40316 0
M  V30 15355 H 1440.53 -3.86617 0.60357 0
M  V30 15356 H 1440.15 -3.81769 -1.11076 0
M  V30 15357 N 1441.15 -0.0802183 -1.57396 0
M  V30 15358 C 1442.11 0.869437 -2.12069 0
M  V30 15359 C 1443.11 1.22079 -1.04658 0
M  V30 15360 O 1444.3 1.15267 -1.3061 0
M  V30 15361 C 1441.43 2.17016 -2.62901 0
M  V30 15362 H 1442.63 0.394952 -2.97288 0
M  V30 15363 H 1440.18 0.168597 -1.55388 0
M  V30 15364 H 1440.91 2.68983 -1.8116 0
M  V30 15365 H 1440.7 1.92808 -3.4142 0
M  V30 15366 H 1442.19 2.84982 -3.05246 0
M  V30 15367 N 1442.63 1.56409 0.193394 0
M  V30 15368 C 1443.56 1.97707 1.24234 0
M  V30 15369 C 1444.54 0.849286 1.47381 0
M  V30 15370 O 1445.72 1.11374 1.59089 0
M  V30 15371 C 1442.85 2.31804 2.5862 0
M  V30 15372 C 1441.81 3.47337 2.50082 0
M  V30 15373 C 1441.13 3.67114 3.88756 0
M  V30 15374 C 1442.43 4.81472 2.02441 0
M  V30 15375 H 1444.13 2.8558 0.89914 0
M  V30 15376 H 1441.67 1.37396 0.431078 0
M  V30 15377 H 1443.62 2.5929 3.32185 0
M  V30 15378 H 1442.35 1.40816 2.94684 0
M  V30 15379 H 1441.01 3.19944 1.78973 0
M  V30 15380 H 1440.66 2.73454 4.22175 0
M  V30 15381 H 1440.36 4.44838 3.83918 0
M  V30 15382 H 1441.88 3.96978 4.6394 0
M  V30 15383 H 1443.29 5.07978 2.65766 0
M  V30 15384 H 1441.69 5.62677 2.08601 0
M  V30 15385 H 1442.76 4.74941 0.977704 0
M  V30 15386 O 1444.14 -0.338598 1.57911 0
M  V30 15387 H 1444.83 -0.987938 1.66612 0
M  V30 END ATOM
M  V30 BEGIN BOND
M  V30 END BOND
M  V30 END CTAB
M  END
$$$$
