drugbank_target|P07858 Cathepsin B (DB02108; DB02148; DB02685; DB02855; DB03329; DB03588; DB04126; DB04579; DB07160; DB07219; DB07223; DB07224; DB07225; DB07231)
 OpenBabel12092119433D

  0  0  0     0  0            999 V3000
M  V30 BEGIN CTAB
M  V30 COUNTS 5159 5241 0 0 0
M  V30 BEGIN ATOM
M  V30 1 H -0.908 1.98254 -0.117106 0
M  V30 2 N 0 1.576 0 0
M  V30 3 C 0.933 2.03868 1.02534 0
M  V30 4 C 1.911 0.928543 1.3348 0
M  V30 5 O 3.095 1.19667 1.45644 0
M  V30 6 C 0.222 2.43627 2.35294 0
M  V30 7 C -0.732 3.65373 2.2001 0
M  V30 8 S 0.101 5.13292 1.52614 0
M  V30 9 C 1.257 5.56322 2.86805 0
M  V30 10 H 1.49 2.90518 0.631377 0
M  V30 11 H -0.977 1.52953 0.210867 0
M  V30 12 H 0.981 2.67203 3.11629 0
M  V30 13 H -0.358 1.57376 2.7183 0
M  V30 14 H -1.165 3.90944 3.18086 0
M  V30 15 H -1.563 3.418 1.51819 0
M  V30 16 H 0.729 5.58782 3.83104 0
M  V30 17 H 1.672 6.56266 2.65933 0
M  V30 18 H 2.08 4.83886 2.90714 0
M  V30 19 N 1.4781 -0.272755 1.55222 0
M  V30 20 C 2.7241 -1.00172 1.77023 0
M  V30 21 C 3.0791 -1.83928 0.564633 0
M  V30 22 O 2.3721 -1.86416 -0.442674 0
M  V30 23 C 2.5661 -1.91642 3.01675 0
M  V30 24 C 2.3951 -1.16888 4.34243 0
M  V30 25 C 1.1651 -0.884464 4.97499 0
M  V30 26 C 3.3631 -0.55919 5.11251 0
M  V30 27 N 1.3451 -0.11015 6.13801 0
M  V30 28 C 2.7161 0.0809469 6.19947 0
M  V30 29 C 4.7711 -0.467058 4.95705 0
M  V30 30 C 3.4741 0.804335 7.14789 0
M  V30 31 C 5.5001 0.242739 5.90902 0
M  V30 32 C 4.8621 0.871613 6.98987 0
M  V30 33 H 0.9611 -0.348529 0.700037 0
M  V30 34 H 3.5451 -0.277365 1.92714 0
M  V30 35 H 1.7161 -2.61303 2.87359 0
M  V30 36 H 3.4481 -2.57901 3.1188 0
M  V30 37 H 0.2031 -1.18979 4.58411 0
M  V30 38 H 0.6271 0.264344 6.76484 0
M  V30 39 H 5.2691 -0.93894 4.12242 0
M  V30 40 H 2.9871 1.2879 7.97771 0
M  V30 41 H 6.5731 0.314347 5.8095 0
M  V30 42 H 5.4531 1.4121 7.71381 0
M  V30 43 N 2.9562 -1.48159 -0.537278 0
M  V30 44 C 3.8882 -1.58218 -1.65831 0
M  V30 45 C 4.9012 -0.466948 -1.5596 0
M  V30 46 O 6.0902 -0.73747 -1.62553 0
M  V30 47 C 3.1902 -1.48906 -3.04434 0
M  V30 48 C 2.3632 -2.75343 -3.3986 0
M  V30 49 C 1.4222 -2.59588 -4.57712 0
M  V30 50 O 0.4482 -3.33457 -4.61297 0
M  V30 51 N 1.6502 -1.68724 -5.55439 0
M  V30 52 H 4.4152 -2.54891 -1.57641 0
M  V30 53 H 1.9762 -1.4479 -0.724386 0
M  V30 54 H 3.9682 -1.36072 -3.81139 0
M  V30 55 H 2.5382 -0.602368 -3.06741 0
M  V30 56 H 1.7582 -3.02795 -2.52406 0
M  V30 57 H 3.0462 -3.5924 -3.60311 0
M  V30 58 H 2.4442 -1.07898 -5.55315 0
M  V30 59 H 1.0012 -1.61832 -6.3139 0
M  V30 60 N 4.4343 0.785586 -1.36625 0
M  V30 61 C 5.3643 1.91259 -1.33949 0
M  V30 62 C 6.3453 1.68795 -0.210325 0
M  V30 63 O 7.5303 1.89854 -0.408561 0
M  V30 64 C 4.6603 3.28339 -1.13186 0
M  V30 65 C 3.6143 3.65335 -2.22967 0
M  V30 66 C 2.9403 5.00806 -1.87342 0
M  V30 67 C 4.2403 3.7352 -3.65075 0
M  V30 68 H 5.9343 1.93755 -2.28253 0
M  V30 69 H 3.4803 0.930788 -1.09874 0
M  V30 70 H 5.4333 4.06804 -1.09948 0
M  V30 71 H 4.1573 3.2624 -0.153332 0
M  V30 72 H 2.8163 2.89169 -2.25337 0
M  V30 73 H 2.4643 4.95233 -0.880545 0
M  V30 74 H 2.1643 5.26529 -2.60846 0
M  V30 75 H 3.6883 5.81687 -1.85667 0
M  V30 76 H 5.1023 4.42168 -3.64911 0
M  V30 77 H 3.4993 4.10731 -4.37516 0
M  V30 78 H 4.5693 2.74527 -3.99703 0
M  V30 79 N 5.9124 1.20967 1.01018 0
M  V30 80 C 7.1584 1.0353 1.7508 0
M  V30 81 C 7.5134 -0.42734 1.87594 0
M  V30 82 O 6.8064 -1.31298 1.3954 0
M  V30 83 C 7.0004 1.65997 3.16512 0
M  V30 84 C 6.8294 3.18184 3.17788 0
M  V30 85 C 5.5994 3.87198 3.24662 0
M  V30 86 C 7.7974 4.15334 3.03319 0
M  V30 87 N 5.7794 5.26618 3.15509 0
M  V30 88 C 7.1504 5.41472 3.02007 0
M  V30 89 C 9.2054 4.06449 2.87583 0
M  V30 90 C 7.9084 6.5975 2.86571 0
M  V30 91 C 9.9344 5.24357 2.73503 0
M  V30 92 C 9.2964 6.49404 2.72862 0
M  V30 93 H 5.3954 0.433137 0.651089 0
M  V30 94 H 7.9794 1.5324 1.20107 0
M  V30 95 H 6.1504 1.18863 3.69765 0
M  V30 96 H 7.8824 1.41816 3.79039 0
M  V30 97 H 4.6374 3.38093 3.31648 0
M  V30 98 H 5.0614 5.99626 3.14289 0
M  V30 99 H 9.7034 3.10573 2.86887 0
M  V30 100 H 7.4214 7.55792 2.86015 0
M  V30 101 H 11.0074 5.19299 2.62334 0
M  V30 102 H 9.8874 7.39105 2.62093 0
M  V30 103 N 7.3905 -1.2043 1.01659 0
M  V30 104 C 8.3535 -2.21433 0.591616 0
M  V30 105 C 9.3535 -1.57203 -0.338226 0
M  V30 106 O 10.5435 -1.73737 -0.126918 0
M  V30 107 C 7.6755 -3.40628 -0.136058 0
M  V30 108 H 8.8685 -2.60545 1.48514 0
M  V30 109 H 6.4215 -1.33893 0.806379 0
M  V30 110 H 7.1565 -3.07019 -1.04449 0
M  V30 111 H 6.9415 -3.88475 0.531917 0
M  V30 112 H 8.4315 -4.15475 -0.420735 0
M  V30 113 N 8.8686 -0.792821 -1.36206 0
M  V30 114 C 10.0936 -0.377701 -2.03932 0
M  V30 115 C 10.5186 0.998947 -1.59382 0
M  V30 116 O 9.8766 1.64421 -0.763903 0
M  V30 117 C 9.9246 -0.453635 -3.57735 0
M  V30 118 O 9.0286 0.538151 -4.08874 0
M  V30 119 H 8.3696 -0.159855 -0.644471 0
M  V30 120 H 10.8996 -1.07488 -1.7409 0
M  V30 121 H 10.9096 -0.318464 -4.06755 0
M  V30 122 H 9.5846 -1.45784 -3.89512 0
M  V30 123 H 8.1616 0.364359 -3.71116 0
M  V30 124 N 10.3467 1.47872 -0.545128 0
M  V30 125 C 11.2767 2.32661 0.197793 0
M  V30 126 C 12.2577 1.43041 0.920504 0
M  V30 127 O 13.4427 1.71912 0.90333 0
M  V30 128 C 10.5727 3.24569 1.23582 0
M  V30 129 C 9.5267 4.23333 0.630323 0
M  V30 130 C 8.8527 5.0448 1.77211 0
M  V30 131 C 10.1527 5.20704 -0.407974 0
M  V30 132 H 11.8467 2.95024 -0.510045 0
M  V30 133 H 9.3927 1.4187 -0.246731 0
M  V30 134 H 11.3457 3.8272 1.76362 0
M  V30 135 H 10.0697 2.60236 1.97344 0
M  V30 136 H 8.7287 3.6639 0.123922 0
M  V30 137 H 8.3767 4.36561 2.49847 0
M  V30 138 H 8.0767 5.71339 1.37281 0
M  V30 139 H 9.6007 5.65487 2.3034 0
M  V30 140 H 11.0147 5.7329 0.033305 0
M  V30 141 H 9.4117 5.95699 -0.725486 0
M  V30 142 H 10.4817 4.66917 -1.30828 0
M  V30 143 N 11.8248 0.280983 1.55075 0
M  V30 144 C 13.0648 -0.335234 2.01632 0
M  V30 145 C 13.4288 -1.5261 1.16508 0
M  V30 146 O 14.6298 -2.21235 1.52672 0
M  V30 147 C 12.9008 -0.702172 3.50434 0
M  V30 148 S 14.4598 -1.30409 4.18974 0
M  V30 149 H 11.2778 -0.103967 0.703358 0
M  V30 150 H 13.8798 0.404187 1.91276 0
M  V30 151 H 12.5838 0.17333 4.10034 0
M  V30 152 H 12.1148 -1.4729 3.64786 0
M  V30 153 H 14.1298 -2.59253 4.23087 0
M  V30 154 N 13.3029 -1.57598 0.00835791 0
M  V30 155 C 14.5429 -1.92788 -0.679136 0
M  V30 156 C 14.9069 -0.883378 -1.70471 0
M  V30 157 O 16.1079 -1.12079 -2.44319 0
M  V30 158 C 14.3789 -3.32994 -1.29807 0
M  V30 159 S 15.9379 -3.90082 -2.00952 0
M  V30 160 H 12.7559 -0.67475 -0.224127 0
M  V30 161 H 15.3579 -1.95385 0.0670497 0
M  V30 162 H 14.0619 -4.06846 -0.538922 0
M  V30 163 H 13.5929 -3.33791 -2.082 0
M  V30 164 H 15.6079 -3.71834 -3.28563 0
M  V30 165 N 14.781 0.264519 -1.55364 0
M  V30 166 C 15.711 1.33121 -1.91836 0
M  V30 167 C 16.692 1.51101 -0.781192 0
M  V30 168 O 17.877 1.64003 -1.04003 0
M  V30 169 C 15.007 2.68921 -2.19769 0
M  V30 170 C 13.961 2.65661 -3.35571 0
M  V30 171 C 13.287 4.05093 -3.49004 0
M  V30 172 C 14.587 2.24187 -4.71739 0
M  V30 173 H 16.281 1.02844 -2.81182 0
M  V30 174 H 13.827 0.493286 -1.35287 0
M  V30 175 H 15.78 3.43663 -2.43872 0
M  V30 176 H 14.504 3.00799 -1.27231 0
M  V30 177 H 13.163 1.93377 -3.1145 0
M  V30 178 H 12.811 4.34206 -2.53917 0
M  V30 179 H 12.511 4.03804 -4.26868 0
M  V30 180 H 14.035 4.81561 -3.75408 0
M  V30 181 H 15.449 2.88654 -4.9533 0
M  V30 182 H 13.846 2.34044 -5.52579 0
M  V30 183 H 14.916 1.19327 -4.69988 0
M  V30 184 N 16.2591 1.48442 0.529413 0
M  V30 185 C 17.1891 1.65902 1.64313 0
M  V30 186 C 18.1701 0.507897 1.6234 0
M  V30 187 O 19.3551 0.740503 1.79528 0
M  V30 188 C 16.4851 1.69911 3.02898 0
M  V30 189 C 15.4391 2.8453 3.19729 0
M  V30 190 C 14.7651 2.73629 4.59381 0
M  V30 191 C 16.0651 4.25821 3.02447 0
M  V30 192 H 17.7591 2.5914 1.49955 0
M  V30 193 H 15.3051 1.24709 0.719982 0
M  V30 194 H 17.2581 1.80715 3.80684 0
M  V30 195 H 15.9821 0.732524 3.18279 0
M  V30 196 H 14.6411 2.73283 2.44361 0
M  V30 197 H 14.2891 1.74938 4.71599 0
M  V30 198 H 13.9891 3.50541 4.71588 0
M  V30 199 H 15.5131 2.86401 5.39265 0
M  V30 200 H 16.9271 4.37898 3.70024 0
M  V30 201 H 15.3241 5.03735 3.26146 0
M  V30 202 H 16.3941 4.42244 1.98867 0
M  V30 203 N 17.7372 -0.778329 1.37039 0
M  V30 204 C 18.9832 -1.53892 1.32079 0
M  V30 205 C 19.3162 -1.9396 -0.0965386 0
M  V30 206 O 18.5912 -1.63568 -1.05242 0
M  V30 207 C 18.8742 -2.80847 2.25382 0
M  V30 208 C 18.7272 -2.47076 3.75864 0
M  V30 209 C 20.0462 -3.82741 2.1725 0
M  V30 210 H 17.1652 -0.558303 0.48111 0
M  V30 211 H 19.8072 -0.893397 1.67685 0
M  V30 212 H 17.9572 -3.35931 1.95148 0
M  V30 213 H 19.6292 -1.97957 4.16666 0
M  V30 214 H 17.8722 -1.79863 3.94755 0
M  V30 215 H 18.5432 -3.37798 4.36574 0
M  V30 216 H 21.0192 -3.37133 2.43887 0
M  V30 217 H 19.8952 -4.69303 2.84686 0
M  V30 218 H 20.1562 -4.2652 1.16331 0
M  V30 219 N 19.2153 -1.21501 -1.00376 0
M  V30 220 C 20.1453 -0.999478 -2.11028 0
M  V30 221 C 21.1263 0.0759671 -1.6993 0
M  V30 222 O 22.3113 -0.0841106 -1.94018 0
M  V30 223 C 19.4413 -0.564709 -3.42678 0
M  V30 224 C 18.3953 -1.58486 -3.97576 0
M  V30 225 C 17.7213 -1.00628 -5.25146 0
M  V30 226 C 19.0213 -2.97204 -4.29496 0
M  V30 227 H 20.7153 -1.92495 -2.29317 0
M  V30 228 H 18.2613 -0.92693 -1.102 0
M  V30 229 H 20.2143 -0.401091 -4.19487 0
M  V30 230 H 18.9383 0.396411 -3.24185 0
M  V30 231 H 17.5973 -1.73606 -3.22888 0
M  V30 232 H 17.2453 -0.0368439 -5.02987 0
M  V30 233 H 16.9453 -1.68771 -5.62841 0
M  V30 234 H 18.4693 -0.854015 -6.04598 0
M  V30 235 H 19.8833 -2.8552 -4.97143 0
M  V30 236 H 18.2803 -3.62372 -4.78338 0
M  V30 237 H 19.3503 -3.47956 -3.3772 0
M  V30 238 N 20.6934 1.19889 -1.02296 0
M  V30 239 C 21.6564 2.21116 -0.603351 0
M  V30 240 C 22.6564 1.5738 0.329884 0
M  V30 241 O 23.8464 1.73802 0.117702 0
M  V30 242 C 20.9784 3.40696 0.117992 0
M  V30 243 H 22.1714 2.59754 -1.49893 0
M  V30 244 H 19.7244 1.33463 -0.813468 0
M  V30 245 H 20.4594 3.07569 1.0282 0
M  V30 246 H 20.2444 3.88188 -0.552511 0
M  V30 247 H 21.7344 4.15692 0.398696 0
M  V30 248 N 22.1715 0.800033 1.35784 0
M  V30 249 C 23.1195 0.193851 2.31791 0
M  V30 250 C 24.1135 -0.652744 1.56319 0
M  V30 251 O 25.3195 -0.546641 1.71499 0
M  V30 252 H 21.6945 0.04392 0.750716 0
M  V30 253 H 23.6655 1.01883 2.80468 0
M  V30 254 C 22.4145 -0.648338 3.41602 0
M  V30 255 H 21.7375 -0.00624665 3.998 0
M  V30 256 H 23.1775 -1.03898 4.11073 0
M  V30 257 C 21.6365 -1.8111 2.84079 0
M  V30 258 O 22.1665 -2.90825 2.77099 0
M  V30 259 N 20.3725 -1.62056 2.41218 0
M  V30 260 H 19.9195 -0.728123 2.47095 0
M  V30 261 H 19.8775 -2.40013 2.03079 0
M  V30 262 N 23.6496 -1.47581 0.552962 0
M  V30 263 C 24.6126 -2.28439 -0.186605 0
M  V30 264 C 25.6126 -1.36706 -0.84665 0
M  V30 265 O 26.8026 -1.59378 -0.703164 0
M  V30 266 C 23.9346 -3.16264 -1.2724 0
M  V30 267 H 25.1276 -2.95294 0.523609 0
M  V30 268 H 22.6806 -1.532 0.309745 0
M  V30 269 H 23.4156 -2.54091 -2.01514 0
M  V30 270 H 23.2006 -3.83769 -0.803968 0
M  V30 271 H 24.6906 -3.77198 -1.79196 0
M  V30 272 N 25.1277 -0.289203 -1.54924 0
M  V30 273 C 26.5437 0.0645403 -1.59469 0
M  V30 274 C 26.7437 1.53419 -1.30632 0
M  V30 275 O 25.7997 2.2852 -1.074 0
M  V30 276 C 27.1127 -0.32278 -2.98963 0
M  V30 277 C 28.6607 -0.270564 -3.11828 0
M  V30 278 C 29.1357 -0.632532 -4.53611 0
M  V30 279 N 30.6267 -0.584617 -4.59496 0
M  V30 280 C 31.3617 -0.837314 -5.67254 0
M  V30 281 N 30.8577 -1.15536 -6.83098 0
M  V30 282 N 32.6507 -0.765166 -5.56868 0
M  V30 283 H 24.8017 -1.24714 -1.71931 0
M  V30 284 H 27.0647 -0.504809 -0.802416 0
M  V30 285 H 26.7707 -1.34541 -3.24948 0
M  V30 286 H 26.6447 0.32944 -3.75759 0
M  V30 287 H 29.0317 0.742805 -2.85598 0
M  V30 288 H 29.1127 -0.957242 -2.37214 0
M  V30 289 H 28.7567 -1.64365 -4.80569 0
M  V30 290 H 28.6867 0.07609 -5.26545 0
M  V30 291 H 31.1777 -0.349248 -3.76283 0
M  V30 292 H 31.4907 -1.33447 -7.61191 0
M  V30 293 H 29.8357 -1.19328 -6.84679 0
M  V30 294 H 33.0267 -0.516432 -4.65243 0
M  V30 295 H 33.1997 -0.965477 -6.40767 0
M  V30 296 N 26.6058 1.57591 -0.0167156 0
M  V30 297 C 27.8308 1.9598 0.67872 0
M  V30 298 C 28.2558 0.892546 1.65575 0
M  V30 299 O 27.6138 -0.147772 1.80697 0
M  V30 300 C 27.6618 3.33468 1.37227 0
M  V30 301 O 26.7658 3.28954 2.48722 0
M  V30 302 H 26.1068 0.639339 0.17928 0
M  V30 303 H 28.6368 2.04463 -0.0748802 0
M  V30 304 H 28.6468 3.69417 1.7319 0
M  V30 305 H 27.3218 4.10694 0.656007 0
M  V30 306 H 25.8988 3.04705 2.14963 0
M  V30 307 N 28.0839 -0.256276 1.55502 0
M  V30 308 C 29.4999 -0.604325 1.47716 0
M  V30 309 C 29.6999 -1.88763 0.705039 0
M  V30 310 O 28.7559 -2.51445 0.230613 0
M  V30 311 C 30.0689 -0.715756 2.92057 0
M  V30 312 C 31.6169 -0.808706 3.02372 0
M  V30 313 C 32.0919 -0.951777 4.48001 0
M  V30 314 N 33.5829 -1.01688 4.519 0
M  V30 315 C 34.3179 -1.14668 5.61817 0
M  V30 316 N 33.8139 -1.24261 6.81565 0
M  V30 317 N 35.6069 -1.1791 5.49594 0
M  V30 318 H 27.7579 0.586291 2.04148 0
M  V30 319 H 30.0209 0.201015 0.926443 0
M  V30 320 H 29.7269 0.157027 3.51349 0
M  V30 321 H 29.6009 -1.59071 3.42018 0
M  V30 322 H 31.9879 -1.67195 2.43166 0
M  V30 323 H 32.0689 0.0912063 2.55637 0
M  V30 324 H 31.7129 -0.0931291 5.07815 0
M  V30 325 H 31.6429 -1.86659 4.92408 0
M  V30 326 H 34.1339 -0.954468 3.65648 0
M  V30 327 H 34.4469 -1.34046 7.61086 0
M  V30 328 H 32.7919 -1.21236 6.84344 0
M  V30 329 H 35.9829 -1.10057 4.54978 0
M  V30 330 H 36.1559 -1.27681 6.35296 0
M  V30 331 N 29.562 -1.4872 -0.521534 0
M  V30 332 C 30.973 -1.50607 -1.10337 0
M  V30 333 C 31.324 -0.280612 -1.94183 0
M  V30 334 O 30.449 0.611507 -2.0758 0
M  V30 335 C 31.044 -2.72903 -2.00772 0
M  V30 336 C 29.603 -2.77634 -2.54158 0
M  V30 337 C 28.75 -2.44241 -1.31307 0
M  V30 338 H 31.701 -1.55714 -0.306388 0
M  V30 339 H 31.722 -2.519 -2.85178 0
M  V30 340 H 31.234 -3.62077 -1.39721 0
M  V30 341 H 29.335 -1.92689 -3.18907 0
M  V30 342 H 29.448 -3.79283 -2.92714 0
M  V30 343 H 27.812 -1.95577 -1.63161 0
M  V30 344 H 28.595 -3.35666 -0.719943 0
M  V30 345 N 31.0401 0.771051 -1.3745 0
M  V30 346 C 32.2651 1.56529 -1.36065 0
M  V30 347 C 32.6901 1.88029 0.0515859 0
M  V30 348 O 32.0481 1.49282 1.02882 0
M  V30 349 C 32.0961 2.85187 -2.20683 0
M  V30 350 O 31.2001 3.79593 -1.61193 0
M  V30 351 H 30.5411 0.47411 -0.464883 0
M  V30 352 H 33.0711 0.954269 -1.80983 0
M  V30 353 H 33.0811 3.34283 -2.33921 0
M  V30 354 H 31.7561 2.61588 -3.23334 0
M  V30 355 H 30.3331 3.38239 -1.56999 0
M  V30 356 N 32.5182 1.22032 0.997298 0
M  V30 357 C 33.7652 1.04222 1.73621 0
M  V30 358 C 34.0932 -0.423264 1.89839 0
M  V30 359 O 33.3482 -1.3302 1.43542 0
M  V30 360 C 33.6472 1.69345 3.14733 0
M  V30 361 C 33.3132 3.19226 3.18442 0
M  V30 362 C 31.9752 3.60124 3.19161 0
M  V30 363 C 34.3272 4.15181 3.15078 0
M  V30 364 C 31.6552 4.95467 3.14212 0
M  V30 365 C 34.0072 5.50495 3.1167 0
M  V30 366 C 32.6712 5.90779 3.10703 0
M  V30 367 H 31.9412 0.381374 0.635323 0
M  V30 368 H 34.5882 1.51732 1.16831 0
M  V30 369 H 32.8932 1.14147 3.74803 0
M  V30 370 H 34.5902 1.53059 3.7064 0
M  V30 371 H 31.1802 2.86659 3.18629 0
M  V30 372 H 35.3642 3.84605 3.13676 0
M  V30 373 H 30.6202 5.25916 3.11805 0
M  V30 374 H 34.7942 6.24576 3.08022 0
M  V30 375 H 32.4212 6.9562 3.06622 0
M  V30 376 N 33.9963 -1.19345 1.0293 0
M  V30 377 C 34.9463 -2.20472 0.58104 0
M  V30 378 C 35.9303 -1.56578 -0.370442 0
M  V30 379 O 37.1223 -1.75963 -0.191344 0
M  V30 380 C 34.2513 -3.43236 -0.066306 0
M  V30 381 C 33.3373 -4.14274 0.907642 0
M  V30 382 N 33.7283 -4.61492 2.07023 0
M  V30 383 C 32.0263 -4.39966 0.731177 0
M  V30 384 C 32.7273 -5.1605 2.68454 0
M  V30 385 N 31.7033 -5.06875 1.96414 0
M  V30 386 H 35.5053 -2.54659 1.46717 0
M  V30 387 H 33.0193 -1.35423 0.896345 0
M  V30 388 H 35.0163 -4.14927 -0.405068 0
M  V30 389 H 33.6763 -3.10549 -0.948118 0
M  V30 390 H 34.6873 -4.56304 2.44963 0
M  V30 391 H 31.3643 -4.17377 -0.101507 0
M  V30 392 H 32.7543 -5.6287 3.66915 0
M  V30 393 N 35.4744 -0.807222 -1.35358 0
M  V30 394 C 36.8854 -0.44876 -1.81226 0
M  V30 395 C 37.2364 1.02929 -1.67033 0
M  V30 396 O 36.3614 1.79991 -1.20133 0
M  V30 397 C 36.9564 -0.807774 -3.2903 0
M  V30 398 C 35.5154 -0.501901 -3.73039 0
M  V30 399 C 34.6624 -1.03304 -2.57339 0
M  V30 400 H 37.6134 -0.998808 -1.23327 0
M  V30 401 H 37.6344 -0.10554 -3.80354 0
M  V30 402 H 37.1464 -1.88357 -3.39328 0
M  V30 403 H 35.2474 0.565128 -3.68289 0
M  V30 404 H 35.3604 -1.03497 -4.67787 0
M  V30 405 H 33.7244 -0.455339 -2.50597 0
M  V30 406 H 34.5074 -2.11496 -2.70415 0
M  V30 407 N 36.9525 1.47285 -0.560781 0
M  V30 408 C 37.8825 2.32857 0.173105 0
M  V30 409 C 38.8635 1.44009 0.905281 0
M  V30 410 O 40.0485 1.7286 0.885046 0
M  V30 411 C 37.1785 3.25861 1.20133 0
M  V30 412 C 36.1325 4.23978 0.585388 0
M  V30 413 C 35.4585 5.06332 1.7185 0
M  V30 414 C 36.7585 5.20242 -0.463178 0
M  V30 415 H 38.4525 2.94466 -0.541307 0
M  V30 416 H 35.9985 1.41601 -0.261764 0
M  V30 417 H 37.9515 3.84569 1.72293 0
M  V30 418 H 36.6755 2.62315 1.94573 0
M  V30 419 H 35.3345 3.66501 0.085054 0
M  V30 420 H 34.9825 4.39186 2.45203 0
M  V30 421 H 34.6825 5.72762 1.31213 0
M  V30 422 H 36.2065 5.67899 2.24329 0
M  V30 423 H 37.6205 5.73293 -0.027502 0
M  V30 424 H 36.0175 5.94896 -0.788627 0
M  V30 425 H 37.0875 4.65504 -1.35773 0
M  V30 426 N 38.4306 0.297415 1.54768 0
M  V30 427 C 39.6556 -0.318435 2.04941 0
M  V30 428 C 40.0806 -1.4701 1.17345 0
M  V30 429 O 39.4386 -1.80436 0.176758 0
M  V30 430 C 39.4866 -0.755749 3.52592 0
M  V30 431 O 38.5906 -1.86088 3.68028 0
M  V30 432 H 37.9316 -0.062421 0.661059 0
M  V30 433 H 40.4616 0.438215 1.99852 0
M  V30 434 H 40.4716 -1.04552 3.94376 0
M  V30 435 H 39.1466 0.0867233 4.1581 0
M  V30 436 H 37.7236 -1.57193 3.38149 0
M  V30 437 N 39.9087 -1.5758 0.0250728 0
M  V30 438 C 41.1857 -1.82917 -0.692873 0
M  V30 439 C 41.5657 -0.908137 -1.90568 0
M  V30 440 O 40.9137 0.0372298 -2.2847 0
M  V30 441 C 41.1237 -3.32034 -1.07492 0
M  V30 442 C 42.4717 -3.98406 -1.46826 0
M  V30 443 O 43.4957 -3.36505 -1.16801 0
M  V30 444 O 42.3547 -5.07497 -2.02754 0
M  V30 445 H 39.4487 -0.754079 -0.33955 0
M  V30 446 H 41.9947 -1.69619 0.0524456 0
M  V30 447 H 40.7667 -3.90728 -0.211552 0
M  V30 448 H 40.3897 -3.50424 -1.87854 0
M  V30 449 N 41.3868 0.248026 -1.55636 0
M  V30 450 C 42.2968 1.32859 -1.93354 0
M  V30 451 C 43.3128 1.52719 -0.833838 0
M  V30 452 O 44.4888 1.66363 -1.13513 0
M  V30 453 C 41.5538 2.66337 -2.21958 0
M  V30 454 C 40.6148 2.55008 -3.45354 0
M  V30 455 C 39.8478 3.82121 -3.72584 0
M  V30 456 O 40.0708 4.83951 -3.01907 0
M  V30 457 O 39.0048 3.80822 -4.6611 0
M  V30 458 H 42.8308 1.03862 -2.85388 0
M  V30 459 H 40.4158 0.448686 -1.42503 0
M  V30 460 H 42.2978 3.45216 -2.4167 0
M  V30 461 H 40.9728 2.95068 -1.33103 0
M  V30 462 H 39.8798 1.7442 -3.30951 0
M  V30 463 H 41.2128 2.31222 -4.34508 0
M  V30 464 N 42.8649 1.48995 0.513639 0
M  V30 465 C 43.7949 1.67636 1.62544 0
M  V30 466 C 44.7759 0.525087 1.61793 0
M  V30 467 O 45.9609 0.759502 1.78732 0
M  V30 468 C 43.0909 1.73114 3.01079 0
M  V30 469 C 42.0449 2.87905 3.16693 0
M  V30 470 C 41.3709 2.78486 4.56453 0
M  V30 471 C 42.6709 4.29005 2.97913 0
M  V30 472 H 44.3649 2.60716 1.47198 0
M  V30 473 H 41.9109 1.25465 0.706714 0
M  V30 474 H 43.8639 1.84742 3.78746 0
M  V30 475 H 42.5879 0.766241 3.17484 0
M  V30 476 H 41.2469 2.75859 2.41448 0
M  V30 477 H 40.8949 1.7993 4.69717 0
M  V30 478 H 40.5949 3.55523 4.67843 0
M  V30 479 H 42.1189 2.92104 5.36197 0
M  V30 480 H 43.5329 4.41798 3.65359 0
M  V30 481 H 41.9299 5.07166 3.20785 0
M  V30 482 H 42.9999 4.44329 1.94165 0
M  V30 483 N 44.343 -0.763751 1.37857 0
M  V30 484 C 45.589 -1.52483 1.33704 0
M  V30 485 C 45.922 -1.94051 -0.0759612 0
M  V30 486 O 45.197 -1.64675 -1.03501 0
M  V30 487 C 45.48 -2.78441 2.28348 0
M  V30 488 C 45.333 -2.43075 3.78463 0
M  V30 489 C 46.652 -3.80415 2.21298 0
M  V30 490 H 43.771 -0.553169 0.487005 0
M  V30 491 H 46.413 -0.875562 1.68624 0
M  V30 492 H 44.563 -3.33842 1.987 0
M  V30 493 H 46.235 -1.93527 4.18742 0
M  V30 494 H 44.478 -1.75666 3.96641 0
M  V30 495 H 45.149 -3.33149 4.40132 0
M  V30 496 H 47.625 -3.34527 2.47449 0
M  V30 497 H 46.501 -4.66257 2.89647 0
M  V30 498 H 46.762 -4.25262 1.20849 0
M  V30 499 N 45.8211 -1.22559 -0.990812 0
M  V30 500 C 46.7691 -0.994798 -2.10253 0
M  V30 501 C 47.7631 0.0627798 -1.69284 0
M  V30 502 O 48.9691 -0.0898392 -1.79776 0
M  V30 503 H 45.3441 -0.304527 -0.687581 0
M  V30 504 H 47.3151 -1.93812 -2.26891 0
M  V30 505 C 46.0641 -0.591439 -3.42633 0
M  V30 506 H 45.3871 -1.3969 -3.74602 0
M  V30 507 H 46.8271 -0.469385 -4.21394 0
M  V30 508 C 45.2861 0.699232 -3.29564 0
M  V30 509 O 45.8161 1.75112 -3.61523 0
M  V30 510 N 44.0221 0.671182 -2.82743 0
M  V30 511 H 43.5691 -0.185136 -2.56934 0
M  V30 512 H 43.5271 1.53502 -2.7438 0
M  V30 513 N 47.2992 1.18797 -1.03562 0
M  V30 514 C 48.5292 1.92319 -0.754773 0
M  V30 515 C 48.9372 1.7612 0.691248 0
M  V30 516 O 48.2802 1.08491 1.48241 0
M  V30 517 C 48.3422 3.44284 -1.03484 0
M  V30 518 C 48.0062 3.84258 -2.47376 0
M  V30 519 C 49.0032 3.88459 -3.45537 0
M  V30 520 C 46.6882 4.15701 -2.81954 0
M  V30 521 C 48.6822 4.23545 -4.76328 0
M  V30 522 C 46.3692 4.50458 -4.12954 0
M  V30 523 C 47.3672 4.54356 -5.09951 0
M  V30 524 O 47.0552 4.88305 -6.38603 0
M  V30 525 H 46.7872 0.617527 -0.275021 0
M  V30 526 H 49.3412 1.51683 -1.38497 0
M  V30 527 H 47.5712 3.85135 -0.347513 0
M  V30 528 H 49.2602 3.99049 -0.7426 0
M  V30 529 H 50.0262 3.6431 -3.20162 0
M  V30 530 H 45.9052 4.11847 -2.0713 0
M  V30 531 H 49.4492 4.26502 -5.52035 0
M  V30 532 H 45.3462 4.74067 -4.38099 0
M  V30 533 H 46.1142 5.06227 -6.43177 0
M  V30 534 N 48.7773 0.814389 1.34928 0
M  V30 535 C 50.0233 0.399013 1.98836 0
M  V30 536 C 50.3563 -1.03314 1.64438 0
M  V30 537 O 49.6313 -1.71811 0.911659 0
M  V30 538 C 49.9143 0.591629 3.55207 0
M  V30 539 C 49.7673 2.06928 3.99376 0
M  V30 540 C 51.0863 0.022199 4.40094 0
M  V30 541 H 48.2053 0.146451 0.722303 0
M  V30 542 H 50.8473 1.02537 1.59957 0
M  V30 543 H 48.9973 0.0584441 3.88456 0
M  V30 544 H 50.6693 2.66544 3.76499 0
M  V30 545 H 48.9123 2.56287 3.49999 0
M  V30 546 H 49.5833 2.1549 5.08201 0
M  V30 547 H 52.0593 0.477643 4.13349 0
M  V30 548 H 50.9353 0.186832 5.48582 0
M  V30 549 H 51.1963 -1.07215 4.28902 0
M  V30 550 N 50.2554 -1.46986 0.568584 0
M  V30 551 C 51.2034 -2.31858 -0.185649 0
M  V30 552 C 52.1974 -1.43624 -0.898249 0
M  V30 553 O 53.4034 -1.60327 -0.818242 0
M  V30 554 H 49.7784 -0.747866 -0.0787399 0
M  V30 555 H 51.7494 -2.93303 0.549191 0
M  V30 556 C 50.4984 -3.26513 -1.19519 0
M  V30 557 H 49.8214 -3.94377 -0.656285 0
M  V30 558 H 51.2614 -3.88707 -1.6936 0
M  V30 559 C 49.7204 -2.50847 -2.24894 0
M  V30 560 O 50.2504 -2.26119 -3.32014 0
M  V30 561 N 48.4564 -2.11656 -1.99124 0
M  V30 562 H 48.0034 -2.31966 -1.12024 0
M  V30 563 H 47.9614 -1.61347 -2.69842 0
M  V30 564 N 51.7335 -0.305618 -1.54608 0
M  V30 565 C 52.6805 0.568421 -2.23691 0
M  V30 566 C 53.6505 1.12592 -1.22116 0
M  V30 567 O 54.8355 1.16959 -1.50749 0
M  V30 568 C 51.9755 1.7322 -2.98477 0
M  V30 569 C 51.0885 1.20566 -4.14835 0
M  V30 570 C 50.2235 2.33368 -4.77193 0
M  V30 571 C 49.2625 1.7787 -5.85686 0
M  V30 572 N 48.3995 2.84263 -6.4198 0
M  V30 573 H 53.2395 -0.0272867 -2.97988 0
M  V30 574 H 50.7765 -0.0252363 -1.47078 0
M  V30 575 H 52.7345 2.41675 -3.40072 0
M  V30 576 H 51.3645 2.29947 -2.26548 0
M  V30 577 H 50.4165 0.413223 -3.78149 0
M  V30 578 H 51.7285 0.759417 -4.92985 0
M  V30 579 H 50.8825 3.09761 -5.21664 0
M  V30 580 H 49.6215 2.8132 -3.98385 0
M  V30 581 H 48.6265 0.99968 -5.40635 0
M  V30 582 H 49.8515 1.30816 -6.66381 0
M  V30 583 H 47.7975 3.31541 -5.66053 0
M  V30 584 H 47.7145 2.44149 -7.15491 0
M  V30 585 H 48.9825 3.6054 -6.91109 0
M  V30 586 N 53.2116 1.57565 -0.0334293 0
M  V30 587 C 54.6276 1.56297 0.322997 0
M  V30 588 C 54.8276 1.03945 1.7262 0
M  V30 589 O 53.8836 0.688109 2.42943 0
M  V30 590 C 55.1966 3.00232 0.167664 0
M  V30 591 C 56.7446 3.12078 0.240107 0
M  V30 592 C 57.2196 4.57859 0.113513 0
M  V30 593 N 58.7106 4.62887 0.170359 0
M  V30 594 C 59.4456 5.73319 0.0962517 0
M  V30 595 N 58.9416 6.92794 -0.0291881 0
M  V30 596 N 60.7346 5.61898 0.150551 0
M  V30 597 H 52.8856 1.89923 -0.950956 0
M  V30 598 H 55.1486 0.873824 -0.367608 0
M  V30 599 H 54.8546 3.42501 -0.799102 0
M  V30 600 H 54.7286 3.654 0.936083 0
M  V30 601 H 57.1156 2.69718 1.19733 0
M  V30 602 H 57.1966 2.49623 -0.558763 0
M  V30 603 H 56.8406 5.009 -0.840314 0
M  V30 604 H 56.7706 5.18299 0.931302 0
M  V30 605 H 59.2616 3.76954 0.26728 0
M  V30 606 H 59.5746 7.7276 -0.0789252 0
M  V30 607 H 57.9196 6.94971 -0.0640299 0
M  V30 608 H 61.1106 4.67448 0.246981 0
M  V30 609 H 61.2836 6.47938 0.0893365 0
M  V30 610 N 54.6897 -0.239769 1.55765 0
M  V30 611 C 55.6377 -1.31668 1.91745 0
M  V30 612 C 56.6317 -1.49462 0.797338 0
M  V30 613 O 57.8377 -1.50852 0.982021 0
M  V30 614 H 54.2127 -0.441048 0.609082 0
M  V30 615 H 56.1837 -0.985923 2.81642 0
M  V30 616 C 54.9327 -2.66368 2.2348 0
M  V30 617 H 54.2557 -2.53478 3.09175 0
M  V30 618 H 55.6957 -3.40578 2.52553 0
M  V30 619 C 54.1547 -3.20002 1.05359 0
M  V30 620 O 54.6847 -4.00538 0.305261 0
M  V30 621 N 52.8907 -2.78126 0.842292 0
M  V30 622 H 52.4377 -2.12742 1.45253 0
M  V30 623 H 52.3957 -3.14354 0.053652 0
M  V30 624 N 56.1678 -1.49265 -0.50573 0
M  V30 625 C 57.3958 -1.62215 -1.28429 0
M  V30 626 C 57.8108 -0.291697 -1.86533 0
M  V30 627 O 57.1678 0.722233 -1.67601 0
M  V30 628 C 57.2188 -2.68735 -2.41793 0
M  V30 629 O 56.9398 -3.96619 -1.86078 0
M  V30 630 C 58.4408 -2.92346 -3.3324 0
M  V30 631 H 55.6608 -0.546239 -0.389697 0
M  V30 632 H 58.2048 -1.95265 -0.607609 0
M  V30 633 H 56.3598 -2.38476 -3.053 0
M  V30 634 H 56.7738 -4.55256 -2.60465 0
M  V30 635 H 58.2478 -3.70623 -4.09075 0
M  V30 636 H 58.7248 -2.02081 -3.89948 0
M  V30 637 H 59.3308 -3.24003 -2.75503 0
M  V30 638 N 57.6459 0.756429 -1.3826 0
M  V30 639 C 58.8739 1.54565 -1.3754 0
M  V30 640 C 59.2889 1.88767 0.0355331 0
M  V30 641 O 58.6459 1.52572 1.0014 0
M  V30 642 C 58.6969 2.84654 -2.22833 0
M  V30 643 O 58.4179 2.51912 -3.5843 0
M  V30 644 C 59.9189 3.78807 -2.30261 0
M  V30 645 H 57.1389 0.478353 -0.470553 0
M  V30 646 H 59.6829 0.936381 -1.81803 0
M  V30 647 H 57.8379 3.41965 -1.8204 0
M  V30 648 H 58.2519 3.35325 -4.03308 0
M  V30 649 H 59.7259 4.67045 -2.94233 0
M  V30 650 H 60.2029 4.19038 -1.31545 0
M  V30 651 H 60.8089 3.2742 -2.71433 0
M  V30 652 N 59.124 1.23083 0.984299 0
M  V30 653 C 60.37 1.07221 1.72845 0
M  V30 654 C 60.725 -0.387453 1.88458 0
M  V30 655 O 60.018 -1.28309 1.42293 0
M  V30 656 C 60.212 1.72673 3.1292 0
M  V30 657 C 60.041 3.24853 3.10967 0
M  V30 658 C 58.811 3.93998 3.16376 0
M  V30 659 C 61.009 4.21674 2.94441 0
M  V30 660 N 58.991 5.33192 3.04268 0
M  V30 661 C 60.362 5.47756 2.90453 0
M  V30 662 C 62.417 4.12457 2.78897 0
M  V30 663 C 61.12 6.6568 2.72512 0
M  V30 664 C 63.146 5.3004 2.62319 0
M  V30 665 C 62.508 6.55046 2.59026 0
M  V30 666 H 58.607 0.44685 0.641755 0
M  V30 667 H 61.191 1.55753 1.16829 0
M  V30 668 H 59.362 1.26679 3.67161 0
M  V30 669 H 61.094 1.49824 3.75945 0
M  V30 670 H 57.849 3.45052 3.24401 0
M  V30 671 H 58.273 6.06157 3.015 0
M  V30 672 H 62.915 3.16588 2.80235 0
M  V30 673 H 60.633 7.61689 2.69919 0
M  V30 674 H 64.219 5.24747 2.5126 0
M  V30 675 H 63.099 7.44498 2.46357 0
M  V30 676 N 60.6021 -1.18246 1.0419 0
M  V30 677 C 61.5341 -2.2142 0.592088 0
M  V30 678 C 62.5471 -1.59233 -0.338909 0
M  V30 679 O 63.7361 -1.78002 -0.133231 0
M  V30 680 C 60.8361 -3.38546 -0.154854 0
M  V30 681 C 60.0091 -4.3031 0.784328 0
M  V30 682 C 59.0681 -5.26138 0.0804583 0
M  V30 683 O 58.0941 -5.64738 0.711292 0
M  V30 684 N 59.2961 -5.68261 -1.18574 0
M  V30 685 H 62.0611 -2.60636 1.47949 0
M  V30 686 H 59.6221 -1.33044 0.922544 0
M  V30 687 H 61.6141 -3.99678 -0.635606 0
M  V30 688 H 60.1841 -2.98012 -0.943811 0
M  V30 689 H 59.4041 -3.66764 1.44491 0
M  V30 690 H 60.6921 -4.8852 1.42218 0
M  V30 691 H 60.0901 -5.38957 -1.71876 0
M  V30 692 H 58.6471 -6.31584 -1.61074 0
M  V30 693 N 62.0802 -0.821533 -1.34494 0
M  V30 694 C 63.0432 -0.247847 -2.27856 0
M  V30 695 C 64.0432 0.573453 -1.50227 0
M  V30 696 O 65.2332 0.389759 -1.69784 0
M  V30 697 C 62.3652 0.652698 -3.34593 0
M  V30 698 H 63.5582 -1.07146 -2.80107 0
M  V30 699 H 61.1112 -0.593291 -1.44602 0
M  V30 700 H 61.8462 1.49943 -2.87555 0
M  V30 701 H 61.6312 0.065292 -3.92046 0
M  V30 702 H 63.1212 1.04793 -4.04238 0
M  V30 703 N 63.5583 1.46682 -0.576371 0
M  V30 704 C 64.8063 2.02013 -0.0594163 0
M  V30 705 C 65.1273 1.45101 1.30271 0
M  V30 706 O 64.3973 0.633317 1.8538 0
M  V30 707 H 62.9773 0.746759 -0.0189745 0
M  V30 708 H 65.6393 1.79862 -0.750717 0
M  V30 709 H 64.7353 3.12097 0.014345 0
M  V30 710 N 65.0364 0.313813 1.54444 0
M  V30 711 C 65.9864 -0.571898 2.20711 0
M  V30 712 C 66.9704 -1.08913 1.18435 0
M  V30 713 O 68.1624 -1.02777 1.44104 0
M  V30 714 C 65.2914 -1.7371 2.96108 0
M  V30 715 C 64.3774 -1.23522 4.05713 0
M  V30 716 N 64.7684 -0.452288 5.03774 0
M  V30 717 C 63.0664 -1.51482 4.19487 0
M  V30 718 C 63.7674 -0.183438 5.81411 0
M  V30 719 N 62.7434 -0.766845 5.38164 0
M  V30 720 H 66.5454 0.0336802 2.93881 0
M  V30 721 H 64.0594 0.119192 1.61962 0
M  V30 722 H 66.0564 -2.38329 3.4206 0
M  V30 723 H 64.7164 -2.34625 2.24458 0
M  V30 724 H 65.7274 -0.0960131 5.17811 0
M  V30 725 H 62.4044 -2.13053 3.59047 0
M  V30 726 H 63.7944 0.446216 6.70417 0
M  V30 727 N 66.5145 -1.57545 0.0417849 0
M  V30 728 C 67.4625 -2.12148 -0.953723 0
M  V30 729 C 68.4565 -1.05104 -1.32852 0
M  V30 730 O 69.6625 -1.23524 -1.30927 0
M  V30 731 H 66.0375 -0.677957 -0.325389 0
M  V30 732 H 68.0085 -2.94707 -0.467991 0
M  V30 733 C 66.7575 -2.6739 -2.22257 0
M  V30 734 H 66.0805 -3.49413 -1.94295 0
M  V30 735 H 67.5205 -3.09227 -2.90094 0
M  V30 736 C 65.9795 -1.60723 -2.96091 0
M  V30 737 O 66.5095 -1.01449 -3.88679 0
M  V30 738 N 64.7155 -1.32466 -2.58652 0
M  V30 739 H 64.2625 -1.80856 -1.83437 0
M  V30 740 H 64.2205 -0.61325 -3.08361 0
M  V30 741 N 67.9926 0.231505 -1.5589 0
M  V30 742 C 69.2396 0.957352 -1.78441 0
M  V30 743 C 69.5676 1.84726 -0.60882 0
M  V30 744 O 68.8226 1.91416 0.40725 0
M  V30 745 C 69.1216 1.83577 -3.0665 0
M  V30 746 C 68.7876 1.09993 -4.37278 0
M  V30 747 C 67.4496 0.896629 -4.72773 0
M  V30 748 C 69.8016 0.579558 -5.17968 0
M  V30 749 C 67.1296 0.160896 -5.86479 0
M  V30 750 C 69.4816 -0.142783 -6.32439 0
M  V30 751 C 68.1456 -0.357427 -6.66542 0
M  V30 752 H 67.4156 0.35032 -0.65296 0
M  V30 753 H 70.0626 0.226259 -1.90159 0
M  V30 754 H 68.3676 2.63441 -2.90011 0
M  V30 755 H 70.0646 2.39934 -3.21298 0
M  V30 756 H 66.6546 1.26835 -4.09403 0
M  V30 757 H 70.8386 0.724125 -4.90989 0
M  V30 758 H 66.0946 -0.0157293 -6.11398 0
M  V30 759 H 70.2686 -0.553559 -6.94196 0
M  V30 760 H 67.8956 -0.929466 -7.54497 0
M  V30 761 N 69.4707 1.49531 0.497807 0
M  V30 762 C 70.7007 1.62657 1.27382 0
M  V30 763 C 71.1087 0.298488 1.86831 0
M  V30 764 O 70.4517 -0.72647 1.68725 0
M  V30 765 C 70.5137 2.6393 2.44093 0
M  V30 766 C 70.1777 4.08195 2.05489 0
M  V30 767 C 71.1747 4.949 1.59279 0
M  V30 768 C 68.8597 4.53948 2.15026 0
M  V30 769 C 70.8537 6.25397 1.23113 0
M  V30 770 C 68.5407 5.84458 1.78473 0
M  V30 771 C 69.5387 6.70006 1.32591 0
M  V30 772 O 69.2267 7.98083 0.965327 0
M  V30 773 H 68.9587 0.550429 0.392434 0
M  V30 774 H 71.5127 1.96325 0.603801 0
M  V30 775 H 69.7427 2.25449 3.14181 0
M  V30 776 H 71.4317 2.66552 3.06113 0
M  V30 777 H 72.1977 4.60779 1.51354 0
M  V30 778 H 68.0767 3.87525 2.4969 0
M  V30 779 H 71.6207 6.92125 0.872299 0
M  V30 780 H 67.5177 6.18107 1.86048 0
M  V30 781 H 68.2857 8.11122 1.09652 0
M  V30 782 N 70.9488 -0.749086 1.3866 0
M  V30 783 C 71.8968 -1.88428 1.36373 0
M  V30 784 C 72.8908 -1.67561 0.248929 0
M  V30 785 O 74.0968 -1.75074 0.41821 0
M  V30 786 H 70.4718 -0.620023 0.42553 0
M  V30 787 H 72.4428 -1.87473 2.32156 0
M  V30 788 C 71.1918 -3.25961 1.21014 0
M  V30 789 H 70.5148 -3.42607 2.06059 0
M  V30 790 H 71.9548 -4.05625 1.23469 0
M  V30 791 C 70.4138 -3.36799 -0.0825941 0
M  V30 792 O 70.9438 -3.87517 -1.05797 0
M  V30 793 N 69.1498 -2.90258 -0.140939 0
M  V30 794 H 68.6968 -2.49174 0.653477 0
M  V30 795 H 68.6548 -2.97889 -1.00545 0
M  V30 796 N 72.4269 -1.23603 -0.977757 0
M  V30 797 C 73.6729 -1.07129 -1.72195 0
M  V30 798 C 74.0059 0.390501 -1.90233 0
M  V30 799 O 73.2809 1.28902 -1.45653 0
M  V30 800 C 73.5639 -1.80031 -3.11867 0
M  V30 801 C 73.4169 -3.33899 -3.01383 0
M  V30 802 C 74.7359 -1.56492 -4.11337 0
M  V30 803 H 71.8549 -0.390571 -0.624999 0
M  V30 804 H 74.4969 -1.52142 -1.13811 0
M  V30 805 H 72.6469 -1.41768 -3.6171 0
M  V30 806 H 74.3189 -3.81699 -2.59043 0
M  V30 807 H 72.5619 -3.62796 -2.37827 0
M  V30 808 H 73.2329 -3.801 -4.00285 0
M  V30 809 H 75.7089 -1.89757 -3.70313 0
M  V30 810 H 74.5849 -2.09973 -5.07151 0
M  V30 811 H 74.8459 -0.500874 -4.39254 0
M  V30 812 N 73.905 1.17692 -1.04816 0
M  V30 813 C 75.182 1.83768 -0.669963 0
M  V30 814 C 75.562 1.93232 0.849986 0
M  V30 815 O 74.91 1.46397 1.75443 0
M  V30 816 C 75.12 3.21641 -1.35455 0
M  V30 817 C 76.468 3.97592 -1.49017 0
M  V30 818 O 77.492 3.31107 -1.31326 0
M  V30 819 O 76.351 5.16729 -1.77914 0
M  V30 820 H 73.445 0.792799 -0.235368 0
M  V30 821 H 75.991 1.25021 -1.14751 0
M  V30 822 H 74.763 3.097 -2.39168 0
M  V30 823 H 74.386 3.88052 -0.866107 0
M  V30 824 N 75.3831 0.828654 1.34056 0
M  V30 825 C 76.3161 0.199763 2.27324 0
M  V30 826 C 77.2941 -0.647168 1.49166 0
M  V30 827 O 78.4781 -0.609661 1.78369 0
M  V30 828 C 75.6051 -0.720455 3.30949 0
M  V30 829 C 74.6511 0.0496888 4.26471 0
M  V30 830 S 75.4841 1.40072 5.16856 0
M  V30 831 C 76.6401 0.485527 6.24014 0
M  V30 832 H 76.8731 0.990478 2.80316 0
M  V30 833 H 74.4061 0.624857 1.41191 0
M  V30 834 H 76.3641 -1.24581 3.91139 0
M  V30 835 H 75.0251 -1.48474 2.76793 0
M  V30 836 H 74.2181 -0.650104 4.9979 0
M  V30 837 H 73.8201 0.505779 3.70564 0
M  V30 838 H 76.1121 -0.320672 6.76741 0
M  V30 839 H 77.0551 1.18856 6.98054 0
M  V30 840 H 77.4631 0.0714109 5.64455 0
M  V30 841 N 76.8612 -1.46375 0.584142 0
M  V30 842 C 78.0862 -2.07268 0.0740405 0
M  V30 843 C 78.5112 -1.42979 -1.22223 0
M  V30 844 O 77.8692 -0.514092 -1.73859 0
M  V30 845 C 77.9172 -3.60518 -0.0767769 0
M  V30 846 O 77.0212 -3.96533 -1.13292 0
M  V30 847 H 76.3622 -0.660961 0.0634524 0
M  V30 848 H 78.8922 -1.87991 0.807492 0
M  V30 849 H 78.9022 -4.07021 -0.282489 0
M  V30 850 H 77.5772 -4.06702 0.86986 0
M  V30 851 H 76.1542 -3.61738 -0.905553 0
M  V30 852 N 78.3393 -0.321999 -1.54275 0
M  V30 853 C 79.5693 0.282642 -2.04658 0
M  V30 854 C 79.9773 1.46453 -1.19784 0
M  V30 855 O 79.3203 1.82367 -0.220932 0
M  V30 856 C 79.3823 0.781857 -3.50895 0
M  V30 857 C 79.0463 -0.277517 -4.56157 0
M  V30 858 C 80.0433 -1.11307 -5.07845 0
M  V30 859 C 77.7283 -0.425256 -5.00497 0
M  V30 860 C 79.7223 -2.08211 -6.02434 0
M  V30 861 C 77.4093 -1.39771 -5.94901 0
M  V30 862 C 78.4073 -2.2246 -6.45756 0
M  V30 863 O 78.0953 -3.18054 -7.38307 0
M  V30 864 H 77.8273 0.0622636 -0.673126 0
M  V30 865 H 80.3813 -0.465792 -2.00049 0
M  V30 866 H 78.6113 1.58118 -3.52896 0
M  V30 867 H 80.3003 1.30467 -3.84361 0
M  V30 868 H 81.0663 -1.00991 -4.74369 0
M  V30 869 H 76.9453 0.20847 -4.60528 0
M  V30 870 H 80.4893 -2.72791 -6.42052 0
M  V30 871 H 76.3863 -1.50152 -6.27794 0
M  V30 872 H 77.1543 -3.13275 -7.56175 0
M  V30 873 N 79.8174 1.5752 -0.0501392 0
M  V30 874 C 80.7474 2.14502 0.922566 0
M  V30 875 C 81.7284 1.06642 1.3252 0
M  V30 876 O 82.9134 1.34577 1.4001 0
M  V30 877 C 80.0434 2.68916 2.19776 0
M  V30 878 C 78.9974 3.8175 1.93523 0
M  V30 879 C 78.3234 4.22677 3.27487 0
M  V30 880 C 79.6234 5.06932 1.25765 0
M  V30 881 H 81.3174 2.9603 0.447952 0
M  V30 882 H 78.8634 1.42401 0.214024 0
M  V30 883 H 80.8164 3.07419 2.88222 0
M  V30 884 H 79.5404 1.84578 2.69441 0
M  V30 885 H 78.1994 3.43718 1.27489 0
M  V30 886 H 77.8474 3.35291 3.74952 0
M  V30 887 H 77.5474 4.98725 3.1072 0
M  V30 888 H 79.0714 4.63779 3.97166 0
M  V30 889 H 80.4854 5.42888 1.84244 0
M  V30 890 H 78.8824 5.88116 1.19328 0
M  V30 891 H 79.9524 4.84337 0.233536 0
M  V30 892 N 81.2955 -0.223234 1.56011 0
M  V30 893 C 82.2425 -1.27664 1.92277 0
M  V30 894 C 83.2125 -1.46659 0.779763 0
M  V30 895 O 84.3975 -1.60256 1.03551 0
M  V30 896 C 81.5375 -2.62234 2.24338 0
M  V30 897 C 80.6505 -2.51051 3.51564 0
M  V30 898 C 79.7855 -3.78133 3.7308 0
M  V30 899 C 78.8245 -3.61665 4.93827 0
M  V30 900 N 77.9615 -4.80693 5.11741 0
M  V30 901 H 82.8015 -0.960358 2.82101 0
M  V30 902 H 80.3385 -0.462901 1.39627 0
M  V30 903 H 82.2965 -3.40596 2.40936 0
M  V30 904 H 80.9265 -2.91961 1.3769 0
M  V30 905 H 79.9785 -1.64132 3.43169 0
M  V30 906 H 81.2905 -2.34803 4.40079 0
M  V30 907 H 80.4445 -4.64938 3.89766 0
M  V30 908 H 79.1835 -3.97304 2.82844 0
M  V30 909 H 78.1885 -2.73244 4.77093 0
M  V30 910 H 79.4135 -3.43966 5.85546 0
M  V30 911 H 77.3595 -5.00181 4.24446 0
M  V30 912 H 77.2765 -4.67165 5.94384 0
M  V30 913 H 78.5445 -5.6893 5.3286 0
M  V30 914 N 82.7736 -1.49793 -0.48987 0
M  V30 915 C 84.1896 -1.36803 -0.822022 0
M  V30 916 C 84.3896 -0.409652 -1.97292 0
M  V30 917 O 83.4456 0.154614 -2.52026 0
M  V30 918 C 84.7586 -2.77768 -1.15175 0
M  V30 919 C 86.3066 -2.86549 -1.25931 0
M  V30 920 C 86.7816 -4.28306 -1.62228 0
M  V30 921 N 88.2726 -4.31169 -1.69256 0
M  V30 922 C 89.0076 -5.37832 -1.98807 0
M  V30 923 N 88.5036 -6.54726 -2.26507 0
M  V30 924 N 90.2966 -5.25258 -2.00152 0
M  V30 925 H 82.4476 -2.10691 0.268881 0
M  V30 926 H 84.7106 -0.946241 0.057728 0
M  V30 927 H 84.4166 -3.49648 -0.379335 0
M  V30 928 H 84.2906 -3.13836 -2.09253 0
M  V30 929 H 86.6776 -2.14899 -2.02243 0
M  V30 930 H 86.7586 -2.54049 -0.298776 0
M  V30 931 H 86.4026 -5.00486 -0.864622 0
M  V30 932 H 86.3326 -4.58279 -2.594 0
M  V30 933 H 88.8236 -3.4687 -1.49965 0
M  V30 934 H 89.1366 -7.31833 -2.48276 0
M  V30 935 H 87.4816 -6.57933 -2.23939 0
M  V30 936 H 90.6726 -4.32938 -1.77996 0
M  V30 937 H 90.8456 -6.08476 -2.22848 0
M  V30 938 N 84.2517 0.741722 -1.39055 0
M  V30 939 C 85.1817 1.869 -1.39966 0
M  V30 940 C 86.1627 1.6804 -0.26392 0
M  V30 941 O 87.3477 1.88458 -0.468755 0
M  V30 942 C 84.4777 3.24572 -1.23574 0
M  V30 943 C 83.4317 3.58056 -2.34477 0
M  V30 944 C 82.7577 4.94593 -2.0318 0
M  V30 945 C 84.0577 3.61716 -3.76774 0
M  V30 946 H 85.7517 1.86395 -2.34302 0
M  V30 947 H 83.2977 0.895361 -1.1278 0
M  V30 948 H 85.2507 4.031 -1.22834 0
M  V30 949 H 83.9747 3.25587 -0.257045 0
M  V30 950 H 82.6337 2.81854 -2.34423 0
M  V30 951 H 82.2817 4.92181 -1.03765 0
M  V30 952 H 81.9817 5.17964 -2.77465 0
M  V30 953 H 83.5057 5.75486 -2.04079 0
M  V30 954 H 84.9197 4.30335 -3.78794 0
M  V30 955 H 83.3167 3.96603 -4.50362 0
M  V30 956 H 84.3867 2.61672 -4.08235 0
M  V30 957 N 85.7298 1.2412 0.971189 0
M  V30 958 C 86.9698 1.09066 1.7287 0
M  V30 959 C 87.3338 -0.364794 1.88503 0
M  V30 960 O 88.5348 -0.636748 2.61149 0
M  V30 961 C 86.8058 1.80629 3.08396 0
M  V30 962 S 88.3648 1.81263 3.99611 0
M  V30 963 H 85.1828 0.390145 0.594397 0
M  V30 964 H 87.7848 1.57397 1.15959 0
M  V30 965 H 86.4888 2.85647 2.94676 0
M  V30 966 H 86.0198 1.32617 3.70373 0
M  V30 967 H 88.0348 0.877804 4.88374 0
M  V30 968 N 87.2079 -1.17134 1.05439 0
M  V30 969 C 88.4559 -1.87085 0.764429 0
M  V30 970 C 88.7769 -1.81584 -0.710787 0
M  V30 971 O 88.0469 -1.24349 -1.51374 0
M  V30 972 H 86.6269 -0.692627 0.279779 0
M  V30 973 H 89.2889 -1.42087 1.33406 0
M  V30 974 H 88.3849 -2.92759 1.0816 0
M  V30 975 N 88.686 -0.835752 -1.33615 0
M  V30 976 C 89.914 -0.443344 -2.02094 0
M  V30 977 C 90.329 0.954522 -1.62894 0
M  V30 978 O 89.686 1.61982 -0.840723 0
M  V30 979 C 89.737 -0.550775 -3.5728 0
M  V30 980 O 89.458 -1.89356 -3.95065 0
M  V30 981 C 90.959 -0.154919 -4.43029 0
M  V30 982 H 88.179 -0.176359 -0.647409 0
M  V30 983 H 90.723 -1.12746 -1.70612 0
M  V30 984 H 88.878 0.0853997 -3.87306 0
M  V30 985 H 89.292 -1.87687 -4.89769 0
M  V30 986 H 90.766 -0.281144 -5.51284 0
M  V30 987 H 91.243 0.902863 -4.2982 0
M  V30 988 H 91.849 -0.765404 -4.18356 0
M  V30 989 N 90.1641 1.46063 -0.591896 0
M  V30 990 C 91.4111 2.02338 -0.0809991 0
M  V30 991 C 91.7391 1.46228 1.28249 0
M  V30 992 O 90.9941 0.620818 1.85592 0
M  V30 993 C 91.2931 3.57391 0.0249813 0
M  V30 994 C 90.9591 4.32583 -1.27211 0
M  V30 995 C 89.6211 4.52844 -1.62745 0
M  V30 996 C 91.9731 4.75687 -2.13005 0
M  V30 997 C 89.3011 5.13462 -2.83855 0
M  V30 998 C 91.6531 5.37644 -3.3335 0
M  V30 999 C 90.3171 5.5613 -3.69155 0
M  V30 1000 H 89.5871 0.740407 -0.0296397 0
M  V30 1001 H 92.2341 1.75321 -0.770374 0
M  V30 1002 H 90.5391 3.83597 0.797537 0
M  V30 1003 H 92.2361 3.98621 0.436184 0
M  V30 1004 H 88.8261 4.17116 -0.985499 0
M  V30 1005 H 93.0101 4.59782 -1.86855 0
M  V30 1006 H 88.2661 5.25965 -3.11722 0
M  V30 1007 H 92.4401 5.7 -4.00092 0
M  V30 1008 H 90.0671 6.0287 -4.63089 0
M  V30 1009 N 91.6422 0.330177 1.54103 0
M  V30 1010 C 92.5722 -0.525353 2.27513 0
M  V30 1011 C 93.5532 -1.11383 1.2856 0
M  V30 1012 O 94.7382 -1.13773 1.57383 0
M  V30 1013 C 91.8682 -1.6831 3.03791 0
M  V30 1014 C 90.8222 -1.2236 4.10137 0
M  V30 1015 C 90.1482 -2.46882 4.74293 0
M  V30 1016 C 91.4482 -0.333697 5.21233 0
M  V30 1017 H 93.1422 0.087013 2.99274 0
M  V30 1018 H 90.6882 0.0432893 1.43935 0
M  V30 1019 H 92.6412 -2.28795 3.5388 0
M  V30 1020 H 91.3652 -2.32216 2.29659 0
M  V30 1021 H 90.0242 -0.64165 3.60941 0
M  V30 1022 H 89.6722 -3.09165 3.96769 0
M  V30 1023 H 89.3722 -2.16825 5.46133 0
M  V30 1024 H 90.8962 -3.08117 5.27159 0
M  V30 1025 H 92.3102 -0.845013 5.67038 0
M  V30 1026 H 90.7072 -0.125612 5.99969 0
M  V30 1027 H 91.7772 0.633724 4.80741 0
M  V30 1028 N 93.1203 -1.57491 0.0584922 0
M  V30 1029 C 94.3683 -1.92597 -0.612436 0
M  V30 1030 C 94.6893 -0.938162 -1.70949 0
M  V30 1031 O 93.9593 0.0158301 -1.95894 0
M  V30 1032 H 92.5393 -0.710964 -0.229214 0
M  V30 1033 H 95.2013 -1.94571 0.113218 0
M  V30 1034 H 94.2973 -2.94038 -1.04633 0
M  V30 1035 N 94.5984 0.214957 -1.56127 0
M  V30 1036 C 95.8464 0.936518 -1.79091 0
M  V30 1037 C 96.1674 1.84606 -0.628148 0
M  V30 1038 O 95.4374 1.92664 0.35462 0
M  V30 1039 H 94.0174 0.3488 -0.660566 0
M  V30 1040 H 96.6794 0.22523 -1.93594 0
M  V30 1041 H 95.7754 1.53943 -2.71492 0
M  V30 1042 N 96.0765 1.50051 0.48192 0
M  V30 1043 C 97.4875 1.5348 1.06305 0
M  V30 1044 C 97.8385 0.331997 1.93371 0
M  V30 1045 O 96.9635 -0.556256 2.09129 0
M  V30 1046 C 97.5585 2.7813 1.93466 0
M  V30 1047 C 96.1175 2.84275 2.46707 0
M  V30 1048 C 95.2645 2.47637 1.24785 0
M  V30 1049 H 98.2155 1.56472 0.264995 0
M  V30 1050 H 98.2365 2.59372 2.78399 0
M  V30 1051 H 97.7485 3.65654 1.30072 0
M  V30 1052 H 95.8495 2.01077 3.13686 0
M  V30 1053 H 95.9625 3.8691 2.82555 0
M  V30 1054 H 94.3265 1.99835 1.57918 0
M  V30 1055 H 95.1095 3.37457 0.630694 0
M  V30 1056 N 97.5546 -0.734337 1.39446 0
M  V30 1057 C 98.5016 -1.84835 1.38219 0
M  V30 1058 C 99.4716 -1.64331 0.24179 0
M  V30 1059 O 100.657 -1.85728 0.437002 0
M  V30 1060 C 97.7966 -3.22355 1.23212 0
M  V30 1061 C 96.9096 -3.5456 2.46801 0
M  V30 1062 C 96.0446 -4.81485 2.24377 0
M  V30 1063 C 95.0836 -5.06536 3.43639 0
M  V30 1064 N 94.2206 -6.24665 3.20528 0
M  V30 1065 H 99.0606 -1.85219 2.33448 0
M  V30 1066 H 96.5976 -0.905039 1.15963 0
M  V30 1067 H 98.5556 -4.0174 1.12522 0
M  V30 1068 H 97.1856 -3.21248 0.316121 0
M  V30 1069 H 96.2376 -2.69872 2.68092 0
M  V30 1070 H 97.5496 -3.6899 3.3563 0
M  V30 1071 H 96.7036 -5.68852 2.10933 0
M  V30 1072 H 95.4426 -4.6923 1.32944 0
M  V30 1073 H 94.4476 -4.17632 3.5758 0
M  V30 1074 H 95.6726 -5.20676 4.35974 0
M  V30 1075 H 93.6186 -6.13696 2.3176 0
M  V30 1076 H 93.5356 -6.39685 4.02913 0
M  V30 1077 H 94.8036 -7.14868 3.10779 0
M  V30 1078 N 99.0327 -1.24633 -0.964593 0
M  V30 1079 C 100.444 -1.08045 -1.5226 0
M  V30 1080 C 100.795 0.347116 -1.93105 0
M  V30 1081 O 99.9197 1.23588 -1.77637 0
M  V30 1082 C 100.515 -1.95514 -2.76695 0
M  V30 1083 C 99.0737 -1.8314 -3.28841 0
M  V30 1084 C 98.2207 -1.90262 -2.01732 0
M  V30 1085 H 101.172 -1.38064 -0.782553 0
M  V30 1086 H 101.193 -1.48925 -3.50145 0
M  V30 1087 H 100.705 -2.99407 -2.46936 0
M  V30 1088 H 98.8057 -0.82092 -3.63444 0
M  V30 1089 H 98.9187 -2.67406 -3.97531 0
M  V30 1090 H 97.2827 -1.34027 -2.16584 0
M  V30 1091 H 98.0657 -2.9574 -1.74334 0
M  V30 1092 N 100.511 1.16574 -1.06058 0
M  V30 1093 C 101.922 1.68662 -0.800632 0
M  V30 1094 C 102.273 1.84184 0.67608 0
M  V30 1095 O 101.398 1.53568 1.52466 0
M  V30 1096 C 101.993 3.06356 -1.44676 0
M  V30 1097 C 100.552 3.55575 -1.23465 0
M  V30 1098 C 99.6988 2.31616 -1.52477 0
M  V30 1099 H 102.65 1.00969 -1.22438 0
M  V30 1100 H 102.671 3.70636 -0.860788 0
M  V30 1101 H 102.183 2.95027 -2.52152 0
M  V30 1102 H 100.284 3.72167 -0.179527 0
M  V30 1103 H 100.397 4.37812 -1.94571 0
M  V30 1104 H 98.7608 2.36512 -0.945209 0
M  V30 1105 H 99.5438 2.22887 -2.61106 0
M  V30 1106 N 101.989 0.842826 1.3317 0
M  V30 1107 C 102.921 0.236245 2.27979 0
M  V30 1108 C 103.934 -0.585282 1.51915 0
M  V30 1109 O 105.123 -0.411705 1.73687 0
M  V30 1110 C 102.223 -0.685717 3.3189 0
M  V30 1111 C 101.396 0.0973448 4.37292 0
M  V30 1112 C 100.455 -0.748565 5.20848 0
M  V30 1113 O 99.4809 -0.186339 5.68895 0
M  V30 1114 N 100.683 -2.06527 5.42519 0
M  V30 1115 H 103.448 1.05088 2.80672 0
M  V30 1116 H 101.009 0.701667 1.45905 0
M  V30 1117 H 103.001 -1.25669 3.84694 0
M  V30 1118 H 101.571 -1.40105 2.79445 0
M  V30 1119 H 100.791 0.849706 3.84933 0
M  V30 1120 H 102.079 0.635643 5.04814 0
M  V30 1121 H 101.477 -2.54554 5.05192 0
M  V30 1122 H 100.034 -2.58464 5.98364 0
M  V30 1123 N 103.467 -1.45747 0.599634 0
M  V30 1124 C 104.883 -1.57424 0.26264 0
M  V30 1125 C 105.083 -1.59222 -1.23493 0
M  V30 1126 O 104.139 -1.51825 -2.01756 0
M  V30 1127 C 105.452 -2.86061 0.926795 0
M  V30 1128 C 107 -2.99722 0.901967 0
M  V30 1129 C 107.475 -4.31119 1.54598 0
M  V30 1130 N 108.966 -4.37858 1.5111 0
M  V30 1131 C 109.701 -5.3818 1.97863 0
M  V30 1132 N 109.197 -6.45083 2.52666 0
M  V30 1133 N 110.99 -5.29487 1.88679 0
M  V30 1134 H 103.141 -1.42823 1.57211 0
M  V30 1135 H 105.404 -0.68235 0.658105 0
M  V30 1136 H 105.11 -2.90605 1.98095 0
M  V30 1137 H 104.984 -3.74563 0.445238 0
M  V30 1138 H 107.371 -2.9475 -0.143617 0
M  V30 1139 H 107.452 -2.12652 1.42171 0
M  V30 1140 H 107.096 -4.36849 2.59085 0
M  V30 1141 H 107.026 -5.16992 1.00132 0
M  V30 1142 H 109.517 -3.61209 1.11068 0
M  V30 1143 H 109.83 -7.17869 2.86155 0
M  V30 1144 H 108.175 -6.45856 2.56701 0
M  V30 1145 H 111.366 -4.44877 1.4561 0
M  V30 1146 H 111.539 -6.07524 2.25429 0
M  V30 1147 N 104.945 -0.338344 -1.53925 0
M  V30 1148 C 106.191 0.260143 -2.01125 0
M  V30 1149 C 106.524 1.50617 -1.22589 0
M  V30 1150 O 105.799 1.91979 -0.312113 0
M  V30 1151 C 106.082 0.579499 -3.55407 0
M  V30 1152 C 105.935 -0.678264 -4.44657 0
M  V30 1153 C 107.254 1.39122 -4.17532 0
M  V30 1154 H 104.373 0.0930772 -0.731099 0
M  V30 1155 H 107.015 -0.457852 -1.84401 0
M  V30 1156 H 105.165 1.19118 -3.69788 0
M  V30 1157 H 106.837 -1.31631 -4.42121 0
M  V30 1158 H 105.08 -1.3042 -4.13731 0
M  V30 1159 H 105.751 -0.410143 -5.50474 0
M  V30 1160 H 108.227 0.874035 -4.06817 0
M  V30 1161 H 107.103 1.58342 -5.25565 0
M  V30 1162 H 107.364 2.39178 -3.71815 0
M  V30 1163 N 106.423 1.57458 -0.0668435 0
M  V30 1164 C 107.356 2.08033 0.93795 0
M  V30 1165 C 108.334 0.984321 1.29421 0
M  V30 1166 O 109.518 1.25736 1.40437 0
M  V30 1167 C 106.645 2.53388 2.24749 0
M  V30 1168 C 105.691 3.74376 2.04315 0
M  V30 1169 S 106.524 5.19303 1.30706 0
M  V30 1170 C 107.68 5.67986 2.62951 0
M  V30 1171 H 107.913 2.92935 0.50759 0
M  V30 1172 H 105.446 1.5371 0.145804 0
M  V30 1173 H 107.404 2.8018 3.00016 0
M  V30 1174 H 106.065 1.68763 2.64911 0
M  V30 1175 H 105.258 4.04083 3.01218 0
M  V30 1176 H 104.86 3.47931 1.37186 0
M  V30 1177 H 107.152 5.74528 3.5906 0
M  V30 1178 H 108.095 6.66955 2.3786 0
M  V30 1179 H 108.503 4.95781 2.69929 0
M  V30 1180 N 107.901 -0.206675 1.56239 0
M  V30 1181 C 109.148 -0.928842 1.79941 0
M  V30 1182 C 109.476 -1.83734 0.638131 0
M  V30 1183 O 108.731 -1.92039 -0.376746 0
M  V30 1184 C 109.03 -1.78675 3.09532 0
M  V30 1185 C 108.696 -1.03022 4.38973 0
M  V30 1186 C 107.358 -0.821302 4.74139 0
M  V30 1187 C 109.71 -0.497081 5.18824 0
M  V30 1188 C 107.038 -0.0675719 5.86661 0
M  V30 1189 C 109.39 0.24338 6.32132 0
M  V30 1190 C 108.054 0.463422 6.65889 0
M  V30 1191 H 107.324 -0.339887 0.658451 0
M  V30 1192 H 109.971 -0.195977 1.90495 0
M  V30 1193 H 108.276 -2.58794 2.94165 0
M  V30 1194 H 109.973 -2.34792 3.25075 0
M  V30 1195 H 106.563 -1.20306 4.11369 0
M  V30 1196 H 110.747 -0.645921 4.92079 0
M  V30 1197 H 106.003 0.112995 6.11296 0
M  V30 1198 H 110.177 0.66393 6.93228 0
M  V30 1199 H 107.804 1.04938 7.52922 0
M  V30 1200 N 109.379 -1.50304 -0.473955 0
M  V30 1201 C 110.607 -1.64902 -1.24959 0
M  V30 1202 C 111.022 -0.331198 -1.85872 0
M  V30 1203 O 110.379 0.68652 -1.69095 0
M  V30 1204 C 110.43 -2.73803 -2.36038 0
M  V30 1205 O 110.151 -4.00477 -1.77624 0
M  V30 1206 C 111.652 -2.99349 -3.26964 0
M  V30 1207 H 108.872 -0.554383 -0.378022 0
M  V30 1208 H 111.416 -1.9651 -0.566054 0
M  V30 1209 H 109.571 -2.44898 -3.00173 0
M  V30 1210 H 109.985 -4.60678 -2.5075 0
M  V30 1211 H 111.459 -3.79217 -4.01121 0
M  V30 1212 H 111.936 -2.10307 -3.85574 0
M  V30 1213 H 112.542 -3.29774 -2.68569 0
M  V30 1214 N 110.857 0.726932 -1.39834 0
M  V30 1215 C 111.767 1.87131 -1.41489 0
M  V30 1216 C 112.783 1.71239 -0.308757 0
M  V30 1217 O 113.959 1.93701 -0.551529 0
M  V30 1218 C 111.024 3.22811 -1.26468 0
M  V30 1219 C 110.085 3.51039 -2.47124 0
M  V30 1220 C 109.318 4.80245 -2.3281 0
M  V30 1221 O 109.541 5.54537 -1.33585 0
M  V30 1222 O 108.475 5.08554 -3.21957 0
M  V30 1223 H 112.301 1.8869 -2.3797 0
M  V30 1224 H 109.886 0.875837 -1.21035 0
M  V30 1225 H 111.768 4.03877 -1.20255 0
M  V30 1226 H 110.443 3.22005 -0.330862 0
M  V30 1227 H 109.35 2.70027 -2.58914 0
M  V30 1228 H 110.683 3.56632 -3.39227 0
M  V30 1229 N 112.336 1.25143 0.95797 0
M  V30 1230 C 113.613 1.00472 1.67823 0
M  V30 1231 C 113.993 -0.470056 2.058 0
M  V30 1232 O 113.341 -1.44663 1.76875 0
M  V30 1233 C 113.551 1.9372 2.90299 0
M  V30 1234 C 114.899 2.21371 3.62326 0
M  V30 1235 O 115.923 1.91451 3.00375 0
M  V30 1236 O 114.782 2.72231 4.7387 0
M  V30 1237 H 111.876 0.380752 0.734137 0
M  V30 1238 H 114.422 1.36283 1.01119 0
M  V30 1239 H 113.194 2.93316 2.59001 0
M  V30 1240 H 112.817 1.58286 3.64735 0
M  V30 1241 N 113.814 -1.1601 1.06675 0
M  V30 1242 C 114.744 -2.22688 0.702307 0
M  V30 1243 C 115.725 -1.67306 -0.307032 0
M  V30 1244 O 116.91 -1.93352 -0.181305 0
M  V30 1245 C 114.04 -3.47178 0.092038 0
M  V30 1246 C 112.994 -4.15477 1.02777 0
M  V30 1247 C 112.32 -5.33963 0.28061 0
M  V30 1248 C 113.62 -4.66019 2.35846 0
M  V30 1249 H 115.314 -2.53429 1.59419 0
M  V30 1250 H 112.86 -1.21813 0.767961 0
M  V30 1251 H 114.813 -4.21037 -0.174814 0
M  V30 1252 H 113.537 -3.15749 -0.834877 0
M  V30 1253 H 112.196 -3.43549 1.27944 0
M  V30 1254 H 111.844 -4.98788 -0.649545 0
M  V30 1255 H 111.544 -5.806 0.904258 0
M  V30 1256 H 113.068 -6.10596 0.021396 0
M  V30 1257 H 114.482 -5.3144 2.15045 0
M  V30 1258 H 112.879 -5.23293 2.93743 0
M  V30 1259 H 113.949 -3.82023 2.98641 0
M  V30 1260 N 115.292 -0.849877 -1.32721 0
M  V30 1261 C 116.239 -0.289033 -2.28983 0
M  V30 1262 C 117.209 0.601324 -1.54833 0
M  V30 1263 O 118.394 0.537253 -1.8308 0
M  V30 1264 C 115.534 0.520623 -3.4115 0
M  V30 1265 C 114.647 -0.394989 -4.3019 0
M  V30 1266 C 113.782 0.426834 -5.29482 0
M  V30 1267 C 112.821 -0.486476 -6.10164 0
M  V30 1268 N 111.958 0.297879 -7.01468 0
M  V30 1269 H 116.798 -1.11519 -2.76347 0
M  V30 1270 H 114.335 -0.56138 -1.35967 0
M  V30 1271 H 116.293 1.00563 -4.04899 0
M  V30 1272 H 114.923 1.31165 -2.9495 0
M  V30 1273 H 113.975 -0.99836 -3.67065 0
M  V30 1274 H 115.287 -1.09612 -4.86607 0
M  V30 1275 H 114.441 0.975205 -5.98811 0
M  V30 1276 H 113.18 1.16136 -4.73671 0
M  V30 1277 H 112.185 -1.04677 -5.39743 0
M  V30 1278 H 113.41 -1.21953 -6.6806 0
M  V30 1279 H 111.356 1.01558 -6.48091 0
M  V30 1280 H 111.273 -0.344318 -7.55216 0
M  V30 1281 H 112.541 0.828131 -7.75089 0
M  V30 1282 N 116.77 1.45427 -0.607355 0
M  V30 1283 C 117.7 2.3329 0.0989352 0
M  V30 1284 C 118.681 1.46816 0.859007 0
M  V30 1285 O 119.866 1.75588 0.829604 0
M  V30 1286 C 116.996 3.29518 1.09705 0
M  V30 1287 C 115.95 4.25626 0.450206 0
M  V30 1288 C 115.276 5.11542 1.55655 0
M  V30 1289 C 116.576 5.18505 -0.628455 0
M  V30 1290 H 118.27 2.92595 -0.634716 0
M  V30 1291 H 115.816 1.40696 -0.306681 0
M  V30 1292 H 117.769 3.89855 1.59971 0
M  V30 1293 H 116.493 2.68372 1.86129 0
M  V30 1294 H 115.152 3.66586 -0.0315886 0
M  V30 1295 H 114.8 4.46765 2.31107 0
M  V30 1296 H 114.5 5.76647 1.12925 0
M  V30 1297 H 116.024 5.74748 2.06148 0
M  V30 1298 H 117.438 5.72916 -0.209877 0
M  V30 1299 H 115.835 5.92085 -0.977489 0
M  V30 1300 H 116.905 4.60948 -1.50514 0
M  V30 1301 N 118.248 0.346503 1.53744 0
M  V30 1302 C 119.659 -0.136779 1.86198 0
M  V30 1303 C 120.01 -1.49749 1.26766 0
M  V30 1304 O 119.135 -2.08417 0.582355 0
M  V30 1305 C 119.73 -0.254966 3.37839 0
M  V30 1306 C 118.289 -0.682482 3.70161 0
M  V30 1307 C 117.436 0.181981 2.76702 0
M  V30 1308 H 120.387 0.565994 1.48264 0
M  V30 1309 H 120.408 -1.08195 3.64793 0
M  V30 1310 H 119.92 0.735526 3.81066 0
M  V30 1311 H 118.021 -1.68189 3.3248 0
M  V30 1312 H 118.134 -0.470326 4.76786 0
M  V30 1313 H 116.498 -0.34615 2.52337 0
M  V30 1314 H 117.281 1.16966 3.2276 0
M  V30 1315 N 119.726 -1.57421 0.075193 0
M  V30 1316 C 120.689 -2.11791 -0.876203 0
M  V30 1317 C 121.689 -1.04268 -1.22412 0
M  V30 1318 O 122.879 -1.30242 -1.15684 0
M  V30 1319 C 120.011 -2.62207 -2.17854 0
M  V30 1320 H 121.204 -2.9716 -0.40444 0
M  V30 1321 H 118.757 -1.55333 -0.173557 0
M  V30 1322 H 119.492 -1.803 -2.6956 0
M  V30 1323 H 119.277 -3.40802 -1.93897 0
M  V30 1324 H 120.767 -3.04335 -2.85955 0
M  V30 1325 N 121.204 0.198386 -1.56346 0
M  V30 1326 C 122.429 0.939682 -1.84891 0
M  V30 1327 C 122.854 1.76202 -0.658369 0
M  V30 1328 O 122.212 1.76993 0.392851 0
M  V30 1329 C 122.26 1.81428 -3.11635 0
M  V30 1330 O 121.364 2.91265 -2.91956 0
M  V30 1331 H 120.705 0.264807 -0.608912 0
M  V30 1332 H 123.235 0.204695 -2.03573 0
M  V30 1333 H 123.245 2.21958 -3.42343 0
M  V30 1334 H 121.92 1.21004 -3.97908 0
M  V30 1335 H 120.497 2.54514 -2.72538 0
M  V30 1336 N 122.682 1.50554 0.465978 0
M  V30 1337 C 123.929 1.61798 1.21768 0
M  V30 1338 C 124.257 0.320696 1.91838 0
M  V30 1339 O 123.512 -0.693724 1.82992 0
M  V30 1340 C 123.811 2.75152 2.28093 0
M  V30 1341 C 123.477 4.15454 1.75239 0
M  V30 1342 C 122.139 4.53628 1.60546 0
M  V30 1343 C 124.491 5.03121 1.36083 0
M  V30 1344 C 121.819 5.77204 1.05128 0
M  V30 1345 C 124.171 6.27249 0.821056 0
M  V30 1346 C 122.835 6.64221 0.660795 0
M  V30 1347 H 122.105 0.592063 0.445582 0
M  V30 1348 H 124.752 1.84503 0.512927 0
M  V30 1349 H 123.057 2.46556 3.04496 0
M  V30 1350 H 124.754 2.81055 2.86023 0
M  V30 1351 H 121.344 3.85341 1.87644 0
M  V30 1352 H 125.528 4.74257 1.46267 0
M  V30 1353 H 120.784 6.0452 0.91462 0
M  V30 1354 H 124.958 6.94537 0.509018 0
M  V30 1355 H 122.585 7.59854 0.229226 0
M  V30 1356 N 124.16 -0.719506 1.40217 0
M  V30 1357 C 125.437 -1.47221 1.28784 0
M  V30 1358 C 125.817 -2.10883 -0.0956067 0
M  V30 1359 O 125.165 -1.99833 -1.10811 0
M  V30 1360 C 125.375 -2.5111 2.42373 0
M  V30 1361 C 126.723 -3.17053 2.82423 0
M  V30 1362 O 127.747 -2.61429 2.41937 0
M  V30 1363 O 126.606 -4.17742 3.52355 0
M  V30 1364 H 123.7 -0.654491 0.50554 0
M  V30 1365 H 126.246 -0.752014 1.52128 0
M  V30 1366 H 125.018 -2.02556 3.34793 0
M  V30 1367 H 124.641 -3.3067 2.20778 0
M  V30 1368 N 125.638 -1.25649 -0.95132 0
M  V30 1369 C 126.601 -1.06399 -2.03007 0
M  V30 1370 C 127.601 -0.0156794 -1.60792 0
M  V30 1371 O 128.791 -0.25817 -1.72276 0
M  V30 1372 C 125.923 -0.616184 -3.35285 0
M  V30 1373 H 127.116 -2.02164 -2.21517 0
M  V30 1374 H 124.669 -1.08103 -1.12887 0
M  V30 1375 H 125.404 0.343917 -3.22471 0
M  V30 1376 H 125.189 -1.37301 -3.67275 0
M  V30 1377 H 126.679 -0.503032 -4.14559 0
M  V30 1378 N 127.117 1.15442 -1.07289 0
M  V30 1379 C 128.533 1.38201 -0.798288 0
M  V30 1380 C 128.733 1.92429 0.597769 0
M  V30 1381 O 127.789 2.12962 1.3566 0
M  V30 1382 C 129.102 2.35357 -1.87156 0
M  V30 1383 C 130.65 2.49021 -1.89624 0
M  V30 1384 C 131.125 3.49468 -2.96034 0
M  V30 1385 N 132.616 3.57003 -2.95132 0
M  V30 1386 C 133.351 4.34543 -3.74112 0
M  V30 1387 N 132.847 5.15421 -4.6294 0
M  V30 1388 N 134.64 4.29625 -3.62462 0
M  V30 1389 H 126.791 0.78584 -1.97328 0
M  V30 1390 H 129.054 0.408065 -0.855679 0
M  V30 1391 H 128.76 2.02626 -2.87464 0
M  V30 1392 H 128.634 3.35129 -1.73114 0
M  V30 1393 H 131.021 2.81051 -0.899687 0
M  V30 1394 H 131.102 1.4925 -2.07745 0
M  V30 1395 H 130.746 3.18173 -3.95889 0
M  V30 1396 H 130.676 4.48992 -2.75161 0
M  V30 1397 H 133.167 2.99276 -2.30743 0
M  V30 1398 H 133.48 5.7183 -5.19837 0
M  V30 1399 H 131.825 5.14729 -4.66989 0
M  V30 1400 H 135.016 3.65505 -2.92444 0
M  V30 1401 H 135.189 4.89807 -4.24256 0
M  V30 1402 N 128.595 0.856903 1.32268 0
M  V30 1403 C 129.505 0.306131 2.32594 0
M  V30 1404 C 130.521 -0.577209 1.64147 0
M  V30 1405 O 131.697 -0.477043 1.95669 0
M  V30 1406 C 128.762 -0.494561 3.43154 0
M  V30 1407 C 127.823 0.415186 4.27288 0
M  V30 1408 C 127.056 -0.347387 5.32568 0
M  V30 1409 O 127.279 -1.57708 5.48165 0
M  V30 1410 O 126.213 0.287982 6.01211 0
M  V30 1411 H 130.039 1.13737 2.81598 0
M  V30 1412 H 127.624 0.619902 1.35932 0
M  V30 1413 H 129.506 -0.948944 4.10576 0
M  V30 1414 H 128.181 -1.30257 2.96336 0
M  V30 1415 H 127.088 0.917793 3.62667 0
M  V30 1416 H 128.421 1.18844 4.77637 0
M  V30 1417 N 130.073 -1.45103 0.615059 0
M  V30 1418 C 131.005 -2.28786 -0.13762 0
M  V30 1419 C 132.018 -1.40376 -0.824525 0
M  V30 1420 O 133.207 -1.64681 -0.688662 0
M  V30 1421 C 130.307 -3.16322 -1.21628 0
M  V30 1422 C 129.48 -4.33054 -0.615039 0
M  V30 1423 C 128.539 -5.01743 -1.58556 0
M  V30 1424 O 127.565 -5.58293 -1.10895 0
M  V30 1425 N 128.767 -5.01714 -2.91998 0
M  V30 1426 H 131.532 -2.94025 0.580483 0
M  V30 1427 H 129.093 -1.55373 0.45507 0
M  V30 1428 H 131.085 -3.59139 -1.86552 0
M  V30 1429 H 129.655 -2.52943 -1.83681 0
M  V30 1430 H 128.875 -3.93627 0.21245 0
M  V30 1431 H 130.163 -5.08431 -0.193704 0
M  V30 1432 H 129.561 -4.57075 -3.33316 0
M  V30 1433 H 128.118 -5.48371 -3.52325 0
M  V30 1434 N 131.551 -0.354651 -1.53558 0
M  V30 1435 C 132.797 0.231422 -2.02079 0
M  V30 1436 C 133.152 1.47308 -1.23767 0
M  V30 1437 O 132.445 1.8891 -0.319947 0
M  V30 1438 C 132.639 0.587121 -3.52545 0
M  V30 1439 C 132.468 -0.618513 -4.45426 0
M  V30 1440 C 131.238 -1.12724 -4.92566 0
M  V30 1441 C 133.436 -1.48039 -4.92533 0
M  V30 1442 N 131.418 -2.29404 -5.69427 0
M  V30 1443 C 132.789 -2.49397 -5.67628 0
M  V30 1444 C 134.844 -1.50454 -4.74624 0
M  V30 1445 C 133.547 -3.53013 -6.26717 0
M  V30 1446 C 135.573 -2.52958 -5.34571 0
M  V30 1447 C 134.935 -3.5304 -6.09543 0
M  V30 1448 H 131.034 0.0476909 -0.780544 0
M  V30 1449 H 133.618 -0.496727 -1.88257 0
M  V30 1450 H 131.789 1.28436 -3.6655 0
M  V30 1451 H 133.521 1.15734 -3.87799 0
M  V30 1452 H 130.276 -0.693577 -4.68494 0
M  V30 1453 H 130.7 -2.88347 -6.12524 0
M  V30 1454 H 135.342 -0.744356 -4.16196 0
M  V30 1455 H 133.06 -4.2992 -6.84247 0
M  V30 1456 H 136.646 -2.55667 -5.22614 0
M  V30 1457 H 135.526 -4.31056 -6.55103 0
M  V30 1458 N 133.029 1.57378 -0.0835403 0
M  V30 1459 C 134.44 1.81261 0.447358 0
M  V30 1460 C 134.791 0.998331 1.68902 0
M  V30 1461 O 133.916 0.224282 2.15235 0
M  V30 1462 C 134.511 3.28767 0.818386 0
M  V30 1463 C 133.07 3.53455 1.29409 0
M  V30 1464 C 132.217 2.75831 0.285024 0
M  V30 1465 H 135.168 1.5566 -0.309115 0
M  V30 1466 H 135.189 3.41459 1.67887 0
M  V30 1467 H 134.701 3.88006 -0.0855019 0
M  V30 1468 H 132.802 2.99534 2.21608 0
M  V30 1469 H 132.915 4.62128 1.2639 0
M  V30 1470 H 131.279 2.42947 0.764767 0
M  V30 1471 H 132.062 3.37813 -0.611341 0
M  V30 1472 N 134.507 -0.190092 1.56449 0
M  V30 1473 C 135.439 -1.25973 1.91477 0
M  V30 1474 C 136.452 -1.41452 0.805931 0
M  V30 1475 O 137.641 -1.41789 1.08435 0
M  V30 1476 C 134.741 -2.63117 2.13594 0
M  V30 1477 C 133.914 -2.69182 3.4476 0
M  V30 1478 C 132.973 -3.87557 3.5593 0
M  V30 1479 O 131.999 -3.74427 4.28711 0
M  V30 1480 N 133.201 -5.03224 2.89388 0
M  V30 1481 H 135.966 -0.962394 2.83828 0
M  V30 1482 H 133.527 -0.379981 1.57378 0
M  V30 1483 H 135.519 -3.40742 2.1835 0
M  V30 1484 H 134.089 -2.85319 1.27719 0
M  V30 1485 H 133.309 -1.77793 3.51828 0
M  V30 1486 H 134.597 -2.70229 4.31107 0
M  V30 1487 H 133.995 -5.16791 2.30094 0
M  V30 1488 H 132.552 -5.78778 2.99764 0
M  V30 1489 N 135.985 -1.50799 -0.457987 0
M  V30 1490 C 137.225 -1.64088 -1.21879 0
M  V30 1491 C 137.589 -0.339848 -1.88968 0
M  V30 1492 O 138.79 -0.348301 -2.66534 0
M  V30 1493 C 137.061 -2.79726 -2.2246 0
M  V30 1494 S 138.62 -3.13225 -3.07303 0
M  V30 1495 H 135.438 -0.578314 -0.41361 0
M  V30 1496 H 138.04 -1.88632 -0.513645 0
M  V30 1497 H 136.744 -3.72722 -1.71775 0
M  V30 1498 H 136.275 -2.57308 -2.97584 0
M  V30 1499 H 138.29 -2.58062 -4.23814 0
M  V30 1500 N 137.463 0.71206 -1.40597 0
M  V30 1501 C 138.874 1.29135 -1.34837 0
M  V30 1502 C 139.225 1.96186 -0.0235395 0
M  V30 1503 O 138.35 1.97768 0.878444 0
M  V30 1504 C 138.945 2.34827 -2.44217 0
M  V30 1505 C 137.504 2.88371 -2.41907 0
M  V30 1506 C 136.651 1.62202 -2.24913 0
M  V30 1507 H 139.602 0.507944 -1.50352 0
M  V30 1508 H 139.623 3.15749 -2.12327 0
M  V30 1509 H 139.135 1.85996 -3.40627 0
M  V30 1510 H 137.236 3.41422 -1.49204 0
M  V30 1511 H 137.349 3.39925 -3.37621 0
M  V30 1512 H 135.713 1.874 -1.72492 0
M  V30 1513 H 136.496 1.15391 -3.23326 0
M  V30 1514 N 138.941 1.26152 0.944643 0
M  V30 1515 C 140.169 1.14259 1.72489 0
M  V30 1516 C 140.584 -0.302555 1.8636 0
M  V30 1517 O 139.941 -1.20741 1.36849 0
M  V30 1518 C 139.992 1.80266 3.13347 0
M  V30 1519 O 139.713 3.19133 3.00143 0
M  V30 1520 C 141.214 1.74283 4.07603 0
M  V30 1521 H 138.434 0.398051 0.540181 0
M  V30 1522 H 140.978 1.66706 1.18446 0
M  V30 1523 H 139.133 1.31766 3.64303 0
M  V30 1524 H 139.547 3.51744 3.89071 0
M  V30 1525 H 141.021 2.25111 5.04013 0
M  V30 1526 H 141.498 0.708631 4.33446 0
M  V30 1527 H 142.104 2.22319 3.62567 0
M  V30 1528 N 140.419 -1.14872 1.07899 0
M  V30 1529 C 141.668 -1.85135 0.800499 0
M  V30 1530 C 141.981 -1.83547 -0.676014 0
M  V30 1531 O 143.187 -2.49548 -1.06948 0
M  V30 1532 C 141.643 -3.3231 1.38197 0
M  V30 1533 C 141.251 -3.42329 2.8899 0
M  V30 1534 C 142.995 -4.0772 1.18174 0
M  V30 1535 C 140.902 -4.83684 3.403 0
M  V30 1536 H 139.832 -0.693563 0.29578 0
M  V30 1537 H 142.483 -1.29532 1.29976 0
M  V30 1538 H 140.865 -3.87618 0.810431 0
M  V30 1539 H 142.039 -2.97097 3.52236 0
M  V30 1540 H 140.354 -2.80369 3.07867 0
M  V30 1541 H 142.951 -5.12049 1.5398 0
M  V30 1542 H 143.294 -4.16124 0.12117 0
M  V30 1543 H 143.827 -3.58696 1.71994 0
M  V30 1544 H 140.566 -4.80465 4.45907 0
M  V30 1545 H 140.086 -5.29474 2.81811 0
M  V30 1546 H 141.765 -5.52558 3.36584 0
M  V30 1547 N 141.898 -0.863906 -1.31812 0
M  V30 1548 C 142.845 -0.313303 -2.28664 0
M  V30 1549 C 143.815 0.584868 -1.55462 0
M  V30 1550 O 145 0.517805 -1.83639 0
M  V30 1551 C 142.14 0.48441 -3.41683 0
M  V30 1552 C 141.253 -0.440594 -4.29747 0
M  V30 1553 C 140.388 0.370652 -5.29905 0
M  V30 1554 C 139.427 -0.551164 -6.09613 0
M  V30 1555 N 138.564 0.223462 -7.01744 0
M  V30 1556 H 143.404 -1.14444 -2.75148 0
M  V30 1557 H 140.941 -0.575769 -1.35364 0
M  V30 1558 H 142.899 0.962627 -4.05943 0
M  V30 1559 H 141.529 1.28029 -2.96325 0
M  V30 1560 H 140.581 -1.03724 -3.65986 0
M  V30 1561 H 141.893 -1.14767 -4.85417 0
M  V30 1562 H 141.047 0.911638 -5.99812 0
M  V30 1563 H 139.786 1.11105 -4.74876 0
M  V30 1564 H 138.791 -1.10396 -5.38603 0
M  V30 1565 H 140.016 -1.29032 -6.66729 0
M  V30 1566 H 137.962 0.946787 -6.49132 0
M  V30 1567 H 137.879 -0.424399 -7.54808 0
M  V30 1568 H 139.147 0.745876 -7.75923 0
M  V30 1569 N 143.376 1.44774 -0.622745 0
M  V30 1570 C 144.286 2.34433 0.0886031 0
M  V30 1571 C 145.302 1.52131 0.844529 0
M  V30 1572 O 146.478 1.84886 0.798691 0
M  V30 1573 C 143.543 3.29986 1.0635 0
M  V30 1574 C 142.604 4.28195 0.307873 0
M  V30 1575 C 141.837 5.19183 1.23633 0
M  V30 1576 O 142.06 5.13918 2.47476 0
M  V30 1577 O 140.994 5.97515 0.725189 0
M  V30 1578 H 144.82 2.96693 -0.648599 0
M  V30 1579 H 142.405 1.44408 -0.382957 0
M  V30 1580 H 144.287 3.88825 1.6246 0
M  V30 1581 H 142.962 2.70269 1.78146 0
M  V30 1582 H 141.869 3.72927 -0.296064 0
M  V30 1583 H 143.202 4.90808 -0.3699 0
M  V30 1584 N 144.854 0.36279 1.53368 0
M  V30 1585 C 146.103 -0.22888 2.00397 0
M  V30 1586 C 146.416 -1.50096 1.25421 0
M  V30 1587 O 147.622 -2.17106 1.63025 0
M  V30 1588 C 146.078 -0.458417 3.56969 0
M  V30 1589 C 145.686 0.798877 4.4082 0
M  V30 1590 C 147.43 -1.00789 4.12361 0
M  V30 1591 C 145.337 0.539078 5.88938 0
M  V30 1592 H 144.267 -0.089305 0.748693 0
M  V30 1593 H 146.918 0.481099 1.77081 0
M  V30 1594 H 145.3 -1.22959 3.76427 0
M  V30 1595 H 146.474 1.57262 4.33134 0
M  V30 1596 H 144.789 1.27137 3.96516 0
M  V30 1597 H 147.386 -1.21754 5.20653 0
M  V30 1598 H 147.729 -1.9692 3.66781 0
M  V30 1599 H 148.262 -0.296961 3.9669 0
M  V30 1600 H 145.001 1.47064 6.3879 0
M  V30 1601 H 144.521 -0.196222 5.99479 0
M  V30 1602 H 146.2 0.163542 6.46793 0
M  V30 1603 N 146.332 -1.57332 0.0918853 0
M  V30 1604 C 147.748 -1.57389 -0.264766 0
M  V30 1605 C 147.948 -1.10281 -1.68643 0
M  V30 1606 O 147.004 -0.777801 -2.40222 0
M  V30 1607 C 148.317 -3.00648 -0.0561195 0
M  V30 1608 C 149.865 -3.12754 -0.124116 0
M  V30 1609 C 150.34 -4.57965 0.0564972 0
M  V30 1610 N 151.831 -4.632 0.00155611 0
M  V30 1611 C 152.566 -5.73281 0.116598 0
M  V30 1612 N 152.062 -6.92208 0.286294 0
M  V30 1613 N 153.855 -5.6207 0.0580973 0
M  V30 1614 H 146.006 -1.86262 1.02079 0
M  V30 1615 H 148.269 -0.859579 0.399786 0
M  V30 1616 H 147.975 -3.393 0.925669 0
M  V30 1617 H 147.849 -3.68623 -0.799823 0
M  V30 1618 H 150.236 -2.73976 -1.09641 0
M  V30 1619 H 150.317 -2.47377 0.651024 0
M  V30 1620 H 149.961 -4.97436 1.02564 0
M  V30 1621 H 149.891 -5.21399 -0.738297 0
M  V30 1622 H 152.382 -3.77686 -0.127192 0
M  V30 1623 H 152.695 -7.71934 0.365676 0
M  V30 1624 H 151.04 -6.94254 0.32192 0
M  V30 1625 H 154.231 -4.68043 -0.0733204 0
M  V30 1626 H 154.404 -6.47824 0.151203 0
M  V30 1627 N 147.81 0.181792 -1.56548 0
M  V30 1628 C 149.087 0.926765 -1.72251 0
M  V30 1629 C 149.467 2.00831 -0.650386 0
M  V30 1630 O 148.815 2.26008 0.336521 0
M  V30 1631 C 149.025 1.50106 -3.1507 0
M  V30 1632 C 150.373 1.97805 -3.75711 0
M  V30 1633 O 151.397 1.59922 -3.18282 0
M  V30 1634 O 150.256 2.67555 -4.76525 0
M  V30 1635 H 147.35 0.435506 -0.703039 0
M  V30 1636 H 149.896 0.170443 -1.68842 0
M  V30 1637 H 148.668 0.72212 -3.84579 0
M  V30 1638 H 148.291 2.32186 -3.22763 0
M  V30 1639 N 149.288 1.51039 0.449983 0
M  V30 1640 C 150.22 1.67617 1.56324 0
M  V30 1641 C 151.233 0.557083 1.52972 0
M  V30 1642 O 152.422 0.830989 1.57977 0
M  V30 1643 C 149.522 1.66402 2.95235 0
M  V30 1644 C 148.695 2.9469 3.23229 0
M  V30 1645 C 147.754 2.85832 4.41799 0
M  V30 1646 O 146.78 3.59785 4.41071 0
M  V30 1647 N 147.982 2.00821 5.44657 0
M  V30 1648 H 150.747 2.63648 1.42512 0
M  V30 1649 H 148.308 1.48767 0.638737 0
M  V30 1650 H 150.3 1.58062 3.72557 0
M  V30 1651 H 148.87 0.780182 3.02708 0
M  V30 1652 H 148.09 3.16996 2.34323 0
M  V30 1653 H 149.378 3.79636 3.38754 0
M  V30 1654 H 148.776 1.40091 5.48079 0
M  V30 1655 H 147.333 1.98368 6.20881 0
M  V30 1656 N 150.766 -0.704594 1.40972 0
M  V30 1657 C 152.014 -1.46169 1.39568 0
M  V30 1658 C 152.335 -1.95 0.00253745 0
M  V30 1659 O 151.605 -1.71095 -0.954114 0
M  V30 1660 H 150.185 -0.542326 0.513704 0
M  V30 1661 H 152.847 -0.834553 1.76128 0
M  V30 1662 H 151.943 -2.32922 2.07735 0
M  V30 1663 N 152.244 -1.26651 -0.937939 0
M  V30 1664 C 153.469 -1.15279 -1.72411 0
M  V30 1665 C 153.894 0.287866 -1.85884 0
M  V30 1666 O 153.252 1.20855 -1.35143 0
M  V30 1667 C 153.3 -1.83028 -3.10698 0
M  V30 1668 O 152.404 -1.12128 -3.96864 0
M  V30 1669 H 151.745 -0.401504 -0.528858 0
M  V30 1670 H 154.275 -1.67531 -1.1745 0
M  V30 1671 H 154.285 -1.89981 -3.6107 0
M  V30 1672 H 152.96 -2.87833 -3.00208 0
M  V30 1673 H 151.537 -1.13173 -3.55312 0
M  V30 1674 N 153.722 1.14298 -1.08507 0
M  V30 1675 C 154.962 1.87016 -0.824894 0
M  V30 1676 C 155.326 1.81099 0.637735 0
M  V30 1677 O 156.527 2.48963 1.01345 0
M  V30 1678 C 154.798 3.31584 -1.33368 0
M  V30 1679 S 156.357 4.21903 -1.20596 0
M  V30 1680 H 153.175 0.645259 -0.2986 0
M  V30 1681 H 155.777 1.37822 -1.38656 0
M  V30 1682 H 154.481 3.33439 -2.39262 0
M  V30 1683 H 154.012 3.85836 -0.767734 0
M  V30 1684 H 156.027 4.95971 -0.150891 0
M  V30 1685 N 155.201 0.870884 1.31352 0
M  V30 1686 C 156.449 0.48132 1.96285 0
M  V30 1687 C 156.77 -0.969813 1.69173 0
M  V30 1688 O 156.04 -1.67998 1.00764 0
M  V30 1689 H 154.62 0.175002 0.726212 0
M  V30 1690 H 157.282 1.11087 1.60143 0
M  V30 1691 H 156.378 0.639825 3.05471 0
M  V30 1692 N 156.679 -1.44442 0.630414 0
M  V30 1693 C 157.904 -2.06927 0.139944 0
M  V30 1694 C 158.329 -1.46795 -1.17613 0
M  V30 1695 O 157.687 -0.569144 -1.72135 0
M  V30 1696 C 157.735 -3.6058 0.0379581 0
M  V30 1697 O 156.839 -3.99937 -1.0062 0
M  V30 1698 H 156.18 -0.658608 0.0844483 0
M  V30 1699 H 158.71 -1.85327 0.866891 0
M  V30 1700 H 158.72 -4.07714 -0.152856 0
M  V30 1701 H 157.395 -4.03728 0.998809 0
M  V30 1702 H 155.972 -3.64436 -0.79001 0
M  V30 1703 N 158.157 -0.370918 -1.53173 0
M  V30 1704 C 159.397 0.217106 -2.03244 0
M  V30 1705 C 159.761 1.45558 -1.25207 0
M  V30 1706 O 160.962 2.11957 -1.65311 0
M  V30 1707 C 159.233 0.496664 -3.53932 0
M  V30 1708 S 160.792 1.0576 -4.25864 0
M  V30 1709 H 157.61 0.0627827 -0.708223 0
M  V30 1710 H 160.212 -0.515019 -1.88594 0
M  V30 1711 H 158.916 -0.412096 -4.08326 0
M  V30 1712 H 158.447 1.25772 -3.72753 0
M  V30 1713 H 160.462 2.34145 -4.37482 0
M  V30 1714 N 159.635 1.57281 -0.100228 0
M  V30 1715 C 160.881 1.95626 0.556946 0
M  V30 1716 C 161.236 0.981655 1.65473 0
M  V30 1717 O 160.529 0.00849847 1.91598 0
M  V30 1718 C 160.723 3.38305 1.15259 0
M  V30 1719 C 160.552 4.49555 0.114035 0
M  V30 1720 C 159.322 5.0434 -0.311266 0
M  V30 1721 C 161.52 5.10051 -0.659768 0
M  V30 1722 N 159.502 5.99152 -1.33755 0
M  V30 1723 C 160.873 6.00628 -1.53774 0
M  V30 1724 C 162.928 4.92772 -0.712723 0
M  V30 1725 C 161.631 6.7578 -2.46403 0
M  V30 1726 C 163.657 5.6859 -1.62663 0
M  V30 1727 C 163.019 6.58838 -2.49222 0
M  V30 1728 H 159.118 0.7624 0.173982 0
M  V30 1729 H 161.702 1.93829 -0.183988 0
M  V30 1730 H 159.873 3.40786 1.86332 0
M  V30 1731 H 161.605 3.63817 1.77254 0
M  V30 1732 H 158.36 4.73537 0.0774812 0
M  V30 1733 H 158.784 6.5126 -1.84905 0
M  V30 1734 H 163.426 4.22761 -0.0576648 0
M  V30 1735 H 161.144 7.4505 -3.12931 0
M  V30 1736 H 164.73 5.57233 -1.67281 0
M  V30 1737 H 163.61 7.16479 -3.18791 0
M  V30 1738 N 161.113 -0.173488 1.56642 0
M  V30 1739 C 162.076 -1.19859 1.95362 0
M  V30 1740 C 163.076 -1.37296 0.83704 0
M  V30 1741 O 164.266 -1.34739 1.10413 0
M  V30 1742 C 161.398 -2.56405 2.24654 0
M  V30 1743 H 162.591 -0.867062 2.87092 0
M  V30 1744 H 160.144 -0.415853 1.50666 0
M  V30 1745 H 160.879 -2.94576 1.35631 0
M  V30 1746 H 160.664 -2.45115 3.06041 0
M  V30 1747 H 162.154 -3.30287 2.5554 0
M  V30 1748 N 162.591 -1.51276 -0.441967 0
M  V30 1749 C 163.838 -1.63715 -1.19179 0
M  V30 1750 C 164.166 -0.351175 -1.91303 0
M  V30 1751 O 163.421 0.664524 -1.84072 0
M  V30 1752 C 163.72 -2.78746 -2.23686 0
M  V30 1753 C 163.386 -4.18189 -1.68607 0
M  V30 1754 C 162.048 -4.56125 -1.53308 0
M  V30 1755 C 164.4 -5.05222 -1.28062 0
M  V30 1756 C 161.728 -5.78804 -0.959317 0
M  V30 1757 C 164.08 -6.28476 -0.721162 0
M  V30 1758 C 162.744 -6.65188 -0.55504 0
M  V30 1759 H 162.014 -0.599076 -0.436106 0
M  V30 1760 H 164.661 -1.85296 -0.48351 0
M  V30 1761 H 162.966 -2.51369 -3.00535 0
M  V30 1762 H 164.663 -2.8557 -2.81515 0
M  V30 1763 H 161.253 -3.88277 -1.8149 0
M  V30 1764 H 165.437 -4.76524 -1.38704 0
M  V30 1765 H 160.693 -6.05899 -0.81833 0
M  V30 1766 H 164.867 -6.95259 -0.398458 0
M  V30 1767 H 162.494 -7.60123 -0.108311 0
M  V30 1768 N 164.069 0.697108 -1.41344 0
M  V30 1769 C 165.317 1.45426 -1.40341 0
M  V30 1770 C 165.638 1.94996 -0.0128787 0
M  V30 1771 O 164.908 1.71599 0.945027 0
M  V30 1772 H 163.488 0.539594 -0.516573 0
M  V30 1773 H 166.15 0.825201 -1.76569 0
M  V30 1774 H 165.246 2.31817 -2.08967 0
M  V30 1775 N 165.547 1.27147 0.931209 0
M  V30 1776 C 166.51 1.09615 2.01289 0
M  V30 1777 C 167.51 0.0412581 1.60747 0
M  V30 1778 O 168.7 0.285545 1.71844 0
M  V30 1779 C 165.832 0.669447 3.34262 0
M  V30 1780 H 167.025 2.05662 2.18273 0
M  V30 1781 H 164.578 1.09885 1.11153 0
M  V30 1782 H 165.313 -0.292572 3.22978 0
M  V30 1783 H 165.098 1.43127 3.65044 0
M  V30 1784 H 166.588 0.568921 4.13706 0
M  V30 1785 N 167.025 -1.13721 1.09112 0
M  V30 1786 C 168.271 -1.85198 0.826414 0
M  V30 1787 C 168.604 -1.83129 -0.646319 0
M  V30 1788 O 167.879 -1.2671 -1.47563 0
M  V30 1789 C 168.162 -3.33507 1.35812 0
M  V30 1790 C 168.015 -3.44108 2.89672 0
M  V30 1791 C 169.334 -4.28838 0.989256 0
M  V30 1792 H 166.453 -0.67243 0.301675 0
M  V30 1793 H 169.095 -1.33499 1.35197 0
M  V30 1794 H 167.245 -3.77666 0.911082 0
M  V30 1795 H 168.917 -3.08684 3.428 0
M  V30 1796 H 167.16 -2.85087 3.26967 0
M  V30 1797 H 167.831 -4.48388 3.21951 0
M  V30 1798 H 170.307 -3.92734 1.37475 0
M  V30 1799 H 169.183 -5.31051 1.38838 0
M  V30 1800 H 169.444 -4.4198 -0.102924 0
M  V30 1801 N 168.503 -0.877838 -1.30888 0
M  V30 1802 C 169.413 -0.343096 -2.32078 0
M  V30 1803 C 170.429 0.551022 -1.65045 0
M  V30 1804 O 171.605 0.445854 -1.96403 0
M  V30 1805 C 168.67 0.439905 -3.43898 0
M  V30 1806 C 167.731 -0.483111 -4.26573 0
M  V30 1807 C 166.964 0.262616 -5.33053 0
M  V30 1808 O 167.187 1.48967 -5.50604 0
M  V30 1809 O 166.121 -0.383593 -6.00676 0
M  V30 1810 H 169.947 -1.18203 -2.79753 0
M  V30 1811 H 167.532 -0.64145 -1.34929 0
M  V30 1812 H 169.414 0.883504 -4.12034 0
M  V30 1813 H 168.089 1.25526 -2.98371 0
M  V30 1814 H 166.996 -0.975374 -3.61161 0
M  V30 1815 H 168.329 -1.26427 -4.75686 0
M  V30 1816 N 169.982 1.44106 -0.638065 0
M  V30 1817 C 170.945 2.29138 0.0531013 0
M  V30 1818 C 171.945 1.41409 0.765506 0
M  V30 1819 O 173.135 1.63206 0.609046 0
M  V30 1820 C 170.267 3.23144 1.08584 0
M  V30 1821 H 171.46 2.91739 -0.694883 0
M  V30 1822 H 169.013 1.51134 -0.398538 0
M  V30 1823 H 169.748 2.65408 1.86357 0
M  V30 1824 H 169.533 3.87804 0.578852 0
M  V30 1825 H 171.023 3.87004 1.56899 0
M  V30 1826 N 171.46 0.379036 1.52974 0
M  V30 1827 C 172.709 -0.207612 2.00629 0
M  V30 1828 C 173.022 -1.48758 1.27006 0
M  V30 1829 O 174.228 -2.15365 1.65318 0
M  V30 1830 C 172.684 -0.42053 3.57435 0
M  V30 1831 C 172.292 0.845587 4.39948 0
M  V30 1832 C 174.036 -0.964102 4.13407 0
M  V30 1833 C 171.943 0.601513 5.88333 0
M  V30 1834 H 170.873 -0.0813591 0.749598 0
M  V30 1835 H 173.524 0.499853 1.76561 0
M  V30 1836 H 171.906 -1.18959 3.7771 0
M  V30 1837 H 173.08 1.61848 4.31442 0
M  V30 1838 H 171.395 1.31336 3.95145 0
M  V30 1839 H 173.992 -1.16225 5.21916 0
M  V30 1840 H 174.335 -1.93019 3.68849 0
M  V30 1841 H 174.868 -0.25487 3.96983 0
M  V30 1842 H 171.607 1.53831 6.37194 0
M  V30 1843 H 171.127 -0.132628 5.99653 0
M  V30 1844 H 172.806 0.232134 6.46583 0
M  V30 1845 N 172.938 -1.57226 0.108567 0
M  V30 1846 C 174.163 -1.99604 -0.563303 0
M  V30 1847 C 174.588 -0.987563 -1.6009 0
M  V30 1848 O 173.946 0.0421687 -1.81251 0
M  V30 1849 C 173.994 -3.40902 -1.17552 0
M  V30 1850 O 173.098 -3.42896 -2.2912 0
M  V30 1851 H 172.439 -0.648704 -0.1417 0
M  V30 1852 H 174.969 -2.03679 0.193961 0
M  V30 1853 H 174.979 -3.78886 -1.51357 0
M  V30 1854 H 173.654 -4.1382 -0.415445 0
M  V30 1855 H 172.231 -3.1672 -1.96832 0
M  V30 1856 N 174.416 0.165178 -1.56732 0
M  V30 1857 C 175.693 0.908443 -1.73224 0
M  V30 1858 C 176.073 2.0013 -0.67165 0
M  V30 1859 O 175.421 2.26353 0.31253 0
M  V30 1860 C 175.631 1.46756 -3.16644 0
M  V30 1861 C 176.979 1.93809 -3.77787 0
M  V30 1862 O 178.003 1.56537 -3.1996 0
M  V30 1863 O 176.862 2.62486 -4.79336 0
M  V30 1864 H 173.956 0.428025 -0.707618 0
M  V30 1865 H 176.502 0.152526 -1.69013 0
M  V30 1866 H 175.274 0.68129 -3.85323 0
M  V30 1867 H 174.897 2.28749 -3.25207 0
M  V30 1868 N 175.894 1.51508 0.433938 0
M  V30 1869 C 177.31 1.39759 0.770682 0
M  V30 1870 C 177.51 0.482594 1.95636 0
M  V30 1871 O 176.566 -0.0609691 2.52426 0
M  V30 1872 C 177.879 2.81851 1.04787 0
M  V30 1873 C 179.427 2.91025 1.1521 0
M  V30 1874 C 179.902 4.34032 1.46219 0
M  V30 1875 N 181.393 4.37154 1.53136 0
M  V30 1876 C 182.128 5.4484 1.78709 0
M  V30 1877 N 181.624 6.62682 2.02051 0
M  V30 1878 N 183.417 5.32324 1.80519 0
M  V30 1879 H 175.568 2.09548 -0.346892 0
M  V30 1880 H 177.831 0.943446 -0.0928074 0
M  V30 1881 H 177.537 3.50815 0.249304 0
M  V30 1882 H 177.411 3.21386 1.97461 0
M  V30 1883 H 179.798 2.22257 1.94128 0
M  V30 1884 H 179.879 2.54983 0.204281 0
M  V30 1885 H 179.523 5.03351 0.678274 0
M  V30 1886 H 179.453 4.6759 2.42212 0
M  V30 1887 H 181.944 3.52197 1.36987 0
M  V30 1888 H 182.257 7.40543 2.20943 0
M  V30 1889 H 180.602 6.65791 1.99366 0
M  V30 1890 H 183.793 4.39246 1.61805 0
M  V30 1891 H 183.966 6.16328 2.00111 0
M  V30 1892 N 177.372 -0.689602 1.41712 0
M  V30 1893 C 178.621 -1.44534 1.40686 0
M  V30 1894 C 178.934 -1.95588 0.0213352 0
M  V30 1895 O 180.14 -2.71271 -0.111534 0
M  V30 1896 C 178.596 -2.61387 2.47396 0
M  V30 1897 C 178.204 -2.17094 3.91885 0
M  V30 1898 C 179.948 -3.38986 2.55517 0
M  V30 1899 C 177.855 -3.3094 4.90135 0
M  V30 1900 H 176.785 -0.542925 0.52321 0
M  V30 1901 H 179.436 -0.748054 1.6756 0
M  V30 1902 H 177.818 -3.33412 2.13664 0
M  V30 1903 H 178.992 -1.52318 4.34897 0
M  V30 1904 H 177.307 -1.52473 3.8748 0
M  V30 1905 H 179.904 -4.23747 3.26102 0
M  V30 1906 H 180.247 -3.84578 1.59391 0
M  V30 1907 H 180.78 -2.74021 2.8837 0
M  V30 1908 H 177.519 -2.90355 5.87685 0
M  V30 1909 H 177.039 -3.94546 4.51767 0
M  V30 1910 H 178.718 -3.9663 5.11169 0
M  V30 1911 N 178.85 -1.27639 -0.924453 0
M  V30 1912 C 180.09 -1.15407 -1.68703 0
M  V30 1913 C 180.454 0.294581 -1.89727 0
M  V30 1914 O 181.655 0.539385 -2.63333 0
M  V30 1915 C 179.926 -1.9195 -3.0148 0
M  V30 1916 S 181.485 -1.95969 -3.92609 0
M  V30 1917 H 178.303 -0.411937 -0.579507 0
M  V30 1918 H 180.905 -1.61592 -1.10038 0
M  V30 1919 H 179.609 -2.96387 -2.83871 0
M  V30 1920 H 179.14 -1.46272 -3.65196 0
M  V30 1921 H 181.155 -1.05846 -4.84779 0
M  V30 1922 N 180.328 1.1314 -1.09713 0
M  V30 1923 C 181.577 1.83838 -0.829851 0
M  V30 1924 C 181.89 1.84599 0.646728 0
M  V30 1925 O 183.096 2.51218 1.02965 0
M  V30 1926 C 181.552 3.30069 -1.43466 0
M  V30 1927 C 181.16 3.37688 -2.94399 0
M  V30 1928 C 182.904 4.05788 -1.24645 0
M  V30 1929 C 180.811 4.78209 -3.47952 0
M  V30 1930 H 179.741 0.68877 -0.306777 0
M  V30 1931 H 182.392 1.27448 -1.3202 0
M  V30 1932 H 180.774 3.8628 -0.871996 0
M  V30 1933 H 181.948 2.91456 -3.56918 0
M  V30 1934 H 180.263 2.75436 -3.12289 0
M  V30 1935 H 182.86 5.09535 -1.62107 0
M  V30 1936 H 183.203 4.15878 -0.187357 0
M  V30 1937 H 183.736 3.55915 -1.77678 0
M  V30 1938 H 180.475 4.73311 -4.53495 0
M  V30 1939 H 179.995 5.24924 -2.90198 0
M  V30 1940 H 181.674 5.47133 -3.45332 0
M  V30 1941 N 181.806 0.884767 1.30421 0
M  V30 1942 C 182.756 0.322846 2.25703 0
M  V30 1943 C 183.74 -0.548582 1.51259 0
M  V30 1944 O 184.932 -0.39304 1.72581 0
M  V30 1945 C 182.061 -0.461787 3.4018 0
M  V30 1946 C 181.147 0.423717 4.21978 0
M  V30 1947 N 181.538 1.52408 4.82292 0
M  V30 1948 C 179.836 0.218795 4.45463 0
M  V30 1949 C 180.537 2.07136 5.43571 0
M  V30 1950 N 179.513 1.36635 5.26148 0
M  V30 1951 H 183.315 1.16363 2.69883 0
M  V30 1952 H 180.829 0.73415 1.44859 0
M  V30 1953 H 182.826 -0.880985 4.07485 0
M  V30 1954 H 181.486 -1.30001 2.9754 0
M  V30 1955 H 182.497 1.90693 4.81515 0
M  V30 1956 H 179.174 -0.582275 4.1342 0
M  V30 1957 H 180.564 2.99538 6.01437 0
M  V30 1958 N 183.284 -1.43765 0.645699 0
M  V30 1959 C 184.512 -2.06253 0.163556 0
M  V30 1960 C 184.927 -1.48352 -1.16778 0
M  V30 1961 O 184.284 -0.611932 -1.71935 0
M  V30 1962 C 184.335 -3.61453 0.0583186 0
M  V30 1963 O 184.056 -4.172 1.33702 0
M  V30 1964 C 185.557 -4.41002 -0.450795 0
M  V30 1965 H 182.777 -0.665413 0.0864077 0
M  V30 1966 H 185.321 -1.84396 0.884222 0
M  V30 1967 H 183.476 -3.82522 -0.612865 0
M  V30 1968 H 183.89 -5.10791 1.19131 0
M  V30 1969 H 185.364 -5.49966 -0.473403 0
M  V30 1970 H 185.841 -4.13488 -1.48068 0
M  V30 1971 H 186.447 -4.24886 0.187637 0
M  V30 1972 N 184.763 -0.387143 -1.52771 0
M  V30 1973 C 185.711 0.463953 -2.27926 0
M  V30 1974 C 186.705 1.06493 -1.31741 0
M  V30 1975 O 187.911 1.00565 -1.49287 0
M  V30 1976 H 184.286 0.16837 -0.732909 0
M  V30 1977 H 186.257 -0.19141 -2.97785 0
M  V30 1978 C 185.006 1.5803 -3.09713 0
M  V30 1979 H 184.329 1.12718 -3.83581 0
M  V30 1980 H 185.769 2.15008 -3.65442 0
M  V30 1981 C 184.228 2.53509 -2.2189 0
M  V30 1982 O 184.758 3.56863 -1.84422 0
M  V30 1983 N 182.964 2.23199 -1.86093 0
M  V30 1984 H 182.511 1.39185 -2.16761 0
M  V30 1985 H 182.469 2.87333 -1.27621 0
M  V30 1986 N 186.241 1.57166 -0.116904 0
M  V30 1987 C 187.204 2.14039 0.819742 0
M  V30 1988 C 188.204 1.07477 1.19605 0
M  V30 1989 O 189.394 1.33263 1.1219 0
M  V30 1990 C 186.526 2.67891 2.10826 0
M  V30 1991 H 187.719 2.98128 0.325511 0
M  V30 1992 H 185.272 1.55739 0.132312 0
M  V30 1993 H 186.007 1.87384 2.64685 0
M  V30 1994 H 185.792 3.45823 1.84793 0
M  V30 1995 H 187.282 3.11809 2.77785 0
M  V30 1996 N 187.719 -0.156864 1.56817 0
M  V30 1997 C 188.669 -1.19891 1.93934 0
M  V30 1998 C 189.653 -1.39061 0.809372 0
M  V30 1999 O 190.845 -1.40789 1.07273 0
M  V30 2000 C 187.974 -2.53493 2.31508 0
M  V30 2001 C 187.06 -2.37957 3.51052 0
M  V30 2002 N 187.451 -1.92158 4.67877 0
M  V30 2003 C 185.749 -2.68739 3.55943 0
M  V30 2004 C 186.45 -1.8943 5.49992 0
M  V30 2005 N 185.426 -2.32375 4.91429 0
M  V30 2006 H 189.228 -0.836746 2.81737 0
M  V30 2007 H 186.742 -0.365012 1.58245 0
M  V30 2008 H 188.739 -3.28811 2.56299 0
M  V30 2009 H 187.399 -2.905 1.45051 0
M  V30 2010 H 188.41 -1.62274 4.91821 0
M  V30 2011 H 185.087 -3.09687 2.80001 0
M  V30 2012 H 186.477 -1.55596 6.53636 0
M  V30 2013 N 189.197 -1.51736 -0.425897 0
M  V30 2014 C 190.443 -1.65214 -1.1761 0
M  V30 2015 C 190.776 -0.372778 -1.90589 0
M  V30 2016 O 190.051 0.628139 -1.84078 0
M  V30 2017 C 190.334 -2.86312 -2.18398 0
M  V30 2018 C 190.187 -4.24254 -1.49426 0
M  V30 2019 C 191.506 -3.02925 -3.19256 0
M  V30 2020 H 188.625 -0.601263 -0.426206 0
M  V30 2021 H 191.267 -1.8425 -0.463882 0
M  V30 2022 H 189.417 -2.70213 -2.79137 0
M  V30 2023 H 191.089 -4.52046 -0.919362 0
M  V30 2024 H 189.332 -4.26426 -0.796432 0
M  V30 2025 H 190.003 -5.05001 -2.22885 0
M  V30 2026 H 192.479 -3.1781 -2.68581 0
M  V30 2027 H 191.355 -3.89199 -3.8706 0
M  V30 2028 H 191.616 -2.15497 -3.86023 0
M  V30 2029 N 190.675 0.682077 -1.42076 0
M  V30 2030 C 191.9 1.47558 -1.45744 0
M  V30 2031 C 192.325 1.87977 -0.0680981 0
M  V30 2032 O 191.683 1.55522 0.9318 0
M  V30 2033 C 191.731 2.70575 -2.38373 0
M  V30 2034 O 190.835 3.68573 -1.85007 0
M  V30 2035 H 190.176 0.443585 -0.494093 0
M  V30 2036 H 192.706 0.837238 -1.86686 0
M  V30 2037 H 192.716 3.18729 -2.54707 0
M  V30 2038 H 191.391 2.40495 -3.39315 0
M  V30 2039 H 189.968 3.2757 -1.78192 0
M  V30 2040 N 192.153 1.28127 0.917671 0
M  V30 2041 C 193.399 1.15223 1.66888 0
M  V30 2042 C 193.732 -0.299293 1.9188 0
M  V30 2043 O 193.007 -1.21805 1.51637 0
M  V30 2044 C 193.29 1.94706 3.02922 0
M  V30 2045 C 193.143 3.47898 2.85109 0
M  V30 2046 C 194.462 1.75939 4.03402 0
M  V30 2047 H 191.581 0.419946 0.605652 0
M  V30 2048 H 194.223 1.57398 1.06423 0
M  V30 2049 H 192.373 1.58864 3.54534 0
M  V30 2050 H 194.045 3.93624 2.40537 0
M  V30 2051 H 192.288 3.7373 2.20246 0
M  V30 2052 H 192.959 3.98765 3.81694 0
M  V30 2053 H 195.435 2.07209 3.60837 0
M  V30 2054 H 194.311 2.33931 4.96556 0
M  V30 2055 H 194.572 0.709877 4.36364 0
M  V30 2056 N 193.631 -1.12557 1.10312 0
M  V30 2057 C 194.541 -2.21841 0.763142 0
M  V30 2058 C 195.557 -1.72354 -0.238801 0
M  V30 2059 O 196.733 -2.01249 -0.0778746 0
M  V30 2060 C 193.798 -3.46131 0.198632 0
M  V30 2061 C 192.859 -4.10464 1.25769 0
M  V30 2062 C 192.092 -5.28821 0.72002 0
M  V30 2063 O 192.315 -5.6859 -0.453993 0
M  V30 2064 O 191.249 -5.83437 1.47935 0
M  V30 2065 H 195.075 -2.53312 1.67532 0
M  V30 2066 H 192.66 -1.20867 0.878157 0
M  V30 2067 H 194.542 -4.2125 -0.112401 0
M  V30 2068 H 193.217 -3.16338 -0.686419 0
M  V30 2069 H 192.124 -3.3713 1.62156 0
M  V30 2070 H 193.457 -4.44408 2.11571 0
M  V30 2071 N 195.109 -0.891671 -1.2995 0
M  V30 2072 C 196.355 -0.514261 -1.96171 0
M  V30 2073 C 196.688 0.935506 -1.70182 0
M  V30 2074 O 195.963 1.66204 -1.01028 0
M  V30 2075 C 196.246 -0.797719 -3.51153 0
M  V30 2076 C 196.099 -2.2986 -3.86632 0
M  V30 2077 C 197.418 -0.278749 -4.39216 0
M  V30 2078 H 194.537 -0.188314 -0.712535 0
M  V30 2079 H 197.179 -1.11689 -1.53706 0
M  V30 2080 H 195.329 -0.284826 -3.87455 0
M  V30 2081 H 197.001 -2.88042 -3.60319 0
M  V30 2082 H 195.244 -2.76257 -3.34462 0
M  V30 2083 H 195.915 -2.44753 -4.94773 0
M  V30 2084 H 198.391 -0.717825 -4.09862 0
M  V30 2085 H 197.267 -0.506353 -5.46559 0
M  V30 2086 H 197.528 0.820266 -4.34424 0
M  V30 2087 N 196.587 1.43421 -0.653314 0
M  V30 2088 C 197.812 2.06678 -0.172846 0
M  V30 2089 C 198.237 1.48648 1.15262 0
M  V30 2090 O 197.595 0.596457 1.71208 0
M  V30 2091 C 197.643 3.60474 -0.0953184 0
M  V30 2092 O 196.747 4.01487 0.942442 0
M  V30 2093 H 196.088 0.657181 -0.0949155 0
M  V30 2094 H 198.618 1.83925 -0.896265 0
M  V30 2095 H 198.628 4.07905 0.0879728 0
M  V30 2096 H 197.303 4.02088 -1.06291 0
M  V30 2097 H 195.88 3.65646 0.731932 0
M  V30 2098 N 198.065 0.39524 1.52563 0
M  V30 2099 C 199.028 -0.425001 2.25225 0
M  V30 2100 C 200.028 -0.985266 1.27079 0
M  V30 2101 O 201.218 -0.866332 1.5113 0
M  V30 2102 C 198.35 -1.59686 3.01186 0
M  V30 2103 H 199.543 0.211233 2.99155 0
M  V30 2104 H 197.096 0.147472 1.55603 0
M  V30 2105 H 197.831 -2.27035 2.31572 0
M  V30 2106 H 197.616 -1.20176 3.73229 0
M  V30 2107 H 199.106 -2.17743 3.5634 0
M  V30 2108 N 199.544 -1.57102 0.125237 0
M  V30 2109 C 200.454 -2.19191 -0.8362 0
M  V30 2110 C 201.47 -1.16985 -1.28805 0
M  V30 2111 O 202.646 -1.49479 -1.34974 0
M  V30 2112 C 199.711 -2.78407 -2.06617 0
M  V30 2113 C 198.772 -3.9567 -1.66565 0
M  V30 2114 C 198.005 -4.52052 -2.83698 0
M  V30 2115 O 198.228 -4.07326 -3.99302 0
M  V30 2116 O 197.162 -5.42645 -2.60423 0
M  V30 2117 H 200.988 -3.01816 -0.337776 0
M  V30 2118 H 198.573 -1.4906 -0.100695 0
M  V30 2119 H 200.455 -3.16129 -2.7864 0
M  V30 2120 H 199.13 -1.9881 -2.55453 0
M  V30 2121 H 198.037 -3.62705 -0.916296 0
M  V30 2122 H 199.37 -4.76722 -1.22464 0
M  V30 2123 N 201.022 0.148545 -1.56898 0
M  V30 2124 C 202.299 0.890019 -1.74178 0
M  V30 2125 C 202.679 1.99407 -0.692839 0
M  V30 2126 O 202.027 2.26671 0.288505 0
M  V30 2127 C 202.237 1.43389 -3.18183 0
M  V30 2128 C 203.585 1.89791 -3.79822 0
M  V30 2129 O 204.609 1.53134 -3.21603 0
M  V30 2130 O 203.468 2.57387 -4.82093 0
M  V30 2131 H 200.562 0.420496 -0.712118 0
M  V30 2132 H 203.108 0.134591 -1.69165 0
M  V30 2133 H 201.88 0.640383 -3.86024 0
M  V30 2134 H 201.503 2.25287 -3.27615 0
M  V30 2135 N 202.5 1.5196 0.417844 0
M  V30 2136 C 203.43 1.77634 1.51554 0
M  V30 2137 C 204.411 0.626918 1.58126 0
M  V30 2138 O 205.596 0.871632 1.7354 0
M  V30 2139 C 202.726 1.91911 2.8946 0
M  V30 2140 C 201.68 3.07463 2.97743 0
M  V30 2141 C 201.006 3.06951 4.37819 0
M  V30 2142 C 202.306 4.47082 2.70027 0
M  V30 2143 H 204 2.6955 1.3032 0
M  V30 2144 H 201.546 1.29706 0.625492 0
M  V30 2145 H 203.499 2.08455 3.6623 0
M  V30 2146 H 202.223 0.966598 3.11969 0
M  V30 2147 H 200.882 2.90656 2.23416 0
M  V30 2148 H 200.53 2.09438 4.57323 0
M  V30 2149 H 200.23 3.84556 4.44286 0
M  V30 2150 H 201.754 3.25613 5.16535 0
M  V30 2151 H 203.168 4.6414 3.36522 0
M  V30 2152 H 201.565 5.2654 2.87881 0
M  V30 2153 H 202.635 4.55777 1.65514 0
M  V30 2154 N 203.978 -0.674533 1.42435 0
M  V30 2155 C 204.908 -1.80009 1.48724 0
M  V30 2156 C 205.889 -1.6659 0.343793 0
M  V30 2157 O 207.074 -1.86007 0.558137 0
M  V30 2158 C 204.204 -3.18306 1.38919 0
M  V30 2159 C 203.158 -3.46461 2.51294 0
M  V30 2160 C 202.484 -4.84335 2.26547 0
M  V30 2161 C 203.784 -3.43328 3.93603 0
M  V30 2162 H 205.478 -1.75004 2.42928 0
M  V30 2163 H 203.024 -0.840533 1.16923 0
M  V30 2164 H 204.977 -3.9678 1.41927 0
M  V30 2165 H 203.701 -3.2399 0.412094 0
M  V30 2166 H 202.36 -2.70348 2.47604 0
M  V30 2167 H 202.008 -4.86669 1.2713 0
M  V30 2168 H 201.708 -5.04136 3.01861 0
M  V30 2169 H 203.232 -5.65094 2.31304 0
M  V30 2170 H 204.646 -4.11772 3.98894 0
M  V30 2171 H 203.043 -3.74664 4.68771 0
M  V30 2172 H 204.113 -2.41897 4.20255 0
M  V30 2173 N 205.456 -1.28612 -0.910864 0
M  V30 2174 C 206.684 -1.18792 -1.69399 0
M  V30 2175 C 207.099 0.253039 -1.87097 0
M  V30 2176 O 206.456 1.17071 -1.40003 0
M  V30 2177 C 206.507 -1.88511 -3.08457 0
M  V30 2178 O 206.228 -3.26979 -2.91576 0
M  V30 2179 C 207.729 -1.85029 -4.02839 0
M  V30 2180 H 204.949 -0.412233 -0.529438 0
M  V30 2181 H 207.493 -1.69788 -1.13984 0
M  V30 2182 H 205.648 -1.41379 -3.60681 0
M  V30 2183 H 206.062 -3.61936 -3.79608 0
M  V30 2184 H 207.536 -2.38395 -4.97867 0
M  V30 2185 H 208.013 -0.823303 -4.31414 0
M  V30 2186 H 208.619 -2.31853 -3.56545 0
M  V30 2187 N 206.934 1.1197 -1.10907 0
M  V30 2188 C 208.174 1.85224 -0.864378 0
M  V30 2189 C 208.538 1.82411 0.599178 0
M  V30 2190 O 209.739 2.51057 0.960416 0
M  V30 2191 C 208.01 3.2868 -1.40371 0
M  V30 2192 S 209.569 4.1925 -1.29518 0
M  V30 2193 H 206.387 0.63878 -0.312219 0
M  V30 2194 H 208.989 1.3485 -1.41548 0
M  V30 2195 H 207.693 3.28289 -2.46281 0
M  V30 2196 H 207.224 3.84121 -0.849402 0
M  V30 2197 H 209.239 4.95539 -0.256059 0
M  V30 2198 N 208.412 0.89855 1.29475 0
M  V30 2199 C 209.652 0.530771 1.97388 0
M  V30 2200 C 210.016 -0.905832 1.69289 0
M  V30 2201 O 211.217 -1.38042 2.30646 0
M  V30 2202 C 209.488 0.81369 3.48014 0
M  V30 2203 S 211.047 0.550048 4.35339 0
M  V30 2204 H 207.865 0.196956 0.683176 0
M  V30 2205 H 210.467 1.16074 1.57312 0
M  V30 2206 H 209.171 1.85749 3.65958 0
M  V30 2207 H 208.702 0.171795 3.93025 0
M  V30 2208 H 210.717 -0.605423 4.92493 0
M  V30 2209 N 209.89 -1.43072 0.660911 0
M  V30 2210 C 211.138 -2.01323 0.177094 0
M  V30 2211 C 211.459 -1.5245 -1.2159 0
M  V30 2212 O 210.729 -0.740322 -1.81373 0
M  V30 2213 H 209.309 -0.744382 0.0624804 0
M  V30 2214 H 211.971 -1.75179 0.854305 0
M  V30 2215 H 211.067 -3.11649 0.167641 0
M  V30 2216 N 211.368 -0.403325 -1.52352 0
M  V30 2217 C 212.593 0.176499 -2.06648 0
M  V30 2218 C 213.018 1.38577 -1.27193 0
M  V30 2219 O 212.376 1.7879 -0.300637 0
M  V30 2220 C 212.424 0.511061 -3.5696 0
M  V30 2221 O 211.528 1.60294 -3.79973 0
M  V30 2222 H 210.869 0.0167337 -0.663789 0
M  V30 2223 H 213.399 -0.574848 -1.96359 0
M  V30 2224 H 213.409 0.771362 -4.00642 0
M  V30 2225 H 212.084 -0.37296 -4.14224 0
M  V30 2226 H 210.661 1.33526 -3.48174 0
M  V30 2227 N 212.846 1.57033 -0.133567 0
M  V30 2228 C 213.779 2.11824 0.848872 0
M  V30 2229 C 214.757 1.03833 1.2513 0
M  V30 2230 O 215.941 1.31579 1.34978 0
M  V30 2231 C 213.068 2.62692 2.138 0
M  V30 2232 C 212.114 3.82705 1.88253 0
M  V30 2233 S 212.947 5.2438 1.08563 0
M  V30 2234 C 214.103 5.78627 2.38624 0
M  V30 2235 H 214.336 2.94824 0.38289 0
M  V30 2236 H 211.869 1.5419 0.0804796 0
M  V30 2237 H 213.827 2.92652 2.87863 0
M  V30 2238 H 212.488 1.79847 2.57515 0
M  V30 2239 H 211.681 4.16496 2.83809 0
M  V30 2240 H 211.283 3.53437 1.22305 0
M  V30 2241 H 213.575 5.8924 3.34369 0
M  V30 2242 H 214.518 6.76443 2.09358 0
M  V30 2243 H 214.926 5.06783 2.48658 0
M  V30 2244 N 214.325 -0.140222 1.56975 0
M  V30 2245 C 215.565 -0.857823 1.85528 0
M  V30 2246 C 215.929 -1.78039 0.718768 0
M  V30 2247 O 217.13 -2.53795 0.885521 0
M  V30 2248 C 215.401 -1.60615 3.19277 0
M  V30 2249 S 216.96 -2.36824 3.69405 0
M  V30 2250 H 213.778 -0.286727 0.650622 0
M  V30 2251 H 216.38 -0.117408 1.95147 0
M  V30 2252 H 215.084 -0.919994 3.99955 0
M  V30 2253 H 214.615 -2.38735 3.12681 0
M  V30 2254 H 216.63 -3.62148 3.3921 0
M  V30 2255 N 215.803 -1.52179 -0.40978 0
M  V30 2256 C 217.051 -1.65878 -1.15451 0
M  V30 2257 C 217.372 -0.390771 -1.91044 0
M  V30 2258 O 216.642 0.594323 -1.86667 0
M  V30 2259 H 215.222 -0.611405 -0.429177 0
M  V30 2260 H 217.884 -1.89219 -0.467134 0
M  V30 2261 H 216.98 -2.49954 -1.86894 0
M  V30 2262 N 217.281 0.66697 -1.42791 0
M  V30 2263 C 218.558 1.4234 -1.34159 0
M  V30 2264 C 218.938 2.11093 0.0172729 0
M  V30 2265 O 218.286 2.03808 1.03318 0
M  V30 2266 C 218.496 2.41942 -2.51526 0
M  V30 2267 C 219.844 3.06353 -2.93995 0
M  V30 2268 O 220.868 2.52269 -2.51473 0
M  V30 2269 O 219.727 4.04376 -3.67617 0
M  V30 2270 H 216.821 0.635277 -0.529483 0
M  V30 2271 H 219.367 0.695034 -1.54814 0
M  V30 2272 H 218.139 1.89991 -3.42081 0
M  V30 2273 H 217.762 3.22249 -2.32898 0
M  V30 2274 N 218.759 1.29093 0.90403 0
M  V30 2275 C 220.007 1.16583 1.65085 0
M  V30 2276 C 220.328 -0.283933 1.92922 0
M  V30 2277 O 219.598 -1.19509 1.55224 0
M  V30 2278 H 218.178 0.428467 0.611903 0
M  V30 2279 H 220.84 1.61959 1.08422 0
M  V30 2280 H 219.936 1.71266 2.6091 0
M  V30 2281 N 220.237 -1.11381 1.11499 0
M  V30 2282 C 221.477 -1.84763 0.874188 0
M  V30 2283 C 221.841 -1.82726 -0.589496 0
M  V30 2284 O 223.042 -2.51562 -0.947089 0
M  V30 2285 C 221.313 -3.27931 1.42112 0
M  V30 2286 S 222.872 -4.18557 1.31739 0
M  V30 2287 H 219.69 -0.637115 0.315603 0
M  V30 2288 H 222.292 -1.34097 1.42261 0
M  V30 2289 H 220.996 -3.26978 2.48019 0
M  V30 2290 H 220.527 -3.83665 0.869761 0
M  V30 2291 H 222.542 -4.95396 0.282335 0
M  V30 2292 N 221.715 -0.905404 -1.28997 0
M  V30 2293 C 222.663 -0.377431 -2.29517 0
M  V30 2294 C 223.657 0.526461 -1.61012 0
M  V30 2295 O 224.863 0.40863 -1.753 0
M  V30 2296 H 221.238 -0.103437 -0.744852 0
M  V30 2297 H 223.209 -1.23848 -2.71485 0
M  V30 2298 C 221.958 0.374833 -3.45674 0
M  V30 2299 H 221.281 -0.311474 -3.98585 0
M  V30 2300 H 222.721 0.70903 -4.1803 0
M  V30 2301 C 221.18 1.57963 -2.97572 0
M  V30 2302 O 221.71 2.67886 -2.99333 0
M  V30 2303 N 219.916 1.42375 -2.53333 0
M  V30 2304 H 219.463 0.529466 -2.521 0
M  V30 2305 H 219.421 2.23117 -2.21509 0
M  V30 2306 N 223.193 1.4272 -0.668489 0
M  V30 2307 C 224.441 2.01226 -0.187769 0
M  V30 2308 C 224.762 1.53092 1.2078 0
M  V30 2309 O 224.032 0.74993 1.80977 0
M  V30 2310 H 222.612 0.744041 -0.0664272 0
M  V30 2311 H 225.274 1.74723 -0.863583 0
M  V30 2312 H 224.37 3.11556 -0.184166 0
M  V30 2313 N 224.671 0.411399 1.52136 0
M  V30 2314 C 225.919 -0.163322 2.01439 0
M  V30 2315 C 226.24 -1.45453 1.29879 0
M  V30 2316 O 225.51 -1.91225 0.4254 0
M  V30 2317 H 224.09 -0.0633447 0.744309 0
M  V30 2318 H 226.752 0.548161 1.87033 0
M  V30 2319 H 225.848 -0.357817 3.10042 0
M  V30 2320 N 226.149 -1.5696 0.141893 0
M  V30 2321 C 227.379 -2.00031 -0.516828 0
M  V30 2322 C 227.787 -1.02091 -1.59293 0
M  V30 2323 O 227.13 -0.00909657 -1.83698 0
M  V30 2324 C 227.192 -3.39534 -1.1814 0
M  V30 2325 C 226.856 -4.56313 -0.250513 0
M  V30 2326 C 227.853 -5.17295 0.519839 0
M  V30 2327 C 225.538 -5.02061 -0.154907 0
M  V30 2328 C 227.532 -6.2243 1.3733 0
M  V30 2329 C 225.219 -6.07053 0.702161 0
M  V30 2330 C 226.217 -6.67106 1.46487 0
M  V30 2331 O 225.905 -7.70066 2.30767 0
M  V30 2332 H 225.637 -0.661451 -0.139493 0
M  V30 2333 H 228.191 -2.04086 0.231926 0
M  V30 2334 H 226.421 -3.32302 -1.97769 0
M  V30 2335 H 228.11 -3.66745 -1.73933 0
M  V30 2336 H 228.876 -4.82852 0.45598 0
M  V30 2337 H 224.755 -4.5505 -0.7383 0
M  V30 2338 H 228.299 -6.69233 1.96909 0
M  V30 2339 H 224.196 -6.40923 0.76733 0
M  V30 2340 H 224.964 -7.87264 2.23959 0
M  V30 2341 N 227.627 0.131896 -1.57047 0
M  V30 2342 C 229.038 0.690407 -1.73465 0
M  V30 2343 C 229.389 1.8094 -0.758629 0
M  V30 2344 O 228.514 2.16282 0.0713813 0
M  V30 2345 C 229.109 1.25916 -3.14532 0
M  V30 2346 C 227.668 1.76409 -3.32501 0
M  V30 2347 C 226.815 0.658579 -2.69366 0
M  V30 2348 H 229.766 -0.0939144 -1.58422 0
M  V30 2349 H 229.787 2.12892 -3.15369 0
M  V30 2350 H 229.299 0.444515 -3.85546 0
M  V30 2351 H 227.4 2.60391 -2.66509 0
M  V30 2352 H 227.513 1.88241 -4.4057 0
M  V30 2353 H 225.877 1.08899 -2.30246 0
M  V30 2354 H 226.66 -0.14487 -3.42994 0
M  V30 2355 N 229.106 1.52395 0.401703 0
M  V30 2356 C 230.069 1.75636 1.47257 0
M  V30 2357 C 231.069 0.62628 1.48103 0
M  V30 2358 O 232.259 0.894227 1.49497 0
M  V30 2359 C 229.391 1.84553 2.86624 0
M  V30 2360 H 230.584 2.71241 1.27938 0
M  V30 2361 H 228.137 1.42923 0.632662 0
M  V30 2362 H 228.872 0.908882 3.11303 0
M  V30 2363 H 228.657 2.66715 2.87412 0
M  V30 2364 H 230.147 2.04251 3.64241 0
M  V30 2365 N 230.584 -0.659388 1.43143 0
M  V30 2366 C 231.494 -1.80167 1.50256 0
M  V30 2367 C 232.51 -1.69571 0.390106 0
M  V30 2368 O 233.686 -1.90849 0.643319 0
M  V30 2369 C 230.751 -3.16409 1.41725 0
M  V30 2370 C 229.812 -3.38848 2.63591 0
M  V30 2371 C 229.045 -4.68591 2.55458 0
M  V30 2372 O 229.268 -5.47532 1.59891 0
M  V30 2373 O 228.202 -4.92614 3.45854 0
M  V30 2374 H 232.028 -1.77121 2.46702 0
M  V30 2375 H 229.613 -0.817092 1.25076 0
M  V30 2376 H 231.495 -3.9768 1.39387 0
M  V30 2377 H 230.17 -3.20059 0.484118 0
M  V30 2378 H 229.077 -2.57366 2.71502 0
M  V30 2379 H 230.41 -3.4004 3.55856 0
M  V30 2380 N 232.062 -1.29571 -0.897171 0
M  V30 2381 C 233.025 -1.14913 -1.98312 0
M  V30 2382 C 234.025 -0.0838629 -1.60581 0
M  V30 2383 O 235.215 -0.331006 -1.71026 0
M  V30 2384 C 232.347 -0.757835 -3.3237 0
M  V30 2385 H 233.54 -2.11377 -2.12743 0
M  V30 2386 H 231.093 -1.12793 -1.08201 0
M  V30 2387 H 231.828 0.206837 -3.2364 0
M  V30 2388 H 231.613 -1.52755 -3.61121 0
M  V30 2389 H 233.103 -0.678408 -4.12053 0
M  V30 2390 N 233.54 1.10788 -1.12088 0
M  V30 2391 C 234.786 1.8313 -0.885148 0
M  V30 2392 C 235.141 1.8336 0.582839 0
M  V30 2393 O 234.434 1.28062 1.42516 0
M  V30 2394 C 234.628 3.29294 -1.38926 0
M  V30 2395 C 234.457 3.43302 -2.90472 0
M  V30 2396 C 233.227 3.55928 -3.58669 0
M  V30 2397 C 235.425 3.37014 -3.88492 0
M  V30 2398 N 233.407 3.58475 -4.98366 0
M  V30 2399 C 234.778 3.46263 -5.14298 0
M  V30 2400 C 236.833 3.20589 -3.80955 0
M  V30 2401 C 235.536 3.4078 -6.33452 0
M  V30 2402 C 237.562 3.16427 -4.99628 0
M  V30 2403 C 236.924 3.26253 -6.2429 0
M  V30 2404 H 233.023 0.685054 -0.377128 0
M  V30 2405 H 235.607 1.3251 -1.4265 0
M  V30 2406 H 233.778 3.78416 -0.874999 0
M  V30 2407 H 235.51 3.89578 -1.09596 0
M  V30 2408 H 232.265 3.58779 -3.09151 0
M  V30 2409 H 232.689 3.6337 -5.71219 0
M  V30 2410 H 237.331 3.11873 -2.85474 0
M  V30 2411 H 235.049 3.48263 -7.29204 0
M  V30 2412 H 238.635 3.04874 -4.95523 0
M  V30 2413 H 237.515 3.2303 -7.14578 0
M  V30 2414 N 235.018 0.912232 1.28515 0
M  V30 2415 C 235.966 0.389597 2.29314 0
M  V30 2416 C 236.96 -0.517915 1.61289 0
M  V30 2417 O 238.166 -0.399328 1.75515 0
M  V30 2418 H 234.541 0.107386 0.744293 0
M  V30 2419 H 236.512 1.25286 2.70825 0
M  V30 2420 C 235.261 -0.356496 3.45868 0
M  V30 2421 H 234.584 0.332608 3.98414 0
M  V30 2422 H 236.024 -0.686851 4.184 0
M  V30 2423 C 234.483 -1.56383 2.98406 0
M  V30 2424 O 235.013 -2.66294 3.00749 0
M  V30 2425 N 233.219 -1.41029 2.54085 0
M  V30 2426 H 232.766 -0.516089 2.52377 0
M  V30 2427 H 232.724 -2.21939 2.22689 0
M  V30 2428 N 236.496 -1.42363 0.676048 0
M  V30 2429 C 237.743 -2.01522 0.19883 0
M  V30 2430 C 238.071 -1.53456 -1.19505 0
M  V30 2431 O 237.326 -0.727967 -1.81657 0
M  V30 2432 C 237.625 -3.56929 0.183431 0
M  V30 2433 C 237.291 -4.24431 1.52215 0
M  V30 2434 C 235.953 -4.42585 1.8887 0
M  V30 2435 C 238.305 -4.62459 2.40377 0
M  V30 2436 C 235.633 -4.96039 3.13309 0
M  V30 2437 C 237.985 -5.17294 3.64129 0
M  V30 2438 C 236.649 -5.33661 4.00951 0
M  V30 2439 H 235.919 -0.737419 0.0727571 0
M  V30 2440 H 238.566 -1.70531 0.871281 0
M  V30 2441 H 236.871 -3.87594 -0.572532 0
M  V30 2442 H 238.568 -4.00486 -0.203035 0
M  V30 2443 H 235.158 -4.10661 1.22701 0
M  V30 2444 H 239.342 -4.48105 2.13343 0
M  V30 2445 H 234.598 -5.06896 3.41857 0
M  V30 2446 H 238.772 -5.45704 4.32644 0
M  V30 2447 H 236.399 -5.74845 4.9745 0
M  V30 2448 N 237.974 -0.419461 -1.51915 0
M  V30 2449 C 239.22 0.145505 -2.02879 0
M  V30 2450 C 239.575 1.41926 -1.29903 0
M  V30 2451 O 238.868 1.87383 -0.399782 0
M  V30 2452 C 239.062 0.437067 -3.54717 0
M  V30 2453 C 238.891 -0.806877 -4.42402 0
M  V30 2454 C 237.661 -1.33514 -4.87342 0
M  V30 2455 C 239.859 -1.68796 -4.85811 0
M  V30 2456 N 237.841 -2.53349 -5.59185 0
M  V30 2457 C 239.212 -2.73247 -5.56539 0
M  V30 2458 C 241.267 -1.70449 -4.67816 0
M  V30 2459 C 239.97 -3.79276 -6.11181 0
M  V30 2460 C 241.996 -2.75403 -5.23361 0
M  V30 2461 C 241.358 -3.78575 -5.9402 0
M  V30 2462 H 237.457 0.0145424 -0.781865 0
M  V30 2463 H 240.041 -0.576126 -1.85981 0
M  V30 2464 H 238.212 1.12774 -3.71667 0
M  V30 2465 H 239.944 0.99182 -3.92358 0
M  V30 2466 H 236.699 -0.891657 -4.65131 0
M  V30 2467 H 237.123 -3.14066 -5.99743 0
M  V30 2468 H 241.765 -0.920209 -4.12664 0
M  V30 2469 H 239.483 -4.58554 -6.65397 0
M  V30 2470 H 243.069 -2.77603 -5.113 0
M  V30 2471 H 241.949 -4.58453 -6.36231 0
M  V30 2472 N 239.452 1.56882 -0.150215 0
M  V30 2473 C 240.68 2.00593 0.506948 0
M  V30 2474 C 241.095 1.03033 1.58208 0
M  V30 2475 O 240.452 0.0278396 1.82479 0
M  V30 2476 C 240.503 3.44209 1.10465 0
M  V30 2477 O 240.224 4.3804 0.0724636 0
M  V30 2478 C 241.725 4.03214 1.84211 0
M  V30 2479 H 238.945 0.65795 0.13169 0
M  V30 2480 H 241.489 2.03018 -0.245743 0
M  V30 2481 H 239.644 3.42625 1.80795 0
M  V30 2482 H 240.058 5.22007 0.510793 0
M  V30 2483 H 241.532 5.0569 2.21318 0
M  V30 2484 H 242.009 3.44107 2.72923 0
M  V30 2485 H 242.615 4.08437 1.18572 0
M  V30 2486 N 240.93 -0.123565 1.57115 0
M  V30 2487 C 242.346 -0.476961 1.52306 0
M  V30 2488 C 242.546 -1.82109 0.86248 0
M  V30 2489 O 241.602 -2.48586 0.442884 0
M  V30 2490 C 242.915 -0.465661 2.97073 0
M  V30 2491 C 244.463 -0.549534 3.08138 0
M  V30 2492 C 244.938 -0.568669 4.54456 0
M  V30 2493 N 246.429 -0.630237 4.58892 0
M  V30 2494 C 247.164 -0.666415 5.69514 0
M  V30 2495 N 246.66 -0.660514 6.89644 0
M  V30 2496 N 248.453 -0.709077 5.5761 0
M  V30 2497 H 240.604 0.757198 1.98445 0
M  V30 2498 H 242.867 0.278808 0.906074 0
M  V30 2499 H 242.573 0.454232 3.48754 0
M  V30 2500 H 242.447 -1.29513 3.54269 0
M  V30 2501 H 244.834 -1.45985 2.56461 0
M  V30 2502 H 244.915 0.307532 2.53945 0
M  V30 2503 H 244.559 0.337581 5.06777 0
M  V30 2504 H 244.489 -1.44256 5.06456 0
M  V30 2505 H 246.98 -0.641146 3.72421 0
M  V30 2506 H 247.293 -0.690616 7.69708 0
M  V30 2507 H 245.638 -0.628012 6.92157 0
M  V30 2508 H 248.829 -0.711019 4.62668 0
M  V30 2509 H 249.002 -0.733804 6.43832 0
M  V30 2510 N 242.408 -1.52605 -0.393616 0
M  V30 2511 C 243.355 -1.77055 -1.48054 0
M  V30 2512 C 244.325 -0.61358 -1.54352 0
M  V30 2513 O 245.51 -0.852806 -1.70681 0
M  V30 2514 C 242.65 -1.94108 -2.85335 0
M  V30 2515 C 241.763 -3.21792 -2.88226 0
M  V30 2516 C 240.898 -3.29188 -4.16904 0
M  V30 2517 C 239.937 -4.51013 -4.13828 0
M  V30 2518 N 239.074 -4.55716 -5.34105 0
M  V30 2519 H 243.914 -2.69815 -1.26506 0
M  V30 2520 H 241.451 -1.33683 -0.61379 0
M  V30 2521 H 243.409 -2.01979 -3.65049 0
M  V30 2522 H 242.039 -1.04713 -3.05344 0
M  V30 2523 H 241.091 -3.23015 -2.00911 0
M  V30 2524 H 242.403 -4.11557 -2.8182 0
M  V30 2525 H 241.557 -3.36216 -5.05018 0
M  V30 2526 H 240.296 -2.37389 -4.26026 0
M  V30 2527 H 239.301 -4.44115 -3.24102 0
M  V30 2528 H 240.526 -5.44123 -4.06333 0
M  V30 2529 H 238.472 -3.66807 -5.43865 0
M  V30 2530 H 238.389 -5.39346 -5.29756 0
M  V30 2531 H 239.657 -4.66993 -6.2413 0
M  V30 2532 N 243.887 0.651787 -1.4349 0
M  V30 2533 C 245.135 1.40888 -1.44897 0
M  V30 2534 C 245.456 1.94856 -0.0749086 0
M  V30 2535 O 244.726 1.74518 0.889956 0
M  V30 2536 H 243.306 0.522887 -0.533478 0
M  V30 2537 H 245.968 0.768609 -1.79104 0
M  V30 2538 H 245.064 2.25052 -2.16236 0
M  V30 2539 N 245.365 1.30045 0.890287 0
M  V30 2540 C 246.295 1.18541 2.01172 0
M  V30 2541 C 247.276 0.0773356 1.69924 0
M  V30 2542 O 248.461 0.25845 1.92473 0
M  V30 2543 C 245.591 0.870941 3.36202 0
M  V30 2544 C 244.545 1.93637 3.81692 0
M  V30 2545 C 243.871 1.475 5.13953 0
M  V30 2546 C 245.171 3.34666 4.00994 0
M  V30 2547 H 246.865 2.12359 2.11054 0
M  V30 2548 H 244.411 1.02238 1.01407 0
M  V30 2549 H 246.364 0.777141 4.14172 0
M  V30 2550 H 245.088 -0.102926 3.26438 0
M  V30 2551 H 243.747 2.01972 3.05946 0
M  V30 2552 H 243.395 0.489551 5.00612 0
M  V30 2553 H 243.095 2.1876 5.4536 0
M  V30 2554 H 244.619 1.39489 5.94454 0
M  V30 2555 H 246.033 3.2912 4.69417 0
M  V30 2556 H 244.43 4.03966 4.43769 0
M  V30 2557 H 245.5 3.76949 3.05021 0
M  V30 2558 N 246.843 -1.10192 1.12674 0
M  V30 2559 C 248.089 -1.82475 0.884915 0
M  V30 2560 C 248.422 -1.85093 -0.58773 0
M  V30 2561 O 247.697 -1.3134 -1.43457 0
M  V30 2562 C 247.98 -3.29018 1.46353 0
M  V30 2563 C 247.833 -3.34718 3.00473 0
M  V30 2564 C 249.152 -4.25473 1.12519 0
M  V30 2565 H 246.271 -0.662492 0.322915 0
M  V30 2566 H 248.913 -1.2913 1.39375 0
M  V30 2567 H 247.063 -3.74576 1.03077 0
M  V30 2568 H 248.735 -2.97622 3.52447 0
M  V30 2569 H 246.978 -2.74541 3.35872 0
M  V30 2570 H 247.649 -4.37918 3.36053 0
M  V30 2571 H 250.125 -3.88161 1.499 0
M  V30 2572 H 249.001 -5.26365 1.55663 0
M  V30 2573 H 249.262 -4.42084 0.0377407 0
M  V30 2574 N 248.321 -0.919034 -1.28029 0
M  V30 2575 C 249.546 -0.570357 -1.99403 0
M  V30 2576 C 249.971 0.842486 -1.68178 0
M  V30 2577 O 249.329 1.56391 -0.917141 0
M  V30 2578 C 249.377 -0.792541 -3.51783 0
M  V30 2579 O 248.481 0.145988 -4.12142 0
M  V30 2580 H 247.822 -0.220555 -0.6263 0
M  V30 2581 H 250.352 -1.23592 -1.63053 0
M  V30 2582 H 250.362 -0.704708 -4.01868 0
M  V30 2583 H 249.037 -1.82247 -3.73844 0
M  V30 2584 H 247.614 0.00897528 -3.72899 0
M  V30 2585 N 249.799 1.42003 -0.683588 0
M  V30 2586 C 251.047 2.01015 -0.209101 0
M  V30 2587 C 251.368 1.54365 1.19149 0
M  V30 2588 O 250.638 0.769083 1.80172 0
M  V30 2589 H 249.218 0.743294 -0.074315 0
M  V30 2590 H 251.88 1.73798 -0.882066 0
M  V30 2591 H 250.976 3.11343 -0.2172 0
M  V30 2592 N 251.277 0.427512 1.51691 0
M  V30 2593 C 252.525 -0.141948 2.01601 0
M  V30 2594 C 252.846 -1.44067 1.31414 0
M  V30 2595 O 252.116 -1.90763 0.445658 0
M  V30 2596 H 250.696 -0.0554468 0.744939 0
M  V30 2597 H 253.358 0.567968 1.86441 0
M  V30 2598 H 252.454 -0.324913 3.10404 0
M  V30 2599 N 252.755 -1.56801 0.158532 0
M  V30 2600 C 253.685 -2.20347 -0.772609 0
M  V30 2601 C 254.666 -1.15518 -1.24859 0
M  V30 2602 O 255.851 -1.43902 -1.30406 0
M  V30 2603 C 252.981 -2.83417 -2.00729 0
M  V30 2604 C 251.935 -3.94174 -1.66765 0
M  V30 2605 C 251.261 -4.44233 -2.97592 0
M  V30 2606 C 252.561 -5.14392 -0.905447 0
M  V30 2607 H 254.255 -2.98413 -0.242959 0
M  V30 2608 H 251.801 -1.43537 -0.115419 0
M  V30 2609 H 253.754 -3.26543 -2.6636 0
M  V30 2610 H 252.478 -2.02701 -2.56086 0
M  V30 2611 H 251.137 -3.51684 -1.03508 0
M  V30 2612 H 250.785 -3.60325 -3.50963 0
M  V30 2613 H 250.485 -5.18945 -2.75626 0
M  V30 2614 H 252.009 -4.90037 -3.64274 0
M  V30 2615 H 253.423 -5.5429 -1.46408 0
M  V30 2616 H 251.82 -5.9494 -0.7853 0
M  V30 2617 H 252.89 -4.84795 0.100668 0
M  V30 2618 N 254.233 0.115231 -1.57178 0
M  V30 2619 C 255.463 0.835224 -1.88964 0
M  V30 2620 C 255.871 1.73774 -0.74829 0
M  V30 2621 O 255.214 1.81401 0.289739 0
M  V30 2622 C 255.276 1.7178 -3.15804 0
M  V30 2623 C 254.94 0.989198 -4.46166 0
M  V30 2624 C 255.937 0.328263 -5.18863 0
M  V30 2625 C 253.622 0.969256 -4.9286 0
M  V30 2626 C 255.616 -0.342873 -6.36477 0
M  V30 2627 C 253.303 0.294324 -6.10391 0
M  V30 2628 C 254.301 -0.360582 -6.82048 0
M  V30 2629 O 253.989 -1.02474 -7.97342 0
M  V30 2630 H 253.721 0.245197 -0.629964 0
M  V30 2631 H 256.275 0.10303 -2.05141 0
M  V30 2632 H 254.505 2.49173 -2.95719 0
M  V30 2633 H 256.194 2.31255 -3.33581 0
M  V30 2634 H 256.96 0.335263 -4.8384 0
M  V30 2635 H 252.839 1.46844 -4.36987 0
M  V30 2636 H 256.383 -0.854629 -6.92345 0
M  V30 2637 H 252.28 0.285099 -6.4487 0
M  V30 2638 H 253.048 -0.929594 -8.13204 0
M  V30 2639 N 255.711 1.52812 0.385517 0
M  V30 2640 C 256.621 1.80766 1.49535 0
M  V30 2641 C 257.637 0.694651 1.59532 0
M  V30 2642 O 258.813 0.982611 1.75803 0
M  V30 2643 C 255.878 1.97381 2.85029 0
M  V30 2644 C 254.939 3.21295 2.84724 0
M  V30 2645 C 254.172 3.37108 4.13756 0
M  V30 2646 O 254.395 2.5765 5.08893 0
M  V30 2647 O 253.329 4.30378 4.20783 0
M  V30 2648 H 257.155 2.75015 1.28842 0
M  V30 2649 H 254.74 1.37946 0.573697 0
M  V30 2650 H 256.622 2.09996 3.65349 0
M  V30 2651 H 255.297 1.06322 3.05741 0
M  V30 2652 H 254.204 3.1412 2.03174 0
M  V30 2653 H 255.537 4.12212 2.68965 0
M  V30 2654 N 257.189 -0.644168 1.43834 0
M  V30 2655 C 258.414 -1.43642 1.49605 0
M  V30 2656 C 258.839 -1.8773 0.117913 0
M  V30 2657 O 258.197 -1.57938 -0.890239 0
M  V30 2658 C 258.245 -2.6416 2.45463 0
M  V30 2659 O 257.349 -3.63538 1.94714 0
M  V30 2660 H 256.69 -0.430329 0.50568 0
M  V30 2661 H 259.22 -0.787448 1.8884 0
M  V30 2662 H 259.23 -3.11864 2.63068 0
M  V30 2663 H 257.905 -2.31414 3.45572 0
M  V30 2664 H 256.482 -3.2273 1.86814 0
M  V30 2665 N 258.668 -1.30515 -0.883378 0
M  V30 2666 C 259.618 -1.13641 -1.9766 0
M  V30 2667 C 260.602 -0.0511314 -1.60819 0
M  V30 2668 O 261.794 -0.274623 -1.74857 0
M  V30 2669 C 258.923 -0.831976 -3.33066 0
M  V30 2670 C 258.009 -1.95759 -3.76217 0
M  V30 2671 N 258.4 -3.20313 -3.9145 0
M  V30 2672 C 256.698 -1.85431 -4.05625 0
M  V30 2673 C 257.399 -3.93856 -4.2808 0
M  V30 2674 N 256.375 -3.21919 -4.38029 0
M  V30 2675 H 260.177 -2.08106 -2.07531 0
M  V30 2676 H 257.691 -1.21877 -1.0733 0
M  V30 2677 H 259.688 -0.692102 -4.11115 0
M  V30 2678 H 258.348 0.104588 -3.24532 0
M  V30 2679 H 259.359 -3.55583 -3.76538 0
M  V30 2680 H 256.036 -0.991531 -4.05555 0
M  V30 2681 H 257.426 -5.01125 -4.47575 0
M  V30 2682 N 260.146 1.09593 -1.13257 0
M  V30 2683 C 261.392 1.82003 -0.89458 0
M  V30 2684 C 261.725 1.85402 0.577906 0
M  V30 2685 O 261 1.32099 1.42759 0
M  V30 2686 C 261.283 3.28237 -1.48096 0
M  V30 2687 C 261.136 3.3312 -3.02244 0
M  V30 2688 C 262.455 4.24871 -1.14774 0
M  V30 2689 H 259.574 0.66077 -0.326424 0
M  V30 2690 H 262.216 1.28389 -1.40058 0
M  V30 2691 H 260.366 3.74024 -1.05062 0
M  V30 2692 H 262.038 2.95748 -3.54021 0
M  V30 2693 H 260.281 2.72756 -3.37323 0
M  V30 2694 H 260.952 4.3613 -3.38371 0
M  V30 2695 H 263.428 3.87361 -1.51957 0
M  V30 2696 H 262.304 5.25532 -1.58452 0
M  V30 2697 H 262.565 4.42058 -0.0611849 0
M  V30 2698 N 261.624 0.925811 1.2754 0
M  V30 2699 C 262.872 0.564138 1.94067 0
M  V30 2700 C 263.193 -0.897188 1.73134 0
M  V30 2701 O 262.463 -1.63573 1.07799 0
M  V30 2702 H 261.043 0.205645 0.718136 0
M  V30 2703 H 263.705 1.1778 1.55287 0
M  V30 2704 H 262.801 0.76881 3.02483 0
M  V30 2705 N 263.102 -1.41638 0.69111 0
M  V30 2706 C 264.342 -2.03166 0.224291 0
M  V30 2707 C 264.706 -1.53537 -1.15284 0
M  V30 2708 O 265.907 -2.0696 -1.71525 0
M  V30 2709 C 264.178 -3.56342 0.274758 0
M  V30 2710 S 265.737 -4.3864 -0.118669 0
M  V30 2711 H 262.555 -0.705188 0.0907263 0
M  V30 2712 H 265.157 -1.7314 0.907895 0
M  V30 2713 H 263.861 -3.89958 1.2791 0
M  V30 2714 H 263.392 -3.91063 -0.428142 0
M  V30 2715 H 265.407 -4.77549 -1.34764 0
M  V30 2716 N 264.58 -0.43555 -1.51462 0
M  V30 2717 C 265.996 -0.0877501 -1.59359 0
M  V30 2718 C 266.196 1.4027 -1.4466 0
M  V30 2719 O 265.252 2.17243 -1.28693 0
M  V30 2720 C 266.565 -0.606264 -2.94525 0
M  V30 2721 C 268.113 -0.566548 -3.0783 0
M  V30 2722 C 268.588 -1.06201 -4.45517 0
M  V30 2723 N 270.079 -1.01992 -4.51832 0
M  V30 2724 C 270.814 -1.37417 -5.5669 0
M  V30 2725 N 270.31 -1.80119 -6.68976 0
M  V30 2726 N 272.103 -1.29245 -5.47039 0
M  V30 2727 H 264.254 -1.40533 -1.59261 0
M  V30 2728 H 266.517 -0.578992 -0.750648 0
M  V30 2729 H 266.223 -1.64901 -3.10645 0
M  V30 2730 H 266.097 -0.0302097 -3.77188 0
M  V30 2731 H 268.484 0.467208 -2.91378 0
M  V30 2732 H 268.565 -1.17898 -2.2701 0
M  V30 2733 H 268.209 -2.09422 -4.62715 0
M  V30 2734 H 268.139 -0.426127 -5.24873 0
M  V30 2735 H 270.63 -0.706308 -3.71241 0
M  V30 2736 H 270.943 -2.05392 -7.45006 0
M  V30 2737 H 269.288 -1.84044 -6.70189 0
M  V30 2738 H 272.479 -0.957522 -4.58202 0
M  V30 2739 H 272.652 -1.57182 -6.28648 0
M  V30 2740 N 266.058 1.56714 -0.166846 0
M  V30 2741 C 267.469 1.83378 0.350646 0
M  V30 2742 C 267.82 1.08646 1.63372 0
M  V30 2743 O 266.945 0.338058 2.13743 0
M  V30 2744 C 267.54 3.32643 0.642963 0
M  V30 2745 C 266.099 3.59818 1.10491 0
M  V30 2746 C 265.246 2.76954 0.138411 0
M  V30 2747 H 268.197 1.53803 -0.391193 0
M  V30 2748 H 268.218 3.49878 1.49551 0
M  V30 2749 H 267.73 3.87007 -0.291055 0
M  V30 2750 H 265.831 3.1086 2.05418 0
M  V30 2751 H 265.944 4.68178 1.01716 0
M  V30 2752 H 264.308 2.4666 0.634911 0
M  V30 2753 H 265.091 3.34097 -0.789549 0
M  V30 2754 N 267.536 -0.106894 1.57237 0
M  V30 2755 C 268.766 -0.825191 1.89405 0
M  V30 2756 C 269.174 -1.73374 0.757496 0
M  V30 2757 O 268.517 -1.81552 -0.280115 0
M  V30 2758 C 268.579 -1.70102 3.1671 0
M  V30 2759 C 268.243 -0.965523 4.46684 0
M  V30 2760 C 269.24 -0.300741 5.19029 0
M  V30 2761 C 266.925 -0.943105 4.93367 0
M  V30 2762 C 268.919 0.376622 6.36286 0
M  V30 2763 C 266.606 -0.261949 6.10538 0
M  V30 2764 C 267.604 0.396748 6.81847 0
M  V30 2765 O 267.292 1.06701 7.96787 0
M  V30 2766 H 267.024 -0.241852 0.631255 0
M  V30 2767 H 269.578 -0.0921491 2.05193 0
M  V30 2768 H 267.808 -2.47601 2.97036 0
M  V30 2769 H 269.497 -2.29483 3.34802 0
M  V30 2770 H 270.263 -0.309599 4.84011 0
M  V30 2771 H 266.142 -1.44524 4.3776 0
M  V30 2772 H 269.686 0.891334 6.91882 0
M  V30 2773 H 265.583 -0.250896 6.45012 0
M  V30 2774 H 266.351 0.972707 8.127 0
M  V30 2775 N 269.014 -1.53014 -0.377408 0
M  V30 2776 C 270.239 -1.72818 -1.14668 0
M  V30 2777 C 270.664 -0.450725 -1.8262 0
M  V30 2778 O 270.022 0.59439 -1.7128 0
M  V30 2779 C 270.07 -2.88627 -2.16164 0
M  V30 2780 O 269.174 -2.56409 -3.22998 0
M  V30 2781 H 268.515 -0.574301 -0.333278 0
M  V30 2782 H 271.045 -1.99853 -0.438152 0
M  V30 2783 H 271.055 -3.14455 -2.59966 0
M  V30 2784 H 269.73 -3.81294 -1.66095 0
M  V30 2785 H 268.307 -2.4136 -2.84253 0
M  V30 2786 N 270.492 0.636531 -1.44174 0
M  V30 2787 C 271.741 1.39213 -1.45954 0
M  V30 2788 C 272.054 1.95374 -0.0939119 0
M  V30 2789 O 273.26 2.71498 0.0107767 0
M  V30 2790 C 271.716 2.52025 -2.56927 0
M  V30 2791 C 271.324 2.024 -3.99673 0
M  V30 2792 C 273.068 3.29269 -2.67922 0
M  V30 2793 C 270.975 3.12521 -5.0208 0
M  V30 2794 H 269.905 0.523132 -0.542999 0
M  V30 2795 H 272.556 0.685349 -1.70221 0
M  V30 2796 H 270.938 3.25253 -2.25891 0
M  V30 2797 H 272.112 1.36073 -4.40251 0
M  V30 2798 H 270.427 1.37987 -3.92872 0
M  V30 2799 H 273.024 4.11352 -3.41605 0
M  V30 2800 H 273.367 3.78397 -1.73555 0
M  V30 2801 H 273.9 2.63129 -2.98342 0
M  V30 2802 H 270.639 2.68343 -5.98057 0
M  V30 2803 H 270.159 3.77507 -4.66099 0
M  V30 2804 H 271.838 3.77385 -5.25538 0
M  V30 2805 N 271.97 1.30982 0.876444 0
M  V30 2806 C 273.381 1.18277 1.44456 0
M  V30 2807 C 273.732 -0.213265 1.95037 0
M  V30 2808 O 272.857 -1.11057 1.85729 0
M  V30 2809 C 273.452 2.1411 2.62569 0
M  V30 2810 C 272.011 2.05358 3.15444 0
M  V30 2811 C 271.158 2.03706 1.88146 0
M  V30 2812 H 274.109 1.43127 0.685584 0
M  V30 2813 H 274.13 1.72692 3.39054 0
M  V30 2814 H 273.642 3.15706 2.25724 0
M  V30 2815 H 271.743 1.06934 3.56926 0
M  V30 2816 H 271.856 2.94156 3.78166 0
M  V30 2817 H 270.22 1.48629 2.06837 0
M  V30 2818 H 271.003 3.07047 1.53547 0
M  V30 2819 N 273.449 -1.08991 1.13837 0
M  V30 2820 C 274.86 -1.62746 0.914917 0
M  V30 2821 C 275.211 -1.88403 -0.547594 0
M  V30 2822 O 274.336 -1.63706 -1.41525 0
M  V30 2823 C 274.931 -2.95662 1.65437 0
M  V30 2824 C 273.49 -3.46225 1.47666 0
M  V30 2825 C 272.637 -2.20562 1.6807 0
M  V30 2826 H 275.588 -0.922946 1.29102 0
M  V30 2827 H 275.609 -3.63825 1.11407 0
M  V30 2828 H 275.121 -2.76956 2.71877 0
M  V30 2829 H 273.222 -3.70046 0.435478 0
M  V30 2830 H 273.335 -4.23368 2.24268 0
M  V30 2831 H 271.699 -2.29439 1.10589 0
M  V30 2832 H 272.482 -2.0437 2.7584 0
M  V30 2833 N 274.927 -0.932562 -1.27047 0
M  V30 2834 C 276.167 -0.582919 -1.95912 0
M  V30 2835 C 276.531 0.860629 -1.71631 0
M  V30 2836 O 277.732 1.31878 -2.34225 0
M  V30 2837 C 276.003 -0.905673 -3.45734 0
M  V30 2838 S 277.562 -0.665277 -4.33727 0
M  V30 2839 H 274.38 -0.215 -0.677714 0
M  V30 2840 H 276.982 -1.20204 -1.54179 0
M  V30 2841 H 275.686 -1.95386 -3.60905 0
M  V30 2842 H 275.217 -0.275939 -3.92431 0
M  V30 2843 H 277.232 0.474635 -4.93925 0
M  V30 2844 N 276.405 1.4127 -0.698611 0
M  V30 2845 C 277.315 2.34573 -0.0357891 0
M  V30 2846 C 278.331 1.56393 0.762701 0
M  V30 2847 O 279.507 1.8886 0.699564 0
M  V30 2848 C 276.572 3.35159 0.887089 0
M  V30 2849 C 275.633 4.29225 0.0804634 0
M  V30 2850 C 274.866 5.25006 0.959387 0
M  V30 2851 O 275.089 5.26314 2.19886 0
M  V30 2852 O 274.023 6.00519 0.407439 0
M  V30 2853 H 277.849 2.92838 -0.804957 0
M  V30 2854 H 275.434 1.42175 -0.458966 0
M  V30 2855 H 277.316 3.9689 1.41621 0
M  V30 2856 H 275.991 2.79333 1.6357 0
M  V30 2857 H 274.898 3.70833 -0.493328 0
M  V30 2858 H 276.231 4.88157 -0.629547 0
M  V30 2859 N 277.883 0.443576 1.51229 0
M  V30 2860 C 278.833 -0.382787 2.24764 0
M  V30 2861 C 279.817 -0.984836 1.27239 0
M  V30 2862 O 281.009 -0.901943 1.52296 0
M  V30 2863 C 278.138 -1.47989 3.09765 0
M  V30 2864 C 277.224 -0.886931 4.14722 0
M  V30 2865 N 277.615 -0.0237103 5.05794 0
M  V30 2866 C 275.913 -1.15385 4.30816 0
M  V30 2867 C 276.614 0.309971 5.80874 0
M  V30 2868 N 275.59 -0.307989 5.42727 0
M  V30 2869 H 279.392 0.282624 2.92538 0
M  V30 2870 H 276.906 0.256027 1.60369 0
M  V30 2871 H 278.903 -2.08482 3.61027 0
M  V30 2872 H 277.563 -2.14758 2.43535 0
M  V30 2873 H 278.574 0.34318 5.16762 0
M  V30 2874 H 275.251 -1.81857 3.75812 0
M  V30 2875 H 276.641 1.01279 6.64223 0
M  V30 2876 N 279.361 -1.56624 0.175154 0
M  V30 2877 C 280.311 -2.14747 -0.766004 0
M  V30 2878 C 281.295 -1.08275 -1.19018 0
M  V30 2879 O 282.487 -1.34388 -1.15191 0
M  V30 2880 C 279.616 -2.79478 -1.99366 0
M  V30 2881 C 278.702 -3.93114 -1.5913 0
M  V30 2882 N 279.093 -4.97752 -0.89872 0
M  V30 2883 C 277.391 -4.04345 -1.88204 0
M  V30 2884 C 278.092 -5.77473 -0.700012 0
M  V30 2885 N 277.068 -5.29207 -1.24263 0
M  V30 2886 H 280.87 -2.93015 -0.22793 0
M  V30 2887 H 278.384 -1.6238 -0.0253843 0
M  V30 2888 H 280.381 -3.19498 -2.67818 0
M  V30 2889 H 279.041 -2.02692 -2.53665 0
M  V30 2890 H 280.052 -5.14903 -0.556347 0
M  V30 2891 H 276.729 -3.38667 -2.44153 0
M  V30 2892 H 278.119 -6.71728 -0.152047 0
M  V30 2893 N 280.839 0.0985539 -1.57292 0
M  V30 2894 C 282.085 0.803867 -1.86188 0
M  V30 2895 C 282.418 1.78549 -0.763794 0
M  V30 2896 O 281.693 1.93153 0.22855 0
M  V30 2897 C 281.976 1.53568 -3.25713 0
M  V30 2898 C 281.829 0.572277 -4.46145 0
M  V30 2899 C 283.148 2.48708 -3.63087 0
M  V30 2900 H 280.267 0.290781 -0.677211 0
M  V30 2901 H 282.909 0.0675783 -1.8988 0
M  V30 2902 H 281.059 2.16332 -3.22696 0
M  V30 2903 H 282.731 -0.0480894 -4.61275 0
M  V30 2904 H 280.974 -0.114618 -4.33649 0
M  V30 2905 H 281.645 1.12139 -5.40489 0
M  V30 2906 H 284.121 1.96039 -3.67026 0
M  V30 2907 H 282.997 2.96932 -4.61652 0
M  V30 2908 H 283.258 3.32309 -2.91588 0
M  V30 2909 N 282.317 1.53212 0.369288 0
M  V30 2910 C 283.265 1.80054 1.47253 0
M  V30 2911 C 284.259 0.669456 1.55611 0
M  V30 2912 O 285.465 0.852328 1.58541 0
M  V30 2913 H 281.84 0.570034 0.490475 0
M  V30 2914 H 283.811 2.72403 1.21817 0
M  V30 2915 C 282.56 2.00403 2.84137 0
M  V30 2916 H 281.883 2.86876 2.78464 0
M  V30 2917 H 283.323 2.23164 3.60519 0
M  V30 2918 C 281.782 0.782081 3.27697 0
M  V30 2919 O 282.312 -0.0310205 4.01688 0
M  V30 2920 N 280.518 0.606573 2.84199 0
M  V30 2921 H 280.065 1.26939 2.24152 0
M  V30 2922 H 280.023 -0.20962 3.137 0
M  V30 2923 N 283.795 -0.628877 1.44509 0
M  V30 2924 C 285.043 -1.38565 1.4712 0
M  V30 2925 C 285.364 -1.94712 0.105899 0
M  V30 2926 O 284.634 -1.75912 -0.862079 0
M  V30 2927 H 283.214 -0.514333 0.541729 0
M  V30 2928 H 285.876 -0.740018 1.80305 0
M  V30 2929 H 284.972 -2.21583 2.19789 0
M  V30 2930 N 285.273 -1.31445 -0.869486 0
M  V30 2931 C 286.498 -1.24256 -1.66058 0
M  V30 2932 C 286.923 0.188928 -1.87149 0
M  V30 2933 O 286.281 1.13522 -1.4136 0
M  V30 2934 C 286.329 -1.9924 -3.00559 0
M  V30 2935 O 285.433 -1.33007 -3.90362 0
M  V30 2936 H 284.774 -0.428973 -0.506831 0
M  V30 2937 H 287.304 -1.73521 -1.08404 0
M  V30 2938 H 287.314 -2.08854 -3.50491 0
M  V30 2939 H 285.989 -3.03342 -2.84528 0
M  V30 2940 H 284.566 -1.31848 -3.48813 0
M  V30 2941 N 286.751 1.08385 -1.14413 0
M  V30 2942 C 288.167 1.32844 -0.884563 0
M  V30 2943 C 288.367 1.95841 0.474181 0
M  V30 2944 O 287.423 2.21158 1.21842 0
M  V30 2945 C 288.736 2.22978 -2.01745 0
M  V30 2946 C 290.284 2.36458 -2.05077 0
M  V30 2947 C 290.759 3.29934 -3.1766 0
M  V30 2948 N 292.25 3.37511 -3.17239 0
M  V30 2949 C 292.985 4.09871 -4.0099 0
M  V30 2950 N 292.481 4.84936 -4.94781 0
M  V30 2951 N 294.274 4.05704 -3.89051 0
M  V30 2952 H 286.425 0.658756 -2.01926 0
M  V30 2953 H 288.688 0.352821 -0.879899 0
M  V30 2954 H 288.394 1.83934 -2.99769 0
M  V30 2955 H 288.268 3.23441 -1.94077 0
M  V30 2956 H 290.655 2.7476 -1.0766 0
M  V30 2957 H 290.736 1.35736 -2.16816 0
M  V30 2958 H 290.38 2.92352 -4.15322 0
M  V30 2959 H 290.31 4.30584 -3.03158 0
M  V30 2960 H 292.801 2.83996 -2.49308 0
M  V30 2961 H 293.114 5.37612 -5.55151 0
M  V30 2962 H 291.459 4.83988 -4.98779 0
M  V30 2963 H 294.65 3.46167 -3.15097 0
M  V30 2964 H 294.823 4.61834 -4.54547 0
M  V30 2965 N 288.23 0.939286 1.26551 0
M  V30 2966 C 289.641 0.628782 1.75793 0
M  V30 2967 C 289.992 -0.856046 1.7654 0
M  V30 2968 O 289.117 -1.66994 1.3763 0
M  V30 2969 C 289.712 1.13465 3.19235 0
M  V30 2970 C 288.271 0.874601 3.66098 0
M  V30 2971 C 287.418 1.28667 2.45642 0
M  V30 2972 H 290.369 1.1178 1.12654 0
M  V30 2973 H 290.39 0.487609 3.77363 0
M  V30 2974 H 289.902 2.21535 3.1866 0
M  V30 2975 H 288.003 -0.191793 3.72106 0
M  V30 2976 H 288.116 1.50028 4.55004 0
M  V30 2977 H 286.48 0.705109 2.44745 0
M  V30 2978 H 287.263 2.37625 2.47769 0
M  V30 2979 N 289.708 -1.40897 0.706093 0
M  V30 2980 C 291.119 -1.84023 0.315052 0
M  V30 2981 C 291.47 -1.5906 -1.14866 0
M  V30 2982 O 290.595 -1.06651 -1.88293 0
M  V30 2983 C 291.19 -3.34055 0.565038 0
M  V30 2984 C 289.749 -3.7571 0.227806 0
M  V30 2985 C 288.896 -2.64204 0.842122 0
M  V30 2986 H 291.847 -1.303 0.905963 0
M  V30 2987 H 291.868 -3.80107 -0.172843 0
M  V30 2988 H 291.38 -3.52192 1.63042 0
M  V30 2989 H 289.481 -3.63172 -0.832895 0
M  V30 2990 H 289.594 -4.74103 0.690174 0
M  V30 2991 H 287.958 -2.53255 0.270893 0
M  V30 2992 H 288.741 -2.85155 1.91158 0
M  V30 2993 N 291.186 -0.45159 -1.50991 0
M  V30 2994 C 292.426 0.109066 -2.04109 0
M  V30 2995 C 292.79 1.38716 -1.32747 0
M  V30 2996 O 293.991 2.02896 -1.76314 0
M  V30 2997 C 292.262 0.308354 -3.56067 0
M  V30 2998 S 293.821 0.830369 -4.30872 0
M  V30 2999 H 290.639 0.0251531 -0.710555 0
M  V30 3000 H 293.241 -0.614264 -1.85599 0
M  V30 3001 H 291.945 -0.627962 -4.05567 0
M  V30 3002 H 291.476 1.05836 -3.78896 0
M  V30 3003 H 293.491 2.10626 -4.49279 0
M  V30 3004 N 292.664 1.56529 -0.183458 0
M  V30 3005 C 293.892 2.01623 0.464285 0
M  V30 3006 C 294.307 1.06366 1.55986 0
M  V30 3007 O 293.664 0.0665398 1.82379 0
M  V30 3008 C 293.715 3.46475 1.03139 0
M  V30 3009 O 293.436 4.38095 -0.0204675 0
M  V30 3010 C 294.937 4.0703 1.75617 0
M  V30 3011 H 292.157 0.660596 0.117704 0
M  V30 3012 H 294.701 2.02451 -0.288751 0
M  V30 3013 H 292.856 3.46383 1.73486 0
M  V30 3014 H 293.27 5.22973 0.399952 0
M  V30 3015 H 294.744 5.10271 2.10542 0
M  V30 3016 H 295.221 3.49819 2.65563 0
M  V30 3017 H 295.827 4.1086 1.09882 0
M  V30 3018 N 294.142 -0.090211 1.57342 0
M  V30 3019 C 295.39 -0.791241 1.85967 0
M  V30 3020 C 295.711 -1.7903 0.772859 0
M  V30 3021 O 294.981 -1.94872 -0.200398 0
M  V30 3022 H 293.561 -0.295205 0.686195 0
M  V30 3023 H 296.223 -0.0706782 1.94772 0
M  V30 3024 H 295.319 -1.31882 2.82867 0
M  V30 3025 N 295.62 -1.53406 -0.361157 0
M  V30 3026 C 296.53 -1.83122 -1.4664 0
M  V30 3027 C 297.546 -0.719943 -1.58407 0
M  V30 3028 O 298.722 -1.01046 -1.74218 0
M  V30 3029 C 295.787 -2.01891 -2.81853 0
M  V30 3030 C 294.848 -3.25784 -2.79577 0
M  V30 3031 C 294.081 -3.43648 -4.0834 0
M  V30 3032 O 294.304 -2.65714 -5.0473 0
M  V30 3033 O 293.238 -4.37018 -4.13883 0
M  V30 3034 H 297.064 -2.7703 -1.24451 0
M  V30 3035 H 294.649 -1.38841 -0.551678 0
M  V30 3036 H 296.531 -2.15782 -3.61962 0
M  V30 3037 H 295.206 -1.11173 -3.0401 0
M  V30 3038 H 294.113 -3.17312 -1.98151 0
M  V30 3039 H 295.446 -4.16439 -2.62373 0
M  V30 3040 N 297.098 0.621204 -1.44841 0
M  V30 3041 C 298.346 1.37783 -1.47852 0
M  V30 3042 C 298.667 1.94653 -0.116224 0
M  V30 3043 O 297.937 1.76367 0.852737 0
M  V30 3044 H 296.517 0.511453 -0.544449 0
M  V30 3045 H 299.179 0.730446 -1.80694 0
M  V30 3046 H 298.275 2.20414 -2.20961 0
M  V30 3047 N 298.576 1.31904 0.862503 0
M  V30 3048 C 299.853 1.12644 1.59908 0
M  V30 3049 C 300.233 -0.316104 2.0872 0
M  V30 3050 O 299.581 -1.31145 1.87118 0
M  V30 3051 C 299.791 2.1472 2.7513 0
M  V30 3052 C 301.139 2.47637 3.44907 0
M  V30 3053 O 302.163 2.13205 2.85346 0
M  V30 3054 O 301.022 3.06632 4.52371 0
M  V30 3055 H 298.116 0.43416 0.703871 0
M  V30 3056 H 300.662 1.43408 0.907314 0
M  V30 3057 H 299.434 3.1172 2.3653 0
M  V30 3058 H 299.057 1.84905 3.51989 0
M  V30 3059 N 300.054 -1.07777 1.14986 0
M  V30 3060 C 301.282 -1.84018 0.945773 0
M  V30 3061 C 301.697 -1.81897 -0.505863 0
M  V30 3062 O 301.054 -1.22726 -1.35072 0
M  V30 3063 C 301.105 -3.31287 1.44677 0
M  V30 3064 O 300.826 -3.33449 2.84154 0
M  V30 3065 C 302.327 -4.24311 1.28355 0
M  V30 3066 H 299.547 -0.580716 0.336169 0
M  V30 3067 H 302.091 -1.36077 1.52654 0
M  V30 3068 H 300.246 -3.76594 0.908625 0
M  V30 3069 H 300.66 -4.25427 3.06777 0
M  V30 3070 H 302.134 -5.2573 1.68261 0
M  V30 3071 H 302.611 -4.38612 0.227184 0
M  V30 3072 H 303.217 -3.84836 1.81056 0
M  V30 3073 N 301.532 -0.945985 -1.26051 0
M  V30 3074 C 302.943 -0.638096 -1.75457 0
M  V30 3075 C 303.294 0.846672 -1.76991 0
M  V30 3076 O 302.419 1.66262 -1.38513 0
M  V30 3077 C 303.014 -1.15157 -3.18629 0
M  V30 3078 C 301.573 -0.894004 -3.65629 0
M  V30 3079 C 300.72 -1.29967 -2.44957 0
M  V30 3080 H 303.671 -1.12376 -1.1206 0
M  V30 3081 H 303.692 -0.507615 -3.77099 0
M  V30 3082 H 303.204 -2.23222 -3.1748 0
M  V30 3083 H 301.305 0.172057 -3.72203 0
M  V30 3084 H 301.418 -1.52439 -4.54202 0
M  V30 3085 H 299.782 -0.718078 -2.44368 0
M  V30 3086 H 300.565 -2.38935 -2.46505 0
M  V30 3087 N 303.011 1.40521 -0.713556 0
M  V30 3088 C 303.958 2.30723 -0.059684 0
M  V30 3089 C 304.928 1.48079 0.752448 0
M  V30 3090 O 306.113 1.76823 0.71681 0
M  V30 3091 C 303.253 3.34274 0.857594 0
M  V30 3092 C 302.366 4.31986 0.0351536 0
M  V30 3093 C 301.501 5.22605 0.951724 0
M  V30 3094 C 300.54 6.11976 0.123253 0
M  V30 3095 N 299.677 6.9502 0.99459 0
M  V30 3096 H 304.517 2.86074 -0.834596 0
M  V30 3097 H 302.054 1.40879 -0.42326 0
M  V30 3098 H 304.012 3.92879 1.40364 0
M  V30 3099 H 302.642 2.8043 1.59871 0
M  V30 3100 H 301.694 3.7518 -0.628052 0
M  V30 3101 H 303.006 4.95101 -0.606347 0
M  V30 3102 H 302.16 5.86131 1.56638 0
M  V30 3103 H 300.899 4.59759 1.62705 0
M  V30 3104 H 299.904 5.47482 -0.50435 0
M  V30 3105 H 301.129 6.76881 -0.548539 0
M  V30 3106 H 299.075 6.34764 1.6556 0
M  V30 3107 H 298.992 7.54892 0.40908 0
M  V30 3108 H 300.26 7.62997 1.59549 0
M  V30 3109 N 304.489 0.459591 1.5075 0
M  V30 3110 C 305.729 -0.09824 2.04164 0
M  V30 3111 C 306.093 -1.3801 1.33481 0
M  V30 3112 O 307.294 -2.01959 1.77387 0
M  V30 3113 C 305.565 -0.289467 3.56226 0
M  V30 3114 S 307.124 -0.807507 4.31306 0
M  V30 3115 H 303.942 -0.0213845 0.710678 0
M  V30 3116 H 306.544 0.624098 1.85271 0
M  V30 3117 H 305.248 0.649461 4.05229 0
M  V30 3118 H 304.779 -1.03825 3.79452 0
M  V30 3119 H 306.794 -2.0824 4.50389 0
M  V30 3120 N 305.967 -1.56429 0.191757 0
M  V30 3121 C 307.192 -2.02309 -0.456706 0
M  V30 3122 C 307.617 -1.07103 -1.5463 0
M  V30 3123 O 306.975 -0.0539677 -1.8122 0
M  V30 3124 C 307.023 -3.46654 -0.993159 0
M  V30 3125 O 306.127 -3.54559 -2.10622 0
M  V30 3126 H 305.468 -0.655303 -0.107114 0
M  V30 3127 H 307.998 -2.02364 0.301653 0
M  V30 3128 H 308.008 -3.86377 -1.31061 0
M  V30 3129 H 306.683 -4.1544 -0.195504 0
M  V30 3130 H 305.26 -3.26708 -1.79767 0
M  V30 3131 N 307.445 0.0818655 -1.57387 0
M  V30 3132 C 308.392 1.09834 -2.0299 0
M  V30 3133 C 309.362 1.39043 -0.908639 0
M  V30 3134 O 310.547 1.50282 -1.17559 0
M  V30 3135 C 307.687 2.40971 -2.47037 0
M  V30 3136 C 306.8 2.18379 -3.7274 0
M  V30 3137 C 305.935 3.43008 -4.0561 0
M  V30 3138 C 304.974 3.15736 -5.24383 0
M  V30 3139 N 304.111 4.32667 -5.52941 0
M  V30 3140 H 308.951 0.702472 -2.89602 0
M  V30 3141 H 306.488 0.33531 -1.43227 0
M  V30 3142 H 308.446 3.1752 -2.70623 0
M  V30 3143 H 307.076 2.78379 -1.63417 0
M  V30 3144 H 306.128 1.32569 -3.56552 0
M  V30 3145 H 307.44 1.94227 -4.59431 0
M  V30 3146 H 306.594 4.27958 -4.30043 0
M  V30 3147 H 305.333 3.70225 -3.17466 0
M  V30 3148 H 304.338 2.2918 -4.99757 0
M  V30 3149 H 305.563 2.8985 -6.14136 0
M  V30 3150 H 303.509 4.59935 -4.67756 0
M  V30 3151 H 303.426 4.11753 -6.34031 0
M  V30 3152 H 304.694 5.18644 -5.81918 0
M  V30 3153 N 308.923 1.53595 0.353017 0
M  V30 3154 C 310.172 1.69603 1.09168 0
M  V30 3155 C 310.485 0.460925 1.90092 0
M  V30 3156 O 311.691 0.501774 2.66823 0
M  V30 3157 C 310.147 2.99872 1.9901 0
M  V30 3158 C 309.755 4.30687 1.23339 0
M  V30 3159 C 311.499 3.25246 2.72792 0
M  V30 3160 C 309.406 5.52036 2.12156 0
M  V30 3161 H 308.336 0.631966 0.411261 0
M  V30 3162 H 310.987 1.80096 0.351802 0
M  V30 3163 H 309.369 2.83212 2.7678 0
M  V30 3164 H 310.543 4.58019 0.505456 0
M  V30 3165 H 308.858 4.11853 0.613663 0
M  V30 3166 H 311.455 4.13095 3.39495 0
M  V30 3167 H 311.798 2.41846 3.38846 0
M  V30 3168 H 312.331 3.42638 2.021 0
M  V30 3169 H 309.07 6.37951 1.50659 0
M  V30 3170 H 308.59 5.28966 2.82764 0
M  V30 3171 H 310.269 5.87313 2.71427 0
M  V30 3172 N 310.401 -0.613514 1.45168 0
M  V30 3173 C 311.641 -1.38405 1.5041 0
M  V30 3174 C 312.005 -1.91489 0.139922 0
M  V30 3175 O 313.206 -2.68716 0.067033 0
M  V30 3176 C 311.477 -2.50552 2.5487 0
M  V30 3177 S 313.036 -3.38439 2.79292 0
M  V30 3178 H 309.854 -0.471945 0.531779 0
M  V30 3179 H 312.456 -0.708518 1.82209 0
M  V30 3180 H 311.16 -2.09894 3.52665 0
M  V30 3181 H 310.691 -3.22913 2.24701 0
M  V30 3182 H 312.706 -4.48527 2.12222 0
M  V30 3183 N 311.879 -1.3236 -0.855495 0
M  V30 3184 C 312.789 -1.23221 -1.99634 0
M  V30 3185 C 313.805 -0.145983 -1.73387 0
M  V30 3186 O 314.981 -0.366502 -1.98037 0
M  V30 3187 C 312.046 -0.954782 -3.33294 0
M  V30 3188 C 311.107 -2.12937 -3.72769 0
M  V30 3189 C 310.34 -1.86508 -5.00051 0
M  V30 3190 O 310.563 -0.807231 -5.64659 0
M  V30 3191 O 309.497 -2.72591 -5.36636 0
M  V30 3192 H 313.323 -2.19126 -2.1028 0
M  V30 3193 H 310.908 -1.12241 -0.986018 0
M  V30 3194 H 312.79 -0.816519 -4.13414 0
M  V30 3195 H 311.465 -0.0258854 -3.2369 0
M  V30 3196 H 310.372 -2.3231 -2.93228 0
M  V30 3197 H 311.705 -3.04102 -3.87018 0
M  V30 3198 N 313.357 1.07166 -1.15556 0
M  V30 3199 C 314.768 1.6127 -0.940693 0
M  V30 3200 C 315.119 1.89251 0.517551 0
M  V30 3201 O 314.244 1.65937 1.38903 0
M  V30 3202 C 314.839 2.92993 -1.7012 0
M  V30 3203 C 313.398 3.43832 -1.53156 0
M  V30 3204 C 312.545 2.1786 -1.71558 0
M  V30 3205 H 315.496 0.90229 -1.30554 0
M  V30 3206 H 315.517 3.62007 -1.17181 0
M  V30 3207 H 315.029 2.72596 -2.76248 0
M  V30 3208 H 313.13 3.69307 -0.494294 0
M  V30 3209 H 313.243 4.19747 -2.30975 0
M  V30 3210 H 311.607 2.2765 -1.14225 0
M  V30 3211 H 312.39 1.99956 -2.79056 0
M  V30 3212 N 314.835 0.952656 1.25548 0
M  V30 3213 C 316.083 0.605176 1.92826 0
M  V30 3214 C 316.404 -0.860261 1.74999 0
M  V30 3215 O 315.674 -1.6125 1.11244 0
M  V30 3216 H 314.254 0.220832 0.713612 0
M  V30 3217 H 316.916 1.21047 1.52754 0
M  V30 3218 H 316.012 0.832798 3.00784 0
M  V30 3219 N 316.313 -1.40141 0.720998 0
M  V30 3220 C 317.543 -2.04798 0.27226 0
M  V30 3221 C 317.951 -1.54442 -1.09289 0
M  V30 3222 O 317.294 -0.698342 -1.69908 0
M  V30 3223 C 317.356 -3.59048 0.18027 0
M  V30 3224 C 317.02 -4.32317 1.48159 0
M  V30 3225 C 318.017 -4.59902 2.42458 0
M  V30 3226 C 315.702 -4.71125 1.74202 0
M  V30 3227 C 317.696 -5.25288 3.61042 0
M  V30 3228 C 315.383 -5.36242 2.93066 0
M  V30 3229 C 316.381 -5.63254 3.86308 0
M  V30 3230 O 316.069 -6.27024 5.03086 0
M  V30 3231 H 315.801 -0.665419 0.119139 0
M  V30 3232 H 318.355 -1.80436 0.981432 0
M  V30 3233 H 316.585 -3.82251 -0.58489 0
M  V30 3234 H 318.274 -4.05221 -0.234618 0
M  V30 3235 H 319.04 -4.30379 2.23604 0
M  V30 3236 H 314.919 -4.49466 1.02477 0
M  V30 3237 H 318.463 -5.46289 4.33837 0
M  V30 3238 H 314.36 -5.65185 3.11826 0
M  V30 3239 H 315.128 -6.4552 5.03235 0
M  V30 3240 N 317.792 -0.46758 -1.50504 0
M  V30 3241 C 319.017 0.0886943 -2.0721 0
M  V30 3242 C 319.442 1.33057 -1.32956 0
M  V30 3243 O 318.8 1.77354 -0.376197 0
M  V30 3244 C 318.848 0.359202 -3.58806 0
M  V30 3245 O 317.952 1.44034 -3.8643 0
M  V30 3246 H 317.293 -0.0114349 -0.663902 0
M  V30 3247 H 319.823 -0.657613 -1.93744 0
M  V30 3248 H 319.833 0.600742 -4.03553 0
M  V30 3249 H 318.508 -0.548311 -4.1227 0
M  V30 3250 H 317.085 1.18638 -3.53524 0
M  V30 3251 N 319.27 1.56325 -0.20005 0
M  V30 3252 C 320.681 1.8408 0.31167 0
M  V30 3253 C 321.032 1.12087 1.61031 0
M  V30 3254 O 320.157 0.38332 2.12978 0
M  V30 3255 C 320.752 3.33932 0.57226 0
M  V30 3256 C 319.311 3.6208 1.02834 0
M  V30 3257 C 318.458 2.77186 0.079634 0
M  V30 3258 H 321.409 1.52939 -0.423729 0
M  V30 3259 H 321.43 3.52971 1.42096 0
M  V30 3260 H 320.942 3.86303 -0.37308 0
M  V30 3261 H 319.043 3.15147 1.98778 0
M  V30 3262 H 319.156 4.7023 0.917624 0
M  V30 3263 H 317.52 2.47951 0.582448 0
M  V30 3264 H 318.303 3.32347 -0.860238 0
M  V30 3265 N 320.748 -0.0735177 1.57428 0
M  V30 3266 C 321.976 -0.785969 1.9139 0
M  V30 3267 C 322.391 -1.71207 0.795847 0
M  V30 3268 O 321.748 -1.81033 -0.230915 0
M  V30 3269 C 321.799 -1.58107 3.25091 0
M  V30 3270 O 321.52 -0.6922 4.32597 0
M  V30 3271 C 323.021 -2.39467 3.73055 0
M  V30 3272 H 320.241 -0.223558 0.632663 0
M  V30 3273 H 322.785 -0.044302 2.04452 0
M  V30 3274 H 320.94 -2.27503 3.13562 0
M  V30 3275 H 321.354 -1.24504 5.09508 0
M  V30 3276 H 322.828 -2.90716 4.69242 0
M  V30 3277 H 323.305 -3.18913 3.01979 0
M  V30 3278 H 323.911 -1.7523 3.87523 0
M  V30 3279 N 322.226 -1.5378 -0.344866 0
M  V30 3280 C 323.456 -1.74646 -1.10374 0
M  V30 3281 C 323.864 -0.48491 -1.8288 0
M  V30 3282 O 323.207 0.553062 -1.75177 0
M  V30 3283 C 323.269 -2.87145 -2.16306 0
M  V30 3284 C 322.933 -4.26795 -1.63386 0
M  V30 3285 C 323.93 -5.08412 -1.08688 0
M  V30 3286 C 321.615 -4.73276 -1.68272 0
M  V30 3287 C 323.609 -6.34609 -0.595792 0
M  V30 3288 C 321.296 -5.99446 -1.18776 0
M  V30 3289 C 322.294 -6.79946 -0.645215 0
M  V30 3290 O 321.982 -8.03745 -0.157626 0
M  V30 3291 H 321.714 -0.587112 -0.335075 0
M  V30 3292 H 324.268 -2.01403 -0.403252 0
M  V30 3293 H 322.498 -2.55909 -2.89909 0
M  V30 3294 H 324.187 -2.95992 -2.77747 0
M  V30 3295 H 324.953 -4.73666 -1.04236 0
M  V30 3296 H 320.832 -4.10677 -2.09442 0
M  V30 3297 H 324.376 -6.97389 -0.171654 0
M  V30 3298 H 320.273 -6.33687 -1.22928 0
M  V30 3299 H 321.041 -8.18038 -0.275037 0
M  V30 3300 N 323.704 0.605807 -1.45491 0
M  V30 3301 C 324.651 1.7164 -1.54299 0
M  V30 3302 C 325.621 1.61486 -0.388761 0
M  V30 3303 O 326.806 1.81039 -0.602445 0
M  V30 3304 C 323.946 3.09953 -1.51734 0
M  V30 3305 C 323.059 3.309 -2.77721 0
M  V30 3306 C 322.194 4.59329 -2.66816 0
M  V30 3307 C 321.233 4.7354 -3.87848 0
M  V30 3308 N 320.37 5.9327 -3.75467 0
M  V30 3309 H 325.21 1.63449 -2.49176 0
M  V30 3310 H 322.747 0.796957 -1.23641 0
M  V30 3311 H 324.705 3.89977 -1.48235 0
M  V30 3312 H 323.335 3.17098 -0.604068 0
M  V30 3313 H 322.387 2.44639 -2.913 0
M  V30 3314 H 323.699 3.37274 -3.67488 0
M  V30 3315 H 322.853 5.4755 -2.61292 0
M  V30 3316 H 321.592 4.55355 -1.74651 0
M  V30 3317 H 320.597 3.83741 -3.93729 0
M  V30 3318 H 321.822 4.79309 -4.81082 0
M  V30 3319 H 319.768 5.90338 -2.86072 0
M  V30 3320 H 319.685 6.00811 -4.5887 0
M  V30 3321 H 320.953 6.83984 -3.73879 0
M  V30 3322 N 325.182 1.32811 0.848464 0
M  V30 3323 C 326.114 1.18095 1.96433 0
M  V30 3324 C 327.127 0.114354 1.62398 0
M  V30 3325 O 328.316 0.363892 1.74751 0
M  V30 3326 C 325.416 0.786798 3.2964 0
M  V30 3327 C 324.589 1.943 3.91875 0
M  V30 3328 C 323.648 1.53138 5.03423 0
M  V30 3329 O 322.674 2.24432 5.23086 0
M  V30 3330 N 323.876 0.430915 5.78898 0
M  V30 3331 H 326.641 2.14218 2.09597 0
M  V30 3332 H 324.202 1.2543 1.02367 0
M  V30 3333 H 326.194 0.493715 4.01677 0
M  V30 3334 H 324.764 -0.0834541 3.12489 0
M  V30 3335 H 323.984 2.40224 3.12547 0
M  V30 3336 H 325.272 2.71689 4.30189 0
M  V30 3337 H 324.67 -0.162333 5.65467 0
M  V30 3338 H 323.227 0.197466 6.51501 0
M  V30 3339 N 326.66 -1.06551 1.16123 0
M  V30 3340 C 327.937 -1.76097 0.85142 0
M  V30 3341 C 328.317 -2.00802 -0.6513 0
M  V30 3342 O 327.665 -1.63302 -1.59827 0
M  V30 3343 C 327.875 -3.06384 1.67122 0
M  V30 3344 C 329.223 -3.80585 1.88255 0
M  V30 3345 O 330.247 -3.16218 1.63966 0
M  V30 3346 O 329.106 -4.96212 2.2899 0
M  V30 3347 H 326.2 -0.765102 0.313923 0
M  V30 3348 H 328.746 -1.12844 1.26745 0
M  V30 3349 H 327.518 -2.84071 2.69108 0
M  V30 3350 H 327.141 -3.77371 1.25206 0
M  V30 3351 N 328.138 -0.959301 -1.25041 0
M  V30 3352 C 329.085 -0.482057 -2.2571 0
M  V30 3353 C 330.055 0.467939 -1.59372 0
M  V30 3354 O 331.24 0.380159 -1.86974 0
M  V30 3355 C 328.38 0.229623 -3.44335 0
M  V30 3356 C 327.493 -0.758156 -4.25295 0
M  V30 3357 C 326.628 -0.0234403 -5.31195 0
M  V30 3358 C 325.667 -1.00184 -6.03846 0
M  V30 3359 N 324.804 -0.29769 -7.01469 0
M  V30 3360 H 329.644 -1.34538 -2.65901 0
M  V30 3361 H 327.181 -0.674592 -1.3072 0
M  V30 3362 H 329.139 0.658856 -4.11965 0
M  V30 3363 H 327.769 1.05696 -3.05005 0
M  V30 3364 H 326.821 -1.30586 -3.57284 0
M  V30 3365 H 328.133 -1.50458 -4.75567 0
M  V30 3366 H 327.287 0.464201 -6.04922 0
M  V30 3367 H 326.026 0.755741 -4.81809 0
M  V30 3368 H 325.031 -1.50044 -5.2893 0
M  V30 3369 H 326.256 -1.78133 -6.55321 0
M  V30 3370 H 324.202 0.462668 -6.54366 0
M  V30 3371 H 324.119 -0.983128 -7.4958 0
M  V30 3372 H 325.387 0.16826 -7.79318 0
M  V30 3373 N 329.616 1.39756 -0.72842 0
M  V30 3374 C 330.566 2.2792 -0.0603424 0
M  V30 3375 C 331.55 1.43922 0.719399 0
M  V30 3376 O 332.742 1.66895 0.589489 0
M  V30 3377 C 329.871 3.32582 0.851104 0
M  V30 3378 C 328.957 4.24049 0.0658641 0
M  V30 3379 N 329.348 4.96653 -0.957578 0
M  V30 3380 C 327.646 4.45013 0.296509 0
M  V30 3381 C 328.347 5.63836 -1.43052 0
M  V30 3382 N 327.323 5.38397 -0.750315 0
M  V30 3383 H 331.125 2.81504 -0.84455 0
M  V30 3384 H 328.639 1.5236 -0.562155 0
M  V30 3385 H 330.636 3.94603 1.34514 0
M  V30 3386 H 329.296 2.80558 1.63454 0
M  V30 3387 H 330.307 5.00297 -1.33877 0
M  V30 3388 H 326.984 4.03943 1.05527 0
M  V30 3389 H 328.374 6.31974 -2.28163 0
M  V30 3390 N 331.094 0.475555 1.50254 0
M  V30 3391 C 332.324 -0.0753399 2.06463 0
M  V30 3392 C 332.732 -1.33661 1.33908 0
M  V30 3393 O 332.075 -1.79219 0.403257 0
M  V30 3394 C 332.137 -0.424921 3.5698 0
M  V30 3395 C 331.801 0.734965 4.51051 0
M  V30 3396 C 332.798 1.61827 4.94073 0
M  V30 3397 C 330.483 0.926557 4.9368 0
M  V30 3398 C 332.477 2.67754 5.78434 0
M  V30 3399 C 330.164 1.98904 5.77824 0
M  V30 3400 C 331.162 2.8629 6.20103 0
M  V30 3401 O 330.85 3.90708 7.02568 0
M  V30 3402 H 330.582 0.00576308 0.675975 0
M  V30 3403 H 333.136 0.664662 1.94349 0
M  V30 3404 H 331.366 -1.21817 3.67012 0
M  V30 3405 H 333.055 -0.911422 3.95535 0
M  V30 3406 H 333.821 1.48196 4.61804 0
M  V30 3407 H 329.7 0.25584 4.6029 0
M  V30 3408 H 333.244 3.35992 6.11355 0
M  V30 3409 H 329.141 2.12541 6.09505 0
M  V30 3410 H 329.909 3.87751 7.20827 0
M  V30 3411 N 332.573 -1.56217 0.208337 0
M  V30 3412 C 333.821 -1.97558 -0.426076 0
M  V30 3413 C 334.142 -1.09683 -1.61229 0
M  V30 3414 O 333.412 -0.170956 -1.95153 0
M  V30 3415 H 331.992 -0.729575 -0.160405 0
M  V30 3416 H 334.654 -1.92606 0.298155 0
M  V30 3417 H 333.75 -3.02672 -0.761312 0
M  V30 3418 N 334.051 0.0651679 -1.57465 0
M  V30 3419 C 335.281 0.774683 -1.91526 0
M  V30 3420 C 335.689 1.71305 -0.803196 0
M  V30 3421 O 335.032 1.82231 0.231881 0
M  V30 3422 C 335.094 1.61645 -3.21109 0
M  V30 3423 C 334.758 0.846753 -4.49087 0
M  V30 3424 C 335.755 0.163024 -5.19644 0
M  V30 3425 C 333.44 0.811966 -4.95694 0
M  V30 3426 C 335.434 -0.54519 -6.35064 0
M  V30 3427 C 333.121 0.0999836 -6.11018 0
M  V30 3428 C 334.119 -0.577388 -6.80555 0
M  V30 3429 O 333.807 -1.27789 -7.93678 0
M  V30 3430 H 333.539 0.225031 -0.637446 0
M  V30 3431 H 336.093 0.0377134 -2.05365 0
M  V30 3432 H 334.323 2.39638 -3.03497 0
M  V30 3433 H 336.012 2.20525 -3.40769 0
M  V30 3434 H 336.778 0.181163 -4.84662 0
M  V30 3435 H 332.657 1.32867 -4.41438 0
M  V30 3436 H 336.201 -1.07446 -6.89276 0
M  V30 3437 H 332.098 0.0797945 -6.45451 0
M  V30 3438 H 332.866 -1.18784 -8.09835 0
M  V30 3439 N 335.529 1.53961 0.336706 0
M  V30 3440 C 336.477 1.83136 1.43401 0
M  V30 3441 C 337.471 0.702313 1.54156 0
M  V30 3442 O 338.677 0.885765 1.56698 0
M  V30 3443 H 335.052 0.580309 0.478273 0
M  V30 3444 H 337.023 2.74925 1.16012 0
M  V30 3445 C 335.772 2.06385 2.79822 0
M  V30 3446 H 335.095 2.92718 2.72316 0
M  V30 3447 H 336.535 2.30761 3.55704 0
M  V30 3448 C 334.994 0.851414 3.25964 0
M  V30 3449 O 335.524 0.0541904 4.01663 0
M  V30 3450 N 333.73 0.66672 2.82848 0
M  V30 3451 H 333.277 1.31665 2.21409 0
M  V30 3452 H 333.235 -0.143032 3.14074 0
M  V30 3453 N 337.007 -0.598083 1.45811 0
M  V30 3454 C 338.232 -1.3881 1.54099 0
M  V30 3455 C 338.657 -1.8726 0.177578 0
M  V30 3456 O 338.015 -1.6069 -0.839541 0
M  V30 3457 C 338.063 -2.56217 2.53743 0
M  V30 3458 O 337.167 -3.5716 2.06182 0
M  V30 3459 H 336.508 -0.414024 0.519115 0
M  V30 3460 H 339.038 -0.726971 1.91249 0
M  V30 3461 H 339.048 -3.03337 2.72856 0
M  V30 3462 H 337.723 -2.20303 3.5276 0
M  V30 3463 H 336.3 -3.16624 1.96987 0
M  V30 3464 N 338.485 -1.33259 -0.841409 0
M  V30 3465 C 339.715 -1.2742 -1.62628 0
M  V30 3466 C 340.123 0.157604 -1.88542 0
M  V30 3467 O 339.466 1.10938 -1.46419 0
M  V30 3468 C 339.528 -1.97797 -3.00194 0
M  V30 3469 C 339.192 -3.47109 -2.97261 0
M  V30 3470 C 340.189 -4.42358 -2.73159 0
M  V30 3471 C 337.874 -3.89247 -3.17478 0
M  V30 3472 C 339.868 -5.77718 -2.69296 0
M  V30 3473 C 337.555 -5.24713 -3.13241 0
M  V30 3474 C 338.553 -6.1876 -2.89181 0
M  V30 3475 O 338.241 -7.51745 -2.84843 0
M  V30 3476 H 337.973 -0.440436 -0.512827 0
M  V30 3477 H 340.527 -1.76153 -1.05638 0
M  V30 3478 H 338.757 -1.43652 -3.59028 0
M  V30 3479 H 340.446 -1.8549 -3.61038 0
M  V30 3480 H 341.212 -4.11127 -2.57294 0
M  V30 3481 H 337.091 -3.16456 -3.35226 0
M  V30 3482 H 340.635 -6.51097 -2.50436 0
M  V30 3483 H 336.532 -5.55569 -3.28654 0
M  V30 3484 H 337.3 -7.61262 -3.00702 0
M  V30 3485 N 339.963 1.05934 -1.16686 0
M  V30 3486 C 341.188 1.83029 -0.975455 0
M  V30 3487 C 341.613 1.82096 0.471452 0
M  V30 3488 O 340.971 1.22443 1.33706 0
M  V30 3489 C 341.019 3.27372 -1.51195 0
M  V30 3490 O 340.123 4.06054 -0.720701 0
M  V30 3491 H 339.464 0.566194 -0.346872 0
M  V30 3492 H 341.994 1.33541 -1.55009 0
M  V30 3493 H 342.004 3.78186 -1.53099 0
M  V30 3494 H 340.679 3.27366 -2.56523 0
M  V30 3495 H 339.256 3.64812 -0.772458 0
M  V30 3496 N 341.441 0.965919 1.2453 0
M  V30 3497 C 342.687 0.62776 1.92839 0
M  V30 3498 C 343.02 -0.834694 1.75347 0
M  V30 3499 O 342.295 -1.60031 1.10546 0
M  V30 3500 C 342.578 1.00109 3.45905 0
M  V30 3501 C 342.431 2.52011 3.72573 0
M  V30 3502 C 343.75 0.53435 4.36844 0
M  V30 3503 H 340.869 0.229537 0.700344 0
M  V30 3504 H 343.511 1.2046 1.46933 0
M  V30 3505 H 341.661 0.510238 3.85135 0
M  V30 3506 H 343.333 3.08559 3.42912 0
M  V30 3507 H 341.576 2.95287 3.17786 0
M  V30 3508 H 342.247 2.73183 4.79661 0
M  V30 3509 H 344.723 0.955565 4.04979 0
M  V30 3510 H 343.599 0.824152 5.42678 0
M  V30 3511 H 343.86 -0.565589 4.38467 0
M  V30 3512 N 342.919 -1.39368 0.735821 0
M  V30 3513 C 344.144 -2.05319 0.293052 0
M  V30 3514 C 344.569 -1.55115 -1.064 0
M  V30 3515 O 343.927 -0.695261 -1.67439 0
M  V30 3516 C 343.975 -3.59305 0.305323 0
M  V30 3517 O 343.079 -4.06299 -0.706761 0
M  V30 3518 H 342.42 -0.650529 0.13307 0
M  V30 3519 H 344.95 -1.78386 1.00197 0
M  V30 3520 H 344.96 -4.07724 0.149997 0
M  V30 3521 H 343.635 -3.95207 1.29553 0
M  V30 3522 H 342.212 -3.69292 -0.517504 0
M  V30 3523 N 344.397 -0.483516 -1.5 0
M  V30 3524 C 345.345 0.318061 -2.30415 0
M  V30 3525 C 346.339 0.978988 -1.38247 0
M  V30 3526 O 347.545 0.908673 -1.55381 0
M  V30 3527 H 343.92 0.121419 -0.742133 0
M  V30 3528 H 345.891 -0.380403 -2.95965 0
M  V30 3529 C 344.64 1.38013 -3.19136 0
M  V30 3530 H 343.963 0.880952 -3.89973 0
M  V30 3531 H 345.403 1.91332 -3.78375 0
M  V30 3532 C 343.862 2.38884 -2.37563 0
M  V30 3533 O 344.392 3.44412 -2.06744 0
M  V30 3534 N 342.598 2.10912 -1.99911 0
M  V30 3535 H 342.145 1.25118 -2.25174 0
M  V30 3536 H 342.103 2.78635 -1.45636 0
M  V30 3537 N 345.875 1.56104 -0.216619 0
M  V30 3538 C 347.1 2.0301 0.424462 0
M  V30 3539 C 347.525 1.0955 1.52907 0
M  V30 3540 O 346.883 0.0827914 1.81111 0
M  V30 3541 C 346.931 3.4819 0.937883 0
M  V30 3542 O 346.035 3.57865 2.04955 0
M  V30 3543 H 345.376 0.656925 0.0966755 0
M  V30 3544 H 347.906 2.01859 -0.33381 0
M  V30 3545 H 347.916 3.88413 1.24897 0
M  V30 3546 H 346.591 4.15699 0.129387 0
M  V30 3547 H 345.168 3.29527 1.74546 0
M  V30 3548 N 347.353 -0.0568162 1.57498 0
M  V30 3549 C 348.263 -1.08346 2.08083 0
M  V30 3550 C 349.279 -1.41439 1.01346 0
M  V30 3551 O 350.455 -1.51316 1.32912 0
M  V30 3552 C 347.52 -2.37352 2.52715 0
M  V30 3553 C 346.581 -2.11093 3.73816 0
M  V30 3554 C 345.814 -3.33949 4.1631 0
M  V30 3555 O 346.037 -4.43622 3.58547 0
M  V30 3556 O 344.971 -3.21279 5.08983 0
M  V30 3557 H 348.797 -0.683667 2.95905 0
M  V30 3558 H 346.382 -0.271965 1.46904 0
M  V30 3559 H 348.264 -3.13246 2.81877 0
M  V30 3560 H 346.939 -2.76681 1.68016 0
M  V30 3561 H 345.846 -1.32856 3.49714 0
M  V30 3562 H 347.179 -1.76637 4.59413 0
M  V30 3563 N 348.832 -1.54138 -0.328536 0
M  V30 3564 C 349.779 -1.83176 -1.40411 0
M  V30 3565 C 350.749 -0.678494 -1.5161 0
M  V30 3566 O 351.934 -0.92443 -1.6691 0
M  V30 3567 C 349.074 -2.06035 -2.76846 0
M  V30 3568 C 348.187 -3.33727 -2.74318 0
M  V30 3569 C 347.322 -3.46574 -4.02567 0
M  V30 3570 C 346.361 -4.68159 -3.94327 0
M  V30 3571 N 345.498 -4.77959 -5.14296 0
M  V30 3572 H 350.338 -2.74938 -1.14948 0
M  V30 3573 H 347.875 -1.36166 -0.556538 0
M  V30 3574 H 349.833 -2.1728 -3.56153 0
M  V30 3575 H 348.463 -1.1757 -3.00628 0
M  V30 3576 H 347.515 -3.31246 -1.8703 0
M  V30 3577 H 348.827 -4.23139 -2.64111 0
M  V30 3578 H 347.981 -3.57333 -4.90304 0
M  V30 3579 H 346.72 -2.55245 -4.15574 0
M  V30 3580 H 345.725 -4.57461 -3.04974 0
M  V30 3581 H 346.95 -5.60868 -3.82889 0
M  V30 3582 H 344.896 -3.89544 -5.27818 0
M  V30 3583 H 344.813 -5.6133 -5.06404 0
M  V30 3584 H 346.081 -4.93044 -6.03761 0
M  V30 3585 N 350.31 0.590341 -1.46126 0
M  V30 3586 C 351.587 1.35029 -1.41515 0
M  V30 3587 C 351.967 2.10888 -0.0946472 0
M  V30 3588 O 351.315 2.08998 0.923693 0
M  V30 3589 C 351.525 2.28269 -2.63997 0
M  V30 3590 C 352.873 2.90338 -3.09821 0
M  V30 3591 O 353.897 2.38585 -2.64492 0
M  V30 3592 O 352.756 3.84321 -3.88535 0
M  V30 3593 H 349.85 0.606317 -0.562413 0
M  V30 3594 H 352.396 0.611994 -1.58281 0
M  V30 3595 H 351.168 1.71591 -3.51671 0
M  V30 3596 H 350.791 3.0945 -2.49652 0
M  V30 3597 N 351.788 1.33704 0.83433 0
M  V30 3598 C 353.037 1.24763 1.58484 0
M  V30 3599 C 353.35 -0.183775 1.94735 0
M  V30 3600 O 354.556 -0.395234 2.68608 0
M  V30 3601 C 353.012 2.18638 2.85876 0
M  V30 3602 C 352.62 3.66974 2.56971 0
M  V30 3603 C 354.364 2.18581 3.63899 0
M  V30 3604 C 352.271 4.5275 3.80488 0
M  V30 3605 H 351.201 0.463425 0.594772 0
M  V30 3606 H 353.852 1.58797 0.919551 0
M  V30 3607 H 352.234 1.77542 3.5397 0
M  V30 3608 H 353.408 4.16538 1.9706 0
M  V30 3609 H 351.723 3.69366 1.92244 0
M  V30 3610 H 354.32 2.79894 4.55591 0
M  V30 3611 H 354.663 1.18207 3.99165 0
M  V30 3612 H 355.196 2.58062 3.02735 0
M  V30 3613 H 351.935 5.54017 3.5035 0
M  V30 3614 H 351.455 4.07927 4.39722 0
M  V30 3615 H 353.134 4.66784 4.4802 0
M  V30 3616 N 353.266 -1.05314 1.17247 0
M  V30 3617 C 354.199 -2.12512 0.831507 0
M  V30 3618 C 355.177 -1.61351 -0.201168 0
M  V30 3619 O 356.361 -1.88317 -0.0829831 0
M  V30 3620 C 353.488 -3.37848 0.24015 0
M  V30 3621 C 352.534 -4.07832 1.24801 0
M  V30 3622 S 353.367 -4.56537 2.79882 0
M  V30 3623 C 354.523 -5.85122 2.22223 0
M  V30 3624 H 354.756 -2.41106 1.7394 0
M  V30 3625 H 352.289 -1.17896 0.996988 0
M  V30 3626 H 354.247 -4.10391 -0.0945588 0
M  V30 3627 H 352.908 -3.07392 -0.645668 0
M  V30 3628 H 352.101 -4.97883 0.78287 0
M  V30 3629 H 351.703 -3.41348 1.52831 0
M  V30 3630 H 353.995 -6.58408 1.59703 0
M  V30 3631 H 354.938 -6.36381 3.10523 0
M  V30 3632 H 355.346 -5.39626 1.65722 0
M  V30 3633 N 354.744 -0.972509 -1.24016 0
M  V30 3634 C 355.707 -0.511403 -2.23422 0
M  V30 3635 C 356.707 0.394679 -1.55881 0
M  V30 3636 O 357.897 0.189469 -1.73167 0
M  V30 3637 C 355.029 0.258769 -3.39916 0
M  V30 3638 H 356.222 -1.39024 -2.6573 0
M  V30 3639 H 353.775 -0.757585 -1.36713 0
M  V30 3640 H 354.51 1.1545 -3.03054 0
M  V30 3641 H 354.295 -0.391522 -3.9014 0
M  V30 3642 H 355.785 0.570244 -4.13688 0
M  V30 3643 N 356.222 1.38976 -0.743202 0
M  V30 3644 C 357.132 2.3434 -0.110399 0
M  V30 3645 C 358.148 1.58741 0.712559 0
M  V30 3646 O 359.324 1.9099 0.639125 0
M  V30 3647 C 356.389 3.37812 0.780012 0
M  V30 3648 C 355.45 4.29263 -0.0561319 0
M  V30 3649 C 354.683 5.27793 0.791875 0
M  V30 3650 O 354.906 5.33043 2.03031 0
M  V30 3651 O 353.84 6.01512 0.216183 0
M  V30 3652 H 357.666 2.90129 -0.897714 0
M  V30 3653 H 355.251 1.40643 -0.503966 0
M  V30 3654 H 357.133 4.01194 1.28923 0
M  V30 3655 H 355.808 2.84395 1.546 0
M  V30 3656 H 354.715 3.69076 -0.611056 0
M  V30 3657 H 356.048 4.85907 -0.784531 0
M  V30 3658 N 357.7 0.491464 1.49741 0
M  V30 3659 C 358.949 -0.0582189 2.01616 0
M  V30 3660 C 359.262 -1.38927 1.3769 0
M  V30 3661 O 360.468 -2.02509 1.80838 0
M  V30 3662 C 358.924 -0.154235 3.59569 0
M  V30 3663 C 358.532 1.1696 4.32463 0
M  V30 3664 C 360.276 -0.65479 4.1942 0
M  V30 3665 C 358.183 1.03627 5.8225 0
M  V30 3666 H 357.113 -0.0255317 0.753568 0
M  V30 3667 H 359.764 0.629445 1.72367 0
M  V30 3668 H 358.146 -0.906138 3.85493 0
M  V30 3669 H 359.32 1.93405 4.18248 0
M  V30 3670 H 357.635 1.60285 3.84315 0
M  V30 3671 H 360.232 -0.771903 5.29099 0
M  V30 3672 H 360.575 -1.65127 3.8215 0
M  V30 3673 H 361.108 0.040304 3.9778 0
M  V30 3674 H 357.847 2.00672 6.24028 0
M  V30 3675 H 357.367 0.312546 5.98985 0
M  V30 3676 H 359.046 0.711114 6.4308 0
M  V30 3677 N 359.178 -1.55987 0.224894 0
M  V30 3678 C 360.408 -2.02489 -0.41007 0
M  V30 3679 C 360.816 -1.10391 -1.53657 0
M  V30 3680 O 360.159 -0.106458 -1.83391 0
M  V30 3681 C 360.221 -3.45319 -0.999757 0
M  V30 3682 C 359.885 -4.56999 -0.00827976 0
M  V30 3683 C 360.882 -5.13812 0.793314 0
M  V30 3684 C 358.567 -5.02176 0.111442 0
M  V30 3685 C 360.561 -6.14276 1.7013 0
M  V30 3686 C 358.248 -6.02477 1.02296 0
M  V30 3687 C 359.246 -6.58403 1.81643 0
M  V30 3688 O 358.934 -7.56751 2.71262 0
M  V30 3689 H 358.666 -0.667915 -0.104235 0
M  V30 3690 H 361.22 -2.0257 0.339782 0
M  V30 3691 H 359.45 -3.42318 -1.79876 0
M  V30 3692 H 361.139 -3.7545 -1.54248 0
M  V30 3693 H 361.905 -4.79756 0.711288 0
M  V30 3694 H 357.784 -4.58323 -0.49605 0
M  V30 3695 H 361.328 -6.57854 2.32107 0
M  V30 3696 H 357.225 -6.35954 1.10599 0
M  V30 3697 H 357.993 -7.74286 2.65375 0
M  V30 3698 N 360.656 0.0484629 -1.57525 0
M  V30 3699 C 361.603 1.05504 -2.05275 0
M  V30 3700 C 362.573 1.37084 -0.937927 0
M  V30 3701 O 363.758 1.47754 -1.2072 0
M  V30 3702 C 360.898 2.35676 -2.52093 0
M  V30 3703 C 360.011 2.10423 -3.77288 0
M  V30 3704 C 359.146 3.34327 -4.12794 0
M  V30 3705 C 358.185 3.04542 -5.30962 0
M  V30 3706 N 357.322 4.20841 -5.61994 0
M  V30 3707 H 362.162 0.640885 -2.91027 0
M  V30 3708 H 359.699 0.304854 -1.43906 0
M  V30 3709 H 361.657 3.11709 -2.77297 0
M  V30 3710 H 360.287 2.7485 -1.69285 0
M  V30 3711 H 359.339 1.24976 -3.59284 0
M  V30 3712 H 360.651 1.84438 -4.63448 0
M  V30 3713 H 359.805 4.1874 -4.39024 0
M  V30 3714 H 358.544 3.63408 -3.25247 0
M  V30 3715 H 357.549 2.18528 -5.04505 0
M  V30 3716 H 358.774 2.76758 -6.20146 0
M  V30 3717 H 356.72 4.4991 -4.77406 0
M  V30 3718 H 356.637 3.98212 -6.42622 0
M  V30 3719 H 357.905 5.06184 -5.92789 0
M  V30 3720 N 362.134 1.5431 0.320358 0
M  V30 3721 C 363.082 1.84647 1.4145 0
M  V30 3722 C 364.076 0.718624 1.53402 0
M  V30 3723 O 365.282 0.902335 1.5575 0
M  V30 3724 H 361.657 0.585349 0.472091 0
M  V30 3725 H 363.628 2.7614 1.13089 0
M  V30 3726 C 362.377 2.09341 2.77617 0
M  V30 3727 H 361.7 2.9559 2.69196 0
M  V30 3728 H 363.14 2.3452 3.53237 0
M  V30 3729 C 361.599 0.885939 3.25043 0
M  V30 3730 O 362.129 0.0967891 4.01583 0
M  V30 3731 N 360.335 0.696682 2.82125 0
M  V30 3732 H 359.882 1.34006 2.2 0
M  V30 3733 H 359.84 -0.109712 3.14209 0
M  V30 3734 N 363.613 -0.582584 1.46437 0
M  V30 3735 C 364.861 -1.33814 1.51453 0
M  V30 3736 C 365.182 -1.94277 0.167792 0
M  V30 3737 O 364.452 -1.78566 -0.805677 0
M  V30 3738 H 363.032 -0.496838 0.557818 0
M  V30 3739 H 365.694 -0.682281 1.82568 0
M  V30 3740 H 364.79 -2.14479 2.26728 0
M  V30 3741 N 365.091 -1.34144 -0.827227 0
M  V30 3742 C 366.502 -1.23557 -1.39966 0
M  V30 3743 C 366.853 0.140731 -1.95695 0
M  V30 3744 O 365.978 1.04087 -1.89723 0
M  V30 3745 C 366.573 -2.23708 -2.54441 0
M  V30 3746 C 365.132 -2.16924 -3.07605 0
M  V30 3747 C 364.279 -2.10549 -1.80456 0
M  V30 3748 H 367.23 -1.45573 -0.631991 0
M  V30 3749 H 367.251 -1.85157 -3.32411 0
M  V30 3750 H 366.763 -3.23866 -2.13851 0
M  V30 3751 H 364.864 -1.20107 -3.52711 0
M  V30 3752 H 364.977 -3.07988 -3.66988 0
M  V30 3753 H 363.341 -1.56203 -2.01178 0
M  V30 3754 H 364.124 -3.12535 -1.42046 0
M  V30 3755 N 366.569 1.04691 -1.17803 0
M  V30 3756 C 367.815 1.78045 -0.970969 0
M  V30 3757 C 368.148 1.87686 0.498751 0
M  V30 3758 O 367.423 1.38035 1.37027 0
M  V30 3759 C 367.706 3.2166 -1.61884 0
M  V30 3760 C 367.559 3.20001 -3.161 0
M  V30 3761 C 368.878 4.1962 -1.3269 0
M  V30 3762 H 365.997 0.64633 -0.354155 0
M  V30 3763 H 368.639 1.22333 -1.45378 0
M  V30 3764 H 366.789 3.69232 -1.20831 0
M  V30 3765 H 368.461 2.80467 -3.66246 0
M  V30 3766 H 366.704 2.58203 -3.48588 0
M  V30 3767 H 367.375 4.21386 -3.56564 0
M  V30 3768 H 369.851 3.80567 -1.68249 0
M  V30 3769 H 368.727 5.18339 -1.80599 0
M  V30 3770 H 368.988 4.414 -0.248622 0
M  V30 3771 N 368.047 0.979072 1.23499 0
M  V30 3772 C 368.957 0.526431 2.28617 0
M  V30 3773 C 369.973 -0.418126 1.68901 0
M  V30 3774 O 371.149 -0.288372 1.99325 0
M  V30 3775 C 368.214 -0.165235 3.46306 0
M  V30 3776 C 367.275 0.82056 4.21385 0
M  V30 3777 C 366.508 0.161807 5.33455 0
M  V30 3778 O 366.731 -1.04742 5.60701 0
M  V30 3779 O 365.665 0.859708 5.95729 0
M  V30 3780 H 369.491 1.4006 2.69475 0
M  V30 3781 H 367.076 0.746643 1.29405 0
M  V30 3782 H 368.958 -0.553287 4.17752 0
M  V30 3783 H 367.633 -1.01419 3.07402 0
M  V30 3784 H 366.54 1.25929 3.52268 0
M  V30 3785 H 367.873 1.63828 4.64135 0
M  V30 3786 N 369.525 -1.3858 0.750561 0
M  V30 3787 C 370.773 -1.99789 0.30477 0
M  V30 3788 C 371.094 -1.59874 -1.11649 0
M  V30 3789 O 370.364 -0.85417 -1.76297 0
M  V30 3790 H 368.944 -0.738902 0.109694 0
M  V30 3791 H 371.606 -1.69391 0.963983 0
M  V30 3792 H 370.702 -3.09952 0.365499 0
M  V30 3793 N 371.003 -0.499398 -1.49478 0
M  V30 3794 C 371.966 0.268838 -2.27618 0
M  V30 3795 C 372.966 0.895383 -1.33565 0
M  V30 3796 O 374.156 0.760164 -1.56739 0
M  V30 3797 C 371.288 1.38559 -3.11471 0
M  V30 3798 H 372.481 -0.416812 -2.96989 0
M  V30 3799 H 370.034 -0.254313 -1.54217 0
M  V30 3800 H 370.769 2.10544 -2.46661 0
M  V30 3801 H 370.554 0.941797 -3.80621 0
M  V30 3802 H 372.044 1.92678 -3.70493 0
M  V30 3803 N 372.481 1.55866 -0.233164 0
M  V30 3804 C 373.728 1.98603 0.395374 0
M  V30 3805 C 374.056 1.12105 1.58942 0
M  V30 3806 O 373.311 0.168656 1.94972 0
M  V30 3807 C 373.61 3.46856 0.861724 0
M  V30 3808 C 373.276 4.50348 -0.223066 0
M  V30 3809 C 371.938 4.78371 -0.521038 0
M  V30 3810 C 374.29 5.12355 -0.956124 0
M  V30 3811 C 371.618 5.6568 -1.55638 0
M  V30 3812 C 373.97 6.00786 -1.98089 0
M  V30 3813 C 372.634 6.27148 -2.28565 0
M  V30 3814 H 371.904 0.726739 0.144677 0
M  V30 3815 H 374.551 1.88491 -0.338114 0
M  V30 3816 H 372.856 3.5423 1.67418 0
M  V30 3817 H 374.553 3.77302 1.35809 0
M  V30 3818 H 371.143 4.28596 0.0193234 0
M  V30 3819 H 375.327 4.90765 -0.739166 0
M  V30 3820 H 370.583 5.84365 -1.798 0
M  V30 3821 H 374.757 6.4788 -2.55391 0
M  V30 3822 H 372.384 6.94597 -3.08932 0
M  V30 3823 N 373.959 -0.0401083 1.57549 0
M  V30 3824 C 375.184 -0.748931 1.93406 0
M  V30 3825 C 375.609 -1.68686 0.832274 0
M  V30 3826 O 374.967 -1.80047 -0.212818 0
M  V30 3827 C 375.015 -1.4916 3.28304 0
M  V30 3828 O 374.119 -2.6042 3.19774 0
M  V30 3829 H 373.46 -0.202212 0.63246 0
M  V30 3830 H 375.99 0.00112086 2.046 0
M  V30 3831 H 376 -1.86395 3.62934 0
M  V30 3832 H 374.675 -0.80364 4.08062 0
M  V30 3833 H 373.252 -2.25808 2.96758 0
M  V30 3834 N 375.437 -1.54477 -0.31217 0
M  V30 3835 C 376.683 -1.73483 -1.0503 0
M  V30 3836 C 377.016 -0.513125 -1.87298 0
M  V30 3837 O 376.291 0.489864 -1.8823 0
M  V30 3838 C 376.574 -3.01723 -1.96558 0
M  V30 3839 C 376.427 -4.3417 -1.17545 0
M  V30 3840 C 377.746 -3.25772 -2.95907 0
M  V30 3841 H 374.865 -0.631222 -0.380432 0
M  V30 3842 H 377.507 -1.87184 -0.325932 0
M  V30 3843 H 375.657 -2.90174 -2.58324 0
M  V30 3844 H 377.329 -4.5762 -0.581513 0
M  V30 3845 H 375.572 -4.31159 -0.477925 0
M  V30 3846 H 376.243 -5.20143 -1.84811 0
M  V30 3847 H 378.719 -3.36857 -2.44267 0
M  V30 3848 H 377.595 -4.16838 -3.57123 0
M  V30 3849 H 377.856 -2.43537 -3.68974 0
M  V30 3850 N 376.915 0.57481 -1.46744 0
M  V30 3851 C 378.145 1.35659 -1.55821 0
M  V30 3852 C 378.553 1.88129 -0.201036 0
M  V30 3853 O 377.896 1.64723 0.813134 0
M  V30 3854 C 377.958 2.57473 -2.50894 0
M  V30 3855 C 377.622 2.26415 -3.9697 0
M  V30 3856 C 378.619 1.84771 -4.85958 0
M  V30 3857 C 376.304 2.38316 -4.42166 0
M  V30 3858 C 378.298 1.55434 -6.18158 0
M  V30 3859 C 375.985 2.08591 -5.74398 0
M  V30 3860 C 376.983 1.67216 -6.62214 0
M  V30 3861 O 376.671 1.37859 -7.91991 0
M  V30 3862 H 376.403 0.420496 -0.529301 0
M  V30 3863 H 378.957 0.704967 -1.92923 0
M  V30 3864 H 377.187 3.25468 -2.08824 0
M  V30 3865 H 378.876 3.19546 -2.50291 0
M  V30 3866 H 379.642 1.75085 -4.52295 0
M  V30 3867 H 375.521 2.69483 -3.74032 0
M  V30 3868 H 379.065 1.23065 -6.86659 0
M  V30 3869 H 374.962 2.17905 -6.07608 0
M  V30 3870 H 375.73 1.51638 -8.04331 0
M  V30 3871 N 378.394 1.34581 0.820102 0
M  V30 3872 C 379.619 1.30333 1.61332 0
M  V30 3873 C 380.044 -0.119339 1.87721 0
M  V30 3874 O 379.402 -1.08197 1.45475 0
M  V30 3875 C 379.45 2.10258 2.92957 0
M  V30 3876 O 378.554 1.47404 3.85157 0
M  V30 3877 H 377.895 0.447488 0.490561 0
M  V30 3878 H 380.425 1.77425 1.01889 0
M  V30 3879 H 380.435 2.21718 3.42498 0
M  V30 3880 H 379.11 3.13693 2.73074 0
M  V30 3881 H 377.687 1.44703 3.43679 0
M  V30 3882 N 379.872 -1.04064 1.18357 0
M  V30 3883 C 381.149 -1.74252 0.888581 0
M  V30 3884 C 381.529 -2.02138 -0.60856 0
M  V30 3885 O 380.877 -1.66656 -1.56327 0
M  V30 3886 C 381.087 -3.0277 1.73584 0
M  V30 3887 C 382.435 -3.76506 1.96286 0
M  V30 3888 O 383.459 -3.12668 1.70637 0
M  V30 3889 O 382.318 -4.91243 2.39464 0
M  V30 3890 H 379.412 -0.758271 0.330082 0
M  V30 3891 H 381.958 -1.1013 1.2911 0
M  V30 3892 H 380.73 -2.78299 2.75073 0
M  V30 3893 H 380.353 -3.74631 1.33183 0
M  V30 3894 N 381.35 -0.985608 -1.22978 0
M  V30 3895 C 382.597 -0.657386 -1.91532 0
M  V30 3896 C 382.925 0.809707 -1.76845 0
M  V30 3897 O 382.18 1.60021 -1.12658 0
M  V30 3898 C 382.479 -1.00014 -3.43121 0
M  V30 3899 C 382.145 -2.4583 -3.77993 0
M  V30 3900 C 380.807 -2.85679 -3.87222 0
M  V30 3901 C 383.159 -3.40378 -3.94705 0
M  V30 3902 C 380.487 -4.19081 -4.10595 0
M  V30 3903 C 382.839 -4.73429 -4.1958 0
M  V30 3904 C 381.503 -5.1303 -4.27032 0
M  V30 3905 H 380.773 -0.240555 -0.700867 0
M  V30 3906 H 383.42 -1.24044 -1.45895 0
M  V30 3907 H 381.725 -0.335072 -3.90365 0
M  V30 3908 H 383.422 -0.724322 -3.94404 0
M  V30 3909 H 380.012 -2.13939 -3.71387 0
M  V30 3910 H 384.196 -3.10766 -3.8696 0
M  V30 3911 H 379.452 -4.49362 -4.14589 0
M  V30 3912 H 383.626 -5.46644 -4.31455 0
M  V30 3913 H 381.253 -6.16418 -4.44896 0
M  V30 3914 N 382.828 1.3818 -0.7579 0
M  V30 3915 C 383.758 2.33027 -0.148597 0
M  V30 3916 C 384.739 1.55085 0.69875 0
M  V30 3917 O 385.924 1.83384 0.639053 0
M  V30 3918 C 383.054 3.3928 0.742034 0
M  V30 3919 C 382.008 4.28 -0.00291946 0
M  V30 3920 C 381.334 5.25146 1.00625 0
M  V30 3921 C 382.634 5.08938 -1.17385 0
M  V30 3922 H 384.328 2.84231 -0.940909 0
M  V30 3923 H 381.874 1.36659 -0.453908 0
M  V30 3924 H 383.827 4.046 1.17799 0
M  V30 3925 H 382.551 2.86569 1.56671 0
M  V30 3926 H 381.21 3.64192 -0.419504 0
M  V30 3927 H 380.858 4.68721 1.8251 0
M  V30 3928 H 380.558 5.85361 0.512428 0
M  V30 3929 H 382.082 5.93342 1.44143 0
M  V30 3930 H 383.496 5.67474 -0.815224 0
M  V30 3931 H 381.893 5.7841 -1.59882 0
M  V30 3932 H 382.963 4.42424 -1.98468 0
M  V30 3933 N 384.306 0.507319 1.49211 0
M  V30 3934 C 385.236 -0.256939 2.32082 0
M  V30 3935 C 386.217 -0.956609 1.40652 0
M  V30 3936 O 387.402 -0.946788 1.69557 0
M  V30 3937 C 384.532 -1.31802 3.21318 0
M  V30 3938 C 383.486 -0.737855 4.21592 0
M  V30 3939 C 382.812 -1.89992 4.99807 0
M  V30 3940 C 384.112 0.275325 5.21574 0
M  V30 3941 H 385.806 0.434798 2.96226 0
M  V30 3942 H 383.352 0.210546 1.42452 0
M  V30 3943 H 385.305 -1.86045 3.78107 0
M  V30 3944 H 384.029 -2.03903 2.5513 0
M  V30 3945 H 382.688 -0.217126 3.65956 0
M  V30 3946 H 382.336 -2.60877 4.30061 0
M  V30 3947 H 382.036 -1.51777 5.6766 0
M  V30 3948 H 383.56 -2.44657 5.59442 0
M  V30 3949 H 384.974 -0.179193 5.7302 0
M  V30 3950 H 383.371 0.573649 5.97352 0
M  V30 3951 H 384.441 1.18903 4.70096 0
M  V30 3952 N 385.784 -1.5574 0.241426 0
M  V30 3953 C 387.014 -2.02913 -0.38857 0
M  V30 3954 C 387.422 -1.12014 -1.52478 0
M  V30 3955 O 386.765 -0.125903 -1.83268 0
M  V30 3956 C 386.827 -3.4636 -0.963075 0
M  V30 3957 C 386.491 -4.56982 0.0401916 0
M  V30 3958 C 387.488 -5.12941 0.847766 0
M  V30 3959 C 385.173 -5.0203 0.164699 0
M  V30 3960 C 387.167 -6.12437 1.76636 0
M  V30 3961 C 384.854 -6.01358 1.0868 0
M  V30 3962 C 385.852 -6.5644 1.88616 0
M  V30 3963 O 385.54 -7.53831 2.79273 0
M  V30 3964 H 385.272 -0.668983 -0.0971452 0
M  V30 3965 H 387.826 -2.02198 0.361248 0
M  V30 3966 H 386.056 -3.44206 -1.76235 0
M  V30 3967 H 387.745 -3.77065 -1.50257 0
M  V30 3968 H 388.511 -4.78974 0.762133 0
M  V30 3969 H 384.39 -4.58824 -0.447411 0
M  V30 3970 H 387.934 -6.55355 2.39071 0
M  V30 3971 H 383.831 -6.34746 1.17338 0
M  V30 3972 H 384.599 -7.71428 2.73572 0
M  V30 3973 N 387.262 0.0317525 -1.57568 0
M  V30 3974 C 388.209 1.0332 -2.06382 0
M  V30 3975 C 389.179 1.36082 -0.952414 0
M  V30 3976 O 390.364 1.46466 -1.2228 0
M  V30 3977 C 387.504 2.32989 -2.54578 0
M  V30 3978 C 386.617 2.0641 -3.79498 0
M  V30 3979 C 385.752 3.2993 -4.16317 0
M  V30 3980 C 384.791 2.98893 -5.34162 0
M  V30 3981 N 383.928 4.14857 -5.66426 0
M  V30 3982 H 388.768 0.609982 -2.9169 0
M  V30 3983 H 386.305 0.289573 -1.44222 0
M  V30 3984 H 388.263 3.0875 -2.80587 0
M  V30 3985 H 386.893 2.73039 -1.7219 0
M  V30 3986 H 385.945 1.21158 -3.6059 0
M  V30 3987 H 387.257 1.79513 -4.65378 0
M  V30 3988 H 386.411 4.1406 -4.4344 0
M  V30 3989 H 385.15 3.59938 -3.29083 0
M  V30 3990 H 384.155 2.13164 -5.06795 0
M  V30 3991 H 385.38 2.70165 -6.23047 0
M  V30 3992 H 383.326 4.44821 -4.82151 0
M  V30 3993 H 383.243 3.91374 -6.4681 0
M  V30 3994 H 384.511 4.99868 -5.98124 0
M  V30 3995 N 388.74 1.54641 0.303973 0
M  V30 3996 C 389.965 1.78092 1.06292 0
M  V30 3997 C 390.39 0.537342 1.80262 0
M  V30 3998 O 389.748 -0.511993 1.7392 0
M  V30 3999 C 389.796 2.98612 2.02147 0
M  V30 4000 O 388.9 2.71528 3.10397 0
M  V30 4001 H 388.241 0.589548 0.305497 0
M  V30 4002 H 390.771 2.01716 0.3423 0
M  V30 4003 H 390.781 3.265 2.44667 0
M  V30 4004 H 389.456 3.88785 1.47714 0
M  V30 4005 H 388.033 2.54648 2.72413 0
M  V30 4006 N 390.218 -0.567019 1.47046 0
M  V30 4007 C 391.466 -1.322 1.52864 0
M  V30 4008 C 391.787 -1.94088 0.188388 0
M  V30 4009 O 391.057 -1.7941 -0.786693 0
M  V30 4010 H 389.637 -0.490894 0.563056 0
M  V30 4011 H 392.299 -0.662879 1.83281 0
M  V30 4012 H 391.395 -2.12062 2.2899 0
M  V30 4013 N 391.696 -1.35014 -0.812953 0
M  V30 4014 C 392.942 -1.2812 -1.57204 0
M  V30 4015 C 393.275 0.145869 -1.93651 0
M  V30 4016 O 392.55 1.0937 -1.60836 0
M  V30 4017 C 392.833 -2.18162 -2.86492 0
M  V30 4018 C 392.686 -3.69454 -2.56561 0
M  V30 4019 C 394.005 -2.07439 -3.88145 0
M  V30 4020 H 391.124 -0.466746 -0.570366 0
M  V30 4021 H 393.766 -1.65357 -0.935783 0
M  V30 4022 H 391.916 -1.86535 -3.40789 0
M  V30 4023 H 393.588 -4.11493 -2.08497 0
M  V30 4024 H 391.831 -3.9005 -1.89851 0
M  V30 4025 H 392.502 -4.27835 -3.48799 0
M  V30 4026 H 394.978 -2.35228 -3.4323 0
M  V30 4027 H 393.854 -2.7265 -4.76396 0
M  V30 4028 H 394.115 -1.05439 -4.29343 0
M  V30 4029 N 393.175 1.03435 -1.18907 0
M  V30 4030 C 394.405 1.8012 -1.01195 0
M  V30 4031 C 394.813 1.8395 0.442613 0
M  V30 4032 O 394.156 1.27836 1.31923 0
M  V30 4033 C 394.218 3.26792 -1.49823 0
M  V30 4034 C 393.882 3.46609 -2.97844 0
M  V30 4035 C 394.879 3.37278 -3.95651 0
M  V30 4036 C 392.564 3.73001 -3.36416 0
M  V30 4037 C 394.558 3.54054 -5.30023 0
M  V30 4038 C 392.245 3.89423 -4.70949 0
M  V30 4039 C 393.243 3.79951 -5.67562 0
M  V30 4040 O 392.931 3.95895 -6.99659 0
M  V30 4041 H 392.663 0.573865 -0.357289 0
M  V30 4042 H 395.217 1.31207 -1.58031 0
M  V30 4043 H 393.447 3.76703 -0.873578 0
M  V30 4044 H 395.136 3.85055 -1.28404 0
M  V30 4045 H 395.902 3.16846 -3.67197 0
M  V30 4046 H 391.781 3.79469 -2.61772 0
M  V30 4047 H 395.325 3.46577 -6.05417 0
M  V30 4048 H 391.222 4.09351 -4.99101 0
M  V30 4049 H 391.99 4.13019 -7.06653 0
M  V30 4050 N 394.653 0.992116 1.22453 0
M  V30 4051 C 395.585 0.500024 2.23679 0
M  V30 4052 C 396.598 -0.404463 1.57696 0
M  V30 4053 O 397.787 -0.206722 1.77299 0
M  V30 4054 C 394.887 -0.294711 3.37616 0
M  V30 4055 C 394.06 0.605723 4.33186 0
M  V30 4056 C 393.119 -0.13717 5.26021 0
M  V30 4057 O 392.145 0.477164 5.67196 0
M  V30 4058 N 393.347 -1.4197 5.62872 0
M  V30 4059 H 396.112 1.37045 2.66531 0
M  V30 4060 H 393.673 0.866741 1.36745 0
M  V30 4061 H 395.665 -0.800329 3.96707 0
M  V30 4062 H 394.235 -1.06623 2.93854 0
M  V30 4063 H 393.455 1.29202 3.72425 0
M  V30 4064 H 394.743 1.21896 4.93983 0
M  V30 4065 H 394.141 -1.94015 5.31389 0
M  V30 4066 H 392.698 -1.87052 6.24383 0
M  V30 4067 N 396.131 -1.37776 0.765217 0
M  V30 4068 C 397.081 -2.2768 0.12075 0
M  V30 4069 C 398.065 -1.45778 -0.680988 0
M  V30 4070 O 399.257 -1.684 -0.545033 0
M  V30 4071 C 396.386 -3.34722 -0.762626 0
M  V30 4072 C 395.472 -4.24074 0.0465881 0
M  V30 4073 N 395.863 -4.93939 1.08892 0
M  V30 4074 C 394.161 -4.45643 -0.178418 0
M  V30 4075 C 394.862 -5.59845 1.57951 0
M  V30 4076 N 393.838 -5.36218 0.892797 0
M  V30 4077 H 397.64 -2.79166 0.918889 0
M  V30 4078 H 395.154 -1.50816 0.602353 0
M  V30 4079 H 397.151 -3.98031 -1.24005 0
M  V30 4080 H 395.811 -2.84793 -1.55959 0
M  V30 4081 H 396.822 -4.96572 1.47095 0
M  V30 4082 H 393.499 -4.06599 -0.9478 0
M  V30 4083 H 394.889 -6.25703 2.44838 0
M  V30 4084 N 397.609 -0.515225 -1.4894 0
M  V30 4085 C 398.855 0.0242508 -2.02785 0
M  V30 4086 C 399.188 1.35323 -1.39289 0
M  V30 4087 O 398.463 1.87041 -0.533469 0
M  V30 4088 C 398.746 0.16184 -3.59736 0
M  V30 4089 C 398.599 -1.19127 -4.33738 0
M  V30 4090 C 399.918 0.895719 -4.30888 0
M  V30 4091 H 397.037 0.00733914 -0.736963 0
M  V30 4092 H 399.679 -0.669395 -1.77818 0
M  V30 4093 H 397.829 0.752624 -3.8114 0
M  V30 4094 H 399.501 -1.82202 -4.23792 0
M  V30 4095 H 397.744 -1.77695 -3.95736 0
M  V30 4096 H 398.415 -1.04815 -5.41957 0
M  V30 4097 H 400.891 0.394528 -4.14225 0
M  V30 4098 H 399.767 0.960859 -5.40425 0
M  V30 4099 H 400.028 1.9427 -3.97129 0
M  V30 4100 N 399.087 1.5561 -0.249682 0
M  V30 4101 C 400.315 2.03411 0.378352 0
M  V30 4102 C 400.73 1.12886 1.51335 0
M  V30 4103 O 400.087 0.143833 1.81932 0
M  V30 4104 C 400.138 3.50537 0.88351 0
M  V30 4105 O 399.859 4.37614 -0.20626 0
M  V30 4106 C 401.36 4.14113 1.58195 0
M  V30 4107 H 398.58 0.664994 0.08958 0
M  V30 4108 H 401.124 2.01044 -0.374357 0
M  V30 4109 H 399.279 3.5343 1.58639 0
M  V30 4110 H 399.693 5.24199 0.177782 0
M  V30 4111 H 401.167 5.18741 1.8871 0
M  V30 4112 H 401.644 3.60767 2.50487 0
M  V30 4113 H 402.25 4.15151 0.923573 0
M  V30 4114 N 400.565 -0.0233959 1.57583 0
M  V30 4115 C 401.813 -0.711654 1.89156 0
M  V30 4116 C 402.134 -1.75591 0.848096 0
M  V30 4117 O 401.404 -1.95547 -0.117566 0
M  V30 4118 H 399.984 -0.265835 0.698098 0
M  V30 4119 H 402.646 0.0119948 1.94896 0
M  V30 4120 H 401.742 -1.19766 2.88206 0
M  V30 4121 N 402.043 -1.548 -0.295768 0
M  V30 4122 C 402.953 -1.89177 -1.38742 0
M  V30 4123 C 403.969 -0.786481 -1.55211 0
M  V30 4124 O 405.145 -1.08344 -1.69775 0
M  V30 4125 C 402.21 -2.13663 -2.73036 0
M  V30 4126 C 401.271 -3.37349 -2.65508 0
M  V30 4127 C 400.504 -3.60658 -3.93398 0
M  V30 4128 O 400.727 -2.86882 -4.93006 0
M  V30 4129 O 399.661 -4.54179 -3.94975 0
M  V30 4130 H 403.487 -2.82059 -1.12589 0
M  V30 4131 H 401.072 -1.41056 -0.492295 0
M  V30 4132 H 402.954 -2.3094 -3.52484 0
M  V30 4133 H 401.629 -1.23967 -2.99022 0
M  V30 4134 H 400.536 -3.25431 -1.84514 0
M  V30 4135 H 401.869 -4.27192 -2.44474 0
M  V30 4136 N 403.521 0.559213 -1.47345 0
M  V30 4137 C 404.454 1.68201 -1.5422 0
M  V30 4138 C 405.432 1.57742 -0.394497 0
M  V30 4139 O 406.616 1.78628 -0.60201 0
M  V30 4140 C 403.743 3.0643 -1.44285 0
M  V30 4141 C 402.789 3.3534 -2.63532 0
M  V30 4142 S 403.622 3.24816 -4.25741 0
M  V30 4143 C 404.778 4.65542 -4.18355 0
M  V30 4144 H 405.011 1.62114 -2.49211 0
M  V30 4145 H 402.544 0.739871 -1.35519 0
M  V30 4146 H 404.502 3.86164 -1.3924 0
M  V30 4147 H 403.163 3.09984 -0.506816 0
M  V30 4148 H 402.356 4.36107 -2.52639 0
M  V30 4149 H 401.958 2.63221 -2.65689 0
M  V30 4150 H 404.25 5.56449 -3.86485 0
M  V30 4151 H 405.193 4.81493 -5.19202 0
M  V30 4152 H 405.601 4.43495 -3.49246 0
M  V30 4153 N 404.999 1.35443 0.805782 0
M  V30 4154 C 405.932 1.22783 1.92353 0
M  V30 4155 C 406.91 0.115543 1.62189 0
M  V30 4156 O 408.094 0.283778 1.86352 0
M  V30 4157 C 405.221 0.890746 3.26777 0
M  V30 4158 C 404.267 2.01519 3.75889 0
M  V30 4159 S 405.1 3.63101 3.93596 0
M  V30 4160 C 406.256 3.31472 5.30921 0
M  V30 4161 H 406.489 2.17394 2.02798 0
M  V30 4162 H 404.022 1.20669 0.963245 0
M  V30 4163 H 405.98 0.703068 4.04434 0
M  V30 4164 H 404.641 -0.0373152 3.14078 0
M  V30 4165 H 403.834 1.7335 4.7325 0
M  V30 4166 H 403.436 2.16124 3.05231 0
M  V30 4167 H 405.728 2.8435 6.1494 0
M  V30 4168 H 406.671 4.28036 5.64084 0
M  V30 4169 H 407.079 2.67221 4.97246 0
M  V30 4170 N 406.477 -1.02803 1.19454 0
M  V30 4171 C 407.725 -1.75869 0.995722 0
M  V30 4172 C 408.046 -1.89138 -0.474543 0
M  V30 4173 O 407.316 -1.42558 -1.34366 0
M  V30 4174 H 405.896 -0.651511 0.365435 0
M  V30 4175 H 408.558 -1.24004 1.50363 0
M  V30 4176 H 407.654 -2.76661 1.44447 0
M  V30 4177 N 407.956 -0.998596 -1.21925 0
M  V30 4178 C 409.204 -0.676325 -1.90448 0
M  V30 4179 C 409.525 0.794719 -1.78071 0
M  V30 4180 O 408.795 1.5701 -1.17152 0
M  V30 4181 H 407.375 -0.247165 -0.704925 0
M  V30 4182 H 410.037 -1.26633 -1.48156 0
M  V30 4183 H 409.133 -0.943858 -2.97486 0
M  V30 4184 N 409.434 1.37368 -0.772513 0
M  V30 4185 C 410.384 2.27613 -0.132823 0
M  V30 4186 C 411.368 1.46138 0.673247 0
M  V30 4187 O 412.56 1.68686 0.536095 0
M  V30 4188 C 409.689 3.35122 0.744864 0
M  V30 4189 C 408.775 4.24044 -0.0690771 0
M  V30 4190 N 409.166 4.93355 -1.1151 0
M  V30 4191 C 407.464 4.45731 0.154782 0
M  V30 4192 C 408.165 5.59 -1.60917 0
M  V30 4193 N 407.141 5.35737 -0.921222 0
M  V30 4194 H 410.943 2.78675 -0.933681 0
M  V30 4195 H 408.457 1.50494 -0.610342 0
M  V30 4196 H 410.454 3.98683 1.21892 0
M  V30 4197 H 409.114 2.85616 1.54446 0
M  V30 4198 H 410.125 4.95785 -1.49726 0
M  V30 4199 H 406.802 4.07096 0.926224 0
M  V30 4200 H 408.192 6.24395 -2.48153 0
M  V30 4201 N 410.912 0.523116 1.48665 0
M  V30 4202 C 411.875 -0.232592 2.28017 0
M  V30 4203 C 412.875 -0.874021 1.34972 0
M  V30 4204 O 414.065 -0.735132 1.57929 0
M  V30 4205 C 411.197 -1.33586 3.13636 0
M  V30 4206 H 412.39 0.464008 2.96289 0
M  V30 4207 H 409.943 0.278816 1.53793 0
M  V30 4208 H 410.678 -2.06593 2.4998 0
M  V30 4209 H 410.463 -0.881125 3.82071 0
M  V30 4210 H 411.953 -1.86759 3.73511 0
M  V30 4211 N 412.39 -1.55475 0.257931 0
M  V30 4212 C 413.639 -1.98383 -0.364275 0
M  V30 4213 C 413.952 -1.14952 -1.58258 0
M  V30 4214 O 415.158 -1.47924 -2.27664 0
M  V30 4215 C 413.614 -3.53037 -0.699479 0
M  V30 4216 C 413.222 -4.45223 0.498046 0
M  V30 4217 C 414.966 -4.04575 -1.28526 0
M  V30 4218 C 412.873 -5.91238 0.138383 0
M  V30 4219 H 411.803 -0.740911 -0.13988 0
M  V30 4220 H 414.454 -1.79936 0.359883 0
M  V30 4221 H 412.836 -3.6722 -1.48207 0
M  V30 4222 H 414.01 -4.42803 1.27522 0
M  V30 4223 H 412.325 -4.04226 0.999503 0
M  V30 4224 H 414.922 -5.11196 -1.56788 0
M  V30 4225 H 415.265 -3.5258 -2.21344 0
M  V30 4226 H 415.798 -3.93762 -0.565337 0
M  V30 4227 H 412.537 -6.47294 1.03398 0
M  V30 4228 H 412.057 -5.96768 -0.602374 0
M  V30 4229 H 413.736 -6.46413 -0.27553 0
M  V30 4230 N 413.868 0.0150385 -1.57593 0
M  V30 4231 C 415.284 0.370907 -1.5523 0
M  V30 4232 C 415.484 1.75735 -0.985882 0
M  V30 4233 O 414.54 2.44944 -0.613077 0
M  V30 4234 C 415.853 0.259908 -2.99575 0
M  V30 4235 C 417.401 0.335959 -3.11192 0
M  V30 4236 C 417.876 0.254253 -4.57294 0
M  V30 4237 N 419.367 0.312618 -4.62144 0
M  V30 4238 C 420.102 0.272505 -5.72752 0
M  V30 4239 N 419.598 0.183864 -6.92556 0
M  V30 4240 N 421.391 0.323267 -5.6117 0
M  V30 4241 H 413.542 -0.892104 -1.92757 0
M  V30 4242 H 415.805 -0.340563 -0.884715 0
M  V30 4243 H 415.511 -0.693403 -3.44797 0
M  V30 4244 H 415.385 1.048 -3.62349 0
M  V30 4245 H 417.772 1.27971 -2.65909 0
M  V30 4246 H 417.853 -0.481739 -2.51223 0
M  V30 4247 H 417.497 -0.685887 -5.03247 0
M  V30 4248 H 417.427 1.09024 -5.15191 0
M  V30 4249 H 419.918 0.38307 -3.75953 0
M  V30 4250 H 420.231 0.15874 -7.72637 0
M  V30 4251 H 418.576 0.149708 -6.94839 0
M  V30 4252 H 421.767 0.390607 -4.66467 0
M  V30 4253 H 421.94 0.288539 -6.47357 0
M  V30 4254 N 415.346 1.54954 0.287554 0
M  V30 4255 C 416.595 1.74081 1.01877 0
M  V30 4256 C 416.908 0.541135 1.87966 0
M  V30 4257 O 418.114 0.614491 2.64455 0
M  V30 4258 C 416.57 3.08042 1.86113 0
M  V30 4259 C 416.178 4.35531 1.04961 0
M  V30 4260 C 417.922 3.36523 2.58752 0
M  V30 4261 C 415.829 5.60538 1.88551 0
M  V30 4262 H 414.759 0.64884 0.384087 0
M  V30 4263 H 417.41 1.81426 0.275101 0
M  V30 4264 H 415.792 2.94696 2.64519 0
M  V30 4265 H 416.966 4.59751 0.31074 0
M  V30 4266 H 415.281 4.14085 0.43843 0
M  V30 4267 H 417.878 4.27122 3.21668 0
M  V30 4268 H 418.221 2.56 3.28283 0
M  V30 4269 H 418.754 3.50901 1.87386 0
M  V30 4270 H 415.493 6.43767 1.23466 0
M  V30 4271 H 415.013 5.40483 2.60074 0
M  V30 4272 H 416.692 5.98297 2.46273 0
M  V30 4273 N 416.824 -0.551391 1.4764 0
M  V30 4274 C 417.754 -1.66757 1.63445 0
M  V30 4275 C 418.735 -1.63077 0.483742 0
M  V30 4276 O 419.92 -1.80607 0.71377 0
M  V30 4277 C 417.05 -3.05387 1.65396 0
M  V30 4278 C 416.004 -3.23918 2.79752 0
M  V30 4279 C 415.33 -4.63393 2.66779 0
M  V30 4280 C 416.63 -3.08735 4.21284 0
M  V30 4281 H 418.324 -1.53786 2.56886 0
M  V30 4282 H 415.87 -0.738415 1.23626 0
M  V30 4283 H 417.823 -3.83325 1.75043 0
M  V30 4284 H 416.547 -3.19332 0.685195 0
M  V30 4285 H 415.206 -2.48391 2.69625 0
M  V30 4286 H 414.854 -4.74144 1.67918 0
M  V30 4287 H 414.554 -4.7674 3.43501 0
M  V30 4288 H 416.078 -5.43458 2.78364 0
M  V30 4289 H 417.492 -3.76484 4.32357 0
M  V30 4290 H 415.889 -3.33588 4.98838 0
M  V30 4291 H 416.959 -2.0541 4.39243 0
M  V30 4292 N 418.302 -1.35869 -0.798587 0
M  V30 4293 C 419.55 -1.29332 -1.55298 0
M  V30 4294 C 419.871 0.129729 -1.94568 0
M  V30 4295 O 419.141 1.06796 -1.6423 0
M  V30 4296 H 417.721 -0.475737 -0.57592 0
M  V30 4297 H 420.383 -1.70062 -0.952093 0
M  V30 4298 H 419.479 -1.91458 -2.46476 0
M  V30 4299 N 419.78 1.02168 -1.19998 0
M  V30 4300 C 421.026 1.7606 -1.01855 0
M  V30 4301 C 421.381 1.87178 0.445222 0
M  V30 4302 O 420.674 1.3828 1.32624 0
M  V30 4303 C 420.868 3.18081 -1.62969 0
M  V30 4304 C 420.697 3.20809 -3.15137 0
M  V30 4305 C 419.467 3.28342 -3.84083 0
M  V30 4306 C 421.665 3.07268 -4.1242 0
M  V30 4307 N 419.647 3.2052 -5.23584 0
M  V30 4308 C 421.018 3.0716 -5.38566 0
M  V30 4309 C 423.073 2.91448 -4.03686 0
M  V30 4310 C 421.776 2.92853 -6.56985 0
M  V30 4311 C 423.802 2.78494 -5.21723 0
M  V30 4312 C 423.164 2.79046 -6.46771 0
M  V30 4313 H 419.263 0.655192 -0.426905 0
M  V30 4314 H 421.847 1.21564 -1.52087 0
M  V30 4315 H 420.018 3.70882 -1.15329 0
M  V30 4316 H 421.75 3.80375 -1.38192 0
M  V30 4317 H 418.505 3.34859 -3.34913 0
M  V30 4318 H 418.929 3.19997 -5.96599 0
M  V30 4319 H 423.571 2.89838 -3.07821 0
M  V30 4320 H 421.289 2.93213 -7.53028 0
M  V30 4321 H 424.875 2.67278 -5.16773 0
M  V30 4322 H 423.755 2.69134 -7.36571 0
M  V30 4323 N 421.258 1.00505 1.21394 0
M  V30 4324 C 422.506 0.686415 1.90086 0
M  V30 4325 C 422.827 -0.785264 1.7849 0
M  V30 4326 O 422.097 -1.56387 1.17983 0
M  V30 4327 H 420.677 0.2509 0.703604 0
M  V30 4328 H 423.339 1.27417 1.47482 0
M  V30 4329 H 422.435 0.959621 2.96981 0
M  V30 4330 N 422.737 -1.36956 0.779787 0
M  V30 4331 C 423.983 -1.99787 0.348281 0
M  V30 4332 C 424.316 -1.61756 -1.07465 0
M  V30 4333 O 423.591 -0.867639 -1.74075 0
M  V30 4334 C 423.874 -3.56597 0.50104 0
M  V30 4335 C 423.727 -4.04513 1.96697 0
M  V30 4336 C 425.046 -4.40008 -0.0898097 0
M  V30 4337 H 422.165 -0.725796 0.128022 0
M  V30 4338 H 424.807 -1.62514 0.984331 0
M  V30 4339 H 422.957 -3.88479 -0.0404347 0
M  V30 4340 H 424.629 -3.83161 2.56876 0
M  V30 4341 H 422.872 -3.56408 2.47297 0
M  V30 4342 H 423.543 -5.1352 2.02486 0
M  V30 4343 H 426.019 -4.14431 0.372293 0
M  V30 4344 H 424.895 -5.4888 0.0471605 0
M  V30 4345 H 425.156 -4.26035 -1.18096 0
M  V30 4346 N 424.215 -0.530993 -1.48385 0
M  V30 4347 C 425.125 0.23503 -2.3342 0
M  V30 4348 C 426.141 0.93801 -1.46552 0
M  V30 4349 O 427.317 0.912745 -1.7953 0
M  V30 4350 C 424.382 1.26778 -3.22689 0
M  V30 4351 C 423.443 0.575038 -4.25431 0
M  V30 4352 C 422.676 1.55858 -5.10435 0
M  V30 4353 O 422.899 2.79129 -4.97437 0
M  V30 4354 O 421.833 1.09742 -5.91811 0
M  V30 4355 H 425.659 -0.461794 -3.00169 0
M  V30 4356 H 423.244 -0.291903 -1.46521 0
M  V30 4357 H 425.126 1.86457 -3.77904 0
M  V30 4358 H 423.801 1.94699 -2.586 0
M  V30 4359 H 422.708 -0.0622782 -3.74048 0
M  V30 4360 H 424.041 -0.062253 -4.92161 0
M  V30 4361 N 425.693 1.55336 -0.266172 0
M  V30 4362 C 426.641 2.23587 0.641228 0
M  V30 4363 C 427.635 1.22986 1.16494 0
M  V30 4364 O 428.841 1.40943 1.1196 0
M  V30 4365 H 425.216 0.717452 0.225315 0
M  V30 4366 H 427.187 2.9837 0.0426561 0
M  V30 4367 C 425.936 2.96369 1.81826 0
M  V30 4368 H 425.259 3.73563 1.42445 0
M  V30 4369 H 426.699 3.47459 2.42998 0
M  V30 4370 C 425.158 2.0133 2.70125 0
M  V30 4371 O 425.688 1.55875 3.70224 0
M  V30 4372 N 423.894 1.6802 2.37102 0
M  V30 4373 H 423.441 2.05181 1.55751 0
M  V30 4374 H 423.399 1.047 2.96454 0
M  V30 4375 N 427.171 -0.0066808 1.57599 0
M  V30 4376 C 428.419 -0.691552 1.899 0
M  V30 4377 C 428.74 -1.74682 0.866672 0
M  V30 4378 O 428.01 -1.95661 -0.0968189 0
M  V30 4379 H 426.59 -0.258416 0.700878 0
M  V30 4380 H 429.252 0.0326655 1.94873 0
M  V30 4381 H 428.348 -1.16702 2.8946 0
M  V30 4382 N 428.649 -1.55105 -0.279332 0
M  V30 4383 C 429.877 -1.7943 -1.03017 0
M  V30 4384 C 430.292 -0.564456 -1.80165 0
M  V30 4385 O 429.649 0.466326 -1.76442 0
M  V30 4386 C 429.7 -3.0155 -1.99374 0
M  V30 4387 O 429.421 -4.19784 -1.25352 0
M  V30 4388 C 430.922 -3.3843 -2.86321 0
M  V30 4389 H 428.142 -0.597882 -0.304594 0
M  V30 4390 H 430.686 -2.02105 -0.312035 0
M  V30 4391 H 428.841 -2.81019 -2.66659 0
M  V30 4392 H 429.255 -4.88781 -1.90246 0
M  V30 4393 H 430.729 -4.27066 -3.49741 0
M  V30 4394 H 431.206 -2.57549 -3.5576 0
M  V30 4395 H 431.812 -3.61197 -2.24536 0
M  V30 4396 N 430.127 0.543554 -1.4793 0
M  V30 4397 C 431.538 1.12561 -1.48953 0
M  V30 4398 C 431.889 1.94578 -0.251754 0
M  V30 4399 O 431.014 2.0665 0.642255 0
M  V30 4400 C 431.609 2.04801 -2.69892 0
M  V30 4401 C 430.168 2.58251 -2.73831 0
M  V30 4402 C 429.315 1.34918 -2.42265 0
M  V30 4403 H 432.266 0.32947 -1.55242 0
M  V30 4404 H 432.287 2.88886 -2.47639 0
M  V30 4405 H 431.799 1.4508 -3.59963 0
M  V30 4406 H 429.9 3.21732 -1.87934 0
M  V30 4407 H 430.013 2.98312 -3.74895 0
M  V30 4408 H 428.377 1.66046 -1.93134 0
M  V30 4409 H 429.16 0.769693 -3.3456 0
M  V30 4410 N 431.605 1.3629 0.791371 0
M  V30 4411 C 432.835 1.33368 1.57786 0
M  V30 4412 C 433.243 -0.0875188 1.88997 0
M  V30 4413 O 432.586 -1.05427 1.50435 0
M  V30 4414 C 432.648 2.08802 2.92646 0
M  V30 4415 C 432.312 3.57903 2.84174 0
M  V30 4416 C 433.309 4.52191 2.56553 0
M  V30 4417 C 430.994 4.00762 3.02812 0
M  V30 4418 C 432.988 5.87315 2.47669 0
M  V30 4419 C 430.675 5.35977 2.93551 0
M  V30 4420 C 431.673 6.29066 2.66017 0
M  V30 4421 O 431.361 7.61798 2.56746 0
M  V30 4422 H 431.093 0.459166 0.496128 0
M  V30 4423 H 433.647 1.79952 0.990269 0
M  V30 4424 H 431.877 1.56878 3.53449 0
M  V30 4425 H 433.566 1.98762 3.53904 0
M  V30 4426 H 434.332 4.20393 2.41858 0
M  V30 4427 H 430.211 3.2868 3.2325 0
M  V30 4428 H 433.755 6.59943 2.26099 0
M  V30 4429 H 429.652 5.67384 3.07808 0
M  V30 4430 H 430.42 7.71898 2.72242 0
M  V30 4431 N 433.083 -1.0153 1.20538 0
M  V30 4432 C 434.329 -1.75517 1.02787 0
M  V30 4433 C 434.684 -1.87411 -0.435289 0
M  V30 4434 O 433.977 -1.38982 -1.31889 0
M  V30 4435 C 434.171 -3.17213 1.64654 0
M  V30 4436 C 434 -3.19134 3.16834 0
M  V30 4437 C 432.77 -3.26301 3.85818 0
M  V30 4438 C 434.968 -3.05077 4.14044 0
M  V30 4439 N 432.95 -3.17739 5.25276 0
M  V30 4440 C 434.321 -3.04299 5.40187 0
M  V30 4441 C 436.376 -2.89303 4.05226 0
M  V30 4442 C 435.079 -2.89365 6.58529 0
M  V30 4443 C 437.105 -2.75723 5.23193 0
M  V30 4444 C 436.467 -2.75612 6.48242 0
M  V30 4445 H 432.566 -0.652919 0.430373 0
M  V30 4446 H 435.15 -1.20755 1.52729 0
M  V30 4447 H 433.321 -3.70266 1.17294 0
M  V30 4448 H 435.053 -3.79637 1.40208 0
M  V30 4449 H 431.808 -3.33078 3.36684 0
M  V30 4450 H 432.232 -3.16829 5.98288 0
M  V30 4451 H 436.874 -2.88201 3.09354 0
M  V30 4452 H 434.592 -2.89216 7.54573 0
M  V30 4453 H 438.178 -2.64533 5.18183 0
M  V30 4454 H 437.058 -2.65224 7.37988 0
M  V30 4455 N 434.561 -1.01147 -1.20859 0
M  V30 4456 C 435.491 -0.597663 -2.25722 0
M  V30 4457 C 436.472 0.384744 -1.65692 0
M  V30 4458 O 437.657 0.271303 -1.92296 0
M  V30 4459 C 434.787 0.0700149 -3.47229 0
M  V30 4460 C 433.741 -0.832843 -4.19819 0
M  V30 4461 C 433.067 -0.0312202 -5.34691 0
M  V30 4462 C 434.367 -2.1385 -4.76514 0
M  V30 4463 H 436.061 -1.47423 -2.60589 0
M  V30 4464 H 433.607 -0.710301 -1.25263 0
M  V30 4465 H 435.56 0.37103 -4.19763 0
M  V30 4466 H 434.284 0.981259 -3.11511 0
M  V30 4467 H 432.943 -1.11778 -3.49144 0
M  V30 4468 H 432.591 0.881515 -4.95215 0
M  V30 4469 H 432.291 -0.632434 -5.84187 0
M  V30 4470 H 433.815 0.26346 -6.10031 0
M  V30 4471 H 435.229 -1.9002 -5.40893 0
M  V30 4472 H 433.626 -2.69012 -5.36426 0
M  V30 4473 H 434.696 -2.80495 -3.95538 0
M  V30 4474 N 436.039 1.36541 -0.78704 0
M  V30 4475 C 437.285 1.99599 -0.358872 0
M  V30 4476 C 437.618 1.62323 1.06606 0
M  V30 4477 O 436.893 0.876858 1.73613 0
M  V30 4478 C 437.176 3.56327 -0.519944 0
M  V30 4479 C 437.029 4.03464 -1.98839 0
M  V30 4480 C 438.348 4.4005 0.0664737 0
M  V30 4481 H 435.467 0.725107 -0.131869 0
M  V30 4482 H 438.109 1.6199 -0.992936 0
M  V30 4483 H 436.259 3.88495 0.0198321 0
M  V30 4484 H 437.931 3.81793 -2.58905 0
M  V30 4485 H 436.174 3.55092 -2.49183 0
M  V30 4486 H 436.845 5.12439 -2.05207 0
M  V30 4487 H 439.321 4.14228 -0.394267 0
M  V30 4488 H 438.197 5.48847 -0.0762682 0
M  V30 4489 H 438.458 4.26655 1.15835 0
M  V30 4490 N 437.518 0.538854 1.48102 0
M  V30 4491 C 438.481 -0.208395 2.28251 0
M  V30 4492 C 439.481 -0.859656 1.35892 0
M  V30 4493 O 440.671 -0.71834 1.58699 0
M  V30 4494 C 437.803 -1.30252 3.15035 0
M  V30 4495 H 438.996 0.495407 2.9578 0
M  V30 4496 H 436.549 0.295112 1.53489 0
M  V30 4497 H 437.284 -2.0393 2.52157 0
M  V30 4498 H 437.069 -0.840551 3.82985 0
M  V30 4499 H 438.559 -1.82787 3.75471 0
M  V30 4500 N 438.996 -1.55193 0.274407 0
M  V30 4501 C 439.944 -2.23924 -0.629362 0
M  V30 4502 C 440.938 -1.23602 -1.1584 0
M  V30 4503 O 442.144 -1.41535 -1.11211 0
M  V30 4504 H 438.519 -0.718637 -0.221507 0
M  V30 4505 H 440.49 -2.98388 -0.0268322 0
M  V30 4506 C 439.239 -2.97329 -1.80252 0
M  V30 4507 H 438.562 -3.74313 -1.40462 0
M  V30 4508 H 440.002 -3.48743 -2.41152 0
M  V30 4509 C 438.461 -2.0276 -2.69054 0
M  V30 4510 O 438.991 -1.57836 -3.69392 0
M  V30 4511 N 437.197 -1.69275 -2.36208 0
M  V30 4512 H 436.744 -2.06004 -1.54661 0
M  V30 4513 H 436.702 -1.06271 -2.95895 0
M  V30 4514 N 440.474 -0.00167713 -1.576 0
M  V30 4515 C 441.699 0.69739 -1.95323 0
M  V30 4516 C 442.124 1.6642 -0.876706 0
M  V30 4517 O 441.482 1.80548 0.165007 0
M  V30 4518 C 441.53 1.40403 -3.32144 0
M  V30 4519 O 440.634 2.5185 -3.26566 0
M  V30 4520 H 439.975 0.185373 -0.637599 0
M  V30 4521 H 442.505 -0.0553665 -2.04525 0
M  V30 4522 H 442.515 1.76707 -3.67748 0
M  V30 4523 H 441.19 0.695167 -4.10049 0
M  V30 4524 H 439.767 2.17861 -3.0264 0
M  V30 4525 N 441.952 1.55251 0.271103 0
M  V30 4526 C 443.198 1.7713 0.999832 0
M  V30 4527 C 443.553 0.56659 1.83868 0
M  V30 4528 O 442.846 -0.44069 1.86463 0
M  V30 4529 C 443.04 3.01879 1.91321 0
M  V30 4530 C 442.869 4.34368 1.16426 0
M  V30 4531 C 441.639 4.97593 0.879169 0
M  V30 4532 C 443.837 5.1131 0.553749 0
M  V30 4533 N 441.819 6.13813 0.103618 0
M  V30 4534 C 443.19 6.19938 -0.0875442 0
M  V30 4535 C 445.245 4.95754 0.461782 0
M  V30 4536 C 443.948 7.14703 -0.811942 0
M  V30 4537 C 445.974 5.90875 -0.249027 0
M  V30 4538 C 445.336 6.98893 -0.879051 0
M  V30 4539 H 441.435 0.700407 0.347784 0
M  V30 4540 H 444.019 1.92744 0.275314 0
M  V30 4541 H 442.19 2.87637 2.60997 0
M  V30 4542 H 443.922 3.12154 2.57569 0
M  V30 4543 H 440.677 4.58538 1.18491 0
M  V30 4544 H 441.101 6.76455 -0.271543 0
M  V30 4545 H 445.743 4.12342 0.934552 0
M  V30 4546 H 443.461 7.97634 -1.29639 0
M  V30 4547 H 447.047 5.80916 -0.320529 0
M  V30 4548 H 445.927 7.71231 -1.42031 0
M  V30 4549 N 443.43 -0.535701 1.48216 0
M  V30 4550 C 444.378 -1.66179 1.62749 0
M  V30 4551 C 445.372 -1.62034 0.49409 0
M  V30 4552 O 446.578 -1.6696 0.672624 0
M  V30 4553 H 442.953 -0.550244 0.512578 0
M  V30 4554 H 444.924 -1.51063 2.57337 0
M  V30 4555 C 443.673 -3.04471 1.67907 0
M  V30 4556 H 442.996 -3.08351 2.54479 0
M  V30 4557 H 444.436 -3.82894 1.82121 0
M  V30 4558 C 442.895 -3.34314 0.416596 0
M  V30 4559 O 443.425 -3.98905 -0.473014 0
M  V30 4560 N 441.631 -2.89149 0.290038 0
M  V30 4561 H 441.178 -2.36764 1.01493 0
M  V30 4562 H 441.136 -3.09486 -0.55367 0
M  V30 4563 N 444.908 -1.36708 -0.784132 0
M  V30 4564 C 446.136 -1.34398 -1.57305 0
M  V30 4565 C 446.551 0.0735577 -1.88657 0
M  V30 4566 O 445.908 1.03193 -1.50524 0
M  V30 4567 C 445.959 -2.17053 -2.89085 0
M  V30 4568 O 445.68 -3.53281 -2.59083 0
M  V30 4569 C 447.181 -2.22583 -3.83369 0
M  V30 4570 H 444.401 -0.460819 -0.487736 0
M  V30 4571 H 446.945 -1.79879 -0.972819 0
M  V30 4572 H 445.1 -1.75113 -3.45564 0
M  V30 4573 H 445.514 -3.9647 -3.43383 0
M  V30 4574 H 446.988 -2.84763 -4.72878 0
M  V30 4575 H 447.465 -1.23075 -4.21603 0
M  V30 4576 H 448.071 -2.64781 -3.32823 0
M  V30 4577 N 446.386 1.0089 -1.21074 0
M  V30 4578 C 447.663 1.71834 -0.934469 0
M  V30 4579 C 448.043 2.0368 0.554753 0
M  V30 4580 O 447.391 1.70742 1.51854 0
M  V30 4581 C 447.601 2.98061 -1.8155 0
M  V30 4582 C 448.949 3.7117 -2.06199 0
M  V30 4583 O 449.973 3.08034 -1.78867 0
M  V30 4584 O 448.832 4.84721 -2.52404 0
M  V30 4585 H 445.926 0.749253 -0.35007 0
M  V30 4586 H 448.472 1.06668 -1.31985 0
M  V30 4587 H 447.244 2.70908 -2.82355 0
M  V30 4588 H 446.867 3.70968 -1.43068 0
M  V30 4589 N 447.864 1.01787 1.20321 0
M  V30 4590 C 449.11 0.718699 1.90279 0
M  V30 4591 C 449.465 -0.743669 1.77447 0
M  V30 4592 O 448.758 -1.53345 1.14874 0
M  V30 4593 C 448.952 1.09076 3.40349 0
M  V30 4594 C 448.781 2.58775 3.67784 0
M  V30 4595 C 447.551 3.25578 3.86428 0
M  V30 4596 C 449.749 3.56966 3.70243 0
M  V30 4597 N 447.731 4.64495 4.01395 0
M  V30 4598 C 449.102 4.8145 3.90649 0
M  V30 4599 C 451.157 3.5092 3.53213 0
M  V30 4600 C 449.86 6.00619 3.95789 0
M  V30 4601 C 451.886 4.69493 3.59625 0
M  V30 4602 C 451.248 5.92786 3.80505 0
M  V30 4603 H 447.347 0.31468 0.715891 0
M  V30 4604 H 449.931 1.30295 1.44677 0
M  V30 4605 H 448.102 0.534839 3.847 0
M  V30 4606 H 449.834 0.744997 3.97784 0
M  V30 4607 H 446.589 2.76003 3.84862 0
M  V30 4608 H 447.013 5.36624 4.12752 0
M  V30 4609 H 451.655 2.56593 3.36035 0
M  V30 4610 H 449.373 6.95326 4.11762 0
M  V30 4611 H 452.959 4.66432 3.47754 0
M  V30 4612 H 451.839 6.83003 3.85327 0
M  V30 4613 N 449.342 -1.36122 0.79427 0
M  V30 4614 C 450.59 -1.98718 0.368177 0
M  V30 4615 C 450.911 -1.63345 -1.06506 0
M  V30 4616 O 450.181 -0.909825 -1.73491 0
M  V30 4617 H 448.761 -0.735038 0.133146 0
M  V30 4618 H 451.423 -1.66239 1.01739 0
M  V30 4619 H 450.519 -3.08633 0.463923 0
M  V30 4620 N 450.82 -0.546701 -1.47814 0
M  V30 4621 C 452.097 0.0464413 -1.95545 0
M  V30 4622 C 452.477 1.4962 -1.48919 0
M  V30 4623 O 451.825 2.16752 -0.723232 0
M  V30 4624 C 452.035 -0.0881298 -3.48889 0
M  V30 4625 C 453.383 0.0626059 -4.24554 0
M  V30 4626 O 454.407 -0.0151555 -3.56197 0
M  V30 4627 O 453.266 0.228071 -5.46024 0
M  V30 4628 H 450.36 0.0700004 -0.824032 0
M  V30 4629 H 452.906 -0.612482 -1.58262 0
M  V30 4630 H 451.678 -1.09737 -3.75597 0
M  V30 4631 H 451.301 0.608886 -3.9291 0
M  V30 4632 N 452.299 1.55045 -0.282633 0
M  V30 4633 C 453.247 2.24254 0.617478 0
M  V30 4634 C 454.241 1.24215 1.15183 0
M  V30 4635 O 455.447 1.42123 1.10459 0
M  V30 4636 H 451.822 0.719801 0.217693 0
M  V30 4637 H 453.793 2.98398 0.0110076 0
M  V30 4638 C 452.542 2.98281 1.78672 0
M  V30 4639 H 451.865 3.75053 1.38475 0
M  V30 4640 H 453.305 3.50017 2.393 0
M  V30 4641 C 451.764 2.04184 2.67975 0
M  V30 4642 O 452.294 1.59792 3.6855 0
M  V30 4643 N 450.5 1.70526 2.35307 0
M  V30 4644 H 450.047 2.06821 1.53567 0
M  V30 4645 H 450.005 1.07839 2.95327 0
M  V30 4646 N 453.777 0.010035 1.57597 0
M  V30 4647 C 455.025 -0.671371 1.90623 0
M  V30 4648 C 455.346 -1.73753 0.885151 0
M  V30 4649 O 454.616 -1.95752 -0.0760611 0
M  V30 4650 H 453.196 -0.250968 0.703579 0
M  V30 4651 H 455.858 0.0533325 1.94827 0
M  V30 4652 H 454.954 -1.13626 2.90681 0
M  V30 4653 N 455.255 -1.55392 -0.262866 0
M  V30 4654 C 456.502 -1.76476 -0.993109 0
M  V30 4655 C 456.83 -0.571479 -1.85915 0
M  V30 4656 O 456.085 0.445733 -1.90556 0
M  V30 4657 C 456.384 -3.02889 -1.89718 0
M  V30 4658 C 456.05 -4.34974 -1.18781 0
M  V30 4659 C 454.712 -4.7087 -0.991699 0
M  V30 4660 C 457.064 -5.16695 -0.683798 0
M  V30 4661 C 454.392 -5.86036 -0.279024 0
M  V30 4662 C 456.744 -6.32598 0.0153327 0
M  V30 4663 C 455.408 -6.67127 0.223062 0
M  V30 4664 H 454.678 -0.64577 -0.363404 0
M  V30 4665 H 457.325 -1.89664 -0.264525 0
M  V30 4666 H 455.63 -2.84644 -2.6923 0
M  V30 4667 H 457.327 -3.16399 -2.46359 0
M  V30 4668 H 453.917 -4.06765 -1.35058 0
M  V30 4669 H 458.101 -4.8943 -0.8229 0
M  V30 4670 H 453.357 -6.11306 -0.107456 0
M  V30 4671 H 457.531 -6.95171 0.413584 0
M  V30 4672 H 455.158 -7.56216 0.777265 0
M  V30 4673 N 456.733 0.527833 -1.48498 0
M  V30 4674 C 457.98 1.28354 -1.56625 0
M  V30 4675 C 458.308 1.93 -0.241096 0
M  V30 4676 O 457.563 1.79967 0.768798 0
M  V30 4677 C 457.862 2.39275 -2.65485 0
M  V30 4678 C 457.528 1.92268 -4.07853 0
M  V30 4679 C 456.19 1.79166 -4.46602 0
M  V30 4680 C 458.542 1.56771 -4.97064 0
M  V30 4681 C 455.87 1.28905 -5.72364 0
M  V30 4682 C 458.222 1.07972 -6.23318 0
M  V30 4683 C 456.886 0.934887 -6.60921 0
M  V30 4684 H 456.156 0.469682 -0.573131 0
M  V30 4685 H 458.803 0.588781 -1.82224 0
M  V30 4686 H 457.108 3.1443 -2.33754 0
M  V30 4687 H 458.805 2.974 -2.68988 0
M  V30 4688 H 455.395 2.03417 -3.77252 0
M  V30 4689 H 459.579 1.65753 -4.67803 0
M  V30 4690 H 454.835 1.16381 -6.00221 0
M  V30 4691 H 459.009 0.795775 -6.91838 0
M  V30 4692 H 456.636 0.543231 -7.58257 0
M  V30 4693 N 458.211 1.37122 0.776871 0
M  V30 4694 C 459.158 1.3247 1.88998 0
M  V30 4695 C 460.128 0.191143 1.64997 0
M  V30 4696 O 461.313 0.379683 1.86984 0
M  V30 4697 C 458.453 1.13241 3.25992 0
M  V30 4698 C 457.566 2.35782 3.61982 0
M  V30 4699 C 456.701 2.09465 4.88158 0
M  V30 4700 C 455.74 3.279 5.16864 0
M  V30 4701 N 454.877 3.01167 6.34226 0
M  V30 4702 H 459.717 2.27642 1.9231 0
M  V30 4703 H 457.254 1.13125 0.94027 0
M  V30 4704 H 459.212 1.00115 4.0501 0
M  V30 4705 H 457.842 0.217186 3.22069 0
M  V30 4706 H 456.894 2.59666 2.77989 0
M  V30 4707 H 458.206 3.24125 3.79137 0
M  V30 4708 H 457.36 1.93341 5.75069 0
M  V30 4709 H 456.099 1.18452 4.73097 0
M  V30 4710 H 455.104 3.44569 4.2843 0
M  V30 4711 H 456.329 4.19757 5.33836 0
M  V30 4712 H 454.275 2.12779 6.20533 0
M  V30 4713 H 454.192 3.83052 6.51772 0
M  V30 4714 H 455.46 2.88649 7.24087 0
M  V30 4715 N 459.689 -1.00246 1.21608 0
M  V30 4716 C 460.938 -1.73476 1.02902 0
M  V30 4717 C 461.251 -1.90643 -0.437561 0
M  V30 4718 O 462.457 -2.61105 -0.74407 0
M  V30 4719 C 460.913 -3.12079 1.79261 0
M  V30 4720 C 460.521 -3.02877 3.30106 0
M  V30 4721 C 462.265 -3.89421 1.68972 0
M  V30 4722 C 460.172 -4.36575 3.98944 0
M  V30 4723 H 459.102 -0.650408 0.381425 0
M  V30 4724 H 461.753 -1.11985 1.45367 0
M  V30 4725 H 460.135 -3.74196 1.2959 0
M  V30 4726 H 461.309 -2.49983 3.87098 0
M  V30 4727 H 459.624 -2.39022 3.40965 0
M  V30 4728 H 462.221 -4.88362 2.17731 0
M  V30 4729 H 462.564 -4.1122 0.648397 0
M  V30 4730 H 463.097 -3.33963 2.16133 0
M  V30 4731 H 459.836 -4.19978 5.03288 0
M  V30 4732 H 459.356 -4.8942 3.4674 0
M  V30 4733 H 461.035 -5.05364 4.04 0
M  V30 4734 N 461.167 -1.02423 -1.1978 0
M  V30 4735 C 462.097 -0.62157 -2.25075 0
M  V30 4736 C 463.078 0.367148 -1.6609 0
M  V30 4737 O 464.263 0.250892 -1.92573 0
M  V30 4738 C 461.393 0.0331826 -3.47284 0
M  V30 4739 C 460.347 -0.877323 -4.18912 0
M  V30 4740 C 459.673 -0.0879296 -5.34628 0
M  V30 4741 C 460.973 -2.18892 -4.74219 0
M  V30 4742 H 462.667 -1.50179 -2.59011 0
M  V30 4743 H 460.213 -0.723547 -1.24502 0
M  V30 4744 H 462.166 0.326488 -4.20133 0
M  V30 4745 H 460.89 0.948164 -3.12534 0
M  V30 4746 H 459.549 -1.15475 -3.47938 0
M  V30 4747 H 459.197 0.828941 -4.96123 0
M  V30 4748 H 458.897 -0.694359 -5.83483 0
M  V30 4749 H 460.421 0.198743 -6.10276 0
M  V30 4750 H 461.835 -1.95746 -5.38847 0
M  V30 4751 H 460.232 -2.74686 -5.33542 0
M  V30 4752 H 461.302 -2.84674 -3.92541 0
M  V30 4753 N 462.645 1.35699 -0.801477 0
M  V30 4754 C 464.061 1.52065 -0.484596 0
M  V30 4755 C 464.261 1.75215 0.995084 0
M  V30 4756 O 463.317 1.79061 1.78026 0
M  V30 4757 C 464.63 2.69908 -1.32552 0
M  V30 4758 C 466.178 2.83784 -1.32044 0
M  V30 4759 C 466.653 4.04646 -2.14536 0
M  V30 4760 N 468.144 4.11814 -2.12046 0
M  V30 4761 C 468.879 5.04437 -2.72636 0
M  V30 4762 N 468.375 6.02426 -3.42133 0
M  V30 4763 N 470.168 4.97144 -2.62305 0
M  V30 4764 H 462.319 1.18928 -1.75983 0
M  V30 4765 H 464.582 0.581455 -0.748741 0
M  V30 4766 H 464.288 2.59363 -2.37537 0
M  V30 4767 H 464.162 3.64376 -0.975181 0
M  V30 4768 H 466.549 2.93783 -0.27846 0
M  V30 4769 H 466.63 1.90188 -1.71062 0
M  V30 4770 H 466.274 3.95407 -3.18772 0
M  V30 4771 H 466.204 4.97413 -1.72882 0
M  V30 4772 H 468.695 3.41664 -1.61476 0
M  V30 4773 H 469.008 6.69688 -3.85666 0
M  V30 4774 H 467.353 6.02615 -3.46237 0
M  V30 4775 H 470.544 4.19546 -2.07603 0
M  V30 4776 H 470.717 5.69138 -3.09815 0
M  V30 4777 N 464.123 0.554532 1.47522 0
M  V30 4778 C 465.371 0.0294208 2.02079 0
M  V30 4779 C 465.692 -1.32411 1.43151 0
M  V30 4780 O 464.962 -1.863 0.605728 0
M  V30 4781 H 463.542 0.00788672 0.746958 0
M  V30 4782 H 466.204 0.723934 1.80956 0
M  V30 4783 H 465.3 -0.0606745 3.12041 0
M  V30 4784 N 465.601 -1.54893 0.290851 0
M  V30 4785 C 466.533 -2.20564 -0.623236 0
M  V30 4786 C 467.546 -1.19519 -1.1054 0
M  V30 4787 O 468.735 -1.46165 -1.02459 0
M  V30 4788 C 465.835 -2.83033 -1.86401 0
M  V30 4789 C 465.008 -4.09916 -1.52604 0
M  V30 4790 C 464.067 -4.56284 -2.62091 0
M  V30 4791 O 463.093 -5.2171 -2.27612 0
M  V30 4792 N 464.295 -4.27746 -3.92446 0
M  V30 4793 H 467.06 -2.99638 -0.0610915 0
M  V30 4794 H 464.621 -1.61508 0.112615 0
M  V30 4795 H 466.613 -3.1099 -2.58973 0
M  V30 4796 H 465.183 -2.0786 -2.33481 0
M  V30 4797 H 464.403 -3.89078 -0.633424 0
M  V30 4798 H 465.691 -4.92554 -1.27547 0
M  V30 4799 H 465.089 -3.7531 -4.23272 0
M  V30 4800 H 463.646 -4.60437 -4.61347 0
M  V30 4801 N 467.08 -0.0183926 -1.57589 0
M  V30 4802 C 468.357 0.700621 -1.82622 0
M  V30 4803 C 468.737 1.90951 -0.90005 0
M  V30 4804 O 468.085 2.28452 0.0469145 0
M  V30 4805 C 468.295 1.08899 -3.31575 0
M  V30 4806 C 469.643 1.48514 -3.9778 0
M  V30 4807 O 470.667 1.18227 -3.36007 0
M  V30 4808 O 469.526 2.04903 -5.06633 0
M  V30 4809 H 466.62 0.342743 -0.752633 0
M  V30 4810 H 469.166 -0.0452548 -1.6964 0
M  V30 4811 H 467.938 0.228113 -3.90635 0
M  V30 4812 H 467.561 1.89338 -3.49624 0
M  V30 4813 N 468.558 1.5553 0.254621 0
M  V30 4814 C 469.508 1.86057 1.31783 0
M  V30 4815 C 470.492 0.720827 1.4385 0
M  V30 4816 O 471.684 0.982586 1.47222 0
M  V30 4817 C 468.813 2.15203 2.67475 0
M  V30 4818 C 467.899 3.35484 2.59444 0
M  V30 4819 N 468.29 4.54945 2.2104 0
M  V30 4820 C 466.588 3.38441 2.90472 0
M  V30 4821 C 467.289 5.3707 2.23453 0
M  V30 4822 N 466.265 4.75936 2.62652 0
M  V30 4823 H 470.067 2.75953 1.01129 0
M  V30 4824 H 467.581 1.55653 0.463255 0
M  V30 4825 H 469.578 2.35235 3.44195 0
M  V30 4826 H 468.238 1.26601 2.99002 0
M  V30 4827 H 469.249 4.8071 1.92712 0
M  V30 4828 H 465.926 2.60087 3.2659 0
M  V30 4829 H 467.316 6.42626 1.96166 0
M  V30 4830 N 470.036 -0.519951 1.48776 0
M  V30 4831 C 471.276 -1.2856 1.58908 0
M  V30 4832 C 471.64 -1.90212 0.261418 0
M  V30 4833 O 472.841 -2.67746 0.237791 0
M  V30 4834 C 471.112 -2.33836 2.70288 0
M  V30 4835 S 472.671 -3.19992 3.0025 0
M  V30 4836 H 469.489 -0.43717 0.560717 0
M  V30 4837 H 472.091 -0.591205 1.86346 0
M  V30 4838 H 470.795 -1.87041 3.653 0
M  V30 4839 H 470.326 -3.07969 2.44783 0
M  V30 4840 H 472.341 -4.34122 2.40317 0
M  V30 4841 N 471.514 -1.37532 -0.769588 0
M  V30 4842 C 472.762 -1.32597 -1.5252 0
M  V30 4843 C 473.083 0.0884294 -1.94799 0
M  V30 4844 O 472.353 1.03289 -1.66458 0
M  V30 4845 H 470.933 -0.487846 -0.565699 0
M  V30 4846 H 473.595 -1.72044 -0.915806 0
M  V30 4847 H 472.691 -1.96643 -2.42359 0
M  V30 4848 N 472.992 0.995999 -1.22138 0
M  V30 4849 C 474.241 1.72928 -1.03821 0
M  V30 4850 C 474.554 1.90872 0.427444 0
M  V30 4851 O 475.76 2.61496 0.730212 0
M  V30 4852 C 474.216 3.11124 -1.80913 0
M  V30 4853 C 473.824 3.01122 -3.31707 0
M  V30 4854 C 475.568 3.8852 -1.71035 0
M  V30 4855 C 473.475 4.34453 -4.01253 0
M  V30 4856 H 472.405 0.648376 -0.384869 0
M  V30 4857 H 475.056 1.11213 -1.45959 0
M  V30 4858 H 473.438 3.73503 -1.31573 0
M  V30 4859 H 474.612 2.47926 -3.88419 0
M  V30 4860 H 472.927 2.3721 -3.42228 0
M  V30 4861 H 475.524 4.872 -2.20318 0
M  V30 4862 H 475.867 4.1087 -0.670196 0
M  V30 4863 H 476.4 3.32812 -2.17902 0
M  V30 4864 H 473.139 4.17303 -5.05508 0
M  V30 4865 H 472.659 4.87574 -3.49331 0
M  V30 4866 H 474.338 5.03215 -4.06674 0
M  V30 4867 N 474.47 1.03057 1.19235 0
M  V30 4868 C 475.38 0.622922 2.26179 0
M  V30 4869 C 476.396 -0.346113 1.70523 0
M  V30 4870 O 477.572 -0.203572 2.00369 0
M  V30 4871 C 474.637 -0.0182063 3.46695 0
M  V30 4872 C 473.698 0.998546 4.17526 0
M  V30 4873 C 472.931 0.387917 5.32288 0
M  V30 4874 O 473.154 -0.808668 5.64639 0
M  V30 4875 O 472.088 1.1116 5.91546 0
M  V30 4876 H 475.914 1.51363 2.63292 0
M  V30 4877 H 473.499 0.800856 1.26122 0
M  V30 4878 H 475.381 -0.375606 4.19723 0
M  V30 4879 H 474.056 -0.882895 3.11427 0
M  V30 4880 H 472.963 1.40756 3.4661 0
M  V30 4881 H 474.296 1.83366 4.56769 0
M  V30 4882 N 475.948 -1.35272 0.808662 0
M  V30 4883 C 477.173 -2.03477 0.401475 0
M  V30 4884 C 477.598 -1.60537 -0.980279 0
M  V30 4885 O 476.956 -0.78304 -1.63518 0
M  V30 4886 C 477.004 -3.57181 0.495354 0
M  V30 4887 O 476.108 -4.09474 -0.490397 0
M  V30 4888 H 475.449 -0.642561 0.167366 0
M  V30 4889 H 477.979 -1.72824 1.09512 0
M  V30 4890 H 477.989 -4.06356 0.365912 0
M  V30 4891 H 476.664 -3.87784 1.5032 0
M  V30 4892 H 475.241 -3.71516 -0.321023 0
M  V30 4893 N 477.426 -0.562348 -1.47226 0
M  V30 4894 C 478.336 0.185466 -2.33866 0
M  V30 4895 C 479.352 0.906713 -1.48508 0
M  V30 4896 O 480.528 0.874458 -1.81425 0
M  V30 4897 C 477.593 1.19904 -3.25306 0
M  V30 4898 C 476.654 0.484669 -4.26555 0
M  V30 4899 C 475.887 1.44996 -5.13626 0
M  V30 4900 O 476.11 2.68515 -5.03245 0
M  V30 4901 O 475.044 0.971642 -5.94006 0
M  V30 4902 H 478.87 -0.525361 -2.99121 0
M  V30 4903 H 476.455 -0.322916 -1.45868 0
M  V30 4904 H 478.337 1.78399 -3.81774 0
M  V30 4905 H 477.012 1.8917 -2.62672 0
M  V30 4906 H 475.919 -0.141605 -3.73832 0
M  V30 4907 H 477.252 -0.166634 -4.91918 0
M  V30 4908 N 478.904 1.54736 -0.299062 0
M  V30 4909 C 480.15 2.00397 0.311244 0
M  V30 4910 C 480.483 1.18716 1.53688 0
M  V30 4911 O 479.758 0.263154 1.92712 0
M  V30 4912 C 480.041 3.53817 0.669761 0
M  V30 4913 C 479.894 4.46239 -0.564882 0
M  V30 4914 C 481.213 4.13856 1.49702 0
M  V30 4915 H 478.332 0.728493 0.111653 0
M  V30 4916 H 480.974 1.85506 -0.410774 0
M  V30 4917 H 479.124 3.66637 1.28491 0
M  V30 4918 H 480.796 4.45328 -1.20337 0
M  V30 4919 H 479.039 4.16916 -1.19849 0
M  V30 4920 H 479.71 5.5134 -0.269918 0
M  V30 4921 H 482.186 4.04461 0.977284 0
M  V30 4922 H 481.062 5.21365 1.71666 0
M  V30 4923 H 481.323 3.65608 2.48563 0
M  V30 4924 N 480.382 0.0267497 1.57577 0
M  V30 4925 C 481.628 -0.653371 1.91987 0
M  V30 4926 C 481.961 -1.71915 0.903263 0
M  V30 4927 O 481.236 -1.94358 -0.0743387 0
M  V30 4928 C 481.519 -1.272 3.36886 0
M  V30 4929 C 481.372 -0.215938 4.49281 0
M  V30 4930 C 482.691 -2.19069 3.81703 0
M  V30 4931 H 479.81 -0.236047 0.698177 0
M  V30 4932 H 482.452 0.0835236 1.89816 0
M  V30 4933 H 480.602 -1.90005 3.38866 0
M  V30 4934 H 482.274 0.41449 4.59434 0
M  V30 4935 H 480.517 0.458855 4.31366 0
M  V30 4936 H 481.188 -0.688347 5.47691 0
M  V30 4937 H 483.664 -1.66253 3.81444 0
M  V30 4938 H 482.54 -2.59307 4.83788 0
M  V30 4939 H 482.801 -3.08087 3.17072 0
M  V30 4940 N 481.861 -1.55662 -0.24637 0
M  V30 4941 C 482.824 -1.89558 -1.28842 0
M  V30 4942 C 483.824 -0.772082 -1.41052 0
M  V30 4943 O 485.014 -1.04007 -1.39743 0
M  V30 4944 C 482.146 -2.12449 -2.66605 0
M  V30 4945 H 483.339 -2.82735 -1.00004 0
M  V30 4946 H 480.892 -1.48562 -0.485684 0
M  V30 4947 H 481.627 -1.21742 -3.00582 0
M  V30 4948 H 481.412 -2.94273 -2.59125 0
M  V30 4949 H 482.902 -2.39854 -3.41847 0
M  V30 4950 N 483.339 0.512053 -1.4905 0
M  V30 4951 C 484.587 1.26436 -1.57665 0
M  V30 4952 C 484.908 1.93255 -0.260293 0
M  V30 4953 O 484.178 1.82206 0.719564 0
M  V30 4954 H 482.758 0.469658 -0.580888 0
M  V30 4955 H 485.42 0.594398 -1.85615 0
M  V30 4956 H 484.516 2.03417 -2.36702 0
M  V30 4957 N 484.817 1.37938 0.762283 0
M  V30 4958 C 486.066 1.32989 1.51647 0
M  V30 4959 C 486.379 -0.0802922 1.95435 0
M  V30 4960 O 487.585 -0.252295 2.70325 0
M  V30 4961 C 486.041 2.33485 2.73885 0
M  V30 4962 C 485.649 3.80079 2.37157 0
M  V30 4963 C 487.393 2.37563 3.51801 0
M  V30 4964 C 485.3 4.72283 3.55954 0
M  V30 4965 H 484.23 0.494301 0.56937 0
M  V30 4966 H 486.881 1.63448 0.834083 0
M  V30 4967 H 485.263 1.96056 3.44061 0
M  V30 4968 H 486.437 4.26398 1.74704 0
M  V30 4969 H 484.752 3.79037 1.72395 0
M  V30 4970 H 487.349 3.0365 4.40114 0
M  V30 4971 H 487.692 1.39199 3.92338 0
M  V30 4972 H 488.225 2.73747 2.8863 0
M  V30 4973 H 484.964 5.7181 3.2049 0
M  V30 4974 H 484.484 4.30663 4.1748 0
M  V30 4975 H 486.163 4.89876 4.22647 0
M  V30 4976 N 486.295 -0.989507 1.22664 0
M  V30 4977 C 487.706 -1.54406 1.04955 0
M  V30 4978 C 488.057 -1.92366 -0.385951 0
M  V30 4979 O 487.182 -1.75111 -1.27142 0
M  V30 4980 C 487.777 -2.80578 1.89899 0
M  V30 4981 C 486.336 -3.32464 1.76478 0
M  V30 4982 C 485.483 -2.05524 1.86159 0
M  V30 4983 H 488.434 -0.810211 1.3646 0
M  V30 4984 H 488.455 -3.53075 1.4184 0
M  V30 4985 H 487.967 -2.52918 2.94371 0
M  V30 4986 H 486.068 -3.65024 0.747528 0
M  V30 4987 H 486.181 -4.02838 2.59342 0
M  V30 4988 H 484.545 -2.19241 1.29636 0
M  V30 4989 H 485.328 -1.80258 2.92168 0
M  V30 4990 N 487.773 -1.03688 -1.18687 0
M  V30 4991 C 489.189 -0.755413 -1.4059 0
M  V30 4992 C 489.389 0.656659 -1.905 0
M  V30 4993 O 488.445 1.42144 -2.08689 0
M  V30 4994 C 489.758 -1.7983 -2.41001 0
M  V30 4995 C 491.306 -1.81877 -2.54735 0
M  V30 4996 C 491.781 -2.85148 -3.58406 0
M  V30 4997 N 493.272 -2.84015 -3.6591 0
M  V30 4998 C 494.007 -3.60573 -4.45841 0
M  V30 4999 N 493.503 -4.46871 -5.29413 0
M  V30 5000 N 495.296 -3.49079 -4.40568 0
M  V30 5001 H 487.447 -1.94818 -0.846148 0
M  V30 5002 H 489.71 -0.842727 -0.434184 0
M  V30 5003 H 489.416 -2.81097 -2.1137 0
M  V30 5004 H 489.29 -1.62727 -3.40294 0
M  V30 5005 H 491.677 -0.812836 -2.83685 0
M  V30 5006 H 491.758 -2.03057 -1.55568 0
M  V30 5007 H 491.402 -3.85918 -3.30197 0
M  V30 5008 H 491.332 -2.61224 -4.57241 0
M  V30 5009 H 493.823 -2.21431 -3.0623 0
M  V30 5010 H 494.136 -5.02007 -5.87545 0
M  V30 5011 H 492.481 -4.5094 -5.28846 0
M  V30 5012 H 495.672 -2.81066 -3.74325 0
M  V30 5013 H 495.845 -4.08994 -5.02621 0
M  V30 5014 N 489.251 1.34841 -0.815825 0
M  V30 5015 C 490.479 2.0273 -0.413294 0
M  V30 5016 C 490.894 1.61459 0.978599 0
M  V30 5017 O 490.251 0.816584 1.63212 0
M  V30 5018 C 490.302 3.58058 -0.497676 0
M  V30 5019 O 490.023 3.97832 -1.8347 0
M  V30 5020 C 491.524 4.4321 -0.0891339 0
M  V30 5021 H 488.744 0.649956 -0.166728 0
M  V30 5022 H 491.288 1.72267 -1.10201 0
M  V30 5023 H 489.443 3.87136 0.142886 0
M  V30 5024 H 489.857 4.92501 -1.80396 0
M  V30 5025 H 491.331 5.5164 -0.199274 0
M  V30 5026 H 491.808 4.28432 0.966571 0
M  V30 5027 H 492.414 4.19446 -0.703214 0
M  V30 5028 N 490.729 0.570148 1.46925 0
M  V30 5029 C 492.006 -0.0153259 1.95594 0
M  V30 5030 C 492.386 -1.47232 1.51281 0
M  V30 5031 O 491.734 -2.15574 0.757624 0
M  V30 5032 C 491.944 0.143624 3.48704 0
M  V30 5033 C 493.292 0.00494484 4.246 0
M  V30 5034 O 494.316 0.0718214 3.56128 0
M  V30 5035 O 493.175 -0.141175 5.46318 0
M  V30 5036 H 490.269 -0.0568819 0.825041 0
M  V30 5037 H 492.815 0.637583 1.57267 0
M  V30 5038 H 491.587 1.15699 3.73804 0
M  V30 5039 H 491.21 -0.5463 3.93829 0
M  V30 5040 N 492.207 -1.54576 0.307264 0
M  V30 5041 C 493.139 -2.21212 -0.599807 0
M  V30 5042 C 494.152 -1.20685 -1.09266 0
M  V30 5043 O 495.341 -1.47244 -1.00903 0
M  V30 5044 C 492.441 -2.84994 -1.83389 0
M  V30 5045 C 491.614 -4.11511 -1.48248 0
M  V30 5046 C 490.673 -4.59038 -2.57237 0
M  V30 5047 O 489.699 -5.24095 -2.22065 0
M  V30 5048 N 490.901 -4.31884 -3.87887 0
M  V30 5049 H 493.666 -2.99686 -0.0293075 0
M  V30 5050 H 491.227 -1.61379 0.129738 0
M  V30 5051 H 493.219 -3.1372 -2.5566 0
M  V30 5052 H 491.789 -2.10324 -2.31263 0
M  V30 5053 H 491.009 -3.89728 -0.592122 0
M  V30 5054 H 492.297 -4.93879 -1.22316 0
M  V30 5055 H 491.695 -3.79778 -4.19268 0
M  V30 5056 H 490.252 -4.65304 -4.56438 0
M  V30 5057 N 493.685 -0.035106 -1.57561 0
M  V30 5058 C 494.915 0.651312 -1.96065 0
M  V30 5059 C 495.323 1.6585 -0.910514 0
M  V30 5060 O 494.666 1.83336 0.11552 0
M  V30 5061 C 494.728 1.40897 -3.30739 0
M  V30 5062 C 494.392 0.559436 -4.53563 0
M  V30 5063 C 495.389 -0.16778 -5.19629 0
M  V30 5064 C 493.074 0.495079 -4.99854 0
M  V30 5065 C 495.068 -0.947963 -6.30311 0
M  V30 5066 C 492.755 -0.288804 -6.10417 0
M  V30 5067 C 493.753 -1.00903 -6.75505 0
M  V30 5068 O 493.441 -1.78005 -7.83945 0
M  V30 5069 H 493.173 0.184036 -0.650467 0
M  V30 5070 H 495.727 -0.0929677 -2.05189 0
M  V30 5071 H 493.957 2.19852 -3.18123 0
M  V30 5072 H 495.646 1.98407 -3.54104 0
M  V30 5073 H 496.412 -0.12743 -4.84833 0
M  V30 5074 H 492.291 1.04524 -4.48994 0
M  V30 5075 H 495.835 -1.51064 -6.81047 0
M  V30 5076 H 491.732 -0.33085 -6.44652 0
M  V30 5077 H 492.5 -1.70046 -8.00641 0
M  V30 5078 N 495.163 1.55791 0.238111 0
M  V30 5079 C 496.409 1.79211 0.962035 0
M  V30 5080 C 496.764 0.605463 1.82625 0
M  V30 5081 O 496.057 -0.40104 1.87356 0
M  V30 5082 C 496.251 3.05869 1.84875 0
M  V30 5083 C 496.08 4.36739 1.07186 0
M  V30 5084 C 494.85 4.99346 0.773424 0
M  V30 5085 C 497.048 5.1237 0.445168 0
M  V30 5086 N 495.03 6.13894 -0.0266037 0
M  V30 5087 C 496.401 6.19613 -0.219023 0
M  V30 5088 C 498.456 4.96622 0.356522 0
M  V30 5089 C 497.159 7.1282 -0.963358 0
M  V30 5090 C 499.185 5.90214 -0.374304 0
M  V30 5091 C 498.547 6.96872 -1.0271 0
M  V30 5092 H 494.646 0.707627 0.332849 0
M  V30 5093 H 497.23 1.93284 0.234368 0
M  V30 5094 H 495.401 2.93108 2.54837 0
M  V30 5095 H 497.133 3.17547 2.5089 0
M  V30 5096 H 493.888 4.60948 1.08738 0
M  V30 5097 H 494.312 6.75727 -0.414968 0
M  V30 5098 H 498.954 4.14232 0.846878 0
M  V30 5099 H 496.672 7.94704 -1.46529 0
M  V30 5100 H 500.258 5.80106 -0.443678 0
M  V30 5101 H 499.138 7.68045 -1.58358 0
M  V30 5102 N 496.642 -0.504142 1.49319 0
M  V30 5103 C 497.552 -1.63248 1.68486 0
M  V30 5104 C 498.568 -1.64488 0.567432 0
M  V30 5105 O 499.744 -1.82966 0.841749 0
M  V30 5106 C 496.809 -2.99627 1.74426 0
M  V30 5107 C 495.87 -3.09039 2.97982 0
M  V30 5108 C 495.103 -4.38913 3.0363 0
M  V30 5109 O 495.326 -5.27528 2.16958 0
M  V30 5110 O 494.26 -4.53231 3.96062 0
M  V30 5111 H 498.086 -1.50008 2.64067 0
M  V30 5112 H 495.671 -0.680086 1.33023 0
M  V30 5113 H 497.553 -3.80689 1.80705 0
M  V30 5114 H 496.228 -3.13136 0.820233 0
M  V30 5115 H 495.135 -2.27177 2.97223 0
M  V30 5116 H 496.468 -3.00456 3.89855 0
M  V30 5117 N 498.12 -1.38341 -0.754957 0
M  V30 5118 C 499.067 -1.3546 -1.86867 0
M  V30 5119 C 500.037 -0.217369 -1.64672 0
M  V30 5120 O 501.222 -0.409383 -1.86356 0
M  V30 5121 C 498.362 -1.18413 -3.24149 0
M  V30 5122 C 497.475 -2.41511 -3.58185 0
M  V30 5123 C 496.61 -2.17205 -4.84763 0
M  V30 5124 C 495.649 -3.36081 -5.11582 0
M  V30 5125 N 494.786 -3.11219 -6.29354 0
M  V30 5126 H 499.626 -2.30672 -1.88664 0
M  V30 5127 H 497.163 -1.14607 -0.922154 0
M  V30 5128 H 499.121 -1.06545 -4.03366 0
M  V30 5129 H 497.751 -0.268397 -3.21682 0
M  V30 5130 H 496.803 -2.64056 -2.73822 0
M  V30 5131 H 498.115 -3.30115 -3.73932 0
M  V30 5132 H 497.269 -2.02465 -5.7192 0
M  V30 5133 H 496.008 -1.25964 -4.71152 0
M  V30 5134 H 495.013 -3.51341 -4.22894 0
M  V30 5135 H 496.238 -4.28196 -5.27091 0
M  V30 5136 H 494.184 -2.22624 -6.17069 0
M  V30 5137 H 494.101 -3.93373 -6.45596 0
M  V30 5138 H 495.369 -3.00132 -7.19403 0
M  V30 5139 N 499.598 0.982988 -1.23187 0
M  V30 5140 C 500.847 1.71817 -1.05649 0
M  V30 5141 C 501.16 1.91315 0.407176 0
M  V30 5142 O 502.366 2.62256 0.702436 0
M  V30 5143 C 500.822 3.09188 -1.84203 0
M  V30 5144 C 500.43 2.97586 -3.34882 0
M  V30 5145 C 502.174 3.86684 -1.75146 0
M  V30 5146 C 500.081 4.30173 -4.05839 0
M  V30 5147 H 499.011 0.644258 -0.391724 0
M  V30 5148 H 501.662 1.09659 -1.4713 0
M  V30 5149 H 500.044 3.72087 -1.35527 0
M  V30 5150 H 501.218 2.43793 -3.91026 0
M  V30 5151 H 499.533 2.33567 -3.44725 0
M  V30 5152 H 502.13 4.84836 -2.25473 0
M  V30 5153 H 502.473 4.10136 -0.713737 0
M  V30 5154 H 503.006 3.30482 -2.21419 0
M  V30 5155 H 499.745 4.11918 -5.09906 0
M  V30 5156 H 499.265 4.83841 -3.54482 0
M  V30 5157 H 500.944 4.98873 -4.11989 0
M  V30 5158 O 501.115 1.16872 1.1146 0
M  V30 5159 H 501.806 0.903209 1.71353 0
M  V30 END ATOM
M  V30 BEGIN BOND
M  V30 END BOND
M  V30 END CTAB
M  END
$$$$
