drugbank_target|P51172 Amiloride-sensitive sodium channel subunit delta (DB00384; DB00594)
 OpenBabel12092119333D

  0  0  0     0  0            999 V3000
M  V30 BEGIN CTAB
M  V30 COUNTS 9776 9921 0 0 0
M  V30 BEGIN ATOM
M  V30 1 H -0.908 1.98254 -0.117106 0
M  V30 2 N 0 1.576 0 0
M  V30 3 C 0.933 2.03868 1.02534 0
M  V30 4 C 1.911 0.928543 1.3348 0
M  V30 5 O 3.095 1.19667 1.45644 0
M  V30 6 C 0.222 2.43627 2.35294 0
M  V30 7 C -0.732 3.65373 2.2001 0
M  V30 8 S 0.101 5.13292 1.52614 0
M  V30 9 C 1.257 5.56322 2.86805 0
M  V30 10 H 1.49 2.90518 0.631377 0
M  V30 11 H -0.977 1.52953 0.210867 0
M  V30 12 H 0.981 2.67203 3.11629 0
M  V30 13 H -0.358 1.57376 2.7183 0
M  V30 14 H -1.165 3.90944 3.18086 0
M  V30 15 H -1.563 3.418 1.51819 0
M  V30 16 H 0.729 5.58782 3.83104 0
M  V30 17 H 1.672 6.56266 2.65933 0
M  V30 18 H 2.08 4.83886 2.90714 0
M  V30 19 N 1.4781 -0.272755 1.55222 0
M  V30 20 C 2.4411 -1.32041 1.87344 0
M  V30 21 C 3.4411 -1.42342 0.74803 0
M  V30 22 O 4.6311 -1.41488 1.0162 0
M  V30 23 C 1.7631 -2.70173 2.07893 0
M  V30 24 H 2.9561 -1.04789 2.80997 0
M  V30 25 H 0.5091 -0.51083 1.47717 0
M  V30 26 H 1.2441 -3.02605 1.16622 0
M  V30 27 H 1.0291 -2.64082 2.89833 0
M  V30 28 H 2.5191 -3.45869 2.34017 0
M  V30 29 N 2.9562 -1.48159 -0.537278 0
M  V30 30 C 3.8662 -1.64807 -1.6696 0
M  V30 31 C 4.8822 -0.530651 -1.65711 0
M  V30 32 O 6.0582 -0.800784 -1.84796 0
M  V30 33 C 3.1232 -1.67708 -3.03438 0
M  V30 34 C 2.1842 -2.91025 -3.156 0
M  V30 35 C 1.4172 -2.93778 -4.45567 0
M  V30 36 O 1.6402 -2.05153 -5.3223 0
M  V30 37 O 0.5742 -3.85868 -4.61941 0
M  V30 38 H 4.4002 -2.6066 -1.55853 0
M  V30 39 H 1.9852 -1.31475 -0.709549 0
M  V30 40 H 3.8672 -1.7218 -3.84619 0
M  V30 41 H 2.5422 -0.750278 -3.14885 0
M  V30 42 H 1.4492 -2.92089 -2.33741 0
M  V30 43 H 2.7822 -3.83065 -3.09066 0
M  V30 44 N 4.4343 0.785586 -1.36625 0
M  V30 45 C 5.3843 1.88822 -1.27789 0
M  V30 46 C 6.3683 1.60014 -0.168579 0
M  V30 47 O 7.5603 1.72381 -0.401737 0
M  V30 48 C 4.6893 3.26092 -1.07327 0
M  V30 49 C 3.7753 3.60897 -2.22743 0
M  V30 50 N 4.1663 3.66982 -3.48077 0
M  V30 51 C 2.4643 3.90981 -2.14593 0
M  V30 52 C 3.1653 3.98137 -4.24101 0
M  V30 53 N 2.1413 4.13319 -3.53084 0
M  V30 54 H 5.9433 1.91759 -2.22723 0
M  V30 55 H 3.4573 0.981311 -1.29399 0
M  V30 56 H 5.4543 4.04954 -0.990842 0
M  V30 57 H 4.1143 3.24428 -0.132977 0
M  V30 58 H 5.1253 3.49531 -3.82163 0
M  V30 59 H 1.8023 3.9722 -1.2854 0
M  V30 60 H 3.1923 4.09737 -5.32509 0
M  V30 61 N 5.9124 1.20967 1.01018 0
M  V30 62 C 7.3284 0.965905 1.27053 0
M  V30 63 C 7.5284 -0.350785 1.98423 0
M  V30 64 O 6.5844 -1.07773 2.28344 0
M  V30 65 C 7.8974 2.15294 2.09926 0
M  V30 66 C 9.4454 2.19463 2.23171 0
M  V30 67 C 9.9204 3.3767 3.09424 0
M  V30 68 N 11.4114 3.37724 3.17012 0
M  V30 69 C 12.1464 4.25837 3.83993 0
M  V30 70 N 11.6424 5.24138 4.53047 0
M  V30 71 N 13.4354 4.1366 3.80581 0
M  V30 72 H 5.5864 2.0565 0.531194 0
M  V30 73 H 7.8494 0.90024 0.297106 0
M  V30 74 H 7.5554 3.10684 1.64828 0
M  V30 75 H 7.4294 2.13923 3.10672 0
M  V30 76 H 9.8164 1.24632 2.6749 0
M  V30 77 H 9.8974 2.2488 1.21912 0
M  V30 78 H 9.5414 4.32791 2.65808 0
M  V30 79 H 9.4714 3.29491 4.10784 0
M  V30 80 H 11.9624 2.6658 2.6785 0
M  V30 81 H 12.2754 5.87684 5.01844 0
M  V30 82 H 10.6204 5.28068 4.5185 0
M  V30 83 H 13.8114 3.36127 3.25785 0
M  V30 84 H 13.9844 4.82538 4.32505 0
M  V30 85 N 7.3905 -1.2043 1.01659 0
M  V30 86 C 8.6155 -1.94318 0.724942 0
M  V30 87 C 9.0405 -1.74266 -0.708034 0
M  V30 88 O 8.3985 -1.03694 -1.48719 0
M  V30 89 C 8.4465 -3.44486 1.06591 0
M  V30 90 O 7.5505 -4.12017 0.177599 0
M  V30 91 H 6.8915 -0.60708 0.26898 0
M  V30 92 H 9.4215 -1.52861 1.35995 0
M  V30 93 H 9.4315 -3.95106 1.01762 0
M  V30 94 H 8.1065 -3.58404 2.10997 0
M  V30 95 H 6.6835 -3.71821 0.283421 0
M  V30 96 N 8.8686 -0.792821 -1.36206 0
M  V30 97 C 9.8016 -0.139422 -2.27774 0
M  V30 98 C 10.7796 0.68649 -1.47398 0
M  V30 99 O 11.9636 0.656738 -1.7669 0
M  V30 100 C 9.0906 0.807947 -3.28922 0
M  V30 101 C 8.1366 0.0633999 -4.26453 0
M  V30 102 S 8.9696 -1.26319 -5.20388 0
M  V30 103 C 10.1256 -0.31991 -6.25082 0
M  V30 104 H 10.3586 -0.915809 -2.82843 0
M  V30 105 H 7.8916 -0.587203 -1.42798 0
M  V30 106 H 9.8496 1.34908 -3.87699 0
M  V30 107 H 8.5106 1.55761 -2.72759 0
M  V30 108 H 7.7036 0.782386 -4.9789 0
M  V30 109 H 7.3056 -0.407352 -3.71775 0
M  V30 110 H 9.5976 0.499985 -6.75653 0
M  V30 111 H 10.5406 -1.00307 -7.00959 0
M  V30 112 H 10.9486 0.0782694 -5.64446 0
M  V30 113 N 10.3467 1.47872 -0.545128 0
M  V30 114 C 11.6237 1.9554 0.0485222 0
M  V30 115 C 12.0037 1.4876 1.49779 0
M  V30 116 O 11.3517 0.720925 2.16829 0
M  V30 117 C 11.5617 3.48898 -0.084417 0
M  V30 118 C 12.9097 4.24547 0.0671239 0
M  V30 119 O 13.9337 3.56198 -0.0113649 0
M  V30 120 O 12.7927 5.45999 0.233882 0
M  V30 121 H 9.8867 0.823957 0.0708773 0
M  V30 122 H 12.4327 1.58327 -0.610798 0
M  V30 123 H 11.2047 3.75714 -1.09337 0
M  V30 124 H 10.8277 3.92845 0.613066 0
M  V30 125 N 11.8248 0.280983 1.55075 0
M  V30 126 C 13.0728 -0.333455 1.9933 0
M  V30 127 C 13.3938 -1.55937 1.17085 0
M  V30 128 O 12.6638 -1.94143 0.261805 0
M  V30 129 H 11.2438 -0.126197 0.736263 0
M  V30 130 H 13.9058 0.387678 1.91005 0
M  V30 131 H 13.0018 -0.619292 3.05894 0
M  V30 132 N 13.3029 -1.57598 0.00835791 0
M  V30 133 C 14.7189 -1.55764 -0.347822 0
M  V30 134 C 14.9189 -1.01186 -1.74252 0
M  V30 135 O 13.9749 -0.649371 -2.44007 0
M  V30 136 C 15.2879 -2.99927 -0.215407 0
M  V30 137 C 16.8359 -3.11656 -0.289725 0
M  V30 138 C 17.3109 -4.57621 -0.18634 0
M  V30 139 N 18.8019 -4.62557 -0.243978 0
M  V30 140 C 19.5369 -5.73094 -0.18745 0
M  V30 141 N 19.0329 -6.92753 -0.0810331 0
M  V30 142 N 20.8259 -5.61588 -0.239925 0
M  V30 143 H 12.9769 -1.91411 0.92062 0
M  V30 144 H 15.2399 -0.879562 0.353659 0
M  V30 145 H 14.9459 -3.43729 0.744512 0
M  V30 146 H 14.8199 -3.63865 -0.994097 0
M  V30 147 H 17.2069 -2.67779 -1.24009 0
M  V30 148 H 17.2879 -2.5048 0.51898 0
M  V30 149 H 16.9319 -5.02174 0.760519 0
M  V30 150 H 16.8619 -5.16752 -1.01364 0
M  V30 151 H 19.3529 -3.76481 -0.327217 0
M  V30 152 H 19.6659 -7.72787 -0.0440241 0
M  V30 153 H 18.0109 -6.94984 -0.0465419 0
M  V30 154 H 21.2019 -4.66996 -0.321317 0
M  V30 155 H 21.3749 -6.47714 -0.192407 0
M  V30 156 N 14.781 0.264519 -1.55364 0
M  V30 157 C 15.714 1.35297 -1.83766 0
M  V30 158 C 16.692 1.47171 -0.691336 0
M  V30 159 O 17.876 1.63663 -0.935238 0
M  V30 160 C 15.003 2.72847 -2.00679 0
M  V30 161 C 14.049 2.78214 -3.23263 0
M  V30 162 S 14.882 2.36601 -4.80396 0
M  V30 163 C 16.038 3.7611 -5.00292 0
M  V30 164 H 16.271 1.11003 -2.758 0
M  V30 165 H 13.804 0.464596 -1.47244 0
M  V30 166 H 15.762 3.52057 -2.11108 0
M  V30 167 H 14.423 2.94388 -1.09518 0
M  V30 168 H 13.616 3.7919 -3.3201 0
M  V30 169 H 13.218 2.07034 -3.11469 0
M  V30 170 H 15.51 4.71457 -4.86554 0
M  V30 171 H 16.453 3.7231 -6.02321 0
M  V30 172 H 16.861 3.67806 -4.28228 0
M  V30 173 N 16.2591 1.48442 0.529413 0
M  V30 174 C 17.1691 1.6569 1.66084 0
M  V30 175 C 18.1851 0.539432 1.65427 0
M  V30 176 O 19.3611 0.810572 1.84368 0
M  V30 177 C 16.4261 1.69315 3.02545 0
M  V30 178 C 15.4871 2.92694 3.14052 0
M  V30 179 C 14.7201 2.96137 4.44003 0
M  V30 180 O 14.9431 2.07973 5.31134 0
M  V30 181 O 13.8771 3.88312 4.59888 0
M  V30 182 H 17.7031 2.61483 1.54469 0
M  V30 183 H 15.2881 1.3185 0.702567 0
M  V30 184 H 17.1701 1.74217 3.83701 0
M  V30 185 H 15.8451 0.766966 3.14483 0
M  V30 186 H 14.7521 2.93324 2.32189 0
M  V30 187 H 16.0851 3.84699 3.0703 0
M  V30 188 N 17.7372 -0.778329 1.37039 0
M  V30 189 C 18.7002 -1.87301 1.32102 0
M  V30 190 C 19.7002 -1.59198 0.226405 0
M  V30 191 O 20.8902 -1.67403 0.481861 0
M  V30 192 C 18.0222 -3.24309 1.05055 0
M  V30 193 H 19.2152 -1.93093 2.29467 0
M  V30 194 H 16.7682 -0.977358 1.21973 0
M  V30 195 H 17.5032 -3.24196 0.0819373 0
M  V30 196 H 17.2882 -3.46098 1.84279 0
M  V30 197 H 18.7782 -4.04382 1.04234 0
M  V30 198 N 19.2153 -1.21501 -1.00376 0
M  V30 199 C 20.1783 -0.976927 -2.07337 0
M  V30 200 C 21.1783 0.0525322 -1.60714 0
M  V30 201 O 22.3683 -0.184869 -1.73216 0
M  V30 202 C 19.5003 -0.473423 -3.37597 0
M  V30 203 H 20.6933 -1.92587 -2.29892 0
M  V30 204 H 18.2463 -1.03217 -1.17371 0
M  V30 205 H 18.9813 0.480379 -3.20722 0
M  V30 206 H 18.7663 -1.216 -3.72768 0
M  V30 207 H 20.2563 -0.32675 -4.1632 0
M  V30 208 N 20.6934 1.19889 -1.02296 0
M  V30 209 C 21.9214 1.9339 -0.735399 0
M  V30 210 C 22.3364 1.75148 0.704887 0
M  V30 211 O 21.6934 1.06954 1.47875 0
M  V30 212 C 21.7444 3.45313 -1.06962 0
M  V30 213 O 21.4654 3.62964 -2.45334 0
M  V30 214 C 22.9664 4.35948 -0.804021 0
M  V30 215 H 20.1864 0.61448 -0.269546 0
M  V30 216 H 22.7304 1.522 -1.36585 0
M  V30 217 H 20.8854 3.84359 -0.484455 0
M  V30 218 H 21.2994 4.56886 -2.57595 0
M  V30 219 H 22.7734 5.41174 -1.0879 0
M  V30 220 H 23.2504 4.3842 0.261691 0
M  V30 221 H 23.8564 4.02574 -1.37164 0
M  V30 222 N 22.1715 0.800033 1.35784 0
M  V30 223 C 23.5875 0.482977 1.52117 0
M  V30 224 C 23.7875 -0.996948 1.75109 0
M  V30 225 O 22.8435 -1.78216 1.78872 0
M  V30 226 C 24.1565 1.32264 2.70049 0
M  V30 227 C 25.7045 1.31742 2.83924 0
M  V30 228 C 26.1795 2.14106 4.04874 0
M  V30 229 N 27.6705 2.11607 4.12039 0
M  V30 230 C 28.4055 2.72099 5.04727 0
M  V30 231 N 27.9015 3.41492 6.02789 0
M  V30 232 N 29.6945 2.61776 4.97423 0
M  V30 233 H 21.8455 1.75856 1.19115 0
M  V30 234 H 24.1085 0.748122 0.582252 0
M  V30 235 H 23.8145 2.37261 2.59616 0
M  V30 236 H 23.6885 0.971303 3.6448 0
M  V30 237 H 26.0755 0.275333 2.93813 0
M  V30 238 H 26.1565 1.70859 1.9037 0
M  V30 239 H 25.8005 3.18351 3.95746 0
M  V30 240 H 25.7305 1.72353 4.97596 0
M  V30 241 H 28.2215 1.61112 3.41835 0
M  V30 242 H 28.5345 3.84953 6.70098 0
M  V30 243 H 26.8795 3.45596 6.02983 0
M  V30 244 H 30.0705 2.07157 4.19766 0
M  V30 245 H 30.2435 3.0921 5.69468 0
M  V30 246 N 23.6496 -1.47581 0.552962 0
M  V30 247 C 24.8976 -2.02082 0.0272703 0
M  V30 248 C 25.2186 -1.4301 -1.32563 0
M  V30 249 O 24.4886 -0.603745 -1.86365 0
M  V30 250 H 23.0686 -0.746966 0.00709182 0
M  V30 251 H 25.7306 -1.81033 0.722008 0
M  V30 252 H 24.8266 -3.12034 -0.0639951 0
M  V30 253 N 25.1277 -0.289203 -1.54924 0
M  V30 254 C 26.3757 0.322879 -1.99504 0
M  V30 255 C 26.6967 1.55313 -1.1791 0
M  V30 256 O 25.9667 1.94001 -0.272097 0
M  V30 257 H 24.5467 0.122291 -0.736922 0
M  V30 258 H 27.2087 -0.397802 -1.90797 0
M  V30 259 H 26.3047 0.603061 -3.06218 0
M  V30 260 N 26.6058 1.57591 -0.0167156 0
M  V30 261 C 27.8308 1.9598 0.67872 0
M  V30 262 C 28.2558 0.892546 1.65575 0
M  V30 263 O 27.6138 -0.147772 1.80697 0
M  V30 264 C 27.6618 3.33468 1.37227 0
M  V30 265 O 26.7658 3.28954 2.48722 0
M  V30 266 H 26.1068 0.639339 0.17928 0
M  V30 267 H 28.6368 2.04463 -0.0748802 0
M  V30 268 H 28.6468 3.69417 1.7319 0
M  V30 269 H 27.3218 4.10694 0.656007 0
M  V30 270 H 25.8988 3.04705 2.14963 0
M  V30 271 N 28.0839 -0.256276 1.55502 0
M  V30 272 C 29.0339 -1.31981 1.85916 0
M  V30 273 C 30.0179 -1.43927 0.719296 0
M  V30 274 O 31.2099 -1.47326 0.981019 0
M  V30 275 C 28.3389 -2.67703 2.14918 0
M  V30 276 C 27.4249 -2.59801 3.35208 0
M  V30 277 N 27.8159 -2.21524 4.54709 0
M  V30 278 C 26.1139 -2.90832 3.38131 0
M  V30 279 C 26.8149 -2.24024 5.36832 0
M  V30 280 N 25.7909 -2.63158 4.75656 0
M  V30 281 H 29.5929 -1.01423 2.75845 0
M  V30 282 H 27.1069 -0.464911 1.55603 0
M  V30 283 H 29.1039 -3.44445 2.34869 0
M  V30 284 H 27.7639 -2.99137 1.26282 0
M  V30 285 H 28.7749 -1.93223 4.80505 0
M  V30 286 H 25.4519 -3.26867 2.59739 0
M  V30 287 H 26.8419 -1.9685 6.42417 0
M  V30 288 N 29.562 -1.4872 -0.521534 0
M  V30 289 C 30.492 -1.66771 -1.63431 0
M  V30 290 C 31.473 -0.516499 -1.62069 0
M  V30 291 O 32.658 -0.750013 -1.79132 0
M  V30 292 C 29.788 -1.71515 -3.01993 0
M  V30 293 C 28.742 -2.86222 -3.18216 0
M  V30 294 C 28.068 -2.76061 -4.57924 0
M  V30 295 C 29.368 -4.27419 -3.00184 0
M  V30 296 H 31.062 -2.59932 -1.48579 0
M  V30 297 H 28.608 -1.25089 -0.713358 0
M  V30 298 H 30.561 -1.82731 -3.7972 0
M  V30 299 H 29.285 -0.749393 -3.17886 0
M  V30 300 H 27.944 -2.74575 -2.42908 0
M  V30 301 H 27.592 -1.77437 -4.70665 0
M  V30 302 H 27.292 -3.53037 -4.69722 0
M  V30 303 H 28.816 -2.89256 -5.37739 0
M  V30 304 H 30.23 -4.39855 -3.67697 0
M  V30 305 H 28.627 -5.05458 -3.2347 0
M  V30 306 H 29.697 -4.43293 -1.96518 0
M  V30 307 N 31.0401 0.771051 -1.3745 0
M  V30 308 C 31.9721 1.89352 -1.29146 0
M  V30 309 C 32.9851 1.61477 -0.207124 0
M  V30 310 O 34.1741 1.72382 -0.463324 0
M  V30 311 C 31.2741 3.24596 -0.974195 0
M  V30 312 C 30.4471 3.80111 -2.16413 0
M  V30 313 C 29.5061 4.93832 -1.81703 0
M  V30 314 O 28.5321 5.09382 -2.54006 0
M  V30 315 N 29.7341 5.75483 -0.761573 0
M  V30 316 H 32.4991 1.96991 -2.25864 0
M  V30 317 H 30.0601 0.950191 -1.31084 0
M  V30 318 H 32.0521 3.98193 -0.722828 0
M  V30 319 H 30.6221 3.12454 -0.0955527 0
M  V30 320 H 29.8421 2.98284 -2.57721 0
M  V30 321 H 31.1301 4.13932 -2.95867 0
M  V30 322 H 30.5281 5.65469 -0.161609 0
M  V30 323 H 29.0851 6.49302 -0.570064 0
M  V30 324 N 32.5182 1.22032 0.997298 0
M  V30 325 C 33.4812 0.987909 2.06816 0
M  V30 326 C 34.4812 -0.0440084 1.6074 0
M  V30 327 O 35.6712 0.194053 1.73116 0
M  V30 328 C 32.8032 0.49132 3.37341 0
M  V30 329 H 33.9962 1.93803 2.28868 0
M  V30 330 H 31.5492 1.03838 1.16822 0
M  V30 331 H 32.2842 -0.463364 3.20973 0
M  V30 332 H 32.0692 1.23575 3.72118 0
M  V30 333 H 33.5592 0.348824 4.16141 0
M  V30 334 N 33.9963 -1.19345 1.0293 0
M  V30 335 C 34.9593 -2.20793 0.615069 0
M  V30 336 C 35.9593 -1.57553 -0.321533 0
M  V30 337 O 37.1493 -1.73862 -0.108483 0
M  V30 338 C 34.2813 -3.40754 -0.0999222 0
M  V30 339 H 35.4743 -2.58955 1.51269 0
M  V30 340 H 33.0273 -1.3303 0.820534 0
M  V30 341 H 33.7623 -3.0811 -1.01187 0
M  V30 342 H 33.5473 -3.87889 0.57309 0
M  V30 343 H 35.0373 -4.15898 -0.376645 0
M  V30 344 N 35.4744 -0.807222 -1.35358 0
M  V30 345 C 36.4374 -0.223665 -2.28106 0
M  V30 346 C 37.4374 0.589354 -1.4961 0
M  V30 347 O 38.6274 0.407745 -1.69361 0
M  V30 348 C 35.7594 0.688149 -3.33882 0
M  V30 349 H 36.9524 -1.04169 -2.81227 0
M  V30 350 H 34.5054 -0.577921 -1.45223 0
M  V30 351 H 35.2404 1.52984 -2.85948 0
M  V30 352 H 35.0254 0.10687 -3.91954 0
M  V30 353 H 36.5154 1.09075 -4.03104 0
M  V30 354 N 36.9525 1.47285 -0.560781 0
M  V30 355 C 37.8845 2.28118 0.222438 0
M  V30 356 C 38.8975 1.37219 0.876056 0
M  V30 357 O 40.0865 1.62011 0.749307 0
M  V30 358 C 37.1865 3.1159 1.33285 0
M  V30 359 C 36.3595 4.30473 0.77534 0
M  V30 360 C 35.4185 4.95513 1.77069 0
M  V30 361 O 34.4445 5.53792 1.31539 0
M  V30 362 N 35.6465 4.90531 3.10418 0
M  V30 363 H 38.4115 2.95976 -0.470958 0
M  V30 364 H 35.9725 1.56955 -0.39709 0
M  V30 365 H 37.9645 3.51967 1.99752 0
M  V30 366 H 36.5345 2.45951 1.92943 0
M  V30 367 H 35.7545 3.94144 -0.0662113 0
M  V30 368 H 37.0425 5.07362 0.382272 0
M  V30 369 H 36.4405 4.44389 3.5005 0
M  V30 370 H 34.9975 5.34917 3.72434 0
M  V30 371 N 38.4306 0.297415 1.54768 0
M  V30 372 C 39.6586 -0.315623 2.04478 0
M  V30 373 C 40.0736 -1.47792 1.17486 0
M  V30 374 O 39.4306 -1.81404 0.19971 0
M  V30 375 C 39.4816 -0.7753 3.53088 0
M  V30 376 O 39.2026 0.340732 4.36773 0
M  V30 377 C 40.7036 -1.45386 4.18781 0
M  V30 378 H 37.9236 -0.0690887 0.667434 0
M  V30 379 H 40.4676 0.436003 1.99798 0
M  V30 380 H 38.6226 -1.47696 3.58141 0
M  V30 381 H 39.0366 -0.0165035 5.24497 0
M  V30 382 H 40.5106 -1.72669 5.24299 0
M  V30 383 H 40.9876 -2.39275 3.68299 0
M  V30 384 H 41.5936 -0.795475 4.17795 0
M  V30 385 N 39.9087 -1.5758 0.0250728 0
M  V30 386 C 41.3197 -1.79476 -0.514323 0
M  V30 387 C 41.6707 -0.934956 -1.72491 0
M  V30 388 O 40.7957 -0.144245 -2.15919 0
M  V30 389 C 41.3907 -3.25503 -0.939842 0
M  V30 390 C 39.9497 -3.48408 -1.42438 0
M  V30 391 C 39.0967 -2.74583 -0.387201 0
M  V30 392 H 42.0477 -1.567 0.25113 0
M  V30 393 H 42.0687 -3.34992 -1.80445 0
M  V30 394 H 41.5807 -3.88056 -0.0585628 0
M  V30 395 H 39.6817 -2.91103 -2.32572 0
M  V30 396 H 39.7947 -4.57119 -1.43455 0
M  V30 397 H 38.1587 -2.39942 -0.854409 0
M  V30 398 H 38.9417 -3.39849 0.485543 0
M  V30 399 N 41.3868 0.248026 -1.55636 0
M  V30 400 C 42.7978 0.817177 -1.67866 0
M  V30 401 C 43.1488 1.86069 -0.622322 0
M  V30 402 O 42.2738 2.15157 0.231618 0
M  V30 403 C 42.8688 1.489 -3.04326 0
M  V30 404 C 41.4278 2.00587 -3.185 0
M  V30 405 C 40.5748 0.856573 -2.63739 0
M  V30 406 H 43.5258 0.0238579 -1.58682 0
M  V30 407 H 43.5468 2.35698 -2.98708 0
M  V30 408 H 43.0588 0.729279 -3.81186 0
M  V30 409 H 41.1598 2.79443 -2.4646 0
M  V30 410 H 41.2728 2.20402 -4.25393 0
M  V30 411 H 39.6368 1.25678 -2.21534 0
M  V30 412 H 40.4198 0.109953 -3.43124 0
M  V30 413 N 42.8649 1.48995 0.513639 0
M  V30 414 C 44.2809 1.35478 0.843682 0
M  V30 415 C 44.4809 0.378213 1.97919 0
M  V30 416 O 43.5369 -0.194689 2.51748 0
M  V30 417 C 44.8499 2.75901 1.1958 0
M  V30 418 C 46.3979 2.84509 1.30474 0
M  V30 419 C 46.8729 4.25671 1.69021 0
M  V30 420 N 48.3639 4.28422 1.76094 0
M  V30 421 C 49.0989 5.34601 2.07338 0
M  V30 422 N 48.5949 6.5104 2.36894 0
M  V30 423 N 50.3879 5.22007 2.08483 0
M  V30 424 H 42.5389 2.11092 -0.235328 0
M  V30 425 H 44.8019 0.947039 -0.0426669 0
M  V30 426 H 44.5079 3.49001 0.434913 0
M  V30 427 H 44.3819 3.10467 2.1422 0
M  V30 428 H 46.7689 2.11655 2.05637 0
M  V30 429 H 46.8499 2.53542 0.339155 0
M  V30 430 H 46.4939 4.99048 0.944135 0
M  V30 431 H 46.4239 4.54094 2.66658 0
M  V30 432 H 48.9149 3.44441 1.55464 0
M  V30 433 H 49.2279 7.2779 2.59887 0
M  V30 434 H 47.5729 6.54287 2.34378 0
M  V30 435 H 50.7639 4.30051 1.84861 0
M  V30 436 H 50.9369 6.04854 2.325 0
M  V30 437 N 44.343 -0.763751 1.37857 0
M  V30 438 C 45.754 -1.3405 1.29952 0
M  V30 439 C 46.105 -1.96138 -0.0492898 0
M  V30 440 O 45.23 -1.94372 -0.951239 0
M  V30 441 C 45.825 -2.43729 2.35333 0
M  V30 442 C 44.384 -2.97151 2.31037 0
M  V30 443 C 43.531 -1.70438 2.18738 0
M  V30 444 H 46.482 -0.563396 1.48363 0
M  V30 445 H 46.503 -3.23412 2.00462 0
M  V30 446 H 46.015 -1.9851 3.33489 0
M  V30 447 H 44.116 -3.46724 1.3643 0
M  V30 448 H 44.229 -3.52221 3.24772 0
M  V30 449 H 42.593 -1.93673 1.65418 0
M  V30 450 H 43.376 -1.27312 3.18821 0
M  V30 451 N 45.8211 -1.22559 -0.990812 0
M  V30 452 C 47.0691 -1.04933 -1.72724 0
M  V30 453 C 47.3901 0.416158 -1.90508 0
M  V30 454 O 46.6601 1.29918 -1.46622 0
M  V30 455 H 45.2401 -0.385296 -0.639965 0
M  V30 456 H 47.9021 -1.54105 -1.19322 0
M  V30 457 H 46.9981 -1.52886 -2.72089 0
M  V30 458 N 47.2992 1.18797 -1.03562 0
M  V30 459 C 48.7102 1.70322 -0.764676 0
M  V30 460 C 49.0612 1.82708 0.714996 0
M  V30 461 O 48.1862 1.50299 1.55689 0
M  V30 462 C 48.7812 3.09356 -1.38145 0
M  V30 463 C 47.3402 3.58114 -1.15895 0
M  V30 464 C 46.4872 2.34798 -1.4753 0
M  V30 465 H 49.4382 1.03543 -1.20268 0
M  V30 466 H 49.4592 3.72378 -0.781977 0
M  V30 467 H 48.9712 3.00309 -2.45837 0
M  V30 468 H 47.0722 3.72464 -0.100544 0
M  V30 469 H 47.1852 4.4184 -1.8524 0
M  V30 470 H 45.5492 2.38464 -0.894829 0
M  V30 471 H 46.3322 2.28375 -2.56319 0
M  V30 472 N 48.7773 0.814389 1.34928 0
M  V30 473 C 50.1883 0.458364 1.80986 0
M  V30 474 C 50.5393 -1.02042 1.67577 0
M  V30 475 O 49.6643 -1.79352 1.21086 0
M  V30 476 C 50.2593 0.825212 3.28597 0
M  V30 477 C 48.8183 0.521677 3.72767 0
M  V30 478 C 47.9653 1.04668 2.56788 0
M  V30 479 H 50.9163 1.00533 1.22795 0
M  V30 480 H 50.9373 0.12571 3.80292 0
M  V30 481 H 50.4493 1.90154 3.38324 0
M  V30 482 H 48.5503 -0.545589 3.68584 0
M  V30 483 H 48.6633 1.05977 4.67232 0
M  V30 484 H 47.0273 0.468622 2.50352 0
M  V30 485 H 47.8103 2.12927 2.6929 0
M  V30 486 N 50.2554 -1.46986 0.568584 0
M  V30 487 C 51.4804 -2.07335 0.0520528 0
M  V30 488 C 51.9054 -1.41675 -1.23733 0
M  V30 489 O 51.2634 -0.495623 -1.74394 0
M  V30 490 C 51.3114 -3.60417 -0.11501 0
M  V30 491 O 50.4154 -3.95309 -1.17492 0
M  V30 492 H 49.7564 -0.661597 0.0564385 0
M  V30 493 H 52.2864 -1.88837 0.787507 0
M  V30 494 H 52.2964 -4.06698 -0.325644 0
M  V30 495 H 50.9714 -4.07601 0.826675 0
M  V30 496 H 49.5484 -3.60757 -0.943869 0
M  V30 497 N 51.7335 -0.305618 -1.54608 0
M  V30 498 C 52.6965 0.555591 -2.22364 0
M  V30 499 C 53.6965 1.05768 -1.21119 0
M  V30 500 O 54.8865 0.952972 -1.45822 0
M  V30 501 C 52.0185 1.76974 -2.91364 0
M  V30 502 H 53.2115 -0.0364572 -2.99878 0
M  V30 503 H 50.7645 -0.0565007 -1.56198 0
M  V30 504 H 51.4995 2.40151 -2.17941 0
M  V30 505 H 51.2845 1.41732 -3.65588 0
M  V30 506 H 52.7745 2.38148 -3.43038 0
M  V30 507 N 53.2116 1.57565 -0.0334293 0
M  V30 508 C 54.6226 1.79746 0.504798 0
M  V30 509 C 54.9736 0.944091 1.71992 0
M  V30 510 O 54.0986 0.155694 2.15839 0
M  V30 511 C 54.6936 3.25997 0.922567 0
M  V30 512 C 53.2526 3.49159 1.40588 0
M  V30 513 C 52.3996 2.74785 0.372633 0
M  V30 514 H 55.3506 1.56565 -0.259436 0
M  V30 515 H 55.3716 3.35945 1.78666 0
M  V30 516 H 54.8836 3.88081 0.0379825 0
M  V30 517 H 52.9846 2.92332 2.31025 0
M  V30 518 H 53.0976 4.57873 1.41028 0
M  V30 519 H 51.4616 2.40391 0.841672 0
M  V30 520 H 52.2446 3.39587 -0.503559 0
M  V30 521 N 54.6897 -0.239769 1.55765 0
M  V30 522 C 56.1007 -0.808263 1.68297 0
M  V30 523 C 56.4517 -1.85736 0.632181 0
M  V30 524 O 55.5767 -2.15277 -0.220204 0
M  V30 525 C 56.1717 -1.47284 3.05111 0
M  V30 526 C 54.7307 -1.98895 3.19559 0
M  V30 527 C 53.8777 -0.842575 2.64189 0
M  V30 528 H 56.8287 -0.0154422 1.58692 0
M  V30 529 H 56.8497 -2.34111 2.99954 0
M  V30 530 H 56.3617 -0.709053 3.81568 0
M  V30 531 H 54.4627 -2.78132 2.47938 0
M  V30 532 H 54.5757 -2.18143 4.26556 0
M  V30 533 H 52.9397 -1.24501 2.22197 0
M  V30 534 H 53.7227 -0.0917552 3.43177 0
M  V30 535 N 56.1678 -1.49265 -0.50573 0
M  V30 536 C 57.5788 -1.51769 -1.08734 0
M  V30 537 C 57.9298 -0.301192 -1.93874 0
M  V30 538 O 57.0548 0.589456 -2.08217 0
M  V30 539 C 57.6498 -2.75017 -1.97867 0
M  V30 540 C 56.2088 -2.80314 -2.51199 0
M  V30 541 C 55.3558 -2.4562 -1.28709 0
M  V30 542 H 58.3068 -1.56031 -0.289855 0
M  V30 543 H 58.3278 -2.5491 -2.82491 0
M  V30 544 H 57.8398 -3.63539 -1.35873 0
M  V30 545 H 55.9408 -1.96061 -3.16845 0
M  V30 546 H 56.0538 -3.82366 -2.88675 0
M  V30 547 H 54.4178 -1.97297 -1.61078 0
M  V30 548 H 55.2008 -3.36411 -0.6843 0
M  V30 549 N 57.6459 0.756429 -1.3826 0
M  V30 550 C 59.0569 1.33359 -1.30661 0
M  V30 551 C 59.4079 1.96161 0.0388875 0
M  V30 552 O 58.5329 1.94874 0.940918 0
M  V30 553 C 59.1279 2.42477 -2.36622 0
M  V30 554 C 57.6869 2.95922 -2.3261 0
M  V30 555 C 56.8339 1.69275 -2.19639 0
M  V30 556 H 59.7849 0.55552 -1.4866 0
M  V30 557 H 59.8059 3.22345 -2.02174 0
M  V30 558 H 59.3179 1.96739 -3.34538 0
M  V30 559 H 57.4189 3.45996 -1.38267 0
M  V30 560 H 57.5319 3.50494 -3.26636 0
M  V30 561 H 55.8959 1.92793 -1.66442 0
M  V30 562 H 56.6789 1.25619 -3.19491 0
M  V30 563 N 59.124 1.23083 0.984299 0
M  V30 564 C 60.535 1.05609 1.5396 0
M  V30 565 C 60.886 -0.377793 1.92528 0
M  V30 566 O 60.011 -1.26398 1.75649 0
M  V30 567 C 60.606 1.91087 2.7977 0
M  V30 568 C 59.165 1.77885 3.31713 0
M  V30 569 C 58.312 1.87028 2.04733 0
M  V30 570 H 61.263 1.36802 0.804419 0
M  V30 571 H 61.284 1.43336 3.5247 0
M  V30 572 H 60.796 2.9544 2.51668 0
M  V30 573 H 58.897 0.762995 3.64704 0
M  V30 574 H 59.01 2.61047 4.01735 0
M  V30 575 H 57.374 1.30565 2.18689 0
M  V30 576 H 58.157 2.92929 1.79017 0
M  V30 577 N 60.6021 -1.18246 1.0419 0
M  V30 578 C 61.5491 -2.2192 0.634037 0
M  V30 579 C 62.5191 -1.62179 -0.358765 0
M  V30 580 O 63.7041 -1.89122 -0.252466 0
M  V30 581 C 60.8441 -3.451 0.00445535 0
M  V30 582 C 59.9571 -4.19174 1.04487 0
M  V30 583 C 59.0921 -5.29813 0.383676 0
M  V30 584 C 58.1311 -5.9566 1.4091 0
M  V30 585 N 57.2681 -6.97834 0.772784 0
M  V30 586 H 62.1081 -2.56164 1.52263 0
M  V30 587 H 59.6451 -1.25843 0.761701 0
M  V30 588 H 61.6031 -4.15485 -0.377919 0
M  V30 589 H 60.2331 -3.11472 -0.847652 0
M  V30 590 H 59.2851 -3.47604 1.54518 0
M  V30 591 H 60.5971 -4.64267 1.82368 0
M  V30 592 H 59.7511 -6.06677 -0.0528366 0
M  V30 593 H 58.4901 -4.85825 -0.427208 0
M  V30 594 H 57.4951 -5.17535 1.85574 0
M  V30 595 H 58.7201 -6.4173 2.22171 0
M  V30 596 H 56.6661 -6.55998 -0.0177708 0
M  V30 597 H 56.5831 -7.41186 1.48928 0
M  V30 598 H 57.8511 -7.78665 0.36071 0
M  V30 599 N 62.0802 -0.821533 -1.34494 0
M  V30 600 C 62.9902 -0.244355 -2.33324 0
M  V30 601 C 64.0062 0.620527 -1.62559 0
M  V30 602 O 65.1822 0.528754 -1.94335 0
M  V30 603 C 62.2472 0.585368 -3.41723 0
M  V30 604 C 61.3082 -0.301752 -4.28238 0
M  V30 605 C 60.5412 0.488466 -5.3146 0
M  V30 606 O 60.7642 1.72186 -5.4379 0
M  V30 607 O 59.6982 -0.12848 -6.01763 0
M  V30 608 H 63.5242 -1.06231 -2.84515 0
M  V30 609 H 61.1092 -0.583645 -1.37528 0
M  V30 610 H 62.9912 1.05747 -4.07916 0
M  V30 611 H 61.6662 1.38068 -2.92778 0
M  V30 612 H 60.5732 -0.821315 -3.64973 0
M  V30 613 H 61.9062 -1.06138 -4.8062 0
M  V30 614 N 63.5583 1.46682 -0.576371 0
M  V30 615 C 64.8063 2.02013 -0.0594163 0
M  V30 616 C 65.1273 1.45101 1.30271 0
M  V30 617 O 64.3973 0.633317 1.8538 0
M  V30 618 H 62.9773 0.746759 -0.0189745 0
M  V30 619 H 65.6393 1.79862 -0.750717 0
M  V30 620 H 64.7353 3.12097 0.014345 0
M  V30 621 N 65.0364 0.313813 1.54444 0
M  V30 622 C 65.9864 -0.571898 2.20711 0
M  V30 623 C 66.9704 -1.08913 1.18435 0
M  V30 624 O 68.1624 -1.02777 1.44104 0
M  V30 625 C 65.2914 -1.7371 2.96108 0
M  V30 626 C 64.3774 -1.23522 4.05713 0
M  V30 627 N 64.7684 -0.452288 5.03774 0
M  V30 628 C 63.0664 -1.51482 4.19487 0
M  V30 629 C 63.7674 -0.183438 5.81411 0
M  V30 630 N 62.7434 -0.766845 5.38164 0
M  V30 631 H 66.5454 0.0336802 2.93881 0
M  V30 632 H 64.0594 0.119192 1.61962 0
M  V30 633 H 66.0564 -2.38329 3.4206 0
M  V30 634 H 64.7164 -2.34625 2.24458 0
M  V30 635 H 65.7274 -0.0960131 5.17811 0
M  V30 636 H 62.4044 -2.13053 3.59047 0
M  V30 637 H 63.7944 0.446216 6.70417 0
M  V30 638 N 66.5145 -1.57545 0.0417849 0
M  V30 639 C 67.4465 -2.07904 -0.964799 0
M  V30 640 C 68.4595 -1.00497 -1.28079 0
M  V30 641 O 69.6485 -1.28087 -1.24322 0
M  V30 642 C 66.7485 -2.49928 -2.28887 0
M  V30 643 C 65.9215 -3.80562 -2.15619 0
M  V30 644 C 64.9805 -4.08999 -3.31069 0
M  V30 645 O 64.0065 -4.79061 -3.0739 0
M  V30 646 N 65.2085 -3.6017 -4.55256 0
M  V30 647 H 67.9735 -2.94886 -0.535029 0
M  V30 648 H 65.5345 -1.61252 -0.144681 0
M  V30 649 H 67.5265 -2.66034 -3.04972 0
M  V30 650 H 66.0965 -1.68245 -2.63463 0
M  V30 651 H 65.3165 -3.74129 -1.24183 0
M  V30 652 H 66.6045 -4.66126 -2.03971 0
M  V30 653 H 66.0025 -3.03512 -4.77386 0
M  V30 654 H 64.5595 -3.81532 -5.28466 0
M  V30 655 N 67.9926 0.231505 -1.5589 0
M  V30 656 C 68.9026 1.308 -1.94752 0
M  V30 657 C 69.9186 1.51826 -0.849989 0
M  V30 658 O 71.0946 1.6515 -1.15271 0
M  V30 659 C 68.1596 2.63968 -2.24771 0
M  V30 660 C 67.2206 2.51331 -3.48039 0
M  V30 661 C 66.4536 3.78148 -3.76616 0
M  V30 662 O 66.6766 4.80722 -3.07022 0
M  V30 663 O 65.6106 3.75857 -4.70123 0
M  V30 664 H 69.4366 1.0083 -2.86474 0
M  V30 665 H 67.0216 0.433547 -1.42971 0
M  V30 666 H 68.9036 3.42633 -2.45318 0
M  V30 667 H 67.5786 2.9364 -1.36225 0
M  V30 668 H 66.4856 1.709 -3.32782 0
M  V30 669 H 67.8186 2.26601 -4.36936 0
M  V30 670 N 69.4707 1.49531 0.497807 0
M  V30 671 C 70.7187 1.58865 1.24926 0
M  V30 672 C 71.0397 0.278721 1.92998 0
M  V30 673 O 70.3097 -0.702144 1.82885 0
M  V30 674 H 68.8897 0.585343 0.464094 0
M  V30 675 H 71.5517 1.86174 0.57666 0
M  V30 676 H 70.6477 2.38633 2.01149 0
M  V30 677 N 70.9488 -0.749086 1.3866 0
M  V30 678 C 71.8788 -1.8764 1.38973 0
M  V30 679 C 72.8598 -1.68178 0.255004 0
M  V30 680 O 74.0448 -1.88704 0.458754 0
M  V30 681 C 71.1748 -3.25222 1.21851 0
M  V30 682 C 70.1288 -3.59295 2.32575 0
M  V30 683 C 69.4548 -4.95663 2.00555 0
M  V30 684 C 70.7548 -3.63709 3.7485 0
M  V30 685 H 72.4488 -1.87635 2.3331 0
M  V30 686 H 69.9948 -0.901329 1.12303 0
M  V30 687 H 71.9478 -4.03746 1.20695 0
M  V30 688 H 70.6718 -3.25719 0.239775 0
M  V30 689 H 69.3308 -2.83093 2.32925 0
M  V30 690 H 68.9788 -4.92724 1.01154 0
M  V30 691 H 68.6788 -5.19429 2.74714 0
M  V30 692 H 70.2028 -5.7656 2.01024 0
M  V30 693 H 71.6168 -4.32338 3.76506 0
M  V30 694 H 70.0138 -3.98986 4.48252 0
M  V30 695 H 71.0838 -2.63834 4.06841 0
M  V30 696 N 72.4269 -1.23603 -0.977757 0
M  V30 697 C 73.6729 -1.07129 -1.72195 0
M  V30 698 C 74.0059 0.390501 -1.90233 0
M  V30 699 O 73.2809 1.28902 -1.45653 0
M  V30 700 C 73.5639 -1.80031 -3.11867 0
M  V30 701 C 73.4169 -3.33899 -3.01383 0
M  V30 702 C 74.7359 -1.56492 -4.11337 0
M  V30 703 H 71.8549 -0.390571 -0.624999 0
M  V30 704 H 74.4969 -1.52142 -1.13811 0
M  V30 705 H 72.6469 -1.41768 -3.6171 0
M  V30 706 H 74.3189 -3.81699 -2.59043 0
M  V30 707 H 72.5619 -3.62796 -2.37827 0
M  V30 708 H 73.2329 -3.801 -4.00285 0
M  V30 709 H 75.7089 -1.89757 -3.70313 0
M  V30 710 H 74.5849 -2.09973 -5.07151 0
M  V30 711 H 74.8459 -0.500874 -4.39254 0
M  V30 712 N 73.905 1.17692 -1.04816 0
M  V30 713 C 74.815 2.25229 -0.65643 0
M  V30 714 C 75.831 1.71018 0.320761 0
M  V30 715 O 77.007 2.00649 0.173805 0
M  V30 716 C 74.072 3.46684 -0.0332629 0
M  V30 717 C 73.133 4.15997 -1.06042 0
M  V30 718 C 72.366 5.31654 -0.466893 0
M  V30 719 O 72.589 5.65777 0.724758 0
M  V30 720 O 71.523 5.89831 -1.1993 0
M  V30 721 H 75.349 2.61016 -1.55255 0
M  V30 722 H 72.934 1.24919 -0.81949 0
M  V30 723 H 74.816 4.20234 0.313256 0
M  V30 724 H 73.491 3.12703 0.836566 0
M  V30 725 H 72.398 3.44482 -1.45886 0
M  V30 726 H 73.731 4.53996 -1.90127 0
M  V30 727 N 75.3831 0.828654 1.34056 0
M  V30 728 C 76.3131 0.269443 2.3194 0
M  V30 729 C 77.2941 -0.617247 1.58506 0
M  V30 730 O 78.4791 -0.542931 1.86456 0
M  V30 731 C 75.6091 -0.564793 3.42677 0
M  V30 732 C 74.5631 0.225241 4.27407 0
M  V30 733 C 73.8891 -0.7321 5.29664 0
M  V30 734 C 75.1891 1.43663 5.02154 0
M  V30 735 H 76.8831 1.08728 2.7896 0
M  V30 736 H 74.4291 0.524283 1.34117 0
M  V30 737 H 76.3821 -0.966233 4.10173 0
M  V30 738 H 75.1061 -1.41574 2.9432 0
M  V30 739 H 73.7651 0.608117 3.61521 0
M  V30 740 H 73.4131 -1.57916 4.77568 0
M  V30 741 H 73.1131 -0.20767 5.87233 0
M  V30 742 H 74.6371 -1.13128 6.00029 0
M  V30 743 H 76.0511 1.1089 5.62473 0
M  V30 744 H 74.4481 1.89711 5.69324 0
M  V30 745 H 75.5181 2.21181 4.31517 0
M  V30 746 N 76.8612 -1.46375 0.584142 0
M  V30 747 C 78.2722 -1.86031 0.157959 0
M  V30 748 C 78.6232 -1.48753 -1.27933 0
M  V30 749 O 77.7482 -0.903098 -1.96655 0
M  V30 750 C 78.3432 -3.37642 0.279892 0
M  V30 751 C 76.9022 -3.76289 -0.09143 0
M  V30 752 C 76.0492 -2.7039 0.615178 0
M  V30 753 H 79.0002 -1.37509 0.792274 0
M  V30 754 H 79.0212 -3.77275 -0.494364 0
M  V30 755 H 78.5332 -3.64742 1.32607 0
M  V30 756 H 76.6342 -3.54806 -1.13769 0
M  V30 757 H 76.7472 -4.78246 0.285886 0
M  V30 758 H 75.1112 -2.5464 0.0552833 0
M  V30 759 H 75.8942 -3.0033 1.66303 0
M  V30 760 N 78.3393 -0.321999 -1.54275 0
M  V30 761 C 79.3023 0.531975 -2.22941 0
M  V30 762 C 80.3023 1.04478 -1.22234 0
M  V30 763 O 81.4923 0.937452 -1.46825 0
M  V30 764 C 78.6243 1.73874 -2.93224 0
M  V30 765 H 79.8173 -0.0682612 -2.99822 0
M  V30 766 H 77.3703 -0.0730644 -1.56129 0
M  V30 767 H 78.1053 2.37825 -2.20476 0
M  V30 768 H 77.8903 1.37847 -3.6707 0
M  V30 769 H 79.3803 2.34496 -3.45545 0
M  V30 770 N 79.8174 1.5752 -0.0501392 0
M  V30 771 C 81.0424 1.97376 0.636997 0
M  V30 772 C 81.4674 0.927466 1.63645 0
M  V30 773 O 80.8254 -0.10941 1.8097 0
M  V30 774 C 80.8734 3.36304 1.30123 0
M  V30 775 O 79.9774 3.34156 2.41689 0
M  V30 776 H 79.3184 0.642998 0.165679 0
M  V30 777 H 81.8484 2.04258 -0.118233 0
M  V30 778 H 81.8584 3.73008 1.65315 0
M  V30 779 H 80.5334 4.11993 0.568746 0
M  V30 780 H 79.1104 3.09196 2.08451 0
M  V30 781 N 81.2955 -0.223234 1.56011 0
M  V30 782 C 82.5425 -0.947875 1.78946 0
M  V30 783 C 82.8705 -1.844 0.618608 0
M  V30 784 O 82.1255 -1.91629 -0.397093 0
M  V30 785 C 82.4245 -1.81948 3.0762 0
M  V30 786 C 82.0905 -1.07672 4.37856 0
M  V30 787 C 80.7525 -0.871544 4.73242 0
M  V30 788 C 83.1045 -0.552081 5.18268 0
M  V30 789 C 80.4325 -0.129791 5.86556 0
M  V30 790 C 82.7845 0.17632 6.32354 0
M  V30 791 C 81.4485 0.39277 6.66343 0
M  V30 792 H 80.7185 -0.346852 0.654809 0
M  V30 793 H 83.3655 -0.216171 1.90276 0
M  V30 794 H 81.6705 -2.61899 2.91404 0
M  V30 795 H 83.3675 -2.38227 3.22566 0
M  V30 796 H 79.9575 -1.24662 4.1007 0
M  V30 797 H 84.1415 -0.698076 4.91366 0
M  V30 798 H 79.3975 0.048153 6.11381 0
M  V30 799 H 83.5715 0.590367 6.93893 0
M  V30 800 H 81.1985 0.969466 7.53993 0
M  V30 801 N 82.7736 -1.49793 -0.48987 0
M  V30 802 C 84.1896 -1.36803 -0.822022 0
M  V30 803 C 84.3896 -0.409652 -1.97292 0
M  V30 804 O 83.4456 0.154614 -2.52026 0
M  V30 805 C 84.7586 -2.77768 -1.15175 0
M  V30 806 C 86.3066 -2.86549 -1.25931 0
M  V30 807 C 86.7816 -4.28306 -1.62228 0
M  V30 808 N 88.2726 -4.31169 -1.69256 0
M  V30 809 C 89.0076 -5.37832 -1.98807 0
M  V30 810 N 88.5036 -6.54726 -2.26507 0
M  V30 811 N 90.2966 -5.25258 -2.00152 0
M  V30 812 H 82.4476 -2.10691 0.268881 0
M  V30 813 H 84.7106 -0.946241 0.057728 0
M  V30 814 H 84.4166 -3.49648 -0.379335 0
M  V30 815 H 84.2906 -3.13836 -2.09253 0
M  V30 816 H 86.6776 -2.14899 -2.02243 0
M  V30 817 H 86.7586 -2.54049 -0.298776 0
M  V30 818 H 86.4026 -5.00486 -0.864622 0
M  V30 819 H 86.3326 -4.58279 -2.594 0
M  V30 820 H 88.8236 -3.4687 -1.49965 0
M  V30 821 H 89.1366 -7.31833 -2.48276 0
M  V30 822 H 87.4816 -6.57933 -2.23939 0
M  V30 823 H 90.6726 -4.32938 -1.77996 0
M  V30 824 H 90.8456 -6.08476 -2.22848 0
M  V30 825 N 84.2517 0.741722 -1.39055 0
M  V30 826 C 85.1617 1.88621 -1.39496 0
M  V30 827 C 86.1777 1.71557 -0.290578 0
M  V30 828 O 87.3537 1.94275 -0.530954 0
M  V30 829 C 84.4187 3.24134 -1.23037 0
M  V30 830 C 83.4797 3.5364 -2.43387 0
M  V30 831 C 82.7127 4.82687 -2.27703 0
M  V30 832 O 82.9357 5.55922 -1.27696 0
M  V30 833 O 81.8697 5.1194 -3.16545 0
M  V30 834 H 85.6957 1.91203 -2.35956 0
M  V30 835 H 83.2807 0.888625 -1.20099 0
M  V30 836 H 85.1627 4.0513 -1.15964 0
M  V30 837 H 83.8377 3.22337 -0.296691 0
M  V30 838 H 82.7447 2.72758 -2.56035 0
M  V30 839 H 84.0777 3.60209 -3.35425 0
M  V30 840 N 85.7298 1.2412 0.971189 0
M  V30 841 C 86.6598 1.05508 2.08304 0
M  V30 842 C 87.6408 -0.0308864 1.70072 0
M  V30 843 O 88.8258 0.135521 1.93727 0
M  V30 844 C 85.9558 0.655365 3.4106 0
M  V30 845 C 84.9098 1.68971 3.93234 0
M  V30 846 C 84.2358 1.14516 5.22293 0
M  V30 847 C 85.5358 3.08487 4.21465 0
M  V30 848 H 87.2298 1.98507 2.24132 0
M  V30 849 H 84.7758 0.955821 1.07704 0
M  V30 850 H 86.7288 0.51217 4.18276 0
M  V30 851 H 85.4528 -0.31032 3.25122 0
M  V30 852 H 84.1118 1.82106 3.18171 0
M  V30 853 H 83.7598 0.170189 5.02712 0
M  V30 854 H 83.4598 1.83635 5.58168 0
M  V30 855 H 84.9838 1.01401 6.02121 0
M  V30 856 H 86.3978 2.98601 4.89398 0
M  V30 857 H 84.7948 3.74926 4.68562 0
M  V30 858 H 85.8648 3.56787 3.28376 0
M  V30 859 N 87.2079 -1.17134 1.05439 0
M  V30 860 C 88.1379 -2.2342 0.678649 0
M  V30 861 C 89.1189 -1.66971 -0.32476 0
M  V30 862 O 90.3039 -1.93149 -0.201802 0
M  V30 863 C 87.4339 -3.47256 0.0552099 0
M  V30 864 C 86.3879 -4.16543 0.98365 0
M  V30 865 C 85.7139 -5.34231 0.223961 0
M  V30 866 C 87.0139 -4.68495 2.3089 0
M  V30 867 H 88.7079 -2.55105 1.56722 0
M  V30 868 H 86.2539 -1.2262 0.754998 0
M  V30 869 H 88.2069 -4.20828 -0.21946 0
M  V30 870 H 86.9309 -3.14846 -0.868319 0
M  V30 871 H 85.5899 -3.44887 1.24293 0
M  V30 872 H 85.2379 -4.98071 -0.702412 0
M  V30 873 H 84.9379 -5.81527 0.842627 0
M  V30 874 H 86.4619 -6.10585 -0.0433671 0
M  V30 875 H 87.8759 -5.33691 2.09396 0
M  V30 876 H 86.2729 -5.26379 2.88176 0
M  V30 877 H 87.3429 -3.85169 2.94572 0
M  V30 878 N 88.686 -0.835752 -1.33615 0
M  V30 879 C 89.914 -0.443344 -2.02094 0
M  V30 880 C 90.329 0.954522 -1.62894 0
M  V30 881 O 89.686 1.61982 -0.840723 0
M  V30 882 C 89.737 -0.550775 -3.5728 0
M  V30 883 O 89.458 -1.89356 -3.95065 0
M  V30 884 C 90.959 -0.154919 -4.43029 0
M  V30 885 H 88.179 -0.176359 -0.647409 0
M  V30 886 H 90.723 -1.12746 -1.70612 0
M  V30 887 H 88.878 0.0853997 -3.87306 0
M  V30 888 H 89.292 -1.87687 -4.89769 0
M  V30 889 H 90.766 -0.281144 -5.51284 0
M  V30 890 H 91.243 0.902863 -4.2982 0
M  V30 891 H 91.849 -0.765404 -4.18356 0
M  V30 892 N 90.1641 1.46063 -0.591896 0
M  V30 893 C 91.4111 2.02338 -0.0809991 0
M  V30 894 C 91.7391 1.46228 1.28249 0
M  V30 895 O 90.9941 0.620818 1.85592 0
M  V30 896 C 91.2931 3.57391 0.0249813 0
M  V30 897 C 90.9591 4.32583 -1.27211 0
M  V30 898 C 89.6211 4.52844 -1.62745 0
M  V30 899 C 91.9731 4.75687 -2.13005 0
M  V30 900 C 89.3011 5.13462 -2.83855 0
M  V30 901 C 91.6531 5.37644 -3.3335 0
M  V30 902 C 90.3171 5.5613 -3.69155 0
M  V30 903 H 89.5871 0.740407 -0.0296397 0
M  V30 904 H 92.2341 1.75321 -0.770374 0
M  V30 905 H 90.5391 3.83597 0.797537 0
M  V30 906 H 92.2361 3.98621 0.436184 0
M  V30 907 H 88.8261 4.17116 -0.985499 0
M  V30 908 H 93.0101 4.59782 -1.86855 0
M  V30 909 H 88.2661 5.25965 -3.11722 0
M  V30 910 H 92.4401 5.7 -4.00092 0
M  V30 911 H 90.0671 6.0287 -4.63089 0
M  V30 912 N 91.6422 0.330177 1.54103 0
M  V30 913 C 92.8892 -0.270405 2.00686 0
M  V30 914 C 93.2172 -1.51621 1.21825 0
M  V30 915 O 92.4722 -1.93536 0.29025 0
M  V30 916 C 92.7712 -0.643134 3.51566 0
M  V30 917 C 92.4372 0.504251 4.48072 0
M  V30 918 C 91.0992 0.819163 4.74176 0
M  V30 919 C 93.4512 1.27465 5.05373 0
M  V30 920 C 90.7792 1.90708 5.5484 0
M  V30 921 C 93.1312 2.35271 5.87223 0
M  V30 922 C 91.7952 2.67336 6.11627 0
M  V30 923 H 91.0652 -0.0989482 0.734364 0
M  V30 924 H 93.7122 0.455324 1.86008 0
M  V30 925 H 92.0172 -1.44938 3.64006 0
M  V30 926 H 93.7142 -1.11949 3.85056 0
M  V30 927 H 90.3042 0.248733 4.27878 0
M  V30 928 H 94.4882 1.04462 4.85182 0
M  V30 929 H 89.7442 2.15991 5.71977 0
M  V30 930 H 93.9182 2.95405 6.30641 0
M  V30 931 H 91.5452 3.51763 6.73919 0
M  V30 932 N 93.1203 -1.57491 0.0584922 0
M  V30 933 C 94.3603 -1.94851 -0.617458 0
M  V30 934 C 94.7243 -0.937165 -1.67575 0
M  V30 935 O 95.9253 -1.19795 -2.40629 0
M  V30 936 C 94.1963 -3.36955 -1.19147 0
M  V30 937 S 95.7553 -3.96277 -1.8844 0
M  V30 938 H 92.5733 -0.681539 -0.202547 0
M  V30 939 H 95.1753 -1.95073 0.129176 0
M  V30 940 H 93.8793 -4.08355 -0.409215 0
M  V30 941 H 93.4103 -3.40245 -1.97476 0
M  V30 942 H 95.4253 -3.82099 -3.16568 0
M  V30 943 N 94.5984 0.214957 -1.56127 0
M  V30 944 C 95.8264 0.955092 -1.83536 0
M  V30 945 C 96.2414 1.77677 -0.638472 0
M  V30 946 O 95.5984 1.78219 0.392968 0
M  V30 947 C 95.6494 1.86734 -3.09536 0
M  V30 948 O 95.3704 1.07887 -4.24608 0
M  V30 949 C 96.8714 2.72082 -3.4998 0
M  V30 950 H 94.0914 0.279611 -0.609966 0
M  V30 951 H 96.6354 0.228197 -2.03223 0
M  V30 952 H 94.7904 2.5481 -2.91806 0
M  V30 953 H 95.2044 1.69872 -4.9623 0
M  V30 954 H 96.6784 3.31782 -4.41163 0
M  V30 955 H 97.1554 3.44806 -2.7204 0
M  V30 956 H 97.7614 2.09409 -3.70173 0
M  V30 957 N 96.0765 1.50051 0.48192 0
M  V30 958 C 97.0245 1.68635 1.60203 0
M  V30 959 C 98.0185 0.552184 1.60148 0
M  V30 960 O 99.2245 0.732377 1.64427 0
M  V30 961 H 95.5995 0.532081 0.531407 0
M  V30 962 H 97.5705 2.62616 1.41688 0
M  V30 963 C 96.3195 1.78775 2.9822 0
M  V30 964 H 95.6425 2.6543 2.98976 0
M  V30 965 H 97.0825 1.95806 3.7608 0
M  V30 966 C 95.5415 0.536849 3.32595 0
M  V30 967 O 96.0715 -0.328897 4.00351 0
M  V30 968 N 94.2775 0.394091 2.87915 0
M  V30 969 H 93.8245 1.09962 2.32951 0
M  V30 970 H 93.7825 -0.441737 3.11281 0
M  V30 971 N 97.5546 -0.734337 1.39446 0
M  V30 972 C 98.5176 -1.83004 1.37994 0
M  V30 973 C 99.5176 -1.58397 0.276938 0
M  V30 974 O 100.708 -1.65785 0.534875 0
M  V30 975 C 97.8396 -3.20802 1.1532 0
M  V30 976 H 99.0326 -1.85694 2.35494 0
M  V30 977 H 96.5856 -0.938059 1.25021 0
M  V30 978 H 97.3206 -3.23772 0.185036 0
M  V30 979 H 97.1056 -3.4006 1.95197 0
M  V30 980 H 98.5956 -4.00862 1.17046 0
M  V30 981 N 99.0327 -1.24633 -0.964593 0
M  V30 982 C 100.261 -1.11501 -1.74285 0
M  V30 983 C 100.676 0.332165 -1.85855 0
M  V30 984 O 100.033 1.22903 -1.34911 0
M  V30 985 C 100.084 -1.75258 -3.16175 0
M  V30 986 O 99.8047 -3.14318 -3.05182 0
M  V30 987 C 101.306 -1.67776 -4.10324 0
M  V30 988 H 98.5257 -0.389407 -0.546446 0
M  V30 989 H 101.07 -1.64801 -1.21083 0
M  V30 990 H 99.2247 -1.25954 -3.66353 0
M  V30 991 H 99.6387 -3.4551 -3.94618 0
M  V30 992 H 101.113 -2.17064 -5.0753 0
M  V30 993 H 101.59 -0.639584 -4.34518 0
M  V30 994 H 102.196 -2.16522 -3.66058 0
M  V30 995 N 100.511 1.16574 -1.06058 0
M  V30 996 C 101.76 1.86385 -0.770944 0
M  V30 997 C 102.073 1.82448 0.705129 0
M  V30 998 O 103.279 2.47815 1.10905 0
M  V30 999 C 101.735 3.34466 -1.32893 0
M  V30 1000 C 101.343 3.46883 -2.83507 0
M  V30 1001 C 103.087 4.09548 -1.11672 0
M  V30 1002 C 100.994 4.89036 -3.32562 0
M  V30 1003 H 99.9238 0.698181 -0.284709 0
M  V30 1004 H 102.575 1.31583 -1.27899 0
M  V30 1005 H 100.957 3.88859 -0.748662 0
M  V30 1006 H 102.131 3.02663 -3.47465 0
M  V30 1007 H 100.446 2.85232 -3.03368 0
M  V30 1008 H 103.043 5.14434 -1.45814 0
M  V30 1009 H 103.386 4.16264 -0.0549535 0
M  V30 1010 H 103.919 3.61387 -1.66265 0
M  V30 1011 H 100.658 4.87499 -4.38207 0
M  V30 1012 H 100.178 5.3389 -2.73351 0
M  V30 1013 H 101.857 5.57843 -3.2775 0
M  V30 1014 N 101.989 0.842826 1.3317 0
M  V30 1015 C 102.939 0.250877 2.26616 0
M  V30 1016 C 103.923 -0.596427 1.49437 0
M  V30 1017 O 105.115 -0.447747 1.71243 0
M  V30 1018 C 102.244 -0.569779 3.38539 0
M  V30 1019 C 101.33 0.289254 4.23112 0
M  V30 1020 N 101.721 1.36987 4.86897 0
M  V30 1021 C 100.019 0.0769631 4.45934 0
M  V30 1022 C 100.72 1.89737 5.49886 0
M  V30 1023 N 99.6959 1.19827 5.30229 0
M  V30 1024 H 103.498 1.07718 2.73448 0
M  V30 1025 H 101.012 0.687693 1.47121 0
M  V30 1026 H 103.009 -1.01018 4.04476 0
M  V30 1027 H 101.669 -1.39401 2.93253 0
M  V30 1028 H 102.68 1.75277 4.87338 0
M  V30 1029 H 99.3569 -0.713507 4.11358 0
M  V30 1030 H 100.747 2.80253 6.10662 0
M  V30 1031 N 103.467 -1.45747 0.599634 0
M  V30 1032 C 104.715 -2.01893 0.0915472 0
M  V30 1033 C 105.036 -1.47155 -1.27946 0
M  V30 1034 O 104.306 -0.66273 -1.84349 0
M  V30 1035 H 102.886 -0.746363 0.0308524 0
M  V30 1036 H 105.548 -1.78645 0.779237 0
M  V30 1037 H 104.644 -3.1208 0.0353086 0
M  V30 1038 N 104.945 -0.338344 -1.53925 0
M  V30 1039 C 105.908 0.508299 -2.23493 0
M  V30 1040 C 106.908 1.03175 -1.23335 0
M  V30 1041 O 108.098 0.921826 -1.47811 0
M  V30 1042 C 105.23 1.70754 -2.95052 0
M  V30 1043 H 106.423 -0.100058 -2.99733 0
M  V30 1044 H 103.976 -0.0896198 -1.56043 0
M  V30 1045 H 104.711 2.35474 -2.22986 0
M  V30 1046 H 104.496 1.33946 -3.68512 0
M  V30 1047 H 105.986 2.30818 -3.48013 0
M  V30 1048 N 106.423 1.57458 -0.0668435 0
M  V30 1049 C 107.672 1.92477 0.602947 0
M  V30 1050 C 107.985 0.948419 1.71068 0
M  V30 1051 O 109.191 1.19124 2.43971 0
M  V30 1052 C 107.647 3.41903 1.12383 0
M  V30 1053 C 107.255 4.47975 0.04737 0
M  V30 1054 C 108.999 3.85931 1.76797 0
M  V30 1055 C 106.906 5.88529 0.582022 0
M  V30 1056 H 105.836 0.718387 0.22899 0
M  V30 1057 H 108.487 1.82978 -0.138276 0
M  V30 1058 H 106.869 3.46459 1.91787 0
M  V30 1059 H 108.043 4.55029 -0.726978 0
M  V30 1060 H 106.358 4.13384 -0.500243 0
M  V30 1061 H 108.955 4.88322 2.17821 0
M  V30 1062 H 109.298 3.23029 2.62599 0
M  V30 1063 H 109.831 3.83958 1.04024 0
M  V30 1064 H 106.57 6.55065 -0.238721 0
M  V30 1065 H 106.09 5.85004 1.324 0
M  V30 1066 H 107.769 6.38258 1.05999 0
M  V30 1067 N 107.901 -0.206675 1.56239 0
M  V30 1068 C 109.317 -0.557025 1.49564 0
M  V30 1069 C 109.517 -1.86424 0.764735 0
M  V30 1070 O 108.573 -2.50584 0.310491 0
M  V30 1071 C 109.886 -0.622478 2.94186 0
M  V30 1072 C 111.434 -0.712099 3.04792 0
M  V30 1073 C 111.909 -0.808767 4.50803 0
M  V30 1074 N 113.4 -0.8726 4.54907 0
M  V30 1075 C 114.135 -0.967365 5.65181 0
M  V30 1076 N 113.631 -1.02515 6.85173 0
M  V30 1077 N 115.424 -1.00366 5.53067 0
M  V30 1078 H 107.575 0.650943 2.02179 0
M  V30 1079 H 109.838 0.230387 0.919579 0
M  V30 1080 H 109.544 0.268727 3.50672 0
M  V30 1081 H 109.418 -1.4811 3.46905 0
M  V30 1082 H 111.805 -1.59374 2.48363 0
M  V30 1083 H 111.886 0.172489 2.55218 0
M  V30 1084 H 111.53 0.0684754 5.07854 0
M  V30 1085 H 111.46 -1.70899 4.98098 0
M  V30 1086 H 113.951 -0.837657 3.68499 0
M  V30 1087 H 114.264 -1.09765 7.64965 0
M  V30 1088 H 112.609 -0.994026 6.87855 0
M  V30 1089 H 115.8 -0.95527 4.58249 0
M  V30 1090 H 115.973 -1.07405 6.39037 0
M  V30 1091 N 109.379 -1.50304 -0.473955 0
M  V30 1092 C 110.309 -1.71886 -1.58042 0
M  V30 1093 C 111.29 -0.567799 -1.60344 0
M  V30 1094 O 112.475 -0.806623 -1.76656 0
M  V30 1095 C 109.605 -1.81036 -2.96384 0
M  V30 1096 C 108.559 -2.962 -3.08949 0
M  V30 1097 C 107.885 -2.9049 -4.48909 0
M  V30 1098 C 109.185 -4.36752 -2.86434 0
M  V30 1099 H 110.879 -2.64527 -1.40234 0
M  V30 1100 H 108.425 -1.27295 -0.673201 0
M  V30 1101 H 110.378 -1.94719 -3.73714 0
M  V30 1102 H 109.102 -0.850147 -3.15341 0
M  V30 1103 H 107.761 -2.82164 -2.3405 0
M  V30 1104 H 107.409 -1.92321 -4.64781 0
M  V30 1105 H 107.109 -3.67802 -4.58253 0
M  V30 1106 H 108.633 -3.06218 -5.28264 0
M  V30 1107 H 110.047 -4.5133 -3.53517 0
M  V30 1108 H 108.444 -5.15493 -3.07225 0
M  V30 1109 H 109.514 -4.49321 -1.82316 0
M  V30 1110 N 110.857 0.726932 -1.39834 0
M  V30 1111 C 112.103 1.48884 -1.377 0
M  V30 1112 C 112.436 1.94185 0.0244852 0
M  V30 1113 O 111.711 1.67361 0.990986 0
M  V30 1114 C 111.994 2.72288 -2.3565 0
M  V30 1115 C 111.847 2.32956 -3.84775 0
M  V30 1116 C 113.166 3.74414 -2.31306 0
M  V30 1117 H 110.285 0.540062 -0.5015 0
M  V30 1118 H 112.927 0.830547 -1.70886 0
M  V30 1119 H 111.077 3.28457 -2.07481 0
M  V30 1120 H 112.749 1.82356 -4.23726 0
M  V30 1121 H 110.992 1.65088 -4.01159 0
M  V30 1122 H 111.663 3.21362 -4.4881 0
M  V30 1123 H 114.139 3.27849 -2.56231 0
M  V30 1124 H 113.015 4.58414 -3.01907 0
M  V30 1125 H 113.276 4.21909 -1.32081 0
M  V30 1126 N 112.336 1.25143 0.95797 0
M  V30 1127 C 113.576 1.10893 1.71703 0
M  V30 1128 C 113.94 -0.34478 1.88879 0
M  V30 1129 O 115.141 -0.609014 2.6181 0
M  V30 1130 C 113.412 1.83889 3.06463 0
M  V30 1131 S 114.971 1.85491 3.97666 0
M  V30 1132 H 111.789 0.396428 0.590226 0
M  V30 1133 H 114.391 1.58618 1.14283 0
M  V30 1134 H 113.095 2.88756 2.9163 0
M  V30 1135 H 112.626 1.36538 3.68946 0
M  V30 1136 H 114.641 0.929553 4.87415 0
M  V30 1137 N 113.814 -1.1601 1.06675 0
M  V30 1138 C 115.039 -1.91068 0.806706 0
M  V30 1139 C 115.464 -1.77112 -0.633485 0
M  V30 1140 O 114.822 -1.09908 -1.44187 0
M  V30 1141 C 114.87 -3.39655 1.21106 0
M  V30 1142 O 113.974 -4.10893 0.352189 0
M  V30 1143 H 113.315 -0.595125 0.294486 0
M  V30 1144 H 115.845 -1.46955 1.42356 0
M  V30 1145 H 115.855 -3.90434 1.18428 0
M  V30 1146 H 114.53 -3.49132 2.26008 0
M  V30 1147 H 113.107 -3.70285 0.440868 0
M  V30 1148 N 115.292 -0.849877 -1.32721 0
M  V30 1149 C 116.708 -0.539102 -1.50219 0
M  V30 1150 C 116.908 0.931271 -1.78689 0
M  V30 1151 O 115.964 1.71455 -1.85363 0
M  V30 1152 C 117.277 -1.42196 -2.64954 0
M  V30 1153 C 118.825 -1.42189 -2.78839 0
M  V30 1154 C 119.3 -2.28985 -3.96648 0
M  V30 1155 N 120.791 -2.26754 -4.03902 0
M  V30 1156 C 121.526 -2.90644 -4.94281 0
M  V30 1157 N 121.022 -3.63629 -5.897 0
M  V30 1158 N 122.815 -2.80057 -4.87365 0
M  V30 1159 H 114.966 -1.80156 -1.12506 0
M  V30 1160 H 117.229 -0.769217 -0.554085 0
M  V30 1161 H 116.935 -2.46733 -2.50631 0
M  V30 1162 H 116.809 -1.10591 -3.60624 0
M  V30 1163 H 119.196 -0.38419 -2.92588 0
M  V30 1164 H 119.277 -1.77807 -1.83898 0
M  V30 1165 H 118.921 -3.32819 -3.83658 0
M  V30 1166 H 118.851 -1.90702 -4.90857 0
M  V30 1167 H 121.342 -1.73688 -3.3562 0
M  V30 1168 H 121.655 -4.09558 -6.55349 0
M  V30 1169 H 120 -3.67737 -5.89741 0
M  V30 1170 H 123.191 -2.22593 -4.11789 0
M  V30 1171 H 123.364 -3.30132 -5.57599 0
M  V30 1172 N 116.77 1.45427 -0.607355 0
M  V30 1173 C 118.018 2.01841 -0.102253 0
M  V30 1174 C 118.339 1.47832 1.27164 0
M  V30 1175 O 117.609 0.672497 1.83995 0
M  V30 1176 H 116.189 0.746188 -0.0348101 0
M  V30 1177 H 118.851 1.78229 -0.7887 0
M  V30 1178 H 117.947 3.12057 -0.0518585 0
M  V30 1179 N 118.248 0.346503 1.53744 0
M  V30 1180 C 119.196 -0.52422 2.26616 0
M  V30 1181 C 120.19 -1.09948 1.28871 0
M  V30 1182 O 121.396 -1.04488 1.46568 0
M  V30 1183 H 117.771 -0.187743 0.728187 0
M  V30 1184 H 119.742 0.11239 2.98188 0
M  V30 1185 C 118.491 -1.66186 3.05414 0
M  V30 1186 H 117.814 -1.22848 3.80458 0
M  V30 1187 H 119.254 -2.24622 3.59612 0
M  V30 1188 C 117.713 -2.59302 2.1509 0
M  V30 1189 O 118.243 -3.61628 1.74895 0
M  V30 1190 N 116.449 -2.28055 1.8011 0
M  V30 1191 H 115.996 -1.44883 2.12994 0
M  V30 1192 H 115.954 -2.90615 1.19958 0
M  V30 1193 N 119.726 -1.57421 0.075193 0
M  V30 1194 C 121.142 -1.57099 -0.281444 0
M  V30 1195 C 121.342 -1.08486 -1.69803 0
M  V30 1196 O 120.398 -0.752279 -2.41033 0
M  V30 1197 C 121.711 -3.00571 -0.0880041 0
M  V30 1198 C 123.259 -3.12605 -0.157281 0
M  V30 1199 C 123.734 -4.57999 0.0079207 0
M  V30 1200 N 125.225 -4.63176 -0.0475725 0
M  V30 1201 C 125.96 -5.73373 0.0557876 0
M  V30 1202 N 125.456 -6.92473 0.21286 0
M  V30 1203 N 127.249 -5.621 -0.00152098 0
M  V30 1204 H 119.4 -1.87335 1.00098 0
M  V30 1205 H 121.663 -0.86377 0.390646 0
M  V30 1206 H 121.369 -3.40262 0.889629 0
M  V30 1207 H 121.243 -3.67754 -0.838875 0
M  V30 1208 H 123.63 -2.72798 -1.1254 0
M  V30 1209 H 123.711 -2.48053 0.62475 0
M  V30 1210 H 123.355 -4.98496 0.972824 0
M  V30 1211 H 123.285 -5.20586 -0.793556 0
M  V30 1212 H 125.776 -3.7753 -0.167244 0
M  V30 1213 H 126.089 -7.72279 0.283781 0
M  V30 1214 H 124.434 -6.94556 0.248267 0
M  V30 1215 H 127.625 -4.67938 -0.122958 0
M  V30 1216 H 127.798 -6.47948 0.0824844 0
M  V30 1217 N 121.204 0.198386 -1.56346 0
M  V30 1218 C 122.134 1.24865 -1.9731 0
M  V30 1219 C 123.115 1.47651 -0.844576 0
M  V30 1220 O 124.3 1.59444 -1.10866 0
M  V30 1221 C 121.43 2.59358 -2.30977 0
M  V30 1222 C 120.384 2.5119 -3.46537 0
M  V30 1223 C 119.71 3.89926 -3.65871 0
M  V30 1224 C 121.01 2.03977 -4.80823 0
M  V30 1225 H 122.704 0.908252 -2.85291 0
M  V30 1226 H 120.25 0.435462 -1.37258 0
M  V30 1227 H 122.203 3.33011 -2.58228 0
M  V30 1228 H 120.927 2.95132 -1.39874 0
M  V30 1229 H 119.586 1.79993 -3.19371 0
M  V30 1230 H 119.234 4.23046 -2.72105 0
M  V30 1231 H 118.934 3.85336 -4.4361 0
M  V30 1232 H 120.458 4.65205 -3.95495 0
M  V30 1233 H 121.872 2.67386 -5.07127 0
M  V30 1234 H 120.269 2.10397 -5.62008 0
M  V30 1235 H 121.339 0.992861 -4.74626 0
M  V30 1236 N 122.682 1.50554 0.465978 0
M  V30 1237 C 123.629 1.6979 1.56333 0
M  V30 1238 C 124.599 0.539239 1.57103 0
M  V30 1239 O 125.784 0.770401 1.74555 0
M  V30 1240 C 122.924 1.80273 2.94271 0
M  V30 1241 C 122.037 3.07674 3.0325 0
M  V30 1242 C 121.172 3.08922 4.32135 0
M  V30 1243 C 120.211 4.30755 4.34875 0
M  V30 1244 N 119.348 4.29714 5.55239 0
M  V30 1245 H 124.188 2.63472 1.39235 0
M  V30 1246 H 121.725 1.30602 0.676873 0
M  V30 1247 H 123.683 1.84332 3.74269 0
M  V30 1248 H 122.313 0.900258 3.09992 0
M  V30 1249 H 121.365 3.13062 2.16094 0
M  V30 1250 H 122.677 3.97642 3.01135 0
M  V30 1251 H 121.831 3.11738 5.20485 0
M  V30 1252 H 120.57 2.16792 4.36866 0
M  V30 1253 H 119.575 4.28146 3.44922 0
M  V30 1254 H 120.8 5.24117 4.31831 0
M  V30 1255 H 118.746 3.4044 5.60746 0
M  V30 1256 H 118.663 5.13456 5.54886 0
M  V30 1257 H 119.931 4.36683 6.457 0
M  V30 1258 N 124.16 -0.719506 1.40217 0
M  V30 1259 C 125.388 -1.50864 1.41589 0
M  V30 1260 C 125.803 -1.88794 0.0145275 0
M  V30 1261 O 125.16 -1.55174 -0.960594 0
M  V30 1262 C 125.211 -2.78646 2.30302 0
M  V30 1263 O 124.932 -2.42321 3.64983 0
M  V30 1264 C 126.433 -3.72569 2.40224 0
M  V30 1265 H 123.653 -0.465709 0.48307 0
M  V30 1266 H 126.197 -0.88785 1.84221 0
M  V30 1267 H 124.352 -3.37019 1.91042 0
M  V30 1268 H 124.766 -3.24514 4.12057 0
M  V30 1269 H 126.24 -4.5908 3.06512 0
M  V30 1270 H 126.717 -4.15403 1.42608 0
M  V30 1271 H 127.323 -3.20109 2.80019 0
M  V30 1272 N 125.638 -1.25649 -0.95132 0
M  V30 1273 C 126.866 -1.13343 -1.73092 0
M  V30 1274 C 127.281 0.312434 -1.86197 0
M  V30 1275 O 126.638 1.21465 -1.36207 0
M  V30 1276 C 126.689 -1.78602 -3.14299 0
M  V30 1277 O 126.41 -3.17537 -3.01831 0
M  V30 1278 C 127.911 -1.72119 -4.08522 0
M  V30 1279 H 125.131 -0.395181 -0.542285 0
M  V30 1280 H 127.675 -1.66076 -1.19328 0
M  V30 1281 H 125.83 -1.29832 -3.64996 0
M  V30 1282 H 126.244 -3.49676 -3.90931 0
M  V30 1283 H 127.718 -2.22435 -5.052 0
M  V30 1284 H 128.195 -0.685635 -4.33815 0
M  V30 1285 H 128.801 -2.20393 -3.63741 0
M  V30 1286 N 127.117 1.15442 -1.07289 0
M  V30 1287 C 128.342 1.90638 -0.816828 0
M  V30 1288 C 128.767 1.77445 0.624083 0
M  V30 1289 O 128.125 1.10671 1.43602 0
M  V30 1290 C 128.173 3.39008 -1.22906 0
M  V30 1291 O 127.277 4.10701 -0.373975 0
M  V30 1292 H 126.618 0.593555 -0.297638 0
M  V30 1293 H 129.148 1.46198 -1.43134 0
M  V30 1294 H 129.158 3.89801 -1.20497 0
M  V30 1295 H 127.833 3.47929 -2.27856 0
M  V30 1296 H 126.41 3.70046 -0.460499 0
M  V30 1297 N 128.595 0.856903 1.32268 0
M  V30 1298 C 129.841 0.471355 1.97863 0
M  V30 1299 C 130.196 -0.962896 1.66572 0
M  V30 1300 O 129.489 -1.66686 0.944797 0
M  V30 1301 C 129.683 0.649919 3.51441 0
M  V30 1302 C 129.512 2.09997 3.97657 0
M  V30 1303 C 128.282 2.73893 4.2463 0
M  V30 1304 C 130.48 3.07081 4.1256 0
M  V30 1305 N 128.462 4.09786 4.57109 0
M  V30 1306 C 129.833 4.27968 4.48602 0
M  V30 1307 C 131.888 3.03247 3.949 0
M  V30 1308 C 130.591 5.45521 4.68827 0
M  V30 1309 C 132.617 4.20046 4.16311 0
M  V30 1310 C 131.979 5.39692 4.52672 0
M  V30 1311 H 128.078 0.221263 0.750044 0
M  V30 1312 H 130.662 1.10876 1.60045 0
M  V30 1313 H 128.833 0.0421938 3.88377 0
M  V30 1314 H 130.565 0.234044 4.04023 0
M  V30 1315 H 127.32 2.24918 4.16784 0
M  V30 1316 H 127.744 4.7989 4.7753 0
M  V30 1317 H 132.386 2.11863 3.65888 0
M  V30 1318 H 130.104 6.37434 4.96693 0
M  V30 1319 H 133.69 4.18517 4.04147 0
M  V30 1320 H 132.57 6.28566 4.68907 0
M  V30 1321 N 130.073 -1.45103 0.615059 0
M  V30 1322 C 131.321 -2.01784 0.112955 0
M  V30 1323 C 131.642 -1.48504 -1.26378 0
M  V30 1324 O 130.912 -0.682245 -1.83636 0
M  V30 1325 H 129.492 -0.745993 0.0387668 0
M  V30 1326 H 132.154 -1.77808 0.798141 0
M  V30 1327 H 131.25 -3.12025 0.0684069 0
M  V30 1328 N 131.551 -0.354651 -1.53558 0
M  V30 1329 C 132.481 0.489091 -2.2832 0
M  V30 1330 C 133.462 1.09324 -1.30316 0
M  V30 1331 O 134.647 1.11255 -1.59173 0
M  V30 1332 C 131.777 1.63456 -3.0643 0
M  V30 1333 C 130.731 1.1582 -4.12031 0
M  V30 1334 C 130.057 2.39305 -4.7816 0
M  V30 1335 C 131.357 0.250731 -5.21698 0
M  V30 1336 H 133.051 -0.134614 -2.99097 0
M  V30 1337 H 130.597 -0.0661826 -1.43848 0
M  V30 1338 H 132.55 2.23136 -3.57475 0
M  V30 1339 H 131.274 2.28533 -2.33325 0
M  V30 1340 H 129.933 0.584146 -3.61916 0
M  V30 1341 H 129.581 3.02814 -4.01637 0
M  V30 1342 H 129.281 2.08109 -5.49513 0
M  V30 1343 H 130.805 2.99691 -5.31994 0
M  V30 1344 H 132.219 0.754695 -5.68311 0
M  V30 1345 H 130.616 0.0301468 -6.00092 0
M  V30 1346 H 131.686 -0.710125 -4.79672 0
M  V30 1347 N 133.029 1.57378 -0.0835403 0
M  V30 1348 C 133.959 2.1641 0.87686 0
M  V30 1349 C 134.94 1.09429 1.30228 0
M  V30 1350 O 136.125 1.37516 1.37124 0
M  V30 1351 C 133.255 2.73517 2.14022 0
M  V30 1352 C 132.209 3.85769 1.85381 0
M  V30 1353 C 131.535 4.29529 3.18448 0
M  V30 1354 C 132.835 5.09486 1.14984 0
M  V30 1355 H 134.529 2.96914 0.385059 0
M  V30 1356 H 132.075 1.42823 0.18377 0
M  V30 1357 H 134.028 3.13463 2.81636 0
M  V30 1358 H 132.752 1.90252 2.65465 0
M  V30 1359 H 131.411 3.46345 1.20169 0
M  V30 1360 H 131.059 3.43169 3.67755 0
M  V30 1361 H 130.759 5.05204 3.00071 0
M  V30 1362 H 132.283 4.72099 3.8724 0
M  V30 1363 H 133.697 5.46674 1.72687 0
M  V30 1364 H 132.094 5.90515 1.06826 0
M  V30 1365 H 133.164 4.84724 0.130749 0
M  V30 1366 N 134.507 -0.190092 1.56449 0
M  V30 1367 C 135.732 -0.929864 1.85387 0
M  V30 1368 C 136.157 -1.7585 0.667704 0
M  V30 1369 O 135.515 -1.77198 -0.383459 0
M  V30 1370 C 135.563 -1.79773 3.12593 0
M  V30 1371 O 134.667 -2.89713 2.93496 0
M  V30 1372 H 134.008 -0.261574 0.610307 0
M  V30 1373 H 136.538 -0.193896 2.03679 0
M  V30 1374 H 136.548 -2.20139 3.43515 0
M  V30 1375 H 135.223 -1.18892 3.98544 0
M  V30 1376 H 133.8 -2.53065 2.73884 0
M  V30 1377 N 135.985 -1.50799 -0.457987 0
M  V30 1378 C 136.915 -1.73553 -1.5621 0
M  V30 1379 C 137.896 -0.584774 -1.59732 0
M  V30 1380 O 139.081 -0.825314 -1.7579 0
M  V30 1381 C 136.211 -1.84169 -2.94447 0
M  V30 1382 C 135.165 -2.99461 -3.0579 0
M  V30 1383 C 134.491 -2.95235 -4.45803 0
M  V30 1384 C 135.791 -4.39766 -2.81786 0
M  V30 1385 H 137.485 -2.66 -1.37421 0
M  V30 1386 H 135.031 -1.28002 -0.659662 0
M  V30 1387 H 136.984 -1.98672 -3.71628 0
M  V30 1388 H 135.708 -0.883545 -3.14422 0
M  V30 1389 H 134.367 -2.8463 -2.31044 0
M  V30 1390 H 134.015 -1.97239 -4.62715 0
M  V30 1391 H 133.715 -3.72642 -4.54326 0
M  V30 1392 H 135.239 -3.11803 -5.24987 0
M  V30 1393 H 136.653 -4.55054 -3.4871 0
M  V30 1394 H 135.05 -5.18722 -3.0174 0
M  V30 1395 H 136.12 -4.51229 -1.7754 0
M  V30 1396 N 137.463 0.71206 -1.40597 0
M  V30 1397 C 138.711 1.46907 -1.38791 0
M  V30 1398 C 139.032 1.94998 0.00780391 0
M  V30 1399 O 138.302 1.70587 0.963174 0
M  V30 1400 H 136.882 0.545043 -0.51082 0
M  V30 1401 H 139.544 0.843882 -1.75683 0
M  V30 1402 H 138.64 2.34021 -2.06496 0
M  V30 1403 N 138.941 1.26152 0.944643 0
M  V30 1404 C 139.904 1.07474 2.0244 0
M  V30 1405 C 140.904 0.0242064 1.60782 0
M  V30 1406 O 142.094 0.267302 1.72137 0
M  V30 1407 C 139.226 0.633956 3.34953 0
M  V30 1408 H 140.419 2.03336 2.20442 0
M  V30 1409 H 137.972 1.087 1.12312 0
M  V30 1410 H 138.707 -0.326811 3.22649 0
M  V30 1411 H 138.492 1.39247 3.66542 0
M  V30 1412 H 139.982 0.52501 4.14287 0
M  V30 1413 N 140.419 -1.14872 1.07899 0
M  V30 1414 C 141.349 -2.2193 0.725887 0
M  V30 1415 C 142.33 -1.67622 -0.28927 0
M  V30 1416 O 143.515 -1.93533 -0.160787 0
M  V30 1417 C 140.645 -3.47061 0.128856 0
M  V30 1418 C 139.599 -4.14363 1.07178 0
M  V30 1419 C 138.925 -5.33636 0.337229 0
M  V30 1420 C 140.225 -4.63492 2.40775 0
M  V30 1421 H 141.919 -2.51724 1.62097 0
M  V30 1422 H 139.465 -1.20991 0.780838 0
M  V30 1423 H 141.418 -4.21199 -0.130147 0
M  V30 1424 H 140.142 -3.16617 -0.80134 0
M  V30 1425 H 138.801 -3.42173 1.3158 0
M  V30 1426 H 138.449 -4.99449 -0.596606 0
M  V30 1427 H 138.149 -5.79609 0.965788 0
M  V30 1428 H 139.673 -6.10539 0.0861567 0
M  V30 1429 H 141.087 -5.2913 2.20669 0
M  V30 1430 H 139.484 -5.20148 2.99276 0
M  V30 1431 H 140.554 -3.78834 3.02676 0
M  V30 1432 N 141.898 -0.863906 -1.31812 0
M  V30 1433 C 143.144 -0.472535 -1.97218 0
M  V30 1434 C 143.477 0.971394 -1.68159 0
M  V30 1435 O 142.752 1.68309 -0.974798 0
M  V30 1436 C 143.035 -0.723054 -3.52766 0
M  V30 1437 C 142.888 -2.21608 -3.91421 0
M  V30 1438 C 144.207 -0.185522 -4.39709 0
M  V30 1439 H 141.326 -0.173158 -0.71637 0
M  V30 1440 H 143.968 -1.08403 -1.56041 0
M  V30 1441 H 142.118 -0.202577 -3.87971 0
M  V30 1442 H 143.79 -2.80334 -3.66347 0
M  V30 1443 H 142.033 -2.691 -3.40246 0
M  V30 1444 H 142.704 -2.34203 -4.99853 0
M  V30 1445 H 145.18 -0.630726 -4.11292 0
M  V30 1446 H 144.056 -0.390306 -5.47511 0
M  V30 1447 H 144.317 0.912229 -4.32586 0
M  V30 1448 N 143.376 1.44774 -0.622745 0
M  V30 1449 C 144.339 2.29069 0.0774015 0
M  V30 1450 C 145.339 1.4059 0.780461 0
M  V30 1451 O 146.529 1.62551 0.626322 0
M  V30 1452 C 143.661 3.21974 1.12006 0
M  V30 1453 H 144.854 2.92459 -0.663901 0
M  V30 1454 H 142.407 1.51548 -0.382486 0
M  V30 1455 H 143.142 2.63417 1.89162 0
M  V30 1456 H 142.927 3.87168 0.619951 0
M  V30 1457 H 144.417 3.85318 1.60995 0
M  V30 1458 N 144.854 0.36279 1.53368 0
M  V30 1459 C 145.784 -0.476976 2.28576 0
M  V30 1460 C 146.765 -1.08631 1.30894 0
M  V30 1461 O 147.95 -1.10409 1.59761 0
M  V30 1462 C 145.08 -1.61828 3.07293 0
M  V30 1463 C 144.034 -1.13633 4.1264 0
M  V30 1464 C 143.36 -2.36766 4.79423 0
M  V30 1465 C 144.66 -0.223061 5.21823 0
M  V30 1466 H 146.354 0.150474 2.99022 0
M  V30 1467 H 143.9 0.0738103 1.43811 0
M  V30 1468 H 145.853 -2.21237 3.58653 0
M  V30 1469 H 144.577 -2.27292 2.34533 0
M  V30 1470 H 143.236 -0.564945 3.62221 0
M  V30 1471 H 142.884 -3.0068 4.03238 0
M  V30 1472 H 142.584 -2.05192 5.50609 0
M  V30 1473 H 144.108 -2.96865 5.33576 0
M  V30 1474 H 145.522 -0.724545 5.68703 0
M  V30 1475 H 143.919 0.001678 6.001 0
M  V30 1476 H 144.989 0.735553 4.79289 0
M  V30 1477 N 146.332 -1.57332 0.0918853 0
M  V30 1478 C 147.572 -1.96117 -0.575988 0
M  V30 1479 C 147.936 -0.972499 -1.65549 0
M  V30 1480 O 149.137 -1.24872 -2.38034 0
M  V30 1481 C 147.408 -3.39407 -1.11973 0
M  V30 1482 S 148.967 -4.00185 -1.79992 0
M  V30 1483 H 145.785 -0.685682 -0.188045 0
M  V30 1484 H 148.387 -1.94755 0.170525 0
M  V30 1485 H 147.091 -4.09131 -0.322504 0
M  V30 1486 H 146.622 -3.44358 -1.90214 0
M  V30 1487 H 148.637 -3.88728 -3.08391 0
M  V30 1488 N 147.81 0.181792 -1.56548 0
M  V30 1489 C 149.056 0.896803 -1.82562 0
M  V30 1490 C 149.411 1.80324 -0.670908 0
M  V30 1491 O 148.704 1.8868 0.333235 0
M  V30 1492 C 148.898 1.73728 -3.12335 0
M  V30 1493 C 148.727 0.913714 -4.4032 0
M  V30 1494 C 147.497 0.592903 -5.01809 0
M  V30 1495 C 149.695 0.260164 -5.13642 0
M  V30 1496 N 147.677 -0.247901 -6.13399 0
M  V30 1497 C 149.048 -0.442256 -6.18421 0
M  V30 1498 C 151.103 0.177253 -4.97584 0
M  V30 1499 C 149.806 -1.21971 -7.08883 0
M  V30 1500 C 151.832 -0.586839 -5.88481 0
M  V30 1501 C 151.194 -1.27766 -6.92716 0
M  V30 1502 H 147.293 0.307122 -0.719166 0
M  V30 1503 H 149.877 0.164535 -1.94004 0
M  V30 1504 H 148.048 2.44105 -3.02105 0
M  V30 1505 H 149.78 2.39279 -3.26386 0
M  V30 1506 H 146.535 0.920502 -4.64568 0
M  V30 1507 H 146.959 -0.658304 -6.73792 0
M  V30 1508 H 151.601 0.696993 -4.17015 0
M  V30 1509 H 149.319 -1.75083 -7.88905 0
M  V30 1510 H 152.905 -0.652522 -5.78129 0
M  V30 1511 H 151.785 -1.85943 -7.61836 0
M  V30 1512 N 149.288 1.51039 0.449983 0
M  V30 1513 C 150.22 1.67617 1.56324 0
M  V30 1514 C 151.233 0.557083 1.52972 0
M  V30 1515 O 152.422 0.830989 1.57977 0
M  V30 1516 C 149.522 1.66402 2.95235 0
M  V30 1517 C 148.695 2.9469 3.23229 0
M  V30 1518 C 147.754 2.85832 4.41799 0
M  V30 1519 O 146.78 3.59785 4.41071 0
M  V30 1520 N 147.982 2.00821 5.44657 0
M  V30 1521 H 150.747 2.63648 1.42512 0
M  V30 1522 H 148.308 1.48767 0.638737 0
M  V30 1523 H 150.3 1.58062 3.72557 0
M  V30 1524 H 148.87 0.780182 3.02708 0
M  V30 1525 H 148.09 3.16996 2.34323 0
M  V30 1526 H 149.378 3.79636 3.38754 0
M  V30 1527 H 148.776 1.40091 5.48079 0
M  V30 1528 H 147.333 1.98368 6.20881 0
M  V30 1529 N 150.766 -0.704594 1.40972 0
M  V30 1530 C 151.696 -1.83124 1.44872 0
M  V30 1531 C 152.677 -1.67281 0.30838 0
M  V30 1532 O 153.862 -1.87149 0.518556 0
M  V30 1533 C 150.992 -3.21181 1.32136 0
M  V30 1534 C 149.946 -3.51714 2.43888 0
M  V30 1535 C 149.272 -4.89032 2.16222 0
M  V30 1536 C 150.572 -3.516 3.86232 0
M  V30 1537 H 152.266 -1.80117 2.39161 0
M  V30 1538 H 149.812 -0.865145 1.15114 0
M  V30 1539 H 151.765 -3.99702 1.33479 0
M  V30 1540 H 150.489 -3.24791 0.343279 0
M  V30 1541 H 149.148 -2.75539 2.41813 0
M  V30 1542 H 148.796 -4.89256 1.16778 0
M  V30 1543 H 148.496 -5.10426 2.911 0
M  V30 1544 H 150.02 -5.69873 2.19265 0
M  V30 1545 H 151.434 -4.2014 3.9007 0
M  V30 1546 H 149.831 -3.84523 4.60719 0
M  V30 1547 H 150.901 -2.50757 4.15029 0
M  V30 1548 N 152.244 -1.26651 -0.937939 0
M  V30 1549 C 153.492 -1.12165 -1.68118 0
M  V30 1550 C 153.813 0.334983 -1.92101 0
M  V30 1551 O 153.083 1.23583 -1.52 0
M  V30 1552 H 151.663 -0.412093 -0.623048 0
M  V30 1553 H 154.325 -1.59027 -1.12678 0
M  V30 1554 H 153.421 -1.64289 -2.6536 0
M  V30 1555 N 153.722 1.14298 -1.08507 0
M  V30 1556 C 154.652 2.21542 -0.737646 0
M  V30 1557 C 155.633 1.67773 0.280377 0
M  V30 1558 O 156.818 1.93616 0.150521 0
M  V30 1559 C 153.948 3.46988 -0.147259 0
M  V30 1560 C 152.902 4.13789 -1.09374 0
M  V30 1561 C 152.228 5.33449 -0.365524 0
M  V30 1562 C 153.528 4.62208 -2.4323 0
M  V30 1563 H 155.222 2.5086 -1.6343 0
M  V30 1564 H 152.768 1.20576 -0.787243 0
M  V30 1565 H 154.721 4.21262 0.107808 0
M  V30 1566 H 153.445 3.17037 0.784538 0
M  V30 1567 H 152.104 3.4147 -1.33393 0
M  V30 1568 H 151.752 4.99759 0.57011 0
M  V30 1569 H 151.452 5.79088 -0.996512 0
M  V30 1570 H 152.976 6.10485 -0.118534 0
M  V30 1571 H 154.39 5.27952 -2.23472 0
M  V30 1572 H 152.787 5.18553 -3.02031 0
M  V30 1573 H 153.857 3.77224 -3.04681 0
M  V30 1574 N 155.201 0.870884 1.31352 0
M  V30 1575 C 156.131 0.343096 2.30966 0
M  V30 1576 C 157.112 -0.566507 1.60389 0
M  V30 1577 O 158.297 -0.483336 1.88089 0
M  V30 1578 C 155.427 -0.455487 3.443 0
M  V30 1579 C 154.381 0.361103 4.26474 0
M  V30 1580 C 153.707 -0.563221 5.31725 0
M  V30 1581 C 155.007 1.59566 4.97329 0
M  V30 1582 H 156.701 1.17548 2.75359 0
M  V30 1583 H 154.247 0.566686 1.32381 0
M  V30 1584 H 156.2 -0.83525 4.13039 0
M  V30 1585 H 154.924 -1.32139 2.98675 0
M  V30 1586 H 153.583 0.722825 3.59403 0
M  V30 1587 H 153.231 -1.42643 4.82351 0
M  V30 1588 H 152.931 -0.0207409 5.87596 0
M  V30 1589 H 154.455 -0.939808 6.03324 0
M  V30 1590 H 155.869 1.28728 5.58661 0
M  V30 1591 H 154.266 2.07728 5.63 0
M  V30 1592 H 155.336 2.34798 4.24262 0
M  V30 1593 N 156.679 -1.44442 0.630414 0
M  V30 1594 C 157.926 -2.02052 0.134617 0
M  V30 1595 C 158.254 -1.49576 -1.24327 0
M  V30 1596 O 157.509 -0.669806 -1.83881 0
M  V30 1597 C 157.808 -3.57332 0.0697835 0
M  V30 1598 C 157.474 -4.29058 1.38635 0
M  V30 1599 C 156.136 -4.4837 1.74694 0
M  V30 1600 C 158.488 -4.69872 2.25543 0
M  V30 1601 C 155.816 -5.05756 2.97369 0
M  V30 1602 C 158.168 -5.28616 3.47487 0
M  V30 1603 C 156.832 -5.46147 3.8377 0
M  V30 1604 H 156.102 -0.739361 0.0492598 0
M  V30 1605 H 158.749 -1.73217 0.816586 0
M  V30 1606 H 157.054 -3.85577 -0.695553 0
M  V30 1607 H 158.751 -3.99637 -0.330344 0
M  V30 1608 H 155.341 -4.14357 1.09574 0
M  V30 1609 H 159.525 -4.54666 1.98979 0
M  V30 1610 H 154.781 -5.17515 3.25558 0
M  V30 1611 H 158.955 -5.59192 4.15063 0
M  V30 1612 H 156.582 -5.9038 4.7891 0
M  V30 1613 N 158.157 -0.370918 -1.53173 0
M  V30 1614 C 159.067 0.480823 -2.2962 0
M  V30 1615 C 160.083 1.08789 -1.35798 0
M  V30 1616 O 161.259 1.09768 -1.68858 0
M  V30 1617 C 158.324 1.60227 -3.07454 0
M  V30 1618 C 157.385 1.0222 -4.16953 0
M  V30 1619 C 156.618 2.0902 -4.91066 0
M  V30 1620 O 156.841 3.30222 -4.65091 0
M  V30 1621 O 155.775 1.71778 -5.76867 0
M  V30 1622 H 159.601 -0.141421 -3.03371 0
M  V30 1623 H 157.186 -0.135146 -1.48787 0
M  V30 1624 H 159.068 2.25417 -3.56041 0
M  V30 1625 H 157.743 2.20982 -2.36535 0
M  V30 1626 H 156.65 0.334064 -3.72605 0
M  V30 1627 H 157.983 0.459131 -4.90054 0
M  V30 1628 N 159.635 1.57281 -0.100228 0
M  V30 1629 C 161.051 1.57527 0.256416 0
M  V30 1630 C 161.251 1.11173 1.68056 0
M  V30 1631 O 160.307 0.79053 2.39806 0
M  V30 1632 C 161.62 3.00673 0.0401747 0
M  V30 1633 C 163.168 3.12815 0.107528 0
M  V30 1634 C 163.643 4.57929 -0.0807834 0
M  V30 1635 N 165.134 4.63193 -0.0261207 0
M  V30 1636 C 165.869 5.73212 -0.146999 0
M  V30 1637 N 165.365 6.92047 -0.322999 0
M  V30 1638 N 167.158 5.62031 -0.0879044 0
M  V30 1639 H 159.309 1.85718 -1.03065 0
M  V30 1640 H 161.572 0.857446 -0.404339 0
M  V30 1641 H 161.278 3.38804 -0.943649 0
M  V30 1642 H 161.152 3.69042 0.780262 0
M  V30 1643 H 163.539 2.74554 1.08186 0
M  V30 1644 H 163.62 2.47028 -0.664134 0
M  V30 1645 H 163.264 4.96886 -1.05201 0
M  V30 1646 H 163.194 5.21783 0.710635 0
M  V30 1647 H 165.685 3.77748 0.107161 0
M  V30 1648 H 165.998 7.7173 -0.406608 0
M  V30 1649 H 164.343 6.94074 -0.358733 0
M  V30 1650 H 167.534 4.68075 0.048498 0
M  V30 1651 H 167.707 6.47734 -0.185557 0
M  V30 1652 N 161.113 -0.173488 1.56642 0
M  V30 1653 C 162.063 -1.21941 1.92651 0
M  V30 1654 C 163.047 -1.39912 0.794577 0
M  V30 1655 O 164.239 -1.41919 1.05773 0
M  V30 1656 C 161.368 -2.55935 2.28806 0
M  V30 1657 C 160.454 -2.41667 3.48508 0
M  V30 1658 N 160.845 -1.9711 4.65813 0
M  V30 1659 C 159.143 -2.72499 3.53072 0
M  V30 1660 C 159.844 -1.95253 5.47952 0
M  V30 1661 N 158.82 -2.37575 4.88937 0
M  V30 1662 H 162.622 -0.866581 2.80834 0
M  V30 1663 H 160.136 -0.381776 1.57849 0
M  V30 1664 H 162.133 -3.31511 2.52797 0
M  V30 1665 H 160.793 -2.92022 1.41961 0
M  V30 1666 H 161.804 -1.67481 4.90072 0
M  V30 1667 H 158.481 -3.12639 2.767 0
M  V30 1668 H 159.871 -1.6252 6.51948 0
M  V30 1669 N 162.591 -1.51276 -0.441967 0
M  V30 1670 C 163.837 -1.6492 -1.1905 0
M  V30 1671 C 164.192 -0.358731 -1.89026 0
M  V30 1672 O 163.485 0.645193 -1.8041 0
M  V30 1673 C 163.679 -2.78746 -2.23686 0
M  V30 1674 C 163.508 -4.18737 -1.63979 0
M  V30 1675 C 162.278 -4.84739 -1.42674 0
M  V30 1676 C 164.476 -5.01988 -1.11858 0
M  V30 1677 N 162.458 -6.08858 -0.785159 0
M  V30 1678 C 163.829 -6.17071 -0.601989 0
M  V30 1679 C 165.884 -4.87551 -1.0099 0
M  V30 1680 C 164.587 -7.19299 0.0126012 0
M  V30 1681 C 166.613 -5.89983 -0.409206 0
M  V30 1682 C 165.975 -7.04333 0.0968651 0
M  V30 1683 H 162.074 -0.657416 -0.423471 0
M  V30 1684 H 164.658 -1.8849 -0.48782 0
M  V30 1685 H 162.829 -2.56848 -2.91348 0
M  V30 1686 H 164.561 -2.81595 -2.90666 0
M  V30 1687 H 161.316 -4.42528 -1.68719 0
M  V30 1688 H 161.74 -6.75282 -0.481942 0
M  V30 1689 H 166.382 -3.99401 -1.38703 0
M  V30 1690 H 164.1 -8.071 0.401879 0
M  V30 1691 H 167.686 -5.8088 -0.327079 0
M  V30 1692 H 166.566 -7.82238 0.554373 0
M  V30 1693 N 164.069 0.697108 -1.41344 0
M  V30 1694 C 165.019 1.80313 -1.39539 0
M  V30 1695 C 166.003 1.58618 -0.270001 0
M  V30 1696 O 167.195 1.69477 -0.510551 0
M  V30 1697 C 164.324 3.18606 -1.27848 0
M  V30 1698 C 163.41 3.46001 -2.45244 0
M  V30 1699 N 163.801 3.44103 -3.70711 0
M  V30 1700 C 162.099 3.76542 -2.39023 0
M  V30 1701 C 162.8 3.7036 -4.48563 0
M  V30 1702 N 161.776 3.90027 -3.78655 0
M  V30 1703 H 165.578 1.77207 -2.34468 0
M  V30 1704 H 163.092 0.897031 -1.35378 0
M  V30 1705 H 165.089 3.97833 -1.24637 0
M  V30 1706 H 163.749 3.22925 -0.339032 0
M  V30 1707 H 164.76 3.2452 -4.03618 0
M  V30 1708 H 161.437 3.88241 -1.53542 0
M  V30 1709 H 162.827 3.75042 -5.57488 0
M  V30 1710 N 165.547 1.27147 0.931209 0
M  V30 1711 C 166.963 1.04475 1.20653 0
M  V30 1712 C 167.163 -0.223885 2.00252 0
M  V30 1713 O 166.219 -0.930332 2.34736 0
M  V30 1714 C 167.532 2.28209 1.95809 0
M  V30 1715 C 169.08 2.33211 2.08762 0
M  V30 1716 C 169.555 3.56665 2.87323 0
M  V30 1717 N 171.046 3.57201 2.94892 0
M  V30 1718 C 171.781 4.49395 3.56134 0
M  V30 1719 N 171.277 5.51889 4.18796 0
M  V30 1720 N 173.07 4.37026 3.53504 0
M  V30 1721 H 165.221 2.08612 0.399333 0
M  V30 1722 H 167.484 0.917312 0.239253 0
M  V30 1723 H 167.19 3.20538 1.44736 0
M  V30 1724 H 167.064 2.33247 2.96438 0
M  V30 1725 H 169.451 1.41391 2.59023 0
M  V30 1726 H 169.532 2.32178 1.07364 0
M  V30 1727 H 169.176 4.4882 2.37746 0
M  V30 1728 H 169.106 3.54948 3.88998 0
M  V30 1729 H 171.597 2.83074 2.50354 0
M  V30 1730 H 171.91 6.18409 4.63454 0
M  V30 1731 H 170.255 5.55735 4.17353 0
M  V30 1732 H 173.446 3.56166 3.03749 0
M  V30 1733 H 173.619 5.09067 4.00942 0
M  V30 1734 N 167.025 -1.13721 1.09112 0
M  V30 1735 C 168.436 -1.6648 0.845068 0
M  V30 1736 C 168.787 -1.85911 -0.62701 0
M  V30 1737 O 167.912 -1.57556 -1.48341 0
M  V30 1738 C 168.507 -3.02413 1.52748 0
M  V30 1739 C 167.066 -3.52176 1.32849 0
M  V30 1740 C 166.213 -2.27492 1.58564 0
M  V30 1741 H 169.164 -0.976872 1.25072 0
M  V30 1742 H 169.185 -3.68223 0.958752 0
M  V30 1743 H 168.697 -2.88238 2.59885 0
M  V30 1744 H 166.798 -3.7156 0.278137 0
M  V30 1745 H 166.911 -4.32499 2.0611 0
M  V30 1746 H 165.275 -2.33923 1.00758 0
M  V30 1747 H 166.058 -2.15886 2.66924 0
M  V30 1748 N 168.503 -0.877838 -1.30888 0
M  V30 1749 C 169.749 -0.493426 -1.96706 0
M  V30 1750 C 170.082 0.953504 -1.6918 0
M  V30 1751 O 169.357 1.67266 -0.992594 0
M  V30 1752 C 169.64 -0.760429 -3.51979 0
M  V30 1753 C 169.493 -2.25747 -3.89048 0
M  V30 1754 C 170.812 -0.232148 -4.39487 0
M  V30 1755 H 167.931 -0.180746 -0.714493 0
M  V30 1756 H 170.573 -1.10052 -1.54882 0
M  V30 1757 H 168.723 -0.243715 -3.87735 0
M  V30 1758 H 170.395 -2.84204 -3.63354 0
M  V30 1759 H 168.638 -2.72694 -3.37373 0
M  V30 1760 H 169.309 -2.39491 -4.97341 0
M  V30 1761 H 171.785 -0.674314 -4.106 0
M  V30 1762 H 170.661 -0.448355 -5.47066 0
M  V30 1763 H 170.922 0.866297 -4.33529 0
M  V30 1764 N 169.982 1.44106 -0.638065 0
M  V30 1765 C 170.912 2.33448 0.0494287 0
M  V30 1766 C 171.893 1.48606 0.827672 0
M  V30 1767 O 173.078 1.77308 0.792173 0
M  V30 1768 C 170.208 3.31771 1.02691 0
M  V30 1769 C 169.162 4.26485 0.359823 0
M  V30 1770 C 168.488 5.14729 1.44769 0
M  V30 1771 C 169.788 5.17056 -0.738296 0
M  V30 1772 H 171.482 2.91183 -0.696636 0
M  V30 1773 H 169.028 1.40014 -0.336456 0
M  V30 1774 H 170.981 3.93161 1.51666 0
M  V30 1775 H 169.705 2.7226 1.80395 0
M  V30 1776 H 168.364 3.66437 -0.10934 0
M  V30 1777 H 168.012 4.51566 2.21578 0
M  V30 1778 H 167.712 5.78913 1.00668 0
M  V30 1779 H 169.236 5.78991 1.93911 0
M  V30 1780 H 170.65 5.72342 -0.331354 0
M  V30 1781 H 169.047 5.89879 -1.10286 0
M  V30 1782 H 170.117 4.57652 -1.60258 0
M  V30 1783 N 171.46 0.379036 1.52974 0
M  V30 1784 C 172.393 -0.504932 2.22544 0
M  V30 1785 C 173.371 -1.0723 1.22231 0
M  V30 1786 O 174.555 -1.12589 1.51182 0
M  V30 1787 C 171.682 -1.69794 2.93066 0
M  V30 1788 C 170.728 -1.25678 4.07563 0
M  V30 1789 S 171.561 -0.246852 5.34931 0
M  V30 1790 C 172.717 -1.44588 6.08971 0
M  V30 1791 H 172.95 0.0858666 2.97176 0
M  V30 1792 H 170.483 0.163183 1.53535 0
M  V30 1793 H 172.441 -2.38219 3.34308 0
M  V30 1794 H 171.102 -2.26002 2.18133 0
M  V30 1795 H 170.295 -2.14725 4.5597 0
M  V30 1796 H 169.897 -0.651584 3.6828 0
M  V30 1797 H 172.189 -2.37469 6.34519 0
M  V30 1798 H 173.132 -1.00292 7.00962 0
M  V30 1799 H 173.54 -1.65804 5.39601 0
M  V30 1800 N 172.938 -1.57226 0.108567 0
M  V30 1801 C 173.901 -2.13602 -0.831082 0
M  V30 1802 C 174.901 -1.06841 -1.20173 0
M  V30 1803 O 176.091 -1.32666 -1.12895 0
M  V30 1804 C 173.223 -2.66769 -2.12243 0
M  V30 1805 H 174.416 -2.97951 -0.341317 0
M  V30 1806 H 171.969 -1.55667 -0.14057 0
M  V30 1807 H 172.704 -1.85977 -2.65675 0
M  V30 1808 H 172.489 -3.44839 -1.86625 0
M  V30 1809 H 173.979 -3.10332 -2.79435 0
M  V30 1810 N 174.416 0.165178 -1.56732 0
M  V30 1811 C 175.662 0.882112 -1.82611 0
M  V30 1812 C 175.995 1.81628 -0.687378 0
M  V30 1813 O 175.27 1.92009 0.310267 0
M  V30 1814 C 175.553 1.67245 -3.18906 0
M  V30 1815 C 175.406 0.760987 -4.43316 0
M  V30 1816 C 176.725 2.63884 -3.52212 0
M  V30 1817 H 173.844 0.319242 -0.664269 0
M  V30 1818 H 176.486 0.148052 -1.89422 0
M  V30 1819 H 174.636 2.29824 -3.1323 0
M  V30 1820 H 176.308 0.147596 -4.61064 0
M  V30 1821 H 174.551 0.0694102 -4.33744 0
M  V30 1822 H 175.222 1.34962 -5.35247 0
M  V30 1823 H 177.698 2.11429 -3.58381 0
M  V30 1824 H 176.574 3.16245 -4.48643 0
M  V30 1825 H 176.835 3.44377 -2.77231 0
M  V30 1826 N 175.894 1.51508 0.433938 0
M  V30 1827 C 177.119 1.68443 1.21003 0
M  V30 1828 C 177.544 0.382636 1.84167 0
M  V30 1829 O 176.902 -0.65755 1.68956 0
M  V30 1830 C 176.95 2.80405 2.26727 0
M  V30 1831 O 176.054 2.44245 3.32292 0
M  V30 1832 H 175.395 0.561536 0.354363 0
M  V30 1833 H 177.925 1.9809 0.512024 0
M  V30 1834 H 177.935 3.0459 2.71457 0
M  V30 1835 H 176.61 3.74867 1.80132 0
M  V30 1836 H 175.187 2.30644 2.93015 0
M  V30 1837 N 177.372 -0.689602 1.41712 0
M  V30 1838 C 178.618 -1.45181 1.41599 0
M  V30 1839 C 178.951 -1.94181 0.0270081 0
M  V30 1840 O 178.226 -1.6993 -0.946265 0
M  V30 1841 C 178.509 -2.65945 2.42787 0
M  V30 1842 C 178.362 -2.22672 3.90816 0
M  V30 1843 C 179.681 -3.68149 2.41151 0
M  V30 1844 H 176.8 -0.526576 0.515642 0
M  V30 1845 H 179.442 -0.784947 1.73028 0
M  V30 1846 H 177.592 -3.2284 2.16116 0
M  V30 1847 H 179.264 -1.71058 4.28412 0
M  V30 1848 H 177.507 -1.54394 4.05395 0
M  V30 1849 H 178.178 -3.0935 4.57172 0
M  V30 1850 H 180.654 -3.2094 2.64834 0
M  V30 1851 H 179.53 -4.50248 3.13955 0
M  V30 1852 H 179.791 -4.18259 1.43221 0
M  V30 1853 N 178.85 -1.27639 -0.924453 0
M  V30 1854 C 179.8 -1.07295 -2.01176 0
M  V30 1855 C 180.784 5.77352e-05 -1.609 0
M  V30 1856 O 181.976 -0.218855 -1.75642 0
M  V30 1857 C 179.105 -0.725592 -3.35544 0
M  V30 1858 C 178.191 -1.83691 -3.82254 0
M  V30 1859 N 178.582 -3.07697 -4.01443 0
M  V30 1860 C 176.88 -1.72433 -4.11319 0
M  V30 1861 C 177.581 -3.80037 -4.40394 0
M  V30 1862 N 176.557 -3.0782 -4.48049 0
M  V30 1863 H 180.359 -2.01399 -2.14046 0
M  V30 1864 H 177.873 -1.18401 -1.11153 0
M  V30 1865 H 179.87 -0.560959 -4.13109 0
M  V30 1866 H 178.53 0.207782 -3.24034 0
M  V30 1867 H 179.541 -3.43424 -3.8766 0
M  V30 1868 H 176.218 -0.862005 -4.08504 0
M  V30 1869 H 177.608 -4.86632 -4.63291 0
M  V30 1870 N 180.328 1.1314 -1.09713 0
M  V30 1871 C 181.553 1.88862 -0.857081 0
M  V30 1872 C 181.978 1.78729 0.586304 0
M  V30 1873 O 181.336 1.13692 1.41222 0
M  V30 1874 C 181.384 3.36325 -1.30069 0
M  V30 1875 O 180.488 4.09815 -0.461007 0
M  V30 1876 H 179.829 0.587108 -0.310162 0
M  V30 1877 H 182.359 1.43129 -1.46203 0
M  V30 1878 H 182.369 3.87157 -1.28738 0
M  V30 1879 H 181.044 3.43017 -2.35185 0
M  V30 1880 H 179.621 3.68986 -0.538888 0
M  V30 1881 N 181.806 0.884767 1.30421 0
M  V30 1882 C 182.716 0.355398 2.31892 0
M  V30 1883 C 183.732 -0.542261 1.65335 0
M  V30 1884 O 184.908 -0.435432 1.96637 0
M  V30 1885 C 181.973 -0.421661 3.44126 0
M  V30 1886 C 181.034 0.505727 4.26311 0
M  V30 1887 C 180.267 -0.234343 5.33185 0
M  V30 1888 O 180.49 -1.46045 5.51386 0
M  V30 1889 O 179.424 0.415443 6.00465 0
M  V30 1890 H 183.25 1.19685 2.79122 0
M  V30 1891 H 180.835 0.648596 1.34587 0
M  V30 1892 H 182.717 -0.861641 4.12497 0
M  V30 1893 H 181.392 -1.23942 2.99032 0
M  V30 1894 H 180.299 0.994513 3.60639 0
M  V30 1895 H 181.632 1.28948 4.75009 0
M  V30 1896 N 183.284 -1.43765 0.645699 0
M  V30 1897 C 184.7 -1.56509 0.312591 0
M  V30 1898 C 184.9 -1.6307 -1.18365 0
M  V30 1899 O 183.956 -1.58167 -1.96824 0
M  V30 1900 C 185.269 -2.82968 1.01733 0
M  V30 1901 C 186.817 -2.96701 0.996865 0
M  V30 1902 C 187.292 -4.25982 1.68236 0
M  V30 1903 N 188.783 -4.32829 1.64964 0
M  V30 1904 C 189.518 -5.31613 2.14885 0
M  V30 1905 N 189.014 -6.36718 2.73061 0
M  V30 1906 N 190.807 -5.23217 2.05428 0
M  V30 1907 H 182.958 -1.3775 1.61675 0
M  V30 1908 H 185.221 -0.661067 0.679481 0
M  V30 1909 H 184.927 -2.84156 2.0724 0
M  V30 1910 H 184.801 -3.72957 0.564177 0
M  V30 1911 H 187.188 -2.95058 -0.0497719 0
M  V30 1912 H 187.269 -2.08022 1.48865 0
M  V30 1913 H 186.913 -4.28386 2.72852 0
M  V30 1914 H 186.843 -5.13545 1.16529 0
M  V30 1915 H 189.334 -3.57493 1.22503 0
M  V30 1916 H 189.647 -7.08401 3.08848 0
M  V30 1917 H 187.992 -6.37362 2.77118 0
M  V30 1918 H 191.183 -4.40019 1.59689 0
M  V30 1919 H 191.356 -6.00045 2.44643 0
M  V30 1920 N 184.763 -0.387143 -1.52771 0
M  V30 1921 C 185.71 0.449048 -2.26389 0
M  V30 1922 C 186.68 1.05961 -1.27912 0
M  V30 1923 O 187.865 1.08804 -1.56737 0
M  V30 1924 C 185.005 1.57155 -3.0724 0
M  V30 1925 C 184.118 0.984066 -4.20643 0
M  V30 1926 C 183.253 2.07745 -4.88892 0
M  V30 1927 C 182.292 1.46574 -5.94292 0
M  V30 1928 N 181.429 2.49834 -6.56146 0
M  V30 1929 H 186.269 -0.185205 -2.97424 0
M  V30 1930 H 183.806 -0.103164 -1.46738 0
M  V30 1931 H 185.764 2.23309 -3.52405 0
M  V30 1932 H 184.394 2.17615 -2.38419 0
M  V30 1933 H 183.446 0.212193 -3.79808 0
M  V30 1934 H 184.758 0.497029 -4.96318 0
M  V30 1935 H 183.912 2.81673 -5.3735 0
M  V30 1936 H 182.651 2.59807 -4.12737 0
M  V30 1937 H 181.656 0.711696 -5.45174 0
M  V30 1938 H 182.881 0.953088 -6.72379 0
M  V30 1939 H 180.827 3.0107 -5.82832 0
M  V30 1940 H 180.744 2.05879 -7.27427 0
M  V30 1941 H 182.012 3.23399 -7.09249 0
M  V30 1942 N 186.241 1.57166 -0.116904 0
M  V30 1943 C 187.171 2.18222 0.830759 0
M  V30 1944 C 188.152 1.12167 1.27877 0
M  V30 1945 O 189.337 1.40394 1.34176 0
M  V30 1946 C 186.467 2.77996 2.08172 0
M  V30 1947 C 185.421 3.89614 1.77157 0
M  V30 1948 C 184.747 4.36187 3.09265 0
M  V30 1949 C 186.047 5.1181 1.04151 0
M  V30 1950 H 187.741 2.97664 0.321992 0
M  V30 1951 H 185.287 1.4318 0.153434 0
M  V30 1952 H 187.24 3.19366 2.74924 0
M  V30 1953 H 185.964 1.9584 2.6137 0
M  V30 1954 H 184.623 3.48816 1.12796 0
M  V30 1955 H 184.271 3.50893 3.60393 0
M  V30 1956 H 183.971 5.11455 2.89288 0
M  V30 1957 H 185.495 4.80207 3.77139 0
M  V30 1958 H 186.909 5.50214 1.61052 0
M  V30 1959 H 185.306 5.92648 0.942762 0
M  V30 1960 H 186.376 4.84892 0.0279022 0
M  V30 1961 N 187.719 -0.156864 1.56817 0
M  V30 1962 C 188.649 -1.19589 2.00551 0
M  V30 1963 C 189.63 -1.4536 0.883426 0
M  V30 1964 O 190.815 -1.56449 1.15054 0
M  V30 1965 C 187.945 -2.53143 2.37773 0
M  V30 1966 C 186.899 -2.41913 3.53075 0
M  V30 1967 C 186.225 -3.80088 3.76081 0
M  V30 1968 C 187.525 -1.91157 4.86062 0
M  V30 1969 H 189.219 -0.832293 2.87599 0
M  V30 1970 H 186.765 -0.398918 1.38364 0
M  V30 1971 H 188.718 -3.26047 2.66967 0
M  V30 1972 H 187.442 -2.91319 1.4765 0
M  V30 1973 H 186.101 -1.71462 3.24031 0
M  V30 1974 H 185.749 -4.15683 2.83225 0
M  V30 1975 H 185.449 -3.73439 4.53671 0
M  V30 1976 H 186.973 -4.54556 4.0769 0
M  V30 1977 H 188.387 -2.53846 5.14038 0
M  V30 1978 H 186.784 -1.95422 5.67389 0
M  V30 1979 H 187.854 -0.866673 4.77092 0
M  V30 1980 N 189.197 -1.51736 -0.425897 0
M  V30 1981 C 190.608 -1.5732 -1.00536 0
M  V30 1982 C 190.959 -0.403537 -1.92005 0
M  V30 1983 O 190.084 0.478256 -2.11049 0
M  V30 1984 C 190.679 -2.85119 -1.8301 0
M  V30 1985 C 189.238 -2.93236 -2.35987 0
M  V30 1986 C 188.385 -2.52098 -1.15508 0
M  V30 1987 H 191.336 -1.57348 -0.206739 0
M  V30 1988 H 191.357 -2.69526 -2.68581 0
M  V30 1989 H 190.869 -3.7023 -1.16411 0
M  V30 1990 H 188.97 -2.12581 -3.06007 0
M  V30 1991 H 189.083 -3.9713 -2.68001 0
M  V30 1992 H 187.447 -2.05558 -1.50393 0
M  V30 1993 H 188.23 -3.39565 -0.505014 0
M  V30 1994 N 190.675 0.682077 -1.42076 0
M  V30 1995 C 191.605 1.80796 -1.47767 0
M  V30 1996 C 192.586 1.6677 -0.334954 0
M  V30 1997 O 193.771 1.863 -0.548264 0
M  V30 1998 C 190.901 3.19038 -1.37229 0
M  V30 1999 C 189.855 3.47789 -2.49453 0
M  V30 2000 C 189.181 4.8553 -2.23975 0
M  V30 2001 C 190.481 3.45411 -3.91776 0
M  V30 2002 H 192.175 1.7629 -2.41997 0
M  V30 2003 H 189.721 0.846721 -1.16476 0
M  V30 2004 H 191.674 3.97528 -1.39821 0
M  V30 2005 H 190.398 3.24204 -0.394907 0
M  V30 2006 H 189.057 2.71657 -2.46166 0
M  V30 2007 H 188.705 4.87337 -1.24547 0
M  V30 2008 H 188.405 5.0573 -2.99184 0
M  V30 2009 H 189.929 5.66312 -2.28304 0
M  V30 2010 H 191.343 4.13882 -3.96705 0
M  V30 2011 H 189.74 3.77145 -4.66778 0
M  V30 2012 H 190.81 2.44122 -4.18966 0
M  V30 2013 N 192.153 1.28127 0.917671 0
M  V30 2014 C 193.399 1.15223 1.66888 0
M  V30 2015 C 193.732 -0.299293 1.9188 0
M  V30 2016 O 193.007 -1.21805 1.51637 0
M  V30 2017 C 193.29 1.94706 3.02922 0
M  V30 2018 C 193.143 3.47898 2.85109 0
M  V30 2019 C 194.462 1.75939 4.03402 0
M  V30 2020 H 191.581 0.419946 0.605652 0
M  V30 2021 H 194.223 1.57398 1.06423 0
M  V30 2022 H 192.373 1.58864 3.54534 0
M  V30 2023 H 194.045 3.93624 2.40537 0
M  V30 2024 H 192.288 3.7373 2.20246 0
M  V30 2025 H 192.959 3.98765 3.81694 0
M  V30 2026 H 195.435 2.07209 3.60837 0
M  V30 2027 H 194.311 2.33931 4.96556 0
M  V30 2028 H 194.572 0.709877 4.36364 0
M  V30 2029 N 193.631 -1.12557 1.10312 0
M  V30 2030 C 194.859 -1.87864 0.866873 0
M  V30 2031 C 195.274 -1.79588 -0.582557 0
M  V30 2032 O 194.631 -1.16887 -1.40156 0
M  V30 2033 C 194.682 -3.37125 1.30496 0
M  V30 2034 O 194.403 -3.45201 2.69755 0
M  V30 2035 C 195.904 -4.29373 1.10243 0
M  V30 2036 H 193.124 -0.594452 0.311236 0
M  V30 2037 H 195.668 -1.42429 1.46745 0
M  V30 2038 H 193.823 -3.80109 0.748081 0
M  V30 2039 H 194.237 -4.38056 2.88457 0
M  V30 2040 H 195.711 -5.32394 1.45811 0
M  V30 2041 H 196.188 -4.39181 0.0409492 0
M  V30 2042 H 196.794 -3.92169 1.64571 0
M  V30 2043 N 195.109 -0.891671 -1.2995 0
M  V30 2044 C 196.039 -0.379797 -2.30391 0
M  V30 2045 C 197.02 0.540919 -1.6127 0
M  V30 2046 O 198.205 0.453352 -1.88834 0
M  V30 2047 C 195.335 0.400654 -3.44981 0
M  V30 2048 C 194.289 -0.428905 -4.25846 0
M  V30 2049 C 193.615 0.478557 -5.32554 0
M  V30 2050 C 194.915 -1.67458 -4.94727 0
M  V30 2051 H 196.609 -1.21914 -2.73454 0
M  V30 2052 H 194.155 -0.587675 -1.31462 0
M  V30 2053 H 196.108 0.769434 -4.14316 0
M  V30 2054 H 194.832 1.27371 -3.0074 0
M  V30 2055 H 193.491 -0.779911 -3.58208 0
M  V30 2056 H 193.139 1.34951 -4.84559 0
M  V30 2057 H 192.839 -0.0727433 -5.87555 0
M  V30 2058 H 194.363 0.843705 -6.04743 0
M  V30 2059 H 195.777 -1.376 -5.56542 0
M  V30 2060 H 194.174 -2.16659 -5.59624 0
M  V30 2061 H 195.244 -2.41518 -4.20473 0
M  V30 2062 N 196.587 1.43421 -0.653314 0
M  V30 2063 C 197.827 2.03689 -0.170346 0
M  V30 2064 C 198.191 1.50427 1.19314 0
M  V30 2065 O 199.392 2.0234 1.76952 0
M  V30 2066 C 197.663 3.56946 -0.180183 0
M  V30 2067 S 199.222 4.38171 0.234925 0
M  V30 2068 H 196.04 0.707345 -0.0719976 0
M  V30 2069 H 198.642 1.75486 -0.86167 0
M  V30 2070 H 197.346 3.93212 -1.17526 0
M  V30 2071 H 196.877 3.89791 0.531675 0
M  V30 2072 H 198.892 4.73808 1.47378 0
M  V30 2073 N 198.065 0.39524 1.52563 0
M  V30 2074 C 199.342 -0.242908 1.94086 0
M  V30 2075 C 199.722 -1.63841 1.33114 0
M  V30 2076 O 199.07 -2.22928 0.501529 0
M  V30 2077 C 199.28 -0.26327 3.48006 0
M  V30 2078 C 200.628 -0.489354 4.21771 0
M  V30 2079 O 201.652 -0.343226 3.54543 0
M  V30 2080 O 200.511 -0.776169 5.4096 0
M  V30 2081 H 197.605 -0.152536 0.812811 0
M  V30 2082 H 200.151 0.450178 1.6362 0
M  V30 2083 H 198.923 0.713985 3.84731 0
M  V30 2084 H 198.546 -1.00103 3.84792 0
M  V30 2085 N 199.544 -1.57102 0.125237 0
M  V30 2086 C 200.792 -1.95021 -0.530198 0
M  V30 2087 C 201.113 -1.00982 -1.66816 0
M  V30 2088 O 200.383 -0.0672693 -1.95784 0
M  V30 2089 H 198.963 -0.720046 -0.198853 0
M  V30 2090 H 201.625 -1.93916 0.19564 0
M  V30 2091 H 200.721 -2.98211 -0.920681 0
M  V30 2092 N 201.022 0.148545 -1.56898 0
M  V30 2093 C 201.97 1.20265 -1.99096 0
M  V30 2094 C 202.964 1.44559 -0.883123 0
M  V30 2095 O 204.17 1.4487 -1.0683 0
M  V30 2096 H 200.545 0.404786 -0.63376 0
M  V30 2097 H 202.516 0.82004 -2.86911 0
M  V30 2098 C 201.265 2.52886 -2.3863 0
M  V30 2099 H 200.588 2.35021 -3.23427 0
M  V30 2100 H 202.028 3.25274 -2.7198 0
M  V30 2101 C 200.487 3.13315 -1.23837 0
M  V30 2102 O 201.017 3.98077 -0.538268 0
M  V30 2103 N 199.223 2.72742 -1.00301 0
M  V30 2104 H 198.77 2.03912 -1.5741 0
M  V30 2105 H 198.728 3.13507 -0.236838 0
M  V30 2106 N 202.5 1.5196 0.417844 0
M  V30 2107 C 203.911 1.57851 0.997 0
M  V30 2108 C 204.262 0.413714 1.91789 0
M  V30 2109 O 203.387 -0.467057 2.113 0
M  V30 2110 C 203.982 2.86085 1.81496 0
M  V30 2111 C 202.541 2.94483 2.34428 0
M  V30 2112 C 201.688 2.52707 1.14169 0
M  V30 2113 H 204.639 1.57455 0.198392 0
M  V30 2114 H 204.66 2.70947 2.67148 0
M  V30 2115 H 204.172 3.70842 1.14446 0
M  V30 2116 H 202.273 2.142 3.04875 0
M  V30 2117 H 202.386 3.98546 2.65891 0
M  V30 2118 H 200.75 2.06353 1.49301 0
M  V30 2119 H 201.533 3.39828 0.486999 0
M  V30 2120 N 203.978 -0.674533 1.42435 0
M  V30 2121 C 205.394 -0.98769 1.25367 0
M  V30 2122 C 205.594 -2.00879 0.158044 0
M  V30 2123 O 204.65 -2.48075 -0.470633 0
M  V30 2124 C 205.963 -1.49224 2.6106 0
M  V30 2125 C 207.511 -1.61 2.68417 0
M  V30 2126 C 207.986 -2.14852 4.04478 0
M  V30 2127 N 209.477 -2.22185 4.06434 0
M  V30 2128 C 210.212 -2.64928 5.08528 0
M  V30 2129 N 209.708 -3.07121 6.21006 0
M  V30 2130 N 211.501 -2.64679 4.95885 0
M  V30 2131 H 203.652 0.00152503 2.124 0
M  V30 2132 H 205.915 -0.0618434 0.945981 0
M  V30 2133 H 205.621 -0.816453 3.42092 0
M  V30 2134 H 205.495 -2.47094 2.84999 0
M  V30 2135 H 207.882 -2.27686 1.87732 0
M  V30 2136 H 207.963 -0.616195 2.48267 0
M  V30 2137 H 207.607 -1.48775 4.85622 0
M  V30 2138 H 207.537 -3.15024 4.2198 0
M  V30 2139 H 210.028 -1.92435 3.25234 0
M  V30 2140 H 210.341 -3.38423 6.94759 0
M  V30 2141 H 208.686 -3.04978 6.24511 0
M  V30 2142 H 211.877 -2.31078 4.07088 0
M  V30 2143 H 212.05 -2.9767 5.75584 0
M  V30 2144 N 205.456 -1.28612 -0.910864 0
M  V30 2145 C 206.872 -1.06381 -1.18976 0
M  V30 2146 C 207.072 0.191998 -2.00583 0
M  V30 2147 O 206.128 0.892869 -2.36187 0
M  V30 2148 C 207.441 -2.31295 -1.92154 0
M  V30 2149 C 208.989 -2.36503 -2.05025 0
M  V30 2150 C 209.464 -3.61191 -2.81612 0
M  V30 2151 N 210.955 -3.61847 -2.89172 0
M  V30 2152 C 211.69 -4.55004 -3.4894 0
M  V30 2153 N 211.186 -5.58482 -4.09963 0
M  V30 2154 N 212.979 -4.42594 -3.46506 0
M  V30 2155 H 205.13 -2.09221 -0.366094 0
M  V30 2156 H 207.393 -0.921003 -0.224629 0
M  V30 2157 H 207.099 -3.228 -1.39618 0
M  V30 2158 H 206.973 -2.37934 -2.9269 0
M  V30 2159 H 209.36 -1.45494 -2.5674 0
M  V30 2160 H 209.441 -2.33857 -1.03657 0
M  V30 2161 H 209.085 -4.52545 -2.30576 0
M  V30 2162 H 209.015 -3.61092 -3.83302 0
M  V30 2163 H 211.506 -2.87022 -2.45819 0
M  V30 2164 H 211.819 -6.25704 -4.53557 0
M  V30 2165 H 210.164 -5.62305 -4.08459 0
M  V30 2166 H 213.355 -3.60953 -2.98045 0
M  V30 2167 H 213.528 -5.15381 -3.92793 0
M  V30 2168 N 206.934 1.1197 -1.10907 0
M  V30 2169 C 208.345 1.65114 -0.871446 0
M  V30 2170 C 208.696 1.86885 0.597353 0
M  V30 2171 O 207.821 1.59896 1.45816 0
M  V30 2172 C 208.416 2.99944 -1.5754 0
M  V30 2173 C 206.975 3.50018 -1.38435 0
M  V30 2174 C 206.122 2.24941 -1.62164 0
M  V30 2175 H 209.073 0.956851 -1.2661 0
M  V30 2176 H 209.094 3.66651 -1.01721 0
M  V30 2177 H 208.606 2.84067 -2.64438 0
M  V30 2178 H 206.707 3.71071 -0.337214 0
M  V30 2179 H 206.82 4.29165 -2.12965 0
M  V30 2180 H 205.184 2.3229 -1.04467 0
M  V30 2181 H 205.967 2.11612 -2.70324 0
M  V30 2182 N 208.412 0.89855 1.29475 0
M  V30 2183 C 209.637 0.538561 2.00285 0
M  V30 2184 C 210.062 -0.869135 1.66816 0
M  V30 2185 O 209.42 -1.57831 0.892145 0
M  V30 2186 C 209.468 0.736475 3.52999 0
M  V30 2187 O 208.572 -0.211537 4.11857 0
M  V30 2188 H 207.913 0.210563 0.62973 0
M  V30 2189 H 210.443 1.20982 1.64998 0
M  V30 2190 H 210.453 0.640685 4.02938 0
M  V30 2191 H 209.128 1.76276 3.76696 0
M  V30 2192 H 207.705 -0.0682991 3.72837 0
M  V30 2193 N 209.89 -1.43072 0.660911 0
M  V30 2194 C 211.301 -1.84932 0.256348 0
M  V30 2195 C 211.652 -1.55325 -1.19868 0
M  V30 2196 O 210.777 -1.00607 -1.91591 0
M  V30 2197 C 211.372 -3.35684 0.458475 0
M  V30 2198 C 209.931 -3.76245 0.108161 0
M  V30 2199 C 209.078 -2.66749 0.757641 0
M  V30 2200 H 212.029 -1.33116 0.864051 0
M  V30 2201 H 212.05 -3.79365 -0.293683 0
M  V30 2202 H 211.562 -3.572 1.51755 0
M  V30 2203 H 209.663 -3.60338 -0.948014 0
M  V30 2204 H 209.776 -4.76058 0.538992 0
M  V30 2205 H 208.14 -2.53989 0.190185 0
M  V30 2206 H 208.923 -2.91092 1.81989 0
M  V30 2207 N 211.368 -0.403325 -1.52352 0
M  V30 2208 C 212.614 0.174605 -2.02047 0
M  V30 2209 C 212.947 1.45282 -1.28867 0
M  V30 2210 O 212.222 1.90483 -0.393257 0
M  V30 2211 C 212.505 0.428238 -3.57545 0
M  V30 2212 C 212.358 -0.866248 -4.4138 0
M  V30 2213 C 213.677 1.21287 -4.23057 0
M  V30 2214 H 210.796 0.0619851 -0.734389 0
M  V30 2215 H 213.438 -0.53565 -1.82293 0
M  V30 2216 H 211.588 1.03327 -3.74507 0
M  V30 2217 H 213.26 -1.50265 -4.3614 0
M  V30 2218 H 211.503 -1.47851 -4.07827 0
M  V30 2219 H 212.174 -0.643249 -5.48239 0
M  V30 2220 H 214.65 0.700703 -4.10158 0
M  V30 2221 H 213.526 1.35909 -5.31808 0
M  V30 2222 H 213.787 2.23193 -3.81625 0
M  V30 2223 N 212.846 1.57033 -0.133567 0
M  V30 2224 C 213.776 2.1909 0.807567 0
M  V30 2225 C 214.757 1.13517 1.26681 0
M  V30 2226 O 215.942 1.41809 1.32679 0
M  V30 2227 C 213.072 2.80188 2.05212 0
M  V30 2228 C 212.026 3.91471 1.73015 0
M  V30 2229 C 211.352 4.39443 3.04622 0
M  V30 2230 C 212.652 5.12886 0.987168 0
M  V30 2231 H 214.346 2.97988 0.290403 0
M  V30 2232 H 211.892 1.43335 0.138239 0
M  V30 2233 H 213.845 3.22264 2.71521 0
M  V30 2234 H 212.569 1.98601 2.59278 0
M  V30 2235 H 211.228 3.49993 1.0909 0
M  V30 2236 H 210.876 3.54695 3.56651 0
M  V30 2237 H 210.576 5.14495 2.83847 0
M  V30 2238 H 212.1 4.8418 3.72024 0
M  V30 2239 H 213.514 5.51891 1.55208 0
M  V30 2240 H 211.911 5.93615 0.87985 0
M  V30 2241 H 212.981 4.84894 -0.0235286 0
M  V30 2242 N 214.325 -0.140222 1.56975 0
M  V30 2243 C 215.741 -0.493088 1.51792 0
M  V30 2244 C 215.941 -1.83013 0.843116 0
M  V30 2245 O 214.997 -2.49041 0.416493 0
M  V30 2246 C 216.31 -0.497144 2.96562 0
M  V30 2247 C 217.858 -0.582186 3.07538 0
M  V30 2248 C 218.333 -0.616838 4.53827 0
M  V30 2249 N 219.824 -0.678873 4.58198 0
M  V30 2250 C 220.559 -0.726782 5.68775 0
M  V30 2251 N 220.055 -0.733623 6.88905 0
M  V30 2252 N 221.848 -0.768179 5.56826 0
M  V30 2253 H 213.999 0.736108 1.99237 0
M  V30 2254 H 216.262 0.269182 0.90898 0
M  V30 2255 H 215.968 0.417217 3.49217 0
M  V30 2256 H 215.842 -1.33263 3.52875 0
M  V30 2257 H 218.229 -1.48697 2.54899 0
M  V30 2258 H 218.31 0.280581 2.54257 0
M  V30 2259 H 217.954 0.283812 5.07106 0
M  V30 2260 H 217.884 -1.49619 5.04898 0
M  V30 2261 H 220.375 -0.68061 3.7172 0
M  V30 2262 H 220.688 -0.772215 7.68932 0
M  V30 2263 H 219.033 -0.701389 6.91452 0
M  V30 2264 H 222.224 -0.760051 4.61888 0
M  V30 2265 H 222.397 -0.80205 6.43017 0
M  V30 2266 N 215.803 -1.52179 -0.40978 0
M  V30 2267 C 216.753 -1.71857 -1.49831 0
M  V30 2268 C 217.737 -0.572469 -1.50372 0
M  V30 2269 O 218.929 -0.829509 -1.56359 0
M  V30 2270 C 216.058 -1.87206 -2.87765 0
M  V30 2271 C 215.144 -3.07685 -2.91875 0
M  V30 2272 N 215.535 -4.30403 -2.65683 0
M  V30 2273 C 213.833 -3.07505 -3.23043 0
M  V30 2274 C 214.534 -5.11868 -2.76344 0
M  V30 2275 N 213.51 -4.47101 -3.09195 0
M  V30 2276 H 217.312 -2.64381 -1.28375 0
M  V30 2277 H 214.826 -1.50203 -0.617479 0
M  V30 2278 H 216.823 -1.99419 -3.66111 0
M  V30 2279 H 215.483 -0.958814 -3.10221 0
M  V30 2280 H 216.494 -4.58887 -2.4009 0
M  V30 2281 H 213.171 -2.25915 -3.51096 0
M  V30 2282 H 214.561 -6.19634 -2.59814 0
M  V30 2283 N 217.281 0.66697 -1.42791 0
M  V30 2284 C 218.211 1.79218 -1.49677 0
M  V30 2285 C 219.192 1.66405 -0.352623 0
M  V30 2286 O 220.377 1.85708 -0.567993 0
M  V30 2287 C 217.507 3.17565 -1.40605 0
M  V30 2288 C 216.461 3.45124 -2.53127 0
M  V30 2289 C 215.787 4.83127 -2.29112 0
M  V30 2290 C 217.087 3.41236 -3.95418 0
M  V30 2291 H 218.781 1.73713 -2.43853 0
M  V30 2292 H 216.327 0.83432 -1.17367 0
M  V30 2293 H 218.28 3.96022 -1.44029 0
M  V30 2294 H 217.004 3.23767 -0.429271 0
M  V30 2295 H 215.663 2.69031 -2.49034 0
M  V30 2296 H 215.311 4.85988 -1.29709 0
M  V30 2297 H 215.011 5.02528 -3.04531 0
M  V30 2298 H 216.535 5.63859 -2.34297 0
M  V30 2299 H 217.949 4.09651 -4.01073 0
M  V30 2300 H 216.346 3.72173 -4.70752 0
M  V30 2301 H 217.416 2.39665 -4.21532 0
M  V30 2302 N 218.759 1.29093 0.90403 0
M  V30 2303 C 219.669 1.15727 2.0407 0
M  V30 2304 C 220.685 0.0815308 1.73809 0
M  V30 2305 O 221.861 0.292749 1.99261 0
M  V30 2306 C 218.926 0.830424 3.36608 0
M  V30 2307 C 217.987 1.98955 3.80415 0
M  V30 2308 C 217.22 1.6782 5.06628 0
M  V30 2309 O 217.443 0.597105 5.67266 0
M  V30 2310 O 216.377 2.52486 5.46383 0
M  V30 2311 H 220.203 2.11171 2.18267 0
M  V30 2312 H 217.788 1.08504 1.027 0
M  V30 2313 H 219.67 0.662521 4.16159 0
M  V30 2314 H 218.345 -0.0942678 3.23563 0
M  V30 2315 H 217.252 2.21267 3.01648 0
M  V30 2316 H 218.585 2.89529 3.98037 0
M  V30 2317 N 220.237 -1.11381 1.11499 0
M  V30 2318 C 221.167 -2.19509 0.796125 0
M  V30 2319 C 222.148 -1.68458 -0.235796 0
M  V30 2320 O 223.333 -1.93947 -0.0991344 0
M  V30 2321 C 220.463 -3.46475 0.239205 0
M  V30 2322 C 219.417 -4.10744 1.20307 0
M  V30 2323 C 218.743 -5.32293 0.50683 0
M  V30 2324 C 220.043 -4.55597 2.55399 0
M  V30 2325 H 221.737 -2.46439 1.70024 0
M  V30 2326 H 219.283 -1.18446 0.818935 0
M  V30 2327 H 221.236 -4.214 0.00392006 0
M  V30 2328 H 219.96 -3.19006 -0.700206 0
M  V30 2329 H 218.619 -3.37813 1.42399 0
M  V30 2330 H 218.267 -5.01095 -0.437408 0
M  V30 2331 H 217.967 -5.76243 1.1497 0
M  V30 2332 H 219.491 -6.09956 0.280351 0
M  V30 2333 H 220.905 -5.21841 2.37391 0
M  V30 2334 H 219.302 -5.10363 3.15673 0
M  V30 2335 H 220.372 -3.69013 3.14575 0
M  V30 2336 N 221.715 -0.905404 -1.28997 0
M  V30 2337 C 222.645 -0.404212 -2.29975 0
M  V30 2338 C 223.626 0.523784 -1.61835 0
M  V30 2339 O 224.811 0.433298 -1.89304 0
M  V30 2340 C 221.941 0.364042 -3.45387 0
M  V30 2341 C 220.895 -0.474048 -4.25367 0
M  V30 2342 C 220.221 0.422045 -5.33032 0
M  V30 2343 C 221.521 -1.72696 -4.92923 0
M  V30 2344 H 223.215 -1.24807 -2.72146 0
M  V30 2345 H 220.761 -0.601585 -1.30832 0
M  V30 2346 H 222.714 0.725447 -4.15109 0
M  V30 2347 H 221.438 1.24174 -3.02074 0
M  V30 2348 H 220.097 -0.81786 -3.57361 0
M  V30 2349 H 219.745 1.29804 -4.85963 0
M  V30 2350 H 219.445 -0.135057 -5.87445 0
M  V30 2351 H 220.969 0.779517 -6.05604 0
M  V30 2352 H 222.383 -1.43495 -5.55051 0
M  V30 2353 H 220.78 -2.22582 -5.57295 0
M  V30 2354 H 221.85 -2.45964 -4.17887 0
M  V30 2355 N 223.193 1.4272 -0.668489 0
M  V30 2356 C 224.47 1.95248 -0.117373 0
M  V30 2357 C 224.85 1.60919 1.36632 0
M  V30 2358 O 224.198 0.902095 2.09939 0
M  V30 2359 C 224.408 3.46927 -0.379806 0
M  V30 2360 C 225.756 4.23588 -0.292923 0
M  V30 2361 O 226.78 3.5482 -0.313204 0
M  V30 2362 O 225.639 5.46017 -0.229697 0
M  V30 2363 H 222.733 0.827 0.00079152 0
M  V30 2364 H 225.279 1.52581 -0.742783 0
M  V30 2365 H 224.051 3.65096 -1.40786 0
M  V30 2366 H 223.674 3.96627 0.277923 0
M  V30 2367 N 224.671 0.411399 1.52136 0
M  V30 2368 C 225.581 -0.419774 2.30814 0
M  V30 2369 C 226.597 -1.0515 1.38634 0
M  V30 2370 O 227.773 -1.05252 1.71709 0
M  V30 2371 C 224.838 -1.52019 3.11594 0
M  V30 2372 C 223.899 -0.91129 4.19516 0
M  V30 2373 C 223.132 -1.95927 4.96436 0
M  V30 2374 O 223.355 -3.17775 4.73683 0
M  V30 2375 O 222.289 -1.56423 5.81219 0
M  V30 2376 H 226.115 0.221805 3.02889 0
M  V30 2377 H 223.7 0.174547 1.48377 0
M  V30 2378 H 225.582 -2.15898 3.61892 0
M  V30 2379 H 224.257 -2.14633 2.42311 0
M  V30 2380 H 223.164 -0.235157 3.7336 0
M  V30 2381 H 224.497 -0.32904 4.91099 0
M  V30 2382 N 226.149 -1.5696 0.141893 0
M  V30 2383 C 227.396 -1.9596 -0.510492 0
M  V30 2384 C 227.724 -1.02648 -1.65208 0
M  V30 2385 O 226.979 -0.0546947 -1.95624 0
M  V30 2386 C 227.278 -3.41242 -1.06249 0
M  V30 2387 C 226.944 -4.50882 -0.0398791 0
M  V30 2388 C 225.606 -4.80595 0.241247 0
M  V30 2389 C 227.958 -5.17058 0.65578 0
M  V30 2390 C 225.286 -5.73792 1.22393 0
M  V30 2391 C 227.638 -6.11313 1.62724 0
M  V30 2392 C 226.302 -6.39407 1.91612 0
M  V30 2393 H 225.572 -0.717068 -0.186802 0
M  V30 2394 H 228.219 -1.90142 0.227643 0
M  V30 2395 H 226.524 -3.43866 -1.87785 0
M  V30 2396 H 228.221 -3.68742 -1.57576 0
M  V30 2397 H 224.811 -4.27754 -0.269174 0
M  V30 2398 H 228.995 -4.94239 0.451779 0
M  V30 2399 H 224.251 -5.93853 1.45424 0
M  V30 2400 H 228.425 -6.61668 2.17183 0
M  V30 2401 H 226.052 -7.11427 2.6791 0
M  V30 2402 N 227.627 0.131896 -1.57047 0
M  V30 2403 C 228.59 1.14638 -1.98471 0
M  V30 2404 C 229.59 1.35029 -0.873148 0
M  V30 2405 O 230.78 1.31764 -1.13946 0
M  V30 2406 C 227.912 2.50358 -2.31373 0
M  V30 2407 H 229.105 0.79064 -2.8929 0
M  V30 2408 H 226.658 0.375761 -1.51716 0
M  V30 2409 H 227.393 2.90876 -1.43393 0
M  V30 2410 H 227.178 2.36915 -3.12432 0
M  V30 2411 H 228.668 3.23395 -2.64207 0
M  V30 2412 N 229.106 1.52395 0.401703 0
M  V30 2413 C 230.522 1.41363 0.740864 0
M  V30 2414 C 230.722 0.523982 1.94568 0
M  V30 2415 O 229.778 -0.00741204 2.52499 0
M  V30 2416 C 231.091 2.84011 0.987847 0
M  V30 2417 C 232.639 2.93404 1.09011 0
M  V30 2418 C 233.114 4.37036 1.3698 0
M  V30 2419 N 234.605 4.40304 1.43829 0
M  V30 2420 C 235.34 5.48508 1.67112 0
M  V30 2421 N 234.836 6.66819 1.87949 0
M  V30 2422 N 236.629 5.36034 1.69187 0
M  V30 2423 H 228.78 2.08765 -0.391262 0
M  V30 2424 H 231.043 0.941265 -0.112798 0
M  V30 2425 H 230.749 3.51265 0.174835 0
M  V30 2426 H 230.623 3.25502 1.906 0
M  V30 2427 H 233.01 2.26325 1.8937 0
M  V30 2428 H 233.091 2.55359 0.15015 0
M  V30 2429 H 232.735 5.04676 0.571353 0
M  V30 2430 H 232.665 4.72623 2.3224 0
M  V30 2431 H 235.156 3.55024 1.29486 0
M  V30 2432 H 235.469 7.45063 2.05185 0
M  V30 2433 H 233.814 6.6987 1.85199 0
M  V30 2434 H 237.005 4.42579 1.52451 0
M  V30 2435 H 237.178 6.20434 1.86993 0
M  V30 2436 N 230.584 -0.659388 1.43143 0
M  V30 2437 C 231.494 -1.80167 1.50256 0
M  V30 2438 C 232.51 -1.69571 0.390106 0
M  V30 2439 O 233.686 -1.90849 0.643319 0
M  V30 2440 C 230.751 -3.16409 1.41725 0
M  V30 2441 C 229.812 -3.38848 2.63591 0
M  V30 2442 C 229.045 -4.68591 2.55458 0
M  V30 2443 O 229.268 -5.47532 1.59891 0
M  V30 2444 O 228.202 -4.92614 3.45854 0
M  V30 2445 H 232.028 -1.77121 2.46702 0
M  V30 2446 H 229.613 -0.817092 1.25076 0
M  V30 2447 H 231.495 -3.9768 1.39387 0
M  V30 2448 H 230.17 -3.20059 0.484118 0
M  V30 2449 H 229.077 -2.57366 2.71502 0
M  V30 2450 H 230.41 -3.4004 3.55856 0
M  V30 2451 N 232.062 -1.29571 -0.897171 0
M  V30 2452 C 233.01 -1.14802 -2.02295 0
M  V30 2453 C 234.004 -0.0629637 -1.69283 0
M  V30 2454 O 235.21 -0.222945 -1.78614 0
M  V30 2455 H 231.585 -0.354692 -0.663097 0
M  V30 2456 H 233.556 -2.10108 -2.11889 0
M  V30 2457 C 232.305 -0.843966 -3.37302 0
M  V30 2458 H 231.628 -1.67093 -3.63208 0
M  V30 2459 H 233.068 -0.780672 -4.16751 0
M  V30 2460 C 231.527 0.452843 -3.33843 0
M  V30 2461 O 232.057 1.47813 -3.73516 0
M  V30 2462 N 230.263 0.459601 -2.86943 0
M  V30 2463 H 229.81 -0.375213 -2.54853 0
M  V30 2464 H 229.768 1.32726 -2.85011 0
M  V30 2465 N 233.54 1.10788 -1.12088 0
M  V30 2466 C 234.789 1.82036 -0.868659 0
M  V30 2467 C 235.102 1.85929 0.607426 0
M  V30 2468 O 236.308 2.53346 0.97613 0
M  V30 2469 C 234.764 3.26951 -1.50435 0
M  V30 2470 C 234.372 3.31367 -3.01496 0
M  V30 2471 C 236.116 4.03053 -1.33225 0
M  V30 2472 C 234.023 4.7072 -3.58017 0
M  V30 2473 H 232.953 0.682108 -0.321318 0
M  V30 2474 H 235.604 1.24618 -1.34694 0
M  V30 2475 H 233.986 3.84343 -0.953735 0
M  V30 2476 H 235.16 2.83819 -3.6302 0
M  V30 2477 H 233.475 2.6875 -3.18061 0
M  V30 2478 H 236.072 5.05981 -1.72878 0
M  V30 2479 H 236.415 4.15387 -0.275529 0
M  V30 2480 H 236.948 3.52066 -1.85188 0
M  V30 2481 H 233.687 4.63585 -4.63432 0
M  V30 2482 H 233.207 5.1865 -3.01268 0
M  V30 2483 H 234.886 5.39685 -3.56859 0
M  V30 2484 N 235.018 0.912232 1.28515 0
M  V30 2485 C 236.295 0.463597 1.90027 0
M  V30 2486 C 236.675 -1.05753 1.82701 0
M  V30 2487 O 236.023 -1.90492 1.26194 0
M  V30 2488 C 236.233 0.992253 3.34597 0
M  V30 2489 C 237.581 1.04344 4.11579 0
M  V30 2490 O 238.605 0.94079 3.43551 0
M  V30 2491 O 237.464 1.1995 5.33174 0
M  V30 2492 H 234.558 0.146666 0.813891 0
M  V30 2493 H 237.104 1.00292 1.36893 0
M  V30 2494 H 235.876 2.03623 3.34146 0
M  V30 2495 H 235.499 0.433672 3.95228 0
M  V30 2496 N 236.496 -1.42363 0.676048 0
M  V30 2497 C 237.721 -2.06377 0.205705 0
M  V30 2498 C 238.146 -1.50463 -1.12883 0
M  V30 2499 O 237.504 -0.623619 -1.70237 0
M  V30 2500 C 237.552 -3.60277 0.152655 0
M  V30 2501 O 236.656 -4.02935 -0.87845 0
M  V30 2502 H 235.997 -0.655588 0.105359 0
M  V30 2503 H 238.527 -1.82475 0.925412 0
M  V30 2504 H 238.537 -4.07993 -0.0230675 0
M  V30 2505 H 237.212 -4.00346 1.12675 0
M  V30 2506 H 235.789 -3.66764 -0.673668 0
M  V30 2507 N 237.974 -0.419461 -1.51915 0
M  V30 2508 C 238.904 0.391813 -2.30189 0
M  V30 2509 C 239.885 1.03699 -1.34836 0
M  V30 2510 O 241.07 1.04403 -1.63748 0
M  V30 2511 C 238.2 1.50312 -3.13087 0
M  V30 2512 C 237.154 0.9824 -4.16573 0
M  V30 2513 C 236.48 2.18809 -4.8788 0
M  V30 2514 C 237.78 0.0292356 -5.22292 0
M  V30 2515 H 239.474 -0.26135 -2.98257 0
M  V30 2516 H 237.02 -0.127134 -1.43438 0
M  V30 2517 H 238.973 2.07773 -3.66617 0
M  V30 2518 H 237.697 2.18431 -2.42807 0
M  V30 2519 H 236.356 0.430119 -3.64068 0
M  V30 2520 H 236.004 2.85507 -4.14119 0
M  V30 2521 H 235.704 1.84615 -5.57845 0
M  V30 2522 H 237.228 2.76858 -5.44226 0
M  V30 2523 H 238.642 0.512976 -5.71 0
M  V30 2524 H 237.039 -0.2244 -5.9968 0
M  V30 2525 H 238.109 -0.912931 -4.76228 0
M  V30 2526 N 239.452 1.56882 -0.150215 0
M  V30 2527 C 240.682 2.00302 0.506213 0
M  V30 2528 C 241.09 1.02934 1.58749 0
M  V30 2529 O 240.433 0.0188384 1.8369 0
M  V30 2530 C 240.495 3.40156 1.16337 0
M  V30 2531 C 240.159 4.56439 0.226311 0
M  V30 2532 C 241.156 5.17012 -0.547265 0
M  V30 2533 C 238.841 5.02136 0.128279 0
M  V30 2534 C 240.835 6.21693 -1.40629 0
M  V30 2535 C 238.522 6.06672 -0.734345 0
M  V30 2536 C 239.52 6.6632 -1.50023 0
M  V30 2537 O 239.208 7.68831 -2.34848 0
M  V30 2538 H 238.94 0.662182 0.135984 0
M  V30 2539 H 241.494 2.03961 -0.242746 0
M  V30 2540 H 239.724 3.33346 1.96004 0
M  V30 2541 H 241.413 3.67663 1.71985 0
M  V30 2542 H 242.179 4.82603 -0.48158 0
M  V30 2543 H 238.058 4.55435 0.714157 0
M  V30 2544 H 241.602 6.68179 -2.00455 0
M  V30 2545 H 237.499 6.40507 -0.801309 0
M  V30 2546 H 238.267 7.86065 -2.28131 0
M  V30 2547 N 240.93 -0.123565 1.57115 0
M  V30 2548 C 241.878 -1.17082 2.00984 0
M  V30 2549 C 242.872 -1.43136 0.906009 0
M  V30 2550 O 244.078 -1.43152 1.09121 0
M  V30 2551 H 240.453 -0.394653 0.64012 0
M  V30 2552 H 242.424 -0.774292 2.88179 0
M  V30 2553 C 241.173 -2.49057 2.42623 0
M  V30 2554 H 240.496 -2.29846 3.27125 0
M  V30 2555 H 241.936 -3.20906 2.7712 0
M  V30 2556 C 240.395 -3.11305 1.28805 0
M  V30 2557 O 240.925 -3.97171 0.60153 0
M  V30 2558 N 239.131 -2.71111 1.04628 0
M  V30 2559 H 238.678 -2.01382 1.60634 0
M  V30 2560 H 238.636 -3.1309 0.286685 0
M  V30 2561 N 242.408 -1.52605 -0.393616 0
M  V30 2562 C 243.654 -1.67672 -1.14079 0
M  V30 2563 C 243.987 -0.413121 -1.89755 0
M  V30 2564 O 243.262 0.588952 -1.85369 0
M  V30 2565 C 243.545 -2.9088 -2.12276 0
M  V30 2566 C 243.398 -4.27329 -1.40394 0
M  V30 2567 C 244.717 -3.09628 -3.12759 0
M  V30 2568 H 241.836 -0.610168 -0.413356 0
M  V30 2569 H 244.478 -1.85193 -0.424696 0
M  V30 2570 H 242.628 -2.76073 -2.73342 0
M  V30 2571 H 244.3 -4.53894 -0.82327 0
M  V30 2572 H 242.543 -4.2802 -0.705801 0
M  V30 2573 H 243.214 -5.09615 -2.12123 0
M  V30 2574 H 245.69 -3.23436 -2.61779 0
M  V30 2575 H 244.566 -3.97322 -3.78717 0
M  V30 2576 H 244.827 -2.23637 -3.81365 0
M  V30 2577 N 243.887 0.651787 -1.4349 0
M  V30 2578 C 244.835 1.78586 -1.49029 0
M  V30 2579 C 245.829 1.65448 -0.363767 0
M  V30 2580 O 247.035 1.71777 -0.537821 0
M  V30 2581 H 243.41 0.589236 -0.467231 0
M  V30 2582 H 245.381 1.71035 -2.44519 0
M  V30 2583 C 244.13 3.16851 -1.43181 0
M  V30 2584 H 243.453 3.27598 -2.29171 0
M  V30 2585 H 244.893 3.96156 -1.51118 0
M  V30 2586 C 243.352 3.36568 -0.149616 0
M  V30 2587 O 243.882 3.93885 0.788509 0
M  V30 2588 N 242.088 2.90539 -0.0593484 0
M  V30 2589 H 241.635 2.4408 -0.823575 0
M  V30 2590 H 241.593 3.04108 0.797853 0
M  V30 2591 N 245.365 1.30045 0.890287 0
M  V30 2592 C 246.295 1.18541 2.01172 0
M  V30 2593 C 247.276 0.0773356 1.69924 0
M  V30 2594 O 248.461 0.25845 1.92473 0
M  V30 2595 C 245.591 0.870941 3.36202 0
M  V30 2596 C 244.545 1.93637 3.81692 0
M  V30 2597 C 243.871 1.475 5.13953 0
M  V30 2598 C 245.171 3.34666 4.00994 0
M  V30 2599 H 246.865 2.12359 2.11054 0
M  V30 2600 H 244.411 1.02238 1.01407 0
M  V30 2601 H 246.364 0.777141 4.14172 0
M  V30 2602 H 245.088 -0.102926 3.26438 0
M  V30 2603 H 243.747 2.01972 3.05946 0
M  V30 2604 H 243.395 0.489551 5.00612 0
M  V30 2605 H 243.095 2.1876 5.4536 0
M  V30 2606 H 244.619 1.39489 5.94454 0
M  V30 2607 H 246.033 3.2912 4.69417 0
M  V30 2608 H 244.43 4.03966 4.43769 0
M  V30 2609 H 245.5 3.76949 3.05021 0
M  V30 2610 N 246.843 -1.10192 1.12674 0
M  V30 2611 C 248.068 -1.86523 0.906853 0
M  V30 2612 C 248.493 -1.80221 -0.538711 0
M  V30 2613 O 247.851 -1.17396 -1.38158 0
M  V30 2614 C 247.899 -3.32758 1.3894 0
M  V30 2615 O 247.003 -4.08449 0.5695 0
M  V30 2616 H 246.344 -0.578678 0.325619 0
M  V30 2617 H 248.874 -1.39203 1.49946 0
M  V30 2618 H 248.884 -3.83608 1.38958 0
M  V30 2619 H 247.559 -3.36661 2.44197 0
M  V30 2620 H 246.136 -3.67427 0.636528 0
M  V30 2621 N 248.321 -0.919034 -1.28029 0
M  V30 2622 C 249.268 -0.410005 -2.27129 0
M  V30 2623 C 250.238 0.518405 -1.57803 0
M  V30 2624 O 251.423 0.439451 -1.8567 0
M  V30 2625 C 248.563 0.339054 -3.4343 0
M  V30 2626 C 247.676 -0.622468 -4.27492 0
M  V30 2627 C 246.811 0.145567 -5.31001 0
M  V30 2628 C 245.85 -0.809226 -6.06727 0
M  V30 2629 N 244.987 -0.0743728 -7.02061 0
M  V30 2630 H 249.827 -1.26011 -2.70047 0
M  V30 2631 H 247.364 -0.632663 -1.328 0
M  V30 2632 H 249.322 0.789586 -4.0966 0
M  V30 2633 H 247.952 1.15346 -3.01488 0
M  V30 2634 H 247.004 -1.19153 -3.61257 0
M  V30 2635 H 248.316 -1.35252 -4.80113 0
M  V30 2636 H 247.47 0.656417 -6.03139 0
M  V30 2637 H 246.209 0.908643 -4.79161 0
M  V30 2638 H 245.214 -1.3314 -5.33436 0
M  V30 2639 H 246.439 -1.57194 -6.60656 0
M  V30 2640 H 244.385 0.670616 -6.52563 0
M  V30 2641 H 244.302 -0.744157 -7.52329 0
M  V30 2642 H 245.57 0.416109 -7.78389 0
M  V30 2643 N 249.799 1.42003 -0.683588 0
M  V30 2644 C 251.047 2.01015 -0.209101 0
M  V30 2645 C 251.368 1.54365 1.19149 0
M  V30 2646 O 250.638 0.769083 1.80172 0
M  V30 2647 H 249.218 0.743294 -0.074315 0
M  V30 2648 H 251.88 1.73798 -0.882066 0
M  V30 2649 H 250.976 3.11343 -0.2172 0
M  V30 2650 N 251.277 0.427512 1.51691 0
M  V30 2651 C 252.693 0.0792977 1.59403 0
M  V30 2652 C 252.893 -1.41035 1.43914 0
M  V30 2653 O 251.949 -2.17922 1.27539 0
M  V30 2654 C 253.262 0.590636 2.94842 0
M  V30 2655 C 254.81 0.550215 3.08126 0
M  V30 2656 C 255.285 1.03836 4.46074 0
M  V30 2657 N 256.776 0.995943 4.52366 0
M  V30 2658 C 257.511 1.34463 5.57411 0
M  V30 2659 N 257.007 1.76569 6.69922 0
M  V30 2660 N 258.8 1.26343 5.47717 0
M  V30 2661 H 250.951 1.39687 1.60004 0
M  V30 2662 H 253.214 0.575003 0.753708 0
M  V30 2663 H 252.92 1.63251 3.11516 0
M  V30 2664 H 252.794 0.0102061 3.77199 0
M  V30 2665 H 255.181 -0.482654 2.91126 0
M  V30 2666 H 255.262 1.16693 2.27632 0
M  V30 2667 H 254.906 2.06965 4.63819 0
M  V30 2668 H 254.836 0.398286 5.25092 0
M  V30 2669 H 257.327 0.68661 3.7161 0
M  V30 2670 H 257.64 2.01438 7.46085 0
M  V30 2671 H 255.985 1.80488 6.71155 0
M  V30 2672 H 259.176 0.933209 4.58703 0
M  V30 2673 H 259.349 1.53846 6.29472 0
M  V30 2674 N 252.755 -1.56801 0.158532 0
M  V30 2675 C 253.718 -2.16138 -0.762705 0
M  V30 2676 C 254.718 -1.1061 -1.16713 0
M  V30 2677 O 255.908 -1.36191 -1.08617 0
M  V30 2678 C 253.04 -2.73386 -2.03649 0
M  V30 2679 H 254.233 -2.98886 -0.246354 0
M  V30 2680 H 251.786 -1.56035 -0.0909744 0
M  V30 2681 H 252.521 -1.94335 -2.59623 0
M  V30 2682 H 252.306 -3.50601 -1.75559 0
M  V30 2683 H 253.796 -3.19065 -2.6942 0
M  V30 2684 N 254.233 0.115231 -1.57178 0
M  V30 2685 C 255.196 1.12526 -1.99676 0
M  V30 2686 C 256.196 1.34095 -0.88742 0
M  V30 2687 O 257.386 1.30548 -1.15337 0
M  V30 2688 C 254.518 2.4789 -2.34015 0
M  V30 2689 H 255.711 0.759912 -2.90113 0
M  V30 2690 H 253.264 0.359648 -1.52106 0
M  V30 2691 H 253.999 2.89339 -1.4647 0
M  V30 2692 H 253.784 2.33588 -3.14927 0
M  V30 2693 H 255.274 3.20575 -2.67622 0
M  V30 2694 N 255.711 1.52812 0.385517 0
M  V30 2695 C 256.641 1.80808 1.47752 0
M  V30 2696 C 257.622 0.660318 1.5676 0
M  V30 2697 O 258.807 0.908246 1.71652 0
M  V30 2698 C 255.937 1.98008 2.85324 0
M  V30 2699 C 254.891 3.13709 2.91154 0
M  V30 2700 C 254.217 3.16169 4.31209 0
M  V30 2701 C 255.517 4.52709 2.60483 0
M  V30 2702 H 257.211 2.72253 1.24573 0
M  V30 2703 H 254.757 1.31003 0.597839 0
M  V30 2704 H 256.71 2.16176 3.61726 0
M  V30 2705 H 255.434 1.03255 3.09848 0
M  V30 2706 H 254.093 2.95329 2.17201 0
M  V30 2707 H 253.741 2.19092 4.52778 0
M  V30 2708 H 253.441 3.93894 4.36029 0
M  V30 2709 H 254.965 3.36496 5.09512 0
M  V30 2710 H 256.379 4.71173 3.26602 0
M  V30 2711 H 254.776 5.32528 2.76648 0
M  V30 2712 H 255.846 4.59186 1.55809 0
M  V30 2713 N 257.189 -0.644168 1.43834 0
M  V30 2714 C 258.414 -1.43642 1.49605 0
M  V30 2715 C 258.839 -1.8773 0.117913 0
M  V30 2716 O 258.197 -1.57938 -0.890239 0
M  V30 2717 C 258.245 -2.6416 2.45463 0
M  V30 2718 O 257.349 -3.63538 1.94714 0
M  V30 2719 H 256.69 -0.430329 0.50568 0
M  V30 2720 H 259.22 -0.787448 1.8884 0
M  V30 2721 H 259.23 -3.11864 2.63068 0
M  V30 2722 H 257.905 -2.31414 3.45572 0
M  V30 2723 H 256.482 -3.2273 1.86814 0
M  V30 2724 N 258.668 -1.30515 -0.883378 0
M  V30 2725 C 259.631 -1.1701 -1.97082 0
M  V30 2726 C 260.631 -0.10089 -1.60483 0
M  V30 2727 O 261.821 -0.349127 -1.70666 0
M  V30 2728 C 258.953 -0.793045 -3.31547 0
M  V30 2729 H 260.146 -2.13622 -2.10489 0
M  V30 2730 H 257.699 -1.13935 -1.06998 0
M  V30 2731 H 258.434 0.172499 -3.23841 0
M  V30 2732 H 258.219 -1.56576 -3.5948 0
M  V30 2733 H 259.709 -0.722073 -4.1131 0
M  V30 2734 N 260.146 1.09593 -1.13257 0
M  V30 2735 C 261.374 1.855 -0.916378 0
M  V30 2736 C 261.789 1.81069 0.534738 0
M  V30 2737 O 261.146 1.20562 1.37007 0
M  V30 2738 C 261.197 3.33546 -1.39388 0
M  V30 2739 O 260.918 3.37927 -2.78813 0
M  V30 2740 C 262.419 4.26299 -1.21588 0
M  V30 2741 H 259.639 0.585991 -0.326887 0
M  V30 2742 H 262.183 1.38488 -1.5047 0
M  V30 2743 H 260.338 3.77992 -0.848597 0
M  V30 2744 H 260.752 4.30254 -2.9997 0
M  V30 2745 H 262.226 5.28341 -1.59876 0
M  V30 2746 H 262.703 4.38918 -0.157376 0
M  V30 2747 H 263.309 3.87668 -1.7491 0
M  V30 2748 N 261.624 0.925811 1.2754 0
M  V30 2749 C 262.87 0.566092 1.94739 0
M  V30 2750 C 263.203 -0.890057 1.72603 0
M  V30 2751 O 262.478 -1.63467 1.05399 0
M  V30 2752 C 262.761 0.89054 3.48915 0
M  V30 2753 C 262.614 2.4003 3.80402 0
M  V30 2754 C 263.933 0.395101 4.38323 0
M  V30 2755 H 261.052 0.20714 0.707292 0
M  V30 2756 H 263.694 1.15725 1.50691 0
M  V30 2757 H 261.844 0.387452 3.86563 0
M  V30 2758 H 263.516 2.97494 3.52555 0
M  V30 2759 H 261.759 2.85028 3.2702 0
M  V30 2760 H 262.43 2.57785 4.8811 0
M  V30 2761 H 264.906 0.826241 4.07814 0
M  V30 2762 H 263.782 0.651086 5.45025 0
M  V30 2763 H 264.043 -0.704798 4.36446 0
M  V30 2764 N 263.102 -1.41638 0.69111 0
M  V30 2765 C 264.513 -1.84346 0.295517 0
M  V30 2766 C 264.864 -1.57833 -1.16547 0
M  V30 2767 O 263.989 -1.04648 -1.89414 0
M  V30 2768 C 264.584 -3.34636 0.529575 0
M  V30 2769 C 263.143 -3.7593 0.187944 0
M  V30 2770 C 262.29 -2.65082 0.814052 0
M  V30 2771 H 265.241 -1.31253 0.892092 0
M  V30 2772 H 265.262 -3.79903 -0.213148 0
M  V30 2773 H 264.774 -3.53901 1.59297 0
M  V30 2774 H 262.875 -3.62268 -0.871367 0
M  V30 2775 H 262.988 -4.74808 0.63985 0
M  V30 2776 H 261.352 -2.53528 0.244017 0
M  V30 2777 H 262.135 -2.87167 1.88123 0
M  V30 2778 N 264.58 -0.43555 -1.51462 0
M  V30 2779 C 265.996 -0.0877501 -1.59359 0
M  V30 2780 C 266.196 1.4027 -1.4466 0
M  V30 2781 O 265.252 2.17243 -1.28693 0
M  V30 2782 C 266.565 -0.606264 -2.94525 0
M  V30 2783 C 268.113 -0.566548 -3.0783 0
M  V30 2784 C 268.588 -1.06201 -4.45517 0
M  V30 2785 N 270.079 -1.01992 -4.51832 0
M  V30 2786 C 270.814 -1.37417 -5.5669 0
M  V30 2787 N 270.31 -1.80119 -6.68976 0
M  V30 2788 N 272.103 -1.29245 -5.47039 0
M  V30 2789 H 264.254 -1.40533 -1.59261 0
M  V30 2790 H 266.517 -0.578992 -0.750648 0
M  V30 2791 H 266.223 -1.64901 -3.10645 0
M  V30 2792 H 266.097 -0.0302097 -3.77188 0
M  V30 2793 H 268.484 0.467208 -2.91378 0
M  V30 2794 H 268.565 -1.17898 -2.2701 0
M  V30 2795 H 268.209 -2.09422 -4.62715 0
M  V30 2796 H 268.139 -0.426127 -5.24873 0
M  V30 2797 H 270.63 -0.706308 -3.71241 0
M  V30 2798 H 270.943 -2.05392 -7.45006 0
M  V30 2799 H 269.288 -1.84044 -6.70189 0
M  V30 2800 H 272.479 -0.957522 -4.58202 0
M  V30 2801 H 272.652 -1.57182 -6.28648 0
M  V30 2802 N 266.058 1.56714 -0.166846 0
M  V30 2803 C 267.008 2.14338 0.777382 0
M  V30 2804 C 267.992 1.07642 1.19591 0
M  V30 2805 O 269.184 1.33775 1.15902 0
M  V30 2806 C 266.313 2.78417 2.00846 0
M  V30 2807 C 265.399 3.92264 1.61212 0
M  V30 2808 N 265.79 4.97268 0.925104 0
M  V30 2809 C 264.088 4.03342 1.90346 0
M  V30 2810 C 264.789 5.77093 0.730627 0
M  V30 2811 N 263.765 5.2854 1.27067 0
M  V30 2812 H 267.567 2.9289 0.243466 0
M  V30 2813 H 265.081 1.62364 0.0339954 0
M  V30 2814 H 267.078 3.18073 2.69509 0
M  V30 2815 H 265.738 2.01344 2.54736 0
M  V30 2816 H 266.749 5.14601 0.583646 0
M  V30 2817 H 263.426 3.37368 2.45946 0
M  V30 2818 H 264.816 6.71638 0.187668 0
M  V30 2819 N 267.536 -0.106894 1.57237 0
M  V30 2820 C 268.446 -1.14911 2.0453 0
M  V30 2821 C 269.462 -1.44592 0.96795 0
M  V30 2822 O 270.638 -1.55468 1.2803 0
M  V30 2823 C 267.703 -2.45272 2.45036 0
M  V30 2824 C 266.764 -2.22879 3.66911 0
M  V30 2825 C 265.997 -3.47024 4.05475 0
M  V30 2826 O 266.22 -4.54804 3.44252 0
M  V30 2827 O 265.154 -3.3731 4.98504 0
M  V30 2828 H 268.98 -0.777461 2.9358 0
M  V30 2829 H 266.565 -0.318563 1.45964 0
M  V30 2830 H 268.447 -3.22055 2.71769 0
M  V30 2831 H 267.122 -2.81886 1.59129 0
M  V30 2832 H 266.029 -1.43915 3.45311 0
M  V30 2833 H 267.362 -1.91163 4.53561 0
M  V30 2834 N 269.014 -1.53014 -0.377408 0
M  V30 2835 C 270.425 -1.60438 -0.954798 0
M  V30 2836 C 270.776 -0.464418 -1.90624 0
M  V30 2837 O 269.901 0.41087 -2.12464 0
M  V30 2838 C 270.496 -2.90797 -1.73847 0
M  V30 2839 C 269.055 -3.00595 -2.26538 0
M  V30 2840 C 268.202 -2.55645 -1.07429 0
M  V30 2841 H 271.153 -1.57926 -0.156575 0
M  V30 2842 H 271.174 -2.77935 -2.5987 0
M  V30 2843 H 270.686 -3.73746 -1.04574 0
M  V30 2844 H 268.787 -2.22208 -2.99089 0
M  V30 2845 H 268.9 -4.05456 -2.5523 0
M  V30 2846 H 267.264 -2.10239 -1.43777 0
M  V30 2847 H 268.047 -3.41 -0.396728 0
M  V30 2848 N 270.492 0.636531 -1.44174 0
M  V30 2849 C 271.903 1.21806 -1.41493 0
M  V30 2850 C 272.254 1.95785 -0.1275 0
M  V30 2851 O 271.379 2.02147 0.772376 0
M  V30 2852 C 271.974 2.21551 -2.56321 0
M  V30 2853 C 270.533 2.75143 -2.56853 0
M  V30 2854 C 269.68 1.50052 -2.33195 0
M  V30 2855 H 272.631 0.427531 -1.52833 0
M  V30 2856 H 272.652 3.0405 -2.28765 0
M  V30 2857 H 272.164 1.67679 -3.50008 0
M  V30 2858 H 270.265 3.33033 -1.67093 0
M  V30 2859 H 270.378 3.2155 -3.55165 0
M  V30 2860 H 268.742 1.77993 -1.82183 0
M  V30 2861 H 269.525 0.980903 -3.28988 0
M  V30 2862 N 271.97 1.30982 0.876444 0
M  V30 2863 C 273.217 1.20296 1.62896 0
M  V30 2864 C 273.545 -0.240395 1.93009 0
M  V30 2865 O 272.8 -1.18733 1.55567 0
M  V30 2866 C 273.099 1.98572 2.9716 0
M  V30 2867 C 272.765 3.48125 2.86566 0
M  V30 2868 C 271.427 3.88905 2.83383 0
M  V30 2869 C 273.779 4.43322 2.74071 0
M  V30 2870 C 271.107 5.2316 2.65556 0
M  V30 2871 C 273.459 5.77695 2.57781 0
M  V30 2872 C 272.123 6.17704 2.52979 0
M  V30 2873 H 271.393 0.440193 0.59608 0
M  V30 2874 H 274.04 1.62177 1.01837 0
M  V30 2875 H 272.345 1.49352 3.62217 0
M  V30 2876 H 274.042 1.8769 3.54364 0
M  V30 2877 H 270.632 3.15723 2.89856 0
M  V30 2878 H 274.816 4.12752 2.75589 0
M  V30 2879 H 270.072 5.53241 2.60259 0
M  V30 2880 H 274.246 6.51091 2.47089 0
M  V30 2881 H 271.873 7.21678 2.38924 0
M  V30 2882 N 273.449 -1.08991 1.13837 0
M  V30 2883 C 274.399 -2.1393 0.788535 0
M  V30 2884 C 275.383 -1.59396 -0.219516 0
M  V30 2885 O 276.575 -1.76985 -0.0227557 0
M  V30 2886 C 273.704 -3.42305 0.261147 0
M  V30 2887 C 272.79 -4.03736 1.29837 0
M  V30 2888 N 273.181 -4.39659 2.50067 0
M  V30 2889 C 271.479 -4.30993 1.1472 0
M  V30 2890 C 272.18 -4.88113 3.16419 0
M  V30 2891 N 271.156 -4.85846 2.43832 0
M  V30 2892 H 274.958 -2.39516 1.70322 0
M  V30 2893 H 272.472 -1.26263 1.02134 0
M  V30 2894 H 274.469 -4.16899 -0.0077405 0
M  V30 2895 H 273.129 -3.18172 -0.647805 0
M  V30 2896 H 274.14 -4.30878 2.8734 0
M  V30 2897 H 270.817 -4.16444 0.296773 0
M  V30 2898 H 272.207 -5.25336 4.18894 0
M  V30 2899 N 274.927 -0.932562 -1.27047 0
M  V30 2900 C 275.857 -0.452902 -2.29066 0
M  V30 2901 C 276.838 0.489338 -1.62909 0
M  V30 2902 O 278.023 0.393046 -1.90181 0
M  V30 2903 C 275.153 0.290698 -3.46081 0
M  V30 2904 C 274.107 -0.564168 -4.24265 0
M  V30 2905 C 273.433 0.308886 -5.33807 0
M  V30 2906 C 274.733 -1.83112 -4.89149 0
M  V30 2907 H 276.427 -1.30552 -2.69437 0
M  V30 2908 H 273.973 -0.629201 -1.29526 0
M  V30 2909 H 275.926 0.637233 -4.16554 0
M  V30 2910 H 274.65 1.17738 -3.0464 0
M  V30 2911 H 273.309 -0.893477 -3.55545 0
M  V30 2912 H 272.957 1.19467 -4.88607 0
M  V30 2913 H 272.657 -0.259633 -5.87026 0
M  V30 2914 H 274.181 0.650884 -6.07121 0
M  V30 2915 H 275.595 -1.55236 -5.51883 0
M  V30 2916 H 273.992 -2.34353 -5.52448 0
M  V30 2917 H 275.062 -2.54772 -4.12576 0
M  V30 2918 N 276.405 1.4127 -0.698611 0
M  V30 2919 C 277.682 1.94955 -0.158762 0
M  V30 2920 C 278.062 1.63781 1.33188 0
M  V30 2921 O 277.41 0.946423 2.07979 0
M  V30 2922 C 277.62 3.46044 -0.453309 0
M  V30 2923 C 278.968 4.22872 -0.382707 0
M  V30 2924 O 279.992 3.54076 -0.388396 0
M  V30 2925 O 278.851 5.45407 -0.345463 0
M  V30 2926 H 275.945 0.82683 -0.0167505 0
M  V30 2927 H 278.491 1.50971 -0.77498 0
M  V30 2928 H 277.263 3.62028 -1.48498 0
M  V30 2929 H 276.886 3.97128 0.19373 0
M  V30 2930 N 277.883 0.443576 1.51229 0
M  V30 2931 C 279.299 0.0962001 1.5931 0
M  V30 2932 C 279.499 -1.39501 1.45402 0
M  V30 2933 O 278.555 -2.16557 1.29843 0
M  V30 2934 C 279.868 0.621875 2.94199 0
M  V30 2935 C 281.416 0.582865 3.07525 0
M  V30 2936 C 281.891 1.08562 4.44948 0
M  V30 2937 N 283.382 1.04387 4.51284 0
M  V30 2938 C 284.117 1.40368 5.55954 0
M  V30 2939 N 283.613 1.83664 6.68011 0
M  V30 2940 N 285.406 1.32145 5.46346 0
M  V30 2941 H 277.557 1.41376 1.58514 0
M  V30 2942 H 279.82 0.582965 0.747567 0
M  V30 2943 H 279.526 1.66546 3.09767 0
M  V30 2944 H 279.4 0.0502125 3.77167 0
M  V30 2945 H 281.787 -0.451749 2.91622 0
M  V30 2946 H 281.868 1.191 2.26382 0
M  V30 2947 H 281.512 2.11873 4.61598 0
M  V30 2948 H 281.442 0.453956 5.2464 0
M  V30 2949 H 283.933 0.725986 3.70861 0
M  V30 2950 H 284.246 2.0934 7.43906 0
M  V30 2951 H 282.591 1.87596 6.69203 0
M  V30 2952 H 285.782 0.981808 4.57688 0
M  V30 2953 H 285.955 1.60514 6.27805 0
M  V30 2954 N 279.361 -1.56624 0.175154 0
M  V30 2955 C 280.271 -2.21741 -0.766042 0
M  V30 2956 C 281.287 -1.21023 -1.25018 0
M  V30 2957 O 282.463 -1.53697 -1.3015 0
M  V30 2958 C 279.528 -2.84839 -1.97655 0
M  V30 2959 C 278.589 -4.00769 -1.53892 0
M  V30 2960 C 277.822 -4.60849 -2.69173 0
M  V30 2961 O 278.045 -4.19823 -3.86141 0
M  V30 2962 O 276.979 -5.50655 -2.43028 0
M  V30 2963 H 280.805 -3.02738 -0.241585 0
M  V30 2964 H 278.39 -1.49305 -0.053222 0
M  V30 2965 H 280.272 -3.24834 -2.68442 0
M  V30 2966 H 278.947 -2.06836 -2.48999 0
M  V30 2967 H 277.854 -3.65436 -0.80044 0
M  V30 2968 H 279.187 -4.80376 -1.07236 0
M  V30 2969 N 280.839 0.0985539 -1.57292 0
M  V30 2970 C 282.088 0.801358 -1.85098 0
M  V30 2971 C 282.401 1.80066 -0.763902 0
M  V30 2972 O 283.607 2.55112 -0.928981 0
M  V30 2973 C 282.063 1.47599 -3.28242 0
M  V30 2974 C 281.671 0.516624 -4.45011 0
M  V30 2975 C 283.415 2.16272 -3.65276 0
M  V30 2976 C 281.322 1.19564 -5.79188 0
M  V30 2977 H 280.252 0.303022 -0.69043 0
M  V30 2978 H 282.903 0.0542623 -1.8342 0
M  V30 2979 H 281.285 2.27042 -3.2445 0
M  V30 2980 H 282.459 -0.246065 -4.60143 0
M  V30 2981 H 280.774 -0.064227 -4.1635 0
M  V30 2982 H 283.371 2.67802 -4.62803 0
M  V30 2983 H 283.714 2.95009 -2.93727 0
M  V30 2984 H 284.247 1.43693 -3.70941 0
M  V30 2985 H 280.986 0.449157 -6.53959 0
M  V30 2986 H 280.506 1.92984 -5.67906 0
M  V30 2987 H 282.185 1.7231 -6.23633 0
M  V30 2988 N 282.317 1.53212 0.369288 0
M  V30 2989 C 283.733 1.42902 0.710712 0
M  V30 2990 C 283.933 0.565135 1.93413 0
M  V30 2991 O 282.989 0.0461484 2.52458 0
M  V30 2992 C 284.302 2.86042 0.927382 0
M  V30 2993 C 285.85 2.9565 1.02762 0
M  V30 2994 C 286.325 4.39843 1.27679 0
M  V30 2995 N 287.816 4.43256 1.34457 0
M  V30 2996 C 288.551 5.51929 1.55439 0
M  V30 2997 N 288.047 6.70655 1.73762 0
M  V30 2998 N 289.84 5.39502 1.57779 0
M  V30 2999 H 281.991 2.07888 -0.435457 0
M  V30 3000 H 284.254 0.938661 -0.132739 0
M  V30 3001 H 283.96 3.51557 0.100287 0
M  V30 3002 H 283.834 3.29472 1.83653 0
M  V30 3003 H 286.221 2.30291 1.84527 0
M  V30 3004 H 286.302 2.5562 0.0959504 0
M  V30 3005 H 285.946 5.05774 0.464175 0
M  V30 3006 H 285.876 4.77443 2.22162 0
M  V30 3007 H 288.367 3.5769 1.21926 0
M  V30 3008 H 288.68 7.49248 1.89335 0
M  V30 3009 H 287.025 6.73648 1.70948 0
M  V30 3010 H 290.216 4.45713 1.43029 0
M  V30 3011 H 290.389 6.2426 1.7379 0
M  V30 3012 N 283.795 -0.628877 1.44509 0
M  V30 3013 C 284.725 -1.75187 1.54376 0
M  V30 3014 C 285.706 -1.65411 0.396618 0
M  V30 3015 O 286.891 -1.84137 0.617031 0
M  V30 3016 C 284.021 -3.13725 1.48976 0
M  V30 3017 C 282.975 -3.38291 2.62189 0
M  V30 3018 C 282.301 -4.76883 2.41841 0
M  V30 3019 C 283.601 -3.30632 4.04326 0
M  V30 3020 H 285.295 -1.67187 2.48373 0
M  V30 3021 H 282.841 -0.802909 1.19538 0
M  V30 3022 H 284.794 -3.92064 1.54478 0
M  V30 3023 H 283.518 -3.22515 0.514961 0
M  V30 3024 H 282.177 -2.62334 2.56079 0
M  V30 3025 H 281.825 -4.82378 1.42548 0
M  V30 3026 H 281.525 -4.94278 3.17747 0
M  V30 3027 H 283.049 -5.57449 2.49165 0
M  V30 3028 H 284.463 -3.98873 4.11793 0
M  V30 3029 H 282.86 -3.59561 4.80454 0
M  V30 3030 H 283.93 -2.28404 4.27738 0
M  V30 3031 N 285.273 -1.31445 -0.869486 0
M  V30 3032 C 286.205 -1.14955 -1.98287 0
M  V30 3033 C 287.218 -0.0885037 -1.62559 0
M  V30 3034 O 288.407 -0.336044 -1.75308 0
M  V30 3035 C 285.507 -0.734255 -3.3085 0
M  V30 3036 C 284.68 -1.88042 -3.94917 0
M  V30 3037 C 283.739 -1.4511 -5.05796 0
M  V30 3038 O 282.765 -2.16082 -5.2659 0
M  V30 3039 N 283.967 -0.338763 -5.79511 0
M  V30 3040 H 286.732 -2.10856 -2.12979 0
M  V30 3041 H 284.293 -1.23786 -1.04349 0
M  V30 3042 H 286.285 -0.42975 -4.02412 0
M  V30 3043 H 284.855 0.133158 -3.12316 0
M  V30 3044 H 284.075 -2.35222 -3.1633 0
M  V30 3045 H 285.363 -2.6481 -4.34457 0
M  V30 3046 H 284.761 0.252274 -5.65137 0
M  V30 3047 H 283.318 -0.0937925 -6.51733 0
M  V30 3048 N 286.751 1.08385 -1.14413 0
M  V30 3049 C 288.167 1.32844 -0.884563 0
M  V30 3050 C 288.367 1.95841 0.474181 0
M  V30 3051 O 287.423 2.21158 1.21842 0
M  V30 3052 C 288.736 2.22978 -2.01745 0
M  V30 3053 C 290.284 2.36458 -2.05077 0
M  V30 3054 C 290.759 3.29934 -3.1766 0
M  V30 3055 N 292.25 3.37511 -3.17239 0
M  V30 3056 C 292.985 4.09871 -4.0099 0
M  V30 3057 N 292.481 4.84936 -4.94781 0
M  V30 3058 N 294.274 4.05704 -3.89051 0
M  V30 3059 H 286.425 0.658756 -2.01926 0
M  V30 3060 H 288.688 0.352821 -0.879899 0
M  V30 3061 H 288.394 1.83934 -2.99769 0
M  V30 3062 H 288.268 3.23441 -1.94077 0
M  V30 3063 H 290.655 2.7476 -1.0766 0
M  V30 3064 H 290.736 1.35736 -2.16816 0
M  V30 3065 H 290.38 2.92352 -4.15322 0
M  V30 3066 H 290.31 4.30584 -3.03158 0
M  V30 3067 H 292.801 2.83996 -2.49308 0
M  V30 3068 H 293.114 5.37612 -5.55151 0
M  V30 3069 H 291.459 4.83988 -4.98779 0
M  V30 3070 H 294.65 3.46167 -3.15097 0
M  V30 3071 H 294.823 4.61834 -4.54547 0
M  V30 3072 N 288.23 0.939286 1.26551 0
M  V30 3073 C 289.16 0.465044 2.28822 0
M  V30 3074 C 290.141 -0.480692 1.63167 0
M  V30 3075 O 291.326 -0.382955 1.90387 0
M  V30 3076 C 288.456 -0.27234 3.46231 0
M  V30 3077 C 287.41 0.58666 4.2396 0
M  V30 3078 C 286.736 -0.280573 5.33963 0
M  V30 3079 C 288.036 1.85704 4.88171 0
M  V30 3080 H 289.73 1.31979 2.68741 0
M  V30 3081 H 287.276 0.636061 1.29191 0
M  V30 3082 H 289.229 -0.615133 4.16886 0
M  V30 3083 H 287.953 -1.16121 3.0526 0
M  V30 3084 H 286.612 0.91232 3.55067 0
M  V30 3085 H 286.26 -1.16874 4.89234 0
M  V30 3086 H 285.96 0.29076 5.8688 0
M  V30 3087 H 287.484 -0.618678 6.07458 0
M  V30 3088 H 288.898 1.58161 5.51052 0
M  V30 3089 H 287.295 2.37279 5.51197 0
M  V30 3090 H 288.365 2.56957 4.11219 0
M  V30 3091 N 289.708 -1.40897 0.706093 0
M  V30 3092 C 290.933 -2.05895 0.249435 0
M  V30 3093 C 291.358 -1.52823 -1.09666 0
M  V30 3094 O 290.716 -0.659589 -1.68876 0
M  V30 3095 C 290.764 -3.59872 0.22904 0
M  V30 3096 O 289.868 -4.04708 -0.792784 0
M  V30 3097 H 289.209 -0.653206 0.119241 0
M  V30 3098 H 291.739 -1.80471 0.96391 0
M  V30 3099 H 291.749 -4.07951 0.0634791 0
M  V30 3100 H 290.424 -3.97866 1.21141 0
M  V30 3101 H 289.001 -3.68111 -0.59572 0
M  V30 3102 N 291.186 -0.45159 -1.50991 0
M  V30 3103 C 292.136 0.370861 -2.24964 0
M  V30 3104 C 293.12 0.978074 -1.2776 0
M  V30 3105 O 294.312 0.893854 -1.52772 0
M  V30 3106 C 291.441 1.46344 -3.10545 0
M  V30 3107 C 290.527 0.864924 -4.15187 0
M  V30 3108 N 290.918 -0.00311354 -5.058 0
M  V30 3109 C 289.216 1.13099 -4.31422 0
M  V30 3110 C 289.917 -0.340772 -5.80701 0
M  V30 3111 N 288.893 0.279203 -5.42883 0
M  V30 3112 H 292.695 -0.298134 -2.92384 0
M  V30 3113 H 290.209 -0.264528 -1.60231 0
M  V30 3114 H 292.206 2.06565 -3.62128 0
M  V30 3115 H 290.866 2.13463 -2.4467 0
M  V30 3116 H 291.877 -0.37058 -5.16572 0
M  V30 3117 H 288.554 1.79861 -3.76771 0
M  V30 3118 H 289.944 -1.048 -6.63677 0
M  V30 3119 N 292.664 1.56529 -0.183458 0
M  V30 3120 C 293.889 2.02064 0.467428 0
M  V30 3121 C 294.314 1.06282 1.55196 0
M  V30 3122 O 293.672 0.0443565 1.81246 0
M  V30 3123 C 293.72 3.46122 1.01153 0
M  V30 3124 O 292.824 3.53437 2.12499 0
M  V30 3125 H 292.165 0.654726 0.110588 0
M  V30 3126 H 294.695 2.02521 -0.290917 0
M  V30 3127 H 294.705 3.85676 1.33108 0
M  V30 3128 H 293.38 4.15331 0.217533 0
M  V30 3129 H 291.957 3.2575 1.81497 0
M  V30 3130 N 294.142 -0.090211 1.57342 0
M  V30 3131 C 295.39 -0.791241 1.85967 0
M  V30 3132 C 295.711 -1.7903 0.772859 0
M  V30 3133 O 294.981 -1.94872 -0.200398 0
M  V30 3134 H 293.561 -0.295205 0.686195 0
M  V30 3135 H 296.223 -0.0706782 1.94772 0
M  V30 3136 H 295.319 -1.31882 2.82867 0
M  V30 3137 N 295.62 -1.53406 -0.361157 0
M  V30 3138 C 296.845 -1.74024 -1.12829 0
M  V30 3139 C 297.27 -0.470069 -1.82132 0
M  V30 3140 O 296.628 0.57619 -1.719 0
M  V30 3141 C 296.676 -2.90903 -2.13091 0
M  V30 3142 O 295.78 -2.59821 -3.20261 0
M  V30 3143 H 295.121 -0.577804 -0.327168 0
M  V30 3144 H 297.651 -2.00307 -0.41693 0
M  V30 3145 H 297.661 -3.17194 -2.56616 0
M  V30 3146 H 296.336 -3.83034 -1.62042 0
M  V30 3147 H 294.913 -2.44362 -2.81677 0
M  V30 3148 N 297.098 0.621204 -1.44841 0
M  V30 3149 C 298.514 0.94048 -1.28946 0
M  V30 3150 C 298.714 2.00154 -0.23249 0
M  V30 3151 O 297.77 2.49651 0.378237 0
M  V30 3152 C 299.083 1.39433 -2.66419 0
M  V30 3153 C 300.631 1.50927 -2.74208 0
M  V30 3154 C 301.106 1.99692 -4.12174 0
M  V30 3155 N 302.597 2.06947 -4.144 0
M  V30 3156 C 303.332 2.45871 -5.1801 0
M  V30 3157 N 302.828 2.83862 -6.31977 0
M  V30 3158 N 304.621 2.46092 -5.05366 0
M  V30 3159 H 296.772 -0.0803548 -2.12248 0
M  V30 3160 H 299.035 0.0266913 -0.947624 0
M  V30 3161 H 298.741 0.688925 -3.44887 0
M  V30 3162 H 298.615 2.36347 -2.93973 0
M  V30 3163 H 301.002 2.20561 -1.96053 0
M  V30 3164 H 301.083 0.523627 -2.50383 0
M  V30 3165 H 300.727 1.30649 -4.90809 0
M  V30 3166 H 300.657 2.99146 -4.33381 0
M  V30 3167 H 303.148 1.80232 -3.32152 0
M  V30 3168 H 303.461 3.12405 -7.0684 0
M  V30 3169 H 301.806 2.8159 -6.35399 0
M  V30 3170 H 304.997 2.1581 -4.15384 0
M  V30 3171 H 305.17 2.76102 -5.86235 0
M  V30 3172 N 298.576 1.31904 0.862503 0
M  V30 3173 C 299.822 1.22197 1.61851 0
M  V30 3174 C 300.155 -0.217641 1.92977 0
M  V30 3175 O 299.43 -1.15264 1.56666 0
M  V30 3176 C 299.713 2.07378 2.94391 0
M  V30 3177 C 299.566 3.59678 2.70096 0
M  V30 3178 C 300.885 1.92891 3.95577 0
M  V30 3179 H 298.004 0.445255 0.587296 0
M  V30 3180 H 300.646 1.6177 0.99651 0
M  V30 3181 H 298.796 1.73758 3.47477 0
M  V30 3182 H 300.468 4.03472 2.23625 0
M  V30 3183 H 298.711 3.82735 2.04197 0
M  V30 3184 H 299.382 4.14595 3.64438 0
M  V30 3185 H 301.858 2.22327 3.51724 0
M  V30 3186 H 300.734 2.54781 4.86187 0
M  V30 3187 H 300.995 0.894315 4.3296 0
M  V30 3188 N 300.054 -1.07777 1.14986 0
M  V30 3189 C 301.47 -1.32373 0.891596 0
M  V30 3190 C 301.67 -1.9609 -0.463788 0
M  V30 3191 O 300.726 -2.21801 -1.20667 0
M  V30 3192 C 302.039 -2.21905 2.02925 0
M  V30 3193 C 303.587 -2.35367 2.06329 0
M  V30 3194 C 304.062 -3.28245 3.19405 0
M  V30 3195 N 305.553 -3.35824 3.19024 0
M  V30 3196 C 306.288 -4.07739 4.03158 0
M  V30 3197 N 305.784 -4.82306 4.97346 0
M  V30 3198 N 307.577 -4.03635 3.91197 0
M  V30 3199 H 299.728 -0.648039 2.02273 0
M  V30 3200 H 301.991 -0.348149 0.881757 0
M  V30 3201 H 301.697 -1.82342 3.0074 0
M  V30 3202 H 301.571 -3.22407 1.95789 0
M  V30 3203 H 303.958 -2.74186 1.09116 0
M  V30 3204 H 304.039 -1.34585 2.17533 0
M  V30 3205 H 303.683 -2.90146 4.16867 0
M  V30 3206 H 303.613 -4.28971 3.05437 0
M  V30 3207 H 306.104 -2.8267 2.50811 0
M  V30 3208 H 306.417 -5.34661 5.57994 0
M  V30 3209 H 304.762 -4.81337 5.01338 0
M  V30 3210 H 307.953 -3.44491 3.16928 0
M  V30 3211 H 308.126 -4.59417 4.5699 0
M  V30 3212 N 301.532 -0.945985 -1.26051 0
M  V30 3213 C 302.778 -0.597002 -1.93814 0
M  V30 3214 C 303.111 0.862484 -1.73997 0
M  V30 3215 O 302.386 1.61769 -1.07986 0
M  V30 3216 C 302.669 -0.945937 -3.47454 0
M  V30 3217 C 302.522 -2.46052 -3.76535 0
M  V30 3218 C 303.841 -0.464785 -4.37639 0
M  V30 3219 H 300.96 -0.218366 -0.703907 0
M  V30 3220 H 303.602 -1.18107 -1.48831 0
M  V30 3221 H 301.752 -0.448902 -3.85898 0
M  V30 3222 H 303.424 -3.03065 -3.47778 0
M  V30 3223 H 301.667 -2.90194 -3.22444 0
M  V30 3224 H 302.338 -2.65517 -4.83947 0
M  V30 3225 H 304.814 -0.891016 -4.06448 0
M  V30 3226 H 303.69 -0.737712 -5.4392 0
M  V30 3227 H 303.951 0.635274 -4.37512 0
M  V30 3228 N 303.011 1.40521 -0.713556 0
M  V30 3229 C 304.259 2.00527 -0.251692 0
M  V30 3230 C 304.58 1.56857 1.15848 0
M  V30 3231 O 303.85 0.807127 1.785 0
M  V30 3232 H 302.43 0.741551 -0.0900646 0
M  V30 3233 H 305.092 1.71887 -0.918733 0
M  V30 3234 H 304.188 3.10813 -0.283192 0
M  V30 3235 N 304.489 0.459591 1.5075 0
M  V30 3236 C 305.736 -0.0993495 2.02256 0
M  V30 3237 C 306.064 -1.40751 1.34237 0
M  V30 3238 O 305.319 -1.90379 0.453228 0
M  V30 3239 C 305.618 -0.342866 3.55752 0
M  V30 3240 C 305.284 0.88218 4.42186 0
M  V30 3241 C 303.946 1.21808 4.65528 0
M  V30 3242 C 306.298 1.69837 4.92752 0
M  V30 3243 C 303.626 2.37045 5.36681 0
M  V30 3244 C 305.978 2.84192 5.65171 0
M  V30 3245 C 304.642 3.1821 5.8677 0
M  V30 3246 H 303.912 -0.0363545 0.740108 0
M  V30 3247 H 306.559 0.611329 1.8148 0
M  V30 3248 H 304.864 -1.13567 3.7498 0
M  V30 3249 H 306.561 -0.789121 3.93159 0
M  V30 3250 H 303.151 0.610467 4.2423 0
M  V30 3251 H 307.335 1.45205 4.74583 0
M  V30 3252 H 302.591 2.63689 5.51614 0
M  V30 3253 H 306.765 3.4779 6.03337 0
M  V30 3254 H 304.392 4.07613 6.41682 0
M  V30 3255 N 305.967 -1.56429 0.191757 0
M  V30 3256 C 307.383 -1.58754 -0.164137 0
M  V30 3257 C 307.583 -1.20782 -1.61288 0
M  V30 3258 O 306.639 -0.928999 -2.34789 0
M  V30 3259 C 307.952 -3.00396 0.135195 0
M  V30 3260 C 309.5 -3.1291 0.0750351 0
M  V30 3261 C 309.975 -4.56679 0.347632 0
M  V30 3262 N 311.466 -4.62252 0.296131 0
M  V30 3263 C 312.201 -5.71379 0.480948 0
M  V30 3264 N 311.697 -6.88986 0.725933 0
M  V30 3265 N 313.49 -5.60563 0.415435 0
M  V30 3266 H 305.641 -1.79393 1.13718 0
M  V30 3267 H 307.904 -0.832414 0.453643 0
M  V30 3268 H 307.61 -3.32726 1.13958 0
M  V30 3269 H 307.484 -3.72963 -0.563773 0
M  V30 3270 H 309.871 -2.80394 -0.919948 0
M  V30 3271 H 309.952 -2.42736 0.807029 0
M  V30 3272 H 309.596 -4.89907 1.33992 0
M  V30 3273 H 309.526 -5.25039 -0.405212 0
M  V30 3274 H 312.017 -3.7773 0.113259 0
M  V30 3275 H 312.33 -7.68046 0.855857 0
M  V30 3276 H 310.675 -6.90801 0.762788 0
M  V30 3277 H 313.866 -4.67561 0.224486 0
M  V30 3278 H 314.039 -6.45551 0.562889 0
M  V30 3279 N 307.445 0.0818655 -1.57387 0
M  V30 3280 C 308.375 1.09885 -2.06028 0
M  V30 3281 C 309.356 1.4098 -0.951774 0
M  V30 3282 O 310.541 1.50781 -1.22387 0
M  V30 3283 C 307.671 2.4151 -2.4958 0
M  V30 3284 C 306.625 2.24792 -3.64215 0
M  V30 3285 C 305.951 3.61712 -3.93787 0
M  V30 3286 C 307.251 1.67749 -4.94629 0
M  V30 3287 H 308.945 0.694128 -2.91243 0
M  V30 3288 H 306.491 0.332448 -1.4011 0
M  V30 3289 H 308.444 3.12939 -2.82219 0
M  V30 3290 H 307.168 2.83943 -1.61381 0
M  V30 3291 H 305.827 1.55807 -3.31843 0
M  V30 3292 H 305.475 4.01697 -3.02735 0
M  V30 3293 H 305.175 3.51368 -4.70971 0
M  V30 3294 H 306.699 4.34587 -4.28913 0
M  V30 3295 H 308.113 2.29032 -5.25564 0
M  V30 3296 H 306.51 1.68128 -5.76067 0
M  V30 3297 H 307.58 0.638059 -4.80684 0
M  V30 3298 N 308.923 1.53595 0.353017 0
M  V30 3299 C 310.163 1.72094 1.10286 0
M  V30 3300 C 310.527 0.469217 1.86178 0
M  V30 3301 O 311.728 0.531083 2.63501 0
M  V30 3302 C 309.999 2.94386 2.02661 0
M  V30 3303 S 311.558 3.33651 2.84996 0
M  V30 3304 H 308.376 0.605433 0.372789 0
M  V30 3305 H 310.978 1.91722 0.38248 0
M  V30 3306 H 309.682 3.83669 1.45691 0
M  V30 3307 H 309.213 2.77197 2.79152 0
M  V30 3308 H 311.228 2.86645 4.0503 0
M  V30 3309 N 310.401 -0.613514 1.45168 0
M  V30 3310 C 311.349 -1.74572 1.53712 0
M  V30 3311 C 312.343 -1.64426 0.407505 0
M  V30 3312 O 313.549 -1.70291 0.583176 0
M  V30 3313 H 309.924 -0.576641 0.48269 0
M  V30 3314 H 311.895 -1.64492 2.48968 0
M  V30 3315 C 310.644 -3.12943 1.51532 0
M  V30 3316 H 309.967 -3.21407 2.37776 0
M  V30 3317 H 311.407 -3.9201 1.61569 0
M  V30 3318 C 309.866 -3.36053 0.238798 0
M  V30 3319 O 310.396 -3.95837 -0.6838 0
M  V30 3320 N 308.602 -2.9028 0.136359 0
M  V30 3321 H 308.149 -2.41811 0.887999 0
M  V30 3322 H 308.107 -3.06116 -0.716944 0
M  V30 3323 N 311.879 -1.3236 -0.855495 0
M  V30 3324 C 313.104 -1.2601 -1.64731 0
M  V30 3325 C 313.529 0.169068 -1.87339 0
M  V30 3326 O 312.887 1.12016 -1.42556 0
M  V30 3327 C 312.935 -2.02417 -2.98429 0
M  V30 3328 O 312.039 -1.3714 -3.8893 0
M  V30 3329 H 311.38 -0.434325 -0.502253 0
M  V30 3330 H 313.91 -1.74661 -1.06558 0
M  V30 3331 H 313.92 -2.12559 -3.48257 0
M  V30 3332 H 312.595 -3.06343 -2.81295 0
M  V30 3333 H 311.172 -1.3554 -3.47395 0
M  V30 3334 N 313.357 1.07166 -1.15556 0
M  V30 3335 C 314.585 1.83514 -0.955519 0
M  V30 3336 C 315 1.82163 0.49621 0
M  V30 3337 O 314.357 1.23441 1.34419 0
M  V30 3338 C 314.408 3.30515 -1.46432 0
M  V30 3339 O 314.129 3.31937 -2.85918 0
M  V30 3340 C 315.63 4.23625 -1.30603 0
M  V30 3341 H 312.85 0.578926 -0.339244 0
M  V30 3342 H 315.394 1.35265 -1.53374 0
M  V30 3343 H 313.549 3.76106 -0.928584 0
M  V30 3344 H 313.963 4.23794 -3.09029 0
M  V30 3345 H 315.437 5.24831 -1.71047 0
M  V30 3346 H 315.914 4.38485 -0.250441 0
M  V30 3347 H 316.52 3.83871 -1.83094 0
M  V30 3348 N 314.835 0.952656 1.25548 0
M  V30 3349 C 316.083 0.605176 1.92826 0
M  V30 3350 C 316.404 -0.860261 1.74999 0
M  V30 3351 O 315.674 -1.6125 1.11244 0
M  V30 3352 H 314.254 0.220832 0.713612 0
M  V30 3353 H 316.916 1.21047 1.52754 0
M  V30 3354 H 316.012 0.832798 3.00784 0
M  V30 3355 N 316.313 -1.40141 0.720998 0
M  V30 3356 C 317.561 -2.0039 0.262323 0
M  V30 3357 C 317.882 -1.57469 -1.15015 0
M  V30 3358 O 317.152 -0.816582 -1.78069 0
M  V30 3359 H 315.732 -0.741063 0.093996 0
M  V30 3360 H 318.394 -1.71398 0.927835 0
M  V30 3361 H 317.49 -3.10658 0.299671 0
M  V30 3362 N 317.792 -0.46758 -1.50504 0
M  V30 3363 C 319.069 0.15003 -1.95024 0
M  V30 3364 C 319.449 1.57304 -1.40779 0
M  V30 3365 O 318.797 2.20281 -0.607319 0
M  V30 3366 C 319.007 0.0969324 -3.48865 0
M  V30 3367 C 320.355 0.287565 -4.23625 0
M  V30 3368 O 321.379 0.173678 -3.55776 0
M  V30 3369 O 320.238 0.517186 -5.44047 0
M  V30 3370 H 317.332 0.113582 -0.819163 0
M  V30 3371 H 319.878 -0.52773 -1.61286 0
M  V30 3372 H 318.65 -0.896732 -3.80886 0
M  V30 3373 H 318.273 0.816303 -3.8913 0
M  V30 3374 N 319.27 1.56325 -0.20005 0
M  V30 3375 C 320.51 1.99619 0.439519 0
M  V30 3376 C 320.874 1.08423 1.58456 0
M  V30 3377 O 322.075 1.40973 2.28867 0
M  V30 3378 C 320.346 3.46314 0.883258 0
M  V30 3379 S 321.905 4.11634 1.51997 0
M  V30 3380 H 318.723 0.697007 0.140363 0
M  V30 3381 H 321.325 1.93118 -0.304282 0
M  V30 3382 H 320.029 4.10381 0.0398967 0
M  V30 3383 H 319.56 3.56643 1.6604 0
M  V30 3384 H 321.575 4.09049 2.8088 0
M  V30 3385 N 320.748 -0.0735177 1.57428 0
M  V30 3386 C 321.995 -0.772999 1.87166 0
M  V30 3387 C 322.323 -1.77665 0.791551 0
M  V30 3388 O 321.578 -1.94541 -0.212636 0
M  V30 3389 C 321.877 -1.51799 3.23561 0
M  V30 3390 C 321.543 -0.654484 4.46125 0
M  V30 3391 C 320.205 -0.416511 4.79394 0
M  V30 3392 C 322.557 -0.0555862 5.2117 0
M  V30 3393 C 319.885 0.429869 5.85123 0
M  V30 3394 C 322.237 0.778239 6.27795 0
M  V30 3395 C 320.901 1.0261 6.59566 0
M  V30 3396 H 320.171 -0.282861 0.684888 0
M  V30 3397 H 322.818 -0.0338272 1.9147 0
M  V30 3398 H 321.123 -2.32932 3.1504 0
M  V30 3399 H 322.82 -2.06397 3.43804 0
M  V30 3400 H 319.41 -0.850091 4.20085 0
M  V30 3401 H 323.594 -0.226558 4.95783 0
M  V30 3402 H 318.85 0.630665 6.08139 0
M  V30 3403 H 323.024 1.24906 6.85107 0
M  V30 3404 H 320.651 1.68371 7.4132 0
M  V30 3405 N 322.226 -1.5378 -0.344866 0
M  V30 3406 C 323.456 -1.74646 -1.10374 0
M  V30 3407 C 323.864 -0.48491 -1.8288 0
M  V30 3408 O 323.207 0.553062 -1.75177 0
M  V30 3409 C 323.269 -2.87145 -2.16306 0
M  V30 3410 C 322.933 -4.26795 -1.63386 0
M  V30 3411 C 323.93 -5.08412 -1.08688 0
M  V30 3412 C 321.615 -4.73276 -1.68272 0
M  V30 3413 C 323.609 -6.34609 -0.595792 0
M  V30 3414 C 321.296 -5.99446 -1.18776 0
M  V30 3415 C 322.294 -6.79946 -0.645215 0
M  V30 3416 O 321.982 -8.03745 -0.157626 0
M  V30 3417 H 321.714 -0.587112 -0.335075 0
M  V30 3418 H 324.268 -2.01403 -0.403252 0
M  V30 3419 H 322.498 -2.55909 -2.89909 0
M  V30 3420 H 324.187 -2.95992 -2.77747 0
M  V30 3421 H 324.953 -4.73666 -1.04236 0
M  V30 3422 H 320.832 -4.10677 -2.09442 0
M  V30 3423 H 324.376 -6.97389 -0.171654 0
M  V30 3424 H 320.273 -6.33687 -1.22928 0
M  V30 3425 H 321.041 -8.18038 -0.275037 0
M  V30 3426 N 323.704 0.605807 -1.45491 0
M  V30 3427 C 325.12 0.926751 -1.29936 0
M  V30 3428 C 325.32 1.99896 -0.253706 0
M  V30 3429 O 324.376 2.50038 0.351737 0
M  V30 3430 C 325.689 1.36599 -2.67883 0
M  V30 3431 C 327.237 1.4801 -2.75793 0
M  V30 3432 C 327.712 1.95309 -4.14268 0
M  V30 3433 N 329.203 2.0254 -4.16571 0
M  V30 3434 C 329.938 2.40363 -5.20589 0
M  V30 3435 N 329.434 2.77143 -6.34952 0
M  V30 3436 N 331.227 2.40718 -5.07948 0
M  V30 3437 H 323.378 -0.102862 -2.12151 0
M  V30 3438 H 325.641 0.016639 -0.947854 0
M  V30 3439 H 325.347 0.652306 -3.45598 0
M  V30 3440 H 325.221 2.33215 -2.96463 0
M  V30 3441 H 327.608 2.1847 -1.98381 0
M  V30 3442 H 327.689 0.497041 -2.50925 0
M  V30 3443 H 327.333 1.25436 -4.92167 0
M  V30 3444 H 327.263 2.94532 -4.3653 0
M  V30 3445 H 329.754 1.76699 -3.34045 0
M  V30 3446 H 330.067 3.0489 -7.10114 0
M  V30 3447 H 328.412 2.74834 -6.3835 0
M  V30 3448 H 331.603 2.11392 -4.1765 0
M  V30 3449 H 331.776 2.69869 -5.89131 0
M  V30 3450 N 325.182 1.32811 0.848464 0
M  V30 3451 C 326.43 1.23479 1.59991 0
M  V30 3452 C 326.751 -0.201853 1.93952 0
M  V30 3453 O 326.021 -1.12818 1.60153 0
M  V30 3454 H 324.601 0.454034 0.593179 0
M  V30 3455 H 327.263 1.66412 1.01455 0
M  V30 3456 H 326.359 1.82178 2.53412 0
M  V30 3457 N 326.66 -1.06551 1.16123 0
M  V30 3458 C 327.89 -1.8274 0.963838 0
M  V30 3459 C 328.298 -1.82712 -0.491228 0
M  V30 3460 O 327.641 -1.24294 -1.35265 0
M  V30 3461 C 327.703 -3.3065 1.41106 0
M  V30 3462 C 327.367 -3.54384 2.88549 0
M  V30 3463 C 328.364 -3.4765 3.86569 0
M  V30 3464 C 326.049 -3.81789 3.26408 0
M  V30 3465 C 328.043 -3.67982 5.2045 0
M  V30 3466 C 325.73 -4.01772 4.60459 0
M  V30 3467 C 326.728 -3.94866 5.57288 0
M  V30 3468 O 326.416 -4.14306 6.88916 0
M  V30 3469 H 326.148 -0.583136 0.341948 0
M  V30 3470 H 328.702 -1.35351 1.54497 0
M  V30 3471 H 326.932 -3.78887 0.773394 0
M  V30 3472 H 328.621 -3.88324 1.1815 0
M  V30 3473 H 329.387 -3.2647 3.58667 0
M  V30 3474 H 325.266 -3.86276 2.51619 0
M  V30 3475 H 328.81 -3.62507 5.96015 0
M  V30 3476 H 324.707 -4.2244 4.88072 0
M  V30 3477 H 325.475 -4.31609 6.95454 0
M  V30 3478 N 328.138 -0.959301 -1.25041 0
M  V30 3479 C 329.366 -0.633949 -1.96948 0
M  V30 3480 C 329.781 0.794916 -1.7125 0
M  V30 3481 O 329.138 1.53231 -0.991287 0
M  V30 3482 C 329.189 -0.888805 -3.50403 0
M  V30 3483 O 328.91 -2.26149 -3.75218 0
M  V30 3484 C 330.411 -0.576482 -4.39536 0
M  V30 3485 H 327.631 -0.237263 -0.627652 0
M  V30 3486 H 330.175 -1.28495 -1.59089 0
M  V30 3487 H 328.33 -0.284145 -3.86357 0
M  V30 3488 H 328.744 -2.33514 -4.6965 0
M  V30 3489 H 330.218 -0.805314 -5.46094 0
M  V30 3490 H 330.695 0.489075 -4.36468 0
M  V30 3491 H 331.301 -1.16067 -4.09156 0
M  V30 3492 N 329.616 1.39756 -0.72842 0
M  V30 3493 C 330.841 2.05472 -0.282159 0
M  V30 3494 C 331.266 1.54549 1.07221 0
M  V30 3495 O 330.624 0.686372 1.67805 0
M  V30 3496 C 330.672 3.59462 -0.286264 0
M  V30 3497 O 329.776 4.05918 0.728298 0
M  V30 3498 H 329.117 0.651226 -0.129618 0
M  V30 3499 H 331.647 1.78915 -0.992499 0
M  V30 3500 H 331.657 4.07798 -0.128373 0
M  V30 3501 H 330.332 3.95889 -1.27456 0
M  V30 3502 H 328.909 3.69012 0.537081 0
M  V30 3503 N 331.094 0.475555 1.50254 0
M  V30 3504 C 332.342 -0.077738 2.0195 0
M  V30 3505 C 332.663 -1.39813 1.35931 0
M  V30 3506 O 331.933 -1.89249 0.506123 0
M  V30 3507 H 330.513 -0.031719 0.746326 0
M  V30 3508 H 333.175 0.626995 1.84539 0
M  V30 3509 H 332.271 -0.225995 3.11281 0
M  V30 3510 N 332.573 -1.56217 0.208337 0
M  V30 3511 C 333.819 -1.98242 -0.427552 0
M  V30 3512 C 334.152 -1.09554 -1.60348 0
M  V30 3513 O 333.427 -0.15035 -1.93918 0
M  V30 3514 C 333.71 -3.4931 -0.874907 0
M  V30 3515 C 333.563 -4.48773 0.303751 0
M  V30 3516 C 334.882 -4.04424 -1.73577 0
M  V30 3517 H 332.001 -0.720744 -0.153936 0
M  V30 3518 H 334.643 -1.87586 0.30192 0
M  V30 3519 H 332.793 -3.58522 -1.49648 0
M  V30 3520 H 334.465 -4.51586 0.941682 0
M  V30 3521 H 332.708 -4.23194 0.953375 0
M  V30 3522 H 333.379 -5.51976 -0.0519883 0
M  V30 3523 H 335.855 -3.98075 -1.21143 0
M  V30 3524 H 334.731 -5.1047 -2.01771 0
M  V30 3525 H 334.992 -3.50494 -2.69456 0
M  V30 3526 N 334.051 0.0651679 -1.57465 0
M  V30 3527 C 335.014 1.06117 -2.03155 0
M  V30 3528 C 336.014 1.31204 -0.929632 0
M  V30 3529 O 337.204 1.26813 -1.19432 0
M  V30 3530 C 334.336 2.4032 -2.41783 0
M  V30 3531 H 335.529 0.667231 -2.92383 0
M  V30 3532 H 333.082 0.311075 -1.53173 0
M  V30 3533 H 333.817 2.84532 -1.55601 0
M  V30 3534 H 333.602 2.23451 -3.22199 0
M  V30 3535 H 335.092 3.11898 -2.77685 0
M  V30 3536 N 335.529 1.53961 0.336706 0
M  V30 3537 C 336.492 1.81724 1.39675 0
M  V30 3538 C 337.492 0.688532 1.45313 0
M  V30 3539 O 338.682 0.956829 1.45569 0
M  V30 3540 C 335.814 1.96543 2.78538 0
M  V30 3541 H 337.007 2.76424 1.16318 0
M  V30 3542 H 334.56 1.45478 0.571474 0
M  V30 3543 H 335.295 1.0401 3.07168 0
M  V30 3544 H 335.08 2.78665 2.75841 0
M  V30 3545 H 336.57 2.19516 3.5525 0
M  V30 3546 N 337.007 -0.598083 1.45811 0
M  V30 3547 C 338.253 -1.35882 1.50545 0
M  V30 3548 C 338.586 -1.93616 0.150445 0
M  V30 3549 O 337.861 -1.75604 -0.83628 0
M  V30 3550 C 338.144 -2.49966 2.59208 0
M  V30 3551 C 337.997 -1.97367 4.04186 0
M  V30 3552 C 339.316 -3.52068 2.64076 0
M  V30 3553 H 336.435 -0.492717 0.548087 0
M  V30 3554 H 339.077 -0.673319 1.77669 0
M  V30 3555 H 337.227 -3.08443 2.3621 0
M  V30 3556 H 338.899 -1.43466 4.38423 0
M  V30 3557 H 337.142 -1.283 4.14393 0
M  V30 3558 H 337.813 -2.79649 4.75921 0
M  V30 3559 H 340.289 -3.03448 2.84708 0
M  V30 3560 H 339.165 -4.2937 3.41954 0
M  V30 3561 H 339.426 -4.08304 1.69531 0
M  V30 3562 N 338.485 -1.33259 -0.841409 0
M  V30 3563 C 339.417 -1.19136 -1.95804 0
M  V30 3564 C 340.43 -0.122965 -1.62335 0
M  V30 3565 O 341.619 -0.373154 -1.74556 0
M  V30 3566 C 338.719 -0.804268 -3.29218 0
M  V30 3567 C 337.892 -1.96376 -3.90839 0
M  V30 3568 C 336.951 -1.55806 -5.02604 0
M  V30 3569 O 335.977 -2.27203 -5.21888 0
M  V30 3570 N 337.179 -0.461609 -5.78662 0
M  V30 3571 H 339.944 -2.15326 -2.08458 0
M  V30 3572 H 337.505 -1.25971 -1.017 0
M  V30 3573 H 339.497 -0.51501 -4.0141 0
M  V30 3574 H 338.067 0.0668809 -3.12528 0
M  V30 3575 H 337.287 -2.41879 -3.11269 0
M  V30 3576 H 338.575 -2.73966 -4.28742 0
M  V30 3577 H 337.973 0.132343 -5.65545 0
M  V30 3578 H 336.53 -0.232013 -6.51387 0
M  V30 3579 N 339.963 1.05934 -1.16686 0
M  V30 3580 C 341.24 1.75643 -0.860747 0
M  V30 3581 C 341.62 2.01144 0.640641 0
M  V30 3582 O 340.968 1.64147 1.58959 0
M  V30 3583 C 341.178 3.05493 -1.68745 0
M  V30 3584 C 342.526 3.79581 -1.90271 0
M  V30 3585 O 343.55 3.15344 -1.65641 0
M  V30 3586 O 342.409 4.9499 -2.31618 0
M  V30 3587 H 339.503 0.763426 -0.317977 0
M  V30 3588 H 342.049 1.1217 -1.27342 0
M  V30 3589 H 340.821 2.8264 -2.70611 0
M  V30 3590 H 340.444 3.76702 -1.27206 0
M  V30 3591 N 341.441 0.965919 1.2453 0
M  V30 3592 C 342.687 0.637349 1.93156 0
M  V30 3593 C 343.042 -0.818261 1.74133 0
M  V30 3594 O 342.335 -1.58079 1.08266 0
M  V30 3595 C 342.529 0.945428 3.44669 0
M  V30 3596 C 342.358 2.42944 3.78429 0
M  V30 3597 C 341.128 3.08895 3.9989 0
M  V30 3598 C 343.326 3.40941 3.8505 0
M  V30 3599 N 341.308 4.47052 4.20735 0
M  V30 3600 C 342.679 4.64448 4.10717 0
M  V30 3601 C 344.734 3.35624 3.67779 0
M  V30 3602 C 343.437 5.83292 4.20907 0
M  V30 3603 C 345.463 4.53818 3.79214 0
M  V30 3604 C 344.825 5.76114 4.05304 0
M  V30 3605 H 340.924 0.284034 0.728594 0
M  V30 3606 H 343.508 1.24041 1.50073 0
M  V30 3607 H 341.679 0.371193 3.86622 0
M  V30 3608 H 343.411 0.575613 4.00586 0
M  V30 3609 H 340.166 2.59432 3.96222 0
M  V30 3610 H 340.59 5.18634 4.35141 0
M  V30 3611 H 345.232 2.4211 3.46616 0
M  V30 3612 H 342.95 6.77236 4.40883 0
M  V30 3613 H 346.536 4.51263 3.67224 0
M  V30 3614 H 345.416 6.66045 4.13949 0
M  V30 3615 N 342.919 -1.39368 0.735821 0
M  V30 3616 C 344.149 -2.04498 0.293967 0
M  V30 3617 C 344.557 -1.55593 -1.07645 0
M  V30 3618 O 343.9 -0.716324 -1.69158 0
M  V30 3619 C 343.962 -3.58836 0.218342 0
M  V30 3620 C 343.626 -4.30721 1.52736 0
M  V30 3621 C 344.623 -4.57305 2.47322 0
M  V30 3622 C 342.308 -4.69251 1.79189 0
M  V30 3623 C 344.302 -5.21429 3.66593 0
M  V30 3624 C 341.989 -5.33104 2.98737 0
M  V30 3625 C 342.987 -5.59125 3.9226 0
M  V30 3626 O 342.675 -6.21653 5.09708 0
M  V30 3627 H 342.407 -0.664118 0.126189 0
M  V30 3628 H 344.961 -1.79385 1.00051 0
M  V30 3629 H 343.191 -3.8285 -0.544314 0
M  V30 3630 H 344.88 -4.05447 -0.191626 0
M  V30 3631 H 345.646 -4.27983 2.28156 0
M  V30 3632 H 341.525 -4.48354 1.07239 0
M  V30 3633 H 345.069 -5.41656 4.39607 0
M  V30 3634 H 340.966 -5.61846 3.17803 0
M  V30 3635 H 341.734 -6.40146 5.10054 0
M  V30 3636 N 344.397 -0.483516 -1.5 0
M  V30 3637 C 345.347 0.32306 -2.257 0
M  V30 3638 C 346.331 0.950755 -1.29805 0
M  V30 3639 O 347.523 0.861247 -1.54634 0
M  V30 3640 C 344.652 1.39724 -3.13579 0
M  V30 3641 C 343.738 0.776663 -4.16928 0
M  V30 3642 N 344.129 -0.1104 -5.0568 0
M  V30 3643 C 342.427 1.03922 -4.33724 0
M  V30 3644 C 343.128 -0.46387 -5.79848 0
M  V30 3645 N 342.104 0.163987 -5.43353 0
M  V30 3646 H 345.906 -0.360086 -2.91686 0
M  V30 3647 H 343.42 -0.298456 -1.59634 0
M  V30 3648 H 345.417 1.98837 -3.66428 0
M  V30 3649 H 344.077 2.08225 -2.49143 0
M  V30 3650 H 345.088 -0.480069 -5.1567 0
M  V30 3651 H 341.765 1.71829 -3.80501 0
M  V30 3652 H 343.155 -1.18854 -6.61304 0
M  V30 3653 N 345.875 1.56104 -0.216619 0
M  V30 3654 C 347.122 1.98172 0.416416 0
M  V30 3655 C 347.45 1.10413 1.60122 0
M  V30 3656 O 346.705 0.147967 1.9514 0
M  V30 3657 C 347.004 3.45923 0.898464 0
M  V30 3658 C 346.67 4.50559 -0.175288 0
M  V30 3659 C 345.332 4.78897 -0.470271 0
M  V30 3660 C 347.684 5.1334 -0.901728 0
M  V30 3661 C 345.012 5.67299 -1.4963 0
M  V30 3662 C 347.364 6.02853 -1.91705 0
M  V30 3663 C 346.028 6.29537 -2.21901 0
M  V30 3664 H 345.298 0.725164 0.152377 0
M  V30 3665 H 347.945 1.88839 -0.318103 0
M  V30 3666 H 346.25 3.52434 1.71165 0
M  V30 3667 H 347.947 3.75841 1.39803 0
M  V30 3668 H 344.537 4.28551 0.0647806 0
M  V30 3669 H 348.721 4.91521 -0.687072 0
M  V30 3670 H 343.977 5.86239 -1.73592 0
M  V30 3671 H 348.151 6.50552 -2.48505 0
M  V30 3672 H 345.778 6.97835 -3.01548 0
M  V30 3673 N 347.353 -0.0568162 1.57498 0
M  V30 3674 C 348.303 -1.07315 2.01166 0
M  V30 3675 C 349.287 -1.33632 0.896171 0
M  V30 3676 O 350.479 -1.33682 1.16009 0
M  V30 3677 C 347.608 -2.38257 2.47161 0
M  V30 3678 C 346.694 -2.1515 3.65474 0
M  V30 3679 N 347.085 -1.62014 4.7915 0
M  V30 3680 C 345.383 -2.45559 3.72313 0
M  V30 3681 C 346.084 -1.54069 5.60926 0
M  V30 3682 N 345.06 -2.00652 5.05213 0
M  V30 3683 H 348.862 -0.655878 2.86488 0
M  V30 3684 H 346.376 -0.263635 1.60246 0
M  V30 3685 H 348.373 -3.11845 2.76691 0
M  V30 3686 H 347.033 -2.80687 1.63232 0
M  V30 3687 H 348.044 -1.30667 5.01145 0
M  V30 3688 H 344.721 -2.91253 2.99129 0
M  V30 3689 H 346.111 -1.13712 6.62208 0
M  V30 3690 N 348.832 -1.54138 -0.328536 0
M  V30 3691 C 350.062 -1.75807 -1.08516 0
M  V30 3692 C 350.47 -0.50428 -1.82356 0
M  V30 3693 O 349.813 0.534451 -1.75754 0
M  V30 3694 C 349.875 -2.89423 -2.13248 0
M  V30 3695 C 349.539 -4.28504 -1.5885 0
M  V30 3696 C 350.536 -5.09536 -1.03289 0
M  V30 3697 C 348.221 -4.75034 -1.63243 0
M  V30 3698 C 350.215 -6.35206 -0.52845 0
M  V30 3699 C 347.902 -6.00672 -1.12411 0
M  V30 3700 C 348.9 -6.80592 -0.573062 0
M  V30 3701 O 348.588 -8.03867 -0.0723692 0
M  V30 3702 H 348.32 -0.590633 -0.328829 0
M  V30 3703 H 350.874 -2.01819 -0.381868 0
M  V30 3704 H 349.104 -2.5897 -2.87178 0
M  V30 3705 H 350.793 -2.98921 -2.74592 0
M  V30 3706 H 351.559 -4.74745 -0.99206 0
M  V30 3707 H 347.438 -4.12875 -2.05074 0
M  V30 3708 H 350.982 -6.97532 -0.0976774 0
M  V30 3709 H 346.879 -6.34955 -1.162 0
M  V30 3710 H 347.647 -8.18283 -0.188258 0
M  V30 3711 N 350.31 0.590341 -1.46126 0
M  V30 3712 C 351.556 1.35082 -1.51264 0
M  V30 3713 C 351.889 1.93534 -0.160711 0
M  V30 3714 O 351.164 1.76045 0.826956 0
M  V30 3715 C 351.447 2.48588 -2.6053 0
M  V30 3716 C 351.3 1.95221 -4.05227 0
M  V30 3717 C 352.619 3.50662 -2.6594 0
M  V30 3718 H 349.738 0.489803 -0.550692 0
M  V30 3719 H 352.38 0.663887 -1.78024 0
M  V30 3720 H 350.53 3.07186 -2.37843 0
M  V30 3721 H 352.202 1.41139 -4.39178 0
M  V30 3722 H 350.445 1.26101 -4.15068 0
M  V30 3723 H 351.116 2.77121 -4.77397 0
M  V30 3724 H 353.592 3.01934 -2.86313 0
M  V30 3725 H 352.468 4.27551 -3.44226 0
M  V30 3726 H 352.729 4.07399 -1.71694 0
M  V30 3727 N 351.788 1.33704 0.83433 0
M  V30 3728 C 353.065 1.16011 1.57483 0
M  V30 3729 C 353.445 -0.27176 2.09343 0
M  V30 3730 O 352.793 -1.27146 1.89858 0
M  V30 3731 C 353.003 2.20507 2.70514 0
M  V30 3732 C 354.351 2.54898 3.39577 0
M  V30 3733 O 355.375 2.19209 2.80759 0
M  V30 3734 O 354.234 3.16158 4.45765 0
M  V30 3735 H 351.328 0.448992 0.694503 0
M  V30 3736 H 353.874 1.453 0.876691 0
M  V30 3737 H 352.646 3.16667 2.29865 0
M  V30 3738 H 352.269 1.92329 3.47987 0
M  V30 3739 N 353.266 -1.05314 1.17247 0
M  V30 3740 C 354.515 -1.77685 0.954521 0
M  V30 3741 C 354.828 -1.88616 -0.518025 0
M  V30 3742 O 356.034 -2.57714 -0.854144 0
M  V30 3743 C 354.49 -3.19402 1.65863 0
M  V30 3744 C 354.098 -3.16605 3.16963 0
M  V30 3745 C 355.842 -3.96237 1.52303 0
M  V30 3746 C 353.749 -4.53103 3.80068 0
M  V30 3747 H 352.679 -0.666 0.353496 0
M  V30 3748 H 355.33 -1.1805 1.40486 0
M  V30 3749 H 353.712 -3.79355 1.13602 0
M  V30 3750 H 354.886 -2.66176 3.76148 0
M  V30 3751 H 353.201 -2.53268 3.30521 0
M  V30 3752 H 355.798 -4.97157 1.96822 0
M  V30 3753 H 356.141 -4.136 0.473401 0
M  V30 3754 H 356.674 -3.42829 2.01775 0
M  V30 3755 H 353.413 -4.40946 4.85023 0
M  V30 3756 H 352.933 -5.03686 3.2567 0
M  V30 3757 H 354.612 -5.22045 3.82202 0
M  V30 3758 N 354.744 -0.972509 -1.24016 0
M  V30 3759 C 355.674 -0.525548 -2.27509 0
M  V30 3760 C 356.655 0.437262 -1.64384 0
M  V30 3761 O 357.84 0.332343 -1.91335 0
M  V30 3762 C 354.97 0.180448 -3.46831 0
M  V30 3763 C 353.924 -0.698859 -4.22256 0
M  V30 3764 C 353.25 0.138903 -5.3452 0
M  V30 3765 C 354.55 -1.98582 -4.83076 0
M  V30 3766 H 356.244 -1.39058 -2.65148 0
M  V30 3767 H 353.79 -0.67009 -1.27459 0
M  V30 3768 H 355.743 0.504387 -4.18371 0
M  V30 3769 H 354.467 1.07987 -3.08231 0
M  V30 3770 H 353.126 -1.00614 -3.52523 0
M  V30 3771 H 352.774 1.03862 -4.9216 0
M  V30 3772 H 352.474 -0.446259 -5.85903 0
M  V30 3773 H 353.998 0.457404 -6.08884 0
M  V30 3774 H 355.412 -1.72715 -5.46665 0
M  V30 3775 H 353.809 -2.5181 -5.44713 0
M  V30 3776 H 354.879 -2.67769 -4.04262 0
M  V30 3777 N 356.222 1.38976 -0.743202 0
M  V30 3778 C 357.185 2.28901 -0.117014 0
M  V30 3779 C 358.185 1.46698 0.658503 0
M  V30 3780 O 359.375 1.67274 0.486305 0
M  V30 3781 C 356.507 3.30309 0.84315 0
M  V30 3782 H 357.7 2.8578 -0.909373 0
M  V30 3783 H 355.253 1.47761 -0.509547 0
M  V30 3784 H 355.988 2.785 1.66157 0
M  V30 3785 H 355.773 3.91029 0.289594 0
M  V30 3786 H 357.263 3.97577 1.2776 0
M  V30 3787 N 357.7 0.491464 1.49741 0
M  V30 3788 C 358.63 -0.28154 2.31796 0
M  V30 3789 C 359.611 -0.971473 1.3963 0
M  V30 3790 O 360.796 -0.964719 1.68543 0
M  V30 3791 C 357.926 -1.35203 3.19902 0
M  V30 3792 C 356.88 -0.782529 4.20786 0
M  V30 3793 C 356.206 -1.95283 4.97764 0
M  V30 3794 C 357.506 0.21999 5.21837 0
M  V30 3795 H 359.2 0.403355 2.96671 0
M  V30 3796 H 356.746 0.195425 1.42668 0
M  V30 3797 H 358.699 -1.90045 3.76113 0
M  V30 3798 H 357.423 -2.06598 2.52953 0
M  V30 3799 H 356.082 -0.255928 3.65706 0
M  V30 3800 H 355.73 -2.65423 4.2727 0
M  V30 3801 H 355.43 -1.57789 5.66018 0
M  V30 3802 H 356.954 -2.50577 5.56816 0
M  V30 3803 H 358.368 -0.23996 5.72798 0
M  V30 3804 H 356.765 0.51026 5.97927 0
M  V30 3805 H 357.835 1.13911 4.7133 0
M  V30 3806 N 359.178 -1.55987 0.224894 0
M  V30 3807 C 360.108 -2.23426 -0.678457 0
M  V30 3808 C 361.089 -1.20709 -1.19847 0
M  V30 3809 O 362.274 -1.49304 -1.24186 0
M  V30 3810 C 359.404 -2.91676 -1.88527 0
M  V30 3811 C 358.358 -4.00893 -1.49896 0
M  V30 3812 C 357.684 -4.56455 -2.78483 0
M  V30 3813 C 358.984 -5.17769 -0.686461 0
M  V30 3814 H 360.678 -2.99175 -0.116173 0
M  V30 3815 H 358.224 -1.43897 -0.054436 0
M  V30 3816 H 360.177 -3.37547 -2.5227 0
M  V30 3817 H 358.901 -2.1338 -2.47258 0
M  V30 3818 H 357.56 -3.55758 -0.884985 0
M  V30 3819 H 357.208 -3.74886 -3.35365 0
M  V30 3820 H 356.908 -5.30169 -2.53368 0
M  V30 3821 H 358.432 -5.05047 -3.43162 0
M  V30 3822 H 359.846 -5.60001 -1.22767 0
M  V30 3823 H 358.243 -5.97735 -0.532259 0
M  V30 3824 H 359.313 -4.83932 0.306196 0
M  V30 3825 N 360.656 0.0484629 -1.57525 0
M  V30 3826 C 362.067 0.597486 -1.76881 0
M  V30 3827 C 362.418 1.76664 -0.853475 0
M  V30 3828 O 361.543 2.16357 -0.0433656 0
M  V30 3829 C 362.138 1.09066 -3.20765 0
M  V30 3830 C 360.697 1.58535 -3.41385 0
M  V30 3831 C 359.844 0.514868 -2.72478 0
M  V30 3832 H 362.795 -0.177758 -1.57701 0
M  V30 3833 H 362.816 1.95875 -3.2621 0
M  V30 3834 H 362.328 0.239521 -3.8736 0
M  V30 3835 H 360.429 2.45898 -2.79937 0
M  V30 3836 H 360.542 1.64622 -4.49929 0
M  V30 3837 H 358.906 0.965407 -2.35695 0
M  V30 3838 H 359.689 -0.32648 -3.41744 0
M  V30 3839 N 362.134 1.5431 0.320358 0
M  V30 3840 C 363.097 1.83195 1.3774 0
M  V30 3841 C 364.097 0.703906 1.44575 0
M  V30 3842 O 365.287 0.972214 1.44546 0
M  V30 3843 C 362.419 1.99487 2.76438 0
M  V30 3844 H 363.612 2.77642 1.1338 0
M  V30 3845 H 361.165 1.46076 0.556012 0
M  V30 3846 H 361.9 1.07262 3.06048 0
M  V30 3847 H 361.685 2.81575 2.7287 0
M  V30 3848 H 363.175 2.23271 3.52902 0
M  V30 3849 N 363.613 -0.582584 1.46437 0
M  V30 3850 C 364.576 -1.67366 1.56592 0
M  V30 3851 C 365.576 -1.54575 0.443072 0
M  V30 3852 O 366.766 -1.59191 0.707381 0
M  V30 3853 C 363.898 -3.06791 1.48634 0
M  V30 3854 H 365.091 -1.5972 2.5383 0
M  V30 3855 H 362.644 -0.800432 1.34249 0
M  V30 3856 H 363.379 -3.19993 0.526763 0
M  V30 3857 H 363.164 -3.17484 2.30101 0
M  V30 3858 H 364.654 -3.86218 1.58826 0
M  V30 3859 N 365.091 -1.34144 -0.827227 0
M  V30 3860 C 366.337 -1.27455 -1.58515 0
M  V30 3861 C 366.692 0.155271 -1.91772 0
M  V30 3862 O 365.985 1.10042 -1.56848 0
M  V30 3863 C 366.179 -2.09464 -2.89585 0
M  V30 3864 C 366.008 -3.60276 -2.69131 0
M  V30 3865 C 364.778 -4.29565 -2.66087 0
M  V30 3866 C 366.976 -4.54367 -2.40947 0
M  V30 3867 N 364.958 -5.66252 -2.37132 0
M  V30 3868 C 366.329 -5.79027 -2.21648 0
M  V30 3869 C 368.384 -4.43327 -2.26639 0
M  V30 3870 C 367.087 -6.93891 -1.89492 0
M  V30 3871 C 369.113 -5.58019 -1.95878 0
M  V30 3872 C 368.475 -6.81695 -1.774 0
M  V30 3873 H 364.574 -0.521614 -0.582617 0
M  V30 3874 H 367.158 -1.68811 -0.970105 0
M  V30 3875 H 365.329 -1.70411 -3.49019 0
M  V30 3876 H 367.061 -1.94453 -3.54923 0
M  V30 3877 H 363.816 -3.81959 -2.80008 0
M  V30 3878 H 364.24 -6.38338 -2.25507 0
M  V30 3879 H 368.882 -3.48333 -2.39633 0
M  V30 3880 H 366.6 -7.88871 -1.75236 0
M  V30 3881 H 370.186 -5.5142 -1.85546 0
M  V30 3882 H 369.066 -7.68942 -1.53941 0
M  V30 3883 N 366.569 1.04691 -1.17803 0
M  V30 3884 C 367.479 2.16057 -0.914151 0
M  V30 3885 C 368.495 1.73589 0.119503 0
M  V30 3886 O 369.671 2.01308 -0.0609468 0
M  V30 3887 C 366.736 3.4394 -0.436603 0
M  V30 3888 C 365.797 4.00825 -1.53746 0
M  V30 3889 C 365.03 5.22604 -1.0826 0
M  V30 3890 O 365.253 5.70367 0.0612244 0
M  V30 3891 O 364.187 5.7186 -1.87775 0
M  V30 3892 H 368.013 2.41169 -1.84584 0
M  V30 3893 H 365.598 1.1453 -0.959334 0
M  V30 3894 H 367.48 4.21024 -0.178057 0
M  V30 3895 H 366.155 3.20316 0.466869 0
M  V30 3896 H 365.062 3.25158 -1.84995 0
M  V30 3897 H 366.395 4.28778 -2.41683 0
M  V30 3898 N 368.047 0.979072 1.23499 0
M  V30 3899 C 369.324 0.563674 1.87302 0
M  V30 3900 C 369.704 -0.959199 1.88049 0
M  V30 3901 O 369.052 -1.83535 1.36114 0
M  V30 3902 C 369.262 1.16822 3.28867 0
M  V30 3903 C 370.61 1.26014 4.0547 0
M  V30 3904 O 371.634 1.12158 3.38082 0
M  V30 3905 O 370.493 1.48044 5.26066 0
M  V30 3906 H 367.587 0.189602 0.804972 0
M  V30 3907 H 370.133 1.07407 1.31384 0
M  V30 3908 H 368.905 2.21049 3.22883 0
M  V30 3909 H 368.528 0.642564 3.92373 0
M  V30 3910 N 369.525 -1.3858 0.750561 0
M  V30 3911 C 370.75 -2.04997 0.314812 0
M  V30 3912 C 371.175 -1.56235 -1.04749 0
M  V30 3913 O 370.533 -0.712981 -1.66692 0
M  V30 3914 C 370.581 -3.58961 0.343415 0
M  V30 3915 O 369.685 -4.07025 -0.663628 0
M  V30 3916 H 369.026 -0.649081 0.139962 0
M  V30 3917 H 371.556 -1.77313 1.02084 0
M  V30 3918 H 371.566 -4.07542 0.193233 0
M  V30 3919 H 370.241 -3.93811 1.33738 0
M  V30 3920 H 368.818 -3.6982 -0.478307 0
M  V30 3921 N 371.003 -0.499398 -1.49478 0
M  V30 3922 C 371.953 0.299103 -2.2603 0
M  V30 3923 C 372.937 0.936934 -1.30807 0
M  V30 3924 O 374.129 0.844798 -1.55538 0
M  V30 3925 C 371.258 1.36391 -3.15044 0
M  V30 3926 C 370.344 0.732398 -4.17728 0
M  V30 3927 N 370.735 -0.164028 -5.05534 0
M  V30 3928 C 369.033 0.993162 -4.34801 0
M  V30 3929 C 369.734 -0.525345 -5.79323 0
M  V30 3930 N 368.71 0.106348 -5.43496 0
M  V30 3931 H 372.512 -0.391003 -2.91287 0
M  V30 3932 H 370.026 -0.31537 -1.59308 0
M  V30 3933 H 372.023 1.94939 -3.68516 0
M  V30 3934 H 370.683 2.05571 -2.51338 0
M  V30 3935 H 371.694 -0.534736 -5.15132 0
M  V30 3936 H 368.371 1.67783 -3.82302 0
M  V30 3937 H 369.761 -1.25862 -6.60006 0
M  V30 3938 N 372.481 1.55866 -0.233164 0
M  V30 3939 C 373.729 1.9821 0.394593 0
M  V30 3940 C 374.05 1.12234 1.59463 0
M  V30 3941 O 373.32 0.201981 1.94856 0
M  V30 3942 H 371.9 0.732034 0.148778 0
M  V30 3943 H 374.562 1.92107 -0.32876 0
M  V30 3944 H 373.658 3.03845 0.713063 0
M  V30 3945 N 373.959 -0.0401083 1.57549 0
M  V30 3946 C 375.184 -0.748931 1.93406 0
M  V30 3947 C 375.609 -1.68686 0.832274 0
M  V30 3948 O 374.967 -1.80047 -0.212818 0
M  V30 3949 C 375.015 -1.4916 3.28304 0
M  V30 3950 O 374.119 -2.6042 3.19774 0
M  V30 3951 H 373.46 -0.202212 0.63246 0
M  V30 3952 H 375.99 0.00112086 2.046 0
M  V30 3953 H 376 -1.86395 3.62934 0
M  V30 3954 H 374.675 -0.80364 4.08062 0
M  V30 3955 H 373.252 -2.25808 2.96758 0
M  V30 3956 N 375.437 -1.54477 -0.31217 0
M  V30 3957 C 376.369 -1.81011 -1.40598 0
M  V30 3958 C 377.382 -0.692546 -1.47335 0
M  V30 3959 O 378.571 -0.969847 -1.49854 0
M  V30 3960 C 375.671 -1.92307 -2.79054 0
M  V30 3961 C 374.844 -3.22594 -2.95384 0
M  V30 3962 C 373.903 -3.24448 -4.1427 0
M  V30 3963 O 372.929 -3.98035 -4.06887 0
M  V30 3964 N 374.131 -2.49042 -5.24365 0
M  V30 3965 H 376.896 -2.75408 -1.18196 0
M  V30 3966 H 374.457 -1.53914 -0.502202 0
M  V30 3967 H 376.449 -1.90962 -3.56813 0
M  V30 3968 H 375.019 -1.04955 -2.94454 0
M  V30 3969 H 374.239 -3.36806 -2.04831 0
M  V30 3970 H 375.527 -4.08593 -3.03198 0
M  V30 3971 H 374.925 -1.88867 -5.33241 0
M  V30 3972 H 373.482 -2.53463 -6.005 0
M  V30 3973 N 376.915 0.57481 -1.46744 0
M  V30 3974 C 378.192 1.3352 -1.4294 0
M  V30 3975 C 378.572 2.10775 -0.117009 0
M  V30 3976 O 377.92 2.09966 0.901474 0
M  V30 3977 C 378.13 2.25456 -2.66403 0
M  V30 3978 C 379.478 2.87035 -3.12883 0
M  V30 3979 O 380.502 2.35766 -2.67007 0
M  V30 3980 O 379.361 3.80179 -3.92589 0
M  V30 3981 H 376.455 0.600318 -0.568812 0
M  V30 3982 H 379.001 0.595171 -1.58921 0
M  V30 3983 H 377.773 1.67851 -3.53471 0
M  V30 3984 H 377.396 3.06785 -2.52921 0
M  V30 3985 N 378.394 1.34581 0.820102 0
M  V30 3986 C 379.642 1.26845 1.57336 0
M  V30 3987 C 379.963 -0.160667 1.94337 0
M  V30 3988 O 379.233 -1.09396 1.6251 0
M  V30 3989 H 377.813 0.466514 0.583415 0
M  V30 3990 H 380.475 1.68526 0.979027 0
M  V30 3991 H 379.571 1.87513 2.4949 0
M  V30 3992 N 379.872 -1.04064 1.18357 0
M  V30 3993 C 380.822 -2.10393 0.878561 0
M  V30 3994 C 381.806 -1.60183 -0.151713 0
M  V30 3995 O 382.998 -1.76923 0.0523303 0
M  V30 3996 C 380.127 -3.4089 0.406096 0
M  V30 3997 C 379.213 -3.97866 1.46844 0
M  V30 3998 N 379.604 -4.28657 2.68489 0
M  V30 3999 C 377.902 -4.2574 1.32896 0
M  V30 4000 C 378.603 -4.74253 3.36836 0
M  V30 4001 N 377.579 -4.75068 2.64219 0
M  V30 4002 H 381.381 -2.32076 1.80327 0
M  V30 4003 H 378.895 -1.21818 1.07397 0
M  V30 4004 H 380.892 -4.16557 0.169088 0
M  V30 4005 H 379.552 -3.20633 -0.512275 0
M  V30 4006 H 380.563 -4.18304 3.05356 0
M  V30 4007 H 377.24 -4.1481 0.473134 0
M  V30 4008 H 378.63 -5.07096 4.40798 0
M  V30 4009 N 381.35 -0.985608 -1.22978 0
M  V30 4010 C 382.597 -0.657386 -1.91532 0
M  V30 4011 C 382.925 0.809707 -1.76845 0
M  V30 4012 O 382.18 1.60021 -1.12658 0
M  V30 4013 C 382.479 -1.00014 -3.43121 0
M  V30 4014 C 382.145 -2.4583 -3.77993 0
M  V30 4015 C 380.807 -2.85679 -3.87222 0
M  V30 4016 C 383.159 -3.40378 -3.94705 0
M  V30 4017 C 380.487 -4.19081 -4.10595 0
M  V30 4018 C 382.839 -4.73429 -4.1958 0
M  V30 4019 C 381.503 -5.1303 -4.27032 0
M  V30 4020 H 380.773 -0.240555 -0.700867 0
M  V30 4021 H 383.42 -1.24044 -1.45895 0
M  V30 4022 H 381.725 -0.335072 -3.90365 0
M  V30 4023 H 383.422 -0.724322 -3.94404 0
M  V30 4024 H 380.012 -2.13939 -3.71387 0
M  V30 4025 H 384.196 -3.10766 -3.8696 0
M  V30 4026 H 379.452 -4.49362 -4.14589 0
M  V30 4027 H 383.626 -5.46644 -4.31455 0
M  V30 4028 H 381.253 -6.16418 -4.44896 0
M  V30 4029 N 382.828 1.3818 -0.7579 0
M  V30 4030 C 384.074 2.00316 -0.316453 0
M  V30 4031 C 384.407 1.60026 1.10025 0
M  V30 4032 O 383.682 0.839835 1.75434 0
M  V30 4033 C 383.965 3.57349 -0.444245 0
M  V30 4034 C 383.818 4.07591 -1.90236 0
M  V30 4035 C 385.137 4.3981 0.1598 0
M  V30 4036 H 382.256 0.727741 -0.116459 0
M  V30 4037 H 384.898 1.6406 -0.958352 0
M  V30 4038 H 383.048 3.88365 0.102233 0
M  V30 4039 H 384.72 3.87199 -2.50748 0
M  V30 4040 H 382.963 3.60297 -2.41595 0
M  V30 4041 H 383.634 5.16677 -1.94291 0
M  V30 4042 H 386.11 4.14971 -0.306314 0
M  V30 4043 H 384.986 5.48885 0.0401675 0
M  V30 4044 H 385.247 4.24102 1.24859 0
M  V30 4045 N 384.306 0.507319 1.49211 0
M  V30 4046 C 385.236 -0.256939 2.32082 0
M  V30 4047 C 386.217 -0.956609 1.40652 0
M  V30 4048 O 387.402 -0.946788 1.69557 0
M  V30 4049 C 384.532 -1.31802 3.21318 0
M  V30 4050 C 383.486 -0.737855 4.21592 0
M  V30 4051 C 382.812 -1.89992 4.99807 0
M  V30 4052 C 384.112 0.275325 5.21574 0
M  V30 4053 H 385.806 0.434798 2.96226 0
M  V30 4054 H 383.352 0.210546 1.42452 0
M  V30 4055 H 385.305 -1.86045 3.78107 0
M  V30 4056 H 384.029 -2.03903 2.5513 0
M  V30 4057 H 382.688 -0.217126 3.65956 0
M  V30 4058 H 382.336 -2.60877 4.30061 0
M  V30 4059 H 382.036 -1.51777 5.6766 0
M  V30 4060 H 383.56 -2.44657 5.59442 0
M  V30 4061 H 384.974 -0.179193 5.7302 0
M  V30 4062 H 383.371 0.573649 5.97352 0
M  V30 4063 H 384.441 1.18903 4.70096 0
M  V30 4064 N 385.784 -1.5574 0.241426 0
M  V30 4065 C 387.009 -2.0366 -0.392111 0
M  V30 4066 C 387.434 -1.11969 -1.51144 0
M  V30 4067 O 386.792 -0.111594 -1.80956 0
M  V30 4068 C 386.84 -3.49638 -0.882371 0
M  V30 4069 O 385.944 -3.6108 -1.99235 0
M  V30 4070 H 385.285 -0.658379 -0.0862122 0
M  V30 4071 H 387.815 -2.01302 0.365881 0
M  V30 4072 H 387.825 -3.90351 -1.18702 0
M  V30 4073 H 386.5 -4.15852 -0.0632361 0
M  V30 4074 H 385.077 -3.32262 -1.69282 0
M  V30 4075 N 387.262 0.0317525 -1.57568 0
M  V30 4076 C 388.502 0.727979 -1.90997 0
M  V30 4077 C 388.866 1.72664 -0.839708 0
M  V30 4078 O 390.067 2.47092 -1.05825 0
M  V30 4079 C 388.338 1.38239 -3.29583 0
M  V30 4080 S 389.897 2.10814 -3.84841 0
M  V30 4081 H 386.715 0.241226 -0.668828 0
M  V30 4082 H 389.317 -0.0173037 -1.95492 0
M  V30 4083 H 388.021 0.642288 -4.05343 0
M  V30 4084 H 387.552 2.16628 -3.28384 0
M  V30 4085 H 389.567 3.3792 -3.63352 0
M  V30 4086 N 388.74 1.54641 0.303973 0
M  V30 4087 C 389.965 1.78092 1.06292 0
M  V30 4088 C 390.39 0.537342 1.80262 0
M  V30 4089 O 389.748 -0.511993 1.7392 0
M  V30 4090 C 389.796 2.98612 2.02147 0
M  V30 4091 O 388.9 2.71528 3.10397 0
M  V30 4092 H 388.241 0.589548 0.305497 0
M  V30 4093 H 390.771 2.01716 0.3423 0
M  V30 4094 H 390.781 3.265 2.44667 0
M  V30 4095 H 389.456 3.88785 1.47714 0
M  V30 4096 H 388.033 2.54648 2.72413 0
M  V30 4097 N 390.218 -0.567019 1.47046 0
M  V30 4098 C 391.448 -1.34831 1.56538 0
M  V30 4099 C 391.856 -1.8802 0.21101 0
M  V30 4100 O 391.199 -1.65152 -0.804387 0
M  V30 4101 C 391.261 -2.56139 2.52256 0
M  V30 4102 C 390.925 -2.24307 3.98165 0
M  V30 4103 C 391.922 -1.82192 4.86931 0
M  V30 4104 C 389.607 -2.35968 4.43423 0
M  V30 4105 C 391.601 -1.52153 6.18973 0
M  V30 4106 C 389.288 -2.05542 5.75496 0
M  V30 4107 C 390.286 -1.63701 6.63092 0
M  V30 4108 O 389.974 -1.33657 7.92711 0
M  V30 4109 H 389.706 -0.417683 0.531523 0
M  V30 4110 H 392.26 -0.694726 1.93294 0
M  V30 4111 H 390.49 -3.24356 2.10548 0
M  V30 4112 H 392.179 -3.18214 2.51982 0
M  V30 4113 H 392.945 -1.72684 4.53217 0
M  V30 4114 H 388.824 -2.67495 3.75456 0
M  V30 4115 H 392.368 -1.19421 6.87302 0
M  V30 4116 H 388.265 -2.14679 6.08755 0
M  V30 4117 H 389.033 -1.4737 8.05124 0
M  V30 4118 N 391.696 -1.35014 -0.812953 0
M  V30 4119 C 392.973 -1.18502 -1.55617 0
M  V30 4120 C 393.353 0.238421 -2.09749 0
M  V30 4121 O 392.701 1.2411 -1.91857 0
M  V30 4122 C 392.911 -2.24783 -2.66971 0
M  V30 4123 C 394.259 -2.60268 -3.35478 0
M  V30 4124 O 395.283 -2.23648 -2.77236 0
M  V30 4125 O 394.142 -3.2321 -4.40678 0
M  V30 4126 H 391.236 -0.459984 -0.687272 0
M  V30 4127 H 393.782 -1.46677 -0.853464 0
M  V30 4128 H 392.554 -3.20284 -2.24798 0
M  V30 4129 H 392.177 -1.97841 -3.44884 0
M  V30 4130 N 393.175 1.03435 -1.18907 0
M  V30 4131 C 394.423 1.76394 -0.986382 0
M  V30 4132 C 394.744 1.88883 0.484567 0
M  V30 4133 O 394.014 1.41843 1.3512 0
M  V30 4134 H 392.594 0.65344 -0.361975 0
M  V30 4135 H 395.256 1.248 -1.49703 0
M  V30 4136 H 394.352 2.77424 -1.42978 0
M  V30 4137 N 394.653 0.992116 1.22453 0
M  V30 4138 C 395.583 0.561677 2.26644 0
M  V30 4139 C 396.564 -0.411055 1.65059 0
M  V30 4140 O 397.749 -0.301861 1.9184 0
M  V30 4141 C 394.879 -0.125247 3.47074 0
M  V30 4142 C 393.833 0.765948 4.21091 0
M  V30 4143 C 393.159 -0.0538484 5.34673 0
M  V30 4144 C 394.459 2.06242 4.79856 0
M  V30 4145 H 396.153 1.43259 2.62902 0
M  V30 4146 H 393.699 0.690283 1.26377 0
M  V30 4147 H 395.652 -0.437764 4.1912 0
M  V30 4148 H 394.376 -1.03069 3.0991 0
M  V30 4149 H 393.035 1.0621 3.50878 0
M  V30 4150 H 392.683 -0.960188 4.9375 0
M  V30 4151 H 392.383 0.539415 5.85119 0
M  V30 4152 H 393.907 -0.360477 6.09535 0
M  V30 4153 H 395.321 1.8139 5.43848 0
M  V30 4154 H 393.718 2.60444 5.40638 0
M  V30 4155 H 394.788 2.74167 3.99951 0
M  V30 4156 N 396.131 -1.37776 0.765217 0
M  V30 4157 C 397.408 -1.93975 0.251596 0
M  V30 4158 C 397.788 -1.69949 -1.25222 0
M  V30 4159 O 397.136 -1.04457 -2.03226 0
M  V30 4160 C 397.346 -3.43487 0.617895 0
M  V30 4161 C 398.694 -4.20564 0.584029 0
M  V30 4162 O 399.718 -3.5182 0.556888 0
M  V30 4163 O 398.577 -5.43138 0.605291 0
M  V30 4164 H 395.671 -0.82509 0.0561806 0
M  V30 4165 H 398.217 -1.47101 0.846128 0
M  V30 4166 H 396.989 -3.5453 1.65602 0
M  V30 4167 H 396.612 -3.976 -0.00403411 0
M  V30 4168 N 397.609 -0.515225 -1.4894 0
M  V30 4169 C 398.849 0.0223983 -2.04388 0
M  V30 4170 C 399.213 1.32961 -1.38511 0
M  V30 4171 O 400.414 1.95236 -1.8476 0
M  V30 4172 C 398.685 0.157056 -3.57055 0
M  V30 4173 S 400.244 0.646875 -4.34006 0
M  V30 4174 H 397.062 -0.00500662 -0.710982 0
M  V30 4175 H 399.664 -0.69243 -1.82827 0
M  V30 4176 H 398.368 -0.799412 -4.02539 0
M  V30 4177 H 397.899 0.896704 -3.83044 0
M  V30 4178 H 399.914 1.91381 -4.57808 0
M  V30 4179 N 399.087 1.5561 -0.249682 0
M  V30 4180 C 400.019 2.18834 0.681496 0
M  V30 4181 C 401.032 1.16546 1.1367 0
M  V30 4182 O 402.221 1.43397 1.06299 0
M  V30 4183 C 399.321 2.77992 1.9384 0
M  V30 4184 C 398.494 4.05725 1.63419 0
M  V30 4185 C 397.553 4.49174 2.74096 0
M  V30 4186 O 396.579 5.15492 2.41364 0
M  V30 4187 N 397.781 4.17191 4.03649 0
M  V30 4188 H 400.546 2.9937 0.140514 0
M  V30 4189 H 398.107 1.6175 -0.0697541 0
M  V30 4190 H 400.099 3.04015 2.67127 0
M  V30 4191 H 398.669 2.01596 2.38909 0
M  V30 4192 H 397.889 3.87261 0.736358 0
M  V30 4193 H 399.177 4.88999 1.40562 0
M  V30 4194 H 398.575 3.63955 4.33074 0
M  V30 4195 H 397.132 4.48043 4.73393 0
M  V30 4196 N 400.565 -0.0233959 1.57583 0
M  V30 4197 C 401.528 -1.00693 2.05897 0
M  V30 4198 C 402.528 -1.28693 0.964092 0
M  V30 4199 O 403.718 -1.23602 1.22753 0
M  V30 4200 C 400.85 -2.33825 2.4807 0
M  V30 4201 H 402.043 -0.589476 2.9405 0
M  V30 4202 H 399.596 -0.270354 1.53944 0
M  V30 4203 H 400.331 -2.80307 1.6309 0
M  V30 4204 H 400.116 -2.1483 3.2801 0
M  V30 4205 H 401.606 -3.04426 2.85857 0
M  V30 4206 N 402.043 -1.548 -0.295768 0
M  V30 4207 C 403.459 -1.4613 -0.641722 0
M  V30 4208 C 403.659 -0.656771 -1.90496 0
M  V30 4209 O 402.715 -0.166547 -2.5195 0
M  V30 4210 C 404.028 -2.90141 -0.789852 0
M  V30 4211 C 405.576 -3.00216 -0.885396 0
M  V30 4212 C 406.051 -4.45434 -1.06548 0
M  V30 4213 N 407.542 -4.49166 -1.13156 0
M  V30 4214 C 408.277 -5.58717 -1.28929 0
M  V30 4215 N 407.773 -6.78182 -1.41567 0
M  V30 4216 N 409.566 -5.46415 -1.31859 0
M  V30 4217 H 401.717 -2.05574 0.534147 0
M  V30 4218 H 403.98 -0.931259 0.177372 0
M  V30 4219 H 403.686 -3.51635 0.0675598 0
M  V30 4220 H 403.56 -3.37859 -1.67724 0
M  V30 4221 H 405.947 -2.38833 -1.73329 0
M  V30 4222 H 406.028 -2.55787 0.0261185 0
M  V30 4223 H 405.672 -5.07413 -0.222335 0
M  V30 4224 H 405.602 -4.87499 -1.9913 0
M  V30 4225 H 408.093 -3.631 -1.04721 0
M  V30 4226 H 408.406 -7.57428 -1.53372 0
M  V30 4227 H 406.751 -6.81037 -1.38613 0
M  V30 4228 H 409.942 -4.5203 -1.21601 0
M  V30 4229 H 410.115 -6.31841 -1.43808 0
M  V30 4230 N 403.521 0.559213 -1.47345 0
M  V30 4231 C 404.453 1.68161 -1.55738 0
M  V30 4232 C 405.466 1.56636 -0.443744 0
M  V30 4233 O 406.655 1.6363 -0.713258 0
M  V30 4234 C 403.755 3.06611 -1.4437 0
M  V30 4235 C 402.928 3.4391 -2.70268 0
M  V30 4236 C 401.987 4.61515 -2.52765 0
M  V30 4237 O 401.013 4.66197 -3.26572 0
M  V30 4238 N 402.215 5.57883 -1.6046 0
M  V30 4239 H 404.98 1.61408 -2.52522 0
M  V30 4240 H 402.541 0.7458 -1.43699 0
M  V30 4241 H 404.533 3.83117 -1.30398 0
M  V30 4242 H 403.103 3.07602 -0.556766 0
M  V30 4243 H 402.323 2.56873 -2.99015 0
M  V30 4244 H 403.611 3.65605 -3.53851 0
M  V30 4245 H 403.009 5.56855 -0.996422 0
M  V30 4246 H 401.566 6.33723 -1.52441 0
M  V30 4247 N 404.999 1.35443 0.805782 0
M  V30 4248 C 406.246 1.28761 1.56291 0
M  V30 4249 C 406.574 -0.137747 1.94012 0
M  V30 4250 O 405.829 -1.1032 1.61642 0
M  V30 4251 C 406.128 2.14045 2.86216 0
M  V30 4252 C 405.794 3.62826 2.67709 0
M  V30 4253 C 404.456 4.0338 2.6237 0
M  V30 4254 C 406.808 4.57227 2.50186 0
M  V30 4255 C 404.136 5.36501 2.37451 0
M  V30 4256 C 406.488 5.90547 2.26797 0
M  V30 4257 C 405.152 6.30245 2.1988 0
M  V30 4258 H 404.422 0.471171 0.571908 0
M  V30 4259 H 407.069 1.67347 0.930974 0
M  V30 4260 H 405.374 1.68342 3.53791 0
M  V30 4261 H 407.071 2.0621 3.43917 0
M  V30 4262 H 403.661 3.30644 2.72713 0
M  V30 4263 H 407.845 4.2678 2.53323 0
M  V30 4264 H 403.101 5.66259 2.30567 0
M  V30 4265 H 407.275 6.63274 2.12228 0
M  V30 4266 H 404.902 7.33328 2.00333 0
M  V30 4267 N 406.477 -1.02803 1.19454 0
M  V30 4268 C 407.893 -1.28473 0.946937 0
M  V30 4269 C 408.093 -1.97881 -0.380202 0
M  V30 4270 O 407.149 -2.26719 -1.11151 0
M  V30 4271 C 408.462 -2.13099 2.12154 0
M  V30 4272 C 410.01 -2.26404 2.16126 0
M  V30 4273 C 410.485 -3.14402 3.33039 0
M  V30 4274 N 411.976 -3.21991 3.32981 0
M  V30 4275 C 412.711 -3.90272 4.20089 0
M  V30 4276 N 412.207 -4.60777 5.17355 0
M  V30 4277 N 414 -3.8668 4.07964 0
M  V30 4278 H 406.151 -0.561665 2.04839 0
M  V30 4279 H 408.414 -0.310438 0.89573 0
M  V30 4280 H 408.12 -1.69422 3.08203 0
M  V30 4281 H 407.994 -3.13813 2.09287 0
M  V30 4282 H 410.381 -2.69311 1.20647 0
M  V30 4283 H 410.462 -1.25237 2.23045 0
M  V30 4284 H 410.106 -2.72204 4.28798 0
M  V30 4285 H 410.036 -4.1563 3.23356 0
M  V30 4286 H 412.527 -2.71778 2.62574 0
M  V30 4287 H 412.84 -5.10513 5.80169 0
M  V30 4288 H 411.185 -4.5964 5.21302 0
M  V30 4289 H 414.376 -3.30739 3.31254 0
M  V30 4290 H 414.549 -4.39621 4.76064 0
M  V30 4291 N 407.956 -0.998596 -1.21925 0
M  V30 4292 C 409.184 -0.696286 -1.94832 0
M  V30 4293 C 409.599 0.740032 -1.73692 0
M  V30 4294 O 408.956 1.5 -1.03953 0
M  V30 4295 C 409.007 -0.999833 -3.47398 0
M  V30 4296 O 408.728 -2.37972 -3.67833 0
M  V30 4297 C 410.229 -0.716025 -4.37479 0
M  V30 4298 H 407.449 -0.257111 -0.619786 0
M  V30 4299 H 409.993 -1.33491 -1.54921 0
M  V30 4300 H 408.148 -0.406918 -3.85257 0
M  V30 4301 H 408.562 -2.48338 -4.61983 0
M  V30 4302 H 410.036 -0.978642 -5.43256 0
M  V30 4303 H 410.513 0.349968 -4.37803 0
M  V30 4304 H 411.119 -1.29025 -4.05256 0
M  V30 4305 N 409.434 1.37368 -0.772513 0
M  V30 4306 C 410.681 1.99673 -0.337182 0
M  V30 4307 C 411.009 1.61324 1.0865 0
M  V30 4308 O 410.264 0.851377 1.7621 0
M  V30 4309 C 410.563 3.54817 -0.428876 0
M  V30 4310 C 410.229 4.12936 -1.81092 0
M  V30 4311 C 408.891 4.28523 -2.1891 0
M  V30 4312 C 411.243 4.44801 -2.71664 0
M  V30 4313 C 408.571 4.73277 -3.46735 0
M  V30 4314 C 410.923 4.90981 -3.98899 0
M  V30 4315 C 409.587 5.04773 -4.36761 0
M  V30 4316 H 408.857 0.730656 -0.123384 0
M  V30 4317 H 411.504 1.64124 -0.986686 0
M  V30 4318 H 409.809 3.90618 0.304167 0
M  V30 4319 H 411.506 4.00933 -0.0733334 0
M  V30 4320 H 408.096 4.01233 -1.50699 0
M  V30 4321 H 412.28 4.32344 -2.43706 0
M  V30 4322 H 407.536 4.82142 -3.75964 0
M  V30 4323 H 411.71 5.14603 -4.69208 0
M  V30 4324 H 409.337 5.39211 -5.35868 0
M  V30 4325 N 410.912 0.523116 1.48665 0
M  V30 4326 C 411.862 -0.263106 2.26477 0
M  V30 4327 C 412.846 -0.916005 1.32281 0
M  V30 4328 O 414.038 -0.819946 1.56863 0
M  V30 4329 C 411.167 -1.31361 3.17174 0
M  V30 4330 C 410.253 -0.665849 4.1884 0
M  V30 4331 N 410.644 0.244434 5.05209 0
M  V30 4332 C 408.942 -0.923863 4.36326 0
M  V30 4333 C 409.643 0.617443 5.78414 0
M  V30 4334 N 408.619 -0.0198686 5.43596 0
M  V30 4335 H 412.421 0.437295 2.90629 0
M  V30 4336 H 409.935 0.340675 1.58787 0
M  V30 4337 H 411.932 -1.89052 3.71571 0
M  V30 4338 H 410.592 -2.01546 2.54576 0
M  V30 4339 H 411.603 0.616621 5.14216 0
M  V30 4340 H 408.28 -1.6168 3.84923 0
M  V30 4341 H 409.67 1.36346 6.57921 0
M  V30 4342 N 412.39 -1.55475 0.257931 0
M  V30 4343 C 413.34 -2.18506 -0.651094 0
M  V30 4344 C 414.324 -1.14431 -1.13112 0
M  V30 4345 O 415.516 -1.40305 -1.07905 0
M  V30 4346 C 412.645 -2.89653 -1.84272 0
M  V30 4347 C 411.731 -4.00996 -1.38068 0
M  V30 4348 N 412.122 -5.01816 -0.633609 0
M  V30 4349 C 410.42 -4.13753 -1.66506 0
M  V30 4350 C 411.121 -5.80371 -0.392922 0
M  V30 4351 N 410.097 -5.3505 -0.960359 0
M  V30 4352 H 413.899 -2.93811 -0.0722883 0
M  V30 4353 H 411.413 -1.62286 0.0607256 0
M  V30 4354 H 413.41 -3.33245 -2.50506 0
M  V30 4355 H 412.07 -2.15854 -2.42564 0
M  V30 4356 H 413.081 -5.17128 -0.282626 0
M  V30 4357 H 409.758 -3.51133 -2.25858 0
M  V30 4358 H 411.148 -6.7159 0.204235 0
M  V30 4359 N 413.868 0.0150385 -1.57593 0
M  V30 4360 C 415.279 0.559832 -1.78109 0
M  V30 4361 C 415.63 1.74814 -0.890756 0
M  V30 4362 O 414.755 2.16216 -0.0892482 0
M  V30 4363 C 415.35 1.02238 -3.23006 0
M  V30 4364 C 413.909 1.51258 -3.44671 0
M  V30 4365 C 413.056 0.456955 -2.73509 0
M  V30 4366 H 416.007 -0.211169 -1.57289 0
M  V30 4367 H 416.028 1.88912 -3.30292 0
M  V30 4368 H 415.54 0.157302 -3.87781 0
M  V30 4369 H 413.641 2.39905 -2.8509 0
M  V30 4370 H 413.754 1.55042 -4.5332 0
M  V30 4371 H 412.118 0.915196 -2.37689 0
M  V30 4372 H 412.901 -0.398896 -3.40975 0
M  V30 4373 N 415.346 1.54954 0.287554 0
M  V30 4374 C 416.574 1.78881 1.03967 0
M  V30 4375 C 416.989 0.554894 1.80462 0
M  V30 4376 O 416.346 -0.475676 1.76192 0
M  V30 4377 C 416.397 3.00488 2.0097 0
M  V30 4378 O 416.118 4.19113 1.27577 0
M  V30 4379 C 417.619 3.36907 2.88112 0
M  V30 4380 H 414.839 0.596259 0.307761 0
M  V30 4381 H 417.383 2.01937 0.322749 0
M  V30 4382 H 415.538 2.79601 2.68145 0
M  V30 4383 H 415.952 4.87765 1.92835 0
M  V30 4384 H 417.426 4.25205 3.52001 0
M  V30 4385 H 417.903 2.55659 3.57121 0
M  V30 4386 H 418.509 3.60001 2.26449 0
M  V30 4387 N 416.824 -0.551391 1.4764 0
M  V30 4388 C 418.054 -1.33163 1.57959 0
M  V30 4389 C 418.462 -1.87785 0.23094 0
M  V30 4390 O 417.805 -1.65996 -0.786825 0
M  V30 4391 C 417.867 -2.53449 2.54958 0
M  V30 4392 C 417.531 -2.20071 4.00522 0
M  V30 4393 C 418.528 -1.77017 4.88836 0
M  V30 4394 C 416.213 -2.31252 4.45901 0
M  V30 4395 C 418.207 -1.4558 6.20552 0
M  V30 4396 C 415.894 -1.99427 5.77644 0
M  V30 4397 C 416.892 -1.56659 6.64791 0
M  V30 4398 O 416.58 -1.25242 7.94084 0
M  V30 4399 H 416.312 -0.412022 0.535923 0
M  V30 4400 H 418.866 -0.674186 1.9402 0
M  V30 4401 H 417.096 -3.22104 2.13976 0
M  V30 4402 H 418.785 -3.15523 2.55343 0
M  V30 4403 H 419.551 -1.67867 4.55023 0
M  V30 4404 H 415.43 -2.63498 3.78272 0
M  V30 4405 H 418.974 -1.12125 6.8853 0
M  V30 4406 H 414.871 -2.08211 6.10998 0
M  V30 4407 H 415.639 -1.38822 8.06642 0
M  V30 4408 N 418.302 -1.35869 -0.798587 0
M  V30 4409 C 419.55 -1.29332 -1.55298 0
M  V30 4410 C 419.871 0.129729 -1.94568 0
M  V30 4411 O 419.141 1.06796 -1.6423 0
M  V30 4412 H 417.721 -0.475737 -0.57592 0
M  V30 4413 H 420.383 -1.70062 -0.952093 0
M  V30 4414 H 419.479 -1.91458 -2.46476 0
M  V30 4415 N 419.78 1.02168 -1.19998 0
M  V30 4416 C 421.005 1.79833 -1.03319 0
M  V30 4417 C 421.43 1.83504 0.413281 0
M  V30 4418 O 420.788 1.26635 1.29743 0
M  V30 4419 C 420.836 3.22396 -1.61533 0
M  V30 4420 O 419.94 4.03555 -0.849519 0
M  V30 4421 H 419.281 0.554872 -0.364709 0
M  V30 4422 H 421.811 1.28542 -1.59179 0
M  V30 4423 H 421.821 3.73124 -1.65054 0
M  V30 4424 H 420.496 3.19039 -2.66809 0
M  V30 4425 H 419.073 3.62169 -0.888129 0
M  V30 4426 N 421.258 1.00505 1.21394 0
M  V30 4427 C 422.498 0.696149 1.9218 0
M  V30 4428 C 422.862 -0.759099 1.76357 0
M  V30 4429 O 424.063 -1.17998 2.41516 0
M  V30 4430 C 422.334 1.10571 3.39866 0
M  V30 4431 S 423.893 0.91702 4.29111 0
M  V30 4432 H 420.711 0.254147 0.664026 0
M  V30 4433 H 423.313 1.28988 1.46909 0
M  V30 4434 H 422.017 2.16096 3.489 0
M  V30 4435 H 421.548 0.504268 3.90155 0
M  V30 4436 H 423.563 -0.185855 4.95852 0
M  V30 4437 N 422.737 -1.36956 0.779787 0
M  V30 4438 C 423.967 -2.03459 0.358877 0
M  V30 4439 C 424.375 -1.58939 -1.02641 0
M  V30 4440 O 423.718 -0.769777 -1.66794 0
M  V30 4441 C 423.78 -3.5796 0.332393 0
M  V30 4442 C 423.444 -4.25644 1.66362 0
M  V30 4443 C 424.441 -4.49205 2.61746 0
M  V30 4444 C 422.126 -4.63313 1.94027 0
M  V30 4445 C 424.12 -5.09503 3.82996 0
M  V30 4446 C 421.807 -5.2333 3.15546 0
M  V30 4447 C 422.805 -5.46363 4.0985 0
M  V30 4448 O 422.493 -6.05122 5.29228 0
M  V30 4449 H 422.225 -0.659767 0.147254 0
M  V30 4450 H 424.779 -1.76111 1.05708 0
M  V30 4451 H 423.009 -3.84388 -0.422237 0
M  V30 4452 H 424.698 -4.05852 -0.0625389 0
M  V30 4453 H 425.464 -4.20508 2.41657 0
M  V30 4454 H 421.343 -4.44715 1.21448 0
M  V30 4455 H 424.887 -5.27397 4.56617 0
M  V30 4456 H 420.784 -5.51451 3.35517 0
M  V30 4457 H 421.552 -6.23595 5.30161 0
M  V30 4458 N 424.215 -0.530993 -1.48385 0
M  V30 4459 C 425.443 -0.00134122 -2.069 0
M  V30 4460 C 425.858 1.2805 -1.3874 0
M  V30 4461 O 425.215 1.76204 -0.475244 0
M  V30 4462 C 425.266 0.225256 -3.60798 0
M  V30 4463 O 424.987 -1.0058 -4.26398 0
M  V30 4464 C 426.488 0.795172 -4.3611 0
M  V30 4465 H 423.708 -0.0339704 -0.67014 0
M  V30 4466 H 426.252 -0.736926 -1.90761 0
M  V30 4467 H 424.407 0.910891 -3.76539 0
M  V30 4468 H 424.821 -0.787165 -5.1856 0
M  V30 4469 H 426.295 0.903143 -5.44562 0
M  V30 4470 H 426.772 1.80031 -4.00606 0
M  V30 4471 H 427.378 0.146069 -4.25049 0
M  V30 4472 N 425.693 1.55336 -0.266172 0
M  V30 4473 C 426.939 1.99692 0.353681 0
M  V30 4474 C 427.272 1.1543 1.56172 0
M  V30 4475 O 426.547 0.222218 1.93226 0
M  V30 4476 C 426.83 3.52316 0.74466 0
M  V30 4477 C 426.683 4.47337 -0.470101 0
M  V30 4478 C 428.002 4.10588 1.58447 0
M  V30 4479 H 425.121 0.725961 0.12708 0
M  V30 4480 H 427.763 1.86336 -0.371333 0
M  V30 4481 H 425.913 3.63829 1.36239 0
M  V30 4482 H 427.585 4.4778 -1.10864 0
M  V30 4483 H 425.828 4.19364 -1.10978 0
M  V30 4484 H 426.499 5.51788 -0.15291 0
M  V30 4485 H 428.975 4.02297 1.06286 0
M  V30 4486 H 427.851 5.17607 1.82686 0
M  V30 4487 H 428.112 3.60253 2.56262 0
M  V30 4488 N 427.171 -0.0066808 1.57599 0
M  V30 4489 C 428.448 -0.729586 1.81484 0
M  V30 4490 C 428.828 -1.92359 0.869558 0
M  V30 4491 O 428.176 -2.28348 -0.0832533 0
M  V30 4492 C 428.386 -1.1416 3.29801 0
M  V30 4493 C 429.734 -1.54823 3.95367 0
M  V30 4494 O 430.758 -1.23558 3.34084 0
M  V30 4495 O 429.617 -2.12937 5.03309 0
M  V30 4496 H 426.711 -0.354674 0.747085 0
M  V30 4497 H 429.257 0.0182609 1.6969 0
M  V30 4498 H 428.029 -0.290231 3.90222 0
M  V30 4499 H 427.652 -1.94876 3.46568 0
M  V30 4500 N 428.649 -1.55105 -0.279332 0
M  V30 4501 C 429.897 -1.75066 -1.00977 0
M  V30 4502 C 430.218 -0.551276 -1.87045 0
M  V30 4503 O 429.488 0.433984 -1.91032 0
M  V30 4504 H 428.068 -0.645578 -0.375816 0
M  V30 4505 H 430.73 -1.92497 -0.305089 0
M  V30 4506 H 429.826 -2.64894 -1.65038 0
M  V30 4507 N 430.127 0.543554 -1.4793 0
M  V30 4508 C 431.373 1.30201 -1.55485 0
M  V30 4509 C 431.706 1.92925 -0.222201 0
M  V30 4510 O 430.981 1.78586 0.77053 0
M  V30 4511 C 431.264 2.40174 -2.68307 0
M  V30 4512 C 431.117 1.8223 -4.11233 0
M  V30 4513 C 432.436 3.42024 -2.76961 0
M  V30 4514 H 429.555 0.472036 -0.565996 0
M  V30 4515 H 432.197 0.606914 -1.80046 0
M  V30 4516 H 430.347 2.99463 -2.47495 0
M  V30 4517 H 432.019 1.27096 -4.43446 0
M  V30 4518 H 430.262 1.12832 -4.18869 0
M  V30 4519 H 430.933 2.61793 -4.85972 0
M  V30 4520 H 433.409 2.92672 -2.95774 0
M  V30 4521 H 432.285 4.16383 -3.57654 0
M  V30 4522 H 432.546 4.0173 -1.84568 0
M  V30 4523 N 431.605 1.3629 0.791371 0
M  V30 4524 C 432.851 1.31613 1.5508 0
M  V30 4525 C 433.206 -0.104372 1.92117 0
M  V30 4526 O 432.499 -1.05845 1.5971 0
M  V30 4527 C 432.693 2.17068 2.8393 0
M  V30 4528 C 432.522 3.67285 2.59484 0
M  V30 4529 C 431.292 4.36469 2.54604 0
M  V30 4530 C 433.49 4.60595 2.28816 0
M  V30 4531 N 431.472 5.7234 2.22036 0
M  V30 4532 C 432.843 5.847 2.06218 0
M  V30 4533 C 434.898 4.4918 2.14806 0
M  V30 4534 C 433.601 6.98671 1.71028 0
M  V30 4535 C 435.627 5.63017 1.81014 0
M  V30 4536 C 434.989 6.86159 1.59263 0
M  V30 4537 H 431.088 0.536878 0.568582 0
M  V30 4538 H 433.672 1.71323 0.925007 0
M  V30 4539 H 431.843 1.79605 3.44378 0
M  V30 4540 H 433.575 2.03795 3.49642 0
M  V30 4541 H 430.33 3.89249 2.69782 0
M  V30 4542 H 430.754 6.44093 2.08503 0
M  V30 4543 H 435.396 3.54564 2.30313 0
M  V30 4544 H 433.114 7.9324 1.54259 0
M  V30 4545 H 436.7 5.56146 1.70861 0
M  V30 4546 H 435.58 7.72753 1.335 0
M  V30 4547 N 433.083 -1.0153 1.20538 0
M  V30 4548 C 434.311 -1.78746 1.04199 0
M  V30 4549 C 434.726 -1.84323 -0.408733 0
M  V30 4550 O 434.083 -1.29714 -1.28377 0
M  V30 4551 C 434.134 -3.23152 1.62035 0
M  V30 4552 O 433.855 -3.17918 3.0143 0
M  V30 4553 C 435.356 -4.16911 1.50666 0
M  V30 4554 H 432.576 -0.56208 0.366479 0
M  V30 4555 H 435.12 -1.27794 1.59653 0
M  V30 4556 H 433.275 -3.71248 1.10697 0
M  V30 4557 H 433.689 -4.08567 3.28897 0
M  V30 4558 H 435.163 -5.16072 1.95892 0
M  V30 4559 H 435.64 -4.36791 0.459363 0
M  V30 4560 H 436.246 -3.74698 2.01201 0
M  V30 4561 N 434.561 -1.01147 -1.20859 0
M  V30 4562 C 435.524 -0.582224 -2.21682 0
M  V30 4563 C 436.524 0.344887 -1.57058 0
M  V30 4564 O 437.714 0.134281 -1.73682 0
M  V30 4565 C 434.846 0.150496 -3.40568 0
M  V30 4566 H 436.039 -1.47408 -2.61172 0
M  V30 4567 H 433.592 -0.800695 -1.34233 0
M  V30 4568 H 434.327 1.0575 -3.06574 0
M  V30 4569 H 434.112 -0.515444 -3.88697 0
M  V30 4570 H 435.602 0.438344 -4.15293 0
M  V30 4571 N 436.039 1.36541 -0.78704 0
M  V30 4572 C 436.971 2.28761 -0.141773 0
M  V30 4573 C 437.984 1.49365 0.647599 0
M  V30 4574 O 439.173 1.71836 0.483173 0
M  V30 4575 C 436.273 3.28771 0.822368 0
M  V30 4576 C 435.446 4.3732 0.0835594 0
M  V30 4577 C 434.505 5.17307 0.963296 0
M  V30 4578 O 433.531 5.67638 0.421419 0
M  V30 4579 N 434.733 5.33515 2.28784 0
M  V30 4580 H 437.498 2.84777 -0.933919 0
M  V30 4581 H 435.059 1.48682 -0.640735 0
M  V30 4582 H 437.051 3.79169 1.41468 0
M  V30 4583 H 435.621 2.73412 1.5154 0
M  V30 4584 H 434.841 3.88118 -0.689809 0
M  V30 4585 H 436.129 5.0701 -0.426358 0
M  V30 4586 H 435.527 4.94234 2.75226 0
M  V30 4587 H 434.084 5.87165 2.82985 0
M  V30 4588 N 437.518 0.538854 1.48102 0
M  V30 4589 C 438.934 0.19732 1.58376 0
M  V30 4590 C 439.134 -1.29971 1.5398 0
M  V30 4591 O 438.19 -2.07861 1.43352 0
M  V30 4592 C 439.503 0.807716 2.89649 0
M  V30 4593 C 441.051 0.77726 3.03196 0
M  V30 4594 C 441.526 1.36639 4.37143 0
M  V30 4595 N 443.017 1.32875 4.43732 0
M  V30 4596 C 443.752 1.7544 5.45901 0
M  V30 4597 N 443.248 2.25776 6.54979 0
M  V30 4598 N 445.041 1.66623 5.36836 0
M  V30 4599 H 437.192 1.5117 1.49202 0
M  V30 4600 H 439.455 0.629327 0.708979 0
M  V30 4601 H 439.161 1.85909 2.98548 0
M  V30 4602 H 439.035 0.289975 3.76084 0
M  V30 4603 H 441.422 -0.265374 2.93904 0
M  V30 4604 H 441.503 1.33256 2.18349 0
M  V30 4605 H 441.147 2.408 4.47189 0
M  V30 4606 H 441.077 0.786689 5.20691 0
M  V30 4607 H 443.568 0.96037 3.65493 0
M  V30 4608 H 443.881 2.56226 7.29087 0
M  V30 4609 H 442.226 2.29775 6.55918 0
M  V30 4610 H 445.417 1.27089 4.50517 0
M  V30 4611 H 445.59 2.00115 6.16326 0
M  V30 4612 N 438.996 -1.55193 0.274407 0
M  V30 4613 C 440.407 -1.85358 -0.223488 0
M  V30 4614 C 440.758 -1.19642 -1.555 0
M  V30 4615 O 439.883 -0.484498 -2.10907 0
M  V30 4616 C 440.478 -3.36282 -0.412285 0
M  V30 4617 C 439.037 -3.66574 -0.854413 0
M  V30 4618 C 438.184 -2.7725 0.0527056 0
M  V30 4619 H 441.135 -1.50743 0.496215 0
M  V30 4620 H 441.156 -3.59349 -1.25094 0
M  V30 4621 H 440.668 -3.84083 0.556965 0
M  V30 4622 H 438.769 -3.24273 -1.83516 0
M  V30 4623 H 438.882 -4.74073 -0.692226 0
M  V30 4624 H 437.246 -2.50447 -0.463484 0
M  V30 4625 H 438.029 -3.27865 1.01783 0
M  V30 4626 N 440.474 -0.00167713 -1.576 0
M  V30 4627 C 441.722 0.681471 -1.90264 0
M  V30 4628 C 442.043 1.7422 -0.875924 0
M  V30 4629 O 441.313 1.95709 0.0864412 0
M  V30 4630 H 439.893 0.254696 -0.702239 0
M  V30 4631 H 442.555 -0.0429996 -1.94853 0
M  V30 4632 H 441.651 1.15166 -2.90075 0
M  V30 4633 N 441.952 1.55251 0.271103 0
M  V30 4634 C 443.201 1.75151 1.00025 0
M  V30 4635 C 443.514 0.561041 1.87381 0
M  V30 4636 O 444.72 0.642506 2.63788 0
M  V30 4637 C 443.176 3.09999 1.82835 0
M  V30 4638 C 442.784 4.3662 1.00336 0
M  V30 4639 C 444.528 3.39249 2.55168 0
M  V30 4640 C 442.435 5.62506 1.82595 0
M  V30 4641 H 441.365 0.652877 0.377183 0
M  V30 4642 H 444.016 1.81708 0.255843 0
M  V30 4643 H 442.398 2.97485 2.61378 0
M  V30 4644 H 443.572 4.60055 0.261959 0
M  V30 4645 H 441.887 4.14527 0.394486 0
M  V30 4646 H 444.484 4.3051 3.1712 0
M  V30 4647 H 444.827 2.59467 3.2555 0
M  V30 4648 H 445.36 3.52869 1.83653 0
M  V30 4649 H 442.099 6.45041 1.16631 0
M  V30 4650 H 441.619 5.43211 2.54327 0
M  V30 4651 H 443.298 6.00875 2.39913 0
M  V30 4652 N 443.43 -0.535701 1.48216 0
M  V30 4653 C 444.658 -1.31671 1.59594 0
M  V30 4654 C 445.073 -1.87083 0.254056 0
M  V30 4655 O 444.43 -1.66112 -0.755854 0
M  V30 4656 C 444.481 -2.47158 2.63809 0
M  V30 4657 O 444.202 -1.94032 3.92789 0
M  V30 4658 C 445.703 -3.39062 2.85573 0
M  V30 4659 H 442.923 -0.400623 0.538277 0
M  V30 4660 H 445.467 -0.646827 1.94001 0
M  V30 4661 H 443.622 -3.10043 2.32276 0
M  V30 4662 H 444.036 -2.69585 4.49916 0
M  V30 4663 H 445.51 -4.16459 3.62306 0
M  V30 4664 H 445.987 -3.93941 1.94184 0
M  V30 4665 H 446.593 -2.81975 3.18387 0
M  V30 4666 N 444.908 -1.36708 -0.784132 0
M  V30 4667 C 445.858 -1.2799 -1.88686 0
M  V30 4668 C 446.842 -0.170282 -1.59996 0
M  V30 4669 O 448.034 -0.403571 -1.72338 0
M  V30 4670 C 445.163 -1.07674 -3.25977 0
M  V30 4671 C 444.249 -2.23127 -3.60659 0
M  V30 4672 N 444.64 -3.48467 -3.66612 0
M  V30 4673 C 442.938 -2.15009 -3.90752 0
M  V30 4674 C 443.639 -4.24525 -3.97685 0
M  V30 4675 N 442.615 -3.53524 -4.12943 0
M  V30 4676 H 446.417 -2.22927 -1.91522 0
M  V30 4677 H 443.931 -1.29503 -0.979933 0
M  V30 4678 H 445.928 -0.995151 -4.04849 0
M  V30 4679 H 444.588 -0.13643 -3.24413 0
M  V30 4680 H 445.599 -3.82534 -3.49125 0
M  V30 4681 H 442.276 -1.28963 -3.97083 0
M  V30 4682 H 443.666 -5.32944 -4.0917 0
M  V30 4683 N 446.386 1.0089 -1.21074 0
M  V30 4684 C 447.634 1.74262 -1.02358 0
M  V30 4685 C 447.955 1.89869 0.444393 0
M  V30 4686 O 447.225 1.44677 1.32081 0
M  V30 4687 H 445.805 0.645615 -0.375754 0
M  V30 4688 H 448.467 1.21596 -1.52317 0
M  V30 4689 H 447.563 2.74328 -1.4883 0
M  V30 4690 N 447.864 1.01787 1.20321 0
M  V30 4691 C 449.11 0.708985 1.90003 0
M  V30 4692 C 449.443 -0.759572 1.78729 0
M  V30 4693 O 448.718 -1.55198 1.17234 0
M  V30 4694 C 449.001 1.1469 3.41348 0
M  V30 4695 C 448.854 2.67586 3.61549 0
M  V30 4696 C 450.173 0.71915 4.34185 0
M  V30 4697 H 447.292 0.259034 0.689978 0
M  V30 4698 H 449.934 1.26584 1.41692 0
M  V30 4699 H 448.084 0.673128 3.82624 0
M  V30 4700 H 449.756 3.22826 3.29517 0
M  V30 4701 H 447.999 3.085 3.04976 0
M  V30 4702 H 448.67 2.93281 4.67643 0
M  V30 4703 H 451.146 1.12647 4.00562 0
M  V30 4704 H 450.022 1.05358 5.38694 0
M  V30 4705 H 450.283 -0.379111 4.40472 0
M  V30 4706 N 449.342 -1.36122 0.79427 0
M  V30 4707 C 450.59 -1.98718 0.368177 0
M  V30 4708 C 450.911 -1.63345 -1.06506 0
M  V30 4709 O 450.181 -0.909825 -1.73491 0
M  V30 4710 H 448.761 -0.735038 0.133146 0
M  V30 4711 H 451.423 -1.66239 1.01739 0
M  V30 4712 H 450.519 -3.08633 0.463923 0
M  V30 4713 N 450.82 -0.546701 -1.47814 0
M  V30 4714 C 451.75 0.195317 -2.32682 0
M  V30 4715 C 452.731 0.918981 -1.43139 0
M  V30 4716 O 453.916 0.901501 -1.72008 0
M  V30 4717 C 451.046 1.23237 -3.247 0
M  V30 4718 C 450 0.625818 -4.234 0
M  V30 4719 C 449.326 1.76674 -5.04669 0
M  V30 4720 C 450.626 -0.413515 -5.2066 0
M  V30 4721 H 452.32 -0.513184 -2.94969 0
M  V30 4722 H 449.866 -0.248241 -1.41844 0
M  V30 4723 H 451.819 1.75955 -3.82907 0
M  V30 4724 H 450.543 1.97067 -2.60446 0
M  V30 4725 H 449.202 0.120023 -3.66403 0
M  V30 4726 H 448.85 2.49383 -4.36826 0
M  V30 4727 H 448.55 1.36673 -5.71484 0
M  V30 4728 H 450.074 2.29738 -5.65732 0
M  V30 4729 H 451.488 0.0272042 -5.73294 0
M  V30 4730 H 449.885 -0.731825 -5.95621 0
M  V30 4731 H 450.955 -1.31325 -4.66778 0
M  V30 4732 N 452.299 1.55045 -0.282633 0
M  V30 4733 C 453.545 2.00056 0.332481 0
M  V30 4734 C 453.878 1.1708 1.54939 0
M  V30 4735 O 453.153 0.2427 1.9298 0
M  V30 4736 C 453.436 3.53086 0.70725 0
M  V30 4737 C 453.289 4.46813 -0.517521 0
M  V30 4738 C 454.608 4.12245 1.54084 0
M  V30 4739 H 451.727 0.727268 0.119373 0
M  V30 4740 H 454.369 1.85932 -0.391076 0
M  V30 4741 H 452.519 3.65253 1.32372 0
M  V30 4742 H 454.191 4.46579 -1.15607 0
M  V30 4743 H 452.434 4.18163 -1.1542 0
M  V30 4744 H 453.105 5.51595 -0.211426 0
M  V30 4745 H 455.581 4.03401 1.02013 0
M  V30 4746 H 454.457 5.19515 1.77186 0
M  V30 4747 H 454.718 3.62951 2.52427 0
M  V30 4748 N 453.777 0.010035 1.57597 0
M  V30 4749 C 454.707 -0.976857 2.12084 0
M  V30 4750 C 455.688 -1.35191 1.03235 0
M  V30 4751 O 456.873 -1.43389 1.3097 0
M  V30 4752 C 454.003 -2.26548 2.63236 0
M  V30 4753 C 452.957 -2.03175 3.76701 0
M  V30 4754 C 452.283 -3.38138 4.14206 0
M  V30 4755 C 453.583 -1.38625 5.03568 0
M  V30 4756 H 455.277 -0.523145 2.94794 0
M  V30 4757 H 452.823 -0.250195 1.4181 0
M  V30 4758 H 454.776 -2.95952 2.99984 0
M  V30 4759 H 453.5 -2.74051 1.77661 0
M  V30 4760 H 452.159 -1.36195 3.40362 0
M  V30 4761 H 451.807 -3.83363 3.25641 0
M  V30 4762 H 451.507 -3.23312 4.90656 0
M  V30 4763 H 453.031 -4.08841 4.53521 0
M  V30 4764 H 454.445 -1.98 5.38023 0
M  V30 4765 H 452.842 -1.34256 5.84889 0
M  V30 4766 H 453.912 -0.356722 4.83586 0
M  V30 4767 N 455.255 -1.55392 -0.262866 0
M  V30 4768 C 456.671 -1.47459 -0.610582 0
M  V30 4769 C 456.871 -0.697031 -1.8906 0
M  V30 4770 O 455.927 -0.219952 -2.5154 0
M  V30 4771 C 457.24 -2.91751 -0.728131 0
M  V30 4772 C 458.788 -3.02027 -0.821517 0
M  V30 4773 C 459.263 -4.47594 -0.97076 0
M  V30 4774 N 460.754 -4.51465 -1.03603 0
M  V30 4775 C 461.489 -5.61326 -1.17049 0
M  V30 4776 N 460.985 -6.81032 -1.2715 0
M  V30 4777 N 462.778 -5.49089 -1.20239 0
M  V30 4778 H 454.929 -2.04395 0.577632 0
M  V30 4779 H 457.192 -0.927287 0.197086 0
M  V30 4780 H 456.898 -3.51413 0.142132 0
M  V30 4781 H 456.772 -3.4134 -1.6052 0
M  V30 4782 H 459.159 -2.42456 -1.68224 0
M  V30 4783 H 459.24 -2.55674 0.0803688 0
M  V30 4784 H 458.884 -5.07771 -0.114655 0
M  V30 4785 H 458.814 -4.91613 -1.88745 0
M  V30 4786 H 461.305 -3.6524 -0.96996 0
M  V30 4787 H 461.618 -7.60511 -1.37271 0
M  V30 4788 H 459.963 -6.83824 -1.24136 0
M  V30 4789 H 463.154 -4.54507 -1.11985 0
M  V30 4790 H 463.327 -6.34749 -1.30373 0
M  V30 4791 N 456.733 0.527833 -1.48498 0
M  V30 4792 C 457.979 1.28545 -1.56857 0
M  V30 4793 C 458.312 1.92678 -0.242651 0
M  V30 4794 O 457.587 1.79394 0.751545 0
M  V30 4795 C 457.87 2.37314 -2.70839 0
M  V30 4796 C 457.723 1.77858 -4.13142 0
M  V30 4797 C 459.042 3.39068 -2.80573 0
M  V30 4798 H 456.161 0.466006 -0.570971 0
M  V30 4799 H 458.803 0.587784 -1.8068 0
M  V30 4800 H 456.953 2.96821 -2.50658 0
M  V30 4801 H 458.625 1.22385 -4.44769 0
M  V30 4802 H 456.868 1.08383 -4.20042 0
M  V30 4803 H 457.539 2.56624 -4.88721 0
M  V30 4804 H 460.015 2.89518 -2.98862 0
M  V30 4805 H 458.891 4.12566 -3.6205 0
M  V30 4806 H 459.152 3.9975 -1.88818 0
M  V30 4807 N 458.211 1.37122 0.776871 0
M  V30 4808 C 459.121 1.34651 1.9211 0
M  V30 4809 C 460.137 0.246824 1.7224 0
M  V30 4810 O 461.313 0.48134 1.95563 0
M  V30 4811 C 458.378 1.14748 3.2716 0
M  V30 4812 C 457.439 2.34308 3.5972 0
M  V30 4813 C 456.672 2.15345 4.88326 0
M  V30 4814 O 456.895 1.13507 5.58992 0
M  V30 4815 O 455.829 3.03414 5.1983 0
M  V30 4816 H 459.655 2.31013 1.97146 0
M  V30 4817 H 457.24 1.17799 0.918901 0
M  V30 4818 H 459.122 1.05616 4.0795 0
M  V30 4819 H 457.797 0.214562 3.22988 0
M  V30 4820 H 456.704 2.49011 2.79185 0
M  V30 4821 H 458.037 3.26149 3.68629 0
M  V30 4822 N 459.689 -1.00246 1.21608 0
M  V30 4823 C 460.621 -2.09244 0.935401 0
M  V30 4824 C 461.634 -1.62592 -0.0823594 0
M  V30 4825 O 462.823 -1.77865 0.150456 0
M  V30 4826 C 459.923 -3.36724 0.383453 0
M  V30 4827 C 459.096 -4.1245 1.45615 0
M  V30 4828 C 458.155 -5.18219 0.912991 0
M  V30 4829 O 457.181 -5.46337 1.59701 0
M  V30 4830 N 458.383 -5.7987 -0.270478 0
M  V30 4831 H 461.148 -2.33905 1.87373 0
M  V30 4832 H 458.709 -1.16748 1.12167 0
M  V30 4833 H 460.701 -4.047 0.00562157 0
M  V30 4834 H 459.271 -3.09201 -0.459758 0
M  V30 4835 H 458.491 -3.39241 2.00772 0
M  V30 4836 H 459.779 -4.59819 2.17817 0
M  V30 4837 H 459.177 -5.59381 -0.843195 0
M  V30 4838 H 457.734 -6.49126 -0.589794 0
M  V30 4839 N 461.167 -1.02423 -1.1978 0
M  V30 4840 C 462.099 -0.559152 -2.22275 0
M  V30 4841 C 463.112 0.36251 -1.58713 0
M  V30 4842 O 464.301 0.159641 -1.77785 0
M  V30 4843 C 461.401 0.205094 -3.38279 0
M  V30 4844 C 460.574 -0.720361 -4.31427 0
M  V30 4845 C 459.633 -0.00234368 -5.262 0
M  V30 4846 O 458.659 -0.627378 -5.65732 0
M  V30 4847 N 459.861 1.26996 -5.66438 0
M  V30 4848 H 462.626 -1.44064 -2.62804 0
M  V30 4849 H 460.187 -0.902692 -1.34399 0
M  V30 4850 H 462.179 0.694868 -3.9869 0
M  V30 4851 H 460.749 0.987947 -2.96578 0
M  V30 4852 H 459.969 -1.39031 -3.68869 0
M  V30 4853 H 461.257 -1.3495 -4.90577 0
M  V30 4854 H 460.655 1.79858 -5.36347 0
M  V30 4855 H 459.212 1.70432 -6.29123 0
M  V30 4856 N 462.645 1.35699 -0.801477 0
M  V30 4857 C 464.056 1.81415 -0.441073 0
M  V30 4858 C 464.407 1.66595 1.03636 0
M  V30 4859 O 463.532 1.19369 1.80499 0
M  V30 4860 C 464.127 3.29369 -0.793819 0
M  V30 4861 C 462.686 3.73248 -0.486083 0
M  V30 4862 C 461.833 2.57775 -1.02213 0
M  V30 4863 H 464.784 1.23749 -0.993572 0
M  V30 4864 H 464.805 3.80395 -0.0894158 0
M  V30 4865 H 464.317 3.40123 -1.86917 0
M  V30 4866 H 462.418 3.68046 0.580735 0
M  V30 4867 H 462.531 4.68222 -1.01513 0
M  V30 4868 H 460.895 2.50788 -0.444712 0
M  V30 4869 H 461.678 2.71309 -2.10348 0
M  V30 4870 N 464.123 0.554532 1.47522 0
M  V30 4871 C 465.073 -0.215008 2.26984 0
M  V30 4872 C 466.057 -0.88774 1.34194 0
M  V30 4873 O 467.249 -0.786489 1.58567 0
M  V30 4874 C 464.378 -1.24604 3.19889 0
M  V30 4875 C 463.464 -0.576857 4.20159 0
M  V30 4876 N 463.855 0.351541 5.04577 0
M  V30 4877 C 462.153 -0.831104 4.38188 0
M  V30 4878 C 462.854 0.739995 5.76974 0
M  V30 4879 N 461.83 0.0954407 5.43516 0
M  V30 4880 H 465.632 0.498843 2.89636 0
M  V30 4881 H 463.146 0.374279 1.58028 0
M  V30 4882 H 465.143 -1.81128 3.75498 0
M  V30 4883 H 463.803 -1.96101 2.58794 0
M  V30 4884 H 464.814 0.725556 5.12792 0
M  V30 4885 H 461.491 -1.53479 3.88266 0
M  V30 4886 H 462.881 1.50271 6.5488 0
M  V30 4887 N 465.601 -1.54893 0.290851 0
M  V30 4888 C 466.531 -2.26103 -0.583084 0
M  V30 4889 C 467.512 -1.25684 -1.14619 0
M  V30 4890 O 468.697 -1.54436 -1.17741 0
M  V30 4891 C 465.827 -2.99409 -1.75987 0
M  V30 4892 C 464.781 -4.0689 -1.32758 0
M  V30 4893 C 464.107 -4.67856 -2.58872 0
M  V30 4894 C 465.407 -5.20215 -0.46624 0
M  V30 4895 H 467.101 -2.99398 0.0108214 0
M  V30 4896 H 464.647 -1.43998 0.00664468 0
M  V30 4897 H 466.6 -3.47943 -2.37727 0
M  V30 4898 H 465.324 -2.23675 -2.37985 0
M  V30 4899 H 463.983 -3.59191 -0.733299 0
M  V30 4900 H 463.631 -3.88772 -3.19163 0
M  V30 4901 H 463.331 -5.40438 -2.30653 0
M  V30 4902 H 464.855 -5.19147 -3.21433 0
M  V30 4903 H 466.269 -5.64704 -0.989047 0
M  V30 4904 H 464.666 -5.99455 -0.27826 0
M  V30 4905 H 465.736 -4.82198 0.511173 0
M  V30 4906 N 467.08 -0.0183926 -1.57589 0
M  V30 4907 C 468.491 0.521927 -1.79256 0
M  V30 4908 C 468.842 1.72885 -0.927636 0
M  V30 4909 O 467.967 2.15978 -0.135091 0
M  V30 4910 C 468.562 0.953632 -3.25102 0
M  V30 4911 C 467.121 1.43913 -3.47801 0
M  V30 4912 C 466.268 0.398837 -2.74417 0
M  V30 4913 H 469.219 -0.244485 -1.56805 0
M  V30 4914 H 469.24 1.81863 -3.34224 0
M  V30 4915 H 468.752 0.0750123 -3.88028 0
M  V30 4916 H 466.853 2.33804 -2.90115 0
M  V30 4917 H 466.966 1.45391 -4.56507 0
M  V30 4918 H 465.33 0.864572 -2.39577 0
M  V30 4919 H 466.113 -0.471132 -3.40052 0
M  V30 4920 N 468.558 1.5553 0.254621 0
M  V30 4921 C 469.488 1.9268 1.31897 0
M  V30 4922 C 470.469 0.790797 1.506 0
M  V30 4923 O 471.654 1.05045 1.63337 0
M  V30 4924 C 468.784 2.21477 2.67517 0
M  V30 4925 C 467.738 3.37256 2.63519 0
M  V30 4926 C 467.064 3.51576 4.02862 0
M  V30 4927 C 468.364 4.73157 2.21179 0
M  V30 4928 H 470.058 2.81832 1.01051 0
M  V30 4929 H 467.604 1.35599 0.484662 0
M  V30 4930 H 469.557 2.46055 3.42104 0
M  V30 4931 H 468.281 1.29144 2.99982 0
M  V30 4932 H 466.94 3.12675 1.9139 0
M  V30 4933 H 466.588 2.56676 4.32581 0
M  V30 4934 H 466.288 4.2943 4.01078 0
M  V30 4935 H 467.812 3.78467 4.79161 0
M  V30 4936 H 469.226 4.97158 2.85494 0
M  V30 4937 H 467.623 5.54058 2.30521 0
M  V30 4938 H 468.693 4.70739 1.16332 0
M  V30 4939 N 470.036 -0.519951 1.48776 0
M  V30 4940 C 470.966 -1.63253 1.66945 0
M  V30 4941 C 471.947 -1.62014 0.518224 0
M  V30 4942 O 473.132 -1.79053 0.751919 0
M  V30 4943 C 470.262 -3.0181 1.71836 0
M  V30 4944 C 469.216 -3.17911 2.8656 0
M  V30 4945 C 468.542 -4.5763 2.76548 0
M  V30 4946 C 469.842 -2.99729 4.27738 0
M  V30 4947 H 471.536 -1.48302 2.6009 0
M  V30 4948 H 469.082 -0.712026 1.25165 0
M  V30 4949 H 471.035 -3.79525 1.83135 0
M  V30 4950 H 469.759 -3.17806 0.752775 0
M  V30 4951 H 468.418 -2.42616 2.74833 0
M  V30 4952 H 468.066 -4.70476 1.77937 0
M  V30 4953 H 467.766 -4.69346 3.53536 0
M  V30 4954 H 469.29 -5.37431 2.89828 0
M  V30 4955 H 470.704 -3.67228 4.40246 0
M  V30 4956 H 469.101 -3.22932 5.05801 0
M  V30 4957 H 470.171 -1.96047 4.43502 0
M  V30 4958 N 471.514 -1.37532 -0.769588 0
M  V30 4959 C 472.739 -1.36231 -1.56384 0
M  V30 4960 C 473.164 0.0495849 -1.88035 0
M  V30 4961 O 472.522 1.02723 -1.49391 0
M  V30 4962 C 472.57 -2.20986 -2.84952 0
M  V30 4963 O 471.674 -1.61597 -3.79421 0
M  V30 4964 H 471.015 -0.465387 -0.473615 0
M  V30 4965 H 473.545 -1.81085 -0.952342 0
M  V30 4966 H 473.555 -2.34277 -3.34034 0
M  V30 4967 H 472.23 -3.23612 -2.61243 0
M  V30 4968 H 470.807 -1.57359 -3.38072 0
M  V30 4969 N 472.992 0.995999 -1.22138 0
M  V30 4970 C 474.22 1.77066 -1.07029 0
M  V30 4971 C 474.635 1.8495 0.379357 0
M  V30 4972 O 473.992 1.3174 1.26297 0
M  V30 4973 C 474.043 3.20533 -1.67155 0
M  V30 4974 O 473.764 3.13082 -3.06449 0
M  V30 4975 C 475.265 4.14461 -1.5728 0
M  V30 4976 H 472.485 0.556179 -0.375374 0
M  V30 4977 H 475.029 1.25238 -1.61666 0
M  V30 4978 H 473.184 3.6944 -1.16589 0
M  V30 4979 H 473.598 4.03283 -3.35355 0
M  V30 4980 H 475.072 5.1289 -2.04078 0
M  V30 4981 H 475.549 4.36005 -0.528795 0
M  V30 4982 H 476.155 3.71449 -2.07136 0
M  V30 4983 N 474.47 1.03057 1.19235 0
M  V30 4984 C 475.4 0.633497 2.24742 0
M  V30 4985 C 476.381 -0.358335 1.66283 0
M  V30 4986 O 477.566 -0.240676 1.92703 0
M  V30 4987 C 474.696 -0.0147648 3.47297 0
M  V30 4988 C 473.65 0.899527 4.18441 0
M  V30 4989 C 472.976 0.116281 5.34574 0
M  V30 4990 C 474.276 2.21404 4.73051 0
M  V30 4991 H 475.97 1.5155 2.58211 0
M  V30 4992 H 473.516 0.73014 1.24117 0
M  V30 4993 H 475.469 -0.304202 4.20301 0
M  V30 4994 H 474.193 -0.931577 3.13032 0
M  V30 4995 H 472.852 1.17319 3.47321 0
M  V30 4996 H 472.5 -0.802619 4.96555 0
M  V30 4997 H 472.2 0.725293 5.83107 0
M  V30 4998 H 473.724 -0.166376 6.10373 0
M  V30 4999 H 475.138 1.98601 5.37802 0
M  V30 5000 H 473.535 2.77512 5.32078 0
M  V30 5001 H 474.605 2.86752 3.91026 0
M  V30 5002 N 475.948 -1.35272 0.808662 0
M  V30 5003 C 476.911 -2.28082 0.226093 0
M  V30 5004 C 477.911 -1.49673 -0.587762 0
M  V30 5005 O 479.101 -1.69404 -0.405943 0
M  V30 5006 C 476.233 -3.33955 -0.684596 0
M  V30 5007 H 477.426 -2.81116 1.04469 0
M  V30 5008 H 474.979 -1.45162 0.579466 0
M  V30 5009 H 475.714 -2.86111 -1.5268 0
M  V30 5010 H 475.499 -3.91965 -0.102699 0
M  V30 5011 H 476.989 -4.03219 -1.08646 0
M  V30 5012 N 477.426 -0.562348 -1.47226 0
M  V30 5013 C 478.674 -0.0401371 -2.0206 0
M  V30 5014 C 478.995 1.3165 -1.43852 0
M  V30 5015 O 478.265 1.85976 -0.615599 0
M  V30 5016 H 476.845 -0.0118479 -0.746906 0
M  V30 5017 H 479.507 -0.73352 -1.8057 0
M  V30 5018 H 478.603 0.0441254 -3.12069 0
M  V30 5019 N 478.904 1.54736 -0.299062 0
M  V30 5020 C 480.153 1.99279 0.311549 0
M  V30 5021 C 480.466 1.19107 1.55154 0
M  V30 5022 O 481.672 1.53908 2.23662 0
M  V30 5023 C 480.128 3.54768 0.605632 0
M  V30 5024 C 479.736 4.43746 -0.615914 0
M  V30 5025 C 481.48 4.07841 1.17754 0
M  V30 5026 C 479.387 5.90663 -0.29509 0
M  V30 5027 H 478.317 0.744359 0.120187 0
M  V30 5028 H 480.968 1.78919 -0.407464 0
M  V30 5029 H 479.35 3.71021 1.38419 0
M  V30 5030 H 480.524 4.39267 -1.39218 0
M  V30 5031 H 478.839 4.01434 -1.10633 0
M  V30 5032 H 481.436 5.15174 1.43179 0
M  V30 5033 H 481.779 3.58324 2.11918 0
M  V30 5034 H 482.312 3.95123 0.460739 0
M  V30 5035 H 479.051 6.44325 -1.20524 0
M  V30 5036 H 478.571 5.98155 0.44394 0
M  V30 5037 H 480.25 6.46916 0.104048 0
M  V30 5038 N 480.382 0.0267497 1.57577 0
M  V30 5039 C 481.798 -0.32962 1.56159 0
M  V30 5040 C 481.998 -1.73059 1.03213 0
M  V30 5041 O 481.054 -2.43233 0.677804 0
M  V30 5042 C 482.367 -0.18039 3.00158 0
M  V30 5043 C 483.915 -0.253334 3.11973 0
M  V30 5044 C 484.39 -0.132921 4.57807 0
M  V30 5045 N 485.881 -0.189979 4.6281 0
M  V30 5046 C 486.616 -0.120554 5.73273 0
M  V30 5047 N 486.112 -0.000180315 6.928 0
M  V30 5048 N 487.905 -0.174369 5.61829 0
M  V30 5049 H 480.056 0.942896 1.90324 0
M  V30 5050 H 482.319 0.3639 0.875375 0
M  V30 5051 H 482.025 0.784576 3.42837 0
M  V30 5052 H 481.899 -0.951565 3.65 0
M  V30 5053 H 484.286 -1.20876 2.69208 0
M  V30 5054 H 484.367 0.548177 2.49857 0
M  V30 5055 H 484.011 0.819073 5.01252 0
M  V30 5056 H 483.941 -0.953264 5.179 0
M  V30 5057 H 486.432 -0.283257 3.76837 0
M  V30 5058 H 486.745 0.0461666 7.72786 0
M  V30 5059 H 485.09 0.034569 6.94991 0
M  V30 5060 H 488.281 -0.266794 4.67339 0
M  V30 5061 H 488.454 -0.116802 6.47895 0
M  V30 5062 N 481.861 -1.55662 -0.24637 0
M  V30 5063 C 483.107 -1.77782 -0.975779 0
M  V30 5064 C 483.44 -0.592103 -1.84953 0
M  V30 5065 O 482.715 0.409588 -1.90138 0
M  V30 5066 C 482.998 -3.09788 -1.83584 0
M  V30 5067 C 482.851 -4.38764 -0.990241 0
M  V30 5068 C 484.17 -3.38029 -2.81823 0
M  V30 5069 H 481.289 -0.646789 -0.353317 0
M  V30 5070 H 483.931 -1.88398 -0.246248 0
M  V30 5071 H 482.081 -3.00869 -2.45784 0
M  V30 5072 H 483.753 -4.59675 -0.386897 0
M  V30 5073 H 481.996 -4.32798 -0.294626 0
M  V30 5074 H 482.667 -5.27514 -1.62584 0
M  V30 5075 H 485.143 -3.46915 -2.2976 0
M  V30 5076 H 484.019 -4.3161 -3.39122 0
M  V30 5077 H 484.28 -2.58968 -3.58313 0
M  V30 5078 N 483.339 0.512053 -1.4905 0
M  V30 5079 C 484.272 1.63209 -1.59493 0
M  V30 5080 C 485.25 1.56407 -0.444481 0
M  V30 5081 O 486.434 1.76623 -0.658535 0
M  V30 5082 C 483.561 3.01685 -1.53961 0
M  V30 5083 C 482.607 3.26786 -2.74068 0
M  V30 5084 S 483.44 3.11107 -4.35859 0
M  V30 5085 C 484.596 4.51997 -4.32954 0
M  V30 5086 H 484.829 1.54104 -2.54243 0
M  V30 5087 H 482.362 0.696382 -1.37804 0
M  V30 5088 H 484.32 3.81538 -1.51455 0
M  V30 5089 H 482.981 3.08215 -0.605178 0
M  V30 5090 H 482.174 4.27849 -2.66386 0
M  V30 5091 H 481.776 2.54635 -2.73928 0
M  V30 5092 H 484.068 5.43871 -4.03993 0
M  V30 5093 H 485.011 4.64731 -5.34257 0
M  V30 5094 H 485.419 4.32159 -3.63178 0
M  V30 5095 N 484.817 1.37938 0.762283 0
M  V30 5096 C 486.063 1.33866 1.52341 0
M  V30 5097 C 486.396 -0.0738961 1.94059 0
M  V30 5098 O 485.671 -1.03326 1.64785 0
M  V30 5099 C 485.954 2.28644 2.78197 0
M  V30 5100 C 485.807 3.78722 2.42672 0
M  V30 5101 C 487.126 2.21702 3.80179 0
M  V30 5102 H 484.245 0.487593 0.55265 0
M  V30 5103 H 486.887 1.68717 0.873767 0
M  V30 5104 H 485.037 1.99055 3.33631 0
M  V30 5105 H 486.709 4.18948 1.93081 0
M  V30 5106 H 484.952 3.96827 1.75244 0
M  V30 5107 H 485.623 4.40486 3.3268 0
M  V30 5108 H 488.099 2.47805 3.34263 0
M  V30 5109 H 486.975 2.90143 4.65949 0
M  V30 5110 H 487.236 1.21301 4.25133 0
M  V30 5111 N 486.295 -0.989507 1.22664 0
M  V30 5112 C 487.245 -2.06478 0.967005 0
M  V30 5113 C 488.229 -1.60682 -0.0836374 0
M  V30 5114 O 489.421 -1.76541 0.127322 0
M  V30 5115 C 486.55 -3.38861 0.550313 0
M  V30 5116 C 485.636 -3.9128 1.63587 0
M  V30 5117 N 486.027 -4.16884 2.86429 0
M  V30 5118 C 484.325 -4.1972 1.50834 0
M  V30 5119 C 485.026 -4.5954 3.56648 0
M  V30 5120 N 484.002 -4.63434 2.84131 0
M  V30 5121 H 487.804 -2.24219 1.90008 0
M  V30 5122 H 485.318 -1.17153 1.12467 0
M  V30 5123 H 487.315 -4.15465 0.345612 0
M  V30 5124 H 485.975 -3.22518 -0.375822 0
M  V30 5125 H 486.986 -4.04976 3.22823 0
M  V30 5126 H 483.663 -4.1243 0.648643 0
M  V30 5127 H 485.053 -4.87944 4.61909 0
M  V30 5128 N 487.773 -1.03688 -1.18687 0
M  V30 5129 C 489.021 -0.736572 -1.88199 0
M  V30 5130 C 489.342 0.737665 -1.80509 0
M  V30 5131 O 488.612 1.53204 -1.22088 0
M  V30 5132 H 487.192 -0.269466 -0.696704 0
M  V30 5133 H 489.854 -1.31282 -1.44052 0
M  V30 5134 H 488.95 -1.03802 -2.94332 0
M  V30 5135 N 489.251 1.34841 -0.815825 0
M  V30 5136 C 490.667 1.51543 -0.500697 0
M  V30 5137 C 490.867 1.76261 0.976444 0
M  V30 5138 O 489.923 1.8094 1.76117 0
M  V30 5139 C 491.236 2.68487 -1.35407 0
M  V30 5140 C 492.784 2.82368 -1.35046 0
M  V30 5141 C 493.259 4.02347 -2.18816 0
M  V30 5142 N 494.75 4.09542 -2.16402 0
M  V30 5143 C 495.485 5.01517 -2.77971 0
M  V30 5144 N 494.981 5.98763 -3.48503 0
M  V30 5145 N 496.774 4.94334 -2.67563 0
M  V30 5146 H 488.925 1.17055 -1.77234 0
M  V30 5147 H 491.188 0.573481 -0.754866 0
M  V30 5148 H 490.894 2.56829 -2.40274 0
M  V30 5149 H 490.768 3.63321 -1.01377 0
M  V30 5150 H 493.155 2.93471 -0.309604 0
M  V30 5151 H 493.236 1.88363 -1.73069 0
M  V30 5152 H 492.88 3.92004 -3.22948 0
M  V30 5153 H 492.81 4.95551 -1.78148 0
M  V30 5154 H 495.301 3.39932 -1.65091 0
M  V30 5155 H 495.614 6.6556 -3.92747 0
M  V30 5156 H 493.959 5.98909 -3.52609 0
M  V30 5157 H 497.15 4.1732 -2.12041 0
M  V30 5158 H 497.323 5.6582 -3.15834 0
M  V30 5159 N 490.729 0.570148 1.46925 0
M  V30 5160 C 491.677 -0.183181 2.31878 0
M  V30 5161 C 492.671 -0.896721 1.43719 0
M  V30 5162 O 493.877 -0.816536 1.60414 0
M  V30 5163 H 490.252 -0.077944 0.74795 0
M  V30 5164 H 492.223 0.552312 2.93244 0
M  V30 5165 C 490.972 -1.19172 3.2664 0
M  V30 5166 H 490.295 -0.652088 3.94446 0
M  V30 5167 H 491.735 -1.68946 3.88887 0
M  V30 5168 C 490.194 -2.24627 2.51086 0
M  V30 5169 O 490.724 -3.31773 2.26472 0
M  V30 5170 N 488.93 -1.98898 2.11867 0
M  V30 5171 H 488.477 -1.11777 2.32086 0
M  V30 5172 H 488.435 -2.6967 1.61634 0
M  V30 5173 N 492.207 -1.54576 0.307264 0
M  V30 5174 C 493.157 -2.20467 -0.581249 0
M  V30 5175 C 494.141 -1.17972 -1.09414 0
M  V30 5176 O 495.333 -1.43667 -1.03387 0
M  V30 5177 C 492.462 -2.95369 -1.74963 0
M  V30 5178 C 491.548 -4.05186 -1.25241 0
M  V30 5179 N 491.939 -5.03577 -0.47364 0
M  V30 5180 C 490.237 -4.18841 -1.53259 0
M  V30 5181 C 490.938 -5.81328 -0.208083 0
M  V30 5182 N 489.914 -5.37834 -0.789651 0
M  V30 5183 H 493.716 -2.93892 0.0212221 0
M  V30 5184 H 491.23 -1.62011 0.112325 0
M  V30 5185 H 493.227 -3.41046 -2.39777 0
M  V30 5186 H 491.887 -2.23461 -2.35574 0
M  V30 5187 H 492.898 -5.17766 -0.117963 0
M  V30 5188 H 489.575 -3.58141 -2.14573 0
M  V30 5189 H 490.965 -6.706 0.417793 0
M  V30 5190 N 493.685 -0.035106 -1.57561 0
M  V30 5191 C 494.913 0.652258 -1.9635 0
M  V30 5192 C 495.328 1.65317 -0.911897 0
M  V30 5193 O 494.685 1.82194 0.105657 0
M  V30 5194 C 494.736 1.35337 -3.35211 0
M  V30 5195 O 494.457 0.392548 -4.36338 0
M  V30 5196 C 495.958 2.13199 -3.88666 0
M  V30 5197 H 493.178 0.179444 -0.646561 0
M  V30 5198 H 495.722 -0.0966459 -2.04271 0
M  V30 5199 H 493.877 2.05362 -3.28489 0
M  V30 5200 H 494.291 0.891097 -5.16875 0
M  V30 5201 H 495.765 2.577 -4.88154 0
M  V30 5202 H 496.242 2.97353 -3.23231 0
M  V30 5203 H 496.848 1.48118 -3.98674 0
M  V30 5204 N 495.163 1.55791 0.238111 0
M  V30 5205 C 496.574 1.68383 0.806472 0
M  V30 5206 C 496.925 0.634157 1.85669 0
M  V30 5207 O 496.05 -0.217913 2.153 0
M  V30 5208 C 496.645 3.05268 1.46959 0
M  V30 5209 C 495.204 3.1977 1.98555 0
M  V30 5210 C 494.351 2.64279 0.839763 0
M  V30 5211 H 497.302 1.58694 0.0137535 0
M  V30 5212 H 497.323 3.00203 2.33792 0
M  V30 5213 H 496.835 3.81643 0.704993 0
M  V30 5214 H 494.936 2.48234 2.77868 0
M  V30 5215 H 495.049 4.26788 2.17689 0
M  V30 5216 H 493.413 2.22329 1.24265 0
M  V30 5217 H 494.196 3.43187 0.0881032 0
M  V30 5218 N 496.642 -0.504142 1.49319 0
M  V30 5219 C 497.889 -1.25846 1.58647 0
M  V30 5220 C 498.217 -1.92592 0.27177 0
M  V30 5221 O 497.472 -1.81167 -0.74007 0
M  V30 5222 C 497.771 -2.35021 2.69258 0
M  V30 5223 C 497.437 -1.85755 4.1086 0
M  V30 5224 C 496.099 -1.72038 4.49395 0
M  V30 5225 C 498.451 -1.48844 4.99495 0
M  V30 5226 C 495.779 -1.19783 5.74342 0
M  V30 5227 C 498.131 -0.980422 6.24956 0
M  V30 5228 C 496.795 -0.829622 6.62324 0
M  V30 5229 H 496.065 -0.460505 0.580531 0
M  V30 5230 H 498.712 -0.559716 1.83138 0
M  V30 5231 H 497.017 -3.10672 2.38726 0
M  V30 5232 H 498.714 -2.93083 2.73685 0
M  V30 5233 H 495.304 -1.9739 3.80441 0
M  V30 5234 H 499.488 -1.5829 4.70381 0
M  V30 5235 H 494.744 -1.06817 6.01997 0
M  V30 5236 H 498.918 -0.685608 6.93017 0
M  V30 5237 H 496.545 -0.42253 7.59025 0
M  V30 5238 N 498.12 -1.38341 -0.754957 0
M  V30 5239 C 499.05 -1.38176 -1.88227 0
M  V30 5240 C 500.031 -0.247873 -1.68284 0
M  V30 5241 O 501.216 -0.45075 -1.88896 0
M  V30 5242 C 498.346 -1.20471 -3.25736 0
M  V30 5243 C 497.3 -2.3105 -3.60278 0
M  V30 5244 C 496.626 -1.98452 -4.96509 0
M  V30 5245 C 497.926 -3.73305 -3.65295 0
M  V30 5246 H 499.62 -2.32512 -1.88622 0
M  V30 5247 H 497.166 -1.1192 -0.906082 0
M  V30 5248 H 499.119 -1.18982 -4.04254 0
M  V30 5249 H 497.843 -0.225965 -3.25817 0
M  V30 5250 H 496.502 -2.31723 -2.84078 0
M  V30 5251 H 496.15 -0.990641 -4.93148 0
M  V30 5252 H 495.85 -2.7251 -5.20588 0
M  V30 5253 H 497.374 -1.98578 -5.77407 0
M  V30 5254 H 498.788 -3.7467 -4.3393 0
M  V30 5255 H 497.185 -4.46557 -4.00883 0
M  V30 5256 H 498.255 -4.05719 -2.65556 0
M  V30 5257 N 499.598 0.982988 -1.23187 0
M  V30 5258 C 500.846 1.72052 -1.06031 0
M  V30 5259 C 501.167 1.90769 0.404019 0
M  V30 5260 O 500.437 1.47446 1.28982 0
M  V30 5261 H 499.017 0.637499 -0.389363 0
M  V30 5262 H 501.679 1.18338 -1.54862 0
M  V30 5263 H 500.775 2.7111 -1.54615 0
M  V30 5264 N 501.076 1.04316 1.18135 0
M  V30 5265 C 502.026 0.606731 2.19779 0
M  V30 5266 C 503.01 -0.352144 1.56999 0
M  V30 5267 O 504.202 -0.170795 1.76174 0
M  V30 5268 C 501.331 -0.0262443 3.4329 0
M  V30 5269 C 500.417 0.955928 4.13186 0
M  V30 5270 N 500.808 2.12395 4.59045 0
M  V30 5271 C 499.106 0.782473 4.39082 0
M  V30 5272 C 499.807 2.74458 5.12882 0
M  V30 5273 N 498.783 2.02316 5.04548 0
M  V30 5274 H 502.585 1.49679 2.5293 0
M  V30 5275 H 500.099 0.912088 1.34368 0
M  V30 5276 H 502.096 -0.356617 4.15372 0
M  V30 5277 H 500.756 -0.911811 3.11635 0
M  V30 5278 H 501.767 2.50272 4.53414 0
M  V30 5279 H 498.444 -0.0527906 4.17467 0
M  V30 5280 H 499.834 3.73459 5.5855 0
M  V30 5281 N 502.554 -1.34406 0.822964 0
M  V30 5282 C 503.504 -2.26963 0.217208 0
M  V30 5283 C 504.488 -1.48536 -0.618545 0
M  V30 5284 O 505.68 -1.7056 -0.473118 0
M  V30 5285 C 502.809 -3.37655 -0.619973 0
M  V30 5286 C 501.895 -4.23495 0.226411 0
M  V30 5287 N 502.286 -4.88876 1.29744 0
M  V30 5288 C 500.584 -4.45999 0.0107554 0
M  V30 5289 C 501.285 -5.52642 1.81553 0
M  V30 5290 N 500.261 -5.31949 1.11942 0
M  V30 5291 H 504.063 -2.75017 1.03647 0
M  V30 5292 H 501.577 -1.48126 0.665777 0
M  V30 5293 H 503.574 -4.02932 -1.07011 0
M  V30 5294 H 502.234 -2.91151 -1.43739 0
M  V30 5295 H 503.245 -4.89886 1.68024 0
M  V30 5296 H 499.922 -4.10253 -0.774495 0
M  V30 5297 H 501.312 -6.14755 2.71156 0
M  V30 5298 N 504.032 -0.577932 -1.46621 0
M  V30 5299 C 505.257 -0.0652536 -2.07297 0
M  V30 5300 C 505.682 1.22828 -1.4246 0
M  V30 5301 O 505.04 1.74075 -0.506718 0
M  V30 5302 C 505.088 0.0920589 -3.60482 0
M  V30 5303 O 504.192 1.14972 -3.96049 0
M  V30 5304 H 503.533 -0.06065 -0.661224 0
M  V30 5305 H 506.063 -0.799515 -1.88332 0
M  V30 5306 H 506.073 0.299741 -4.06897 0
M  V30 5307 H 504.748 -0.852612 -4.07067 0
M  V30 5308 H 503.325 0.920879 -3.61351 0
M  V30 5309 N 505.51 1.54411 -0.315457 0
M  V30 5310 C 506.757 2.00419 0.289543 0
M  V30 5311 C 507.085 1.20373 1.52776 0
M  V30 5312 O 506.34 0.271769 1.93804 0
M  V30 5313 C 506.639 3.50936 0.676652 0
M  V30 5314 C 506.305 4.48532 -0.461472 0
M  V30 5315 C 504.967 4.74936 -0.773879 0
M  V30 5316 C 507.319 5.06567 -1.22637 0
M  V30 5317 C 504.647 5.56634 -1.85405 0
M  V30 5318 C 506.999 5.89441 -2.29657 0
M  V30 5319 C 505.663 6.1415 -2.61488 0
M  V30 5320 H 504.933 0.733386 0.105951 0
M  V30 5321 H 507.58 1.86434 -0.437554 0
M  V30 5322 H 505.885 3.62606 1.48405 0
M  V30 5323 H 507.582 3.83971 1.15618 0
M  V30 5324 H 504.172 4.28096 -0.207893 0
M  V30 5325 H 508.356 4.86157 -0.998271 0
M  V30 5326 H 503.612 5.74012 -2.10523 0
M  V30 5327 H 507.786 6.33432 -2.89374 0
M  V30 5328 H 505.413 6.77245 -3.45317 0
M  V30 5329 N 506.988 0.0434614 1.5754 0
M  V30 5330 C 508.213 -0.645358 1.97104 0
M  V30 5331 C 508.638 -1.64037 0.920521 0
M  V30 5332 O 507.996 -1.80922 -0.11708 0
M  V30 5333 C 508.044 -1.31547 3.35749 0
M  V30 5334 O 507.148 -2.43103 3.33129 0
M  V30 5335 H 506.489 -0.168403 0.64229 0
M  V30 5336 H 509.019 0.109573 2.04306 0
M  V30 5337 H 509.029 -1.66895 3.72304 0
M  V30 5338 H 507.704 -0.586205 4.11748 0
M  V30 5339 H 506.281 -2.0976 3.0831 0
M  V30 5340 N 508.466 -1.55915 -0.229846 0
M  V30 5341 C 509.712 -1.78807 -0.956868 0
M  V30 5342 C 510.045 -0.611687 -1.84315 0
M  V30 5343 O 509.32 0.389398 -1.90562 0
M  V30 5344 C 509.603 -3.11718 -1.80288 0
M  V30 5345 C 509.456 -4.3979 -0.943649 0
M  V30 5346 C 510.775 -3.40999 -2.78222 0
M  V30 5347 H 507.894 -0.6505 -0.346437 0
M  V30 5348 H 510.536 -1.88648 -0.226252 0
M  V30 5349 H 508.686 -3.03459 -2.42579 0
M  V30 5350 H 510.358 -4.60059 -0.338121 0
M  V30 5351 H 508.601 -4.33086 -0.248705 0
M  V30 5352 H 509.272 -5.29208 -1.5698 0
M  V30 5353 H 511.748 -3.49332 -2.26067 0
M  V30 5354 H 510.624 -4.35183 -3.34526 0
M  V30 5355 H 510.885 -2.62754 -3.55546 0
M  V30 5356 N 509.944 0.496216 -1.49584 0
M  V30 5357 C 511.36 0.827814 -1.36453 0
M  V30 5358 C 511.56 1.97464 -0.401285 0
M  V30 5359 O 510.616 2.51958 0.165296 0
M  V30 5360 C 511.929 1.16352 -2.77277 0
M  V30 5361 C 513.477 1.27145 -2.86013 0
M  V30 5362 C 513.952 1.64042 -4.27615 0
M  V30 5363 N 515.443 1.71082 -4.30448 0
M  V30 5364 C 516.178 2.01085 -5.36984 0
M  V30 5365 N 515.674 2.2928 -6.5376 0
M  V30 5366 N 517.467 2.02376 -5.24405 0
M  V30 5367 H 509.618 -0.259947 -2.10803 0
M  V30 5368 H 511.881 -0.0537163 -0.946477 0
M  V30 5369 H 511.587 0.394153 -3.49484 0
M  V30 5370 H 511.461 2.10582 -3.12946 0
M  V30 5371 H 513.848 2.03152 -2.1404 0
M  V30 5372 H 513.929 0.309542 -2.5392 0
M  V30 5373 H 513.573 0.88583 -5.00115 0
M  V30 5374 H 513.503 2.6134 -4.57175 0
M  V30 5375 H 515.994 1.51434 -3.46232 0
M  V30 5376 H 516.307 2.51376 -7.30774 0
M  V30 5377 H 514.652 2.26726 -6.56978 0
M  V30 5378 H 517.843 1.79829 -4.32179 0
M  V30 5379 H 518.016 2.25425 -6.07526 0
M  V30 5380 N 511.423 1.38739 0.74761 0
M  V30 5381 C 512.834 1.31507 1.32524 0
M  V30 5382 C 513.185 -0.0263963 1.96182 0
M  V30 5383 O 512.31 -0.92849 1.95469 0
M  V30 5384 C 512.905 2.38162 2.40966 0
M  V30 5385 C 511.464 2.34489 2.94434 0
M  V30 5386 C 510.611 2.20712 1.67873 0
M  V30 5387 H 513.562 1.4901 0.546043 0
M  V30 5388 H 513.583 2.04222 3.21051 0
M  V30 5389 H 513.095 3.35783 1.94605 0
M  V30 5390 H 511.196 1.40467 3.45108 0
M  V30 5391 H 511.309 3.28861 3.48407 0
M  V30 5392 H 509.673 1.67667 1.91729 0
M  V30 5393 H 510.456 3.20285 1.23582 0
M  V30 5394 N 512.901 -0.976442 1.23707 0
M  V30 5395 C 514.149 -1.71487 1.06942 0
M  V30 5396 C 514.47 -1.9098 -0.393897 0
M  V30 5397 O 513.74 -1.48128 -1.28198 0
M  V30 5398 H 512.32 -0.635425 0.392739 0
M  V30 5399 H 514.982 -1.17515 1.55487 0
M  V30 5400 H 514.078 -2.70286 1.56051 0
M  V30 5401 N 514.379 -1.04941 -1.1758 0
M  V30 5402 C 515.607 -0.778294 -1.91703 0
M  V30 5403 C 516.022 0.665697 -1.76675 0
M  V30 5404 O 515.379 1.45456 -1.10222 0
M  V30 5405 C 515.43 -1.14628 -3.42845 0
M  V30 5406 O 515.151 -2.53359 -3.57409 0
M  V30 5407 C 516.652 -0.900931 -4.34049 0
M  V30 5408 H 513.872 -0.283167 -0.608323 0
M  V30 5409 H 516.416 -1.39942 -1.49119 0
M  V30 5410 H 514.571 -0.569953 -3.83184 0
M  V30 5411 H 514.985 -2.67709 -4.51035 0
M  V30 5412 H 516.459 -1.20817 -5.38616 0
M  V30 5413 H 516.936 0.163966 -4.38894 0
M  V30 5414 H 517.542 -1.46097 -3.99419 0
M  V30 5415 N 515.857 1.33968 -0.830081 0
M  V30 5416 C 516.767 2.33164 -0.259207 0
M  V30 5417 C 517.783 1.62951 0.610164 0
M  V30 5418 O 518.959 1.94668 0.516369 0
M  V30 5419 C 516.024 3.42088 0.563598 0
M  V30 5420 C 515.085 4.28037 -0.329014 0
M  V30 5421 C 514.318 5.3176 0.454616 0
M  V30 5422 O 514.541 5.44876 1.6872 0
M  V30 5423 O 513.475 6.01669 -0.166794 0
M  V30 5424 H 517.301 2.83832 -1.08041 0
M  V30 5425 H 514.886 1.37154 -0.59239 0
M  V30 5426 H 516.768 4.08581 1.03147 0
M  V30 5427 H 515.443 2.93651 1.36201 0
M  V30 5428 H 514.35 3.64443 -0.844538 0
M  V30 5429 H 515.683 4.79934 -1.09196 0
M  V30 5430 N 517.335 0.585699 1.46312 0
M  V30 5431 C 518.298 -0.135673 2.28798 0
M  V30 5432 C 519.298 -0.815988 1.38558 0
M  V30 5433 O 520.488 -0.667487 1.60904 0
M  V30 5434 C 517.62 -1.20163 3.1902 0
M  V30 5435 H 518.813 0.589257 2.94054 0
M  V30 5436 H 516.366 0.343794 1.52472 0
M  V30 5437 H 517.101 -1.95804 2.58517 0
M  V30 5438 H 516.886 -0.718282 3.85465 0
M  V30 5439 H 518.376 -1.70749 3.81096 0
M  V30 5440 N 518.813 -1.54241 0.323641 0
M  V30 5441 C 520.041 -2.04985 -0.280871 0
M  V30 5442 C 520.456 -1.19978 -1.45777 0
M  V30 5443 O 519.813 -0.230471 -1.81039 0
M  V30 5444 C 519.864 -3.54353 -0.715258 0
M  V30 5445 O 519.585 -4.36132 0.414817 0
M  V30 5446 C 521.086 -4.21189 -1.38257 0
M  V30 5447 H 518.306 -0.66851 -0.0577502 0
M  V30 5448 H 520.85 -1.99029 0.469852 0
M  V30 5449 H 519.005 -3.60596 -1.41596 0
M  V30 5450 H 519.419 -5.2445 0.0725227 0
M  V30 5451 H 520.893 -5.27154 -1.63745 0
M  V30 5452 H 521.37 -3.72307 -2.32989 0
M  V30 5453 H 521.976 -4.19085 -0.724447 0
M  V30 5454 N 520.291 -0.0518155 -1.57515 0
M  V30 5455 C 521.54 0.621286 -1.91893 0
M  V30 5456 C 521.853 1.71966 -0.932052 0
M  V30 5457 O 523.059 2.45096 -1.16791 0
M  V30 5458 C 521.515 1.15641 -3.40816 0
M  V30 5459 C 521.123 0.0901146 -4.47909 0
M  V30 5460 C 522.867 1.80472 -3.84227 0
M  V30 5461 C 520.774 0.638154 -5.87947 0
M  V30 5462 H 519.704 0.235835 -0.716169 0
M  V30 5463 H 522.355 -0.120809 -1.83102 0
M  V30 5464 H 520.737 1.95084 -3.44613 0
M  V30 5465 H 521.911 -0.683525 -4.55702 0
M  V30 5466 H 520.226 -0.460774 -4.13843 0
M  V30 5467 H 522.823 2.22471 -4.86221 0
M  V30 5468 H 523.166 2.65669 -3.20508 0
M  V30 5469 H 523.699 1.07683 -3.82948 0
M  V30 5470 H 520.438 -0.176202 -6.55263 0
M  V30 5471 H 519.958 1.37976 -5.83714 0
M  V30 5472 H 521.637 1.12085 -6.37217 0
M  V30 5473 N 521.769 1.56035 0.221574 0
M  V30 5474 C 522.994 1.83476 0.967026 0
M  V30 5475 C 523.419 0.632139 1.7716 0
M  V30 5476 O 522.777 -0.419082 1.7639 0
M  V30 5477 C 522.825 3.08907 1.86034 0
M  V30 5478 O 521.929 2.876 2.95567 0
M  V30 5479 H 521.27 0.604913 0.273817 0
M  V30 5480 H 523.8 2.03247 0.234893 0
M  V30 5481 H 523.81 3.3901 2.27016 0
M  V30 5482 H 522.485 3.96068 1.26898 0
M  V30 5483 H 521.062 2.6873 2.58532 0
M  V30 5484 N 523.247 -0.488276 1.49845 0
M  V30 5485 C 524.496 -1.23826 1.59217 0
M  V30 5486 C 524.809 -1.93439 0.289966 0
M  V30 5487 O 526.015 -2.70229 0.262382 0
M  V30 5488 C 524.471 -2.24902 2.80976 0
M  V30 5489 C 524.079 -1.6117 4.18005 0
M  V30 5490 C 525.823 -3.00648 2.99685 0
M  V30 5491 C 523.73 -2.60431 5.3097 0
M  V30 5492 H 522.66 -0.465858 0.592868 0
M  V30 5493 H 525.311 -0.510645 1.76252 0
M  V30 5494 H 523.693 -3.0088 2.57463 0
M  V30 5495 H 524.867 -0.910968 4.51706 0
M  V30 5496 H 523.182 -0.97767 4.0476 0
M  V30 5497 H 525.779 -3.74903 3.81251 0
M  V30 5498 H 526.122 -3.5902 2.10738 0
M  V30 5499 H 526.655 -2.31784 3.23297 0
M  V30 5500 H 523.394 -2.06823 6.22017 0
M  V30 5501 H 522.914 -3.28707 5.01709 0
M  V30 5502 H 524.593 -3.22606 5.60834 0
M  V30 5503 N 524.725 -1.39134 -0.740242 0
M  V30 5504 C 526.141 -1.20623 -1.0451 0
M  V30 5505 C 526.341 -0.0641651 -2.01398 0
M  V30 5506 O 525.397 0.585843 -2.4561 0
M  V30 5507 C 526.71 -2.53815 -1.6124 0
M  V30 5508 C 528.258 -2.60615 -1.73346 0
M  V30 5509 C 528.733 -3.94015 -2.33486 0
M  V30 5510 N 530.224 -3.95627 -2.40902 0
M  V30 5511 C 530.959 -4.95616 -2.88361 0
M  V30 5512 N 530.455 -6.06003 -3.35756 0
M  V30 5513 N 532.248 -4.82998 -2.87523 0
M  V30 5514 H 524.399 -2.12176 -0.0975576 0
M  V30 5515 H 526.662 -0.942066 -0.105904 0
M  V30 5516 H 526.368 -3.37911 -0.975144 0
M  V30 5517 H 526.242 -2.73162 -2.6012 0
M  V30 5518 H 528.629 -1.76906 -2.36195 0
M  V30 5519 H 528.71 -2.45123 -0.731336 0
M  V30 5520 H 528.354 -4.78153 -1.71267 0
M  V30 5521 H 528.284 -4.06825 -3.34366 0
M  V30 5522 H 530.775 -3.15903 -2.07398 0
M  V30 5523 H 531.088 -6.78215 -3.70464 0
M  V30 5524 H 529.433 -6.09604 -3.33778 0
M  V30 5525 H 532.624 -3.95866 -2.49816 0
M  V30 5526 H 532.797 -5.61072 -3.24196 0
M  V30 5527 N 526.204 0.969867 -1.24223 0
M  V30 5528 C 527.114 2.09806 -1.0497 0
M  V30 5529 C 528.13 1.73998 0.00886455 0
M  V30 5530 O 529.306 2.00513 -0.188848 0
M  V30 5531 C 526.371 3.40467 -0.654452 0
M  V30 5532 C 525.432 3.90236 -1.78926 0
M  V30 5533 C 524.665 5.14662 -1.41277 0
M  V30 5534 O 524.888 5.69602 -0.301632 0
M  V30 5535 O 523.822 5.58761 -2.23763 0
M  V30 5536 H 527.648 2.28942 -1.99548 0
M  V30 5537 H 525.233 1.08197 -1.03023 0
M  V30 5538 H 527.115 4.19039 -0.445452 0
M  V30 5539 H 525.79 3.22636 0.262216 0
M  V30 5540 H 524.697 3.12735 -2.05299 0
M  V30 5541 H 526.03 4.1254 -2.68462 0
M  V30 5542 N 527.682 1.05563 1.17022 0
M  V30 5543 C 528.959 0.68165 1.83338 0
M  V30 5544 C 529.339 -0.837665 1.93769 0
M  V30 5545 O 528.687 -1.74507 1.47511 0
M  V30 5546 C 528.897 1.375 3.20772 0
M  V30 5547 C 530.245 1.51545 3.96635 0
M  V30 5548 O 531.269 1.33431 3.30264 0
M  V30 5549 O 530.128 1.812 5.15586 0
M  V30 5550 H 527.222 0.240412 0.791285 0
M  V30 5551 H 529.768 1.15545 1.24288 0
M  V30 5552 H 528.54 2.41135 3.08171 0
M  V30 5553 H 528.163 0.890798 3.87493 0
M  V30 5554 N 529.16 -1.33526 0.837174 0
M  V30 5555 C 530.07 -2.33023 0.271568 0
M  V30 5556 C 531.086 -1.63272 -0.601514 0
M  V30 5557 O 532.262 -1.94939 -0.506038 0
M  V30 5558 C 529.327 -3.42382 -0.545448 0
M  V30 5559 C 528.388 -4.27857 0.351709 0
M  V30 5560 C 527.621 -5.31994 -0.426409 0
M  V30 5561 O 527.844 -5.45763 -1.65828 0
M  V30 5562 O 526.778 -6.01572 0.1987 0
M  V30 5563 H 530.604 -2.83256 1.09545 0
M  V30 5564 H 528.189 -1.36837 0.599655 0
M  V30 5565 H 530.071 -4.09122 -1.00979 0
M  V30 5566 H 528.746 -2.94369 -1.34641 0
M  V30 5567 H 527.653 -3.6399 0.863853 0
M  V30 5568 H 528.986 -4.79349 1.1174 0
M  V30 5569 N 530.638 -0.59345 -1.46 0
M  V30 5570 C 531.884 -0.0832754 -2.02629 0
M  V30 5571 C 532.217 1.27749 -1.46266 0
M  V30 5572 O 531.492 1.8395 -0.631866 0
M  V30 5573 C 531.775 -0.0290756 -3.60088 0
M  V30 5574 C 531.628 -1.41951 -4.26814 0
M  V30 5575 C 532.947 0.666055 -4.35031 0
M  V30 5576 H 530.066 -0.031736 -0.736316 0
M  V30 5577 H 532.708 -0.762711 -1.74019 0
M  V30 5578 H 530.858 0.549532 -3.84594 0
M  V30 5579 H 532.53 -2.04411 -4.13538 0
M  V30 5580 H 530.773 -1.98422 -3.8576 0
M  V30 5581 H 531.444 -1.33395 -5.3564 0
M  V30 5582 H 533.92 0.174401 -4.15734 0
M  V30 5583 H 532.796 0.673041 -5.44758 0
M  V30 5584 H 533.057 1.72946 -4.06869 0
M  V30 5585 N 532.116 1.54067 -0.331816 0
M  V30 5586 C 533.066 2.21363 0.546101 0
M  V30 5587 C 534.05 1.19698 1.07523 0
M  V30 5588 O 535.242 1.45293 1.01088 0
M  V30 5589 C 532.371 2.98115 1.70242 0
M  V30 5590 C 531.457 4.07127 1.18779 0
M  V30 5591 N 531.848 5.04267 0.393465 0
M  V30 5592 C 530.146 4.21226 1.46576 0
M  V30 5593 C 530.847 5.81585 0.115572 0
M  V30 5594 N 529.823 5.39022 0.703987 0
M  V30 5595 H 533.625 2.93821 -0.0679751 0
M  V30 5596 H 531.139 1.61812 -0.138085 0
M  V30 5597 H 533.136 3.44818 2.34321 0
M  V30 5598 H 531.796 2.27181 2.31989 0
M  V30 5599 H 532.807 5.17888 0.0355757 0
M  V30 5600 H 529.484 3.61509 2.08848 0
M  V30 5601 H 530.874 6.6985 -0.524426 0
M  V30 5602 N 533.594 0.0601682 1.57485 0
M  V30 5603 C 535.01 -0.296422 1.56823 0
M  V30 5604 C 535.21 -1.70831 1.0686 0
M  V30 5605 O 534.266 -2.4174 0.729245 0
M  V30 5606 C 535.579 -0.116681 3.00474 0
M  V30 5607 C 537.127 -0.187103 3.1244 0
M  V30 5608 C 537.602 -0.035783 4.57986 0
M  V30 5609 N 539.093 -0.0917676 4.63109 0
M  V30 5610 C 539.828 0.00107251 5.734 0
M  V30 5611 N 539.324 0.146773 6.92645 0
M  V30 5612 N 541.117 -0.0551577 5.62073 0
M  V30 5613 H 533.268 0.983055 1.88281 0
M  V30 5614 H 535.531 0.382386 0.867459 0
M  V30 5615 H 535.237 0.85712 3.41096 0
M  V30 5616 H 535.111 -0.873929 3.66936 0
M  V30 5617 H 537.498 -1.15138 2.71712 0
M  V30 5618 H 537.579 0.601052 2.48638 0
M  V30 5619 H 537.223 0.925212 4.99402 0
M  V30 5620 H 537.153 -0.843196 5.19806 0
M  V30 5621 H 539.644 -0.203261 3.77353 0
M  V30 5622 H 539.957 0.210076 7.72514 0
M  V30 5623 H 538.302 0.181979 6.94762 0
M  V30 5624 H 541.493 -0.167605 4.678 0
M  V30 5625 H 541.666 0.020652 6.47997 0
M  V30 5626 N 535.072 -1.5615 -0.213296 0
M  V30 5627 C 536.002 -1.96109 -1.26742 0
M  V30 5628 C 536.983 -0.830448 -1.48451 0
M  V30 5629 O 538.168 -1.09339 -1.60495 0
M  V30 5630 C 535.298 -2.28492 -2.61551 0
M  V30 5631 C 534.252 -3.44124 -2.54485 0
M  V30 5632 C 533.578 -3.62134 -3.93399 0
M  V30 5633 C 534.878 -4.78855 -2.08556 0
M  V30 5634 H 536.572 -2.84412 -0.935434 0
M  V30 5635 H 534.118 -1.36836 -0.44854 0
M  V30 5636 H 536.071 -2.55039 -3.3546 0
M  V30 5637 H 534.795 -1.37052 -2.96453 0
M  V30 5638 H 533.454 -3.17639 -1.83033 0
M  V30 5639 H 533.102 -2.68055 -4.25623 0
M  V30 5640 H 532.802 -4.39913 -3.89551 0
M  V30 5641 H 534.326 -3.91038 -4.68958 0
M  V30 5642 H 535.74 -5.04552 -2.72213 0
M  V30 5643 H 534.137 -5.59975 -2.1575 0
M  V30 5644 H 535.207 -4.73657 -1.03811 0
M  V30 5645 N 536.55 0.480323 -1.50102 0
M  V30 5646 C 537.798 1.23063 -1.60312 0
M  V30 5647 C 538.119 1.92659 -0.301226 0
M  V30 5648 O 537.389 1.83691 0.680753 0
M  V30 5649 H 535.969 0.457231 -0.590719 0
M  V30 5650 H 538.631 0.554893 -1.86834 0
M  V30 5651 H 537.727 1.9835 -2.40964 0
M  V30 5652 N 538.028 1.39524 0.732853 0
M  V30 5653 C 539.253 1.40329 1.52717 0
M  V30 5654 C 539.678 0.000286574 1.881 0
M  V30 5655 O 539.036 -0.987262 1.52062 0
M  V30 5656 C 539.084 2.28464 2.78992 0
M  V30 5657 O 538.188 1.716 3.75003 0
M  V30 5658 H 537.529 0.47778 0.461109 0
M  V30 5659 H 540.059 1.83546 0.903996 0
M  V30 5660 H 540.069 2.43051 3.27705 0
M  V30 5661 H 538.744 3.30425 2.52572 0
M  V30 5662 H 537.321 1.66267 3.33781 0
M  V30 5663 N 539.506 -0.963266 1.24736 0
M  V30 5664 C 540.917 -1.52145 1.08207 0
M  V30 5665 C 541.268 -1.93142 -0.345061 0
M  V30 5666 O 540.393 -1.77769 -1.23399 0
M  V30 5667 C 540.988 -2.76486 1.95808 0
M  V30 5668 C 539.547 -3.28646 1.8349 0
M  V30 5669 C 538.694 -2.01529 1.90476 0
M  V30 5670 H 541.645 -0.781083 1.38148 0
M  V30 5671 H 541.666 -3.49986 1.49297 0
M  V30 5672 H 541.178 -2.46617 2.99669 0
M  V30 5673 H 539.279 -3.63357 0.824787 0
M  V30 5674 H 539.392 -3.97246 2.67829 0
M  V30 5675 H 537.756 -2.16442 1.34258 0
M  V30 5676 H 538.539 -1.7402 2.95926 0
M  V30 5677 N 540.985 -1.06182 -1.16461 0
M  V30 5678 C 542.215 -0.797425 -1.9059 0
M  V30 5679 C 542.623 0.651845 -1.77616 0
M  V30 5680 O 541.966 1.45788 -1.11766 0
M  V30 5681 C 542.028 -1.11128 -3.41893 0
M  V30 5682 C 541.692 -2.55874 -3.78652 0
M  V30 5683 C 542.689 -3.54104 -3.80665 0
M  V30 5684 C 540.374 -2.91144 -4.09317 0
M  V30 5685 C 542.368 -4.85645 -4.12829 0
M  V30 5686 C 540.055 -4.22885 -4.41148 0
M  V30 5687 C 541.053 -5.19945 -4.42883 0
M  V30 5688 O 540.741 -6.49322 -4.73959 0
M  V30 5689 H 540.473 -0.288709 -0.611247 0
M  V30 5690 H 543.027 -1.41841 -1.4856 0
M  V30 5691 H 541.257 -0.433217 -3.84266 0
M  V30 5692 H 542.946 -0.831306 -3.97296 0
M  V30 5693 H 543.712 -3.28197 -3.57088 0
M  V30 5694 H 539.591 -2.16252 -4.07131 0
M  V30 5695 H 543.135 -5.61398 -4.14099 0
M  V30 5696 H 539.032 -4.48551 -4.6419 0
M  V30 5697 H 539.8 -6.54294 -4.91774 0
M  V30 5698 N 542.463 1.3308 -0.844243 0
M  V30 5699 C 543.711 1.97215 -0.441676 0
M  V30 5700 C 544.032 1.67185 1.0037 0
M  V30 5701 O 543.302 0.973588 1.69994 0
M  V30 5702 H 541.882 0.72959 -0.160335 0
M  V30 5703 H 544.544 1.62348 -1.07838 0
M  V30 5704 H 543.64 3.06698 -0.57815 0
M  V30 5705 N 543.941 0.601185 1.45683 0
M  V30 5706 C 544.891 -0.142686 2.27553 0
M  V30 5707 C 545.875 -0.844598 1.3695 0
M  V30 5708 O 547.067 -0.735644 1.60988 0
M  V30 5709 C 544.196 -1.14364 3.23691 0
M  V30 5710 C 543.282 -0.442894 4.21781 0
M  V30 5711 N 543.673 0.51189 5.03203 0
M  V30 5712 C 541.971 -0.691277 4.4061 0
M  V30 5713 C 542.672 0.92318 5.74328 0
M  V30 5714 N 541.648 0.268308 5.42937 0
M  V30 5715 H 545.45 0.590736 2.87902 0
M  V30 5716 H 542.964 0.424365 1.56757 0
M  V30 5717 H 544.961 -1.6909 3.8107 0
M  V30 5718 H 543.621 -1.87768 2.64902 0
M  V30 5719 H 544.632 0.888329 5.10225 0
M  V30 5720 H 541.309 -1.41049 3.92952 0
M  V30 5721 H 542.699 1.71029 6.49768 0
M  V30 5722 N 545.419 -1.53889 0.339982 0
M  V30 5723 C 546.659 -2.02765 -0.258011 0
M  V30 5724 C 547.023 -1.22249 -1.48051 0
M  V30 5725 O 548.224 -1.61007 -2.15245 0
M  V30 5726 C 546.495 -3.5286 -0.567872 0
M  V30 5727 S 548.054 -4.23647 -1.14318 0
M  V30 5728 H 544.872 -0.706814 -0.0770389 0
M  V30 5729 H 547.474 -1.89594 0.476917 0
M  V30 5730 H 546.178 -4.09073 0.329745 0
M  V30 5731 H 545.709 -3.70144 -1.33256 0
M  V30 5732 H 547.724 -4.32676 -2.42911 0
M  V30 5733 N 546.897 -0.0685191 -1.57451 0
M  V30 5734 C 548.125 0.610462 -1.97689 0
M  V30 5735 C 548.54 1.63346 -0.946758 0
M  V30 5736 O 547.897 1.82377 0.0669868 0
M  V30 5737 C 547.948 1.28196 -3.38006 0
M  V30 5738 O 547.669 0.299906 -4.37072 0
M  V30 5739 C 549.17 2.04907 -3.931 0
M  V30 5740 H 546.39 0.165689 -0.650222 0
M  V30 5741 H 548.934 -0.139953 -2.04021 0
M  V30 5742 H 547.089 1.98348 -3.32771 0
M  V30 5743 H 547.503 0.78126 -5.18649 0
M  V30 5744 H 548.977 2.47287 -4.93511 0
M  V30 5745 H 549.454 2.9043 -3.29465 0
M  V30 5746 H 550.06 1.39629 -4.01726 0
M  V30 5747 N 548.375 1.56261 0.205012 0
M  V30 5748 C 549.338 1.92908 1.23771 0
M  V30 5749 C 550.338 0.809208 1.38955 0
M  V30 5750 O 551.528 1.07676 1.36936 0
M  V30 5751 C 548.66 2.19442 2.60879 0
M  V30 5752 H 549.853 2.85287 0.924728 0
M  V30 5753 H 547.406 1.49798 0.446125 0
M  V30 5754 H 548.141 1.29668 2.97248 0
M  V30 5755 H 547.926 3.0104 2.51232 0
M  V30 5756 H 549.416 2.48833 3.35368 0
M  V30 5757 N 549.853 -0.472356 1.50355 0
M  V30 5758 C 551.101 -1.22211 1.60962 0
M  V30 5759 C 551.422 -1.92497 0.311439 0
M  V30 5760 O 550.692 -1.8405 -0.671002 0
M  V30 5761 H 549.272 -0.454092 0.593135 0
M  V30 5762 H 551.934 -0.544977 1.87126 0
M  V30 5763 H 551.03 -1.9707 2.42012 0
M  V30 5764 N 551.331 -1.39911 -0.725443 0
M  V30 5765 C 552.579 -1.37382 -1.48224 0
M  V30 5766 C 552.9 0.0264107 -1.94982 0
M  V30 5767 O 552.17 0.979408 -1.6966 0
M  V30 5768 H 550.75 -0.505596 -0.549892 0
M  V30 5769 H 553.412 -1.7487 -0.860608 0
M  V30 5770 H 552.508 -2.04254 -2.3598 0
M  V30 5771 N 552.809 0.956637 -1.25245 0
M  V30 5772 C 553.719 2.0868 -1.0719 0
M  V30 5773 C 554.735 1.73997 -0.00959074 0
M  V30 5774 O 555.911 2.00301 -0.210104 0
M  V30 5775 C 552.976 3.39754 -0.690526 0
M  V30 5776 C 552.037 3.88316 -1.83055 0
M  V30 5777 C 551.27 5.13134 -1.46728 0
M  V30 5778 O 551.493 5.6925 -0.362029 0
M  V30 5779 O 550.427 5.56356 -2.29677 0
M  V30 5780 H 554.253 2.26813 -2.01965 0
M  V30 5781 H 551.838 1.07098 -1.04165 0
M  V30 5782 H 553.72 4.18543 -0.489871 0
M  V30 5783 H 552.395 3.22896 0.227981 0
M  V30 5784 H 551.302 3.1054 -2.08604 0
M  V30 5785 H 552.635 4.09669 -2.72822 0
M  V30 5786 N 554.287 1.06798 1.15896 0
M  V30 5787 C 555.535 0.786211 1.8618 0
M  V30 5788 C 555.856 -0.689547 1.82401 0
M  V30 5789 O 555.126 -1.49913 1.26107 0
M  V30 5790 H 553.706 0.287843 0.689315 0
M  V30 5791 H 556.368 1.35055 1.40521 0
M  V30 5792 H 555.464 1.1157 2.91477 0
M  V30 5793 N 555.766 -1.3263 0.851289 0
M  V30 5794 C 557.012 -1.9766 0.453694 0
M  V30 5795 C 557.345 -1.67225 -0.987396 0
M  V30 5796 O 556.62 -0.958693 -1.69232 0
M  V30 5797 C 556.903 -3.5344 0.68936 0
M  V30 5798 C 556.756 -3.93517 2.17862 0
M  V30 5799 C 558.075 -4.39866 0.143555 0
M  V30 5800 H 555.194 -0.717989 0.166314 0
M  V30 5801 H 557.836 -1.57068 1.06909 0
M  V30 5802 H 555.986 -3.88147 0.165546 0
M  V30 5803 H 557.658 -3.69006 2.76826 0
M  V30 5804 H 555.901 -3.42798 2.65841 0
M  V30 5805 H 556.572 -5.02065 2.29422 0
M  V30 5806 H 559.048 -4.11875 0.591451 0
M  V30 5807 H 557.924 -5.47858 0.338043 0
M  V30 5808 H 558.185 -4.31696 -0.953466 0
M  V30 5809 N 557.244 -0.608902 -1.45362 0
M  V30 5810 C 558.154 0.110969 -2.34337 0
M  V30 5811 C 559.17 0.859007 -1.51318 0
M  V30 5812 O 560.346 0.816296 -1.84116 0
M  V30 5813 C 557.411 1.09494 -3.28956 0
M  V30 5814 C 556.472 0.348718 -4.27881 0
M  V30 5815 C 555.705 1.28582 -5.17979 0
M  V30 5816 O 555.928 2.52369 -5.11533 0
M  V30 5817 O 554.862 0.782172 -5.96796 0
M  V30 5818 H 558.688 -0.620258 -2.97299 0
M  V30 5819 H 556.273 -0.36916 -1.44767 0
M  V30 5820 H 558.155 1.66163 -3.87257 0
M  V30 5821 H 556.83 1.80717 -2.68557 0
M  V30 5822 H 555.737 -0.260465 -3.73192 0
M  V30 5823 H 557.07 -0.323049 -4.91139 0
M  V30 5824 N 558.722 1.53707 -0.348139 0
M  V30 5825 C 559.968 2.01286 0.247332 0
M  V30 5826 C 560.301 1.23546 1.49834 0
M  V30 5827 O 559.576 0.324331 1.91777 0
M  V30 5828 C 559.859 3.55768 0.556858 0
M  V30 5829 C 559.712 4.44216 -0.706564 0
M  V30 5830 C 561.031 4.1841 1.3646 0
M  V30 5831 H 558.15 0.731677 0.0884201 0
M  V30 5832 H 560.792 1.84106 -0.469584 0
M  V30 5833 H 558.942 3.70539 1.16761 0
M  V30 5834 H 560.614 4.41274 -1.34444 0
M  V30 5835 H 558.857 4.12892 -1.33052 0
M  V30 5836 H 559.528 5.50202 -0.445186 0
M  V30 5837 H 562.004 4.07365 0.848113 0
M  V30 5838 H 560.88 5.26563 1.54992 0
M  V30 5839 H 561.141 3.7333 2.36805 0
M  V30 5840 N 560.2 0.0768682 1.57412 0
M  V30 5841 C 561.11 -0.903207 2.16516 0
M  V30 5842 C 562.126 -1.32341 1.12968 0
M  V30 5843 O 563.302 -1.39507 1.45258 0
M  V30 5844 C 560.367 -2.1508 2.71922 0
M  V30 5845 C 559.428 -1.78653 3.90361 0
M  V30 5846 C 558.661 -2.97465 4.43114 0
M  V30 5847 O 558.884 -4.11638 3.94854 0
M  V30 5848 O 557.818 -2.76987 5.3438 0
M  V30 5849 H 561.644 -0.430427 3.00634 0
M  V30 5850 H 559.229 -0.146485 1.4868 0
M  V30 5851 H 561.111 -2.8823 3.07411 0
M  V30 5852 H 559.786 -2.61446 1.9086 0
M  V30 5853 H 558.693 -1.0274 3.59716 0
M  V30 5854 H 560.026 -1.37066 4.7273 0
M  V30 5855 N 561.678 -1.56367 -0.196722 0
M  V30 5856 C 562.608 -1.97442 -1.24655 0
M  V30 5857 C 563.589 -0.846147 -1.47561 0
M  V30 5858 O 564.774 -1.11035 -1.59326 0
M  V30 5859 C 561.904 -2.31253 -2.59112 0
M  V30 5860 C 560.858 -3.46804 -2.50821 0
M  V30 5861 C 560.184 -3.66286 -3.89536 0
M  V30 5862 C 561.484 -4.8104 -2.03465 0
M  V30 5863 H 563.178 -2.85388 -0.905216 0
M  V30 5864 H 560.724 -1.37304 -0.434002 0
M  V30 5865 H 562.677 -2.58583 -3.32736 0
M  V30 5866 H 561.401 -1.40188 -2.94983 0
M  V30 5867 H 560.06 -3.19563 -1.79653 0
M  V30 5868 H 559.708 -2.72555 -4.22756 0
M  V30 5869 H 559.408 -4.4402 -3.84864 0
M  V30 5870 H 560.932 -3.9599 -4.64784 0
M  V30 5871 H 562.346 -5.07411 -2.66846 0
M  V30 5872 H 560.743 -5.62232 -2.09798 0
M  V30 5873 H 561.813 -4.74732 -0.98781 0
M  V30 5874 N 563.156 0.464375 -1.50603 0
M  V30 5875 C 564.086 1.56944 -1.72889 0
M  V30 5876 C 565.067 1.59979 -0.577997 0
M  V30 5877 O 566.252 1.76138 -0.817855 0
M  V30 5878 C 563.382 2.95225 -1.8292 0
M  V30 5879 C 562.336 3.07056 -2.98162 0
M  V30 5880 C 561.662 4.47051 -2.93343 0
M  V30 5881 C 562.962 2.83648 -4.38567 0
M  V30 5882 H 564.656 1.38547 -2.65415 0
M  V30 5883 H 562.202 0.665082 -1.27721 0
M  V30 5884 H 564.155 3.72467 -1.97095 0
M  V30 5885 H 562.879 3.14793 -0.870209 0
M  V30 5886 H 561.538 2.32248 -2.83648 0
M  V30 5887 H 561.186 4.63547 -1.95276 0
M  V30 5888 H 560.886 4.55902 -3.70712 0
M  V30 5889 H 562.41 5.26304 -3.09575 0
M  V30 5890 H 563.824 3.50636 -4.53572 0
M  V30 5891 H 562.221 3.03937 -5.17438 0
M  V30 5892 H 563.291 1.79451 -4.50472 0
M  V30 5893 N 564.634 1.40294 0.718013 0
M  V30 5894 C 565.584 1.36847 1.82365 0
M  V30 5895 C 566.568 0.246424 1.59002 0
M  V30 5896 O 567.76 0.485336 1.70216 0
M  V30 5897 C 564.889 1.23105 3.20469 0
M  V30 5898 C 563.975 2.4008 3.49603 0
M  V30 5899 N 564.366 3.65562 3.49568 0
M  V30 5900 C 562.664 2.33407 3.80049 0
M  V30 5901 C 563.365 4.43015 3.76978 0
M  V30 5902 N 562.341 3.72823 3.95606 0
M  V30 5903 H 566.143 2.31811 1.80668 0
M  V30 5904 H 563.657 1.34031 0.91703 0
M  V30 5905 H 565.654 1.18718 3.9964 0
M  V30 5906 H 564.314 0.291056 3.23393 0
M  V30 5907 H 565.325 3.98756 3.30476 0
M  V30 5908 H 562.002 1.47762 3.90478 0
M  V30 5909 H 563.392 5.51859 3.83276 0
M  V30 5910 N 566.112 -0.949982 1.2575 0
M  V30 5911 C 567.06 -2.06869 1.06339 0
M  V30 5912 C 568.054 -1.69399 -0.00708901 0
M  V30 5913 O 569.26 -1.79383 0.148897 0
M  V30 5914 H 565.635 -0.677197 0.326969 0
M  V30 5915 H 567.606 -2.20396 2.01167 0
M  V30 5916 C 566.355 -3.40503 0.703769 0
M  V30 5917 H 565.678 -3.69807 1.51931 0
M  V30 5918 H 567.118 -4.19623 0.607677 0
M  V30 5919 C 565.577 -3.31685 -0.5905 0
M  V30 5920 O 566.107 -3.67085 -1.63131 0
M  V30 5921 N 564.313 -2.84797 -0.577859 0
M  V30 5922 H 563.86 -2.56186 0.26951 0
M  V30 5923 H 563.818 -2.79279 -1.44398 0
M  V30 5924 N 567.59 -1.07411 -1.15328 0
M  V30 5925 C 568.818 -0.818782 -1.90009 0
M  V30 5926 C 569.233 0.628072 -1.78047 0
M  V30 5927 O 568.59 1.43085 -1.13282 0
M  V30 5928 C 568.641 -1.21874 -3.40337 0
M  V30 5929 O 568.362 -2.60883 -3.51954 0
M  V30 5930 C 569.863 -0.992796 -4.3204 0
M  V30 5931 H 567.083 -0.296007 -0.60218 0
M  V30 5932 H 569.627 -1.43073 -1.46117 0
M  V30 5933 H 567.782 -0.651103 -3.81889 0
M  V30 5934 H 568.196 -2.77216 -4.45255 0
M  V30 5935 H 569.67 -1.32215 -5.35932 0
M  V30 5936 H 570.147 0.0708331 -4.39143 0
M  V30 5937 H 570.753 -1.54537 -3.9623 0
M  V30 5938 N 569.068 1.32177 -0.85831 0
M  V30 5939 C 570.293 2.01847 -0.476718 0
M  V30 5940 C 570.718 1.64065 0.920021 0
M  V30 5941 O 570.076 0.843189 1.60499 0
M  V30 5942 C 570.124 3.55097 -0.627578 0
M  V30 5943 O 569.228 4.11012 0.338086 0
M  V30 5944 H 568.569 0.635907 -0.191099 0
M  V30 5945 H 571.099 1.68641 -1.15851 0
M  V30 5946 H 571.109 4.04718 -0.516476 0
M  V30 5947 H 569.784 3.81938 -1.64609 0
M  V30 5948 H 568.361 3.72451 0.182917 0
M  V30 5949 N 570.547 0.616602 1.45037 0
M  V30 5950 C 571.777 0.121791 2.06241 0
M  V30 5951 C 572.185 -1.20289 1.46038 0
M  V30 5952 O 571.528 -1.7456 0.572242 0
M  V30 5953 C 571.59 -0.0827345 3.59405 0
M  V30 5954 C 571.254 1.16153 4.41993 0
M  V30 5955 C 572.251 2.08183 4.76399 0
M  V30 5956 C 569.936 1.39288 4.82601 0
M  V30 5957 C 571.93 3.21668 5.5028 0
M  V30 5958 C 569.617 2.53073 5.56235 0
M  V30 5959 C 570.615 3.44091 5.89992 0
M  V30 5960 O 570.303 4.55894 6.6213 0
M  V30 5961 H 570.035 0.0701667 0.672349 0
M  V30 5962 H 572.589 0.846877 1.87129 0
M  V30 5963 H 570.819 -0.862812 3.76952 0
M  V30 5964 H 572.508 -0.530273 4.02421 0
M  V30 5965 H 573.274 1.91538 4.45576 0
M  V30 5966 H 569.153 0.693396 4.55755 0
M  V30 5967 H 572.697 3.92733 5.76547 0
M  V30 5968 H 568.594 2.69667 5.86472 0
M  V30 5969 H 569.362 4.5469 6.80587 0
M  V30 5970 N 572.025 -1.5352 0.356285 0
M  V30 5971 C 573.253 -2.05534 -0.237328 0
M  V30 5972 C 573.668 -1.23043 -1.43199 0
M  V30 5973 O 573.025 -0.268821 -1.80509 0
M  V30 5974 C 573.076 -3.55791 -0.639933 0
M  V30 5975 O 572.797 -4.35154 0.507233 0
M  V30 5976 C 574.298 -4.24027 -1.29292 0
M  V30 5977 H 571.518 -0.669585 -0.0435572 0
M  V30 5978 H 574.062 -1.97988 0.511963 0
M  V30 5979 H 572.217 -3.63518 -1.33915 0
M  V30 5980 H 572.631 -5.24178 0.18375 0
M  V30 5981 H 574.105 -5.30509 -1.52527 0
M  V30 5982 H 574.582 -3.77166 -2.25039 0
M  V30 5983 H 575.188 -4.20527 -0.63539 0
M  V30 5984 N 573.503 -0.0852151 -1.57369 0
M  V30 5985 C 574.919 0.271436 -1.57275 0
M  V30 5986 C 575.119 1.69109 -1.09565 0
M  V30 5987 O 574.175 2.40549 -0.767611 0
M  V30 5988 C 575.488 0.0688638 -3.00621 0
M  V30 5989 C 577.036 0.137373 -3.12698 0
M  V30 5990 C 577.511 -0.0370832 -4.57985 0
M  V30 5991 N 579.002 0.0180794 -4.63196 0
M  V30 5992 C 579.737 -0.0922953 -5.73326 0
M  V30 5993 N 579.233 -0.256948 -6.92323 0
M  V30 5994 N 581.026 -0.0342702 -5.6209 0
M  V30 5995 H 573.177 -1.01288 -1.86693 0
M  V30 5996 H 575.44 -0.396138 -0.861266 0
M  V30 5997 H 575.146 -0.911277 -3.39689 0
M  V30 5998 H 575.02 0.815442 -3.6828 0
M  V30 5999 H 577.407 1.10801 -2.73509 0
M  V30 6000 H 577.488 -0.640532 -2.47651 0
M  V30 6001 H 577.132 -1.00455 -4.97867 0
M  V30 6002 H 577.062 0.760392 -5.21081 0
M  V30 6003 H 579.553 0.143202 -3.77629 0
M  V30 6004 H 579.866 -0.332949 -7.72082 0
M  V30 6005 H 578.211 -0.292487 -6.94384 0
M  V30 6006 H 581.402 0.0931605 -4.68007 0
M  V30 6007 H 581.575 -0.12374 -6.47882 0
M  V30 6008 N 574.981 1.5647 0.188427 0
M  V30 6009 C 575.913 1.91611 1.25769 0
M  V30 6010 C 576.926 0.807436 1.41366 0
M  V30 6011 O 578.115 1.08586 1.41673 0
M  V30 6012 C 575.215 2.13874 2.6289 0
M  V30 6013 C 574.388 3.45047 2.68815 0
M  V30 6014 C 573.447 3.56342 3.87178 0
M  V30 6015 O 572.473 4.29109 3.73971 0
M  V30 6016 N 573.675 2.89924 5.02916 0
M  V30 6017 H 576.44 2.8393 0.959373 0
M  V30 6018 H 574.001 1.57418 0.378306 0
M  V30 6019 H 575.993 2.18713 3.4051 0
M  V30 6020 H 574.563 1.28022 2.85183 0
M  V30 6021 H 573.783 3.52017 1.77419 0
M  V30 6022 H 575.071 4.31395 2.6977 0
M  V30 6023 H 574.469 2.30644 5.16546 0
M  V30 6024 H 573.026 3.0038 5.78459 0
M  V30 6025 N 576.459 -0.456382 1.50847 0
M  V30 6026 C 577.422 -1.53493 1.70213 0
M  V30 6027 C 578.422 -1.50264 0.572481 0
M  V30 6028 O 579.612 -1.52623 0.839751 0
M  V30 6029 C 576.744 -2.93091 1.741 0
M  V30 6030 H 577.937 -1.37633 2.66453 0
M  V30 6031 H 575.49 -0.683776 1.4055 0
M  V30 6032 H 576.225 -3.14378 0.796063 0
M  V30 6033 H 576.01 -2.9684 2.5618 0
M  V30 6034 H 577.5 -3.71368 1.90987 0
M  V30 6035 N 577.937 -1.40673 -0.710563 0
M  V30 6036 C 579.177 -1.40677 -1.48288 0
M  V30 6037 C 579.541 -0.0097193 -1.91998 0
M  V30 6038 O 580.742 0.115381 -2.68552 0
M  V30 6039 C 579.013 -2.37289 -2.67262 0
M  V30 6040 S 580.572 -2.55694 -3.56603 0
M  V30 6041 H 577.39 -0.498545 -0.506926 0
M  V30 6042 H 579.992 -1.76984 -0.830472 0
M  V30 6043 H 578.696 -3.37617 -2.3333 0
M  V30 6044 H 578.227 -2.02282 -3.3741 0
M  V30 6045 H 580.242 -1.81311 -4.61888 0
M  V30 6046 N 579.415 0.9433 -1.26252 0
M  V30 6047 C 580.345 2.05902 -1.10122 0
M  V30 6048 C 581.326 1.70099 -0.00700552 0
M  V30 6049 O 582.511 1.93377 -0.178641 0
M  V30 6050 C 579.641 3.39516 -0.731175 0
M  V30 6051 C 578.595 3.89372 -1.77688 0
M  V30 6052 C 577.921 5.19613 -1.26122 0
M  V30 6053 C 579.221 4.14489 -3.17799 0
M  V30 6054 H 580.915 2.19655 -2.03451 0
M  V30 6055 H 578.461 1.05548 -0.979576 0
M  V30 6056 H 580.414 4.17031 -0.605215 0
M  V30 6057 H 579.138 3.25733 0.23782 0
M  V30 6058 H 577.797 3.14036 -1.89148 0
M  V30 6059 H 577.445 5.02208 -0.282128 0
M  V30 6060 H 577.145 5.53939 -1.96023 0
M  V30 6061 H 578.669 5.99713 -1.14789 0
M  V30 6062 H 580.083 4.82625 -3.09428 0
M  V30 6063 H 578.48 4.60094 -3.85271 0
M  V30 6064 H 579.55 3.20347 -3.64014 0
M  V30 6065 N 580.893 1.08022 1.14757 0
M  V30 6066 C 582.139 0.808705 1.85978 0
M  V30 6067 C 582.472 -0.663764 1.82504 0
M  V30 6068 O 581.747 -1.48765 1.25296 0
M  V30 6069 C 582.03 1.32623 3.34788 0
M  V30 6070 C 581.883 2.86375 3.46856 0
M  V30 6071 C 583.202 0.948291 4.29762 0
M  V30 6072 H 580.321 0.295244 0.675278 0
M  V30 6073 H 582.963 1.33917 1.34783 0
M  V30 6074 H 581.113 0.875002 3.78518 0
M  V30 6075 H 582.785 3.39839 3.11941 0
M  V30 6076 H 581.028 3.24232 2.88194 0
M  V30 6077 H 581.699 3.17658 4.51439 0
M  V30 6078 H 584.175 1.33722 3.94028 0
M  V30 6079 H 583.051 1.33765 5.32352 0
M  V30 6080 H 583.312 -0.145094 4.41862 0
M  V30 6081 N 582.371 -1.3172 0.865308 0
M  V30 6082 C 583.596 -2.01591 0.487415 0
M  V30 6083 C 584.021 -1.6455 -0.911307 0
M  V30 6084 O 583.379 -0.851689 -1.6005 0
M  V30 6085 C 583.427 -3.54759 0.646401 0
M  V30 6086 O 582.531 -4.11185 -0.316284 0
M  V30 6087 H 581.872 -0.634884 0.194468 0
M  V30 6088 H 584.402 -1.68024 1.16744 0
M  V30 6089 H 584.412 -4.04438 0.537932 0
M  V30 6090 H 583.087 -3.8106 1.66632 0
M  V30 6091 H 581.664 -3.72543 -0.163162 0
M  V30 6092 N 583.85 -0.624285 -1.44708 0
M  V30 6093 C 585.09 -0.129273 -2.03991 0
M  V30 6094 C 585.454 1.22321 -1.47992 0
M  V30 6095 O 586.654 1.80993 -1.98734 0
M  V30 6096 C 584.926 -0.108231 -3.57236 0
M  V30 6097 S 586.485 0.323158 -4.37608 0
M  V30 6098 H 583.303 -0.0577318 -0.708652 0
M  V30 6099 H 585.904 -0.826139 -1.77187 0
M  V30 6100 H 584.609 -1.0958 -3.955 0
M  V30 6101 H 584.139 0.610101 -3.8864 0
M  V30 6102 H 586.154 1.56894 -4.70743 0
M  V30 6103 N 585.328 1.53329 -0.364422 0
M  V30 6104 C 586.575 2.01239 0.225634 0
M  V30 6105 C 586.903 1.25172 1.48869 0
M  V30 6106 O 586.158 0.333289 1.92841 0
M  V30 6107 C 586.457 3.52911 0.564661 0
M  V30 6108 C 586.123 4.46837 -0.603936 0
M  V30 6109 C 584.785 4.72234 -0.924585 0
M  V30 6110 C 587.137 5.02409 -1.38691 0
M  V30 6111 C 584.465 5.50454 -2.0302 0
M  V30 6112 C 586.817 5.81836 -2.48293 0
M  V30 6113 C 585.481 6.0552 -2.80894 0
M  V30 6114 H 584.751 0.736386 0.0825654 0
M  V30 6115 H 587.398 1.84948 -0.496645 0
M  V30 6116 H 585.703 3.67144 1.36794 0
M  V30 6117 H 587.4 3.87455 1.03344 0
M  V30 6118 H 583.99 4.27217 -0.343983 0
M  V30 6119 H 588.174 4.82735 -1.15243 0
M  V30 6120 H 583.43 5.67024 -2.28678 0
M  V30 6121 H 587.604 6.23905 -3.0938 0
M  V30 6122 H 585.231 6.65916 -3.66688 0
M  V30 6123 N 586.806 0.0935595 1.57322 0
M  V30 6124 C 587.738 -0.895923 2.10964 0
M  V30 6125 C 588.751 -1.24705 1.04654 0
M  V30 6126 O 589.94 -1.20044 1.32105 0
M  V30 6127 C 587.04 -2.20546 2.57318 0
M  V30 6128 C 586.213 -2.0299 3.87445 0
M  V30 6129 C 585.272 -3.17443 4.19662 0
M  V30 6130 O 584.298 -2.91474 4.88909 0
M  V30 6131 N 585.5 -4.43168 3.74943 0
M  V30 6132 H 588.265 -0.437788 2.96485 0
M  V30 6133 H 585.826 -0.0915863 1.61641 0
M  V30 6134 H 587.818 -2.9606 2.75917 0
M  V30 6135 H 586.388 -2.57789 1.76816 0
M  V30 6136 H 585.608 -1.11815 3.78009 0
M  V30 6137 H 586.896 -1.88535 4.7258 0
M  V30 6138 H 586.294 -4.67149 3.19043 0
M  V30 6139 H 584.851 -5.15637 3.987 0
M  V30 6140 N 588.284 -1.56567 -0.180126 0
M  V30 6141 C 589.216 -1.92275 -1.24751 0
M  V30 6142 C 590.229 -0.814922 -1.40936 0
M  V30 6143 O 591.418 -1.09336 -1.41095 0
M  V30 6144 C 588.518 -2.15265 -2.61752 0
M  V30 6145 C 587.691 -3.46467 -2.66981 0
M  V30 6146 C 586.75 -3.58391 -3.85283 0
M  V30 6147 O 585.776 -4.31086 -3.7169 0
M  V30 6148 N 586.978 -2.92587 -5.01371 0
M  V30 6149 H 589.743 -2.84435 -0.944302 0
M  V30 6150 H 587.304 -1.57617 -0.369952 0
M  V30 6151 H 589.296 -2.20515 -3.39345 0
M  V30 6152 H 587.866 -1.29533 -2.845 0
M  V30 6153 H 587.086 -3.52953 -1.75549 0
M  V30 6154 H 588.374 -4.32819 -2.67479 0
M  V30 6155 H 587.772 -2.3338 -5.15316 0
M  V30 6156 H 586.329 -3.03444 -5.76858 0
M  V30 6157 N 589.762 0.448376 -1.51087 0
M  V30 6158 C 590.692 1.55102 -1.74544 0
M  V30 6159 C 591.673 1.59357 -0.594932 0
M  V30 6160 O 592.858 1.75261 -0.836491 0
M  V30 6161 C 589.988 2.93268 -1.86041 0
M  V30 6162 C 588.942 3.03877 -3.01402 0
M  V30 6163 C 588.268 4.43914 -2.98068 0
M  V30 6164 C 589.568 2.7898 -4.41551 0
M  V30 6165 H 591.262 1.35724 -2.66869 0
M  V30 6166 H 588.808 0.651498 -1.28419 0
M  V30 6167 H 590.761 3.70356 -2.01034 0
M  V30 6168 H 589.485 3.13853 -0.903548 0
M  V30 6169 H 588.144 2.29227 -2.86096 0
M  V30 6170 H 587.792 4.6145 -2.00182 0
M  V30 6171 H 587.492 4.51944 -3.75527 0
M  V30 6172 H 589.016 5.22991 -3.1514 0
M  V30 6173 H 590.43 3.45805 -4.57265 0
M  V30 6174 H 588.827 2.98431 -5.20633 0
M  V30 6175 H 589.897 1.74663 -4.5235 0
M  V30 6176 N 591.24 1.41047 0.703093 0
M  V30 6177 C 592.173 1.36713 1.82715 0
M  V30 6178 C 593.151 0.235533 1.60885 0
M  V30 6179 O 594.335 0.421227 1.83733 0
M  V30 6180 C 591.462 1.13069 3.1927 0
M  V30 6181 C 590.508 2.28846 3.59905 0
M  V30 6182 S 591.341 3.91297 3.65578 0
M  V30 6183 C 592.497 3.69941 5.04871 0
M  V30 6184 H 592.73 2.31838 1.86114 0
M  V30 6185 H 590.263 1.27481 0.871083 0
M  V30 6186 H 592.221 1.00113 3.98105 0
M  V30 6187 H 590.882 0.195763 3.13489 0
M  V30 6188 H 590.075 2.07977 4.59088 0
M  V30 6189 H 589.677 2.3817 2.88359 0
M  V30 6190 H 591.969 3.29181 5.92154 0
M  V30 6191 H 592.912 4.68699 5.30779 0
M  V30 6192 H 593.32 3.03369 4.76054 0
M  V30 6193 N 592.718 -0.936591 1.26751 0
M  V30 6194 C 593.964 -1.6858 1.12733 0
M  V30 6195 C 594.297 -1.91414 -0.327745 0
M  V30 6196 O 593.572 -1.49812 -1.24043 0
M  V30 6197 C 593.855 -3.05779 1.90187 0
M  V30 6198 C 593.708 -2.90242 3.43627 0
M  V30 6199 C 595.027 -4.0597 1.69931 0
M  V30 6200 H 592.146 -0.61182 0.410908 0
M  V30 6201 H 594.788 -1.08747 1.55801 0
M  V30 6202 H 592.938 -3.56853 1.53584 0
M  V30 6203 H 594.61 -2.46354 3.9001 0
M  V30 6204 H 592.853 -2.2577 3.70419 0
M  V30 6205 H 593.524 -3.87572 3.93055 0
M  V30 6206 H 596 -3.63874 2.0183 0
M  V30 6207 H 594.876 -4.99974 2.26534 0
M  V30 6208 H 595.137 -4.37369 0.64502 0
M  V30 6209 N 594.196 -1.08629 -1.14182 0
M  V30 6210 C 595.106 -0.730126 -2.22949 0
M  V30 6211 C 596.122 0.26436 -1.7198 0
M  V30 6212 O 597.298 0.107742 -2.01112 0
M  V30 6213 C 594.363 -0.147227 -3.46387 0
M  V30 6214 C 593.424 -1.19662 -4.12286 0
M  V30 6215 C 592.657 -0.641437 -5.29831 0
M  V30 6216 O 592.88 0.538351 -5.67854 0
M  V30 6217 O 591.814 -1.39257 -5.85569 0
M  V30 6218 H 595.64 -1.63753 -2.55771 0
M  V30 6219 H 593.225 -0.860118 -1.22157 0
M  V30 6220 H 595.107 0.174923 -4.21037 0
M  V30 6221 H 593.782 0.733304 -3.15285 0
M  V30 6222 H 592.689 -1.57133 -3.395 0
M  V30 6223 H 594.022 -2.0495 -4.475 0
M  V30 6224 N 595.674 1.31259 -0.872281 0
M  V30 6225 C 596.902 2.00795 -0.498907 0
M  V30 6226 C 597.317 1.65464 0.909238 0
M  V30 6227 O 596.674 0.885073 1.59602 0
M  V30 6228 C 596.725 3.55625 -0.649092 0
M  V30 6229 O 596.446 3.89692 -2.00179 0
M  V30 6230 C 597.947 4.42434 -0.277034 0
M  V30 6231 H 595.167 0.642299 -0.194145 0
M  V30 6232 H 597.711 1.67438 -1.17408 0
M  V30 6233 H 595.866 3.87394 -0.0214402 0
M  V30 6234 H 596.28 4.84407 -2.01122 0
M  V30 6235 H 597.754 5.50299 -0.433064 0
M  V30 6236 H 598.231 4.32146 0.783989 0
M  V30 6237 H 598.837 4.16086 -0.880483 0
M  V30 6238 N 597.152 0.631951 1.44375 0
M  V30 6239 C 598.392 0.14009 2.03919 0
M  V30 6240 C 598.756 -1.21534 1.48639 0
M  V30 6241 O 599.957 -1.79936 1.99691 0
M  V30 6242 C 598.228 0.127174 3.57174 0
M  V30 6243 S 599.787 -0.299946 4.37774 0
M  V30 6244 H 596.605 0.0614891 0.708336 0
M  V30 6245 H 599.207 0.835524 1.76746 0
M  V30 6246 H 597.911 1.11676 3.94913 0
M  V30 6247 H 597.442 -0.589482 3.88958 0
M  V30 6248 H 599.457 -1.54396 4.71568 0
M  V30 6249 N 598.631 -1.53133 0.372548 0
M  V30 6250 C 599.856 -2.0625 -0.218098 0
M  V30 6251 C 600.281 -1.24375 -1.41111 0
M  V30 6252 O 599.639 -0.264554 -1.79359 0
M  V30 6253 C 599.687 -3.55858 -0.582876 0
M  V30 6254 O 598.791 -3.76667 -1.67917 0
M  V30 6255 H 598.132 -0.663317 -0.030104 0
M  V30 6256 H 600.662 -1.97477 0.535169 0
M  V30 6257 H 600.672 -3.99007 -0.851925 0
M  V30 6258 H 599.347 -4.14892 0.289428 0
M  V30 6259 H 597.924 -3.45413 -1.40513 0
M  V30 6260 N 600.109 -0.101901 -1.5727 0
M  V30 6261 C 601.349 0.563489 -1.96479 0
M  V30 6262 C 601.713 1.64926 -0.983021 0
M  V30 6263 O 602.914 2.37234 -1.26386 0
M  V30 6264 C 601.185 1.09809 -3.40113 0
M  V30 6265 S 602.744 1.7744 -4.01323 0
M  V30 6266 H 599.562 0.183675 -0.686866 0
M  V30 6267 H 602.164 -0.182922 -1.94642 0
M  V30 6268 H 600.868 0.296447 -4.09328 0
M  V30 6269 H 600.399 1.88018 -3.45562 0
M  V30 6270 H 602.414 3.0591 -3.90683 0
M  V30 6271 N 601.587 1.56661 0.17182 0
M  V30 6272 C 602.835 1.81606 0.886774 0
M  V30 6273 C 603.156 0.678818 1.82803 0
M  V30 6274 O 602.426 -0.301354 1.93568 0
M  V30 6275 H 601.006 0.669934 0.330451 0
M  V30 6276 H 603.668 1.94142 0.171757 0
M  V30 6277 H 602.764 2.75634 1.46398 0
M  V30 6278 N 603.065 -0.440357 1.51323 0
M  V30 6279 C 604.295 -1.21079 1.67402 0
M  V30 6280 C 604.703 -1.85555 0.369599 0
M  V30 6281 O 604.046 -1.71375 -0.661525 0
M  V30 6282 C 604.108 -2.33839 2.73056 0
M  V30 6283 C 603.772 -1.89755 4.15743 0
M  V30 6284 C 604.769 -1.40268 5.0062 0
M  V30 6285 C 602.454 -1.97539 4.61826 0
M  V30 6286 C 604.448 -0.991474 6.29642 0
M  V30 6287 C 602.135 -1.56029 5.90845 0
M  V30 6288 C 603.133 -1.06915 6.7458 0
M  V30 6289 O 602.821 -0.659933 8.01187 0
M  V30 6290 H 602.553 -0.371133 0.56501 0
M  V30 6291 H 605.107 -0.528409 1.98487 0
M  V30 6292 H 603.337 -3.05345 2.37279 0
M  V30 6293 H 605.026 -2.95713 2.78044 0
M  V30 6294 H 605.792 -1.33652 4.66221 0
M  V30 6295 H 601.671 -2.34713 3.96776 0
M  V30 6296 H 605.215 -0.607425 6.9495 0
M  V30 6297 H 601.112 -1.62315 6.24759 0
M  V30 6298 H 601.88 -0.786052 8.14717 0
M  V30 6299 N 604.543 -1.41418 -0.695603 0
M  V30 6300 C 605.773 -1.43921 -1.48224 0
M  V30 6301 C 606.181 -0.0428855 -1.89151 0
M  V30 6302 O 605.524 0.948138 -1.5734 0
M  V30 6303 C 605.586 -2.28466 -2.77567 0
M  V30 6304 C 605.25 -3.76629 -2.58844 0
M  V30 6305 C 606.247 -4.6879 -2.24793 0
M  V30 6306 C 603.932 -4.2067 -2.74485 0
M  V30 6307 C 605.926 -6.02981 -2.06622 0
M  V30 6308 C 603.613 -5.54926 -2.55931 0
M  V30 6309 C 604.611 -6.45897 -2.2205 0
M  V30 6310 O 604.299 -7.77675 -2.03657 0
M  V30 6311 H 604.031 -0.492252 -0.463318 0
M  V30 6312 H 606.585 -1.86347 -0.863952 0
M  V30 6313 H 604.815 -1.80853 -3.41802 0
M  V30 6314 H 606.504 -2.2267 -3.39371 0
M  V30 6315 H 607.27 -4.36055 -2.12323 0
M  V30 6316 H 603.149 -3.50167 -2.9984 0
M  V30 6317 H 606.693 -6.73951 -1.80099 0
M  V30 6318 H 602.59 -5.8724 -2.67991 0
M  V30 6319 H 603.358 -7.88819 -2.1842 0
M  V30 6320 N 606.021 0.929856 -1.27246 0
M  V30 6321 C 606.951 2.04722 -1.12299 0
M  V30 6322 C 607.932 1.70082 -0.0250464 0
M  V30 6323 O 609.117 1.93176 -0.199141 0
M  V30 6324 C 606.247 3.38721 -0.767145 0
M  V30 6325 C 605.201 3.87466 -1.81808 0
M  V30 6326 C 604.527 5.18246 -1.31626 0
M  V30 6327 C 605.827 4.11095 -3.22177 0
M  V30 6328 H 607.521 2.17485 -2.05769 0
M  V30 6329 H 605.067 1.04503 -0.990715 0
M  V30 6330 H 607.02 4.16366 -0.649413 0
M  V30 6331 H 605.744 3.25967 0.203259 0
M  V30 6332 H 604.403 3.12012 -1.92468 0
M  V30 6333 H 604.051 5.01881 -0.335378 0
M  V30 6334 H 603.751 5.51829 -2.01887 0
M  V30 6335 H 605.275 5.98462 -1.21143 0
M  V30 6336 H 606.689 4.79316 -3.1453 0
M  V30 6337 H 605.086 4.55982 -3.90129 0
M  V30 6338 H 606.156 3.16468 -3.67391 0
M  V30 6339 N 607.499 1.09233 1.13605 0
M  V30 6340 C 608.449 0.6994 2.17008 0
M  V30 6341 C 609.433 -0.285238 1.58352 0
M  V30 6342 O 610.625 -0.09592 1.7674 0
M  V30 6343 C 607.754 0.11938 3.43092 0
M  V30 6344 C 606.84 1.13031 4.0876 0
M  V30 6345 N 607.231 2.31673 4.49623 0
M  V30 6346 C 605.529 0.967999 4.35369 0
M  V30 6347 C 606.23 2.95964 5.00779 0
M  V30 6348 N 605.206 2.23534 4.95513 0
M  V30 6349 H 609.008 1.60272 2.46354 0
M  V30 6350 H 606.522 0.968257 1.30378 0
M  V30 6351 H 608.519 -0.180122 4.16511 0
M  V30 6352 H 607.179 -0.778816 3.15221 0
M  V30 6353 H 608.19 2.69277 4.42391 0
M  V30 6354 H 604.867 0.124319 4.17315 0
M  V30 6355 H 606.257 3.96813 5.42208 0
M  V30 6356 N 608.977 -1.30795 0.87923 0
M  V30 6357 C 610.388 -1.78535 0.546093 0
M  V30 6358 C 610.739 -1.72354 -0.937467 0
M  V30 6359 O 609.864 -1.2969 -1.73233 0
M  V30 6360 C 610.459 -3.24181 0.9845 0
M  V30 6361 C 609.018 -3.69779 0.702871 0
M  V30 6362 C 608.165 -2.51377 1.17068 0
M  V30 6363 H 611.116 -1.17746 1.06403 0
M  V30 6364 H 611.137 -3.79227 0.311045 0
M  V30 6365 H 610.649 -3.28647 2.06429 0
M  V30 6366 H 608.75 -3.70806 -0.365166 0
M  V30 6367 H 608.863 -4.61507 1.28639 0
M  V30 6368 H 607.227 -2.47768 0.590172 0
M  V30 6369 H 608.01 -2.58584 2.25808 0
M  V30 6370 N 610.455 -0.639598 -1.44038 0
M  V30 6371 C 611.385 0.0469443 -2.33453 0
M  V30 6372 C 612.366 0.82609 -1.48694 0
M  V30 6373 O 613.551 0.790285 -1.77393 0
M  V30 6374 C 610.681 1.02338 -3.3188 0
M  V30 6375 C 609.635 0.355284 -4.26523 0
M  V30 6376 C 608.961 1.44221 -5.14883 0
M  V30 6377 C 610.261 -0.743798 -5.16977 0
M  V30 6378 H 611.955 -0.699735 -2.91108 0
M  V30 6379 H 609.501 -0.337946 -1.39978 0
M  V30 6380 H 611.454 1.51247 -3.93322 0
M  V30 6381 H 610.178 1.80105 -2.72451 0
M  V30 6382 H 608.837 -0.113239 -3.66425 0
M  V30 6383 H 608.485 2.21097 -4.51802 0
M  V30 6384 H 608.185 1.00052 -5.79019 0
M  V30 6385 H 609.709 1.93295 -5.79197 0
M  V30 6386 H 611.123 -0.337444 -5.72306 0
M  V30 6387 H 609.52 -1.10914 -5.89761 0
M  V30 6388 H 610.59 -1.60745 -4.57481 0
M  V30 6389 N 611.933 1.52934 -0.380664 0
M  V30 6390 C 613.344 1.86457 0.0952684 0
M  V30 6391 C 613.695 1.3007 1.46889 0
M  V30 6392 O 612.82 0.628636 2.07068 0
M  V30 6393 C 613.415 3.38323 0.179648 0
M  V30 6394 C 611.974 3.71589 0.599858 0
M  V30 6395 C 611.121 2.76228 -0.243572 0
M  V30 6396 H 614.072 1.46966 -0.59888 0
M  V30 6397 H 614.093 3.67113 1.00042 0
M  V30 6398 H 613.605 3.79333 -0.820228 0
M  V30 6399 H 611.706 3.36144 1.60742 0
M  V30 6400 H 611.819 4.77715 0.364003 0
M  V30 6401 H 610.183 2.53045 0.289855 0
M  V30 6402 H 610.966 3.20074 -1.24127 0
M  V30 6403 N 613.412 0.11024 1.57214 0
M  V30 6404 C 614.375 -0.828808 2.1369 0
M  V30 6405 C 615.375 -1.20059 1.06969 0
M  V30 6406 O 616.565 -1.12754 1.32786 0
M  V30 6407 C 613.697 -2.11959 2.66994 0
M  V30 6408 H 614.89 -0.338146 2.97988 0
M  V30 6409 H 612.443 -0.138913 1.55681 0
M  V30 6410 H 613.178 -2.65476 1.8626 0
M  V30 6411 H 612.963 -1.86258 3.45037 0
M  V30 6412 H 614.453 -2.79105 3.10629 0
M  V30 6413 N 614.89 -1.56749 -0.16351 0
M  V30 6414 C 616.138 -1.82074 -0.87713 0
M  V30 6415 C 616.459 -0.688503 -1.82441 0
M  V30 6416 O 615.729 0.291085 -1.93725 0
M  V30 6417 H 614.309 -0.671677 -0.326893 0
M  V30 6418 H 616.971 -1.9423 -0.161459 0
M  V30 6419 H 616.067 -2.76407 -1.44934 0
M  V30 6420 N 616.368 0.432326 -1.51554 0
M  V30 6421 C 617.331 1.50765 -1.72634 0
M  V30 6422 C 618.331 1.49334 -0.596314 0
M  V30 6423 O 619.521 1.51268 -0.863925 0
M  V30 6424 C 616.653 2.90284 -1.7874 0
M  V30 6425 H 617.846 1.33377 -2.68609 0
M  V30 6426 H 615.399 0.661329 -1.4162 0
M  V30 6427 H 616.134 3.13071 -0.845977 0
M  V30 6428 H 615.919 2.92727 -2.6087 0
M  V30 6429 H 617.409 3.68282 -1.96871 0
M  V30 6430 N 617.846 1.41785 0.688094 0
M  V30 6431 C 618.756 1.46596 1.83158 0
M  V30 6432 C 619.772 0.355862 1.70322 0
M  V30 6433 O 620.948 0.604737 1.92106 0
M  V30 6434 C 618.013 1.35322 3.192 0
M  V30 6435 C 617.074 2.56711 3.4409 0
M  V30 6436 C 616.307 2.45965 4.73642 0
M  V30 6437 O 616.53 1.48827 5.50642 0
M  V30 6438 O 615.464 3.35859 4.99482 0
M  V30 6439 H 619.29 2.43083 1.82056 0
M  V30 6440 H 616.875 1.23404 0.842126 0
M  V30 6441 H 618.757 1.31347 4.00407 0
M  V30 6442 H 617.432 0.419536 3.2097 0
M  V30 6443 H 616.339 2.66262 2.62784 0
M  V30 6444 H 617.672 3.48933 3.47141 0
M  V30 6445 N 619.324 -0.923095 1.27737 0
M  V30 6446 C 620.554 -1.70277 1.17001 0
M  V30 6447 C 620.962 -1.87188 -0.275199 0
M  V30 6448 O 620.305 -1.39195 -1.19877 0
M  V30 6449 C 620.367 -3.11976 1.78637 0
M  V30 6450 C 620.031 -3.18386 3.27841 0
M  V30 6451 C 621.028 -3.00287 4.2441 0
M  V30 6452 C 618.713 -3.41198 3.68632 0
M  V30 6453 C 620.707 -3.04896 5.59747 0
M  V30 6454 C 618.394 -3.4544 5.04097 0
M  V30 6455 C 619.392 -3.27309 5.99465 0
M  V30 6456 O 619.08 -3.31295 7.32461 0
M  V30 6457 H 618.812 -0.539366 0.407505 0
M  V30 6458 H 621.366 -1.16446 1.69202 0
M  V30 6459 H 619.596 -3.67308 1.20919 0
M  V30 6460 H 621.285 -3.7193 1.6255 0
M  V30 6461 H 622.051 -2.825 3.94232 0
M  V30 6462 H 617.93 -3.54359 2.94873 0
M  V30 6463 H 621.474 -2.90662 6.34162 0
M  V30 6464 H 617.371 -3.62753 5.33929 0
M  V30 6465 H 618.139 -3.47719 7.40968 0
M  V30 6466 N 620.802 -1.09834 -1.13024 0
M  V30 6467 C 622.042 -0.846664 -1.8604 0
M  V30 6468 C 622.406 0.616557 -1.81831 0
M  V30 6469 O 623.607 0.984329 -2.50129 0
M  V30 6470 C 621.878 -1.37228 -3.30005 0
M  V30 6471 S 623.437 -1.25511 -4.20467 0
M  V30 6472 H 620.255 -0.30611 -0.64173 0
M  V30 6473 H 622.857 -1.40255 -1.36194 0
M  V30 6474 H 621.561 -2.43138 -3.30624 0
M  V30 6475 H 621.092 -0.81271 -3.84914 0
M  V30 6476 H 623.107 -0.208762 -4.95761 0
M  V30 6477 N 622.28 1.30327 -0.886154 0
M  V30 6478 C 623.505 2.0079 -0.519425 0
M  V30 6479 C 623.93 1.65979 0.885013 0
M  V30 6480 O 623.288 0.877043 1.58675 0
M  V30 6481 C 623.336 3.53686 -0.702758 0
M  V30 6482 O 622.44 4.11637 0.250828 0
M  V30 6483 H 621.781 0.63171 -0.204544 0
M  V30 6484 H 624.311 1.66145 -1.19402 0
M  V30 6485 H 624.321 4.03531 -0.602207 0
M  V30 6486 H 622.996 3.78361 -1.72673 0
M  V30 6487 H 621.573 3.72755 0.103873 0
M  V30 6488 N 623.758 0.647228 1.43697 0
M  V30 6489 C 624.983 0.164083 2.0675 0
M  V30 6490 C 625.408 -1.15892 1.48158 0
M  V30 6491 O 624.766 -1.71459 0.589194 0
M  V30 6492 C 624.814 0.0800368 3.60511 0
M  V30 6493 O 623.918 -0.959453 4.01084 0
M  V30 6494 H 623.259 0.0921288 0.657578 0
M  V30 6495 H 625.789 0.88846 1.84303 0
M  V30 6496 H 625.799 -0.105263 4.07864 0
M  V30 6497 H 624.474 1.04586 4.02535 0
M  V30 6498 H 623.051 -0.747425 3.65333 0
M  V30 6499 N 625.236 -1.5273 0.388769 0
M  V30 6500 C 626.199 -2.25043 -0.434544 0
M  V30 6501 C 627.199 -1.26661 -0.990644 0
M  V30 6502 O 628.389 -1.50762 -0.872731 0
M  V30 6503 C 625.521 -3.00507 -1.60961 0
M  V30 6504 H 626.714 -2.99242 0.198549 0
M  V30 6505 H 624.267 -1.55664 0.140875 0
M  V30 6506 H 625.002 -2.30607 -2.28015 0
M  V30 6507 H 624.787 -3.72716 -1.21757 0
M  V30 6508 H 626.277 -3.55413 -2.19251 0
M  V30 6509 N 626.714 -0.118576 -1.57153 0
M  V30 6510 C 628.13 0.238014 -1.57815 0
M  V30 6511 C 628.33 1.66747 -1.13127 0
M  V30 6512 O 627.386 2.38867 -0.818462 0
M  V30 6513 C 628.699 0.00508207 -3.007 0
M  V30 6514 C 630.247 0.0710139 -3.12919 0
M  V30 6515 C 630.722 -0.13422 -4.57803 0
M  V30 6516 N 632.213 -0.0801755 -4.63131 0
M  V30 6517 C 632.948 -0.213885 -5.73001 0
M  V30 6518 N 632.444 -0.403742 -6.91623 0
M  V30 6519 N 634.237 -0.15349 -5.6189 0
M  V30 6520 H 626.388 -1.05226 -1.84503 0
M  V30 6521 H 628.651 -0.414318 -0.852669 0
M  V30 6522 H 628.357 -0.983125 -3.3768 0
M  V30 6523 H 628.231 0.73714 -3.69927 0
M  V30 6524 H 630.618 1.04975 -2.75798 0
M  V30 6525 H 630.699 -0.692918 -2.46236 0
M  V30 6526 H 630.343 -1.10992 -4.95624 0
M  V30 6527 H 630.273 0.649692 -5.22577 0
M  V30 6528 H 632.764 0.0630689 -3.77847 0
M  V30 6529 H 633.077 -0.496645 -7.71202 0
M  V30 6530 H 631.422 -0.43971 -6.93608 0
M  V30 6531 H 634.613 -0.00613174 -4.681 0
M  V30 6532 H 634.786 -0.261138 -6.47474 0
M  V30 6533 N 628.193 1.56834 0.155195 0
M  V30 6534 C 629.143 1.94061 1.19684 0
M  V30 6535 C 630.127 0.810851 1.38975 0
M  V30 6536 O 631.319 1.07422 1.40675 0
M  V30 6537 C 628.448 2.31778 2.53247 0
M  V30 6538 C 627.534 3.51305 2.37583 0
M  V30 6539 N 627.925 4.68081 1.9166 0
M  V30 6540 C 626.223 3.56228 2.6836 0
M  V30 6541 C 626.924 5.50193 1.88845 0
M  V30 6542 N 625.9 4.91676 2.31852 0
M  V30 6543 H 629.702 2.81826 0.833747 0
M  V30 6544 H 627.216 1.58284 0.363328 0
M  V30 6545 H 629.213 2.56649 3.28538 0
M  V30 6546 H 627.873 1.4536 2.90346 0
M  V30 6547 H 628.884 4.91993 1.6175 0
M  V30 6548 H 625.561 2.8033 3.09389 0
M  V30 6549 H 626.951 6.53801 1.54901 0
M  V30 6550 N 629.671 -0.424282 1.51781 0
M  V30 6551 C 631.082 -1.00368 1.57427 0
M  V30 6552 C 631.433 -1.91962 0.40558 0
M  V30 6553 O 630.558 -2.111 -0.47601 0
M  V30 6554 C 631.153 -1.82707 2.85313 0
M  V30 6555 C 629.712 -2.35675 2.93487 0
M  V30 6556 C 628.859 -1.1524 2.5222 0
M  V30 6557 H 631.81 -0.205064 1.5737 0
M  V30 6558 H 631.831 -2.68294 2.69812 0
M  V30 6559 H 631.343 -1.16017 3.70353 0
M  V30 6560 H 629.444 -3.05781 2.12906 0
M  V30 6561 H 629.557 -2.67578 3.97415 0
M  V30 6562 H 627.921 -1.50174 2.05718 0
M  V30 6563 H 628.704 -0.5014 3.39619 0
M  V30 6564 N 631.149 -1.42148 -0.680565 0
M  V30 6565 C 632.112 -1.4488 -1.77602 0
M  V30 6566 C 633.112 -0.337209 -1.57224 0
M  V30 6567 O 634.302 -0.597778 -1.63622 0
M  V30 6568 C 631.434 -1.27483 -3.16166 0
M  V30 6569 H 632.627 -2.42412 -1.76568 0
M  V30 6570 H 630.18 -1.28511 -0.889645 0
M  V30 6571 H 630.915 -0.30851 -3.22829 0
M  V30 6572 H 630.7 -2.08037 -3.3236 0
M  V30 6573 H 632.19 -1.32265 -3.96101 0
M  V30 6574 N 632.627 0.916307 -1.28225 0
M  V30 6575 C 633.873 1.66794 -1.1641 0
M  V30 6576 C 634.228 1.90278 0.284986 0
M  V30 6577 O 633.521 1.49023 1.20427 0
M  V30 6578 C 633.715 3.03125 -1.8934 0
M  V30 6579 C 633.544 2.92947 -3.41192 0
M  V30 6580 C 632.314 2.9461 -4.10528 0
M  V30 6581 C 634.512 2.7121 -4.36978 0
M  V30 6582 N 632.494 2.74993 -5.48864 0
M  V30 6583 C 633.865 2.60411 -5.6266 0
M  V30 6584 C 635.92 2.56187 -4.26934 0
M  V30 6585 C 634.623 2.3612 -6.79441 0
M  V30 6586 C 636.649 2.33275 -5.43449 0
M  V30 6587 C 636.011 2.23228 -6.68093 0
M  V30 6588 H 632.11 0.616654 -0.480896 0
M  V30 6589 H 634.694 1.08237 -1.61842 0
M  V30 6590 H 632.865 3.59774 -1.46346 0
M  V30 6591 H 634.597 3.67294 -1.69932 0
M  V30 6592 H 631.352 3.0527 -3.62087 0
M  V30 6593 H 631.776 2.68284 -6.21573 0
M  V30 6594 H 636.418 2.62707 -3.31278 0
M  V30 6595 H 634.136 2.28339 -7.75169 0
M  V30 6596 H 637.722 2.22519 -5.37565 0
M  V30 6597 H 636.602 2.05741 -7.5673 0
M  V30 6598 N 634.105 1.10431 1.1244 0
M  V30 6599 C 635.353 0.845045 1.83585 0
M  V30 6600 C 635.674 -0.631168 1.84503 0
M  V30 6601 O 634.944 -1.45825 1.30813 0
M  V30 6602 H 633.524 0.309628 0.679809 0
M  V30 6603 H 636.186 1.39458 1.36153 0
M  V30 6604 H 635.282 1.20786 2.8778 0
M  V30 6605 N 635.583 -1.29855 0.893053 0
M  V30 6606 C 636.533 -2.25493 0.337211 0
M  V30 6607 C 637.517 -1.51606 -0.53894 0
M  V30 6608 O 638.709 -1.72828 -0.382043 0
M  V30 6609 C 635.838 -3.40467 -0.440117 0
M  V30 6610 C 634.924 -4.217 0.450578 0
M  V30 6611 N 635.315 -4.81312 1.55476 0
M  V30 6612 C 633.613 -4.45315 0.247154 0
M  V30 6613 C 634.314 -5.42241 2.10593 0
M  V30 6614 N 633.29 -5.25267 1.39982 0
M  V30 6615 H 637.092 -2.69137 1.18079 0
M  V30 6616 H 634.606 -1.44388 0.743359 0
M  V30 6617 H 636.603 -4.08038 -0.855021 0
M  V30 6618 H 635.263 -2.98361 -1.28104 0
M  V30 6619 H 636.274 -4.80291 1.93755 0
M  V30 6620 H 632.951 -4.13782 -0.555939 0
M  V30 6621 H 634.341 -5.99517 3.03362 0
M  V30 6622 N 637.061 -0.65484 -1.43351 0
M  V30 6623 C 638.301 -0.172514 -2.03671 0
M  V30 6624 C 638.665 1.19154 -1.50553 0
M  V30 6625 O 639.866 1.76737 -2.02528 0
M  V30 6626 C 638.137 -0.183982 -3.56926 0
M  V30 6627 S 639.696 0.230262 -4.38195 0
M  V30 6628 H 636.514 -0.0727503 -0.707268 0
M  V30 6629 H 639.116 -0.863537 -1.75395 0
M  V30 6630 H 637.82 -1.17945 -3.93087 0
M  V30 6631 H 637.351 0.527527 -3.89847 0
M  V30 6632 H 639.366 1.46874 -4.73965 0
M  V30 6633 N 638.539 1.52521 -0.396863 0
M  V30 6634 C 639.786 2.01672 0.182898 0
M  V30 6635 C 640.114 1.28302 1.46181 0
M  V30 6636 O 639.369 0.374118 1.92091 0
M  V30 6637 C 639.668 3.5403 0.489677 0
M  V30 6638 C 639.334 4.45456 -0.698581 0
M  V30 6639 C 637.996 4.70166 -1.02454 0
M  V30 6640 C 640.348 4.99354 -1.49316 0
M  V30 6641 C 637.676 5.46024 -2.1465 0
M  V30 6642 C 640.028 5.76439 -2.60579 0
M  V30 6643 C 638.692 5.99426 -2.93675 0
M  V30 6644 H 637.962 0.737971 0.066927 0
M  V30 6645 H 640.609 1.83853 -0.535764 0
M  V30 6646 H 638.914 3.69963 1.28976 0
M  V30 6647 H 640.611 3.8956 0.951018 0
M  V30 6648 H 637.201 4.26392 -0.434525 0
M  V30 6649 H 641.385 4.80182 -1.25457 0
M  V30 6650 H 636.641 5.62046 -2.40654 0
M  V30 6651 H 640.815 6.17202 -3.22544 0
M  V30 6652 H 638.442 6.57988 -3.80731 0
M  V30 6653 N 640.017 0.126909 1.57088 0
M  V30 6654 C 641.247 -0.535892 1.99529 0
M  V30 6655 C 641.655 -1.60259 1.00566 0
M  V30 6656 O 640.998 -1.83698 -0.00843269 0
M  V30 6657 C 641.06 -1.21374 3.38391 0
M  V30 6658 C 640.724 -0.294044 4.56053 0
M  V30 6659 C 641.721 0.470454 5.17767 0
M  V30 6660 C 639.406 -0.202808 5.0189 0
M  V30 6661 C 641.4 1.31384 6.23712 0
M  V30 6662 C 639.087 0.644203 6.07695 0
M  V30 6663 C 640.085 1.40115 6.68473 0
M  V30 6664 O 639.773 2.23408 7.72233 0
M  V30 6665 H 639.505 -0.145799 0.66009 0
M  V30 6666 H 642.059 0.212441 2.04298 0
M  V30 6667 H 640.289 -2.00931 3.30399 0
M  V30 6668 H 641.978 -1.77424 3.65069 0
M  V30 6669 H 642.744 0.409884 4.83265 0
M  V30 6670 H 638.623 -0.781688 4.54324 0
M  V30 6671 H 642.167 1.90514 6.71081 0
M  V30 6672 H 638.064 0.706137 6.41626 0
M  V30 6673 H 638.832 2.16436 7.89365 0
M  V30 6674 N 641.495 -1.56914 -0.146875 0
M  V30 6675 C 642.911 -1.51582 -0.499518 0
M  V30 6676 C 643.111 -0.83535 -1.83369 0
M  V30 6677 O 642.167 -0.405932 -2.49216 0
M  V30 6678 C 643.48 -2.96349 -0.509711 0
M  V30 6679 C 645.028 -3.07288 -0.595217 0
M  V30 6680 C 645.503 -4.53562 -0.636071 0
M  V30 6681 N 646.994 -4.57906 -0.69829 0
M  V30 6682 C 647.729 -5.68462 -0.750886 0
M  V30 6683 N 647.225 -6.88588 -0.76282 0
M  V30 6684 N 649.018 -5.56496 -0.791777 0
M  V30 6685 H 641.169 -1.99547 0.727656 0
M  V30 6686 H 643.432 -0.910113 0.265327 0
M  V30 6687 H 643.138 -3.4939 0.402409 0
M  V30 6688 H 643.012 -3.52307 -1.34758 0
M  V30 6689 H 645.399 -2.54266 -1.49776 0
M  V30 6690 H 645.48 -2.54373 0.2698 0
M  V30 6691 H 645.124 -5.07222 0.262313 0
M  V30 6692 H 645.054 -5.04259 -1.51758 0
M  V30 6693 H 647.545 -3.71429 -0.696362 0
M  V30 6694 H 647.858 -7.68598 -0.804804 0
M  V30 6695 H 646.203 -6.91148 -0.730694 0
M  V30 6696 H 649.394 -4.61562 -0.779624 0
M  V30 6697 H 649.567 -6.42671 -0.829301 0
M  V30 6698 N 642.974 0.416227 -1.52004 0
M  V30 6699 C 643.904 1.51365 -1.77795 0
M  V30 6700 C 644.885 1.58059 -0.628601 0
M  V30 6701 O 646.07 1.73447 -0.873478 0
M  V30 6702 C 643.2 2.89256 -1.92219 0
M  V30 6703 C 642.154 2.97415 -3.0778 0
M  V30 6704 C 641.48 4.37492 -3.07417 0
M  V30 6705 C 642.78 2.69551 -4.47369 0
M  V30 6706 H 644.474 1.30033 -2.69688 0
M  V30 6707 H 642.02 0.624112 -1.29772 0
M  V30 6708 H 643.973 3.66008 -2.08845 0
M  V30 6709 H 642.697 3.11866 -0.969917 0
M  V30 6710 H 641.356 2.23107 -2.90893 0
M  V30 6711 H 641.004 4.571 -2.09925 0
M  V30 6712 H 640.704 4.43877 -3.85029 0
M  V30 6713 H 642.228 5.16188 -3.26162 0
M  V30 6714 H 643.642 3.36028 -4.64497 0
M  V30 6715 H 642.039 2.87321 -5.26846 0
M  V30 6716 H 643.109 1.65029 -4.55953 0
M  V30 6717 N 644.452 1.42507 0.673017 0
M  V30 6718 C 645.682 1.46261 1.45916 0
M  V30 6719 C 646.09 0.0729724 1.89059 0
M  V30 6720 O 645.433 -0.922987 1.58829 0
M  V30 6721 C 645.495 2.32853 2.73898 0
M  V30 6722 C 645.159 3.80699 2.52819 0
M  V30 6723 C 646.156 4.72307 2.17306 0
M  V30 6724 C 643.841 4.24983 2.67758 0
M  V30 6725 C 645.835 6.06192 1.97003 0
M  V30 6726 C 643.522 5.58927 2.4707 0
M  V30 6727 C 644.52 6.49348 2.11746 0
M  V30 6728 O 644.208 7.80817 1.91259 0
M  V30 6729 H 643.94 0.499561 0.455428 0
M  V30 6730 H 646.494 1.87697 0.834196 0
M  V30 6731 H 644.724 1.86268 3.38882 0
M  V30 6732 H 646.413 2.28041 3.35786 0
M  V30 6733 H 647.179 4.39378 2.05359 0
M  V30 6734 H 643.058 3.54893 2.94231 0
M  V30 6735 H 646.602 6.76731 1.69355 0
M  V30 6736 H 642.499 5.91429 2.58615 0
M  V30 6737 H 643.267 7.92194 2.05843 0
M  V30 6738 N 645.93 -0.909495 1.28709 0
M  V30 6739 C 646.862 -2.01729 1.08804 0
M  V30 6740 C 647.875 -1.62755 0.0384739 0
M  V30 6741 O 649.064 -1.76259 0.281977 0
M  V30 6742 C 646.164 -3.32952 0.63217 0
M  V30 6743 C 645.337 -4.00512 1.75809 0
M  V30 6744 C 644.396 -5.10019 1.29488 0
M  V30 6745 O 643.422 -5.32986 1.99787 0
M  V30 6746 N 644.624 -5.80278 0.1604 0
M  V30 6747 H 647.389 -2.19362 2.04207 0
M  V30 6748 H 644.95 -1.08106 1.20518 0
M  V30 6749 H 646.942 -4.03543 0.305802 0
M  V30 6750 H 645.512 -3.11759 -0.229134 0
M  V30 6751 H 644.732 -3.23413 2.25383 0
M  V30 6752 H 646.02 -4.42395 2.51325 0
M  V30 6753 H 645.418 -5.64094 -0.425937 0
M  V30 6754 H 643.975 -6.51713 -0.106663 0
M  V30 6755 N 647.408 -1.11026 -1.11852 0
M  V30 6756 C 648.685 -0.768347 -1.79877 0
M  V30 6757 C 649.065 0.744261 -1.97545 0
M  V30 6758 O 648.413 1.67271 -1.55669 0
M  V30 6759 C 648.623 -1.52648 -3.13846 0
M  V30 6760 C 649.971 -1.70297 -3.88953 0
M  V30 6761 O 650.995 -1.49037 -3.23522 0
M  V30 6762 O 649.854 -2.05593 -5.06353 0
M  V30 6763 H 646.948 -0.277891 -0.778913 0
M  V30 6764 H 649.494 -1.21343 -1.18633 0
M  V30 6765 H 648.266 -2.55564 -2.96315 0
M  V30 6766 H 647.889 -1.07466 -3.82801 0
M  V30 6767 N 648.886 1.2938 -0.899927 0
M  V30 6768 C 649.816 2.30144 -0.39446 0
M  V30 6769 C 650.797 1.61611 0.530639 0
M  V30 6770 O 651.982 1.89119 0.441319 0
M  V30 6771 C 649.112 3.45229 0.37868 0
M  V30 6772 C 648.066 4.25564 -0.456012 0
M  V30 6773 C 647.392 5.32848 0.444637 0
M  V30 6774 C 648.692 4.93651 -1.70605 0
M  V30 6775 H 650.386 2.72673 -1.23653 0
M  V30 6776 H 647.932 1.31086 -0.596034 0
M  V30 6777 H 649.885 4.14797 0.743037 0
M  V30 6778 H 648.609 3.01545 1.25453 0
M  V30 6779 H 647.268 3.57704 -0.802704 0
M  V30 6780 H 646.916 4.85408 1.31863 0
M  V30 6781 H 646.616 5.87497 -0.110154 0
M  V30 6782 H 648.14 6.05268 0.805182 0
M  V30 6783 H 649.554 5.55655 -1.41141 0
M  V30 6784 H 647.951 5.58233 -2.20217 0
M  V30 6785 H 649.021 4.18926 -2.4419 0
M  V30 6786 N 650.364 0.662433 1.43002 0
M  V30 6787 C 651.274 -0.0239199 2.34588 0
M  V30 6788 C 652.29 -0.802255 1.54402 0
M  V30 6789 O 653.466 -0.747401 1.87018 0
M  V30 6790 C 650.531 -0.972098 3.32793 0
M  V30 6791 C 649.592 -0.189673 4.28881 0
M  V30 6792 C 648.825 -1.09269 5.22395 0
M  V30 6793 O 649.048 -2.33209 5.20547 0
M  V30 6794 O 647.982 -0.560136 5.99288 0
M  V30 6795 H 651.808 0.730171 2.94792 0
M  V30 6796 H 649.393 0.422635 1.43297 0
M  V30 6797 H 651.275 -1.51676 3.93157 0
M  V30 6798 H 649.95 -1.70626 2.75079 0
M  V30 6799 H 648.857 0.398794 3.71968 0
M  V30 6800 H 650.19 0.50511 4.89601 0
M  V30 6801 N 651.842 -1.52309 0.404946 0
M  V30 6802 C 653.07 -2.06185 -0.171818 0
M  V30 6803 C 653.485 -1.27536 -1.39212 0
M  V30 6804 O 652.842 -0.326112 -1.79563 0
M  V30 6805 C 652.893 -3.57647 -0.526417 0
M  V30 6806 O 652.614 -4.3332 0.645417 0
M  V30 6807 C 654.115 -4.27925 -1.15736 0
M  V30 6808 H 651.335 -0.670632 -0.0222328 0
M  V30 6809 H 653.879 -1.96259 0.574692 0
M  V30 6810 H 652.034 -3.67595 -1.22282 0
M  V30 6811 H 652.448 -5.23328 0.35042 0
M  V30 6812 H 653.922 -5.35093 -1.35572 0
M  V30 6813 H 654.399 -3.84134 -2.12926 0
M  V30 6814 H 655.005 -4.22335 -0.501281 0
M  V30 6815 N 653.32 -0.135238 -1.57019 0
M  V30 6816 C 654.27 0.820408 -2.12728 0
M  V30 6817 C 655.254 1.21735 -1.05211 0
M  V30 6818 O 656.446 1.18574 -1.31413 0
M  V30 6819 C 653.575 2.06414 -2.74314 0
M  V30 6820 C 652.661 1.69083 -3.88937 0
M  V30 6821 N 653.052 1.0251 -4.95303 0
M  V30 6822 C 651.35 1.98434 -3.99425 0
M  V30 6823 C 652.051 0.846749 -5.75504 0
M  V30 6824 N 651.027 1.3769 -5.25873 0
M  V30 6825 H 654.829 0.302426 -2.9234 0
M  V30 6826 H 652.343 0.0667009 -1.62263 0
M  V30 6827 H 654.34 2.75863 -3.12579 0
M  V30 6828 H 653 2.58741 -1.96171 0
M  V30 6829 H 654.011 0.687207 -5.1332 0
M  V30 6830 H 650.688 2.52693 -3.32344 0
M  V30 6831 H 652.078 0.322949 -6.71123 0
M  V30 6832 N 654.798 1.5699 0.138552 0
M  V30 6833 C 656.214 1.51844 0.491472 0
M  V30 6834 C 656.414 0.845063 1.82923 0
M  V30 6835 O 655.47 0.419143 2.48997 0
M  V30 6836 C 656.783 2.96615 0.493987 0
M  V30 6837 C 658.331 3.076 0.578913 0
M  V30 6838 C 658.806 4.53893 0.612009 0
M  V30 6839 N 660.297 4.5827 0.673997 0
M  V30 6840 C 661.032 5.68852 0.720729 0
M  V30 6841 N 660.528 6.88982 0.726292 0
M  V30 6842 N 662.321 5.56908 0.762253 0
M  V30 6843 H 654.472 1.99158 -0.738228 0
M  V30 6844 H 656.735 0.908693 -0.270149 0
M  V30 6845 H 656.441 3.49172 -0.420933 0
M  V30 6846 H 656.315 3.53017 1.32887 0
M  V30 6847 H 658.702 2.55057 1.48425 0
M  V30 6848 H 658.783 2.54227 -0.283286 0
M  V30 6849 H 658.427 5.07076 -0.289208 0
M  V30 6850 H 658.357 5.05057 1.49082 0
M  V30 6851 H 660.848 3.71793 0.676654 0
M  V30 6852 H 661.161 7.69014 0.764032 0
M  V30 6853 H 659.506 6.91526 0.69403 0
M  V30 6854 H 662.697 4.61969 0.755135 0
M  V30 6855 H 662.87 6.43102 0.795207 0
M  V30 6856 N 656.276 -0.40816 1.52223 0
M  V30 6857 C 657.206 -1.5042 1.78595 0
M  V30 6858 C 658.187 -1.57723 0.636974 0
M  V30 6859 O 659.372 -1.72982 0.882664 0
M  V30 6860 C 656.502 -2.88232 1.93751 0
M  V30 6861 C 655.456 -2.95779 3.09352 0
M  V30 6862 C 654.782 -4.35855 3.09732 0
M  V30 6863 C 656.082 -2.67175 4.48793 0
M  V30 6864 H 657.776 -1.28601 2.70374 0
M  V30 6865 H 655.322 -0.617221 1.30101 0
M  V30 6866 H 657.275 -3.64895 2.10783 0
M  V30 6867 H 655.999 -3.11347 0.986443 0
M  V30 6868 H 654.658 -2.21561 2.92072 0
M  V30 6869 H 654.306 -4.55981 2.12346 0
M  V30 6870 H 654.006 -4.41829 3.87377 0
M  V30 6871 H 655.53 -5.14451 3.28895 0
M  V30 6872 H 656.944 -3.3356 4.66273 0
M  V30 6873 H 655.341 -2.84523 5.28362 0
M  V30 6874 H 656.411 -1.62609 4.56822 0
M  V30 6875 N 657.755 -1.42862 -0.66545 0
M  V30 6876 C 659.166 -1.3901 -1.24632 0
M  V30 6877 C 659.517 -0.0880285 -1.96002 0
M  V30 6878 O 658.642 0.812947 -2.0055 0
M  V30 6879 C 659.237 -2.51806 -2.2667 0
M  V30 6880 C 657.796 -2.51257 -2.80262 0
M  V30 6881 C 656.943 -2.30124 -1.5472 0
M  V30 6882 H 659.894 -1.5194 -0.458237 0
M  V30 6883 H 659.915 -2.22593 -3.08598 0
M  V30 6884 H 659.427 -3.46558 -1.74697 0
M  V30 6885 H 657.528 -1.60349 -3.36332 0
M  V30 6886 H 657.641 -3.48614 -3.28641 0
M  V30 6887 H 656.005 -1.7856 -1.81627 0
M  V30 6888 H 656.788 -3.26945 -1.04699 0
M  V30 6889 N 659.233 0.902656 -1.29189 0
M  V30 6890 C 660.473 1.6672 -1.18254 0
M  V30 6891 C 660.837 1.90199 0.262336 0
M  V30 6892 O 662.038 2.6421 0.494612 0
M  V30 6893 C 660.309 2.98178 -1.9704 0
M  V30 6894 S 661.868 3.89226 -2.02605 0
M  V30 6895 H 658.686 0.572432 -0.421714 0
M  V30 6896 H 661.288 1.07279 -1.63436 0
M  V30 6897 H 659.992 2.788 -3.01163 0
M  V30 6898 H 659.523 3.62661 -1.5245 0
M  V30 6899 H 661.538 4.82913 -1.14059 0
M  V30 6900 N 660.711 1.11618 1.11262 0
M  V30 6901 C 661.939 0.888739 1.8684 0
M  V30 6902 C 662.354 -0.561558 1.80255 0
M  V30 6903 O 661.711 -1.38782 1.18515 0
M  V30 6904 C 661.762 1.34422 3.35579 0
M  V30 6905 O 661.483 2.73766 3.42029 0
M  V30 6906 C 662.984 1.15246 4.28058 0
M  V30 6907 H 660.204 0.318152 0.590779 0
M  V30 6908 H 662.748 1.48398 1.40707 0
M  V30 6909 H 660.903 0.79239 3.7921 0
M  V30 6910 H 661.317 2.9355 4.34659 0
M  V30 6911 H 662.791 1.52015 5.30656 0
M  V30 6912 H 663.268 0.0922007 4.39103 0
M  V30 6913 H 663.874 1.69136 3.90222 0
M  V30 6914 N 662.189 -1.289 0.906776 0
M  V30 6915 C 663.414 -1.99939 0.551303 0
M  V30 6916 C 663.839 -1.67366 -0.858496 0
M  V30 6917 O 663.197 -0.902176 -1.57259 0
M  V30 6918 C 663.245 -3.52523 0.758937 0
M  V30 6919 O 662.349 -4.11983 -0.185308 0
M  V30 6920 H 661.69 -0.628376 0.214568 0
M  V30 6921 H 664.22 -1.64225 1.2203 0
M  V30 6922 H 664.23 -4.02522 0.666329 0
M  V30 6923 H 662.905 -3.75566 1.78671 0
M  V30 6924 H 661.482 -3.72873 -0.0445577 0
M  V30 6925 N 663.667 -0.670007 -1.42649 0
M  V30 6926 C 665.083 -0.33911 -1.55956 0
M  V30 6927 C 665.283 1.1558 -1.65056 0
M  V30 6928 O 664.339 1.94111 -1.61485 0
M  V30 6929 C 665.652 -1.06522 -2.812 0
M  V30 6930 C 667.2 -1.04708 -2.94966 0
M  V30 6931 C 667.675 -1.75442 -4.23065 0
M  V30 6932 N 669.166 -1.72286 -4.29967 0
M  V30 6933 C 669.901 -2.23877 -5.27889 0
M  V30 6934 N 669.397 -2.83829 -6.31991 0
M  V30 6935 N 671.19 -2.14279 -5.19654 0
M  V30 6936 H 663.341 -1.6399 -1.34986 0
M  V30 6937 H 665.604 -0.690603 -0.649439 0
M  V30 6938 H 665.31 -2.12033 -2.80597 0
M  V30 6939 H 665.184 -0.627398 -3.71946 0
M  V30 6940 H 667.571 -0.000315966 -2.951 0
M  V30 6941 H 667.652 -1.52374 -2.05465 0
M  V30 6942 H 667.296 -2.80084 -4.23693 0
M  V30 6943 H 667.226 -1.25229 -5.11493 0
M  V30 6944 H 669.717 -1.28554 -3.55362 0
M  V30 6945 H 670.03 -3.20827 -7.03057 0
M  V30 6946 H 668.375 -2.87896 -6.32567 0
M  V30 6947 H 671.566 -1.67135 -4.37245 0
M  V30 6948 H 671.739 -2.54792 -5.95806 0
M  V30 6949 N 665.145 1.52092 -0.413018 0
M  V30 6950 C 666.385 2.03765 0.160975 0
M  V30 6951 C 666.749 1.29174 1.4205 0
M  V30 6952 O 667.95 1.71093 2.07318 0
M  V30 6953 C 666.221 3.55167 0.398871 0
M  V30 6954 S 667.78 4.28619 0.939755 0
M  V30 6955 H 664.598 0.709685 0.0432281 0
M  V30 6956 H 667.2 1.87102 -0.566831 0
M  V30 6957 H 665.904 4.07034 -0.524544 0
M  V30 6958 H 665.435 3.7608 1.15444 0
M  V30 6959 H 667.45 4.43773 2.21991 0
M  V30 6960 N 666.623 0.143563 1.56945 0
M  V30 6961 C 668.034 -0.37783 1.82837 0
M  V30 6962 C 668.385 -1.64967 1.06209 0
M  V30 6963 O 667.51 -2.14221 0.306291 0
M  V30 6964 C 668.105 -0.692274 3.31652 0
M  V30 6965 C 666.664 -1.1582 3.58138 0
M  V30 6966 C 665.811 -0.17951 2.76718 0
M  V30 6967 H 668.762 0.368317 1.54367 0
M  V30 6968 H 668.783 -1.54729 3.47619 0
M  V30 6969 H 668.295 0.233572 3.87397 0
M  V30 6970 H 666.396 -2.10011 3.07776 0
M  V30 6971 H 666.509 -1.08655 4.66616 0
M  V30 6972 H 664.873 -0.671458 2.4569 0
M  V30 6973 H 665.656 0.739865 3.35233 0
M  V30 6974 N 668.101 -1.57061 -0.130224 0
M  V30 6975 C 669.517 -1.52103 -0.483413 0
M  V30 6976 C 669.717 -0.854752 -1.82473 0
M  V30 6977 O 668.773 -0.432342 -2.48771 0
M  V30 6978 C 670.086 -2.96872 -0.47825 0
M  V30 6979 C 671.634 -3.07902 -0.562592 0
M  V30 6980 C 672.109 -4.54211 -0.587929 0
M  V30 6981 N 673.6 -4.58621 -0.649684 0
M  V30 6982 C 674.335 -5.69227 -0.690551 0
M  V30 6983 N 673.831 -6.89358 -0.689743 0
M  V30 6984 N 675.624 -5.57304 -0.732708 0
M  V30 6985 H 667.775 -1.98764 0.748779 0
M  V30 6986 H 670.038 -0.907248 0.274965 0
M  V30 6987 H 669.744 -3.48944 0.439444 0
M  V30 6988 H 669.618 -3.53716 -1.31013 0
M  V30 6989 H 672.005 -2.5584 -1.47071 0
M  V30 6990 H 672.086 -2.54073 0.296764 0
M  V30 6991 H 671.73 -5.06915 0.316096 0
M  V30 6992 H 671.66 -5.0584 -1.46401 0
M  V30 6993 H 674.151 -3.72146 -0.656927 0
M  V30 6994 H 674.464 -7.69408 -0.723239 0
M  V30 6995 H 672.809 -6.91884 -0.657347 0
M  V30 6996 H 676 -4.62363 -0.730625 0
M  V30 6997 H 676.173 -6.43515 -0.76109 0
M  V30 6998 N 669.579 0.400081 -1.52437 0
M  V30 6999 C 670.99 0.97851 -1.59003 0
M  V30 7000 C 671.341 1.91293 -0.436068 0
M  V30 7001 O 670.466 2.1183 0.442365 0
M  V30 7002 C 671.061 1.78145 -2.88184 0
M  V30 7003 C 669.62 2.30976 -2.97199 0
M  V30 7004 C 668.767 1.11212 -2.54022 0
M  V30 7005 H 671.718 0.180002 -1.57676 0
M  V30 7006 H 671.739 2.63968 -2.74046 0
M  V30 7007 H 671.251 1.1011 -3.72152 0
M  V30 7008 H 669.352 3.02355 -2.17744 0
M  V30 7009 H 669.465 2.61221 -4.01622 0
M  V30 7010 H 667.829 1.46882 -2.08081 0
M  V30 7011 H 668.612 0.447307 -3.40373 0
M  V30 7012 N 671.057 1.43213 0.657864 0
M  V30 7013 C 672.297 1.46083 1.42965 0
M  V30 7014 C 672.661 0.0809712 1.91829 0
M  V30 7015 O 673.862 -0.0156305 2.68795 0
M  V30 7016 C 672.133 2.47044 2.58271 0
M  V30 7017 S 673.692 2.68753 3.46868 0
M  V30 7018 H 670.51 0.517015 0.488074 0
M  V30 7019 H 673.112 1.79945 0.764213 0
M  V30 7020 H 671.816 3.46044 2.20639 0
M  V30 7021 H 671.347 2.14665 3.2967 0
M  V30 7022 H 673.362 1.98329 4.54841 0
M  V30 7023 N 672.536 -0.895792 1.29666 0
M  V30 7024 C 673.952 -1.17726 1.07763 0
M  V30 7025 C 674.152 -2.00794 -0.168576 0
M  V30 7026 O 673.208 -2.37213 -0.865244 0
M  V30 7027 C 674.521 -1.89441 2.33522 0
M  V30 7028 C 676.069 -2.02251 2.3888 0
M  V30 7029 C 676.544 -2.77378 3.64452 0
M  V30 7030 N 678.035 -2.8493 3.65198 0
M  V30 7031 C 678.77 -3.43606 4.59045 0
M  V30 7032 N 678.266 -4.03417 5.63228 0
M  V30 7033 N 680.059 -3.41317 4.46608 0
M  V30 7034 H 672.21 -0.341652 2.09634 0
M  V30 7035 H 674.473 -0.213865 0.923561 0
M  V30 7036 H 674.179 -1.35842 3.24407 0
M  V30 7037 H 674.053 -2.89893 2.41334 0
M  V30 7038 H 676.44 -2.55025 1.4848 0
M  V30 7039 H 676.521 -1.0092 2.3505 0
M  V30 7040 H 676.165 -2.25279 4.55205 0
M  V30 7041 H 676.095 -3.79062 3.65541 0
M  V30 7042 H 678.586 -2.42453 2.89871 0
M  V30 7043 H 678.899 -4.46224 6.30955 0
M  V30 7044 H 677.244 -4.01868 5.67033 0
M  V30 7045 H 680.435 -2.93812 3.64407 0
M  V30 7046 H 680.608 -3.86751 5.1993 0
M  V30 7047 N 674.014 -1.12206 -1.10668 0
M  V30 7048 C 674.924 -0.800686 -2.20513 0
M  V30 7049 C 675.94 0.209512 -1.72734 0
M  V30 7050 O 677.116 0.043705 -2.01353 0
M  V30 7051 C 674.181 -0.257353 -3.45744 0
M  V30 7052 C 673.242 -1.32718 -4.0827 0
M  V30 7053 C 672.475 -0.809674 -5.27522 0
M  V30 7054 O 672.698 0.35742 -5.69279 0
M  V30 7055 O 671.632 -1.57816 -5.80842 0
M  V30 7056 H 675.458 -1.71807 -2.50432 0
M  V30 7057 H 673.043 -0.898546 -1.19359 0
M  V30 7058 H 674.925 0.0408849 -4.2138 0
M  V30 7059 H 673.6 0.632627 -3.17458 0
M  V30 7060 H 672.507 -1.67855 -3.34329 0
M  V30 7061 H 673.84 -2.19083 -4.40753 0
M  V30 7062 N 675.492 1.28418 -0.913599 0
M  V30 7063 C 676.717 1.99643 -0.561899 0
M  V30 7064 C 677.142 1.67819 0.849608 0
M  V30 7065 O 676.5 0.910503 1.56779 0
M  V30 7066 C 676.548 3.52116 -0.777622 0
M  V30 7067 O 675.652 4.12076 0.163457 0
M  V30 7068 H 674.993 0.627229 -0.217898 0
M  V30 7069 H 677.523 1.63575 -1.229 0
M  V30 7070 H 677.533 4.02163 -0.687666 0
M  V30 7071 H 676.208 3.74613 -1.8066 0
M  V30 7072 H 674.785 3.72892 0.0247827 0
M  V30 7073 N 676.97 0.677563 1.42291 0
M  V30 7074 C 677.933 0.0101085 2.29198 0
M  V30 7075 C 678.933 -0.726219 1.43467 0
M  V30 7076 O 680.123 -0.563807 1.64824 0
M  V30 7077 C 677.255 -0.996316 3.26016 0
M  V30 7078 H 678.448 0.775071 2.89711 0
M  V30 7079 H 676.001 0.440065 1.49977 0
M  V30 7080 H 676.736 -1.78967 2.70446 0
M  V30 7081 H 676.521 -0.471687 3.89253 0
M  V30 7082 H 678.011 -1.46167 3.91184 0
M  V30 7083 N 678.448 -1.51871 0.421078 0
M  V30 7084 C 679.695 -2.01938 -0.15079 0
M  V30 7085 C 680.023 -1.30611 -1.44121 0
M  V30 7086 O 679.278 -0.404631 -1.91471 0
M  V30 7087 C 679.577 -3.54764 -0.433292 0
M  V30 7088 C 679.243 -4.44288 0.76936 0
M  V30 7089 C 677.905 -4.68477 1.09921 0
M  V30 7090 C 680.257 -4.96915 1.57242 0
M  V30 7091 C 677.585 -5.4254 2.2331 0
M  V30 7092 C 679.937 -5.7222 2.69716 0
M  V30 7093 C 678.601 -5.94678 3.03174 0
M  V30 7094 H 677.871 -0.738943 -0.0551781 0
M  V30 7095 H 680.518 -1.82977 0.564945 0
M  V30 7096 H 678.823 -3.71968 -1.23074 0
M  V30 7097 H 680.52 -3.91023 -0.888922 0
M  V30 7098 H 677.11 -4.25646 0.502305 0
M  V30 7099 H 681.294 -4.78125 1.3308 0
M  V30 7100 H 676.55 -5.58146 2.49565 0
M  V30 7101 H 680.724 -6.11992 3.32323 0
M  V30 7102 H 678.351 -6.51848 3.9115 0
M  V30 7103 N 679.926 -0.151884 -1.56866 0
M  V30 7104 C 680.873 0.785936 -2.17006 0
M  V30 7105 C 681.843 1.2407 -1.10435 0
M  V30 7106 O 683.028 1.31235 -1.38499 0
M  V30 7107 C 680.168 2.01771 -2.79969 0
M  V30 7108 C 679.281 1.6083 -4.00946 0
M  V30 7109 C 678.416 2.79224 -4.51893 0
M  V30 7110 C 677.455 2.3468 -5.65324 0
M  V30 7111 N 676.592 3.461 -6.10867 0
M  V30 7112 H 681.432 0.266286 -2.96808 0
M  V30 7113 H 678.969 0.11972 -1.46612 0
M  V30 7114 H 680.927 2.73989 -3.14621 0
M  V30 7115 H 679.557 2.51139 -2.02803 0
M  V30 7116 H 678.609 0.783592 -3.72242 0
M  V30 7117 H 679.921 1.24119 -4.83111 0
M  V30 7118 H 679.075 3.59625 -4.88625 0
M  V30 7119 H 677.814 3.19183 -3.68746 0
M  V30 7120 H 676.819 1.52721 -5.28163 0
M  V30 7121 H 678.044 1.95801 -6.5026 0
M  V30 7122 H 675.99 3.85671 -5.30654 0
M  V30 7123 H 675.907 3.1342 -6.87971 0
M  V30 7124 H 677.175 4.26844 -6.52246 0
M  V30 7125 N 681.404 1.57128 0.121893 0
M  V30 7126 C 682.334 2.03165 1.15092 0
M  V30 7127 C 683.315 0.915587 1.43356 0
M  V30 7128 O 684.5 1.1851 1.53847 0
M  V30 7129 C 681.63 2.43352 2.47784 0
M  V30 7130 C 680.584 3.58376 2.33989 0
M  V30 7131 C 679.91 3.84454 3.71617 0
M  V30 7132 C 681.21 4.90199 1.80283 0
M  V30 7133 H 682.904 2.89382 0.768023 0
M  V30 7134 H 680.45 1.39218 0.367998 0
M  V30 7135 H 682.403 2.74163 3.20019 0
M  V30 7136 H 681.127 1.54103 2.87958 0
M  V30 7137 H 679.786 3.2777 1.64202 0
M  V30 7138 H 679.434 2.92414 4.09271 0
M  V30 7139 H 679.134 4.61877 3.6324 0
M  V30 7140 H 680.658 4.17714 4.45362 0
M  V30 7141 H 682.072 5.19565 2.42333 0
M  V30 7142 H 680.469 5.71601 1.82735 0
M  V30 7143 H 681.539 4.78904 0.760184 0
M  V30 7144 N 682.882 -0.391992 1.52647 0
M  V30 7145 C 684.107 -1.16312 1.71716 0
M  V30 7146 C 684.532 -1.83042 0.433279 0
M  V30 7147 O 683.89 -1.70705 -0.610707 0
M  V30 7148 C 683.938 -2.18908 2.86551 0
M  V30 7149 O 683.042 -3.2543 2.53316 0
M  V30 7150 H 682.383 -0.338743 0.571095 0
M  V30 7151 H 684.913 -0.457202 1.99426 0
M  V30 7152 H 684.923 -2.62954 3.1196 0
M  V30 7153 H 683.598 -1.69726 3.79692 0
M  V30 7154 H 682.175 -2.86543 2.38637 0
M  V30 7155 N 684.36 -1.4356 -0.65026 0
M  V30 7156 C 685.588 -1.48779 -1.43779 0
M  V30 7157 C 686.003 -0.106593 -1.88499 0
M  V30 7158 O 685.36 0.883766 -1.59674 0
M  V30 7159 C 685.411 -2.43618 -2.67081 0
M  V30 7160 O 685.132 -3.76367 -2.24231 0
M  V30 7161 C 686.633 -2.5811 -3.60409 0
M  V30 7162 H 683.853 -0.50521 -0.441593 0
M  V30 7163 H 686.397 -1.88332 -0.796941 0
M  V30 7164 H 684.552 -2.07253 -3.273 0
M  V30 7165 H 684.966 -4.27394 -3.0403 0
M  V30 7166 H 686.44 -3.28539 -4.43583 0
M  V30 7167 H 686.917 -1.627 -4.07953 0
M  V30 7168 H 687.523 -2.95298 -3.0607 0
M  V30 7169 N 685.838 0.888903 -1.30139 0
M  V30 7170 C 687.086 1.63713 -1.18501 0
M  V30 7171 C 687.407 1.9324 0.261399 0
M  V30 7172 O 686.677 1.56608 1.17689 0
M  V30 7173 H 685.257 0.606861 -0.435579 0
M  V30 7174 H 687.919 1.06525 -1.63213 0
M  V30 7175 H 687.015 2.58894 -1.743 0
M  V30 7176 N 687.317 1.12792 1.10072 0
M  V30 7177 C 688.545 0.908506 1.85886 0
M  V30 7178 C 688.96 -0.542408 1.80841 0
M  V30 7179 O 688.317 -1.37517 1.1998 0
M  V30 7180 C 688.368 1.37973 3.34134 0
M  V30 7181 O 688.089 2.77378 3.39106 0
M  V30 7182 C 689.59 1.1978 4.26811 0
M  V30 7183 H 686.81 0.3244 0.587372 0
M  V30 7184 H 689.354 1.49882 1.39125 0
M  V30 7185 H 687.509 0.832566 3.78348 0
M  V30 7186 H 687.923 2.98144 4.31521 0
M  V30 7187 H 689.397 1.57635 5.29014 0
M  V30 7188 H 689.874 0.138768 4.38981 0
M  V30 7189 H 690.48 1.73266 3.88406 0
M  V30 7190 N 688.795 -1.27931 0.920396 0
M  V30 7191 C 690.02 -1.99343 0.572478 0
M  V30 7192 C 690.445 -1.68267 -0.840696 0
M  V30 7193 O 689.803 -0.918805 -1.56294 0
M  V30 7194 C 689.851 -3.51698 0.796284 0
M  V30 7195 O 688.955 -4.12157 -0.141602 0
M  V30 7196 H 688.296 -0.626065 0.221221 0
M  V30 7197 H 690.826 -1.62921 1.23765 0
M  V30 7198 H 690.836 -4.01793 0.708984 0
M  V30 7199 H 689.511 -3.73649 1.82644 0
M  V30 7200 H 688.088 -3.729 -0.005007 0
M  V30 7201 N 690.273 -0.685099 -1.4193 0
M  V30 7202 C 691.689 -0.355632 -1.55587 0
M  V30 7203 C 691.889 1.13823 -1.66273 0
M  V30 7204 O 690.945 1.92387 -1.63534 0
M  V30 7205 C 692.258 -1.09498 -2.80055 0
M  V30 7206 C 693.806 -1.07831 -2.93839 0
M  V30 7207 C 694.281 -1.79919 -4.21181 0
M  V30 7208 N 695.772 -1.76837 -4.28115 0
M  V30 7209 C 696.507 -2.29463 -5.25485 0
M  V30 7210 N 696.003 -2.90516 -6.28945 0
M  V30 7211 N 697.796 -2.19779 -5.17353 0
M  V30 7212 H 689.947 -1.65412 -1.33239 0
M  V30 7213 H 692.21 -0.697453 -0.642078 0
M  V30 7214 H 691.916 -2.14997 -2.78333 0
M  V30 7215 H 691.79 -0.666813 -3.71259 0
M  V30 7216 H 694.177 -0.0316152 -2.95083 0
M  V30 7217 H 694.258 -1.54545 -2.03837 0
M  V30 7218 H 693.902 -2.84562 -4.20698 0
M  V30 7219 H 693.832 -1.30647 -5.10136 0
M  V30 7220 H 696.323 -1.32315 -3.53979 0
M  V30 7221 H 696.636 -3.28266 -6.99615 0
M  V30 7222 H 694.981 -2.94589 -6.29478 0
M  V30 7223 H 698.172 -1.71763 -4.35448 0
M  V30 7224 H 698.345 -2.61097 -5.9307 0
M  V30 7225 N 691.751 1.51645 -0.429126 0
M  V30 7226 C 692.997 2.02967 0.132584 0
M  V30 7227 C 693.352 1.30804 1.41096 0
M  V30 7228 O 692.645 0.411705 1.87124 0
M  V30 7229 C 692.839 3.54989 0.414472 0
M  V30 7230 C 692.668 4.41879 -0.83503 0
M  V30 7231 C 691.438 4.86482 -1.36614 0
M  V30 7232 C 693.636 4.84727 -1.71886 0
M  V30 7233 N 691.618 5.5756 -2.56904 0
M  V30 7234 C 692.989 5.54788 -2.76786 0
M  V30 7235 C 695.044 4.66721 -1.73425 0
M  V30 7236 C 693.747 6.08753 -3.8316 0
M  V30 7237 C 695.773 5.21597 -2.7873 0
M  V30 7238 C 695.135 5.91598 -3.8235 0
M  V30 7239 H 691.234 0.781942 0.00956367 0
M  V30 7240 H 693.818 1.8561 -0.587957 0
M  V30 7241 H 691.989 3.72378 1.10405 0
M  V30 7242 H 693.721 3.92982 0.966817 0
M  V30 7243 H 690.476 4.64553 -0.921255 0
M  V30 7244 H 690.9 5.97731 -3.17879 0
M  V30 7245 H 695.542 4.1207 -0.946467 0
M  V30 7246 H 693.26 6.62464 -4.62782 0
M  V30 7247 H 696.846 5.09522 -2.80853 0
M  V30 7248 H 695.726 6.33299 -4.62495 0
M  V30 7249 N 693.229 0.160201 1.56784 0
M  V30 7250 C 694.64 -0.358417 1.83227 0
M  V30 7251 C 694.991 -1.63831 1.07952 0
M  V30 7252 O 694.116 -2.13885 0.328995 0
M  V30 7253 C 694.711 -0.657058 3.32368 0
M  V30 7254 C 693.27 -1.12015 3.59346 0
M  V30 7255 C 692.417 -0.15015 2.76893 0
M  V30 7256 H 695.368 0.384669 1.53967 0
M  V30 7257 H 695.389 -1.51033 3.49241 0
M  V30 7258 H 694.901 0.274647 3.87127 0
M  V30 7259 H 693.002 -2.06734 3.09987 0
M  V30 7260 H 693.115 -1.037 4.67743 0
M  V30 7261 H 691.479 -0.645361 2.46388 0
M  V30 7262 H 692.262 0.775379 3.34429 0
M  V30 7263 N 694.707 -1.5719 -0.113559 0
M  V30 7264 C 695.932 -1.89702 -0.838336 0
M  V30 7265 C 696.357 -0.752679 -1.72384 0
M  V30 7266 O 695.715 0.296575 -1.78858 0
M  V30 7267 C 695.763 -3.20989 -1.64312 0
M  V30 7268 O 694.867 -3.07278 -2.75053 0
M  V30 7269 H 694.208 -0.622339 -0.231496 0
M  V30 7270 H 696.738 -2.04382 -0.0943228 0
M  V30 7271 H 696.748 -3.53843 -2.03123 0
M  V30 7272 H 695.423 -4.03869 -0.993119 0
M  V30 7273 H 694 -2.85901 -2.39406 0
M  V30 7274 N 696.185 0.383891 -1.52853 0
M  V30 7275 C 697.148 1.45197 -1.77343 0
M  V30 7276 C 698.148 1.47362 -0.643522 0
M  V30 7277 O 699.338 1.48443 -0.911613 0
M  V30 7278 C 696.47 2.8445 -1.87885 0
M  V30 7279 H 697.663 1.24764 -2.72716 0
M  V30 7280 H 695.216 0.615939 -1.43652 0
M  V30 7281 H 695.951 3.10222 -0.94515 0
M  V30 7282 H 695.736 2.8428 -2.70051 0
M  V30 7283 H 697.226 3.61832 -2.08488 0
M  V30 7284 N 697.663 1.43903 0.642637 0
M  V30 7285 C 698.61 1.49881 1.75512 0
M  V30 7286 C 699.58 0.347538 1.62423 0
M  V30 7287 O 700.765 0.556177 1.82514 0
M  V30 7288 C 697.905 1.43797 3.13714 0
M  V30 7289 C 697.018 2.6921 3.37861 0
M  V30 7290 C 696.153 2.5504 4.6597 0
M  V30 7291 C 695.192 3.75671 4.83257 0
M  V30 7292 N 694.329 3.60247 6.02633 0
M  V30 7293 H 699.169 2.44935 1.69737 0
M  V30 7294 H 696.706 1.21572 0.828165 0
M  V30 7295 H 698.664 1.38262 3.93624 0
M  V30 7296 H 697.294 0.523173 3.18532 0
M  V30 7297 H 696.346 2.8498 2.51973 0
M  V30 7298 H 697.658 3.58786 3.46517 0
M  V30 7299 H 696.812 2.47273 5.54023 0
M  V30 7300 H 695.551 1.63006 4.59653 0
M  V30 7301 H 694.556 3.83836 3.93637 0
M  V30 7302 H 695.781 4.68728 4.91397 0
M  V30 7303 H 693.727 2.70955 5.97427 0
M  V30 7304 H 693.644 4.43431 6.12295 0
M  V30 7305 H 694.912 3.56351 6.93278 0
M  V30 7306 N 699.141 -0.881989 1.30609 0
M  V30 7307 C 700.366 -1.67236 1.22665 0
M  V30 7308 C 700.791 -1.8696 -0.206777 0
M  V30 7309 O 700.149 -1.4027 -1.14865 0
M  V30 7310 C 700.197 -3.02446 1.96363 0
M  V30 7311 O 699.301 -3.91614 1.29276 0
M  V30 7312 H 698.642 -0.510902 0.424117 0
M  V30 7313 H 701.172 -1.10055 1.72479 0
M  V30 7314 H 701.182 -3.52468 2.055 0
M  V30 7315 H 699.857 -2.8741 3.00613 0
M  V30 7316 H 698.434 -3.50055 1.28514 0
M  V30 7317 N 700.619 -1.13374 -1.09472 0
M  V30 7318 C 701.582 -0.813639 -2.14272 0
M  V30 7319 C 702.582 0.176677 -1.59826 0
M  V30 7320 O 703.772 -0.0503441 -1.74127 0
M  V30 7321 C 700.904 -0.210897 -3.40247 0
M  V30 7322 H 702.097 -1.74229 -2.44099 0
M  V30 7323 H 699.65 -0.938304 -1.25002 0
M  V30 7324 H 700.385 0.726998 -3.16046 0
M  V30 7325 H 700.17 -0.924048 -3.81056 0
M  V30 7326 H 701.66 -0.00377603 -4.176 0
M  V30 7327 N 702.098 1.27442 -0.927168 0
M  V30 7328 C 703.346 1.94007 -0.566203 0
M  V30 7329 C 703.667 1.7323 0.895345 0
M  V30 7330 O 702.937 1.07973 1.63459 0
M  V30 7331 H 701.517 0.717917 -0.206409 0
M  V30 7332 H 704.179 1.55161 -1.17945 0
M  V30 7333 H 703.275 3.02401 -0.772028 0
M  V30 7334 N 703.576 0.692616 1.41565 0
M  V30 7335 C 704.822 0.231408 2.02079 0
M  V30 7336 C 705.177 -1.15514 1.53864 0
M  V30 7337 O 704.47 -1.76786 0.73873 0
M  V30 7338 C 704.664 0.225073 3.56691 0
M  V30 7339 C 704.493 1.60947 4.19912 0
M  V30 7340 C 703.263 2.2116 4.54331 0
M  V30 7341 C 705.461 2.55553 4.46315 0
M  V30 7342 N 703.443 3.52195 5.02824 0
M  V30 7343 C 704.814 3.71263 4.96552 0
M  V30 7344 C 706.869 2.53857 4.28323 0
M  V30 7345 C 705.572 4.85555 5.30687 0
M  V30 7346 C 707.598 3.67259 4.63546 0
M  V30 7347 C 706.96 4.81699 5.13951 0
M  V30 7348 H 703.059 0.130001 0.771119 0
M  V30 7349 H 705.643 0.909459 1.72154 0
M  V30 7350 H 703.814 -0.422453 3.86096 0
M  V30 7351 H 705.546 -0.250685 4.03923 0
M  V30 7352 H 702.301 1.73474 4.40685 0
M  V30 7353 H 702.725 4.19354 5.3148 0
M  V30 7354 H 707.367 1.66598 3.88594 0
M  V30 7355 H 705.085 5.73477 5.69341 0
M  V30 7356 H 708.671 3.67195 4.51286 0
M  V30 7357 H 707.551 5.67995 5.40695 0
M  V30 7358 N 705.054 -1.51416 0.437162 0
M  V30 7359 C 706.282 -2.06503 -0.128045 0
M  V30 7360 C 706.697 -1.30461 -1.36475 0
M  V30 7361 O 706.054 -0.364127 -1.78831 0
M  V30 7362 C 706.105 -3.58683 -0.450437 0
M  V30 7363 O 705.826 -4.31853 0.737186 0
M  V30 7364 C 707.327 -4.30284 -1.06633 0
M  V30 7365 H 704.547 -0.670952 -0.00800269 0
M  V30 7366 H 707.091 -1.94996 0.616193 0
M  V30 7367 H 705.246 -3.70106 -1.14457 0
M  V30 7368 H 705.66 -5.22467 0.461347 0
M  V30 7369 H 707.134 -5.37848 -1.24191 0
M  V30 7370 H 707.611 -3.88564 -2.0473 0
M  V30 7371 H 708.217 -4.23304 -0.411585 0
M  V30 7372 N 706.532 -0.168513 -1.56696 0
M  V30 7373 C 707.462 0.758563 -2.20835 0
M  V30 7374 C 708.443 1.24121 -1.1631 0
M  V30 7375 O 709.628 1.29487 -1.4473 0
M  V30 7376 C 706.758 1.9892 -2.8469 0
M  V30 7377 C 705.712 1.64252 -3.95228 0
M  V30 7378 C 705.038 2.94757 -4.46119 0
M  V30 7379 C 706.338 0.872675 -5.14958 0
M  V30 7380 H 708.032 0.223953 -2.98561 0
M  V30 7381 H 705.578 0.106277 -1.43607 0
M  V30 7382 H 707.531 2.64275 -3.28233 0
M  V30 7383 H 706.255 2.5479 -2.04327 0
M  V30 7384 H 704.914 1.01266 -3.52336 0
M  V30 7385 H 704.562 3.48662 -3.62552 0
M  V30 7386 H 704.262 2.72316 -5.2069 0
M  V30 7387 H 705.786 3.61147 -4.92347 0
M  V30 7388 H 707.2 1.42875 -5.55211 0
M  V30 7389 H 705.597 0.747402 -5.95428 0
M  V30 7390 H 706.667 -0.131535 -4.84722 0
M  V30 7391 N 708.01 1.57248 0.105221 0
M  V30 7392 C 708.973 2.00388 1.11252 0
M  V30 7393 C 709.973 0.89594 1.33527 0
M  V30 7394 O 711.163 1.16166 1.29811 0
M  V30 7395 C 708.295 2.35589 2.46395 0
M  V30 7396 H 709.488 2.90591 0.741424 0
M  V30 7397 H 707.041 1.52332 0.349956 0
M  V30 7398 H 707.776 1.4831 2.884 0
M  V30 7399 H 707.561 3.16408 2.31578 0
M  V30 7400 H 709.051 2.69658 3.18864 0
M  V30 7401 N 709.488 -0.375779 1.53054 0
M  V30 7402 C 710.716 -1.14036 1.72637 0
M  V30 7403 C 711.131 -1.83342 0.450687 0
M  V30 7404 O 710.488 -1.7318 -0.575749 0
M  V30 7405 C 710.539 -2.17841 2.88492 0
M  V30 7406 O 710.26 -1.51358 4.11123 0
M  V30 7407 C 711.761 -3.06924 3.19863 0
M  V30 7408 H 708.981 -0.341386 0.577665 0
M  V30 7409 H 711.525 -0.437809 1.99759 0
M  V30 7410 H 709.68 -2.8371 2.63794 0
M  V30 7411 H 710.094 -2.20439 4.75928 0
M  V30 7412 H 711.568 -3.75763 4.04359 0
M  V30 7413 H 712.045 -3.71169 2.34798 0
M  V30 7414 H 712.651 -2.46684 3.46449 0
M  V30 7415 N 710.966 -1.44241 -0.634997 0
M  V30 7416 C 711.896 -1.53632 -1.7584 0
M  V30 7417 C 712.877 -0.389603 -1.65578 0
M  V30 7418 O 714.062 -0.609219 -1.84397 0
M  V30 7419 C 711.192 -1.47644 -3.14354 0
M  V30 7420 C 710.146 -2.60752 -3.394 0
M  V30 7421 C 709.472 -2.39817 -4.77904 0
M  V30 7422 C 710.772 -4.02921 -3.32343 0
M  V30 7423 H 712.466 -2.47662 -1.68238 0
M  V30 7424 H 710.012 -1.19197 -0.807969 0
M  V30 7425 H 711.965 -1.52815 -3.92716 0
M  V30 7426 H 710.689 -0.501284 -3.2273 0
M  V30 7427 H 709.348 -2.54965 -2.63417 0
M  V30 7428 H 708.996 -1.40502 -4.82978 0
M  V30 7429 H 708.696 -3.15649 -4.9562 0
M  V30 7430 H 710.22 -2.46799 -5.585 0
M  V30 7431 H 711.634 -4.10098 -4.00615 0
M  V30 7432 H 710.031 -4.78925 -3.61595 0
M  V30 7433 H 711.101 -4.26766 -2.30215 0
M  V30 7434 N 712.444 0.87505 -1.31075 0
M  V30 7435 C 713.692 1.62447 -1.20231 0
M  V30 7436 C 714.013 1.93506 0.240888 0
M  V30 7437 O 713.283 1.57847 1.16022 0
M  V30 7438 H 711.863 0.602207 -0.441991 0
M  V30 7439 H 714.525 1.04788 -1.64334 0
M  V30 7440 H 713.621 2.57031 -1.77036 0
M  V30 7441 N 713.922 1.13953 1.08869 0
M  V30 7442 C 714.832 0.835666 2.19212 0
M  V30 7443 C 715.848 -0.182005 1.73045 0
M  V30 7444 O 717.024 -0.0116661 2.01397 0
M  V30 7445 C 714.089 0.312325 3.4529 0
M  V30 7446 C 713.15 1.39196 4.06107 0
M  V30 7447 C 712.383 0.893496 5.26168 0
M  V30 7448 O 712.606 -0.266807 5.69776 0
M  V30 7449 O 711.54 1.67037 5.78258 0
M  V30 7450 H 715.366 1.75769 2.47667 0
M  V30 7451 H 712.951 0.917421 1.17914 0
M  V30 7452 H 714.833 0.0261582 4.21392 0
M  V30 7453 H 713.508 -0.582042 3.18424 0
M  V30 7454 H 712.415 1.73152 3.31616 0
M  V30 7455 H 713.748 2.26068 4.37212 0
M  V30 7456 N 715.4 -1.26948 0.933913 0
M  V30 7457 C 716.332 -2.25768 0.395137 0
M  V30 7458 C 717.345 -1.55637 -0.477585 0
M  V30 7459 O 718.534 -1.76142 -0.289204 0
M  V30 7460 C 715.634 -3.35874 -0.451882 0
M  V30 7461 C 714.807 -4.3554 0.40299 0
M  V30 7462 C 713.866 -5.24809 -0.3824 0
M  V30 7463 O 712.892 -5.68805 0.212057 0
M  V30 7464 N 714.094 -5.55636 -1.68072 0
M  V30 7465 H 716.859 -2.72634 1.24463 0
M  V30 7466 H 714.42 -1.40639 0.802008 0
M  V30 7467 H 716.412 -3.92542 -0.984516 0
M  V30 7468 H 714.982 -2.8856 -1.20215 0
M  V30 7469 H 714.202 -3.78047 1.11688 0
M  V30 7470 H 715.49 -4.99131 0.987201 0
M  V30 7471 H 714.888 -5.2176 -2.18592 0
M  V30 7472 H 713.445 -6.14978 -2.15975 0
M  V30 7473 N 716.879 -0.700114 -1.41195 0
M  V30 7474 C 718.127 -0.232546 -2.00758 0
M  V30 7475 C 718.448 1.1734 -1.55745 0
M  V30 7476 O 717.718 1.79262 -0.790058 0
M  V30 7477 H 716.298 -0.0829845 -0.742376 0
M  V30 7478 H 718.96 -0.902289 -1.72756 0
M  V30 7479 H 718.056 -0.253521 -3.11069 0
M  V30 7480 N 718.357 1.51182 -0.445186 0
M  V30 7481 C 719.287 2.30821 0.352686 0
M  V30 7482 C 720.268 1.36576 1.01395 0
M  V30 7483 O 721.453 1.65497 1.01609 0
M  V30 7484 C 718.583 3.15593 1.44976 0
M  V30 7485 C 717.537 4.1818 0.911553 0
M  V30 7486 C 716.863 4.91523 2.10497 0
M  V30 7487 C 718.163 5.22266 -0.059418 0
M  V30 7488 H 719.857 2.97771 -0.311936 0
M  V30 7489 H 717.403 1.43201 -0.151461 0
M  V30 7490 H 719.356 3.70091 2.01521 0
M  V30 7491 H 718.08 2.4648 2.14278 0
M  V30 7492 H 716.739 3.64746 0.368264 0
M  V30 7493 H 716.387 4.18906 2.78437 0
M  V30 7494 H 716.087 5.60898 1.7512 0
M  V30 7495 H 717.611 5.48847 2.6758 0
M  V30 7496 H 719.025 5.71789 0.415985 0
M  V30 7497 H 717.422 5.99213 -0.326152 0
M  V30 7498 H 718.492 4.7461 -0.993631 0
M  V30 7499 N 719.835 0.176821 1.56605 0
M  V30 7500 C 721.246 -0.338963 1.83597 0
M  V30 7501 C 721.597 -1.62677 1.09684 0
M  V30 7502 O 720.722 -2.13524 0.351661 0
M  V30 7503 C 721.317 -0.62177 3.33046 0
M  V30 7504 C 719.876 -1.08198 3.60514 0
M  V30 7505 C 719.023 -0.120774 2.77037 0
M  V30 7506 H 721.974 0.400978 1.53551 0
M  V30 7507 H 721.995 -1.47321 3.50823 0
M  V30 7508 H 721.507 0.315692 3.86814 0
M  V30 7509 H 719.608 -2.03435 3.12162 0
M  V30 7510 H 719.721 -0.987329 4.68816 0
M  V30 7511 H 718.085 -0.619192 2.47059 0
M  V30 7512 H 718.868 0.810806 3.33588 0
M  V30 7513 N 721.313 -1.57302 -0.09688 0
M  V30 7514 C 722.263 -1.98369 -1.12399 0
M  V30 7515 C 723.247 -0.861872 -1.3587 0
M  V30 7516 O 724.439 -1.1257 -1.36591 0
M  V30 7517 C 721.568 -2.41017 -2.4447 0
M  V30 7518 C 720.654 -3.59881 -2.24381 0
M  V30 7519 N 721.045 -4.74872 -1.74155 0
M  V30 7520 C 719.343 -3.65943 -2.54954 0
M  V30 7521 C 720.044 -5.56823 -1.68294 0
M  V30 7522 N 719.02 -4.99942 -2.13444 0
M  V30 7523 H 722.822 -2.84726 -0.728575 0
M  V30 7524 H 720.336 -1.59523 -0.304332 0
M  V30 7525 H 722.333 -2.68665 -3.18786 0
M  V30 7526 H 720.993 -1.56036 -2.84751 0
M  V30 7527 H 722.004 -4.97657 -1.43379 0
M  V30 7528 H 718.681 -2.9162 -2.98771 0
M  V30 7529 H 720.071 -6.59099 -1.30528 0
M  V30 7530 N 722.791 0.367657 -1.53252 0
M  V30 7531 C 723.723 1.47032 -1.75824 0
M  V30 7532 C 724.736 1.49736 -0.63898 0
M  V30 7533 O 725.925 1.53253 -0.915193 0
M  V30 7534 C 723.025 2.85805 -1.82122 0
M  V30 7535 C 722.198 3.06822 -3.11736 0
M  V30 7536 C 721.257 4.25698 -3.09302 0
M  V30 7537 O 720.283 4.20972 -3.83107 0
M  V30 7538 N 721.485 5.33002 -2.29977 0
M  V30 7539 H 724.25 1.28048 -2.70968 0
M  V30 7540 H 721.811 0.557363 -1.52004 0
M  V30 7541 H 723.803 3.63465 -1.77975 0
M  V30 7542 H 722.373 2.98046 -0.942716 0
M  V30 7543 H 721.593 2.1684 -3.29202 0
M  V30 7544 H 722.881 3.17731 -3.97397 0
M  V30 7545 H 722.279 5.39703 -1.69521 0
M  V30 7546 H 720.836 6.09247 -2.3165 0
M  V30 7547 N 724.269 1.44576 0.627338 0
M  V30 7548 C 725.494 1.51271 1.41887 0
M  V30 7549 C 725.919 0.139814 1.8758 0
M  V30 7550 O 725.277 -0.871746 1.58966 0
M  V30 7551 C 725.325 2.48529 2.61277 0
M  V30 7552 O 724.429 1.98944 3.61241 0
M  V30 7553 H 723.77 0.510668 0.424399 0
M  V30 7554 H 726.3 1.89746 0.765356 0
M  V30 7555 H 726.31 2.66689 3.08773 0
M  V30 7556 H 724.985 3.48249 2.27366 0
M  V30 7557 H 723.562 1.90568 3.20528 0
M  V30 7558 N 725.747 -0.868086 1.31537 0
M  V30 7559 C 726.697 -1.96321 1.1594 0
M  V30 7560 C 727.681 -1.60748 0.0698962 0
M  V30 7561 O 728.873 -1.74524 0.295011 0
M  V30 7562 C 726.002 -3.32073 0.870789 0
M  V30 7563 C 725.088 -3.73907 2.00136 0
M  V30 7564 N 725.479 -3.87685 3.24859 0
M  V30 7565 C 723.777 -4.03433 1.90152 0
M  V30 7566 C 724.478 -4.23454 3.98825 0
M  V30 7567 N 723.454 -4.34242 3.27009 0
M  V30 7568 H 727.256 -2.05088 2.10514 0
M  V30 7569 H 724.77 -1.059 1.23122 0
M  V30 7570 H 726.767 -4.10279 0.740034 0
M  V30 7571 H 725.427 -3.24631 -0.0667068 0
M  V30 7572 H 726.438 -3.72363 3.59953 0
M  V30 7573 H 723.115 -4.0437 1.03879 0
M  V30 7574 H 724.505 -4.41696 5.06314 0
M  V30 7575 N 727.225 -1.14528 -1.08264 0
M  V30 7576 C 728.641 -0.885976 -1.3275 0
M  V30 7577 C 728.841 0.472096 -1.95892 0
M  V30 7578 O 727.897 1.21606 -2.21288 0
M  V30 7579 C 729.21 -2.01982 -2.22764 0
M  V30 7580 C 730.758 -2.05329 -2.36239 0
M  V30 7581 C 731.233 -3.1801 -3.29596 0
M  V30 7582 N 732.724 -3.17598 -3.37173 0
M  V30 7583 C 733.459 -4.01426 -4.09444 0
M  V30 7584 N 732.955 -4.95297 -4.8441 0
M  V30 7585 N 734.748 -3.89482 -4.0529 0
M  V30 7586 H 726.899 -2.01996 -0.656607 0
M  V30 7587 H 729.162 -0.880274 -0.351884 0
M  V30 7588 H 728.868 -2.99964 -1.83615 0
M  V30 7589 H 728.742 -1.94421 -3.23234 0
M  V30 7590 H 731.129 -1.07953 -2.74646 0
M  V30 7591 H 731.21 -2.1696 -1.35506 0
M  V30 7592 H 730.854 -4.15633 -2.9191 0
M  V30 7593 H 730.784 -3.03616 -4.30261 0
M  V30 7594 H 733.275 -2.4961 -2.83731 0
M  V30 7595 H 733.588 -5.55723 -5.37021 0
M  V30 7596 H 731.933 -4.99293 -4.83457 0
M  V30 7597 H 735.124 -3.15465 -3.45832 0
M  V30 7598 H 735.297 -4.55039 -4.6135 0
M  V30 7599 N 728.703 1.26451 -0.940633 0
M  V30 7600 C 729.635 2.25556 -0.407104 0
M  V30 7601 C 730.648 1.55888 0.469324 0
M  V30 7602 O 731.837 1.76292 0.279858 0
M  V30 7603 C 728.937 3.36109 0.434064 0
M  V30 7604 C 728.11 4.3532 -0.426082 0
M  V30 7605 C 727.169 5.25004 0.354563 0
M  V30 7606 O 726.195 5.68684 -0.242219 0
M  V30 7607 N 727.397 5.5652 1.65123 0
M  V30 7608 H 730.162 2.7197 -1.25907 0
M  V30 7609 H 727.723 1.40212 -0.809456 0
M  V30 7610 H 729.715 3.93059 0.963684 0
M  V30 7611 H 728.285 2.89194 1.18683 0
M  V30 7612 H 727.505 3.77449 -1.13692 0
M  V30 7613 H 728.793 4.986 -1.01366 0
M  V30 7614 H 728.191 5.22912 2.15822 0
M  V30 7615 H 726.748 6.16115 2.12711 0
M  V30 7616 N 730.181 0.707592 1.40822 0
M  V30 7617 C 731.597 0.38034 1.55002 0
M  V30 7618 C 731.797 -1.11163 1.68062 0
M  V30 7619 O 730.853 -1.89761 1.66574 0
M  V30 7620 C 732.166 1.1394 2.78277 0
M  V30 7621 C 733.714 1.12492 2.92087 0
M  V30 7622 C 734.189 1.86597 4.18265 0
M  V30 7623 N 735.68 1.83626 4.25248 0
M  V30 7624 C 736.415 2.37794 5.21768 0
M  V30 7625 N 735.911 3.00485 6.24244 0
M  V30 7626 N 737.704 2.27982 5.13791 0
M  V30 7627 H 729.855 1.67511 1.3059 0
M  V30 7628 H 732.118 0.707579 0.630901 0
M  V30 7629 H 731.824 2.19398 2.74877 0
M  V30 7630 H 731.698 0.725793 3.70151 0
M  V30 7631 H 734.085 0.0785564 2.94995 0
M  V30 7632 H 734.166 1.57768 2.01353 0
M  V30 7633 H 733.81 2.91219 4.16118 0
M  V30 7634 H 733.74 1.38746 5.07993 0
M  V30 7635 H 736.231 1.3793 3.51829 0
M  V30 7636 H 736.544 3.39355 6.94304 0
M  V30 7637 H 734.889 3.04567 6.24711 0
M  V30 7638 H 738.08 1.78669 4.3266 0
M  V30 7639 H 738.253 2.70499 5.88841 0
M  V30 7640 N 731.66 -1.50943 0.453197 0
M  V30 7641 C 732.885 -2.07116 -0.108463 0
M  V30 7642 C 733.31 -1.31681 -1.3432 0
M  V30 7643 O 732.668 -0.359256 -1.77705 0
M  V30 7644 C 732.716 -3.58447 -0.393424 0
M  V30 7645 O 731.82 -3.85038 -1.47714 0
M  V30 7646 H 731.161 -0.66398 0.0050993 0
M  V30 7647 H 733.691 -1.94362 0.639095 0
M  V30 7648 H 733.701 -4.02961 -0.639222 0
M  V30 7649 H 732.376 -4.12774 0.508946 0
M  V30 7650 H 730.953 -3.52376 -1.22006 0
M  V30 7651 N 733.138 -0.185124 -1.56509 0
M  V30 7652 C 734.363 0.465278 -2.02114 0
M  V30 7653 C 734.788 1.55083 -1.06447 0
M  V30 7654 O 734.146 1.81241 -0.0462852 0
M  V30 7655 C 734.194 1.00784 -3.46229 0
M  V30 7656 O 733.298 2.12123 -3.53663 0
M  V30 7657 H 732.639 0.109891 -0.654843 0
M  V30 7658 H 735.169 -0.293072 -2.0249 0
M  V30 7659 H 735.179 1.32697 -3.85818 0
M  V30 7660 H 733.854 0.213113 -4.15354 0
M  V30 7661 H 732.431 1.8115 -3.25943 0
M  V30 7662 N 734.616 1.57351 0.0885366 0
M  V30 7663 C 735.546 2.05561 1.10757 0
M  V30 7664 C 736.527 0.945789 1.41382 0
M  V30 7665 O 737.712 1.21747 1.51299 0
M  V30 7666 C 734.842 2.48554 2.42566 0
M  V30 7667 C 733.796 3.63259 2.26334 0
M  V30 7668 C 733.122 3.9225 3.63378 0
M  V30 7669 C 734.422 4.93913 1.69844 0
M  V30 7670 H 736.116 2.90946 0.706468 0
M  V30 7671 H 733.662 1.39968 0.338385 0
M  V30 7672 H 735.615 2.8089 3.14132 0
M  V30 7673 H 734.339 1.60176 2.84625 0
M  V30 7674 H 732.998 3.31179 1.57213 0
M  V30 7675 H 732.646 3.0103 4.02976 0
M  V30 7676 H 732.346 4.69478 3.53362 0
M  V30 7677 H 733.87 4.27067 4.36401 0
M  V30 7678 H 735.284 5.24588 2.31258 0
M  V30 7679 H 733.681 5.75349 1.70569 0
M  V30 7680 H 734.751 4.80409 0.65843 0
M  V30 7681 N 736.094 -0.359525 1.53444 0
M  V30 7682 C 737.057 -1.42357 1.7963 0
M  V30 7683 C 738.057 -1.46319 0.666884 0
M  V30 7684 O 739.247 -1.46974 0.935113 0
M  V30 7685 C 736.379 -2.81425 1.92387 0
M  V30 7686 H 737.572 -1.20409 2.74666 0
M  V30 7687 H 735.125 -0.593007 1.44614 0
M  V30 7688 H 735.86 -3.08679 0.994384 0
M  V30 7689 H 735.645 -2.79947 2.74539 0
M  V30 7690 H 737.135 -3.5847 2.14218 0
M  V30 7691 N 737.572 -1.44907 -0.619662 0
M  V30 7692 C 738.519 -1.52654 -1.73105 0
M  V30 7693 C 739.489 -0.373334 -1.6185 0
M  V30 7694 O 740.674 -0.585143 -1.81606 0
M  V30 7695 C 737.814 -1.48769 -3.11387 0
M  V30 7696 C 736.927 -2.74551 -3.33535 0
M  V30 7697 C 736.062 -2.62421 -4.61854 0
M  V30 7698 C 735.101 -3.83312 -4.77219 0
M  V30 7699 N 734.238 -3.69789 -5.96826 0
M  V30 7700 H 739.078 -2.47605 -1.65819 0
M  V30 7701 H 736.615 -1.22875 -0.808719 0
M  V30 7702 H 738.573 -1.44507 -3.91374 0
M  V30 7703 H 737.203 -0.573783 -3.1766 0
M  V30 7704 H 736.255 -2.88953 -2.47408 0
M  V30 7705 H 737.567 -3.64253 -3.40765 0
M  V30 7706 H 736.721 -2.56056 -5.50019 0
M  V30 7707 H 735.46 -1.70298 -4.57001 0
M  V30 7708 H 734.465 -3.90049 -3.87481 0
M  V30 7709 H 735.69 -4.76486 -4.83878 0
M  V30 7710 H 733.636 -2.80426 -5.93041 0
M  V30 7711 H 733.553 -4.53116 -6.05163 0
M  V30 7712 H 734.821 -3.67335 -6.87521 0
M  V30 7713 N 739.05 0.861098 -1.31996 0
M  V30 7714 C 740.299 1.60965 -1.21545 0
M  V30 7715 C 740.612 1.94325 0.222972 0
M  V30 7716 O 741.818 2.67757 0.449272 0
M  V30 7717 C 740.274 2.90223 -2.12834 0
M  V30 7718 C 739.882 2.64313 -3.61722 0
M  V30 7719 C 741.626 3.68229 -2.11205 0
M  V30 7720 C 739.533 3.89532 -4.44993 0
M  V30 7721 H 738.463 0.603988 -0.451348 0
M  V30 7722 H 741.114 0.951358 -1.56912 0
M  V30 7723 H 739.496 3.57475 -1.70375 0
M  V30 7724 H 740.67 2.05413 -4.12483 0
M  V30 7725 H 738.985 1.99647 -3.65418 0
M  V30 7726 H 741.582 4.61138 -2.70658 0
M  V30 7727 H 741.925 4.01466 -1.1014 0
M  V30 7728 H 742.458 3.07873 -2.51911 0
M  V30 7729 H 739.197 3.61441 -5.46846 0
M  V30 7730 H 738.717 4.47851 -3.98985 0
M  V30 7731 H 740.396 4.57334 -4.57663 0
M  V30 7732 N 740.528 1.15101 1.07655 0
M  V30 7733 C 741.476 0.840714 2.16875 0
M  V30 7734 C 742.47 -0.184594 1.68391 0
M  V30 7735 O 743.676 -0.0399315 1.79956 0
M  V30 7736 H 740.051 0.254192 0.707736 0
M  V30 7737 H 742.022 1.76959 2.40266 0
M  V30 7738 C 740.771 0.343018 3.46004 0
M  V30 7739 H 740.094 1.12335 3.83694 0
M  V30 7740 H 741.534 0.16453 4.23681 0
M  V30 7741 C 739.993 -0.934881 3.23669 0
M  V30 7742 O 740.523 -2.00706 3.47965 0
M  V30 7743 N 738.729 -0.873167 2.77172 0
M  V30 7744 H 738.276 -0.000479072 2.576 0
M  V30 7745 H 738.234 -1.72873 2.62607 0
M  V30 7746 N 742.006 -1.2595 0.947325 0
M  V30 7747 C 743.255 -1.92759 0.593887 0
M  V30 7748 C 743.568 -1.75083 -0.872093 0
M  V30 7749 O 744.774 -2.36401 -1.33518 0
M  V30 7750 C 743.23 -3.45395 1.01144 0
M  V30 7751 C 742.838 -3.71795 2.49946 0
M  V30 7752 C 744.582 -4.18173 0.730185 0
M  V30 7753 C 742.489 -5.17901 2.85539 0
M  V30 7754 H 741.419 -0.721676 0.218403 0
M  V30 7755 H 744.07 -1.4293 1.15079 0
M  V30 7756 H 742.452 -3.94143 0.383007 0
M  V30 7757 H 743.626 -3.33728 3.17746 0
M  V30 7758 H 741.941 -3.12263 2.75465 0
M  V30 7759 H 744.538 -5.25784 0.972367 0
M  V30 7760 H 744.881 -4.14964 -0.333223 0
M  V30 7761 H 745.414 -3.75309 1.31862 0
M  V30 7762 H 742.153 -5.26216 3.90867 0
M  V30 7763 H 741.673 -5.57042 2.22406 0
M  V30 7764 H 743.352 -5.8596 2.74336 0
M  V30 7765 N 743.484 -0.715051 -1.40445 0
M  V30 7766 C 744.73 -0.254705 -2.01194 0
M  V30 7767 C 745.063 1.14894 -1.56567 0
M  V30 7768 O 744.338 1.77933 -0.785491 0
M  V30 7769 C 744.621 -0.334148 -3.58546 0
M  V30 7770 C 744.474 -1.77613 -4.13248 0
M  V30 7771 C 745.793 0.294968 -4.3911 0
M  V30 7772 H 742.912 -0.094025 -0.730978 0
M  V30 7773 H 745.554 -0.907449 -1.66929 0
M  V30 7774 H 743.704 0.221609 -3.87867 0
M  V30 7775 H 745.376 -2.38723 -3.94727 0
M  V30 7776 H 743.619 -2.30402 -3.67556 0
M  V30 7777 H 744.29 -1.78311 -5.22407 0
M  V30 7778 H 746.766 -0.178563 -4.15717 0
M  V30 7779 H 745.642 0.208934 -5.48502 0
M  V30 7780 H 745.903 1.37841 -4.20062 0
M  V30 7781 N 744.962 1.50701 -0.461195 0
M  V30 7782 C 746.192 2.06381 0.0950376 0
M  V30 7783 C 746.6 1.32627 1.34933 0
M  V30 7784 O 745.943 0.386137 1.79596 0
M  V30 7785 C 746.005 3.56558 0.458965 0
M  V30 7786 C 745.669 4.51732 -0.691891 0
M  V30 7787 C 746.666 4.95594 -1.57105 0
M  V30 7788 C 744.351 4.94542 -0.879407 0
M  V30 7789 C 746.345 5.80963 -2.62223 0
M  V30 7790 C 744.032 5.79695 -1.93382 0
M  V30 7791 C 745.03 6.22806 -2.80359 0
M  V30 7792 O 744.718 7.06265 -3.83986 0
M  V30 7793 H 744.45 0.676 0.000687488 0
M  V30 7794 H 747.004 1.94974 -0.646087 0
M  V30 7795 H 745.234 3.65832 1.25314 0
M  V30 7796 H 746.923 3.94647 0.949124 0
M  V30 7797 H 747.689 4.63197 -1.43783 0
M  V30 7798 H 743.568 4.60513 -0.211907 0
M  V30 7799 H 747.112 6.14533 -3.30143 0
M  V30 7800 H 743.009 6.11506 -2.06715 0
M  V30 7801 H 743.777 7.24494 -3.80855 0
M  V30 7802 N 746.441 0.193421 1.56409 0
M  V30 7803 C 747.373 -0.759944 2.16235 0
M  V30 7804 C 748.386 -1.17797 1.12373 0
M  V30 7805 O 749.575 -1.11399 1.39472 0
M  V30 7806 C 746.675 -2.03735 2.70823 0
M  V30 7807 C 745.848 -1.77939 3.9957 0
M  V30 7808 C 744.907 -2.90111 4.39001 0
M  V30 7809 O 743.933 -2.59791 5.06456 0
M  V30 7810 N 745.135 -4.18426 4.02368 0
M  V30 7811 H 747.9 -0.248348 2.98669 0
M  V30 7812 H 745.461 0.0113966 1.61896 0
M  V30 7813 H 747.453 -2.77914 2.94187 0
M  V30 7814 H 746.023 -2.46022 1.92852 0
M  V30 7815 H 745.243 -0.875491 3.84355 0
M  V30 7816 H 746.531 -1.58099 4.83614 0
M  V30 7817 H 745.929 -4.45913 3.48106 0
M  V30 7818 H 744.486 -4.89237 4.30686 0
M  V30 7819 N 747.919 -1.57396 -0.0801906 0
M  V30 7820 C 748.829 -2.06451 -1.11423 0
M  V30 7821 C 749.845 -0.992352 -1.42928 0
M  V30 7822 O 751.021 -1.30651 -1.53272 0
M  V30 7823 C 748.086 -2.49164 -2.41077 0
M  V30 7824 C 747.147 -3.70641 -2.16619 0
M  V30 7825 C 746.38 -4.11307 -3.40092 0
M  V30 7826 O 746.603 -3.51922 -4.48895 0
M  V30 7827 O 745.537 -5.04157 -3.288 0
M  V30 7828 H 749.363 -2.94857 -0.727519 0
M  V30 7829 H 746.948 -1.46484 -0.293743 0
M  V30 7830 H 748.83 -2.77196 -3.17396 0
M  V30 7831 H 747.505 -1.6389 -2.79145 0
M  V30 7832 H 746.412 -3.47703 -1.38033 0
M  V30 7833 H 747.745 -4.5674 -1.83437 0
M  V30 7834 N 749.397 0.351382 -1.53633 0
M  V30 7835 C 750.327 1.43688 -1.84055 0
M  V30 7836 C 751.308 1.55251 -0.695073 0
M  V30 7837 O 752.493 1.69587 -0.946257 0
M  V30 7838 C 749.623 2.80843 -2.04315 0
M  V30 7839 C 748.577 2.84094 -3.20117 0
M  V30 7840 C 747.903 4.2406 -3.25696 0
M  V30 7841 C 749.203 2.50334 -4.58399 0
M  V30 7842 H 750.897 1.18478 -2.74961 0
M  V30 7843 H 748.443 0.568509 -1.32303 0
M  V30 7844 H 750.396 3.56821 -2.2418 0
M  V30 7845 H 749.12 3.07471 -1.10132 0
M  V30 7846 H 747.779 2.10568 -3.00094 0
M  V30 7847 H 747.427 4.47785 -2.29123 0
M  V30 7848 H 747.127 4.27147 -4.03509 0
M  V30 7849 H 748.651 5.0189 -3.47762 0
M  V30 7850 H 750.065 3.16025 -4.78332 0
M  V30 7851 H 748.462 2.64717 -5.38558 0
M  V30 7852 H 749.532 1.45542 -4.62543 0
M  V30 7853 N 750.875 1.45233 0.611969 0
M  V30 7854 C 751.823 1.53898 1.74408 0
M  V30 7855 C 752.817 0.409254 1.64382 0
M  V30 7856 O 754.023 0.584988 1.70229 0
M  V30 7857 H 750.398 0.483303 0.576127 0
M  V30 7858 H 752.369 2.49143 1.64227 0
M  V30 7859 C 751.118 1.51865 3.12782 0
M  V30 7860 H 750.441 2.38118 3.21154 0
M  V30 7861 H 751.881 1.61986 3.91838 0
M  V30 7862 C 750.34 0.242374 3.36027 0
M  V30 7863 O 750.87 -0.679587 3.9591 0
M  V30 7864 N 749.076 0.139448 2.90265 0
M  V30 7865 H 748.623 0.890571 2.41716 0
M  V30 7866 H 748.581 -0.713686 3.06193 0
M  V30 7867 N 752.353 -0.854086 1.3245 0
M  V30 7868 C 753.583 -1.63836 1.25862 0
M  V30 7869 C 753.991 -1.88383 -0.175588 0
M  V30 7870 O 753.334 -1.45353 -1.1233 0
M  V30 7871 C 753.396 -3.02068 1.94923 0
M  V30 7872 C 753.06 -3.0056 3.44257 0
M  V30 7873 C 754.057 -2.77368 4.39731 0
M  V30 7874 C 751.742 -3.21177 3.862 0
M  V30 7875 C 753.736 -2.74797 5.75122 0
M  V30 7876 C 751.423 -3.18234 5.217 0
M  V30 7877 C 752.421 -2.95072 6.15972 0
M  V30 7878 O 752.109 -2.92003 7.48992 0
M  V30 7879 H 751.841 -0.517007 0.435523 0
M  V30 7880 H 754.395 -1.07314 1.75137 0
M  V30 7881 H 752.625 -3.60382 1.40219 0
M  V30 7882 H 754.314 -3.62791 1.82037 0
M  V30 7883 H 755.08 -2.61205 4.08653 0
M  V30 7884 H 750.959 -3.38231 3.13243 0
M  V30 7885 H 754.503 -2.56638 6.48678 0
M  V30 7886 H 750.4 -3.33941 5.52407 0
M  V30 7887 H 751.168 -3.07953 7.58358 0
M  V30 7888 N 753.831 -1.1567 -1.07043 0
M  V30 7889 C 755.247 -0.900006 -1.31803 0
M  V30 7890 C 755.447 0.451293 -1.96381 0
M  V30 7891 O 754.503 1.19252 -2.22565 0
M  V30 7892 C 755.816 -2.04334 -2.20609 0
M  V30 7893 C 757.364 -2.07823 -2.34048 0
M  V30 7894 C 757.839 -3.21488 -3.26204 0
M  V30 7895 N 759.33 -3.21156 -3.33786 0
M  V30 7896 C 760.065 -4.05746 -4.05163 0
M  V30 7897 N 759.561 -5.00407 -4.79129 0
M  V30 7898 N 761.354 -3.93759 -4.01136 0
M  V30 7899 H 753.505 -2.02681 -0.635146 0
M  V30 7900 H 755.768 -0.883956 -0.342528 0
M  V30 7901 H 755.474 -3.01895 -1.80423 0
M  V30 7902 H 755.348 -1.97838 -3.21154 0
M  V30 7903 H 757.735 -1.1086 -2.73485 0
M  V30 7904 H 757.816 -2.18386 -1.33197 0
M  V30 7905 H 757.46 -4.18706 -2.87485 0
M  V30 7906 H 757.39 -3.08162 -4.27017 0
M  V30 7907 H 759.881 -2.52606 -2.81067 0
M  V30 7908 H 760.194 -5.61387 -5.31097 0
M  V30 7909 H 758.539 -5.04393 -4.78135 0
M  V30 7910 H 761.73 -3.19115 -3.42466 0
M  V30 7911 H 761.903 -4.59906 -4.56498 0
M  V30 7912 N 755.309 1.25446 -0.953992 0
M  V30 7913 C 756.534 1.97755 -0.625129 0
M  V30 7914 C 756.959 1.70437 0.795787 0
M  V30 7915 O 756.317 0.95992 1.53803 0
M  V30 7916 C 756.365 3.49463 -0.889251 0
M  V30 7917 O 755.469 4.12387 0.0322757 0
M  V30 7918 H 754.81 0.61998 -0.237742 0
M  V30 7919 H 757.34 1.59582 -1.28041 0
M  V30 7920 H 757.35 3.99772 -0.815263 0
M  V30 7921 H 756.025 3.68676 -1.92487 0
M  V30 7922 H 754.602 3.72782 -0.0938625 0
M  V30 7923 N 756.787 0.722489 1.40064 0
M  V30 7924 C 758.033 0.265371 2.01056 0
M  V30 7925 C 758.366 -1.14062 1.57174 0
M  V30 7926 O 757.641 -1.77514 0.794916 0
M  V30 7927 C 757.924 0.353157 3.58364 0
M  V30 7928 C 757.777 1.79802 4.123 0
M  V30 7929 C 759.096 -0.271677 4.39261 0
M  V30 7930 H 756.215 0.0979002 0.730469 0
M  V30 7931 H 758.857 0.916289 1.66446 0
M  V30 7932 H 757.007 -0.201037 3.87979 0
M  V30 7933 H 758.679 2.40813 3.93455 0
M  V30 7934 H 756.922 2.32348 3.66329 0
M  V30 7935 H 757.593 1.81079 5.21454 0
M  V30 7936 H 760.069 0.200607 4.15616 0
M  V30 7937 H 758.945 -0.179843 5.48605 0
M  V30 7938 H 759.206 -1.35611 4.20787 0
M  V30 7939 N 758.265 -1.50454 0.469181 0
M  V30 7940 C 759.175 -2.32248 -0.331349 0
M  V30 7941 C 760.191 -1.42548 -0.997807 0
M  V30 7942 O 761.367 -1.75602 -0.9862 0
M  V30 7943 C 758.432 -3.17171 -1.40012 0
M  V30 7944 C 757.493 -4.2269 -0.750463 0
M  V30 7945 C 756.726 -5.03554 -1.76831 0
M  V30 7946 O 756.949 -4.85469 -2.99459 0
M  V30 7947 O 755.883 -5.86767 -1.3412 0
M  V30 7948 H 759.709 -3.01821 0.337279 0
M  V30 7949 H 757.294 -1.47602 0.231066 0
M  V30 7950 H 759.176 -3.69871 -2.01924 0
M  V30 7951 H 757.851 -2.50328 -2.05226 0
M  V30 7952 H 756.758 -3.73986 -0.0924446 0
M  V30 7953 H 758.091 -4.91997 -0.14131 0
M  V30 7954 N 759.743 -0.201713 -1.56304 0
M  V30 7955 C 760.653 0.728296 -2.23009 0
M  V30 7956 C 761.669 1.22945 -1.23128 0
M  V30 7957 O 762.845 1.27523 -1.55884 0
M  V30 7958 C 759.91 1.92792 -2.88153 0
M  V30 7959 C 758.971 1.47068 -4.03323 0
M  V30 7960 C 758.204 2.61312 -4.65351 0
M  V30 7961 O 758.427 3.7896 -4.26317 0
M  V30 7962 O 757.361 2.33646 -5.54701 0
M  V30 7963 H 761.187 0.190166 -3.03104 0
M  V30 7964 H 758.772 0.0278725 -1.49374 0
M  V30 7965 H 760.654 2.6289 -3.29343 0
M  V30 7966 H 759.329 2.45452 -2.11033 0
M  V30 7967 H 758.236 0.738299 -3.66742 0
M  V30 7968 H 759.569 0.990666 -4.82127 0
M  V30 7969 N 761.222 1.57436 0.0718424 0
M  V30 7970 C 762.185 2.02703 1.06977 0
M  V30 7971 C 763.185 0.924062 1.31597 0
M  V30 7972 O 764.375 1.18894 1.27318 0
M  V30 7973 C 761.507 2.40763 2.41342 0
M  V30 7974 H 762.7 2.92098 0.679619 0
M  V30 7975 H 760.253 1.5304 0.317565 0
M  V30 7976 H 760.988 1.54394 2.8519 0
M  V30 7977 H 760.773 3.21249 2.24814 0
M  V30 7978 H 762.263 2.76361 3.13073 0
M  V30 7979 N 762.7 -0.34323 1.53817 0
M  V30 7980 C 764.111 -0.918823 1.62525 0
M  V30 7981 C 764.462 -1.89542 0.506765 0
M  V30 7982 O 763.587 -2.13326 -0.363441 0
M  V30 7983 C 764.182 -1.67326 2.94597 0
M  V30 7984 C 762.741 -2.19786 3.05567 0
M  V30 7985 C 761.888 -1.01708 2.57974 0
M  V30 7986 H 764.839 -0.121358 1.58235 0
M  V30 7987 H 764.86 -2.53615 2.83654 0
M  V30 7988 H 764.372 -0.962223 3.75983 0
M  V30 7989 H 762.473 -2.94065 2.28816 0
M  V30 7990 H 762.586 -2.46135 4.1104 0
M  V30 7991 H 760.95 -1.39058 2.13389 0
M  V30 7992 H 761.733 -0.320671 3.41799 0
M  V30 7993 N 764.178 -1.45556 -0.604258 0
M  V30 7994 C 765.424 -1.49968 -1.36519 0
M  V30 7995 C 765.757 -0.142236 -1.93678 0
M  V30 7996 O 765.032 0.843717 -1.75247 0
M  V30 7997 C 765.315 -2.58146 -2.51063 0
M  V30 7998 C 765.168 -4.03346 -1.99078 0
M  V30 7999 C 766.487 -2.62581 -3.53184 0
M  V30 8000 H 763.606 -0.545993 -0.495036 0
M  V30 8001 H 766.248 -1.77382 -0.680845 0
M  V30 8002 H 764.398 -2.34901 -3.09441 0
M  V30 8003 H 766.07 -4.37811 -1.45323 0
M  V30 8004 H 764.313 -4.13845 -1.30055 0
M  V30 8005 H 764.984 -4.74731 -2.81664 0
M  V30 8006 H 767.46 -2.83419 -3.04652 0
M  V30 8007 H 766.336 -3.40131 -4.30816 0
M  V30 8008 H 766.597 -1.67798 -4.09019 0
M  V30 8009 N 765.656 0.84705 -1.32902 0
M  V30 8010 C 766.886 1.63166 -1.26729 0
M  V30 8011 C 767.294 1.88474 0.165595 0
M  V30 8012 O 766.637 1.45947 1.11558 0
M  V30 8013 C 766.699 3.0103 -1.96522 0
M  V30 8014 C 766.363 2.9873 -3.45846 0
M  V30 8015 C 767.36 2.75032 -4.41196 0
M  V30 8016 C 765.045 3.19125 -3.87898 0
M  V30 8017 C 767.039 2.71743 -5.76571 0
M  V30 8018 C 764.726 3.15462 -5.2338 0
M  V30 8019 C 765.724 2.91801 -6.17528 0
M  V30 8020 O 765.412 2.88027 -7.5053 0
M  V30 8021 H 765.144 0.51469 -0.438258 0
M  V30 8022 H 767.698 1.06383 -1.75704 0
M  V30 8023 H 765.928 3.59634 -1.42128 0
M  V30 8024 H 767.617 3.61821 -1.83958 0
M  V30 8025 H 768.383 2.59034 -4.10032 0
M  V30 8026 H 764.262 3.36565 -3.15032 0
M  V30 8027 H 767.806 2.53194 -6.5003 0
M  V30 8028 H 763.703 3.31006 -5.54171 0
M  V30 8029 H 764.471 3.03927 -7.59981 0
M  V30 8030 N 767.134 1.16236 1.06428 0
M  V30 8031 C 768.359 0.967688 1.83441 0
M  V30 8032 C 768.784 -0.479167 1.81894 0
M  V30 8033 O 768.142 -1.34224 1.21875 0
M  V30 8034 C 768.19 1.49806 3.2801 0
M  V30 8035 O 767.294 0.703481 4.06356 0
M  V30 8036 H 766.635 0.344468 0.56766 0
M  V30 8037 H 769.165 1.54442 1.34197 0
M  V30 8038 H 769.175 1.51495 3.78831 0
M  V30 8039 H 767.85 2.55133 3.2845 0
M  V30 8040 H 766.427 0.756986 3.65136 0
M  V30 8041 N 768.612 -1.24939 0.960631 0
M  V30 8042 C 769.858 -1.93104 0.61958 0
M  V30 8043 C 770.191 -1.74991 -0.84212 0
M  V30 8044 O 769.466 -1.09867 -1.60498 0
M  V30 8045 C 769.749 -3.46326 0.986422 0
M  V30 8046 C 769.602 -3.73638 2.50429 0
M  V30 8047 C 770.921 -4.37067 0.515827 0
M  V30 8048 H 768.04 -0.701311 0.226566 0
M  V30 8049 H 770.682 -1.47442 1.19836 0
M  V30 8050 H 768.832 -3.85348 0.493907 0
M  V30 8051 H 770.504 -3.44217 3.07103 0
M  V30 8052 H 768.747 -3.19035 2.93937 0
M  V30 8053 H 769.418 -4.80815 2.71147 0
M  V30 8054 H 771.894 -4.05381 0.938389 0
M  V30 8055 H 770.77 -5.43022 0.80114 0
M  V30 8056 H 771.031 -4.38224 -0.584171 0
M  V30 8057 N 770.09 -0.729906 -1.39679 0
M  V30 8058 C 771.501 -0.346241 -1.83461 0
M  V30 8059 C 771.852 1.1215 -1.60987 0
M  V30 8060 O 770.977 1.86456 -1.09832 0
M  V30 8061 C 771.572 -0.621656 -3.33048 0
M  V30 8062 C 770.131 -0.291543 -3.75269 0
M  V30 8063 C 769.278 -0.886844 -2.62736 0
M  V30 8064 H 772.229 -0.927949 -1.28743 0
M  V30 8065 H 772.25 0.108301 -3.80346 0
M  V30 8066 H 771.762 -1.68996 -3.49373 0
M  V30 8067 H 769.863 0.771133 -3.64533 0
M  V30 8068 H 769.976 -0.770544 -4.72863 0
M  V30 8069 H 768.34 -0.313839 -2.52759 0
M  V30 8070 H 769.123 -1.95971 -2.81869 0
M  V30 8071 N 771.568 1.50203 -0.477153 0
M  V30 8072 C 772.5 2.26508 0.350239 0
M  V30 8073 C 773.513 1.32081 0.95176 0
M  V30 8074 O 774.702 1.57546 0.839139 0
M  V30 8075 C 771.802 3.0361 1.50579 0
M  V30 8076 C 770.975 4.25438 1.01595 0
M  V30 8077 C 770.034 4.84783 2.04626 0
M  V30 8078 O 769.06 5.45528 1.62442 0
M  V30 8079 N 770.262 4.72318 3.37485 0
M  V30 8080 H 773.027 2.98155 -0.30394 0
M  V30 8081 H 770.588 1.58938 -0.308289 0
M  V30 8082 H 772.58 3.4019 2.1921 0
M  V30 8083 H 771.15 2.34724 2.06455 0
M  V30 8084 H 770.37 3.93894 0.155316 0
M  V30 8085 H 771.658 5.04413 0.666694 0
M  V30 8086 H 771.056 4.24022 3.74462 0
M  V30 8087 H 769.613 5.13149 4.01897 0
M  V30 8088 N 773.046 0.209999 1.56195 0
M  V30 8089 C 773.976 -0.699746 2.22769 0
M  V30 8090 C 774.957 -1.20993 1.1956 0
M  V30 8091 O 776.142 -1.25605 1.48112 0
M  V30 8092 C 773.272 -1.91302 2.89863 0
M  V30 8093 C 772.226 -1.53715 3.99444 0
M  V30 8094 C 771.552 -2.82826 4.53777 0
M  V30 8095 C 772.852 -0.735836 5.17091 0
M  V30 8096 H 774.546 -0.144716 2.9905 0
M  V30 8097 H 772.092 -0.0681645 1.43839 0
M  V30 8098 H 774.045 -2.5548 3.35124 0
M  V30 8099 H 772.769 -2.49283 2.11011 0
M  V30 8100 H 771.428 -0.918892 3.54897 0
M  V30 8101 H 771.076 -3.38927 3.71669 0
M  V30 8102 H 770.776 -2.58415 5.27727 0
M  V30 8103 H 772.3 -3.47966 5.01749 0
M  V30 8104 H 773.714 -1.28105 5.58804 0
M  V30 8105 H 772.111 -0.589272 5.972 0
M  V30 8106 H 773.181 0.260004 4.84202 0
M  V30 8107 N 774.524 -1.57472 -0.0634922 0
M  V30 8108 C 775.454 -2.07297 -1.07473 0
M  V30 8109 C 776.435 -0.968162 -1.39859 0
M  V30 8110 O 777.62 -1.24139 -1.49343 0
M  V30 8111 C 774.75 -2.52381 -2.38581 0
M  V30 8112 C 773.704 -3.66813 -2.20526 0
M  V30 8113 C 773.03 -3.97982 -3.57092 0
M  V30 8114 C 774.33 -4.96553 -1.61965 0
M  V30 8115 H 776.024 -2.92033 -0.660092 0
M  V30 8116 H 773.57 -1.40488 -0.316074 0
M  V30 8117 H 775.523 -2.85852 -3.09624 0
M  V30 8118 H 774.247 -1.64684 -2.8204 0
M  V30 8119 H 772.906 -3.33639 -1.51924 0
M  V30 8120 H 772.554 -3.07403 -3.98136 0
M  V30 8121 H 772.254 -4.7504 -3.45848 0
M  V30 8122 H 773.778 -4.33956 -4.29552 0
M  V30 8123 H 775.192 -5.28201 -2.22883 0
M  V30 8124 H 773.589 -5.7799 -1.61394 0
M  V30 8125 H 774.659 -4.81396 -0.581918 0
M  V30 8126 N 776.003 0.335068 -1.53997 0
M  V30 8127 C 777.228 1.09859 -1.75914 0
M  V30 8128 C 777.653 1.81308 -0.500915 0
M  V30 8129 O 777.011 1.72854 0.54693 0
M  V30 8130 C 777.059 2.08122 -2.94478 0
M  V30 8131 O 776.163 3.15805 -2.65219 0
M  V30 8132 H 775.504 0.317313 -0.583274 0
M  V30 8133 H 778.034 0.382872 -2.00986 0
M  V30 8134 H 778.044 2.51195 -3.21504 0
M  V30 8135 H 776.719 1.55517 -3.8573 0
M  V30 8136 H 775.296 2.77489 -2.49107 0
M  V30 8137 N 777.481 1.45874 0.596531 0
M  V30 8138 C 778.444 1.54988 1.68853 0
M  V30 8139 C 779.444 0.428302 1.54991 0
M  V30 8140 O 780.634 0.692158 1.59859 0
M  V30 8141 C 777.766 1.457 3.08195 0
M  V30 8142 H 778.959 2.52294 1.62135 0
M  V30 8143 H 776.512 1.33479 0.813206 0
M  V30 8144 H 777.247 0.496204 3.20481 0
M  V30 8145 H 777.032 2.27061 3.19665 0
M  V30 8146 H 778.522 1.55133 3.87716 0
M  V30 8147 N 778.959 -0.83999 1.33349 0
M  V30 8148 C 779.892 -1.95415 1.17848 0
M  V30 8149 C 780.87 -1.6243 0.0742296 0
M  V30 8150 O 782.054 -1.87014 0.23626 0
M  V30 8151 C 779.181 -3.28938 0.807295 0
M  V30 8152 C 778.227 -3.80895 1.91888 0
M  V30 8153 S 779.06 -4.02709 3.52967 0
M  V30 8154 C 780.216 -5.39185 3.17853 0
M  V30 8155 H 780.449 -2.08265 2.12162 0
M  V30 8156 H 777.982 -0.993643 1.18178 0
M  V30 8157 H 779.94 -4.06093 0.599914 0
M  V30 8158 H 778.601 -3.13881 -0.117234 0
M  V30 8159 H 777.794 -4.77508 1.6125 0
M  V30 8160 H 777.396 -3.10633 2.08286 0
M  V30 8161 H 779.688 -6.21978 2.68608 0
M  V30 8162 H 780.631 -5.74795 4.13542 0
M  V30 8163 H 781.039 -5.03885 2.5448 0
M  V30 8164 N 780.437 -1.16799 -1.0581 0
M  V30 8165 C 781.685 -0.950642 -1.78346 0
M  V30 8166 C 782.006 0.522524 -1.87869 0
M  V30 8167 O 781.276 1.3795 -1.39092 0
M  V30 8168 H 779.856 -0.348736 -0.6606 0
M  V30 8169 H 782.518 -1.47158 -1.27791 0
M  V30 8170 H 781.614 -1.37359 -2.80248 0
M  V30 8171 N 781.915 1.24427 -0.967243 0
M  V30 8172 C 783.14 1.9708 -0.646069 0
M  V30 8173 C 783.565 1.71272 0.777665 0
M  V30 8174 O 782.923 0.976179 1.52776 0
M  V30 8175 C 782.971 3.48501 -0.926266 0
M  V30 8176 O 782.075 4.12398 -0.0114653 0
M  V30 8177 H 781.416 0.617423 -0.244304 0
M  V30 8178 H 783.946 1.58215 -1.29727 0
M  V30 8179 H 783.956 3.98885 -0.857619 0
M  V30 8180 H 782.631 3.66613 -1.96386 0
M  V30 8181 H 781.208 3.72661 -0.133396 0
M  V30 8182 N 783.393 0.737304 1.3929 0
M  V30 8183 C 784.323 0.113988 2.33222 0
M  V30 8184 C 785.304 -0.721695 1.54031 0
M  V30 8185 O 786.489 -0.666206 1.82415 0
M  V30 8186 C 783.619 -0.792319 3.38141 0
M  V30 8187 C 782.573 -0.0606178 4.27957 0
M  V30 8188 C 781.899 -1.08409 5.23595 0
M  V30 8189 C 783.199 1.09817 5.10625 0
M  V30 8190 H 784.893 0.898611 2.85596 0
M  V30 8191 H 782.439 0.433571 1.37318 0
M  V30 8192 H 784.392 -1.23793 4.02807 0
M  V30 8193 H 783.116 -1.60908 2.84211 0
M  V30 8194 H 781.775 0.365393 3.64775 0
M  V30 8195 H 781.423 -1.89449 4.6596 0
M  V30 8196 H 781.123 -0.599269 5.84536 0
M  V30 8197 H 782.647 -1.52936 5.91137 0
M  V30 8198 H 784.061 0.730892 5.68622 0
M  V30 8199 H 782.458 1.51278 5.80719 0
M  V30 8200 H 783.528 1.91878 4.45321 0
M  V30 8201 N 784.871 -1.49948 0.485112 0
M  V30 8202 C 786.111 -2.04301 -0.0635728 0
M  V30 8203 C 786.475 -1.35804 -1.35725 0
M  V30 8204 O 787.676 -1.80789 -1.98919 0
M  V30 8205 C 785.947 -3.56666 -0.228962 0
M  V30 8206 S 787.506 -4.32614 -0.734185 0
M  V30 8207 H 784.324 -0.710939 -0.00931895 0
M  V30 8208 H 786.926 -1.84185 0.655455 0
M  V30 8209 H 785.63 -4.04068 0.718148 0
M  V30 8210 H 785.161 -3.8116 -0.973696 0
M  V30 8211 H 787.176 -4.53859 -2.00565 0
M  V30 8212 N 786.349 -0.21828 -1.56081 0
M  V30 8213 C 787.574 0.422302 -2.03055 0
M  V30 8214 C 787.999 1.5279 -1.09713 0
M  V30 8215 O 787.357 1.81102 -0.0847187 0
M  V30 8216 C 787.405 0.934177 -3.48289 0
M  V30 8217 O 786.509 2.04574 -3.58083 0
M  V30 8218 H 785.85 0.0959764 -0.657027 0
M  V30 8219 H 788.38 -0.335958 -2.01823 0
M  V30 8220 H 788.39 1.24484 -3.88546 0
M  V30 8221 H 787.065 0.124963 -4.15712 0
M  V30 8222 H 785.642 1.74196 -3.29712 0
M  V30 8223 N 787.827 1.57504 0.0551401 0
M  V30 8224 C 788.757 2.07864 1.06372 0
M  V30 8225 C 789.738 0.975565 1.39344 0
M  V30 8226 O 790.923 1.24929 1.48682 0
M  V30 8227 C 788.053 2.53643 2.3724 0
M  V30 8228 C 787.007 3.67978 2.18578 0
M  V30 8229 C 786.333 3.9987 3.54976 0
M  V30 8230 C 787.633 4.97405 1.59329 0
M  V30 8231 H 789.327 2.92379 0.644595 0
M  V30 8232 H 786.873 1.40654 0.308619 0
M  V30 8233 H 788.826 2.8749 3.08103 0
M  V30 8234 H 787.55 1.66177 2.81163 0
M  V30 8235 H 786.209 3.3444 1.50152 0
M  V30 8236 H 785.857 3.0951 3.965 0
M  V30 8237 H 785.557 4.76867 3.43324 0
M  V30 8238 H 787.081 4.36228 4.27244 0
M  V30 8239 H 788.495 5.29375 2.20078 0
M  V30 8240 H 786.892 5.78837 1.58327 0
M  V30 8241 H 787.962 4.81697 0.55638 0
M  V30 8242 N 789.305 -0.326896 1.54172 0
M  V30 8243 C 790.551 -1.06304 1.7341 0
M  V30 8244 C 790.906 -1.85791 0.499935 0
M  V30 8245 O 790.199 -1.84753 -0.507625 0
M  V30 8246 C 790.393 -2.0208 2.94785 0
M  V30 8247 C 790.222 -1.32009 4.29888 0
M  V30 8248 C 788.992 -1.05798 4.941 0
M  V30 8249 C 791.19 -0.737721 5.08982 0
M  V30 8250 N 789.172 -0.324836 6.1304 0
M  V30 8251 C 790.543 -0.136006 6.19851 0
M  V30 8252 C 792.598 -0.640206 4.93767 0
M  V30 8253 C 791.301 0.553757 7.17165 0
M  V30 8254 C 793.327 0.0358492 5.91389 0
M  V30 8255 C 792.689 0.626522 7.01608 0
M  V30 8256 H 788.788 -0.372808 0.687414 0
M  V30 8257 H 791.372 -0.34462 1.91626 0
M  V30 8258 H 789.543 -2.71197 2.78041 0
M  V30 8259 H 791.275 -2.68655 3.02666 0
M  V30 8260 H 788.03 -1.34945 4.53968 0
M  V30 8261 H 788.454 0.0274982 6.76994 0
M  V30 8262 H 793.096 -1.0826 4.08705 0
M  V30 8263 H 790.814 1.00799 8.01789 0
M  V30 8264 H 794.4 0.110895 5.81694 0
M  V30 8265 H 793.28 1.14135 7.7585 0
M  V30 8266 N 790.784 -1.46188 -0.588786 0
M  V30 8267 C 792.031 -1.51184 -1.34721 0
M  V30 8268 C 792.359 -0.161084 -1.93832 0
M  V30 8269 O 791.614 0.842557 -1.76634 0
M  V30 8270 C 791.913 -2.55364 -2.50048 0
M  V30 8271 C 791.579 -3.99553 -2.08969 0
M  V30 8272 C 790.241 -4.38811 -1.9748 0
M  V30 8273 C 792.593 -4.90156 -1.77191 0
M  V30 8274 C 789.921 -5.66544 -1.52463 0
M  V30 8275 C 792.273 -6.1832 -1.33654 0
M  V30 8276 C 790.937 -6.5649 -1.20738 0
M  V30 8277 H 790.207 -0.55322 -0.49298 0
M  V30 8278 H 792.854 -1.79634 -0.663627 0
M  V30 8279 H 791.159 -2.20552 -3.23827 0
M  V30 8280 H 792.856 -2.5646 -3.08268 0
M  V30 8281 H 789.446 -3.68518 -2.18843 0
M  V30 8282 H 793.63 -4.60549 -1.84955 0
M  V30 8283 H 788.886 -5.94895 -1.411 0
M  V30 8284 H 793.06 -6.87956 -1.08117 0
M  V30 8285 H 790.687 -7.55362 -0.856307 0
M  V30 8286 N 792.262 0.832906 -1.33792 0
M  V30 8287 C 793.51 1.58539 -1.25338 0
M  V30 8288 C 793.831 1.94175 0.179204 0
M  V30 8289 O 793.101 1.61458 1.10941 0
M  V30 8290 H 791.681 0.58784 -0.460926 0
M  V30 8291 H 794.343 0.995064 -1.67584 0
M  V30 8292 H 793.439 2.51268 -1.85123 0
M  V30 8293 N 793.74 1.17359 1.05189 0
M  V30 8294 C 794.703 0.892604 2.11105 0
M  V30 8295 C 795.703 -0.117236 1.60372 0
M  V30 8296 O 796.893 0.114936 1.7382 0
M  V30 8297 C 794.025 0.337032 3.3923 0
M  V30 8298 H 795.218 1.83169 2.37464 0
M  V30 8299 H 792.771 0.984051 1.21434 0
M  V30 8300 H 793.506 -0.609198 3.18527 0
M  V30 8301 H 793.291 1.06484 3.77364 0
M  V30 8302 H 794.781 0.158763 4.17298 0
M  V30 8303 N 795.218 -1.23913 0.973828 0
M  V30 8304 C 796.443 -1.96735 0.656511 0
M  V30 8305 C 796.868 -1.71682 -0.768571 0
M  V30 8306 O 796.226 -0.984267 -1.52256 0
M  V30 8307 C 796.274 -3.48004 0.944735 0
M  V30 8308 O 795.378 -4.12387 0.0333357 0
M  V30 8309 H 794.719 -0.616119 0.247575 0
M  V30 8310 H 797.249 -1.57525 1.30564 0
M  V30 8311 H 797.259 -3.98424 0.87876 0
M  V30 8312 H 795.934 -3.65567 1.98328 0
M  V30 8313 H 794.511 -3.72585 0.153157 0
M  V30 8314 N 796.696 -0.74468 -1.38897 0
M  V30 8315 C 797.942 -0.297324 -2.00609 0
M  V30 8316 C 798.275 1.11547 -1.58968 0
M  V30 8317 O 797.55 1.76227 -0.823057 0
M  V30 8318 C 797.833 -0.410125 -3.57757 0
M  V30 8319 C 797.686 -1.86338 -4.09387 0
M  V30 8320 C 799.005 0.20176 -4.39637 0
M  V30 8321 H 796.124 -0.109509 -0.728819 0
M  V30 8322 H 798.766 -0.942653 -1.64967 0
M  V30 8323 H 796.916 0.139287 -3.8825 0
M  V30 8324 H 798.588 -2.47042 -3.89574 0
M  V30 8325 H 796.831 -2.38146 -3.62586 0
M  V30 8326 H 797.502 -1.89352 -5.18507 0
M  V30 8327 H 799.978 -0.266703 -4.15244 0
M  V30 8328 H 798.854 0.0925415 -5.48822 0
M  V30 8329 H 799.115 1.289 -4.22891 0
M  V30 8330 N 798.174 1.49689 -0.493057 0
M  V30 8331 C 799.104 2.31826 0.279073 0
M  V30 8332 C 800.085 1.39733 0.969987 0
M  V30 8333 O 801.27 1.68646 0.962925 0
M  V30 8334 C 798.4 3.20046 1.34862 0
M  V30 8335 C 797.354 4.20869 0.77805 0
M  V30 8336 C 796.68 4.97971 1.94753 0
M  V30 8337 C 797.98 5.21813 -0.225543 0
M  V30 8338 H 799.674 2.96627 -0.406512 0
M  V30 8339 H 797.22 1.42647 -0.196943 0
M  V30 8340 H 799.173 3.76315 1.89645 0
M  V30 8341 H 797.897 2.53172 2.06328 0
M  V30 8342 H 796.556 3.65733 0.252036 0
M  V30 8343 H 796.204 4.27552 2.64969 0
M  V30 8344 H 795.904 5.66186 1.57187 0
M  V30 8345 H 797.428 5.57082 2.49984 0
M  V30 8346 H 798.842 5.72823 0.233864 0
M  V30 8347 H 797.239 5.97872 -0.516622 0
M  V30 8348 H 798.309 4.71209 -1.14412 0
M  V30 8349 N 799.652 0.226554 1.55963 0
M  V30 8350 C 800.877 -0.411527 2.03276 0
M  V30 8351 C 801.302 -1.52206 1.10521 0
M  V30 8352 O 800.66 -1.81054 0.0943217 0
M  V30 8353 C 800.708 -0.915694 3.4878 0
M  V30 8354 O 799.812 -2.02672 3.59163 0
M  V30 8355 H 799.153 -0.0924907 0.657527 0
M  V30 8356 H 801.683 0.346656 2.01642 0
M  V30 8357 H 801.693 -1.22421 3.892 0
M  V30 8358 H 800.368 -0.102915 4.15773 0
M  V30 8359 H 798.945 -1.72445 3.30632 0
M  V30 8360 N 801.13 -1.57531 -0.0467866 0
M  V30 8361 C 802.06 -2.08425 -1.05268 0
M  V30 8362 C 803.041 -0.982941 -1.38825 0
M  V30 8363 O 804.226 -1.25716 -1.48018 0
M  V30 8364 C 801.356 -2.54897 -2.35891 0
M  V30 8365 C 800.31 -3.69132 -2.16623 0
M  V30 8366 C 799.636 -4.01747 -3.52851 0
M  V30 8367 C 800.936 -4.98243 -1.56689 0
M  V30 8368 H 802.63 -2.92716 -0.62908 0
M  V30 8369 H 800.176 -1.40816 -0.301156 0
M  V30 8370 H 802.129 -2.8912 -3.06574 0
M  V30 8371 H 800.853 -1.67666 -2.80278 0
M  V30 8372 H 799.512 -3.35231 -1.48377 0
M  V30 8373 H 799.16 -3.11608 -3.94853 0
M  V30 8374 H 798.86 -4.78681 -3.4079 0
M  V30 8375 H 800.384 -4.38487 -4.24925 0
M  V30 8376 H 801.798 -5.30535 -2.17268 0
M  V30 8377 H 800.195 -5.79669 -1.55255 0
M  V30 8378 H 801.265 -4.81986 -0.530827 0
M  V30 8379 N 802.608 0.318715 -1.54344 0
M  V30 8380 C 803.538 1.39751 -1.87061 0
M  V30 8381 C 804.519 1.53741 -0.727848 0
M  V30 8382 O 805.704 1.67541 -0.982016 0
M  V30 8383 C 802.834 2.76446 -2.10226 0
M  V30 8384 C 801.788 2.77239 -3.26071 0
M  V30 8385 C 801.114 4.17056 -3.34617 0
M  V30 8386 C 802.414 2.40555 -4.63606 0
M  V30 8387 H 804.108 1.12619 -2.77412 0
M  V30 8388 H 801.654 0.540318 -1.33479 0
M  V30 8389 H 803.607 3.51985 -2.31699 0
M  V30 8390 H 802.331 3.05066 -1.16629 0
M  V30 8391 H 800.99 2.04155 -3.04493 0
M  V30 8392 H 800.638 4.42824 -2.3857 0
M  V30 8393 H 800.338 4.18492 -4.12478 0
M  V30 8394 H 801.862 4.94401 -3.5833 0
M  V30 8395 H 803.276 3.05808 -4.84927 0
M  V30 8396 H 801.673 2.53234 -5.44052 0
M  V30 8397 H 802.743 1.35698 -4.65526 0
M  V30 8398 N 804.086 1.46499 0.581025 0
M  V30 8399 C 804.996 1.59778 1.71779 0
M  V30 8400 C 806.012 0.481223 1.67213 0
M  V30 8401 O 807.188 0.74557 1.87091 0
M  V30 8402 C 804.253 1.58626 3.08283 0
M  V30 8403 C 803.314 2.81527 3.241 0
M  V30 8404 C 802.547 2.80421 4.54092 0
M  V30 8405 O 802.77 1.89262 5.38085 0
M  V30 8406 O 801.704 3.71984 4.73193 0
M  V30 8407 H 805.53 2.55918 1.63523 0
M  V30 8408 H 803.115 1.29311 0.748267 0
M  V30 8409 H 804.997 1.60686 3.89561 0
M  V30 8410 H 803.672 0.656467 3.16973 0
M  V30 8411 H 802.579 2.85021 2.42309 0
M  V30 8412 H 803.912 3.73721 3.20302 0
M  V30 8413 N 805.565 -0.825799 1.34232 0
M  V30 8414 C 806.495 -1.95151 1.28212 0
M  V30 8415 C 807.476 -1.69345 0.160123 0
M  V30 8416 O 808.661 -1.90983 0.352019 0
M  V30 8417 C 805.791 -3.31554 1.03388 0
M  V30 8418 C 804.745 -3.71793 2.12023 0
M  V30 8419 C 804.071 -5.06147 1.72392 0
M  V30 8420 C 805.371 -3.84193 3.53826 0
M  V30 8421 H 807.065 -2.00445 2.22401 0
M  V30 8422 H 804.611 -0.962996 1.07063 0
M  V30 8423 H 806.564 -4.09889 0.978225 0
M  V30 8424 H 805.288 -3.26551 0.0564142 0
M  V30 8425 H 803.947 -2.95731 2.16654 0
M  V30 8426 H 803.595 -4.97628 0.733137 0
M  V30 8427 H 803.295 -5.34041 2.451 0
M  V30 8428 H 804.819 -5.86943 1.68317 0
M  V30 8429 H 806.233 -4.52806 3.51624 0
M  V30 8430 H 804.63 -4.23538 4.2513 0
M  V30 8431 H 805.7 -2.86272 3.91377 0
M  V30 8432 N 807.043 -1.17915 -1.04565 0
M  V30 8433 C 807.973 -0.925033 -2.14395 0
M  V30 8434 C 808.954 0.135375 -1.6956 0
M  V30 8435 O 810.139 -0.0161774 -1.94193 0
M  V30 8436 C 807.269 -0.444469 -3.44444 0
M  V30 8437 C 806.223 -1.44478 -4.02877 0
M  V30 8438 C 805.549 -0.821933 -5.28345 0
M  V30 8439 C 806.849 -2.81995 -4.39632 0
M  V30 8440 H 808.543 -1.84354 -2.35911 0
M  V30 8441 H 806.089 -0.887806 -1.13375 0
M  V30 8442 H 808.042 -0.254078 -4.20633 0
M  V30 8443 H 806.766 0.509592 -3.226 0
M  V30 8444 H 805.425 -1.62203 -3.28764 0
M  V30 8445 H 805.073 0.139161 -5.02807 0
M  V30 8446 H 804.773 -1.48976 -5.68401 0
M  V30 8447 H 806.297 -0.641959 -6.07216 0
M  V30 8448 H 807.711 -2.67952 -5.06828 0
M  V30 8449 H 806.108 -3.45414 -4.90723 0
M  V30 8450 H 807.178 -3.35927 -3.49687 0
M  V30 8451 N 808.521 1.23394 -0.980386 0
M  V30 8452 C 809.431 2.28561 -0.528864 0
M  V30 8453 C 810.447 1.68946 0.416329 0
M  V30 8454 O 811.623 1.99355 0.286251 0
M  V30 8455 C 808.688 3.46323 0.16155 0
M  V30 8456 C 807.749 4.21297 -0.825044 0
M  V30 8457 C 806.982 5.33437 -0.167483 0
M  V30 8458 O 807.205 5.60812 1.04146 0
M  V30 8459 O 806.139 5.95637 -0.866047 0
M  V30 8460 H 809.965 2.69326 -1.40346 0
M  V30 8461 H 807.55 1.29325 -0.748019 0
M  V30 8462 H 809.432 4.17811 0.548841 0
M  V30 8463 H 808.107 3.0751 1.01092 0
M  V30 8464 H 807.014 3.52134 -1.26303 0
M  V30 8465 H 808.347 4.6396 -1.64322 0
M  V30 8466 N 809.999 0.752036 1.385 0
M  V30 8467 C 810.929 0.138718 2.33088 0
M  V30 8468 C 811.91 -0.705318 1.54788 0
M  V30 8469 O 813.095 -0.646821 1.83112 0
M  V30 8470 C 810.225 -0.75641 3.38963 0
M  V30 8471 C 809.179 -0.0152239 4.27997 0
M  V30 8472 C 808.505 -1.0285 5.24715 0
M  V30 8473 C 809.805 1.15226 5.09431 0
M  V30 8474 H 811.499 0.928852 2.84627 0
M  V30 8475 H 809.045 0.448111 1.3685 0
M  V30 8476 H 810.998 -1.19513 4.04097 0
M  V30 8477 H 809.722 -1.57885 2.85902 0
M  V30 8478 H 808.381 0.404061 3.64366 0
M  V30 8479 H 808.029 -1.84496 4.67943 0
M  V30 8480 H 807.729 -0.537238 5.85139 0
M  V30 8481 H 809.253 -1.46657 5.92726 0
M  V30 8482 H 810.667 0.791161 5.67815 0
M  V30 8483 H 809.064 1.57428 5.79082 0
M  V30 8484 H 810.134 1.9659 4.43261 0
M  V30 8485 N 811.477 -1.49425 0.500989 0
M  V30 8486 C 812.407 -2.31971 -0.266775 0
M  V30 8487 C 813.388 -1.40245 -0.962563 0
M  V30 8488 O 814.573 -1.69154 -0.953968 0
M  V30 8489 C 811.703 -3.20757 -1.33163 0
M  V30 8490 C 810.657 -4.21275 -0.75572 0
M  V30 8491 C 809.983 -4.98997 -1.92109 0
M  V30 8492 C 811.283 -5.21686 0.253213 0
M  V30 8493 H 812.977 -2.96408 0.422237 0
M  V30 8494 H 810.523 -1.4254 0.204505 0
M  V30 8495 H 812.476 -3.77315 -1.87646 0
M  V30 8496 H 811.2 -2.54263 -2.04983 0
M  V30 8497 H 809.859 -3.65861 -0.232637 0
M  V30 8498 H 809.507 -4.28951 -2.62698 0
M  V30 8499 H 809.207 -5.67011 -1.54182 0
M  V30 8500 H 810.731 -5.584 -2.47026 0
M  V30 8501 H 812.145 -5.72939 -0.203483 0
M  V30 8502 H 810.542 -5.9759 0.548322 0
M  V30 8503 H 811.612 -4.70596 1.16909 0
M  V30 8504 N 812.955 -0.234822 -1.55841 0
M  V30 8505 C 813.885 0.664217 -2.23854 0
M  V30 8506 C 814.866 1.19076 -1.2147 0
M  V30 8507 O 816.051 1.23232 -1.50091 0
M  V30 8508 C 813.181 1.86666 -2.9287 0
M  V30 8509 C 812.135 1.47341 -4.01839 0
M  V30 8510 C 811.461 2.75571 -4.58219 0
M  V30 8511 C 812.761 0.653479 -5.18196 0
M  V30 8512 H 814.455 0.0971213 -2.99242 0
M  V30 8513 H 812.001 0.0452724 -1.43929 0
M  V30 8514 H 813.954 2.50116 -3.39146 0
M  V30 8515 H 812.678 2.45894 -2.1495 0
M  V30 8516 H 811.337 0.862314 -3.56314 0
M  V30 8517 H 810.985 3.32971 -3.77014 0
M  V30 8518 H 810.685 2.49987 -5.31771 0
M  V30 8519 H 812.209 3.39939 -5.07221 0
M  V30 8520 H 813.623 1.19198 -5.60771 0
M  V30 8521 H 812.02 0.494188 -5.98062 0
M  V30 8522 H 813.09 -0.337004 -4.83728 0
M  V30 8523 N 814.433 1.57553 0.0384317 0
M  V30 8524 C 815.71 1.79977 0.766002 0
M  V30 8525 C 816.09 0.830625 1.94072 0
M  V30 8526 O 815.438 -0.129243 2.28134 0
M  V30 8527 C 815.648 3.27434 1.20781 0
M  V30 8528 C 816.996 3.92167 1.62758 0
M  V30 8529 O 818.02 3.31527 1.30263 0
M  V30 8530 O 816.879 4.98917 2.23035 0
M  V30 8531 H 813.973 0.739787 0.369654 0
M  V30 8532 H 816.519 1.69693 0.0159312 0
M  V30 8533 H 815.291 3.89558 0.368792 0
M  V30 8534 H 814.914 3.42571 2.01819 0
M  V30 8535 N 815.911 -0.310526 1.54511 0
M  V30 8536 C 816.874 -1.3657 1.84068 0
M  V30 8537 C 817.874 -1.44123 0.713097 0
M  V30 8538 O 819.064 -1.43924 0.981399 0
M  V30 8539 C 816.196 -2.75162 2.01243 0
M  V30 8540 H 817.389 -1.1161 2.78358 0
M  V30 8541 H 814.942 -0.546699 1.46427 0
M  V30 8542 H 815.677 -3.05359 1.09208 0
M  V30 8543 H 815.462 -2.71071 2.83307 0
M  V30 8544 H 816.952 -3.51473 2.25514 0
M  V30 8545 N 817.389 -1.46805 -0.573248 0
M  V30 8546 C 818.614 -1.56433 -1.36175 0
M  V30 8547 C 819.039 -0.209336 -1.86932 0
M  V30 8548 O 818.397 0.812146 -1.62092 0
M  V30 8549 C 818.445 -2.58055 -2.51873 0
M  V30 8550 O 817.549 -2.12214 -3.53609 0
M  V30 8551 H 816.89 -0.526068 -0.405153 0
M  V30 8552 H 819.42 -1.92456 -0.694405 0
M  V30 8553 H 819.43 -2.77966 -2.98662 0
M  V30 8554 H 818.105 -3.56448 -2.14284 0
M  V30 8555 H 816.682 -2.02333 -3.13234 0
M  V30 8556 N 818.867 0.818669 -1.34668 0
M  V30 8557 C 819.83 1.9114 -1.26483 0
M  V30 8558 C 820.83 1.598 -0.179044 0
M  V30 8559 O 822.02 1.6876 -0.431952 0
M  V30 8560 C 819.152 3.27285 -0.95381 0
M  V30 8561 H 820.345 1.9982 -2.23634 0
M  V30 8562 H 817.898 1.01314 -1.19018 0
M  V30 8563 H 818.633 3.24297 0.0143428 0
M  V30 8564 H 818.418 3.51416 -1.73924 0
M  V30 8565 H 819.908 4.07299 -0.921827 0
M  V30 8566 N 820.346 1.18468 1.03938 0
M  V30 8567 C 821.276 0.936389 2.13902 0
M  V30 8568 C 822.257 -0.126381 1.6963 0
M  V30 8569 O 823.442 0.0264757 1.94182 0
M  V30 8570 C 820.572 0.462729 3.44204 0
M  V30 8571 C 819.526 1.46613 4.02105 0
M  V30 8572 C 818.852 0.84994 5.27902 0
M  V30 8573 C 820.152 2.84323 4.3813 0
M  V30 8574 H 821.846 1.85602 2.3493 0
M  V30 8575 H 819.392 0.893806 1.12903 0
M  V30 8576 H 821.345 0.276382 4.20493 0
M  V30 8577 H 820.069 -0.492477 3.22866 0
M  V30 8578 H 818.728 1.63944 3.27899 0
M  V30 8579 H 818.376 -0.112493 5.02874 0
M  V30 8580 H 818.076 1.51988 5.67603 0
M  V30 8581 H 819.6 0.674152 6.06867 0
M  V30 8582 H 821.014 2.70636 5.054 0
M  V30 8583 H 819.411 3.48012 4.88884 0
M  V30 8584 H 820.481 3.37776 3.47901 0
M  V30 8585 N 821.824 -1.22873 0.986916 0
M  V30 8586 C 823.052 -1.95487 0.677663 0
M  V30 8587 C 823.467 -1.72978 -0.756572 0
M  V30 8588 O 822.824 -1.02517 -1.50985 0
M  V30 8589 C 822.875 -3.48337 0.966638 0
M  V30 8590 O 822.596 -3.70087 2.34451 0
M  V30 8591 C 824.097 -4.38142 0.674248 0
M  V30 8592 H 821.317 -0.622211 0.251185 0
M  V30 8593 H 823.861 -1.56187 1.32007 0
M  V30 8594 H 822.016 -3.85628 0.370137 0
M  V30 8595 H 822.43 -4.64332 2.43918 0
M  V30 8596 H 823.904 -5.44165 0.926759 0
M  V30 8597 H 824.381 -4.3745 -0.391728 0
M  V30 8598 H 824.987 -4.06469 1.25152 0
M  V30 8599 N 823.302 -0.75937 -1.38099 0
M  V30 8600 C 824.232 -0.151077 -2.33011 0
M  V30 8601 C 825.213 0.697099 -1.5516 0
M  V30 8602 O 826.398 0.637101 -1.83452 0
M  V30 8603 C 823.528 0.738423 -3.39359 0
M  V30 8604 C 822.482 -0.0074741 -4.27999 0
M  V30 8605 C 821.808 1.00066 -5.25253 0
M  V30 8606 C 823.108 -1.17926 -5.08813 0
M  V30 8607 H 824.802 -0.943933 -2.84131 0
M  V30 8608 H 822.348 -0.455362 -1.36611 0
M  V30 8609 H 824.301 1.17369 -4.04725 0
M  V30 8610 H 823.025 1.56366 -2.86735 0
M  V30 8611 H 821.684 -0.423379 -3.64147 0
M  V30 8612 H 821.332 1.82012 -4.68914 0
M  V30 8613 H 821.032 0.506199 -5.85416 0
M  V30 8614 H 822.556 1.43512 -5.93495 0
M  V30 8615 H 823.97 -0.821262 -5.67387 0
M  V30 8616 H 822.367 -1.60497 -5.78239 0
M  V30 8617 H 823.437 -1.98938 -4.42212 0
M  V30 8618 N 824.78 1.49157 -0.508906 0
M  V30 8619 C 826.026 2.02773 0.0328469 0
M  V30 8620 C 826.359 1.38714 1.35912 0
M  V30 8621 O 825.634 0.525536 1.87266 0
M  V30 8622 C 825.917 3.59664 0.177088 0
M  V30 8623 C 825.77 4.34239 -1.17287 0
M  V30 8624 C 827.089 4.30505 0.913977 0
M  V30 8625 H 824.208 0.736926 0.0104631 0
M  V30 8626 H 826.85 1.781 -0.661851 0
M  V30 8627 H 825 3.80818 0.768774 0
M  V30 8628 H 826.672 4.24561 -1.80404 0
M  V30 8629 H 824.915 3.96486 -1.76016 0
M  V30 8630 H 825.586 5.42397 -1.02516 0
M  V30 8631 H 828.062 4.14054 0.412084 0
M  V30 8632 H 826.938 5.40012 0.983759 0
M  V30 8633 H 827.199 3.96302 1.95951 0
M  V30 8634 N 826.258 0.243083 1.55714 0
M  V30 8635 C 827.188 -0.652336 2.24203 0
M  V30 8636 C 828.169 -1.1843 1.221 0
M  V30 8637 O 829.354 -1.22435 1.50743 0
M  V30 8638 C 826.484 -1.85111 2.93856 0
M  V30 8639 C 825.438 -1.45208 4.02615 0
M  V30 8640 C 824.764 -2.73137 4.59674 0
M  V30 8641 C 826.064 -0.625988 5.18535 0
M  V30 8642 H 827.758 -0.0812504 2.9929 0
M  V30 8643 H 825.304 -0.0376388 1.43951 0
M  V30 8644 H 827.257 -2.48314 3.40468 0
M  V30 8645 H 825.981 -2.44751 2.16251 0
M  V30 8646 H 824.64 -0.843406 3.56766 0
M  V30 8647 H 824.288 -3.30967 3.78774 0
M  V30 8648 H 823.988 -2.47163 5.33089 0
M  V30 8649 H 825.512 -3.37245 5.09017 0
M  V30 8650 H 826.926 -1.16223 5.61396 0
M  V30 8651 H 825.323 -0.462465 5.98315 0
M  V30 8652 H 826.393 0.362652 4.83542 0
M  V30 8653 N 827.736 -1.57571 -0.0300757 0
M  V30 8654 C 828.984 -1.88852 -0.719666 0
M  V30 8655 C 829.305 -0.840645 -1.75949 0
M  V30 8656 O 828.575 0.125854 -1.95495 0
M  V30 8657 H 827.155 -0.696965 -0.268792 0
M  V30 8658 H 829.817 -1.949 0.00373285 0
M  V30 8659 H 828.913 -2.87695 -1.20987 0
M  V30 8660 N 829.214 0.302327 -1.54673 0
M  V30 8661 C 830.462 1.03565 -1.73547 0
M  V30 8662 C 830.783 1.87843 -0.523448 0
M  V30 8663 O 830.053 1.90367 0.462295 0
M  V30 8664 H 828.633 0.385358 -0.639928 0
M  V30 8665 H 831.295 0.333632 -1.92023 0
M  V30 8666 H 830.391 1.68952 -2.62415 0
M  V30 8667 N 830.692 1.47107 0.565454 0
M  V30 8668 C 832.108 1.32443 0.890566 0
M  V30 8669 C 832.308 0.308735 1.99121 0
M  V30 8670 O 831.364 -0.28265 2.50913 0
M  V30 8671 C 832.677 2.71548 1.2916 0
M  V30 8672 C 834.225 2.7977 1.40349 0
M  V30 8673 C 834.7 4.19497 1.83811 0
M  V30 8674 N 836.191 4.21998 1.90975 0
M  V30 8675 C 836.926 5.2702 2.25916 0
M  V30 8676 N 836.422 6.42353 2.59527 0
M  V30 8677 N 838.215 5.14393 2.26619 0
M  V30 8678 H 830.366 2.11786 -0.161328 0
M  V30 8679 H 832.629 0.947952 -0.00950631 0
M  V30 8680 H 832.335 3.47265 0.556753 0
M  V30 8681 H 832.209 3.02782 2.24951 0
M  V30 8682 H 834.596 2.0433 2.12916 0
M  V30 8683 H 834.677 2.522 0.427655 0
M  V30 8684 H 834.321 4.95439 1.11816 0
M  V30 8685 H 834.251 4.44486 2.82382 0
M  V30 8686 H 836.742 3.38791 1.6742 0
M  V30 8687 H 837.055 7.18252 2.85191 0
M  V30 8688 H 835.4 6.45687 2.57126 0
M  V30 8689 H 838.591 4.2332 1.99794 0
M  V30 8690 H 838.764 5.96349 2.5352 0
M  V30 8691 N 832.17 -0.811516 1.35101 0
M  V30 8692 C 833.586 -1.10634 1.15031 0
M  V30 8693 C 833.786 -2.01459 -0.0405379 0
M  V30 8694 O 832.842 -2.42235 -0.712635 0
M  V30 8695 C 834.155 -1.74207 2.45097 0
M  V30 8696 C 835.703 -1.8665 2.51258 0
M  V30 8697 C 836.178 -2.53638 3.81355 0
M  V30 8698 N 837.669 -2.61128 3.82579 0
M  V30 8699 C 838.404 -3.13717 4.79968 0
M  V30 8700 N 837.9 -3.66782 5.87744 0
M  V30 8701 N 839.693 -3.12224 4.67411 0
M  V30 8702 H 831.844 -0.207641 2.11383 0
M  V30 8703 H 834.107 -0.154697 0.935293 0
M  V30 8704 H 833.813 -1.14936 3.32389 0
M  V30 8705 H 833.687 -2.73958 2.59281 0
M  V30 8706 H 836.074 -2.45066 1.64398 0
M  V30 8707 H 836.155 -0.857678 2.40993 0
M  V30 8708 H 835.799 -1.95873 4.68611 0
M  V30 8709 H 835.729 -3.55047 3.88907 0
M  V30 8710 H 838.22 -2.23527 3.04703 0
M  V30 8711 H 838.533 -4.05194 6.58056 0
M  V30 8712 H 836.878 -3.64994 5.91443 0
M  V30 8713 H 840.069 -2.70042 3.82354 0
M  V30 8714 H 840.242 -3.52903 5.43474 0
M  V30 8715 N 833.648 -1.19017 -1.03309 0
M  V30 8716 C 834.578 -0.94772 -2.13402 0
M  V30 8717 C 835.559 0.117383 -1.69694 0
M  V30 8718 O 836.744 -0.0367733 -1.94165 0
M  V30 8719 C 833.874 -0.480977 -3.43953 0
M  V30 8720 C 832.828 -1.48743 -4.01322 0
M  V30 8721 C 832.154 -0.877924 -5.27443 0
M  V30 8722 C 833.454 -2.86642 -4.36616 0
M  V30 8723 H 835.148 -1.86846 -2.33942 0
M  V30 8724 H 832.694 -0.899781 -1.12427 0
M  V30 8725 H 834.647 -0.298677 -4.2034 0
M  V30 8726 H 833.371 0.475348 -3.23122 0
M  V30 8727 H 832.03 -1.65681 -3.27025 0
M  V30 8728 H 831.678 0.0858232 -5.02927 0
M  V30 8729 H 831.378 -1.54996 -5.66789 0
M  V30 8730 H 832.902 -0.706326 -6.06501 0
M  V30 8731 H 834.316 -2.73312 -5.03958 0
M  V30 8732 H 832.713 -3.50599 -4.87032 0
M  V30 8733 H 833.783 -3.39617 -3.46105 0
M  V30 8734 N 835.127 1.22348 -0.993418 0
M  V30 8735 C 836.543 1.43222 -0.704238 0
M  V30 8736 C 836.743 1.88009 0.724909 0
M  V30 8737 O 835.799 2.03429 1.49575 0
M  V30 8738 C 837.112 2.47328 -1.71025 0
M  V30 8739 C 838.66 2.61126 -1.72576 0
M  V30 8740 C 839.135 3.68453 -2.72041 0
M  V30 8741 N 840.626 3.75911 -2.70639 0
M  V30 8742 C 841.361 4.58551 -3.44266 0
M  V30 8743 N 840.857 5.45179 -4.27495 0
M  V30 8744 N 842.65 4.52866 -3.32969 0
M  V30 8745 H 834.801 0.915832 -1.91641 0
M  V30 8746 H 837.064 0.464283 -0.826526 0
M  V30 8747 H 836.77 2.21366 -2.73295 0
M  V30 8748 H 836.644 3.45939 -1.50353 0
M  V30 8749 H 839.031 2.86431 -0.710037 0
M  V30 8750 H 839.112 1.62787 -1.97317 0
M  V30 8751 H 838.756 3.43895 -3.73763 0
M  V30 8752 H 838.686 4.66362 -2.4457 0
M  V30 8753 H 841.177 3.14014 -2.10247 0
M  V30 8754 H 841.49 6.0526 -4.80499 0
M  V30 8755 H 839.835 5.44759 -4.31582 0
M  V30 8756 H 843.026 3.84215 -2.67389 0
M  V30 8757 H 843.199 5.17039 -3.90608 0
M  V30 8758 N 836.605 0.766683 1.37694 0
M  V30 8759 C 838.021 0.445739 1.53249 0
M  V30 8760 C 838.221 -1.03935 1.72626 0
M  V30 8761 O 837.277 -1.82525 1.74473 0
M  V30 8762 C 838.59 1.2564 2.73194 0
M  V30 8763 C 840.138 1.24779 2.87053 0
M  V30 8764 C 840.613 2.04169 4.09974 0
M  V30 8765 N 842.104 2.01497 4.17077 0
M  V30 8766 C 842.839 2.5971 5.11212 0
M  V30 8767 N 842.335 3.26691 6.10938 0
M  V30 8768 N 844.128 2.49568 5.03659 0
M  V30 8769 H 836.279 1.72899 1.23368 0
M  V30 8770 H 838.542 0.733701 0.600322 0
M  V30 8771 H 838.248 2.30859 2.65324 0
M  V30 8772 H 838.122 0.882133 3.6674 0
M  V30 8773 H 840.509 0.203603 2.94397 0
M  V30 8774 H 840.59 1.66166 1.9448 0
M  V30 8775 H 840.234 3.08606 4.03392 0
M  V30 8776 H 840.164 1.60167 5.01651 0
M  V30 8777 H 842.655 1.52728 3.45662 0
M  V30 8778 H 842.968 3.68497 6.79286 0
M  V30 8779 H 841.313 3.30789 6.11231 0
M  V30 8780 H 844.504 1.96859 4.24693 0
M  V30 8781 H 844.677 2.95231 5.76839 0
M  V30 8782 N 838.083 -1.48885 0.516809 0
M  V30 8783 C 839.046 -2.27916 -0.242256 0
M  V30 8784 C 840.046 -1.34601 -0.879735 0
M  V30 8785 O 841.236 -1.57616 -0.74182 0
M  V30 8786 C 838.368 -3.13067 -1.34914 0
M  V30 8787 H 839.561 -2.96483 0.451444 0
M  V30 8788 H 837.114 -1.5391 0.272294 0
M  V30 8789 H 837.849 -2.49102 -2.07651 0
M  V30 8790 H 837.634 -3.81695 -0.897313 0
M  V30 8791 H 839.124 -3.72716 -1.88341 0
M  V30 8792 N 839.561 -0.251338 -1.55583 0
M  V30 8793 C 840.807 0.365823 -2.00083 0
M  V30 8794 C 841.162 1.55242 -1.13656 0
M  V30 8795 O 840.455 1.90624 -0.193108 0
M  V30 8796 C 840.649 0.821186 -3.47838 0
M  V30 8797 C 840.478 -0.319746 -4.48562 0
M  V30 8798 C 839.248 -0.795866 -4.98993 0
M  V30 8799 C 841.446 -1.14825 -5.01318 0
M  V30 8800 N 839.428 -1.90875 -5.83472 0
M  V30 8801 C 840.799 -2.10943 -5.83012 0
M  V30 8802 C 842.854 -1.18431 -4.8361 0
M  V30 8803 C 841.557 -3.10383 -6.48888 0
M  V30 8804 C 843.583 -2.16703 -5.50267 0
M  V30 8805 C 842.945 -3.11557 -6.31753 0
M  V30 8806 H 839.044 0.0996971 -0.775619 0
M  V30 8807 H 841.628 -0.36993 -1.91153 0
M  V30 8808 H 839.799 1.52622 -3.57157 0
M  V30 8809 H 841.531 1.41367 -3.79206 0
M  V30 8810 H 838.286 -0.379242 -4.72079 0
M  V30 8811 H 838.71 -2.46808 -6.30408 0
M  V30 8812 H 843.352 -0.464824 -4.20237 0
M  V30 8813 H 841.07 -3.83277 -7.11424 0
M  V30 8814 H 844.656 -2.20204 -5.38518 0
M  V30 8815 H 843.536 -3.86357 -6.82421 0
M  V30 8816 N 841.039 1.57585 0.0217189 0
M  V30 8817 C 842.286 1.89606 0.711045 0
M  V30 8818 C 842.614 0.849535 1.74966 0
M  V30 8819 O 841.869 -0.14856 1.95135 0
M  V30 8820 C 842.168 3.28377 1.41079 0
M  V30 8821 C 841.834 4.48035 0.507454 0
M  V30 8822 C 840.496 4.80504 0.258672 0
M  V30 8823 C 842.848 5.21071 -0.115793 0
M  V30 8824 C 840.176 5.83393 -0.622013 0
M  V30 8825 C 842.528 6.24897 -0.984224 0
M  V30 8826 C 841.192 6.55836 -1.2424 0
M  V30 8827 H 840.462 0.693817 0.26019 0
M  V30 8828 H 843.109 1.91478 -0.0291424 0
M  V30 8829 H 841.414 3.22528 2.22448 0
M  V30 8830 H 843.111 3.50404 1.94982 0
M  V30 8831 H 839.701 4.22653 0.711516 0
M  V30 8832 H 843.885 4.96259 0.0634327 0
M  V30 8833 H 839.141 6.05736 -0.830267 0
M  V30 8834 H 843.315 6.8063 -1.47363 0
M  V30 8835 H 840.942 7.35383 -1.92653 0
M  V30 8836 N 842.517 -0.29412 1.54831 0
M  V30 8837 C 843.742 -1.05156 1.78765 0
M  V30 8838 C 844.167 -1.79916 0.548809 0
M  V30 8839 O 843.525 -1.74243 -0.500909 0
M  V30 8840 C 843.573 -2.00242 2.99893 0
M  V30 8841 O 842.677 -3.08662 2.73499 0
M  V30 8842 H 842.018 -0.301737 0.591482 0
M  V30 8843 H 844.548 -0.329449 2.0193 0
M  V30 8844 H 844.558 -2.42583 3.28051 0
M  V30 8845 H 843.233 -1.45235 3.89717 0
M  V30 8846 H 841.81 -2.70786 2.56377 0
M  V30 8847 N 843.995 -1.47404 -0.557645 0
M  V30 8848 C 845.241 -1.55219 -1.31449 0
M  V30 8849 C 845.596 -0.211457 -1.91234 0
M  V30 8850 O 844.889 0.782795 -1.7488 0
M  V30 8851 C 845.083 -2.6061 -2.44575 0
M  V30 8852 C 844.912 -4.048 -1.95875 0
M  V30 8853 C 843.682 -4.72252 -1.79738 0
M  V30 8854 C 845.88 -4.91833 -1.50348 0
M  V30 8855 N 843.862 -6.00962 -1.25372 0
M  V30 8856 C 845.233 -6.10566 -1.07745 0
M  V30 8857 C 847.288 -4.78279 -1.38396 0
M  V30 8858 C 845.991 -7.17242 -0.543767 0
M  V30 8859 C 848.017 -5.8505 -0.864293 0
M  V30 8860 C 847.379 -7.02973 -0.44818 0
M  V30 8861 H 843.478 -0.622694 -0.47305 0
M  V30 8862 H 846.062 -1.84152 -0.632144 0
M  V30 8863 H 844.233 -2.33545 -3.10341 0
M  V30 8864 H 845.965 -2.5827 -3.11574 0
M  V30 8865 H 842.72 -4.28153 -2.0244 0
M  V30 8866 H 843.144 -6.69532 -1.00278 0
M  V30 8867 H 847.786 -3.87477 -1.69179 0
M  V30 8868 H 845.504 -8.07791 -0.223563 0
M  V30 8869 H 849.09 -5.7661 -0.775371 0
M  V30 8870 H 847.97 -7.84183 -0.0522964 0
M  V30 8871 N 845.473 0.80434 -1.35529 0
M  V30 8872 C 846.884 1.37849 -1.25915 0
M  V30 8873 C 847.235 1.95905 0.107495 0
M  V30 8874 O 846.36 1.91462 1.00852 0
M  V30 8875 C 846.955 2.50608 -2.27994 0
M  V30 8876 C 845.514 3.03879 -2.22114 0
M  V30 8877 C 844.661 1.76856 -2.13582 0
M  V30 8878 H 847.612 0.607192 -1.46625 0
M  V30 8879 H 847.633 3.29221 -1.90772 0
M  V30 8880 H 847.145 2.08323 -3.27449 0
M  V30 8881 H 845.246 3.50622 -1.26077 0
M  V30 8882 H 845.359 3.61707 -3.14173 0
M  V30 8883 H 843.723 1.98498 -1.59595 0
M  V30 8884 H 844.506 1.36721 -3.14901 0
M  V30 8885 N 846.951 1.19563 1.02676 0
M  V30 8886 C 848.367 0.948304 1.28372 0
M  V30 8887 C 848.567 -0.378096 1.97921 0
M  V30 8888 O 847.623 -1.1091 2.26838 0
M  V30 8889 C 848.936 2.12381 2.12873 0
M  V30 8890 C 850.484 2.16366 2.26174 0
M  V30 8891 C 850.959 3.33374 3.14048 0
M  V30 8892 N 852.45 3.33323 3.21636 0
M  V30 8893 C 853.185 4.20504 3.89825 0
M  V30 8894 N 852.681 5.17845 4.60227 0
M  V30 8895 N 854.474 4.08375 3.86246 0
M  V30 8896 H 846.625 2.04899 0.559485 0
M  V30 8897 H 848.888 0.89606 0.309484 0
M  V30 8898 H 848.594 3.08383 1.69094 0
M  V30 8899 H 848.468 2.09621 3.1359 0
M  V30 8900 H 850.855 1.20933 2.69182 0
M  V30 8901 H 850.936 2.23179 1.25 0
M  V30 8902 H 850.58 4.29087 2.71747 0
M  V30 8903 H 850.51 3.23798 4.15286 0
M  V30 8904 H 853.001 2.62863 2.71498 0
M  V30 8905 H 853.314 5.80712 5.09896 0
M  V30 8906 H 851.659 5.21791 4.59085 0
M  V30 8907 H 854.85 3.31606 3.30386 0
M  V30 8908 H 855.023 4.76532 4.39114 0
M  V30 8909 N 848.429 -1.21819 0.999893 0
M  V30 8910 C 849.392 -2.22227 0.561044 0
M  V30 8911 C 850.392 -1.56722 -0.359858 0
M  V30 8912 O 851.582 -1.73546 -0.150848 0
M  V30 8913 C 848.714 -3.40409 -0.182987 0
M  V30 8914 H 849.907 -2.62567 1.44909 0
M  V30 8915 H 847.46 -1.34991 0.78785 0
M  V30 8916 H 848.195 -3.05551 -1.08671 0
M  V30 8917 H 847.98 -3.89171 0.47833 0
M  V30 8918 H 849.47 -4.14856 -0.477952 0
M  V30 8919 N 849.908 -0.773975 -1.37286 0
M  V30 8920 C 851.133 -0.349561 -2.04433 0
M  V30 8921 C 851.558 1.02082 -1.5799 0
M  V30 8922 O 850.916 1.65458 -0.741172 0
M  V30 8923 C 850.964 -0.404292 -3.58326 0
M  V30 8924 O 850.068 0.594447 -4.08093 0
M  V30 8925 H 849.409 -0.150959 -0.646612 0
M  V30 8926 H 851.939 -1.05079 -1.75555 0
M  V30 8927 H 851.949 -0.262378 -4.07155 0
M  V30 8928 H 850.624 -1.40403 -3.91484 0
M  V30 8929 H 849.201 0.415468 -3.70578 0
M  V30 8930 N 851.386 1.48609 -0.524698 0
M  V30 8931 C 852.797 1.86516 -0.0828846 0
M  V30 8932 C 853.148 1.43478 1.33822 0
M  V30 8933 O 852.273 0.823139 2.00133 0
M  V30 8934 C 852.868 3.38495 -0.143639 0
M  V30 8935 C 851.427 3.75615 0.242951 0
M  V30 8936 C 850.574 2.72649 -0.505747 0
M  V30 8937 H 853.525 1.40589 -0.736233 0
M  V30 8938 H 853.546 3.74977 0.645955 0
M  V30 8939 H 853.058 3.69789 -1.17805 0
M  V30 8940 H 851.159 3.49935 1.27971 0
M  V30 8941 H 851.272 4.7901 -0.0929834 0
M  V30 8942 H 849.636 2.54656 0.0473482 0
M  V30 8943 H 850.419 3.06786 -1.54069 0
M  V30 8944 N 852.864 0.259585 1.55447 0
M  V30 8945 C 853.827 -0.621359 2.20617 0
M  V30 8946 C 854.827 -1.09317 1.17925 0
M  V30 8947 O 856.017 -0.995842 1.42929 0
M  V30 8948 C 853.149 -1.85546 2.85982 0
M  V30 8949 H 854.342 -0.0525833 2.99854 0
M  V30 8950 H 851.895 0.0101055 1.56297 0
M  V30 8951 H 852.63 -2.46515 2.10715 0
M  V30 8952 H 852.415 -1.52523 3.61219 0
M  V30 8953 H 853.905 -2.48227 3.35817 0
M  V30 8954 N 854.342 -1.57594 -0.0133615 0
M  V30 8955 C 855.567 -1.94649 -0.715996 0
M  V30 8956 C 855.992 -0.860786 -1.67249 0
M  V30 8957 O 855.35 0.182228 -1.80382 0
M  V30 8958 C 855.398 -3.30789 -1.43566 0
M  V30 8959 O 854.502 -3.24148 -2.54955 0
M  V30 8960 H 853.843 -0.635801 -0.191449 0
M  V30 8961 H 856.373 -2.04569 0.0358478 0
M  V30 8962 H 856.383 -3.66045 -1.80208 0
M  V30 8963 H 855.058 -4.09367 -0.734263 0
M  V30 8964 H 853.635 -3.00548 -2.20739 0
M  V30 8965 N 855.82 0.285905 -1.54985 0
M  V30 8966 C 857.068 1.01718 -1.74636 0
M  V30 8967 C 857.389 1.87277 -0.543342 0
M  V30 8968 O 856.659 1.90847 0.442078 0
M  V30 8969 H 855.239 0.378549 -0.643979 0
M  V30 8970 H 857.901 0.313247 -1.92366 0
M  V30 8971 H 856.997 1.66159 -2.64192 0
M  V30 8972 N 857.298 1.47698 0.54982 0
M  V30 8973 C 858.261 1.60282 1.63837 0
M  V30 8974 C 859.261 0.477394 1.5355 0
M  V30 8975 O 860.451 0.742665 1.57576 0
M  V30 8976 C 857.583 1.55431 3.03404 0
M  V30 8977 H 858.776 2.57325 1.54026 0
M  V30 8978 H 856.329 1.35999 0.770329 0
M  V30 8979 H 857.064 0.597912 3.1874 0
M  V30 8980 H 856.849 2.37116 3.12279 0
M  V30 8981 H 858.339 1.6739 3.82584 0
M  V30 8982 N 858.776 -0.797141 1.35954 0
M  V30 8983 C 860.001 -1.59097 1.33053 0
M  V30 8984 C 860.426 -1.87897 -0.0874592 0
M  V30 8985 O 859.784 -1.47291 -1.05712 0
M  V30 8986 C 859.832 -2.89346 2.152 0
M  V30 8987 O 858.936 -3.826 1.5392 0
M  V30 8988 H 858.277 -0.482895 0.45575 0
M  V30 8989 H 860.807 -0.988633 1.79129 0
M  V30 8990 H 860.817 -3.38686 2.27499 0
M  V30 8991 H 859.492 -2.6771 3.18283 0
M  V30 8992 H 858.069 -3.41174 1.50516 0
M  V30 8993 N 860.254 -1.20106 -1.0204 0
M  V30 8994 C 861.479 -1.0351 -1.79723 0
M  V30 8995 C 861.904 0.411328 -1.83548 0
M  V30 8996 O 861.262 1.29608 -1.26773 0
M  V30 8997 C 861.31 -1.61876 -3.22224 0
M  V30 8998 O 860.414 -0.853813 -4.03465 0
M  V30 8999 H 859.755 -0.365299 -0.554484 0
M  V30 9000 H 862.285 -1.59316 -1.28373 0
M  V30 9001 H 862.295 -1.65451 -3.72948 0
M  V30 9002 H 860.97 -2.67148 -3.18755 0
M  V30 9003 H 859.547 -0.891983 -3.62075 0
M  V30 9004 N 861.732 1.21287 -1.00634 0
M  V30 9005 C 862.981 1.89706 -0.685178 0
M  V30 9006 C 863.294 1.79044 0.787566 0
M  V30 9007 O 864.5 2.42502 1.22086 0
M  V30 9008 C 862.956 3.40176 -1.17508 0
M  V30 9009 C 862.564 3.59446 -2.674 0
M  V30 9010 C 864.308 4.14213 -0.928869 0
M  V30 9011 C 862.215 5.03688 -3.09923 0
M  V30 9012 H 861.145 0.710434 -0.252586 0
M  V30 9013 H 863.796 1.37277 -1.21768 0
M  V30 9014 H 862.178 3.91867 -0.570622 0
M  V30 9015 H 863.352 3.18188 -3.33306 0
M  V30 9016 H 861.667 2.98764 -2.9005 0
M  V30 9017 H 864.264 5.20546 -1.22212 0
M  V30 9018 H 864.607 4.16082 0.134859 0
M  V30 9019 H 865.14 3.68591 -1.49619 0
M  V30 9020 H 861.879 5.06968 -4.15529 0
M  V30 9021 H 861.399 5.45796 -2.4873 0
M  V30 9022 H 863.078 5.72204 -3.0198 0
M  V30 9023 N 863.21 0.781244 1.36873 0
M  V30 9024 C 864.157 0.172146 2.30157 0
M  V30 9025 C 865.127 -0.679328 1.51573 0
M  V30 9026 O 866.312 -0.629713 1.80109 0
M  V30 9027 C 863.452 -0.693534 3.38059 0
M  V30 9028 C 862.565 0.175586 4.31643 0
M  V30 9029 C 861.7 -0.695695 5.26625 0
M  V30 9030 C 860.739 0.17538 6.11849 0
M  V30 9031 N 859.876 -0.654416 6.99043 0
M  V30 9032 H 864.716 0.973133 2.81663 0
M  V30 9033 H 862.253 0.491469 1.38647 0
M  V30 9034 H 864.211 -1.21035 3.99257 0
M  V30 9035 H 862.841 -1.46003 2.87894 0
M  V30 9036 H 861.893 0.810295 3.7167 0
M  V30 9037 H 863.205 0.847107 4.91554 0
M  V30 9038 H 862.359 -1.27863 5.93073 0
M  V30 9039 H 861.098 -1.40087 4.67148 0
M  V30 9040 H 860.103 0.77078 5.4437 0
M  V30 9041 H 861.328 0.87803 6.734 0
M  V30 9042 H 859.274 -1.34403 6.42084 0
M  V30 9043 H 859.191 -0.0403998 7.55989 0
M  V30 9044 H 860.459 -1.22144 7.69871 0
M  V30 9045 N 864.689 -1.48329 0.532571 0
M  V30 9046 C 866.1 -1.86469 0.0927749 0
M  V30 9047 C 866.451 -1.44186 -1.3306 0
M  V30 9048 O 865.576 -0.833741 -1.99694 0
M  V30 9049 C 866.171 -3.38414 0.161588 0
M  V30 9050 C 864.73 -3.75739 -0.223028 0
M  V30 9051 C 863.877 -2.72377 0.520199 0
M  V30 9052 H 866.828 -1.40197 0.743678 0
M  V30 9053 H 866.849 -3.75314 -0.626059 0
M  V30 9054 H 866.361 -3.69159 1.19765 0
M  V30 9055 H 864.462 -3.50608 -1.26113 0
M  V30 9056 H 864.575 -4.78954 0.118385 0
M  V30 9057 H 862.939 -2.54678 -0.0338425 0
M  V30 9058 H 863.722 -3.05965 1.55694 0
M  V30 9059 N 866.167 -0.267825 -1.55308 0
M  V30 9060 C 867.077 0.633055 -2.25897 0
M  V30 9061 C 868.093 1.17613 -1.28231 0
M  V30 9062 O 869.269 1.20797 -1.61153 0
M  V30 9063 C 866.334 1.80397 -2.96071 0
M  V30 9064 C 865.395 1.29829 -4.09198 0
M  V30 9065 C 864.628 2.4134 -4.76016 0
M  V30 9066 O 864.851 3.60537 -4.42006 0
M  V30 9067 O 863.785 2.09909 -5.64111 0
M  V30 9068 H 867.611 0.0614381 -3.03638 0
M  V30 9069 H 865.196 -0.0355072 -1.49358 0
M  V30 9070 H 867.078 2.48685 -3.40197 0
M  V30 9071 H 865.753 2.36281 -2.21253 0
M  V30 9072 H 864.66 0.582086 -3.69544 0
M  V30 9073 H 865.993 0.785288 -4.85895 0
M  V30 9074 N 867.645 1.57599 0.00500368 0
M  V30 9075 C 868.608 2.07058 0.982832 0
M  V30 9076 C 869.608 0.979045 1.27559 0
M  V30 9077 O 870.798 1.24187 1.22161 0
M  V30 9078 C 867.93 2.50782 2.30914 0
M  V30 9079 H 869.123 2.94718 0.555119 0
M  V30 9080 H 866.676 1.54249 0.25237 0
M  V30 9081 H 867.411 1.66351 2.78385 0
M  V30 9082 H 867.196 3.30495 2.10987 0
M  V30 9083 H 868.686 2.89391 3.0107 0
M  V30 9084 N 869.123 -0.277682 1.55134 0
M  V30 9085 C 870.348 -1.03254 1.7987 0
M  V30 9086 C 870.773 -1.79324 0.567861 0
M  V30 9087 O 870.131 -1.74764 -0.4824 0
M  V30 9088 C 870.179 -1.9705 3.02 0
M  V30 9089 O 869.283 -3.05744 2.76757 0
M  V30 9090 H 868.624 -0.295447 0.594649 0
M  V30 9091 H 871.154 -0.308013 2.02268 0
M  V30 9092 H 871.164 -2.3909 3.30606 0
M  V30 9093 H 869.839 -1.41094 3.91236 0
M  V30 9094 H 868.416 -2.68052 2.59235 0
M  V30 9095 N 870.601 -1.47988 -0.541979 0
M  V30 9096 C 871.533 -1.5769 -1.66332 0
M  V30 9097 C 872.546 -0.461994 -1.56107 0
M  V30 9098 O 873.735 -0.732306 -1.62787 0
M  V30 9099 C 870.835 -1.47939 -3.04905 0
M  V30 9100 C 870.008 -2.74263 -3.40733 0
M  V30 9101 C 869.067 -2.58133 -4.58534 0
M  V30 9102 O 868.093 -3.31991 -4.62354 0
M  V30 9103 N 869.295 -1.6696 -5.55972 0
M  V30 9104 H 872.06 -2.54389 -1.5845 0
M  V30 9105 H 869.621 -1.4456 -0.728979 0
M  V30 9106 H 871.613 -1.34861 -3.81569 0
M  V30 9107 H 870.183 -0.592626 -3.06931 0
M  V30 9108 H 869.403 -3.01992 -2.53366 0
M  V30 9109 H 870.691 -3.58094 -3.6145 0
M  V30 9110 H 870.089 -1.06134 -5.55655 0
M  V30 9111 H 868.646 -1.59826 -6.31901 0
M  V30 9112 N 872.079 0.78992 -1.36375 0
M  V30 9113 C 873.012 1.90907 -1.25019 0
M  V30 9114 C 873.99 1.62043 -0.134463 0
M  V30 9115 O 875.174 1.86008 -0.305506 0
M  V30 9116 C 872.301 3.25716 -0.928822 0
M  V30 9117 C 871.347 3.73511 -2.05892 0
M  V30 9118 S 872.18 3.89332 -3.6767 0
M  V30 9119 C 873.336 5.27017 -3.37645 0
M  V30 9120 H 873.569 2.00247 -2.19746 0
M  V30 9121 H 871.102 0.949097 -1.21785 0
M  V30 9122 H 873.06 4.03586 -0.750219 0
M  V30 9123 H 871.721 3.141 0.000658424 0
M  V30 9124 H 870.914 4.71195 -1.78862 0
M  V30 9125 H 870.516 3.02688 -2.19672 0
M  V30 9126 H 872.808 6.1158 -2.91507 0
M  V30 9127 H 873.751 5.5905 -4.3459 0
M  V30 9128 H 874.159 4.94093 -2.73006 0
M  V30 9129 N 873.557 1.20646 1.01402 0
M  V30 9130 C 874.968 1.01823 1.56489 0
M  V30 9131 C 875.319 -0.42463 1.9155 0
M  V30 9132 O 874.444 -1.30644 1.72514 0
M  V30 9133 C 875.039 1.84208 2.84347 0
M  V30 9134 C 873.598 1.69743 3.35953 0
M  V30 9135 C 872.745 1.8198 2.09233 0
M  V30 9136 H 875.696 1.348 0.837539 0
M  V30 9137 H 875.717 1.34698 3.55861 0
M  V30 9138 H 875.229 2.89215 2.58798 0
M  V30 9139 H 873.33 0.673833 3.66456 0
M  V30 9140 H 873.443 2.51173 4.07981 0
M  V30 9141 H 871.807 1.25193 2.21808 0
M  V30 9142 H 872.59 2.88477 1.86107 0
M  V30 9143 N 875.035 -1.20752 1.01276 0
M  V30 9144 C 876.446 -1.7175 0.732033 0
M  V30 9145 C 876.797 -1.8131 -0.749733 0
M  V30 9146 O 875.922 -1.47301 -1.58529 0
M  V30 9147 C 876.517 -3.11936 1.32217 0
M  V30 9148 C 875.076 -3.6026 1.09039 0
M  V30 9149 C 874.223 -2.37571 1.43022 0
M  V30 9150 H 877.174 -1.0582 1.1827 0
M  V30 9151 H 877.195 -3.73802 0.710771 0
M  V30 9152 H 876.707 -3.04946 2.40061 0
M  V30 9153 H 874.808 -3.72588 0.0294464 0
M  V30 9154 H 874.921 -4.45295 1.76775 0
M  V30 9155 H 873.285 -2.40128 0.849159 0
M  V30 9156 H 874.068 -2.33225 2.51915 0
M  V30 9157 N 876.513 -0.788492 -1.36457 0
M  V30 9158 C 877.924 -0.423742 -1.81828 0
M  V30 9159 C 878.275 1.05221 -1.65599 0
M  V30 9160 O 877.4 1.8163 -1.17641 0
M  V30 9161 C 877.995 -0.762354 -3.30112 0
M  V30 9162 C 876.554 -0.450445 -3.73695 0
M  V30 9163 C 875.701 -0.997482 -2.58738 0
M  V30 9164 H 878.652 -0.981718 -1.24692 0
M  V30 9165 H 878.673 -0.0531136 -3.80463 0
M  V30 9166 H 878.185 -1.83662 -3.41891 0
M  V30 9167 H 876.286 0.615829 -3.67476 0
M  V30 9168 H 876.399 -0.970408 -4.69169 0
M  V30 9169 H 874.763 -0.420761 -2.51201 0
M  V30 9170 H 875.546 -2.07749 -2.73304 0
M  V30 9171 N 877.991 1.48044 -0.54043 0
M  V30 9172 C 878.954 2.28273 0.205966 0
M  V30 9173 C 879.954 1.35983 0.858209 0
M  V30 9174 O 881.144 1.58776 0.716651 0
M  V30 9175 C 878.276 3.15174 1.29917 0
M  V30 9176 H 879.469 2.95727 -0.498555 0
M  V30 9177 H 877.022 1.53457 -0.296745 0
M  V30 9178 H 877.757 2.52374 2.03661 0
M  V30 9179 H 877.542 3.83074 0.836475 0
M  V30 9180 H 879.032 3.75666 1.82387 0
M  V30 9181 N 879.47 0.276058 1.55163 0
M  V30 9182 C 880.718 -0.339782 1.99223 0
M  V30 9183 C 881.039 -1.56307 1.16589 0
M  V30 9184 O 880.309 -1.94225 0.25564 0
M  V30 9185 H 878.889 -0.128534 0.735859 0
M  V30 9186 H 881.551 0.381612 1.91128 0
M  V30 9187 H 880.647 -0.629 3.05696 0
M  V30 9188 N 880.948 -1.576 0.00335426 0
M  V30 9189 C 882.196 -1.90336 -0.679446 0
M  V30 9190 C 882.517 -0.877777 -1.74127 0
M  V30 9191 O 881.787 0.0843585 -1.95718 0
M  V30 9192 H 880.367 -0.702509 -0.253948 0
M  V30 9193 H 883.029 -1.94848 0.0450731 0
M  V30 9194 H 882.125 -2.90197 -1.14857 0
M  V30 9195 N 882.426 0.269451 -1.5528 0
M  V30 9196 C 883.654 1.01872 -1.80082 0
M  V30 9197 C 884.069 1.79802 -0.575917 0
M  V30 9198 O 883.426 1.76735 0.455081 0
M  V30 9199 C 883.477 1.9745 -3.02813 0
M  V30 9200 O 883.198 1.22677 -4.20573 0
M  V30 9201 C 884.699 2.8416 -3.40247 0
M  V30 9202 H 881.919 0.300781 -0.59981 0
M  V30 9203 H 884.463 0.29916 -2.023 0
M  V30 9204 H 882.618 2.64864 -2.82712 0
M  V30 9205 H 883.032 1.87129 -4.89982 0
M  V30 9206 H 884.506 3.47014 -4.29284 0
M  V30 9207 H 884.983 3.54113 -2.59809 0
M  V30 9208 H 885.589 2.22232 -3.6262 0
M  V30 9209 N 883.904 1.48273 0.534124 0
M  V30 9210 C 885.129 1.59988 1.31979 0
M  V30 9211 C 885.554 0.258824 1.86311 0
M  V30 9212 O 884.912 -0.768885 1.64188 0
M  V30 9213 C 884.96 2.64642 2.44943 0
M  V30 9214 O 884.064 2.21515 3.47858 0
M  V30 9215 H 883.405 0.536625 0.391063 0
M  V30 9216 H 885.935 1.94229 0.643135 0
M  V30 9217 H 885.945 2.85786 2.91187 0
M  V30 9218 H 884.62 3.62004 2.04758 0
M  V30 9219 H 883.197 2.10567 3.0776 0
M  V30 9220 N 885.382 -0.782676 1.36792 0
M  V30 9221 C 886.659 -1.52939 1.21939 0
M  V30 9222 C 887.039 -2.10228 -0.191639 0
M  V30 9223 O 886.387 -1.94574 -1.19805 0
M  V30 9224 C 886.597 -2.61898 2.30674 0
M  V30 9225 C 887.945 -3.29598 2.67676 0
M  V30 9226 O 888.969 -2.72186 2.29768 0
M  V30 9227 O 887.828 -4.3337 3.32946 0
M  V30 9228 H 884.922 -0.676856 0.47518 0
M  V30 9229 H 887.468 -0.82058 1.48542 0
M  V30 9230 H 886.24 -2.17607 3.25212 0
M  V30 9231 H 885.863 -3.40391 2.05475 0
M  V30 9232 N 886.86 -1.21182 -1.00761 0
M  V30 9233 C 888.137 -0.936297 -1.71735 0
M  V30 9234 C 888.517 0.552585 -2.03739 0
M  V30 9235 O 887.865 1.51672 -1.70903 0
M  V30 9236 C 888.075 -1.81867 -2.97868 0
M  V30 9237 C 889.423 -2.06594 -3.7095 0
M  V30 9238 O 890.447 -1.79194 -3.07844 0
M  V30 9239 O 889.306 -2.5292 -4.84452 0
M  V30 9240 H 886.4 -0.350867 -0.74888 0
M  V30 9241 H 888.946 -1.32098 -1.06527 0
M  V30 9242 H 887.718 -2.82643 -2.70607 0
M  V30 9243 H 887.341 -1.43463 -3.70815 0
M  V30 9244 N 888.338 1.20213 -1.01915 0
M  V30 9245 C 889.749 1.7136 -0.741131 0
M  V30 9246 C 890.1 1.81705 0.740107 0
M  V30 9247 O 889.225 1.48139 1.57746 0
M  V30 9248 C 889.82 3.11231 -1.33869 0
M  V30 9249 C 888.379 3.59677 -1.10948 0
M  V30 9250 C 887.526 2.36809 -1.4428 0
M  V30 9251 H 890.477 1.05191 -1.1883 0
M  V30 9252 H 890.498 3.7342 -0.730585 0
M  V30 9253 H 890.01 3.03669 -2.41675 0
M  V30 9254 H 888.111 3.72568 -0.0492052 0
M  V30 9255 H 888.224 4.44351 -1.79134 0
M  V30 9256 H 886.588 2.39674 -0.861881 0
M  V30 9257 H 887.371 2.31886 -2.53148 0
M  V30 9258 N 889.816 0.795718 1.36037 0
M  V30 9259 C 890.726 0.199784 2.33748 0
M  V30 9260 C 891.742 -0.651436 1.61345 0
M  V30 9261 O 892.918 -0.565743 1.93291 0
M  V30 9262 C 889.983 -0.650475 3.40543 0
M  V30 9263 C 889.044 0.219974 4.28736 0
M  V30 9264 C 888.277 -0.589798 5.30431 0
M  V30 9265 O 888.5 -1.82532 5.40406 0
M  V30 9266 O 887.434 0.0136187 6.01898 0
M  V30 9267 H 891.26 1.00782 2.8649 0
M  V30 9268 H 888.845 0.557293 1.38617 0
M  V30 9269 H 890.727 -1.13512 4.05824 0
M  V30 9270 H 889.402 -1.4363 2.9009 0
M  V30 9271 H 888.309 0.751516 3.66474 0
M  V30 9272 H 889.642 0.969468 4.82558 0
M  V30 9273 N 891.294 -1.47756 0.548274 0
M  V30 9274 C 892.705 -1.8636 0.112547 0
M  V30 9275 C 893.056 -1.45589 -1.31523 0
M  V30 9276 O 892.181 -0.854874 -1.98799 0
M  V30 9277 C 892.776 -3.38224 0.197473 0
M  V30 9278 C 891.335 -3.75954 -0.183163 0
M  V30 9279 C 890.482 -2.7181 0.549059 0
M  V30 9280 H 893.433 -1.394 0.758506 0
M  V30 9281 H 893.454 -3.75957 -0.586217 0
M  V30 9282 H 892.966 -3.67868 1.23673 0
M  V30 9283 H 891.067 -3.51926 -1.22387 0
M  V30 9284 H 891.18 -4.78801 0.169178 0
M  V30 9285 H 889.544 -2.54699 -0.00682862 0
M  V30 9286 H 890.327 -3.04296 1.5893 0
M  V30 9287 N 892.772 -0.284283 -1.55015 0
M  V30 9288 C 893.997 0.335799 -2.04664 0
M  V30 9289 C 894.422 1.47999 -1.16094 0
M  V30 9290 O 893.78 1.8058 -0.161454 0
M  V30 9291 C 893.828 0.785615 -3.51938 0
M  V30 9292 O 892.932 1.89202 -3.66437 0
M  V30 9293 H 892.273 0.0680233 -0.660506 0
M  V30 9294 H 894.803 -0.421255 -2.00216 0
M  V30 9295 H 894.813 1.07892 -3.93476 0
M  V30 9296 H 893.488 -0.0514675 -4.15868 0
M  V30 9297 H 892.065 1.60055 -3.36804 0
M  V30 9298 N 894.251 1.57596 -0.0117121 0
M  V30 9299 C 895.499 1.90694 0.669342 0
M  V30 9300 C 895.82 0.886999 1.73659 0
M  V30 9301 O 895.09 -0.0739779 1.9576 0
M  V30 9302 H 893.67 0.703846 0.250219 0
M  V30 9303 H 896.332 1.94821 -0.0554057 0
M  V30 9304 H 895.428 2.90802 1.13316 0
M  V30 9305 N 895.729 -0.261212 1.5542 0
M  V30 9306 C 897.14 -0.83138 1.67167 0
M  V30 9307 C 897.491 -1.8659 0.606525 0
M  V30 9308 O 896.616 -2.14953 -0.24985 0
M  V30 9309 C 897.211 -1.51475 3.03052 0
M  V30 9310 C 895.77 -2.0328 3.16787 0
M  V30 9311 C 894.917 -0.878903 2.63003 0
M  V30 9312 H 897.868 -0.0373102 1.58656 0
M  V30 9313 H 897.889 -2.38222 2.96699 0
M  V30 9314 H 897.401 -0.76157 3.80554 0
M  V30 9315 H 895.502 -2.81523 2.44082 0
M  V30 9316 H 895.615 -2.24001 4.2351 0
M  V30 9317 H 893.979 -1.27551 2.2046 0
M  V30 9318 H 894.762 -0.13904 3.43018 0
M  V30 9319 N 897.207 -1.48554 -0.526253 0
M  V30 9320 C 898.157 -1.59753 -1.62674 0
M  V30 9321 C 899.141 -0.454452 -1.54349 0
M  V30 9322 O 900.333 -0.706091 -1.62306 0
M  V30 9323 C 897.462 -1.64388 -3.01383 0
M  V30 9324 C 896.548 -2.84188 -3.14798 0
M  V30 9325 N 896.939 -4.08564 -2.98176 0
M  V30 9326 C 895.237 -2.81599 -3.45859 0
M  V30 9327 C 895.938 -4.88961 -3.15106 0
M  V30 9328 N 894.914 -4.21848 -3.42849 0
M  V30 9329 H 898.716 -2.5366 -1.48438 0
M  V30 9330 H 896.23 -1.44977 -0.731801 0
M  V30 9331 H 898.227 -1.70505 -3.80439 0
M  V30 9332 H 896.887 -0.716006 -3.16707 0
M  V30 9333 H 897.898 -4.38943 -2.74862 0
M  V30 9334 H 894.575 -1.98083 -3.67518 0
M  V30 9335 H 895.965 -5.97683 -3.0696 0
M  V30 9336 N 898.685 0.775411 -1.37205 0
M  V30 9337 C 899.615 1.90258 -1.35367 0
M  V30 9338 C 900.596 1.68634 -0.222864 0
M  V30 9339 O 901.781 1.89545 -0.422659 0
M  V30 9340 C 898.911 3.27488 -1.15623 0
M  V30 9341 C 897.865 3.63668 -2.25676 0
M  V30 9342 C 897.191 4.994 -1.91059 0
M  V30 9343 C 898.491 3.70797 -3.67841 0
M  V30 9344 H 900.185 1.92053 -2.29687 0
M  V30 9345 H 897.731 0.922597 -1.10563 0
M  V30 9346 H 899.684 4.05976 -1.12968 0
M  V30 9347 H 898.408 3.26117 -0.177573 0
M  V30 9348 H 897.067 2.87486 -2.2748 0
M  V30 9349 H 896.715 4.94565 -0.917324 0
M  V30 9350 H 896.415 5.24576 -2.64751 0
M  V30 9351 H 897.939 5.80291 -1.89985 0
M  V30 9352 H 899.353 4.39444 -3.68187 0
M  V30 9353 H 897.75 4.07468 -4.40556 0
M  V30 9354 H 898.82 2.71549 -4.01732 0
M  V30 9355 N 900.163 1.21714 1.00117 0
M  V30 9356 C 901.574 1.03477 1.55401 0
M  V30 9357 C 901.925 -0.40429 1.91989 0
M  V30 9358 O 901.05 -1.28807 1.7389 0
M  V30 9359 C 901.645 1.87213 2.82377 0
M  V30 9360 C 900.204 1.73297 3.34133 0
M  V30 9361 C 899.351 1.84189 2.07291 0
M  V30 9362 H 902.302 1.3568 0.823195 0
M  V30 9363 H 902.323 1.38465 3.54412 0
M  V30 9364 H 901.835 2.91944 2.55715 0
M  V30 9365 H 899.936 0.712662 3.65721 0
M  V30 9366 H 900.049 2.55486 4.05294 0
M  V30 9367 H 898.413 1.27538 2.20468 0
M  V30 9368 H 899.196 2.90435 1.83037 0
M  V30 9369 N 901.641 -1.19671 1.02551 0
M  V30 9370 C 903.057 -1.41305 0.741963 0
M  V30 9371 C 903.257 -1.89865 -0.674807 0
M  V30 9372 O 902.313 -2.07323 -1.44129 0
M  V30 9373 C 903.626 -2.42706 1.77522 0
M  V30 9374 C 905.174 -2.56458 1.79438 0
M  V30 9375 C 905.649 -3.61111 2.81715 0
M  V30 9376 N 907.14 -3.68603 2.8051 0
M  V30 9377 C 907.875 -4.49262 3.56302 0
M  V30 9378 N 907.371 -5.33653 4.41799 0
M  V30 9379 N 909.164 -4.43879 3.44859 0
M  V30 9380 H 901.315 -0.8647 1.94002 0
M  V30 9381 H 903.578 -0.442206 0.838545 0
M  V30 9382 H 903.284 -2.14042 2.79068 0
M  V30 9383 H 903.158 -3.41831 1.59472 0
M  V30 9384 H 905.545 -2.84447 0.78573 0
M  V30 9385 H 905.626 -1.57499 2.01563 0
M  V30 9386 H 905.27 -3.33864 3.82749 0
M  V30 9387 H 905.2 -4.59713 2.56849 0
M  V30 9388 H 907.691 -3.08329 2.18498 0
M  V30 9389 H 908.004 -5.92308 4.96378 0
M  V30 9390 H 906.349 -5.33125 4.45873 0
M  V30 9391 H 909.54 -3.7699 2.77482 0
M  V30 9392 H 909.713 -5.06501 4.04179 0
M  V30 9393 N 903.119 -0.802921 -1.35613 0
M  V30 9394 C 904.365 -0.382141 -1.99167 0
M  V30 9395 C 904.698 1.04704 -1.63556 0
M  V30 9396 O 903.973 1.72578 -0.89706 0
M  V30 9397 C 904.256 -0.561493 -3.55695 0
M  V30 9398 C 904.109 -2.03534 -4.01116 0
M  V30 9399 C 905.428 0.0151135 -4.40097 0
M  V30 9400 H 902.547 -0.140322 -0.723518 0
M  V30 9401 H 905.189 -1.01177 -1.6082 0
M  V30 9402 H 903.339 -0.0255083 -3.88492 0
M  V30 9403 H 905.011 -2.63343 -3.78746 0
M  V30 9404 H 903.254 -2.5331 -3.52159 0
M  V30 9405 H 903.925 -2.11173 -5.1001 0
M  V30 9406 H 906.401 -0.442582 -4.1374 0
M  V30 9407 H 905.277 -0.140316 -5.48721 0
M  V30 9408 H 905.538 1.10848 -4.27978 0
M  V30 9409 N 904.597 1.47463 -0.556102 0
M  V30 9410 C 905.53 2.26934 0.240027 0
M  V30 9411 C 906.508 1.33981 0.921297 0
M  V30 9412 O 907.692 1.63361 0.940506 0
M  V30 9413 C 904.819 3.10982 1.34194 0
M  V30 9414 C 903.865 4.19504 0.769342 0
M  V30 9415 S 904.698 5.34127 -0.383209 0
M  V30 9416 C 905.854 6.21739 0.720548 0
M  V30 9417 H 906.087 2.9411 -0.434348 0
M  V30 9418 H 903.62 1.50556 -0.342402 0
M  V30 9419 H 905.578 3.59976 1.973 0
M  V30 9420 H 904.239 2.4317 1.98814 0
M  V30 9421 H 903.432 4.78036 1.59679 0
M  V30 9422 H 903.034 3.73385 0.214475 0
M  V30 9423 H 905.326 6.58021 1.61292 0
M  V30 9424 H 906.269 7.0789 0.172602 0
M  V30 9425 H 906.677 5.55342 1.01272 0
M  V30 9426 N 906.075 0.2925 1.54862 0
M  V30 9427 C 907.005 -0.580677 2.26165 0
M  V30 9428 C 907.986 -1.14485 1.25806 0
M  V30 9429 O 909.171 -1.17577 1.54562 0
M  V30 9430 C 906.301 -1.75668 2.99596 0
M  V30 9431 C 905.255 -1.32325 4.07031 0
M  V30 9432 C 904.581 -2.58374 4.68131 0
M  V30 9433 C 905.881 -0.460703 5.20264 0
M  V30 9434 H 907.575 0.0140075 2.99397 0
M  V30 9435 H 905.121 0.00817706 1.43998 0
M  V30 9436 H 907.074 -2.37356 3.48195 0
M  V30 9437 H 905.798 -2.37747 2.23928 0
M  V30 9438 H 904.457 -0.729477 3.59269 0
M  V30 9439 H 904.105 -3.18749 3.89112 0
M  V30 9440 H 903.805 -2.30078 5.40683 0
M  V30 9441 H 905.329 -3.2088 5.19489 0
M  V30 9442 H 906.743 -0.983037 5.64809 0
M  V30 9443 H 905.14 -0.271881 5.99484 0
M  V30 9444 H 906.21 0.516304 4.82143 0
M  V30 9445 N 907.553 -1.57587 0.0200696 0
M  V30 9446 C 908.964 -1.79312 -0.520019 0
M  V30 9447 C 909.315 -0.929475 -1.72787 0
M  V30 9448 O 908.44 -0.137389 -2.15963 0
M  V30 9449 C 909.035 -3.25203 -0.950172 0
M  V30 9450 C 907.594 -3.47954 -1.43543 0
M  V30 9451 C 906.741 -2.74459 -0.395917 0
M  V30 9452 H 909.692 -1.56779 0.246153 0
M  V30 9453 H 909.713 -3.34418 -1.81508 0
M  V30 9454 H 909.225 -3.88035 -0.070883 0
M  V30 9455 H 907.326 -2.90363 -2.33495 0
M  V30 9456 H 907.439 -4.56661 -1.44905 0
M  V30 9457 H 905.803 -2.39669 -0.862022 0
M  V30 9458 H 906.586 -3.40001 0.47475 0
M  V30 9459 N 909.032 0.252966 -1.55557 0
M  V30 9460 C 910.28 0.979912 -1.76754 0
M  V30 9461 C 910.601 1.86083 -0.582944 0
M  V30 9462 O 909.871 1.91742 0.401497 0
M  V30 9463 H 908.451 0.364805 -0.651864 0
M  V30 9464 H 911.113 0.272372 -1.92987 0
M  V30 9465 H 910.209 1.60518 -2.67657 0
M  V30 9466 N 910.51 1.48831 0.518367 0
M  V30 9467 C 911.756 1.57672 1.27543 0
M  V30 9468 C 912.089 0.254915 1.9252 0
M  V30 9469 O 911.364 -0.740107 1.79868 0
M  V30 9470 C 911.647 2.72345 2.35585 0
M  V30 9471 C 911.5 4.14267 1.75224 0
M  V30 9472 C 912.819 2.82726 3.37274 0
M  V30 9473 H 909.938 0.573926 0.462361 0
M  V30 9474 H 912.58 1.8105 0.576267 0
M  V30 9475 H 910.73 2.52543 2.95219 0
M  V30 9476 H 912.402 4.45539 1.19551 0
M  V30 9477 H 910.645 4.20724 1.05706 0
M  V30 9478 H 911.316 4.90345 2.53507 0
M  V30 9479 H 913.792 3.00699 2.8761 0
M  V30 9480 H 912.668 3.6467 4.10252 0
M  V30 9481 H 912.929 1.9136 3.9854 0
M  V30 9482 N 911.988 -0.768124 1.37614 0
M  V30 9483 C 912.918 -1.89537 1.36374 0
M  V30 9484 C 913.899 -1.68513 0.231803 0
M  V30 9485 O 915.084 -1.89318 0.432705 0
M  V30 9486 C 912.214 -3.26871 1.17358 0
M  V30 9487 C 911.168 -3.62466 2.27602 0
M  V30 9488 C 910.494 -4.9838 1.93705 0
M  V30 9489 C 911.794 -3.68841 3.69802 0
M  V30 9490 H 913.488 -1.90832 2.30702 0
M  V30 9491 H 911.034 -0.91672 1.11051 0
M  V30 9492 H 912.987 -4.05371 1.15119 0
M  V30 9493 H 911.711 -3.26018 0.194865 0
M  V30 9494 H 910.37 -2.86276 2.29002 0
M  V30 9495 H 910.018 -4.94071 0.943539 0
M  V30 9496 H 909.718 -5.23165 2.6753 0
M  V30 9497 H 911.242 -5.79276 1.93059 0
M  V30 9498 H 912.656 -4.37485 3.70513 0
M  V30 9499 H 911.053 -4.05126 4.42711 0
M  V30 9500 H 912.123 -2.69415 4.03167 0
M  V30 9501 N 913.466 -1.22244 -0.994698 0
M  V30 9502 C 914.429 -0.992308 -2.06606 0
M  V30 9503 C 915.429 0.0405872 -1.60749 0
M  V30 9504 O 916.619 -0.197737 -1.73074 0
M  V30 9505 C 913.751 -0.498499 -3.37236 0
M  V30 9506 H 914.944 -1.9429 -2.28455 0
M  V30 9507 H 912.497 -1.04087 -1.166 0
M  V30 9508 H 913.232 0.456531 -3.21071 0
M  V30 9509 H 913.017 -1.24367 -3.71854 0
M  V30 9510 H 914.507 -0.35768 -4.16065 0
M  V30 9511 N 914.944 1.19125 -1.03184 0
M  V30 9512 C 916.192 1.8851 -0.728587 0
M  V30 9513 C 916.513 1.80195 0.74531 0
M  V30 9514 O 915.783 1.21437 1.5372 0
M  V30 9515 H 914.363 0.69784 -0.266511 0
M  V30 9516 H 917.025 1.44607 -1.3067 0
M  V30 9517 H 916.121 2.9477 -1.02554 0
M  V30 9518 N 916.422 0.810101 1.35185 0
M  V30 9519 C 917.668 0.392698 1.98962 0
M  V30 9520 C 918.001 -1.03835 1.64109 0
M  V30 9521 O 917.276 -1.721 0.9062 0
M  V30 9522 C 917.559 0.580349 3.55393 0
M  V30 9523 C 917.412 2.05658 4.00031 0
M  V30 9524 C 918.731 0.00822618 4.40099 0
M  V30 9525 H 915.85 0.144157 0.722764 0
M  V30 9526 H 918.492 1.02029 1.60281 0
M  V30 9527 H 916.642 0.0461106 3.88473 0
M  V30 9528 H 918.314 2.65348 3.77344 0
M  V30 9529 H 916.557 2.55174 3.50811 0
M  V30 9530 H 917.228 2.13875 5.08883 0
M  V30 9531 H 919.704 0.464517 4.13499 0
M  V30 9532 H 918.58 0.169414 5.48638 0
M  V30 9533 H 918.841 -1.08576 4.2856 0
M  V30 9534 N 917.9 -1.47166 0.563914 0
M  V30 9535 C 919.125 -2.0735 0.0454698 0
M  V30 9536 C 919.55 -1.41281 -1.24182 0
M  V30 9537 O 918.908 -0.490084 -1.7455 0
M  V30 9538 C 918.956 -3.60378 -0.126453 0
M  V30 9539 O 918.06 -3.94934 -1.18746 0
M  V30 9540 H 917.401 -0.661773 0.0543377 0
M  V30 9541 H 919.931 -1.89086 0.781508 0
M  V30 9542 H 919.941 -4.06593 -0.338554 0
M  V30 9543 H 918.616 -4.07862 0.81373 0
M  V30 9544 H 917.193 -3.60455 -0.955318 0
M  V30 9545 N 919.378 -0.300708 -1.54705 0
M  V30 9546 C 920.341 0.562648 -2.22187 0
M  V30 9547 C 921.341 1.06152 -1.20782 0
M  V30 9548 O 922.531 0.957596 -1.45519 0
M  V30 9549 C 919.663 1.77899 -2.908 0
M  V30 9550 H 920.856 -0.0269361 -2.99888 0
M  V30 9551 H 918.409 -0.0515412 -1.56215 0
M  V30 9552 H 919.144 2.40841 -2.17177 0
M  V30 9553 H 918.929 1.42892 -3.65136 0
M  V30 9554 H 920.419 2.39236 -3.42281 0
M  V30 9555 N 920.856 1.57574 -0.0284266 0
M  V30 9556 C 921.766 2.13637 0.96936 0
M  V30 9557 C 922.782 1.08845 1.35752 0
M  V30 9558 O 923.958 1.40899 1.43908 0
M  V30 9559 C 921.023 2.65179 2.2334 0
M  V30 9560 C 920.084 3.84683 1.90572 0
M  V30 9561 C 919.317 4.33758 3.1095 0
M  V30 9562 O 919.54 3.82009 4.23586 0
M  V30 9563 O 918.474 5.2561 2.93288 0
M  V30 9564 H 922.3 2.99169 0.52267 0
M  V30 9565 H 919.885 1.48159 0.192135 0
M  V30 9566 H 921.767 2.98402 2.97547 0
M  V30 9567 H 920.442 1.82731 2.67191 0
M  V30 9568 H 919.349 3.56386 1.13753 0
M  V30 9569 H 920.682 4.68292 1.51538 0
M  V30 9570 N 922.334 -0.244713 1.55689 0
M  V30 9571 C 923.244 -1.32447 1.93636 0
M  V30 9572 C 924.26 -1.52541 0.837086 0
M  V30 9573 O 925.436 -1.66121 1.13867 0
M  V30 9574 C 922.501 -2.65864 2.22525 0
M  V30 9575 C 921.562 -2.54273 3.45896 0
M  V30 9576 C 920.795 -3.81327 3.73397 0
M  V30 9577 O 921.018 -4.83307 3.02936 0
M  V30 9578 O 919.952 -3.79829 4.66919 0
M  V30 9579 H 923.778 -1.03255 2.85608 0
M  V30 9580 H 921.363 -0.445652 1.42598 0
M  V30 9581 H 923.245 -3.447 2.42404 0
M  V30 9582 H 921.92 -2.94784 1.33731 0
M  V30 9583 H 920.827 -1.73715 3.31321 0
M  V30 9584 H 922.16 -2.30297 4.34999 0
M  V30 9585 N 923.813 -1.49104 -0.510467 0
M  V30 9586 C 925.038 -1.62068 -1.29417 0
M  V30 9587 C 925.463 -0.288432 -1.85875 0
M  V30 9588 O 924.821 0.742667 -1.65391 0
M  V30 9589 C 924.869 -2.68506 -2.40701 0
M  V30 9590 O 923.973 -2.27021 -3.4429 0
M  V30 9591 H 923.314 -0.542778 -0.382476 0
M  V30 9592 H 925.844 -1.95228 -0.612154 0
M  V30 9593 H 925.854 -2.90383 -2.86604 0
M  V30 9594 H 924.529 -3.65216 -1.98973 0
M  V30 9595 H 923.106 -2.15436 -3.04371 0
M  V30 9596 N 925.291 0.760815 -1.38019 0
M  V30 9597 C 926.537 1.52109 -1.35034 0
M  V30 9598 C 926.892 1.92302 0.0615509 0
M  V30 9599 O 926.185 1.62028 1.02261 0
M  V30 9600 C 926.379 2.79024 -2.23339 0
M  V30 9601 C 926.208 2.51238 -3.72974 0
M  V30 9602 C 924.978 2.44818 -4.42032 0
M  V30 9603 C 927.176 2.18499 -4.65578 0
M  V30 9604 N 925.158 2.09232 -5.77144 0
M  V30 9605 C 926.529 1.93143 -5.89148 0
M  V30 9606 C 928.584 2.04747 -4.53854 0
M  V30 9607 C 927.287 1.55423 -7.02308 0
M  V30 9608 C 929.313 1.68428 -5.66909 0
M  V30 9609 C 928.675 1.43939 -6.89537 0
M  V30 9610 H 924.774 0.556482 -0.54941 0
M  V30 9611 H 927.358 0.886614 -1.73341 0
M  V30 9612 H 925.529 3.40292 -1.87232 0
M  V30 9613 H 927.261 3.45016 -2.11533 0
M  V30 9614 H 924.016 2.61045 -3.95161 0
M  V30 9615 H 924.44 1.94104 -6.48577 0
M  V30 9616 H 929.082 2.22358 -3.59607 0
M  V30 9617 H 926.8 1.36551 -7.96479 0
M  V30 9618 H 930.386 1.5843 -5.59814 0
M  V30 9619 H 929.266 1.16253 -7.75535 0
M  V30 9620 N 926.769 1.22769 0.988202 0
M  V30 9621 C 927.732 1.00325 2.06076 0
M  V30 9622 C 928.732 -0.0320618 1.60768 0
M  V30 9623 O 929.922 0.206912 1.72967 0
M  V30 9624 C 927.054 0.516376 3.36966 0
M  V30 9625 H 928.247 1.95499 2.27421 0
M  V30 9626 H 925.8 1.04704 1.16047 0
M  V30 9627 H 926.535 -0.439498 3.21308 0
M  V30 9628 H 926.32 1.26337 3.71189 0
M  V30 9629 H 927.81 0.37974 4.1587 0
M  V30 9630 N 928.247 -1.18576 1.03814 0
M  V30 9631 C 929.495 -1.88121 0.738574 0
M  V30 9632 C 929.816 -1.80587 -0.735744 0
M  V30 9633 O 929.086 -1.22251 -1.53074 0
M  V30 9634 H 927.666 -0.696417 0.270208 0
M  V30 9635 H 930.328 -1.43912 1.31435 0
M  V30 9636 H 929.424 -2.94222 1.04115 0
M  V30 9637 N 929.725 -0.817259 -1.34754 0
M  V30 9638 C 931.136 -0.462215 -1.80888 0
M  V30 9639 C 931.487 1.01685 -1.67794 0
M  V30 9640 O 930.612 1.79094 -1.21468 0
M  V30 9641 C 931.207 -0.832204 -3.2842 0
M  V30 9642 C 929.766 -0.52961 -3.72655 0
M  V30 9643 C 928.913 -1.05214 -2.56564 0
M  V30 9644 H 931.864 -1.00795 -1.22581 0
M  V30 9645 H 931.885 -0.133804 -3.80265 0
M  V30 9646 H 931.397 -1.90873 -3.37919 0
M  V30 9647 H 929.498 0.537743 -3.68699 0
M  V30 9648 H 929.611 -1.06971 -4.67005 0
M  V30 9649 H 927.975 -0.473949 -2.50251 0
M  V30 9650 H 928.758 -2.135 -2.68836 0
M  V30 9651 N 931.203 1.46865 -0.571711 0
M  V30 9652 C 932.135 2.28277 0.205479 0
M  V30 9653 C 933.148 1.37866 0.865835 0
M  V30 9654 O 934.337 1.62564 0.737247 0
M  V30 9655 C 931.437 3.12572 1.30965 0
M  V30 9656 C 930.61 4.31038 0.743328 0
M  V30 9657 C 929.669 4.96815 1.73382 0
M  V30 9658 O 928.695 5.54755 1.2742 0
M  V30 9659 N 929.897 4.92825 3.06764 0
M  V30 9660 H 932.662 2.95618 -0.49294 0
M  V30 9661 H 930.223 1.56655 -0.408744 0
M  V30 9662 H 932.215 3.53442 1.97131 0
M  V30 9663 H 930.785 2.47378 1.91109 0
M  V30 9664 H 930.005 3.94084 -0.0955004 0
M  V30 9665 H 931.293 5.07632 0.344556 0
M  V30 9666 H 930.691 4.46978 3.46738 0
M  V30 9667 H 929.248 5.3767 3.68449 0
M  V30 9668 N 932.681 0.308908 1.54543 0
M  V30 9669 C 934.092 -0.182144 1.85809 0
M  V30 9670 C 934.443 -1.52796 1.23076 0
M  V30 9671 O 933.568 -2.09775 0.531358 0
M  V30 9672 C 934.163 -0.337275 3.37117 0
M  V30 9673 C 932.722 -0.772545 3.68387 0
M  V30 9674 C 931.869 0.114451 2.77064 0
M  V30 9675 H 934.82 0.529671 1.496 0
M  V30 9676 H 934.841 -1.17058 3.62046 0
M  V30 9677 H 934.353 0.642382 3.82747 0
M  V30 9678 H 932.454 -1.76247 3.2828 0
M  V30 9679 H 932.567 -0.586453 4.75497 0
M  V30 9680 H 930.931 -0.407581 2.51418 0
M  V30 9681 H 931.714 1.09061 3.25516 0
M  V30 9682 N 934.159 -1.57557 0.0367827 0
M  V30 9683 C 935.089 -2.13712 -0.940719 0
M  V30 9684 C 936.07 -1.05515 -1.33419 0
M  V30 9685 O 937.255 -1.33385 -1.41146 0
M  V30 9686 C 934.385 -2.67043 -2.22048 0
M  V30 9687 C 933.339 -3.80096 -1.96752 0
M  V30 9688 C 932.665 -4.19886 -3.31059 0
M  V30 9689 C 933.965 -5.05848 -1.30058 0
M  V30 9690 H 935.659 -2.9564 -0.473033 0
M  V30 9691 H 933.205 -1.42214 -0.226089 0
M  V30 9692 H 935.158 -3.04964 -2.90818 0
M  V30 9693 H 933.882 -1.82287 -2.70996 0
M  V30 9694 H 932.541 -3.42625 -1.30398 0
M  V30 9695 H 932.189 -3.32101 -3.77781 0
M  V30 9696 H 931.889 -4.96073 -3.14937 0
M  V30 9697 H 933.413 -4.60395 -4.01084 0
M  V30 9698 H 934.827 -5.41306 -1.8884 0
M  V30 9699 H 933.224 -5.87084 -1.24309 0
M  V30 9700 H 934.294 -4.84122 -0.274591 0
M  V30 9701 N 935.637 0.236453 -1.55816 0
M  V30 9702 C 936.547 1.31418 -1.94336 0
M  V30 9703 C 937.563 1.52095 -0.845164 0
M  V30 9704 O 938.739 1.65515 -1.14746 0
M  V30 9705 C 935.804 2.6468 -2.23932 0
M  V30 9706 C 934.865 2.52435 -3.47239 0
M  V30 9707 C 934.098 3.79342 -3.75414 0
M  V30 9708 O 934.321 4.81694 -3.05495 0
M  V30 9709 O 933.255 3.77347 -4.68927 0
M  V30 9710 H 937.081 1.01739 -2.86152 0
M  V30 9711 H 934.666 0.438084 -1.42833 0
M  V30 9712 H 936.548 3.4341 -2.44228 0
M  V30 9713 H 935.223 2.94071 -1.35292 0
M  V30 9714 H 934.13 1.71955 -3.32238 0
M  V30 9715 H 935.463 2.27987 -4.36214 0
M  V30 9716 N 937.115 1.49373 0.502552 0
M  V30 9717 C 938.343 1.62488 1.28084 0
M  V30 9718 C 938.758 0.295667 1.86471 0
M  V30 9719 O 938.115 -0.718664 1.67754 0
M  V30 9720 C 938.166 2.69249 2.4122 0
M  V30 9721 O 937.887 3.97014 1.85234 0
M  V30 9722 C 939.388 2.93054 3.32617 0
M  V30 9723 H 936.608 0.547068 0.388533 0
M  V30 9724 H 939.152 1.95394 0.603452 0
M  V30 9725 H 937.307 2.39125 3.04792 0
M  V30 9726 H 937.721 4.55809 2.59496 0
M  V30 9727 H 939.195 3.71493 4.08285 0
M  V30 9728 H 939.672 2.02911 3.89517 0
M  V30 9729 H 940.278 3.24589 2.74813 0
M  V30 9730 N 938.594 -0.753485 1.38421 0
M  V30 9731 C 939.524 -1.8808 1.38377 0
M  V30 9732 C 940.505 -1.68258 0.249664 0
M  V30 9733 O 941.69 -1.88848 0.45276 0
M  V30 9734 C 938.82 -3.25608 1.20818 0
M  V30 9735 C 937.774 -3.60032 2.31433 0
M  V30 9736 C 937.1 -4.96297 1.9898 0
M  V30 9737 C 938.4 -3.64898 3.73694 0
M  V30 9738 H 940.094 -1.88375 2.32713 0
M  V30 9739 H 937.64 -0.90489 1.12017 0
M  V30 9740 H 939.593 -4.04127 1.19412 0
M  V30 9741 H 938.317 -3.25793 0.229433 0
M  V30 9742 H 936.976 -2.83831 2.32025 0
M  V30 9743 H 936.624 -4.93043 0.995889 0
M  V30 9744 H 936.324 -5.20298 2.73063 0
M  V30 9745 H 937.848 -5.77196 1.99193 0
M  V30 9746 H 939.262 -4.33531 3.75132 0
M  V30 9747 H 937.659 -4.00407 4.46983 0
M  V30 9748 H 938.729 -2.65124 4.06002 0
M  V30 9749 N 940.072 -1.23292 -0.981677 0
M  V30 9750 C 941.349 -0.972514 -1.6971 0
M  V30 9751 C 941.729 0.509244 -2.04866 0
M  V30 9752 O 941.077 1.48013 -1.74082 0
M  V30 9753 C 941.287 -1.88144 -2.93943 0
M  V30 9754 C 942.635 -2.14416 -3.66485 0
M  V30 9755 O 943.659 -1.85684 -3.03974 0
M  V30 9756 O 942.518 -2.63139 -4.78978 0
M  V30 9757 H 939.612 -0.366673 -0.741269 0
M  V30 9758 H 942.158 -1.34328 -1.03701 0
M  V30 9759 H 940.93 -2.8832 -2.64551 0
M  V30 9760 H 940.553 -1.51296 -3.67689 0
M  V30 9761 N 941.55 1.18024 -1.04442 0
M  V30 9762 C 942.778 1.92032 -0.770161 0
M  V30 9763 C 943.193 1.76391 0.673181 0
M  V30 9764 O 942.55 1.09604 1.45922 0
M  V30 9765 C 942.601 3.43328 -1.13173 0
M  V30 9766 O 942.322 3.5848 -2.51841 0
M  V30 9767 C 943.823 4.34427 -0.882523 0
M  V30 9768 H 941.043 0.609518 -0.280586 0
M  V30 9769 H 943.587 1.49711 -1.39308 0
M  V30 9770 H 941.742 3.83423 -0.553704 0
M  V30 9771 H 942.156 4.52166 -2.65794 0
M  V30 9772 H 943.63 5.39123 -1.18533 0
M  V30 9773 H 944.107 4.3882 0.18257 0
M  V30 9774 H 944.713 4.00035 -1.44403 0
M  V30 9775 O 943.067 0.959562 1.29903 0
M  V30 9776 H 943.758 0.594984 1.84336 0
M  V30 END ATOM
M  V30 BEGIN BOND
M  V30 END BOND
M  V30 END CTAB
M  END
$$$$
