drugbank_target|P62508 Estrogen-related receptor gamma (DB00197; DB00255; DB00675; DB02659; DB04468; DB06884; DB06902; DB06973; DB07485; DB13952; DB13953; DB13954; DB13955; DB13956)
 OpenBabel12092120043D

  0  0  0     0  0            999 V3000
M  V30 BEGIN CTAB
M  V30 COUNTS 7178 7246 0 0 0
M  V30 BEGIN ATOM
M  V30 1 H -0.908 1.98254 -0.117106 0
M  V30 2 N 0 1.576 0 0
M  V30 3 C 0.933 2.03868 1.02534 0
M  V30 4 C 1.911 0.928543 1.3348 0
M  V30 5 O 3.095 1.19667 1.45644 0
M  V30 6 C 0.222 2.43627 2.35294 0
M  V30 7 C -0.732 3.65373 2.2001 0
M  V30 8 S 0.101 5.13292 1.52614 0
M  V30 9 C 1.257 5.56322 2.86805 0
M  V30 10 H 1.49 2.90518 0.631377 0
M  V30 11 H -0.977 1.52953 0.210867 0
M  V30 12 H 0.981 2.67203 3.11629 0
M  V30 13 H -0.358 1.57376 2.7183 0
M  V30 14 H -1.165 3.90944 3.18086 0
M  V30 15 H -1.563 3.418 1.51819 0
M  V30 16 H 0.729 5.58782 3.83104 0
M  V30 17 H 1.672 6.56266 2.65933 0
M  V30 18 H 2.08 4.83886 2.90714 0
M  V30 19 N 1.4781 -0.272755 1.55222 0
M  V30 20 C 2.7551 -1.02562 1.66555 0
M  V30 21 C 3.1351 -2.04282 0.532189 0
M  V30 22 O 2.4831 -2.23662 -0.467717 0
M  V30 23 C 2.6931 -1.6822 3.05782 0
M  V30 24 C 4.0411 -2.19373 3.63539 0
M  V30 25 O 5.0651 -1.78206 3.08417 0
M  V30 26 O 3.9241 -2.94883 4.60115 0
M  V30 27 H 1.0181 -0.475755 0.676451 0
M  V30 28 H 3.5641 -0.268593 1.67561 0
M  V30 29 H 2.3361 -0.945112 3.79715 0
M  V30 30 H 1.9591 -2.50609 3.08676 0
M  V30 31 N 2.9562 -1.48159 -0.537278 0
M  V30 32 C 4.1812 -1.59707 -1.32319 0
M  V30 33 C 4.6062 -0.254859 -1.86365 0
M  V30 34 O 3.9642 0.772378 -1.64024 0
M  V30 35 C 4.0122 -2.6412 -2.45505 0
M  V30 36 O 3.1162 -2.20774 -3.48328 0
M  V30 37 H 2.4572 -0.535791 -0.392204 0
M  V30 38 H 4.9872 -1.94092 -0.647268 0
M  V30 39 H 4.9972 -2.85166 -2.91795 0
M  V30 40 H 3.6722 -3.61567 -2.05528 0
M  V30 41 H 2.2492 -2.09911 -3.08207 0
M  V30 42 N 4.4343 0.785586 -1.36625 0
M  V30 43 C 5.6803 1.54591 -1.31261 0
M  V30 44 C 6.0133 1.93906 0.106823 0
M  V30 45 O 5.2883 1.63007 1.06108 0
M  V30 46 C 5.5713 2.82038 -2.23889 0
M  V30 47 C 5.4243 2.49066 -3.74548 0
M  V30 48 C 6.7433 3.83887 -2.15217 0
M  V30 49 H 3.8623 0.560846 -0.478143 0
M  V30 50 H 6.5043 0.902278 -1.67209 0
M  V30 51 H 4.6543 3.36961 -1.93363 0
M  V30 52 H 6.3263 2.00164 -4.15611 0
M  V30 53 H 4.5693 1.81954 -3.93796 0
M  V30 54 H 5.2403 3.40109 -4.34776 0
M  V30 55 H 7.7163 3.38421 -2.42096 0
M  V30 56 H 6.5923 4.70806 -2.82193 0
M  V30 57 H 6.8533 4.27131 -1.14068 0
M  V30 58 N 5.9124 1.20967 1.01018 0
M  V30 59 C 6.8224 0.980157 2.13143 0
M  V30 60 C 7.8384 -0.0660665 1.73875 0
M  V30 61 O 9.0144 0.122821 2.01025 0
M  V30 62 C 6.0794 0.54216 3.42435 0
M  V30 63 C 5.1404 1.65999 3.95908 0
M  V30 64 C 4.3734 1.2428 5.19028 0
M  V30 65 O 4.5964 0.114196 5.70286 0
M  V30 66 O 3.5304 2.05271 5.65816 0
M  V30 67 H 7.3564 1.91913 2.35379 0
M  V30 68 H 4.9414 0.994099 1.11526 0
M  V30 69 H 6.8234 0.30744 4.20277 0
M  V30 70 H 5.4984 -0.36815 3.216 0
M  V30 71 H 4.4054 1.94906 3.19316 0
M  V30 72 H 5.7384 2.54753 4.21143 0
M  V30 73 N 7.3905 -1.2043 1.01659 0
M  V30 74 C 8.3205 -2.25466 0.607226 0
M  V30 75 C 9.3015 -1.65853 -0.377716 0
M  V30 76 O 10.4865 -1.92409 -0.263149 0
M  V30 77 C 7.6165 -3.47256 -0.0552949 0
M  V30 78 C 6.5705 -4.19462 0.850632 0
M  V30 79 C 5.8965 -5.34673 0.0538859 0
M  V30 80 C 7.1965 -4.75603 2.15868 0
M  V30 81 H 8.8905 -2.59962 1.48526 0
M  V30 82 H 6.4365 -1.2496 0.715605 0
M  V30 83 H 8.3895 -4.19917 -0.353233 0
M  V30 84 H 7.1135 -3.11924 -0.968045 0
M  V30 85 H 5.7725 -3.48667 1.13257 0
M  V30 86 H 5.4205 -4.95585 -0.860514 0
M  V30 87 H 5.1205 -5.83913 0.657192 0
M  V30 88 H 6.6445 -6.10138 -0.237598 0
M  V30 89 H 8.0585 -5.40083 1.92311 0
M  V30 90 H 6.4555 -5.3528 2.71284 0
M  V30 91 H 7.5255 -3.94346 2.82169 0
M  V30 92 N 8.8686 -0.792821 -1.36206 0
M  V30 93 C 10.1086 -0.372238 -2.00982 0
M  V30 94 C 10.4726 1.03749 -1.61555 0
M  V30 95 O 11.6736 1.55934 -2.18948 0
M  V30 96 C 9.9446 -0.534566 -3.5338 0
M  V30 97 S 11.5036 -0.202365 -4.38333 0
M  V30 98 H 8.3216 -0.142044 -0.696667 0
M  V30 99 H 10.9236 -1.03206 -1.66039 0
M  V30 100 H 9.6276 -1.5608 -3.79562 0
M  V30 101 H 9.1586 0.141065 -3.93147 0
M  V30 102 H 11.1736 0.994869 -4.86124 0
M  V30 103 N 10.3467 1.47872 -0.545128 0
M  V30 104 C 11.2767 2.32661 0.197793 0
M  V30 105 C 12.2577 1.43041 0.920504 0
M  V30 106 O 13.4427 1.71912 0.90333 0
M  V30 107 C 10.5727 3.24569 1.23582 0
M  V30 108 C 9.5267 4.23333 0.630323 0
M  V30 109 C 8.8527 5.0448 1.77211 0
M  V30 110 C 10.1527 5.20704 -0.407974 0
M  V30 111 H 11.8467 2.95024 -0.510045 0
M  V30 112 H 9.3927 1.4187 -0.246731 0
M  V30 113 H 11.3457 3.8272 1.76362 0
M  V30 114 H 10.0697 2.60236 1.97344 0
M  V30 115 H 8.7287 3.6639 0.123922 0
M  V30 116 H 8.3767 4.36561 2.49847 0
M  V30 117 H 8.0767 5.71339 1.37281 0
M  V30 118 H 9.6007 5.65487 2.3034 0
M  V30 119 H 11.0147 5.7329 0.033305 0
M  V30 120 H 9.4117 5.95699 -0.725486 0
M  V30 121 H 10.4817 4.66917 -1.30828 0
M  V30 122 N 11.8248 0.280983 1.55075 0
M  V30 123 C 13.2358 -0.215629 1.85451 0
M  V30 124 C 13.5868 -1.54991 1.203 0
M  V30 125 O 12.7118 -2.10699 0.493435 0
M  V30 126 C 13.3068 -0.398026 3.36454 0
M  V30 127 C 11.8658 -0.838866 3.66933 0
M  V30 128 C 11.0128 0.064458 2.77225 0
M  V30 129 H 13.9638 0.502601 1.50531 0
M  V30 130 H 13.9848 -1.23569 3.59876 0
M  V30 131 H 13.4968 0.573241 3.83843 0
M  V30 132 H 11.5978 -1.8214 3.25048 0
M  V30 133 H 11.7108 -0.672123 4.74362 0
M  V30 134 H 10.0748 -0.452863 2.50642 0
M  V30 135 H 10.8578 1.03172 3.2743 0
M  V30 136 N 13.3029 -1.57598 0.00835791 0
M  V30 137 C 14.2129 -2.12385 -0.996487 0
M  V30 138 C 15.2289 -1.07108 -1.37127 0
M  V30 139 O 16.4049 -1.39055 -1.4569 0
M  V30 140 C 13.4699 -2.62314 -2.26699 0
M  V30 141 C 12.5309 -3.82225 -1.95456 0
M  V30 142 C 11.7639 -4.29763 -3.16449 0
M  V30 143 O 11.9869 -3.76584 -4.28416 0
M  V30 144 O 10.9209 -5.21832 -2.99958 0
M  V30 145 H 14.7469 -2.98479 -0.560725 0
M  V30 146 H 12.3319 -1.47903 -0.210987 0
M  V30 147 H 14.2139 -2.94589 -3.01322 0
M  V30 148 H 12.8889 -1.79313 -2.69497 0
M  V30 149 H 11.7959 -3.54909 -1.18282 0
M  V30 150 H 13.1289 -4.66324 -1.57489 0
M  V30 151 N 14.781 0.264519 -1.55364 0
M  V30 152 C 16.006 1.01726 -1.80739 0
M  V30 153 C 16.431 1.78836 -0.583044 0
M  V30 154 O 15.789 1.75167 0.467566 0
M  V30 155 C 15.837 1.94482 -3.03659 0
M  V30 156 O 14.941 3.03386 -2.7934 0
M  V30 157 H 14.282 0.290395 -0.597132 0
M  V30 158 H 16.812 0.290854 -2.02522 0
M  V30 159 H 16.822 2.36278 -3.32621 0
M  V30 160 H 15.497 1.37772 -3.92418 0
M  V30 161 H 14.074 2.65844 -2.61498 0
M  V30 162 N 16.2591 1.48442 0.529413 0
M  V30 163 C 17.5061 1.56488 1.28521 0
M  V30 164 C 17.8341 0.239042 1.93025 0
M  V30 165 O 17.0891 -0.770713 1.79885 0
M  V30 166 C 17.3881 2.6523 2.39558 0
M  V30 167 C 17.0541 4.07648 1.92702 0
M  V30 168 C 15.7161 4.46411 1.79641 0
M  V30 169 C 18.0681 4.96896 1.573 0
M  V30 170 C 15.3961 5.72226 1.29514 0
M  V30 171 C 17.7481 6.23202 1.08636 0
M  V30 172 C 16.4121 6.60821 0.941919 0
M  V30 173 H 15.6821 0.572631 0.470292 0
M  V30 174 H 18.3291 1.82161 0.59072 0
M  V30 175 H 16.6341 2.33419 3.14679 0
M  V30 176 H 18.3311 2.68671 2.97686 0
M  V30 177 H 14.9211 3.77036 2.03819 0
M  V30 178 H 19.1051 4.67626 1.66251 0
M  V30 179 H 14.3611 6.00097 1.17019 0
M  V30 180 H 18.5351 6.91753 0.803136 0
M  V30 181 H 16.1621 7.58198 0.5513 0
M  V30 182 N 17.7372 -0.778329 1.37039 0
M  V30 183 C 18.9622 -1.57248 1.35233 0
M  V30 184 C 19.3872 -1.87999 -0.0615568 0
M  V30 185 O 18.7452 -1.48734 -1.03672 0
M  V30 186 C 18.7932 -2.86353 2.19167 0
M  V30 187 O 17.8972 -3.80442 1.59178 0
M  V30 188 H 17.2382 -0.476569 0.462362 0
M  V30 189 H 19.7682 -0.963853 1.80474 0
M  V30 190 H 19.7782 -3.35519 2.32145 0
M  V30 191 H 18.4532 -2.63299 3.21942 0
M  V30 192 H 17.0302 -3.39067 1.55203 0
M  V30 193 N 19.2153 -1.21501 -1.00376 0
M  V30 194 C 20.1453 -0.999478 -2.11028 0
M  V30 195 C 21.1263 0.0759671 -1.6993 0
M  V30 196 O 22.3113 -0.0841106 -1.94018 0
M  V30 197 C 19.4413 -0.564709 -3.42678 0
M  V30 198 C 18.3953 -1.58486 -3.97576 0
M  V30 199 C 17.7213 -1.00628 -5.25146 0
M  V30 200 C 19.0213 -2.97204 -4.29496 0
M  V30 201 H 20.7153 -1.92495 -2.29317 0
M  V30 202 H 18.2613 -0.92693 -1.102 0
M  V30 203 H 20.2143 -0.401091 -4.19487 0
M  V30 204 H 18.9383 0.396411 -3.24185 0
M  V30 205 H 17.5973 -1.73606 -3.22888 0
M  V30 206 H 17.2453 -0.0368439 -5.02987 0
M  V30 207 H 16.9453 -1.68771 -5.62841 0
M  V30 208 H 18.4693 -0.854015 -6.04598 0
M  V30 209 H 19.8833 -2.8552 -4.97143 0
M  V30 210 H 18.2803 -3.62372 -4.78338 0
M  V30 211 H 19.3503 -3.47956 -3.3772 0
M  V30 212 N 20.6934 1.19889 -1.02296 0
M  V30 213 C 21.6434 2.20777 -0.56934 0
M  V30 214 C 22.6274 1.56379 0.378741 0
M  V30 215 O 23.8194 1.75859 0.200673 0
M  V30 216 C 20.9484 3.43196 0.0845077 0
M  V30 217 C 20.0344 4.14749 -0.88566 0
M  V30 218 N 20.4254 4.62584 -2.04573 0
M  V30 219 C 18.7234 4.40347 -0.707835 0
M  V30 220 C 19.4244 5.17466 -2.65714 0
M  V30 221 N 18.4004 5.0791 -1.93723 0
M  V30 222 H 22.2024 2.55434 -1.45365 0
M  V30 223 H 19.7164 1.35897 -0.88915 0
M  V30 224 H 21.7134 4.14707 0.427067 0
M  V30 225 H 20.3734 3.10042 0.964574 0
M  V30 226 H 21.3844 4.57597 -2.4254 0
M  V30 227 H 18.0614 4.17317 0.12364 0
M  V30 228 H 19.4514 5.64808 -3.63925 0
M  V30 229 N 22.1715 0.800033 1.35784 0
M  V30 230 C 23.4015 0.389041 2.02904 0
M  V30 231 C 23.8095 -1.0027 1.60445 0
M  V30 232 O 23.1525 -1.65633 0.794453 0
M  V30 233 C 23.2145 0.385495 3.57427 0
M  V30 234 C 22.8785 1.72662 4.23127 0
M  V30 235 C 23.8755 2.68385 4.4527 0
M  V30 236 C 21.5605 2.00883 4.60381 0
M  V30 237 C 23.5545 3.90517 5.03761 0
M  V30 238 C 21.2415 3.2328 5.18588 0
M  V30 239 C 22.2395 4.17915 5.40218 0
M  V30 240 O 21.9275 5.38153 5.97199 0
M  V30 241 H 21.6595 0.157032 0.657508 0
M  V30 242 H 24.2135 1.08311 1.74522 0
M  V30 243 H 22.4435 -0.365128 3.84972 0
M  V30 244 H 24.1325 -0.00228296 4.059 0
M  V30 245 H 24.8985 2.47872 4.16874 0
M  V30 246 H 20.7775 1.28037 4.42863 0
M  V30 247 H 24.3215 4.64395 5.2056 0
M  V30 248 H 20.2185 3.43667 5.4641 0
M  V30 249 H 20.9865 5.3936 6.15656 0
M  V30 250 N 23.6496 -1.47581 0.552962 0
M  V30 251 C 24.5596 -2.33743 -0.200353 0
M  V30 252 C 25.5756 -1.47928 -0.916151 0
M  V30 253 O 26.7516 -1.80865 -0.885993 0
M  V30 254 C 23.8166 -3.24536 -1.21973 0
M  V30 255 C 22.8776 -4.26238 -0.511819 0
M  V30 256 C 22.1106 -5.12693 -1.48263 0
M  V30 257 O 22.3336 -5.01525 -2.71714 0
M  V30 258 O 21.2676 -5.93375 -1.00945 0
M  V30 259 H 25.0936 -2.9945 0.506304 0
M  V30 260 H 22.6786 -1.46071 0.313622 0
M  V30 261 H 24.5606 -3.80631 -1.80827 0
M  V30 262 H 23.2356 -2.61462 -1.90839 0
M  V30 263 H 22.1426 -3.73914 0.117799 0
M  V30 264 H 23.4756 -4.92014 0.135308 0
M  V30 265 N 25.1277 -0.289203 -1.54924 0
M  V30 266 C 26.0377 0.601863 -2.26748 0
M  V30 267 C 27.0537 1.15834 -1.2984 0
M  V30 268 O 28.2297 1.18564 -1.62802 0
M  V30 269 C 25.2947 1.76299 -2.98529 0
M  V30 270 C 24.3557 1.24178 -4.10948 0
M  V30 271 C 23.5887 2.34757 -4.79296 0
M  V30 272 O 23.8117 3.54411 -4.46933 0
M  V30 273 O 22.7457 2.02115 -5.66951 0
M  V30 274 H 26.5717 0.0195879 -3.03694 0
M  V30 275 H 24.1567 -0.0560868 -1.49295 0
M  V30 276 H 26.0387 2.43973 -3.43592 0
M  V30 277 H 24.7137 2.33209 -2.24488 0
M  V30 278 H 23.6207 0.531104 -3.70311 0
M  V30 279 H 24.9537 0.718252 -4.86931 0
M  V30 280 N 26.6058 1.57591 -0.0167156 0
M  V30 281 C 27.5158 2.1291 0.98521 0
M  V30 282 C 28.5318 1.07834 1.36557 0
M  V30 283 O 29.7078 1.39826 1.44951 0
M  V30 284 C 26.7728 2.63512 2.25305 0
M  V30 285 C 25.8338 3.83256 1.93426 0
M  V30 286 C 25.0668 4.31435 3.14165 0
M  V30 287 O 25.2898 3.78851 4.26413 0
M  V30 288 O 24.2238 5.23416 2.97186 0
M  V30 289 H 28.0498 2.98772 0.544888 0
M  V30 290 H 25.6348 1.48012 0.203141 0
M  V30 291 H 27.5168 2.96183 2.99756 0
M  V30 292 H 26.1918 1.8074 2.68542 0
M  V30 293 H 25.0988 3.55531 1.16398 0
M  V30 294 H 26.4318 4.67153 1.55013 0
M  V30 295 N 28.0839 -0.256276 1.55502 0
M  V30 296 C 29.0139 -1.32102 1.92539 0
M  V30 297 C 29.9949 -1.50684 0.789194 0
M  V30 298 O 31.1799 -1.63449 1.04872 0
M  V30 299 C 28.3099 -2.67752 2.21192 0
M  V30 300 C 27.2639 -2.63878 3.36975 0
M  V30 301 C 26.5899 -4.03236 3.51147 0
M  V30 302 C 27.8899 -2.21682 4.72921 0
M  V30 303 H 29.5839 -1.01351 2.81724 0
M  V30 304 H 27.1299 -0.486105 1.35547 0
M  V30 305 H 29.0829 -3.42365 2.45691 0
M  V30 306 H 27.8069 -3.0012 1.28824 0
M  V30 307 H 26.4659 -1.91722 3.12471 0
M  V30 308 H 26.1139 -4.32854 2.56216 0
M  V30 309 H 25.8139 -4.01535 4.29003 0
M  V30 310 H 27.3379 -4.79563 3.77957 0
M  V30 311 H 28.7519 -2.86023 4.96854 0
M  V30 312 H 27.1489 -2.3111 5.53812 0
M  V30 313 H 28.2189 -1.16833 4.70615 0
M  V30 314 N 29.562 -1.4872 -0.521534 0
M  V30 315 C 30.492 -1.66771 -1.63431 0
M  V30 316 C 31.473 -0.516499 -1.62069 0
M  V30 317 O 32.658 -0.750013 -1.79132 0
M  V30 318 C 29.788 -1.71515 -3.01993 0
M  V30 319 C 28.742 -2.86222 -3.18216 0
M  V30 320 C 28.068 -2.76061 -4.57924 0
M  V30 321 C 29.368 -4.27419 -3.00184 0
M  V30 322 H 31.062 -2.59932 -1.48579 0
M  V30 323 H 28.608 -1.25089 -0.713358 0
M  V30 324 H 30.561 -1.82731 -3.7972 0
M  V30 325 H 29.285 -0.749393 -3.17886 0
M  V30 326 H 27.944 -2.74575 -2.42908 0
M  V30 327 H 27.592 -1.77437 -4.70665 0
M  V30 328 H 27.292 -3.53037 -4.69722 0
M  V30 329 H 28.816 -2.89256 -5.37739 0
M  V30 330 H 30.23 -4.39855 -3.67697 0
M  V30 331 H 28.627 -5.05458 -3.2347 0
M  V30 332 H 29.697 -4.43293 -1.96518 0
M  V30 333 N 31.0401 0.771051 -1.3745 0
M  V30 334 C 32.2801 1.54264 -1.34096 0
M  V30 335 C 32.6441 1.91858 0.0737639 0
M  V30 336 O 33.8451 2.67797 0.23203 0
M  V30 337 C 32.1161 2.77326 -2.25445 0
M  V30 338 S 33.6751 3.67383 -2.39948 0
M  V30 339 H 30.4931 0.528122 -0.476034 0
M  V30 340 H 33.0951 0.906633 -1.73206 0
M  V30 341 H 31.7991 2.47788 -3.27153 0
M  V30 342 H 31.3301 3.45886 -1.87421 0
M  V30 343 H 33.3451 4.69334 -1.61059 0
M  V30 344 N 32.5182 1.22032 0.997298 0
M  V30 345 C 33.9342 0.979326 1.26021 0
M  V30 346 C 34.1342 -0.32972 1.98784 0
M  V30 347 O 33.1902 -1.05345 2.29475 0
M  V30 348 C 34.5032 2.17509 2.07631 0
M  V30 349 C 36.0512 2.21817 2.2083 0
M  V30 350 C 36.5262 3.40933 3.05825 0
M  V30 351 N 38.0172 3.41067 3.13412 0
M  V30 352 C 38.7522 4.29885 3.79455 0
M  V30 353 N 38.2482 5.28914 4.47462 0
M  V30 354 N 40.0412 4.17673 3.76173 0
M  V30 355 H 32.1922 2.06202 0.509352 0
M  V30 356 H 34.4552 0.90334 0.287541 0
M  V30 357 H 34.1612 3.12415 1.61524 0
M  V30 358 H 34.0352 2.17206 3.08385 0
M  V30 359 H 36.4222 1.27462 2.66153 0
M  V30 360 H 36.5032 2.2616 1.1952 0
M  V30 361 H 36.1472 4.35586 2.61203 0
M  V30 362 H 36.0772 3.33829 4.07266 0
M  V30 363 H 38.5682 2.69406 2.65007 0
M  V30 364 H 38.8812 5.92973 4.95583 0
M  V30 365 H 37.2262 5.32831 4.46224 0
M  V30 366 H 40.4172 3.39564 3.22202 0
M  V30 367 H 40.5902 4.87098 4.27363 0
M  V30 368 N 33.9963 -1.19345 1.0293 0
M  V30 369 C 34.9293 -2.21347 0.555029 0
M  V30 370 C 35.9073 -1.57492 -0.404351 0
M  V30 371 O 37.0913 -1.85741 -0.321352 0
M  V30 372 C 34.2183 -3.38163 -0.19064 0
M  V30 373 C 33.2643 -4.20375 0.720236 0
M  V30 374 S 34.0973 -4.88371 2.19668 0
M  V30 375 C 35.2533 -6.08597 1.46153 0
M  V30 376 H 35.4863 -2.61235 1.41929 0
M  V30 377 H 33.0193 -1.29598 0.839272 0
M  V30 378 H 34.9773 -4.05871 -0.614724 0
M  V30 379 H 33.6383 -2.9671 -1.03063 0
M  V30 380 H 32.8313 -5.03793 0.14455 0
M  V30 381 H 32.4333 -3.57987 1.08266 0
M  V30 382 H 34.7253 -6.73354 0.748357 0
M  V30 383 H 35.6683 -6.7065 2.27233 0
M  V30 384 H 36.0763 -5.56297 0.958842 0
M  V30 385 N 35.4744 -0.807222 -1.35358 0
M  V30 386 C 36.6994 -0.399309 -2.0352 0
M  V30 387 C 37.1244 0.981986 -1.60433 0
M  V30 388 O 36.4824 1.63601 -0.781299 0
M  V30 389 C 36.5304 -0.491552 -3.57234 0
M  V30 390 O 35.6344 0.494754 -4.09421 0
M  V30 391 H 34.9754 -0.166682 -0.642739 0
M  V30 392 H 37.5054 -1.09328 -1.72941 0
M  V30 393 H 37.5154 -0.361588 -4.06395 0
M  V30 394 H 36.1904 -1.49907 -3.87944 0
M  V30 395 H 34.7674 0.324977 -3.71481 0
M  V30 396 N 36.9525 1.47285 -0.560781 0
M  V30 397 C 37.9005 2.31756 0.197942 0
M  V30 398 C 38.8945 1.43146 0.905854 0
M  V30 399 O 40.1005 1.59891 0.826733 0
M  V30 400 H 36.4755 0.747438 0.0827049 0
M  V30 401 H 38.4465 2.9359 -0.533629 0
M  V30 402 C 37.1955 3.25874 1.21249 0
M  V30 403 H 36.5185 3.94023 0.67719 0
M  V30 404 H 37.9585 3.87803 1.71419 0
M  V30 405 C 36.4175 2.49651 2.26221 0
M  V30 406 O 36.9475 2.24355 3.33208 0
M  V30 407 N 35.1535 2.10597 2.00243 0
M  V30 408 H 34.7005 2.31369 1.13252 0
M  V30 409 H 34.6585 1.59913 2.70694 0
M  V30 410 N 38.4306 0.297415 1.54768 0
M  V30 411 C 39.3776 -0.580276 2.23386 0
M  V30 412 C 40.3476 -1.13238 1.21517 0
M  V30 413 O 41.5326 -1.17757 1.50126 0
M  V30 414 C 38.6726 -1.74801 2.97555 0
M  V30 415 C 37.7856 -1.22764 4.1419 0
M  V30 416 C 36.9206 -2.35895 4.75949 0
M  V30 417 C 35.9596 -1.80974 5.84735 0
M  V30 418 N 35.0966 -2.87664 6.40464 0
M  V30 419 H 39.9366 0.0114833 2.97998 0
M  V30 420 H 37.4736 0.0174361 1.4709 0
M  V30 421 H 39.4316 -2.43475 3.38786 0
M  V30 422 H 38.0616 -2.31145 2.25326 0
M  V30 423 H 37.1136 -0.433271 3.77924 0
M  V30 424 H 38.4256 -0.785551 4.92575 0
M  V30 425 H 37.5796 -3.12523 5.20014 0
M  V30 426 H 36.3186 -2.83429 3.96887 0
M  V30 427 H 35.3236 -1.02834 5.40097 0
M  V30 428 H 36.5486 -1.34348 6.65678 0
M  V30 429 H 34.4946 -3.34538 5.64287 0
M  V30 430 H 34.4116 -2.4794 7.14186 0
M  V30 431 H 35.6796 -3.642 6.89187 0
M  V30 432 N 39.9087 -1.5758 0.0250728 0
M  V30 433 C 41.1857 -1.82917 -0.692873 0
M  V30 434 C 41.5657 -0.908137 -1.90568 0
M  V30 435 O 40.9137 0.0372298 -2.2847 0
M  V30 436 C 41.1237 -3.32034 -1.07492 0
M  V30 437 C 42.4717 -3.98406 -1.46826 0
M  V30 438 O 43.4957 -3.36505 -1.16801 0
M  V30 439 O 42.3547 -5.07497 -2.02754 0
M  V30 440 H 39.4487 -0.754079 -0.33955 0
M  V30 441 H 41.9947 -1.69619 0.0524456 0
M  V30 442 H 40.7667 -3.90728 -0.211552 0
M  V30 443 H 40.3897 -3.50424 -1.87854 0
M  V30 444 N 41.3868 0.248026 -1.55636 0
M  V30 445 C 42.8028 0.596483 -1.48035 0
M  V30 446 C 43.0028 1.88386 -0.715039 0
M  V30 447 O 42.0588 2.51319 -0.243944 0
M  V30 448 C 43.3718 0.700258 -2.92433 0
M  V30 449 C 44.9198 0.792659 -3.02797 0
M  V30 450 C 45.3948 0.928005 -4.485 0
M  V30 451 N 46.8858 0.992903 -4.52433 0
M  V30 452 C 47.6208 1.11687 -5.62418 0
M  V30 453 N 47.1168 1.20645 -6.82214 0
M  V30 454 N 48.9098 1.14994 -5.50212 0
M  V30 455 H 41.0608 -0.597109 -2.03834 0
M  V30 456 H 43.3238 -0.205925 -0.925364 0
M  V30 457 H 43.0298 -0.175658 -3.51261 0
M  V30 458 H 42.9038 1.57255 -3.42857 0
M  V30 459 H 45.2908 1.65903 -2.4405 0
M  V30 460 H 45.3718 -0.104762 -2.55585 0
M  V30 461 H 45.0158 0.0661971 -5.07857 0
M  V30 462 H 44.9458 1.84045 -4.93391 0
M  V30 463 H 47.4368 0.935064 -3.66149 0
M  V30 464 H 47.7498 1.30008 -7.61786 0
M  V30 465 H 46.0948 1.17605 -6.84977 0
M  V30 466 H 49.2858 1.07643 -4.55555 0
M  V30 467 H 49.4588 1.24311 -6.35965 0
M  V30 468 N 42.8649 1.48995 0.513639 0
M  V30 469 C 43.8149 1.61127 1.61314 0
M  V30 470 C 44.7989 0.467521 1.53958 0
M  V30 471 O 45.9909 0.719826 1.61702 0
M  V30 472 C 43.1199 1.66937 2.99978 0
M  V30 473 C 42.2059 2.86847 3.12377 0
M  V30 474 N 42.5969 4.11078 2.94701 0
M  V30 475 C 40.8949 2.84521 3.43459 0
M  V30 476 C 41.5959 4.91615 3.10949 0
M  V30 477 N 40.5719 4.24739 3.3926 0
M  V30 478 H 44.3739 2.54909 1.46282 0
M  V30 479 H 41.8879 1.45593 0.719483 0
M  V30 480 H 43.8849 1.73725 3.78979 0
M  V30 481 H 42.5449 0.742831 3.16089 0
M  V30 482 H 43.5559 4.41258 2.71131 0
M  V30 483 H 40.2329 2.01192 3.65825 0
M  V30 484 H 41.6229 6.00264 3.01882 0
M  V30 485 N 44.343 -0.763751 1.37857 0
M  V30 486 C 45.592 -1.51789 1.32827 0
M  V30 487 C 45.905 -1.95426 -0.0823719 0
M  V30 488 O 47.111 -2.70298 -0.255172 0
M  V30 489 C 45.567 -2.74133 2.33193 0
M  V30 490 C 45.175 -2.37562 3.79827 0
M  V30 491 C 46.919 -3.52054 2.37188 0
M  V30 492 C 44.826 -3.56456 4.71904 0
M  V30 493 H 43.756 -0.569896 0.493695 0
M  V30 494 H 46.407 -0.835822 1.63359 0
M  V30 495 H 44.789 -3.4427 1.9569 0
M  V30 496 H 45.963 -1.75157 4.26212 0
M  V30 497 H 44.278 -1.72798 3.78853 0
M  V30 498 H 46.875 -4.40437 3.03182 0
M  V30 499 H 47.218 -3.92486 1.38782 0
M  V30 500 H 47.751 -2.88921 2.7344 0
M  V30 501 H 44.49 -3.21099 5.71468 0
M  V30 502 H 44.01 -4.17938 4.30218 0
M  V30 503 H 45.689 -4.23168 4.89426 0
M  V30 504 N 45.8211 -1.22559 -0.990812 0
M  V30 505 C 47.0981 -0.959875 -1.70428 0
M  V30 506 C 47.4781 0.524455 -2.04481 0
M  V30 507 O 46.8261 1.49302 -1.72977 0
M  V30 508 C 47.0361 -1.85955 -2.95333 0
M  V30 509 C 48.3841 -2.11687 -3.68068 0
M  V30 510 O 49.4081 -1.8342 -3.05345 0
M  V30 511 O 48.2671 -2.59572 -4.80921 0
M  V30 512 H 45.3611 -0.361154 -0.743974 0
M  V30 513 H 47.9071 -1.33554 -1.04697 0
M  V30 514 H 46.6791 -2.86346 -2.66687 0
M  V30 515 H 46.3021 -1.4856 -3.68803 0
M  V30 516 N 47.2992 1.18797 -1.03562 0
M  V30 517 C 48.5242 1.9314 -0.755764 0
M  V30 518 C 48.9492 1.7537 0.68022 0
M  V30 519 O 48.3072 1.06046 1.47051 0
M  V30 520 C 48.3552 3.42747 -1.12058 0
M  V30 521 O 47.4592 4.11683 -0.243124 0
M  V30 522 H 46.8002 0.602724 -0.278604 0
M  V30 523 H 49.3302 1.50678 -1.3841 0
M  V30 524 H 49.3402 3.93437 -1.08035 0
M  V30 525 H 48.0152 3.55002 -2.16672 0
M  V30 526 H 46.5922 3.71323 -0.342539 0
M  V30 527 N 48.7773 0.814389 1.34928 0
M  V30 528 C 50.0023 0.410097 2.03305 0
M  V30 529 C 50.4273 -0.973464 1.60951 0
M  V30 530 O 49.7853 -1.63185 0.789964 0
M  V30 531 C 49.8333 0.51049 3.56968 0
M  V30 532 O 48.9373 -0.473035 4.09678 0
M  V30 533 H 48.2783 0.170088 0.641846 0
M  V30 534 H 50.8083 1.10244 1.72358 0
M  V30 535 H 50.8183 0.383135 4.06197 0
M  V30 536 H 49.4933 1.51963 3.87144 0
M  V30 537 H 48.0703 -0.305272 3.71648 0
M  V30 538 N 50.2554 -1.46986 0.568584 0
M  V30 539 C 51.4954 -2.04336 0.0512999 0
M  V30 540 C 51.8594 -1.43214 -1.27881 0
M  V30 541 O 53.0604 -1.91679 -1.88448 0
M  V30 542 C 51.3314 -3.57389 -0.0282328 0
M  V30 543 S 52.8904 -4.36056 -0.489991 0
M  V30 544 H 49.7084 -0.71034 0.0306349 0
M  V30 545 H 52.3104 -1.80212 0.757891 0
M  V30 546 H 51.0144 -3.99395 0.944011 0
M  V30 547 H 50.5454 -3.86028 -0.75803 0
M  V30 548 H 52.5604 -4.6441 -1.74752 0
M  V30 549 N 51.7335 -0.305618 -1.54608 0
M  V30 550 C 52.9585 0.307562 -2.05107 0
M  V30 551 C 53.3835 1.46385 -1.18123 0
M  V30 552 O 52.7415 1.8034 -0.186324 0
M  V30 553 C 52.7895 0.73704 -3.52987 0
M  V30 554 O 51.8935 1.84134 -3.6901 0
M  V30 555 H 51.2345 0.0589143 -0.661381 0
M  V30 556 H 53.7645 -0.448807 -1.99617 0
M  V30 557 H 53.7745 1.02459 -3.94925 0
M  V30 558 H 52.4495 -0.108773 -4.15758 0
M  V30 559 H 51.0265 1.55398 -3.38978 0
M  V30 560 N 53.2116 1.57565 -0.0334293 0
M  V30 561 C 54.4366 1.96689 0.657895 0
M  V30 562 C 54.8616 0.910057 1.64619 0
M  V30 563 O 54.2196 -0.128598 1.80843 0
M  V30 564 C 54.2676 3.34905 1.33683 0
M  V30 565 O 53.3716 3.31574 2.45219 0
M  V30 566 H 52.7126 0.641205 0.172489 0
M  V30 567 H 55.2426 2.04372 -0.0965621 0
M  V30 568 H 55.2526 3.71234 1.69262 0
M  V30 569 H 53.9276 4.11366 0.612411 0
M  V30 570 H 52.5046 3.06968 2.11719 0
M  V30 571 N 54.6897 -0.239769 1.55765 0
M  V30 572 C 55.9367 -0.966801 1.7793 0
M  V30 573 C 56.2647 -1.85046 0.599015 0
M  V30 574 O 55.5197 -1.91197 -0.417395 0
M  V30 575 C 55.8187 -1.852 3.05672 0
M  V30 576 C 55.4847 -1.1231 4.36689 0
M  V30 577 C 54.1467 -0.921689 4.72291 0
M  V30 578 C 56.4987 -0.607019 5.17653 0
M  V30 579 C 53.8267 -0.191996 5.86386 0
M  V30 580 C 56.1787 0.109241 6.32506 0
M  V30 581 C 54.8427 0.322073 6.66723 0
M  V30 582 H 54.1127 -0.353778 0.651093 0
M  V30 583 H 56.7597 -0.23634 1.90036 0
M  V30 584 H 55.0647 -2.64975 2.8861 0
M  V30 585 H 56.7617 -2.41635 3.20021 0
M  V30 586 H 53.3517 -1.29004 4.08725 0
M  V30 587 H 57.5357 -0.750153 4.90598 0
M  V30 588 H 52.7917 -0.0166949 6.11398 0
M  V30 589 H 56.9657 0.516737 6.9448 0
M  V30 590 H 54.5927 0.88944 7.54979 0
M  V30 591 N 56.1678 -1.49265 -0.50573 0
M  V30 592 C 57.4168 -1.57761 -1.25675 0
M  V30 593 C 57.7298 -0.267371 -1.93764 0
M  V30 594 O 58.9358 -0.230827 -2.70517 0
M  V30 595 C 57.3918 -2.78332 -2.28165 0
M  V30 596 C 56.9998 -4.16096 -1.66037 0
M  V30 597 C 58.7438 -2.96155 -3.04125 0
M  V30 598 C 56.6508 -5.27895 -2.6661 0
M  V30 599 H 55.5808 -0.587391 -0.472745 0
M  V30 600 H 58.2318 -1.75644 -0.53118 0
M  V30 601 H 56.6138 -2.53934 -3.03865 0
M  V30 602 H 57.7878 -4.50612 -0.963622 0
M  V30 603 H 56.1028 -4.03591 -1.02484 0
M  V30 604 H 58.6998 -3.76849 -3.79327 0
M  V30 605 H 59.0428 -2.06534 -3.61455 0
M  V30 606 H 59.5758 -3.2057 -2.35541 0
M  V30 607 H 56.3148 -6.1956 -2.14068 0
M  V30 608 H 55.8348 -4.97839 -3.34539 0
M  V30 609 H 57.5138 -5.57031 -3.29129 0
M  V30 610 N 57.6459 0.756429 -1.3826 0
M  V30 611 C 58.5929 1.87011 -1.35261 0
M  V30 612 C 59.5629 1.64695 -0.215616 0
M  V30 613 O 60.7479 1.864 -0.407399 0
M  V30 614 C 57.8879 3.24275 -1.18068 0
M  V30 615 C 57.0009 3.58442 -2.41129 0
M  V30 616 C 56.1359 4.84994 -2.16689 0
M  V30 617 C 55.1749 5.11939 -3.35537 0
M  V30 618 N 54.3119 6.29685 -3.10549 0
M  V30 619 H 59.1519 1.8891 -2.30472 0
M  V30 620 H 56.6889 0.923373 -1.14509 0
M  V30 621 H 58.6469 4.03479 -1.06116 0
M  V30 622 H 57.2769 3.21711 -0.264973 0
M  V30 623 H 56.3289 2.74103 -2.63764 0
M  V30 624 H 57.6409 3.74283 -3.29717 0
M  V30 625 H 56.7949 5.72135 -2.01857 0
M  V30 626 H 55.5339 4.71286 -1.25462 0
M  V30 627 H 54.5389 4.23268 -3.50891 0
M  V30 628 H 55.7639 5.27546 -4.27635 0
M  V30 629 H 53.7099 6.17306 -2.21967 0
M  V30 630 H 53.6269 6.46014 -3.92686 0
M  V30 631 H 54.8949 7.19722 -2.99367 0
M  V30 632 N 59.124 1.23083 0.984299 0
M  V30 633 C 60.352 1.08714 1.76037 0
M  V30 634 C 60.767 -0.361691 1.85303 0
M  V30 635 O 60.124 -1.25034 1.32939 0
M  V30 636 C 60.175 1.70206 3.18923 0
M  V30 637 O 59.896 3.09423 3.10144 0
M  V30 638 C 61.397 1.61227 4.12941 0
M  V30 639 H 58.617 0.380664 0.552572 0
M  V30 640 H 61.161 1.62853 1.23689 0
M  V30 641 H 59.316 1.20109 3.6831 0
M  V30 642 H 59.73 3.39188 4.00065 0
M  V30 643 H 61.204 2.08962 5.10919 0
M  V30 644 H 61.681 0.570375 4.35481 0
M  V30 645 H 62.287 2.10671 3.69456 0
M  V30 646 N 60.6021 -1.18246 1.0419 0
M  V30 647 C 61.5121 -2.25574 0.644476 0
M  V30 648 C 62.5281 -1.70845 -0.329826 0
M  V30 649 O 63.7041 -2.00554 -0.184443 0
M  V30 650 C 60.7691 -3.46697 0.014877 0
M  V30 651 C 59.8301 -4.16554 1.03834 0
M  V30 652 C 59.0631 -5.31894 0.438692 0
M  V30 653 O 59.2861 -5.65385 -0.754752 0
M  V30 654 O 58.2201 -5.90459 1.168 0
M  V30 655 H 62.0461 -2.61836 1.53869 0
M  V30 656 H 59.6311 -1.25352 0.812854 0
M  V30 657 H 61.5131 -4.20062 -0.335538 0
M  V30 658 H 60.1881 -3.12255 -0.853138 0
M  V30 659 H 59.0951 -3.45251 1.44057 0
M  V30 660 H 60.4281 -4.54998 1.87716 0
M  V30 661 N 62.0802 -0.821533 -1.34494 0
M  V30 662 C 63.4912 -0.467956 -1.8074 0
M  V30 663 C 63.8422 1.01151 -1.68116 0
M  V30 664 O 62.9672 1.78707 -1.22036 0
M  V30 665 C 63.5622 -0.842627 -3.28154 0
M  V30 666 C 62.1212 -0.541439 -3.72485 0
M  V30 667 C 61.2682 -1.06028 -2.56229 0
M  V30 668 H 64.2192 -1.01183 -1.22261 0
M  V30 669 H 64.2402 -0.145876 -3.8022 0
M  V30 670 H 63.7522 -1.91945 -3.37311 0
M  V30 671 H 61.8532 0.526034 -3.68868 0
M  V30 672 H 61.9662 -1.08453 -4.66663 0
M  V30 673 H 60.3302 -0.481892 -2.501 0
M  V30 674 H 61.1132 -2.14352 -2.68157 0
M  V30 675 N 63.5583 1.46682 -0.576371 0
M  V30 676 C 64.7833 2.07304 -0.0630475 0
M  V30 677 C 65.2083 1.42329 1.2298 0
M  V30 678 O 64.5663 0.504865 1.74129 0
M  V30 679 C 64.6143 3.60472 0.095895 0
M  V30 680 O 63.7183 3.95927 1.15394 0
M  V30 681 H 63.0593 0.661288 -0.0599463 0
M  V30 682 H 65.5893 1.88417 -0.797511 0
M  V30 683 H 65.5993 4.06865 0.304071 0
M  V30 684 H 64.2743 4.07157 -0.84828 0
M  V30 685 H 62.8513 3.61252 0.924724 0
M  V30 686 N 65.0364 0.313813 1.54444 0
M  V30 687 C 66.2614 -0.296681 2.05267 0
M  V30 688 C 66.6864 -1.45757 1.18897 0
M  V30 689 O 66.0444 -1.80239 0.195886 0
M  V30 690 C 66.0924 -0.71831 3.53373 0
M  V30 691 O 65.1964 -1.82175 3.69981 0
M  V30 692 H 64.5374 -0.0554061 0.661684 0
M  V30 693 H 67.0674 0.459387 1.99376 0
M  V30 694 H 67.0774 -1.00364 3.95463 0
M  V30 695 H 65.7524 0.130821 4.15694 0
M  V30 696 H 64.3294 -1.53598 3.39797 0
M  V30 697 N 66.5145 -1.57545 0.0417849 0
M  V30 698 C 67.9255 -1.80011 -0.495259 0
M  V30 699 C 68.2765 -0.953199 -1.71489 0
M  V30 700 O 67.4015 -0.167138 -2.15754 0
M  V30 701 C 67.9965 -3.26482 -0.905265 0
M  V30 702 C 66.5555 -3.499 -1.38734 0
M  V30 703 C 65.7025 -2.74979 -0.358056 0
M  V30 704 H 68.6535 -1.56425 0.267736 0
M  V30 705 H 68.6745 -3.36887 -1.76882 0
M  V30 706 H 68.1865 -3.88096 -0.017401 0
M  V30 707 H 66.2875 -2.93553 -2.29471 0
M  V30 708 H 66.4005 -4.58615 -1.38598 0
M  V30 709 H 64.7645 -2.40834 -0.828912 0
M  V30 710 H 65.5475 -3.39315 0.521561 0
M  V30 711 N 67.9926 0.231505 -1.5589 0
M  V30 712 C 68.9556 1.27028 -1.90779 0
M  V30 713 C 69.9556 1.40308 -0.785507 0
M  V30 714 O 71.1456 1.38744 -1.05336 0
M  V30 715 C 68.2776 2.64566 -2.14983 0
M  V30 716 H 69.4706 0.973017 -2.83677 0
M  V30 717 H 67.0236 0.471486 -1.49019 0
M  V30 718 H 67.7586 2.99406 -1.24604 0
M  V30 719 H 67.5436 2.56305 -2.96732 0
M  V30 720 H 69.0336 3.39543 -2.43105 0
M  V30 721 N 69.4707 1.49531 0.497807 0
M  V30 722 C 70.6957 1.63159 1.28039 0
M  V30 723 C 71.1207 0.30418 1.85624 0
M  V30 724 O 70.4787 -0.728618 1.66015 0
M  V30 725 C 70.5267 2.70537 2.38416 0
M  V30 726 O 69.6307 2.29931 3.42353 0
M  V30 727 H 68.9717 0.546001 0.377861 0
M  V30 728 H 71.5017 1.9574 0.59558 0
M  V30 729 H 71.5117 2.92802 2.84132 0
M  V30 730 H 70.1867 3.6689 1.95869 0
M  V30 731 H 68.7637 2.18009 3.02533 0
M  V30 732 N 70.9488 -0.749086 1.3866 0
M  V30 733 C 71.8788 -1.8764 1.38973 0
M  V30 734 C 72.8598 -1.68178 0.255004 0
M  V30 735 O 74.0448 -1.88704 0.458754 0
M  V30 736 C 71.1748 -3.25222 1.21851 0
M  V30 737 C 70.1288 -3.59295 2.32575 0
M  V30 738 C 69.4548 -4.95663 2.00555 0
M  V30 739 C 70.7548 -3.63709 3.7485 0
M  V30 740 H 72.4488 -1.87635 2.3331 0
M  V30 741 H 69.9948 -0.901329 1.12303 0
M  V30 742 H 71.9478 -4.03746 1.20695 0
M  V30 743 H 70.6718 -3.25719 0.239775 0
M  V30 744 H 69.3308 -2.83093 2.32925 0
M  V30 745 H 68.9788 -4.92724 1.01154 0
M  V30 746 H 68.6788 -5.19429 2.74714 0
M  V30 747 H 70.2028 -5.7656 2.01024 0
M  V30 748 H 71.6168 -4.32338 3.76506 0
M  V30 749 H 70.0138 -3.98986 4.48252 0
M  V30 750 H 71.0838 -2.63834 4.06841 0
M  V30 751 N 72.4269 -1.23603 -0.977757 0
M  V30 752 C 73.6549 -1.09646 -1.75458 0
M  V30 753 C 74.0699 0.351859 -1.85492 0
M  V30 754 O 73.4269 1.24327 -1.336 0
M  V30 755 C 73.4779 -1.71895 -3.18016 0
M  V30 756 O 73.1989 -3.11063 -3.08498 0
M  V30 757 C 74.6999 -1.63415 -4.12081 0
M  V30 758 H 71.9199 -0.38359 -0.550545 0
M  V30 759 H 74.4639 -1.63507 -1.22824 0
M  V30 760 H 72.6189 -1.22061 -3.67668 0
M  V30 761 H 73.0329 -3.41305 -3.9826 0
M  V30 762 H 74.5069 -2.11669 -5.09804 0
M  V30 763 H 74.9839 -0.593462 -4.35172 0
M  V30 764 H 75.5899 -2.12628 -3.68334 0
M  V30 765 N 73.905 1.17692 -1.04816 0
M  V30 766 C 75.182 1.83768 -0.669963 0
M  V30 767 C 75.562 1.93232 0.849986 0
M  V30 768 O 74.91 1.46397 1.75443 0
M  V30 769 C 75.12 3.21641 -1.35455 0
M  V30 770 C 76.468 3.97592 -1.49017 0
M  V30 771 O 77.492 3.31107 -1.31326 0
M  V30 772 O 76.351 5.16729 -1.77914 0
M  V30 773 H 73.445 0.792799 -0.235368 0
M  V30 774 H 75.991 1.25021 -1.14751 0
M  V30 775 H 74.763 3.097 -2.39168 0
M  V30 776 H 74.386 3.88052 -0.866107 0
M  V30 777 N 75.3831 0.828654 1.34056 0
M  V30 778 C 76.6081 0.431637 2.02859 0
M  V30 779 C 77.0331 -0.956339 1.61975 0
M  V30 780 O 76.3911 -1.62338 0.807228 0
M  V30 781 C 76.4391 0.548323 3.56407 0
M  V30 782 O 75.5431 -0.429556 4.10157 0
M  V30 783 H 74.8841 0.176886 0.640006 0
M  V30 784 H 77.4141 1.12066 1.71179 0
M  V30 785 H 77.4241 0.426196 4.05768 0
M  V30 786 H 76.0991 1.5606 3.8551 0
M  V30 787 H 74.6761 -0.265836 3.71951 0
M  V30 788 N 76.8612 -1.46375 0.584142 0
M  V30 789 C 78.1072 -2.02678 0.0703716 0
M  V30 790 C 78.4402 -1.4545 -1.28678 0
M  V30 791 O 77.7152 -0.62014 -1.84349 0
M  V30 792 C 77.9982 -3.60099 0.00614674 0
M  V30 793 C 77.8512 -4.27709 1.3923 0
M  V30 794 C 79.1702 -4.34598 -0.693742 0
M  V30 795 H 76.2892 -0.736504 0.027047 0
M  V30 796 H 78.9312 -1.74501 0.751615 0
M  V30 797 H 77.0812 -3.84236 -0.574009 0
M  V30 798 H 78.7532 -4.14832 2.01773 0
M  V30 799 H 76.9962 -3.87016 1.95962 0
M  V30 800 H 77.6672 -5.36478 1.29982 0
M  V30 801 H 80.1432 -4.15615 -0.200869 0
M  V30 802 H 79.0192 -5.44318 -0.707714 0
M  V30 803 H 79.2802 -4.05759 -1.75533 0
M  V30 804 N 78.3393 -0.321999 -1.54275 0
M  V30 805 C 79.2873 0.560206 -2.25753 0
M  V30 806 C 80.2813 1.11984 -1.27106 0
M  V30 807 O 81.4873 1.06806 -1.44888 0
M  V30 808 H 77.8623 0.199304 -0.725108 0
M  V30 809 H 79.8333 -0.0649365 -2.98329 0
M  V30 810 C 78.5823 1.71023 -3.02731 0
M  V30 811 H 77.9053 1.28885 -3.78456 0
M  V30 812 H 79.3453 2.30314 -3.55993 0
M  V30 813 C 77.8043 2.62692 -2.10938 0
M  V30 814 O 78.3343 3.64364 -1.6912 0
M  V30 815 N 76.5403 2.30891 -1.76459 0
M  V30 816 H 76.0873 1.48253 -2.10663 0
M  V30 817 H 76.0453 2.92487 -1.1532 0
M  V30 818 N 79.8174 1.5752 -0.0501392 0
M  V30 819 C 80.7674 2.07981 0.934231 0
M  V30 820 C 81.7514 0.984745 1.27246 0
M  V30 821 O 82.9434 1.24809 1.25506 0
M  V30 822 C 80.0724 2.62751 2.20945 0
M  V30 823 C 79.1584 3.79225 1.89865 0
M  V30 824 N 79.5494 4.89036 1.29142 0
M  V30 825 C 77.8474 3.88111 2.19741 0
M  V30 826 C 78.5484 5.70084 1.15669 0
M  V30 827 N 77.5244 5.17659 1.65923 0
M  V30 828 H 81.3264 2.90277 0.460053 0
M  V30 829 H 78.8404 1.61665 0.15434 0
M  V30 830 H 80.8374 2.97205 2.9236 0
M  V30 831 H 79.4974 1.81894 2.6897 0
M  V30 832 H 80.5084 5.08854 0.963756 0
M  V30 833 H 77.1854 3.18194 2.70293 0
M  V30 834 H 78.5754 6.68395 0.685356 0
M  V30 835 N 81.2955 -0.223234 1.56011 0
M  V30 836 C 82.2455 -1.28008 1.88674 0
M  V30 837 C 83.2295 -1.42369 0.749663 0
M  V30 838 O 84.4215 -1.45212 1.01205 0
M  V30 839 C 81.5505 -2.63084 2.20548 0
M  V30 840 C 80.6365 -2.52632 3.40643 0
M  V30 841 N 81.0275 -2.11829 4.59306 0
M  V30 842 C 79.3255 -2.83594 3.44224 0
M  V30 843 C 80.0265 -2.12587 5.41463 0
M  V30 844 N 79.0025 -2.5301 4.81131 0
M  V30 845 H 82.8045 -0.955487 2.77935 0
M  V30 846 H 80.3185 -0.431801 1.56554 0
M  V30 847 H 82.3155 -3.39385 2.42122 0
M  V30 848 H 80.9755 -2.96391 1.32599 0
M  V30 849 H 81.9865 -1.82988 4.84496 0
M  V30 850 H 78.6635 -3.21284 2.66614 0
M  V30 851 H 80.0535 -1.83179 6.46448 0
M  V30 852 N 82.7736 -1.49793 -0.48987 0
M  V30 853 C 83.9986 -1.63836 -1.27172 0
M  V30 854 C 84.4236 -0.31402 -1.8546 0
M  V30 855 O 83.7816 0.719803 -1.66399 0
M  V30 856 C 83.8296 -2.71797 -2.36978 0
M  V30 857 O 82.9336 -2.31744 -3.41128 0
M  V30 858 H 82.2746 -0.547997 -0.37496 0
M  V30 859 H 84.8046 -1.96053 -0.585191 0
M  V30 860 H 84.8146 -2.94305 -2.82575 0
M  V30 861 H 83.4896 -3.67923 -1.93921 0
M  V30 862 H 82.0666 -2.1961 -3.01373 0
M  V30 863 N 84.2517 0.741722 -1.39055 0
M  V30 864 C 85.6627 1.31966 -1.32068 0
M  V30 865 C 86.0137 1.96192 0.0180797 0
M  V30 866 O 85.1387 1.95861 0.920196 0
M  V30 867 C 85.7337 2.39954 -2.39181 0
M  V30 868 C 84.2927 2.93438 -2.35735 0
M  V30 869 C 83.4397 1.66936 -2.21422 0
M  V30 870 H 86.3907 0.539721 -1.4924 0
M  V30 871 H 86.4117 3.20182 -2.05581 0
M  V30 872 H 85.9237 1.9318 -3.36605 0
M  V30 873 H 84.0247 3.4451 -1.41929 0
M  V30 874 H 84.1377 3.4701 -3.30335 0
M  V30 875 H 82.5017 1.91016 -1.68478 0
M  V30 876 H 83.2847 1.22224 -3.20806 0
M  V30 877 N 85.7298 1.2412 0.971189 0
M  V30 878 C 86.9778 1.07668 1.71032 0
M  V30 879 C 87.2988 -0.385797 1.91146 0
M  V30 880 O 86.5688 -1.27569 1.4867 0
M  V30 881 H 85.1488 0.395429 0.633755 0
M  V30 882 H 87.8108 1.55984 1.16855 0
M  V30 883 H 86.9068 1.57195 2.69622 0
M  V30 884 N 87.2079 -1.17134 1.05439 0
M  V30 885 C 88.4559 -1.87085 0.764429 0
M  V30 886 C 88.7769 -1.81584 -0.710787 0
M  V30 887 O 88.0469 -1.24349 -1.51374 0
M  V30 888 H 86.6269 -0.692627 0.279779 0
M  V30 889 H 89.2889 -1.42087 1.33406 0
M  V30 890 H 88.3849 -2.92759 1.0816 0
M  V30 891 N 88.686 -0.835752 -1.33615 0
M  V30 892 C 89.911 -0.442389 -2.02627 0
M  V30 893 C 90.336 0.947735 -1.62479 0
M  V30 894 O 89.694 1.61907 -0.815826 0
M  V30 895 C 89.742 -0.567216 -3.56111 0
M  V30 896 O 88.846 0.407799 -4.10379 0
M  V30 897 H 88.187 -0.180278 -0.639059 0
M  V30 898 H 90.717 -1.12972 -1.70583 0
M  V30 899 H 90.727 -0.447708 -4.05536 0
M  V30 900 H 89.402 -1.58103 -3.84677 0
M  V30 901 H 87.979 0.246107 -3.72087 0
M  V30 902 N 90.1641 1.46063 -0.591896 0
M  V30 903 C 91.3891 2.07226 -0.0850314 0
M  V30 904 C 91.8141 1.43625 1.21463 0
M  V30 905 O 91.1721 0.523305 1.73583 0
M  V30 906 C 91.2201 3.60554 0.0576567 0
M  V30 907 O 90.3241 3.97128 1.11188 0
M  V30 908 H 89.6651 0.660615 -0.0669568 0
M  V30 909 H 92.1951 1.8756 -0.81745 0
M  V30 910 H 92.2051 4.07165 0.2609 0
M  V30 911 H 90.8801 4.06235 -0.891416 0
M  V30 912 H 89.4571 3.62213 0.886356 0
M  V30 913 N 91.6422 0.330177 1.54103 0
M  V30 914 C 92.9192 -0.325007 1.92881 0
M  V30 915 C 93.2992 -1.6934 1.26045 0
M  V30 916 O 92.6472 -2.24855 0.406526 0
M  V30 917 C 92.8572 -0.410634 3.46576 0
M  V30 918 C 94.2052 -0.667801 4.19316 0
M  V30 919 O 95.2292 -0.49329 3.52768 0
M  V30 920 O 94.0882 -1.00491 5.37181 0
M  V30 921 H 91.1822 -0.186873 0.80561 0
M  V30 922 H 93.7282 0.380376 1.65382 0
M  V30 923 H 92.5002 0.550164 3.87413 0
M  V30 924 H 92.1232 -1.16333 3.802 0
M  V30 925 N 93.1203 -1.57491 0.0584922 0
M  V30 926 C 94.0833 -2.1085 -0.898617 0
M  V30 927 C 95.0833 -1.02964 -1.23511 0
M  V30 928 O 96.2733 -1.29007 -1.17059 0
M  V30 929 C 93.4053 -2.59881 -2.20623 0
M  V30 930 H 94.5983 -2.96715 -0.435936 0
M  V30 931 H 92.1513 -1.55141 -0.190023 0
M  V30 932 H 92.8863 -1.77431 -2.71457 0
M  V30 933 H 92.6713 -3.38727 -1.97501 0
M  V30 934 H 94.1613 -3.01285 -2.89166 0
M  V30 935 N 94.5984 0.214957 -1.56127 0
M  V30 936 C 95.8234 0.95924 -1.83884 0
M  V30 937 C 96.2484 1.7689 -0.639644 0
M  V30 938 O 95.6064 1.76566 0.411601 0
M  V30 939 C 95.6544 1.84723 -3.09693 0
M  V30 940 O 94.7584 2.94346 -2.8885 0
M  V30 941 H 94.0994 0.27125 -0.606069 0
M  V30 942 H 96.6294 0.226276 -2.03345 0
M  V30 943 H 96.6394 2.25576 -3.39969 0
M  V30 944 H 95.3144 1.25218 -3.96602 0
M  V30 945 H 93.8914 2.57391 -2.69823 0
M  V30 946 N 96.0765 1.50051 0.48192 0
M  V30 947 C 97.3245 1.60181 1.23234 0
M  V30 948 C 97.6455 0.299176 1.92691 0
M  V30 949 O 96.9155 -0.682708 1.83619 0
M  V30 950 H 95.4955 0.590232 0.457859 0
M  V30 951 H 98.1575 1.86775 0.556881 0
M  V30 952 H 97.2535 2.40753 1.98607 0
M  V30 953 N 97.5546 -0.734337 1.39446 0
M  V30 954 C 98.7796 -1.52866 1.40167 0
M  V30 955 C 99.2046 -1.881 -0.00171513 0
M  V30 956 O 98.5626 -1.51957 -0.988879 0
M  V30 957 C 98.6106 -2.79235 2.28167 0
M  V30 958 O 97.7146 -3.75185 1.71201 0
M  V30 959 H 97.0556 -0.461618 0.477289 0
M  V30 960 H 99.5856 -0.905949 1.8345 0
M  V30 961 H 99.5956 -3.27963 2.42702 0
M  V30 962 H 98.2706 -2.52923 3.30156 0
M  V30 963 H 96.8476 -3.33958 1.65912 0
M  V30 964 N 99.0327 -1.24633 -0.964593 0
M  V30 965 C 100.263 -1.11339 -1.74032 0
M  V30 966 C 100.671 0.336593 -1.86182 0
M  V30 967 O 100.014 1.24389 -1.35178 0
M  V30 968 C 100.076 -1.68284 -3.1768 0
M  V30 969 C 99.7397 -3.17196 -3.28992 0
M  V30 970 C 100.737 -4.14308 -3.14078 0
M  V30 971 C 98.4217 -3.57215 -3.53133 0
M  V30 972 C 100.416 -5.4942 -3.23135 0
M  V30 973 C 98.1027 -4.92468 -3.61827 0
M  V30 974 C 99.1007 -5.8838 -3.46841 0
M  V30 975 O 98.7887 -7.21173 -3.55197 0
M  V30 976 H 98.5207 -0.389551 -0.552472 0
M  V30 977 H 101.075 -1.65282 -1.21946 0
M  V30 978 H 99.3047 -1.08777 -3.71085 0
M  V30 979 H 100.994 -1.50234 -3.77074 0
M  V30 980 H 101.76 -3.84731 -2.95308 0
M  V30 981 H 97.6387 -2.83063 -3.63863 0
M  V30 982 H 101.183 -6.24263 -3.11355 0
M  V30 983 H 97.0797 -5.21714 -3.80111 0
M  V30 984 H 97.8477 -7.29135 -3.71892 0
M  V30 985 N 100.511 1.16574 -1.06058 0
M  V30 986 C 101.736 1.91493 -0.796562 0
M  V30 987 C 102.161 1.76773 0.642868 0
M  V30 988 O 101.519 1.09142 1.44768 0
M  V30 989 C 101.567 3.40293 -1.19303 0
M  V30 990 O 100.671 4.11074 -0.330394 0
M  V30 991 H 100.012 0.596678 -0.291326 0
M  V30 992 H 102.542 1.47708 -1.41575 0
M  V30 993 H 102.552 3.91057 -1.16356 0
M  V30 994 H 101.227 3.50326 -2.24153 0
M  V30 995 H 99.8038 3.70513 -0.421225 0
M  V30 996 N 101.989 0.842826 1.3317 0
M  V30 997 C 103.214 0.453129 2.02389 0
M  V30 998 C 103.639 -0.939105 1.6298 0
M  V30 999 O 102.997 -1.61472 0.8244 0
M  V30 1000 C 103.045 0.586094 3.55805 0
M  V30 1001 O 102.149 -0.386029 4.10589 0
M  V30 1002 H 101.49 0.183664 0.638094 0
M  V30 1003 H 104.02 1.13875 1.69981 0
M  V30 1004 H 104.03 0.469209 4.05293 0
M  V30 1005 H 102.705 1.6014 3.83833 0
M  V30 1006 H 101.282 -0.226371 3.72212 0
M  V30 1007 N 103.467 -1.45747 0.599634 0
M  V30 1008 C 104.695 -2.06668 0.0978551 0
M  V30 1009 C 105.11 -1.44562 -1.21439 0
M  V30 1010 O 104.467 -0.556923 -1.73795 0
M  V30 1011 C 104.518 -3.61456 -0.0567044 0
M  V30 1012 O 104.239 -4.21242 1.20361 0
M  V30 1013 C 105.74 -4.39345 -0.590869 0
M  V30 1014 H 102.96 -0.667825 0.0651943 0
M  V30 1015 H 105.504 -1.87115 0.82511 0
M  V30 1016 H 103.659 -3.80378 -0.734251 0
M  V30 1017 H 104.073 -5.14323 1.02821 0
M  V30 1018 H 105.547 -5.48182 -0.648131 0
M  V30 1019 H 106.024 -4.08568 -1.61147 0
M  V30 1020 H 106.63 -4.25268 0.0523679 0
M  V30 1021 N 104.945 -0.338344 -1.53925 0
M  V30 1022 C 105.878 0.563758 -2.21127 0
M  V30 1023 C 106.856 1.10433 -1.19345 0
M  V30 1024 O 108.04 1.16557 -1.48144 0
M  V30 1025 C 105.167 1.77505 -2.88461 0
M  V30 1026 C 104.213 1.3644 -4.04087 0
M  V30 1027 S 105.046 0.388593 -5.34088 0
M  V30 1028 C 106.202 1.60683 -6.04923 0
M  V30 1029 H 106.435 -0.00704546 -2.97299 0
M  V30 1030 H 103.968 -0.122418 -1.53914 0
M  V30 1031 H 105.926 2.46999 -3.27875 0
M  V30 1032 H 104.587 2.31706 -2.12064 0
M  V30 1033 H 103.78 2.26739 -4.50117 0
M  V30 1034 H 103.382 0.748998 -3.66423 0
M  V30 1035 H 105.674 2.54209 -6.28 0
M  V30 1036 H 106.617 1.18842 -6.98056 0
M  V30 1037 H 107.025 1.80052 -5.35015 0
M  V30 1038 N 106.423 1.57458 -0.0668435 0
M  V30 1039 C 107.371 2.13639 0.919851 0
M  V30 1040 C 108.365 1.07204 1.31163 0
M  V30 1041 O 109.571 1.25591 1.28945 0
M  V30 1042 H 105.946 0.683048 0.314562 0
M  V30 1043 H 107.917 2.95415 0.421047 0
M  V30 1044 C 106.666 2.70892 2.17975 0
M  V30 1045 H 105.989 3.5246 1.88711 0
M  V30 1046 H 107.429 3.13803 2.85138 0
M  V30 1047 C 105.888 1.65414 2.93496 0
M  V30 1048 O 106.418 1.07619 3.87015 0
M  V30 1049 N 104.624 1.36564 2.56512 0
M  V30 1050 H 104.171 1.83751 1.80536 0
M  V30 1051 H 104.129 0.66223 3.07347 0
M  V30 1052 N 107.901 -0.206675 1.56239 0
M  V30 1053 C 109.149 -0.927007 1.79586 0
M  V30 1054 C 109.47 -1.8427 0.637929 0
M  V30 1055 O 108.74 -1.92849 -0.344398 0
M  V30 1056 H 107.32 -0.345292 0.662407 0
M  V30 1057 H 109.982 -0.21496 1.93711 0
M  V30 1058 H 109.078 -1.52501 2.72305 0
M  V30 1059 N 109.379 -1.50304 -0.473955 0
M  V30 1060 C 110.329 -1.65347 -1.56985 0
M  V30 1061 C 111.313 -0.508176 -1.52664 0
M  V30 1062 O 112.505 -0.762446 -1.59737 0
M  V30 1063 C 109.634 -1.74832 -2.95447 0
M  V30 1064 C 108.72 -2.95028 -3.04662 0
M  V30 1065 N 109.111 -4.18747 -2.83698 0
M  V30 1066 C 107.409 -2.93527 -3.35795 0
M  V30 1067 C 108.11 -4.99687 -2.97805 0
M  V30 1068 N 107.086 -4.33585 -3.2788 0
M  V30 1069 H 110.888 -2.58698 -1.39472 0
M  V30 1070 H 108.402 -1.47449 -0.680629 0
M  V30 1071 H 110.399 -1.83712 -3.7424 0
M  V30 1072 H 109.059 -0.826376 -3.14008 0
M  V30 1073 H 110.07 -4.48291 -2.59337 0
M  V30 1074 H 106.747 -2.10821 -3.60362 0
M  V30 1075 H 108.137 -6.08057 -2.85861 0
M  V30 1076 N 110.857 0.726932 -1.39834 0
M  V30 1077 C 111.789 1.85147 -1.35104 0
M  V30 1078 C 112.802 1.60736 -0.258392 0
M  V30 1079 O 113.991 1.70821 -0.517931 0
M  V30 1080 C 111.091 3.21332 -1.07697 0
M  V30 1081 C 110.264 3.73033 -2.28396 0
M  V30 1082 C 109.323 4.87802 -1.97322 0
M  V30 1083 O 108.349 5.01043 -2.70083 0
M  V30 1084 N 109.551 5.72768 -0.944273 0
M  V30 1085 H 112.316 1.89706 -2.32017 0
M  V30 1086 H 109.877 0.908006 -1.3404 0
M  V30 1087 H 111.869 3.95691 -0.849144 0
M  V30 1088 H 110.439 3.11992 -0.194909 0
M  V30 1089 H 109.659 2.89934 -2.6708 0
M  V30 1090 H 110.947 4.0431 -3.08887 0
M  V30 1091 H 110.345 5.64669 -0.341427 0
M  V30 1092 H 108.902 6.4716 -0.776346 0
M  V30 1093 N 112.336 1.25143 0.95797 0
M  V30 1094 C 113.284 1.05019 2.07542 0
M  V30 1095 C 114.278 -0.0178751 1.69391 0
M  V30 1096 O 115.484 0.137472 1.79474 0
M  V30 1097 H 111.859 0.32265 0.679265 0
M  V30 1098 H 113.83 1.99759 2.21673 0
M  V30 1099 C 112.579 0.682074 3.40944 0
M  V30 1100 H 111.902 1.49573 3.70767 0
M  V30 1101 H 113.342 0.580945 4.20001 0
M  V30 1102 C 111.801 -0.611608 3.31302 0
M  V30 1103 O 112.331 -1.65465 3.66038 0
M  V30 1104 N 110.537 -0.595982 2.84423 0
M  V30 1105 H 110.084 0.253192 2.56353 0
M  V30 1106 H 110.042 -1.46173 2.78354 0
M  V30 1107 N 113.814 -1.1601 1.06675 0
M  V30 1108 C 115.062 -1.86264 0.784229 0
M  V30 1109 C 115.383 -1.82328 -0.691488 0
M  V30 1110 O 114.653 -1.25947 -1.50047 0
M  V30 1111 H 113.233 -0.689621 0.28711 0
M  V30 1112 H 115.895 -1.40664 1.34906 0
M  V30 1113 H 114.991 -2.91595 1.11259 0
M  V30 1114 N 115.292 -0.849877 -1.32721 0
M  V30 1115 C 116.222 -0.306308 -2.31482 0
M  V30 1116 C 117.203 0.591952 -1.59468 0
M  V30 1117 O 118.388 0.513199 -1.87296 0
M  V30 1118 C 115.518 0.510204 -3.43532 0
M  V30 1119 C 114.472 -0.293209 -4.26994 0
M  V30 1120 C 113.798 0.647743 -5.30762 0
M  V30 1121 C 115.098 -1.51634 -4.99804 0
M  V30 1122 H 116.792 -1.13153 -2.77195 0
M  V30 1123 H 114.338 -0.545553 -1.33266 0
M  V30 1124 H 116.291 0.900856 -4.11658 0
M  V30 1125 H 115.015 1.36874 -2.96535 0
M  V30 1126 H 113.674 -0.665555 -3.60508 0
M  V30 1127 H 113.322 1.50299 -4.8002 0
M  V30 1128 H 113.022 0.11422 -5.87489 0
M  V30 1129 H 114.546 1.03567 -6.01753 0
M  V30 1130 H 115.96 -1.19824 -5.60638 0
M  V30 1131 H 114.357 -1.98745 -5.66234 0
M  V30 1132 H 115.427 -2.28018 -4.27943 0
M  V30 1133 N 116.77 1.45427 -0.607355 0
M  V30 1134 C 118.047 1.9557 -0.0344566 0
M  V30 1135 C 118.427 1.54979 1.43334 0
M  V30 1136 O 117.775 0.812241 2.13576 0
M  V30 1137 C 117.985 3.48226 -0.232321 0
M  V30 1138 C 119.333 4.2445 -0.113001 0
M  V30 1139 O 120.357 3.55829 -0.162431 0
M  V30 1140 O 119.216 5.465 0.00209442 0
M  V30 1141 H 116.31 0.826222 0.0358667 0
M  V30 1142 H 118.856 1.55594 -0.6774 0
M  V30 1143 H 117.628 3.70739 -1.25174 0
M  V30 1144 H 117.251 3.95092 0.445896 0
M  V30 1145 N 118.248 0.346503 1.53744 0
M  V30 1146 C 119.473 -0.253074 2.0585 0
M  V30 1147 C 119.898 -1.43202 1.21962 0
M  V30 1148 O 119.256 -1.79783 0.234073 0
M  V30 1149 C 119.304 -0.643193 3.54817 0
M  V30 1150 O 118.408 -1.74286 3.73762 0
M  V30 1151 H 117.749 -0.0413583 0.662711 0
M  V30 1152 H 120.279 0.501574 1.98357 0
M  V30 1153 H 120.289 -0.919526 3.97503 0
M  V30 1154 H 118.964 0.218966 4.15323 0
M  V30 1155 H 117.541 -1.46356 3.42979 0
M  V30 1156 N 119.726 -1.57421 0.075193 0
M  V30 1157 C 121.137 -1.81021 -0.456964 0
M  V30 1158 C 121.488 -0.98936 -1.69429 0
M  V30 1159 O 120.613 -0.212865 -2.15351 0
M  V30 1160 C 121.208 -3.28329 -0.83581 0
M  V30 1161 C 119.767 -3.52764 -1.31281 0
M  V30 1162 C 118.914 -2.75676 -0.299648 0
M  V30 1163 H 121.865 -1.55822 0.300856 0
M  V30 1164 H 121.886 -3.40564 -1.69696 0
M  V30 1165 H 121.398 -3.88046 0.0649238 0
M  V30 1166 H 119.499 -2.98355 -2.23193 0
M  V30 1167 H 119.612 -4.61451 -1.28839 0
M  V30 1168 H 117.976 -2.42538 -0.777641 0
M  V30 1169 H 118.759 -3.38132 0.593417 0
M  V30 1170 N 121.204 0.198386 -1.56346 0
M  V30 1171 C 122.615 0.763358 -1.70381 0
M  V30 1172 C 122.966 1.83995 -0.681203 0
M  V30 1173 O 122.091 2.15785 0.16305 0
M  V30 1174 C 122.686 1.39143 -3.08909 0
M  V30 1175 C 121.245 1.90352 -3.2472 0
M  V30 1176 C 120.392 0.772233 -2.6633 0
M  V30 1177 H 123.343 -0.0266377 -1.58678 0
M  V30 1178 H 123.364 2.26076 -3.06055 0
M  V30 1179 H 122.876 0.607638 -3.83314 0
M  V30 1180 H 120.977 2.71461 -2.55225 0
M  V30 1181 H 121.09 2.06757 -4.3219 0
M  V30 1182 H 119.454 1.18566 -2.2542 0
M  V30 1183 H 120.237 0.00073556 -3.433 0
M  V30 1184 N 122.682 1.50554 0.465978 0
M  V30 1185 C 123.612 1.72722 1.57128 0
M  V30 1186 C 124.593 0.576294 1.6004 0
M  V30 1187 O 125.778 0.81598 1.76225 0
M  V30 1188 C 122.908 1.82605 2.95419 0
M  V30 1189 C 121.862 2.97835 3.07373 0
M  V30 1190 C 121.188 2.92867 4.47363 0
M  V30 1191 C 122.488 4.38265 2.84114 0
M  V30 1192 H 124.182 2.65267 1.38829 0
M  V30 1193 H 121.728 1.2765 0.666441 0
M  V30 1194 H 123.681 1.96698 3.72677 0
M  V30 1195 H 122.405 0.866858 3.14886 0
M  V30 1196 H 121.064 2.83401 2.3255 0
M  V30 1197 H 120.712 1.94783 4.63755 0
M  V30 1198 H 120.412 3.70227 4.56296 0
M  V30 1199 H 121.936 3.09015 5.26633 0
M  V30 1200 H 123.35 4.53198 3.51118 0
M  V30 1201 H 121.747 5.17115 3.04487 0
M  V30 1202 H 122.817 4.50281 1.7993 0
M  V30 1203 N 124.16 -0.719506 1.40217 0
M  V30 1204 C 125.39 -1.50646 1.41384 0
M  V30 1205 C 125.798 -1.89197 0.0107743 0
M  V30 1206 O 125.141 -1.55709 -0.974708 0
M  V30 1207 C 125.203 -2.81405 2.23722 0
M  V30 1208 C 124.867 -2.65199 3.72181 0
M  V30 1209 C 125.864 -2.32717 4.64907 0
M  V30 1210 C 123.549 -2.81586 4.1595 0
M  V30 1211 C 125.543 -2.16827 5.99387 0
M  V30 1212 C 123.23 -2.65313 5.50502 0
M  V30 1213 C 124.228 -2.32981 6.42035 0
M  V30 1214 O 123.916 -2.16827 7.74107 0
M  V30 1215 H 123.648 -0.471606 0.484318 0
M  V30 1216 H 126.202 -0.895456 1.84853 0
M  V30 1217 H 124.432 -3.44823 1.75026 0
M  V30 1218 H 126.121 -3.43102 2.16878 0
M  V30 1219 H 126.887 -2.19694 4.32388 0
M  V30 1220 H 122.766 -3.0574 3.45027 0
M  V30 1221 H 126.31 -1.91513 6.70797 0
M  V30 1222 H 122.207 -2.7792 5.82607 0
M  V30 1223 H 122.975 -2.31778 7.84998 0
M  V30 1224 N 125.638 -1.25649 -0.95132 0
M  V30 1225 C 127.049 -1.09654 -1.51106 0
M  V30 1226 C 127.4 0.326615 -1.93462 0
M  V30 1227 O 126.525 1.21697 -1.78938 0
M  V30 1228 C 127.12 -1.98437 -2.74605 0
M  V30 1229 C 125.679 -1.86618 -3.2688 0
M  V30 1230 C 124.826 -1.9239 -1.99703 0
M  V30 1231 H 127.777 -1.38887 -0.767865 0
M  V30 1232 H 127.798 -1.5263 -3.48546 0
M  V30 1233 H 127.31 -3.02009 -2.43746 0
M  V30 1234 H 125.411 -0.859421 -3.62553 0
M  V30 1235 H 125.524 -2.71607 -3.94673 0
M  V30 1236 H 123.888 -1.36317 -2.15151 0
M  V30 1237 H 124.671 -2.97573 -1.71188 0
M  V30 1238 N 127.117 1.15442 -1.07289 0
M  V30 1239 C 128.342 1.90638 -0.816828 0
M  V30 1240 C 128.767 1.77445 0.624083 0
M  V30 1241 O 128.125 1.10671 1.43602 0
M  V30 1242 C 128.173 3.39008 -1.22906 0
M  V30 1243 O 127.277 4.10701 -0.373975 0
M  V30 1244 H 126.618 0.593555 -0.297638 0
M  V30 1245 H 129.148 1.46198 -1.43134 0
M  V30 1246 H 129.158 3.89801 -1.20497 0
M  V30 1247 H 127.833 3.47929 -2.27856 0
M  V30 1248 H 126.41 3.70046 -0.460499 0
M  V30 1249 N 128.595 0.856903 1.32268 0
M  V30 1250 C 129.558 0.308171 2.27119 0
M  V30 1251 C 130.558 -0.533421 1.51695 0
M  V30 1252 O 131.748 -0.344607 1.70757 0
M  V30 1253 C 128.88 -0.563757 3.36206 0
M  V30 1254 H 130.073 1.14535 2.77167 0
M  V30 1255 H 127.626 0.631421 1.42978 0
M  V30 1256 H 128.361 -1.42266 2.91429 0
M  V30 1257 H 128.146 0.0386749 3.92081 0
M  V30 1258 H 129.636 -0.940386 4.06874 0
M  V30 1259 N 130.073 -1.45103 0.615059 0
M  V30 1260 C 131.484 -1.85654 0.197383 0
M  V30 1261 C 131.835 -1.51433 -1.24749 0
M  V30 1262 O 130.96 -0.944608 -1.94695 0
M  V30 1263 C 131.555 -3.36972 0.351448 0
M  V30 1264 C 130.114 -3.76398 -0.011593 0
M  V30 1265 C 129.261 -2.69024 0.672394 0
M  V30 1266 H 132.212 -1.35797 0.821263 0
M  V30 1267 H 132.233 -3.78239 -0.414227 0
M  V30 1268 H 131.745 -3.61847 1.40314 0
M  V30 1269 H 129.846 -3.5714 -1.06217 0
M  V30 1270 H 129.959 -4.77532 0.387265 0
M  V30 1271 H 128.323 -2.54465 0.109284 0
M  V30 1272 H 129.106 -2.96735 1.72636 0
M  V30 1273 N 131.551 -0.354651 -1.53558 0
M  V30 1274 C 132.8 0.239504 -2.00273 0
M  V30 1275 C 133.113 1.50759 -1.24623 0
M  V30 1276 O 134.319 2.17968 -1.61871 0
M  V30 1277 C 132.775 0.477341 -3.5672 0
M  V30 1278 C 132.383 -0.775488 -4.41237 0
M  V30 1279 C 134.127 1.02975 -4.11821 0
M  V30 1280 C 132.034 -0.507838 -5.89216 0
M  V30 1281 H 130.964 0.0932743 -0.748208 0
M  V30 1282 H 133.615 -0.471701 -1.77334 0
M  V30 1283 H 131.997 1.24953 -3.7577 0
M  V30 1284 H 133.171 -1.54963 -4.33962 0
M  V30 1285 H 131.486 -1.25033 -3.97185 0
M  V30 1286 H 134.083 1.24513 -5.2 0
M  V30 1287 H 134.426 1.98862 -3.65731 0
M  V30 1288 H 134.959 0.317994 -3.96527 0
M  V30 1289 H 131.698 -1.43674 -6.39561 0
M  V30 1290 H 131.218 0.228011 -5.99366 0
M  V30 1291 H 132.897 -0.129238 -6.46871 0
M  V30 1292 N 133.029 1.57378 -0.0835403 0
M  V30 1293 C 133.959 2.1641 0.87686 0
M  V30 1294 C 134.94 1.09429 1.30228 0
M  V30 1295 O 136.125 1.37516 1.37124 0
M  V30 1296 C 133.255 2.73517 2.14022 0
M  V30 1297 C 132.209 3.85769 1.85381 0
M  V30 1298 C 131.535 4.29529 3.18448 0
M  V30 1299 C 132.835 5.09486 1.14984 0
M  V30 1300 H 134.529 2.96914 0.385059 0
M  V30 1301 H 132.075 1.42823 0.18377 0
M  V30 1302 H 134.028 3.13463 2.81636 0
M  V30 1303 H 132.752 1.90252 2.65465 0
M  V30 1304 H 131.411 3.46345 1.20169 0
M  V30 1305 H 131.059 3.43169 3.67755 0
M  V30 1306 H 130.759 5.05204 3.00071 0
M  V30 1307 H 132.283 4.72099 3.8724 0
M  V30 1308 H 133.697 5.46674 1.72687 0
M  V30 1309 H 132.094 5.90515 1.06826 0
M  V30 1310 H 133.164 4.84724 0.130749 0
M  V30 1311 N 134.507 -0.190092 1.56449 0
M  V30 1312 C 135.755 -0.907908 1.80559 0
M  V30 1313 C 136.076 -1.83583 0.657438 0
M  V30 1314 O 135.346 -1.93203 -0.323924 0
M  V30 1315 H 133.926 -0.338247 0.666032 0
M  V30 1316 H 136.588 -0.194403 1.93928 0
M  V30 1317 H 135.684 -1.49604 2.73907 0
M  V30 1318 N 135.985 -1.50799 -0.457987 0
M  V30 1319 C 137.233 -1.62121 -1.2067 0
M  V30 1320 C 137.554 -0.329793 -1.92191 0
M  V30 1321 O 136.824 0.653409 -1.84682 0
M  V30 1322 H 135.404 -0.597441 -0.448411 0
M  V30 1323 H 138.066 -1.87637 -0.527096 0
M  V30 1324 H 137.162 -2.43882 -1.94751 0
M  V30 1325 N 137.463 0.71206 -1.40597 0
M  V30 1326 C 138.688 1.50617 -1.42581 0
M  V30 1327 C 139.113 1.88079 -0.0282102 0
M  V30 1328 O 138.471 1.53511 0.964579 0
M  V30 1329 C 138.519 2.7557 -2.3258 0
M  V30 1330 O 137.623 3.72414 -1.77148 0
M  V30 1331 H 136.964 0.453966 -0.484573 0
M  V30 1332 H 139.494 0.876649 -1.84868 0
M  V30 1333 H 139.504 3.2406 -2.47889 0
M  V30 1334 H 138.179 2.47639 -3.34138 0
M  V30 1335 H 136.756 3.31276 -1.71204 0
M  V30 1336 N 138.941 1.26152 0.944643 0
M  V30 1337 C 140.189 1.11271 1.6871 0
M  V30 1338 C 140.51 -0.345166 1.91921 0
M  V30 1339 O 139.78 -1.24387 1.51343 0
M  V30 1340 H 138.36 0.408783 0.625224 0
M  V30 1341 H 141.022 1.58427 1.1352 0
M  V30 1342 H 140.118 1.62879 2.66227 0
M  V30 1343 N 140.419 -1.14872 1.07899 0
M  V30 1344 C 141.83 -1.67367 0.827363 0
M  V30 1345 C 142.181 -1.85236 -0.646693 0
M  V30 1346 O 141.306 -1.55974 -1.50004 0
M  V30 1347 C 141.901 -3.04016 1.49532 0
M  V30 1348 C 140.46 -3.53566 1.29106 0
M  V30 1349 C 139.607 -2.29161 1.56143 0
M  V30 1350 H 142.558 -0.990083 1.24028 0
M  V30 1351 H 142.579 -3.69219 0.919643 0
M  V30 1352 H 142.091 -2.90978 2.56814 0
M  V30 1353 H 140.192 -3.71835 0.238713 0
M  V30 1354 H 140.305 -4.34661 2.01511 0
M  V30 1355 H 138.669 -2.34978 0.982717 0
M  V30 1356 H 139.452 -2.18705 2.64619 0
M  V30 1357 N 141.898 -0.863906 -1.31812 0
M  V30 1358 C 143.144 -0.472535 -1.97218 0
M  V30 1359 C 143.477 0.971394 -1.68159 0
M  V30 1360 O 142.752 1.68309 -0.974798 0
M  V30 1361 C 143.035 -0.723054 -3.52766 0
M  V30 1362 C 142.888 -2.21608 -3.91421 0
M  V30 1363 C 144.207 -0.185522 -4.39709 0
M  V30 1364 H 141.326 -0.173158 -0.71637 0
M  V30 1365 H 143.968 -1.08403 -1.56041 0
M  V30 1366 H 142.118 -0.202577 -3.87971 0
M  V30 1367 H 143.79 -2.80334 -3.66347 0
M  V30 1368 H 142.033 -2.691 -3.40246 0
M  V30 1369 H 142.704 -2.34203 -4.99853 0
M  V30 1370 H 145.18 -0.630726 -4.11292 0
M  V30 1371 H 144.056 -0.390306 -5.47511 0
M  V30 1372 H 144.317 0.912229 -4.32586 0
M  V30 1373 N 143.376 1.44774 -0.622745 0
M  V30 1374 C 144.792 1.56986 -0.287652 0
M  V30 1375 C 144.992 1.61167 1.20944 0
M  V30 1376 O 144.048 1.55015 1.99315 0
M  V30 1377 C 145.361 2.84551 -0.972188 0
M  V30 1378 C 146.909 2.9825 -0.949536 0
M  V30 1379 C 147.384 4.28605 -1.61437 0
M  V30 1380 N 148.875 4.35399 -1.58057 0
M  V30 1381 C 149.61 5.34964 -2.064 0
M  V30 1382 N 149.106 6.40981 -2.62897 0
M  V30 1383 N 150.899 5.26419 -1.97078 0
M  V30 1384 H 143.05 1.40304 -1.59463 0
M  V30 1385 H 145.313 0.671794 -0.668878 0
M  V30 1386 H 145.019 2.87417 -2.02693 0
M  V30 1387 H 144.893 3.73807 -0.504771 0
M  V30 1388 H 147.28 2.94941 0.0967067 0
M  V30 1389 H 147.361 2.10364 -1.45536 0
M  V30 1390 H 147.005 4.32672 -2.66002 0
M  V30 1391 H 146.935 5.15334 -1.08344 0
M  V30 1392 H 149.426 3.59397 -1.16801 0
M  V30 1393 H 149.739 7.13225 -2.97539 0
M  V30 1394 H 148.084 6.4169 -2.66943 0
M  V30 1395 H 151.275 4.42504 -1.52669 0
M  V30 1396 H 151.448 6.03861 -2.35066 0
M  V30 1397 N 144.854 0.36279 1.53368 0
M  V30 1398 C 145.801 -0.485008 2.25646 0
M  V30 1399 C 146.771 -1.07982 1.2621 0
M  V30 1400 O 147.956 -1.11284 1.54986 0
M  V30 1401 C 145.096 -1.62023 3.04701 0
M  V30 1402 C 144.209 -1.05086 4.19024 0
M  V30 1403 C 143.344 -2.15496 4.85525 0
M  V30 1404 C 142.383 -1.5601 5.91884 0
M  V30 1405 N 141.52 -2.60241 6.52088 0
M  V30 1406 H 146.36 0.137864 2.97681 0
M  V30 1407 H 143.897 0.0798061 1.46883 0
M  V30 1408 H 145.855 -2.28887 3.48807 0
M  V30 1409 H 144.485 -2.2138 2.34927 0
M  V30 1410 H 143.537 -0.27259 3.79422 0
M  V30 1411 H 144.849 -0.575926 4.95464 0
M  V30 1412 H 144.003 -2.90186 5.32801 0
M  V30 1413 H 142.742 -2.66341 4.08551 0
M  V30 1414 H 141.747 -0.798338 5.43973 0
M  V30 1415 H 142.972 -1.05994 6.70777 0
M  V30 1416 H 140.918 -3.10304 5.77968 0
M  V30 1417 H 140.835 -2.17426 7.24059 0
M  V30 1418 H 142.103 -3.34641 7.04014 0
M  V30 1419 N 146.332 -1.57332 0.0918853 0
M  V30 1420 C 147.262 -2.16872 -0.865371 0
M  V30 1421 C 148.243 -1.10118 -1.29646 0
M  V30 1422 O 149.428 -1.38242 -1.36392 0
M  V30 1423 C 146.558 -2.74649 -2.12569 0
M  V30 1424 C 145.512 -3.86747 -1.83333 0
M  V30 1425 C 144.838 -4.31212 -3.16166 0
M  V30 1426 C 146.138 -5.10089 -1.1228 0
M  V30 1427 H 147.832 -2.97114 -0.369307 0
M  V30 1428 H 145.378 -1.42918 -0.176194 0
M  V30 1429 H 147.331 -3.14952 -2.7997 0
M  V30 1430 H 146.055 -1.91657 -2.64452 0
M  V30 1431 H 144.714 -3.46978 -1.18331 0
M  V30 1432 H 144.362 -3.45115 -3.6593 0
M  V30 1433 H 144.062 -5.06788 -2.97388 0
M  V30 1434 H 145.586 -4.74146 -3.84731 0
M  V30 1435 H 147 -5.47582 -1.69785 0
M  V30 1436 H 145.397 -5.91073 -1.03693 0
M  V30 1437 H 146.467 -4.84786 -0.105041 0
M  V30 1438 N 147.81 0.181792 -1.56548 0
M  V30 1439 C 149.04 0.914618 -1.85252 0
M  V30 1440 C 149.448 1.76791 -0.673914 0
M  V30 1441 O 148.791 1.80009 0.366416 0
M  V30 1442 C 148.853 1.85019 -3.08234 0
M  V30 1443 C 148.517 1.17754 -4.41569 0
M  V30 1444 C 149.514 0.548035 -5.17003 0
M  V30 1445 C 147.199 1.17742 -4.88305 0
M  V30 1446 C 149.193 -0.0726128 -6.37359 0
M  V30 1447 C 146.88 0.552946 -6.08593 0
M  V30 1448 C 147.878 -0.070978 -6.82963 0
M  V30 1449 O 147.566 -0.685635 -8.00971 0
M  V30 1450 H 147.298 0.271695 -0.618998 0
M  V30 1451 H 149.852 0.189944 -2.0452 0
M  V30 1452 H 148.082 2.61491 -2.84885 0
M  V30 1453 H 149.771 2.45195 -3.23472 0
M  V30 1454 H 150.537 0.540174 -4.81982 0
M  V30 1455 H 146.416 1.65246 -4.30366 0
M  V30 1456 H 149.96 -0.560213 -6.95347 0
M  V30 1457 H 145.857 0.558354 -6.43081 0
M  V30 1458 H 146.625 -0.58385 -8.16415 0
M  V30 1459 N 149.288 1.51039 0.449983 0
M  V30 1460 C 150.565 1.53612 1.21089 0
M  V30 1461 C 150.945 0.292997 2.09057 0
M  V30 1462 O 150.293 -0.72259 2.16774 0
M  V30 1463 C 150.503 2.84337 2.0237 0
M  V30 1464 C 151.851 3.35807 2.59843 0
M  V30 1465 O 152.875 2.85802 2.12593 0
M  V30 1466 O 151.734 4.23029 3.45989 0
M  V30 1467 H 148.828 0.617057 0.550608 0
M  V30 1468 H 151.374 1.63344 0.460082 0
M  V30 1469 H 150.146 3.66278 1.37681 0
M  V30 1470 H 149.769 2.77708 2.84542 0
M  V30 1471 N 150.766 -0.704594 1.40972 0
M  V30 1472 C 152.043 -1.45847 1.30338 0
M  V30 1473 C 152.423 -2.10973 -0.0732344 0
M  V30 1474 O 151.771 -2.00997 -1.08685 0
M  V30 1475 C 151.981 -2.48525 2.45023 0
M  V30 1476 C 153.329 -3.1404 2.8577 0
M  V30 1477 O 154.353 -2.58848 2.44696 0
M  V30 1478 O 153.212 -4.13981 3.56766 0
M  V30 1479 H 150.306 -0.649092 0.512454 0
M  V30 1480 H 152.852 -0.735836 1.52917 0
M  V30 1481 H 151.624 -1.98994 3.36923 0
M  V30 1482 H 151.247 -3.2831 2.24272 0
M  V30 1483 N 152.244 -1.26651 -0.937939 0
M  V30 1484 C 153.484 -1.13611 -1.69917 0
M  V30 1485 C 153.848 0.314687 -1.89404 0
M  V30 1486 O 155.049 0.567285 -2.62746 0
M  V30 1487 C 153.32 -1.88742 -3.03498 0
M  V30 1488 S 154.879 -1.91794 -3.94665 0
M  V30 1489 H 151.697 -0.405767 -0.583844 0
M  V30 1490 H 154.299 -1.60416 -1.11745 0
M  V30 1491 H 153.003 -2.9336 -2.86999 0
M  V30 1492 H 152.534 -1.42391 -3.66727 0
M  V30 1493 H 154.549 -1.00698 -4.85875 0
M  V30 1494 N 153.722 1.14298 -1.08507 0
M  V30 1495 C 154.947 1.8976 -0.837001 0
M  V30 1496 C 155.372 1.78097 0.605228 0
M  V30 1497 O 154.73 1.12188 1.4242 0
M  V30 1498 C 154.778 3.37685 -1.26495 0
M  V30 1499 O 153.882 4.10281 -0.417514 0
M  V30 1500 H 153.223 0.590365 -0.303917 0
M  V30 1501 H 155.753 1.44672 -1.44676 0
M  V30 1502 H 155.763 3.88501 -1.24625 0
M  V30 1503 H 154.438 3.45492 -2.31534 0
M  V30 1504 H 153.015 3.69536 -0.499722 0
M  V30 1505 N 155.201 0.870884 1.31352 0
M  V30 1506 C 156.426 0.495957 2.01383 0
M  V30 1507 C 156.851 -0.904324 1.64935 0
M  V30 1508 O 156.209 -1.59687 0.858466 0
M  V30 1509 C 156.257 0.661433 3.54482 0
M  V30 1510 O 155.361 -0.298851 4.11316 0
M  V30 1511 H 154.702 0.197158 0.634054 0
M  V30 1512 H 157.232 1.17455 1.67527 0
M  V30 1513 H 157.242 0.555072 4.04207 0
M  V30 1514 H 155.917 1.68246 3.8035 0
M  V30 1515 H 154.494 -0.147368 3.72609 0
M  V30 1516 N 156.679 -1.44442 0.630414 0
M  V30 1517 C 157.907 -2.06414 0.141671 0
M  V30 1518 C 158.322 -1.47105 -1.18345 0
M  V30 1519 O 157.679 -0.593662 -1.72574 0
M  V30 1520 C 157.73 -3.61494 0.0199784 0
M  V30 1521 O 157.451 -4.18594 1.29269 0
M  V30 1522 C 158.952 -4.40499 -0.497544 0
M  V30 1523 H 156.172 -0.666292 0.0793452 0
M  V30 1524 H 158.716 -1.85323 0.864614 0
M  V30 1525 H 156.871 -3.8185 -0.653402 0
M  V30 1526 H 157.285 -5.12026 1.13707 0
M  V30 1527 H 158.759 -5.49433 -0.531708 0
M  V30 1528 H 159.236 -4.11895 -1.52445 0
M  V30 1529 H 159.842 -4.25061 0.142562 0
M  V30 1530 N 158.157 -0.370918 -1.53173 0
M  V30 1531 C 159.406 0.218249 -2.00516 0
M  V30 1532 C 159.719 1.49429 -1.26215 0
M  V30 1533 O 160.925 2.16239 -1.64174 0
M  V30 1534 C 159.381 0.43948 -3.57207 0
M  V30 1535 C 158.989 -0.822244 -4.4039 0
M  V30 1536 C 160.733 0.986012 -4.1289 0
M  V30 1537 C 158.64 -0.570304 -5.88644 0
M  V30 1538 H 157.57 0.0853333 -0.749156 0
M  V30 1539 H 160.221 -0.490483 -1.76823 0
M  V30 1540 H 158.603 1.20961 -3.77074 0
M  V30 1541 H 159.777 -1.59557 -4.32294 0
M  V30 1542 H 158.092 -1.29238 -3.95836 0
M  V30 1543 H 160.689 1.18991 -5.21292 0
M  V30 1544 H 161.032 1.94972 -3.6782 0
M  V30 1545 H 161.565 0.27592 -3.96842 0
M  V30 1546 H 158.304 -1.50449 -6.38001 0
M  V30 1547 H 157.824 0.164427 -5.99575 0
M  V30 1548 H 159.503 -0.19784 -6.46697 0
M  V30 1549 N 159.635 1.57281 -0.100228 0
M  V30 1550 C 160.881 1.94826 0.563101 0
M  V30 1551 C 161.214 0.982475 1.67514 0
M  V30 1552 O 160.489 0.0164069 1.94493 0
M  V30 1553 C 160.772 3.42453 1.11346 0
M  V30 1554 C 160.625 4.498 0.00612081 0
M  V30 1555 C 161.944 3.91506 2.01024 0
M  V30 1556 H 159.063 0.708428 0.203221 0
M  V30 1557 H 161.705 1.8922 -0.171979 0
M  V30 1558 H 159.855 3.47361 1.7399 0
M  V30 1559 H 161.527 4.57 -0.628357 0
M  V30 1560 H 159.77 4.28756 -0.659581 0
M  V30 1561 H 160.441 5.50306 0.432109 0
M  V30 1562 H 162.917 3.88784 1.48278 0
M  V30 1563 H 161.793 4.95358 2.36457 0
M  V30 1564 H 162.054 3.31099 2.92961 0
M  V30 1565 N 161.113 -0.173488 1.56642 0
M  V30 1566 C 162.023 -1.23482 1.99473 0
M  V30 1567 C 163.039 -1.48567 0.905752 0
M  V30 1568 O 164.215 -1.60758 1.21321 0
M  V30 1569 C 161.28 -2.55444 2.34413 0
M  V30 1570 C 160.341 -2.38241 3.57127 0
M  V30 1571 C 159.574 -3.63909 3.90392 0
M  V30 1572 O 159.797 -4.68996 3.24653 0
M  V30 1573 O 158.731 -3.58149 4.83749 0
M  V30 1574 H 162.557 -0.901279 2.90018 0
M  V30 1575 H 160.142 -0.380185 1.44482 0
M  V30 1576 H 162.024 -3.33292 2.57865 0
M  V30 1577 H 160.699 -2.88382 1.4703 0
M  V30 1578 H 159.606 -1.58431 3.38896 0
M  V30 1579 H 160.939 -2.10228 4.45045 0
M  V30 1580 N 162.591 -1.51276 -0.441967 0
M  V30 1581 C 163.868 -1.54252 -1.20273 0
M  V30 1582 C 164.248 -0.30408 -2.08898 0
M  V30 1583 O 163.596 0.711084 -2.17154 0
M  V30 1584 C 163.806 -2.85406 -2.00859 0
M  V30 1585 C 165.154 -3.37181 -2.58059 0
M  V30 1586 O 166.178 -2.86925 -2.11074 0
M  V30 1587 O 165.037 -4.24858 -3.43741 0
M  V30 1588 H 162.131 -0.619969 -0.547328 0
M  V30 1589 H 164.677 -1.63586 -0.451413 0
M  V30 1590 H 163.449 -3.67003 -1.35736 0
M  V30 1591 H 163.072 -2.79213 -2.83065 0
M  V30 1592 N 164.069 0.697108 -1.41344 0
M  V30 1593 C 165.48 1.27697 -1.36199 0
M  V30 1594 C 165.831 1.9615 -0.0443463 0
M  V30 1595 O 164.956 1.98689 0.857419 0
M  V30 1596 C 165.551 2.32223 -2.46694 0
M  V30 1597 C 164.11 2.8579 -2.44952 0
M  V30 1598 C 163.257 1.59807 -2.26621 0
M  V30 1599 H 166.208 0.491968 -1.50882 0
M  V30 1600 H 166.229 3.1348 -2.15664 0
M  V30 1601 H 165.741 1.82373 -3.42581 0
M  V30 1602 H 163.842 3.3982 -1.52817 0
M  V30 1603 H 163.955 3.36325 -3.41207 0
M  V30 1604 H 162.319 1.8556 -1.7447 0
M  V30 1605 H 163.102 1.11956 -3.24532 0
M  V30 1606 N 165.547 1.27147 0.931209 0
M  V30 1607 C 166.479 1.05364 2.03546 0
M  V30 1608 C 167.492 0.0108438 1.62796 0
M  V30 1609 O 168.681 0.25202 1.76712 0
M  V30 1610 C 165.781 0.575566 3.33977 0
M  V30 1611 C 164.954 1.68985 4.03439 0
M  V30 1612 C 164.013 1.20813 5.12143 0
M  V30 1613 O 163.039 1.90712 5.363 0
M  V30 1614 N 164.241 0.0618851 5.80467 0
M  V30 1615 H 167.006 2.00454 2.22796 0
M  V30 1616 H 164.567 1.18666 1.10136 0
M  V30 1617 H 166.559 0.237264 4.04004 0
M  V30 1618 H 165.129 -0.282016 3.11325 0
M  V30 1619 H 164.349 2.19861 3.27192 0
M  V30 1620 H 165.637 2.4378 4.46597 0
M  V30 1621 H 165.035 -0.521621 5.6329 0
M  V30 1622 H 163.592 -0.217264 6.51438 0
M  V30 1623 N 167.025 -1.13721 1.09112 0
M  V30 1624 C 168.253 -1.88773 0.846899 0
M  V30 1625 C 168.668 -1.7896 -0.601572 0
M  V30 1626 O 168.025 -1.15394 -1.41388 0
M  V30 1627 C 168.076 -3.3849 1.26913 0
M  V30 1628 O 167.797 -3.48043 2.66079 0
M  V30 1629 C 169.298 -4.30518 1.05682 0
M  V30 1630 H 166.518 -0.59772 0.304914 0
M  V30 1631 H 169.062 -1.43977 1.45227 0
M  V30 1632 H 167.217 -3.80881 0.707723 0
M  V30 1633 H 167.631 -4.4109 2.83795 0
M  V30 1634 H 169.105 -5.3391 1.40156 0
M  V30 1635 H 169.582 -4.392 -0.00563416 0
M  V30 1636 H 170.188 -3.93893 1.60402 0
M  V30 1637 N 168.503 -0.877838 -1.30888 0
M  V30 1638 C 169.45 -0.337538 -2.28318 0
M  V30 1639 C 170.42 0.568346 -1.56074 0
M  V30 1640 O 171.605 0.498298 -1.84178 0
M  V30 1641 C 168.745 0.448142 -3.42178 0
M  V30 1642 C 167.858 -0.48615 -4.29256 0
M  V30 1643 C 166.993 0.314427 -5.30269 0
M  V30 1644 C 166.032 -0.615791 -6.08995 0
M  V30 1645 N 165.169 0.14902 -7.01942 0
M  V30 1646 H 170.009 -1.17356 -2.73919 0
M  V30 1647 H 167.546 -0.590094 -1.34745 0
M  V30 1648 H 169.504 0.919517 -4.06941 0
M  V30 1649 H 168.134 1.24879 -2.97666 0
M  V30 1650 H 167.186 -1.076 -3.64865 0
M  V30 1651 H 168.498 -1.19909 -4.84173 0
M  V30 1652 H 167.652 0.847969 -6.00745 0
M  V30 1653 H 166.391 1.06062 -4.76027 0
M  V30 1654 H 165.396 -1.16102 -5.37401 0
M  V30 1655 H 166.621 -1.36097 -6.65323 0
M  V30 1656 H 164.567 0.877884 -6.50099 0
M  V30 1657 H 164.484 -0.504433 -7.54315 0
M  V30 1658 H 165.752 0.663537 -7.76671 0
M  V30 1659 N 169.982 1.44106 -0.638065 0
M  V30 1660 C 171.222 2.03858 -0.148733 0
M  V30 1661 C 171.586 1.49153 1.20903 0
M  V30 1662 O 172.787 2.00452 1.79088 0
M  V30 1663 C 171.058 3.57117 -0.142314 0
M  V30 1664 S 172.617 4.37897 0.281385 0
M  V30 1665 H 169.435 0.708069 -0.0644912 0
M  V30 1666 H 172.037 1.7639 -0.843009 0
M  V30 1667 H 170.741 3.94436 -1.13349 0
M  V30 1668 H 170.272 3.89205 0.572988 0
M  V30 1669 H 172.287 4.72218 1.52395 0
M  V30 1670 N 171.46 0.379036 1.52974 0
M  V30 1671 C 172.37 -0.468639 2.29872 0
M  V30 1672 C 173.386 -1.08067 1.36373 0
M  V30 1673 O 174.562 -1.08871 1.69438 0
M  V30 1674 C 171.627 -1.58594 3.083 0
M  V30 1675 C 170.688 -1.00007 4.17489 0
M  V30 1676 C 169.921 -2.06413 4.92168 0
M  V30 1677 O 170.144 -3.27751 4.66835 0
M  V30 1678 O 169.078 -1.68717 5.7777 0
M  V30 1679 H 172.904 0.157508 3.03291 0
M  V30 1680 H 170.489 0.143035 1.48714 0
M  V30 1681 H 172.371 -2.23525 3.57232 0
M  V30 1682 H 171.046 -2.19724 2.37703 0
M  V30 1683 H 169.953 -0.314299 3.72777 0
M  V30 1684 H 171.286 -0.433135 4.90291 0
M  V30 1685 N 172.938 -1.57226 0.108567 0
M  V30 1686 C 174.168 -1.9889 -0.559142 0
M  V30 1687 C 174.576 -0.986889 -1.61422 0
M  V30 1688 O 173.919 0.0298705 -1.83676 0
M  V30 1689 C 173.981 -3.36952 -1.25315 0
M  V30 1690 C 173.645 -4.55679 -0.347248 0
M  V30 1691 C 174.642 -5.18281 0.409996 0
M  V30 1692 C 172.327 -5.0162 -0.261367 0
M  V30 1693 C 174.321 -6.25203 1.24096 0
M  V30 1694 C 172.008 -6.08405 0.573238 0
M  V30 1695 C 173.006 -6.70063 1.32304 0
M  V30 1696 O 172.694 -7.74788 2.14381 0
M  V30 1697 H 172.426 -0.658343 -0.153492 0
M  V30 1698 H 174.98 -2.04532 0.188584 0
M  V30 1699 H 173.21 -3.28032 -2.04773 0
M  V30 1700 H 174.899 -3.62974 -1.81673 0
M  V30 1701 H 175.665 -4.8371 0.353457 0
M  V30 1702 H 171.544 -4.53381 -0.834656 0
M  V30 1703 H 175.088 -6.73259 1.82669 0
M  V30 1704 H 170.985 -6.42406 0.631208 0
M  V30 1705 H 171.753 -7.91837 2.07209 0
M  V30 1706 N 174.416 0.165178 -1.56732 0
M  V30 1707 C 175.349 1.23336 -1.91998 0
M  V30 1708 C 176.327 1.42476 -0.783531 0
M  V30 1709 O 177.511 1.57384 -1.03743 0
M  V30 1710 C 174.638 2.59533 -2.17625 0
M  V30 1711 C 173.684 2.57093 -3.40302 0
M  V30 1712 S 174.517 2.05571 -4.9447 0
M  V30 1713 C 175.673 3.43532 -5.23198 0
M  V30 1714 H 175.906 0.932387 -2.82301 0
M  V30 1715 H 173.439 0.370013 -1.49901 0
M  V30 1716 H 175.397 3.37918 -2.3307 0
M  V30 1717 H 174.058 2.86827 -1.28019 0
M  V30 1718 H 173.251 3.57308 -3.55453 0
M  V30 1719 H 172.853 1.86806 -3.24005 0
M  V30 1720 H 175.145 4.39559 -5.15552 0
M  V30 1721 H 176.088 3.33251 -6.2478 0
M  V30 1722 H 176.496 3.39828 -4.50752 0
M  V30 1723 N 175.894 1.51508 0.433938 0
M  V30 1724 C 176.824 1.76016 1.53429 0
M  V30 1725 C 177.805 0.610112 1.58782 0
M  V30 1726 O 178.99 0.853177 1.74455 0
M  V30 1727 C 176.12 1.88831 2.9148 0
M  V30 1728 C 175.074 3.04288 3.00987 0
M  V30 1729 C 174.4 3.0229 4.4105 0
M  V30 1730 C 175.7 4.44193 2.74754 0
M  V30 1731 H 177.394 2.68152 1.33171 0
M  V30 1732 H 174.94 1.29035 0.639214 0
M  V30 1733 H 176.893 2.04559 3.6842 0
M  V30 1734 H 175.617 0.933455 3.12976 0
M  V30 1735 H 174.276 2.8827 2.26486 0
M  V30 1736 H 173.924 2.04576 4.59519 0
M  V30 1737 H 173.624 3.79822 4.4834 0
M  V30 1738 H 175.148 3.20116 5.1996 0
M  V30 1739 H 176.562 4.60544 3.41426 0
M  V30 1740 H 174.959 5.23457 2.9345 0
M  V30 1741 H 176.029 4.53996 1.70339 0
M  V30 1742 N 177.372 -0.689602 1.41712 0
M  V30 1743 C 178.32 -1.82475 1.44242 0
M  V30 1744 C 179.314 -1.66354 0.319774 0
M  V30 1745 O 180.52 -1.73143 0.492089 0
M  V30 1746 H 176.895 -0.601416 0.451445 0
M  V30 1747 H 178.866 -1.77458 2.39899 0
M  V30 1748 C 177.615 -3.20535 1.3473 0
M  V30 1749 H 176.938 -3.33559 2.20405 0
M  V30 1750 H 178.378 -4.00023 1.40562 0
M  V30 1751 C 176.837 -3.36846 0.0603281 0
M  V30 1752 O 177.367 -3.91656 -0.892663 0
M  V30 1753 N 175.573 -2.90595 -0.0177039 0
M  V30 1754 H 175.12 -2.46178 0.758572 0
M  V30 1755 H 175.078 -3.01886 -0.878201 0
M  V30 1756 N 178.85 -1.27639 -0.924453 0
M  V30 1757 C 180.075 -1.17101 -1.71179 0
M  V30 1758 C 180.5 0.268134 -1.86179 0
M  V30 1759 O 179.858 1.19415 -1.36418 0
M  V30 1760 C 179.906 -1.86313 -3.08739 0
M  V30 1761 O 179.01 -1.16331 -3.95652 0
M  V30 1762 H 178.351 -0.407091 -0.524569 0
M  V30 1763 H 180.881 -1.68767 -1.15666 0
M  V30 1764 H 180.891 -1.938 -3.59034 0
M  V30 1765 H 179.566 -2.91001 -2.97138 0
M  V30 1766 H 178.143 -1.16935 -3.54091 0
M  V30 1767 N 180.328 1.1314 -1.09713 0
M  V30 1768 C 181.261 2.17735 -0.683137 0
M  V30 1769 C 182.239 1.59582 0.311841 0
M  V30 1770 O 183.423 1.87298 0.212514 0
M  V30 1771 C 180.55 3.38699 -0.00684324 0
M  V30 1772 C 179.596 4.1546 -0.964102 0
M  V30 1773 S 180.429 4.74733 -2.47767 0
M  V30 1774 C 181.585 5.9904 -1.81387 0
M  V30 1775 H 181.818 2.52515 -1.56918 0
M  V30 1776 H 179.351 1.24484 -0.913404 0
M  V30 1777 H 181.309 4.08765 0.377044 0
M  V30 1778 H 179.97 3.02214 0.85589 0
M  V30 1779 H 179.163 5.02093 -0.43803 0
M  V30 1780 H 178.765 3.51066 -1.28953 0
M  V30 1781 H 181.057 6.67846 -1.13967 0
M  V30 1782 H 182 6.56261 -2.65947 0
M  V30 1783 H 182.408 5.4976 -1.28155 0
M  V30 1784 N 181.806 0.884767 1.30421 0
M  V30 1785 C 183.217 0.553656 1.78302 0
M  V30 1786 C 183.568 -0.930153 1.7275 0
M  V30 1787 O 182.693 -1.72681 1.30423 0
M  V30 1788 C 183.288 0.998234 3.2376 0
M  V30 1789 C 181.847 0.71854 3.69478 0
M  V30 1790 C 180.994 1.18132 2.50879 0
M  V30 1791 H 183.945 1.06901 1.17294 0
M  V30 1792 H 183.966 0.327118 3.79091 0
M  V30 1793 H 183.478 2.0782 3.27769 0
M  V30 1794 H 181.579 -0.349444 3.70958 0
M  V30 1795 H 181.692 1.30595 4.60958 0
M  V30 1796 H 180.056 0.600669 2.47516 0
M  V30 1797 H 180.839 2.26902 2.57624 0
M  V30 1798 N 183.284 -1.43765 0.645699 0
M  V30 1799 C 184.231 -2.30745 -0.0504648 0
M  V30 1800 C 185.201 -1.4432 -0.822241 0
M  V30 1801 O 186.386 -1.73202 -0.800358 0
M  V30 1802 C 183.526 -3.29802 -1.0161 0
M  V30 1803 C 182.639 -4.31326 -0.241219 0
M  V30 1804 C 181.774 -5.17469 -1.19998 0
M  V30 1805 C 180.813 -6.10691 -0.415094 0
M  V30 1806 N 179.95 -6.89483 -1.32506 0
M  V30 1807 H 184.79 -2.8973 0.697155 0
M  V30 1808 H 182.327 -1.42738 0.355563 0
M  V30 1809 H 184.285 -3.85734 -1.58949 0
M  V30 1810 H 182.915 -2.72483 -1.73069 0
M  V30 1811 H 181.967 -3.77749 0.448334 0
M  V30 1812 H 183.279 -4.9743 0.369437 0
M  V30 1813 H 182.433 -5.7799 -1.84424 0
M  V30 1814 H 181.172 -4.51473 -1.84455 0
M  V30 1815 H 180.177 -5.49265 0.242565 0
M  V30 1816 H 181.402 -6.78727 0.224966 0
M  V30 1817 H 179.348 -6.26142 -1.95657 0
M  V30 1818 H 179.265 -7.52081 -0.768783 0
M  V30 1819 H 180.533 -7.54516 -1.9577 0
M  V30 1820 N 184.763 -0.387143 -1.52771 0
M  V30 1821 C 186.179 -0.037007 -1.59557 0
M  V30 1822 C 186.379 1.44801 -1.40124 0
M  V30 1823 O 185.435 2.21227 -1.21716 0
M  V30 1824 C 186.748 -0.512256 -2.96305 0
M  V30 1825 C 188.296 -0.468328 -3.09476 0
M  V30 1826 C 188.771 -0.919731 -4.4867 0
M  V30 1827 N 190.262 -0.875656 -4.54848 0
M  V30 1828 C 190.997 -1.19637 -5.6078 0
M  V30 1829 N 190.493 -1.58745 -6.74368 0
M  V30 1830 N 192.286 -1.11776 -5.50874 0
M  V30 1831 H 184.437 -1.35395 -1.63652 0
M  V30 1832 H 186.7 -0.554818 -0.768688 0
M  V30 1833 H 186.406 -1.54935 -3.15734 0
M  V30 1834 H 186.28 0.089805 -3.77093 0
M  V30 1835 H 188.667 0.559671 -2.89744 0
M  V30 1836 H 188.748 -1.10616 -2.30646 0
M  V30 1837 H 188.392 -1.94595 -4.69143 0
M  V30 1838 H 188.322 -0.258927 -5.25963 0
M  V30 1839 H 190.813 -0.587843 -3.733 0
M  V30 1840 H 191.126 -1.81586 -7.51163 0
M  V30 1841 H 189.471 -1.6263 -6.75705 0
M  V30 1842 H 192.662 -0.811264 -4.61016 0
M  V30 1843 H 192.835 -1.37103 -6.3333 0
M  V30 1844 N 186.241 1.57166 -0.116904 0
M  V30 1845 C 187.171 2.18222 0.830759 0
M  V30 1846 C 188.152 1.12167 1.27877 0
M  V30 1847 O 189.337 1.40394 1.34176 0
M  V30 1848 C 186.467 2.77996 2.08172 0
M  V30 1849 C 185.421 3.89614 1.77157 0
M  V30 1850 C 184.747 4.36187 3.09265 0
M  V30 1851 C 186.047 5.1181 1.04151 0
M  V30 1852 H 187.741 2.97664 0.321992 0
M  V30 1853 H 185.287 1.4318 0.153434 0
M  V30 1854 H 187.24 3.19366 2.74924 0
M  V30 1855 H 185.964 1.9584 2.6137 0
M  V30 1856 H 184.623 3.48816 1.12796 0
M  V30 1857 H 184.271 3.50893 3.60393 0
M  V30 1858 H 183.971 5.11455 2.89288 0
M  V30 1859 H 185.495 4.80207 3.77139 0
M  V30 1860 H 186.909 5.50214 1.61052 0
M  V30 1861 H 185.306 5.92648 0.942762 0
M  V30 1862 H 186.376 4.84892 0.0279022 0
M  V30 1863 N 187.719 -0.156864 1.56817 0
M  V30 1864 C 188.959 -0.877453 1.84608 0
M  V30 1865 C 189.323 -1.78791 0.699845 0
M  V30 1866 O 190.524 -2.5472 0.858553 0
M  V30 1867 C 188.795 -1.63992 3.17555 0
M  V30 1868 S 190.354 -2.40729 3.66872 0
M  V30 1869 H 187.172 -0.293612 0.647544 0
M  V30 1870 H 189.774 -0.138099 1.95012 0
M  V30 1871 H 188.478 -0.962363 3.98957 0
M  V30 1872 H 188.009 -2.42038 3.10131 0
M  V30 1873 H 190.024 -3.65725 3.3535 0
M  V30 1874 N 189.197 -1.51736 -0.425897 0
M  V30 1875 C 190.127 -1.76827 -1.52494 0
M  V30 1876 C 191.108 -0.618524 -1.58456 0
M  V30 1877 O 192.293 -0.862416 -1.74 0
M  V30 1878 C 189.423 -1.90374 -2.90474 0
M  V30 1879 C 188.377 -3.0588 -2.99369 0
M  V30 1880 C 187.703 -3.04625 -4.3944 0
M  V30 1881 C 189.003 -4.45644 -2.72394 0
M  V30 1882 H 190.697 -2.68855 -1.31748 0
M  V30 1883 H 188.243 -1.29372 -0.632362 0
M  V30 1884 H 190.196 -2.0651 -3.6733 0
M  V30 1885 H 188.92 -0.95004 -3.12477 0
M  V30 1886 H 187.579 -2.89467 -2.24954 0
M  V30 1887 H 187.227 -2.0701 -4.58428 0
M  V30 1888 H 186.927 -3.82195 -4.46319 0
M  V30 1889 H 188.451 -3.22869 -5.18255 0
M  V30 1890 H 189.865 -4.62348 -3.38979 0
M  V30 1891 H 188.262 -5.25006 -2.9067 0
M  V30 1892 H 189.332 -4.54893 -1.67929 0
M  V30 1893 N 190.675 0.682077 -1.42076 0
M  V30 1894 C 191.921 1.44428 -1.42367 0
M  V30 1895 C 192.254 1.94164 -0.0373056 0
M  V30 1896 O 191.529 1.70429 0.937239 0
M  V30 1897 C 191.812 2.64654 -2.44194 0
M  V30 1898 C 191.665 2.20596 -3.91991 0
M  V30 1899 C 192.984 3.66865 -2.431 0
M  V30 1900 H 190.103 0.523834 -0.518428 0
M  V30 1901 H 192.745 0.77576 -1.73442 0
M  V30 1902 H 190.895 3.2169 -2.17826 0
M  V30 1903 H 192.567 1.68783 -4.29313 0
M  V30 1904 H 190.81 1.52242 -4.06208 0
M  V30 1905 H 191.481 3.06921 -4.58807 0
M  V30 1906 H 193.957 3.19531 -2.66532 0
M  V30 1907 H 192.833 4.48577 -3.16339 0
M  V30 1908 H 193.094 4.17493 -1.45437 0
M  V30 1909 N 192.153 1.28127 0.917671 0
M  V30 1910 C 193.393 1.163 1.68088 0
M  V30 1911 C 193.757 -0.284515 1.8988 0
M  V30 1912 O 194.958 -0.525413 2.63615 0
M  V30 1913 C 193.229 1.93546 3.00457 0
M  V30 1914 S 194.788 1.98048 3.91564 0
M  V30 1915 H 191.606 0.415005 0.577315 0
M  V30 1916 H 194.208 1.62173 1.09179 0
M  V30 1917 H 192.912 2.97888 2.82295 0
M  V30 1918 H 192.443 1.48207 3.64415 0
M  V30 1919 H 194.458 1.08415 4.84211 0
M  V30 1920 N 193.631 -1.12557 1.10312 0
M  V30 1921 C 194.879 -1.83675 0.843091 0
M  V30 1922 C 195.2 -1.84435 -0.633131 0
M  V30 1923 O 194.47 -1.30657 -1.45964 0
M  V30 1924 H 193.05 -0.680138 0.308904 0
M  V30 1925 H 195.712 -1.36301 1.39313 0
M  V30 1926 H 194.808 -2.87908 1.2048 0
M  V30 1927 N 195.109 -0.891671 -1.2995 0
M  V30 1928 C 196.386 -0.433307 -1.9074 0
M  V30 1929 C 196.766 1.08646 -1.80995 0
M  V30 1930 O 196.114 1.92476 -1.23147 0
M  V30 1931 C 196.324 -0.938895 -3.36134 0
M  V30 1932 C 197.672 -0.977829 -4.13187 0
M  V30 1933 O 198.696 -0.886015 -3.45005 0
M  V30 1934 O 197.555 -1.11453 -5.35015 0
M  V30 1935 H 194.649 -0.133699 -0.816121 0
M  V30 1936 H 197.195 -0.981011 -1.38471 0
M  V30 1937 H 195.967 -1.98281 -3.37343 0
M  V30 1938 H 195.59 -0.37074 -3.95868 0
M  V30 1939 N 196.587 1.43421 -0.653314 0
M  V30 1940 C 197.836 2.01032 -0.164076 0
M  V30 1941 C 198.149 1.52147 1.22926 0
M  V30 1942 O 199.355 2.02031 1.81371 0
M  V30 1943 C 197.811 3.59082 -0.24252 0
M  V30 1944 C 197.419 4.1696 -1.63855 0
M  V30 1945 C 199.163 4.24079 0.18911 0
M  V30 1946 C 197.07 5.67304 -1.67092 0
M  V30 1947 H 196 0.751798 -0.0575769 0
M  V30 1948 H 198.651 1.6439 -0.815362 0
M  V30 1949 H 197.033 3.93125 0.476276 0
M  V30 1950 H 198.207 3.94416 -2.38271 0
M  V30 1951 H 196.522 3.64335 -2.01616 0
M  V30 1952 H 199.119 5.34381 0.184775 0
M  V30 1953 H 199.462 3.98005 1.22056 0
M  V30 1954 H 199.995 3.94918 -0.477938 0
M  V30 1955 H 196.734 5.98145 -2.68146 0
M  V30 1956 H 196.254 5.91904 -0.970014 0
M  V30 1957 H 197.933 6.31344 -1.4147 0
M  V30 1958 N 198.065 0.39524 1.52563 0
M  V30 1959 C 199.028 -0.425001 2.25225 0
M  V30 1960 C 200.028 -0.985266 1.27079 0
M  V30 1961 O 201.218 -0.866332 1.5113 0
M  V30 1962 C 198.35 -1.59686 3.01186 0
M  V30 1963 H 199.543 0.211233 2.99155 0
M  V30 1964 H 197.096 0.147472 1.55603 0
M  V30 1965 H 197.831 -2.27035 2.31572 0
M  V30 1966 H 197.616 -1.20176 3.73229 0
M  V30 1967 H 199.106 -2.17743 3.5634 0
M  V30 1968 N 199.544 -1.57102 0.125237 0
M  V30 1969 C 200.769 -2.0019 -0.542101 0
M  V30 1970 C 201.194 -1.00449 -1.59034 0
M  V30 1971 O 200.552 0.0229423 -1.81285 0
M  V30 1972 C 200.6 -3.42129 -1.13929 0
M  V30 1973 O 199.704 -3.45307 -2.2547 0
M  V30 1974 H 199.045 -0.650171 -0.134812 0
M  V30 1975 H 201.575 -2.03461 0.215553 0
M  V30 1976 H 201.585 -3.80471 -1.4733 0
M  V30 1977 H 200.26 -4.14237 -0.371531 0
M  V30 1978 H 198.837 -3.1879 -1.93462 0
M  V30 1979 N 201.022 0.148545 -1.56898 0
M  V30 1980 C 202.27 0.859717 -1.82902 0
M  V30 1981 C 202.591 1.81775 -0.70588 0
M  V30 1982 O 201.861 1.93994 0.272586 0
M  V30 1983 H 200.441 0.320469 -0.674766 0
M  V30 1984 H 203.103 0.142918 -1.94375 0
M  V30 1985 H 202.199 1.4229 -2.77777 0
M  V30 1986 N 202.5 1.5196 0.417844 0
M  V30 1987 C 203.73 1.69181 1.18581 0
M  V30 1988 C 204.138 0.397104 1.84986 0
M  V30 1989 O 203.481 -0.636011 1.72339 0
M  V30 1990 C 203.543 2.76497 2.29759 0
M  V30 1991 C 203.207 4.18514 1.83563 0
M  V30 1992 C 204.204 5.02648 1.32821 0
M  V30 1993 C 201.889 4.64708 1.90661 0
M  V30 1994 C 203.883 6.31044 0.897894 0
M  V30 1995 C 201.57 5.93096 1.47241 0
M  V30 1996 C 202.568 6.76093 0.968891 0
M  V30 1997 O 202.256 8.02078 0.540924 0
M  V30 1998 H 201.988 0.570457 0.362705 0
M  V30 1999 H 204.542 1.99249 0.498885 0
M  V30 2000 H 202.772 2.41786 3.01789 0
M  V30 2001 H 204.461 2.82403 2.91553 0
M  V30 2002 H 205.227 4.68154 1.26716 0
M  V30 2003 H 201.106 4.00216 2.28797 0
M  V30 2004 H 204.65 6.95776 0.504192 0
M  V30 2005 H 200.547 6.271 1.53022 0
M  V30 2006 H 201.315 8.15794 0.66502 0
M  V30 2007 N 203.978 -0.674533 1.42435 0
M  V30 2008 C 204.928 -1.7807 1.4239 0
M  V30 2009 C 205.912 -1.58169 0.295202 0
M  V30 2010 O 207.104 -1.68643 0.537449 0
M  V30 2011 C 204.233 -3.16532 1.32901 0
M  V30 2012 C 203.319 -3.42055 2.50717 0
M  V30 2013 N 203.71 -3.38162 3.76139 0
M  V30 2014 C 202.008 -3.72692 2.44983 0
M  V30 2015 C 202.709 -3.63177 4.54398 0
M  V30 2016 N 201.685 -3.83954 3.84812 0
M  V30 2017 H 205.487 -1.73454 2.37257 0
M  V30 2018 H 203.001 -0.875381 1.36788 0
M  V30 2019 H 204.998 -3.958 1.30951 0
M  V30 2020 H 203.658 -3.22345 0.390363 0
M  V30 2021 H 204.669 -3.18057 4.0873 0
M  V30 2022 H 201.346 -3.85749 1.59699 0
M  V30 2023 H 202.736 -3.66125 5.63384 0
M  V30 2024 N 205.456 -1.28612 -0.910864 0
M  V30 2025 C 206.686 -1.1862 -1.69153 0
M  V30 2026 C 207.094 0.257324 -1.87442 0
M  V30 2027 O 206.437 1.18543 -1.40332 0
M  V30 2028 C 206.499 -1.81606 -3.10257 0
M  V30 2029 C 206.163 -3.30864 -3.15243 0
M  V30 2030 C 207.16 -4.27256 -2.96223 0
M  V30 2031 C 204.845 -3.71871 -3.37664 0
M  V30 2032 C 206.839 -5.62631 -2.99541 0
M  V30 2033 C 204.526 -5.07371 -3.40614 0
M  V30 2034 C 205.524 -6.02561 -3.21573 0
M  V30 2035 O 205.212 -7.35589 -3.2429 0
M  V30 2036 H 204.944 -0.412633 -0.535453 0
M  V30 2037 H 207.498 -1.70306 -1.14827 0
M  V30 2038 H 205.728 -1.24418 -3.66138 0
M  V30 2039 H 207.417 -1.66092 -3.70362 0
M  V30 2040 H 208.183 -3.9691 -2.78725 0
M  V30 2041 H 204.062 -2.98241 -3.5153 0
M  V30 2042 H 207.606 -6.36907 -2.84597 0
M  V30 2043 H 203.503 -5.37366 -3.57642 0
M  V30 2044 H 204.271 -7.44252 -3.40633 0
M  V30 2045 N 206.934 1.1197 -1.10907 0
M  V30 2046 C 208.182 1.83225 -0.852819 0
M  V30 2047 C 208.503 1.84769 0.623341 0
M  V30 2048 O 207.773 1.3143 1.45269 0
M  V30 2049 H 206.353 0.67849 -0.312507 0
M  V30 2050 H 209.015 1.3556 -1.40033 0
M  V30 2051 H 208.111 2.87265 -1.22005 0
M  V30 2052 N 208.412 0.89855 1.29475 0
M  V30 2053 C 209.658 0.524658 1.95896 0
M  V30 2054 C 209.991 -0.926468 1.70676 0
M  V30 2055 O 209.266 -1.65665 1.01908 0
M  V30 2056 C 209.549 0.81633 3.50725 0
M  V30 2057 C 209.402 2.31907 3.85408 0
M  V30 2058 C 210.721 0.302038 4.39062 0
M  V30 2059 H 207.84 0.19209 0.711527 0
M  V30 2060 H 210.482 1.12502 1.53112 0
M  V30 2061 H 208.632 0.305369 3.87298 0
M  V30 2062 H 210.304 2.89949 3.58786 0
M  V30 2063 H 208.547 2.78027 3.32992 0
M  V30 2064 H 209.218 2.47373 4.93468 0
M  V30 2065 H 211.694 0.739551 4.09475 0
M  V30 2066 H 210.57 0.535331 5.46283 0
M  V30 2067 H 210.831 -0.797216 4.34853 0
M  V30 2068 N 209.89 -1.43072 0.660911 0
M  V30 2069 C 210.853 -2.29194 -0.0166406 0
M  V30 2070 C 211.853 -1.42609 -0.742912 0
M  V30 2071 O 213.043 -1.64155 -0.583004 0
M  V30 2072 C 210.175 -3.24831 -1.0343 0
M  V30 2073 H 211.368 -2.90596 0.741208 0
M  V30 2074 H 208.921 -1.5048 0.422532 0
M  V30 2075 H 209.656 -2.68339 -1.82111 0
M  V30 2076 H 209.441 -3.88676 -0.517082 0
M  V30 2077 H 210.931 -3.89451 -1.50723 0
M  V30 2078 N 211.368 -0.403325 -1.52352 0
M  V30 2079 C 212.593 0.176499 -2.06648 0
M  V30 2080 C 213.018 1.38577 -1.27193 0
M  V30 2081 O 212.376 1.7879 -0.300637 0
M  V30 2082 C 212.424 0.511061 -3.5696 0
M  V30 2083 O 211.528 1.60294 -3.79973 0
M  V30 2084 H 210.869 0.0167337 -0.663789 0
M  V30 2085 H 213.399 -0.574848 -1.96359 0
M  V30 2086 H 213.409 0.771362 -4.00642 0
M  V30 2087 H 212.084 -0.37296 -4.14224 0
M  V30 2088 H 210.661 1.33526 -3.48174 0
M  V30 2089 N 212.846 1.57033 -0.133567 0
M  V30 2090 C 214.086 1.97575 0.523789 0
M  V30 2091 C 214.45 1.01605 1.62912 0
M  V30 2092 O 215.651 1.3114 2.3464 0
M  V30 2093 C 213.922 3.42256 1.02935 0
M  V30 2094 S 215.481 4.04817 1.69319 0
M  V30 2095 H 212.299 0.690427 0.169799 0
M  V30 2096 H 214.901 1.94234 -0.222101 0
M  V30 2097 H 213.605 4.09842 0.213917 0
M  V30 2098 H 213.136 3.4928 1.81017 0
M  V30 2099 H 215.151 3.96767 2.97977 0
M  V30 2100 N 214.325 -0.140222 1.56975 0
M  V30 2101 C 215.235 -1.19223 2.02047 0
M  V30 2102 C 216.251 -1.46612 0.937062 0
M  V30 2103 O 217.427 -1.58148 1.24704 0
M  V30 2104 C 214.492 -2.50414 2.39778 0
M  V30 2105 C 213.553 -2.30612 3.621 0
M  V30 2106 C 212.786 -3.55547 3.98023 0
M  V30 2107 O 213.009 -4.62004 3.34528 0
M  V30 2108 O 211.943 -3.47808 4.91237 0
M  V30 2109 H 215.769 -0.839559 2.91865 0
M  V30 2110 H 213.354 -0.349453 1.45256 0
M  V30 2111 H 215.236 -3.27747 2.64877 0
M  V30 2112 H 213.911 -2.85198 1.53114 0
M  V30 2113 H 212.818 -1.51207 3.4218 0
M  V30 2114 H 214.151 -2.00741 4.49404 0
M  V30 2115 N 215.803 -1.52179 -0.40978 0
M  V30 2116 C 216.766 -1.74853 -1.48186 0
M  V30 2117 C 217.766 -0.618417 -1.48433 0
M  V30 2118 O 218.956 -0.886286 -1.49969 0
M  V30 2119 C 216.088 -1.8303 -2.87598 0
M  V30 2120 H 217.281 -2.70559 -1.29374 0
M  V30 2121 H 214.834 -1.42586 -0.640233 0
M  V30 2122 H 215.569 -0.89236 -3.11781 0
M  V30 2123 H 215.354 -2.65187 -2.88822 0
M  V30 2124 H 216.844 -2.02316 -3.65319 0
M  V30 2125 N 217.281 0.66697 -1.42791 0
M  V30 2126 C 218.521 1.43892 -1.4517 0
M  V30 2127 C 218.885 1.91877 -0.0687551 0
M  V30 2128 O 220.086 2.6878 0.0327455 0
M  V30 2129 C 218.357 2.59839 -2.45395 0
M  V30 2130 S 219.916 3.48572 -2.66539 0
M  V30 2131 H 216.734 0.491356 -0.513897 0
M  V30 2132 H 219.336 0.775656 -1.79454 0
M  V30 2133 H 218.04 2.22838 -3.44632 0
M  V30 2134 H 217.571 3.3103 -2.12562 0
M  V30 2135 H 219.586 4.56094 -1.95429 0
M  V30 2136 N 218.759 1.29093 0.90403 0
M  V30 2137 C 219.706 1.13853 2.00764 0
M  V30 2138 C 220.676 0.0330084 1.66067 0
M  V30 2139 O 221.861 0.199733 1.89752 0
M  V30 2140 C 219.001 0.816537 3.35301 0
M  V30 2141 C 218.114 2.00206 3.82807 0
M  V30 2142 C 217.249 1.61983 5.059 0
M  V30 2143 C 216.288 2.77143 5.45764 0
M  V30 2144 N 215.425 2.39346 6.60044 0
M  V30 2145 H 220.265 2.08276 2.13132 0
M  V30 2146 H 217.802 1.03648 1.04381 0
M  V30 2147 H 219.76 0.610557 4.12708 0
M  V30 2148 H 218.39 -0.090779 3.22672 0
M  V30 2149 H 217.442 2.31988 3.01473 0
M  V30 2150 H 218.754 2.86512 4.08304 0
M  V30 2151 H 217.908 1.37649 5.90879 0
M  V30 2152 H 216.647 0.728202 4.82233 0
M  V30 2153 H 215.652 3.02165 4.59322 0
M  V30 2154 H 216.877 3.66964 5.71414 0
M  V30 2155 H 214.823 1.52665 6.37989 0
M  V30 2156 H 214.74 3.19185 6.85315 0
M  V30 2157 H 216.008 2.1832 7.48303 0
M  V30 2158 N 220.237 -1.11381 1.11499 0
M  V30 2159 C 221.2 -2.15622 0.777153 0
M  V30 2160 C 222.2 -1.59504 -0.203779 0
M  V30 2161 O 223.39 -1.74188 0.020782 0
M  V30 2162 C 220.522 -3.40556 0.153116 0
M  V30 2163 H 221.715 -2.47021 1.70061 0
M  V30 2164 H 219.268 -1.26577 0.916952 0
M  V30 2165 H 220.003 -3.14767 -0.780536 0
M  V30 2166 H 219.788 -3.8257 0.859238 0
M  V30 2167 H 221.278 -4.17546 -0.0671044 0
M  V30 2168 N 221.715 -0.905404 -1.28997 0
M  V30 2169 C 222.962 -0.534248 -1.95325 0
M  V30 2170 C 223.29 0.920535 -1.71337 0
M  V30 2171 O 222.545 1.66861 -1.02254 0
M  V30 2172 C 222.844 -0.779906 -3.48787 0
M  V30 2173 C 222.51 -2.21293 -3.92861 0
M  V30 2174 C 221.172 -2.60475 -4.04606 0
M  V30 2175 C 223.524 -3.14587 -4.15553 0
M  V30 2176 C 220.852 -3.9212 -4.36416 0
M  V30 2177 C 223.204 -4.45787 -4.48839 0
M  V30 2178 C 221.868 -4.84834 -4.58794 0
M  V30 2179 H 221.138 -0.195495 -0.714747 0
M  V30 2180 H 223.785 -1.14514 -1.53488 0
M  V30 2181 H 222.09 -0.0861365 -3.91705 0
M  V30 2182 H 223.787 -0.472029 -3.98212 0
M  V30 2183 H 220.377 -1.89887 -3.84241 0
M  V30 2184 H 224.561 -2.85528 -4.0594 0
M  V30 2185 H 219.817 -4.22086 -4.42327 0
M  V30 2186 H 223.991 -5.18098 -4.65346 0
M  V30 2187 H 221.618 -5.86877 -4.83197 0
M  V30 2188 N 223.193 1.4272 -0.668489 0
M  V30 2189 C 224.44 2.01624 -0.18814 0
M  V30 2190 C 224.768 1.5282 1.20317 0
M  V30 2191 O 224.023 0.718323 1.8204 0
M  V30 2192 C 224.322 3.57021 -0.164499 0
M  V30 2193 C 223.988 4.25232 -1.49962 0
M  V30 2194 C 222.65 4.4358 -1.8652 0
M  V30 2195 C 225.002 4.63727 -2.37921 0
M  V30 2196 C 222.33 4.97694 -3.10674 0
M  V30 2197 C 224.682 5.19218 -3.6138 0
M  V30 2198 C 223.346 5.3578 -3.98115 0
M  V30 2199 H 222.616 0.737795 -0.0688454 0
M  V30 2200 H 225.263 1.70991 -0.862225 0
M  V30 2201 H 223.568 3.87285 0.593079 0
M  V30 2202 H 225.265 4.00372 0.224271 0
M  V30 2203 H 221.855 4.11306 -1.20522 0
M  V30 2204 H 226.039 4.4923 -2.10964 0
M  V30 2205 H 221.295 5.08702 -3.39164 0
M  V30 2206 H 225.469 5.4799 -4.29743 0
M  V30 2207 H 223.096 5.77475 -4.94395 0
M  V30 2208 N 224.671 0.411399 1.52136 0
M  V30 2209 C 225.618 -0.412975 2.27075 0
M  V30 2210 C 226.588 -1.03912 1.29582 0
M  V30 2211 O 227.773 -1.06296 1.58448 0
M  V30 2212 C 224.913 -1.52247 3.09701 0
M  V30 2213 C 224.026 -0.917021 4.22155 0
M  V30 2214 C 223.161 -1.9994 4.92135 0
M  V30 2215 C 222.2 -1.37101 5.96548 0
M  V30 2216 N 221.337 -2.39364 6.60038 0
M  V30 2217 H 226.177 0.232499 2.97092 0
M  V30 2218 H 223.714 0.126496 1.46555 0
M  V30 2219 H 225.672 -2.17674 3.55913 0
M  V30 2220 H 224.302 -2.13794 2.41851 0
M  V30 2221 H 223.354 -0.151742 3.80097 0
M  V30 2222 H 224.666 -0.418006 4.97045 0
M  V30 2223 H 223.82 -2.73088 5.41763 0
M  V30 2224 H 222.559 -2.53208 4.16818 0
M  V30 2225 H 221.564 -0.624873 5.46237 0
M  V30 2226 H 222.789 -0.845998 6.7381 0
M  V30 2227 H 220.735 -2.91759 5.87548 0
M  V30 2228 H 220.652 -1.9428 7.3061 0
M  V30 2229 H 221.92 -3.12074 7.14304 0
M  V30 2230 N 226.149 -1.5696 0.141893 0
M  V30 2231 C 227.565 -1.58151 -0.21456 0
M  V30 2232 C 227.765 -1.1559 -1.65049 0
M  V30 2233 O 226.821 -0.853832 -2.37626 0
M  V30 2234 C 228.134 -3.00674 0.0395576 0
M  V30 2235 C 229.682 -3.1299 -0.0245529 0
M  V30 2236 C 230.157 -4.57554 0.202167 0
M  V30 2237 N 231.648 -4.62961 0.148919 0
M  V30 2238 C 232.383 -5.7262 0.298924 0
M  V30 2239 N 231.879 -6.90947 0.50637 0
M  V30 2240 N 233.672 -5.61601 0.236886 0
M  V30 2241 H 225.823 -1.8292 1.07953 0
M  V30 2242 H 228.086 -0.846425 0.42693 0
M  V30 2243 H 227.792 -3.36183 1.03315 0
M  V30 2244 H 227.666 -3.70981 -0.682143 0
M  V30 2245 H 230.053 -2.77326 -1.00869 0
M  V30 2246 H 230.134 -2.4518 0.729396 0
M  V30 2247 H 229.778 -4.93922 1.18338 0
M  V30 2248 H 229.708 -5.23484 -0.572044 0
M  V30 2249 H 232.199 -3.77899 -0.00697015 0
M  V30 2250 H 232.512 -7.7038 0.611076 0
M  V30 2251 H 230.857 -6.92878 0.542628 0
M  V30 2252 H 234.048 -4.68039 0.0756209 0
M  V30 2253 H 234.221 -6.47015 0.357227 0
M  V30 2254 N 227.627 0.131896 -1.57047 0
M  V30 2255 C 228.855 0.856461 -1.88341 0
M  V30 2256 C 229.27 1.74042 -0.731757 0
M  V30 2257 O 228.627 1.80051 0.297945 0
M  V30 2258 C 228.678 1.70064 -3.18999 0
M  V30 2259 O 228.399 0.852278 -4.2973 0
M  V30 2260 C 229.9 2.53148 -3.63911 0
M  V30 2261 H 227.12 0.246885 -0.62393 0
M  V30 2262 H 229.664 0.120152 -2.04147 0
M  V30 2263 H 227.819 2.38984 -3.04902 0
M  V30 2264 H 228.233 1.43329 -5.04537 0
M  V30 2265 H 229.707 3.07931 -4.58129 0
M  V30 2266 H 230.184 3.29901 -2.89935 0
M  V30 2267 H 230.79 1.89492 -3.80753 0
M  V30 2268 N 229.106 1.52395 0.401703 0
M  V30 2269 C 230.355 1.66044 1.14509 0
M  V30 2270 C 230.668 0.400216 1.91462 0
M  V30 2271 O 231.874 0.416632 2.68284 0
M  V30 2272 C 230.33 2.93388 2.0845 0
M  V30 2273 C 229.938 4.26545 1.36978 0
M  V30 2274 C 231.682 3.16402 2.83001 0
M  V30 2275 C 229.589 5.45007 2.29611 0
M  V30 2276 H 228.519 0.618562 0.431158 0
M  V30 2277 H 231.17 1.78886 0.40892 0
M  V30 2278 H 229.552 2.74263 2.8565 0
M  V30 2279 H 230.726 4.56179 0.650916 0
M  V30 2280 H 229.041 4.09692 0.74438 0
M  V30 2281 H 231.638 4.02085 3.52465 0
M  V30 2282 H 231.981 2.30943 3.46368 0
M  V30 2283 H 232.514 3.36034 2.12898 0
M  V30 2284 H 229.253 6.32835 1.70879 0
M  V30 2285 H 228.773 5.19702 2.9945 0
M  V30 2286 H 230.452 5.7838 2.89974 0
M  V30 2287 N 230.584 -0.659388 1.43143 0
M  V30 2288 C 231.516 -1.7849 1.43784 0
M  V30 2289 C 232.529 -1.5932 0.334787 0
M  V30 2290 O 233.718 -1.68155 0.598842 0
M  V30 2291 C 230.818 -3.15828 1.22906 0
M  V30 2292 C 229.991 -3.61711 2.45934 0
M  V30 2293 C 229.05 -4.77831 2.20371 0
M  V30 2294 O 228.076 -4.87586 2.93681 0
M  V30 2295 N 229.278 -5.67611 1.21647 0
M  V30 2296 H 232.043 -1.7842 2.40803 0
M  V30 2297 H 229.604 -0.84302 1.3822 0
M  V30 2298 H 231.596 -3.91189 1.03697 0
M  V30 2299 H 230.166 -3.10707 0.343542 0
M  V30 2300 H 229.386 -2.76861 2.80609 0
M  V30 2301 H 230.674 -3.89112 3.27825 0
M  V30 2302 H 230.072 -5.62397 0.610449 0
M  V30 2303 H 228.629 -6.42719 1.08423 0
M  V30 2304 N 232.062 -1.29571 -0.897171 0
M  V30 2305 C 233.31 -1.17456 -1.64464 0
M  V30 2306 C 233.631 0.273698 -1.9307 0
M  V30 2307 O 232.901 1.18684 -1.55855 0
M  V30 2308 H 231.481 -0.431706 -0.609622 0
M  V30 2309 H 234.143 -1.62531 -1.07562 0
M  V30 2310 H 233.239 -1.72648 -2.59998 0
M  V30 2311 N 233.54 1.10788 -1.12088 0
M  V30 2312 C 234.488 2.19111 -0.780587 0
M  V30 2313 C 235.482 1.67818 0.230961 0
M  V30 2314 O 236.688 1.79777 0.0895427 0
M  V30 2315 H 233.063 0.714477 -0.234578 0
M  V30 2316 H 235.034 2.45055 -1.70266 0
M  V30 2317 C 233.783 3.46818 -0.24747 0
M  V30 2318 H 233.106 3.86646 -1.01712 0
M  V30 2319 H 234.546 4.23973 -0.0476291 0
M  V30 2320 C 233.005 3.20968 1.02378 0
M  V30 2321 O 233.535 3.42298 2.10226 0
M  V30 2322 N 231.741 2.74658 0.949271 0
M  V30 2323 H 231.288 2.57501 0.0715173 0
M  V30 2324 H 231.246 2.57739 1.80049 0
M  V30 2325 N 235.018 0.912232 1.28515 0
M  V30 2326 C 236.267 0.540504 1.94323 0
M  V30 2327 C 236.58 -0.920044 1.72611 0
M  V30 2328 O 237.786 -1.39986 2.32629 0
M  V30 2329 C 236.242 0.915803 3.48053 0
M  V30 2330 C 235.85 2.39598 3.78546 0
M  V30 2331 C 237.594 0.614588 4.20027 0
M  V30 2332 C 235.501 2.71148 5.25578 0
M  V30 2333 H 234.431 0.198418 0.727424 0
M  V30 2334 H 237.082 1.11094 1.46049 0
M  V30 2335 H 235.464 0.274168 3.9505 0
M  V30 2336 H 236.638 3.08422 3.42364 0
M  V30 2337 H 234.953 2.66749 3.1974 0
M  V30 2338 H 237.55 0.827002 5.28266 0
M  V30 2339 H 237.893 -0.447531 4.13887 0
M  V30 2340 H 238.426 1.21462 3.78803 0
M  V30 2341 H 235.165 3.76207 5.36794 0
M  V30 2342 H 234.685 2.0696 5.62963 0
M  V30 2343 H 236.364 2.58072 5.93302 0
M  V30 2344 N 236.496 -1.42363 0.676048 0
M  V30 2345 C 237.406 -2.346 -0.00153389 0
M  V30 2346 C 238.422 -1.5516 -0.787485 0
M  V30 2347 O 239.598 -1.87723 -0.729521 0
M  V30 2348 C 236.663 -3.33705 -0.940298 0
M  V30 2349 C 235.724 -4.29042 -0.148739 0
M  V30 2350 C 234.957 -5.23413 -1.04279 0
M  V30 2351 O 235.18 -5.22749 -2.28232 0
M  V30 2352 O 234.114 -5.99795 -0.502925 0
M  V30 2353 H 237.94 -2.94082 0.758268 0
M  V30 2354 H 235.525 -1.42888 0.436289 0
M  V30 2355 H 237.407 -3.94586 -1.47917 0
M  V30 2356 H 236.082 -2.76695 -1.67993 0
M  V30 2357 H 234.989 -3.71571 0.43427 0
M  V30 2358 H 236.322 -4.89097 0.551805 0
M  V30 2359 N 237.974 -0.419461 -1.51915 0
M  V30 2360 C 239.204 0.151915 -2.06041 0
M  V30 2361 C 239.612 1.38539 -1.28855 0
M  V30 2362 O 238.955 1.80592 -0.336463 0
M  V30 2363 C 239.017 0.557119 -3.55157 0
M  V30 2364 C 238.681 -0.567054 -4.53468 0
M  V30 2365 C 239.678 -1.43379 -4.99738 0
M  V30 2366 C 237.363 -0.742693 -4.96779 0
M  V30 2367 C 239.357 -2.46102 -5.87973 0
M  V30 2368 C 237.044 -1.77322 -5.84808 0
M  V30 2369 C 238.042 -2.63078 -6.30301 0
M  V30 2370 O 237.73 -3.64364 -7.16585 0
M  V30 2371 H 237.462 0.0193293 -0.675724 0
M  V30 2372 H 240.016 -0.592073 -1.96682 0
M  V30 2373 H 238.246 1.35355 -3.62238 0
M  V30 2374 H 239.935 1.05759 -3.9188 0
M  V30 2375 H 240.701 -1.30954 -4.66986 0
M  V30 2376 H 236.58 -0.0848307 -4.60922 0
M  V30 2377 H 240.124 -3.13071 -6.23404 0
M  V30 2378 H 236.021 -1.89773 -6.16974 0
M  V30 2379 H 236.789 -3.60731 -7.34721 0
M  V30 2380 N 239.452 1.56882 -0.150215 0
M  V30 2381 C 240.677 2.01027 0.510184 0
M  V30 2382 C 241.102 1.02966 1.57415 0
M  V30 2383 O 240.46 0.00590158 1.81299 0
M  V30 2384 C 240.508 3.43899 1.08472 0
M  V30 2385 O 239.612 3.4885 2.19948 0
M  V30 2386 H 238.953 0.652233 0.124451 0
M  V30 2387 H 241.483 2.03093 -0.247894 0
M  V30 2388 H 241.493 3.82766 1.41259 0
M  V30 2389 H 240.168 4.14776 0.305582 0
M  V30 2390 H 238.745 3.21827 1.88366 0
M  V30 2391 N 240.93 -0.123565 1.57115 0
M  V30 2392 C 242.17 -0.838097 1.86428 0
M  V30 2393 C 242.534 -1.77266 0.737611 0
M  V30 2394 O 243.735 -2.52842 0.912389 0
M  V30 2395 C 242.006 -1.57219 3.20962 0
M  V30 2396 S 243.565 -2.32893 3.71896 0
M  V30 2397 H 240.383 -0.279811 0.653626 0
M  V30 2398 H 242.985 -0.0967034 1.95261 0
M  V30 2399 H 241.689 -0.877522 4.00909 0
M  V30 2400 H 241.22 -2.35405 3.15195 0
M  V30 2401 H 243.235 -3.5853 3.43032 0
M  V30 2402 N 242.408 -1.52605 -0.393616 0
M  V30 2403 C 243.819 -1.59417 -0.971761 0
M  V30 2404 C 244.17 -0.444173 -1.91106 0
M  V30 2405 O 243.295 0.433382 -2.12016 0
M  V30 2406 C 243.89 -2.88936 -1.76921 0
M  V30 2407 C 242.449 -2.98175 -2.29714 0
M  V30 2408 C 241.596 -2.54491 -1.10135 0
M  V30 2409 H 244.547 -1.57751 -0.173317 0
M  V30 2410 H 244.568 -2.75163 -2.62804 0
M  V30 2411 H 244.08 -3.72616 -1.08532 0
M  V30 2412 H 242.181 -2.19024 -3.01429 0
M  V30 2413 H 242.294 -4.02726 -2.59517 0
M  V30 2414 H 240.658 -2.08702 -1.45999 0
M  V30 2415 H 241.441 -3.4056 -0.432874 0
M  V30 2416 N 243.887 0.651787 -1.4349 0
M  V30 2417 C 244.85 1.74647 -1.48429 0
M  V30 2418 C 245.85 1.56513 -0.368817 0
M  V30 2419 O 247.04 1.62385 -0.630623 0
M  V30 2420 C 244.172 3.13533 -1.33827 0
M  V30 2421 H 245.365 1.71649 -2.4592 0
M  V30 2422 H 242.918 0.863573 -1.30277 0
M  V30 2423 H 243.653 3.22142 -0.37349 0
M  V30 2424 H 243.438 3.28101 -2.14691 0
M  V30 2425 H 244.928 3.93356 -1.40218 0
M  V30 2426 N 245.365 1.30045 0.890287 0
M  V30 2427 C 246.593 1.21472 1.67487 0
M  V30 2428 C 247.008 -0.223241 1.87476 0
M  V30 2429 O 246.365 -1.14828 1.41847 0
M  V30 2430 C 246.416 1.93394 3.05419 0
M  V30 2431 O 246.137 3.31576 2.86337 0
M  V30 2432 C 247.638 1.91414 3.99844 0
M  V30 2433 H 244.858 0.420604 0.522813 0
M  V30 2434 H 247.402 1.7158 1.11268 0
M  V30 2435 H 245.557 1.47099 3.58386 0
M  V30 2436 H 245.971 3.67929 3.73802 0
M  V30 2437 H 247.445 2.46285 4.94012 0
M  V30 2438 H 247.922 0.891833 4.3005 0
M  V30 2439 H 248.528 2.37496 3.52811 0
M  V30 2440 N 246.843 -1.10192 1.12674 0
M  V30 2441 C 247.791 -2.18694 0.792196 0
M  V30 2442 C 248.785 -1.67938 -0.222058 0
M  V30 2443 O 249.991 -1.79822 -0.0800074 0
M  V30 2444 H 246.366 -0.713223 0.238364 0
M  V30 2445 H 248.337 -2.44149 1.71564 0
M  V30 2446 C 247.086 -3.46682 0.265859 0
M  V30 2447 H 246.409 -3.86101 1.03761 0
M  V30 2448 H 247.849 -4.23942 0.0701128 0
M  V30 2449 C 246.308 -3.21506 -1.00675 0
M  V30 2450 O 246.838 -3.43408 -2.08408 0
M  V30 2451 N 245.044 -2.75158 -0.934692 0
M  V30 2452 H 244.591 -2.57535 -0.0578604 0
M  V30 2453 H 244.549 -2.58691 -1.7868 0
M  V30 2454 N 248.321 -0.919034 -1.28029 0
M  V30 2455 C 249.231 -0.416756 -2.30869 0
M  V30 2456 C 250.247 0.498235 -1.66714 0
M  V30 2457 O 251.423 0.383144 -1.97722 0
M  V30 2458 C 248.488 0.330274 -3.45123 0
M  V30 2459 C 247.549 -0.618578 -4.2482 0
M  V30 2460 C 246.782 0.0928959 -5.33619 0
M  V30 2461 O 247.005 1.31375 -5.55065 0
M  V30 2462 O 245.939 -0.574499 -5.99152 0
M  V30 2463 H 249.765 -1.27043 -2.75851 0
M  V30 2464 H 247.35 -0.684052 -1.3282 0
M  V30 2465 H 249.232 0.751972 -4.14636 0
M  V30 2466 H 247.907 1.1597 -3.02213 0
M  V30 2467 H 246.814 -1.08978 -3.57875 0
M  V30 2468 H 248.147 -1.41497 -4.71423 0
M  V30 2469 N 249.799 1.42003 -0.683588 0
M  V30 2470 C 251.039 2.03282 -0.213513 0
M  V30 2471 C 251.403 1.52924 1.16097 0
M  V30 2472 O 252.604 2.06048 1.7262 0
M  V30 2473 C 250.875 3.56483 -0.255856 0
M  V30 2474 S 252.434 4.3857 0.14193 0
M  V30 2475 H 249.252 0.705659 -0.0869853 0
M  V30 2476 H 251.854 1.73619 -0.8987 0
M  V30 2477 H 250.558 3.90631 -1.25841 0
M  V30 2478 H 250.089 3.90831 0.448875 0
M  V30 2479 H 252.104 4.76828 1.37295 0
M  V30 2480 N 251.277 0.427512 1.51691 0
M  V30 2481 C 252.187 -0.39527 2.31246 0
M  V30 2482 C 253.203 -1.03674 1.39742 0
M  V30 2483 O 254.379 -1.03425 1.72816 0
M  V30 2484 C 251.444 -1.48706 3.13189 0
M  V30 2485 C 250.505 -0.866743 4.20459 0
M  V30 2486 C 249.738 -1.90651 4.98486 0
M  V30 2487 O 249.961 -3.12733 4.77026 0
M  V30 2488 O 248.895 -1.5025 5.82845 0
M  V30 2489 H 252.721 0.253918 3.02637 0
M  V30 2490 H 250.306 0.190274 1.48183 0
M  V30 2491 H 252.188 -2.12047 3.64162 0
M  V30 2492 H 250.863 -2.12051 2.44573 0
M  V30 2493 H 249.77 -0.195544 3.73589 0
M  V30 2494 H 251.103 -0.276934 4.9142 0
M  V30 2495 N 252.755 -1.56801 0.158532 0
M  V30 2496 C 254.004 -1.95665 -0.489702 0
M  V30 2497 C 254.317 -1.04654 -1.65248 0
M  V30 2498 O 255.523 -1.33146 -2.3661 0
M  V30 2499 C 253.979 -3.47874 -0.922582 0
M  V30 2500 C 253.587 -4.47489 0.213893 0
M  V30 2501 C 255.331 -3.95583 -1.53996 0
M  V30 2502 C 253.238 -5.90921 -0.237903 0
M  V30 2503 H 252.168 -0.730516 -0.186716 0
M  V30 2504 H 254.819 -1.81861 0.244722 0
M  V30 2505 H 253.201 -3.57051 -1.71261 0
M  V30 2506 H 254.375 -4.50017 0.991036 0
M  V30 2507 H 252.69 -4.09764 0.740407 0
M  V30 2508 H 255.287 -5.0019 -1.8898 0
M  V30 2509 H 255.63 -3.37789 -2.43319 0
M  V30 2510 H 256.163 -3.8937 -0.814611 0
M  V30 2511 H 252.902 -6.52559 0.620236 0
M  V30 2512 H 252.422 -5.91729 -0.980676 0
M  V30 2513 H 254.101 -6.43352 -0.686067 0
M  V30 2514 N 254.233 0.115231 -1.57178 0
M  V30 2515 C 255.461 0.836437 -1.89239 0
M  V30 2516 C 255.876 1.73256 -0.750175 0
M  V30 2517 O 255.233 1.80357 0.278832 0
M  V30 2518 C 255.284 1.66671 -3.20785 0
M  V30 2519 O 255.005 0.806652 -4.3061 0
M  V30 2520 C 256.506 2.49274 -3.66575 0
M  V30 2521 H 253.726 0.240253 -0.626514 0
M  V30 2522 H 256.27 0.0984932 -2.04263 0
M  V30 2523 H 254.425 2.35737 -3.0742 0
M  V30 2524 H 254.839 1.37969 -5.06028 0
M  V30 2525 H 256.313 3.03055 -4.6137 0
M  V30 2526 H 256.79 3.26807 -2.93417 0
M  V30 2527 H 257.396 1.85443 -3.82741 0
M  V30 2528 N 255.711 1.52812 0.385517 0
M  V30 2529 C 256.658 1.77838 1.47113 0
M  V30 2530 C 257.628 0.621757 1.54024 0
M  V30 2531 O 258.813 0.861846 1.70226 0
M  V30 2532 C 255.953 1.95618 2.84302 0
M  V30 2533 C 255.066 3.23316 2.86515 0
M  V30 2534 C 254.201 3.31394 4.15152 0
M  V30 2535 C 253.24 4.53201 4.1143 0
M  V30 2536 N 252.377 4.58542 5.3168 0
M  V30 2537 H 257.217 2.70482 1.25073 0
M  V30 2538 H 254.754 1.34006 0.606692 0
M  V30 2539 H 256.712 2.03912 3.63972 0
M  V30 2540 H 255.342 1.06331 3.04784 0
M  V30 2541 H 254.394 3.24076 1.99195 0
M  V30 2542 H 255.706 4.13045 2.79634 0
M  V30 2543 H 254.86 3.3889 5.03228 0
M  V30 2544 H 253.599 2.39645 4.24761 0
M  V30 2545 H 252.604 4.45827 3.21742 0
M  V30 2546 H 253.829 5.46271 4.03442 0
M  V30 2547 H 251.775 3.69686 5.41912 0
M  V30 2548 H 251.692 5.42148 5.26889 0
M  V30 2549 H 252.96 4.70296 6.21644 0
M  V30 2550 N 257.189 -0.644168 1.43834 0
M  V30 2551 C 258.605 -0.960875 1.27434 0
M  V30 2552 C 258.805 -2.00499 0.200618 0
M  V30 2553 O 257.861 -2.49018 -0.417906 0
M  V30 2554 C 259.174 -1.43653 2.64167 0
M  V30 2555 C 260.722 -1.55271 2.71772 0
M  V30 2556 C 261.197 -2.06224 4.08944 0
M  V30 2557 N 262.688 -2.13513 4.11055 0
M  V30 2558 C 263.423 -2.54081 5.14033 0
M  V30 2559 N 262.919 -2.9388 6.27381 0
M  V30 2560 N 264.712 -2.54101 5.01387 0
M  V30 2561 H 256.863 0.0465779 2.12349 0
M  V30 2562 H 259.126 -0.0417638 0.94708 0
M  V30 2563 H 258.832 -0.743706 3.43747 0
M  V30 2564 H 258.706 -2.40993 2.90176 0
M  V30 2565 H 261.093 -2.23653 1.92519 0
M  V30 2566 H 261.174 -0.563395 2.49519 0
M  V30 2567 H 260.818 -1.38441 4.88668 0
M  V30 2568 H 260.748 -3.06003 4.28567 0
M  V30 2569 H 263.239 -1.85493 3.29242 0
M  V30 2570 H 263.552 -3.2361 7.01781 0
M  V30 2571 H 261.897 -2.91663 6.30839 0
M  V30 2572 H 265.088 -2.22391 4.11898 0
M  V30 2573 H 265.261 -2.85394 5.81768 0
M  V30 2574 N 258.668 -1.30515 -0.883378 0
M  V30 2575 C 260.084 -1.08881 -1.16692 0
M  V30 2576 C 260.284 0.149409 -2.00945 0
M  V30 2577 O 259.34 0.84257 -2.38027 0
M  V30 2578 C 260.653 -2.35319 -1.87204 0
M  V30 2579 C 262.201 -2.40799 -1.99962 0
M  V30 2580 C 262.676 -3.67083 -2.73887 0
M  V30 2581 N 264.167 -3.679 -2.81432 0
M  V30 2582 C 264.902 -4.62303 -3.3921 0
M  V30 2583 N 264.398 -5.67052 -3.98025 0
M  V30 2584 N 266.191 -4.49845 -3.3704 0
M  V30 2585 H 258.342 -2.09951 -0.321633 0
M  V30 2586 H 260.605 -0.92556 -0.205043 0
M  V30 2587 H 260.311 -3.25689 -1.3274 0
M  V30 2588 H 260.185 -2.44089 -2.87577 0
M  V30 2589 H 262.572 -1.50907 -2.53597 0
M  V30 2590 H 262.653 -2.36003 -0.98673 0
M  V30 2591 H 262.297 -4.57334 -2.20925 0
M  V30 2592 H 262.227 -3.69141 -3.75556 0
M  V30 2593 H 264.718 -2.92171 -2.39676 0
M  V30 2594 H 265.031 -6.35184 -4.40183 0
M  V30 2595 H 263.376 -5.70842 -3.96439 0
M  V30 2596 H 266.567 -3.67194 -2.90321 0
M  V30 2597 H 266.74 -5.23597 -3.81772 0
M  V30 2598 N 260.146 1.09593 -1.13257 0
M  V30 2599 C 261.562 1.33775 -0.870423 0
M  V30 2600 C 261.762 1.95327 0.494926 0
M  V30 2601 O 260.818 2.19853 1.2418 0
M  V30 2602 C 262.131 2.25106 -1.99369 0
M  V30 2603 C 263.679 2.3862 -2.02558 0
M  V30 2604 C 264.154 3.33285 -3.14142 0
M  V30 2605 N 265.645 3.40857 -3.13641 0
M  V30 2606 C 266.38 4.14101 -3.96621 0
M  V30 2607 N 265.876 4.90157 -4.8961 0
M  V30 2608 N 267.669 4.09808 -3.84726 0
M  V30 2609 H 259.82 0.680136 -2.01216 0
M  V30 2610 H 262.083 0.362133 -0.876107 0
M  V30 2611 H 261.789 1.87103 -2.97801 0
M  V30 2612 H 261.663 3.25481 -1.90635 0
M  V30 2613 H 264.05 2.75887 -1.0474 0
M  V30 2614 H 264.131 1.38028 -2.15364 0
M  V30 2615 H 263.775 2.96741 -4.12198 0
M  V30 2616 H 263.705 4.33776 -2.98574 0
M  V30 2617 H 266.196 2.86624 -2.46282 0
M  V30 2618 H 266.509 5.4347 -5.49418 0
M  V30 2619 H 264.854 4.89251 -4.93617 0
M  V30 2620 H 268.045 3.4949 -3.11408 0
M  V30 2621 H 268.218 4.66629 -4.49623 0
M  V30 2622 N 261.624 0.925811 1.2754 0
M  V30 2623 C 262.571 0.422045 2.26908 0
M  V30 2624 C 263.541 -0.510029 1.58076 0
M  V30 2625 O 264.726 -0.429599 1.85901 0
M  V30 2626 C 261.866 -0.320837 3.43605 0
M  V30 2627 C 260.979 0.64513 4.27156 0
M  V30 2628 C 260.114 -0.117405 5.3107 0
M  V30 2629 C 259.153 0.841391 6.0629 0
M  V30 2630 N 258.29 0.111604 7.02011 0
M  V30 2631 H 263.13 1.27441 2.69375 0
M  V30 2632 H 260.667 0.639697 1.32462 0
M  V30 2633 H 262.625 -0.76785 4.10073 0
M  V30 2634 H 261.255 -1.13745 3.02096 0
M  V30 2635 H 260.307 1.21067 3.6062 0
M  V30 2636 H 261.619 1.37797 4.79389 0
M  V30 2637 H 260.773 -0.624422 6.03478 0
M  V30 2638 H 259.512 -0.883219 4.79636 0
M  V30 2639 H 258.517 1.35967 5.32722 0
M  V30 2640 H 259.742 1.60696 6.59813 0
M  V30 2641 H 257.688 -0.635999 6.5291 0
M  V30 2642 H 257.605 0.784044 7.51923 0
M  V30 2643 H 258.873 -0.374823 7.78598 0
M  V30 2644 N 263.102 -1.41638 0.69111 0
M  V30 2645 C 264.327 -2.06148 0.227583 0
M  V30 2646 C 264.752 -1.51652 -1.11281 0
M  V30 2647 O 264.11 -0.64164 -1.69566 0
M  V30 2648 C 264.158 -3.60095 0.190858 0
M  V30 2649 O 263.262 -4.03845 -0.835664 0
M  V30 2650 H 262.603 -0.654434 0.112306 0
M  V30 2651 H 265.133 -1.81484 0.944714 0
M  V30 2652 H 265.143 -4.07995 0.020207 0
M  V30 2653 H 263.818 -3.99129 1.16915 0
M  V30 2654 H 262.395 -3.67458 -0.63473 0
M  V30 2655 N 264.58 -0.43555 -1.51462 0
M  V30 2656 C 265.82 0.130708 -2.03982 0
M  V30 2657 C 266.184 1.40117 -1.31268 0
M  V30 2658 O 267.385 2.04755 -1.74152 0
M  V30 2659 C 265.656 0.346102 -3.5572 0
M  V30 2660 S 267.215 0.876022 -4.29967 0
M  V30 2661 H 264.033 0.0326881 -0.710248 0
M  V30 2662 H 266.635 -0.594544 -1.8624 0
M  V30 2663 H 265.339 -0.584911 -4.0621 0
M  V30 2664 H 264.87 1.09849 -3.77752 0
M  V30 2665 H 266.885 2.15379 -4.47019 0
M  V30 2666 N 266.058 1.56714 -0.166846 0
M  V30 2667 C 266.99 2.14914 0.796537 0
M  V30 2668 C 268.003 1.10357 1.19688 0
M  V30 2669 O 269.192 1.37561 1.13751 0
M  V30 2670 C 266.292 2.67326 2.08303 0
M  V30 2671 C 265.465 3.96493 1.84696 0
M  V30 2672 C 264.524 4.34014 2.97521 0
M  V30 2673 O 263.55 5.01973 2.6835 0
M  V30 2674 N 264.752 3.95208 4.25196 0
M  V30 2675 H 267.517 2.98205 0.299006 0
M  V30 2676 H 265.078 1.61892 0.0160839 0
M  V30 2677 H 267.07 2.89428 2.82867 0
M  V30 2678 H 265.64 1.88649 2.4926 0
M  V30 2679 H 264.86 3.82814 0.940602 0
M  V30 2680 H 266.148 4.8086 1.66285 0
M  V30 2681 H 265.546 3.40487 4.51758 0
M  V30 2682 H 264.103 4.2232 4.96477 0
M  V30 2683 N 267.536 -0.106894 1.57237 0
M  V30 2684 C 268.499 -1.11466 2.0027 0
M  V30 2685 C 269.499 -1.33623 0.894519 0
M  V30 2686 O 270.689 -1.29935 1.16028 0
M  V30 2687 C 267.821 -2.46646 2.35327 0
M  V30 2688 H 269.014 -0.744516 2.90512 0
M  V30 2689 H 266.567 -0.351576 1.52295 0
M  V30 2690 H 267.302 -2.88558 1.48003 0
M  V30 2691 H 267.087 -2.31915 3.16161 0
M  V30 2692 H 268.577 -3.19151 2.69318 0
M  V30 2693 N 269.014 -1.53014 -0.377408 0
M  V30 2694 C 270.254 -1.70318 -1.1301 0
M  V30 2695 C 270.618 -0.439538 -1.86901 0
M  V30 2696 O 271.819 -0.489095 -2.64313 0
M  V30 2697 C 270.09 -2.91125 -2.07319 0
M  V30 2698 S 271.649 -3.29075 -2.90268 0
M  V30 2699 H 268.467 -0.599426 -0.382374 0
M  V30 2700 H 271.069 -1.91089 -0.412933 0
M  V30 2701 H 269.773 -3.81303 -1.51777 0
M  V30 2702 H 269.304 -2.7272 -2.83526 0
M  V30 2703 H 271.319 -2.80165 -4.09539 0
M  V30 2704 N 270.492 0.636531 -1.44174 0
M  V30 2705 C 271.908 0.954104 -1.27941 0
M  V30 2706 C 272.108 2.0039 -0.211248 0
M  V30 2707 O 271.164 2.49236 0.404695 0
M  V30 2708 C 272.477 1.4225 -2.64925 0
M  V30 2709 C 274.025 1.53827 -2.72592 0
M  V30 2710 C 274.5 2.04053 -4.10032 0
M  V30 2711 N 275.991 2.11331 -4.12182 0
M  V30 2712 C 276.726 2.51352 -5.15374 0
M  V30 2713 N 276.222 2.90549 -6.2893 0
M  V30 2714 N 278.015 2.51438 -5.02728 0
M  V30 2715 H 270.166 -0.0578386 -2.12321 0
M  V30 2716 H 272.429 0.0367406 -0.947288 0
M  V30 2717 H 272.135 0.725466 -3.44136 0
M  V30 2718 H 272.009 2.39451 -2.9145 0
M  V30 2719 H 274.396 2.22628 -1.93702 0
M  V30 2720 H 274.477 0.550154 -2.49814 0
M  V30 2721 H 274.121 1.35848 -4.89395 0
M  V30 2722 H 274.051 3.03726 -4.30184 0
M  V30 2723 H 276.542 1.83745 -3.30222 0
M  V30 2724 H 276.855 3.19884 -7.03487 0
M  V30 2725 H 275.2 2.88313 -6.32377 0
M  V30 2726 H 278.391 2.20203 -4.13072 0
M  V30 2727 H 278.564 2.82304 -5.83274 0
M  V30 2728 N 271.97 1.30982 0.876444 0
M  V30 2729 C 273.217 1.20296 1.62896 0
M  V30 2730 C 273.545 -0.240395 1.93009 0
M  V30 2731 O 272.8 -1.18733 1.55567 0
M  V30 2732 C 273.099 1.98572 2.9716 0
M  V30 2733 C 272.765 3.48125 2.86566 0
M  V30 2734 C 271.427 3.88905 2.83383 0
M  V30 2735 C 273.779 4.43322 2.74071 0
M  V30 2736 C 271.107 5.2316 2.65556 0
M  V30 2737 C 273.459 5.77695 2.57781 0
M  V30 2738 C 272.123 6.17704 2.52979 0
M  V30 2739 H 271.393 0.440193 0.59608 0
M  V30 2740 H 274.04 1.62177 1.01837 0
M  V30 2741 H 272.345 1.49352 3.62217 0
M  V30 2742 H 274.042 1.8769 3.54364 0
M  V30 2743 H 270.632 3.15723 2.89856 0
M  V30 2744 H 274.816 4.12752 2.75589 0
M  V30 2745 H 270.072 5.53241 2.60259 0
M  V30 2746 H 274.246 6.51091 2.47089 0
M  V30 2747 H 271.873 7.21678 2.38924 0
M  V30 2748 N 273.449 -1.08991 1.13837 0
M  V30 2749 C 274.382 -2.15049 0.763477 0
M  V30 2750 C 275.36 -1.60629 -0.252398 0
M  V30 2751 O 276.544 -1.87958 -0.142853 0
M  V30 2752 C 273.671 -3.38441 0.132545 0
M  V30 2753 C 272.717 -4.11596 1.11763 0
M  V30 2754 S 273.55 -4.6521 2.65216 0
M  V30 2755 C 274.706 -5.91896 2.03495 0
M  V30 2756 H 274.939 -2.46518 1.66182 0
M  V30 2757 H 272.472 -1.21008 0.958976 0
M  V30 2758 H 274.43 -4.09883 -0.225074 0
M  V30 2759 H 273.091 -3.05182 -0.743135 0
M  V30 2760 H 272.284 -5.00121 0.624076 0
M  V30 2761 H 271.886 -3.46038 1.41894 0
M  V30 2762 H 274.178 -6.63156 1.38675 0
M  V30 2763 H 275.121 -6.45938 2.9012 0
M  V30 2764 H 275.529 -5.44625 1.48471 0
M  V30 2765 N 274.927 -0.932562 -1.27047 0
M  V30 2766 C 275.874 -0.434072 -2.26681 0
M  V30 2767 C 276.844 0.501639 -1.58344 0
M  V30 2768 O 278.029 0.419734 -1.86126 0
M  V30 2769 C 275.169 0.30261 -3.43771 0
M  V30 2770 C 274.282 -0.667774 -4.26808 0
M  V30 2771 C 273.417 0.0892393 -5.31125 0
M  V30 2772 C 272.456 -0.873532 -6.05835 0
M  V30 2773 N 271.593 -0.148832 -7.01942 0
M  V30 2774 H 276.433 -1.28868 -2.68695 0
M  V30 2775 H 273.97 -0.646713 -1.32121 0
M  V30 2776 H 275.928 0.746092 -4.10474 0
M  V30 2777 H 274.558 1.12142 -3.02695 0
M  V30 2778 H 273.61 -1.22978 -3.59973 0
M  V30 2779 H 274.922 -1.40337 -4.78651 0
M  V30 2780 H 274.076 0.592409 -6.03801 0
M  V30 2781 H 272.815 0.85777 -4.80097 0
M  V30 2782 H 271.82 -1.38791 -5.31994 0
M  V30 2783 H 273.045 -1.64193 -6.58952 0
M  V30 2784 H 270.991 0.601365 -6.53238 0
M  V30 2785 H 270.908 -0.82391 -7.51497 0
M  V30 2786 H 272.176 0.333527 -7.78786 0
M  V30 2787 N 276.405 1.4127 -0.698611 0
M  V30 2788 C 277.645 2.03044 -0.235062 0
M  V30 2789 C 278.009 1.54146 1.14468 0
M  V30 2790 O 279.21 2.07867 1.70425 0
M  V30 2791 C 277.481 3.56192 -0.293651 0
M  V30 2792 S 279.04 4.38696 0.0954053 0
M  V30 2793 H 275.858 0.704697 -0.0944648 0
M  V30 2794 H 278.46 1.72656 -0.917064 0
M  V30 2795 H 277.164 3.89274 -1.29977 0
M  V30 2796 H 276.695 3.91285 0.407397 0
M  V30 2797 H 278.71 4.78257 1.3223 0
M  V30 2798 N 277.883 0.443576 1.51229 0
M  V30 2799 C 278.813 -0.355142 2.30783 0
M  V30 2800 C 279.794 -1.0154 1.36468 0
M  V30 2801 O 280.979 -1.01785 1.65389 0
M  V30 2802 C 278.109 -1.45312 3.15439 0
M  V30 2803 C 277.063 -0.916002 4.18083 0
M  V30 2804 C 276.389 -2.1102 4.91299 0
M  V30 2805 C 277.689 0.0538602 5.22272 0
M  V30 2806 H 279.383 0.308767 2.97804 0
M  V30 2807 H 276.929 0.149937 1.43217 0
M  V30 2808 H 278.882 -2.01914 3.69876 0
M  V30 2809 H 277.606 -2.14541 2.46252 0
M  V30 2810 H 276.265 -0.372145 3.64706 0
M  V30 2811 H 275.913 -2.78882 4.18609 0
M  V30 2812 H 275.613 -1.75717 5.60712 0
M  V30 2813 H 277.137 -2.68164 5.48562 0
M  V30 2814 H 278.551 -0.422069 5.71744 0
M  V30 2815 H 276.948 0.319776 5.99247 0
M  V30 2816 H 278.018 0.98858 4.74716 0
M  V30 2817 N 279.361 -1.56624 0.175154 0
M  V30 2818 C 280.308 -2.18149 -0.753634 0
M  V30 2819 C 281.278 -1.12265 -1.22417 0
M  V30 2820 O 282.463 -1.40432 -1.29165 0
M  V30 2821 C 279.603 -2.82933 -1.97592 0
M  V30 2822 C 278.716 -4.03289 -1.5486 0
M  V30 2823 C 277.851 -4.55988 -2.72485 0
M  V30 2824 C 276.89 -5.68746 -2.26262 0
M  V30 2825 N 276.027 -6.15938 -3.36994 0
M  V30 2826 H 280.867 -2.9717 -0.222195 0
M  V30 2827 H 278.404 -1.46774 -0.0979422 0
M  V30 2828 H 280.362 -3.18653 -2.69288 0
M  V30 2829 H 278.992 -2.06509 -2.481 0
M  V30 2830 H 278.044 -3.73364 -0.728246 0
M  V30 2831 H 279.356 -4.849 -1.16933 0
M  V30 2832 H 278.51 -4.9391 -3.52332 0
M  V30 2833 H 277.249 -3.73443 -3.13674 0
M  V30 2834 H 276.254 -5.30372 -1.44863 0
M  V30 2835 H 277.479 -6.53095 -1.86127 0
M  V30 2836 H 275.425 -5.36321 -3.77751 0
M  V30 2837 H 275.342 -6.92548 -3.03172 0
M  V30 2838 H 276.61 -6.58511 -4.17114 0
M  V30 2839 N 280.839 0.0985539 -1.57292 0
M  V30 2840 C 282.085 0.803867 -1.86188 0
M  V30 2841 C 282.418 1.78549 -0.763794 0
M  V30 2842 O 281.693 1.93153 0.22855 0
M  V30 2843 C 281.976 1.53568 -3.25713 0
M  V30 2844 C 281.829 0.572277 -4.46145 0
M  V30 2845 C 283.148 2.48708 -3.63087 0
M  V30 2846 H 280.267 0.290781 -0.677211 0
M  V30 2847 H 282.909 0.0675783 -1.8988 0
M  V30 2848 H 281.059 2.16332 -3.22696 0
M  V30 2849 H 282.731 -0.0480894 -4.61275 0
M  V30 2850 H 280.974 -0.114618 -4.33649 0
M  V30 2851 H 281.645 1.12139 -5.40489 0
M  V30 2852 H 284.121 1.96039 -3.67026 0
M  V30 2853 H 282.997 2.96932 -4.61652 0
M  V30 2854 H 283.258 3.32309 -2.91588 0
M  V30 2855 N 282.317 1.53212 0.369288 0
M  V30 2856 C 283.565 1.68881 1.11012 0
M  V30 2857 C 283.886 0.441285 1.89941 0
M  V30 2858 O 283.156 -0.544623 1.88177 0
M  V30 2859 H 281.736 0.622569 0.412816 0
M  V30 2860 H 284.398 1.90391 0.416802 0
M  V30 2861 H 283.494 2.54822 1.80201 0
M  V30 2862 N 283.795 -0.628877 1.44509 0
M  V30 2863 C 284.728 -1.75367 1.46019 0
M  V30 2864 C 285.706 -1.59444 0.318787 0
M  V30 2865 O 286.89 -1.81297 0.516099 0
M  V30 2866 C 284.017 -3.12965 1.29501 0
M  V30 2867 C 283.063 -3.47532 2.47233 0
M  V30 2868 S 283.896 -3.44758 4.09758 0
M  V30 2869 C 285.052 -4.84973 3.95667 0
M  V30 2870 H 285.285 -1.7382 2.41193 0
M  V30 2871 H 282.818 -0.803686 1.31834 0
M  V30 2872 H 284.776 -3.92367 1.20658 0
M  V30 2873 H 283.437 -3.12049 0.358341 0
M  V30 2874 H 282.63 -4.47664 2.31544 0
M  V30 2875 H 282.232 -2.75598 2.52828 0
M  V30 2876 H 284.524 -5.74255 3.59496 0
M  V30 2877 H 285.467 -5.05716 4.95638 0
M  V30 2878 H 285.875 -4.59653 3.27688 0
M  V30 2879 N 285.273 -1.31445 -0.869486 0
M  V30 2880 C 286.203 -1.21727 -1.99261 0
M  V30 2881 C 287.184 -0.104359 -1.6978 0
M  V30 2882 O 288.369 -0.289038 -1.92037 0
M  V30 2883 C 285.499 -0.924317 -3.34774 0
M  V30 2884 C 284.453 -1.99685 -3.78563 0
M  V30 2885 C 283.779 -1.55658 -5.11541 0
M  V30 2886 C 285.079 -3.41003 -3.95619 0
M  V30 2887 H 286.773 -2.1569 -2.07649 0
M  V30 2888 H 284.319 -1.03839 -0.997675 0
M  V30 2889 H 286.272 -0.842934 -4.12883 0
M  V30 2890 H 284.996 0.0509793 -3.2656 0
M  V30 2891 H 283.655 -2.06813 -3.02694 0
M  V30 2892 H 283.303 -0.569132 -4.9977 0
M  V30 2893 H 283.003 -2.27409 -5.41811 0
M  V30 2894 H 284.527 -1.48928 -5.92159 0
M  V30 2895 H 285.941 -3.36547 -4.64122 0
M  V30 2896 H 284.338 -4.10975 -4.37286 0
M  V30 2897 H 285.408 -3.81754 -2.98985 0
M  V30 2898 N 286.751 1.08385 -1.14413 0
M  V30 2899 C 287.698 2.15311 -0.831265 0
M  V30 2900 C 288.668 1.64751 0.211292 0
M  V30 2901 O 289.853 1.90627 0.0811674 0
M  V30 2902 C 286.993 3.43658 -0.315143 0
M  V30 2903 C 286.106 4.08064 -1.41802 0
M  V30 2904 C 285.241 5.24207 -0.859126 0
M  V30 2905 C 284.28 5.80554 -1.93967 0
M  V30 2906 N 283.417 6.88042 -1.39793 0
M  V30 2907 H 288.257 2.41415 -1.74708 0
M  V30 2908 H 285.794 1.18474 -0.871909 0
M  V30 2909 H 287.752 4.172 0.00230884 0
M  V30 2910 H 286.382 3.17839 0.56378 0
M  V30 2911 H 285.434 3.3228 -1.85187 0
M  V30 2912 H 286.746 4.45962 -2.23427 0
M  V30 2913 H 285.9 6.04689 -0.49359 0
M  V30 2914 H 284.639 4.87699 -0.011932 0
M  V30 2915 H 283.644 4.98725 -2.31415 0
M  V30 2916 H 284.869 6.19121 -2.79046 0
M  V30 2917 H 282.815 6.53493 -0.572919 0
M  V30 2918 H 282.732 7.24767 -2.15054 0
M  V30 2919 H 284 7.72255 -1.0603 0
M  V30 2920 N 288.23 0.939286 1.26551 0
M  V30 2921 C 289.14 0.453432 2.30176 0
M  V30 2922 C 290.156 -0.471649 1.67486 0
M  V30 2923 O 291.332 -0.35164 1.98306 0
M  V30 2924 C 288.397 -0.275326 3.45605 0
M  V30 2925 C 287.458 0.686084 4.23782 0
M  V30 2926 C 286.691 -0.00798994 5.33699 0
M  V30 2927 O 286.914 -1.22528 5.57085 0
M  V30 2928 O 285.848 0.669746 5.98162 0
M  V30 2929 H 289.674 1.31416 2.73795 0
M  V30 2930 H 287.259 0.705095 1.31715 0
M  V30 2931 H 289.141 -0.685911 4.1578 0
M  V30 2932 H 287.816 -1.11147 3.0402 0
M  V30 2933 H 286.723 1.14658 3.56096 0
M  V30 2934 H 288.056 1.48979 4.69112 0
M  V30 2935 N 289.708 -1.40897 0.706093 0
M  V30 2936 C 290.956 -2.00657 0.241054 0
M  V30 2937 C 291.277 -1.56241 -1.16678 0
M  V30 2938 O 290.547 -0.79765 -1.78926 0
M  V30 2939 H 289.127 -0.742018 0.0861308 0
M  V30 2940 H 291.789 -1.72372 0.909604 0
M  V30 2941 H 290.885 -3.10958 0.266705 0
M  V30 2942 N 291.186 -0.45159 -1.50991 0
M  V30 2943 C 292.432 0.110237 -2.025 0
M  V30 2944 C 292.765 1.41109 -1.33424 0
M  V30 2945 O 292.04 1.89135 -0.453659 0
M  V30 2946 C 292.323 0.314271 -3.58726 0
M  V30 2947 C 292.176 -1.00623 -4.38401 0
M  V30 2948 C 293.495 1.07767 -4.26702 0
M  V30 2949 H 290.614 0.0385897 -0.735989 0
M  V30 2950 H 293.256 -0.593374 -1.80497 0
M  V30 2951 H 291.406 0.913601 -3.77605 0
M  V30 2952 H 293.078 -1.64064 -4.31139 0
M  V30 2953 H 291.321 -1.6075 -4.02917 0
M  V30 2954 H 291.992 -0.817341 -5.45915 0
M  V30 2955 H 294.468 0.56986 -4.12179 0
M  V30 2956 H 293.344 1.18921 -5.35863 0
M  V30 2957 H 293.605 2.10939 -3.88532 0
M  V30 2958 N 292.664 1.56529 -0.183458 0
M  V30 2959 C 294.08 1.58664 0.172554 0
M  V30 2960 C 294.28 1.19925 1.61926 0
M  V30 2961 O 293.336 0.916534 2.35278 0
M  V30 2962 C 294.649 3.00463 -0.119262 0
M  V30 2963 C 296.197 3.12945 -0.0584396 0
M  V30 2964 C 296.672 4.56857 -0.323408 0
M  V30 2965 N 298.163 4.62403 -0.271612 0
M  V30 2966 C 298.898 5.71626 -0.450639 0
M  V30 2967 N 298.394 6.89362 -0.689384 0
M  V30 2968 N 300.187 5.60775 -0.385701 0
M  V30 2969 H 292.338 1.79994 -1.12765 0
M  V30 2970 H 294.601 0.834808 -0.449222 0
M  V30 2971 H 294.307 3.33326 -1.12192 0
M  V30 2972 H 294.181 3.72659 0.583544 0
M  V30 2973 H 296.568 2.79902 0.934805 0
M  V30 2974 H 296.649 2.4316 -0.794144 0
M  V30 2975 H 296.293 4.9061 -1.31392 0
M  V30 2976 H 296.223 5.24816 0.43305 0
M  V30 2977 H 298.714 3.77785 -0.0932256 0
M  V30 2978 H 299.027 7.68489 -0.815113 0
M  V30 2979 H 297.372 6.91196 -0.726142 0
M  V30 2980 H 300.563 4.67674 -0.199687 0
M  V30 2981 H 300.736 6.4584 -0.528646 0
M  V30 2982 N 294.142 -0.090211 1.57342 0
M  V30 2983 C 295.072 -1.10976 2.05443 0
M  V30 2984 C 296.053 -1.41482 0.944284 0
M  V30 2985 O 297.238 -1.51428 1.21586 0
M  V30 2986 C 294.368 -2.42831 2.48295 0
M  V30 2987 C 293.322 -2.26721 3.63018 0
M  V30 2988 C 292.648 -3.63796 3.91863 0
M  V30 2989 C 293.948 -1.7037 4.93732 0
M  V30 2990 H 295.642 -0.709564 2.9087 0
M  V30 2991 H 293.188 -0.339874 1.39932 0
M  V30 2992 H 295.141 -3.14431 2.80555 0
M  V30 2993 H 293.865 -2.84795 1.59873 0
M  V30 2994 H 292.524 -1.57565 3.31012 0
M  V30 2995 H 292.172 -4.03297 3.00601 0
M  V30 2996 H 291.872 -3.53861 4.69101 0
M  V30 2997 H 293.396 -4.36855 4.26603 0
M  V30 2998 H 294.81 -2.31816 5.24342 0
M  V30 2999 H 293.207 -1.71181 5.75167 0
M  V30 3000 H 294.277 -0.663542 4.80339 0
M  V30 3001 N 295.62 -1.53406 -0.361157 0
M  V30 3002 C 296.897 -1.60411 -1.11927 0
M  V30 3003 C 297.277 -0.414385 -2.06993 0
M  V30 3004 O 296.625 0.594976 -2.20618 0
M  V30 3005 C 296.835 -2.95652 -1.85448 0
M  V30 3006 C 298.183 -3.50386 -2.39823 0
M  V30 3007 O 299.207 -2.97711 -1.95568 0
M  V30 3008 O 298.066 -4.42482 -3.20737 0
M  V30 3009 H 295.16 -0.64811 -0.513695 0
M  V30 3010 H 297.706 -1.65749 -0.364065 0
M  V30 3011 H 296.478 -3.73682 -1.16091 0
M  V30 3012 H 296.101 -2.93825 -2.67866 0
M  V30 3013 N 297.098 0.621204 -1.44841 0
M  V30 3014 C 298.514 0.94048 -1.28946 0
M  V30 3015 C 298.714 2.00154 -0.23249 0
M  V30 3016 O 297.77 2.49651 0.378237 0
M  V30 3017 C 299.083 1.39433 -2.66419 0
M  V30 3018 C 300.631 1.50927 -2.74208 0
M  V30 3019 C 301.106 1.99692 -4.12174 0
M  V30 3020 N 302.597 2.06947 -4.144 0
M  V30 3021 C 303.332 2.45871 -5.1801 0
M  V30 3022 N 302.828 2.83862 -6.31977 0
M  V30 3023 N 304.621 2.46092 -5.05366 0
M  V30 3024 H 296.772 -0.0803548 -2.12248 0
M  V30 3025 H 299.035 0.0266913 -0.947624 0
M  V30 3026 H 298.741 0.688925 -3.44887 0
M  V30 3027 H 298.615 2.36347 -2.93973 0
M  V30 3028 H 301.002 2.20561 -1.96053 0
M  V30 3029 H 301.083 0.523627 -2.50383 0
M  V30 3030 H 300.727 1.30649 -4.90809 0
M  V30 3031 H 300.657 2.99146 -4.33381 0
M  V30 3032 H 303.148 1.80232 -3.32152 0
M  V30 3033 H 303.461 3.12405 -7.0684 0
M  V30 3034 H 301.806 2.8159 -6.35399 0
M  V30 3035 H 304.997 2.1581 -4.15384 0
M  V30 3036 H 305.17 2.76102 -5.86235 0
M  V30 3037 N 298.576 1.31904 0.862503 0
M  V30 3038 C 299.822 1.22197 1.61851 0
M  V30 3039 C 300.155 -0.217641 1.92977 0
M  V30 3040 O 299.43 -1.15264 1.56666 0
M  V30 3041 C 299.713 2.07378 2.94391 0
M  V30 3042 C 299.566 3.59678 2.70096 0
M  V30 3043 C 300.885 1.92891 3.95577 0
M  V30 3044 H 298.004 0.445255 0.587296 0
M  V30 3045 H 300.646 1.6177 0.99651 0
M  V30 3046 H 298.796 1.73758 3.47477 0
M  V30 3047 H 300.468 4.03472 2.23625 0
M  V30 3048 H 298.711 3.82735 2.04197 0
M  V30 3049 H 299.382 4.14595 3.64438 0
M  V30 3050 H 301.858 2.22327 3.51724 0
M  V30 3051 H 300.734 2.54781 4.86187 0
M  V30 3052 H 300.995 0.894315 4.3296 0
M  V30 3053 N 300.054 -1.07777 1.14986 0
M  V30 3054 C 301.47 -1.32373 0.891596 0
M  V30 3055 C 301.67 -1.9609 -0.463788 0
M  V30 3056 O 300.726 -2.21801 -1.20667 0
M  V30 3057 C 302.039 -2.21905 2.02925 0
M  V30 3058 C 303.587 -2.35367 2.06329 0
M  V30 3059 C 304.062 -3.28245 3.19405 0
M  V30 3060 N 305.553 -3.35824 3.19024 0
M  V30 3061 C 306.288 -4.07739 4.03158 0
M  V30 3062 N 305.784 -4.82306 4.97346 0
M  V30 3063 N 307.577 -4.03635 3.91197 0
M  V30 3064 H 299.728 -0.648039 2.02273 0
M  V30 3065 H 301.991 -0.348149 0.881757 0
M  V30 3066 H 301.697 -1.82342 3.0074 0
M  V30 3067 H 301.571 -3.22407 1.95789 0
M  V30 3068 H 303.958 -2.74186 1.09116 0
M  V30 3069 H 304.039 -1.34585 2.17533 0
M  V30 3070 H 303.683 -2.90146 4.16867 0
M  V30 3071 H 303.613 -4.28971 3.05437 0
M  V30 3072 H 306.104 -2.8267 2.50811 0
M  V30 3073 H 306.417 -5.34661 5.57994 0
M  V30 3074 H 304.762 -4.81337 5.01338 0
M  V30 3075 H 307.953 -3.44491 3.16928 0
M  V30 3076 H 308.126 -4.59417 4.5699 0
M  V30 3077 N 301.532 -0.945985 -1.26051 0
M  V30 3078 C 302.78 -0.594941 -1.93145 0
M  V30 3079 C 303.101 0.86953 -1.7454 0
M  V30 3080 O 302.371 1.61838 -1.10387 0
M  V30 3081 H 300.951 -0.217044 -0.714773 0
M  V30 3082 H 303.613 -1.20235 -1.53393 0
M  V30 3083 H 302.709 -0.816835 -3.01221 0
M  V30 3084 N 303.011 1.40521 -0.713556 0
M  V30 3085 C 304.259 2.00527 -0.251692 0
M  V30 3086 C 304.58 1.56857 1.15848 0
M  V30 3087 O 303.85 0.807127 1.785 0
M  V30 3088 H 302.43 0.741551 -0.0900646 0
M  V30 3089 H 305.092 1.71887 -0.918733 0
M  V30 3090 H 304.188 3.10813 -0.283192 0
M  V30 3091 N 304.489 0.459591 1.5075 0
M  V30 3092 C 305.905 0.113092 1.59199 0
M  V30 3093 C 306.105 -1.37951 1.46874 0
M  V30 3094 O 305.161 -2.15168 1.32132 0
M  V30 3095 C 306.474 0.653043 2.93523 0
M  V30 3096 C 308.022 0.615449 3.0689 0
M  V30 3097 C 308.497 1.13275 4.43771 0
M  V30 3098 N 309.988 1.09167 4.50152 0
M  V30 3099 C 310.723 1.46256 5.54434 0
M  V30 3100 N 310.219 1.90739 6.66026 0
M  V30 3101 N 312.012 1.37932 5.44914 0
M  V30 3102 H 304.163 1.43049 1.57005 0
M  V30 3103 H 306.426 0.590861 0.741341 0
M  V30 3104 H 306.132 1.69822 3.07983 0
M  V30 3105 H 306.006 0.0902132 3.77092 0
M  V30 3106 H 308.393 -0.420793 2.92084 0
M  V30 3107 H 308.474 1.21495 2.25106 0
M  V30 3108 H 308.118 2.16757 4.59324 0
M  V30 3109 H 308.048 0.509576 5.24129 0
M  V30 3110 H 310.539 0.76528 3.7007 0
M  V30 3111 H 310.852 2.17218 7.41644 0
M  V30 3112 H 309.197 1.94683 6.67176 0
M  V30 3113 H 312.388 1.0303 4.56621 0
M  V30 3114 H 312.561 1.67164 6.26067 0
M  V30 3115 N 305.967 -1.56429 0.191757 0
M  V30 3116 C 306.899 -2.16154 -0.762245 0
M  V30 3117 C 307.912 -1.12247 -1.17917 0
M  V30 3118 O 309.101 -1.39353 -1.11548 0
M  V30 3119 C 306.201 -2.70606 -2.04024 0
M  V30 3120 C 305.374 -3.99381 -1.78364 0
M  V30 3121 C 304.433 -4.38692 -2.90578 0
M  V30 3122 O 303.459 -5.06179 -2.6033 0
M  V30 3123 N 304.661 -4.01922 -4.18854 0
M  V30 3124 H 307.426 -2.98643 -0.251526 0
M  V30 3125 H 304.987 -1.61897 0.00967373 0
M  V30 3126 H 306.979 -2.93891 -2.78227 0
M  V30 3127 H 305.549 -1.9259 -2.46227 0
M  V30 3128 H 304.769 -3.84262 -0.879581 0
M  V30 3129 H 306.057 -4.83445 -1.58614 0
M  V30 3130 H 305.455 -3.47631 -4.46283 0
M  V30 3131 H 304.012 -4.30165 -4.89695 0
M  V30 3132 N 307.445 0.0818655 -1.57387 0
M  V30 3133 C 308.392 1.09834 -2.0299 0
M  V30 3134 C 309.362 1.39043 -0.908639 0
M  V30 3135 O 310.547 1.50282 -1.17559 0
M  V30 3136 C 307.687 2.40971 -2.47037 0
M  V30 3137 C 306.8 2.18379 -3.7274 0
M  V30 3138 C 305.935 3.43008 -4.0561 0
M  V30 3139 C 304.974 3.15736 -5.24383 0
M  V30 3140 N 304.111 4.32667 -5.52941 0
M  V30 3141 H 308.951 0.702472 -2.89602 0
M  V30 3142 H 306.488 0.33531 -1.43227 0
M  V30 3143 H 308.446 3.1752 -2.70623 0
M  V30 3144 H 307.076 2.78379 -1.63417 0
M  V30 3145 H 306.128 1.32569 -3.56552 0
M  V30 3146 H 307.44 1.94227 -4.59431 0
M  V30 3147 H 306.594 4.27958 -4.30043 0
M  V30 3148 H 305.333 3.70225 -3.17466 0
M  V30 3149 H 304.338 2.2918 -4.99757 0
M  V30 3150 H 305.563 2.8985 -6.14136 0
M  V30 3151 H 303.509 4.59935 -4.67756 0
M  V30 3152 H 303.426 4.11753 -6.34031 0
M  V30 3153 H 304.694 5.18644 -5.81918 0
M  V30 3154 N 308.923 1.53595 0.353017 0
M  V30 3155 C 310.153 1.74058 1.11299 0
M  V30 3156 C 310.561 0.475205 1.83135 0
M  V30 3157 O 309.904 -0.562344 1.74881 0
M  V30 3158 C 309.966 2.85994 2.17825 0
M  V30 3159 C 309.63 4.25923 1.65647 0
M  V30 3160 C 310.627 5.07829 1.11383 0
M  V30 3161 C 308.312 4.72377 1.7078 0
M  V30 3162 C 310.306 6.34285 0.629439 0
M  V30 3163 C 307.993 5.98808 1.21953 0
M  V30 3164 C 308.991 6.79594 0.681265 0
M  V30 3165 O 308.679 8.03651 0.200248 0
M  V30 3166 H 308.411 0.585327 0.338183 0
M  V30 3167 H 310.965 2.01186 0.413927 0
M  V30 3168 H 309.195 2.54368 2.91262 0
M  V30 3169 H 310.884 2.94515 2.79313 0
M  V30 3170 H 311.65 4.73107 1.06746 0
M  V30 3171 H 307.529 4.0956 2.11617 0
M  V30 3172 H 311.073 6.97288 0.208636 0
M  V30 3173 H 306.97 6.33026 1.26287 0
M  V30 3174 H 307.738 8.1788 0.318416 0
M  V30 3175 N 310.401 -0.613514 1.45168 0
M  V30 3176 C 311.348 -1.72456 1.53387 0
M  V30 3177 C 312.318 -1.6169 0.380191 0
M  V30 3178 O 313.503 -1.81356 0.592836 0
M  V30 3179 C 310.643 -3.10753 1.50088 0
M  V30 3180 C 309.756 -3.32368 2.75963 0
M  V30 3181 C 308.891 -4.60737 2.64376 0
M  V30 3182 C 307.93 -4.7559 3.85332 0
M  V30 3183 N 307.067 -5.95253 3.72315 0
M  V30 3184 H 311.907 -1.64768 2.48305 0
M  V30 3185 H 309.444 -0.803503 1.23216 0
M  V30 3186 H 311.402 -3.90758 1.46164 0
M  V30 3187 H 310.032 -3.17413 0.587243 0
M  V30 3188 H 309.084 -2.4618 2.89999 0
M  V30 3189 H 310.396 -3.39218 3.65695 0
M  V30 3190 H 309.55 -5.48928 2.58385 0
M  V30 3191 H 308.289 -4.56275 1.72233 0
M  V30 3192 H 307.294 -3.85824 3.91688 0
M  V30 3193 H 308.519 -4.81854 4.78533 0
M  V30 3194 H 306.465 -5.91847 2.82937 0
M  V30 3195 H 306.382 -6.03236 4.55677 0
M  V30 3196 H 307.65 -6.85958 3.70246 0
M  V30 3197 N 311.879 -1.3236 -0.855495 0
M  V30 3198 C 313.295 -1.11332 -1.14356 0
M  V30 3199 C 313.495 0.106751 -2.01217 0
M  V30 3200 O 312.551 0.791891 -2.39761 0
M  V30 3201 C 313.864 -2.39237 -1.82171 0
M  V30 3202 C 315.412 -2.44986 -1.9481 0
M  V30 3203 C 315.887 -3.7281 -2.66039 0
M  V30 3204 N 317.378 -3.73787 -2.73565 0
M  V30 3205 C 318.113 -4.69394 -3.29327 0
M  V30 3206 N 317.609 -5.75367 -3.85907 0
M  V30 3207 N 319.402 -4.56893 -3.27423 0
M  V30 3208 H 311.553 -2.10586 -0.277027 0
M  V30 3209 H 313.816 -0.929701 -0.185364 0
M  V30 3210 H 313.522 -3.28431 -1.25802 0
M  V30 3211 H 313.396 -2.50134 -2.82335 0
M  V30 3212 H 315.783 -1.56252 -2.50338 0
M  V30 3213 H 315.864 -2.38043 -0.936448 0
M  V30 3214 H 315.508 -4.61918 -2.11174 0
M  V30 3215 H 315.438 -3.77024 -3.67642 0
M  V30 3216 H 317.929 -2.97189 -2.33424 0
M  V30 3217 H 318.242 -6.44378 -4.26611 0
M  V30 3218 H 316.587 -5.79123 -3.84242 0
M  V30 3219 H 319.778 -3.73269 -2.82467 0
M  V30 3220 H 319.951 -5.31577 -3.7058 0
M  V30 3221 N 313.357 1.07166 -1.15556 0
M  V30 3222 C 314.773 1.31899 -0.898603 0
M  V30 3223 C 314.973 1.96333 0.453383 0
M  V30 3224 O 314.029 2.22438 1.19489 0
M  V30 3225 C 315.342 2.20826 -2.04099 0
M  V30 3226 C 316.89 2.34269 -2.07574 0
M  V30 3227 C 317.365 3.26546 -3.21141 0
M  V30 3228 N 318.856 3.34127 -3.20801 0
M  V30 3229 C 319.591 4.05595 -4.05315 0
M  V30 3230 N 319.087 4.79661 -4.99897 0
M  V30 3231 N 320.88 4.01555 -3.93332 0
M  V30 3232 H 313.031 0.637302 -2.02613 0
M  V30 3233 H 315.294 0.343468 -0.883591 0
M  V30 3234 H 315 1.80744 -3.01703 0
M  V30 3235 H 314.874 3.21364 -1.97496 0
M  V30 3236 H 317.261 2.73603 -1.10568 0
M  V30 3237 H 317.342 1.33429 -2.18244 0
M  V30 3238 H 316.986 2.87931 -4.184 0
M  V30 3239 H 316.916 4.27345 -3.07708 0
M  V30 3240 H 319.407 2.81336 -2.52306 0
M  V30 3241 H 319.72 5.31694 -5.60822 0
M  V30 3242 H 318.065 4.78671 -5.03884 0
M  V30 3243 H 321.256 3.42806 -3.18751 0
M  V30 3244 H 321.429 4.56987 -4.5942 0
M  V30 3245 N 314.835 0.952656 1.25548 0
M  V30 3246 C 316.084 0.602053 1.92505 0
M  V30 3247 C 316.397 -0.864663 1.75451 0
M  V30 3248 O 317.603 -1.32514 2.36965 0
M  V30 3249 C 316.059 1.02607 3.44963 0
M  V30 3250 C 315.667 2.51519 3.70732 0
M  V30 3251 C 317.411 0.747905 4.1786 0
M  V30 3252 C 315.318 2.87732 5.16686 0
M  V30 3253 H 314.248 0.22146 0.720744 0
M  V30 3254 H 316.899 1.15684 1.42441 0
M  V30 3255 H 315.281 0.399712 3.93978 0
M  V30 3256 H 316.455 3.19157 3.32378 0
M  V30 3257 H 314.77 2.76786 3.11092 0
M  V30 3258 H 317.367 0.994647 5.25367 0
M  V30 3259 H 317.71 -0.315629 4.15102 0
M  V30 3260 H 318.243 1.33452 3.74747 0
M  V30 3261 H 314.982 3.93095 5.24554 0
M  V30 3262 H 314.502 2.24765 5.56094 0
M  V30 3263 H 316.181 2.76817 5.84792 0
M  V30 3264 N 316.313 -1.40141 0.720998 0
M  V30 3265 C 317.59 -1.94677 0.189757 0
M  V30 3266 C 317.97 -1.65879 -1.30566 0
M  V30 3267 O 317.318 -0.979391 -2.06447 0
M  V30 3268 C 317.528 -3.45279 0.508304 0
M  V30 3269 C 318.876 -4.22209 0.449934 0
M  V30 3270 O 319.9 -3.53413 0.444677 0
M  V30 3271 O 318.759 -5.44788 0.432189 0
M  V30 3272 H 315.853 -0.826459 0.0299026 0
M  V30 3273 H 318.399 -1.49719 0.7989 0
M  V30 3274 H 317.171 -3.59619 1.54239 0
M  V30 3275 H 316.794 -3.97386 -0.130525 0
M  V30 3276 N 317.792 -0.46758 -1.50504 0
M  V30 3277 C 318.755 0.317059 -2.26996 0
M  V30 3278 C 319.755 0.923513 -1.31635 0
M  V30 3279 O 320.945 0.793239 -1.55091 0
M  V30 3280 C 318.077 1.45134 -3.08462 0
M  V30 3281 H 319.27 -0.353723 -2.97807 0
M  V30 3282 H 316.823 -0.221545 -1.54722 0
M  V30 3283 H 317.558 2.15728 -2.4214 0
M  V30 3284 H 317.343 1.02232 -3.78538 0
M  V30 3285 H 318.833 2.00493 -3.66323 0
M  V30 3286 N 319.27 1.56325 -0.20005 0
M  V30 3287 C 320.18 2.22931 0.730668 0
M  V30 3288 C 321.196 1.22997 1.23076 0
M  V30 3289 O 322.372 1.55748 1.27689 0
M  V30 3290 C 319.437 2.87948 1.93098 0
M  V30 3291 C 318.498 4.03166 1.47497 0
M  V30 3292 C 317.731 4.65073 2.61807 0
M  V30 3293 O 317.954 4.25913 3.79413 0
M  V30 3294 O 316.888 5.54452 2.34237 0
M  V30 3295 H 320.714 3.03084 0.193391 0
M  V30 3296 H 318.299 1.49371 0.0294621 0
M  V30 3297 H 320.181 3.29063 2.6324 0
M  V30 3298 H 318.856 2.10771 2.45677 0
M  V30 3299 H 317.763 3.66664 0.742201 0
M  V30 3300 H 319.096 4.82022 0.995796 0
M  V30 3301 N 320.748 -0.0735177 1.57428 0
M  V30 3302 C 321.696 -1.10628 2.04607 0
M  V30 3303 C 322.69 -1.40181 0.951088 0
M  V30 3304 O 323.896 -1.39608 1.1362 0
M  V30 3305 H 320.271 -0.374088 0.652351 0
M  V30 3306 H 322.242 -0.682218 2.90497 0
M  V30 3307 C 320.991 -2.41212 2.50423 0
M  V30 3308 H 320.314 -2.19322 3.34272 0
M  V30 3309 H 321.754 -3.11927 2.87189 0
M  V30 3310 C 320.213 -3.0705 1.38644 0
M  V30 3311 O 320.743 -3.95056 0.727582 0
M  V30 3312 N 318.949 -2.67645 1.132 0
M  V30 3313 H 318.496 -1.96169 1.66959 0
M  V30 3314 H 318.454 -3.1202 0.386147 0
M  V30 3315 N 322.226 -1.5378 -0.344866 0
M  V30 3316 C 323.451 -1.75211 -1.10977 0
M  V30 3317 C 323.876 -0.48936 -1.81623 0
M  V30 3318 O 323.234 0.557925 -1.72502 0
M  V30 3319 C 323.282 -2.93147 -2.09993 0
M  V30 3320 O 322.386 -2.63203 -3.17487 0
M  V30 3321 H 321.727 -0.581241 -0.321021 0
M  V30 3322 H 324.257 -2.00738 -0.395661 0
M  V30 3323 H 324.267 -3.19898 -2.53237 0
M  V30 3324 H 322.942 -3.84731 -1.5797 0
M  V30 3325 H 321.519 -2.47336 -2.79069 0
M  V30 3326 N 323.704 0.605807 -1.45491 0
M  V30 3327 C 325.115 1.18777 -1.44045 0
M  V30 3328 C 325.466 1.95471 -0.169001 0
M  V30 3329 O 324.591 2.0374 0.729324 0
M  V30 3330 C 325.186 2.16064 -2.60963 0
M  V30 3331 C 323.745 2.69633 -2.62631 0
M  V30 3332 C 322.892 1.45072 -2.36325 0
M  V30 3333 H 325.843 0.395017 -1.53705 0
M  V30 3334 H 325.864 2.9913 -2.35163 0
M  V30 3335 H 325.376 1.60217 -3.53486 0
M  V30 3336 H 323.477 3.29414 -1.74119 0
M  V30 3337 H 323.59 3.13944 -3.61906 0
M  V30 3338 H 321.954 1.74089 -1.85917 0
M  V30 3339 H 322.737 0.910899 -3.30995 0
M  V30 3340 N 325.182 1.32811 0.848464 0
M  V30 3341 C 326.412 1.26556 1.63301 0
M  V30 3342 C 326.82 -0.1676 1.88456 0
M  V30 3343 O 326.163 -1.11713 1.45828 0
M  V30 3344 C 326.225 1.96202 3.01239 0
M  V30 3345 C 325.889 3.45528 2.99098 0
M  V30 3346 C 326.886 4.40903 2.75501 0
M  V30 3347 C 324.571 3.87558 3.19537 0
M  V30 3348 C 326.565 5.76282 2.72356 0
M  V30 3349 C 324.252 5.23044 3.16019 0
M  V30 3350 C 325.25 6.17217 2.92458 0
M  V30 3351 O 324.938 7.50223 2.88825 0
M  V30 3352 H 324.67 0.43771 0.515156 0
M  V30 3353 H 327.224 1.7559 1.0657 0
M  V30 3354 H 325.454 1.41746 3.59785 0
M  V30 3355 H 327.143 1.83573 3.62016 0
M  V30 3356 H 327.909 4.09756 2.5947 0
M  V30 3357 H 323.788 3.14674 3.369 0
M  V30 3358 H 327.332 6.4976 2.53886 0
M  V30 3359 H 323.229 5.53818 3.31596 0
M  V30 3360 H 323.997 7.59657 3.04735 0
M  V30 3361 N 326.66 -1.06551 1.16123 0
M  V30 3362 C 327.59 -2.15935 0.88851 0
M  V30 3363 C 328.571 -1.69306 -0.164135 0
M  V30 3364 O 329.756 -1.94193 -0.0167857 0
M  V30 3365 C 326.886 -3.45149 0.385942 0
M  V30 3366 C 325.84 -4.05271 1.3762 0
M  V30 3367 C 325.166 -5.29664 0.732137 0
M  V30 3368 C 326.466 -4.44355 2.74493 0
M  V30 3369 H 328.16 -2.39006 1.80323 0
M  V30 3370 H 325.706 -1.14866 0.868435 0
M  V30 3371 H 327.659 -4.21004 0.182647 0
M  V30 3372 H 326.383 -3.21689 -0.564274 0
M  V30 3373 H 325.042 -3.3147 1.56599 0
M  V30 3374 H 324.69 -5.02499 -0.224483 0
M  V30 3375 H 324.39 -5.70848 1.39307 0
M  V30 3376 H 325.914 -6.08218 0.538802 0
M  V30 3377 H 327.328 -5.11303 2.59311 0
M  V30 3378 H 325.725 -4.96515 3.37035 0
M  V30 3379 H 326.795 -3.55339 3.29943 0
M  V30 3380 N 328.138 -0.959301 -1.25041 0
M  V30 3381 C 329.086 -0.474437 -2.2771 0
M  V30 3382 C 330.08 0.457697 -1.631 0
M  V30 3383 O 331.286 0.333912 -1.76876 0
M  V30 3384 H 327.661 -0.134936 -0.739795 0
M  V30 3385 H 329.632 -1.35251 -2.65988 0
M  V30 3386 C 328.381 0.227884 -3.46952 0
M  V30 3387 H 327.704 -0.480248 -3.96905 0
M  V30 3388 H 329.144 0.531091 -4.20661 0
M  V30 3389 C 327.603 1.452 -3.04004 0
M  V30 3390 O 328.133 2.54949 -3.10426 0
M  V30 3391 N 326.339 1.31502 -2.59144 0
M  V30 3392 H 325.886 0.422065 -2.54119 0
M  V30 3393 H 325.844 2.13521 -2.30773 0
M  V30 3394 N 329.616 1.39756 -0.72842 0
M  V30 3395 C 331.027 1.83498 -0.344289 0
M  V30 3396 C 331.378 1.60868 1.12321 0
M  V30 3397 O 330.503 1.09634 1.86573 0
M  V30 3398 C 331.098 3.33114 -0.618112 0
M  V30 3399 C 329.657 3.753 -0.287549 0
M  V30 3400 C 328.804 2.62831 -0.884048 0
M  V30 3401 H 331.755 1.28842 -0.926578 0
M  V30 3402 H 331.776 3.80334 0.112349 0
M  V30 3403 H 331.288 3.49553 -1.68625 0
M  V30 3404 H 329.389 3.64451 0.775012 0
M  V30 3405 H 329.502 4.72945 -0.765512 0
M  V30 3406 H 327.866 2.52792 -0.311149 0
M  V30 3407 H 328.649 2.82078 -1.95671 0
M  V30 3408 N 331.094 0.475555 1.50254 0
M  V30 3409 C 332.026 -0.352649 2.26471 0
M  V30 3410 C 333.039 -0.953165 1.3198 0
M  V30 3411 O 334.228 -0.840815 1.57457 0
M  V30 3412 C 331.328 -1.50902 3.0345 0
M  V30 3413 C 330.501 -1.02047 4.25329 0
M  V30 3414 C 329.56 -2.05142 4.84565 0
M  V30 3415 O 328.586 -1.63023 5.45355 0
M  V30 3416 N 329.788 -3.37987 4.71959 0
M  V30 3417 H 332.553 0.300767 2.98187 0
M  V30 3418 H 330.114 0.306598 1.5897 0
M  V30 3419 H 332.106 -2.19572 3.39956 0
M  V30 3420 H 330.676 -2.06705 2.34504 0
M  V30 3421 H 329.896 -0.159507 3.93877 0
M  V30 3422 H 331.184 -0.672061 5.04342 0
M  V30 3423 H 330.582 -3.74913 4.23623 0
M  V30 3424 H 329.139 -4.02443 5.12721 0
M  V30 3425 N 332.573 -1.56217 0.208337 0
M  V30 3426 C 333.503 -2.22694 -0.702116 0
M  V30 3427 C 334.484 -1.19432 -1.2112 0
M  V30 3428 O 335.669 -1.47978 -1.25762 0
M  V30 3429 C 332.799 -2.8966 -1.9161 0
M  V30 3430 C 331.753 -3.9928 -1.5414 0
M  V30 3431 C 331.079 -4.53476 -2.83308 0
M  V30 3432 C 332.379 -5.17012 -0.741339 0
M  V30 3433 H 334.073 -2.99034 -0.147898 0
M  V30 3434 H 331.619 -1.43831 -0.0696951 0
M  V30 3435 H 333.572 -3.34852 -2.55836 0
M  V30 3436 H 332.296 -2.10746 -2.49507 0
M  V30 3437 H 330.955 -3.54799 -0.922668 0
M  V30 3438 H 330.603 -3.71308 -3.39322 0
M  V30 3439 H 330.303 -5.27451 -2.58976 0
M  V30 3440 H 331.827 -5.01378 -3.485 0
M  V30 3441 H 333.241 -5.58667 -1.28699 0
M  V30 3442 H 331.638 -5.97137 -0.595627 0
M  V30 3443 H 332.708 -4.8423 0.254851 0
M  V30 3444 N 334.051 0.0651679 -1.57465 0
M  V30 3445 C 335.297 0.764193 -1.87851 0
M  V30 3446 C 335.63 1.76889 -0.801495 0
M  V30 3447 O 334.905 1.93594 0.187528 0
M  V30 3448 C 335.188 1.46625 -3.28897 0
M  V30 3449 C 335.041 0.477515 -4.47258 0
M  V30 3450 C 336.36 2.4095 -3.68281 0
M  V30 3451 H 333.479 0.276351 -0.683227 0
M  V30 3452 H 336.121 0.0272868 -1.8998 0
M  V30 3453 H 334.271 2.09438 -3.27212 0
M  V30 3454 H 335.943 -0.145922 -4.61069 0
M  V30 3455 H 334.186 -0.206576 -4.33308 0
M  V30 3456 H 334.857 1.0065 -5.42746 0
M  V30 3457 H 337.333 1.88209 -3.71102 0
M  V30 3458 H 336.209 2.87072 -4.67847 0
M  V30 3459 H 336.47 3.26049 -2.98571 0
M  V30 3460 N 335.529 1.53961 0.336706 0
M  V30 3461 C 336.461 1.78751 1.4346 0
M  V30 3462 C 337.474 0.669019 1.48418 0
M  V30 3463 O 338.663 0.945884 1.51378 0
M  V30 3464 C 335.763 1.87844 2.82078 0
M  V30 3465 C 334.936 3.17854 3.00479 0
M  V30 3466 C 333.995 3.17816 4.19379 0
M  V30 3467 O 333.021 3.91511 4.13168 0
M  V30 3468 N 334.223 2.40669 5.2826 0
M  V30 3469 H 336.988 2.73493 1.22563 0
M  V30 3470 H 334.549 1.53096 0.526625 0
M  V30 3471 H 336.541 1.85261 3.59806 0
M  V30 3472 H 335.111 1.00257 2.96086 0
M  V30 3473 H 334.331 3.33504 2.10163 0
M  V30 3474 H 335.619 4.03718 3.0966 0
M  V30 3475 H 335.017 1.8036 5.36178 0
M  V30 3476 H 333.574 2.43877 6.04456 0
M  V30 3477 N 337.007 -0.598083 1.45811 0
M  V30 3478 C 338.418 -1.18011 1.44673 0
M  V30 3479 C 338.769 -1.95378 0.179364 0
M  V30 3480 O 337.894 -2.04124 -0.718509 0
M  V30 3481 C 338.489 -2.14677 2.62105 0
M  V30 3482 C 337.048 -2.68236 2.64057 0
M  V30 3483 C 336.195 -1.43816 2.37091 0
M  V30 3484 H 339.146 -0.38686 1.53913 0
M  V30 3485 H 339.167 -2.97878 2.36746 0
M  V30 3486 H 338.679 -1.5834 3.5433 0
M  V30 3487 H 336.78 -3.28486 1.75864 0
M  V30 3488 H 336.893 -3.12021 3.63566 0
M  V30 3489 H 335.257 -1.731 1.86838 0
M  V30 3490 H 336.04 -0.893333 3.31473 0
M  V30 3491 N 338.485 -1.33259 -0.841409 0
M  V30 3492 C 339.448 -1.23221 -1.9326 0
M  V30 3493 C 340.448 -0.151895 -1.60081 0
M  V30 3494 O 341.638 -0.403246 -1.69468 0
M  V30 3495 C 338.77 -0.898123 -3.28856 0
M  V30 3496 H 339.963 -2.2021 -2.03587 0
M  V30 3497 H 337.516 -1.17281 -1.03319 0
M  V30 3498 H 338.251 0.0693841 -3.24226 0
M  V30 3499 H 338.036 -1.67934 -3.54317 0
M  V30 3500 H 339.526 -0.852563 -4.08805 0
M  V30 3501 N 339.963 1.05934 -1.16686 0
M  V30 3502 C 340.91 2.13499 -0.876748 0
M  V30 3503 C 341.88 1.65162 0.176299 0
M  V30 3504 O 343.065 1.90757 0.0407143 0
M  V30 3505 C 340.205 3.42912 -0.387967 0
M  V30 3506 C 339.318 4.04964 -1.50426 0
M  V30 3507 C 338.453 5.22266 -0.970125 0
M  V30 3508 C 337.492 5.76309 -2.06238 0
M  V30 3509 N 336.629 6.84922 -1.54356 0
M  V30 3510 H 341.469 2.37654 -1.7979 0
M  V30 3511 H 339.006 1.16598 -0.896843 0
M  V30 3512 H 340.964 4.17111 -0.086186 0
M  V30 3513 H 339.594 3.18963 0.496235 0
M  V30 3514 H 338.646 3.28277 -1.92193 0
M  V30 3515 H 339.958 4.41122 -2.32836 0
M  V30 3516 H 339.112 6.03506 -0.621743 0
M  V30 3517 H 337.851 4.87564 -0.115377 0
M  V30 3518 H 336.856 4.93704 -2.41942 0
M  V30 3519 H 338.081 6.13062 -2.92115 0
M  V30 3520 H 336.027 6.52131 -0.711406 0
M  V30 3521 H 335.944 7.20043 -2.30379 0
M  V30 3522 H 337.212 7.69832 -1.22387 0
M  V30 3523 N 341.441 0.965919 1.2453 0
M  V30 3524 C 342.388 0.49402 2.25451 0
M  V30 3525 C 343.358 -0.45948 1.59618 0
M  V30 3526 O 344.543 -0.370238 1.87173 0
M  V30 3527 C 341.683 -0.211359 3.44452 0
M  V30 3528 C 340.796 0.7807 4.24887 0
M  V30 3529 C 339.931 0.0516105 5.31175 0
M  V30 3530 C 338.97 1.03385 6.03306 0
M  V30 3531 N 338.107 0.334887 7.01301 0
M  V30 3532 H 342.947 1.35946 2.65184 0
M  V30 3533 H 340.484 0.681515 1.3036 0
M  V30 3534 H 342.442 -0.637 4.12308 0
M  V30 3535 H 341.072 -1.04077 3.05562 0
M  V30 3536 H 340.124 1.32479 3.56586 0
M  V30 3537 H 341.436 1.52978 4.74762 0
M  V30 3538 H 340.59 -0.432114 6.05159 0
M  V30 3539 H 339.329 -0.730179 4.82203 0
M  V30 3540 H 338.334 1.52847 5.28127 0
M  V30 3541 H 339.559 1.81606 6.54367 0
M  V30 3542 H 337.505 -0.427959 6.54603 0
M  V30 3543 H 337.422 1.02287 7.49048 0
M  V30 3544 H 338.69 -0.126928 7.79397 0
M  V30 3545 N 342.919 -1.39368 0.735821 0
M  V30 3546 C 344.33 -1.83313 0.354015 0
M  V30 3547 C 344.681 -1.61461 -1.11466 0
M  V30 3548 O 343.806 -1.10621 -1.85989 0
M  V30 3549 C 344.401 -3.32781 0.635769 0
M  V30 3550 C 342.96 -3.75142 0.307448 0
M  V30 3551 C 342.107 -2.62358 0.897974 0
M  V30 3552 H 345.058 -1.28349 0.933398 0
M  V30 3553 H 345.079 -3.80388 -0.0921773 0
M  V30 3554 H 344.591 -3.48654 1.70476 0
M  V30 3555 H 342.692 -3.64857 -0.755674 0
M  V30 3556 H 342.805 -4.72532 0.790583 0
M  V30 3557 H 341.169 -2.52624 0.324551 0
M  V30 3558 H 341.952 -2.81036 1.97164 0
M  V30 3559 N 344.397 -0.483516 -1.5 0
M  V30 3560 C 345.627 0.0643896 -2.065 0
M  V30 3561 C 346.035 1.32949 -1.34615 0
M  V30 3562 O 345.378 1.79003 -0.412756 0
M  V30 3563 C 345.44 0.405983 -3.572 0
M  V30 3564 C 345.104 -0.758875 -4.50655 0
M  V30 3565 C 346.101 -1.64445 -4.93208 0
M  V30 3566 C 343.786 -0.952725 -4.93182 0
M  V30 3567 C 345.78 -2.70818 -5.77006 0
M  V30 3568 C 343.467 -2.01966 -5.76761 0
M  V30 3569 C 344.465 -2.89574 -6.18576 0
M  V30 3570 O 344.153 -3.94429 -7.00486 0
M  V30 3571 H 343.885 -0.00934786 -0.675935 0
M  V30 3572 H 346.439 -0.674959 -1.93993 0
M  V30 3573 H 344.669 1.19869 -3.67652 0
M  V30 3574 H 346.358 0.890433 -3.96013 0
M  V30 3575 H 347.124 -1.50643 -4.61012 0
M  V30 3576 H 343.003 -0.280247 -4.60147 0
M  V30 3577 H 346.547 -3.3923 -6.09565 0
M  V30 3578 H 342.444 -2.1577 -6.0837 0
M  V30 3579 H 343.212 -3.91568 -7.1876 0
M  V30 3580 N 345.875 1.56104 -0.216619 0
M  V30 3581 C 346.823 2.21434 0.712036 0
M  V30 3582 C 347.817 1.19218 1.20348 0
M  V30 3583 O 349.023 1.3731 1.16387 0
M  V30 3584 H 345.398 0.70992 0.248026 0
M  V30 3585 H 347.369 2.98083 0.137558 0
M  V30 3586 C 346.118 2.90434 1.91163 0
M  V30 3587 H 345.441 3.68842 1.54258 0
M  V30 3588 H 346.881 3.39552 2.5393 0
M  V30 3589 C 345.34 1.92635 2.76394 0
M  V30 3590 O 345.87 1.44017 3.74996 0
M  V30 3591 N 344.076 1.60392 2.42328 0
M  V30 3592 H 343.623 2.00122 1.622 0
M  V30 3593 H 343.581 0.952159 2.99635 0
M  V30 3594 N 347.353 -0.0568162 1.57498 0
M  V30 3595 C 348.3 -1.06591 2.04712 0
M  V30 3596 C 349.27 -1.3758 0.930644 0
M  V30 3597 O 350.455 -1.48392 1.19935 0
M  V30 3598 C 347.595 -2.3701 2.50839 0
M  V30 3599 C 346.708 -2.12421 3.76167 0
M  V30 3600 C 345.843 -3.36511 4.11015 0
M  V30 3601 C 344.882 -3.07353 5.2934 0
M  V30 3602 N 344.019 -4.23816 5.59754 0
M  V30 3603 H 348.859 -0.65631 2.90683 0
M  V30 3604 H 346.396 -0.312481 1.43743 0
M  V30 3605 H 348.354 -3.13175 2.7564 0
M  V30 3606 H 346.984 -2.75744 1.67825 0
M  V30 3607 H 346.036 -1.2688 3.58616 0
M  V30 3608 H 347.348 -1.86894 4.62463 0
M  V30 3609 H 346.502 -4.21062 4.36797 0
M  V30 3610 H 345.241 -3.65128 3.23315 0
M  V30 3611 H 344.246 -2.212 5.03339 0
M  V30 3612 H 345.471 -2.80043 6.1867 0
M  V30 3613 H 343.417 -4.52436 4.75014 0
M  V30 3614 H 343.334 -4.01614 6.40501 0
M  V30 3615 H 344.602 -5.0932 5.90096 0
M  V30 3616 N 348.832 -1.54138 -0.328536 0
M  V30 3617 C 350.081 -1.71318 -1.06456 0
M  V30 3618 C 350.394 -0.491109 -1.89334 0
M  V30 3619 O 351.6 -0.54416 -2.65991 0
M  V30 3620 C 350.056 -3.03 -1.94214 0
M  V30 3621 C 349.664 -4.32595 -1.16471 0
M  V30 3622 C 351.408 -3.29544 -2.67583 0
M  V30 3623 C 349.315 -5.55341 -2.03347 0
M  V30 3624 H 348.245 -0.638429 -0.401155 0
M  V30 3625 H 350.896 -1.80633 -0.323106 0
M  V30 3626 H 349.278 -2.87579 -2.72239 0
M  V30 3627 H 350.452 -4.58766 -0.432525 0
M  V30 3628 H 348.767 -4.12777 -0.548063 0
M  V30 3629 H 351.364 -4.18444 -3.3288 0
M  V30 3630 H 351.707 -2.47206 -3.34955 0
M  V30 3631 H 352.24 -3.45809 -1.96623 0
M  V30 3632 H 348.979 -6.40268 -1.40491 0
M  V30 3633 H 348.499 -5.33397 -2.74313 0
M  V30 3634 H 350.178 -5.91557 -2.62049 0
M  V30 3635 N 350.31 0.590341 -1.46126 0
M  V30 3636 C 351.556 1.35082 -1.51264 0
M  V30 3637 C 351.889 1.93534 -0.160711 0
M  V30 3638 O 351.164 1.76045 0.826956 0
M  V30 3639 C 351.447 2.48588 -2.6053 0
M  V30 3640 C 351.3 1.95221 -4.05227 0
M  V30 3641 C 352.619 3.50662 -2.6594 0
M  V30 3642 H 349.738 0.489803 -0.550692 0
M  V30 3643 H 352.38 0.663887 -1.78024 0
M  V30 3644 H 350.53 3.07186 -2.37843 0
M  V30 3645 H 352.202 1.41139 -4.39178 0
M  V30 3646 H 350.445 1.26101 -4.15068 0
M  V30 3647 H 351.116 2.77121 -4.77397 0
M  V30 3648 H 353.592 3.01934 -2.86313 0
M  V30 3649 H 352.468 4.27551 -3.44226 0
M  V30 3650 H 352.729 4.07399 -1.71694 0
M  V30 3651 N 351.788 1.33704 0.83433 0
M  V30 3652 C 353.013 1.28615 1.62705 0
M  V30 3653 C 353.438 -0.139242 1.87584 0
M  V30 3654 O 352.796 -1.09734 1.4432 0
M  V30 3655 C 352.844 2.07139 2.95171 0
M  V30 3656 O 351.948 1.4331 3.86699 0
M  V30 3657 H 351.289 0.44226 0.49528 0
M  V30 3658 H 353.819 1.76335 1.03766 0
M  V30 3659 H 353.829 2.18073 3.44831 0
M  V30 3660 H 352.504 3.10779 2.76386 0
M  V30 3661 H 351.081 1.4105 3.45195 0
M  V30 3662 N 353.266 -1.05314 1.17247 0
M  V30 3663 C 354.216 -2.11313 0.856196 0
M  V30 3664 C 355.2 -1.60013 -0.168694 0
M  V30 3665 O 356.392 -1.76968 0.0335624 0
M  V30 3666 C 353.521 -3.41301 0.369917 0
M  V30 3667 C 352.607 -3.99401 1.42616 0
M  V30 3668 N 352.998 -4.31481 2.63928 0
M  V30 3669 C 351.296 -4.27126 1.28373 0
M  V30 3670 C 351.997 -4.77799 3.31787 0
M  V30 3671 N 350.973 -4.77843 2.59166 0
M  V30 3672 H 354.775 -2.33976 1.77856 0
M  V30 3673 H 352.289 -1.2295 1.06099 0
M  V30 3674 H 354.286 -4.16713 0.124897 0
M  V30 3675 H 352.946 -3.20072 -0.546253 0
M  V30 3676 H 353.957 -4.21519 3.00902 0
M  V30 3677 H 350.634 -4.15289 0.429111 0
M  V30 3678 H 352.024 -5.11743 4.35395 0
M  V30 3679 N 354.744 -0.972509 -1.24016 0
M  V30 3680 C 355.674 -0.525548 -2.27509 0
M  V30 3681 C 356.655 0.437262 -1.64384 0
M  V30 3682 O 357.84 0.332343 -1.91335 0
M  V30 3683 C 354.97 0.180448 -3.46831 0
M  V30 3684 C 353.924 -0.698859 -4.22256 0
M  V30 3685 C 353.25 0.138903 -5.3452 0
M  V30 3686 C 354.55 -1.98582 -4.83076 0
M  V30 3687 H 356.244 -1.39058 -2.65148 0
M  V30 3688 H 353.79 -0.67009 -1.27459 0
M  V30 3689 H 355.743 0.504387 -4.18371 0
M  V30 3690 H 354.467 1.07987 -3.08231 0
M  V30 3691 H 353.126 -1.00614 -3.52523 0
M  V30 3692 H 352.774 1.03862 -4.9216 0
M  V30 3693 H 352.474 -0.446259 -5.85903 0
M  V30 3694 H 353.998 0.457404 -6.08884 0
M  V30 3695 H 355.412 -1.72715 -5.46665 0
M  V30 3696 H 353.809 -2.5181 -5.44713 0
M  V30 3697 H 354.879 -2.67769 -4.04262 0
M  V30 3698 N 356.222 1.38976 -0.743202 0
M  V30 3699 C 357.152 2.33171 -0.123873 0
M  V30 3700 C 358.133 1.54336 0.71516 0
M  V30 3701 O 359.318 1.82696 0.658467 0
M  V30 3702 C 356.448 3.38474 0.777978 0
M  V30 3703 C 355.402 4.27979 0.0424758 0
M  V30 3704 C 354.728 5.2405 1.06189 0
M  V30 3705 C 356.028 5.10155 -1.1198 0
M  V30 3706 H 357.722 2.85213 -0.910709 0
M  V30 3707 H 355.268 1.37133 -0.439388 0
M  V30 3708 H 357.221 4.03328 1.22084 0
M  V30 3709 H 355.945 2.84891 1.59702 0
M  V30 3710 H 354.604 3.64616 -0.380853 0
M  V30 3711 H 354.252 4.66758 1.87472 0
M  V30 3712 H 353.952 5.84785 0.574485 0
M  V30 3713 H 355.476 5.9178 1.50428 0
M  V30 3714 H 356.89 5.68307 -0.75499 0
M  V30 3715 H 355.287 5.80073 -1.53738 0
M  V30 3716 H 356.357 4.44504 -1.93764 0
M  V30 3717 N 357.7 0.491464 1.49741 0
M  V30 3718 C 358.946 -0.0565092 2.02721 0
M  V30 3719 C 359.279 -1.37522 1.37118 0
M  V30 3720 O 358.554 -1.87866 0.503645 0
M  V30 3721 C 358.837 -0.219051 3.59433 0
M  V30 3722 C 358.69 1.12211 4.35579 0
M  V30 3723 C 360.009 -0.964157 4.29409 0
M  V30 3724 H 357.128 -0.0190627 0.736753 0
M  V30 3725 H 359.77 0.641021 1.7886 0
M  V30 3726 H 357.92 -0.813165 3.79895 0
M  V30 3727 H 359.592 1.75437 4.26637 0
M  V30 3728 H 357.835 1.71377 3.98513 0
M  V30 3729 H 358.506 0.961794 5.43556 0
M  V30 3730 H 360.982 -0.460378 4.13545 0
M  V30 3731 H 359.858 -1.04671 5.38828 0
M  V30 3732 H 360.119 -2.00563 3.93988 0
M  V30 3733 N 359.178 -1.55987 0.224894 0
M  V30 3734 C 360.141 -2.19178 -0.670348 0
M  V30 3735 C 361.141 -1.15461 -1.11917 0
M  V30 3736 O 362.331 -1.40675 -1.02743 0
M  V30 3737 C 359.463 -2.81777 -1.9187 0
M  V30 3738 H 360.656 -2.99662 -0.119364 0
M  V30 3739 H 358.209 -1.5628 -0.0247128 0
M  V30 3740 H 358.944 -2.05172 -2.51147 0
M  V30 3741 H 358.729 -3.57732 -1.60531 0
M  V30 3742 H 360.219 -3.30205 -2.55645 0
M  V30 3743 N 360.656 0.0484629 -1.57525 0
M  V30 3744 C 361.566 1.07241 -2.08654 0
M  V30 3745 C 362.582 1.409 -1.02095 0
M  V30 3746 O 363.758 1.50609 -1.33712 0
M  V30 3747 C 360.823 2.36008 -2.5397 0
M  V30 3748 C 359.884 2.09108 -3.7493 0
M  V30 3749 C 359.117 3.31736 -4.18075 0
M  V30 3750 O 359.34 4.41714 -3.60895 0
M  V30 3751 O 358.274 3.18576 -5.10679 0
M  V30 3752 H 362.1 0.667965 -2.96263 0
M  V30 3753 H 359.685 0.26417 -1.47046 0
M  V30 3754 H 361.567 3.11747 -2.83535 0
M  V30 3755 H 360.242 2.75786 -1.69481 0
M  V30 3756 H 359.149 1.31 -3.50414 0
M  V30 3757 H 360.482 1.74198 -4.60343 0
M  V30 3758 N 362.134 1.5431 0.320358 0
M  V30 3759 C 363.545 1.63872 0.894594 0
M  V30 3760 C 363.896 0.534847 1.88769 0
M  V30 3761 O 363.021 -0.331732 2.13842 0
M  V30 3762 C 363.616 2.97049 1.62934 0
M  V30 3763 C 362.175 3.08796 2.15226 0
M  V30 3764 C 361.322 2.59456 0.978671 0
M  V30 3765 H 364.273 1.58398 0.0978544 0
M  V30 3766 H 364.294 2.87388 2.49376 0
M  V30 3767 H 363.806 3.7737 0.906302 0
M  V30 3768 H 361.907 2.33156 2.90636 0
M  V30 3769 H 362.02 4.14649 2.40006 0
M  V30 3770 H 360.384 2.1543 1.35875 0
M  V30 3771 H 361.167 3.42237 0.269895 0
M  V30 3772 N 363.613 -0.582584 1.46437 0
M  V30 3773 C 364.523 -1.71949 1.59595 0
M  V30 3774 C 365.539 -1.67264 0.479443 0
M  V30 3775 O 366.715 -1.87171 0.743579 0
M  V30 3776 C 363.78 -3.08452 1.58298 0
M  V30 3777 C 362.841 -3.244 2.81182 0
M  V30 3778 C 362.074 -4.54391 2.79937 0
M  V30 3779 O 362.297 -5.38287 1.8869 0
M  V30 3780 O 361.231 -4.73588 3.71481 0
M  V30 3781 H 365.057 -1.63795 2.55744 0
M  V30 3782 H 362.642 -0.749643 1.29231 0
M  V30 3783 H 364.524 -3.89732 1.60271 0
M  V30 3784 H 363.199 -3.17043 0.653094 0
M  V30 3785 H 362.106 -2.42613 2.84763 0
M  V30 3786 H 363.439 -3.20699 3.7338 0
M  V30 3787 N 365.091 -1.34144 -0.827227 0
M  V30 3788 C 366.038 -1.25364 -1.93785 0
M  V30 3789 C 367.008 -0.129774 -1.65592 0
M  V30 3790 O 368.193 -0.310024 -1.88264 0
M  V30 3791 C 365.333 -1.01064 -3.2997 0
M  V30 3792 C 364.446 -2.22185 -3.70484 0
M  V30 3793 C 363.581 -1.91203 -4.95595 0
M  V30 3794 C 362.62 -3.08491 -5.28677 0
M  V30 3795 N 361.757 -2.77421 -6.44967 0
M  V30 3796 H 366.597 -2.20347 -2.00627 0
M  V30 3797 H 364.134 -1.09558 -0.981608 0
M  V30 3798 H 366.092 -0.850139 -4.08446 0
M  V30 3799 H 364.722 -0.0975026 -3.22653 0
M  V30 3800 H 363.774 -2.4917 -2.87434 0
M  V30 3801 H 365.086 -3.0983 -3.90905 0
M  V30 3802 H 364.24 -1.71864 -5.81848 0
M  V30 3803 H 362.979 -1.00812 -4.77167 0
M  V30 3804 H 361.984 -3.28431 -4.40923 0
M  V30 3805 H 363.209 -3.99655 -5.49047 0
M  V30 3806 H 361.155 -1.89601 -6.28003 0
M  V30 3807 H 361.072 -3.58598 -6.6554 0
M  V30 3808 H 362.34 -2.61577 -7.34301 0
M  V30 3809 N 366.569 1.04691 -1.17803 0
M  V30 3810 C 367.818 1.77176 -0.963931 0
M  V30 3811 C 368.131 1.88888 0.508015 0
M  V30 3812 O 369.337 2.58164 0.840465 0
M  V30 3813 C 367.793 3.18518 -1.67555 0
M  V30 3814 C 367.401 3.14919 -3.18637 0
M  V30 3815 C 369.145 3.95424 -1.54402 0
M  V30 3816 C 367.052 4.51081 -3.82466 0
M  V30 3817 H 365.982 0.664116 -0.357023 0
M  V30 3818 H 368.633 1.17303 -1.4111 0
M  V30 3819 H 367.015 3.78748 -1.15613 0
M  V30 3820 H 368.189 2.64178 -3.77554 0
M  V30 3821 H 366.504 2.51512 -3.31859 0
M  V30 3822 H 369.101 4.96106 -1.99456 0
M  V30 3823 H 369.444 4.13343 -0.495329 0
M  V30 3824 H 369.977 3.41754 -2.0359 0
M  V30 3825 H 366.716 4.38368 -4.87354 0
M  V30 3826 H 366.236 5.01951 -3.28337 0
M  V30 3827 H 367.915 5.2001 -3.84965 0
M  V30 3828 N 368.047 0.979072 1.23499 0
M  V30 3829 C 369.277 0.664237 1.95631 0
M  V30 3830 C 369.685 -0.772653 1.72704 0
M  V30 3831 O 369.028 -1.53141 1.01457 0
M  V30 3832 C 369.09 0.873115 3.48736 0
M  V30 3833 C 368.754 2.29182 3.95379 0
M  V30 3834 C 369.751 3.2704 4.04155 0
M  V30 3835 C 367.436 2.62256 4.28401 0
M  V30 3836 C 369.43 4.56052 4.45304 0
M  V30 3837 C 367.117 3.91491 4.69231 0
M  V30 3838 C 368.115 4.88201 4.77649 0
M  V30 3839 O 367.803 6.15129 5.17563 0
M  V30 3840 H 367.535 0.245915 0.629684 0
M  V30 3841 H 370.089 1.3127 1.57979 0
M  V30 3842 H 368.319 0.167476 3.86337 0
M  V30 3843 H 370.008 0.555642 4.02079 0
M  V30 3844 H 370.774 3.02819 3.78848 0
M  V30 3845 H 366.653 1.87692 4.21061 0
M  V30 3846 H 370.197 5.31538 4.51789 0
M  V30 3847 H 366.094 4.15508 4.93987 0
M  V30 3848 H 366.862 6.18862 5.35679 0
M  V30 3849 N 369.525 -1.3858 0.750561 0
M  V30 3850 C 370.488 -2.28836 0.129152 0
M  V30 3851 C 371.488 -1.47045 -0.650714 0
M  V30 3852 O 372.678 -1.6753 -0.477428 0
M  V30 3853 C 369.81 -3.30751 -0.825622 0
M  V30 3854 H 371.003 -2.85294 0.924516 0
M  V30 3855 H 368.556 -1.47489 0.517376 0
M  V30 3856 H 369.291 -2.79378 -1.64677 0
M  V30 3857 H 369.076 -3.91177 -0.268852 0
M  V30 3858 H 370.566 -3.98249 -1.2565 0
M  V30 3859 N 371.003 -0.499398 -1.49478 0
M  V30 3860 C 371.936 0.326491 -2.25852 0
M  V30 3861 C 372.914 0.971776 -1.30366 0
M  V30 3862 O 374.098 1.00219 -1.59651 0
M  V30 3863 C 371.225 1.45969 -3.05632 0
M  V30 3864 C 370.271 0.928938 -4.16261 0
M  V30 3865 S 371.104 -0.179012 -5.35201 0
M  V30 3866 C 372.26 0.957389 -6.18534 0
M  V30 3867 H 372.493 -0.321746 -2.95554 0
M  V30 3868 H 370.026 -0.284674 -1.51753 0
M  V30 3869 H 371.984 2.109 -3.52181 0
M  V30 3870 H 370.645 2.07953 -2.35402 0
M  V30 3871 H 369.838 1.77813 -4.71592 0
M  V30 3872 H 369.44 0.356869 -3.72293 0
M  V30 3873 H 371.732 1.86296 -6.51383 0
M  V30 3874 H 372.675 0.442733 -7.06715 0
M  V30 3875 H 373.083 1.224 -5.5107 0
M  V30 3876 N 372.481 1.55866 -0.233164 0
M  V30 3877 C 373.892 1.847 0.272554 0
M  V30 3878 C 374.243 1.15477 1.58617 0
M  V30 3879 O 373.368 0.42841 2.12117 0
M  V30 3880 C 373.963 3.35071 0.501299 0
M  V30 3881 C 372.522 3.6418 0.951304 0
M  V30 3882 C 371.669 2.77292 0.0208209 0
M  V30 3883 H 374.62 1.52005 -0.456074 0
M  V30 3884 H 374.641 3.55906 1.34577 0
M  V30 3885 H 374.153 3.85424 -0.454936 0
M  V30 3886 H 372.254 3.19293 1.92049 0
M  V30 3887 H 372.367 4.72071 0.817675 0
M  V30 3888 H 370.731 2.49131 0.529723 0
M  V30 3889 H 371.514 3.30448 -0.93054 0
M  V30 3890 N 373.959 -0.0401083 1.57549 0
M  V30 3891 C 375.236 -0.767917 1.79896 0
M  V30 3892 C 375.616 -1.9416 0.82856 0
M  V30 3893 O 374.964 -2.2812 -0.131671 0
M  V30 3894 C 375.174 -1.2113 3.27305 0
M  V30 3895 C 376.522 -1.63175 3.91994 0
M  V30 3896 O 377.546 -1.30616 3.31388 0
M  V30 3897 O 376.405 -2.23565 4.98679 0
M  V30 3898 H 373.499 -0.370441 0.739393 0
M  V30 3899 H 376.045 -0.017737 1.69691 0
M  V30 3900 H 374.817 -0.372937 3.89519 0
M  V30 3901 H 374.44 -2.02183 3.42356 0
M  V30 3902 N 375.437 -1.54477 -0.31217 0
M  V30 3903 C 376.848 -1.64344 -0.885891 0
M  V30 3904 C 377.199 -0.54485 -1.88483 0
M  V30 3905 O 376.324 0.320387 -2.14015 0
M  V30 3906 C 376.919 -2.97908 -1.61357 0
M  V30 3907 C 375.478 -3.09933 -2.13585 0
M  V30 3908 C 374.625 -2.59971 -0.964897 0
M  V30 3909 H 377.576 -1.58448 -0.0894528 0
M  V30 3910 H 377.597 -2.88706 -2.47848 0
M  V30 3911 H 377.109 -3.77845 -0.886277 0
M  V30 3912 H 375.21 -2.34694 -2.89395 0
M  V30 3913 H 375.323 -4.15916 -2.37804 0
M  V30 3914 H 373.687 -2.16147 -1.34731 0
M  V30 3915 H 374.47 -3.42376 -0.251742 0
M  V30 3916 N 376.915 0.57481 -1.46744 0
M  V30 3917 C 378.143 1.35856 -1.56047 0
M  V30 3918 C 378.558 1.87691 -0.204365 0
M  V30 3919 O 377.915 1.64049 0.79963 0
M  V30 3920 C 377.966 2.54066 -2.57163 0
M  V30 3921 O 377.687 2.04377 -3.87507 0
M  V30 3922 C 379.188 3.46514 -2.76483 0
M  V30 3923 H 376.408 0.414754 -0.527466 0
M  V30 3924 H 378.952 0.698035 -1.92218 0
M  V30 3925 H 377.107 3.16092 -2.23974 0
M  V30 3926 H 377.521 2.81419 -4.4261 0
M  V30 3927 H 378.995 4.25919 -3.51137 0
M  V30 3928 H 379.472 3.98951 -1.83671 0
M  V30 3929 H 380.078 2.90318 -3.10799 0
M  V30 3930 N 378.394 1.34581 0.820102 0
M  V30 3931 C 379.64 1.27285 1.57881 0
M  V30 3932 C 379.973 -0.156137 1.93571 0
M  V30 3933 O 379.248 -1.10222 1.60254 0
M  V30 3934 C 379.531 2.16639 2.87645 0
M  V30 3935 C 379.384 3.68088 2.58517 0
M  V30 3936 C 380.703 2.05378 3.8924 0
M  V30 3937 H 377.822 0.463714 0.572833 0
M  V30 3938 H 380.464 1.64859 0.944539 0
M  V30 3939 H 378.614 1.84725 3.41773 0
M  V30 3940 H 380.286 4.10382 2.10676 0
M  V30 3941 H 378.529 3.89038 1.91917 0
M  V30 3942 H 379.2 4.2598 3.51063 0
M  V30 3943 H 381.676 2.33404 3.44473 0
M  V30 3944 H 380.552 2.7012 4.77835 0
M  V30 3945 H 380.813 1.0316 4.29896 0
M  V30 3946 N 379.872 -1.04064 1.18357 0
M  V30 3947 C 381.283 -1.58719 0.98312 0
M  V30 3948 C 381.634 -1.90556 -0.467193 0
M  V30 3949 O 380.759 -1.69561 -1.34454 0
M  V30 3950 C 381.354 -2.88379 1.77828 0
M  V30 3951 C 379.913 -3.3965 1.62218 0
M  V30 3952 C 379.06 -2.13235 1.77274 0
M  V30 3953 H 382.011 -0.867359 1.32901 0
M  V30 3954 H 382.032 -3.58773 1.26737 0
M  V30 3955 H 381.544 -2.65176 2.83379 0
M  V30 3956 H 379.645 -3.67866 0.592036 0
M  V30 3957 H 379.758 -4.13475 2.42023 0
M  V30 3958 H 378.122 -2.24542 1.20221 0
M  V30 3959 H 378.905 -1.92487 2.8426 0
M  V30 3960 N 381.35 -0.985608 -1.22978 0
M  V30 3961 C 382.627 -0.573599 -1.87001 0
M  V30 3962 C 383.007 0.949213 -1.88555 0
M  V30 3963 O 382.355 1.82811 -1.37086 0
M  V30 3964 C 382.565 -1.18564 -3.28243 0
M  V30 3965 C 383.913 -1.28163 -4.04796 0
M  V30 3966 O 384.937 -1.13949 -3.37482 0
M  V30 3967 O 383.796 -1.50832 -5.25273 0
M  V30 3968 H 380.89 -0.193868 -0.803955 0
M  V30 3969 H 383.436 -1.08102 -1.30813 0
M  V30 3970 H 382.208 -2.22758 -3.21706 0
M  V30 3971 H 381.831 -0.663363 -3.92027 0
M  V30 3972 N 382.828 1.3818 -0.7579 0
M  V30 3973 C 384.053 2.04827 -0.325679 0
M  V30 3974 C 384.478 1.56788 1.03919 0
M  V30 3975 O 383.836 0.721811 1.66312 0
M  V30 3976 C 383.884 3.58774 -0.362447 0
M  V30 3977 O 382.988 4.07372 0.642033 0
M  V30 3978 H 382.329 0.64833 -0.143402 0
M  V30 3979 H 384.859 1.7677 -1.03023 0
M  V30 3980 H 384.869 4.07434 -0.214844 0
M  V30 3981 H 383.544 3.93096 -1.35824 0
M  V30 3982 H 382.121 3.70068 0.458688 0
M  V30 3983 N 384.306 0.507319 1.49211 0
M  V30 3984 C 385.583 -0.0982702 1.95353 0
M  V30 3985 C 385.963 -1.53516 1.449 0
M  V30 3986 O 385.311 -2.18594 0.66551 0
M  V30 3987 C 385.521 -0.00440283 3.49 0
M  V30 3988 C 386.869 -0.175147 4.24239 0
M  V30 3989 O 387.893 -0.0792891 3.56112 0
M  V30 3990 O 386.752 -0.37276 5.45227 0
M  V30 3991 H 383.846 -0.0918236 0.821887 0
M  V30 3992 H 386.392 0.570307 1.5983 0
M  V30 3993 H 385.164 0.997402 3.78375 0
M  V30 3994 H 384.787 -0.712845 3.91158 0
M  V30 3995 N 385.784 -1.5574 0.241426 0
M  V30 3996 C 387.033 -1.97986 -0.385295 0
M  V30 3997 C 387.346 -1.13267 -1.59468 0
M  V30 3998 O 388.552 -1.45501 -2.2922 0
M  V30 3999 C 387.008 -3.52275 -0.736884 0
M  V30 4000 C 386.616 -4.45726 0.450796 0
M  V30 4001 C 388.36 -4.03189 -1.3281 0
M  V30 4002 C 386.267 -5.91352 0.0756662 0
M  V30 4003 H 385.197 -0.739386 -0.147731 0
M  V30 4004 H 387.848 -1.80308 0.340779 0
M  V30 4005 H 386.23 -3.65628 -1.52094 0
M  V30 4006 H 387.404 -4.44131 1.22819 0
M  V30 4007 H 385.719 -4.05264 0.956573 0
M  V30 4008 H 388.316 -5.09505 -1.62201 0
M  V30 4009 H 388.659 -3.50212 -2.25071 0
M  V30 4010 H 389.192 -3.93141 -0.607069 0
M  V30 4011 H 385.931 -6.48354 0.965272 0
M  V30 4012 H 385.451 -5.96095 -0.665635 0
M  V30 4013 H 387.13 -6.46084 -0.344075 0
M  V30 4014 N 387.262 0.0317525 -1.57568 0
M  V30 4015 C 388.209 1.0332 -2.06382 0
M  V30 4016 C 389.179 1.36082 -0.952414 0
M  V30 4017 O 390.364 1.46466 -1.2228 0
M  V30 4018 C 387.504 2.32989 -2.54578 0
M  V30 4019 C 386.617 2.0641 -3.79498 0
M  V30 4020 C 385.752 3.2993 -4.16317 0
M  V30 4021 C 384.791 2.98893 -5.34162 0
M  V30 4022 N 383.928 4.14857 -5.66426 0
M  V30 4023 H 388.768 0.609982 -2.9169 0
M  V30 4024 H 386.305 0.289573 -1.44222 0
M  V30 4025 H 388.263 3.0875 -2.80587 0
M  V30 4026 H 386.893 2.73039 -1.7219 0
M  V30 4027 H 385.945 1.21158 -3.6059 0
M  V30 4028 H 387.257 1.79513 -4.65378 0
M  V30 4029 H 386.411 4.1406 -4.4344 0
M  V30 4030 H 385.15 3.59938 -3.29083 0
M  V30 4031 H 384.155 2.13164 -5.06795 0
M  V30 4032 H 385.38 2.70165 -6.23047 0
M  V30 4033 H 383.326 4.44821 -4.82151 0
M  V30 4034 H 383.243 3.91374 -6.4681 0
M  V30 4035 H 384.511 4.99868 -5.98124 0
M  V30 4036 N 388.74 1.54641 0.303973 0
M  V30 4037 C 389.703 1.84646 1.35789 0
M  V30 4038 C 390.703 0.7192 1.4382 0
M  V30 4039 O 391.893 0.987491 1.43507 0
M  V30 4040 C 389.025 2.02407 2.74307 0
M  V30 4041 H 390.218 2.78829 1.10429 0
M  V30 4042 H 387.771 1.46658 0.540487 0
M  V30 4043 H 388.506 1.10502 3.04893 0
M  V30 4044 H 388.291 2.84453 2.69868 0
M  V30 4045 H 389.781 2.27002 3.50514 0
M  V30 4046 N 390.218 -0.567019 1.47046 0
M  V30 4047 C 391.148 -1.68482 1.61667 0
M  V30 4048 C 392.129 -1.6358 0.466418 0
M  V30 4049 O 393.314 -1.81354 0.694574 0
M  V30 4050 C 390.444 -3.07124 1.62148 0
M  V30 4051 C 389.398 -3.26867 2.76301 0
M  V30 4052 C 388.724 -4.66196 2.61849 0
M  V30 4053 C 390.024 -3.13186 4.17986 0
M  V30 4054 H 391.718 -1.56502 2.5524 0
M  V30 4055 H 389.264 -0.751486 1.22836 0
M  V30 4056 H 391.217 -3.8516 1.70968 0
M  V30 4057 H 389.941 -3.2004 0.651287 0
M  V30 4058 H 388.6 -2.51237 2.66975 0
M  V30 4059 H 388.248 -4.75898 1.62879 0
M  V30 4060 H 387.948 -4.80356 3.38425 0
M  V30 4061 H 389.472 -5.46379 2.72584 0
M  V30 4062 H 390.886 -3.81049 4.2834 0
M  V30 4063 H 389.283 -3.3886 4.95272 0
M  V30 4064 H 390.353 -2.10057 4.3704 0
M  V30 4065 N 391.696 -1.35014 -0.812953 0
M  V30 4066 C 392.924 -1.31031 -1.6012 0
M  V30 4067 C 393.339 0.113558 -1.88458 0
M  V30 4068 O 392.696 1.06363 -1.48301 0
M  V30 4069 C 392.747 -2.10872 -2.93624 0
M  V30 4070 O 392.468 -3.47706 -2.66518 0
M  V30 4071 C 393.969 -2.14401 -3.88004 0
M  V30 4072 H 391.189 -0.45037 -0.497401 0
M  V30 4073 H 393.733 -1.77775 -1.01076 0
M  V30 4074 H 391.888 -1.67744 -3.492 0
M  V30 4075 H 392.302 -3.89097 -3.51715 0
M  V30 4076 H 393.776 -2.74669 -4.78812 0
M  V30 4077 H 394.253 -1.14105 -4.24119 0
M  V30 4078 H 394.859 -2.57662 -3.38364 0
M  V30 4079 N 393.175 1.03435 -1.18907 0
M  V30 4080 C 394.403 1.80381 -1.01342 0
M  V30 4081 C 394.818 1.83649 0.438005 0
M  V30 4082 O 394.175 1.27655 1.30424 0
M  V30 4083 C 394.226 3.25689 -1.56873 0
M  V30 4084 O 393.947 3.22673 -2.96334 0
M  V30 4085 C 395.448 4.19255 -1.44014 0
M  V30 4086 H 392.668 0.56784 -0.35749 0
M  V30 4087 H 395.212 1.30317 -1.576 0
M  V30 4088 H 393.367 3.72962 -1.04777 0
M  V30 4089 H 393.781 4.13748 -3.22355 0
M  V30 4090 H 395.255 5.19123 -1.87657 0
M  V30 4091 H 395.732 4.37467 -0.389815 0
M  V30 4092 H 396.338 3.77851 -1.95214 0
M  V30 4093 N 394.653 0.992116 1.22453 0
M  V30 4094 C 395.583 0.561677 2.26644 0
M  V30 4095 C 396.564 -0.411055 1.65059 0
M  V30 4096 O 397.749 -0.301861 1.9184 0
M  V30 4097 C 394.879 -0.125247 3.47074 0
M  V30 4098 C 393.833 0.765948 4.21091 0
M  V30 4099 C 393.159 -0.0538484 5.34673 0
M  V30 4100 C 394.459 2.06242 4.79856 0
M  V30 4101 H 396.153 1.43259 2.62902 0
M  V30 4102 H 393.699 0.690283 1.26377 0
M  V30 4103 H 395.652 -0.437764 4.1912 0
M  V30 4104 H 394.376 -1.03069 3.0991 0
M  V30 4105 H 393.035 1.0621 3.50878 0
M  V30 4106 H 392.683 -0.960188 4.9375 0
M  V30 4107 H 392.383 0.539415 5.85119 0
M  V30 4108 H 393.907 -0.360477 6.09535 0
M  V30 4109 H 395.321 1.8139 5.43848 0
M  V30 4110 H 393.718 2.60444 5.40638 0
M  V30 4111 H 394.788 2.74167 3.99951 0
M  V30 4112 N 396.131 -1.37776 0.765217 0
M  V30 4113 C 397.371 -2.01691 0.331669 0
M  V30 4114 C 397.735 -1.59432 -1.06983 0
M  V30 4115 O 398.936 -2.15761 -1.60314 0
M  V30 4116 C 397.207 -3.54385 0.463261 0
M  V30 4117 S 398.766 -4.38652 0.114011 0
M  V30 4118 H 395.584 -0.699387 0.127979 0
M  V30 4119 H 398.186 -1.68084 0.998396 0
M  V30 4120 H 396.89 -3.82629 1.48401 0
M  V30 4121 H 396.421 -3.92783 -0.220246 0
M  V30 4122 H 398.436 -4.84021 -1.09261 0
M  V30 4123 N 397.609 -0.515225 -1.4894 0
M  V30 4124 C 398.886 0.0879088 -1.95402 0
M  V30 4125 C 399.266 1.52745 -1.45712 0
M  V30 4126 O 398.614 2.18238 -0.677093 0
M  V30 4127 C 398.824 -0.0141055 -3.48997 0
M  V30 4128 C 400.172 0.152646 -4.24326 0
M  V30 4129 O 401.196 0.0604025 -3.56149 0
M  V30 4130 O 400.055 0.34384 -5.45417 0
M  V30 4131 H 397.149 0.0874636 -0.822362 0
M  V30 4132 H 399.695 -0.578775 -1.59525 0
M  V30 4133 H 398.467 -1.01745 -3.77841 0
M  V30 4134 H 398.09 0.692091 -3.9153 0
M  V30 4135 N 399.087 1.5561 -0.249682 0
M  V30 4136 C 400.017 2.24477 0.642826 0
M  V30 4137 C 400.998 1.22601 1.17911 0
M  V30 4138 O 402.183 1.5126 1.21795 0
M  V30 4139 C 399.313 2.94638 1.83863 0
M  V30 4140 C 398.267 4.03227 1.435 0
M  V30 4141 C 397.593 4.60828 2.71186 0
M  V30 4142 C 398.893 5.18796 0.604002 0
M  V30 4143 H 400.587 2.99321 0.0685625 0
M  V30 4144 H 398.133 1.43965 0.0315363 0
M  V30 4145 H 400.086 3.41517 2.46868 0
M  V30 4146 H 398.81 2.17287 2.43832 0
M  V30 4147 H 397.469 3.57121 0.828275 0
M  V30 4148 H 397.117 3.80174 3.29358 0
M  V30 4149 H 396.817 5.34132 2.44901 0
M  V30 4150 H 398.341 5.10442 3.35084 0
M  V30 4151 H 399.755 5.61883 1.13842 0
M  V30 4152 H 398.152 5.98506 0.437097 0
M  V30 4153 H 399.222 4.83384 -0.383147 0
M  V30 4154 N 400.565 -0.0233959 1.57583 0
M  V30 4155 C 401.528 -1.00693 2.05897 0
M  V30 4156 C 402.528 -1.28693 0.964092 0
M  V30 4157 O 403.718 -1.23602 1.22753 0
M  V30 4158 C 400.85 -2.33825 2.4807 0
M  V30 4159 H 402.043 -0.589476 2.9405 0
M  V30 4160 H 399.596 -0.270354 1.53944 0
M  V30 4161 H 400.331 -2.80307 1.6309 0
M  V30 4162 H 400.116 -2.1483 3.2801 0
M  V30 4163 H 401.606 -3.04426 2.85857 0
M  V30 4164 N 402.043 -1.548 -0.295768 0
M  V30 4165 C 403.32 -1.65014 -1.05023 0
M  V30 4166 C 403.7 -0.501805 -2.05049 0
M  V30 4167 O 403.048 0.500869 -2.22943 0
M  V30 4168 C 403.258 -3.03252 -1.72741 0
M  V30 4169 C 404.606 -3.60242 -2.24746 0
M  V30 4170 O 405.63 -3.05737 -1.82765 0
M  V30 4171 O 404.489 -4.55687 -3.01681 0
M  V30 4172 H 401.583 -0.669314 -0.485744 0
M  V30 4173 H 404.129 -1.67144 -0.293438 0
M  V30 4174 H 402.901 -3.7827 -1.00138 0
M  V30 4175 H 402.524 -3.04922 -2.55163 0
M  V30 4176 N 403.521 0.559213 -1.47345 0
M  V30 4177 C 404.937 0.884943 -1.32819 0
M  V30 4178 C 405.137 1.98988 -0.317173 0
M  V30 4179 O 404.193 2.51031 0.272011 0
M  V30 4180 C 405.506 1.28007 -2.72093 0
M  V30 4181 C 407.054 1.39161 -2.80363 0
M  V30 4182 C 407.529 1.82031 -4.20272 0
M  V30 4183 N 409.02 1.89185 -4.22804 0
M  V30 4184 C 409.755 2.2368 -5.27973 0
M  V30 4185 N 409.251 2.56802 -6.43447 0
M  V30 4186 N 411.044 2.24436 -5.15349 0
M  V30 4187 H 403.195 -0.170304 -2.11716 0
M  V30 4188 H 405.458 -0.0135247 -0.947904 0
M  V30 4189 H 405.164 0.542027 -3.47498 0
M  V30 4190 H 405.038 2.23665 -3.03733 0
M  V30 4191 H 407.425 2.12048 -2.05231 0
M  V30 4192 H 407.506 0.41696 -2.52379 0
M  V30 4193 H 407.15 1.09715 -4.95908 0
M  V30 4194 H 407.08 2.80495 -4.45679 0
M  V30 4195 H 409.571 1.65982 -3.39497 0
M  V30 4196 H 409.884 2.82144 -7.19454 0
M  V30 4197 H 408.229 2.54387 -6.46771 0
M  V30 4198 H 411.42 1.97998 -4.24163 0
M  V30 4199 H 411.593 2.50989 -5.97418 0
M  V30 4200 N 404.999 1.35443 0.805782 0
M  V30 4201 C 405.909 1.30546 1.94923 0
M  V30 4202 C 406.925 0.210233 1.72725 0
M  V30 4203 O 408.101 0.43975 1.9654 0
M  V30 4204 C 405.166 1.07782 3.29521 0
M  V30 4205 C 404.227 2.26625 3.64609 0
M  V30 4206 C 403.46 2.04938 4.92784 0
M  V30 4207 O 403.683 1.01624 5.61274 0
M  V30 4208 O 402.617 2.9232 5.26149 0
M  V30 4209 H 406.443 2.26779 2.02002 0
M  V30 4210 H 404.028 1.15823 0.943682 0
M  V30 4211 H 405.91 0.969392 4.10098 0
M  V30 4212 H 404.585 0.146003 3.23371 0
M  V30 4213 H 403.492 2.43033 2.84404 0
M  V30 4214 H 404.825 3.18257 3.75464 0
M  V30 4215 N 406.477 -1.02803 1.19454 0
M  V30 4216 C 407.407 -2.12999 0.956758 0
M  V30 4217 C 408.388 -1.69743 -0.110188 0
M  V30 4218 O 409.573 -1.94148 0.0450038 0
M  V30 4219 C 406.703 -3.43746 0.495553 0
M  V30 4220 C 405.657 -4.00688 1.50443 0
M  V30 4221 C 404.983 -5.27067 0.900275 0
M  V30 4222 C 406.283 -4.35397 2.8849 0
M  V30 4223 H 407.977 -2.33148 1.87836 0
M  V30 4224 H 405.523 -1.12045 0.904539 0
M  V30 4225 H 407.476 -4.2021 0.316493 0
M  V30 4226 H 406.2 -3.23321 -0.461646 0
M  V30 4227 H 404.859 -3.2632 1.67065 0
M  V30 4228 H 404.507 -5.02959 -0.064503 0
M  V30 4229 H 404.207 -5.66127 1.57397 0
M  V30 4230 H 405.731 -6.06196 0.73203 0
M  V30 4231 H 407.145 -5.02795 2.75446 0
M  V30 4232 H 405.542 -4.85541 3.52661 0
M  V30 4233 H 406.612 -3.44662 3.41081 0
M  V30 4234 N 407.956 -0.998596 -1.21925 0
M  V30 4235 C 409.202 -0.678667 -1.91107 0
M  V30 4236 C 409.535 0.78791 -1.77498 0
M  V30 4237 O 408.81 1.57043 -1.1475 0
M  V30 4238 C 409.093 -1.09245 -3.43129 0
M  V30 4239 C 408.946 -2.61801 -3.6576 0
M  V30 4240 C 410.265 -0.649984 -4.35274 0
M  V30 4241 H 407.384 -0.248025 -0.694012 0
M  V30 4242 H 410.026 -1.24314 -1.43688 0
M  V30 4243 H 408.176 -0.612171 -3.83647 0
M  V30 4244 H 409.848 -3.17543 -3.34611 0
M  V30 4245 H 408.091 -3.03609 -3.09845 0
M  V30 4246 H 408.762 -2.85804 -4.7225 0
M  V30 4247 H 411.238 -1.0626 -4.02303 0
M  V30 4248 H 410.114 -0.967743 -5.40302 0
M  V30 4249 H 410.375 0.449139 -4.39813 0
M  V30 4250 N 409.434 1.37368 -0.772513 0
M  V30 4251 C 410.68 1.99969 -0.337681 0
M  V30 4252 C 411.013 1.61184 1.08321 0
M  V30 4253 O 410.288 0.858395 1.74533 0
M  V30 4254 C 410.571 3.56858 -0.482121 0
M  V30 4255 C 410.424 4.0555 -1.94549 0
M  V30 4256 C 411.743 4.39955 0.113143 0
M  V30 4257 H 408.862 0.726464 -0.124171 0
M  V30 4258 H 411.504 1.63034 -0.975699 0
M  V30 4259 H 409.654 3.88452 0.0610361 0
M  V30 4260 H 411.326 3.84518 -2.54841 0
M  V30 4261 H 409.569 3.57715 -2.45403 0
M  V30 4262 H 410.24 5.14587 -1.9976 0
M  V30 4263 H 412.716 4.14623 -0.35031 0
M  V30 4264 H 411.592 5.48897 -0.0180514 0
M  V30 4265 H 411.853 4.25403 1.20354 0
M  V30 4266 N 410.912 0.523116 1.48665 0
M  V30 4267 C 412.161 -0.01544 2.01694 0
M  V30 4268 C 412.474 -1.35975 1.40606 0
M  V30 4269 O 413.68 -1.98627 1.85093 0
M  V30 4270 C 412.136 -0.0779303 3.59816 0
M  V30 4271 C 411.744 1.26107 4.29885 0
M  V30 4272 C 413.488 -0.565678 4.20714 0
M  V30 4273 C 411.395 1.15954 5.79921 0
M  V30 4274 H 410.325 -0.00954163 0.75394 0
M  V30 4275 H 412.976 0.665865 1.70993 0
M  V30 4276 H 411.358 -0.824165 3.87329 0
M  V30 4277 H 412.532 2.02233 4.14051 0
M  V30 4278 H 410.847 1.68401 3.80828 0
M  V30 4279 H 413.444 -0.6595 5.30617 0
M  V30 4280 H 413.787 -1.56984 3.85567 0
M  V30 4281 H 414.32 0.12467 3.97605 0
M  V30 4282 H 411.059 2.13864 6.19631 0
M  V30 4283 H 410.579 0.439529 5.98187 0
M  V30 4284 H 412.258 0.847361 6.41427 0
M  V30 4285 N 412.39 -1.55475 0.257931 0
M  V30 4286 C 413.639 -1.98383 -0.364275 0
M  V30 4287 C 413.952 -1.14952 -1.58258 0
M  V30 4288 O 415.158 -1.47924 -2.27664 0
M  V30 4289 C 413.614 -3.53037 -0.699479 0
M  V30 4290 C 413.222 -4.45223 0.498046 0
M  V30 4291 C 414.966 -4.04575 -1.28526 0
M  V30 4292 C 412.873 -5.91238 0.138383 0
M  V30 4293 H 411.803 -0.740911 -0.13988 0
M  V30 4294 H 414.454 -1.79936 0.359883 0
M  V30 4295 H 412.836 -3.6722 -1.48207 0
M  V30 4296 H 414.01 -4.42803 1.27522 0
M  V30 4297 H 412.325 -4.04226 0.999503 0
M  V30 4298 H 414.922 -5.11196 -1.56788 0
M  V30 4299 H 415.265 -3.5258 -2.21344 0
M  V30 4300 H 415.798 -3.93762 -0.565337 0
M  V30 4301 H 412.537 -6.47294 1.03398 0
M  V30 4302 H 412.057 -5.96768 -0.602374 0
M  V30 4303 H 413.736 -6.46413 -0.27553 0
M  V30 4304 N 413.868 0.0150385 -1.57593 0
M  V30 4305 C 415.116 0.701613 -1.8953 0
M  V30 4306 C 415.437 1.75139 -0.857396 0
M  V30 4307 O 414.707 1.95607 0.107194 0
M  V30 4308 H 413.287 0.26213 -0.699498 0
M  V30 4309 H 415.949 -0.0223304 -1.94887 0
M  V30 4310 H 415.045 1.18236 -2.88837 0
M  V30 4311 N 415.346 1.54954 0.287554 0
M  V30 4312 C 416.592 1.76059 1.01856 0
M  V30 4313 C 416.947 0.547056 1.84459 0
M  V30 4314 O 416.24 -0.460442 1.85985 0
M  V30 4315 C 416.434 2.99833 1.94512 0
M  V30 4316 C 416.263 4.33108 1.21026 0
M  V30 4317 C 415.033 4.96632 0.931896 0
M  V30 4318 C 417.231 5.10694 0.607949 0
M  V30 4319 N 415.213 6.13668 0.168716 0
M  V30 4320 C 416.584 6.19996 -0.0217865 0
M  V30 4321 C 418.639 4.95236 0.514338 0
M  V30 4322 C 417.342 7.15524 -0.736092 0
M  V30 4323 C 419.368 5.91106 -0.186343 0
M  V30 4324 C 418.73 6.99786 -0.804875 0
M  V30 4325 H 414.829 0.696679 0.355193 0
M  V30 4326 H 417.413 1.92441 0.295741 0
M  V30 4327 H 415.584 2.84853 2.64033 0
M  V30 4328 H 417.316 3.09405 2.60865 0
M  V30 4329 H 414.071 4.57255 1.23348 0
M  V30 4330 H 414.495 6.76705 -0.199781 0
M  V30 4331 H 419.137 4.11328 0.978234 0
M  V30 4332 H 416.855 7.98964 -1.21172 0
M  V30 4333 H 420.441 5.81224 -0.258897 0
M  V30 4334 H 419.321 7.72694 -1.33843 0
M  V30 4335 N 416.824 -0.551391 1.4764 0
M  V30 4336 C 417.787 -1.64007 1.60107 0
M  V30 4337 C 418.787 -1.53601 0.47576 0
M  V30 4338 O 419.977 -1.57655 0.740988 0
M  V30 4339 C 417.109 -3.03569 1.55108 0
M  V30 4340 H 418.302 -1.543 2.57161 0
M  V30 4341 H 415.855 -0.771776 1.35917 0
M  V30 4342 H 416.59 -3.18804 0.594519 0
M  V30 4343 H 416.375 -3.12532 2.36783 0
M  V30 4344 H 417.865 -3.82762 1.66982 0
M  V30 4345 N 418.302 -1.35869 -0.798587 0
M  V30 4346 C 419.249 -1.29446 -1.91082 0
M  V30 4347 C 420.219 -0.16487 -1.6528 0
M  V30 4348 O 421.404 -0.349888 -1.87564 0
M  V30 4349 C 418.544 -1.0804 -3.27752 0
M  V30 4350 C 417.657 -2.29993 -3.65687 0
M  V30 4351 C 416.792 -2.01673 -4.91428 0
M  V30 4352 C 415.831 -3.19636 -5.22015 0
M  V30 4353 N 414.968 -2.91039 -6.38937 0
M  V30 4354 H 419.808 -2.24553 -1.95907 0
M  V30 4355 H 417.345 -1.11615 -0.958148 0
M  V30 4356 H 419.303 -0.936586 -4.06551 0
M  V30 4357 H 417.933 -0.16592 -3.22373 0
M  V30 4358 H 416.985 -2.55211 -2.82085 0
M  V30 4359 H 418.297 -3.18052 -3.84245 0
M  V30 4360 H 417.451 -1.84168 -5.78072 0
M  V30 4361 H 416.19 -1.10911 -4.74921 0
M  V30 4362 H 415.195 -3.37709 -4.33858 0
M  V30 4363 H 416.42 -4.11211 -5.40447 0
M  V30 4364 H 414.366 -2.0288 -6.2384 0
M  V30 4365 H 414.283 -3.72635 -6.57784 0
M  V30 4366 H 415.551 -2.77093 -7.28587 0
M  V30 4367 N 419.78 1.02168 -1.19998 0
M  V30 4368 C 420.73 2.08969 -0.911921 0
M  V30 4369 C 421.714 1.60404 0.12621 0
M  V30 4370 O 422.906 1.76817 -0.0804706 0
M  V30 4371 C 420.035 3.402 -0.460277 0
M  V30 4372 C 419.121 3.9548 -1.53155 0
M  V30 4373 N 419.512 4.24332 -2.75275 0
M  V30 4374 C 417.81 4.23572 -1.39653 0
M  V30 4375 C 418.511 4.68834 -3.44339 0
M  V30 4376 N 417.487 4.70804 -2.71744 0
M  V30 4377 H 421.289 2.29178 -1.83997 0
M  V30 4378 H 418.803 1.20094 -1.09322 0
M  V30 4379 H 420.8 4.16235 -0.235337 0
M  V30 4380 H 419.46 3.21408 0.4612 0
M  V30 4381 H 420.471 4.13393 -3.11973 0
M  V30 4382 H 417.148 4.14005 -0.539067 0
M  V30 4383 H 418.538 5.00019 -4.4881 0
M  V30 4384 N 421.258 1.00505 1.21394 0
M  V30 4385 C 422.507 0.683159 1.89778 0
M  V30 4386 C 422.82 -0.789471 1.7896 0
M  V30 4387 O 424.026 -1.22344 2.42372 0
M  V30 4388 C 422.482 1.17146 3.40301 0
M  V30 4389 C 422.09 2.67017 3.5973 0
M  V30 4390 C 423.834 0.924461 4.14311 0
M  V30 4391 C 421.741 3.09387 5.04017 0
M  V30 4392 H 420.671 0.25183 0.710702 0
M  V30 4393 H 423.322 1.21622 1.37406 0
M  V30 4394 H 421.704 0.566451 3.91928 0
M  V30 4395 H 422.878 3.32968 3.18542 0
M  V30 4396 H 421.193 2.89732 2.99073 0
M  V30 4397 H 423.79 1.21658 5.20676 0
M  V30 4398 H 424.133 -0.139286 4.16067 0
M  V30 4399 H 424.666 1.49226 3.6875 0
M  V30 4400 H 421.405 4.14989 5.07409 0
M  V30 4401 H 420.925 2.48149 5.46061 0
M  V30 4402 H 422.604 3.01371 5.72525 0
M  V30 4403 N 422.737 -1.36956 0.779787 0
M  V30 4404 C 424.148 -1.82094 0.412156 0
M  V30 4405 C 424.499 -1.64926 -1.06273 0
M  V30 4406 O 423.624 -1.16483 -1.82375 0
M  V30 4407 C 424.219 -3.3059 0.741319 0
M  V30 4408 C 422.778 -3.73974 0.426641 0
M  V30 4409 C 421.925 -2.59368 0.980987 0
M  V30 4410 H 424.876 -1.25314 0.973758 0
M  V30 4411 H 424.897 -3.80489 0.028887 0
M  V30 4412 H 424.409 -3.43054 1.81482 0
M  V30 4413 H 422.51 -3.67076 -0.639215 0
M  V30 4414 H 422.623 -4.69778 0.940515 0
M  V30 4415 H 420.987 -2.51463 0.404757 0
M  V30 4416 H 421.77 -2.74621 2.06005 0
M  V30 4417 N 424.215 -0.530993 -1.48385 0
M  V30 4418 C 425.463 0.00273189 -2.021 0
M  V30 4419 C 425.784 1.34672 -1.41027 0
M  V30 4420 O 425.054 1.8724 -0.576012 0
M  V30 4421 H 423.634 0.00399774 -0.746989 0
M  V30 4422 H 426.296 -0.695054 -1.82085 0
M  V30 4423 H 425.392 0.11031 -3.11905 0
M  V30 4424 N 425.693 1.55336 -0.266172 0
M  V30 4425 C 426.94 1.99397 0.353158 0
M  V30 4426 C 427.268 1.15451 1.56529 0
M  V30 4427 O 426.523 0.209974 1.9457 0
M  V30 4428 C 426.822 3.48606 0.787957 0
M  V30 4429 C 426.488 4.49773 -0.318541 0
M  V30 4430 C 425.15 4.77158 -0.62239 0
M  V30 4431 C 427.502 5.10212 -1.06459 0
M  V30 4432 C 424.83 5.62251 -1.67602 0
M  V30 4433 C 427.182 5.96449 -2.10788 0
M  V30 4434 C 425.846 6.22158 -2.41817 0
M  V30 4435 H 425.116 0.729644 0.12923 0
M  V30 4436 H 427.763 1.87732 -0.37802 0
M  V30 4437 H 426.068 3.57701 1.59866 0
M  V30 4438 H 427.765 3.80098 1.27775 0
M  V30 4439 H 424.355 4.2854 -0.0715925 0
M  V30 4440 H 428.539 4.89086 -0.843098 0
M  V30 4441 H 423.795 5.80419 -1.92155 0
M  V30 4442 H 427.969 6.42317 -2.69076 0
M  V30 4443 H 425.596 6.87888 -3.23596 0
M  V30 4444 N 427.171 -0.0066808 1.57599 0
M  V30 4445 C 428.396 -0.707738 1.94951 0
M  V30 4446 C 428.821 -1.66882 0.867868 0
M  V30 4447 O 428.179 -1.80457 -0.17458 0
M  V30 4448 C 428.227 -1.42162 3.31394 0
M  V30 4449 O 427.331 -2.53578 3.25226 0
M  V30 4450 H 426.672 -0.188752 0.636607 0
M  V30 4451 H 429.202 0.0445193 2.04552 0
M  V30 4452 H 429.212 -1.78655 3.66806 0
M  V30 4453 H 427.887 -0.716903 4.09675 0
M  V30 4454 H 426.464 -2.19463 3.01481 0
M  V30 4455 N 428.649 -1.55105 -0.279332 0
M  V30 4456 C 429.877 -1.7943 -1.03017 0
M  V30 4457 C 430.292 -0.564456 -1.80165 0
M  V30 4458 O 429.649 0.466326 -1.76442 0
M  V30 4459 C 429.7 -3.0155 -1.99374 0
M  V30 4460 O 429.421 -4.19784 -1.25352 0
M  V30 4461 C 430.922 -3.3843 -2.86321 0
M  V30 4462 H 428.142 -0.597882 -0.304594 0
M  V30 4463 H 430.686 -2.02105 -0.312035 0
M  V30 4464 H 428.841 -2.81019 -2.66659 0
M  V30 4465 H 429.255 -4.88781 -1.90246 0
M  V30 4466 H 430.729 -4.27066 -3.49741 0
M  V30 4467 H 431.206 -2.57549 -3.5576 0
M  V30 4468 H 431.812 -3.61197 -2.24536 0
M  V30 4469 N 430.127 0.543554 -1.4793 0
M  V30 4470 C 431.057 1.65888 -1.64327 0
M  V30 4471 C 432.038 1.62818 -0.492383 0
M  V30 4472 O 433.223 1.80226 -0.723338 0
M  V30 4473 C 430.353 3.04506 -1.67013 0
M  V30 4474 C 429.307 3.2243 -2.81466 0
M  V30 4475 C 428.633 4.61972 -2.69233 0
M  V30 4476 C 429.933 3.06496 -4.22915 0
M  V30 4477 H 431.627 1.52421 -2.57698 0
M  V30 4478 H 429.173 0.731849 -1.24016 0
M  V30 4479 H 431.126 3.82391 -1.77074 0
M  V30 4480 H 429.85 3.18964 -0.70212 0
M  V30 4481 H 428.509 2.46957 -2.70938 0
M  V30 4482 H 428.157 4.73247 -1.7043 0
M  V30 4483 H 427.857 4.74911 -3.46025 0
M  V30 4484 H 429.381 5.41974 -2.81242 0
M  V30 4485 H 430.795 3.74186 -4.34348 0
M  V30 4486 H 429.192 3.30938 -5.006 0
M  V30 4487 H 430.262 2.03077 -4.40327 0
M  V30 4488 N 431.605 1.3629 0.791371 0
M  V30 4489 C 432.83 1.33726 1.58531 0
M  V30 4490 C 433.255 -0.0794933 1.87932 0
M  V30 4491 O 432.613 -1.05087 1.47738 0
M  V30 4492 C 432.661 2.16425 2.88431 0
M  V30 4493 O 431.765 1.5554 3.81944 0
M  V30 4494 H 431.106 0.457793 0.480959 0
M  V30 4495 H 433.636 1.79547 0.981031 0
M  V30 4496 H 433.646 2.28933 3.37718 0
M  V30 4497 H 432.321 3.19415 2.66359 0
M  V30 4498 H 430.898 1.51961 3.40532 0
M  V30 4499 N 433.083 -1.0153 1.20538 0
M  V30 4500 C 434.013 -2.11972 0.979295 0
M  V30 4501 C 434.994 -1.6985 -0.0921787 0
M  V30 4502 O 436.179 -1.94089 0.0655932 0
M  V30 4503 C 433.309 -3.43201 0.531984 0
M  V30 4504 C 432.263 -3.9907 1.54685 0
M  V30 4505 C 431.589 -5.26082 0.956127 0
M  V30 4506 C 432.889 -4.32313 2.93092 0
M  V30 4507 H 434.583 -2.31143 1.90298 0
M  V30 4508 H 432.129 -1.11079 0.916372 0
M  V30 4509 H 434.082 -4.1985 0.361044 0
M  V30 4510 H 432.806 -3.23792 -0.427327 0
M  V30 4511 H 431.465 -3.2453 1.70517 0
M  V30 4512 H 431.113 -5.02999 -0.0111538 0
M  V30 4513 H 430.813 -5.64426 1.63393 0
M  V30 4514 H 432.337 -6.05386 0.796284 0
M  V30 4515 H 433.751 -4.99845 2.80763 0
M  V30 4516 H 432.148 -4.81774 3.57791 0
M  V30 4517 H 433.218 -3.41025 3.44717 0
M  V30 4518 N 434.561 -1.01147 -1.20859 0
M  V30 4519 C 435.524 -0.582224 -2.21682 0
M  V30 4520 C 436.524 0.344887 -1.57058 0
M  V30 4521 O 437.714 0.134281 -1.73682 0
M  V30 4522 C 434.846 0.150496 -3.40568 0
M  V30 4523 H 436.039 -1.47408 -2.61172 0
M  V30 4524 H 433.592 -0.800695 -1.34233 0
M  V30 4525 H 434.327 1.0575 -3.06574 0
M  V30 4526 H 434.112 -0.515444 -3.88697 0
M  V30 4527 H 435.602 0.438344 -4.15293 0
M  V30 4528 N 436.039 1.36541 -0.78704 0
M  V30 4529 C 437.316 1.9355 -0.282424 0
M  V30 4530 C 437.696 1.71919 1.22503 0
M  V30 4531 O 437.044 1.07677 2.01539 0
M  V30 4532 C 437.254 3.4246 -0.672462 0
M  V30 4533 C 438.602 4.19582 -0.650863 0
M  V30 4534 O 439.626 3.50889 -0.612789 0
M  V30 4535 O 438.485 5.42106 -0.691623 0
M  V30 4536 H 435.579 0.824091 -0.0693 0
M  V30 4537 H 438.125 1.45736 -0.869423 0
M  V30 4538 H 436.897 3.51851 -1.71221 0
M  V30 4539 H 436.52 3.97556 -0.0592211 0
M  V30 4540 N 437.518 0.538854 1.48102 0
M  V30 4541 C 438.45 -0.256278 2.27763 0
M  V30 4542 C 439.463 -0.89633 1.35904 0
M  V30 4543 O 440.652 -0.773275 1.60881 0
M  V30 4544 C 437.752 -1.37896 3.09577 0
M  V30 4545 C 436.925 -0.839159 4.29275 0
M  V30 4546 C 435.984 -1.84405 4.9283 0
M  V30 4547 O 435.01 -1.39746 5.51779 0
M  V30 4548 N 436.212 -3.17666 4.85869 0
M  V30 4549 H 438.977 0.426968 2.96643 0
M  V30 4550 H 436.538 0.373747 1.57527 0
M  V30 4551 H 438.53 -2.04955 3.48963 0
M  V30 4552 H 437.1 -1.96572 2.4306 0
M  V30 4553 H 436.32 0.00769287 3.94199 0
M  V30 4554 H 437.608 -0.457548 5.06739 0
M  V30 4555 H 437.006 -3.56609 4.39143 0
M  V30 4556 H 435.563 -3.80334 5.29329 0
M  V30 4557 N 438.996 -1.55193 0.274407 0
M  V30 4558 C 439.929 -2.18606 -0.654712 0
M  V30 4559 C 440.907 -1.14677 -1.15273 0
M  V30 4560 O 442.091 -1.43198 -1.22583 0
M  V30 4561 C 439.218 -2.80875 -1.89281 0
M  V30 4562 C 438.264 -3.981 -1.53032 0
M  V30 4563 S 439.097 -5.32025 -0.609107 0
M  V30 4564 C 440.253 -5.97761 -1.85559 0
M  V30 4565 H 440.486 -2.97074 -0.115894 0
M  V30 4566 H 438.019 -1.54288 0.05867 0
M  V30 4567 H 439.977 -3.17381 -2.60345 0
M  V30 4568 H 438.638 -2.02302 -2.40277 0
M  V30 4569 H 437.831 -4.40356 -2.45158 0
M  V30 4570 H 437.433 -3.63013 -0.899874 0
M  V30 4571 H 439.725 -6.16951 -2.7996 0
M  V30 4572 H 440.668 -6.92545 -1.47605 0
M  V30 4573 H 441.076 -5.27113 -2.02021 0
M  V30 4574 N 440.474 -0.00167713 -1.576 0
M  V30 4575 C 441.699 0.69739 -1.95323 0
M  V30 4576 C 442.124 1.6642 -0.876706 0
M  V30 4577 O 441.482 1.80548 0.165007 0
M  V30 4578 C 441.53 1.40403 -3.32144 0
M  V30 4579 O 440.634 2.5185 -3.26566 0
M  V30 4580 H 439.975 0.185373 -0.637599 0
M  V30 4581 H 442.505 -0.0553665 -2.04525 0
M  V30 4582 H 442.515 1.76707 -3.67748 0
M  V30 4583 H 441.19 0.695167 -4.10049 0
M  V30 4584 H 439.767 2.17861 -3.0264 0
M  V30 4585 N 441.952 1.55251 0.271103 0
M  V30 4586 C 442.882 1.9127 1.33933 0
M  V30 4587 C 443.863 0.77478 1.5143 0
M  V30 4588 O 445.048 1.03307 1.64442 0
M  V30 4589 C 442.178 2.18627 2.69851 0
M  V30 4590 C 441.132 3.34442 2.67081 0
M  V30 4591 C 440.458 3.47284 4.06569 0
M  V30 4592 C 441.758 4.70784 2.26185 0
M  V30 4593 H 443.452 2.80744 1.04035 0
M  V30 4594 H 440.998 1.35077 0.499017 0
M  V30 4595 H 442.951 2.42413 3.44694 0
M  V30 4596 H 441.675 1.25955 3.01335 0
M  V30 4597 H 440.334 3.10627 1.94695 0
M  V30 4598 H 439.982 2.52074 4.35279 0
M  V30 4599 H 439.682 4.25152 4.0561 0
M  V30 4600 H 441.206 3.73363 4.83148 0
M  V30 4601 H 442.62 4.94102 2.90751 0
M  V30 4602 H 441.017 5.51582 2.36384 0
M  V30 4603 H 442.087 4.69478 1.21319 0
M  V30 4604 N 443.43 -0.535701 1.48216 0
M  V30 4605 C 444.36 -1.65014 1.65204 0
M  V30 4606 C 445.341 -1.62554 0.501011 0
M  V30 4607 O 446.526 -1.7984 0.732886 0
M  V30 4608 C 443.656 -3.03616 1.68626 0
M  V30 4609 C 442.61 -3.20932 2.83172 0
M  V30 4610 C 441.936 -4.60537 2.71679 0
M  V30 4611 C 443.236 -3.04249 4.24535 0
M  V30 4612 H 444.93 -1.51053 2.58502 0
M  V30 4613 H 442.476 -0.725262 1.24402 0
M  V30 4614 H 444.429 -3.81446 1.79099 0
M  V30 4615 H 443.153 -3.18587 0.719026 0
M  V30 4616 H 441.812 -2.45517 2.72244 0
M  V30 4617 H 441.46 -4.72336 1.72937 0
M  V30 4618 H 441.16 -4.73069 3.48538 0
M  V30 4619 H 442.684 -5.40475 2.84112 0
M  V30 4620 H 444.098 -3.71877 4.36326 0
M  V30 4621 H 442.495 -3.28278 5.02348 0
M  V30 4622 H 443.565 -2.00739 4.41397 0
M  V30 4623 N 444.908 -1.36708 -0.784132 0
M  V30 4624 C 445.84 -1.27333 -1.90575 0
M  V30 4625 C 446.853 -0.191706 -1.61667 0
M  V30 4626 O 448.042 -0.446854 -1.72816 0
M  V30 4627 C 445.142 -0.943177 -3.25511 0
M  V30 4628 C 444.315 -2.12776 -3.82158 0
M  V30 4629 C 443.374 -1.76983 -4.95544 0
M  V30 4630 O 442.4 -2.49134 -5.11782 0
M  V30 4631 N 443.602 -0.706624 -5.76183 0
M  V30 4632 H 446.367 -2.23974 -1.99138 0
M  V30 4633 H 443.928 -1.30171 -0.962656 0
M  V30 4634 H 445.92 -0.684799 -3.98864 0
M  V30 4635 H 444.49 -0.0657333 -3.12531 0
M  V30 4636 H 443.71 -2.54863 -3.0073 0
M  V30 4637 H 444.998 -2.91904 -4.16737 0
M  V30 4638 H 444.396 -0.107643 -5.65598 0
M  V30 4639 H 442.953 -0.50808 -6.49817 0
M  V30 4640 N 446.386 1.0089 -1.21074 0
M  V30 4641 C 447.611 1.78727 -1.05221 0
M  V30 4642 C 448.036 1.83932 0.393795 0
M  V30 4643 O 447.394 1.28004 1.28393 0
M  V30 4644 C 447.442 3.20665 -1.64944 0
M  V30 4645 O 446.546 4.02632 -0.892273 0
M  V30 4646 H 445.887 0.550973 -0.370574 0
M  V30 4647 H 448.417 1.26847 -1.60534 0
M  V30 4648 H 448.427 3.71352 -1.69002 0
M  V30 4649 H 447.102 3.16191 -2.70177 0
M  V30 4650 H 445.679 3.61207 -0.926492 0
M  V30 4651 N 447.864 1.01787 1.20321 0
M  V30 4652 C 448.827 0.593972 2.2137 0
M  V30 4653 C 449.827 -0.336553 1.57239 0
M  V30 4654 O 451.017 -0.125069 1.7375 0
M  V30 4655 C 448.149 -0.132433 3.40643 0
M  V30 4656 H 449.342 1.48791 2.60387 0
M  V30 4657 H 446.895 0.807803 1.33807 0
M  V30 4658 H 447.63 -1.04123 3.0713 0
M  V30 4659 H 447.415 0.53605 3.88418 0
M  V30 4660 H 448.905 -0.416314 4.1552 0
M  V30 4661 N 449.342 -1.36122 0.79427 0
M  V30 4662 C 450.588 -1.99846 0.378542 0
M  V30 4663 C 450.943 -1.61898 -1.03955 0
M  V30 4664 O 450.236 -0.866013 -1.70912 0
M  V30 4665 C 450.43 -3.5409 0.48527 0
M  V30 4666 C 450.259 -4.0702 1.91219 0
M  V30 4667 C 449.029 -4.36944 2.53787 0
M  V30 4668 C 451.227 -4.26435 2.87502 0
M  V30 4669 N 449.209 -4.75727 3.88017 0
M  V30 4670 C 450.58 -4.68077 4.06576 0
M  V30 4671 C 452.635 -4.08616 2.84495 0
M  V30 4672 C 451.338 -4.93765 5.23057 0
M  V30 4673 C 453.364 -4.35453 4.00169 0
M  V30 4674 C 452.726 -4.77355 5.17988 0
M  V30 4675 H 448.825 -0.759549 0.186034 0
M  V30 4676 H 451.409 -1.65043 1.0329 0
M  V30 4677 H 449.58 -3.88151 -0.139023 0
M  V30 4678 H 451.312 -4.04675 0.0453192 0
M  V30 4679 H 448.067 -4.26822 2.05231 0
M  V30 4680 H 448.491 -4.99396 4.57092 0
M  V30 4681 H 453.133 -3.75373 1.94564 0
M  V30 4682 H 450.851 -5.25887 6.1357 0
M  V30 4683 H 454.437 -4.2323 3.99208 0
M  V30 4684 H 453.317 -4.97718 6.06008 0
M  V30 4685 N 450.82 -0.546701 -1.47814 0
M  V30 4686 C 451.753 0.254472 -2.26777 0
M  V30 4687 C 452.731 0.929809 -1.33392 0
M  V30 4688 O 453.915 0.950889 -1.62759 0
M  V30 4689 C 451.042 1.36171 -3.10121 0
M  V30 4690 C 450.088 0.796038 -4.19005 0
M  V30 4691 S 450.921 -0.349191 -5.3436 0
M  V30 4692 C 452.077 0.760122 -6.21267 0
M  V30 4693 H 452.31 -0.415612 -2.94381 0
M  V30 4694 H 449.843 -0.332809 -1.5077 0
M  V30 4695 H 451.801 1.99588 -3.58713 0
M  V30 4696 H 450.462 2.00359 -2.41899 0
M  V30 4697 H 449.655 1.62719 -4.7701 0
M  V30 4698 H 449.257 0.238246 -3.7324 0
M  V30 4699 H 451.549 1.65479 -6.5698 0
M  V30 4700 H 452.492 0.217673 -7.07765 0
M  V30 4701 H 452.9 1.04806 -5.54685 0
M  V30 4702 N 452.299 1.55045 -0.282633 0
M  V30 4703 C 453.209 2.26491 0.61147 0
M  V30 4704 C 454.225 1.29348 1.16384 0
M  V30 4705 O 455.401 1.62298 1.19253 0
M  V30 4706 C 452.466 2.97779 1.77563 0
M  V30 4707 C 451.527 4.10418 1.25919 0
M  V30 4708 C 450.76 4.78297 2.36786 0
M  V30 4709 O 450.983 4.45426 3.56303 0
M  V30 4710 O 449.917 5.66089 2.04517 0
M  V30 4711 H 453.743 3.03683 0.0324615 0
M  V30 4712 H 451.328 1.49317 -0.0497576 0
M  V30 4713 H 453.21 3.42554 2.45427 0
M  V30 4714 H 451.885 2.23498 2.34159 0
M  V30 4715 H 450.792 3.70082 0.546797 0
M  V30 4716 H 452.125 4.86622 0.738887 0
M  V30 4717 N 453.777 0.010035 1.57597 0
M  V30 4718 C 455.026 -0.671945 1.90178 0
M  V30 4719 C 455.339 -1.74376 0.886131 0
M  V30 4720 O 456.545 -2.48107 1.10252 0
M  V30 4721 C 455.001 -1.24636 3.3763 0
M  V30 4722 C 454.609 -0.208838 4.47513 0
M  V30 4723 C 456.353 -1.90595 3.79307 0
M  V30 4724 C 454.26 -0.793814 5.86048 0
M  V30 4725 H 453.19 -0.25474 0.709665 0
M  V30 4726 H 455.841 0.0722206 1.83358 0
M  V30 4727 H 454.223 -2.04152 3.3932 0
M  V30 4728 H 455.397 0.562463 4.57354 0
M  V30 4729 H 453.712 0.350889 4.14919 0
M  V30 4730 H 456.309 -2.35284 4.80151 0
M  V30 4731 H 456.652 -2.74074 3.13352 0
M  V30 4732 H 457.185 -1.17798 3.79958 0
M  V30 4733 H 453.924 0.00240855 6.555 0
M  V30 4734 H 453.444 -1.53404 5.79851 0
M  V30 4735 H 455.123 -1.2894 6.34022 0
M  V30 4736 N 455.255 -1.55392 -0.262866 0
M  V30 4737 C 456.185 -1.91978 -1.32917 0
M  V30 4738 C 457.166 -0.7828 -1.51017 0
M  V30 4739 O 458.351 -1.04178 -1.63892 0
M  V30 4740 C 455.481 -2.20055 -2.68687 0
M  V30 4741 C 454.435 -3.35854 -2.65304 0
M  V30 4742 C 453.761 -3.49435 -4.04721 0
M  V30 4743 C 455.061 -4.71977 -2.23685 0
M  V30 4744 H 456.755 -2.81292 -1.02544 0
M  V30 4745 H 454.301 -1.3534 -0.491846 0
M  V30 4746 H 456.254 -2.44237 -3.43404 0
M  V30 4747 H 454.978 -1.27551 -3.00663 0
M  V30 4748 H 453.637 -3.11655 -1.93045 0
M  V30 4749 H 453.285 -2.54379 -4.33936 0
M  V30 4750 H 452.985 -4.27297 -4.0335 0
M  V30 4751 H 454.509 -3.7592 -4.81161 0
M  V30 4752 H 455.923 -4.95637 -2.88127 0
M  V30 4753 H 454.32 -5.52828 -2.33456 0
M  V30 4754 H 455.39 -4.70115 -1.18827 0
M  V30 4755 N 456.733 0.527833 -1.48498 0
M  V30 4756 C 457.982 1.28003 -1.55878 0
M  V30 4757 C 458.295 1.9414 -0.238577 0
M  V30 4758 O 459.501 2.7083 -0.190643 0
M  V30 4759 C 457.957 2.32272 -2.74914 0
M  V30 4760 C 457.565 1.72196 -4.13585 0
M  V30 4761 C 459.309 3.08488 -2.91608 0
M  V30 4762 C 457.216 2.74417 -5.23879 0
M  V30 4763 H 456.146 0.481413 -0.580308 0
M  V30 4764 H 458.797 0.557195 -1.74836 0
M  V30 4765 H 457.179 3.07601 -2.49395 0
M  V30 4766 H 458.353 1.03041 -4.49132 0
M  V30 4767 H 456.668 1.08464 -4.02025 0
M  V30 4768 H 459.265 3.84879 -3.71177 0
M  V30 4769 H 459.608 3.64481 -2.01145 0
M  V30 4770 H 460.141 2.40274 -3.17038 0
M  V30 4771 H 456.88 2.23242 -6.16314 0
M  V30 4772 H 456.4 3.41893 -4.92818 0
M  V30 4773 H 458.079 3.37362 -5.52083 0
M  V30 4774 N 458.211 1.37122 0.776871 0
M  V30 4775 C 459.141 1.35164 1.90402 0
M  V30 4776 C 460.122 0.221069 1.68657 0
M  V30 4777 O 461.307 0.420642 1.8959 0
M  V30 4778 C 458.437 1.15274 3.27611 0
M  V30 4779 C 457.391 2.25289 3.63908 0
M  V30 4780 C 456.717 1.90527 4.99603 0
M  V30 4781 C 458.017 3.67446 3.71188 0
M  V30 4782 H 459.711 2.29482 1.92297 0
M  V30 4783 H 457.257 1.10465 0.923773 0
M  V30 4784 H 459.21 1.12536 4.06096 0
M  V30 4785 H 457.934 0.174102 3.26136 0
M  V30 4786 H 456.593 2.27174 2.87728 0
M  V30 4787 H 456.241 0.91206 4.94662 0
M  V30 4788 H 455.941 2.64193 5.24858 0
M  V30 4789 H 457.465 1.89367 5.80493 0
M  V30 4790 H 458.879 3.67719 4.39836 0
M  V30 4791 H 457.276 4.40123 4.07936 0
M  V30 4792 H 458.346 4.01443 2.71977 0
M  V30 4793 N 459.689 -1.00246 1.21608 0
M  V30 4794 C 460.937 -1.73717 1.0328 0
M  V30 4795 C 461.258 -1.90102 -0.434318 0
M  V30 4796 O 460.528 -1.45376 -1.31311 0
M  V30 4797 H 459.108 -0.643613 0.379172 0
M  V30 4798 H 461.77 -1.20787 1.52959 0
M  V30 4799 H 460.866 -2.73535 1.50283 0
M  V30 4800 N 461.167 -1.02423 -1.1978 0
M  V30 4801 C 462.413 -0.719051 -1.89625 0
M  V30 4802 C 462.746 0.750083 -1.7913 0
M  V30 4803 O 462.021 1.54574 -1.18056 0
M  V30 4804 C 462.304 -1.16499 -3.40735 0
M  V30 4805 C 462.157 -2.695 -3.60125 0
M  V30 4806 C 463.476 -0.742166 -4.33797 0
M  V30 4807 H 460.595 -0.26269 -0.688595 0
M  V30 4808 H 463.237 -1.27333 -1.41018 0
M  V30 4809 H 461.387 -0.69341 -3.82262 0
M  V30 4810 H 463.059 -3.24569 -3.278 0
M  V30 4811 H 461.302 -3.10113 -3.03336 0
M  V30 4812 H 461.973 -2.95757 -4.66081 0
M  V30 4813 H 464.449 -1.1477 -3.99959 0
M  V30 4814 H 463.325 -1.08213 -5.38127 0
M  V30 4815 H 463.586 0.355747 -4.40666 0
M  V30 4816 N 462.645 1.35699 -0.801477 0
M  V30 4817 C 463.891 1.99208 -0.380022 0
M  V30 4818 C 464.224 1.63445 1.04878 0
M  V30 4819 O 463.499 0.895223 1.72673 0
M  V30 4820 C 463.782 3.55755 -0.557708 0
M  V30 4821 C 463.635 4.01332 -2.03107 0
M  V30 4822 C 464.954 4.40096 0.0197968 0
M  V30 4823 H 462.073 0.723667 -0.139552 0
M  V30 4824 H 464.715 1.60928 -1.01006 0
M  V30 4825 H 462.865 3.88494 -0.0213741 0
M  V30 4826 H 464.537 3.79026 -2.62939 0
M  V30 4827 H 462.78 3.52429 -2.52936 0
M  V30 4828 H 463.451 5.10234 -2.1063 0
M  V30 4829 H 465.927 4.13786 -0.438179 0
M  V30 4830 H 464.803 5.48735 -0.134477 0
M  V30 4831 H 465.064 4.2786 1.11303 0
M  V30 4832 N 464.123 0.554532 1.47522 0
M  V30 4833 C 465.353 0.0342074 2.06572 0
M  V30 4834 C 465.761 -1.26375 1.40805 0
M  V30 4835 O 465.104 -1.7683 0.49769 0
M  V30 4836 C 465.166 -0.235096 3.5873 0
M  V30 4837 C 464.83 0.973024 4.46521 0
M  V30 4838 C 465.827 1.8779 4.848 0
M  V30 4839 C 463.512 1.18694 4.88075 0
M  V30 4840 C 465.506 2.98039 5.63428 0
M  V30 4841 C 463.193 2.29254 5.66468 0
M  V30 4842 C 464.191 3.18757 6.04055 0
M  V30 4843 O 463.879 4.27401 6.8087 0
M  V30 4844 H 463.611 0.041587 0.67472 0
M  V30 4845 H 466.165 0.766748 1.90552 0
M  V30 4846 H 464.395 -1.02191 3.72953 0
M  V30 4847 H 466.084 -0.700477 3.9981 0
M  V30 4848 H 466.85 1.72467 4.53299 0
M  V30 4849 H 462.729 0.49947 4.58286 0
M  V30 4850 H 466.273 3.67926 5.92685 0
M  V30 4851 H 462.17 2.4455 5.97382 0
M  V30 4852 H 462.938 4.25415 6.9926 0
M  V30 4853 N 465.601 -1.54893 0.290851 0
M  V30 4854 C 467.017 -1.59476 -0.0628432 0
M  V30 4855 C 467.217 -1.30795 -1.5328 0
M  V30 4856 O 466.273 -1.07644 -2.28406 0
M  V30 4857 C 467.586 -2.98928 0.325962 0
M  V30 4858 C 469.134 -3.11799 0.273882 0
M  V30 4859 C 469.609 -4.53544 0.637359 0
M  V30 4860 N 471.1 -4.59433 0.589507 0
M  V30 4861 C 471.835 -5.67164 0.84335 0
M  V30 4862 N 471.331 -6.82975 1.16263 0
M  V30 4863 N 473.124 -5.56786 0.771091 0
M  V30 4864 H 465.275 -1.71798 1.24896 0
M  V30 4865 H 467.538 -0.801879 0.505663 0
M  V30 4866 H 467.244 -3.24805 1.34887 0
M  V30 4867 H 467.118 -3.75793 -0.325441 0
M  V30 4868 H 469.505 -2.85677 -0.739765 0
M  V30 4869 H 469.586 -2.37112 0.959766 0
M  V30 4870 H 469.23 -4.80394 1.64877 0
M  V30 4871 H 469.16 -5.26553 -0.0704866 0
M  V30 4872 H 471.651 -3.76245 0.353252 0
M  V30 4873 H 471.964 -7.61048 1.34257 0
M  V30 4874 H 470.309 -6.84552 1.20057 0
M  V30 4875 H 473.5 -4.65187 0.521383 0
M  V30 4876 H 473.673 -6.40664 0.972295 0
M  V30 4877 N 467.08 -0.0183926 -1.57589 0
M  V30 4878 C 468.305 0.676634 -1.96052 0
M  V30 4879 C 468.73 1.6548 -0.894307 0
M  V30 4880 O 468.088 1.80712 0.145849 0
M  V30 4881 C 468.136 1.36872 -3.33614 0
M  V30 4882 O 467.24 2.48372 -3.29219 0
M  V30 4883 H 466.581 0.1786 -0.63953 0
M  V30 4884 H 469.111 -0.077056 -2.04455 0
M  V30 4885 H 469.121 1.72797 -3.69601 0
M  V30 4886 H 467.796 0.651636 -4.10763 0
M  V30 4887 H 466.373 2.14639 -3.04934 0
M  V30 4888 N 468.558 1.5553 0.254621 0
M  V30 4889 C 469.488 1.9268 1.31897 0
M  V30 4890 C 470.469 0.790797 1.506 0
M  V30 4891 O 471.654 1.05045 1.63337 0
M  V30 4892 C 468.784 2.21477 2.67517 0
M  V30 4893 C 467.738 3.37256 2.63519 0
M  V30 4894 C 467.064 3.51576 4.02862 0
M  V30 4895 C 468.364 4.73157 2.21179 0
M  V30 4896 H 470.058 2.81832 1.01051 0
M  V30 4897 H 467.604 1.35599 0.484662 0
M  V30 4898 H 469.557 2.46055 3.42104 0
M  V30 4899 H 468.281 1.29144 2.99982 0
M  V30 4900 H 466.94 3.12675 1.9139 0
M  V30 4901 H 466.588 2.56676 4.32581 0
M  V30 4902 H 466.288 4.2943 4.01078 0
M  V30 4903 H 467.812 3.78467 4.79161 0
M  V30 4904 H 469.226 4.97158 2.85494 0
M  V30 4905 H 467.623 5.54058 2.30521 0
M  V30 4906 H 468.693 4.70739 1.16332 0
M  V30 4907 N 470.036 -0.519951 1.48776 0
M  V30 4908 C 471.261 -1.30447 1.6124 0
M  V30 4909 C 471.686 -1.86055 0.276591 0
M  V30 4910 O 471.044 -1.64915 -0.753183 0
M  V30 4911 C 471.092 -2.42406 2.66967 0
M  V30 4912 O 470.196 -3.45728 2.24824 0
M  V30 4913 H 469.537 -0.385924 0.540332 0
M  V30 4914 H 472.067 -0.624572 1.94834 0
M  V30 4915 H 472.077 -2.88447 2.88552 0
M  V30 4916 H 470.752 -2.01294 3.63941 0
M  V30 4917 H 469.329 -3.05737 2.13494 0
M  V30 4918 N 471.514 -1.37532 -0.769588 0
M  V30 4919 C 472.761 -1.3286 -1.52822 0
M  V30 4920 C 473.089 0.0862597 -1.94309 0
M  V30 4921 O 472.344 1.05995 -1.6451 0
M  V30 4922 C 472.643 -2.21558 -2.8044 0
M  V30 4923 C 472.309 -3.69796 -2.57996 0
M  V30 4924 C 470.971 -4.10194 -2.51583 0
M  V30 4925 C 473.323 -4.63699 -2.37976 0
M  V30 4926 C 470.651 -5.42608 -2.23144 0
M  V30 4927 C 473.003 -5.96353 -2.1106 0
M  V30 4928 C 471.667 -6.35853 -2.03093 0
M  V30 4929 H 470.937 -0.486168 -0.559215 0
M  V30 4930 H 473.584 -1.69757 -0.886277 0
M  V30 4931 H 471.889 -1.77663 -3.49204 0
M  V30 4932 H 473.586 -2.15256 -3.38328 0
M  V30 4933 H 470.176 -3.37759 -2.63851 0
M  V30 4934 H 474.36 -4.33346 -2.41919 0
M  V30 4935 H 469.616 -5.72173 -2.15472 0
M  V30 4936 H 473.79 -6.68667 -1.94568 0
M  V30 4937 H 471.417 -7.38382 -1.8082 0
M  V30 4938 N 472.992 0.995999 -1.22138 0
M  V30 4939 C 473.902 2.11985 -1.00496 0
M  V30 4940 C 474.918 1.7394 0.0457701 0
M  V30 4941 O 476.094 2.00868 -0.146273 0
M  V30 4942 C 473.159 3.41779 -0.582086 0
M  V30 4943 C 472.22 3.93943 -1.70608 0
M  V30 4944 C 471.453 5.17542 -1.30328 0
M  V30 4945 O 471.676 5.70114 -0.180743 0
M  V30 4946 O 470.61 5.63382 -2.11861 0
M  V30 4947 H 474.436 2.33123 -1.94647 0
M  V30 4948 H 472.021 1.10358 -1.00705 0
M  V30 4949 H 473.903 4.1989 -0.356467 0
M  V30 4950 H 472.578 3.22007 0.330592 0
M  V30 4951 H 471.485 3.17019 -1.98619 0
M  V30 4952 H 472.818 4.18141 -2.59651 0
M  V30 4953 N 474.47 1.03057 1.19235 0
M  V30 4954 C 475.747 0.642608 1.84743 0
M  V30 4955 C 476.127 -0.878577 1.91948 0
M  V30 4956 O 475.475 -1.77597 1.43776 0
M  V30 4957 C 475.685 1.30665 3.23616 0
M  V30 4958 C 477.033 1.43098 3.9976 0
M  V30 4959 O 478.057 1.26396 3.3302 0
M  V30 4960 O 476.916 1.70223 5.19313 0
M  V30 4961 H 474.01 0.223573 0.796206 0
M  V30 4962 H 476.556 1.12883 1.26711 0
M  V30 4963 H 475.328 2.34544 3.13217 0
M  V30 4964 H 474.951 0.808405 3.89295 0
M  V30 4965 N 475.948 -1.35272 0.808662 0
M  V30 4966 C 476.858 -2.33546 0.222079 0
M  V30 4967 C 477.874 -1.6196 -0.636011 0
M  V30 4968 O 479.05 -1.93822 -0.547274 0
M  V30 4969 C 476.115 -3.41148 -0.61795 0
M  V30 4970 C 475.176 -4.28507 0.260875 0
M  V30 4971 C 474.409 -5.3097 -0.539156 0
M  V30 4972 O 474.632 -5.42123 -1.77367 0
M  V30 4973 O 473.566 -6.01858 0.0710526 0
M  V30 4974 H 477.392 -2.85515 1.03512 0
M  V30 4975 H 474.977 -1.38079 0.570495 0
M  V30 4976 H 476.859 -4.06889 -1.09634 0
M  V30 4977 H 475.534 -2.91447 -1.40855 0
M  V30 4978 H 474.441 -3.6574 0.786451 0
M  V30 4979 H 475.774 -4.81611 1.01547 0
M  V30 4980 N 477.426 -0.562348 -1.47226 0
M  V30 4981 C 478.356 0.170627 -2.32876 0
M  V30 4982 C 479.337 0.903748 -1.44106 0
M  V30 4983 O 480.522 0.883206 -1.72954 0
M  V30 4984 C 477.652 1.19786 -3.25989 0
M  V30 4985 C 476.606 0.580875 -4.2404 0
M  V30 4986 C 475.932 1.71311 -5.06514 0
M  V30 4987 C 477.232 -0.468714 -5.20193 0
M  V30 4988 H 478.926 -0.544441 -2.94408 0
M  V30 4989 H 476.472 -0.263271 -1.41573 0
M  V30 4990 H 478.425 1.71884 -3.84752 0
M  V30 4991 H 477.149 1.94294 -2.62521 0
M  V30 4992 H 475.808 0.0811538 -3.6651 0
M  V30 4993 H 475.456 2.44736 -4.39447 0
M  V30 4994 H 475.156 1.30604 -5.72902 0
M  V30 4995 H 476.68 2.23725 -5.68137 0
M  V30 4996 H 478.094 -0.0336028 -5.7329 0
M  V30 4997 H 476.491 -0.794957 -5.94811 0
M  V30 4998 H 477.561 -1.36269 -4.65359 0
M  V30 4999 N 478.904 1.54736 -0.299062 0
M  V30 5000 C 480.15 2.00397 0.311244 0
M  V30 5001 C 480.483 1.18716 1.53688 0
M  V30 5002 O 479.758 0.263154 1.92712 0
M  V30 5003 C 480.041 3.53817 0.669761 0
M  V30 5004 C 479.894 4.46239 -0.564882 0
M  V30 5005 C 481.213 4.13856 1.49702 0
M  V30 5006 H 478.332 0.728493 0.111653 0
M  V30 5007 H 480.974 1.85506 -0.410774 0
M  V30 5008 H 479.124 3.66637 1.28491 0
M  V30 5009 H 480.796 4.45328 -1.20337 0
M  V30 5010 H 479.039 4.16916 -1.19849 0
M  V30 5011 H 479.71 5.5134 -0.269918 0
M  V30 5012 H 482.186 4.04461 0.977284 0
M  V30 5013 H 481.062 5.21365 1.71666 0
M  V30 5014 H 481.323 3.65608 2.48563 0
M  V30 5015 N 480.382 0.0267497 1.57577 0
M  V30 5016 C 481.612 -0.6617 1.95717 0
M  V30 5017 C 482.02 -1.66331 0.901706 0
M  V30 5018 O 481.363 -1.83273 -0.125241 0
M  V30 5019 C 481.425 -1.42649 3.29987 0
M  V30 5020 C 481.089 -0.583482 4.5326 0
M  V30 5021 C 482.086 0.140221 5.19711 0
M  V30 5022 C 479.771 -0.521581 4.99585 0
M  V30 5023 C 481.765 0.914523 6.30805 0
M  V30 5024 C 479.452 0.256428 6.10562 0
M  V30 5025 C 480.45 0.973189 6.76031 0
M  V30 5026 O 480.138 1.73845 7.84878 0
M  V30 5027 H 479.87 -0.187483 0.649481 0
M  V30 5028 H 482.424 0.0820847 2.05236 0
M  V30 5029 H 480.654 -2.21536 3.16952 0
M  V30 5030 H 482.343 -2.00282 3.53047 0
M  V30 5031 H 483.109 0.101716 4.84893 0
M  V30 5032 H 478.988 -1.06904 4.48433 0
M  V30 5033 H 482.532 1.4745 6.81839 0
M  V30 5034 H 478.429 0.296657 6.44818 0
M  V30 5035 H 479.197 1.65797 8.01532 0
M  V30 5036 N 481.861 -1.55662 -0.24637 0
M  V30 5037 C 482.824 -1.89558 -1.28842 0
M  V30 5038 C 483.824 -0.772082 -1.41052 0
M  V30 5039 O 485.014 -1.04007 -1.39743 0
M  V30 5040 C 482.146 -2.12449 -2.66605 0
M  V30 5041 H 483.339 -2.82735 -1.00004 0
M  V30 5042 H 480.892 -1.48562 -0.485684 0
M  V30 5043 H 481.627 -1.21742 -3.00582 0
M  V30 5044 H 481.412 -2.94273 -2.59125 0
M  V30 5045 H 482.902 -2.39854 -3.41847 0
M  V30 5046 N 483.339 0.512053 -1.4905 0
M  V30 5047 C 484.616 1.27337 -1.48474 0
M  V30 5048 C 484.996 2.1009 -0.206301 0
M  V30 5049 O 484.344 2.136 0.811609 0
M  V30 5050 C 484.554 2.13954 -2.75726 0
M  V30 5051 C 485.902 2.73507 -3.24776 0
M  V30 5052 O 486.926 2.24229 -2.76767 0
M  V30 5053 O 485.785 3.63186 -4.08361 0
M  V30 5054 H 482.879 0.575652 -0.593762 0
M  V30 5055 H 485.425 0.527232 -1.61302 0
M  V30 5056 H 484.197 1.52709 -3.60272 0
M  V30 5057 H 483.82 2.95782 -2.65705 0
M  V30 5058 N 484.817 1.37938 0.762283 0
M  V30 5059 C 486.094 1.24196 1.51112 0
M  V30 5060 C 486.474 -0.160409 2.1049 0
M  V30 5061 O 485.822 -1.16904 1.96331 0
M  V30 5062 C 486.032 2.34537 2.58445 0
M  V30 5063 C 487.38 2.7254 3.25588 0
M  V30 5064 O 488.404 2.33783 2.68745 0
M  V30 5065 O 487.263 3.39343 4.28379 0
M  V30 5066 H 484.357 0.485175 0.669727 0
M  V30 5067 H 486.903 1.49743 0.798438 0
M  V30 5068 H 485.675 3.28406 2.12756 0
M  V30 5069 H 485.298 2.10505 3.37303 0
M  V30 5070 N 486.295 -0.989507 1.22664 0
M  V30 5071 C 487.525 -1.7624 1.0781 0
M  V30 5072 C 487.933 -1.85466 -0.374036 0
M  V30 5073 O 487.276 -1.32645 -1.27087 0
M  V30 5074 C 487.338 -3.21007 1.61849 0
M  V30 5075 C 487.002 -3.35316 3.10503 0
M  V30 5076 C 487.999 -3.22362 4.07896 0
M  V30 5077 C 485.684 -3.60258 3.50028 0
M  V30 5078 C 487.678 -3.34139 5.42798 0
M  V30 5079 C 485.365 -3.71676 4.85078 0
M  V30 5080 C 486.363 -3.58625 5.81272 0
M  V30 5081 O 486.051 -3.69655 7.1387 0
M  V30 5082 H 485.783 -0.560209 0.378341 0
M  V30 5083 H 488.337 -1.25252 1.62792 0
M  V30 5084 H 486.567 -3.73202 1.01279 0
M  V30 5085 H 488.256 -3.80024 1.42606 0
M  V30 5086 H 489.022 -3.03 3.78703 0
M  V30 5087 H 484.901 -3.69492 2.75675 0
M  V30 5088 H 488.445 -3.23869 6.17863 0
M  V30 5089 H 484.342 -3.90545 5.1395 0
M  V30 5090 H 485.11 -3.86507 7.21495 0
M  V30 5091 N 487.773 -1.03688 -1.18687 0
M  V30 5092 C 489.022 -0.733235 -1.879 0
M  V30 5093 C 489.335 0.741745 -1.8099 0
M  V30 5094 O 490.541 1.15875 -2.4553 0
M  V30 5095 C 488.997 -1.26127 -3.37076 0
M  V30 5096 C 488.605 -2.76461 -3.52524 0
M  V30 5097 C 490.349 -1.03398 -4.11715 0
M  V30 5098 C 488.256 -3.22642 -4.95637 0
M  V30 5099 H 487.186 -0.270584 -0.703776 0
M  V30 5100 H 489.837 -1.25222 -1.34133 0
M  V30 5101 H 488.219 -0.670165 -3.90288 0
M  V30 5102 H 489.393 -3.41296 -3.09602 0
M  V30 5103 H 487.708 -2.97559 -2.91286 0
M  V30 5104 H 490.305 -1.3542 -5.17267 0
M  V30 5105 H 490.648 0.0289246 -4.1629 0
M  V30 5106 H 491.181 -1.5895 -3.64664 0
M  V30 5107 H 487.92 -4.28296 -4.96228 0
M  V30 5108 H 487.44 -2.62539 -5.39289 0
M  V30 5109 H 489.119 -3.16444 -5.64333 0
M  V30 5110 N 489.251 1.34841 -0.815825 0
M  V30 5111 C 490.184 2.27504 -0.178062 0
M  V30 5112 C 491.162 1.48542 0.661373 0
M  V30 5113 O 492.346 1.77779 0.626653 0
M  V30 5114 C 489.473 3.30246 0.752002 0
M  V30 5115 C 488.519 4.26499 -0.00899172 0
M  V30 5116 S 489.352 5.18169 -1.35134 0
M  V30 5117 C 490.508 6.24449 -0.42596 0
M  V30 5118 H 490.741 2.81248 -0.963684 0
M  V30 5119 H 488.274 1.41781 -0.611355 0
M  V30 5120 H 490.232 3.89933 1.28308 0
M  V30 5121 H 488.893 2.75363 1.51109 0
M  V30 5122 H 488.086 4.99146 0.697766 0
M  V30 5123 H 487.688 3.7103 -0.470396 0
M  V30 5124 H 489.98 6.76404 0.385234 0
M  V30 5125 H 490.923 6.99156 -1.1219 0
M  V30 5126 H 491.331 5.64497 -0.0175461 0
M  V30 5127 N 490.729 0.570148 1.46925 0
M  V30 5128 C 492.006 -0.0153259 1.95594 0
M  V30 5129 C 492.386 -1.47232 1.51281 0
M  V30 5130 O 491.734 -2.15574 0.757624 0
M  V30 5131 C 491.944 0.143624 3.48704 0
M  V30 5132 C 493.292 0.00494484 4.246 0
M  V30 5133 O 494.316 0.0718214 3.56128 0
M  V30 5134 O 493.175 -0.141175 5.46318 0
M  V30 5135 H 490.269 -0.0568819 0.825041 0
M  V30 5136 H 492.815 0.637583 1.57267 0
M  V30 5137 H 491.587 1.15699 3.73804 0
M  V30 5138 H 491.21 -0.5463 3.93829 0
M  V30 5139 N 492.207 -1.54576 0.307264 0
M  V30 5140 C 493.117 -2.27435 -0.57536 0
M  V30 5141 C 494.133 -1.31183 -1.14311 0
M  V30 5142 O 495.309 -1.64175 -1.16656 0
M  V30 5143 C 492.374 -3.00566 -1.72803 0
M  V30 5144 C 491.435 -4.12369 -1.19373 0
M  V30 5145 C 490.668 -4.82003 -2.29147 0
M  V30 5146 O 490.891 -4.51038 -3.49171 0
M  V30 5147 O 489.825 -5.69271 -1.95485 0
M  V30 5148 H 493.651 -3.03696 0.0158558 0
M  V30 5149 H 491.236 -1.49219 0.0735064 0
M  V30 5150 H 493.118 -3.46416 -2.39946 0
M  V30 5151 H 491.793 -2.27195 -2.30574 0
M  V30 5152 H 490.7 -3.70905 -0.487851 0
M  V30 5153 H 492.033 -4.87736 -0.661376 0
M  V30 5154 N 493.685 -0.035106 -1.57561 0
M  V30 5155 C 494.962 0.681212 -1.83354 0
M  V30 5156 C 495.342 1.89986 -0.920252 0
M  V30 5157 O 494.69 2.28489 0.0226815 0
M  V30 5158 C 494.9 1.05376 -3.32712 0
M  V30 5159 C 496.248 1.44286 -3.99333 0
M  V30 5160 O 497.272 1.14656 -3.37242 0
M  V30 5161 O 496.131 1.99518 -5.08778 0
M  V30 5162 H 493.225 0.334741 -0.756226 0
M  V30 5163 H 495.771 -0.0632448 -1.69582 0
M  V30 5164 H 494.543 0.186668 -3.90854 0
M  V30 5165 H 494.166 1.85619 -3.51613 0
M  V30 5166 N 495.163 1.55791 0.238111 0
M  V30 5167 C 496.095 1.87513 1.31802 0
M  V30 5168 C 497.108 0.762053 1.43863 0
M  V30 5169 O 498.297 1.04024 1.45056 0
M  V30 5170 C 495.397 2.05402 2.69561 0
M  V30 5171 C 494.57 3.3632 2.79656 0
M  V30 5172 C 493.629 3.43844 3.98319 0
M  V30 5173 O 492.655 4.16994 3.87433 0
M  V30 5174 N 493.857 2.73777 5.11885 0
M  V30 5175 H 496.622 2.80734 1.04922 0
M  V30 5176 H 494.183 1.56135 0.428196 0
M  V30 5177 H 496.175 2.07769 3.47296 0
M  V30 5178 H 494.745 1.18884 2.89111 0
M  V30 5179 H 493.965 3.46195 1.88528 0
M  V30 5180 H 495.253 4.22594 2.83358 0
M  V30 5181 H 494.651 2.14094 5.23622 0
M  V30 5182 H 493.208 2.81825 5.87723 0
M  V30 5183 N 496.642 -0.504142 1.49319 0
M  V30 5184 C 497.867 -1.28729 1.62615 0
M  V30 5185 C 498.292 -1.85752 0.296309 0
M  V30 5186 O 497.65 -1.65704 -0.735649 0
M  V30 5187 C 497.698 -2.39561 2.69524 0
M  V30 5188 O 496.802 -3.43324 2.28478 0
M  V30 5189 H 496.143 -0.380172 0.544395 0
M  V30 5190 H 498.673 -0.603872 1.95485 0
M  V30 5191 H 498.683 -2.8537 2.91595 0
M  V30 5192 H 497.358 -1.97423 3.66056 0
M  V30 5193 H 495.935 -3.03455 2.16725 0
M  V30 5194 N 498.12 -1.38341 -0.754957 0
M  V30 5195 C 499.067 -1.3546 -1.86867 0
M  V30 5196 C 500.037 -0.217369 -1.64672 0
M  V30 5197 O 501.222 -0.409383 -1.86356 0
M  V30 5198 C 498.362 -1.18413 -3.24149 0
M  V30 5199 C 497.475 -2.41511 -3.58185 0
M  V30 5200 C 496.61 -2.17205 -4.84763 0
M  V30 5201 C 495.649 -3.36081 -5.11582 0
M  V30 5202 N 494.786 -3.11219 -6.29354 0
M  V30 5203 H 499.626 -2.30672 -1.88664 0
M  V30 5204 H 497.163 -1.14607 -0.922154 0
M  V30 5205 H 499.121 -1.06545 -4.03366 0
M  V30 5206 H 497.751 -0.268397 -3.21682 0
M  V30 5207 H 496.803 -2.64056 -2.73822 0
M  V30 5208 H 498.115 -3.30115 -3.73932 0
M  V30 5209 H 497.269 -2.02465 -5.7192 0
M  V30 5210 H 496.008 -1.25964 -4.71152 0
M  V30 5211 H 495.013 -3.51341 -4.22894 0
M  V30 5212 H 496.238 -4.28196 -5.27091 0
M  V30 5213 H 494.184 -2.22624 -6.17069 0
M  V30 5214 H 494.101 -3.93373 -6.45596 0
M  V30 5215 H 495.369 -3.00132 -7.19403 0
M  V30 5216 N 499.598 0.982988 -1.23187 0
M  V30 5217 C 500.528 2.09301 -1.03515 0
M  V30 5218 C 501.509 1.70035 0.0471136 0
M  V30 5219 O 502.694 1.93847 -0.117029 0
M  V30 5220 C 499.824 3.4167 -0.622791 0
M  V30 5221 C 498.778 3.94828 -1.65211 0
M  V30 5222 C 498.104 5.23362 -1.09527 0
M  V30 5223 C 499.404 4.2439 -3.04451 0
M  V30 5224 H 501.098 2.26016 -1.96359 0
M  V30 5225 H 498.644 1.08611 -0.945501 0
M  V30 5226 H 500.597 4.18746 -0.472233 0
M  V30 5227 H 499.321 3.24811 0.341329 0
M  V30 5228 H 497.98 3.19895 -1.79061 0
M  V30 5229 H 497.628 5.02852 -0.122211 0
M  V30 5230 H 497.328 5.59895 -1.783 0
M  V30 5231 H 498.852 6.03062 -0.956511 0
M  V30 5232 H 500.266 4.92225 -2.93917 0
M  V30 5233 H 498.663 4.72118 -3.70438 0
M  V30 5234 H 499.733 3.31765 -3.53638 0
M  V30 5235 N 501.076 1.04316 1.18135 0
M  V30 5236 C 502.039 0.640794 2.2006 0
M  V30 5237 C 503.039 -0.303124 1.57917 0
M  V30 5238 O 504.229 -0.0881855 1.73977 0
M  V30 5239 C 501.361 -0.060148 3.40847 0
M  V30 5240 H 502.554 1.54281 2.57172 0
M  V30 5241 H 500.107 0.836004 1.32063 0
M  V30 5242 H 500.842 -0.975845 3.0927 0
M  V30 5243 H 500.627 0.618319 3.87194 0
M  V30 5244 H 502.117 -0.328082 4.16309 0
M  V30 5245 N 502.554 -1.34406 0.822964 0
M  V30 5246 C 503.802 -1.97892 0.410245 0
M  V30 5247 C 504.123 -1.65567 -1.03017 0
M  V30 5248 O 503.393 -0.94642 -1.71522 0
M  V30 5249 H 501.973 -0.732049 0.148707 0
M  V30 5250 H 504.635 -1.64043 1.05242 0
M  V30 5251 H 503.731 -3.07579 0.529284 0
M  V30 5252 N 504.032 -0.577932 -1.46621 0
M  V30 5253 C 504.962 0.145917 -2.33044 0
M  V30 5254 C 505.943 0.888412 -1.45056 0
M  V30 5255 O 507.128 0.864812 -1.73881 0
M  V30 5256 C 504.258 1.16322 -3.27241 0
M  V30 5257 C 503.212 0.535868 -4.24632 0
M  V30 5258 C 502.538 1.65929 -5.08303 0
M  V30 5259 C 503.838 -0.523861 -5.19666 0
M  V30 5260 H 505.532 -0.575636 -2.93814 0
M  V30 5261 H 503.078 -0.278272 -1.41286 0
M  V30 5262 H 505.031 1.67793 -3.86553 0
M  V30 5263 H 503.755 1.91498 -2.64567 0
M  V30 5264 H 502.414 0.0422759 -3.66576 0
M  V30 5265 H 502.062 2.40061 -4.42018 0
M  V30 5266 H 501.762 1.2452 -5.74255 0
M  V30 5267 H 503.286 2.17686 -5.70478 0
M  V30 5268 H 504.7 -0.0944059 -5.73222 0
M  V30 5269 H 503.097 -0.858 -5.93935 0
M  V30 5270 H 504.167 -1.41197 -4.63887 0
M  V30 5271 N 505.51 1.54411 -0.315457 0
M  V30 5272 C 506.44 2.27002 0.547039 0
M  V30 5273 C 507.421 1.27492 1.12605 0
M  V30 5274 O 508.606 1.5629 1.15269 0
M  V30 5275 C 505.736 3.02171 1.71201 0
M  V30 5276 C 504.69 4.0895 1.26268 0
M  V30 5277 C 504.016 4.71915 2.51396 0
M  V30 5278 C 505.316 5.20891 0.383419 0
M  V30 5279 H 507.01 2.99343 -0.0584517 0
M  V30 5280 H 504.556 1.4397 -0.0295527 0
M  V30 5281 H 506.509 3.51681 2.32161 0
M  V30 5282 H 505.233 2.27433 2.34397 0
M  V30 5283 H 503.892 3.60312 0.676062 0
M  V30 5284 H 503.54 3.93801 3.12937 0
M  V30 5285 H 503.24 5.44039 2.22026 0
M  V30 5286 H 504.764 5.24195 3.13133 0
M  V30 5287 H 506.178 5.66206 0.899082 0
M  V30 5288 H 504.575 5.99821 0.182857 0
M  V30 5289 H 505.645 4.81324 -0.587821 0
M  V30 5290 N 506.988 0.0434614 1.5754 0
M  V30 5291 C 508.265 -0.671479 1.83713 0
M  V30 5292 C 508.645 -1.89495 0.930315 0
M  V30 5293 O 507.993 -2.28498 -0.0105639 0
M  V30 5294 C 508.203 -1.0361 3.33266 0
M  V30 5295 C 509.551 -1.42167 4.00092 0
M  V30 5296 O 510.575 -1.12866 3.37846 0
M  V30 5297 O 509.434 -1.96817 5.09829 0
M  V30 5298 H 506.528 -0.330726 0.75799 0
M  V30 5299 H 509.074 0.0722373 1.69546 0
M  V30 5300 H 507.846 -0.165938 3.90948 0
M  V30 5301 H 507.469 -1.83751 3.52592 0
M  V30 5302 N 508.466 -1.55915 -0.229846 0
M  V30 5303 C 509.396 -1.94754 -1.28815 0
M  V30 5304 C 510.377 -0.814657 -1.49323 0
M  V30 5305 O 511.562 -1.07631 -1.61645 0
M  V30 5306 C 508.692 -2.25705 -2.63959 0
M  V30 5307 C 507.646 -3.41406 -2.5812 0
M  V30 5308 C 506.972 -3.57941 -3.97218 0
M  V30 5309 C 508.272 -4.76616 -2.13623 0
M  V30 5310 H 509.966 -2.83404 -0.965547 0
M  V30 5311 H 507.512 -1.36353 -0.463028 0
M  V30 5312 H 509.465 -2.51467 -3.38146 0
M  V30 5313 H 508.189 -1.339 -2.9789 0
M  V30 5314 H 506.848 -3.1568 -1.86391 0
M  V30 5315 H 506.496 -2.63526 -4.28443 0
M  V30 5316 H 506.196 -4.35757 -3.94195 0
M  V30 5317 H 507.72 -3.86042 -4.73079 0
M  V30 5318 H 509.134 -5.01637 -2.77549 0
M  V30 5319 H 507.531 -5.57655 -2.21677 0
M  V30 5320 H 508.601 -4.7253 -1.08829 0
M  V30 5321 N 509.944 0.496216 -1.49584 0
M  V30 5322 C 510.892 1.61805 -1.67098 0
M  V30 5323 C 511.886 1.60667 -0.536877 0
M  V30 5324 O 513.092 1.65118 -0.716654 0
M  V30 5325 H 509.467 0.53646 -0.526986 0
M  V30 5326 H 511.438 1.44187 -2.61252 0
M  V30 5327 C 510.187 2.99912 -1.75921 0
M  V30 5328 H 509.51 3.01496 -2.62565 0
M  V30 5329 H 510.95 3.77931 -1.92209 0
M  V30 5330 C 509.409 3.33092 -0.505088 0
M  V30 5331 O 509.939 4.00019 0.367085 0
M  V30 5332 N 508.145 2.88278 -0.366599 0
M  V30 5333 H 507.692 2.33989 -1.07735 0
M  V30 5334 H 507.65 3.10846 0.47142 0
M  V30 5335 N 511.423 1.38739 0.74761 0
M  V30 5336 C 512.371 1.36573 1.88283 0
M  V30 5337 C 513.365 0.250712 1.67534 0
M  V30 5338 O 514.571 0.420073 1.7503 0
M  V30 5339 H 510.946 0.42619 0.619569 0
M  V30 5340 H 512.917 2.32356 1.87226 0
M  V30 5341 C 511.666 1.21361 3.25832 0
M  V30 5342 H 510.989 2.06424 3.42388 0
M  V30 5343 H 512.429 1.23901 4.05493 0
M  V30 5344 C 510.888 -0.0790099 3.36807 0
M  V30 5345 O 511.418 -1.05385 3.8763 0
M  V30 5346 N 509.624 -0.13785 2.90273 0
M  V30 5347 H 509.171 0.656128 2.49104 0
M  V30 5348 H 509.129 -1.00228 2.97996 0
M  V30 5349 N 512.901 -0.976442 1.23707 0
M  V30 5350 C 513.864 -2.0511 1.02287 0
M  V30 5351 C 514.864 -1.60791 -0.0167195 0
M  V30 5352 O 516.054 -1.72761 0.223408 0
M  V30 5353 C 513.186 -3.36458 0.548507 0
M  V30 5354 H 514.379 -2.25545 1.9766 0
M  V30 5355 H 511.932 -1.15042 1.05806 0
M  V30 5356 H 512.667 -3.21713 -0.408818 0
M  V30 5357 H 512.452 -3.69967 1.29874 0
M  V30 5358 H 513.942 -4.15489 0.419406 0
M  V30 5359 N 514.379 -1.04941 -1.1758 0
M  V30 5360 C 515.628 -0.753124 -1.87112 0
M  V30 5361 C 515.941 0.722507 -1.81767 0
M  V30 5362 O 517.147 1.13265 -2.46746 0
M  V30 5363 C 515.603 -1.29695 -3.35719 0
M  V30 5364 C 515.211 -2.80184 -3.49572 0
M  V30 5365 C 516.955 -1.07759 -4.10595 0
M  V30 5366 C 514.862 -3.2788 -4.92187 0
M  V30 5367 H 513.792 -0.278034 -0.700866 0
M  V30 5368 H 516.443 -1.26637 -1.32798 0
M  V30 5369 H 514.825 -0.711522 -3.89555 0
M  V30 5370 H 515.999 -3.44561 -3.05965 0
M  V30 5371 H 514.314 -3.00632 -2.88113 0
M  V30 5372 H 516.911 -1.40899 -5.15802 0
M  V30 5373 H 517.254 -0.0152302 -4.16297 0
M  V30 5374 H 517.787 -1.62809 -3.62957 0
M  V30 5375 H 514.526 -4.33535 -4.91658 0
M  V30 5376 H 514.046 -2.68245 -5.36475 0
M  V30 5377 H 515.725 -3.22412 -5.60945 0
M  V30 5378 N 515.857 1.33968 -0.830081 0
M  V30 5379 C 516.787 2.31911 -0.271911 0
M  V30 5380 C 517.768 1.58571 0.61556 0
M  V30 5381 O 518.953 1.86514 0.540946 0
M  V30 5382 C 516.083 3.42737 0.561146 0
M  V30 5383 C 515.037 4.27383 -0.229789 0
M  V30 5384 C 514.363 5.29742 0.726463 0
M  V30 5385 C 515.663 5.02 -1.44197 0
M  V30 5386 H 517.357 2.78844 -1.09025 0
M  V30 5387 H 514.903 1.34061 -0.52571 0
M  V30 5388 H 516.856 4.10276 0.961867 0
M  V30 5389 H 515.58 2.94471 1.41261 0
M  V30 5390 H 514.239 3.61456 -0.611964 0
M  V30 5391 H 513.887 4.77736 1.57408 0
M  V30 5392 H 513.587 5.87255 0.20142 0
M  V30 5393 H 515.111 6.00149 1.12489 0
M  V30 5394 H 516.525 5.62355 -1.11488 0
M  V30 5395 H 514.922 5.69122 -1.90317 0
M  V30 5396 H 515.992 4.31281 -2.2164 0
M  V30 5397 N 517.335 0.585699 1.46312 0
M  V30 5398 C 518.267 -0.183687 2.28463 0
M  V30 5399 C 519.28 -0.85264 1.38686 0
M  V30 5400 O 520.469 -0.721701 1.6326 0
M  V30 5401 C 517.569 -1.27977 3.13808 0
M  V30 5402 C 516.742 -0.702164 4.31727 0
M  V30 5403 C 515.801 -1.68633 4.98447 0
M  V30 5404 O 514.827 -1.22121 5.55945 0
M  V30 5405 N 516.029 -3.02047 4.95729 0
M  V30 5406 H 518.794 0.521127 2.95134 0
M  V30 5407 H 516.355 0.423673 1.56258 0
M  V30 5408 H 518.347 -1.9375 3.55307 0
M  V30 5409 H 516.917 -1.8874 2.4919 0
M  V30 5410 H 516.137 0.1331 3.93975 0
M  V30 5411 H 517.425 -0.296101 5.07938 0
M  V30 5412 H 516.823 -3.42457 4.50266 0
M  V30 5413 H 515.38 -3.63301 5.41161 0
M  V30 5414 N 518.813 -1.54241 0.323641 0
M  V30 5415 C 519.743 -2.27289 -0.534993 0
M  V30 5416 C 520.724 -1.28087 -1.11927 0
M  V30 5417 O 521.909 -1.56899 -1.14439 0
M  V30 5418 C 519.039 -3.03075 -1.69596 0
M  V30 5419 C 517.993 -4.09614 -1.24098 0
M  V30 5420 C 517.319 -4.73242 -2.4889 0
M  V30 5421 C 518.619 -5.21087 -0.355789 0
M  V30 5422 H 520.313 -2.99308 0.0743257 0
M  V30 5423 H 517.859 -1.43952 0.0371874 0
M  V30 5424 H 519.812 -3.52907 -2.30293 0
M  V30 5425 H 518.536 -2.28673 -2.33187 0
M  V30 5426 H 517.195 -3.60666 -0.656945 0
M  V30 5427 H 516.843 -3.95455 -3.10845 0
M  V30 5428 H 516.543 -5.45209 -2.19138 0
M  V30 5429 H 518.067 -5.25848 -3.10348 0
M  V30 5430 H 519.481 -5.66675 -0.869042 0
M  V30 5431 H 517.878 -5.9991 -0.151045 0
M  V30 5432 H 518.948 -4.81005 0.613339 0
M  V30 5433 N 520.291 -0.0518155 -1.57515 0
M  V30 5434 C 521.537 0.622745 -1.93002 0
M  V30 5435 C 521.87 1.70456 -0.930499 0
M  V30 5436 O 521.145 1.94452 0.0434086 0
M  V30 5437 C 521.428 1.21824 -3.38867 0
M  V30 5438 C 521.281 0.144434 -4.49568 0
M  V30 5439 C 522.6 2.12968 -3.8514 0
M  V30 5440 H 519.719 0.22491 -0.701844 0
M  V30 5441 H 522.361 -0.113711 -1.89659 0
M  V30 5442 H 520.511 1.8459 -3.41846 0
M  V30 5443 H 522.183 -0.48753 -4.58717 0
M  V30 5444 H 520.426 -0.527424 -4.30582 0
M  V30 5445 H 521.097 0.601127 -5.48717 0
M  V30 5446 H 523.573 1.60163 -3.8404 0
M  V30 5447 H 522.449 2.51578 -4.87852 0
M  V30 5448 H 522.71 3.03004 -3.21934 0
M  V30 5449 N 521.769 1.56035 0.221574 0
M  V30 5450 C 522.716 1.92413 1.27459 0
M  V30 5451 C 523.686 0.781323 1.46576 0
M  V30 5452 O 524.871 1.03721 1.60145 0
M  V30 5453 C 522.011 2.24617 2.61995 0
M  V30 5454 C 521.124 3.51831 2.50677 0
M  V30 5455 C 520.259 3.73482 3.77736 0
M  V30 5456 C 519.298 4.94211 3.6114 0
M  V30 5457 N 518.435 5.12252 4.80148 0
M  V30 5458 H 523.275 2.82203 0.957355 0
M  V30 5459 H 520.812 1.39676 0.461415 0
M  V30 5460 H 522.77 2.41298 3.40339 0
M  V30 5461 H 521.4 1.38 2.91815 0
M  V30 5462 H 520.452 3.43343 1.63767 0
M  V30 5463 H 521.764 4.40328 2.34334 0
M  V30 5464 H 520.918 3.9026 4.64523 0
M  V30 5465 H 519.657 2.83266 3.97003 0
M  V30 5466 H 518.662 4.77384 2.72736 0
M  V30 5467 H 519.887 5.85912 3.43343 0
M  V30 5468 H 517.833 4.24978 4.99729 0
M  V30 5469 H 517.75 5.94881 4.66532 0
M  V30 5470 H 519.018 5.33465 5.68362 0
M  V30 5471 N 523.247 -0.488276 1.49845 0
M  V30 5472 C 524.194 -1.58836 1.67451 0
M  V30 5473 C 525.164 -1.57886 0.515857 0
M  V30 5474 O 526.349 -1.75679 0.744403 0
M  V30 5475 C 523.489 -2.96915 1.75885 0
M  V30 5476 C 522.602 -3.07784 3.03138 0
M  V30 5477 C 521.737 -4.36673 3.02473 0
M  V30 5478 C 520.776 -4.41222 4.24252 0
M  V30 5479 N 519.913 -5.61557 4.21424 0
M  V30 5480 H 524.753 -1.43131 2.61376 0
M  V30 5481 H 522.29 -0.696186 1.29583 0
M  V30 5482 H 524.248 -3.76965 1.78755 0
M  V30 5483 H 522.878 -3.11295 0.85414 0
M  V30 5484 H 521.93 -2.20717 3.09819 0
M  V30 5485 H 523.242 -3.07005 3.93128 0
M  V30 5486 H 522.396 -5.25055 3.03977 0
M  V30 5487 H 521.135 -4.40037 2.10283 0
M  V30 5488 H 520.14 -3.5124 4.22978 0
M  V30 5489 H 521.365 -4.39564 5.17649 0
M  V30 5490 H 519.311 -5.65738 3.32078 0
M  V30 5491 H 519.228 -5.62447 5.05163 0
M  V30 5492 H 520.496 -6.52111 4.2705 0
M  V30 5493 N 524.725 -1.39134 -0.740242 0
M  V30 5494 C 525.955 -1.39132 -1.52728 0
M  V30 5495 C 526.363 0.0173133 -1.89192 0
M  V30 5496 O 525.706 0.997715 -1.54244 0
M  V30 5497 C 525.768 -2.1952 -2.84695 0
M  V30 5498 C 525.432 -3.68203 -2.70695 0
M  V30 5499 C 526.429 -4.61401 -2.39593 0
M  V30 5500 C 524.114 -4.11724 -2.8773 0
M  V30 5501 C 526.108 -5.96102 -2.25701 0
M  V30 5502 C 523.795 -5.46503 -2.73456 0
M  V30 5503 C 524.793 -6.38506 -2.42486 0
M  V30 5504 O 524.481 -7.70803 -2.28295 0
M  V30 5505 H 524.213 -0.477263 -0.478744 0
M  V30 5506 H 526.767 -1.83504 -0.922799 0
M  V30 5507 H 524.997 -1.69888 -3.47383 0
M  V30 5508 H 526.686 -2.1176 -3.46284 0
M  V30 5509 H 527.452 -4.29079 -2.26088 0
M  V30 5510 H 523.331 -3.4045 -3.10829 0
M  V30 5511 H 526.875 -6.6788 -2.0145 0
M  V30 5512 H 522.772 -5.78417 -2.86538 0
M  V30 5513 H 523.54 -7.8147 -2.43405 0
M  V30 5514 N 526.204 0.969867 -1.24223 0
M  V30 5515 C 527.151 2.06407 -1.0327 0
M  V30 5516 C 528.121 1.66014 0.0533 0
M  V30 5517 O 529.306 1.90533 -0.100896 0
M  V30 5518 C 526.446 3.3909 -0.641262 0
M  V30 5519 C 525.559 3.9269 -1.80051 0
M  V30 5520 C 524.694 5.13631 -1.35486 0
M  V30 5521 C 523.733 5.59423 -2.48419 0
M  V30 5522 N 522.87 6.71586 -2.04737 0
M  V30 5523 H 527.71 2.23663 -1.96923 0
M  V30 5524 H 525.247 1.09624 -0.980862 0
M  V30 5525 H 527.205 4.15323 -0.395351 0
M  V30 5526 H 525.835 3.21765 0.258269 0
M  V30 5527 H 524.887 3.13116 -2.16014 0
M  V30 5528 H 526.199 4.22636 -2.64916 0
M  V30 5529 H 525.353 5.97231 -1.0677 0
M  V30 5530 H 524.092 4.85364 -0.476722 0
M  V30 5531 H 523.097 4.74398 -2.77897 0
M  V30 5532 H 524.322 5.89705 -3.36786 0
M  V30 5533 H 522.268 6.45058 -1.19318 0
M  V30 5534 H 522.185 7.0097 -2.83156 0
M  V30 5535 H 523.453 7.58633 -1.79154 0
M  V30 5536 N 527.682 1.05563 1.17022 0
M  V30 5537 C 528.907 0.788437 1.91829 0
M  V30 5538 C 529.332 -0.650356 1.76499 0
M  V30 5539 O 528.69 -1.45229 1.08527 0
M  V30 5540 C 528.738 1.1786 3.40795 0
M  V30 5541 O 527.842 0.312965 4.11211 0
M  V30 5542 H 527.183 0.288794 0.597908 0
M  V30 5543 H 529.713 1.40948 1.48307 0
M  V30 5544 H 529.723 1.14697 3.91546 0
M  V30 5545 H 528.398 2.22666 3.51273 0
M  V30 5546 H 526.975 0.405515 3.70689 0
M  V30 5547 N 529.16 -1.33526 0.837174 0
M  V30 5548 C 530.093 -2.27192 0.214233 0
M  V30 5549 C 531.071 -1.49575 -0.637657 0
M  V30 5550 O 532.255 -1.78753 -0.598291 0
M  V30 5551 C 529.382 -3.31401 -0.699367 0
M  V30 5552 C 528.428 -4.26431 0.0768429 0
M  V30 5553 S 529.261 -5.15954 1.4336 0
M  V30 5554 C 530.417 -6.23692 0.525251 0
M  V30 5555 H 530.65 -2.79679 1.00831 0
M  V30 5556 H 528.183 -1.4079 0.633834 0
M  V30 5557 H 530.141 -3.91924 -1.22088 0
M  V30 5558 H 528.802 -2.77732 -1.46709 0
M  V30 5559 H 527.995 -5.00193 -0.618268 0
M  V30 5560 H 527.597 -3.70235 0.529364 0
M  V30 5561 H 529.889 -6.76931 -0.277575 0
M  V30 5562 H 530.832 -6.97283 1.23299 0
M  V30 5563 H 531.24 -5.64398 0.107351 0
M  V30 5564 N 530.638 -0.59345 -1.46 0
M  V30 5565 C 531.585 0.133618 -2.30413 0
M  V30 5566 C 532.555 0.873736 -1.41262 0
M  V30 5567 O 533.74 0.862279 -1.70204 0
M  V30 5568 C 530.88 1.13434 -3.25924 0
M  V30 5569 C 529.993 0.39656 -4.30176 0
M  V30 5570 C 529.128 1.38575 -5.12806 0
M  V30 5571 C 528.167 0.634984 -6.08797 0
M  V30 5572 N 527.304 1.57276 -6.84258 0
M  V30 5573 H 532.144 -0.592252 -2.92055 0
M  V30 5574 H 529.681 -0.303874 -1.43927 0
M  V30 5575 H 531.639 1.72752 -3.79753 0
M  V30 5576 H 530.269 1.82779 -2.66067 0
M  V30 5577 H 529.321 -0.311861 -3.79119 0
M  V30 5578 H 530.633 -0.189869 -4.98438 0
M  V30 5579 H 529.787 2.05141 -5.70966 0
M  V30 5580 H 528.526 2.00611 -4.44529 0
M  V30 5581 H 527.531 -0.0443925 -5.49782 0
M  V30 5582 H 528.756 0.0198678 -6.79097 0
M  V30 5583 H 526.702 2.18103 -6.18682 0
M  V30 5584 H 526.619 1.03941 -7.48821 0
M  V30 5585 H 527.887 2.22844 -7.46968 0
M  V30 5586 N 532.116 1.54067 -0.331816 0
M  V30 5587 C 533.046 2.27569 0.522932 0
M  V30 5588 C 534.027 1.28679 1.11247 0
M  V30 5589 O 535.212 1.57504 1.13605 0
M  V30 5590 C 532.342 3.0397 1.67987 0
M  V30 5591 C 531.296 4.10267 1.21924 0
M  V30 5592 C 530.622 4.74555 2.46377 0
M  V30 5593 C 531.922 5.21268 0.32815 0
M  V30 5594 H 533.616 2.99264 -0.0901977 0
M  V30 5595 H 531.162 1.4393 -0.044821 0
M  V30 5596 H 533.115 3.54123 2.28418 0
M  V30 5597 H 531.839 2.29906 2.31971 0
M  V30 5598 H 530.498 3.61009 0.637809 0
M  V30 5599 H 530.146 3.97098 3.08743 0
M  V30 5600 H 529.846 5.46363 2.16243 0
M  V30 5601 H 531.37 5.27487 3.07555 0
M  V30 5602 H 532.784 5.67128 0.838978 0
M  V30 5603 H 531.181 5.99982 0.119228 0
M  V30 5604 H 532.251 4.80673 -0.638839 0
M  V30 5605 N 533.594 0.0601682 1.57485 0
M  V30 5606 C 534.504 -0.926121 2.15546 0
M  V30 5607 C 535.52 -1.33532 1.11558 0
M  V30 5608 O 536.696 -1.4104 1.4377 0
M  V30 5609 C 533.761 -2.17952 2.69625 0
M  V30 5610 C 532.822 -1.82783 3.88444 0
M  V30 5611 C 532.055 -3.02148 4.39935 0
M  V30 5612 O 532.278 -4.15803 3.90466 0
M  V30 5613 O 531.212 -2.82639 5.31412 0
M  V30 5614 H 535.038 -0.462289 3.00161 0
M  V30 5615 H 532.623 -0.162246 1.48516 0
M  V30 5616 H 534.505 -2.91474 3.04337 0
M  V30 5617 H 533.18 -2.63456 1.88077 0
M  V30 5618 H 532.087 -1.06549 3.58606 0
M  V30 5619 H 533.42 -1.42072 4.7125 0
M  V30 5620 N 535.072 -1.5615 -0.213296 0
M  V30 5621 C 536.019 -1.93086 -1.26437 0
M  V30 5622 C 536.989 -0.789086 -1.4616 0
M  V30 5623 O 538.174 -1.04569 -1.59593 0
M  V30 5624 C 535.314 -2.26003 -2.608 0
M  V30 5625 C 534.427 -3.53156 -2.48807 0
M  V30 5626 C 533.562 -3.7548 -3.7575 0
M  V30 5627 C 532.601 -4.96119 -3.58514 0
M  V30 5628 N 531.738 -5.14791 -4.77425 0
M  V30 5629 H 536.578 -2.82707 -0.942376 0
M  V30 5630 H 534.115 -1.39919 -0.454001 0
M  V30 5631 H 536.073 -2.431 -3.39055 0
M  V30 5632 H 534.703 -1.39546 -2.91079 0
M  V30 5633 H 533.755 -3.44207 -1.61944 0
M  V30 5634 H 535.067 -4.41565 -2.31996 0
M  V30 5635 H 534.221 -3.92718 -4.62447 0
M  V30 5636 H 532.96 -2.85368 -3.95495 0
M  V30 5637 H 531.965 -4.78823 -2.70201 0
M  V30 5638 H 533.19 -5.87724 -3.40231 0
M  V30 5639 H 531.136 -4.27623 -4.97468 0
M  V30 5640 H 531.053 -5.97347 -4.63371 0
M  V30 5641 H 532.321 -5.36471 -5.65525 0
M  V30 5642 N 536.55 0.480323 -1.50102 0
M  V30 5643 C 537.46 1.60547 -1.71061 0
M  V30 5644 C 538.476 1.63564 -0.593529 0
M  V30 5645 O 539.652 1.81604 -0.870751 0
M  V30 5646 C 536.717 2.96814 -1.79171 0
M  V30 5647 C 535.778 3.04259 -3.02861 0
M  V30 5648 C 535.011 4.34027 -3.10574 0
M  V30 5649 O 535.234 5.24009 -2.25323 0
M  V30 5650 O 534.168 4.46873 -4.03223 0
M  V30 5651 H 537.994 1.45788 -2.6642 0
M  V30 5652 H 535.579 0.658838 -1.34088 0
M  V30 5653 H 537.461 3.77765 -1.86738 0
M  V30 5654 H 536.136 3.11791 -0.869947 0
M  V30 5655 H 535.043 2.22419 -3.008 0
M  V30 5656 H 536.376 2.94216 -3.94586 0
M  V30 5657 N 538.028 1.39524 0.732853 0
M  V30 5658 C 538.938 1.40695 1.87729 0
M  V30 5659 C 539.954 0.301496 1.71368 0
M  V30 5660 O 541.13 0.543313 1.93933 0
M  V30 5661 C 538.195 1.25098 3.23344 0
M  V30 5662 C 537.256 2.45634 3.52083 0
M  V30 5663 C 536.489 2.30772 4.81228 0
M  V30 5664 O 536.712 1.31233 5.55098 0
M  V30 5665 O 535.646 3.19799 5.09914 0
M  V30 5666 H 539.472 2.37168 1.89697 0
M  V30 5667 H 537.057 1.20663 0.880959 0
M  V30 5668 H 538.939 1.18541 4.04383 0
M  V30 5669 H 537.614 0.317209 3.22142 0
M  V30 5670 H 536.521 2.57767 2.71122 0
M  V30 5671 H 537.854 3.37712 3.58066 0
M  V30 5672 N 539.506 -0.963266 1.24736 0
M  V30 5673 C 540.753 -1.7068 1.0897 0
M  V30 5674 C 541.081 -1.90934 -0.370751 0
M  V30 5675 O 540.336 -1.47155 -1.29011 0
M  V30 5676 C 540.635 -3.09944 1.7796 0
M  V30 5677 C 540.301 -3.09518 3.27887 0
M  V30 5678 C 538.963 -3.09109 3.68789 0
M  V30 5679 C 541.315 -3.03509 4.23712 0
M  V30 5680 C 538.643 -3.00429 5.03944 0
M  V30 5681 C 540.995 -2.96371 5.5888 0
M  V30 5682 C 539.659 -2.94293 5.99123 0
M  V30 5683 H 538.929 -0.624564 0.398749 0
M  V30 5684 H 541.576 -1.12603 1.54896 0
M  V30 5685 H 539.881 -3.71513 1.2444 0
M  V30 5686 H 541.578 -3.66278 1.63222 0
M  V30 5687 H 538.168 -3.10603 2.95337 0
M  V30 5688 H 542.352 -3.0295 3.93109 0
M  V30 5689 H 537.608 -2.97183 5.34314 0
M  V30 5690 H 541.782 -2.90681 6.32833 0
M  V30 5691 H 539.409 -2.87322 7.03811 0
M  V30 5692 N 540.985 -1.06182 -1.16461 0
M  V30 5693 C 542.231 -0.779015 -1.87241 0
M  V30 5694 C 542.564 0.692715 -1.81425 0
M  V30 5695 O 541.839 1.5074 -1.22913 0
M  V30 5696 C 542.122 -1.2728 -3.36856 0
M  V30 5697 C 541.975 -2.80821 -3.51368 0
M  V30 5698 C 543.294 -0.879799 -4.31216 0
M  V30 5699 H 540.413 -0.284464 -0.679889 0
M  V30 5700 H 543.055 -1.31755 -1.36896 0
M  V30 5701 H 541.205 -0.814673 -3.79862 0
M  V30 5702 H 542.877 -3.34833 -3.17308 0
M  V30 5703 H 541.12 -3.19606 -2.93316 0
M  V30 5704 H 541.791 -3.10435 -4.56436 0
M  V30 5705 H 544.267 -1.27436 -3.96105 0
M  V30 5706 H 543.143 -1.25278 -5.34412 0
M  V30 5707 H 543.404 0.215372 -4.41575 0
M  V30 5708 N 542.463 1.3308 -0.844243 0
M  V30 5709 C 543.691 2.01808 -0.456203 0
M  V30 5710 C 544.106 1.63498 0.944131 0
M  V30 5711 O 543.463 0.85102 1.61443 0
M  V30 5712 C 543.514 3.56922 -0.573513 0
M  V30 5713 O 543.235 3.93851 -1.91868 0
M  V30 5714 C 544.736 4.42922 -0.183125 0
M  V30 5715 H 541.956 0.646273 -0.180477 0
M  V30 5716 H 544.5 1.69891 -1.1383 0
M  V30 5717 H 542.655 3.87352 0.0607367 0
M  V30 5718 H 543.069 4.88564 -1.90802 0
M  V30 5719 H 544.543 5.51093 -0.316241 0
M  V30 5720 H 545.02 4.30386 0.875477 0
M  V30 5721 H 545.626 4.1786 -0.792027 0
M  V30 5722 N 543.941 0.601185 1.45683 0
M  V30 5723 C 544.871 -0.108824 2.33246 0
M  V30 5724 C 545.852 -0.865223 1.46451 0
M  V30 5725 O 547.037 -0.83704 1.75235 0
M  V30 5726 C 544.167 -1.11101 3.2905 0
M  V30 5727 C 543.121 -0.468244 4.25431 0
M  V30 5728 C 542.447 -1.57822 5.10878 0
M  V30 5729 C 543.747 0.606469 5.18767 0
M  V30 5730 H 545.441 0.622306 2.92861 0
M  V30 5731 H 542.987 0.300714 1.40825 0
M  V30 5732 H 544.94 -1.61622 3.89174 0
M  V30 5733 H 543.664 -1.87265 2.67581 0
M  V30 5734 H 542.323 0.0160484 3.66596 0
M  V30 5735 H 541.971 -2.32998 4.45781 0
M  V30 5736 H 541.671 -1.15369 5.76163 0
M  V30 5737 H 543.195 -2.08583 5.73869 0
M  V30 5738 H 544.609 0.185589 5.73 0
M  V30 5739 H 543.006 0.952381 5.92494 0
M  V30 5740 H 544.076 1.48559 4.61582 0
M  V30 5741 N 545.419 -1.53889 0.339982 0
M  V30 5742 C 546.366 -2.24902 -0.518452 0
M  V30 5743 C 547.336 -1.24593 -1.09844 0
M  V30 5744 O 548.521 -1.53317 -1.13572 0
M  V30 5745 C 545.661 -3.02262 -1.66529 0
M  V30 5746 C 544.774 -4.17418 -1.11295 0
M  V30 5747 C 543.909 -4.82273 -2.2268 0
M  V30 5748 C 542.948 -5.89503 -1.6478 0
M  V30 5749 N 542.085 -6.48153 -2.69893 0
M  V30 5750 H 546.925 -2.97853 0.0936579 0
M  V30 5751 H 544.462 -1.46986 0.0579924 0
M  V30 5752 H 546.42 -3.45371 -2.3404 0
M  V30 5753 H 545.05 -2.31614 -2.24844 0
M  V30 5754 H 544.102 -3.78976 -0.328886 0
M  V30 5755 H 545.414 -4.94554 -0.649414 0
M  V30 5756 H 544.568 -5.28435 -2.98063 0
M  V30 5757 H 543.307 -4.04552 -2.72376 0
M  V30 5758 H 542.312 -5.42728 -0.879004 0
M  V30 5759 H 543.537 -6.6913 -1.1594 0
M  V30 5760 H 541.483 -5.73298 -3.1885 0
M  V30 5761 H 541.4 -7.20752 -2.28151 0
M  V30 5762 H 542.668 -6.98968 -3.45056 0
M  V30 5763 N 546.897 -0.0685191 -1.57451 0
M  V30 5764 C 547.86 0.885173 -2.11417 0
M  V30 5765 C 548.86 1.22853 -1.03748 0
M  V30 5766 O 550.05 1.16235 -1.2975 0
M  V30 5767 C 547.182 2.18964 -2.61281 0
M  V30 5768 H 548.375 0.417034 -2.96986 0
M  V30 5769 H 545.928 0.18014 -1.55258 0
M  V30 5770 H 546.663 2.70321 -1.79156 0
M  V30 5771 H 546.448 1.9534 -3.39977 0
M  V30 5772 H 547.938 2.87242 -3.0312 0
M  V30 5773 N 548.375 1.56261 0.205012 0
M  V30 5774 C 549.624 1.79236 0.925058 0
M  V30 5775 C 549.937 0.640011 1.84833 0
M  V30 5776 O 551.143 0.753809 2.60826 0
M  V30 5777 C 549.599 3.17475 1.69522 0
M  V30 5778 C 549.207 4.40482 0.817269 0
M  V30 5779 C 550.951 3.49766 2.4055 0
M  V30 5780 C 548.858 5.69744 1.58573 0
M  V30 5781 H 547.788 0.668287 0.349153 0
M  V30 5782 H 550.439 1.82629 0.178544 0
M  V30 5783 H 548.821 3.08304 2.48526 0
M  V30 5784 H 549.995 4.60752 0.0665988 0
M  V30 5785 H 548.31 4.15827 0.218316 0
M  V30 5786 H 550.907 4.43573 2.98575 0
M  V30 5787 H 551.25 2.73041 3.14252 0
M  V30 5788 H 551.783 3.60341 1.68522 0
M  V30 5789 H 548.522 6.49407 0.891679 0
M  V30 5790 H 548.042 5.53509 2.31059 0
M  V30 5791 H 549.721 6.1051 2.14212 0
M  V30 5792 N 549.853 -0.472356 1.50355 0
M  V30 5793 C 550.816 -1.5529 1.68576 0
M  V30 5794 C 551.816 -1.50863 0.556511 0
M  V30 5795 O 553.006 -1.53505 0.823516 0
M  V30 5796 C 550.138 -2.94921 1.70981 0
M  V30 5797 H 551.331 -1.40451 2.64978 0
M  V30 5798 H 548.884 -0.698645 1.39816 0
M  V30 5799 H 549.619 -3.15204 0.762675 0
M  V30 5800 H 549.404 -2.99541 2.53017 0
M  V30 5801 H 550.894 -3.73372 1.87037 0
M  V30 5802 N 551.331 -1.39911 -0.725443 0
M  V30 5803 C 552.261 -1.42138 -1.85254 0
M  V30 5804 C 553.242 -0.283513 -1.67721 0
M  V30 5805 O 554.427 -0.490717 -1.87898 0
M  V30 5806 C 551.557 -1.27354 -3.23107 0
M  V30 5807 C 550.511 -2.3864 -3.55296 0
M  V30 5808 C 549.837 -2.08939 -4.92188 0
M  V30 5809 C 551.137 -3.8097 -3.57295 0
M  V30 5810 H 552.831 -2.36461 -1.83648 0
M  V30 5811 H 550.377 -1.13817 -0.882138 0
M  V30 5812 H 552.33 -1.2753 -4.01639 0
M  V30 5813 H 551.054 -0.295025 -3.25265 0
M  V30 5814 H 549.713 -2.37696 -2.79099 0
M  V30 5815 H 549.361 -1.09502 -4.90936 0
M  V30 5816 H 549.061 -2.83491 -5.14691 0
M  V30 5817 H 550.585 -2.10781 -5.73065 0
M  V30 5818 H 551.999 -3.8379 -4.25885 0
M  V30 5819 H 550.396 -4.5496 -3.9132 0
M  V30 5820 H 551.466 -4.11261 -2.5689 0
M  V30 5821 N 552.809 0.956637 -1.25245 0
M  V30 5822 C 553.772 2.03457 -1.05537 0
M  V30 5823 C 554.772 1.60798 -0.00886317 0
M  V30 5824 O 555.962 1.72384 -0.250865 0
M  V30 5825 C 553.094 3.35543 -0.601965 0
M  V30 5826 H 554.287 2.22372 -2.01223 0
M  V30 5827 H 551.84 1.13344 -1.07623 0
M  V30 5828 H 552.575 3.22323 0.357584 0
M  V30 5829 H 552.36 3.67854 -1.35743 0
M  V30 5830 H 553.85 4.14769 -0.485454 0
M  V30 5831 N 554.287 1.06798 1.15896 0
M  V30 5832 C 555.235 0.677525 2.22514 0
M  V30 5833 C 556.229 -0.308994 1.66558 0
M  V30 5834 O 557.435 -0.173308 1.79164 0
M  V30 5835 H 553.81 0.200994 0.724642 0
M  V30 5836 H 555.781 1.5865 2.52731 0
M  V30 5837 C 554.53 0.0854153 3.47595 0
M  V30 5838 H 553.853 0.835645 3.90969 0
M  V30 5839 H 555.293 -0.150199 4.23734 0
M  V30 5840 C 553.752 -1.1724 3.15843 0
M  V30 5841 O 554.282 -2.25965 3.32119 0
M  V30 5842 N 552.488 -1.07636 2.69931 0
M  V30 5843 H 552.035 -0.191559 2.56887 0
M  V30 5844 H 551.993 -1.91876 2.4906 0
M  V30 5845 N 555.766 -1.3263 0.851289 0
M  V30 5846 C 556.991 -2.02097 0.466006 0
M  V30 5847 C 557.416 -1.63574 -0.928709 0
M  V30 5848 O 556.774 -0.834665 -1.60944 0
M  V30 5849 C 556.822 -3.55425 0.608737 0
M  V30 5850 O 555.926 -4.10827 -0.359878 0
M  V30 5851 H 555.267 -0.636911 0.187724 0
M  V30 5852 H 557.797 -1.69253 1.14955 0
M  V30 5853 H 557.807 -4.04986 0.495006 0
M  V30 5854 H 556.482 -3.82806 1.62581 0
M  V30 5855 H 555.059 -3.72349 -0.202666 0
M  V30 5856 N 557.244 -0.608902 -1.45362 0
M  V30 5857 C 558.521 -0.0365378 -1.95566 0
M  V30 5858 C 558.901 1.43169 -1.55131 0
M  V30 5859 O 558.249 2.1349 -0.814513 0
M  V30 5860 C 558.459 -0.236026 -3.48201 0
M  V30 5861 C 559.807 -0.117518 -4.24437 0
M  V30 5862 O 560.831 -0.166217 -3.55812 0
M  V30 5863 O 559.69 -0.00372127 -5.465 0
M  V30 5864 H 556.784 0.0349874 -0.82626 0
M  V30 5865 H 559.33 -0.679055 -1.55521 0
M  V30 5866 H 558.102 -1.25569 -3.70605 0
M  V30 5867 H 557.725 0.441691 -3.95139 0
M  V30 5868 N 558.722 1.53707 -0.348139 0
M  V30 5869 C 559.947 2.05877 0.250883 0
M  V30 5870 C 560.372 1.22115 1.43072 0
M  V30 5871 O 559.73 0.235986 1.79758 0
M  V30 5872 C 559.778 3.54886 0.639416 0
M  V30 5873 O 558.882 3.73948 1.73888 0
M  V30 5874 H 558.223 0.662754 0.040653 0
M  V30 5875 H 560.753 1.98303 -0.503685 0
M  V30 5876 H 560.763 3.97601 0.915295 0
M  V30 5877 H 559.438 4.153 -0.223386 0
M  V30 5878 H 558.015 3.43134 1.45991 0
M  V30 5879 N 560.2 0.0768682 1.57412 0
M  V30 5880 C 561.133 -0.924685 2.08626 0
M  V30 5881 C 562.111 -1.28792 0.992542 0
M  V30 5882 O 563.295 -1.39634 1.26628 0
M  V30 5883 C 560.422 -2.23131 2.54814 0
M  V30 5884 C 559.468 -2.01928 3.75669 0
M  V30 5885 S 560.301 -1.27397 5.20125 0
M  V30 5886 C 561.457 -2.59329 5.69648 0
M  V30 5887 H 561.69 -0.488928 2.93252 0
M  V30 5888 H 559.223 -0.136014 1.538 0
M  V30 5889 H 561.181 -2.98226 2.82084 0
M  V30 5890 H 559.842 -2.63831 1.70447 0
M  V30 5891 H 559.035 -2.98639 4.05993 0
M  V30 5892 H 558.637 -1.34967 3.48798 0
M  V30 5893 H 560.929 -3.55394 5.76803 0
M  V30 5894 H 561.872 -2.33608 6.68456 0
M  V30 5895 H 562.28 -2.66767 4.9749 0
M  V30 5896 N 561.678 -1.56367 -0.196722 0
M  V30 5897 C 562.628 -1.9082 -1.24787 0
M  V30 5898 C 563.612 -0.773719 -1.41076 0
M  V30 5899 O 564.804 -1.03655 -1.43474 0
M  V30 5900 C 561.933 -2.24982 -2.59303 0
M  V30 5901 C 561.019 -3.44882 -2.46814 0
M  V30 5902 N 561.41 -4.62835 -2.04003 0
M  V30 5903 C 559.708 -3.48988 -2.77711 0
M  V30 5904 C 560.409 -5.44993 -2.03366 0
M  V30 5905 N 559.385 -4.85356 -2.44807 0
M  V30 5906 H 563.187 -2.79516 -0.908175 0
M  V30 5907 H 560.701 -1.57265 -0.405166 0
M  V30 5908 H 562.698 -2.47848 -3.35227 0
M  V30 5909 H 561.358 -1.37611 -2.94098 0
M  V30 5910 H 562.369 -4.87532 -1.74738 0
M  V30 5911 H 559.046 -2.72029 -3.16712 0
M  V30 5912 H 560.436 -6.49464 -1.72181 0
M  V30 5913 N 563.156 0.464375 -1.50603 0
M  V30 5914 C 564.405 1.21277 -1.61167 0
M  V30 5915 C 564.718 1.92953 -0.320704 0
M  V30 5916 O 565.924 2.69778 -0.30534 0
M  V30 5917 C 564.38 2.20403 -2.84518 0
M  V30 5918 C 563.988 1.54499 -4.20516 0
M  V30 5919 C 565.732 2.95843 -3.0443 0
M  V30 5920 C 563.639 2.51951 -5.35047 0
M  V30 5921 H 562.569 0.456367 -0.600204 0
M  V30 5922 H 565.22 0.48254 -1.77042 0
M  V30 5923 H 563.602 2.96746 -2.62217 0
M  V30 5924 H 564.776 0.83899 -4.53098 0
M  V30 5925 H 563.091 0.913152 -4.06264 0
M  V30 5926 H 565.688 3.6879 -3.87167 0
M  V30 5927 H 566.031 3.55622 -2.16423 0
M  V30 5928 H 566.564 2.26611 -3.26944 0
M  V30 5929 H 563.303 1.96901 -6.25228 0
M  V30 5930 H 562.823 3.20683 -5.06875 0
M  V30 5931 H 564.502 3.13643 -5.65895 0
M  V30 5932 N 564.634 1.40294 0.718013 0
M  V30 5933 C 565.544 1.42678 1.86226 0
M  V30 5934 C 566.56 0.319655 1.71039 0
M  V30 5935 O 567.736 0.563852 1.93346 0
M  V30 5936 C 564.801 1.2852 3.21999 0
M  V30 5937 C 563.862 2.49354 3.49458 0
M  V30 5938 C 563.095 2.35863 4.78753 0
M  V30 5939 O 563.318 1.37114 5.53675 0
M  V30 5940 O 562.252 3.25189 5.06494 0
M  V30 5941 H 566.078 2.39167 1.87171 0
M  V30 5942 H 563.663 1.2159 0.868112 0
M  V30 5943 H 565.545 1.22824 4.03103 0
M  V30 5944 H 564.22 0.351359 3.21787 0
M  V30 5945 H 563.127 2.60628 2.68373 0
M  V30 5946 H 564.46 3.41491 3.54464 0
M  V30 5947 N 566.112 -0.949982 1.2575 0
M  V30 5948 C 567.389 -1.6718 1.01539 0
M  V30 5949 C 567.769 -2.06095 -0.456942 0
M  V30 5950 O 567.117 -1.77792 -1.43534 0
M  V30 5951 C 567.327 -2.8906 1.95564 0
M  V30 5952 C 568.675 -3.60909 2.23673 0
M  V30 5953 O 569.699 -2.9915 1.9336 0
M  V30 5954 O 568.558 -4.72127 2.75243 0
M  V30 5955 H 565.652 -0.731697 0.385419 0
M  V30 5956 H 568.198 -1.00249 1.36924 0
M  V30 5957 H 566.97 -2.57128 2.94959 0
M  V30 5958 H 566.593 -3.63719 1.60605 0
M  V30 5959 N 567.59 -1.07411 -1.15328 0
M  V30 5960 C 568.836 -0.798831 -1.86404 0
M  V30 5961 C 569.169 0.673433 -1.8215 0
M  V30 5962 O 568.444 1.49428 -1.24505 0
M  V30 5963 C 568.727 -1.30846 -3.35487 0
M  V30 5964 C 568.58 -2.84532 -3.4837 0
M  V30 5965 C 569.899 -0.925486 -4.30259 0
M  V30 5966 H 567.018 -0.291659 -0.676834 0
M  V30 5967 H 569.66 -1.332 -1.35491 0
M  V30 5968 H 567.81 -0.854916 -3.78977 0
M  V30 5969 H 569.482 -3.3818 -3.13739 0
M  V30 5970 H 567.725 -3.22699 -2.8991 0
M  V30 5971 H 568.396 -3.15259 -4.53118 0
M  V30 5972 H 570.872 -1.3163 -3.94731 0
M  V30 5973 H 569.748 -1.3094 -5.33053 0
M  V30 5974 H 570.009 0.168525 -4.41779 0
M  V30 5975 N 569.068 1.32177 -0.85831 0
M  V30 5976 C 569.978 2.32561 -0.308606 0
M  V30 5977 C 570.994 1.64209 0.575462 0
M  V30 5978 O 572.17 1.95719 0.474961 0
M  V30 5979 C 569.235 3.43207 0.490909 0
M  V30 5980 C 568.296 4.27243 -0.419733 0
M  V30 5981 C 567.529 5.32605 0.341719 0
M  V30 5982 O 567.752 5.48332 1.57125 0
M  V30 5983 O 566.686 6.0118 -0.294379 0
M  V30 5984 H 570.512 2.81477 -1.14037 0
M  V30 5985 H 568.097 1.35866 -0.621349 0
M  V30 5986 H 569.979 4.10677 0.944574 0
M  V30 5987 H 568.654 2.96474 1.29941 0
M  V30 5988 H 567.561 3.62569 -0.921652 0
M  V30 5989 H 568.894 4.7751 -1.19352 0
M  V30 5990 N 570.547 0.616602 1.45037 0
M  V30 5991 C 571.51 -0.0871112 2.29034 0
M  V30 5992 C 572.51 -0.786414 1.40258 0
M  V30 5993 O 573.7 -0.633207 1.62284 0
M  V30 5994 C 570.832 -1.13369 3.21497 0
M  V30 5995 H 572.025 0.651497 2.92738 0
M  V30 5996 H 569.578 0.376058 1.51709 0
M  V30 5997 H 570.313 -1.90277 2.62612 0
M  V30 5998 H 570.098 -0.636358 3.86902 0
M  V30 5999 H 571.588 -1.62627 3.84633 0
M  V30 6000 N 572.025 -1.5352 0.356285 0
M  V30 6001 C 573.271 -2.01414 -0.236653 0
M  V30 6002 C 573.604 -1.24339 -1.49176 0
M  V30 6003 O 572.879 -0.334496 -1.91602 0
M  V30 6004 C 573.162 -3.56059 -0.537982 0
M  V30 6005 C 573.015 -4.43835 0.730112 0
M  V30 6006 C 574.334 -4.19127 -1.34239 0
M  V30 6007 H 571.453 -0.732135 -0.0845386 0
M  V30 6008 H 574.095 -1.83854 0.479341 0
M  V30 6009 H 572.245 -3.71153 -1.14795 0
M  V30 6010 H 573.917 -4.40555 1.36782 0
M  V30 6011 H 572.16 -4.1218 1.3524 0
M  V30 6012 H 572.831 -5.49958 0.474358 0
M  V30 6013 H 575.307 -4.07809 -0.826498 0
M  V30 6014 H 574.183 -5.27378 -1.52198 0
M  V30 6015 H 574.444 -3.74581 -2.34822 0
M  V30 6016 N 573.503 -0.0852151 -1.57369 0
M  V30 6017 C 574.435 0.907099 -2.10486 0
M  V30 6018 C 575.448 1.25259 -1.03991 0
M  V30 6019 O 576.637 1.20743 -1.31467 0
M  V30 6020 C 573.737 2.21908 -2.56145 0
M  V30 6021 C 572.91 2.05042 -3.86363 0
M  V30 6022 C 571.969 3.19664 -4.17973 0
M  V30 6023 O 570.995 2.94062 -4.87356 0
M  V30 6024 N 572.197 4.45151 -3.72587 0
M  V30 6025 H 574.962 0.453505 -2.96249 0
M  V30 6026 H 572.523 0.100157 -1.6159 0
M  V30 6027 H 574.515 2.97519 -2.74343 0
M  V30 6028 H 573.085 2.58723 -1.75446 0
M  V30 6029 H 572.305 1.13819 -3.77411 0
M  V30 6030 H 573.593 1.91039 -4.71574 0
M  V30 6031 H 572.991 4.68834 -3.16561 0
M  V30 6032 H 571.548 5.17744 -3.9596 0
M  V30 6033 N 574.981 1.5647 0.188427 0
M  V30 6034 C 575.928 1.95073 1.23349 0
M  V30 6035 C 576.898 0.812238 1.44886 0
M  V30 6036 O 578.083 1.07095 1.57909 0
M  V30 6037 C 575.223 2.30124 2.57171 0
M  V30 6038 C 574.336 3.57069 2.43157 0
M  V30 6039 C 573.471 3.81411 3.69729 0
M  V30 6040 C 572.51 5.0176 3.50575 0
M  V30 6041 N 571.647 5.22321 4.69175 0
M  V30 6042 H 576.487 2.84171 0.89728 0
M  V30 6043 H 574.024 1.40623 0.431683 0
M  V30 6044 H 575.982 2.48463 3.35145 0
M  V30 6045 H 574.612 1.44159 2.88822 0
M  V30 6046 H 573.664 3.4674 1.56447 0
M  V30 6047 H 574.976 4.452 2.24942 0
M  V30 6048 H 574.13 4.00026 4.56141 0
M  V30 6049 H 572.869 2.91624 3.90905 0
M  V30 6050 H 571.874 4.83061 2.62549 0
M  V30 6051 H 573.099 5.93063 3.30837 0
M  V30 6052 H 571.045 4.35483 4.90602 0
M  V30 6053 H 570.962 6.04643 4.53809 0
M  V30 6054 H 572.23 5.45401 5.56919 0
M  V30 6055 N 576.459 -0.456382 1.50847 0
M  V30 6056 C 577.389 -1.56025 1.73719 0
M  V30 6057 C 578.37 -1.5967 0.586473 0
M  V30 6058 O 579.555 -1.75702 0.827185 0
M  V30 6059 C 576.685 -2.94251 1.84483 0
M  V30 6060 C 575.639 -3.05471 2.99786 0
M  V30 6061 C 574.965 -4.45489 2.95709 0
M  V30 6062 C 576.265 -2.81318 4.40065 0
M  V30 6063 H 577.959 -1.37138 2.66146 0
M  V30 6064 H 575.505 -0.658299 1.28072 0
M  V30 6065 H 577.458 -3.71417 1.99067 0
M  V30 6066 H 576.182 -3.14328 0.886891 0
M  V30 6067 H 574.841 -2.30741 2.84876 0
M  V30 6068 H 574.489 -4.62505 1.97732 0
M  V30 6069 H 574.189 -4.53929 3.73125 0
M  V30 6070 H 575.713 -5.24655 3.12362 0
M  V30 6071 H 577.127 -3.48226 4.55425 0
M  V30 6072 H 575.524 -3.01188 5.19043 0
M  V30 6073 H 576.594 -1.7706 4.51418 0
M  V30 6074 N 577.937 -1.40673 -0.710563 0
M  V30 6075 C 578.869 -1.37256 -1.83558 0
M  V30 6076 C 579.882 -0.277133 -1.60424 0
M  V30 6077 O 581.071 -0.537831 -1.70205 0
M  V30 6078 C 578.171 -1.1144 -3.20054 0
M  V30 6079 C 577.344 -2.32734 -3.70342 0
M  V30 6080 C 576.403 -2.03002 -4.85465 0
M  V30 6081 O 575.429 -2.75912 -4.97857 0
M  V30 6082 N 576.631 -1.01105 -5.71627 0
M  V30 6083 H 579.396 -2.34215 -1.86985 0
M  V30 6084 H 576.957 -1.35091 -0.892301 0
M  V30 6085 H 578.949 -0.895265 -3.94673 0
M  V30 6086 H 577.519 -0.231307 -3.11743 0
M  V30 6087 H 576.739 -2.70446 -2.86798 0
M  V30 6088 H 578.027 -3.13584 -4.00678 0
M  V30 6089 H 577.425 -0.407303 -5.64232 0
M  V30 6090 H 575.982 -0.85182 -6.4621 0
M  V30 6091 N 579.415 0.9433 -1.26252 0
M  V30 6092 C 580.692 1.66639 -1.02424 0
M  V30 6093 C 581.072 2.06335 0.446006 0
M  V30 6094 O 580.42 1.78551 1.42589 0
M  V30 6095 C 580.63 2.88019 -1.97094 0
M  V30 6096 C 581.978 3.59718 -2.25584 0
M  V30 6097 O 583.002 2.9812 -1.94943 0
M  V30 6098 O 581.861 4.7066 -2.77743 0
M  V30 6099 H 578.955 0.729643 -0.389294 0
M  V30 6100 H 581.501 0.995218 -1.37454 0
M  V30 6101 H 580.273 2.5556 -2.96319 0
M  V30 6102 H 579.896 3.62863 -1.62532 0
M  V30 6103 N 580.893 1.08022 1.14757 0
M  V30 6104 C 582.139 0.808705 1.85978 0
M  V30 6105 C 582.472 -0.663764 1.82504 0
M  V30 6106 O 581.747 -1.48765 1.25296 0
M  V30 6107 C 582.03 1.32623 3.34788 0
M  V30 6108 C 581.883 2.86375 3.46856 0
M  V30 6109 C 583.202 0.948291 4.29762 0
M  V30 6110 H 580.321 0.295244 0.675278 0
M  V30 6111 H 582.963 1.33917 1.34783 0
M  V30 6112 H 581.113 0.875002 3.78518 0
M  V30 6113 H 582.785 3.39839 3.11941 0
M  V30 6114 H 581.028 3.24232 2.88194 0
M  V30 6115 H 581.699 3.17658 4.51439 0
M  V30 6116 H 584.175 1.33722 3.94028 0
M  V30 6117 H 583.051 1.33765 5.32352 0
M  V30 6118 H 583.312 -0.145094 4.41862 0
M  V30 6119 N 582.371 -1.3172 0.865308 0
M  V30 6120 C 583.301 -2.31109 0.333302 0
M  V30 6121 C 584.282 -1.60148 -0.573301 0
M  V30 6122 O 585.467 -1.87882 -0.491305 0
M  V30 6123 C 582.597 -3.44104 -0.470078 0
M  V30 6124 C 581.551 -4.26623 0.343021 0
M  V30 6125 C 580.877 -5.31482 -0.585756 0
M  V30 6126 C 582.177 -4.98001 1.57456 0
M  V30 6127 H 583.871 -2.75855 1.1638 0
M  V30 6128 H 581.417 -1.3262 0.561069 0
M  V30 6129 H 583.37 -4.12682 -0.852752 0
M  V30 6130 H 582.094 -2.98112 -1.33404 0
M  V30 6131 H 580.753 -3.59707 0.707583 0
M  V30 6132 H 580.401 -4.81741 -1.44686 0
M  V30 6133 H 580.101 -5.87582 -0.0456494 0
M  V30 6134 H 581.625 -6.0292 -0.965375 0
M  V30 6135 H 583.039 -5.59201 1.26359 0
M  V30 6136 H 581.436 -5.63876 2.05339 0
M  V30 6137 H 582.506 -4.25253 2.32997 0
M  V30 6138 N 583.85 -0.624285 -1.44708 0
M  V30 6139 C 584.8 0.106466 -2.27751 0
M  V30 6140 C 585.784 0.822703 -1.38277 0
M  V30 6141 O 586.976 0.709939 -1.62138 0
M  V30 6142 C 584.105 1.092 -3.25469 0
M  V30 6143 C 583.191 0.375737 -4.22432 0
M  V30 6144 N 583.582 -0.591881 -5.02325 0
M  V30 6145 C 581.88 0.621093 -4.41654 0
M  V30 6146 C 582.581 -1.01443 -5.72786 0
M  V30 6147 N 581.557 -0.354651 -5.42442 0
M  V30 6148 H 585.359 -0.636464 -2.86926 0
M  V30 6149 H 582.873 -0.44925 -1.56062 0
M  V30 6150 H 584.87 1.63006 -3.83712 0
M  V30 6151 H 583.529 1.8353 -2.67856 0
M  V30 6152 H 584.541 -0.969389 -5.08747 0
M  V30 6153 H 581.218 1.34779 -3.95147 0
M  V30 6154 H 582.608 -1.81345 -6.46965 0
M  V30 6155 N 585.328 1.53329 -0.364422 0
M  V30 6156 C 586.238 2.29414 0.490552 0
M  V30 6157 C 587.254 1.35335 1.09363 0
M  V30 6158 O 588.43 1.68391 1.10483 0
M  V30 6159 C 585.495 3.06772 1.61529 0
M  V30 6160 C 584.556 4.16516 1.03986 0
M  V30 6161 C 583.789 4.90176 2.111 0
M  V30 6162 O 584.012 4.63687 3.32191 0
M  V30 6163 O 582.946 5.76134 1.74222 0
M  V30 6164 H 586.772 3.03428 -0.12856 0
M  V30 6165 H 584.357 1.48843 -0.128837 0
M  V30 6166 H 586.239 3.55082 2.26924 0
M  V30 6167 H 584.914 2.35596 2.21983 0
M  V30 6168 H 583.821 3.7246 0.349856 0
M  V30 6169 H 585.154 4.89855 0.4799 0
M  V30 6170 N 586.806 0.0935595 1.57322 0
M  V30 6171 C 587.769 -0.851426 2.12799 0
M  V30 6172 C 588.769 -1.21187 1.0569 0
M  V30 6173 O 589.959 -1.14156 1.31583 0
M  V30 6174 C 587.091 -2.14779 2.64731 0
M  V30 6175 H 588.284 -0.369733 2.97612 0
M  V30 6176 H 585.837 -0.155417 1.55525 0
M  V30 6177 H 586.572 -2.67437 1.83434 0
M  V30 6178 H 586.357 -1.89907 3.43042 0
M  V30 6179 H 587.847 -2.82383 3.07651 0
M  V30 6180 N 588.284 -1.56567 -0.180126 0
M  V30 6181 C 589.214 -1.98753 -1.22553 0
M  V30 6182 C 590.195 -0.86175 -1.46656 0
M  V30 6183 O 591.38 -1.12719 -1.58139 0
M  V30 6184 C 588.51 -2.33988 -2.56645 0
M  V30 6185 C 587.464 -3.49445 -2.47128 0
M  V30 6186 C 586.79 -3.70397 -3.8563 0
M  V30 6187 C 588.09 -4.83171 -1.98352 0
M  V30 6188 H 589.784 -2.86332 -0.874896 0
M  V30 6189 H 587.33 -1.37757 -0.419414 0
M  V30 6190 H 589.283 -2.62097 -3.29974 0
M  V30 6191 H 588.007 -1.43309 -2.93479 0
M  V30 6192 H 586.666 -3.2145 -1.76254 0
M  V30 6193 H 586.314 -2.77023 -4.19842 0
M  V30 6194 H 586.014 -4.48077 -3.80132 0
M  V30 6195 H 587.538 -4.00897 -4.60558 0
M  V30 6196 H 588.952 -5.10213 -2.61449 0
M  V30 6197 H 587.349 -5.64425 -2.03823 0
M  V30 6198 H 588.419 -4.75753 -0.937402 0
M  V30 6199 N 589.762 0.448376 -1.51087 0
M  V30 6200 C 590.694 1.56146 -1.67783 0
M  V30 6201 C 591.707 1.52913 -0.55871 0
M  V30 6202 O 592.896 1.57889 -0.83267 0
M  V30 6203 C 589.996 2.95057 -1.66716 0
M  V30 6204 C 589.169 3.22915 -2.95033 0
M  V30 6205 C 588.228 4.41495 -2.86302 0
M  V30 6206 O 587.254 4.40688 -3.60254 0
M  V30 6207 N 588.456 5.44443 -2.014 0
M  V30 6208 H 591.221 1.42232 -2.638 0
M  V30 6209 H 588.782 0.637153 -1.48835 0
M  V30 6210 H 590.774 3.72388 -1.58458 0
M  V30 6211 H 589.344 3.02624 -0.783403 0
M  V30 6212 H 588.564 2.33985 -3.17245 0
M  V30 6213 H 589.852 3.38349 -3.79996 0
M  V30 6214 H 589.25 5.4793 -1.40674 0
M  V30 6215 H 587.807 6.2067 -1.99029 0
M  V30 6216 N 591.24 1.41047 0.703093 0
M  V30 6217 C 592.517 1.30493 1.45708 0
M  V30 6218 C 592.897 -0.0709892 2.10981 0
M  V30 6219 O 592.245 -1.08471 2.01113 0
M  V30 6220 C 592.455 2.45287 2.48265 0
M  V30 6221 C 593.803 2.86104 3.13735 0
M  V30 6222 O 594.827 2.44971 2.58587 0
M  V30 6223 O 593.686 3.57206 4.13601 0
M  V30 6224 H 590.78 0.513144 0.648546 0
M  V30 6225 H 593.326 1.52995 0.734208 0
M  V30 6226 H 592.098 3.37135 1.98635 0
M  V30 6227 H 591.721 2.24622 3.28071 0
M  V30 6228 N 592.718 -0.936591 1.26751 0
M  V30 6229 C 593.948 -1.71509 1.15188 0
M  V30 6230 C 594.356 -1.86885 -0.295037 0
M  V30 6231 O 593.699 -1.37915 -1.21347 0
M  V30 6232 C 593.761 -3.13853 1.75318 0
M  V30 6233 C 593.425 -3.21845 3.24445 0
M  V30 6234 C 594.422 -3.04771 4.21201 0
M  V30 6235 C 592.107 -3.45088 3.64992 0
M  V30 6236 C 594.101 -3.10816 5.56482 0
M  V30 6237 C 591.788 -3.50767 5.00405 0
M  V30 6238 C 592.786 -3.33648 5.9596 0
M  V30 6239 O 592.474 -3.39045 7.28906 0
M  V30 6240 H 592.206 -0.543658 0.401761 0
M  V30 6241 H 594.76 -1.18234 1.67958 0
M  V30 6242 H 592.99 -3.6857 1.17016 0
M  V30 6243 H 594.679 -3.73634 1.58596 0
M  V30 6244 H 595.445 -2.86665 3.91214 0
M  V30 6245 H 591.324 -3.57467 2.91098 0
M  V30 6246 H 594.868 -2.97372 6.31043 0
M  V30 6247 H 590.765 -3.68396 5.30052 0
M  V30 6248 H 591.533 -3.55558 7.37238 0
M  V30 6249 N 594.196 -1.08629 -1.14182 0
M  V30 6250 C 595.106 -0.730126 -2.22949 0
M  V30 6251 C 596.122 0.26436 -1.7198 0
M  V30 6252 O 597.298 0.107742 -2.01112 0
M  V30 6253 C 594.363 -0.147227 -3.46387 0
M  V30 6254 C 593.424 -1.19662 -4.12286 0
M  V30 6255 C 592.657 -0.641437 -5.29831 0
M  V30 6256 O 592.88 0.538351 -5.67854 0
M  V30 6257 O 591.814 -1.39257 -5.85569 0
M  V30 6258 H 595.64 -1.63753 -2.55771 0
M  V30 6259 H 593.225 -0.860118 -1.22157 0
M  V30 6260 H 595.107 0.174923 -4.21037 0
M  V30 6261 H 593.782 0.733304 -3.15285 0
M  V30 6262 H 592.689 -1.57133 -3.395 0
M  V30 6263 H 594.022 -2.0495 -4.475 0
M  V30 6264 N 595.674 1.31259 -0.872281 0
M  V30 6265 C 596.637 2.26744 -0.334656 0
M  V30 6266 C 597.637 1.52307 0.515681 0
M  V30 6267 O 598.827 1.71148 0.324656 0
M  V30 6268 C 595.959 3.36841 0.524482 0
M  V30 6269 H 597.152 2.75812 -1.17762 0
M  V30 6270 H 594.705 1.42232 -0.648064 0
M  V30 6271 H 595.44 2.93069 1.38855 0
M  V30 6272 H 595.225 3.92009 -0.0844299 0
M  V30 6273 H 596.715 4.07944 0.892838 0
M  V30 6274 N 597.152 0.631951 1.44375 0
M  V30 6275 C 598.4 0.136497 2.01639 0
M  V30 6276 C 598.721 -1.24637 1.49969 0
M  V30 6277 O 597.991 -1.82827 0.70363 0
M  V30 6278 H 596.571 0.0474703 0.74549 0
M  V30 6279 H 599.233 0.818837 1.76865 0
M  V30 6280 H 598.329 0.104817 3.11924 0
M  V30 6281 N 598.631 -1.53133 0.372548 0
M  V30 6282 C 599.563 -2.23557 -0.505444 0
M  V30 6283 C 600.576 -1.25211 -1.04049 0
M  V30 6284 O 601.765 -1.51391 -0.945675 0
M  V30 6285 C 598.865 -2.92516 -1.71136 0
M  V30 6286 C 598.038 -4.17428 -1.30661 0
M  V30 6287 C 597.097 -4.69535 -2.37536 0
M  V30 6288 O 596.123 -5.33042 -1.99637 0
M  V30 6289 N 597.325 -4.47947 -3.6922 0
M  V30 6290 H 600.09 -2.9954 0.0978259 0
M  V30 6291 H 597.651 -1.60684 0.198068 0
M  V30 6292 H 599.643 -3.24281 -2.42124 0
M  V30 6293 H 598.213 -2.19944 -2.22134 0
M  V30 6294 H 597.433 -3.91888 -0.426292 0
M  V30 6295 H 598.721 -4.98622 -1.01259 0
M  V30 6296 H 598.119 -3.97219 -4.02783 0
M  V30 6297 H 596.676 -4.84245 -4.36292 0
M  V30 6298 N 600.109 -0.101901 -1.5727 0
M  V30 6299 C 601.059 0.865346 -2.1094 0
M  V30 6300 C 602.043 1.2394 -1.02605 0
M  V30 6301 O 603.235 1.21334 -1.28868 0
M  V30 6302 C 600.364 2.12187 -2.69874 0
M  V30 6303 C 599.45 1.77295 -3.85263 0
M  V30 6304 N 599.841 1.12993 -4.93017 0
M  V30 6305 C 598.139 2.06862 -3.95126 0
M  V30 6306 C 598.84 0.968631 -5.73579 0
M  V30 6307 N 597.816 1.48814 -5.22834 0
M  V30 6308 H 601.618 0.364368 -2.91633 0
M  V30 6309 H 599.132 0.101104 -1.62085 0
M  V30 6310 H 601.129 2.82431 -3.06657 0
M  V30 6311 H 599.789 2.62844 -1.90639 0
M  V30 6312 H 600.8 0.795935 -5.11747 0
M  V30 6313 H 597.477 2.59686 -3.26909 0
M  V30 6314 H 598.867 0.465231 -6.70287 0
M  V30 6315 N 601.587 1.56661 0.17182 0
M  V30 6316 C 602.52 1.91474 1.24149 0
M  V30 6317 C 603.498 0.777485 1.42807 0
M  V30 6318 O 604.682 1.03075 1.57822 0
M  V30 6319 C 601.809 2.16523 2.60453 0
M  V30 6320 C 600.855 3.39209 2.58533 0
M  V30 6321 S 601.688 4.93594 2.07665 0
M  V30 6322 C 602.844 5.21737 3.45747 0
M  V30 6323 H 603.077 2.81903 0.944346 0
M  V30 6324 H 600.61 1.49743 0.376364 0
M  V30 6325 H 602.568 2.31635 3.38903 0
M  V30 6326 H 601.229 1.26802 2.87368 0
M  V30 6327 H 600.422 3.53935 3.58812 0
M  V30 6328 H 600.024 3.2321 1.88178 0
M  V30 6329 H 602.316 5.13684 4.41741 0
M  V30 6330 H 603.259 6.23361 3.35896 0
M  V30 6331 H 603.667 4.49307 3.41736 0
M  V30 6332 N 603.065 -0.440357 1.51323 0
M  V30 6333 C 603.975 -1.55955 1.75258 0
M  V30 6334 C 604.991 -1.61933 0.636687 0
M  V30 6335 O 606.167 -1.79231 0.918593 0
M  V30 6336 C 603.232 -2.9196 1.86977 0
M  V30 6337 C 602.293 -2.96122 3.10822 0
M  V30 6338 C 601.526 -4.2564 3.21973 0
M  V30 6339 O 601.749 -5.17851 2.39137 0
M  V30 6340 O 600.683 -4.36025 4.14929 0
M  V30 6341 H 604.509 -1.38673 2.70191 0
M  V30 6342 H 602.094 -0.623055 1.35788 0
M  V30 6343 H 603.976 -3.72682 1.96688 0
M  V30 6344 H 602.651 -3.09375 0.952307 0
M  V30 6345 H 601.558 -2.14366 3.06591 0
M  V30 6346 H 602.891 -2.83651 4.02247 0
M  V30 6347 N 604.543 -1.41418 -0.695603 0
M  V30 6348 C 605.82 -1.31264 -1.45014 0
M  V30 6349 C 606.2 0.0597994 -2.11015 0
M  V30 6350 O 605.548 1.07403 -2.01685 0
M  V30 6351 C 605.758 -2.466 -2.4696 0
M  V30 6352 C 607.106 -2.87763 -3.12214 0
M  V30 6353 O 608.13 -2.46339 -2.57285 0
M  V30 6354 O 606.989 -3.59395 -4.11701 0
M  V30 6355 H 604.083 -0.516576 -0.645816 0
M  V30 6356 H 606.629 -1.53382 -0.726084 0
M  V30 6357 H 605.401 -3.38183 -1.96845 0
M  V30 6358 H 605.024 -2.26358 -3.26876 0
M  V30 6359 N 606.021 0.929856 -1.27246 0
M  V30 6360 C 607.432 1.49223 -1.12203 0
M  V30 6361 C 607.783 1.93989 0.293731 0
M  V30 6362 O 606.908 1.80978 1.18642 0
M  V30 6363 C 607.503 2.71198 -2.0307 0
M  V30 6364 C 606.062 3.23666 -1.92139 0
M  V30 6365 C 605.209 1.96409 -1.95752 0
M  V30 6366 H 608.16 0.744181 -1.4017 0
M  V30 6367 H 608.181 3.45905 -1.58524 0
M  V30 6368 H 607.693 2.38585 -3.06102 0
M  V30 6369 H 605.794 3.61042 -0.920834 0
M  V30 6370 H 605.907 3.90006 -2.78267 0
M  V30 6371 H 604.271 2.12806 -1.39949 0
M  V30 6372 H 605.054 1.66113 -3.00436 0
M  V30 6373 N 607.499 1.09233 1.13605 0
M  V30 6374 C 608.915 0.82163 1.36826 0
M  V30 6375 C 609.115 -0.565021 1.93416 0
M  V30 6376 O 608.171 -1.32026 2.15234 0
M  V30 6377 C 609.484 1.91124 2.32147 0
M  V30 6378 C 611.032 1.93824 2.45767 0
M  V30 6379 C 611.507 3.01923 3.44393 0
M  V30 6380 N 612.998 3.01149 3.51942 0
M  V30 6381 C 613.733 3.81434 4.2813 0
M  V30 6382 N 613.229 4.71621 5.07489 0
M  V30 6383 N 615.022 3.69702 4.23411 0
M  V30 6384 H 607.173 1.98633 0.752234 0
M  V30 6385 H 609.436 0.862482 0.393482 0
M  V30 6386 H 609.142 2.90862 1.97717 0
M  V30 6387 H 609.016 1.78777 3.32142 0
M  V30 6388 H 611.403 0.94726 2.79483 0
M  V30 6389 H 611.484 2.10248 1.45703 0
M  V30 6390 H 611.128 4.01232 3.11408 0
M  V30 6391 H 611.058 2.82742 4.44257 0
M  V30 6392 H 613.549 2.35789 2.95317 0
M  V30 6393 H 613.862 5.29468 5.62924 0
M  V30 6394 H 612.207 4.75658 5.06729 0
M  V30 6395 H 615.398 2.98606 3.60489 0
M  V30 6396 H 615.571 4.32509 4.82535 0
M  V30 6397 N 608.977 -1.30795 0.87923 0
M  V30 6398 C 610.393 -1.48981 0.57243 0
M  V30 6399 C 610.593 -1.80719 -0.891236 0
M  V30 6400 O 609.649 -1.89136 -1.67283 0
M  V30 6401 C 610.962 -2.61721 1.48063 0
M  V30 6402 C 612.51 -2.75603 1.48365 0
M  V30 6403 C 612.985 -3.91449 2.37763 0
M  V30 6404 N 614.476 -3.98751 2.35695 0
M  V30 6405 C 615.211 -4.87684 3.01583 0
M  V30 6406 N 614.707 -5.81454 3.76674 0
M  V30 6407 N 616.5 -4.81005 2.90844 0
M  V30 6408 H 608.651 -1.08465 1.82617 0
M  V30 6409 H 610.914 -0.536813 0.781368 0
M  V30 6410 H 610.62 -2.45073 2.52254 0
M  V30 6411 H 610.494 -3.58071 1.18596 0
M  V30 6412 H 612.881 -2.9166 0.44927 0
M  V30 6413 H 612.962 -1.79891 1.81859 0
M  V30 6414 H 612.606 -3.76149 3.41283 0
M  V30 6415 H 612.536 -4.86487 2.01589 0
M  V30 6416 H 615.027 -3.31668 1.81121 0
M  V30 6417 H 615.34 -6.46063 4.24054 0
M  V30 6418 H 613.685 -5.81403 3.80782 0
M  V30 6419 H 616.876 -4.06728 2.31711 0
M  V30 6420 H 617.049 -5.50107 3.42471 0
M  V30 6421 N 610.455 -0.639598 -1.44038 0
M  V30 6422 C 611.418 0.0506628 -2.29144 0
M  V30 6423 C 612.418 0.764001 -1.41491 0
M  V30 6424 O 613.608 0.607309 -1.63271 0
M  V30 6425 C 610.74 1.0824 -3.2326 0
M  V30 6426 H 611.933 -0.697987 -2.91664 0
M  V30 6427 H 609.486 -0.400146 -1.51091 0
M  V30 6428 H 610.221 1.86075 -2.65606 0
M  V30 6429 H 610.006 0.574725 -3.87865 0
M  V30 6430 H 611.496 1.56487 -3.87171 0
M  V30 6431 N 611.933 1.52934 -0.380664 0
M  V30 6432 C 613.181 2.01069 0.203874 0
M  V30 6433 C 613.502 1.26922 1.4804 0
M  V30 6434 O 612.772 0.386787 1.92044 0
M  V30 6435 H 611.352 0.742882 0.0783279 0
M  V30 6436 H 614.014 1.88099 -0.510368 0
M  V30 6437 H 613.11 3.09258 0.42021 0
M  V30 6438 N 613.412 0.11024 1.57214 0
M  V30 6439 C 614.359 -0.843195 2.14846 0
M  V30 6440 C 615.329 -1.26954 1.07107 0
M  V30 6441 O 616.514 -1.34861 1.34971 0
M  V30 6442 C 613.654 -2.09123 2.74521 0
M  V30 6443 C 612.767 -1.71404 3.96541 0
M  V30 6444 C 611.902 -2.91107 4.44331 0
M  V30 6445 C 610.941 -2.49586 5.58903 0
M  V30 6446 N 610.078 -3.62175 6.01477 0
M  V30 6447 H 614.918 -0.344886 2.95998 0
M  V30 6448 H 612.455 -0.15855 1.46243 0
M  V30 6449 H 614.413 -2.82234 3.07246 0
M  V30 6450 H 613.043 -2.56427 1.96074 0
M  V30 6451 H 612.095 -0.88201 3.70033 0
M  V30 6452 H 613.407 -1.36884 4.7965 0
M  V30 6453 H 612.561 -3.72454 4.78919 0
M  V30 6454 H 611.3 -3.28848 3.60153 0
M  V30 6455 H 610.305 -1.6667 5.23929 0
M  V30 6456 H 611.53 -2.12973 6.4484 0
M  V30 6457 H 609.476 -3.99605 5.20242 0
M  V30 6458 H 609.393 -3.3155 6.79419 0
M  V30 6459 H 610.661 -4.43987 6.407 0
M  V30 6460 N 614.89 -1.56749 -0.16351 0
M  V30 6461 C 615.823 -1.9213 -1.23132 0
M  V30 6462 C 616.801 -0.785047 -1.42393 0
M  V30 6463 O 617.985 -1.0391 -1.57273 0
M  V30 6464 C 615.112 -2.17901 -2.59301 0
M  V30 6465 C 614.158 -3.40576 -2.5673 0
M  V30 6466 S 614.991 -4.94689 -2.05045 0
M  V30 6467 C 616.147 -5.23564 -3.42975 0
M  V30 6468 H 616.38 -2.824 -0.929383 0
M  V30 6469 H 613.913 -1.4994 -0.368418 0
M  V30 6470 H 615.871 -2.33429 -3.3767 0
M  V30 6471 H 614.532 -1.28324 -2.86691 0
M  V30 6472 H 613.725 -3.55833 -3.5693 0
M  V30 6473 H 613.327 -3.24204 -1.86462 0
M  V30 6474 H 615.619 -5.16019 -4.3901 0
M  V30 6475 H 616.562 -6.25134 -3.32586 0
M  V30 6476 H 616.97 -4.51113 -3.39348 0
M  V30 6477 N 616.368 0.432326 -1.51554 0
M  V30 6478 C 617.298 1.53242 -1.76179 0
M  V30 6479 C 618.279 1.58717 -0.611801 0
M  V30 6480 O 619.464 1.74364 -0.855033 0
M  V30 6481 C 616.594 2.91278 -1.89141 0
M  V30 6482 C 615.548 3.00663 -3.04608 0
M  V30 6483 C 614.874 4.40728 -3.02759 0
M  V30 6484 C 616.174 2.74281 -4.44485 0
M  V30 6485 H 617.868 1.32886 -2.68294 0
M  V30 6486 H 615.414 0.637841 -1.29103 0
M  V30 6487 H 617.367 3.68203 -2.04951 0
M  V30 6488 H 616.091 3.12877 -0.936785 0
M  V30 6489 H 614.75 2.26179 -2.88511 0
M  V30 6490 H 614.398 4.59301 -2.05065 0
M  V30 6491 H 614.098 4.47936 -3.80299 0
M  V30 6492 H 615.622 5.19619 -3.20669 0
M  V30 6493 H 617.036 3.40936 -4.60907 0
M  V30 6494 H 615.433 2.92893 -5.23769 0
M  V30 6495 H 616.503 1.69856 -4.54177 0
M  V30 6496 N 617.846 1.41785 0.688094 0
M  V30 6497 C 618.779 1.38643 1.81255 0
M  V30 6498 C 619.757 0.252583 1.60626 0
M  V30 6499 O 620.941 0.440691 1.83276 0
M  V30 6500 C 618.068 1.16449 3.18053 0
M  V30 6501 C 617.114 2.32651 3.57457 0
M  V30 6502 S 617.947 3.95152 3.61407 0
M  V30 6503 C 619.103 3.75275 5.00919 0
M  V30 6504 H 619.336 2.33799 1.83644 0
M  V30 6505 H 616.869 1.28398 0.857513 0
M  V30 6506 H 618.827 1.0433 3.97021 0
M  V30 6507 H 617.488 0.229002 3.13264 0
M  V30 6508 H 616.681 2.12835 4.56856 0
M  V30 6509 H 616.283 2.41215 2.85817 0
M  V30 6510 H 618.575 3.35443 5.88629 0
M  V30 6511 H 619.518 4.74302 5.25778 0
M  V30 6512 H 619.926 3.08401 4.7281 0
M  V30 6513 N 619.324 -0.923095 1.27737 0
M  V30 6514 C 620.552 -1.70525 1.17171 0
M  V30 6515 C 620.967 -1.86847 -0.270881 0
M  V30 6516 O 620.324 -1.38879 -1.18401 0
M  V30 6517 C 620.375 -3.10242 1.85559 0
M  V30 6518 O 620.096 -2.94683 3.24182 0
M  V30 6519 C 621.597 -4.04586 1.81176 0
M  V30 6520 H 618.817 -0.533347 0.407163 0
M  V30 6521 H 621.361 -1.15599 1.68692 0
M  V30 6522 H 619.516 -3.62014 1.3793 0
M  V30 6523 H 619.93 -3.83045 3.58297 0
M  V30 6524 H 621.404 -5.00119 2.33633 0
M  V30 6525 H 621.881 -4.3218 0.782099 0
M  V30 6526 H 622.487 -3.58741 2.2844 0
M  V30 6527 N 620.802 -1.09834 -1.13024 0
M  V30 6528 C 621.732 -0.763451 -2.20666 0
M  V30 6529 C 622.713 0.260778 -1.68089 0
M  V30 6530 O 623.898 0.127915 -1.93778 0
M  V30 6531 C 621.028 -0.187744 -3.46792 0
M  V30 6532 C 619.982 -1.14196 -4.12484 0
M  V30 6533 C 619.308 -0.427755 -5.32986 0
M  V30 6534 C 620.608 -2.48607 -4.59338 0
M  V30 6535 H 622.302 -1.66347 -2.48936 0
M  V30 6536 H 619.848 -0.801261 -1.19649 0
M  V30 6537 H 621.801 0.0586375 -4.21359 0
M  V30 6538 H 620.525 0.747485 -3.17931 0
M  V30 6539 H 619.184 -1.37369 -3.3989 0
M  V30 6540 H 618.832 0.511747 -5.0039 0
M  V30 6541 H 618.532 -1.06403 -5.77886 0
M  V30 6542 H 620.056 -0.189772 -6.10305 0
M  V30 6543 H 621.47 -2.29618 -5.25308 0
M  V30 6544 H 619.867 -3.08062 -5.14993 0
M  V30 6545 H 620.937 -3.09062 -3.73642 0
M  V30 6546 N 622.28 1.30327 -0.886154 0
M  V30 6547 C 623.691 1.78243 -0.555554 0
M  V30 6548 C 624.042 1.72849 0.928314 0
M  V30 6549 O 623.167 1.30607 1.72542 0
M  V30 6550 C 623.762 3.23654 -1.00168 0
M  V30 6551 C 622.321 3.69401 -0.722471 0
M  V30 6552 C 621.468 2.50753 -1.18399 0
M  V30 6553 H 624.419 1.1718 -1.07026 0
M  V30 6554 H 624.44 3.79056 -0.331152 0
M  V30 6555 H 623.952 3.27548 -2.08169 0
M  V30 6556 H 622.053 3.70995 0.345496 0
M  V30 6557 H 622.166 4.60818 -1.31085 0
M  V30 6558 H 620.53 2.47452 -0.603303 0
M  V30 6559 H 621.313 2.57383 -2.27176 0
M  V30 6560 N 623.758 0.647228 1.43697 0
M  V30 6561 C 624.688 -0.0345631 2.33474 0
M  V30 6562 C 625.669 -0.818193 1.4913 0
M  V30 6563 O 626.854 -0.780867 1.77809 0
M  V30 6564 C 623.984 -1.00576 3.32418 0
M  V30 6565 C 622.938 -0.33266 4.26705 0
M  V30 6566 C 622.264 -1.41489 5.1564 0
M  V30 6567 C 623.564 0.771204 5.16575 0
M  V30 6568 H 625.258 0.715163 2.90733 0
M  V30 6569 H 622.804 0.345364 1.39797 0
M  V30 6570 H 624.757 -1.49159 3.94119 0
M  V30 6571 H 623.481 -1.78657 2.73403 0
M  V30 6572 H 622.14 0.13267 3.6636 0
M  V30 6573 H 621.788 -2.18698 4.52968 0
M  V30 6574 H 621.488 -0.969799 5.79542 0
M  V30 6575 H 623.012 -1.9022 5.80214 0
M  V30 6576 H 624.426 0.36779 5.72119 0
M  V30 6577 H 622.823 1.1404 5.89165 0
M  V30 6578 H 623.893 1.63169 4.56622 0
M  V30 6579 N 625.236 -1.5273 0.388769 0
M  V30 6580 C 626.166 -2.29353 -0.438111 0
M  V30 6581 C 627.147 -1.32719 -1.06394 0
M  V30 6582 O 628.332 -1.61612 -1.07681 0
M  V30 6583 C 625.462 -3.09995 -1.56589 0
M  V30 6584 C 624.416 -4.14509 -1.06613 0
M  V30 6585 C 623.742 -4.83372 -2.28594 0
M  V30 6586 C 625.042 -5.22127 -0.134459 0
M  V30 6587 H 626.736 -2.98723 0.201206 0
M  V30 6588 H 624.282 -1.43665 0.0982089 0
M  V30 6589 H 626.235 -3.62357 -2.15118 0
M  V30 6590 H 624.959 -2.38357 -2.23279 0
M  V30 6591 H 623.618 -3.63128 -0.503383 0
M  V30 6592 H 623.266 -4.08283 -2.93792 0
M  V30 6593 H 622.966 -5.54012 -1.95817 0
M  V30 6594 H 624.49 -5.38538 -2.87766 0
M  V30 6595 H 625.904 -5.69851 -0.627914 0
M  V30 6596 H 624.301 -6.00011 0.103534 0
M  V30 6597 H 625.371 -4.77971 0.816798 0
M  V30 6598 N 626.714 -0.118576 -1.57153 0
M  V30 6599 C 628.13 0.238014 -1.57815 0
M  V30 6600 C 628.33 1.66747 -1.13127 0
M  V30 6601 O 627.386 2.38867 -0.818462 0
M  V30 6602 C 628.699 0.00508207 -3.007 0
M  V30 6603 C 630.247 0.0710139 -3.12919 0
M  V30 6604 C 630.722 -0.13422 -4.57803 0
M  V30 6605 N 632.213 -0.0801755 -4.63131 0
M  V30 6606 C 632.948 -0.213885 -5.73001 0
M  V30 6607 N 632.444 -0.403742 -6.91623 0
M  V30 6608 N 634.237 -0.15349 -5.6189 0
M  V30 6609 H 626.388 -1.05226 -1.84503 0
M  V30 6610 H 628.651 -0.414318 -0.852669 0
M  V30 6611 H 628.357 -0.983125 -3.3768 0
M  V30 6612 H 628.231 0.73714 -3.69927 0
M  V30 6613 H 630.618 1.04975 -2.75798 0
M  V30 6614 H 630.699 -0.692918 -2.46236 0
M  V30 6615 H 630.343 -1.10992 -4.95624 0
M  V30 6616 H 630.273 0.649692 -5.22577 0
M  V30 6617 H 632.764 0.0630689 -3.77847 0
M  V30 6618 H 633.077 -0.496645 -7.71202 0
M  V30 6619 H 631.422 -0.43971 -6.93608 0
M  V30 6620 H 634.613 -0.00613174 -4.681 0
M  V30 6621 H 634.786 -0.261138 -6.47474 0
M  V30 6622 N 628.193 1.56834 0.155195 0
M  V30 6623 C 629.125 1.94235 1.21677 0
M  V30 6624 C 630.138 0.83724 1.39621 0
M  V30 6625 O 631.327 1.11567 1.39338 0
M  V30 6626 C 628.427 2.19402 2.58294 0
M  V30 6627 C 627.6 3.50671 2.61436 0
M  V30 6628 C 626.659 3.64475 3.79532 0
M  V30 6629 O 625.685 4.36945 3.64784 0
M  V30 6630 N 626.887 3.00526 4.96653 0
M  V30 6631 H 629.652 2.85901 0.898932 0
M  V30 6632 H 627.213 1.58185 0.34483 0
M  V30 6633 H 629.205 2.25886 3.35794 0
M  V30 6634 H 627.775 1.34042 2.82403 0
M  V30 6635 H 626.995 3.55702 1.69912 0
M  V30 6636 H 628.283 4.3702 2.60559 0
M  V30 6637 H 627.681 2.41549 5.11538 0
M  V30 6638 H 626.238 3.12583 5.71958 0
M  V30 6639 N 629.671 -0.424282 1.51781 0
M  V30 6640 C 630.899 -1.1947 1.68921 0
M  V30 6641 C 631.314 -1.84683 0.39213 0
M  V30 6642 O 630.671 -1.71261 -0.630554 0
M  V30 6643 C 630.722 -2.26909 2.81416 0
M  V30 6644 O 630.443 -1.64361 4.061 0
M  V30 6645 C 631.944 -3.16945 3.09937 0
M  V30 6646 H 629.164 -0.359591 0.566511 0
M  V30 6647 H 631.708 -0.501139 1.98265 0
M  V30 6648 H 629.863 -2.91959 2.54635 0
M  V30 6649 H 630.277 -2.35468 4.68674 0
M  V30 6650 H 631.751 -3.88437 3.922 0
M  V30 6651 H 632.228 -3.78451 2.22871 0
M  V30 6652 H 632.834 -2.57581 3.38426 0
M  V30 6653 N 631.149 -1.42148 -0.680565 0
M  V30 6654 C 632.374 -1.45901 -1.47403 0
M  V30 6655 C 632.799 -0.0700985 -1.87969 0
M  V30 6656 O 632.157 0.930145 -1.55621 0
M  V30 6657 C 632.205 -2.38661 -2.70321 0
M  V30 6658 O 631.309 -1.85399 -3.68376 0
M  V30 6659 H 630.65 -0.494565 -0.443059 0
M  V30 6660 H 633.18 -1.86774 -0.835251 0
M  V30 6661 H 633.19 -2.55046 -3.18458 0
M  V30 6662 H 631.865 -3.39571 -2.40134 0
M  V30 6663 H 630.442 -1.78541 -3.2738 0
M  V30 6664 N 632.627 0.916307 -1.28225 0
M  V30 6665 C 633.855 1.69901 -1.18073 0
M  V30 6666 C 634.27 1.86988 0.260968 0
M  V30 6667 O 633.627 1.39505 1.17663 0
M  V30 6668 C 633.678 3.09254 -1.87201 0
M  V30 6669 O 633.399 2.92959 -3.2574 0
M  V30 6670 C 634.9 4.0362 -1.83319 0
M  V30 6671 H 632.12 0.531181 -0.409985 0
M  V30 6672 H 634.664 1.14703 -1.69303 0
M  V30 6673 H 632.819 3.61277 -1.39848 0
M  V30 6674 H 633.233 3.81139 -3.60324 0
M  V30 6675 H 634.707 4.98873 -2.36282 0
M  V30 6676 H 635.184 4.3176 -0.805007 0
M  V30 6677 H 635.79 3.57524 -2.3034 0
M  V30 6678 N 634.105 1.10431 1.1244 0
M  V30 6679 C 635.052 0.753103 2.18167 0
M  V30 6680 C 636.022 -0.270549 1.63882 0
M  V30 6681 O 637.207 -0.149837 1.90211 0
M  V30 6682 C 634.347 0.191046 3.44571 0
M  V30 6683 C 633.46 1.26999 4.12911 0
M  V30 6684 C 632.595 0.669586 5.26963 0
M  V30 6685 C 631.634 1.72912 5.87169 0
M  V30 6686 N 630.771 1.14898 6.92635 0
M  V30 6687 H 635.611 1.65892 2.47556 0
M  V30 6688 H 633.148 0.828631 1.21541 0
M  V30 6689 H 635.106 -0.152712 4.1692 0
M  V30 6690 H 633.736 -0.677997 3.15599 0
M  V30 6691 H 632.788 1.73087 3.3874 0
M  V30 6692 H 634.1 2.07204 4.53727 0
M  V30 6693 H 633.254 0.275274 6.06075 0
M  V30 6694 H 631.993 -0.163895 4.87425 0
M  V30 6695 H 630.998 2.13286 5.06744 0
M  V30 6696 H 632.223 2.56544 6.28778 0
M  V30 6697 H 630.169 0.336956 6.55134 0
M  V30 6698 H 630.086 1.88786 7.32049 0
M  V30 6699 H 631.354 0.78121 7.75576 0
M  V30 6700 N 635.583 -1.29855 0.893053 0
M  V30 6701 C 636.546 -2.26183 0.370687 0
M  V30 6702 C 637.546 -1.53108 -0.491385 0
M  V30 6703 O 638.736 -1.71643 -0.297386 0
M  V30 6704 C 635.868 -3.37633 -0.470827 0
M  V30 6705 H 637.061 -2.73903 1.22135 0
M  V30 6706 H 634.614 -1.41183 0.67061 0
M  V30 6707 H 635.349 -2.95241 -1.34175 0
M  V30 6708 H 635.134 -3.91825 0.146784 0
M  V30 6709 H 636.624 -4.09313 -0.827825 0
M  V30 6710 N 637.061 -0.65484 -1.43351 0
M  V30 6711 C 638.307 -0.169142 -2.02093 0
M  V30 6712 C 638.64 1.21431 -1.51553 0
M  V30 6713 O 637.915 1.81105 -0.709317 0
M  V30 6714 C 638.198 -0.181775 -3.59641 0
M  V30 6715 C 638.051 -1.59926 -4.20409 0
M  V30 6716 C 639.37 0.480945 -4.37464 0
M  V30 6717 H 636.489 -0.0629371 -0.734308 0
M  V30 6718 H 639.131 -0.835833 -1.70628 0
M  V30 6719 H 637.281 0.385918 -3.86578 0
M  V30 6720 H 638.953 -2.21766 -4.04497 0
M  V30 6721 H 637.196 -2.14605 -3.76998 0
M  V30 6722 H 637.867 -1.55994 -5.295 0
M  V30 6723 H 640.343 -0.00208273 -4.161 0
M  V30 6724 H 639.219 0.441384 -5.47122 0
M  V30 6725 H 639.48 1.55533 -4.13838 0
M  V30 6726 N 638.539 1.52521 -0.396863 0
M  V30 6727 C 639.471 2.24333 0.469814 0
M  V30 6728 C 640.484 1.2685 1.02043 0
M  V30 6729 O 641.673 1.52876 0.92147 0
M  V30 6730 C 638.773 2.95202 1.66461 0
M  V30 6731 C 637.946 4.19454 1.24003 0
M  V30 6732 C 637.005 4.73255 2.30036 0
M  V30 6733 O 636.031 5.36151 1.91131 0
M  V30 6734 N 637.233 4.53765 3.62047 0
M  V30 6735 H 639.998 2.99347 -0.145468 0
M  V30 6736 H 637.559 1.60348 -0.223606 0
M  V30 6737 H 639.551 3.28092 2.36934 0
M  V30 6738 H 638.121 2.2345 2.18607 0
M  V30 6739 H 637.341 3.92517 0.363892 0
M  V30 6740 H 638.629 5.0017 0.933135 0
M  V30 6741 H 638.027 4.03576 3.96412 0
M  V30 6742 H 636.584 4.91124 4.28533 0
M  V30 6743 N 640.017 0.126909 1.57088 0
M  V30 6744 C 640.967 -0.831678 2.1229 0
M  V30 6745 C 641.951 -1.22292 1.04564 0
M  V30 6746 O 643.143 -1.19269 1.30782 0
M  V30 6747 C 640.272 -2.07866 2.73215 0
M  V30 6748 C 639.358 -1.71143 3.88035 0
M  V30 6749 N 639.749 -1.05136 4.94753 0
M  V30 6750 C 638.047 -2.00549 3.98367 0
M  V30 6751 C 638.748 -0.877257 5.75047 0
M  V30 6752 N 637.724 -1.40477 5.25135 0
M  V30 6753 H 641.526 -0.317926 2.92175 0
M  V30 6754 H 639.04 -0.0753052 1.62225 0
M  V30 6755 H 641.037 -2.77516 3.11111 0
M  V30 6756 H 639.697 -2.59778 1.94796 0
M  V30 6757 H 640.708 -0.71442 5.12949 0
M  V30 6758 H 637.385 -2.54452 3.30999 0
M  V30 6759 H 638.775 -0.358536 6.70943 0
M  V30 6760 N 641.495 -1.56914 -0.146875 0
M  V30 6761 C 642.742 -1.83356 -0.859467 0
M  V30 6762 C 643.07 -0.707811 -1.81164 0
M  V30 6763 O 642.325 0.303155 -1.93338 0
M  V30 6764 C 642.624 -3.16128 -1.66727 0
M  V30 6765 C 642.29 -4.42586 -0.861881 0
M  V30 6766 C 640.952 -4.76929 -0.639687 0
M  V30 6767 C 643.304 -5.20344 -0.298643 0
M  V30 6768 C 640.632 -5.86491 0.156451 0
M  V30 6769 C 642.984 -6.30742 0.484536 0
M  V30 6770 C 641.648 -6.63635 0.717306 0
M  V30 6771 H 640.918 -0.670947 -0.314501 0
M  V30 6772 H 643.565 -1.91104 -0.123108 0
M  V30 6773 H 641.87 -3.03831 -2.47374 0
M  V30 6774 H 643.567 -3.33802 -2.2221 0
M  V30 6775 H 640.157 -4.15662 -1.04513 0
M  V30 6776 H 644.341 -4.94186 -0.457585 0
M  V30 6777 H 639.597 -6.10419 0.346292 0
M  V30 6778 H 643.771 -6.90188 0.928105 0
M  V30 6779 H 641.398 -7.48367 1.33607 0
M  V30 6780 N 642.974 0.416227 -1.52004 0
M  V30 6781 C 644.204 1.18401 -1.69307 0
M  V30 6782 C 644.612 1.84943 -0.399072 0
M  V30 6783 O 643.955 1.72406 0.634177 0
M  V30 6784 C 644.017 2.29465 -2.76742 0
M  V30 6785 C 643.681 1.83117 -4.18709 0
M  V30 6786 C 644.678 1.32286 -5.02789 0
M  V30 6787 C 642.363 1.90167 -4.64911 0
M  V30 6788 C 644.357 0.891178 -6.31139 0
M  V30 6789 C 642.044 1.4661 -5.93253 0
M  V30 6790 C 643.042 0.961696 -6.76196 0
M  V30 6791 O 642.73 0.532388 -8.02135 0
M  V30 6792 H 642.462 0.362098 -0.570843 0
M  V30 6793 H 645.016 0.496764 -1.99302 0
M  V30 6794 H 643.246 3.01531 -2.42107 0
M  V30 6795 H 644.935 2.91252 -2.82713 0
M  V30 6796 H 645.701 1.26218 -4.68288 0
M  V30 6797 H 641.58 2.28371 -4.00459 0
M  V30 6798 H 645.124 0.496788 -6.95829 0
M  V30 6799 H 641.021 1.52355 -6.27263 0
M  V30 6800 H 641.789 0.656339 -8.15864 0
M  V30 6801 N 644.452 1.42507 0.673017 0
M  V30 6802 C 645.4 1.46362 1.80779 0
M  V30 6803 C 646.394 0.339166 1.6597 0
M  V30 6804 O 647.6 0.512262 1.72557 0
M  V30 6805 H 643.975 0.458433 0.596107 0
M  V30 6806 H 645.946 2.41953 1.74646 0
M  V30 6807 C 644.695 1.38462 3.18941 0
M  V30 6808 H 644.018 2.24283 3.30964 0
M  V30 6809 H 645.458 1.45221 3.98355 0
M  V30 6810 C 643.917 0.0996354 3.36753 0
M  V30 6811 O 644.447 -0.846894 3.92671 0
M  V30 6812 N 642.653 0.016211 2.90595 0
M  V30 6813 H 642.2 0.78725 2.45276 0
M  V30 6814 H 642.158 -0.84291 3.0289 0
M  V30 6815 N 645.93 -0.909495 1.28709 0
M  V30 6816 C 647.179 -1.65365 1.15487 0
M  V30 6817 C 647.492 -1.93364 -0.294941 0
M  V30 6818 O 648.698 -2.65905 -0.548338 0
M  V30 6819 C 647.154 -2.97923 2.01916 0
M  V30 6820 C 646.762 -2.77556 3.51663 0
M  V30 6821 C 648.506 -3.75814 1.97393 0
M  V30 6822 C 646.413 -4.0578 4.30229 0
M  V30 6823 H 645.343 -0.620323 0.42862 0
M  V30 6824 H 647.994 -1.00894 1.53273 0
M  V30 6825 H 646.376 -3.63552 1.5699 0
M  V30 6826 H 647.55 -2.2058 4.04575 0
M  V30 6827 H 645.865 -2.13072 3.57756 0
M  V30 6828 H 648.462 -4.70866 2.53357 0
M  V30 6829 H 648.805 -4.05277 0.951643 0
M  V30 6830 H 649.338 -3.1701 2.40311 0
M  V30 6831 H 646.077 -3.81488 5.33055 0
M  V30 6832 H 645.597 -4.62351 3.82089 0
M  V30 6833 H 647.276 -4.74004 4.40374 0
M  V30 6834 N 647.408 -1.11026 -1.11852 0
M  V30 6835 C 648.355 -0.764662 -2.17765 0
M  V30 6836 C 649.325 0.261854 -1.64023 0
M  V30 6837 O 650.51 0.139748 -1.90288 0
M  V30 6838 C 647.65 -0.209317 -3.44465 0
M  V30 6839 C 646.763 -1.29187 -4.12231 0
M  V30 6840 C 645.898 -0.697523 -5.266 0
M  V30 6841 C 644.937 -1.76023 -5.86244 0
M  V30 6842 N 644.074 -1.18569 -6.92016 0
M  V30 6843 H 648.914 -1.67202 -2.46673 0
M  V30 6844 H 646.451 -0.835065 -1.21099 0
M  V30 6845 H 648.409 0.130599 -4.16996 0
M  V30 6846 H 647.039 0.661251 -3.15955 0
M  V30 6847 H 646.091 -1.74881 -3.37818 0
M  V30 6848 H 647.403 -2.09607 -4.52622 0
M  V30 6849 H 646.557 -0.307412 -6.05921 0
M  V30 6850 H 645.296 0.138044 -4.87505 0
M  V30 6851 H 644.301 -2.1597 -5.05606 0
M  V30 6852 H 645.526 -2.59875 -6.27409 0
M  V30 6853 H 643.472 -0.371695 -6.54946 0
M  V30 6854 H 643.389 -1.92666 -7.31038 0
M  V30 6855 H 644.657 -0.82233 -7.7515 0
M  V30 6856 N 648.886 1.2938 -0.899927 0
M  V30 6857 C 649.816 2.30144 -0.39446 0
M  V30 6858 C 650.797 1.61611 0.530639 0
M  V30 6859 O 651.982 1.89119 0.441319 0
M  V30 6860 C 649.112 3.45229 0.37868 0
M  V30 6861 C 648.066 4.25564 -0.456012 0
M  V30 6862 C 647.392 5.32848 0.444637 0
M  V30 6863 C 648.692 4.93651 -1.70605 0
M  V30 6864 H 650.386 2.72673 -1.23653 0
M  V30 6865 H 647.932 1.31086 -0.596034 0
M  V30 6866 H 649.885 4.14797 0.743037 0
M  V30 6867 H 648.609 3.01545 1.25453 0
M  V30 6868 H 647.268 3.57704 -0.802704 0
M  V30 6869 H 646.916 4.85408 1.31863 0
M  V30 6870 H 646.616 5.87497 -0.110154 0
M  V30 6871 H 648.14 6.05268 0.805182 0
M  V30 6872 H 649.554 5.55655 -1.41141 0
M  V30 6873 H 647.951 5.58233 -2.20217 0
M  V30 6874 H 649.021 4.18926 -2.4419 0
M  V30 6875 N 650.364 0.662433 1.43002 0
M  V30 6876 C 651.274 -0.0239199 2.34588 0
M  V30 6877 C 652.29 -0.802255 1.54402 0
M  V30 6878 O 653.466 -0.747401 1.87018 0
M  V30 6879 C 650.531 -0.972098 3.32793 0
M  V30 6880 C 649.592 -0.189673 4.28881 0
M  V30 6881 C 648.825 -1.09269 5.22395 0
M  V30 6882 O 649.048 -2.33209 5.20547 0
M  V30 6883 O 647.982 -0.560136 5.99288 0
M  V30 6884 H 651.808 0.730171 2.94792 0
M  V30 6885 H 649.393 0.422635 1.43297 0
M  V30 6886 H 651.275 -1.51676 3.93157 0
M  V30 6887 H 649.95 -1.70626 2.75079 0
M  V30 6888 H 648.857 0.398794 3.71968 0
M  V30 6889 H 650.19 0.50511 4.89601 0
M  V30 6890 N 651.842 -1.52309 0.404946 0
M  V30 6891 C 653.09 -2.01368 -0.17186 0
M  V30 6892 C 653.411 -1.29261 -1.46002 0
M  V30 6893 O 652.681 -0.41729 -1.91404 0
M  V30 6894 H 651.261 -0.744034 -0.0664993 0
M  V30 6895 H 653.923 -1.87263 0.540228 0
M  V30 6896 H 653.019 -3.09888 -0.370957 0
M  V30 6897 N 653.32 -0.135238 -1.57019 0
M  V30 6898 C 654.267 0.808908 -2.1616 0
M  V30 6899 C 655.237 1.25234 -1.09113 0
M  V30 6900 O 656.422 1.32697 -1.37099 0
M  V30 6901 C 653.562 2.04729 -2.77813 0
M  V30 6902 C 652.675 1.65074 -3.99218 0
M  V30 6903 C 651.81 2.84002 -4.48906 0
M  V30 6904 C 650.849 2.40663 -5.62803 0
M  V30 6905 N 649.986 3.5256 -6.07162 0
M  V30 6906 H 654.826 0.297751 -2.96509 0
M  V30 6907 H 652.363 0.135264 -1.46477 0
M  V30 6908 H 654.321 2.7731 -3.11697 0
M  V30 6909 H 652.951 2.53275 -2.00128 0
M  V30 6910 H 652.003 0.823029 -3.7139 0
M  V30 6911 H 653.315 1.29236 -4.81767 0
M  V30 6912 H 652.469 3.64788 -4.84783 0
M  V30 6913 H 651.208 3.23076 -3.65339 0
M  V30 6914 H 650.213 1.58314 -5.26514 0
M  V30 6915 H 651.438 2.02687 -6.48147 0
M  V30 6916 H 649.384 3.91278 -5.26534 0
M  V30 6917 H 649.301 3.20699 -6.84608 0
M  V30 6918 H 650.569 4.33738 -6.47682 0
M  V30 6919 N 654.798 1.5699 0.138552 0
M  V30 6920 C 656.044 1.84081 0.85099 0
M  V30 6921 C 656.377 0.718107 1.80435 0
M  V30 6922 O 655.652 -0.277633 1.92508 0
M  V30 6923 C 655.935 3.21699 1.61808 0
M  V30 6924 C 655.788 4.44544 0.685633 0
M  V30 6925 C 657.107 3.5664 2.57868 0
M  V30 6926 H 654.226 0.669592 0.307922 0
M  V30 6927 H 656.868 1.89646 0.11588 0
M  V30 6928 H 655.018 3.17086 2.24474 0
M  V30 6929 H 656.69 4.61248 0.0693179 0
M  V30 6930 H 654.933 4.338 -0.00421993 0
M  V30 6931 H 655.604 5.3746 1.25858 0
M  V30 6932 H 658.08 3.61918 2.05316 0
M  V30 6933 H 656.956 4.53946 3.08584 0
M  V30 6934 H 657.217 2.83036 3.39622 0
M  V30 6935 N 656.276 -0.40816 1.52223 0
M  V30 6936 C 657.687 -0.986929 1.58482 0
M  V30 6937 C 658.038 -1.91521 0.425917 0
M  V30 6938 O 657.163 -2.11593 -0.453593 0
M  V30 6939 C 657.758 -1.7967 2.87235 0
M  V30 6940 C 656.317 -2.32549 2.9597 0
M  V30 6941 C 655.464 -1.12558 2.53428 0
M  V30 6942 H 658.415 -0.188362 1.57578 0
M  V30 6943 H 658.436 -2.65417 2.72642 0
M  V30 6944 H 657.948 -1.12082 3.71563 0
M  V30 6945 H 656.049 -3.03505 2.16137 0
M  V30 6946 H 656.162 -2.63348 4.00231 0
M  V30 6947 H 654.526 -1.47984 2.07299 0
M  V30 6948 H 655.309 -0.465351 3.40131 0
M  V30 6949 N 657.755 -1.42862 -0.66545 0
M  V30 6950 C 658.688 -1.41509 -1.79026 0
M  V30 6951 C 659.666 -0.278106 -1.60204 0
M  V30 6952 O 660.85 -0.469792 -1.82552 0
M  V30 6953 C 657.977 -1.21494 -3.1616 0
M  V30 6954 C 657.023 -2.38308 -3.53711 0
M  V30 6955 S 657.856 -4.00852 -3.55075 0
M  V30 6956 C 659.012 -3.83197 -4.94885 0
M  V30 6957 H 659.245 -2.36691 -1.79902 0
M  V30 6958 H 656.778 -1.29746 -0.836977 0
M  V30 6959 H 658.736 -1.10633 -3.95311 0
M  V30 6960 H 657.397 -0.27881 -3.1286 0
M  V30 6961 H 656.59 -2.20076 -4.53412 0
M  V30 6962 H 656.192 -2.45732 -2.81943 0
M  V30 6963 H 658.484 -3.44765 -5.83218 0
M  V30 6964 H 659.427 -4.82607 -5.18166 0
M  V30 6965 H 659.835 -3.15884 -4.67843 0
M  V30 6966 N 659.233 0.902656 -1.29189 0
M  V30 6967 C 660.183 1.99326 -1.10695 0
M  V30 6968 C 661.167 1.60877 -0.0272521 0
M  V30 6969 O 662.359 1.75245 -0.248635 0
M  V30 6970 C 659.488 3.34265 -0.78244 0
M  V30 6971 C 658.574 3.79081 -1.90153 0
M  V30 6972 N 658.965 3.96162 -3.14466 0
M  V30 6973 C 657.263 4.08333 -1.79389 0
M  V30 6974 C 657.964 4.3388 -3.87458 0
M  V30 6975 N 656.94 4.42759 -3.15381 0
M  V30 6976 H 660.742 2.10597 -2.05003 0
M  V30 6977 H 658.256 1.09127 -1.20271 0
M  V30 6978 H 660.253 4.12097 -0.630996 0
M  V30 6979 H 658.913 3.2434 0.152754 0
M  V30 6980 H 659.924 3.81775 -3.49954 0
M  V30 6981 H 656.601 4.06982 -0.931217 0
M  V30 6982 H 657.991 4.54965 -4.94425 0
M  V30 6983 N 660.711 1.11618 1.11262 0
M  V30 6984 C 661.658 0.7762 2.17356 0
M  V30 6985 C 662.628 -0.253152 1.6416 0
M  V30 6986 O 663.813 -0.129655 1.90359 0
M  V30 6987 C 660.953 0.227581 3.44349 0
M  V30 6988 C 660.066 1.31372 4.1154 0
M  V30 6989 C 659.201 0.72544 5.26223 0
M  V30 6990 C 658.24 1.7913 5.85302 0
M  V30 6991 N 657.377 1.22237 6.91377 0
M  V30 6992 H 662.217 1.68508 2.45783 0
M  V30 6993 H 659.754 0.841475 1.20655 0
M  V30 6994 H 661.712 -0.108483 4.17059 0
M  V30 6995 H 660.342 -0.644486 3.16301 0
M  V30 6996 H 659.394 1.7667 3.36885 0
M  V30 6997 H 660.706 2.12005 4.51504 0
M  V30 6998 H 659.86 0.339541 6.05749 0
M  V30 6999 H 658.599 -0.112188 4.87571 0
M  V30 7000 H 657.604 2.18648 5.04453 0
M  V30 7001 H 658.829 2.63199 6.26022 0
M  V30 7002 H 656.775 0.406423 6.5474 0
M  V30 7003 H 656.692 1.9654 7.30006 0
M  V30 7004 H 657.96 0.863426 7.74703 0
M  V30 7005 N 662.189 -1.289 0.906776 0
M  V30 7006 C 663.119 -2.29932 0.406659 0
M  V30 7007 C 664.1 -1.6189 -0.522061 0
M  V30 7008 O 665.285 -1.8935 -0.431283 0
M  V30 7009 C 662.415 -3.45425 -0.360366 0
M  V30 7010 C 661.369 -4.25316 0.478574 0
M  V30 7011 C 660.695 -5.33076 -0.416373 0
M  V30 7012 C 661.995 -4.92739 1.7322 0
M  V30 7013 H 663.689 -2.72013 1.25097 0
M  V30 7014 H 661.235 -1.30768 0.602977 0
M  V30 7015 H 663.188 -4.15186 -0.721029 0
M  V30 7016 H 661.912 -3.02206 -1.23852 0
M  V30 7017 H 660.571 -3.57273 0.821662 0
M  V30 7018 H 660.219 -4.86101 -1.29287 0
M  V30 7019 H 659.919 -5.8743 0.141309 0
M  V30 7020 H 661.443 -6.05686 -0.773072 0
M  V30 7021 H 662.857 -5.54898 1.44086 0
M  V30 7022 H 661.254 -5.57057 2.23175 0
M  V30 7023 H 662.324 -4.17625 2.46408 0
M  V30 7024 N 663.667 -0.670007 -1.42649 0
M  V30 7025 C 664.914 -0.190286 -2.01604 0
M  V30 7026 C 665.242 1.20155 -1.52948 0
M  V30 7027 O 664.497 1.81964 -0.72026 0
M  V30 7028 C 664.796 -0.168298 -3.57004 0
M  V30 7029 C 664.462 -1.50415 -4.25072 0
M  V30 7030 C 663.124 -1.86992 -4.43382 0
M  V30 7031 C 665.476 -2.38414 -4.63474 0
M  V30 7032 C 662.804 -3.11203 -4.97363 0
M  V30 7033 C 665.156 -3.61933 -5.18833 0
M  V30 7034 C 663.82 -3.98685 -5.35356 0
M  V30 7035 H 663.09 -0.0696305 -0.737721 0
M  V30 7036 H 665.737 -0.864044 -1.70899 0
M  V30 7037 H 664.042 0.588958 -3.87348 0
M  V30 7038 H 665.739 0.22001 -4.00396 0
M  V30 7039 H 662.329 -1.20959 -4.11177 0
M  V30 7040 H 666.513 -2.11442 -4.49006 0
M  V30 7041 H 661.769 -3.39705 -5.08341 0
M  V30 7042 H 665.943 -4.30326 -5.47533 0
M  V30 7043 H 663.57 -4.95009 -5.76949 0
M  V30 7044 N 665.145 1.52092 -0.413018 0
M  V30 7045 C 666.075 2.30021 0.401567 0
M  V30 7046 C 667.056 1.34395 1.04269 0
M  V30 7047 O 668.241 1.63304 1.05097 0
M  V30 7048 C 665.371 3.12447 1.51638 0
M  V30 7049 C 664.325 4.16153 1.00005 0
M  V30 7050 C 663.651 4.86948 2.20875 0
M  V30 7051 C 664.951 5.22275 0.0513757 0
M  V30 7052 H 666.645 2.98365 -0.248704 0
M  V30 7053 H 664.191 1.4349 -0.121052 0
M  V30 7054 H 666.144 3.65733 2.09326 0
M  V30 7055 H 664.868 2.41879 2.19458 0
M  V30 7056 H 663.527 3.63882 0.445549 0
M  V30 7057 H 663.175 4.12905 2.8726 0
M  V30 7058 H 662.875 5.57057 1.86978 0
M  V30 7059 H 664.399 5.43048 2.79162 0
M  V30 7060 H 665.813 5.70778 0.537176 0
M  V30 7061 H 664.21 5.9977 -0.198977 0
M  V30 7062 H 665.28 4.76611 -0.892736 0
M  V30 7063 N 666.623 0.143563 1.56945 0
M  V30 7064 C 667.533 -0.810562 2.20152 0
M  V30 7065 C 668.549 -1.27431 1.1848 0
M  V30 7066 O 669.725 -1.33221 1.51044 0
M  V30 7067 C 666.79 -2.03353 2.80799 0
M  V30 7068 C 665.851 -1.61936 3.97587 0
M  V30 7069 C 665.084 -2.78403 4.55332 0
M  V30 7070 O 665.307 -3.94521 4.11958 0
M  V30 7071 O 664.241 -2.54073 5.45647 0
M  V30 7072 H 668.067 -0.30253 3.02189 0
M  V30 7073 H 665.652 -0.0832925 1.49168 0
M  V30 7074 H 667.534 -2.74932 3.19359 0
M  V30 7075 H 666.209 -2.53116 2.01777 0
M  V30 7076 H 665.116 -0.873904 3.6375 0
M  V30 7077 H 666.449 -1.16892 4.78118 0
M  V30 7078 N 668.101 -1.57061 -0.130224 0
M  V30 7079 C 669.034 -1.94698 -1.19029 0
M  V30 7080 C 670.012 -0.815074 -1.40696 0
M  V30 7081 O 671.196 -1.07223 -1.55034 0
M  V30 7082 C 668.323 -2.23352 -2.5462 0
M  V30 7083 C 667.369 -3.45945 -2.49448 0
M  V30 7084 S 668.202 -4.98927 -1.94505 0
M  V30 7085 C 669.358 -5.30721 -3.31792 0
M  V30 7086 H 669.591 -2.84308 -0.869272 0
M  V30 7087 H 667.124 -1.50688 -0.336531 0
M  V30 7088 H 669.082 -2.40539 -3.32643 0
M  V30 7089 H 667.743 -1.34376 -2.83905 0
M  V30 7090 H 666.936 -3.63324 -3.49302 0
M  V30 7091 H 666.538 -3.28086 -1.79543 0
M  V30 7092 H 668.83 -5.25215 -4.27966 0
M  V30 7093 H 669.773 -6.32048 -3.19251 0
M  V30 7094 H 670.181 -4.5821 -3.29703 0
M  V30 7095 N 669.579 0.400081 -1.52437 0
M  V30 7096 C 670.509 1.4947 -1.7939 0
M  V30 7097 C 671.49 1.57383 -0.645329 0
M  V30 7098 O 672.675 1.72511 -0.891826 0
M  V30 7099 C 669.805 2.87201 -1.95276 0
M  V30 7100 C 668.759 2.94134 -3.10917 0
M  V30 7101 C 668.085 4.34207 -3.1204 0
M  V30 7102 C 669.385 2.64791 -4.50203 0
M  V30 7103 H 671.079 1.27165 -2.71052 0
M  V30 7104 H 668.625 0.610312 -1.30427 0
M  V30 7105 H 670.578 3.63772 -2.12715 0
M  V30 7106 H 669.302 3.10819 -1.00294 0
M  V30 7107 H 667.961 2.20009 -2.93243 0
M  V30 7108 H 667.609 4.54848 -2.14761 0
M  V30 7109 H 667.309 4.39768 -3.89715 0
M  V30 7110 H 668.833 5.127 -3.31619 0
M  V30 7111 H 670.247 3.31083 -4.68035 0
M  V30 7112 H 668.644 2.81717 -5.29864 0
M  V30 7113 H 669.714 1.60184 -4.57678 0
M  V30 7114 N 671.057 1.43213 0.657864 0
M  V30 7115 C 671.967 1.50448 1.80007 0
M  V30 7116 C 672.983 0.39191 1.69529 0
M  V30 7117 O 674.159 0.645349 1.90781 0
M  V30 7118 C 671.224 1.42062 3.16258 0
M  V30 7119 C 670.285 2.63951 3.38568 0
M  V30 7120 C 669.518 2.55956 4.68318 0
M  V30 7121 O 669.741 1.60473 5.47361 0
M  V30 7122 O 668.675 3.46378 4.92245 0
M  V30 7123 H 672.501 2.4689 1.76858 0
M  V30 7124 H 670.086 1.25163 0.81576 0
M  V30 7125 H 671.968 1.3981 3.97531 0
M  V30 7126 H 670.643 0.487524 3.20008 0
M  V30 7127 H 669.55 2.71776 2.57077 0
M  V30 7128 H 670.883 3.56217 3.39662 0
M  V30 7129 N 672.536 -0.895792 1.29666 0
M  V30 7130 C 673.499 -1.98189 1.15124 0
M  V30 7131 C 674.499 -1.60572 0.0855717 0
M  V30 7132 O 675.689 -1.70991 0.332826 0
M  V30 7133 C 672.821 -3.32289 0.761372 0
M  V30 7134 H 674.014 -2.12518 2.11603 0
M  V30 7135 H 671.567 -1.0808 1.12908 0
M  V30 7136 H 672.302 -3.23662 -0.203393 0
M  V30 7137 H 672.087 -3.60958 1.53139 0
M  V30 7138 H 673.577 -4.1198 0.682792 0
M  V30 7139 N 674.014 -1.12206 -1.10668 0
M  V30 7140 C 674.961 -0.787716 -2.16942 0
M  V30 7141 C 675.931 0.244442 -1.64291 0
M  V30 7142 O 677.116 0.119558 -1.90425 0
M  V30 7143 C 674.256 -0.24584 -3.44223 0
M  V30 7144 C 673.369 -1.33552 -4.10838 0
M  V30 7145 C 672.504 -0.753337 -5.25831 0
M  V30 7146 C 671.543 -1.82231 -5.84344 0
M  V30 7147 N 670.68 -1.25902 -6.90719 0
M  V30 7148 H 675.52 -1.69809 -2.44885 0
M  V30 7149 H 673.057 -0.847862 -1.20207 0
M  V30 7150 H 675.015 0.0863639 -4.17111 0
M  V30 7151 H 673.645 0.627702 -3.16638 0
M  V30 7152 H 672.697 -1.78454 -3.35944 0
M  V30 7153 H 674.009 -2.14396 -4.50373 0
M  V30 7154 H 673.163 -0.37166 -6.05561 0
M  V30 7155 H 671.902 0.0863297 -4.87624 0
M  V30 7156 H 670.907 -2.2132 -5.03287 0
M  V30 7157 H 672.132 -2.66515 -6.24617 0
M  V30 7158 H 670.078 -0.44114 -6.54515 0
M  V30 7159 H 669.995 -2.00408 -7.28953 0
M  V30 7160 H 671.263 -0.904498 -7.74235 0
M  V30 7161 N 675.492 1.28418 -0.913599 0
M  V30 7162 C 676.738 1.9527 -0.547484 0
M  V30 7163 C 677.071 1.71745 0.906486 0
M  V30 7164 O 676.346 1.03834 1.64465 0
M  V30 7165 C 676.629 3.49748 -0.857205 0
M  V30 7166 C 676.482 3.82675 -2.3639 0
M  V30 7167 C 677.801 4.3868 -0.353258 0
M  V30 7168 H 674.92 0.709236 -0.200381 0
M  V30 7169 H 677.562 1.51789 -1.14281 0
M  V30 7170 H 675.712 3.86915 -0.350548 0
M  V30 7171 H 677.384 3.55378 -2.94116 0
M  V30 7172 H 675.627 3.29724 -2.81894 0
M  V30 7173 H 676.298 4.90547 -2.53115 0
M  V30 7174 H 678.774 4.08584 -0.787288 0
M  V30 7175 H 677.65 5.45621 -0.599049 0
M  V30 7176 H 677.911 4.35753 0.746413 0
M  V30 7177 O 677.009 0.816646 1.39331 0
M  V30 7178 H 677.7 0.396491 1.89599 0
M  V30 END ATOM
M  V30 BEGIN BOND
M  V30 END BOND
M  V30 END CTAB
M  END
$$$$
