drugbank_target|O14792 Heparan sulfate glucosamine 3-O-sulfotransferase 1 (DB01812)
 OpenBabel12092120533D

  0  0  0     0  0            999 V3000
M  V30 BEGIN CTAB
M  V30 COUNTS 5037 5113 0 0 0
M  V30 BEGIN ATOM
M  V30 1 H -0.908 1.98254 -0.117106 0
M  V30 2 N 0 1.576 0 0
M  V30 3 C 0.933 2.03868 1.02534 0
M  V30 4 C 1.911 0.928543 1.3348 0
M  V30 5 O 3.095 1.19667 1.45644 0
M  V30 6 C 0.222 2.43627 2.35294 0
M  V30 7 C -0.732 3.65373 2.2001 0
M  V30 8 S 0.101 5.13292 1.52614 0
M  V30 9 C 1.257 5.56322 2.86805 0
M  V30 10 H 1.49 2.90518 0.631377 0
M  V30 11 H -0.977 1.52953 0.210867 0
M  V30 12 H 0.981 2.67203 3.11629 0
M  V30 13 H -0.358 1.57376 2.7183 0
M  V30 14 H -1.165 3.90944 3.18086 0
M  V30 15 H -1.563 3.418 1.51819 0
M  V30 16 H 0.729 5.58782 3.83104 0
M  V30 17 H 1.672 6.56266 2.65933 0
M  V30 18 H 2.08 4.83886 2.90714 0
M  V30 19 N 1.4781 -0.272755 1.55222 0
M  V30 20 C 2.4411 -1.32041 1.87344 0
M  V30 21 C 3.4411 -1.42342 0.74803 0
M  V30 22 O 4.6311 -1.41488 1.0162 0
M  V30 23 C 1.7631 -2.70173 2.07893 0
M  V30 24 H 2.9561 -1.04789 2.80997 0
M  V30 25 H 0.5091 -0.51083 1.47717 0
M  V30 26 H 1.2441 -3.02605 1.16622 0
M  V30 27 H 1.0291 -2.64082 2.89833 0
M  V30 28 H 2.5191 -3.45869 2.34017 0
M  V30 29 N 2.9562 -1.48159 -0.537278 0
M  V30 30 C 3.9192 -1.61665 -1.62472 0
M  V30 31 C 4.9192 -0.490395 -1.5314 0
M  V30 32 O 6.1092 -0.755998 -1.5694 0
M  V30 33 C 3.2412 -1.57997 -3.02076 0
M  V30 34 H 4.4342 -2.58621 -1.51839 0
M  V30 35 H 1.9872 -1.36647 -0.758771 0
M  V30 36 H 2.7222 -0.624913 -3.18222 0
M  V30 37 H 2.5072 -2.39755 -3.10258 0
M  V30 38 H 3.9972 -1.70627 -3.81151 0
M  V30 39 N 4.4343 0.785586 -1.36625 0
M  V30 40 C 5.3643 1.91259 -1.33949 0
M  V30 41 C 6.3453 1.68795 -0.210325 0
M  V30 42 O 7.5303 1.89854 -0.408561 0
M  V30 43 C 4.6603 3.28339 -1.13186 0
M  V30 44 C 3.6143 3.65335 -2.22967 0
M  V30 45 C 2.9403 5.00806 -1.87342 0
M  V30 46 C 4.2403 3.7352 -3.65075 0
M  V30 47 H 5.9343 1.93755 -2.28253 0
M  V30 48 H 3.4803 0.930788 -1.09874 0
M  V30 49 H 5.4333 4.06804 -1.09948 0
M  V30 50 H 4.1573 3.2624 -0.153332 0
M  V30 51 H 2.8163 2.89169 -2.25337 0
M  V30 52 H 2.4643 4.95233 -0.880545 0
M  V30 53 H 2.1643 5.26529 -2.60846 0
M  V30 54 H 3.6883 5.81687 -1.85667 0
M  V30 55 H 5.1023 4.42168 -3.64911 0
M  V30 56 H 3.4993 4.10731 -4.37516 0
M  V30 57 H 4.5693 2.74527 -3.99703 0
M  V30 58 N 5.9124 1.20967 1.01018 0
M  V30 59 C 6.8424 0.988272 2.11555 0
M  V30 60 C 7.8234 -0.0849778 1.69888 0
M  V30 61 O 9.0084 0.0738202 1.9406 0
M  V30 62 C 6.1384 0.546528 3.42973 0
M  V30 63 C 5.0924 1.56375 3.9841 0
M  V30 64 C 4.4184 0.97842 5.25672 0
M  V30 65 C 5.7184 2.94922 4.31066 0
M  V30 66 H 7.4124 1.91276 2.30334 0
M  V30 67 H 4.9584 0.921073 1.1069 0
M  V30 68 H 6.9114 0.378839 4.19694 0
M  V30 69 H 5.6354 -0.413598 3.23971 0
M  V30 70 H 4.2944 1.71891 3.23804 0
M  V30 71 H 3.9424 0.0101688 5.02999 0
M  V30 72 H 3.6424 1.65784 5.63728 0
M  V30 73 H 5.1664 0.821939 6.05043 0
M  V30 74 H 6.5804 2.8288 4.9865 0
M  V30 75 H 4.9774 3.5983 4.80253 0
M  V30 76 H 6.0474 3.4616 3.39561 0
M  V30 77 N 7.3905 -1.2043 1.01659 0
M  V30 78 C 8.3205 -2.25466 0.607226 0
M  V30 79 C 9.3015 -1.65853 -0.377716 0
M  V30 80 O 10.4865 -1.92409 -0.263149 0
M  V30 81 C 7.6165 -3.47256 -0.0552949 0
M  V30 82 C 6.5705 -4.19462 0.850632 0
M  V30 83 C 5.8965 -5.34673 0.0538859 0
M  V30 84 C 7.1965 -4.75603 2.15868 0
M  V30 85 H 8.8905 -2.59962 1.48526 0
M  V30 86 H 6.4365 -1.2496 0.715605 0
M  V30 87 H 8.3895 -4.19917 -0.353233 0
M  V30 88 H 7.1135 -3.11924 -0.968045 0
M  V30 89 H 5.7725 -3.48667 1.13257 0
M  V30 90 H 5.4205 -4.95585 -0.860514 0
M  V30 91 H 5.1205 -5.83913 0.657192 0
M  V30 92 H 6.6445 -6.10138 -0.237598 0
M  V30 93 H 8.0585 -5.40083 1.92311 0
M  V30 94 H 6.4555 -5.3528 2.71284 0
M  V30 95 H 7.5255 -3.94346 2.82169 0
M  V30 96 N 8.8686 -0.792821 -1.36206 0
M  V30 97 C 10.1166 -0.366062 -1.98757 0
M  V30 98 C 10.4376 1.0668 -1.63231 0
M  V30 99 O 9.7076 1.73587 -0.907978 0
M  V30 100 H 8.2876 -0.132364 -0.735179 0
M  V30 101 H 10.9496 -1.01562 -1.66347 0
M  V30 102 H 10.0456 -0.460638 -3.08682 0
M  V30 103 N 10.3467 1.47872 -0.545128 0
M  V30 104 C 11.3097 2.28337 0.198717 0
M  V30 105 C 12.3097 1.36255 0.853888 0
M  V30 106 O 13.4997 1.59003 0.711606 0
M  V30 107 C 10.6317 3.15585 1.28915 0
M  V30 108 H 11.8247 2.95567 -0.507941 0
M  V30 109 H 9.3777 1.53362 -0.301616 0
M  V30 110 H 10.1127 2.53019 2.02859 0
M  V30 111 H 9.8977 3.83337 0.824309 0
M  V30 112 H 11.3877 3.76243 1.81194 0
M  V30 113 N 11.8248 0.280983 1.55075 0
M  V30 114 C 13.0708 -0.33461 2.00021 0
M  V30 115 C 13.4038 -1.55063 1.16915 0
M  V30 116 O 12.6788 -1.93006 0.240646 0
M  V30 117 C 12.9618 -0.711007 3.53011 0
M  V30 118 C 12.8148 0.512766 4.46868 0
M  V30 119 C 14.1338 -1.54522 4.12081 0
M  V30 120 H 11.2528 -0.120147 0.727141 0
M  V30 121 H 13.8948 0.389097 1.85973 0
M  V30 122 H 12.0448 -1.32761 3.65112 0
M  V30 123 H 13.7168 1.15131 4.46702 0
M  V30 124 H 11.9598 1.14975 4.18286 0
M  V30 125 H 12.6308 0.205556 5.51617 0
M  V30 126 H 15.1068 -1.02442 4.03293 0
M  V30 127 H 13.9828 -1.77739 5.19327 0
M  V30 128 H 14.2438 -2.52813 3.62682 0
M  V30 129 N 13.3029 -1.57598 0.00835791 0
M  V30 130 C 14.2329 -2.1198 -0.979113 0
M  V30 131 C 15.2139 -1.03091 -1.35301 0
M  V30 132 O 16.3989 -1.30818 -1.43528 0
M  V30 133 C 13.5289 -2.62995 -2.26828 0
M  V30 134 C 12.4829 -3.76485 -2.03576 0
M  V30 135 C 11.8089 -4.13846 -3.38579 0
M  V30 136 C 13.1089 -5.0342 -1.39161 0
M  V30 137 H 14.8029 -2.94738 -0.526281 0
M  V30 138 H 12.3489 -1.41783 -0.251704 0
M  V30 139 H 14.3019 -2.99669 -2.96271 0
M  V30 140 H 13.0259 -1.7737 -2.7424 0
M  V30 141 H 11.6849 -3.40217 -1.36557 0
M  V30 142 H 11.3329 -3.25232 -3.83709 0
M  V30 143 H 11.0329 -4.90312 -3.23834 0
M  V30 144 H 12.5569 -4.53086 -4.09323 0
M  V30 145 H 13.9709 -5.37812 -1.98573 0
M  V30 146 H 12.3679 -5.84746 -1.34878 0
M  V30 147 H 13.4379 -4.83548 -0.361868 0
M  V30 148 N 14.781 0.264519 -1.55364 0
M  V30 149 C 15.711 1.33121 -1.91836 0
M  V30 150 C 16.692 1.51101 -0.781192 0
M  V30 151 O 17.877 1.64003 -1.04003 0
M  V30 152 C 15.007 2.68921 -2.19769 0
M  V30 153 C 13.961 2.65661 -3.35571 0
M  V30 154 C 13.287 4.05093 -3.49004 0
M  V30 155 C 14.587 2.24187 -4.71739 0
M  V30 156 H 16.281 1.02844 -2.81182 0
M  V30 157 H 13.827 0.493286 -1.35287 0
M  V30 158 H 15.78 3.43663 -2.43872 0
M  V30 159 H 14.504 3.00799 -1.27231 0
M  V30 160 H 13.163 1.93377 -3.1145 0
M  V30 161 H 12.811 4.34206 -2.53917 0
M  V30 162 H 12.511 4.03804 -4.26868 0
M  V30 163 H 14.035 4.81561 -3.75408 0
M  V30 164 H 15.449 2.88654 -4.9533 0
M  V30 165 H 13.846 2.34044 -5.52579 0
M  V30 166 H 14.916 1.19327 -4.69988 0
M  V30 167 N 16.2591 1.48442 0.529413 0
M  V30 168 C 17.5051 1.5672 1.28711 0
M  V30 169 C 17.8381 0.2406 1.92704 0
M  V30 170 O 17.1131 -0.753454 1.79313 0
M  V30 171 C 17.3961 2.70587 2.37603 0
M  V30 172 C 17.2491 4.12953 1.78297 0
M  V30 173 C 18.5681 2.80212 3.39366 0
M  V30 174 H 15.6871 0.570474 0.466613 0
M  V30 175 H 18.3291 1.80617 0.589706 0
M  V30 176 H 16.4791 2.50342 2.97088 0
M  V30 177 H 18.1511 4.44639 1.22858 0
M  V30 178 H 16.3941 4.19927 1.0883 0
M  V30 179 H 17.0651 4.88448 2.57144 0
M  V30 180 H 19.5411 2.98553 2.89836 0
M  V30 181 H 18.4171 3.61611 4.12951 0
M  V30 182 H 18.6781 1.88393 3.99951 0
M  V30 183 N 17.7372 -0.778329 1.37039 0
M  V30 184 C 18.7002 -1.87301 1.32102 0
M  V30 185 C 19.7002 -1.59198 0.226405 0
M  V30 186 O 20.8902 -1.67403 0.481861 0
M  V30 187 C 18.0222 -3.24309 1.05055 0
M  V30 188 H 19.2152 -1.93093 2.29467 0
M  V30 189 H 16.7682 -0.977358 1.21973 0
M  V30 190 H 17.5032 -3.24196 0.0819373 0
M  V30 191 H 17.2882 -3.46098 1.84279 0
M  V30 192 H 18.7782 -4.04382 1.04234 0
M  V30 193 N 19.2153 -1.21501 -1.00376 0
M  V30 194 C 20.1473 -0.933174 -2.09343 0
M  V30 195 C 21.1603 0.0840896 -1.62583 0
M  V30 196 O 22.3493 -0.148563 -1.77881 0
M  V30 197 C 19.4493 -0.379869 -3.36764 0
M  V30 198 C 18.6223 -1.45176 -4.12605 0
M  V30 199 C 17.6813 -0.907476 -5.18316 0
M  V30 200 O 16.7073 -1.5912 -5.46507 0
M  V30 201 N 17.9093 0.276649 -5.7984 0
M  V30 202 H 20.6743 -1.87124 -2.34104 0
M  V30 203 H 18.2353 -1.12043 -1.16867 0
M  V30 204 H 20.2273 -0.00131488 -4.047 0
M  V30 205 H 18.7973 0.463048 -3.09151 0
M  V30 206 H 18.0173 -2.00411 -3.39454 0
M  V30 207 H 19.3053 -2.17328 -4.6005 0
M  V30 208 H 18.7033 0.849147 -5.59291 0
M  V30 209 H 17.2603 0.596702 -6.49063 0
M  V30 210 N 20.6934 1.19889 -1.02296 0
M  V30 211 C 22.1044 1.71124 -0.746568 0
M  V30 212 C 22.4554 1.81939 0.734335 0
M  V30 213 O 21.5804 1.48639 1.57275 0
M  V30 214 C 22.1754 3.10804 -1.34857 0
M  V30 215 C 20.7344 3.59323 -1.1209 0
M  V30 216 C 19.8814 2.3635 -1.45031 0
M  V30 217 H 22.8324 1.04813 -1.19163 0
M  V30 218 H 22.8534 3.73186 -0.742437 0
M  V30 219 H 22.3654 3.029 -2.42638 0
M  V30 220 H 20.4664 3.7255 -0.0610337 0
M  V30 221 H 20.5794 4.4378 -1.80544 0
M  V30 222 H 18.9434 2.39399 -0.869487 0
M  V30 223 H 19.7264 2.31081 -2.53883 0
M  V30 224 N 22.1715 0.800033 1.35784 0
M  V30 225 C 23.1035 0.163596 2.28615 0
M  V30 226 C 24.1165 -0.633317 1.49976 0
M  V30 227 O 25.3055 -0.466754 1.72289 0
M  V30 228 C 22.4055 -0.790958 3.29541 0
M  V30 229 C 21.5785 -0.0418255 4.3738 0
M  V30 230 C 20.6375 -0.91389 5.18203 0
M  V30 231 O 19.6635 -0.367234 5.68014 0
M  V30 232 N 20.8655 -2.23682 5.35674 0
M  V30 233 H 23.6305 0.96105 2.83873 0
M  V30 234 H 21.1915 0.654894 1.48063 0
M  V30 235 H 23.1835 -1.37844 3.80501 0
M  V30 236 H 21.7535 -1.48925 2.74846 0
M  V30 237 H 20.9735 0.726813 3.87442 0
M  V30 238 H 22.2615 0.474719 5.06581 0
M  V30 239 H 21.6595 -2.70497 4.96838 0
M  V30 240 H 20.2165 -2.77369 5.89839 0
M  V30 241 N 23.6496 -1.47581 0.552962 0
M  V30 242 C 24.5796 -2.32762 -0.185451 0
M  V30 243 C 25.5606 -1.43527 -0.912905 0
M  V30 244 O 26.7456 -1.72388 -0.894201 0
M  V30 245 C 23.8756 -3.25219 -1.21859 0
M  V30 246 C 22.8296 -4.23661 -0.607864 0
M  V30 247 C 22.1556 -5.05413 -1.74533 0
M  V30 248 C 23.4556 -5.20481 0.435582 0
M  V30 249 H 25.1496 -2.94749 0.525684 0
M  V30 250 H 22.6956 -1.41738 0.254251 0
M  V30 251 H 24.6486 -3.8365 -1.7433 0
M  V30 252 H 23.3726 -2.61279 -1.95961 0
M  V30 253 H 22.0316 -3.66451 -0.104489 0
M  V30 254 H 21.6796 -4.3788 -2.47529 0
M  V30 255 H 21.3796 -5.72059 -1.34249 0
M  V30 256 H 22.9036 -5.66701 -2.27338 0
M  V30 257 H 24.3176 -5.733 -0.00290157 0
M  V30 258 H 22.7146 -5.95305 0.757067 0
M  V30 259 H 23.7846 -4.66217 1.33303 0
M  V30 260 N 25.1277 -0.289203 -1.54924 0
M  V30 261 C 26.3737 0.323998 -2.00195 0
M  V30 262 C 26.7067 1.54441 -1.17735 0
M  V30 263 O 25.9817 1.92875 -0.250878 0
M  V30 264 C 26.2647 0.692276 -3.53383 0
M  V30 265 C 26.1177 -0.536457 -4.46589 0
M  V30 266 C 27.4367 1.52335 -4.12895 0
M  V30 267 H 24.5557 0.116289 -0.727768 0
M  V30 268 H 27.1977 -0.398954 -1.85764 0
M  V30 269 H 25.3477 1.30822 -3.65811 0
M  V30 270 H 27.0197 -1.17499 -4.46085 0
M  V30 271 H 25.2627 -1.17192 -4.1767 0
M  V30 272 H 25.9337 -0.234806 -5.515 0
M  V30 273 H 28.4097 1.00302 -4.0383 0
M  V30 274 H 27.2857 1.74982 -5.20262 0
M  V30 275 H 27.5467 2.50886 -3.64018 0
M  V30 276 N 26.6058 1.57591 -0.0167156 0
M  V30 277 C 28.0168 1.79201 0.523834 0
M  V30 278 C 28.3678 0.925796 1.72984 0
M  V30 279 O 27.4928 0.132792 2.15992 0
M  V30 280 C 28.0878 3.25 0.957091 0
M  V30 281 C 26.6468 3.47648 1.44283 0
M  V30 282 C 25.7938 2.74374 0.401757 0
M  V30 283 H 28.7448 1.56831 -0.242816 0
M  V30 284 H 28.7658 3.34031 1.82219 0
M  V30 285 H 28.2778 3.88019 0.0791415 0
M  V30 286 H 26.3788 2.89866 2.34113 0
M  V30 287 H 26.4918 4.56352 1.45877 0
M  V30 288 H 24.8558 2.39485 0.867121 0
M  V30 289 H 25.6388 3.40102 -0.467513 0
M  V30 290 N 28.0839 -0.256276 1.55502 0
M  V30 291 C 29.3089 -1.00766 1.81276 0
M  V30 292 C 29.7339 -1.78524 0.59252 0
M  V30 293 O 29.0919 -1.75413 -0.45827 0
M  V30 294 C 29.1399 -1.92869 3.04687 0
M  V30 295 O 28.2439 -3.019 2.80945 0
M  V30 296 H 27.5849 -0.287224 0.598664 0
M  V30 297 H 30.1149 -0.280109 2.02674 0
M  V30 298 H 30.1249 -2.34511 3.33869 0
M  V30 299 H 28.7999 -1.35689 3.93143 0
M  V30 300 H 27.3769 -2.64454 2.62904 0
M  V30 301 N 29.562 -1.4872 -0.521534 0
M  V30 302 C 30.978 -1.35028 -0.850855 0
M  V30 303 C 31.178 -0.367712 -1.98116 0
M  V30 304 O 30.234 0.208037 -2.51642 0
M  V30 305 C 31.547 -2.75263 -1.21041 0
M  V30 306 C 33.095 -2.83813 -1.31981 0
M  V30 307 C 33.57 -4.24769 -1.71276 0
M  V30 308 N 35.061 -4.27482 -1.78363 0
M  V30 309 C 35.796 -5.33494 -2.1017 0
M  V30 310 N 35.292 -6.49775 -2.40343 0
M  V30 311 N 37.085 -5.20894 -2.11248 0
M  V30 312 H 29.236 -2.11214 0.22413 0
M  V30 313 H 31.499 -0.947252 0.0376439 0
M  V30 314 H 31.205 -3.48765 -0.453415 0
M  V30 315 H 31.079 -3.09327 -2.15863 0
M  V30 316 H 33.466 -2.10561 -2.06756 0
M  V30 317 H 33.547 -2.53358 -0.352596 0
M  V30 318 H 33.191 -4.9854 -0.970588 0
M  V30 319 H 33.121 -4.52673 -2.69062 0
M  V30 320 H 35.612 -3.43611 -1.57288 0
M  V30 321 H 35.925 -7.26402 -2.63743 0
M  V30 322 H 34.27 -6.53035 -2.37844 0
M  V30 323 H 37.461 -4.29065 -1.87139 0
M  V30 324 H 37.634 -6.03612 -2.35704 0
M  V30 325 N 31.0401 0.771051 -1.3745 0
M  V30 326 C 32.4511 1.34737 -1.29239 0
M  V30 327 C 32.8021 1.96109 0.0596908 0
M  V30 328 O 31.9271 1.93865 0.961534 0
M  V30 329 C 32.5221 2.44973 -2.34037 0
M  V30 330 C 31.0811 2.98372 -2.29458 0
M  V30 331 C 30.2281 1.71595 -2.17831 0
M  V30 332 H 33.1791 0.571256 -1.48062 0
M  V30 333 H 33.2001 3.24471 -1.98744 0
M  V30 334 H 32.7121 2.00276 -3.32432 0
M  V30 335 H 30.8131 3.47443 -1.34589 0
M  V30 336 H 30.9261 3.53939 -3.229 0
M  V30 337 H 29.2901 1.94547 -1.64388 0
M  V30 338 H 30.0731 1.29001 -3.18141 0
M  V30 339 N 32.5182 1.22032 0.997298 0
M  V30 340 C 33.4812 0.987909 2.06816 0
M  V30 341 C 34.4812 -0.0440084 1.6074 0
M  V30 342 O 35.6712 0.194053 1.73116 0
M  V30 343 C 32.8032 0.49132 3.37341 0
M  V30 344 H 33.9962 1.93803 2.28868 0
M  V30 345 H 31.5492 1.03838 1.16822 0
M  V30 346 H 32.2842 -0.463364 3.20973 0
M  V30 347 H 32.0692 1.23575 3.72118 0
M  V30 348 H 33.5592 0.348824 4.16141 0
M  V30 349 N 33.9963 -1.19345 1.0293 0
M  V30 350 C 34.9063 -2.26245 0.620515 0
M  V30 351 C 35.9223 -1.70486 -0.347928 0
M  V30 352 O 37.0983 -2.00347 -0.205704 0
M  V30 353 C 34.1633 -3.46693 -0.0218957 0
M  V30 354 C 33.2243 -4.17632 0.994102 0
M  V30 355 C 32.4573 -5.32329 0.382253 0
M  V30 356 O 32.6803 -5.64552 -0.814676 0
M  V30 357 O 31.6143 -5.91664 1.10531 0
M  V30 358 H 35.4403 -2.63453 1.51083 0
M  V30 359 H 33.0253 -1.26207 0.799513 0
M  V30 360 H 34.9073 -4.19683 -0.380072 0
M  V30 361 H 33.5823 -3.11333 -0.886209 0
M  V30 362 H 32.4893 -3.4676 1.40387 0
M  V30 363 H 33.8223 -4.56964 1.8288 0
M  V30 364 N 35.4744 -0.807222 -1.35358 0
M  V30 365 C 36.4044 -0.232509 -2.3234 0
M  V30 366 C 37.3854 0.642386 -1.57504 0
M  V30 367 O 38.5704 0.572526 -1.85569 0
M  V30 368 C 35.7004 0.619238 -3.41735 0
M  V30 369 C 34.6544 -0.157215 -4.27711 0
M  V30 370 C 33.9804 0.816273 -5.28433 0
M  V30 371 C 35.2804 -1.35656 -5.04376 0
M  V30 372 H 36.9744 -1.04276 -2.80654 0
M  V30 373 H 34.5204 -0.50288 -1.34934 0
M  V30 374 H 36.4734 1.03137 -4.08584 0
M  V30 375 H 35.1974 1.46239 -2.92031 0
M  V30 376 H 33.8564 -0.550525 -3.62443 0
M  V30 377 H 33.5044 1.65494 -4.74996 0
M  V30 378 H 33.2044 0.301067 -5.86828 0
M  V30 379 H 34.7284 1.22659 -5.98153 0
M  V30 380 H 36.1424 -1.01927 -5.64166 0
M  V30 381 H 34.5394 -1.8063 -5.7227 0
M  V30 382 H 35.6094 -2.14288 -4.34981 0
M  V30 383 N 36.9525 1.47285 -0.560781 0
M  V30 384 C 38.2005 2.02064 -0.0379868 0
M  V30 385 C 38.5215 1.43711 1.31803 0
M  V30 386 O 37.7915 0.61362 1.86042 0
M  V30 387 H 36.3715 0.746918 -0.0110531 0
M  V30 388 H 39.0335 1.80648 -0.731598 0
M  V30 389 H 38.1295 3.12064 0.0474463 0
M  V30 390 N 38.4306 0.297415 1.54768 0
M  V30 391 C 39.3626 -0.613881 2.20826 0
M  V30 392 C 40.3756 -1.10032 1.19987 0
M  V30 393 O 41.5646 -1.01839 1.46598 0
M  V30 394 C 38.6646 -1.852 2.83821 0
M  V30 395 C 37.8376 -1.50865 4.10559 0
M  V30 396 C 36.8966 -2.60154 4.57391 0
M  V30 397 O 35.9226 -2.25398 5.2267 0
M  V30 398 N 37.1246 -3.90629 4.29406 0
M  V30 399 H 39.8896 -0.048389 2.99661 0
M  V30 400 H 37.4506 0.11946 1.61459 0
M  V30 401 H 39.4426 -2.57652 3.12086 0
M  V30 402 H 38.0126 -2.32597 2.08847 0
M  V30 403 H 37.2326 -0.616925 3.89343 0
M  V30 404 H 38.5206 -1.25458 4.9309 0
M  V30 405 H 37.9186 -4.21677 3.77101 0
M  V30 406 H 36.4756 -4.59391 4.62388 0
M  V30 407 N 39.9087 -1.5758 0.0250728 0
M  V30 408 C 40.8407 -2.06869 -0.986796 0
M  V30 409 C 41.8537 -0.991332 -1.29137 0
M  V30 410 O 43.0427 -1.26761 -1.25674 0
M  V30 411 C 40.1427 -2.47486 -2.31525 0
M  V30 412 C 39.3157 -3.78253 -2.19643 0
M  V30 413 C 38.3747 -4.05464 -3.35388 0
M  V30 414 O 37.4007 -4.75774 -3.12454 0
M  V30 415 N 38.6027 -3.55321 -4.59051 0
M  V30 416 H 41.3677 -2.94302 -0.566276 0
M  V30 417 H 38.9287 -1.6109 -0.161776 0
M  V30 418 H 40.9207 -2.62785 -3.07776 0
M  V30 419 H 39.4907 -1.65441 -2.65232 0
M  V30 420 H 38.7107 -3.7279 -1.28144 0
M  V30 421 H 39.9987 -4.63936 -2.08903 0
M  V30 422 H 39.3967 -2.98431 -4.80578 0
M  V30 423 H 37.9537 -3.75905 -5.32483 0
M  V30 424 N 41.3868 0.248026 -1.55636 0
M  V30 425 C 42.2968 1.32859 -1.93354 0
M  V30 426 C 43.3128 1.52719 -0.833838 0
M  V30 427 O 44.4888 1.66363 -1.13513 0
M  V30 428 C 41.5538 2.66337 -2.21958 0
M  V30 429 C 40.6148 2.55008 -3.45354 0
M  V30 430 C 39.8478 3.82121 -3.72584 0
M  V30 431 O 40.0708 4.83951 -3.01907 0
M  V30 432 O 39.0048 3.80822 -4.6611 0
M  V30 433 H 42.8308 1.03862 -2.85388 0
M  V30 434 H 40.4158 0.448686 -1.42503 0
M  V30 435 H 42.2978 3.45216 -2.4167 0
M  V30 436 H 40.9728 2.95068 -1.33103 0
M  V30 437 H 39.8798 1.7442 -3.30951 0
M  V30 438 H 41.2128 2.31222 -4.34508 0
M  V30 439 N 42.8649 1.48995 0.513639 0
M  V30 440 C 43.7949 1.67636 1.62544 0
M  V30 441 C 44.7759 0.525087 1.61793 0
M  V30 442 O 45.9609 0.759502 1.78732 0
M  V30 443 C 43.0909 1.73114 3.01079 0
M  V30 444 C 42.0449 2.87905 3.16693 0
M  V30 445 C 41.3709 2.78486 4.56453 0
M  V30 446 C 42.6709 4.29005 2.97913 0
M  V30 447 H 44.3649 2.60716 1.47198 0
M  V30 448 H 41.9109 1.25465 0.706714 0
M  V30 449 H 43.8639 1.84742 3.78746 0
M  V30 450 H 42.5879 0.766241 3.17484 0
M  V30 451 H 41.2469 2.75859 2.41448 0
M  V30 452 H 40.8949 1.7993 4.69717 0
M  V30 453 H 40.5949 3.55523 4.67843 0
M  V30 454 H 42.1189 2.92104 5.36197 0
M  V30 455 H 43.5329 4.41798 3.65359 0
M  V30 456 H 41.9299 5.07166 3.20785 0
M  V30 457 H 42.9999 4.44329 1.94165 0
M  V30 458 N 44.343 -0.763751 1.37857 0
M  V30 459 C 45.273 -1.89103 1.36975 0
M  V30 460 C 46.254 -1.68439 0.237152 0
M  V30 461 O 47.439 -1.8918 0.438713 0
M  V30 462 C 44.569 -3.26496 1.18395 0
M  V30 463 C 43.523 -3.61741 2.28751 0
M  V30 464 C 42.849 -4.97762 1.95286 0
M  V30 465 C 44.149 -3.67665 3.70972 0
M  V30 466 H 45.843 -1.90099 2.31307 0
M  V30 467 H 43.389 -0.91319 1.11341 0
M  V30 468 H 45.342 -4.05003 1.16406 0
M  V30 469 H 44.066 -3.25955 0.205215 0
M  V30 470 H 42.725 -2.85547 2.29909 0
M  V30 471 H 42.373 -4.93769 0.959221 0
M  V30 472 H 42.073 -5.22313 2.69189 0
M  V30 473 H 43.597 -5.7866 1.94898 0
M  V30 474 H 45.011 -4.36307 3.719 0
M  V30 475 H 43.408 -4.03718 4.43995 0
M  V30 476 H 44.478 -2.68134 4.0402 0
M  V30 477 N 45.8211 -1.22559 -0.990812 0
M  V30 478 C 47.2371 -0.985996 -1.255 0
M  V30 479 C 47.4371 0.319173 -1.98956 0
M  V30 480 O 46.4931 1.04127 -2.3003 0
M  V30 481 C 47.8061 -2.18607 -2.06474 0
M  V30 482 C 49.3541 -2.22985 -2.19651 0
M  V30 483 C 49.8291 -3.4255 -3.04012 0
M  V30 484 N 51.3201 -3.42725 -3.11599 0
M  V30 485 C 52.0551 -4.31892 -3.7717 0
M  V30 486 N 51.5511 -5.31279 -4.44651 0
M  V30 487 N 53.3441 -4.19662 -3.73952 0
M  V30 488 H 45.4951 -2.06469 -0.49841 0
M  V30 489 H 47.7581 -0.904853 -0.282747 0
M  V30 490 H 47.4641 -3.13267 -1.59865 0
M  V30 491 H 47.3381 -2.18838 -3.07229 0
M  V30 492 H 49.7251 -1.28871 -2.65474 0
M  V30 493 H 49.8061 -2.26791 -1.18319 0
M  V30 494 H 49.4501 -4.36965 -2.58889 0
M  V30 495 H 49.3801 -3.35984 -4.0549 0
M  V30 496 H 51.8711 -2.70807 -2.63575 0
M  V30 497 H 52.1841 -5.95593 -4.92431 0
M  V30 498 H 50.5291 -5.3519 -4.43392 0
M  V30 499 H 53.7201 -3.41268 -3.20396 0
M  V30 500 H 53.8931 -4.89358 -4.24774 0
M  V30 501 N 47.2992 1.18797 -1.03562 0
M  V30 502 C 48.2462 2.22253 -0.622259 0
M  V30 503 C 49.2162 1.61987 0.36736 0
M  V30 504 O 50.4012 1.88986 0.262492 0
M  V30 505 C 47.5412 3.45097 0.0138462 0
M  V30 506 C 46.6542 4.19722 -1.02263 0
M  V30 507 C 45.7892 5.30009 -0.355573 0
M  V30 508 C 44.8282 5.96399 -1.37749 0
M  V30 509 N 43.9652 6.98234 -0.735766 0
M  V30 510 H 48.8052 2.56968 -1.50903 0
M  V30 511 H 46.3422 1.26245 -0.755017 0
M  V30 512 H 48.3002 4.15279 0.399948 0
M  V30 513 H 46.9302 3.11018 0.864158 0
M  V30 514 H 45.9822 3.48418 -1.52673 0
M  V30 515 H 47.2942 4.65227 -1.79903 0
M  V30 516 H 46.4482 6.0664 0.0850095 0
M  V30 517 H 45.1872 4.85592 0.452967 0
M  V30 518 H 44.1922 5.18512 -1.82826 0
M  V30 519 H 45.4172 6.42899 -2.18764 0
M  V30 520 H 43.3632 6.55979 0.0525597 0
M  V30 521 H 43.2802 7.41965 -1.44995 0
M  V30 522 H 44.5482 7.78845 -0.31941 0
M  V30 523 N 48.7773 0.814389 1.34928 0
M  V30 524 C 49.7403 0.235759 2.27984 0
M  V30 525 C 50.7403 -0.581412 1.49921 0
M  V30 526 O 51.9303 -0.398758 1.69575 0
M  V30 527 C 49.0623 -0.670433 3.34242 0
M  V30 528 H 50.2553 1.05659 2.80671 0
M  V30 529 H 47.8083 0.585614 1.44915 0
M  V30 530 H 48.5433 -1.51466 2.86755 0
M  V30 531 H 48.3283 -0.0860822 3.92005 0
M  V30 532 H 49.8183 -1.06935 4.03676 0
M  V30 533 N 50.2554 -1.46986 0.568584 0
M  V30 534 C 51.5034 -2.02041 0.0487022 0
M  V30 535 C 51.8244 -1.44408 -1.31039 0
M  V30 536 O 51.0944 -0.623477 -1.85714 0
M  V30 537 H 49.6744 -0.746849 0.015014 0
M  V30 538 H 52.3364 -1.80257 0.741168 0
M  V30 539 H 51.4324 -3.12085 -0.0308961 0
M  V30 540 N 51.7335 -0.305618 -1.54608 0
M  V30 541 C 52.9615 0.304775 -2.04643 0
M  V30 542 C 53.3765 1.47167 -1.18268 0
M  V30 543 O 52.7335 1.81296 -0.209328 0
M  V30 544 C 52.7845 0.756564 -3.53495 0
M  V30 545 O 52.5055 -0.36389 -4.36586 0
M  V30 546 C 54.0065 1.43163 -4.19546 0
M  V30 547 H 51.2265 0.0655481 -0.667791 0
M  V30 548 H 53.7705 -0.446592 -1.99564 0
M  V30 549 H 51.9255 1.45794 -3.58919 0
M  V30 550 H 52.3395 -0.0113121 -5.24499 0
M  V30 551 H 53.8135 1.69886 -5.25207 0
M  V30 552 H 54.2905 2.37318 -3.69563 0
M  V30 553 H 54.8965 0.773307 -4.18211 0
M  V30 554 N 53.2116 1.57565 -0.0334293 0
M  V30 555 C 54.1416 2.13511 0.945265 0
M  V30 556 C 55.1226 1.05231 1.33643 0
M  V30 557 O 56.3076 1.33084 1.41429 0
M  V30 558 C 53.4376 2.6657 2.22616 0
M  V30 559 C 52.3916 3.79676 1.97561 0
M  V30 560 C 51.7176 4.1918 3.31952 0
M  V30 561 C 53.0176 5.0557 1.31135 0
M  V30 562 H 54.7116 2.95538 0.479325 0
M  V30 563 H 52.2576 1.42166 0.229115 0
M  V30 564 H 54.2106 3.04344 2.91466 0
M  V30 565 H 52.9346 1.8171 2.71384 0
M  V30 566 H 51.5936 3.42347 1.31127 0
M  V30 567 H 51.2416 3.31296 3.78487 0
M  V30 568 H 50.9416 4.95402 3.15992 0
M  V30 569 H 52.4656 4.59541 4.02063 0
M  V30 570 H 53.8796 5.40903 1.89992 0
M  V30 571 H 52.2766 5.86818 1.25559 0
M  V30 572 H 53.3466 4.84062 0.284894 0
M  V30 573 N 54.6897 -0.239769 1.55765 0
M  V30 574 C 55.6217 -1.32001 1.87372 0
M  V30 575 C 56.6347 -1.43944 0.760522 0
M  V30 576 O 57.8237 -1.45167 1.0387 0
M  V30 577 C 54.9237 -2.69779 2.05115 0
M  V30 578 C 54.0967 -2.80014 3.36022 0
M  V30 579 C 53.1557 -3.98684 3.4342 0
M  V30 580 O 52.1817 -3.87877 4.16582 0
M  V30 581 N 53.3837 -5.12176 2.73232 0
M  V30 582 H 56.1487 -1.0522 2.80622 0
M  V30 583 H 53.7097 -0.429857 1.56089 0
M  V30 584 H 55.7017 -3.47517 2.07399 0
M  V30 585 H 54.2717 -2.89237 1.18577 0
M  V30 586 H 53.4917 -1.88896 3.45994 0
M  V30 587 H 54.7797 -2.83808 4.22292 0
M  V30 588 H 54.1777 -5.2385 2.13536 0
M  V30 589 H 52.7347 -5.88022 2.81199 0
M  V30 590 N 56.1678 -1.49265 -0.50573 0
M  V30 591 C 57.4448 -1.49012 -1.26707 0
M  V30 592 C 57.8248 -0.215205 -2.1 0
M  V30 593 O 57.1728 0.802547 -2.13943 0
M  V30 594 C 57.3828 -2.7663 -2.12783 0
M  V30 595 C 58.7308 -3.25932 -2.72127 0
M  V30 596 O 59.7548 -2.77715 -2.23054 0
M  V30 597 O 58.6138 -4.09897 -3.61451 0
M  V30 598 H 55.7078 -0.596197 -0.57313 0
M  V30 599 H 58.2538 -1.61524 -0.52039 0
M  V30 600 H 57.0258 -3.60916 -1.5118 0
M  V30 601 H 56.6488 -2.66956 -2.94653 0
M  V30 602 N 57.6459 0.756429 -1.3826 0
M  V30 603 C 58.9229 1.50584 -1.24835 0
M  V30 604 C 59.3029 2.10556 0.151485 0
M  V30 605 O 58.6509 1.96825 1.1607 0
M  V30 606 C 58.8609 2.57448 -2.3563 0
M  V30 607 C 60.2089 3.24429 -2.73917 0
M  V30 608 O 61.2329 2.67751 -2.34921 0
M  V30 609 O 60.0919 4.26937 -3.41156 0
M  V30 610 H 57.1859 0.667664 -0.48801 0
M  V30 611 H 59.7319 0.792083 -1.5008 0
M  V30 612 H 58.5039 2.11362 -3.29305 0
M  V30 613 H 58.1269 3.36408 -2.11933 0
M  V30 614 N 59.124 1.23083 0.984299 0
M  V30 615 C 60.37 1.06214 1.72761 0
M  V30 616 C 60.703 -0.400584 1.90024 0
M  V30 617 O 59.978 -1.29672 1.44967 0
M  V30 618 C 60.261 1.78375 3.12817 0
M  V30 619 C 60.114 3.32296 3.03149 0
M  V30 620 C 61.433 1.54309 4.12161 0
M  V30 621 H 58.552 0.387251 0.627061 0
M  V30 622 H 61.194 1.51536 1.14616 0
M  V30 623 H 59.344 1.39848 3.62457 0
M  V30 624 H 61.016 3.8032 2.61064 0
M  V30 625 H 59.259 3.6153 2.39747 0
M  V30 626 H 59.93 3.77972 4.02295 0
M  V30 627 H 62.406 1.87791 3.71314 0
M  V30 628 H 61.282 2.07281 5.08258 0
M  V30 629 H 61.543 0.477572 4.39513 0
M  V30 630 N 60.6021 -1.18246 1.0419 0
M  V30 631 C 62.0181 -1.40269 0.761366 0
M  V30 632 C 62.2181 -1.90777 -0.648578 0
M  V30 633 O 61.2741 -2.0929 -1.41258 0
M  V30 634 C 62.5871 -2.40237 1.8085 0
M  V30 635 C 64.1351 -2.53961 1.82955 0
M  V30 636 C 64.6101 -3.57194 2.86664 0
M  V30 637 N 66.1011 -3.64702 2.85563 0
M  V30 638 C 66.8361 -4.44309 3.6246 0
M  V30 639 N 66.3321 -5.27514 4.49111 0
M  V30 640 N 68.1251 -4.39084 3.50944 0
M  V30 641 H 60.2761 -0.837882 1.95175 0
M  V30 642 H 62.5391 -0.430608 0.84456 0
M  V30 643 H 62.2451 -2.10176 2.81991 0
M  V30 644 H 62.1191 -3.39601 1.64168 0
M  V30 645 H 64.5061 -2.83338 0.824855 0
M  V30 646 H 64.5871 -1.54706 2.03715 0
M  V30 647 H 64.2311 -3.28558 3.87314 0
M  V30 648 H 64.1611 -4.5613 2.6316 0
M  V30 649 H 66.6521 -3.05289 2.22727 0
M  V30 650 H 66.9651 -5.85411 5.04493 0
M  V30 651 H 65.3101 -5.2693 4.53178 0
M  V30 652 H 68.5011 -3.7313 2.82651 0
M  V30 653 H 68.6741 -5.00883 4.11121 0
M  V30 654 N 62.0802 -0.821533 -1.34494 0
M  V30 655 C 63.3572 -0.33159 -1.92769 0
M  V30 656 C 63.7372 1.18088 -1.74981 0
M  V30 657 O 63.0852 1.98733 -1.12772 0
M  V30 658 C 63.2952 -0.759398 -3.40638 0
M  V30 659 C 64.6432 -0.757433 -4.1779 0
M  V30 660 O 65.6672 -0.70189 -3.49216 0
M  V30 661 O 64.5262 -0.829361 -5.4017 0
M  V30 662 H 61.6202 -0.0902502 -0.822061 0
M  V30 663 H 64.1662 -0.906231 -1.43477 0
M  V30 664 H 62.9382 -1.8012 -3.47379 0
M  V30 665 H 62.5612 -0.160378 -3.97276 0
M  V30 666 N 63.5583 1.46682 -0.576371 0
M  V30 667 C 64.8063 2.02013 -0.0594163 0
M  V30 668 C 65.1273 1.45101 1.30271 0
M  V30 669 O 64.3973 0.633317 1.8538 0
M  V30 670 H 62.9773 0.746759 -0.0189745 0
M  V30 671 H 65.6393 1.79862 -0.750717 0
M  V30 672 H 64.7353 3.12097 0.014345 0
M  V30 673 N 65.0364 0.313813 1.54444 0
M  V30 674 C 66.2824 -0.292108 2.00685 0
M  V30 675 C 66.6154 -1.52548 1.20177 0
M  V30 676 O 65.8904 -1.92452 0.281531 0
M  V30 677 C 66.1734 -0.635968 3.5444 0
M  V30 678 C 66.0264 0.607437 4.4568 0
M  V30 679 C 67.3454 -1.45747 4.15266 0
M  V30 680 H 64.4644 -0.104697 0.729526 0
M  V30 681 H 67.1064 0.428457 1.85106 0
M  V30 682 H 65.2564 -1.24986 3.67846 0
M  V30 683 H 66.9284 1.24581 4.44159 0
M  V30 684 H 65.1714 1.23822 4.15753 0
M  V30 685 H 65.8424 0.322515 5.51057 0
M  V30 686 H 68.3184 -0.938645 4.05375 0
M  V30 687 H 67.1944 -1.66683 5.2298 0
M  V30 688 H 67.4554 -2.45063 3.67963 0
M  V30 689 N 66.5145 -1.57545 0.0417849 0
M  V30 690 C 67.4775 -2.09885 -0.92093 0
M  V30 691 C 68.4775 -1.01648 -1.24596 0
M  V30 692 O 69.6675 -1.27759 -1.1842 0
M  V30 693 C 66.7995 -2.57527 -2.23367 0
M  V30 694 H 67.9925 -2.96236 -0.467382 0
M  V30 695 H 65.5455 -1.5493 -0.206467 0
M  V30 696 H 66.2805 -1.74542 -2.73323 0
M  V30 697 H 66.0655 -3.36613 -2.01083 0
M  V30 698 H 67.5555 -2.98201 -2.92346 0
M  V30 699 N 67.9926 0.231505 -1.5589 0
M  V30 700 C 69.4036 0.799327 -1.68724 0
M  V30 701 C 69.7546 1.85398 -0.642022 0
M  V30 702 O 68.8796 2.1539 0.208784 0
M  V30 703 C 69.4746 1.45664 -3.05888 0
M  V30 704 C 68.0336 1.97197 -3.20609 0
M  V30 705 C 67.1806 0.828552 -2.64632 0
M  V30 706 H 70.1316 0.00702616 -1.58698 0
M  V30 707 H 70.1526 2.32517 -3.01191 0
M  V30 708 H 69.6646 0.688808 -3.81939 0
M  V30 709 H 67.7656 2.76813 -2.4941 0
M  V30 710 H 67.8786 2.15878 -4.27707 0
M  V30 711 H 66.2426 1.23321 -2.22854 0
M  V30 712 H 67.0256 0.0735544 -3.43221 0
M  V30 713 N 69.4707 1.49531 0.497807 0
M  V30 714 C 70.4187 1.66926 1.61983 0
M  V30 715 C 71.4127 0.535167 1.60724 0
M  V30 716 O 72.6187 0.714896 1.65195 0
M  V30 717 H 68.9937 0.526415 0.537021 0
M  V30 718 H 70.9647 2.61098 1.44465 0
M  V30 719 C 69.7137 1.75602 3.00099 0
M  V30 720 H 69.0367 2.62244 3.01775 0
M  V30 721 H 70.4767 1.91807 3.78135 0
M  V30 722 C 68.9357 0.501543 3.33146 0
M  V30 723 O 69.4657 -0.371342 3.9998 0
M  V30 724 N 67.6717 0.363531 2.88317 0
M  V30 725 H 67.2187 1.07485 2.34104 0
M  V30 726 H 67.1767 -0.474728 3.10795 0
M  V30 727 N 70.9488 -0.749086 1.3866 0
M  V30 728 C 72.1968 -1.50535 1.34847 0
M  V30 729 C 72.5178 -1.94909 -0.0595016 0
M  V30 730 O 71.7878 -1.67973 -1.00806 0
M  V30 731 H 70.3678 -0.558395 0.49619 0
M  V30 732 H 73.0298 -0.890165 1.73384 0
M  V30 733 H 72.1258 -2.39413 2.00219 0
M  V30 734 N 72.4269 -1.23603 -0.977757 0
M  V30 735 C 73.6519 -1.09735 -1.75991 0
M  V30 736 C 74.0769 0.346858 -1.84874 0
M  V30 737 O 73.4349 1.25093 -1.3123 0
M  V30 738 C 73.4829 -1.73051 -3.16363 0
M  V30 739 O 72.5869 -0.994452 -4.0023 0
M  V30 740 H 71.9279 -0.384476 -0.541364 0
M  V30 741 H 74.4579 -1.6371 -1.2272 0
M  V30 742 H 74.4679 -1.78398 -3.66931 0
M  V30 743 H 73.1429 -2.78137 -3.09213 0
M  V30 744 H 71.7199 -1.01812 -3.58732 0
M  V30 745 N 73.905 1.17692 -1.04816 0
M  V30 746 C 74.868 2.19787 -0.650117 0
M  V30 747 C 75.868 1.58044 0.296427 0
M  V30 748 O 77.058 1.74012 0.0808097 0
M  V30 749 C 74.19 3.40869 0.0456987 0
M  V30 750 H 75.383 2.56516 -1.5537 0
M  V30 751 H 72.936 1.31708 -0.841594 0
M  V30 752 H 73.671 3.09681 0.962726 0
M  V30 753 H 73.456 3.86928 -0.634727 0
M  V30 754 H 74.946 4.16445 0.310432 0
M  V30 755 N 75.3831 0.828654 1.34056 0
M  V30 756 C 76.3151 0.212052 2.28217 0
M  V30 757 C 77.3281 -0.601362 1.51286 0
M  V30 758 O 78.5171 -0.430104 1.73241 0
M  V30 759 C 75.6171 -0.72088 3.31144 0
M  V30 760 C 74.7901 0.0509587 4.3737 0
M  V30 761 C 73.8491 -0.803766 5.20025 0
M  V30 762 O 72.8751 -0.246667 5.68665 0
M  V30 763 N 74.0771 -2.1227 5.40298 0
M  V30 764 H 76.8421 1.02105 2.81771 0
M  V30 765 H 74.4031 0.686153 1.46641 0
M  V30 766 H 76.3951 -1.29742 3.8334 0
M  V30 767 H 74.9651 -1.43061 2.77943 0
M  V30 768 H 74.1851 0.808831 3.85813 0
M  V30 769 H 75.4731 0.582065 5.0546 0
M  V30 770 H 74.8711 -2.59898 5.02464 0
M  V30 771 H 73.4281 -2.64796 5.95589 0
M  V30 772 N 76.8612 -1.46375 0.584142 0
M  V30 773 C 77.7932 -2.28443 -0.186119 0
M  V30 774 C 78.8062 -1.38596 -0.854115 0
M  V30 775 O 79.9952 -1.63183 -0.723438 0
M  V30 776 C 77.0952 -3.13671 -1.28311 0
M  V30 777 C 76.2682 -4.31652 -0.706758 0
M  V30 778 C 75.3272 -4.98267 -1.69163 0
M  V30 779 O 74.3532 -5.55815 -1.22712 0
M  V30 780 N 75.5552 -4.95408 -3.02575 0
M  V30 781 H 78.3202 -2.9519 0.517986 0
M  V30 782 H 75.8812 -1.56303 0.42201 0
M  V30 783 H 77.8732 -3.55101 -1.94128 0
M  V30 784 H 76.4432 -2.48989 -1.89005 0
M  V30 785 H 75.6632 -3.93989 0.128908 0
M  V30 786 H 76.9512 -5.07906 -0.301506 0
M  V30 787 H 76.3492 -4.49902 -3.42936 0
M  V30 788 H 74.9062 -5.40774 -3.63877 0
M  V30 789 N 78.3393 -0.321999 -1.54275 0
M  V30 790 C 79.2693 0.537411 -2.27231 0
M  V30 791 C 80.2503 1.12064 -1.27968 0
M  V30 792 O 81.4353 1.14606 -1.56777 0
M  V30 793 C 78.5653 1.69919 -3.02894 0
M  V30 794 C 77.5193 1.24534 -4.09482 0
M  V30 795 C 76.8453 2.49394 -4.72977 0
M  V30 796 C 78.1453 0.361335 -5.21049 0
M  V30 797 H 79.8393 -0.0711406 -2.99315 0
M  V30 798 H 77.3853 -0.0356555 -1.43956 0
M  V30 799 H 79.3383 2.30668 -3.52662 0
M  V30 800 H 78.0623 2.33431 -2.28424 0
M  V30 801 H 76.7213 0.660782 -3.60596 0
M  V30 802 H 76.3693 3.11265 -3.95124 0
M  V30 803 H 76.0693 2.19718 -5.44975 0
M  V30 804 H 77.5933 3.10908 -5.25517 0
M  V30 805 H 79.0073 0.875072 -5.66582 0
M  V30 806 H 77.4043 0.157428 -5.99893 0
M  V30 807 H 78.4743 -0.60822 -4.8107 0
M  V30 808 N 79.8174 1.5752 -0.0501392 0
M  V30 809 C 81.2284 1.80271 0.485705 0
M  V30 810 C 81.5794 0.96228 1.70981 0
M  V30 811 O 80.7044 0.178578 2.15662 0
M  V30 812 C 81.2994 3.26957 0.887938 0
M  V30 813 C 79.8584 3.5063 1.36877 0
M  V30 814 C 79.0054 2.75165 0.343468 0
M  V30 815 H 81.9564 1.56281 -0.276028 0
M  V30 816 H 81.9774 3.37821 1.75093 0
M  V30 817 H 81.4894 3.881 -0.0031809 0
M  V30 818 H 79.5904 2.94766 2.27911 0
M  V30 819 H 79.7034 4.59343 1.36164 0
M  V30 820 H 78.0674 2.4127 0.816128 0
M  V30 821 H 78.8504 3.39034 -0.539548 0
M  V30 822 N 81.2955 -0.223234 1.56011 0
M  V30 823 C 82.2275 -1.30006 1.88762 0
M  V30 824 C 83.2405 -1.43129 0.775746 0
M  V30 825 O 84.4295 -1.44057 1.05403 0
M  V30 826 C 81.5295 -2.67589 2.07965 0
M  V30 827 C 80.7025 -2.76434 3.38973 0
M  V30 828 C 79.7615 -3.95019 3.47629 0
M  V30 829 O 78.7875 -3.83436 4.20672 0
M  V30 830 N 79.9895 -5.09249 2.78649 0
M  V30 831 H 82.7545 -1.02238 2.81722 0
M  V30 832 H 80.3155 -0.413278 1.56536 0
M  V30 833 H 82.3075 -3.45297 2.11073 0
M  V30 834 H 80.8775 -2.87964 1.21638 0
M  V30 835 H 80.0975 -1.85216 3.47978 0
M  V30 836 H 81.3855 -2.79313 4.25278 0
M  V30 837 H 80.7835 -5.21556 2.19081 0
M  V30 838 H 79.3405 -5.85007 2.8742 0
M  V30 839 N 82.7736 -1.49793 -0.48987 0
M  V30 840 C 84.0016 -1.63568 -1.26701 0
M  V30 841 C 84.4166 -0.311465 -1.86213 0
M  V30 842 O 83.7736 0.704416 -1.68357 0
M  V30 843 C 83.8246 -2.71284 -2.38929 0
M  V30 844 O 83.5456 -3.9857 -1.81861 0
M  V30 845 C 85.0466 -2.95864 -3.3012 0
M  V30 846 H 82.2666 -0.550342 -0.383881 0
M  V30 847 H 84.8106 -1.95898 -0.586864 0
M  V30 848 H 82.9656 -2.417 -3.02753 0
M  V30 849 H 83.3796 -4.57993 -2.55622 0
M  V30 850 H 84.8536 -3.74941 -4.05121 0
M  V30 851 H 85.3306 -2.06206 -3.87783 0
M  V30 852 H 85.9366 -3.26907 -2.72051 0
M  V30 853 N 84.2517 0.741722 -1.39055 0
M  V30 854 C 85.5007 1.49656 -1.35225 0
M  V30 855 C 85.8137 1.95533 0.0512708 0
M  V30 856 O 87.0197 2.7067 0.212138 0
M  V30 857 C 85.4757 2.70389 -2.37525 0
M  V30 858 C 85.0837 2.31489 -3.83558 0
M  V30 859 C 86.8277 3.48236 -2.42759 0
M  V30 860 C 84.7347 3.48903 -4.77515 0
M  V30 861 H 83.6647 0.56197 -0.502699 0
M  V30 862 H 86.3157 0.809727 -1.64668 0
M  V30 863 H 84.6977 3.41113 -2.01142 0
M  V30 864 H 85.8717 1.68354 -4.28945 0
M  V30 865 H 84.1867 1.66749 -3.81554 0
M  V30 866 H 86.7837 4.35558 -3.1015 0
M  V30 867 H 87.1267 3.90229 -1.45008 0
M  V30 868 H 87.6597 2.84535 -2.78002 0
M  V30 869 H 84.3987 3.11966 -5.76504 0
M  V30 870 H 83.9187 4.11041 -4.36813 0
M  V30 871 H 85.5977 4.15328 -4.96096 0
M  V30 872 N 85.7298 1.2412 0.971189 0
M  V30 873 C 86.9788 1.07284 1.70801 0
M  V30 874 C 87.2918 -0.388902 1.91695 0
M  V30 875 O 88.4978 -0.677379 2.62914 0
M  V30 876 C 86.9538 1.87145 3.07416 0
M  V30 877 C 86.5618 3.37707 2.94377 0
M  V30 878 C 88.3058 1.78828 3.84995 0
M  V30 879 C 86.2128 4.09925 4.26281 0
M  V30 880 H 85.1428 0.397854 0.64049 0
M  V30 881 H 87.7938 1.4817 1.0825 0
M  V30 882 H 86.1758 1.39071 3.70777 0
M  V30 883 H 87.3498 3.93335 2.4005 0
M  V30 884 H 85.6648 3.46938 2.30267 0
M  V30 885 H 88.2618 2.30089 4.82662 0
M  V30 886 H 88.6048 0.75284 4.09436 0
M  V30 887 H 89.1378 2.24563 3.28354 0
M  V30 888 H 85.8768 5.13813 4.07033 0
M  V30 889 H 85.3968 3.59083 4.80437 0
M  V30 890 H 87.0758 4.1673 4.94919 0
M  V30 891 N 87.2079 -1.17134 1.05439 0
M  V30 892 C 88.4569 -1.86791 0.761049 0
M  V30 893 C 88.7699 -1.82072 -0.714795 0
M  V30 894 O 89.9759 -2.47223 -1.12218 0
M  V30 895 C 88.4319 -3.35166 1.31117 0
M  V30 896 C 88.0399 -3.48381 2.81664 0
M  V30 897 C 89.7839 -4.10134 1.09499 0
M  V30 898 C 87.6909 -4.90793 3.29964 0
M  V30 899 H 86.6209 -0.699681 0.281002 0
M  V30 900 H 89.2719 -1.3226 1.27199 0
M  V30 901 H 87.6539 -3.8925 0.72803 0
M  V30 902 H 88.8279 -3.04502 3.45855 0
M  V30 903 H 87.1429 -2.86836 3.01851 0
M  V30 904 H 89.7399 -5.152 1.43084 0
M  V30 905 H 90.0829 -4.16287 0.0328772 0
M  V30 906 H 90.6159 -3.62264 1.64346 0
M  V30 907 H 87.3549 -4.89816 4.35616 0
M  V30 908 H 86.8749 -5.35333 2.70516 0
M  V30 909 H 88.5539 -5.59573 3.24787 0
M  V30 910 N 88.686 -0.835752 -1.33615 0
M  V30 911 C 89.934 -0.429109 -1.97492 0
M  V30 912 C 90.255 1.01433 -1.66543 0
M  V30 913 O 89.525 1.70611 -0.962744 0
M  V30 914 H 88.105 -0.155686 -0.730596 0
M  V30 915 H 90.767 -1.06802 -1.63031 0
M  V30 916 H 89.863 -0.55861 -3.0706 0
M  V30 917 N 90.1641 1.46063 -0.591896 0
M  V30 918 C 91.4101 2.02638 -0.0811191 0
M  V30 919 C 91.7431 1.4613 1.27905 0
M  V30 920 O 91.0181 0.629908 1.84017 0
M  V30 921 C 91.3011 3.60091 -0.0252436 0
M  V30 922 C 91.1541 4.26965 -1.41496 0
M  V30 923 C 92.4731 4.3496 0.670685 0
M  V30 924 H 89.5921 0.73635 -0.0309524 0
M  V30 925 H 92.2341 1.741 -0.760859 0
M  V30 926 H 90.3841 3.84535 0.553624 0
M  V30 927 H 92.0561 4.13756 -2.0397 0
M  V30 928 H 90.2991 3.85971 -1.98011 0
M  V30 929 H 90.9701 5.35781 -1.32825 0
M  V30 930 H 93.4461 4.15716 0.178825 0
M  V30 931 H 92.3221 5.44686 0.678837 0
M  V30 932 H 92.5831 4.06685 1.73379 0
M  V30 933 N 91.6422 0.330177 1.54103 0
M  V30 934 C 93.0582 -0.0222371 1.59585 0
M  V30 935 C 93.2582 -1.49902 1.34654 0
M  V30 936 O 92.3142 -2.25592 1.13421 0
M  V30 937 C 93.6272 0.401932 2.98002 0
M  V30 938 C 95.1752 0.353145 3.11001 0
M  V30 939 C 95.6502 0.752576 4.51775 0
M  V30 940 N 97.1412 0.706239 4.57784 0
M  V30 941 C 97.8762 0.987417 5.64834 0
M  V30 942 N 97.3722 1.33607 6.79795 0
M  V30 943 N 99.1652 0.91254 5.54643 0
M  V30 944 H 91.3162 1.29228 1.68564 0
M  V30 945 H 93.5792 0.525906 0.78875 0
M  V30 946 H 93.2852 1.4311 3.21267 0
M  V30 947 H 93.1592 -0.229699 3.765 0
M  V30 948 H 95.5462 -0.666822 2.87467 0
M  V30 949 H 95.6272 1.0198 2.34593 0
M  V30 950 H 95.2712 1.77049 4.76042 0
M  V30 951 H 95.2012 0.0635409 5.26562 0
M  V30 952 H 97.6922 0.44889 3.75224 0
M  V30 953 H 98.0052 1.53582 7.57385 0
M  V30 954 H 96.3502 1.37439 6.81275 0
M  V30 955 H 99.5412 0.639601 4.6371 0
M  V30 956 H 99.7142 1.13503 6.37982 0
M  V30 957 N 93.1203 -1.57491 0.0584922 0
M  V30 958 C 94.0673 -2.11958 -0.913376 0
M  V30 959 C 95.0373 -1.02875 -1.30407 0
M  V30 960 O 96.2223 -1.30464 -1.39226 0
M  V30 961 C 93.3623 -2.67497 -2.18035 0
M  V30 962 C 92.4753 -3.90691 -1.84349 0
M  V30 963 C 91.6103 -4.3452 -3.05559 0
M  V30 964 C 90.6493 -5.50395 -2.67827 0
M  V30 965 N 89.7863 -5.89244 -3.81754 0
M  V30 966 H 94.6263 -2.94704 -0.442017 0
M  V30 967 H 92.1633 -1.45643 -0.206545 0
M  V30 968 H 94.1213 -2.978 -2.92183 0
M  V30 969 H 92.7513 -1.87537 -2.62735 0
M  V30 970 H 91.8033 -3.66934 -1.00319 0
M  V30 971 H 93.1153 -4.7489 -1.5258 0
M  V30 972 H 92.2693 -4.66414 -3.87998 0
M  V30 973 H 91.0083 -3.49147 -3.40511 0
M  V30 974 H 90.0133 -5.18165 -1.83806 0
M  V30 975 H 91.2383 -6.3749 -2.34059 0
M  V30 976 H 89.1843 -5.06823 -4.16493 0
M  V30 977 H 89.1013 -6.68151 -3.53708 0
M  V30 978 H 90.3693 -6.25756 -4.64811 0
M  V30 979 N 94.5984 0.214957 -1.56127 0
M  V30 980 C 95.8464 0.936518 -1.79091 0
M  V30 981 C 96.1674 1.84606 -0.628148 0
M  V30 982 O 95.4374 1.92664 0.35462 0
M  V30 983 H 94.0174 0.3488 -0.660566 0
M  V30 984 H 96.6794 0.22523 -1.93594 0
M  V30 985 H 95.7754 1.53943 -2.71492 0
M  V30 986 N 96.0765 1.50051 0.48192 0
M  V30 987 C 97.3245 1.60181 1.23234 0
M  V30 988 C 97.6455 0.299176 1.92691 0
M  V30 989 O 96.9155 -0.682708 1.83619 0
M  V30 990 H 95.4955 0.590232 0.457859 0
M  V30 991 H 98.1575 1.86775 0.556881 0
M  V30 992 H 97.2535 2.40753 1.98607 0
M  V30 993 N 97.5546 -0.734337 1.39446 0
M  V30 994 C 98.7826 -1.52358 1.39981 0
M  V30 995 C 99.1976 -1.88799 -0.0054975 0
M  V30 996 O 98.5546 -1.54146 -0.976998 0
M  V30 997 C 98.6056 -2.81072 2.27333 0
M  V30 998 O 98.3266 -2.46178 3.62392 0
M  V30 999 C 99.8276 -3.75096 2.36259 0
M  V30 1000 H 97.0476 -0.470806 0.478103 0
M  V30 1001 H 99.5916 -0.907339 1.83269 0
M  V30 1002 H 97.7466 -3.39026 1.87457 0
M  V30 1003 H 98.1606 -3.28866 4.08592 0
M  V30 1004 H 99.6346 -4.62305 3.01626 0
M  V30 1005 H 100.112 -4.16892 1.38194 0
M  V30 1006 H 100.718 -3.23061 2.76608 0
M  V30 1007 N 99.0327 -1.24633 -0.964593 0
M  V30 1008 C 100.449 -1.01239 -1.2338 0
M  V30 1009 C 100.649 0.2769 -1.99588 0
M  V30 1010 O 99.7047 0.992241 -2.32187 0
M  V30 1011 C 101.018 -2.22937 -2.01791 0
M  V30 1012 C 102.566 -2.27594 -2.14872 0
M  V30 1013 C 103.041 -3.48921 -2.96678 0
M  V30 1014 N 104.532 -3.49257 -3.04259 0
M  V30 1015 C 105.267 -4.39795 -3.67924 0
M  V30 1016 N 104.763 -5.40591 -4.33281 0
M  V30 1017 N 106.556 -4.275 -3.64966 0
M  V30 1018 H 98.7067 -2.0748 -0.454502 0
M  V30 1019 H 100.97 -0.910647 -0.26349 0
M  V30 1020 H 100.676 -3.16587 -1.53184 0
M  V30 1021 H 100.55 -2.25306 -3.02518 0
M  V30 1022 H 102.937 -1.34473 -2.6268 0
M  V30 1023 H 103.018 -2.2925 -1.13482 0
M  V30 1024 H 102.662 -4.42359 -2.49562 0
M  V30 1025 H 102.592 -3.4451 -3.98272 0
M  V30 1026 H 105.083 -2.76337 -2.57771 0
M  V30 1027 H 105.396 -6.05904 -4.79687 0
M  V30 1028 H 103.741 -5.44475 -4.3194 0
M  V30 1029 H 106.932 -3.47987 -3.13086 0
M  V30 1030 H 107.105 -4.98258 -4.14298 0
M  V30 1031 N 100.511 1.16574 -1.06058 0
M  V30 1032 C 101.474 2.19085 -0.673392 0
M  V30 1033 C 102.474 1.5835 0.279648 0
M  V30 1034 O 103.664 1.74088 0.0623488 0
M  V30 1035 C 100.796 3.40899 0.00954234 0
M  V30 1036 H 101.989 2.54853 -1.58081 0
M  V30 1037 H 99.5418 1.30808 -0.855516 0
M  V30 1038 H 100.277 3.10684 0.929826 0
M  V30 1039 H 100.062 3.86233 -0.67573 0
M  V30 1040 H 101.552 4.1675 0.266245 0
M  V30 1041 N 101.989 0.842826 1.3317 0
M  V30 1042 C 102.919 0.294028 2.31641 0
M  V30 1043 C 103.9 -0.600401 1.59151 0
M  V30 1044 O 105.085 -0.523124 1.87022 0
M  V30 1045 C 102.215 -0.528416 3.43257 0
M  V30 1046 C 101.169 0.27056 4.27144 0
M  V30 1047 C 100.495 -0.675881 5.30411 0
M  V30 1048 C 101.795 1.48981 5.00602 0
M  V30 1049 H 103.489 1.11681 2.77791 0
M  V30 1050 H 101.035 0.538478 1.33553 0
M  V30 1051 H 102.988 -0.922674 4.11175 0
M  V30 1052 H 101.712 -1.38445 2.95805 0
M  V30 1053 H 100.371 0.646427 3.60856 0
M  V30 1054 H 100.019 -1.52842 4.79216 0
M  V30 1055 H 99.7189 -0.145374 5.8742 0
M  V30 1056 H 101.243 -1.06757 6.01195 0
M  V30 1057 H 102.657 1.16849 5.61266 0
M  V30 1058 H 101.054 1.95739 5.6728 0
M  V30 1059 H 102.124 2.25746 4.29147 0
M  V30 1060 N 103.467 -1.45747 0.599634 0
M  V30 1061 C 104.397 -2.33235 -0.111306 0
M  V30 1062 C 105.378 -1.46359 -0.866781 0
M  V30 1063 O 106.563 -1.75146 -0.838904 0
M  V30 1064 C 103.693 -3.28932 -1.11451 0
M  V30 1065 C 102.647 -4.25381 -0.472772 0
M  V30 1066 C 101.973 -5.1071 -1.58365 0
M  V30 1067 C 103.273 -5.18831 0.600948 0
M  V30 1068 H 104.967 -2.92927 0.61919 0
M  V30 1069 H 102.513 -1.40857 0.299215 0
M  V30 1070 H 104.466 -3.89002 -1.62036 0
M  V30 1071 H 103.19 -2.67381 -1.8755 0
M  V30 1072 H 101.849 -3.66598 0.0121472 0
M  V30 1073 H 101.497 -4.45533 -2.33473 0
M  V30 1074 H 101.197 -5.7604 -1.15982 0
M  V30 1075 H 102.721 -5.73647 -2.09194 0
M  V30 1076 H 104.135 -5.73019 0.179491 0
M  V30 1077 H 102.532 -5.92595 0.946076 0
M  V30 1078 H 103.602 -4.6174 1.48068 0
M  V30 1079 N 104.945 -0.338344 -1.53925 0
M  V30 1080 C 105.855 0.529421 -2.28548 0
M  V30 1081 C 106.871 1.11645 -1.3346 0
M  V30 1082 O 108.047 1.13325 -1.66492 0
M  V30 1083 C 105.112 1.66713 -3.03987 0
M  V30 1084 C 104.173 1.11041 -4.14691 0
M  V30 1085 C 103.406 2.19389 -4.86522 0
M  V30 1086 O 103.629 3.40013 -4.57982 0
M  V30 1087 O 102.563 1.83976 -5.73094 0
M  V30 1088 H 106.389 -0.0770399 -3.03602 0
M  V30 1089 H 103.974 -0.103555 -1.49041 0
M  V30 1090 H 105.856 2.32918 -3.5118 0
M  V30 1091 H 104.531 2.25949 -2.31794 0
M  V30 1092 H 103.438 0.413024 -3.71813 0
M  V30 1093 H 104.771 0.562975 -4.8897 0
M  V30 1094 N 106.423 1.57458 -0.0668435 0
M  V30 1095 C 107.356 2.08033 0.93795 0
M  V30 1096 C 108.334 0.984321 1.29421 0
M  V30 1097 O 109.518 1.25736 1.40437 0
M  V30 1098 C 106.645 2.53388 2.24749 0
M  V30 1099 C 105.691 3.74376 2.04315 0
M  V30 1100 S 106.524 5.19303 1.30706 0
M  V30 1101 C 107.68 5.67986 2.62951 0
M  V30 1102 H 107.913 2.92935 0.50759 0
M  V30 1103 H 105.446 1.5371 0.145804 0
M  V30 1104 H 107.404 2.8018 3.00016 0
M  V30 1105 H 106.065 1.68763 2.64911 0
M  V30 1106 H 105.258 4.04083 3.01218 0
M  V30 1107 H 104.86 3.47931 1.37186 0
M  V30 1108 H 107.152 5.74528 3.5906 0
M  V30 1109 H 108.095 6.66955 2.3786 0
M  V30 1110 H 108.503 4.95781 2.69929 0
M  V30 1111 N 107.901 -0.206675 1.56239 0
M  V30 1112 C 108.831 -1.25909 1.96645 0
M  V30 1113 C 109.812 -1.48097 0.836734 0
M  V30 1114 O 110.997 -1.6003 1.10019 0
M  V30 1115 C 108.127 -2.6058 2.29599 0
M  V30 1116 C 107.081 -2.53024 3.452 0
M  V30 1117 C 106.407 -3.91861 3.63798 0
M  V30 1118 C 107.707 -2.06524 4.79734 0
M  V30 1119 H 109.401 -0.923369 2.84806 0
M  V30 1120 H 106.947 -0.442735 1.37025 0
M  V30 1121 H 108.9 -3.34375 2.56459 0
M  V30 1122 H 107.624 -2.95869 1.38307 0
M  V30 1123 H 106.283 -1.81684 3.18412 0
M  V30 1124 H 105.931 -4.24483 2.69857 0
M  V30 1125 H 105.631 -3.87683 4.4156 0
M  V30 1126 H 107.155 -4.67296 3.93022 0
M  V30 1127 H 108.569 -2.70072 5.05702 0
M  V30 1128 H 106.966 -2.13374 5.60885 0
M  V30 1129 H 108.036 -1.01802 4.74093 0
M  V30 1130 N 109.379 -1.50304 -0.473955 0
M  V30 1131 C 110.604 -1.65175 -1.25427 0
M  V30 1132 C 111.029 -0.333673 -1.85117 0
M  V30 1133 O 110.387 0.702114 -1.67153 0
M  V30 1134 C 110.435 -2.74295 -2.34082 0
M  V30 1135 O 109.539 -2.35349 -3.38651 0
M  V30 1136 H 108.88 -0.551944 -0.369126 0
M  V30 1137 H 111.41 -1.96662 -0.564364 0
M  V30 1138 H 111.42 -2.97285 -2.79438 0
M  V30 1139 H 110.095 -3.69959 -1.90008 0
M  V30 1140 H 108.672 -2.22794 -2.99027 0
M  V30 1141 N 110.857 0.726932 -1.39834 0
M  V30 1142 C 111.787 1.85405 -1.41941 0
M  V30 1143 C 112.768 1.67751 -0.281728 0
M  V30 1144 O 113.953 1.8795 -0.488717 0
M  V30 1145 C 111.083 3.23243 -1.2701 0
M  V30 1146 C 110.037 3.55549 -2.38262 0
M  V30 1147 C 109.363 4.9241 -2.08415 0
M  V30 1148 C 110.663 3.577 -3.80589 0
M  V30 1149 H 112.357 1.83899 -2.36266 0
M  V30 1150 H 109.903 0.883349 -1.13723 0
M  V30 1151 H 111.856 4.01775 -1.27103 0
M  V30 1152 H 110.58 3.25296 -0.291564 0
M  V30 1153 H 109.239 2.79351 -2.37399 0
M  V30 1154 H 108.887 4.91052 -1.0898 0
M  V30 1155 H 108.587 5.14992 -2.82943 0
M  V30 1156 H 110.111 5.73289 -2.10171 0
M  V30 1157 H 111.525 4.26293 -3.83337 0
M  V30 1158 H 109.922 3.91804 -4.54543 0
M  V30 1159 H 110.992 2.57328 -4.10987 0
M  V30 1160 N 112.336 1.25143 0.95797 0
M  V30 1161 C 113.286 1.01924 2.0395 0
M  V30 1162 C 114.27 -0.0427175 1.60843 0
M  V30 1163 O 115.462 0.17221 1.7616 0
M  V30 1164 C 112.591 0.636373 3.3735 0
M  V30 1165 C 111.677 1.73492 3.8699 0
M  V30 1166 N 112.068 2.96945 4.0946 0
M  V30 1167 C 110.366 1.61467 4.15746 0
M  V30 1168 C 111.067 3.68228 4.50315 0
M  V30 1169 N 110.043 2.95833 4.56053 0
M  V30 1170 H 113.845 1.95653 2.19311 0
M  V30 1171 H 111.359 1.15413 1.14253 0
M  V30 1172 H 113.356 0.451233 4.14451 0
M  V30 1173 H 112.016 -0.293621 3.2337 0
M  V30 1174 H 113.027 3.33025 3.96629 0
M  V30 1175 H 109.704 0.753394 4.10646 0
M  V30 1176 H 111.094 4.74178 4.76031 0
M  V30 1177 N 113.814 -1.1601 1.06675 0
M  V30 1178 C 115.225 -1.68235 0.809565 0
M  V30 1179 C 115.576 -1.8454 -0.666303 0
M  V30 1180 O 114.701 -1.54374 -1.5165 0
M  V30 1181 C 115.296 -3.05585 1.46299 0
M  V30 1182 C 113.855 -3.54915 1.25349 0
M  V30 1183 C 113.002 -2.30804 1.53703 0
M  V30 1184 H 115.953 -1.00318 1.22971 0
M  V30 1185 H 115.974 -3.70174 0.880431 0
M  V30 1186 H 115.486 -2.93686 2.53713 0
M  V30 1187 H 113.587 -3.72067 0.199261 0
M  V30 1188 H 113.7 -4.36774 1.9689 0
M  V30 1189 H 112.064 -2.36007 0.957739 0
M  V30 1190 H 112.847 -2.21499 2.62284 0
M  V30 1191 N 115.292 -0.849877 -1.32721 0
M  V30 1192 C 116.569 -0.372405 -1.92022 0
M  V30 1193 C 116.949 1.1435 -1.77447 0
M  V30 1194 O 116.297 1.96296 -1.16962 0
M  V30 1195 C 116.507 -0.831482 -3.3895 0
M  V30 1196 C 117.855 -0.845882 -4.16089 0
M  V30 1197 O 118.879 -0.775806 -3.47649 0
M  V30 1198 O 117.738 -0.943753 -5.38289 0
M  V30 1199 H 114.832 -0.107667 -0.819961 0
M  V30 1200 H 117.378 -0.93646 -1.41522 0
M  V30 1201 H 116.15 -1.87448 -3.4348 0
M  V30 1202 H 115.773 -0.24461 -3.96847 0
M  V30 1203 N 116.77 1.45427 -0.607355 0
M  V30 1204 C 118.016 2.0254 -0.102607 0
M  V30 1205 C 118.349 1.47478 1.26348 0
M  V30 1206 O 117.624 0.64939 1.83339 0
M  V30 1207 C 117.907 3.60044 -0.0634347 0
M  V30 1208 C 117.76 4.2544 -1.46017 0
M  V30 1209 C 119.079 4.35646 0.624514 0
M  V30 1210 H 116.198 0.73598 -0.0387607 0
M  V30 1211 H 118.84 1.73284 -0.779282 0
M  V30 1212 H 116.99 3.85101 0.512808 0
M  V30 1213 H 118.662 4.11569 -2.08347 0
M  V30 1214 H 116.905 3.83849 -2.02094 0
M  V30 1215 H 117.576 5.34342 -1.385 0
M  V30 1216 H 120.052 4.15882 0.134723 0
M  V30 1217 H 118.928 5.45376 0.621028 0
M  V30 1218 H 119.189 4.08501 1.69055 0
M  V30 1219 N 118.248 0.346503 1.53744 0
M  V30 1220 C 119.211 -0.496439 2.23759 0
M  V30 1221 C 120.211 -1.0252 1.2388 0
M  V30 1222 O 121.401 -0.913974 1.48297 0
M  V30 1223 C 118.533 -1.69187 2.95954 0
M  V30 1224 H 119.726 0.115952 2.99676 0
M  V30 1225 H 117.279 0.0978939 1.55993 0
M  V30 1226 H 118.014 -2.34288 2.24231 0
M  V30 1227 H 117.799 -1.31989 3.69217 0
M  V30 1228 H 119.289 -2.28969 3.49232 0
M  V30 1229 N 119.726 -1.57421 0.075193 0
M  V30 1230 C 120.689 -2.11791 -0.876203 0
M  V30 1231 C 121.689 -1.04268 -1.22412 0
M  V30 1232 O 122.879 -1.30242 -1.15684 0
M  V30 1233 C 120.011 -2.62207 -2.17854 0
M  V30 1234 H 121.204 -2.9716 -0.40444 0
M  V30 1235 H 118.757 -1.55333 -0.173557 0
M  V30 1236 H 119.492 -1.803 -2.6956 0
M  V30 1237 H 119.277 -3.40802 -1.93897 0
M  V30 1238 H 120.767 -3.04335 -2.85955 0
M  V30 1239 N 121.204 0.198386 -1.56346 0
M  V30 1240 C 122.167 1.22952 -1.93431 0
M  V30 1241 C 123.167 1.38611 -0.815092 0
M  V30 1242 O 124.357 1.36479 -1.08255 0
M  V30 1243 C 121.489 2.59946 -2.20546 0
M  V30 1244 H 122.682 0.912626 -2.85677 0
M  V30 1245 H 120.235 0.43977 -1.49986 0
M  V30 1246 H 120.97 2.96696 -1.30927 0
M  V30 1247 H 120.755 2.49953 -3.02102 0
M  V30 1248 H 122.245 3.3431 -2.50253 0
M  V30 1249 N 122.682 1.50554 0.465978 0
M  V30 1250 C 123.592 1.72585 1.58907 0
M  V30 1251 C 124.608 0.60911 1.6299 0
M  V30 1252 O 125.784 0.88804 1.80765 0
M  V30 1253 C 122.849 1.81995 2.95091 0
M  V30 1254 C 121.91 3.05751 3.01355 0
M  V30 1255 C 121.143 3.14702 4.31043 0
M  V30 1256 O 121.366 2.30313 5.21835 0
M  V30 1257 O 120.3 4.07468 4.43005 0
M  V30 1258 H 124.126 2.67799 1.43239 0
M  V30 1259 H 121.711 1.34711 0.646013 0
M  V30 1260 H 123.593 1.90335 3.75966 0
M  V30 1261 H 122.268 0.899659 3.10947 0
M  V30 1262 H 121.175 3.02908 2.19539 0
M  V30 1263 H 122.508 3.97375 2.90437 0
M  V30 1264 N 124.16 -0.719506 1.40217 0
M  V30 1265 C 125.108 -1.85493 1.40339 0
M  V30 1266 C 126.102 -1.66995 0.284415 0
M  V30 1267 O 127.308 -1.74148 0.455252 0
M  V30 1268 H 123.683 -0.610857 0.438586 0
M  V30 1269 H 125.654 -1.82506 2.36081 0
M  V30 1270 C 124.403 -3.23321 1.27901 0
M  V30 1271 H 123.726 -3.38159 2.1328 0
M  V30 1272 H 125.166 -4.02914 1.32045 0
M  V30 1273 C 123.625 -3.36898 -0.0111355 0
M  V30 1274 O 124.155 -3.89674 -0.975538 0
M  V30 1275 N 122.361 -2.90492 -0.0793393 0
M  V30 1276 H 121.908 -2.47731 0.706183 0
M  V30 1277 H 121.866 -2.99955 -0.942038 0
M  V30 1278 N 125.638 -1.25649 -0.95132 0
M  V30 1279 C 126.548 -1.08073 -2.08224 0
M  V30 1280 C 127.564 -0.0169666 -1.73992 0
M  V30 1281 O 128.74 -0.218593 -2.0021 0
M  V30 1282 C 125.805 -0.704922 -3.39458 0
M  V30 1283 C 124.866 -1.84699 -3.87537 0
M  V30 1284 C 124.099 -1.48902 -5.12508 0
M  V30 1285 O 124.322 -0.386156 -5.69091 0
M  V30 1286 O 123.256 -2.32033 -5.55378 0
M  V30 1287 H 127.082 -2.02924 -2.25954 0
M  V30 1288 H 124.667 -1.04618 -1.06656 0
M  V30 1289 H 126.549 -0.507609 -4.18332 0
M  V30 1290 H 125.224 0.214291 -3.2299 0
M  V30 1291 H 124.131 -2.09919 -3.09653 0
M  V30 1292 H 125.464 -2.74557 -4.08509 0
M  V30 1293 N 127.117 1.15442 -1.07289 0
M  V30 1294 C 128.363 1.86489 -0.796846 0
M  V30 1295 C 128.696 1.82078 0.675371 0
M  V30 1296 O 127.971 1.24346 1.4956 0
M  V30 1297 C 128.254 3.35626 -1.30489 0
M  V30 1298 C 128.107 3.48673 -2.84161 0
M  V30 1299 C 129.426 4.30357 -0.920907 0
M  V30 1300 H 126.545 0.677144 -0.290939 0
M  V30 1301 H 129.187 1.35633 -1.33056 0
M  V30 1302 H 127.337 3.79068 -0.850883 0
M  V30 1303 H 129.009 3.14099 -3.37846 0
M  V30 1304 H 127.252 2.90253 -3.22391 0
M  V30 1305 H 127.923 4.53453 -3.14777 0
M  V30 1306 H 130.399 3.94871 -1.3121 0
M  V30 1307 H 129.275 5.33193 -1.30372 0
M  V30 1308 H 129.536 4.4176 0.173226 0
M  V30 1309 N 128.595 0.856903 1.32268 0
M  V30 1310 C 129.545 0.274899 2.26337 0
M  V30 1311 C 130.529 -0.580543 1.50062 0
M  V30 1312 O 131.721 -0.429559 1.71708 0
M  V30 1313 C 128.85 -0.533841 3.39124 0
M  V30 1314 C 127.936 0.334114 4.22782 0
M  V30 1315 N 128.327 1.42143 4.85416 0
M  V30 1316 C 126.625 0.124256 4.45827 0
M  V30 1317 C 127.326 1.95559 5.47843 0
M  V30 1318 N 126.302 1.25444 5.28928 0
M  V30 1319 H 130.104 1.10612 2.72291 0
M  V30 1320 H 127.618 0.703258 1.46383 0
M  V30 1321 H 129.615 -0.96722 4.05525 0
M  V30 1322 H 128.275 -1.36283 2.94715 0
M  V30 1323 H 129.286 1.80436 4.85451 0
M  V30 1324 H 125.963 -0.669837 4.12092 0
M  V30 1325 H 127.353 2.86714 6.07655 0
M  V30 1326 N 130.073 -1.45103 0.615059 0
M  V30 1327 C 131.32 -2.02183 0.113179 0
M  V30 1328 C 131.648 -1.48249 -1.25906 0
M  V30 1329 O 130.903 -0.650265 -1.84581 0
M  V30 1330 C 131.202 -3.57386 0.0318797 0
M  V30 1331 C 130.868 -4.30505 1.34077 0
M  V30 1332 C 129.53 -4.50197 1.69929 0
M  V30 1333 C 131.882 -4.72238 2.20546 0
M  V30 1334 C 129.21 -5.08881 2.91988 0
M  V30 1335 C 131.562 -5.32272 3.41861 0
M  V30 1336 C 130.226 -5.50187 3.77956 0
M  V30 1337 H 129.496 -0.739842 0.0414151 0
M  V30 1338 H 132.143 -1.74073 0.798168 0
M  V30 1339 H 130.448 -3.84817 -0.736409 0
M  V30 1340 H 132.145 -3.99264 -0.372712 0
M  V30 1341 H 128.735 -4.15496 1.05173 0
M  V30 1342 H 132.919 -4.56751 1.94146 0
M  V30 1343 H 128.175 -5.20939 3.2005 0
M  V30 1344 H 132.349 -5.63563 4.09109 0
M  V30 1345 H 129.976 -5.95427 4.72622 0
M  V30 1346 N 131.551 -0.354651 -1.53558 0
M  V30 1347 C 132.798 0.238443 -2.01091 0
M  V30 1348 C 133.126 1.49663 -1.24222 0
M  V30 1349 O 132.381 1.93049 -0.321003 0
M  V30 1350 C 132.68 0.587121 -3.52545 0
M  V30 1351 C 132.346 -0.575472 -4.47213 0
M  V30 1352 C 131.008 -0.894497 -4.72813 0
M  V30 1353 C 133.36 -1.35489 -5.03281 0
M  V30 1354 C 130.688 -1.99511 -5.51736 0
M  V30 1355 C 133.04 -2.44583 -5.83405 0
M  V30 1356 C 131.704 -2.77033 -6.07296 0
M  V30 1357 H 130.974 0.0872526 -0.735845 0
M  V30 1358 H 133.621 -0.484859 -1.8526 0
M  V30 1359 H 131.926 1.39129 -3.66265 0
M  V30 1360 H 133.623 1.05809 -3.86789 0
M  V30 1361 H 130.213 -0.316774 -4.27428 0
M  V30 1362 H 134.397 -1.12167 -4.83459 0
M  V30 1363 H 129.653 -2.25063 -5.68469 0
M  V30 1364 H 133.827 -3.05401 -6.25862 0
M  V30 1365 H 131.454 -3.6244 -6.68237 0
M  V30 1366 N 133.029 1.57378 -0.0835403 0
M  V30 1367 C 134.306 1.85363 0.624507 0
M  V30 1368 C 134.686 0.978239 1.87066 0
M  V30 1369 O 134.034 0.0475908 2.2845 0
M  V30 1370 C 134.244 3.35795 0.950947 0
M  V30 1371 C 135.592 4.03581 1.31939 0
M  V30 1372 O 136.616 3.40609 1.04232 0
M  V30 1373 O 135.475 5.14672 1.83779 0
M  V30 1374 H 132.569 0.766162 0.311329 0
M  V30 1375 H 135.115 1.69307 -0.115362 0
M  V30 1376 H 133.887 3.91244 0.0663899 0
M  V30 1377 H 133.51 3.57154 1.74719 0
M  V30 1378 N 134.507 -0.190092 1.56449 0
M  V30 1379 C 135.753 -0.906472 1.82084 0
M  V30 1380 C 136.108 -1.80677 0.661335 0
M  V30 1381 O 135.401 -1.88501 -0.343237 0
M  V30 1382 C 135.595 -1.75382 3.1141 0
M  V30 1383 C 135.424 -0.937053 4.39829 0
M  V30 1384 C 134.194 -0.619507 5.01488 0
M  V30 1385 C 136.392 -0.2874 5.13496 0
M  V30 1386 N 134.374 0.215367 6.13522 0
M  V30 1387 C 135.745 0.409454 6.18646 0
M  V30 1388 C 137.8 -0.203639 4.97483 0
M  V30 1389 C 136.503 1.1821 7.0952 0
M  V30 1390 C 138.529 0.555622 5.88784 0
M  V30 1391 C 137.891 1.24091 6.93384 0
M  V30 1392 H 133.99 -0.310931 0.717528 0
M  V30 1393 H 136.574 -0.174821 1.93914 0
M  V30 1394 H 134.745 -2.45703 3.00806 0
M  V30 1395 H 136.477 -2.41006 3.25112 0
M  V30 1396 H 133.232 -0.945126 4.64074 0
M  V30 1397 H 133.656 0.622562 6.74131 0
M  V30 1398 H 138.298 -0.719099 4.1664 0
M  V30 1399 H 136.016 1.70897 7.89823 0
M  V30 1400 H 139.602 0.621854 5.78467 0
M  V30 1401 H 138.482 1.81901 7.62812 0
M  V30 1402 N 135.985 -1.50799 -0.457987 0
M  V30 1403 C 136.895 -1.73426 -1.57989 0
M  V30 1404 C 137.911 -0.617745 -1.62665 0
M  V30 1405 O 139.087 -0.897614 -1.80291 0
M  V30 1406 C 136.152 -1.83557 -2.94122 0
M  V30 1407 C 135.213 -3.07345 -2.99729 0
M  V30 1408 C 134.446 -3.16983 -4.29368 0
M  V30 1409 O 134.669 -2.33077 -5.20607 0
M  V30 1410 O 133.603 -4.09812 -4.40837 0
M  V30 1411 H 137.429 -2.68555 -1.41817 0
M  V30 1412 H 135.014 -1.35052 -0.638859 0
M  V30 1413 H 136.896 -1.92326 -3.74952 0
M  V30 1414 H 135.571 -0.916137 -3.10465 0
M  V30 1415 H 134.478 -3.04068 -2.1793 0
M  V30 1416 H 135.811 -3.9891 -2.88326 0
M  V30 1417 N 137.463 0.71206 -1.40597 0
M  V30 1418 C 138.373 1.8562 -1.43466 0
M  V30 1419 C 139.389 1.70902 -0.326902 0
M  V30 1420 O 140.565 1.93105 -0.572043 0
M  V30 1421 C 137.63 3.21451 -1.29884 0
M  V30 1422 C 136.691 3.48398 -2.50833 0
M  V30 1423 C 135.924 4.77749 -2.3789 0
M  V30 1424 O 136.147 5.53089 -1.39459 0
M  V30 1425 O 135.081 5.05111 -3.27333 0
M  V30 1426 H 138.907 1.86155 -2.39958 0
M  V30 1427 H 136.492 0.86295 -1.21957 0
M  V30 1428 H 138.374 4.02579 -1.24531 0
M  V30 1429 H 137.049 3.21636 -0.364997 0
M  V30 1430 H 135.956 2.67265 -2.61763 0
M  V30 1431 H 137.289 3.53014 -3.4299 0
M  V30 1432 N 138.941 1.26152 0.944643 0
M  V30 1433 C 139.891 1.04081 2.02857 0
M  V30 1434 C 140.875 -0.0256555 1.6088 0
M  V30 1435 O 142.067 0.190884 1.75968 0
M  V30 1436 C 139.196 0.672118 3.36656 0
M  V30 1437 C 138.282 1.77586 3.85128 0
M  V30 1438 N 138.673 3.01272 4.06287 0
M  V30 1439 C 136.971 1.65867 4.1401 0
M  V30 1440 C 137.672 3.72983 4.46384 0
M  V30 1441 N 136.648 3.00653 4.52889 0
M  V30 1442 H 140.45 1.97968 2.17223 0
M  V30 1443 H 137.964 1.16618 1.13022 0
M  V30 1444 H 139.961 0.495166 4.13949 0
M  V30 1445 H 138.621 -0.259307 3.23663 0
M  V30 1446 H 139.632 3.37213 3.93075 0
M  V30 1447 H 136.309 0.796907 4.09824 0
M  V30 1448 H 137.699 4.792 4.70975 0
M  V30 1449 N 140.419 -1.14872 1.07899 0
M  V30 1450 C 141.649 -1.89386 0.825631 0
M  V30 1451 C 142.057 -1.78565 -0.625406 0
M  V30 1452 O 141.4 -1.13918 -1.44113 0
M  V30 1453 C 141.462 -3.40206 1.16191 0
M  V30 1454 C 141.126 -3.74812 2.61467 0
M  V30 1455 C 142.123 -3.75367 3.59716 0
M  V30 1456 C 139.808 -4.0495 2.97189 0
M  V30 1457 C 141.802 -4.05574 4.9172 0
M  V30 1458 C 139.489 -4.34821 4.29388 0
M  V30 1459 C 140.487 -4.35116 5.26463 0
M  V30 1460 O 140.175 -4.64267 6.56286 0
M  V30 1461 H 139.907 -0.606894 0.297751 0
M  V30 1462 H 142.461 -1.46438 1.44031 0
M  V30 1463 H 140.691 -3.8358 0.490214 0
M  V30 1464 H 142.38 -3.96018 0.890193 0
M  V30 1465 H 143.146 -3.52176 3.33462 0
M  V30 1466 H 139.025 -4.03876 2.22273 0
M  V30 1467 H 142.569 -4.05719 5.67484 0
M  V30 1468 H 138.466 -4.5748 4.55392 0
M  V30 1469 H 139.234 -4.82007 6.61522 0
M  V30 1470 N 141.898 -0.863906 -1.31812 0
M  V30 1471 C 143.123 -0.48527 -2.01643 0
M  V30 1472 C 143.548 0.913058 -1.64453 0
M  V30 1473 O 142.906 1.6014 -0.849985 0
M  V30 1474 C 142.954 -0.642625 -3.54828 0
M  V30 1475 O 142.058 0.320659 -4.11151 0
M  V30 1476 H 141.399 -0.193793 -0.635091 0
M  V30 1477 H 143.929 -1.16565 -1.68148 0
M  V30 1478 H 143.939 -0.533628 -4.04495 0
M  V30 1479 H 142.614 -1.66227 -3.81237 0
M  V30 1480 H 141.191 0.167126 -3.72525 0
M  V30 1481 N 143.376 1.44774 -0.622745 0
M  V30 1482 C 144.326 2.2774 0.108889 0
M  V30 1483 C 145.31 1.38189 0.824175 0
M  V30 1484 O 146.502 1.62063 0.711664 0
M  V30 1485 C 143.631 3.25353 1.09546 0
M  V30 1486 C 142.717 4.22392 0.380232 0
M  V30 1487 N 143.108 5.02388 -0.586535 0
M  V30 1488 C 141.406 4.41588 0.625792 0
M  V30 1489 C 142.107 5.72894 -1.00834 0
M  V30 1490 N 141.083 5.42479 -0.348878 0
M  V30 1491 H 144.885 2.86993 -0.63341 0
M  V30 1492 H 142.399 1.5611 -0.447589 0
M  V30 1493 H 144.396 3.83538 1.63414 0
M  V30 1494 H 143.056 2.6766 1.83815 0
M  V30 1495 H 144.067 5.0885 -0.963975 0
M  V30 1496 H 140.744 3.95003 1.352 0
M  V30 1497 H 142.134 6.47158 -1.80656 0
M  V30 1498 N 144.854 0.36279 1.53368 0
M  V30 1499 C 146.102 -0.227326 2.00817 0
M  V30 1500 C 146.423 -1.49511 1.25186 0
M  V30 1501 O 145.693 -1.92482 0.364348 0
M  V30 1502 H 144.273 -0.0869923 0.741917 0
M  V30 1503 H 146.935 0.488381 1.88682 0
M  V30 1504 H 146.031 -0.456273 3.08747 0
M  V30 1505 N 146.332 -1.57332 0.0918853 0
M  V30 1506 C 147.262 -2.16872 -0.865371 0
M  V30 1507 C 148.243 -1.10118 -1.29646 0
M  V30 1508 O 149.428 -1.38242 -1.36392 0
M  V30 1509 C 146.558 -2.74649 -2.12569 0
M  V30 1510 C 145.512 -3.86747 -1.83333 0
M  V30 1511 C 144.838 -4.31212 -3.16166 0
M  V30 1512 C 146.138 -5.10089 -1.1228 0
M  V30 1513 H 147.832 -2.97114 -0.369307 0
M  V30 1514 H 145.378 -1.42918 -0.176194 0
M  V30 1515 H 147.331 -3.14952 -2.7997 0
M  V30 1516 H 146.055 -1.91657 -2.64452 0
M  V30 1517 H 144.714 -3.46978 -1.18331 0
M  V30 1518 H 144.362 -3.45115 -3.6593 0
M  V30 1519 H 144.062 -5.06788 -2.97388 0
M  V30 1520 H 145.586 -4.74146 -3.84731 0
M  V30 1521 H 147 -5.47582 -1.69785 0
M  V30 1522 H 145.397 -5.91073 -1.03693 0
M  V30 1523 H 146.467 -4.84786 -0.105041 0
M  V30 1524 N 147.81 0.181792 -1.56548 0
M  V30 1525 C 149.058 0.89832 -1.81038 0
M  V30 1526 C 149.379 1.83232 -0.667164 0
M  V30 1527 O 148.649 1.93372 0.313673 0
M  V30 1528 H 147.229 0.33471 -0.667816 0
M  V30 1529 H 149.891 0.184116 -1.94028 0
M  V30 1530 H 148.987 1.4815 -2.74696 0
M  V30 1531 N 149.288 1.51039 0.449983 0
M  V30 1532 C 150.534 1.64287 1.19923 0
M  V30 1533 C 150.889 0.348701 1.89214 0
M  V30 1534 O 150.182 -0.654751 1.80065 0
M  V30 1535 C 150.376 2.77556 2.25161 0
M  V30 1536 C 150.205 4.17862 1.66198 0
M  V30 1537 C 148.975 4.83976 1.45243 0
M  V30 1538 C 151.173 5.01388 1.14519 0
M  V30 1539 N 149.155 6.08433 0.817437 0
M  V30 1540 C 150.526 6.16743 0.634705 0
M  V30 1541 C 152.581 4.87008 1.03574 0
M  V30 1542 C 151.284 7.19295 0.0255452 0
M  V30 1543 C 153.31 5.89757 0.440489 0
M  V30 1544 C 152.672 7.04375 -0.0595112 0
M  V30 1545 H 148.771 0.655161 0.426952 0
M  V30 1546 H 151.355 1.88228 0.49781 0
M  V30 1547 H 149.526 2.553 2.92706 0
M  V30 1548 H 151.258 2.80049 2.92155 0
M  V30 1549 H 148.013 4.41627 1.71063 0
M  V30 1550 H 148.437 6.75017 0.517747 0
M  V30 1551 H 153.079 3.9866 1.4082 0
M  V30 1552 H 150.797 8.07302 -0.359071 0
M  V30 1553 H 154.383 5.80698 0.35788 0
M  V30 1554 H 153.263 7.82521 -0.512882 0
M  V30 1555 N 150.766 -0.704594 1.40972 0
M  V30 1556 C 151.996 -1.49138 1.42974 0
M  V30 1557 C 152.404 -1.89175 0.0308406 0
M  V30 1558 O 151.747 -1.56734 -0.958138 0
M  V30 1559 C 151.809 -2.79016 2.26694 0
M  V30 1560 C 151.473 -2.61236 3.74973 0
M  V30 1561 C 152.47 -2.27773 4.67349 0
M  V30 1562 C 150.155 -2.77158 4.18914 0
M  V30 1563 C 152.149 -2.10457 6.01653 0
M  V30 1564 C 149.836 -2.59459 5.53285 0
M  V30 1565 C 150.834 -2.26158 6.4447 0
M  V30 1566 O 150.522 -2.08605 7.76363 0
M  V30 1567 H 150.254 -0.466443 0.489292 0
M  V30 1568 H 152.808 -0.8758 1.85793 0
M  V30 1569 H 151.038 -3.42947 1.78673 0
M  V30 1570 H 152.727 -3.40782 2.20504 0
M  V30 1571 H 153.493 -2.15095 4.34694 0
M  V30 1572 H 149.372 -3.02064 3.48251 0
M  V30 1573 H 152.916 -1.84387 6.72791 0
M  V30 1574 H 148.813 -2.71725 5.85522 0
M  V30 1575 H 149.581 -2.23439 7.87412 0
M  V30 1576 N 152.244 -1.26651 -0.937939 0
M  V30 1577 C 153.174 -1.10993 -2.05433 0
M  V30 1578 C 154.155 -0.0142161 -1.70094 0
M  V30 1579 O 155.34 -0.186837 -1.93299 0
M  V30 1580 C 152.47 -0.745561 -3.39203 0
M  V30 1581 C 151.424 -1.79337 -3.88616 0
M  V30 1582 C 150.75 -1.28324 -5.19073 0
M  V30 1583 C 152.05 -3.19553 -4.13138 0
M  V30 1584 H 153.744 -2.0438 -2.1879 0
M  V30 1585 H 151.29 -0.984041 -1.05131 0
M  V30 1586 H 153.243 -0.622888 -4.16771 0
M  V30 1587 H 151.967 0.22401 -3.25831 0
M  V30 1588 H 150.626 -1.90477 -3.13231 0
M  V30 1589 H 150.274 -0.303414 -5.02084 0
M  V30 1590 H 149.974 -1.98369 -5.53103 0
M  V30 1591 H 151.498 -1.1733 -5.99221 0
M  V30 1592 H 152.912 -3.11471 -4.81309 0
M  V30 1593 H 151.309 -3.87218 -4.58457 0
M  V30 1594 H 152.379 -3.65368 -3.18801 0
M  V30 1595 N 153.722 1.14298 -1.08507 0
M  V30 1596 C 154.947 1.8976 -0.837001 0
M  V30 1597 C 155.372 1.78097 0.605228 0
M  V30 1598 O 154.73 1.12188 1.4242 0
M  V30 1599 C 154.778 3.37685 -1.26495 0
M  V30 1600 O 153.882 4.10281 -0.417514 0
M  V30 1601 H 153.223 0.590365 -0.303917 0
M  V30 1602 H 155.753 1.44672 -1.44676 0
M  V30 1603 H 155.763 3.88501 -1.24625 0
M  V30 1604 H 154.438 3.45492 -2.31534 0
M  V30 1605 H 153.015 3.69536 -0.499722 0
M  V30 1606 N 155.201 0.870884 1.31352 0
M  V30 1607 C 156.133 0.28455 2.27427 0
M  V30 1608 C 157.146 -0.552927 1.53123 0
M  V30 1609 O 158.335 -0.374771 1.74521 0
M  V30 1610 C 155.435 -0.615164 3.3327 0
M  V30 1611 C 154.608 0.190079 4.36987 0
M  V30 1612 C 153.667 -0.637917 5.22319 0
M  V30 1613 O 152.693 -0.065626 5.69162 0
M  V30 1614 N 153.895 -1.94973 5.46778 0
M  V30 1615 H 156.66 1.11017 2.7838 0
M  V30 1616 H 154.221 0.732458 1.44384 0
M  V30 1617 H 156.213 -1.1748 3.87273 0
M  V30 1618 H 154.783 -1.34146 2.82354 0
M  V30 1619 H 154.003 0.931165 3.83044 0
M  V30 1620 H 155.291 0.742579 5.03352 0
M  V30 1621 H 154.689 -2.4378 5.10478 0
M  V30 1622 H 153.246 -2.45713 6.03712 0
M  V30 1623 N 156.679 -1.44442 0.630414 0
M  V30 1624 C 157.612 -2.27862 -0.124247 0
M  V30 1625 C 158.59 -1.38495 -0.851931 0
M  V30 1626 O 159.774 -1.67935 -0.856166 0
M  V30 1627 C 156.901 -3.17407 -1.18197 0
M  V30 1628 C 155.947 -4.22875 -0.554892 0
M  V30 1629 S 156.78 -5.31485 0.654489 0
M  V30 1630 C 157.936 -6.246 -0.40326 0
M  V30 1631 H 158.169 -2.91519 0.583435 0
M  V30 1632 H 155.702 -1.48618 0.418565 0
M  V30 1633 H 157.66 -3.69549 -1.78728 0
M  V30 1634 H 156.321 -2.52971 -1.86184 0
M  V30 1635 H 155.514 -4.85542 -1.35148 0
M  V30 1636 H 155.116 -3.73992 -0.0242105 0
M  V30 1637 H 157.408 -6.65375 -1.27602 0
M  V30 1638 H 158.351 -7.07851 0.187813 0
M  V30 1639 H 158.759 -5.59775 -0.728837 0
M  V30 1640 N 158.157 -0.370918 -1.53173 0
M  V30 1641 C 159.568 0.107139 -1.86392 0
M  V30 1642 C 159.919 1.47714 -1.29132 0
M  V30 1643 O 159.044 2.07464 -0.615439 0
M  V30 1644 C 159.639 0.201187 -3.38202 0
M  V30 1645 C 158.198 0.623507 -3.712 0
M  V30 1646 C 157.345 -0.225978 -2.76378 0
M  V30 1647 H 160.296 -0.58951 -1.47345 0
M  V30 1648 H 160.317 1.02377 -3.66468 0
M  V30 1649 H 159.829 -0.796058 -3.79848 0
M  V30 1650 H 157.93 1.62879 -3.35114 0
M  V30 1651 H 158.043 0.394414 -4.77474 0
M  V30 1652 H 156.407 0.305962 -2.52856 0
M  V30 1653 H 157.19 -1.22086 -3.20858 0
M  V30 1654 N 159.635 1.57281 -0.100228 0
M  V30 1655 C 160.882 1.94537 0.562268 0
M  V30 1656 C 161.21 0.982315 1.67871 0
M  V30 1657 O 160.465 0.00280936 1.957 0
M  V30 1658 C 160.764 3.38305 1.15259 0
M  V30 1659 C 160.43 4.50618 0.159409 0
M  V30 1660 C 159.092 4.81066 -0.113741 0
M  V30 1661 C 161.444 5.18615 -0.518461 0
M  V30 1662 C 158.772 5.76835 -1.07137 0
M  V30 1663 C 161.124 6.15412 -1.46459 0
M  V30 1664 C 159.788 6.44262 -1.74592 0
M  V30 1665 H 159.058 0.711863 0.205748 0
M  V30 1666 H 161.705 1.90679 -0.17715 0
M  V30 1667 H 160.01 3.38766 1.96836 0
M  V30 1668 H 161.707 3.64435 1.67297 0
M  V30 1669 H 158.297 4.2689 0.382491 0
M  V30 1670 H 162.481 4.95264 -0.320581 0
M  V30 1671 H 157.737 5.975 -1.29628 0
M  V30 1672 H 161.911 6.67194 -1.99564 0
M  V30 1673 H 159.538 7.1828 -2.48953 0
M  V30 1674 N 161.113 -0.173488 1.56642 0
M  V30 1675 C 162.338 -0.910149 1.86363 0
M  V30 1676 C 162.763 -1.75132 0.686318 0
M  V30 1677 O 162.121 -1.77595 -0.364643 0
M  V30 1678 C 162.169 -1.76447 3.14482 0
M  V30 1679 O 161.273 -2.86584 2.96553 0
M  V30 1680 H 160.614 -0.255086 0.613047 0
M  V30 1681 H 163.144 -0.172283 2.03873 0
M  V30 1682 H 163.154 -2.16483 3.45831 0
M  V30 1683 H 161.829 -1.14658 3.99783 0
M  V30 1684 H 160.406 -2.50146 2.76553 0
M  V30 1685 N 162.591 -1.51276 -0.441967 0
M  V30 1686 C 163.837 -1.6492 -1.1905 0
M  V30 1687 C 164.192 -0.358731 -1.89026 0
M  V30 1688 O 163.485 0.645193 -1.8041 0
M  V30 1689 C 163.679 -2.78746 -2.23686 0
M  V30 1690 C 163.508 -4.18737 -1.63979 0
M  V30 1691 C 162.278 -4.84739 -1.42674 0
M  V30 1692 C 164.476 -5.01988 -1.11858 0
M  V30 1693 N 162.458 -6.08858 -0.785159 0
M  V30 1694 C 163.829 -6.17071 -0.601989 0
M  V30 1695 C 165.884 -4.87551 -1.0099 0
M  V30 1696 C 164.587 -7.19299 0.0126012 0
M  V30 1697 C 166.613 -5.89983 -0.409206 0
M  V30 1698 C 165.975 -7.04333 0.0968651 0
M  V30 1699 H 162.074 -0.657416 -0.423471 0
M  V30 1700 H 164.658 -1.8849 -0.48782 0
M  V30 1701 H 162.829 -2.56848 -2.91348 0
M  V30 1702 H 164.561 -2.81595 -2.90666 0
M  V30 1703 H 161.316 -4.42528 -1.68719 0
M  V30 1704 H 161.74 -6.75282 -0.481942 0
M  V30 1705 H 166.382 -3.99401 -1.38703 0
M  V30 1706 H 164.1 -8.071 0.401879 0
M  V30 1707 H 167.686 -5.8088 -0.327079 0
M  V30 1708 H 166.566 -7.82238 0.554373 0
M  V30 1709 N 164.069 0.697108 -1.41344 0
M  V30 1710 C 165.48 1.27697 -1.36199 0
M  V30 1711 C 165.831 1.9615 -0.0443463 0
M  V30 1712 O 164.956 1.98689 0.857419 0
M  V30 1713 C 165.551 2.32223 -2.46694 0
M  V30 1714 C 164.11 2.8579 -2.44952 0
M  V30 1715 C 163.257 1.59807 -2.26621 0
M  V30 1716 H 166.208 0.491968 -1.50882 0
M  V30 1717 H 166.229 3.1348 -2.15664 0
M  V30 1718 H 165.741 1.82373 -3.42581 0
M  V30 1719 H 163.842 3.3982 -1.52817 0
M  V30 1720 H 163.955 3.36325 -3.41207 0
M  V30 1721 H 162.319 1.8556 -1.7447 0
M  V30 1722 H 163.102 1.11956 -3.24532 0
M  V30 1723 N 165.547 1.27147 0.931209 0
M  V30 1724 C 166.497 1.06227 2.01742 0
M  V30 1725 C 167.481 -0.00859065 1.60898 0
M  V30 1726 O 168.673 0.209537 1.75755 0
M  V30 1727 C 165.802 0.707787 3.35924 0
M  V30 1728 C 164.888 1.81661 3.83223 0
M  V30 1729 N 165.279 3.05564 4.03069 0
M  V30 1730 C 163.577 1.70249 4.12227 0
M  V30 1731 C 164.278 3.77697 4.42403 0
M  V30 1732 N 163.254 3.0544 4.49675 0
M  V30 1733 H 167.056 2.00261 2.15111 0
M  V30 1734 H 164.57 1.1781 1.11779 0
M  V30 1735 H 166.567 0.539043 4.134 0
M  V30 1736 H 165.227 -0.224964 3.2392 0
M  V30 1737 H 166.238 3.41363 3.89476 0
M  V30 1738 H 162.915 0.840329 4.08956 0
M  V30 1739 H 164.305 4.84168 4.65866 0
M  V30 1740 N 167.025 -1.13721 1.09112 0
M  V30 1741 C 167.957 -2.1871 0.685467 0
M  V30 1742 C 168.97 -1.60527 -0.271068 0
M  V30 1743 O 170.159 -1.78407 -0.0576148 0
M  V30 1744 C 167.259 -3.38898 -0.0111255 0
M  V30 1745 C 166.432 -4.26597 0.966131 0
M  V30 1746 C 165.491 -5.25324 0.303539 0
M  V30 1747 O 164.517 -5.61213 0.950177 0
M  V30 1748 N 165.719 -5.72779 -0.943651 0
M  V30 1749 H 168.484 -2.54126 1.58871 0
M  V30 1750 H 166.045 -1.29012 0.978143 0
M  V30 1751 H 168.037 -4.02014 -0.465517 0
M  V30 1752 H 166.607 -3.01747 -0.816565 0
M  V30 1753 H 165.827 -3.60306 1.59917 0
M  V30 1754 H 167.115 -4.82048 1.6281 0
M  V30 1755 H 166.513 -5.45762 -1.48862 0
M  V30 1756 H 165.07 -6.37847 -1.34142 0
M  V30 1757 N 168.503 -0.877838 -1.30888 0
M  V30 1758 C 169.433 -0.35534 -2.3078 0
M  V30 1759 C 170.414 0.557994 -1.60687 0
M  V30 1760 O 171.599 0.473355 -1.88343 0
M  V30 1761 C 168.729 0.437221 -3.44537 0
M  V30 1762 C 167.683 -0.383715 -4.26276 0
M  V30 1763 C 167.009 0.535014 -5.32017 0
M  V30 1764 C 168.309 -1.62201 -4.96476 0
M  V30 1765 H 170.003 -1.19007 -2.74732 0
M  V30 1766 H 167.549 -0.573698 -1.32078 0
M  V30 1767 H 169.502 0.813334 -4.13477 0
M  V30 1768 H 168.226 1.30553 -2.99372 0
M  V30 1769 H 166.885 -0.741874 -3.59015 0
M  V30 1770 H 166.533 1.40083 -4.831 0
M  V30 1771 H 166.233 -0.0104211 -5.87599 0
M  V30 1772 H 167.757 0.907799 -6.03814 0
M  V30 1773 H 169.171 -1.31689 -5.5797 0
M  V30 1774 H 167.568 -2.10711 -5.61891 0
M  V30 1775 H 168.638 -2.37044 -4.23011 0
M  V30 1776 N 169.982 1.44106 -0.638065 0
M  V30 1777 C 171.21 2.06336 -0.152615 0
M  V30 1778 C 171.625 1.47731 1.17563 0
M  V30 1779 O 170.982 0.602806 1.72257 0
M  V30 1780 C 171.033 3.61479 -0.0391491 0
M  V30 1781 O 170.754 4.17903 -1.31487 0
M  V30 1782 C 172.255 4.40757 0.474176 0
M  V30 1783 H 169.475 0.665862 -0.0828776 0
M  V30 1784 H 172.019 1.84862 -0.87443 0
M  V30 1785 H 170.174 3.82191 0.633142 0
M  V30 1786 H 170.588 5.11416 -1.16421 0
M  V30 1787 H 172.062 5.49707 0.502562 0
M  V30 1788 H 172.539 4.12697 1.50258 0
M  V30 1789 H 173.145 4.24979 -0.165102 0
M  V30 1790 N 171.46 0.379036 1.52974 0
M  V30 1791 C 172.706 -0.206727 2.01744 0
M  V30 1792 C 173.039 -1.47314 1.26539 0
M  V30 1793 O 172.314 -1.91084 0.362903 0
M  V30 1794 C 172.597 -0.485066 3.56818 0
M  V30 1795 C 172.45 0.795919 4.42702 0
M  V30 1796 C 173.769 -1.28003 4.21074 0
M  V30 1797 H 170.888 -0.0736607 0.73331 0
M  V30 1798 H 173.53 0.506581 1.83122 0
M  V30 1799 H 171.68 -1.09272 3.72816 0
M  V30 1800 H 173.352 1.43307 4.38476 0
M  V30 1801 H 171.595 1.41344 4.10127 0
M  V30 1802 H 172.266 0.555947 5.49193 0
M  V30 1803 H 174.742 -0.765867 4.08991 0
M  V30 1804 H 173.618 -1.44352 5.29579 0
M  V30 1805 H 173.879 -2.29236 3.78026 0
M  V30 1806 N 172.938 -1.57226 0.108567 0
M  V30 1807 C 173.848 -2.18292 -0.859401 0
M  V30 1808 C 174.864 -1.15612 -1.30038 0
M  V30 1809 O 176.04 -1.48039 -1.36552 0
M  V30 1810 C 173.105 -2.762 -2.09558 0
M  V30 1811 C 172.166 -3.93881 -1.70752 0
M  V30 1812 C 171.399 -4.49018 -2.88477 0
M  V30 1813 O 171.622 -4.03068 -4.036 0
M  V30 1814 O 170.556 -5.39852 -2.66164 0
M  V30 1815 H 174.382 -3.01441 -0.369769 0
M  V30 1816 H 171.967 -1.48945 -0.1165 0
M  V30 1817 H 173.849 -3.13156 -2.81978 0
M  V30 1818 H 172.524 -1.96089 -2.57548 0
M  V30 1819 H 171.431 -3.61713 -0.954714 0
M  V30 1820 H 172.764 -4.75396 -1.27513 0
M  V30 1821 N 174.416 0.165178 -1.56732 0
M  V30 1822 C 175.363 1.2044 -1.96883 0
M  V30 1823 C 176.333 1.43664 -0.833657 0
M  V30 1824 O 177.518 1.56302 -1.09427 0
M  V30 1825 C 174.658 2.53727 -2.33916 0
M  V30 1826 C 173.771 2.3783 -3.6064 0
M  V30 1827 C 172.906 3.64026 -3.86857 0
M  V30 1828 C 171.945 3.43088 -5.06909 0
M  V30 1829 N 171.082 4.61369 -5.29229 0
M  V30 1830 H 175.922 0.854996 -2.85471 0
M  V30 1831 H 173.459 0.41076 -1.41249 0
M  V30 1832 H 175.417 3.31419 -2.53411 0
M  V30 1833 H 174.047 2.8665 -1.48431 0
M  V30 1834 H 173.099 1.51282 -3.49024 0
M  V30 1835 H 174.411 2.18308 -4.4849 0
M  V30 1836 H 173.565 4.50152 -4.06753 0
M  V30 1837 H 172.304 3.86533 -2.97394 0
M  V30 1838 H 171.309 2.55349 -4.86906 0
M  V30 1839 H 172.534 3.21997 -5.97909 0
M  V30 1840 H 170.48 4.84084 -4.42718 0
M  V30 1841 H 170.397 4.44783 -6.11313 0
M  V30 1842 H 171.665 5.48761 -5.53608 0
M  V30 1843 N 175.894 1.51508 0.433938 0
M  V30 1844 C 177.122 1.68157 1.20543 0
M  V30 1845 C 177.537 0.380362 1.84929 0
M  V30 1846 O 176.894 -0.641446 1.70856 0
M  V30 1847 C 176.945 2.79965 2.28696 0
M  V30 1848 O 176.666 4.05045 1.66943 0
M  V30 1849 C 178.167 3.07912 3.18912 0
M  V30 1850 H 175.387 0.56421 0.363191 0
M  V30 1851 H 177.931 1.97941 0.513754 0
M  V30 1852 H 176.086 2.5277 2.93574 0
M  V30 1853 H 176.5 4.67165 2.38448 0
M  V30 1854 H 177.974 3.89719 3.90926 0
M  V30 1855 H 178.451 2.20456 3.79863 0
M  V30 1856 H 179.057 3.36779 2.59731 0
M  V30 1857 N 177.372 -0.689602 1.41712 0
M  V30 1858 C 178.783 -1.26973 1.36875 0
M  V30 1859 C 179.134 -1.96124 0.054748 0
M  V30 1860 O 178.259 -1.99141 -0.84687 0
M  V30 1861 C 178.854 -2.30912 2.47922 0
M  V30 1862 C 177.413 -2.84486 2.46464 0
M  V30 1863 C 176.56 -1.58603 2.27465 0
M  V30 1864 H 179.511 -0.48396 1.51141 0
M  V30 1865 H 179.532 -3.12331 2.17323 0
M  V30 1866 H 179.044 -1.80554 3.43543 0
M  V30 1867 H 177.145 -3.39005 1.54617 0
M  V30 1868 H 177.258 -3.34511 3.42986 0
M  V30 1869 H 175.622 -1.84632 1.75451 0
M  V30 1870 H 176.405 -1.10233 3.25121 0
M  V30 1871 N 178.85 -1.27639 -0.924453 0
M  V30 1872 C 179.813 -1.10681 -2.00705 0
M  V30 1873 C 180.813 -0.0497823 -1.60723 0
M  V30 1874 O 182.003 -0.294654 -1.7169 0
M  V30 1875 C 179.135 -0.687164 -3.33902 0
M  V30 1876 H 180.328 -2.06817 -2.17179 0
M  V30 1877 H 177.881 -1.10473 -1.10569 0
M  V30 1878 H 178.616 0.275439 -3.23128 0
M  V30 1879 H 178.401 -1.45061 -3.6428 0
M  V30 1880 H 179.891 -0.590853 -4.13399 0
M  V30 1881 N 180.328 1.1314 -1.09713 0
M  V30 1882 C 181.558 1.88048 -0.855656 0
M  V30 1883 C 181.966 1.79537 0.596919 0
M  V30 1884 O 181.309 1.16196 1.42282 0
M  V30 1885 C 181.371 3.38314 -1.21589 0
M  V30 1886 C 181.035 3.70605 -2.67397 0
M  V30 1887 C 182.032 3.69596 -3.65643 0
M  V30 1888 C 179.717 4.0017 -3.03593 0
M  V30 1889 C 181.711 3.977 -4.9811 0
M  V30 1890 C 179.398 4.27935 -4.36251 0
M  V30 1891 C 180.396 4.26685 -5.33318 0
M  V30 1892 O 180.084 4.53767 -6.63589 0
M  V30 1893 H 179.816 0.60208 -0.307368 0
M  V30 1894 H 182.37 1.44128 -1.46343 0
M  V30 1895 H 180.6 3.82752 -0.551177 0
M  V30 1896 H 182.289 3.94552 -0.953083 0
M  V30 1897 H 183.055 3.46826 -3.39023 0
M  V30 1898 H 178.934 4.00289 -2.2867 0
M  V30 1899 H 182.478 3.9664 -5.73866 0
M  V30 1900 H 178.375 4.50178 -4.62613 0
M  V30 1901 H 179.143 4.71422 -6.69107 0
M  V30 1902 N 181.806 0.884767 1.30421 0
M  V30 1903 C 183.053 0.503105 1.96151 0
M  V30 1904 C 183.381 -0.947676 1.69851 0
M  V30 1905 O 182.636 -1.68467 0.995861 0
M  V30 1906 C 182.935 0.724318 3.49983 0
M  V30 1907 C 182.601 2.15015 3.96332 0
M  V30 1908 C 181.263 2.54005 4.08699 0
M  V30 1909 C 183.615 3.07936 4.20505 0
M  V30 1910 C 180.943 3.85128 4.42599 0
M  V30 1911 C 183.295 4.3859 4.55874 0
M  V30 1912 C 181.959 4.77474 4.66449 0
M  V30 1913 H 181.229 0.184099 0.717766 0
M  V30 1914 H 183.876 1.12058 1.55291 0
M  V30 1915 H 182.181 0.0238086 3.91793 0
M  V30 1916 H 183.878 0.408617 3.98913 0
M  V30 1917 H 180.468 1.8375 3.87213 0
M  V30 1918 H 184.652 2.79033 4.10431 0
M  V30 1919 H 179.908 4.14996 4.48986 0
M  V30 1920 H 184.082 5.10629 4.7353 0
M  V30 1921 H 181.709 5.79115 4.92473 0
M  V30 1922 N 183.284 -1.43765 0.645699 0
M  V30 1923 C 184.512 -2.06253 0.163556 0
M  V30 1924 C 184.927 -1.48352 -1.16778 0
M  V30 1925 O 184.284 -0.611932 -1.71935 0
M  V30 1926 C 184.335 -3.61453 0.0583186 0
M  V30 1927 O 184.056 -4.172 1.33702 0
M  V30 1928 C 185.557 -4.41002 -0.450795 0
M  V30 1929 H 182.777 -0.665413 0.0864077 0
M  V30 1930 H 185.321 -1.84396 0.884222 0
M  V30 1931 H 183.476 -3.82522 -0.612865 0
M  V30 1932 H 183.89 -5.10791 1.19131 0
M  V30 1933 H 185.364 -5.49966 -0.473403 0
M  V30 1934 H 185.841 -4.13488 -1.48068 0
M  V30 1935 H 186.447 -4.24886 0.187637 0
M  V30 1936 N 184.763 -0.387143 -1.52771 0
M  V30 1937 C 185.988 0.198407 -2.06449 0
M  V30 1938 C 186.413 1.39918 -1.25716 0
M  V30 1939 O 185.771 1.79099 -0.281657 0
M  V30 1940 C 185.819 0.548893 -3.56398 0
M  V30 1941 O 184.923 1.64315 -3.78252 0
M  V30 1942 H 184.264 0.0237731 -0.663574 0
M  V30 1943 H 186.794 -0.553989 -1.96957 0
M  V30 1944 H 186.804 0.813812 -3.99801 0
M  V30 1945 H 185.479 -0.329005 -4.14597 0
M  V30 1946 H 184.056 1.37211 -3.46738 0
M  V30 1947 N 186.241 1.57166 -0.116904 0
M  V30 1948 C 187.652 1.82169 0.408809 0
M  V30 1949 C 188.003 1.03393 1.66746 0
M  V30 1950 O 187.128 0.269886 2.1471 0
M  V30 1951 C 187.723 3.30429 0.748466 0
M  V30 1952 C 186.282 3.5612 1.21882 0
M  V30 1953 C 185.429 2.76374 0.226452 0
M  V30 1954 H 188.38 1.5497 -0.342063 0
M  V30 1955 H 188.401 3.44943 1.60607 0
M  V30 1956 H 187.913 3.87737 -0.167784 0
M  V30 1957 H 186.014 3.04168 2.15204 0
M  V30 1958 H 186.127 4.64705 1.16559 0
M  V30 1959 H 184.491 2.44515 0.713063 0
M  V30 1960 H 185.274 3.3644 -0.682859 0
M  V30 1961 N 187.719 -0.156864 1.56817 0
M  V30 1962 C 188.666 -1.19394 1.97519 0
M  V30 1963 C 189.636 -1.4322 0.841265 0
M  V30 1964 O 190.821 -1.55719 1.10255 0
M  V30 1965 C 187.961 -2.52483 2.35258 0
M  V30 1966 C 187.074 -2.35914 3.61896 0
M  V30 1967 C 186.209 -3.61969 3.88782 0
M  V30 1968 C 185.248 -3.40395 5.08722 0
M  V30 1969 N 184.385 -4.58556 5.31668 0
M  V30 1970 H 189.225 -0.839845 2.85921 0
M  V30 1971 H 186.762 -0.403264 1.41464 0
M  V30 1972 H 188.72 -3.30071 2.55165 0
M  V30 1973 H 187.35 -2.85859 1.49949 0
M  V30 1974 H 186.402 -1.49429 3.49821 0
M  V30 1975 H 187.714 -2.15926 4.49641 0
M  V30 1976 H 186.868 -4.47989 4.09135 0
M  V30 1977 H 185.607 -3.84951 2.9944 0
M  V30 1978 H 184.612 -2.52763 4.88253 0
M  V30 1979 H 185.837 -3.18822 5.99608 0
M  V30 1980 H 183.783 -4.81729 4.45279 0
M  V30 1981 H 183.7 -4.41535 6.13664 0
M  V30 1982 H 184.968 -5.45817 5.5651 0
M  V30 1983 N 189.197 -1.51736 -0.425897 0
M  V30 1984 C 190.443 -1.65214 -1.1761 0
M  V30 1985 C 190.776 -0.372778 -1.90589 0
M  V30 1986 O 190.051 0.628139 -1.84078 0
M  V30 1987 C 190.334 -2.86312 -2.18398 0
M  V30 1988 C 190.187 -4.24254 -1.49426 0
M  V30 1989 C 191.506 -3.02925 -3.19256 0
M  V30 1990 H 188.625 -0.601263 -0.426206 0
M  V30 1991 H 191.267 -1.8425 -0.463882 0
M  V30 1992 H 189.417 -2.70213 -2.79137 0
M  V30 1993 H 191.089 -4.52046 -0.919362 0
M  V30 1994 H 189.332 -4.26426 -0.796432 0
M  V30 1995 H 190.003 -5.05001 -2.22885 0
M  V30 1996 H 192.479 -3.1781 -2.68581 0
M  V30 1997 H 191.355 -3.89199 -3.8706 0
M  V30 1998 H 191.616 -2.15497 -3.86023 0
M  V30 1999 N 190.675 0.682077 -1.42076 0
M  V30 2000 C 192.086 1.26246 -1.37546 0
M  V30 2001 C 192.437 1.96092 -0.0651481 0
M  V30 2002 O 191.562 1.99587 0.836297 0
M  V30 2003 C 192.157 2.29594 -2.49143 0
M  V30 2004 C 190.716 2.83175 -2.47969 0
M  V30 2005 C 189.863 1.57395 -2.28303 0
M  V30 2006 H 192.814 0.475937 -1.51395 0
M  V30 2007 H 192.835 3.11175 -2.18976 0
M  V30 2008 H 192.347 1.78729 -3.44496 0
M  V30 2009 H 190.448 3.3818 -1.56413 0
M  V30 2010 H 190.561 3.32687 -3.44755 0
M  V30 2011 H 188.925 1.83699 -1.76428 0
M  V30 2012 H 189.708 1.08507 -3.25701 0
M  V30 2013 N 192.153 1.28127 0.917671 0
M  V30 2014 C 193.063 1.13556 2.05286 0
M  V30 2015 C 194.079 0.0630914 1.73886 0
M  V30 2016 O 195.255 0.271598 1.9956 0
M  V30 2017 C 192.32 0.794676 3.3747 0
M  V30 2018 C 191.381 1.94909 3.82504 0
M  V30 2019 C 190.614 1.62437 5.0838 0
M  V30 2020 O 190.837 0.536905 5.67867 0
M  V30 2021 O 189.771 2.46677 5.4903 0
M  V30 2022 H 193.597 2.08844 2.20495 0
M  V30 2023 H 191.182 1.07409 1.03845 0
M  V30 2024 H 193.064 0.618344 4.16839 0
M  V30 2025 H 191.739 -0.128581 3.23445 0
M  V30 2026 H 190.646 2.18055 3.03978 0
M  V30 2027 H 191.979 2.85291 4.01086 0
M  V30 2028 N 193.631 -1.12557 1.10312 0
M  V30 2029 C 195.047 -1.36036 0.834649 0
M  V30 2030 C 195.247 -1.93946 -0.546539 0
M  V30 2031 O 194.303 -2.16484 -1.29966 0
M  V30 2032 C 195.616 -2.30312 1.9333 0
M  V30 2033 C 197.164 -2.43906 1.9616 0
M  V30 2034 C 197.639 -3.41496 3.05195 0
M  V30 2035 N 199.13 -3.49053 3.04494 0
M  V30 2036 C 199.865 -4.24471 3.85502 0
M  V30 2037 N 199.361 -5.02966 4.76442 0
M  V30 2038 N 201.154 -4.19864 3.73725 0
M  V30 2039 H 193.305 -0.733246 1.99342 0
M  V30 2040 H 195.568 -0.385234 0.866198 0
M  V30 2041 H 195.274 -1.94933 2.92735 0
M  V30 2042 H 195.148 -3.30421 1.81939 0
M  V30 2043 H 197.535 -2.78567 0.973886 0
M  V30 2044 H 197.616 -1.4369 2.11629 0
M  V30 2045 H 197.26 -3.07565 4.04186 0
M  V30 2046 H 197.19 -4.41539 2.86968 0
M  V30 2047 H 199.681 -2.93053 2.38596 0
M  V30 2048 H 199.994 -5.57846 5.34815 0
M  V30 2049 H 198.339 -5.02167 4.80472 0
M  V30 2050 H 201.53 -3.57623 3.02032 0
M  V30 2051 H 201.703 -4.78386 4.37093 0
M  V30 2052 N 195.109 -0.891671 -1.2995 0
M  V30 2053 C 196.355 -0.514261 -1.96171 0
M  V30 2054 C 196.688 0.935506 -1.70182 0
M  V30 2055 O 195.963 1.66204 -1.01028 0
M  V30 2056 C 196.246 -0.797719 -3.51153 0
M  V30 2057 C 196.099 -2.2986 -3.86632 0
M  V30 2058 C 197.418 -0.278749 -4.39216 0
M  V30 2059 H 194.537 -0.188314 -0.712535 0
M  V30 2060 H 197.179 -1.11689 -1.53706 0
M  V30 2061 H 195.329 -0.284826 -3.87455 0
M  V30 2062 H 197.001 -2.88042 -3.60319 0
M  V30 2063 H 195.244 -2.76257 -3.34462 0
M  V30 2064 H 195.915 -2.44753 -4.94773 0
M  V30 2065 H 198.391 -0.717825 -4.09862 0
M  V30 2066 H 197.267 -0.506353 -5.46559 0
M  V30 2067 H 197.528 0.820266 -4.34424 0
M  V30 2068 N 196.587 1.43421 -0.653314 0
M  V30 2069 C 197.817 2.05864 -0.174238 0
M  V30 2070 C 198.225 1.49052 1.16534 0
M  V30 2071 O 197.568 0.616481 1.73047 0
M  V30 2072 C 197.63 3.59499 -0.00875873 0
M  V30 2073 C 197.294 4.38893 -1.27364 0
M  V30 2074 C 198.291 4.70947 -2.20239 0
M  V30 2075 C 195.976 4.789 -1.51525 0
M  V30 2076 C 197.97 5.41916 -3.35568 0
M  V30 2077 C 195.657 5.49614 -2.67147 0
M  V30 2078 C 196.655 5.81044 -3.58994 0
M  V30 2079 O 196.343 6.50313 -4.72597 0
M  V30 2080 H 196.075 0.670345 -0.0872549 0
M  V30 2081 H 198.629 1.84913 -0.894226 0
M  V30 2082 H 196.859 3.79025 0.7666 0
M  V30 2083 H 198.548 4.0364 0.427687 0
M  V30 2084 H 199.314 4.40558 -2.02815 0
M  V30 2085 H 195.193 4.53843 -0.809158 0
M  V30 2086 H 198.737 5.66365 -4.07279 0
M  V30 2087 H 194.634 5.79419 -2.84505 0
M  V30 2088 H 195.402 6.68795 -4.71864 0
M  V30 2089 N 198.065 0.39524 1.52563 0
M  V30 2090 C 199.29 -0.187456 2.06551 0
M  V30 2091 C 199.715 -1.39249 1.26457 0
M  V30 2092 O 199.073 -1.78947 0.291151 0
M  V30 2093 C 199.121 -0.529985 3.56684 0
M  V30 2094 O 198.225 -1.62307 3.79118 0
M  V30 2095 H 197.566 -0.0202537 0.663691 0
M  V30 2096 H 200.096 0.564426 1.96661 0
M  V30 2097 H 200.106 -0.792598 4.00227 0
M  V30 2098 H 198.781 0.350987 4.14416 0
M  V30 2099 H 197.358 -1.3537 3.47461 0
M  V30 2100 N 199.544 -1.57102 0.125237 0
M  V30 2101 C 200.477 -2.11371 -0.860094 0
M  V30 2102 C 201.455 -1.03168 -1.25679 0
M  V30 2103 O 202.639 -1.30862 -1.35674 0
M  V30 2104 C 199.766 -2.61555 -2.1519 0
M  V30 2105 C 198.812 -3.81701 -1.9028 0
M  V30 2106 S 199.645 -5.23797 -1.11343 0
M  V30 2107 C 200.801 -5.77353 -2.41689 0
M  V30 2108 H 201.034 -2.94617 -0.39852 0
M  V30 2109 H 198.567 -1.54145 -0.0886555 0
M  V30 2110 H 200.525 -2.91122 -2.89411 0
M  V30 2111 H 199.186 -1.78479 -2.58465 0
M  V30 2112 H 198.379 -4.14985 -2.86014 0
M  V30 2113 H 197.981 -3.52783 -1.24178 0
M  V30 2114 H 200.273 -5.87458 -3.37489 0
M  V30 2115 H 201.216 -6.75323 -2.12942 0
M  V30 2116 H 201.624 -5.05457 -2.51342 0
M  V30 2117 N 201.022 0.148545 -1.56898 0
M  V30 2118 C 201.97 1.20265 -1.99096 0
M  V30 2119 C 202.964 1.44559 -0.883123 0
M  V30 2120 O 204.17 1.4487 -1.0683 0
M  V30 2121 H 200.545 0.404786 -0.63376 0
M  V30 2122 H 202.516 0.82004 -2.86911 0
M  V30 2123 C 201.265 2.52886 -2.3863 0
M  V30 2124 H 200.588 2.35021 -3.23427 0
M  V30 2125 H 202.028 3.25274 -2.7198 0
M  V30 2126 C 200.487 3.13315 -1.23837 0
M  V30 2127 O 201.017 3.98077 -0.538268 0
M  V30 2128 N 199.223 2.72742 -1.00301 0
M  V30 2129 H 198.77 2.03912 -1.5741 0
M  V30 2130 H 198.728 3.13507 -0.236838 0
M  V30 2131 N 202.5 1.5196 0.417844 0
M  V30 2132 C 203.911 1.57851 0.997 0
M  V30 2133 C 204.262 0.413714 1.91789 0
M  V30 2134 O 203.387 -0.467057 2.113 0
M  V30 2135 C 203.982 2.86085 1.81496 0
M  V30 2136 C 202.541 2.94483 2.34428 0
M  V30 2137 C 201.688 2.52707 1.14169 0
M  V30 2138 H 204.639 1.57455 0.198392 0
M  V30 2139 H 204.66 2.70947 2.67148 0
M  V30 2140 H 204.172 3.70842 1.14446 0
M  V30 2141 H 202.273 2.142 3.04875 0
M  V30 2142 H 202.386 3.98546 2.65891 0
M  V30 2143 H 200.75 2.06353 1.49301 0
M  V30 2144 H 201.533 3.39828 0.486999 0
M  V30 2145 N 203.978 -0.674533 1.42435 0
M  V30 2146 C 205.203 -1.46784 1.46524 0
M  V30 2147 C 205.628 -1.87938 0.078066 0
M  V30 2148 O 204.986 -1.56014 -0.92354 0
M  V30 2149 C 205.034 -2.69307 2.39805 0
M  V30 2150 O 204.138 -3.67587 1.86959 0
M  V30 2151 H 203.479 -0.440959 0.496439 0
M  V30 2152 H 206.009 -0.827326 1.87127 0
M  V30 2153 H 206.019 -3.17374 2.56393 0
M  V30 2154 H 204.694 -2.38692 3.40586 0
M  V30 2155 H 203.271 -3.2662 1.79927 0
M  V30 2156 N 205.456 -1.28612 -0.910864 0
M  V30 2157 C 206.705 -1.15311 -1.65488 0
M  V30 2158 C 207.018 0.296999 -1.93332 0
M  V30 2159 O 208.224 0.551168 -2.65847 0
M  V30 2160 C 206.68 -2.01599 -2.98137 0
M  V30 2161 C 206.288 -3.51367 -2.7793 0
M  V30 2162 C 208.032 -1.96993 -3.76024 0
M  V30 2163 C 205.939 -4.29797 -4.06237 0
M  V30 2164 H 204.869 -0.42796 -0.620779 0
M  V30 2165 H 207.52 -1.53166 -1.01057 0
M  V30 2166 H 205.902 -1.56603 -3.63719 0
M  V30 2167 H 207.076 -4.0434 -2.21011 0
M  V30 2168 H 205.391 -3.57529 -2.13452 0
M  V30 2169 H 207.988 -2.52856 -4.71135 0
M  V30 2170 H 208.331 -0.94733 -4.05378 0
M  V30 2171 H 208.864 -2.39973 -3.17266 0
M  V30 2172 H 205.603 -5.32648 -3.82055 0
M  V30 2173 H 205.123 -3.81596 -4.62757 0
M  V30 2174 H 206.802 -4.39869 -4.74473 0
M  V30 2175 N 206.934 1.1197 -1.10907 0
M  V30 2176 C 208.35 1.35591 -0.841852 0
M  V30 2177 C 208.55 1.94233 0.536246 0
M  V30 2178 O 207.606 2.1717 1.28816 0
M  V30 2179 C 208.919 2.29284 -1.94549 0
M  V30 2180 C 210.467 2.42862 -1.97451 0
M  V30 2181 C 210.942 3.39873 -3.07002 0
M  V30 2182 N 212.433 3.47433 -3.06341 0
M  V30 2183 C 213.168 4.22421 -3.87748 0
M  V30 2184 N 212.664 5.00432 -4.79103 0
M  V30 2185 N 214.457 4.17876 -3.75946 0
M  V30 2186 H 206.608 0.722664 -1.99728 0
M  V30 2187 H 208.871 0.380635 -0.868229 0
M  V30 2188 H 208.577 1.93378 -2.93765 0
M  V30 2189 H 208.451 3.29452 -1.83688 0
M  V30 2190 H 210.838 2.78046 -0.988645 0
M  V30 2191 H 210.919 1.42566 -2.12388 0
M  V30 2192 H 210.563 3.05417 -4.05811 0
M  V30 2193 H 210.493 4.40011 -2.89306 0
M  V30 2194 H 212.984 2.91784 -2.40147 0
M  V30 2195 H 213.297 5.55002 -5.37766 0
M  V30 2196 H 211.642 4.99612 -4.83128 0
M  V30 2197 H 214.833 3.56016 -3.03924 0
M  V30 2198 H 215.006 4.76061 -4.39624 0
M  V30 2199 N 208.412 0.89855 1.29475 0
M  V30 2200 C 209.342 0.39201 2.30186 0
M  V30 2201 C 210.323 -0.532359 1.61555 0
M  V30 2202 O 211.508 -0.443331 1.89072 0
M  V30 2203 C 208.638 -0.382353 3.45189 0
M  V30 2204 C 207.592 0.451483 4.25612 0
M  V30 2205 C 206.918 -0.450307 5.328 0
M  V30 2206 C 208.218 1.70079 4.93832 0
M  V30 2207 H 209.912 1.23362 2.72804 0
M  V30 2208 H 207.458 0.594638 1.31149 0
M  V30 2209 H 209.411 -0.747451 4.14718 0
M  V30 2210 H 208.135 -1.25774 3.01411 0
M  V30 2211 H 206.794 0.798897 3.57789 0
M  V30 2212 H 206.442 -1.32379 4.85268 0
M  V30 2213 H 206.142 0.103902 5.87508 0
M  V30 2214 H 207.666 -0.811623 6.05182 0
M  V30 2215 H 209.08 1.40549 5.55805 0
M  V30 2216 H 207.477 2.19623 5.58467 0
M  V30 2217 H 208.547 2.43744 4.19186 0
M  V30 2218 N 209.89 -1.43072 0.660911 0
M  V30 2219 C 210.82 -2.33497 -0.0122829 0
M  V30 2220 C 211.801 -1.49903 -0.803925 0
M  V30 2221 O 212.986 -1.78546 -0.763864 0
M  V30 2222 C 210.116 -3.33363 -0.973994 0
M  V30 2223 C 209.07 -4.27003 -0.291928 0
M  V30 2224 C 208.396 -5.16967 -1.36562 0
M  V30 2225 C 209.696 -5.15816 0.820462 0
M  V30 2226 H 211.39 -2.90038 0.742873 0
M  V30 2227 H 208.936 -1.39461 0.358688 0
M  V30 2228 H 210.889 -3.95524 -1.45392 0
M  V30 2229 H 209.613 -2.75095 -1.7604 0
M  V30 2230 H 208.272 -3.66217 0.167623 0
M  V30 2231 H 207.92 -4.55034 -2.14366 0
M  V30 2232 H 207.62 -5.80441 -0.914454 0
M  V30 2233 H 209.144 -5.82003 -1.84675 0
M  V30 2234 H 210.558 -5.71742 0.422366 0
M  V30 2235 H 208.955 -5.8805 1.19656 0
M  V30 2236 H 210.025 -4.55045 1.67518 0
M  V30 2237 N 211.368 -0.403325 -1.52352 0
M  V30 2238 C 212.298 0.416205 -2.29761 0
M  V30 2239 C 213.279 1.05123 -1.33728 0
M  V30 2240 O 214.464 1.06134 -1.62632 0
M  V30 2241 C 211.594 1.53624 -3.11475 0
M  V30 2242 C 210.548 1.02653 -4.15507 0
M  V30 2243 C 209.874 2.23971 -4.85532 0
M  V30 2244 C 211.174 0.08463 -5.22231 0
M  V30 2245 H 212.868 -0.229701 -2.98518 0
M  V30 2246 H 210.414 -0.111913 -1.43564 0
M  V30 2247 H 212.367 2.1165 -3.64393 0
M  V30 2248 H 211.091 2.20994 -2.40477 0
M  V30 2249 H 209.75 0.46871 -3.63591 0
M  V30 2250 H 209.398 2.89883 -4.11068 0
M  V30 2251 H 209.098 1.90521 -5.55856 0
M  V30 2252 H 210.622 2.82614 -5.41259 0
M  V30 2253 H 212.036 0.573509 -5.70424 0
M  V30 2254 H 210.433 -0.160783 -5.99885 0
M  V30 2255 H 211.503 -0.86237 -4.7717 0
M  V30 2256 N 212.846 1.57033 -0.133567 0
M  V30 2257 C 214.095 1.94861 0.520768 0
M  V30 2258 C 214.408 1.02012 1.66892 0
M  V30 2259 O 215.614 1.29365 2.38699 0
M  V30 2260 C 214.07 3.46362 0.977809 0
M  V30 2261 C 213.678 4.47773 -0.142674 0
M  V30 2262 C 215.422 3.93083 1.60269 0
M  V30 2263 C 213.329 5.90468 0.331883 0
M  V30 2264 H 212.259 0.727453 0.198315 0
M  V30 2265 H 214.91 1.82227 -0.215759 0
M  V30 2266 H 213.292 3.54282 1.7692 0
M  V30 2267 H 214.466 4.51536 -0.919317 0
M  V30 2268 H 212.781 4.10891 -0.675124 0
M  V30 2269 H 215.378 4.97121 1.96914 0
M  V30 2270 H 215.721 3.33876 2.48662 0
M  V30 2271 H 216.254 3.88025 0.876453 0
M  V30 2272 H 212.993 6.53463 -0.516341 0
M  V30 2273 H 212.513 5.90094 1.07469 0
M  V30 2274 H 214.192 6.42179 0.788332 0
M  V30 2275 N 214.325 -0.140222 1.56975 0
M  V30 2276 C 215.255 -1.17456 2.01808 0
M  V30 2277 C 216.236 -1.44415 0.898794 0
M  V30 2278 O 217.421 -1.5522 1.16707 0
M  V30 2279 C 214.551 -2.50607 2.40444 0
M  V30 2280 C 213.505 -2.38155 3.55621 0
M  V30 2281 C 212.831 -3.76078 3.80091 0
M  V30 2282 C 214.131 -1.85991 4.88062 0
M  V30 2283 H 215.825 -0.801743 2.88466 0
M  V30 2284 H 213.371 -0.38422 1.38779 0
M  V30 2285 H 215.324 -3.23197 2.7041 0
M  V30 2286 H 214.048 -2.89737 1.50732 0
M  V30 2287 H 212.707 -1.68016 3.25832 0
M  V30 2288 H 212.355 -4.12656 2.87618 0
M  V30 2289 H 212.055 -3.68606 4.57606 0
M  V30 2290 H 213.579 -4.50206 4.12488 0
M  V30 2291 H 214.993 -2.4838 5.16701 0
M  V30 2292 H 213.39 -1.89393 5.6943 0
M  V30 2293 H 214.46 -0.816023 4.77984 0
M  V30 2294 N 215.803 -1.52179 -0.40978 0
M  V30 2295 C 217.219 -1.40968 -0.74835 0
M  V30 2296 C 217.419 -0.513657 -1.94843 0
M  V30 2297 O 216.475 0.0208026 -2.52491 0
M  V30 2298 C 217.788 -2.83483 -1.0029 0
M  V30 2299 C 219.336 -2.92821 -1.10565 0
M  V30 2300 C 219.811 -4.36303 -1.39296 0
M  V30 2301 N 221.302 -4.39535 -1.46162 0
M  V30 2302 C 222.037 -5.47614 -1.70018 0
M  V30 2303 N 221.533 -6.65812 -1.91483 0
M  V30 2304 N 223.326 -5.35129 -1.72027 0
M  V30 2305 H 215.477 -2.0897 0.380186 0
M  V30 2306 H 217.74 -0.94185 0.107805 0
M  V30 2307 H 217.446 -3.51168 -0.193461 0
M  V30 2308 H 217.32 -3.24487 -1.92323 0
M  V30 2309 H 219.707 -2.25318 -1.90568 0
M  V30 2310 H 219.788 -2.55276 -0.16369 0
M  V30 2311 H 219.432 -5.04366 -0.598109 0
M  V30 2312 H 219.362 -4.71385 -2.34743 0
M  V30 2313 H 221.853 -3.54332 -1.31367 0
M  V30 2314 H 222.166 -7.43964 -2.09134 0
M  V30 2315 H 220.511 -6.68879 -1.88749 0
M  V30 2316 H 223.702 -4.41764 -1.54796 0
M  V30 2317 H 223.875 -6.19433 -1.9028 0
M  V30 2318 N 217.281 0.66697 -1.42791 0
M  V30 2319 C 218.558 1.4234 -1.34159 0
M  V30 2320 C 218.938 2.11093 0.0172729 0
M  V30 2321 O 218.286 2.03808 1.03318 0
M  V30 2322 C 218.496 2.41942 -2.51526 0
M  V30 2323 C 219.844 3.06353 -2.93995 0
M  V30 2324 O 220.868 2.52269 -2.51473 0
M  V30 2325 O 219.727 4.04376 -3.67617 0
M  V30 2326 H 216.821 0.635277 -0.529483 0
M  V30 2327 H 219.367 0.695034 -1.54814 0
M  V30 2328 H 218.139 1.89991 -3.42081 0
M  V30 2329 H 217.762 3.22249 -2.32898 0
M  V30 2330 N 218.759 1.29093 0.90403 0
M  V30 2331 C 220.17 1.15186 1.46932 0
M  V30 2332 C 220.521 -0.254587 1.94541 0
M  V30 2333 O 219.646 -1.14972 1.83332 0
M  V30 2334 C 220.241 2.08492 2.67051 0
M  V30 2335 C 218.8 1.98621 3.19729 0
M  V30 2336 C 217.947 1.9967 1.92425 0
M  V30 2337 H 220.898 1.41641 0.715789 0
M  V30 2338 H 220.919 1.65461 3.42641 0
M  V30 2339 H 220.431 3.10847 2.3237 0
M  V30 2340 H 218.532 0.993389 3.59114 0
M  V30 2341 H 218.645 2.86068 3.8432 0
M  V30 2342 H 217.009 1.44208 2.09943 0
M  V30 2343 H 217.792 3.03721 1.60026 0
M  V30 2344 N 220.237 -1.11381 1.11499 0
M  V30 2345 C 221.462 -1.87475 0.887019 0
M  V30 2346 C 221.887 -1.79639 -0.557796 0
M  V30 2347 O 221.245 -1.15924 -1.39396 0
M  V30 2348 C 221.293 -3.34213 1.35403 0
M  V30 2349 O 220.397 -4.0903 0.526146 0
M  V30 2350 H 219.738 -0.582099 0.319463 0
M  V30 2351 H 222.268 -1.40785 1.48461 0
M  V30 2352 H 222.278 -3.8506 1.34881 0
M  V30 2353 H 220.953 -3.39232 2.40612 0
M  V30 2354 H 219.53 -3.68082 0.597522 0
M  V30 2355 N 221.715 -0.905404 -1.28997 0
M  V30 2356 C 222.625 -0.392246 -2.31298 0
M  V30 2357 C 223.641 0.515889 -1.66176 0
M  V30 2358 O 224.817 0.404093 -1.97304 0
M  V30 2359 C 221.882 0.36686 -3.44754 0
M  V30 2360 C 220.943 -0.573485 -4.25452 0
M  V30 2361 C 220.176 0.149488 -5.33491 0
M  V30 2362 O 220.399 1.37255 -5.5364 0
M  V30 2363 O 219.333 -0.510919 -5.99728 0
M  V30 2364 H 223.159 -1.2411 -2.77183 0
M  V30 2365 H 220.744 -0.669926 -1.33538 0
M  V30 2366 H 222.626 0.795907 -4.13816 0
M  V30 2367 H 221.301 1.19169 -3.00966 0
M  V30 2368 H 220.208 -1.05176 -3.59011 0
M  V30 2369 H 221.541 -1.36489 -4.72897 0
M  V30 2370 N 223.193 1.4272 -0.668489 0
M  V30 2371 C 224.609 1.55992 -0.33745 0
M  V30 2372 C 224.809 1.64933 1.15756 0
M  V30 2373 O 223.865 1.61278 1.94282 0
M  V30 2374 C 225.178 2.81314 -1.06222 0
M  V30 2375 C 226.726 2.95078 -1.04394 0
M  V30 2376 C 227.201 4.23252 -1.74991 0
M  V30 2377 N 228.692 4.3015 -1.71829 0
M  V30 2378 C 229.427 5.28127 -2.23315 0
M  V30 2379 N 228.923 6.32293 -2.83156 0
M  V30 2380 N 230.716 5.19882 -2.13726 0
M  V30 2381 H 222.867 1.3516 -1.63846 0
M  V30 2382 H 225.13 0.650174 -0.689912 0
M  V30 2383 H 224.836 2.80823 -2.11734 0
M  V30 2384 H 224.71 3.72012 -0.62344 0
M  V30 2385 H 227.097 2.951 0.0028244 0
M  V30 2386 H 227.178 2.05627 -1.52155 0
M  V30 2387 H 226.822 4.2399 -2.79633 0
M  V30 2388 H 226.752 5.11626 -1.24685 0
M  V30 2389 H 229.243 3.55499 -1.28175 0
M  V30 2390 H 229.556 7.03398 -3.20079 0
M  V30 2391 H 227.901 6.32873 -2.87223 0
M  V30 2392 H 231.092 4.37423 -1.66669 0
M  V30 2393 H 231.265 5.96077 -2.54158 0
M  V30 2394 N 224.671 0.411399 1.52136 0
M  V30 2395 C 225.917 -0.163888 2.02137 0
M  V30 2396 C 226.25 -1.44597 1.29636 0
M  V30 2397 O 225.525 -1.90272 0.403353 0
M  V30 2398 C 225.808 -0.40927 3.57767 0
M  V30 2399 C 225.661 0.889643 4.40914 0
M  V30 2400 C 226.98 -1.19042 4.23694 0
M  V30 2401 H 224.099 -0.0580896 0.734707 0
M  V30 2402 H 226.741 0.54531 1.82007 0
M  V30 2403 H 224.891 -1.0134 3.7505 0
M  V30 2404 H 226.563 1.52575 4.35337 0
M  V30 2405 H 224.806 1.50011 4.07037 0
M  V30 2406 H 225.477 0.672314 5.4789 0
M  V30 2407 H 227.953 -0.678942 4.10524 0
M  V30 2408 H 226.829 -1.33086 5.32522 0
M  V30 2409 H 227.09 -2.21166 3.82803 0
M  V30 2410 N 226.149 -1.5696 0.141893 0
M  V30 2411 C 227.079 -2.19516 -0.795936 0
M  V30 2412 C 228.06 -1.14187 -1.26077 0
M  V30 2413 O 229.245 -1.42511 -1.31925 0
M  V30 2414 C 226.375 -2.81272 -2.03723 0
M  V30 2415 C 225.329 -3.92384 -1.70936 0
M  V30 2416 C 224.655 -4.41052 -3.02287 0
M  V30 2417 C 225.955 -5.13403 -0.959954 0
M  V30 2418 H 227.649 -2.98138 -0.274596 0
M  V30 2419 H 225.195 -1.43406 -0.130636 0
M  V30 2420 H 227.148 -3.237 -2.69808 0
M  V30 2421 H 225.872 -1.99973 -2.58221 0
M  V30 2422 H 224.531 -3.50566 -1.07232 0
M  V30 2423 H 224.179 -3.56582 -3.54765 0
M  V30 2424 H 223.879 -5.15993 -2.81114 0
M  V30 2425 H 225.403 -4.86146 -3.69451 0
M  V30 2426 H 226.817 -5.52706 -1.52279 0
M  V30 2427 H 225.214 -5.94073 -0.848357 0
M  V30 2428 H 226.284 -4.84875 0.0492434 0
M  V30 2429 N 227.627 0.131896 -1.57047 0
M  V30 2430 C 228.852 0.860418 -1.8871 0
M  V30 2431 C 229.277 1.73251 -0.73251 0
M  V30 2432 O 228.635 1.785 0.317429 0
M  V30 2433 C 228.683 1.68047 -3.19049 0
M  V30 2434 O 227.787 2.7862 -3.04047 0
M  V30 2435 H 227.128 0.238743 -0.619595 0
M  V30 2436 H 229.658 0.118169 -2.04258 0
M  V30 2437 H 229.668 2.07238 -3.51449 0
M  V30 2438 H 228.343 1.04018 -4.02682 0
M  V30 2439 H 226.92 2.42726 -2.83088 0
M  V30 2440 N 229.106 1.52395 0.401703 0
M  V30 2441 C 230.383 1.57387 1.16141 0
M  V30 2442 C 230.763 0.359359 2.08019 0
M  V30 2443 O 230.111 -0.65326 2.18963 0
M  V30 2444 C 230.321 2.90631 1.93221 0
M  V30 2445 C 231.669 3.43904 2.49028 0
M  V30 2446 O 232.693 2.92421 2.03393 0
M  V30 2447 O 231.552 4.33823 3.32356 0
M  V30 2448 H 228.646 0.634262 0.530698 0
M  V30 2449 H 231.192 1.64725 0.407883 0
M  V30 2450 H 229.964 3.70473 1.25958 0
M  V30 2451 H 229.587 2.8662 2.75563 0
M  V30 2452 N 230.584 -0.659388 1.43143 0
M  V30 2453 C 231.814 -1.44513 1.47646 0
M  V30 2454 C 232.222 -1.88981 0.0910095 0
M  V30 2455 O 231.565 -1.59702 -0.907789 0
M  V30 2456 C 231.627 -2.71663 2.35456 0
M  V30 2457 C 231.291 -2.49175 3.83094 0
M  V30 2458 C 232.288 -2.1279 4.74359 0
M  V30 2459 C 229.973 -2.63691 4.27519 0
M  V30 2460 C 231.967 -1.9121 6.08044 0
M  V30 2461 C 229.654 -2.41726 5.61259 0
M  V30 2462 C 230.652 -2.0554 6.51339 0
M  V30 2463 O 230.34 -1.838 7.82606 0
M  V30 2464 H 230.072 -0.45064 0.503884 0
M  V30 2465 H 232.626 -0.816248 1.88485 0
M  V30 2466 H 230.856 -3.37089 1.89493 0
M  V30 2467 H 232.545 -3.33595 2.31235 0
M  V30 2468 H 233.311 -2.01157 4.41317 0
M  V30 2469 H 229.19 -2.90832 3.57684 0
M  V30 2470 H 232.734 -1.62889 6.78316 0
M  V30 2471 H 228.631 -2.52959 5.9387 0
M  V30 2472 H 229.399 -1.98275 7.94122 0
M  V30 2473 N 232.062 -1.29571 -0.897171 0
M  V30 2474 C 233.29 -1.20583 -1.68129 0
M  V30 2475 C 233.705 0.233181 -1.87354 0
M  V30 2476 O 233.062 1.15579 -1.41236 0
M  V30 2477 C 233.113 -1.91772 -3.06441 0
M  V30 2478 O 232.834 -3.30053 -2.88091 0
M  V30 2479 C 234.335 -1.89291 -4.00854 0
M  V30 2480 H 231.555 -0.417826 -0.525036 0
M  V30 2481 H 234.099 -1.70987 -1.12177 0
M  V30 2482 H 232.254 -1.45196 -3.59161 0
M  V30 2483 H 232.668 -3.65942 -3.75748 0
M  V30 2484 H 234.142 -2.43662 -4.95311 0
M  V30 2485 H 234.619 -0.869014 -4.30517 0
M  V30 2486 H 235.225 -2.35622 -3.54066 0
M  V30 2487 N 233.54 1.10788 -1.12088 0
M  V30 2488 C 234.472 2.16816 -0.743213 0
M  V30 2489 C 235.485 1.6119 0.228412 0
M  V30 2490 O 236.674 1.78497 0.0102931 0
M  V30 2491 C 233.774 3.38809 -0.0787313 0
M  V30 2492 C 232.947 4.23885 -1.0789 0
M  V30 2493 C 232.006 5.24334 -0.442713 0
M  V30 2494 O 231.032 5.58497 -1.09864 0
M  V30 2495 N 232.234 5.75079 0.791457 0
M  V30 2496 H 234.999 2.49825 -1.65552 0
M  V30 2497 H 232.56 1.26373 -1.012 0
M  V30 2498 H 234.552 4.03107 0.358766 0
M  V30 2499 H 233.122 3.03805 0.736275 0
M  V30 2500 H 232.342 3.55939 -1.69414 0
M  V30 2501 H 233.63 4.77562 -1.75533 0
M  V30 2502 H 233.028 5.49517 1.3434 0
M  V30 2503 H 231.585 6.4118 1.17183 0
M  V30 2504 N 235.018 0.912232 1.28515 0
M  V30 2505 C 236.264 0.545405 1.95328 0
M  V30 2506 C 236.597 -0.908313 1.71649 0
M  V30 2507 O 235.872 -1.64575 1.03659 0
M  V30 2508 C 236.155 0.853483 3.4984 0
M  V30 2509 C 236.008 2.35982 3.82926 0
M  V30 2510 C 237.327 0.348589 4.38717 0
M  V30 2511 H 234.446 0.199626 0.709449 0
M  V30 2512 H 237.088 1.1412 1.5191 0
M  V30 2513 H 235.238 0.34643 3.86952 0
M  V30 2514 H 236.91 2.93738 3.55691 0
M  V30 2515 H 235.153 2.81543 3.30024 0
M  V30 2516 H 235.824 2.52593 4.90816 0
M  V30 2517 H 238.3 0.78294 4.08668 0
M  V30 2518 H 237.176 0.593242 5.45685 0
M  V30 2519 H 237.437 -0.751049 4.35674 0
M  V30 2520 N 236.496 -1.42363 0.676048 0
M  V30 2521 C 237.743 -2.01522 0.19883 0
M  V30 2522 C 238.071 -1.53456 -1.19505 0
M  V30 2523 O 237.326 -0.727967 -1.81657 0
M  V30 2524 C 237.625 -3.56929 0.183431 0
M  V30 2525 C 237.291 -4.24431 1.52215 0
M  V30 2526 C 235.953 -4.42585 1.8887 0
M  V30 2527 C 238.305 -4.62459 2.40377 0
M  V30 2528 C 235.633 -4.96039 3.13309 0
M  V30 2529 C 237.985 -5.17294 3.64129 0
M  V30 2530 C 236.649 -5.33661 4.00951 0
M  V30 2531 H 235.919 -0.737419 0.0727571 0
M  V30 2532 H 238.566 -1.70531 0.871281 0
M  V30 2533 H 236.871 -3.87594 -0.572532 0
M  V30 2534 H 238.568 -4.00486 -0.203035 0
M  V30 2535 H 235.158 -4.10661 1.22701 0
M  V30 2536 H 239.342 -4.48105 2.13343 0
M  V30 2537 H 234.598 -5.06896 3.41857 0
M  V30 2538 H 238.772 -5.45704 4.32644 0
M  V30 2539 H 236.399 -5.74845 4.9745 0
M  V30 2540 N 237.974 -0.419461 -1.51915 0
M  V30 2541 C 239.204 0.151915 -2.06041 0
M  V30 2542 C 239.612 1.38539 -1.28855 0
M  V30 2543 O 238.955 1.80592 -0.336463 0
M  V30 2544 C 239.017 0.557119 -3.55157 0
M  V30 2545 C 238.681 -0.567054 -4.53468 0
M  V30 2546 C 239.678 -1.43379 -4.99738 0
M  V30 2547 C 237.363 -0.742693 -4.96779 0
M  V30 2548 C 239.357 -2.46102 -5.87973 0
M  V30 2549 C 237.044 -1.77322 -5.84808 0
M  V30 2550 C 238.042 -2.63078 -6.30301 0
M  V30 2551 O 237.73 -3.64364 -7.16585 0
M  V30 2552 H 237.462 0.0193293 -0.675724 0
M  V30 2553 H 240.016 -0.592073 -1.96682 0
M  V30 2554 H 238.246 1.35355 -3.62238 0
M  V30 2555 H 239.935 1.05759 -3.9188 0
M  V30 2556 H 240.701 -1.30954 -4.66986 0
M  V30 2557 H 236.58 -0.0848307 -4.60922 0
M  V30 2558 H 240.124 -3.13071 -6.23404 0
M  V30 2559 H 236.021 -1.89773 -6.16974 0
M  V30 2560 H 236.789 -3.60731 -7.34721 0
M  V30 2561 N 239.452 1.56882 -0.150215 0
M  V30 2562 C 240.4 2.18214 0.805313 0
M  V30 2563 C 241.394 1.14006 1.25296 0
M  V30 2564 O 242.6 1.3225 1.22107 0
M  V30 2565 H 238.975 0.698762 0.277913 0
M  V30 2566 H 240.946 2.97231 0.263862 0
M  V30 2567 C 239.695 2.82065 2.03309 0
M  V30 2568 H 239.018 3.61968 1.69763 0
M  V30 2569 H 240.458 3.28477 2.68103 0
M  V30 2570 C 238.917 1.80739 2.84315 0
M  V30 2571 O 239.447 1.27983 3.80767 0
M  V30 2572 N 237.653 1.4997 2.48913 0
M  V30 2573 H 237.2 1.93062 1.70542 0
M  V30 2574 H 237.158 0.824217 3.03404 0
M  V30 2575 N 240.93 -0.123565 1.57115 0
M  V30 2576 C 241.88 -1.1575 1.96433 0
M  V30 2577 C 242.864 -1.37313 0.838686 0
M  V30 2578 O 244.056 -1.38482 1.10235 0
M  V30 2579 C 241.185 -2.48526 2.36833 0
M  V30 2580 C 240.271 -2.30457 3.5602 0
M  V30 2581 N 240.662 -1.8219 4.71848 0
M  V30 2582 C 238.96 -2.61129 3.61563 0
M  V30 2583 C 239.661 -1.77721 5.53886 0
M  V30 2584 N 238.637 -2.21899 4.96248 0
M  V30 2585 H 242.439 -0.776797 2.83449 0
M  V30 2586 H 239.953 -0.331364 1.58983 0
M  V30 2587 H 241.95 -3.233 2.63216 0
M  V30 2588 H 240.61 -2.87358 1.5118 0
M  V30 2589 H 241.621 -1.51805 4.95152 0
M  V30 2590 H 238.298 -3.03678 2.86507 0
M  V30 2591 H 239.688 -1.41697 6.56789 0
M  V30 2592 N 242.408 -1.52605 -0.393616 0
M  V30 2593 C 243.341 -1.71798 -1.50202 0
M  V30 2594 C 244.319 -0.565743 -1.52441 0
M  V30 2595 O 245.503 -0.794987 -1.70916 0
M  V30 2596 C 242.63 -1.7714 -2.88685 0
M  V30 2597 C 241.676 -2.98845 -3.04292 0
M  V30 2598 S 242.509 -4.58909 -2.75976 0
M  V30 2599 C 243.665 -4.6706 -4.1666 0
M  V30 2600 H 243.898 -2.65542 -1.33696 0
M  V30 2601 H 241.431 -1.42839 -0.586195 0
M  V30 2602 H 243.389 -1.80903 -3.68489 0
M  V30 2603 H 242.05 -0.844969 -3.02521 0
M  V30 2604 H 241.243 -2.99111 -4.05646 0
M  V30 2605 H 240.845 -2.9305 -2.32374 0
M  V30 2606 H 243.137 -4.45391 -5.10523 0
M  V30 2607 H 244.08 -5.6905 -4.21412 0
M  V30 2608 H 244.488 -3.95944 -4.02354 0
M  V30 2609 N 243.887 0.651787 -1.4349 0
M  V30 2610 C 244.819 1.77725 -1.44729 0
M  V30 2611 C 245.832 1.59141 -0.343231 0
M  V30 2612 O 247.021 1.67835 -0.607751 0
M  V30 2613 C 244.121 3.15172 -1.24579 0
M  V30 2614 C 243.294 3.60402 -2.47849 0
M  V30 2615 C 242.353 4.76656 -2.22902 0
M  V30 2616 O 241.379 4.86022 -2.96263 0
M  V30 2617 N 242.581 5.66958 -1.24656 0
M  V30 2618 H 245.346 1.77141 -2.41746 0
M  V30 2619 H 242.907 0.835678 -1.38665 0
M  V30 2620 H 244.899 3.90634 -1.0577 0
M  V30 2621 H 243.469 3.1052 -0.360015 0
M  V30 2622 H 242.689 2.75369 -2.82073 0
M  V30 2623 H 243.977 3.87368 -3.29884 0
M  V30 2624 H 243.375 5.62065 -0.640265 0
M  V30 2625 H 241.932 6.42135 -1.1183 0
M  V30 2626 N 245.365 1.30045 0.890287 0
M  V30 2627 C 246.312 1.15976 1.99545 0
M  V30 2628 C 247.282 0.0506202 1.66023 0
M  V30 2629 O 248.467 0.219847 1.89529 0
M  V30 2630 C 245.607 0.852054 3.34416 0
M  V30 2631 C 244.72 2.04255 3.80662 0
M  V30 2632 C 243.855 1.6734 5.04154 0
M  V30 2633 C 242.894 2.82916 5.42794 0
M  V30 2634 N 242.031 2.46333 6.57468 0
M  V30 2635 H 246.871 2.10524 2.10911 0
M  V30 2636 H 244.408 1.04749 1.03276 0
M  V30 2637 H 246.366 0.654296 4.12037 0
M  V30 2638 H 244.996 -0.0565502 3.2275 0
M  V30 2639 H 244.048 2.35172 2.98995 0
M  V30 2640 H 245.36 2.90826 4.05242 0
M  V30 2641 H 244.514 1.43908 5.89386 0
M  V30 2642 H 243.253 0.779308 4.81433 0
M  V30 2643 H 242.258 3.0702 4.56091 0
M  V30 2644 H 243.483 3.73004 5.6749 0
M  V30 2645 H 241.429 1.59423 6.36334 0
M  V30 2646 H 241.346 3.26436 6.81891 0
M  V30 2647 H 242.614 2.26244 7.45945 0
M  V30 2648 N 246.843 -1.10192 1.12674 0
M  V30 2649 C 247.793 -2.14754 0.765801 0
M  V30 2650 C 248.777 -1.59154 -0.236409 0
M  V30 2651 O 249.969 -1.76951 -0.0415261 0
M  V30 2652 C 247.098 -3.42563 0.224827 0
M  V30 2653 C 246.184 -4.05091 1.25548 0
M  V30 2654 N 246.575 -4.42287 2.4539 0
M  V30 2655 C 244.873 -4.32186 1.10142 0
M  V30 2656 C 245.574 -4.91441 3.11224 0
M  V30 2657 N 244.55 -4.88405 2.38666 0
M  V30 2658 H 248.352 -2.41309 1.67772 0
M  V30 2659 H 245.866 -1.27339 1.00789 0
M  V30 2660 H 247.863 -4.16868 -0.0519578 0
M  V30 2661 H 246.523 -3.17467 -0.681515 0
M  V30 2662 H 247.534 -4.33902 2.82754 0
M  V30 2663 H 244.211 -4.16735 0.252587 0
M  V30 2664 H 245.601 -5.29749 4.13298 0
M  V30 2665 N 248.321 -0.919034 -1.28029 0
M  V30 2666 C 249.268 -0.410005 -2.27129 0
M  V30 2667 C 250.238 0.518405 -1.57803 0
M  V30 2668 O 251.423 0.439451 -1.8567 0
M  V30 2669 C 248.563 0.339054 -3.4343 0
M  V30 2670 C 247.676 -0.622468 -4.27492 0
M  V30 2671 C 246.811 0.145567 -5.31001 0
M  V30 2672 C 245.85 -0.809226 -6.06727 0
M  V30 2673 N 244.987 -0.0743728 -7.02061 0
M  V30 2674 H 249.827 -1.26011 -2.70047 0
M  V30 2675 H 247.364 -0.632663 -1.328 0
M  V30 2676 H 249.322 0.789586 -4.0966 0
M  V30 2677 H 247.952 1.15346 -3.01488 0
M  V30 2678 H 247.004 -1.19153 -3.61257 0
M  V30 2679 H 248.316 -1.35252 -4.80113 0
M  V30 2680 H 247.47 0.656417 -6.03139 0
M  V30 2681 H 246.209 0.908643 -4.79161 0
M  V30 2682 H 245.214 -1.3314 -5.33436 0
M  V30 2683 H 246.439 -1.57194 -6.60656 0
M  V30 2684 H 244.385 0.670616 -6.52563 0
M  V30 2685 H 244.302 -0.744157 -7.52329 0
M  V30 2686 H 245.57 0.416109 -7.78389 0
M  V30 2687 N 249.799 1.42003 -0.683588 0
M  V30 2688 C 251.21 1.84501 -0.285736 0
M  V30 2689 C 251.561 1.57213 1.17382 0
M  V30 2690 O 250.686 1.03642 1.89966 0
M  V30 2691 C 251.281 3.34912 -0.511821 0
M  V30 2692 C 249.84 3.76025 -0.168005 0
M  V30 2693 C 248.987 2.6551 -0.799983 0
M  V30 2694 H 251.938 1.31724 -0.885119 0
M  V30 2695 H 251.959 3.79784 0.233292 0
M  V30 2696 H 251.471 3.54741 -1.57418 0
M  V30 2697 H 249.572 3.61801 0.890567 0
M  V30 2698 H 249.685 4.75141 -0.614661 0
M  V30 2699 H 248.049 2.53654 -0.230568 0
M  V30 2700 H 248.832 2.8816 -1.86597 0
M  V30 2701 N 251.277 0.427512 1.51691 0
M  V30 2702 C 252.507 -0.140986 2.06118 0
M  V30 2703 C 252.915 -1.37854 1.29588 0
M  V30 2704 O 252.258 -1.80411 0.346036 0
M  V30 2705 C 252.32 -0.538276 3.55447 0
M  V30 2706 C 251.984 0.591095 4.53161 0
M  V30 2707 C 252.981 1.46027 4.98971 0
M  V30 2708 C 250.666 0.769028 4.96378 0
M  V30 2709 C 252.66 2.49216 5.8666 0
M  V30 2710 C 250.347 1.80421 5.83859 0
M  V30 2711 C 251.345 2.66417 6.28897 0
M  V30 2712 O 251.033 3.68159 7.14643 0
M  V30 2713 H 250.765 -0.0157455 0.675817 0
M  V30 2714 H 253.319 0.602495 1.96365 0
M  V30 2715 H 251.549 -1.33432 3.6295 0
M  V30 2716 H 253.238 -1.0368 3.92435 0
M  V30 2717 H 254.004 1.33429 4.66285 0
M  V30 2718 H 249.883 0.109273 4.6087 0
M  V30 2719 H 253.427 3.16372 6.21735 0
M  V30 2720 H 249.324 1.93042 6.15959 0
M  V30 2721 H 250.092 3.64622 7.32798 0
M  V30 2722 N 252.755 -1.56801 0.158532 0
M  V30 2723 C 254.166 -1.83189 -0.360366 0
M  V30 2724 C 254.517 -1.07778 -1.63946 0
M  V30 2725 O 253.642 -0.326718 -2.13919 0
M  V30 2726 C 254.237 -3.32297 -0.660595 0
M  V30 2727 C 252.796 -3.59227 -1.12398 0
M  V30 2728 C 251.943 -2.76877 -0.153097 0
M  V30 2729 H 254.894 -1.54008 0.383031 0
M  V30 2730 H 254.915 -3.4908 -1.51405 0
M  V30 2731 H 254.427 -3.87156 0.270527 0
M  V30 2732 H 252.528 -3.09766 -2.07064 0
M  V30 2733 H 252.641 -4.67632 -1.04197 0
M  V30 2734 H 251.005 -2.46319 -0.647983 0
M  V30 2735 H 251.788 -3.34511 0.77182 0
M  V30 2736 N 254.233 0.115231 -1.57178 0
M  V30 2737 C 255.458 0.840354 -1.89612 0
M  V30 2738 C 255.883 1.72464 -0.750845 0
M  V30 2739 O 255.241 1.78826 0.298478 0
M  V30 2740 C 255.289 1.64654 -3.20814 0
M  V30 2741 O 254.393 2.7538 -3.06985 0
M  V30 2742 H 253.734 0.232158 -0.622092 0
M  V30 2743 H 256.264 0.0964977 -2.04372 0
M  V30 2744 H 256.274 2.03499 -3.53627 0
M  V30 2745 H 254.949 0.997416 -4.03763 0
M  V30 2746 H 253.526 2.3971 -2.85646 0
M  V30 2747 N 255.711 1.52812 0.385517 0
M  V30 2748 C 256.96 1.67249 1.12741 0
M  V30 2749 C 257.273 0.4205 1.91027 0
M  V30 2750 O 258.479 0.445064 2.67827 0
M  V30 2751 C 256.935 2.95583 2.05326 0
M  V30 2752 C 256.543 4.27974 1.32447 0
M  V30 2753 C 258.287 3.19386 2.7963 0
M  V30 2754 C 256.194 5.47412 2.23818 0
M  V30 2755 H 255.124 0.6231 0.424573 0
M  V30 2756 H 257.775 1.79309 0.389924 0
M  V30 2757 H 256.157 2.77277 2.82725 0
M  V30 2758 H 257.331 4.56844 0.602495 0
M  V30 2759 H 255.646 4.10459 0.700885 0
M  V30 2760 H 258.243 4.05801 3.48181 0
M  V30 2761 H 258.586 2.34604 3.43899 0
M  V30 2762 H 259.119 3.38274 2.09322 0
M  V30 2763 H 255.858 6.34612 1.64157 0
M  V30 2764 H 255.378 5.22849 2.93921 0
M  V30 2765 H 257.057 5.81423 2.83824 0
M  V30 2766 N 257.189 -0.644168 1.43834 0
M  V30 2767 C 258.099 -1.78563 1.52159 0
M  V30 2768 C 259.115 -1.69147 0.408069 0
M  V30 2769 O 260.291 -1.90156 0.663524 0
M  V30 2770 C 257.356 -3.14888 1.45073 0
M  V30 2771 C 256.417 -3.36034 2.6717 0
M  V30 2772 C 255.65 -4.65855 2.60413 0
M  V30 2773 O 255.873 -5.45805 1.65689 0
M  V30 2774 O 254.807 -4.88918 3.5106 0
M  V30 2775 H 258.633 -1.74494 2.48567 0
M  V30 2776 H 256.218 -0.80378 1.25935 0
M  V30 2777 H 258.1 -3.96179 1.43597 0
M  V30 2778 H 256.775 -3.19528 0.518037 0
M  V30 2779 H 255.682 -2.54472 2.74217 0
M  V30 2780 H 257.015 -3.36247 3.59442 0
M  V30 2781 N 258.668 -1.30515 -0.883378 0
M  V30 2782 C 259.578 -1.18959 -2.02203 0
M  V30 2783 C 260.594 -0.109172 -1.73657 0
M  V30 2784 O 261.77 -0.324413 -1.9877 0
M  V30 2785 C 258.835 -0.883871 -3.35244 0
M  V30 2786 C 257.896 -2.04982 -3.77201 0
M  V30 2787 C 257.129 -1.75859 -5.03894 0
M  V30 2788 O 257.352 -0.687276 -5.66244 0
M  V30 2789 O 256.286 -2.61146 -5.42297 0
M  V30 2790 H 260.112 -2.14616 -2.1488 0
M  V30 2791 H 257.697 -1.10124 -1.0096 0
M  V30 2792 H 259.579 -0.728644 -4.15053 0
M  V30 2793 H 258.254 0.0427798 -3.23672 0
M  V30 2794 H 257.161 -2.26038 -2.9809 0
M  V30 2795 H 258.494 -2.95825 -3.93381 0
M  V30 2796 N 260.146 1.09593 -1.13257 0
M  V30 2797 C 261.393 1.81734 -0.893257 0
M  V30 2798 C 261.721 1.8563 0.580656 0
M  V30 2799 O 260.976 1.31906 1.44566 0
M  V30 2800 C 261.275 3.27802 -1.42411 0
M  V30 2801 C 260.941 3.44041 -2.91456 0
M  V30 2802 C 259.603 3.48181 -3.3215 0
M  V30 2803 C 261.955 3.48719 -3.87356 0
M  V30 2804 C 259.283 3.54575 -4.67433 0
M  V30 2805 C 261.635 3.56648 -5.2248 0
M  V30 2806 C 260.299 3.59055 -5.62704 0
M  V30 2807 H 259.569 0.665011 -0.326866 0
M  V30 2808 H 262.216 1.2912 -1.41422 0
M  V30 2809 H 260.521 3.83042 -0.823795 0
M  V30 2810 H 262.218 3.82149 -1.21503 0
M  V30 2811 H 258.808 3.41502 -2.58987 0
M  V30 2812 H 262.992 3.44763 -3.57004 0
M  V30 2813 H 258.248 3.54725 -4.97976 0
M  V30 2814 H 262.422 3.59212 -5.96607 0
M  V30 2815 H 260.049 3.63763 -6.67518 0
M  V30 2816 N 261.624 0.925811 1.2754 0
M  V30 2817 C 262.554 0.440748 2.29303 0
M  V30 2818 C 263.535 -0.497971 1.62648 0
M  V30 2819 O 264.72 -0.403126 1.8997 0
M  V30 2820 C 261.85 -0.309048 3.45922 0
M  V30 2821 C 260.804 0.54166 4.24559 0
M  V30 2822 C 260.13 -0.337191 5.33636 0
M  V30 2823 C 261.43 1.80516 4.90114 0
M  V30 2824 H 263.124 1.29121 2.70126 0
M  V30 2825 H 260.67 0.622323 1.29858 0
M  V30 2826 H 262.623 -0.659315 4.1621 0
M  V30 2827 H 261.347 -1.19352 3.04011 0
M  V30 2828 H 260.006 0.874609 3.56014 0
M  V30 2829 H 259.654 -1.22056 4.87966 0
M  V30 2830 H 259.354 0.228497 5.87156 0
M  V30 2831 H 260.878 -0.683072 6.06767 0
M  V30 2832 H 262.292 1.52307 5.52698 0
M  V30 2833 H 260.689 2.3142 5.53683 0
M  V30 2834 H 261.759 2.52581 4.13921 0
M  V30 2835 N 263.102 -1.41638 0.69111 0
M  V30 2836 C 264.348 -2.01598 0.220519 0
M  V30 2837 C 264.681 -1.54594 -1.17535 0
M  V30 2838 O 263.956 -0.755177 -1.79241 0
M  V30 2839 C 264.239 -3.59062 0.273243 0
M  V30 2840 C 264.092 -4.16203 1.70573 0
M  V30 2841 C 265.411 -4.38546 -0.369457 0
M  V30 2842 H 262.53 -0.732468 0.0816045 0
M  V30 2843 H 265.172 -1.68445 0.878986 0
M  V30 2844 H 263.322 -3.87435 -0.287411 0
M  V30 2845 H 264.994 -3.98722 2.31989 0
M  V30 2846 H 263.237 -3.71414 2.2413 0
M  V30 2847 H 263.908 -5.25358 1.69419 0
M  V30 2848 H 266.384 -4.1596 0.107977 0
M  V30 2849 H 265.26 -5.48069 -0.302002 0
M  V30 2850 H 265.521 -4.17662 -1.44951 0
M  V30 2851 N 264.58 -0.43555 -1.51462 0
M  V30 2852 C 265.996 -0.0877501 -1.59359 0
M  V30 2853 C 266.196 1.4027 -1.4466 0
M  V30 2854 O 265.252 2.17243 -1.28693 0
M  V30 2855 C 266.565 -0.606264 -2.94525 0
M  V30 2856 C 268.113 -0.566548 -3.0783 0
M  V30 2857 C 268.588 -1.06201 -4.45517 0
M  V30 2858 N 270.079 -1.01992 -4.51832 0
M  V30 2859 C 270.814 -1.37417 -5.5669 0
M  V30 2860 N 270.31 -1.80119 -6.68976 0
M  V30 2861 N 272.103 -1.29245 -5.47039 0
M  V30 2862 H 264.254 -1.40533 -1.59261 0
M  V30 2863 H 266.517 -0.578992 -0.750648 0
M  V30 2864 H 266.223 -1.64901 -3.10645 0
M  V30 2865 H 266.097 -0.0302097 -3.77188 0
M  V30 2866 H 268.484 0.467208 -2.91378 0
M  V30 2867 H 268.565 -1.17898 -2.2701 0
M  V30 2868 H 268.209 -2.09422 -4.62715 0
M  V30 2869 H 268.139 -0.426127 -5.24873 0
M  V30 2870 H 270.63 -0.706308 -3.71241 0
M  V30 2871 H 270.943 -2.05392 -7.45006 0
M  V30 2872 H 269.288 -1.84044 -6.70189 0
M  V30 2873 H 272.479 -0.957522 -4.58202 0
M  V30 2874 H 272.652 -1.57182 -6.28648 0
M  V30 2875 N 266.058 1.56714 -0.166846 0
M  V30 2876 C 267.335 1.88412 0.525373 0
M  V30 2877 C 267.715 1.07602 1.81618 0
M  V30 2878 O 267.063 0.168621 2.27877 0
M  V30 2879 C 267.273 3.40363 0.771613 0
M  V30 2880 C 268.621 4.10007 1.1036 0
M  V30 2881 O 269.645 3.45655 0.860304 0
M  V30 2882 O 268.504 5.2369 1.56239 0
M  V30 2883 H 265.598 0.781587 0.270278 0
M  V30 2884 H 268.144 1.68458 -0.204946 0
M  V30 2885 H 266.916 3.91046 -0.141093 0
M  V30 2886 H 266.539 3.65914 1.55541 0
M  V30 2887 N 267.536 -0.106894 1.57237 0
M  V30 2888 C 268.784 -0.810921 1.85117 0
M  V30 2889 C 269.105 -1.7984 0.753827 0
M  V30 2890 O 268.375 -1.94649 -0.221056 0
M  V30 2891 H 266.955 -0.302466 0.683025 0
M  V30 2892 H 269.617 -0.0913324 1.94686 0
M  V30 2893 H 268.713 -1.34875 2.81452 0
M  V30 2894 N 269.014 -1.53014 -0.377408 0
M  V30 2895 C 270.43 -1.42523 -0.718281 0
M  V30 2896 C 270.63 -0.55487 -1.9371 0
M  V30 2897 O 269.686 -0.0327593 -2.52479 0
M  V30 2898 C 270.999 -2.85546 -0.942539 0
M  V30 2899 C 272.547 -2.95101 -1.04329 0
M  V30 2900 C 273.022 -4.3916 -1.3001 0
M  V30 2901 N 274.513 -4.42536 -1.36806 0
M  V30 2902 C 275.248 -5.51097 -1.58364 0
M  V30 2903 N 274.744 -6.69724 -1.77317 0
M  V30 2904 N 276.537 -5.38657 -1.60638 0
M  V30 2905 H 268.688 -2.08116 0.424426 0
M  V30 2906 H 270.951 -0.939352 0.127759 0
M  V30 2907 H 270.657 -3.51499 -0.118929 0
M  V30 2908 H 270.531 -3.28493 -1.85397 0
M  V30 2909 H 272.918 -2.29309 -1.85745 0
M  V30 2910 H 272.999 -2.55566 -0.109505 0
M  V30 2911 H 272.643 -5.05521 -0.490991 0
M  V30 2912 H 272.573 -4.76258 -2.24691 0
M  V30 2913 H 275.064 -3.57039 -1.23821 0
M  V30 2914 H 275.377 -7.48233 -1.93306 0
M  V30 2915 H 273.722 -6.72732 -1.74518 0
M  V30 2916 H 276.913 -4.44948 -1.45391 0
M  V30 2917 H 277.086 -6.2333 -1.77098 0
M  V30 2918 N 270.492 0.636531 -1.44174 0
M  V30 2919 C 271.422 1.76003 -1.53444 0
M  V30 2920 C 272.403 1.65619 -0.387841 0
M  V30 2921 O 273.588 1.84461 -0.607257 0
M  V30 2922 C 270.718 3.14511 -1.4731 0
M  V30 2923 C 269.672 3.39677 -2.60391 0
M  V30 2924 C 268.998 4.78159 -2.39308 0
M  V30 2925 C 270.298 3.32772 -4.02567 0
M  V30 2926 H 271.992 1.68501 -2.47483 0
M  V30 2927 H 269.538 0.809237 -1.19111 0
M  V30 2928 H 271.491 3.92878 -1.52397 0
M  V30 2929 H 270.215 3.22783 -0.49785 0
M  V30 2930 H 268.874 2.63688 -2.54684 0
M  V30 2931 H 268.522 4.83128 -1.39988 0
M  V30 2932 H 268.222 4.95956 -3.15122 0
M  V30 2933 H 269.746 5.58762 -2.46205 0
M  V30 2934 H 271.16 4.01051 -4.09672 0
M  V30 2935 H 269.557 3.62104 -4.7854 0
M  V30 2936 H 270.627 2.30669 -4.2652 0
M  V30 2937 N 271.97 1.30982 0.876444 0
M  V30 2938 C 272.918 1.18006 2.00443 0
M  V30 2939 C 273.912 0.0898871 1.69161 0
M  V30 2940 O 275.118 0.251333 1.78237 0
M  V30 2941 H 271.493 0.365196 0.65737 0
M  V30 2942 H 273.464 2.13453 2.0852 0
M  V30 2943 C 272.213 0.897521 3.35916 0
M  V30 2944 H 271.536 1.7285 3.60504 0
M  V30 2945 H 272.976 0.846874 4.15456 0
M  V30 2946 C 271.435 -0.399674 3.34521 0
M  V30 2947 O 271.965 -1.41852 3.7582 0
M  V30 2948 N 270.171 -0.413893 2.87637 0
M  V30 2949 H 269.718 0.41571 2.54224 0
M  V30 2950 H 269.676 -1.28175 2.87086 0
M  V30 2951 N 273.449 -1.08991 1.13837 0
M  V30 2952 C 274.695 -1.81526 0.90422 0
M  V30 2953 C 275.028 -1.85706 -0.568066 0
M  V30 2954 O 274.303 -1.32855 -1.42056 0
M  V30 2955 C 274.586 -3.27447 1.49835 0
M  V30 2956 C 274.439 -3.31512 3.04006 0
M  V30 2957 C 275.758 -4.24256 1.17025 0
M  V30 2958 H 272.877 -0.659029 0.329923 0
M  V30 2959 H 275.519 -1.27644 1.40737 0
M  V30 2960 H 273.669 -3.73462 1.07044 0
M  V30 2961 H 275.341 -2.93867 3.55584 0
M  V30 2962 H 273.584 -2.70963 3.38765 0
M  V30 2963 H 274.255 -4.34329 3.40679 0
M  V30 2964 H 276.731 -3.86549 1.54009 0
M  V30 2965 H 275.607 -5.24684 1.61237 0
M  V30 2966 H 275.868 -4.42019 0.0846274 0
M  V30 2967 N 274.927 -0.932562 -1.27047 0
M  V30 2968 C 276.204 -0.49377 -1.89265 0
M  V30 2969 C 276.584 1.02833 -1.8436 0
M  V30 2970 O 275.932 1.88461 -1.29209 0
M  V30 2971 C 276.142 -1.04536 -3.32976 0
M  V30 2972 C 277.49 -1.10879 -4.09867 0
M  V30 2973 O 278.514 -0.995327 -3.42011 0
M  V30 2974 O 277.373 -1.28417 -5.31198 0
M  V30 2975 H 274.467 -0.159596 -0.811454 0
M  V30 2976 H 277.013 -1.02457 -1.3528 0
M  V30 2977 H 275.785 -2.08913 -3.30864 0
M  V30 2978 H 275.408 -0.496494 -3.94488 0
M  V30 2979 N 276.405 1.4127 -0.698611 0
M  V30 2980 C 277.635 2.05205 -0.239644 0
M  V30 2981 C 278.043 1.52684 1.11733 0
M  V30 2982 O 277.386 0.671222 1.70998 0
M  V30 2983 C 277.448 3.59289 -0.123126 0
M  V30 2984 C 277.112 4.34619 -1.41263 0
M  V30 2985 C 278.109 4.63701 -2.35111 0
M  V30 2986 C 275.794 4.73837 -1.66684 0
M  V30 2987 C 277.788 5.30966 -3.52639 0
M  V30 2988 C 275.475 5.40837 -2.84498 0
M  V30 2989 C 276.473 5.69329 -3.77298 0
M  V30 2990 O 276.161 6.34949 -4.93047 0
M  V30 2991 H 275.893 0.66723 -0.108537 0
M  V30 2992 H 278.447 1.81974 -0.952602 0
M  V30 2993 H 276.677 3.81272 0.645628 0
M  V30 2994 H 278.366 4.04797 0.299056 0
M  V30 2995 H 279.132 4.33882 -2.16729 0
M  V30 2996 H 275.011 4.51039 -0.953135 0
M  V30 2997 H 278.555 5.53121 -4.25091 0
M  V30 2998 H 274.452 5.70075 -3.02795 0
M  V30 2999 H 275.22 6.53445 -4.92902 0
M  V30 3000 N 277.883 0.443576 1.51229 0
M  V30 3001 C 278.83 -0.364716 2.279 0
M  V30 3002 C 279.8 -1.0114 1.31757 0
M  V30 3003 O 280.985 -1.02912 1.60667 0
M  V30 3004 C 278.125 -1.45644 3.12861 0
M  V30 3005 C 277.238 -0.827269 4.24005 0
M  V30 3006 C 276.373 -1.89456 4.96266 0
M  V30 3007 C 275.412 -1.24416 5.99322 0
M  V30 3008 N 274.549 -2.25309 6.64966 0
M  V30 3009 H 279.389 0.295464 2.96532 0
M  V30 3010 H 276.926 0.157554 1.46254 0
M  V30 3011 H 278.884 -2.10076 3.6045 0
M  V30 3012 H 277.514 -2.08616 2.46331 0
M  V30 3013 H 276.566 -0.0710839 3.80334 0
M  V30 3014 H 277.878 -0.312481 4.9782 0
M  V30 3015 H 277.032 -2.61535 5.47434 0
M  V30 3016 H 275.771 -2.4431 4.22095 0
M  V30 3017 H 274.776 -0.508868 5.4744 0
M  V30 3018 H 276.001 -0.702882 6.75453 0
M  V30 3019 H 273.947 -2.79231 5.93604 0
M  V30 3020 H 273.864 -1.78739 7.34567 0
M  V30 3021 H 275.132 -2.96853 7.20763 0
M  V30 3022 N 279.361 -1.56624 0.175154 0
M  V30 3023 C 280.324 -2.16934 -0.739738 0
M  V30 3024 C 281.324 -1.11842 -1.15533 0
M  V30 3025 O 282.514 -1.37335 -1.07167 0
M  V30 3026 C 279.646 -2.75531 -2.00738 0
M  V30 3027 H 280.839 -2.99131 -0.214639 0
M  V30 3028 H 278.392 -1.56123 -0.0744197 0
M  V30 3029 H 279.127 -1.97078 -2.57548 0
M  V30 3030 H 278.912 -3.52444 -1.71831 0
M  V30 3031 H 280.402 -3.21904 -2.66021 0
M  V30 3032 N 280.839 0.0985539 -1.57292 0
M  V30 3033 C 281.769 1.12064 -2.04851 0
M  V30 3034 C 282.75 1.41981 -0.936767 0
M  V30 3035 O 283.935 1.52071 -1.20781 0
M  V30 3036 C 281.065 2.44144 -2.47004 0
M  V30 3037 C 280.019 2.28643 -3.6181 0
M  V30 3038 C 279.345 3.65869 -3.89929 0
M  V30 3039 C 280.645 1.72986 -4.92822 0
M  V30 3040 H 282.339 0.724979 -2.9049 0
M  V30 3041 H 279.885 0.34729 -1.39749 0
M  V30 3042 H 281.838 3.15914 -2.78884 0
M  V30 3043 H 280.562 2.85639 -1.5836 0
M  V30 3044 H 279.221 1.59318 -3.30172 0
M  V30 3045 H 278.869 4.04885 -2.98458 0
M  V30 3046 H 278.569 3.56344 -4.67218 0
M  V30 3047 H 280.093 4.39112 -4.2428 0
M  V30 3048 H 281.507 2.34593 -5.23105 0
M  V30 3049 H 279.904 1.74229 -5.74251 0
M  V30 3050 H 280.974 0.689007 -4.7998 0
M  V30 3051 N 282.317 1.53212 0.369288 0
M  V30 3052 C 283.265 1.80054 1.47253 0
M  V30 3053 C 284.259 0.669456 1.55611 0
M  V30 3054 O 285.465 0.852328 1.58541 0
M  V30 3055 H 281.84 0.570034 0.490475 0
M  V30 3056 H 283.811 2.72403 1.21817 0
M  V30 3057 C 282.56 2.00403 2.84137 0
M  V30 3058 H 281.883 2.86876 2.78464 0
M  V30 3059 H 283.323 2.23164 3.60519 0
M  V30 3060 C 281.782 0.782081 3.27697 0
M  V30 3061 O 282.312 -0.0310205 4.01688 0
M  V30 3062 N 280.518 0.606573 2.84199 0
M  V30 3063 H 280.065 1.26939 2.24152 0
M  V30 3064 H 280.023 -0.20962 3.137 0
M  V30 3065 N 283.795 -0.628877 1.44509 0
M  V30 3066 C 285.211 -0.947305 1.28446 0
M  V30 3067 C 285.411 -2.00275 0.221872 0
M  V30 3068 O 284.467 -2.49447 -0.391471 0
M  V30 3069 C 285.78 -1.40843 2.65676 0
M  V30 3070 C 287.328 -1.52379 2.73404 0
M  V30 3071 C 287.803 -2.01875 4.11109 0
M  V30 3072 N 289.294 -2.09142 4.13296 0
M  V30 3073 C 290.029 -2.48615 5.16699 0
M  V30 3074 N 289.525 -2.87209 6.30462 0
M  V30 3075 N 291.318 -2.48768 5.04054 0
M  V30 3076 H 283.469 0.0690977 2.12288 0
M  V30 3077 H 285.732 -0.0317164 0.947469 0
M  V30 3078 H 285.438 -0.707206 3.44516 0
M  V30 3079 H 285.312 -2.37902 2.92716 0
M  V30 3080 H 287.699 -2.21598 1.9488 0
M  V30 3081 H 287.78 -0.536898 2.50102 0
M  V30 3082 H 287.424 -1.3325 4.90109 0
M  V30 3083 H 287.354 -3.0144 4.31789 0
M  V30 3084 H 289.845 -1.81991 3.31191 0
M  V30 3085 H 290.158 -3.16149 7.05174 0
M  V30 3086 H 288.503 -2.84955 6.33897 0
M  V30 3087 H 291.694 -2.18009 4.14234 0
M  V30 3088 H 291.867 -2.79207 5.84763 0
M  V30 3089 N 285.273 -1.31445 -0.869486 0
M  V30 3090 C 286.498 -1.24256 -1.66058 0
M  V30 3091 C 286.923 0.188928 -1.87149 0
M  V30 3092 O 286.281 1.13522 -1.4136 0
M  V30 3093 C 286.329 -1.9924 -3.00559 0
M  V30 3094 O 285.433 -1.33007 -3.90362 0
M  V30 3095 H 284.774 -0.428973 -0.506831 0
M  V30 3096 H 287.304 -1.73521 -1.08404 0
M  V30 3097 H 287.314 -2.08854 -3.50491 0
M  V30 3098 H 285.989 -3.03342 -2.84528 0
M  V30 3099 H 284.566 -1.31848 -3.48813 0
M  V30 3100 N 286.751 1.08385 -1.14413 0
M  V30 3101 C 287.681 2.17321 -0.854044 0
M  V30 3102 C 288.662 1.69024 0.191049 0
M  V30 3103 O 289.847 1.94141 0.0476779 0
M  V30 3104 C 286.977 3.45719 -0.330983 0
M  V30 3105 C 285.931 4.07409 -1.31155 0
M  V30 3106 C 285.257 5.30762 -0.64778 0
M  V30 3107 C 286.557 4.48665 -2.67388 0
M  V30 3108 H 288.251 2.41845 -1.76498 0
M  V30 3109 H 285.797 1.16233 -0.850051 0
M  V30 3110 H 287.75 4.21241 -0.115645 0
M  V30 3111 H 286.474 3.2075 0.615381 0
M  V30 3112 H 285.133 3.33919 -1.51306 0
M  V30 3113 H 284.781 5.02078 0.304398 0
M  V30 3114 H 284.481 5.72992 -1.30207 0
M  V30 3115 H 286.005 6.08998 -0.441972 0
M  V30 3116 H 287.419 5.15364 -2.51143 0
M  V30 3117 H 285.816 5.01814 -3.29093 0
M  V30 3118 H 286.886 3.60543 -3.24248 0
M  V30 3119 N 288.23 0.939286 1.26551 0
M  V30 3120 C 289.46 0.601663 1.97645 0
M  V30 3121 C 289.868 -0.827206 1.70159 0
M  V30 3122 O 289.211 -1.56291 0.965338 0
M  V30 3123 C 289.273 0.761725 3.51337 0
M  V30 3124 C 288.937 2.16487 4.0247 0
M  V30 3125 C 289.934 3.14016 4.14355 0
M  V30 3126 C 287.619 2.48494 4.36527 0
M  V30 3127 C 289.613 4.41654 4.59587 0
M  V30 3128 C 287.3 3.76364 4.81449 0
M  V30 3129 C 288.298 4.72758 4.92939 0
M  V30 3130 O 287.986 5.98352 5.36871 0
M  V30 3131 H 287.718 0.225758 0.637189 0
M  V30 3132 H 290.272 1.26178 1.62075 0
M  V30 3133 H 288.502 0.0444808 3.86674 0
M  V30 3134 H 290.191 0.427442 4.03643 0
M  V30 3135 H 290.957 2.90613 3.8829 0
M  V30 3136 H 286.836 1.74202 4.26819 0
M  V30 3137 H 290.38 5.16896 4.68471 0
M  V30 3138 H 286.277 3.99582 5.06956 0
M  V30 3139 H 287.045 6.01507 5.55096 0
M  V30 3140 N 289.708 -1.40897 0.706093 0
M  V30 3141 C 290.658 -2.27987 0.0240746 0
M  V30 3142 C 291.642 -1.42759 -0.742204 0
M  V30 3143 O 292.834 -1.65936 -0.615966 0
M  V30 3144 C 289.963 -3.31186 -0.903907 0
M  V30 3145 C 289.049 -4.2389 -0.133318 0
M  V30 3146 N 289.44 -4.98113 0.878444 0
M  V30 3147 C 287.738 -4.44485 -0.367269 0
M  V30 3148 C 288.439 -5.6604 1.34064 0
M  V30 3149 N 287.415 -5.39522 0.664565 0
M  V30 3150 H 291.217 -2.82812 0.799658 0
M  V30 3151 H 288.731 -1.53235 0.537845 0
M  V30 3152 H 290.728 -3.92413 -1.40775 0
M  V30 3153 H 289.388 -2.77922 -1.67897 0
M  V30 3154 H 290.399 -5.02364 1.25901 0
M  V30 3155 H 287.076 -4.02213 -1.1194 0
M  V30 3156 H 288.466 -6.35524 2.1808 0
M  V30 3157 N 291.186 -0.45159 -1.50991 0
M  V30 3158 C 292.432 0.110237 -2.025 0
M  V30 3159 C 292.765 1.41109 -1.33424 0
M  V30 3160 O 292.04 1.89135 -0.453659 0
M  V30 3161 C 292.323 0.314271 -3.58726 0
M  V30 3162 C 292.176 -1.00623 -4.38401 0
M  V30 3163 C 293.495 1.07767 -4.26702 0
M  V30 3164 H 290.614 0.0385897 -0.735989 0
M  V30 3165 H 293.256 -0.593374 -1.80497 0
M  V30 3166 H 291.406 0.913601 -3.77605 0
M  V30 3167 H 293.078 -1.64064 -4.31139 0
M  V30 3168 H 291.321 -1.6075 -4.02917 0
M  V30 3169 H 291.992 -0.817341 -5.45915 0
M  V30 3170 H 294.468 0.56986 -4.12179 0
M  V30 3171 H 293.344 1.18921 -5.35863 0
M  V30 3172 H 293.605 2.10939 -3.88532 0
M  V30 3173 N 292.664 1.56529 -0.183458 0
M  V30 3174 C 293.614 2.1515 0.754605 0
M  V30 3175 C 294.598 1.08904 1.18443 0
M  V30 3176 O 295.79 1.34997 1.14476 0
M  V30 3177 C 292.919 2.80531 1.97881 0
M  V30 3178 C 292.005 3.93952 1.57043 0
M  V30 3179 N 292.396 4.98221 0.87231 0
M  V30 3180 C 290.694 4.05338 1.86057 0
M  V30 3181 C 291.395 5.77836 0.669377 0
M  V30 3182 N 290.371 5.29858 1.21454 0
M  V30 3183 H 294.173 2.93132 0.212387 0
M  V30 3184 H 291.687 1.62391 0.0167725 0
M  V30 3185 H 293.684 3.20914 2.6612 0
M  V30 3186 H 292.344 2.04035 2.52586 0
M  V30 3187 H 293.355 5.15191 0.529033 0
M  V30 3188 H 290.032 3.39957 2.42354 0
M  V30 3189 H 291.422 6.71799 0.116422 0
M  V30 3190 N 294.142 -0.090211 1.57342 0
M  V30 3191 C 295.075 -1.14035 1.97664 0
M  V30 3192 C 296.053 -1.38576 0.850616 0
M  V30 3193 O 297.237 -1.52255 1.11134 0
M  V30 3194 C 294.364 -2.48854 2.2976 0
M  V30 3195 C 293.41 -2.40564 3.52181 0
M  V30 3196 S 294.243 -1.81745 5.03715 0
M  V30 3197 C 295.399 -3.18178 5.38993 0
M  V30 3198 H 295.632 -0.796636 2.86428 0
M  V30 3199 H 293.165 -0.298072 1.51496 0
M  V30 3200 H 295.123 -3.26413 2.48927 0
M  V30 3201 H 293.784 -2.80393 1.41558 0
M  V30 3202 H 292.977 -3.39942 3.72096 0
M  V30 3203 H 292.579 -1.71135 3.32549 0
M  V30 3204 H 294.871 -4.14461 5.35937 0
M  V30 3205 H 295.814 -3.03062 6.39968 0
M  V30 3206 H 296.222 -3.17935 4.66452 0
M  V30 3207 N 295.62 -1.53406 -0.361157 0
M  V30 3208 C 296.552 -1.76446 -1.46286 0
M  V30 3209 C 297.565 -0.645322 -1.49464 0
M  V30 3210 O 298.754 -0.921681 -1.52864 0
M  V30 3211 C 295.854 -1.83332 -2.85031 0
M  V30 3212 C 295.027 -3.13033 -3.05498 0
M  V30 3213 C 294.086 -3.11104 -4.24383 0
M  V30 3214 O 293.112 -3.84888 -4.19344 0
M  V30 3215 N 294.314 -2.32234 -5.32022 0
M  V30 3216 H 297.079 -2.71508 -1.26899 0
M  V30 3217 H 294.64 -1.52238 -0.550915 0
M  V30 3218 H 296.632 -1.79514 -3.62708 0
M  V30 3219 H 295.202 -0.955342 -2.97644 0
M  V30 3220 H 294.422 -3.30119 -2.15442 0
M  V30 3221 H 295.71 -3.9874 -3.16044 0
M  V30 3222 H 295.108 -1.71807 -5.38979 0
M  V30 3223 H 293.665 -2.3423 -6.08259 0
M  V30 3224 N 297.098 0.621204 -1.44841 0
M  V30 3225 C 298.046 1.75385 -1.52784 0
M  V30 3226 C 299.04 1.64639 -0.398779 0
M  V30 3227 O 300.246 1.70598 -0.574137 0
M  V30 3228 H 296.621 0.579193 -0.479625 0
M  V30 3229 H 298.592 1.6581 -2.48092 0
M  V30 3230 C 297.341 3.13742 -1.4987 0
M  V30 3231 H 296.664 3.22663 -2.36069 0
M  V30 3232 H 298.104 3.92861 -1.59487 0
M  V30 3233 C 296.563 3.36175 -0.220973 0
M  V30 3234 O 297.093 3.95469 0.704782 0
M  V30 3235 N 295.299 2.90348 -0.120963 0
M  V30 3236 H 294.846 2.42278 -0.875162 0
M  V30 3237 H 294.804 3.05732 0.733168 0
M  V30 3238 N 298.576 1.31904 0.862503 0
M  V30 3239 C 299.822 1.23207 1.61838 0
M  V30 3240 C 300.177 -0.206062 1.91293 0
M  V30 3241 O 299.47 -1.14162 1.53875 0
M  V30 3242 C 299.664 2.01713 2.95037 0
M  V30 3243 C 299.493 3.53014 2.78588 0
M  V30 3244 C 298.263 4.22359 2.77382 0
M  V30 3245 C 300.461 4.47819 2.52909 0
M  V30 3246 N 298.443 5.59766 2.52062 0
M  V30 3247 C 299.814 5.72947 2.36922 0
M  V30 3248 C 301.869 4.37162 2.38314 0
M  V30 3249 C 300.572 6.88623 2.07823 0
M  V30 3250 C 302.598 5.5263 2.10604 0
M  V30 3251 C 301.96 6.76752 1.95411 0
M  V30 3252 H 298.059 0.505984 0.596242 0
M  V30 3253 H 300.643 1.66179 1.01452 0
M  V30 3254 H 298.814 1.61098 3.53415 0
M  V30 3255 H 300.546 1.84975 3.59953 0
M  V30 3256 H 297.301 3.74401 2.90036 0
M  V30 3257 H 297.725 6.32135 2.42352 0
M  V30 3258 H 302.367 3.41857 2.48784 0
M  V30 3259 H 300.085 7.83948 1.9609 0
M  V30 3260 H 303.671 5.46307 2.00101 0
M  V30 3261 H 302.551 7.6459 1.74274 0
M  V30 3262 N 300.054 -1.07777 1.14986 0
M  V30 3263 C 300.984 -2.16865 0.865557 0
M  V30 3264 C 301.965 -1.69123 -0.182083 0
M  V30 3265 O 303.15 -1.94164 -0.0373815 0
M  V30 3266 C 300.28 -3.45539 0.349313 0
M  V30 3267 C 299.234 -4.06708 1.33313 0
M  V30 3268 C 298.56 -5.30411 0.675918 0
M  V30 3269 C 299.86 -4.47241 2.69764 0
M  V30 3270 H 301.554 -2.40905 1.77778 0
M  V30 3271 H 299.1 -1.15781 0.856203 0
M  V30 3272 H 301.053 -4.21174 0.137983 0
M  V30 3273 H 299.777 -3.21072 -0.598362 0
M  V30 3274 H 298.436 -3.33112 1.53075 0
M  V30 3275 H 298.084 -5.02232 -0.277767 0
M  V30 3276 H 297.784 -5.72293 1.33244 0
M  V30 3277 H 299.308 -6.08755 0.474262 0
M  V30 3278 H 300.722 -5.14025 2.53873 0
M  V30 3279 H 299.119 -5.00062 3.3175 0
M  V30 3280 H 300.189 -3.58818 3.26156 0
M  V30 3281 N 301.532 -0.945985 -1.26051 0
M  V30 3282 C 302.948 -0.649045 -1.45807 0
M  V30 3283 C 303.148 0.796158 -1.85104 0
M  V30 3284 O 302.204 1.57233 -1.97571 0
M  V30 3285 C 303.517 -1.61458 -2.53677 0
M  V30 3286 C 305.065 -1.62481 -2.67524 0
M  V30 3287 C 305.54 -2.57776 -3.7857 0
M  V30 3288 N 307.031 -2.5609 -3.85969 0
M  V30 3289 C 307.766 -3.26508 -4.7136 0
M  V30 3290 N 307.262 -4.0637 -5.61102 0
M  V30 3291 N 309.055 -3.15437 -4.65248 0
M  V30 3292 H 301.206 -1.88005 -0.988328 0
M  V30 3293 H 303.469 -0.808198 -0.4955 0
M  V30 3294 H 303.175 -2.64644 -2.31638 0
M  V30 3295 H 303.049 -1.37036 -3.51427 0
M  V30 3296 H 305.436 -0.600167 -2.88933 0
M  V30 3297 H 305.517 -1.90958 -1.70202 0
M  V30 3298 H 305.161 -3.60361 -3.57913 0
M  V30 3299 H 305.091 -2.26587 -4.75359 0
M  V30 3300 H 307.582 -1.98105 -3.21812 0
M  V30 3301 H 307.895 -4.57042 -6.23164 0
M  V30 3302 H 306.24 -4.10469 -5.60839 0
M  V30 3303 H 309.431 -2.52525 -3.94143 0
M  V30 3304 H 309.604 -3.70584 -5.31575 0
M  V30 3305 N 303.011 1.40521 -0.713556 0
M  V30 3306 C 304.258 2.00923 -0.25219 0
M  V30 3307 C 304.586 1.56571 1.15395 0
M  V30 3308 O 303.841 0.775874 1.79663 0
M  V30 3309 C 304.14 3.56317 -0.278 0
M  V30 3310 C 303.806 4.20246 -1.63415 0
M  V30 3311 C 302.468 4.37422 -2.00538 0
M  V30 3312 C 304.82 4.55923 -2.52554 0
M  V30 3313 C 302.148 4.87558 -3.2635 0
M  V30 3314 C 304.5 5.07458 -3.77716 0
M  V30 3315 C 303.164 5.22843 -4.14959 0
M  V30 3316 H 302.434 0.735231 -0.0922829 0
M  V30 3317 H 305.081 1.68161 -0.916188 0
M  V30 3318 H 303.386 3.88976 0.469567 0
M  V30 3319 H 305.083 4.00883 0.0967819 0
M  V30 3320 H 301.673 4.07263 -1.33546 0
M  V30 3321 H 305.857 4.42291 -2.25149 0
M  V30 3322 H 301.113 4.97654 -3.55176 0
M  V30 3323 H 305.287 5.34041 -4.4696 0
M  V30 3324 H 302.914 5.61454 -5.12516 0
M  V30 3325 N 304.489 0.459591 1.5075 0
M  V30 3326 C 305.736 -0.0993495 2.02256 0
M  V30 3327 C 306.064 -1.40751 1.34237 0
M  V30 3328 O 305.319 -1.90379 0.453228 0
M  V30 3329 C 305.618 -0.342866 3.55752 0
M  V30 3330 C 305.284 0.88218 4.42186 0
M  V30 3331 C 303.946 1.21808 4.65528 0
M  V30 3332 C 306.298 1.69837 4.92752 0
M  V30 3333 C 303.626 2.37045 5.36681 0
M  V30 3334 C 305.978 2.84192 5.65171 0
M  V30 3335 C 304.642 3.1821 5.8677 0
M  V30 3336 H 303.912 -0.0363545 0.740108 0
M  V30 3337 H 306.559 0.611329 1.8148 0
M  V30 3338 H 304.864 -1.13567 3.7498 0
M  V30 3339 H 306.561 -0.789121 3.93159 0
M  V30 3340 H 303.151 0.610467 4.2423 0
M  V30 3341 H 307.335 1.45205 4.74583 0
M  V30 3342 H 302.591 2.63689 5.51614 0
M  V30 3343 H 306.765 3.4779 6.03337 0
M  V30 3344 H 304.392 4.07613 6.41682 0
M  V30 3345 N 305.967 -1.56429 0.191757 0
M  V30 3346 C 307.378 -1.83912 -0.321428 0
M  V30 3347 C 307.729 -1.11231 -1.61623 0
M  V30 3348 O 306.854 -0.37202 -2.13178 0
M  V30 3349 C 307.449 -3.33624 -0.589961 0
M  V30 3350 C 306.008 -3.6153 -1.04753 0
M  V30 3351 C 305.155 -2.7714 -0.0943327 0
M  V30 3352 H 308.106 -1.53161 0.415612 0
M  V30 3353 H 308.127 -3.52213 -1.43966 0
M  V30 3354 H 307.639 -3.86495 0.352588 0
M  V30 3355 H 305.74 -3.14089 -2.00447 0
M  V30 3356 H 305.853 -4.69737 -0.942549 0
M  V30 3357 H 304.217 -2.47638 -0.595589 0
M  V30 3358 H 305 -3.32799 0.842601 0
M  V30 3359 N 307.445 0.0818655 -1.57387 0
M  V30 3360 C 308.375 1.09885 -2.06028 0
M  V30 3361 C 309.356 1.4098 -0.951774 0
M  V30 3362 O 310.541 1.50781 -1.22387 0
M  V30 3363 C 307.671 2.4151 -2.4958 0
M  V30 3364 C 306.625 2.24792 -3.64215 0
M  V30 3365 C 305.951 3.61712 -3.93787 0
M  V30 3366 C 307.251 1.67749 -4.94629 0
M  V30 3367 H 308.945 0.694128 -2.91243 0
M  V30 3368 H 306.491 0.332448 -1.4011 0
M  V30 3369 H 308.444 3.12939 -2.82219 0
M  V30 3370 H 307.168 2.83943 -1.61381 0
M  V30 3371 H 305.827 1.55807 -3.31843 0
M  V30 3372 H 305.475 4.01697 -3.02735 0
M  V30 3373 H 305.175 3.51368 -4.70971 0
M  V30 3374 H 306.699 4.34587 -4.28913 0
M  V30 3375 H 308.113 2.29032 -5.25564 0
M  V30 3376 H 306.51 1.68128 -5.76067 0
M  V30 3377 H 307.58 0.638059 -4.80684 0
M  V30 3378 N 308.923 1.53595 0.353017 0
M  V30 3379 C 310.339 1.43648 0.695516 0
M  V30 3380 C 310.539 0.585617 1.92802 0
M  V30 3381 O 309.595 0.0729223 2.52395 0
M  V30 3382 C 310.908 2.8701 0.896991 0
M  V30 3383 C 312.456 2.96723 0.996209 0
M  V30 3384 C 312.931 4.41173 1.23007 0
M  V30 3385 N 314.422 4.44657 1.29749 0
M  V30 3386 C 315.157 5.53547 1.49577 0
M  V30 3387 N 314.653 6.72461 1.66639 0
M  V30 3388 N 316.446 5.41145 1.52048 0
M  V30 3389 H 308.597 2.07415 -0.457481 0
M  V30 3390 H 310.86 0.9372 -0.142687 0
M  V30 3391 H 310.566 3.51644 0.0629938 0
M  V30 3392 H 310.44 3.31401 1.80148 0
M  V30 3393 H 312.827 2.32235 1.82074 0
M  V30 3394 H 312.908 2.55707 0.0688331 0
M  V30 3395 H 312.552 5.06238 0.410505 0
M  V30 3396 H 312.482 4.79772 2.17086 0
M  V30 3397 H 314.973 3.58963 1.18126 0
M  V30 3398 H 315.286 7.51214 1.81378 0
M  V30 3399 H 313.631 6.75423 1.63794 0
M  V30 3400 H 316.822 4.47205 1.38294 0
M  V30 3401 H 316.995 6.26068 1.67159 0
M  V30 3402 N 310.401 -0.613514 1.45168 0
M  V30 3403 C 311.351 -1.71871 1.49815 0
M  V30 3404 C 312.335 -1.56774 0.362021 0
M  V30 3405 O 313.527 -1.66212 0.608493 0
M  V30 3406 C 310.656 -3.1061 1.46207 0
M  V30 3407 C 309.742 -3.31114 2.64999 0
M  V30 3408 N 310.133 -3.21904 3.90143 0
M  V30 3409 C 308.431 -3.61966 2.6057 0
M  V30 3410 C 309.132 -3.43577 4.69393 0
M  V30 3411 N 308.108 -3.67287 4.00751 0
M  V30 3412 H 311.91 -1.63235 2.444 0
M  V30 3413 H 309.424 -0.816577 1.40377 0
M  V30 3414 H 311.421 -3.8989 1.4762 0
M  V30 3415 H 310.081 -3.20399 0.52673 0
M  V30 3416 H 311.092 -3.00436 4.21852 0
M  V30 3417 H 307.769 -3.78629 1.75916 0
M  V30 3418 H 309.159 -3.41901 5.78406 0
M  V30 3419 N 311.879 -1.3236 -0.855495 0
M  V30 3420 C 313.128 -1.22226 -1.60448 0
M  V30 3421 C 313.441 0.214733 -1.94418 0
M  V30 3422 O 314.647 0.437917 -2.67945 0
M  V30 3423 C 313.103 -2.14063 -2.89318 0
M  V30 3424 C 312.711 -3.62839 -2.62777 0
M  V30 3425 C 314.455 -2.12764 -3.67331 0
M  V30 3426 C 312.362 -4.4664 -3.87643 0
M  V30 3427 H 311.292 -0.453904 -0.602069 0
M  V30 3428 H 313.943 -1.57314 -0.944698 0
M  V30 3429 H 312.325 -1.71889 -3.5675 0
M  V30 3430 H 313.499 -4.1335 -2.03662 0
M  V30 3431 H 311.814 -3.66261 -1.98096 0
M  V30 3432 H 314.411 -2.72611 -4.59987 0
M  V30 3433 H 314.754 -1.11841 -4.00995 0
M  V30 3434 H 315.287 -2.53214 -3.06802 0
M  V30 3435 H 312.026 -5.48373 -3.5912 0
M  V30 3436 H 311.546 -4.0088 -4.46156 0
M  V30 3437 H 313.225 -4.59597 -4.55389 0
M  V30 3438 N 313.357 1.07166 -1.15556 0
M  V30 3439 C 314.307 2.12649 -0.82247 0
M  V30 3440 C 315.291 1.59725 0.194129 0
M  V30 3441 O 316.483 1.76999 -0.00540402 0
M  V30 3442 C 313.612 3.41847 -0.315572 0
M  V30 3443 C 312.698 4.0162 -1.36244 0
M  V30 3444 N 313.089 4.35625 -2.5703 0
M  V30 3445 C 311.387 4.29114 -1.21562 0
M  V30 3446 C 312.088 4.83017 -3.24144 0
M  V30 3447 N 311.064 4.81906 -2.51531 0
M  V30 3448 H 314.866 2.36776 -1.74111 0
M  V30 3449 H 312.38 1.24622 -1.0413 0
M  V30 3450 H 314.377 4.16859 -0.0585855 0
M  V30 3451 H 313.037 3.19163 0.597105 0
M  V30 3452 H 314.048 4.26253 -2.94158 0
M  V30 3453 H 310.725 4.15919 -0.362988 0
M  V30 3454 H 312.115 5.18605 -4.27198 0
M  V30 3455 N 314.835 0.952656 1.25548 0
M  V30 3456 C 316.084 0.602053 1.92505 0
M  V30 3457 C 316.397 -0.864663 1.75451 0
M  V30 3458 O 317.603 -1.32514 2.36965 0
M  V30 3459 C 316.059 1.02607 3.44963 0
M  V30 3460 C 315.667 2.51519 3.70732 0
M  V30 3461 C 317.411 0.747905 4.1786 0
M  V30 3462 C 315.318 2.87732 5.16686 0
M  V30 3463 H 314.248 0.22146 0.720744 0
M  V30 3464 H 316.899 1.15684 1.42441 0
M  V30 3465 H 315.281 0.399712 3.93978 0
M  V30 3466 H 316.455 3.19157 3.32378 0
M  V30 3467 H 314.77 2.76786 3.11092 0
M  V30 3468 H 317.367 0.994647 5.25367 0
M  V30 3469 H 317.71 -0.315629 4.15102 0
M  V30 3470 H 318.243 1.33452 3.74747 0
M  V30 3471 H 314.982 3.93095 5.24554 0
M  V30 3472 H 314.502 2.24765 5.56094 0
M  V30 3473 H 316.181 2.76817 5.84792 0
M  V30 3474 N 316.313 -1.40141 0.720998 0
M  V30 3475 C 317.559 -2.01084 0.263231 0
M  V30 3476 C 317.892 -1.57052 -1.14229 0
M  V30 3477 O 317.167 -0.793027 -1.77599 0
M  V30 3478 C 317.45 -3.58401 0.349344 0
M  V30 3479 C 317.303 -4.12491 1.79363 0
M  V30 3480 C 318.622 -4.39231 -0.276351 0
M  V30 3481 H 315.741 -0.730572 0.0971228 0
M  V30 3482 H 318.383 -1.66543 0.914518 0
M  V30 3483 H 316.533 -3.87958 -0.205165 0
M  V30 3484 H 318.205 -3.93711 2.40394 0
M  V30 3485 H 316.448 -3.66576 2.31958 0
M  V30 3486 H 317.119 -5.21646 1.80524 0
M  V30 3487 H 319.595 -4.15637 0.196184 0
M  V30 3488 H 318.471 -5.48586 -0.185681 0
M  V30 3489 H 318.732 -4.20643 -1.36059 0
M  V30 3490 N 317.792 -0.46758 -1.50504 0
M  V30 3491 C 319.069 0.15003 -1.95024 0
M  V30 3492 C 319.449 1.57304 -1.40779 0
M  V30 3493 O 318.797 2.20281 -0.607319 0
M  V30 3494 C 319.007 0.0969324 -3.48865 0
M  V30 3495 C 320.355 0.287565 -4.23625 0
M  V30 3496 O 321.379 0.173678 -3.55776 0
M  V30 3497 O 320.238 0.517186 -5.44047 0
M  V30 3498 H 317.332 0.113582 -0.819163 0
M  V30 3499 H 319.878 -0.52773 -1.61286 0
M  V30 3500 H 318.65 -0.896732 -3.80886 0
M  V30 3501 H 318.273 0.816303 -3.8913 0
M  V30 3502 N 319.27 1.56325 -0.20005 0
M  V30 3503 C 320.518 1.97329 0.436547 0
M  V30 3504 C 320.839 1.08826 1.61808 0
M  V30 3505 O 320.109 0.160604 1.95241 0
M  V30 3506 H 318.689 0.728714 0.164272 0
M  V30 3507 H 321.351 1.92761 -0.287937 0
M  V30 3508 H 320.447 3.02264 0.777353 0
M  V30 3509 N 320.748 -0.0735177 1.57428 0
M  V30 3510 C 322.025 -0.805903 1.78226 0
M  V30 3511 C 322.405 -1.95874 0.787189 0
M  V30 3512 O 321.753 -2.2779 -0.180029 0
M  V30 3513 C 321.963 -1.28045 3.24662 0
M  V30 3514 C 323.311 -1.71453 3.88444 0
M  V30 3515 O 324.335 -1.37616 3.28543 0
M  V30 3516 O 323.194 -2.34093 4.93825 0
M  V30 3517 H 320.288 -0.386041 0.73137 0
M  V30 3518 H 322.834 -0.0537269 1.69615 0
M  V30 3519 H 321.606 -0.455476 3.8864 0
M  V30 3520 H 321.229 -2.094 3.37991 0
M  V30 3521 N 322.226 -1.5378 -0.344866 0
M  V30 3522 C 323.642 -1.44015 -0.687888 0
M  V30 3523 C 323.842 -0.595834 -1.92489 0
M  V30 3524 O 322.898 -0.0863064 -2.52352 0
M  V30 3525 C 324.211 -2.87481 -0.881758 0
M  V30 3526 C 325.759 -2.97247 -0.980459 0
M  V30 3527 C 326.234 -4.41819 -1.20665 0
M  V30 3528 N 327.725 -4.45339 -1.27389 0
M  V30 3529 C 328.46 -5.54333 -1.46639 0
M  V30 3530 N 327.956 -6.73335 -1.63071 0
M  V30 3531 N 329.749 -5.41944 -1.49176 0
M  V30 3532 H 321.9 -2.07169 0.468475 0
M  V30 3533 H 324.163 -0.93643 0.147655 0
M  V30 3534 H 323.869 -3.51672 -0.0443444 0
M  V30 3535 H 323.743 -3.32352 -1.78388 0
M  V30 3536 H 326.13 -2.33197 -1.8084 0
M  V30 3537 H 326.211 -2.5574 -0.0552713 0
M  V30 3538 H 325.855 -5.06449 -0.383652 0
M  V30 3539 H 325.785 -4.80917 -2.14539 0
M  V30 3540 H 328.276 -3.59585 -1.1622 0
M  V30 3541 H 328.589 -7.52165 -1.77391 0
M  V30 3542 H 326.934 -6.76282 -1.60209 0
M  V30 3543 H 330.125 -4.47932 -1.3592 0
M  V30 3544 H 330.298 -6.26946 -1.63837 0
M  V30 3545 N 323.704 0.605807 -1.45491 0
M  V30 3546 C 324.634 1.72709 -1.57143 0
M  V30 3547 C 325.615 1.6476 -0.422884 0
M  V30 3548 O 326.8 1.83132 -0.646247 0
M  V30 3549 C 323.93 3.11316 -1.53948 0
M  V30 3550 C 322.884 3.34077 -2.67537 0
M  V30 3551 C 322.21 4.72975 -2.49397 0
M  V30 3552 C 323.51 3.24158 -4.09535 0
M  V30 3553 H 325.204 1.63214 -2.51001 0
M  V30 3554 H 322.75 0.78379 -1.208 0
M  V30 3555 H 324.703 3.89557 -1.60696 0
M  V30 3556 H 323.427 3.21655 -0.566205 0
M  V30 3557 H 322.086 2.58227 -2.6022 0
M  V30 3558 H 321.734 4.8005 -1.50205 0
M  V30 3559 H 321.434 4.8916 -3.25571 0
M  V30 3560 H 322.958 5.53414 -2.58002 0
M  V30 3561 H 324.372 3.92271 -4.18086 0
M  V30 3562 H 322.769 3.51872 -4.86113 0
M  V30 3563 H 323.839 2.2157 -4.31317 0
M  V30 3564 N 325.182 1.32811 0.848464 0
M  V30 3565 C 326.431 1.23075 1.59798 0
M  V30 3566 C 326.744 -0.204419 1.94529 0
M  V30 3567 O 327.95 -0.423701 2.68173 0
M  V30 3568 C 326.406 2.15594 2.88179 0
M  V30 3569 C 326.014 3.64228 2.60849 0
M  V30 3570 C 327.758 2.14709 3.66197 0
M  V30 3571 C 325.665 4.48689 3.85269 0
M  V30 3572 H 324.595 0.457091 0.599653 0
M  V30 3573 H 327.246 1.57813 0.936342 0
M  V30 3574 H 325.628 1.73778 3.55833 0
M  V30 3575 H 326.802 4.14424 2.01467 0
M  V30 3576 H 325.117 3.67306 1.96151 0
M  V30 3577 H 327.714 2.75046 4.58534 0
M  V30 3578 H 328.057 1.13966 4.00397 0
M  V30 3579 H 328.59 2.54837 3.05455 0
M  V30 3580 H 325.329 5.5027 3.56207 0
M  V30 3581 H 324.849 4.03241 4.44024 0
M  V30 3582 H 326.528 4.62006 4.52946 0
M  V30 3583 N 326.66 -1.06551 1.16123 0
M  V30 3584 C 328.076 -1.3142 0.905585 0
M  V30 3585 C 328.276 -1.96571 -0.442964 0
M  V30 3586 O 327.332 -2.23068 -1.18308 0
M  V30 3587 C 328.645 -2.19741 2.05267 0
M  V30 3588 C 330.193 -2.33165 2.08813 0
M  V30 3589 C 330.668 -3.24838 3.22868 0
M  V30 3590 N 332.159 -3.32421 3.22568 0
M  V30 3591 C 332.894 -4.0344 4.0746 0
M  V30 3592 N 332.39 -4.77003 5.02434 0
M  V30 3593 N 334.183 -3.99464 3.95456 0
M  V30 3594 H 326.334 -0.626548 2.02949 0
M  V30 3595 H 328.597 -0.338777 0.8854 0
M  V30 3596 H 328.303 -1.79142 3.02657 0
M  V30 3597 H 328.177 -3.20313 1.99198 0
M  V30 3598 H 330.564 -2.73013 1.12018 0
M  V30 3599 H 330.645 -1.3227 2.18948 0
M  V30 3600 H 330.289 -2.85708 4.19921 0
M  V30 3601 H 330.219 -4.25707 3.0997 0
M  V30 3602 H 332.71 -2.79994 2.53795 0
M  V30 3603 H 333.023 -5.28712 5.63634 0
M  V30 3604 H 331.368 -4.75992 5.06415 0
M  V30 3605 H 334.559 -3.4111 3.20564 0
M  V30 3606 H 334.732 -4.54544 4.61837 0
M  V30 3607 N 328.138 -0.959301 -1.25041 0
M  V30 3608 C 329.415 -0.533805 -1.88175 0
M  V30 3609 C 329.795 0.988994 -1.865 0
M  V30 3610 O 329.143 1.85677 -1.33177 0
M  V30 3611 C 329.353 -1.11575 -3.30684 0
M  V30 3612 C 330.701 -1.19548 -4.07423 0
M  V30 3613 O 331.725 -1.06765 -3.39823 0
M  V30 3614 O 330.584 -1.39656 -5.28354 0
M  V30 3615 H 327.678 -0.176772 -0.807887 0
M  V30 3616 H 330.224 -1.05303 -1.33076 0
M  V30 3617 H 328.996 -2.15884 -3.26358 0
M  V30 3618 H 328.619 -0.580059 -3.93346 0
M  V30 3619 N 329.616 1.39756 -0.72842 0
M  V30 3620 C 331.027 1.83498 -0.344289 0
M  V30 3621 C 331.378 1.60868 1.12321 0
M  V30 3622 O 330.503 1.09634 1.86573 0
M  V30 3623 C 331.098 3.33114 -0.618112 0
M  V30 3624 C 329.657 3.753 -0.287549 0
M  V30 3625 C 328.804 2.62831 -0.884048 0
M  V30 3626 H 331.755 1.28842 -0.926578 0
M  V30 3627 H 331.776 3.80334 0.112349 0
M  V30 3628 H 331.288 3.49553 -1.68625 0
M  V30 3629 H 329.389 3.64451 0.775012 0
M  V30 3630 H 329.502 4.72945 -0.765512 0
M  V30 3631 H 327.866 2.52792 -0.311149 0
M  V30 3632 H 328.649 2.82078 -1.95671 0
M  V30 3633 N 331.094 0.475555 1.50254 0
M  V30 3634 C 332.341 -0.0778919 2.0235 0
M  V30 3635 C 332.669 -1.39319 1.35722 0
M  V30 3636 O 331.924 -1.89888 0.473395 0
M  V30 3637 C 332.223 -0.305114 3.56095 0
M  V30 3638 C 331.889 0.92903 4.41225 0
M  V30 3639 C 330.551 1.26739 4.6421 0
M  V30 3640 C 332.903 1.75054 4.90923 0
M  V30 3641 C 330.231 2.42724 5.34137 0
M  V30 3642 C 332.583 2.9017 5.62125 0
M  V30 3643 C 331.247 3.24416 5.83362 0
M  V30 3644 H 330.517 -0.0285027 0.740452 0
M  V30 3645 H 333.164 0.630543 1.80821 0
M  V30 3646 H 331.469 -1.09584 3.76163 0
M  V30 3647 H 333.166 -0.747377 3.93974 0
M  V30 3648 H 329.756 0.655428 4.23559 0
M  V30 3649 H 333.94 1.50231 4.73016 0
M  V30 3650 H 329.196 2.69525 5.48786 0
M  V30 3651 H 333.37 3.54169 5.99614 0
M  V30 3652 H 330.997 4.14396 6.37323 0
M  V30 3653 N 332.573 -1.56217 0.208337 0
M  V30 3654 C 333.984 -1.84243 -0.301904 0
M  V30 3655 C 334.335 -1.12939 -1.60434 0
M  V30 3656 O 333.46 -0.39461 -2.12772 0
M  V30 3657 C 334.055 -3.34231 -0.554543 0
M  V30 3658 C 332.614 -3.62621 -1.00912 0
M  V30 3659 C 331.761 -2.77224 -0.064933 0
M  V30 3660 H 334.712 -1.52712 0.431833 0
M  V30 3661 H 334.733 -3.5372 -1.40223 0
M  V30 3662 H 334.245 -3.86099 0.393561 0
M  V30 3663 H 332.346 -3.16197 -1.97104 0
M  V30 3664 H 332.459 -4.7071 -0.892674 0
M  V30 3665 H 330.823 -2.48256 -0.56929 0
M  V30 3666 H 331.606 -3.31887 0.877851 0
M  V30 3667 N 334.051 0.0651679 -1.57465 0
M  V30 3668 C 334.961 1.09448 -2.07505 0
M  V30 3669 C 335.977 1.41974 -1.00595 0
M  V30 3670 O 337.153 1.52018 -1.32107 0
M  V30 3671 C 334.218 2.38689 -2.51453 0
M  V30 3672 C 333.279 2.13073 -3.72691 0
M  V30 3673 C 332.512 3.36152 -4.14533 0
M  V30 3674 O 332.735 4.45517 -3.56189 0
M  V30 3675 O 331.669 3.23974 -5.07272 0
M  V30 3676 H 335.495 0.69935 -2.95538 0
M  V30 3677 H 333.08 0.279752 -1.46757 0
M  V30 3678 H 334.962 3.14736 -2.80212 0
M  V30 3679 H 333.637 2.77568 -1.66546 0
M  V30 3680 H 332.544 1.34709 -3.49005 0
M  V30 3681 H 333.877 1.79071 -4.5847 0
M  V30 3682 N 335.529 1.53961 0.336706 0
M  V30 3683 C 336.778 1.70751 1.07363 0
M  V30 3684 C 337.091 0.481061 1.89592 0
M  V30 3685 O 338.297 0.530046 2.66276 0
M  V30 3686 C 336.753 3.01965 1.95818 0
M  V30 3687 C 336.361 4.31971 1.18764 0
M  V30 3688 C 338.105 3.28121 2.69327 0
M  V30 3689 C 336.012 5.54255 2.06289 0
M  V30 3690 H 334.942 0.636292 0.404535 0
M  V30 3691 H 337.593 1.80459 0.332681 0
M  V30 3692 H 335.975 2.86132 2.7376 0
M  V30 3693 H 337.149 4.5853 0.456849 0
M  V30 3694 H 335.464 4.12481 0.569946 0
M  V30 3695 H 338.061 4.16673 3.35094 0
M  V30 3696 H 338.404 2.45426 3.36261 0
M  V30 3697 H 338.937 3.44762 1.98454 0
M  V30 3698 H 335.676 6.39513 1.43885 0
M  V30 3699 H 335.196 5.31935 2.77138 0
M  V30 3700 H 336.875 5.90159 2.65182 0
M  V30 3701 N 337.007 -0.598083 1.45811 0
M  V30 3702 C 337.939 -1.72231 1.51225 0
M  V30 3703 C 338.952 -1.57757 0.402059 0
M  V30 3704 O 340.141 -1.65464 0.669624 0
M  V30 3705 C 337.241 -3.10331 1.3619 0
M  V30 3706 C 336.414 -3.50955 2.61054 0
M  V30 3707 C 335.473 -4.68055 2.40439 0
M  V30 3708 O 334.499 -4.74691 3.14097 0
M  V30 3709 N 335.701 -5.61941 1.45612 0
M  V30 3710 H 338.466 -1.68046 2.48154 0
M  V30 3711 H 336.027 -0.783637 1.41671 0
M  V30 3712 H 338.019 -3.86439 1.20195 0
M  V30 3713 H 336.589 -3.0897 0.475015 0
M  V30 3714 H 335.809 -2.64711 2.92099 0
M  V30 3715 H 337.097 -3.74858 3.44034 0
M  V30 3716 H 336.495 -5.59301 0.848431 0
M  V30 3717 H 335.052 -6.37542 1.35585 0
M  V30 3718 N 338.485 -1.33259 -0.841409 0
M  V30 3719 C 339.432 -1.23302 -1.95103 0
M  V30 3720 C 340.402 -0.112204 -1.65721 0
M  V30 3721 O 341.587 -0.290038 -1.88583 0
M  V30 3722 C 338.727 -0.975583 -3.31023 0
M  V30 3723 C 337.84 -2.18243 -3.72819 0
M  V30 3724 C 336.975 -1.85936 -4.97595 0
M  V30 3725 C 336.014 -3.02866 -5.3192 0
M  V30 3726 N 335.151 -2.70565 -6.47873 0
M  V30 3727 H 339.991 -2.18207 -2.02952 0
M  V30 3728 H 337.528 -1.0851 -0.993173 0
M  V30 3729 H 339.486 -0.80677 -4.09325 0
M  V30 3730 H 338.116 -0.0632755 -3.22738 0
M  V30 3731 H 337.168 -2.46107 -2.90061 0
M  V30 3732 H 338.48 -3.05666 -3.94169 0
M  V30 3733 H 337.634 -1.65684 -5.83638 0
M  V30 3734 H 336.373 -0.957452 -4.78209 0
M  V30 3735 H 335.378 -3.23736 -4.44382 0
M  V30 3736 H 336.603 -3.93809 -5.53255 0
M  V30 3737 H 334.549 -1.8293 -6.29978 0
M  V30 3738 H 334.466 -3.51519 -6.69306 0
M  V30 3739 H 335.734 -2.53774 -7.37034 0
M  V30 3740 N 339.963 1.05934 -1.16686 0
M  V30 3741 C 341.209 1.79065 -0.95203 0
M  V30 3742 C 341.542 1.87147 0.518629 0
M  V30 3743 O 340.817 1.36574 1.38484 0
M  V30 3744 C 341.1 3.23359 -1.58464 0
M  V30 3745 C 340.953 3.23336 -3.12689 0
M  V30 3746 C 342.272 4.21004 -1.28232 0
M  V30 3747 H 339.391 0.65005 -0.34728 0
M  V30 3748 H 342.033 1.23868 -1.44072 0
M  V30 3749 H 340.183 3.70493 -1.16908 0
M  V30 3750 H 341.855 2.84336 -3.6325 0
M  V30 3751 H 340.098 2.61886 -3.4583 0
M  V30 3752 H 340.769 4.25144 -3.52075 0
M  V30 3753 H 343.245 3.8233 -1.64203 0
M  V30 3754 H 342.121 5.20225 -1.75092 0
M  V30 3755 H 342.382 4.41639 -0.201791 0
M  V30 3756 N 341.441 0.965919 1.2453 0
M  V30 3757 C 342.351 0.502154 2.29163 0
M  V30 3758 C 343.367 -0.436017 1.68448 0
M  V30 3759 O 344.543 -0.309497 1.99008 0
M  V30 3760 C 341.608 -0.201956 3.46111 0
M  V30 3761 C 340.669 0.775821 4.22232 0
M  V30 3762 C 339.902 0.105217 5.33596 0
M  V30 3763 O 340.125 -1.10683 5.59558 0
M  V30 3764 O 339.059 0.796475 5.96607 0
M  V30 3765 H 342.885 1.37194 2.70946 0
M  V30 3766 H 340.47 0.732875 1.30189 0
M  V30 3767 H 342.352 -0.597564 4.17142 0
M  V30 3768 H 341.027 -1.04673 3.06309 0
M  V30 3769 H 339.934 1.22185 3.53584 0
M  V30 3770 H 341.267 1.58896 4.65846 0
M  V30 3771 N 342.919 -1.39368 0.735821 0
M  V30 3772 C 344.335 -1.54204 0.411492 0
M  V30 3773 C 344.535 -1.70268 -1.07755 0
M  V30 3774 O 343.591 -1.70364 -1.86366 0
M  V30 3775 C 344.904 -2.75925 1.19523 0
M  V30 3776 C 346.452 -2.89761 1.18354 0
M  V30 3777 C 346.927 -4.14421 1.94986 0
M  V30 3778 N 348.418 -4.21462 1.92156 0
M  V30 3779 C 349.153 -5.16871 2.48258 0
M  V30 3780 N 348.649 -6.18063 3.13001 0
M  V30 3781 N 350.442 -5.09093 2.38287 0
M  V30 3782 H 342.593 -1.27189 1.70108 0
M  V30 3783 H 344.856 -0.616517 0.720147 0
M  V30 3784 H 344.562 -2.70401 2.24892 0
M  V30 3785 H 344.436 -3.68614 0.800222 0
M  V30 3786 H 346.823 -2.94777 0.137975 0
M  V30 3787 H 346.904 -1.98133 1.61793 0
M  V30 3788 H 346.548 -4.10166 2.99543 0
M  V30 3789 H 346.478 -5.05095 1.48953 0
M  V30 3790 H 348.969 -3.48979 1.44991 0
M  V30 3791 H 349.282 -6.87326 3.53275 0
M  V30 3792 H 347.627 -6.18448 3.17091 0
M  V30 3793 H 350.818 -4.28973 1.8735 0
M  V30 3794 H 350.991 -5.83272 2.82308 0
M  V30 3795 N 344.397 -0.483516 -1.5 0
M  V30 3796 C 345.644 0.0671597 -2.02389 0
M  V30 3797 C 345.972 1.38597 -1.36459 0
M  V30 3798 O 345.227 1.89634 -0.483458 0
M  V30 3799 C 345.526 0.286226 -3.56252 0
M  V30 3800 C 345.192 -0.952416 -4.40726 0
M  V30 3801 C 343.854 -1.29199 -4.63531 0
M  V30 3802 C 346.206 -1.77655 -4.89988 0
M  V30 3803 C 343.534 -2.45553 -5.32842 0
M  V30 3804 C 345.886 -2.93147 -5.60578 0
M  V30 3805 C 344.55 -3.27505 -5.81633 0
M  V30 3806 H 343.82 0.0245755 -0.740592 0
M  V30 3807 H 346.467 -0.640124 -1.80485 0
M  V30 3808 H 344.772 1.07587 -3.76739 0
M  V30 3809 H 346.469 0.726473 -3.94365 0
M  V30 3810 H 343.059 -0.677881 -4.23205 0
M  V30 3811 H 347.243 -1.52737 -4.72213 0
M  V30 3812 H 342.499 -2.72431 -5.47349 0
M  V30 3813 H 346.673 -3.57344 -5.97727 0
M  V30 3814 H 344.3 -4.1777 -6.35116 0
M  V30 3815 N 345.875 1.56104 -0.216619 0
M  V30 3816 C 346.805 2.23063 0.690296 0
M  V30 3817 C 347.786 1.20072 1.20485 0
M  V30 3818 O 348.971 1.48643 1.24976 0
M  V30 3819 C 346.101 2.90672 1.90072 0
M  V30 3820 C 345.055 4.00092 1.5202 0
M  V30 3821 C 344.381 4.54972 2.80899 0
M  V30 3822 C 345.681 5.17398 0.71391 0
M  V30 3823 H 347.375 2.99109 0.132038 0
M  V30 3824 H 344.921 1.43866 0.0620664 0
M  V30 3825 H 346.874 3.36204 2.54057 0
M  V30 3826 H 345.598 2.12066 2.48386 0
M  V30 3827 H 344.257 3.55283 0.903839 0
M  V30 3828 H 343.905 3.73102 3.37348 0
M  V30 3829 H 343.605 5.28817 2.56176 0
M  V30 3830 H 345.129 5.0322 3.45836 0
M  V30 3831 H 346.543 5.59342 1.25735 0
M  V30 3832 H 344.94 5.97444 0.563951 0
M  V30 3833 H 346.01 4.84088 -0.280527 0
M  V30 3834 N 347.353 -0.0568162 1.57498 0
M  V30 3835 C 348.3 -1.06591 2.04712 0
M  V30 3836 C 349.27 -1.3758 0.930644 0
M  V30 3837 O 350.455 -1.48392 1.19935 0
M  V30 3838 C 347.595 -2.3701 2.50839 0
M  V30 3839 C 346.708 -2.12421 3.76167 0
M  V30 3840 C 345.843 -3.36511 4.11015 0
M  V30 3841 C 344.882 -3.07353 5.2934 0
M  V30 3842 N 344.019 -4.23816 5.59754 0
M  V30 3843 H 348.859 -0.65631 2.90683 0
M  V30 3844 H 346.396 -0.312481 1.43743 0
M  V30 3845 H 348.354 -3.13175 2.7564 0
M  V30 3846 H 346.984 -2.75744 1.67825 0
M  V30 3847 H 346.036 -1.2688 3.58616 0
M  V30 3848 H 347.348 -1.86894 4.62463 0
M  V30 3849 H 346.502 -4.21062 4.36797 0
M  V30 3850 H 345.241 -3.65128 3.23315 0
M  V30 3851 H 344.246 -2.212 5.03339 0
M  V30 3852 H 345.471 -2.80043 6.1867 0
M  V30 3853 H 343.417 -4.52436 4.75014 0
M  V30 3854 H 343.334 -4.01614 6.40501 0
M  V30 3855 H 344.602 -5.0932 5.90096 0
M  V30 3856 N 348.832 -1.54138 -0.328536 0
M  V30 3857 C 349.762 -1.86167 -1.40939 0
M  V30 3858 C 350.743 -0.718044 -1.54202 0
M  V30 3859 O 351.928 -0.971328 -1.68163 0
M  V30 3860 C 349.058 -2.08461 -2.77779 0
M  V30 3861 C 348.012 -3.24299 -2.7931 0
M  V30 3862 C 347.338 -3.31955 -4.19178 0
M  V30 3863 C 348.638 -4.62065 -2.43502 0
M  V30 3864 H 350.332 -2.76689 -1.14383 0
M  V30 3865 H 347.878 -1.33132 -0.548806 0
M  V30 3866 H 349.831 -2.29453 -3.53454 0
M  V30 3867 H 348.555 -1.14684 -3.05802 0
M  V30 3868 H 347.214 -3.03187 -2.0609 0
M  V30 3869 H 346.862 -2.35745 -4.44335 0
M  V30 3870 H 346.562 -4.09805 -4.2111 0
M  V30 3871 H 348.086 -3.55175 -4.96672 0
M  V30 3872 H 349.5 -4.8297 -3.08889 0
M  V30 3873 H 347.897 -5.42429 -2.56693 0
M  V30 3874 H 348.967 -4.64652 -1.38659 0
M  V30 3875 N 350.31 0.590341 -1.46126 0
M  V30 3876 C 351.535 1.37991 -1.54833 0
M  V30 3877 C 351.96 1.87163 -0.187506 0
M  V30 3878 O 351.318 1.61133 0.831008 0
M  V30 3879 C 351.366 2.54867 -2.55098 0
M  V30 3880 O 350.47 3.56061 -2.08073 0
M  V30 3881 H 349.811 0.411265 -0.521303 0
M  V30 3882 H 352.341 0.716819 -1.91632 0
M  V30 3883 H 352.351 3.01886 -2.74461 0
M  V30 3884 H 351.026 2.18429 -3.53923 0
M  V30 3885 H 349.603 3.15574 -1.98664 0
M  V30 3886 N 351.788 1.33704 0.83433 0
M  V30 3887 C 353.199 1.22813 1.4062 0
M  V30 3888 C 353.55 -0.151107 1.95617 0
M  V30 3889 O 352.675 -1.05092 1.89168 0
M  V30 3890 C 353.27 2.22355 2.55624 0
M  V30 3891 C 351.829 2.1529 3.08751 0
M  V30 3892 C 350.976 2.09589 1.8157 0
M  V30 3893 H 353.927 1.45236 0.639702 0
M  V30 3894 H 353.948 1.83391 3.33389 0
M  V30 3895 H 353.46 3.22728 2.15566 0
M  V30 3896 H 351.561 1.18235 3.53343 0
M  V30 3897 H 351.674 3.06038 3.68616 0
M  V30 3898 H 350.038 1.55134 2.02004 0
M  V30 3899 H 350.821 3.11777 1.43701 0
M  V30 3900 N 353.266 -1.05314 1.17247 0
M  V30 3901 C 354.198 -2.13023 0.845812 0
M  V30 3902 C 355.211 -1.62096 -0.151246 0
M  V30 3903 O 356.4 -1.78343 0.0748818 0
M  V30 3904 C 353.5 -3.38047 0.240292 0
M  V30 3905 C 352.673 -4.18255 1.27991 0
M  V30 3906 C 351.732 -5.21625 0.692375 0
M  V30 3907 O 350.758 -5.52619 1.36385 0
M  V30 3908 N 351.96 -5.78201 -0.516178 0
M  V30 3909 H 354.725 -2.41642 1.77283 0
M  V30 3910 H 352.286 -1.21401 1.07115 0
M  V30 3911 H 354.278 -4.04359 -0.16603 0
M  V30 3912 H 352.848 -3.06972 -0.590487 0
M  V30 3913 H 352.068 -3.47451 1.86203 0
M  V30 3914 H 353.356 -4.68643 1.98119 0
M  V30 3915 H 352.754 -5.55301 -1.07969 0
M  V30 3916 H 351.311 -6.4604 -0.86458 0
M  V30 3917 N 354.744 -0.972509 -1.24016 0
M  V30 3918 C 355.993 -0.632603 -1.91523 0
M  V30 3919 C 356.306 0.836641 -1.76804 0
M  V30 3920 O 357.512 1.28728 -2.39043 0
M  V30 3921 C 355.968 -1.08082 -3.43287 0
M  V30 3922 C 355.576 -2.57386 -3.66683 0
M  V30 3923 C 357.32 -0.814288 -4.16617 0
M  V30 3924 C 355.227 -2.95915 -5.12043 0
M  V30 3925 H 354.157 -0.232898 -0.717129 0
M  V30 3926 H 356.808 -1.17936 -1.40582 0
M  V30 3927 H 355.19 -0.462339 -3.93292 0
M  V30 3928 H 356.364 -3.24405 -3.27258 0
M  V30 3929 H 354.679 -2.81701 -3.06649 0
M  V30 3930 H 357.276 -1.0781 -5.23718 0
M  V30 3931 H 357.619 0.24955 -4.15551 0
M  V30 3932 H 358.152 -1.39397 -3.72577 0
M  V30 3933 H 354.891 -4.0139 -5.18234 0
M  V30 3934 H 354.411 -2.33584 -5.52448 0
M  V30 3935 H 356.09 -2.86086 -5.80314 0
M  V30 3936 N 356.222 1.38976 -0.743202 0
M  V30 3937 C 357.17 2.32394 -0.0978389 0
M  V30 3938 C 358.164 1.53486 0.716824 0
M  V30 3939 O 359.37 1.69092 0.617088 0
M  V30 3940 H 355.745 0.75189 -0.0128402 0
M  V30 3941 H 357.716 2.84441 -0.901981 0
M  V30 3942 C 356.465 3.38629 0.789036 0
M  V30 3943 H 355.788 3.99432 0.171559 0
M  V30 3944 H 357.228 4.06426 1.20807 0
M  V30 3945 C 355.687 2.76347 1.92702 0
M  V30 3946 O 356.217 2.64836 3.02034 0
M  V30 3947 N 354.423 2.34311 1.71891 0
M  V30 3948 H 353.97 2.43873 0.829675 0
M  V30 3949 H 353.928 1.9298 2.48205 0
M  V30 3950 N 357.7 0.491464 1.49741 0
M  V30 3951 C 358.663 -0.280906 2.27472 0
M  V30 3952 C 359.663 -0.902454 1.33088 0
M  V30 3953 O 360.853 -0.768465 1.56334 0
M  V30 3954 C 357.985 -1.40209 3.10732 0
M  V30 3955 H 359.178 0.401056 2.97206 0
M  V30 3956 H 356.731 0.246131 1.5435 0
M  V30 3957 H 357.466 -2.11849 2.45541 0
M  V30 3958 H 357.251 -0.961969 3.80117 0
M  V30 3959 H 358.741 -1.9464 3.69466 0
M  V30 3960 N 359.178 -1.55987 0.224894 0
M  V30 3961 C 360.403 -2.03232 -0.41369 0
M  V30 3962 C 360.828 -1.10359 -1.52323 0
M  V30 3963 O 360.186 -0.092395 -1.81064 0
M  V30 3964 C 360.234 -3.48682 -0.919405 0
M  V30 3965 O 359.338 -3.58947 -2.03054 0
M  V30 3966 H 358.679 -0.657428 -0.0931903 0
M  V30 3967 H 361.209 -2.01679 0.34451 0
M  V30 3968 H 361.219 -3.8907 -1.22835 0
M  V30 3969 H 359.894 -4.15761 -0.107339 0
M  V30 3970 H 358.471 -3.30448 -1.72796 0
M  V30 3971 N 360.656 0.0484629 -1.57525 0
M  V30 3972 C 361.604 1.07359 -2.06341 0
M  V30 3973 C 362.598 1.3865 -0.973269 0
M  V30 3974 O 363.804 1.37783 -1.15827 0
M  V30 3975 H 360.179 0.363662 -0.65822 0
M  V30 3976 H 362.15 0.635916 -2.91545 0
M  V30 3977 C 360.899 2.37198 -2.54229 0
M  V30 3978 H 360.222 2.13977 -3.37719 0
M  V30 3979 H 361.662 3.07319 -2.92115 0
M  V30 3980 C 360.121 3.04805 -1.43511 0
M  V30 3981 O 360.651 3.93848 -0.79034 0
M  V30 3982 N 358.857 2.65811 -1.17444 0
M  V30 3983 H 358.404 1.93488 -1.70059 0
M  V30 3984 H 358.362 3.11366 -0.435737 0
M  V30 3985 N 362.134 1.5431 0.320358 0
M  V30 3986 C 363.381 1.72668 1.05792 0
M  V30 3987 C 363.709 0.502084 1.87908 0
M  V30 3988 O 362.964 -0.516149 1.88771 0
M  V30 3989 C 363.263 2.95639 2.00828 0
M  V30 3990 C 362.929 4.30265 1.34843 0
M  V30 3991 C 361.591 4.66865 1.16578 0
M  V30 3992 C 363.943 5.13801 0.875095 0
M  V30 3993 C 361.271 5.84597 0.496336 0
M  V30 3994 C 363.623 6.32219 0.219463 0
M  V30 3995 C 362.287 6.67495 0.0246915 0
M  V30 3996 H 361.557 0.631837 0.387121 0
M  V30 3997 H 364.204 1.88552 0.334735 0
M  V30 3998 H 362.509 2.74456 2.79609 0
M  V30 3999 H 364.206 3.07038 2.57932 0
M  V30 4000 H 360.796 4.01472 1.50061 0
M  V30 4001 H 364.98 4.86039 1.00398 0
M  V30 4002 H 360.236 6.10486 0.334264 0
M  V30 4003 H 364.41 6.96227 -0.155291 0
M  V30 4004 H 362.037 7.5858 -0.496065 0
M  V30 4005 N 363.613 -0.582584 1.46437 0
M  V30 4006 C 364.843 -1.36484 1.55099 0
M  V30 4007 C 365.251 -1.88233 0.191056 0
M  V30 4008 O 364.594 -1.6429 -0.821858 0
M  V30 4009 C 364.656 -2.588 2.49525 0
M  V30 4010 C 364.32 -2.28517 3.95764 0
M  V30 4011 C 365.317 -1.87346 4.84972 0
M  V30 4012 C 363.002 -2.40658 4.40896 0
M  V30 4013 C 364.996 -1.5871 6.17325 0
M  V30 4014 C 362.683 -2.11635 5.73284 0
M  V30 4015 C 363.681 -1.70725 6.61318 0
M  V30 4016 O 363.369 -1.42057 7.91249 0
M  V30 4017 H 363.101 -0.423297 0.527063 0
M  V30 4018 H 365.655 -0.715188 1.92547 0
M  V30 4019 H 363.885 -3.26571 2.07095 0
M  V30 4020 H 365.574 -3.20868 2.48593 0
M  V30 4021 H 366.34 -1.77481 4.5136 0
M  V30 4022 H 362.219 -2.71463 3.72598 0
M  V30 4023 H 365.763 -1.26704 6.85997 0
M  V30 4024 H 361.66 -2.21124 6.06444 0
M  V30 4025 H 362.428 -1.55901 8.03515 0
M  V30 4026 N 365.091 -1.34144 -0.827227 0
M  V30 4027 C 366.338 -1.26258 -1.58319 0
M  V30 4028 C 366.666 0.168595 -1.93768 0
M  V30 4029 O 365.921 1.12877 -1.59866 0
M  V30 4030 C 366.22 -2.09464 -2.89585 0
M  V30 4031 C 365.886 -3.58521 -2.73448 0
M  V30 4032 C 364.548 -3.99155 -2.68754 0
M  V30 4033 C 366.9 -4.53189 -2.57428 0
M  V30 4034 C 364.228 -5.32656 -2.45957 0
M  V30 4035 C 366.58 -5.86864 -2.36163 0
M  V30 4036 C 365.244 -6.26667 -2.29879 0
M  V30 4037 H 364.514 -0.462013 -0.579332 0
M  V30 4038 H 367.161 -1.65845 -0.95748 0
M  V30 4039 H 365.466 -1.62692 -3.56425 0
M  V30 4040 H 367.163 -2.00712 -3.47154 0
M  V30 4041 H 363.753 -3.26264 -2.77939 0
M  V30 4042 H 367.937 -4.22696 -2.60081 0
M  V30 4043 H 363.193 -5.62519 -2.39546 0
M  V30 4044 H 367.367 -6.59813 -2.22754 0
M  V30 4045 H 364.994 -7.30049 -2.11975 0
M  V30 4046 N 366.569 1.04691 -1.17803 0
M  V30 4047 C 367.517 2.14665 -0.895635 0
M  V30 4048 C 368.511 1.68806 0.141679 0
M  V30 4049 O 369.717 1.79999 -0.00587914 0
M  V30 4050 H 366.092 0.701038 -0.272121 0
M  V30 4051 H 368.063 2.35685 -1.83017 0
M  V30 4052 C 366.812 3.45019 -0.430962 0
M  V30 4053 H 366.135 3.8071 -1.22064 0
M  V30 4054 H 367.575 4.23125 -0.272301 0
M  V30 4055 C 366.034 3.25943 0.852207 0
M  V30 4056 O 366.564 3.5296 1.91786 0
M  V30 4057 N 364.77 2.79304 0.802346 0
M  V30 4058 H 364.317 2.57518 -0.0650788 0
M  V30 4059 H 364.275 2.66921 1.66134 0
M  V30 4060 N 368.047 0.979072 1.23499 0
M  V30 4061 C 368.994 0.517904 2.24914 0
M  V30 4062 C 369.964 -0.442525 1.60097 0
M  V30 4063 O 371.149 -0.350365 1.87556 0
M  V30 4064 C 368.289 -0.174813 3.44657 0
M  V30 4065 C 367.402 0.825721 4.24035 0
M  V30 4066 C 366.537 0.107946 5.3109 0
M  V30 4067 C 365.576 1.09778 6.02175 0
M  V30 4068 N 364.713 0.40925 7.00906 0
M  V30 4069 H 369.553 1.38751 2.63727 0
M  V30 4070 H 367.09 0.695303 1.2963 0
M  V30 4071 H 369.048 -0.593233 4.12961 0
M  V30 4072 H 367.678 -1.0083 3.06648 0
M  V30 4073 H 366.73 1.36253 3.55161 0
M  V30 4074 H 368.042 1.58005 4.73113 0
M  V30 4075 H 367.196 -0.367904 6.05583 0
M  V30 4076 H 365.935 -0.678994 4.8295 0
M  V30 4077 H 364.94 1.5844 5.26476 0
M  V30 4078 H 366.165 1.88536 6.52404 0
M  V30 4079 H 364.111 -0.358506 6.5502 0
M  V30 4080 H 364.028 1.10226 7.47921 0
M  V30 4081 H 365.296 -0.0442557 7.79487 0
M  V30 4082 N 369.525 -1.3858 0.750561 0
M  V30 4083 C 370.753 -2.04471 0.316098 0
M  V30 4084 C 371.168 -1.56606 -1.05452 0
M  V30 4085 O 370.525 -0.737784 -1.66922 0
M  V30 4086 C 370.576 -3.60025 0.326275 0
M  V30 4087 O 370.297 -4.06133 1.6428 0
M  V30 4088 C 371.798 -4.43131 -0.122429 0
M  V30 4089 H 369.018 -0.65717 0.135528 0
M  V30 4090 H 371.562 -1.77329 1.01857 0
M  V30 4091 H 369.717 -3.86014 -0.327431 0
M  V30 4092 H 370.131 -5.00547 1.56693 0
M  V30 4093 H 371.605 -5.51963 -0.0641473 0
M  V30 4094 H 372.082 -4.23333 -1.16988 0
M  V30 4095 H 372.688 -4.22323 0.50229 0
M  V30 4096 N 371.003 -0.499398 -1.49478 0
M  V30 4097 C 371.95 0.279881 -2.29097 0
M  V30 4098 C 372.92 0.961805 -1.3542 0
M  V30 4099 O 374.105 0.968777 -1.64376 0
M  V30 4100 C 371.245 1.33932 -3.18051 0
M  V30 4101 C 370.358 0.669333 -4.26783 0
M  V30 4102 C 369.493 1.70907 -5.02955 0
M  V30 4103 C 368.532 1.02087 -6.03527 0
M  V30 4104 N 367.669 2.00474 -6.7287 0
M  V30 4105 H 372.509 -0.405317 -2.95231 0
M  V30 4106 H 370.046 -0.211726 -1.45568 0
M  V30 4107 H 372.004 1.96553 -3.67998 0
M  V30 4108 H 370.634 1.9933 -2.53904 0
M  V30 4109 H 369.686 -0.0701234 -3.80335 0
M  V30 4110 H 370.998 0.127503 -4.98637 0
M  V30 4111 H 370.152 2.41037 -5.56764 0
M  V30 4112 H 368.891 2.28476 -4.30871 0
M  V30 4113 H 367.896 0.305338 -5.48951 0
M  V30 4114 H 369.121 0.451708 -6.77596 0
M  V30 4115 H 367.067 2.57007 -6.03559 0
M  V30 4116 H 366.984 1.51353 -7.40694 0
M  V30 4117 H 368.252 2.69897 -7.31284 0
M  V30 4118 N 372.481 1.55866 -0.233164 0
M  V30 4119 C 373.729 1.9821 0.394593 0
M  V30 4120 C 374.05 1.12234 1.59463 0
M  V30 4121 O 373.32 0.201981 1.94856 0
M  V30 4122 H 371.9 0.732034 0.148778 0
M  V30 4123 H 374.562 1.92107 -0.32876 0
M  V30 4124 H 373.658 3.03845 0.713063 0
M  V30 4125 N 373.959 -0.0401083 1.57549 0
M  V30 4126 C 375.206 -0.733125 1.88763 0
M  V30 4127 C 375.534 -1.75946 0.829058 0
M  V30 4128 O 374.789 -1.94949 -0.171323 0
M  V30 4129 C 375.088 -1.44902 3.26708 0
M  V30 4130 C 374.754 -0.559707 4.47413 0
M  V30 4131 C 373.416 -0.314731 4.8017 0
M  V30 4132 C 375.768 0.0549743 5.21171 0
M  V30 4133 C 373.096 0.553886 5.8408 0
M  V30 4134 C 375.448 0.911229 6.26003 0
M  V30 4135 C 374.112 1.16577 6.57241 0
M  V30 4136 H 373.382 -0.268269 0.690733 0
M  V30 4137 H 376.029 0.00679408 1.91499 0
M  V30 4138 H 374.334 -2.26197 3.1991 0
M  V30 4139 H 376.031 -1.99058 3.48105 0
M  V30 4140 H 372.621 -0.760793 4.21794 0
M  V30 4141 H 376.805 -0.121344 4.96152 0
M  V30 4142 H 372.061 0.759518 6.06664 0
M  V30 4143 H 376.235 1.3941 6.82303 0
M  V30 4144 H 373.862 1.84058 7.37582 0
M  V30 4145 N 375.437 -1.54477 -0.31217 0
M  V30 4146 C 376.667 -1.76948 -1.06645 0
M  V30 4147 C 377.075 -0.523593 -1.81811 0
M  V30 4148 O 376.418 0.51578 -1.76311 0
M  V30 4149 C 376.48 -2.91668 -2.10166 0
M  V30 4150 C 376.144 -4.30165 -1.54296 0
M  V30 4151 C 377.141 -5.10603 -0.978793 0
M  V30 4152 C 374.826 -4.76738 -1.58196 0
M  V30 4153 C 376.82 -6.3573 -0.461048 0
M  V30 4154 C 374.507 -6.01831 -1.06034 0
M  V30 4155 C 375.505 -6.81161 -0.500844 0
M  V30 4156 O 375.193 -8.03899 0.0128958 0
M  V30 4157 H 374.925 -0.594088 -0.322546 0
M  V30 4158 H 377.479 -2.02213 -0.360441 0
M  V30 4159 H 375.709 -2.62001 -2.84416 0
M  V30 4160 H 377.398 -3.01817 -2.71406 0
M  V30 4161 H 378.164 -4.75771 -0.941651 0
M  V30 4162 H 374.043 -4.15027 -2.00683 0
M  V30 4163 H 377.587 -6.97596 -0.0236894 0
M  V30 4164 H 373.484 -6.36152 -1.09459 0
M  V30 4165 H 374.252 -8.18437 -0.101457 0
M  V30 4166 N 376.915 0.57481 -1.46744 0
M  V30 4167 C 378.155 1.34369 -1.54027 0
M  V30 4168 C 378.519 1.91051 -0.190642 0
M  V30 4169 O 379.72 2.68444 -0.138255 0
M  V30 4170 C 377.991 2.43706 -2.61423 0
M  V30 4171 S 379.55 3.30915 -2.88167 0
M  V30 4172 H 376.368 0.45768 -0.544105 0
M  V30 4173 H 378.97 0.659959 -1.84024 0
M  V30 4174 H 377.674 2.0047 -3.58106 0
M  V30 4175 H 377.205 3.16842 -2.33184 0
M  V30 4176 H 379.22 4.42742 -2.24039 0
M  V30 4177 N 378.394 1.34581 0.820102 0
M  V30 4178 C 379.324 1.29038 1.94606 0
M  V30 4179 C 380.305 0.1673 1.69275 0
M  V30 4180 O 381.49 0.360112 1.90832 0
M  V30 4181 C 378.62 1.04793 3.31113 0
M  V30 4182 C 377.574 2.13597 3.70891 0
M  V30 4183 C 376.9 1.74537 5.05412 0
M  V30 4184 C 378.2 3.55451 3.8269 0
M  V30 4185 H 379.894 2.23248 1.99501 0
M  V30 4186 H 377.44 1.0747 0.958449 0
M  V30 4187 H 379.393 0.995592 4.0947 0
M  V30 4188 H 378.117 0.0702565 3.26524 0
M  V30 4189 H 376.776 2.17905 2.9481 0
M  V30 4190 H 376.424 0.754226 4.97313 0
M  V30 4191 H 376.124 2.47361 5.32997 0
M  V30 4192 H 377.648 1.70803 5.86224 0
M  V30 4193 H 379.062 3.5354 4.51312 0
M  V30 4194 H 377.459 4.26922 4.21732 0
M  V30 4195 H 378.529 3.92587 2.84611 0
M  V30 4196 N 379.872 -1.04064 1.18357 0
M  V30 4197 C 381.288 -1.2947 0.933258 0
M  V30 4198 C 381.488 -1.97466 -0.401169 0
M  V30 4199 O 380.544 -2.25528 -1.13549 0
M  V30 4200 C 381.857 -2.15337 2.09882 0
M  V30 4201 C 383.405 -2.28683 2.13712 0
M  V30 4202 C 383.88 -3.17917 3.29686 0
M  V30 4203 N 385.371 -3.25504 3.29547 0
M  V30 4204 C 386.106 -3.94706 4.15926 0
M  V30 4205 N 385.602 -4.66239 5.12439 0
M  V30 4206 N 387.395 -3.90986 4.0384 0
M  V30 4207 H 379.546 -0.583359 2.04232 0
M  V30 4208 H 381.809 -0.319921 0.892387 0
M  V30 4209 H 381.515 -1.72682 3.06389 0
M  V30 4210 H 381.389 -3.16015 2.05947 0
M  V30 4211 H 383.776 -2.70575 1.17784 0
M  V30 4212 H 383.857 -1.27596 2.21705 0
M  V30 4213 H 383.501 -2.76736 4.25887 0
M  V30 4214 H 383.431 -4.19036 3.1893 0
M  V30 4215 H 385.922 -2.74547 2.59677 0
M  V30 4216 H 386.235 -5.16638 5.74722 0
M  V30 4217 H 384.58 -4.65143 5.16398 0
M  V30 4218 H 387.771 -3.34234 3.27727 0
M  V30 4219 H 387.944 -4.44646 4.71375 0
M  V30 4220 N 381.35 -0.985608 -1.22978 0
M  V30 4221 C 382.627 -0.573599 -1.87001 0
M  V30 4222 C 383.007 0.949213 -1.88555 0
M  V30 4223 O 382.355 1.82811 -1.37086 0
M  V30 4224 C 382.565 -1.18564 -3.28243 0
M  V30 4225 C 383.913 -1.28163 -4.04796 0
M  V30 4226 O 384.937 -1.13949 -3.37482 0
M  V30 4227 O 383.796 -1.50832 -5.25273 0
M  V30 4228 H 380.89 -0.193868 -0.803955 0
M  V30 4229 H 383.436 -1.08102 -1.30813 0
M  V30 4230 H 382.208 -2.22758 -3.21706 0
M  V30 4231 H 381.831 -0.663363 -3.92027 0
M  V30 4232 N 382.828 1.3818 -0.7579 0
M  V30 4233 C 384.053 2.04827 -0.325679 0
M  V30 4234 C 384.478 1.56788 1.03919 0
M  V30 4235 O 383.836 0.721811 1.66312 0
M  V30 4236 C 383.884 3.58774 -0.362447 0
M  V30 4237 O 382.988 4.07372 0.642033 0
M  V30 4238 H 382.329 0.64833 -0.143402 0
M  V30 4239 H 384.859 1.7677 -1.03023 0
M  V30 4240 H 384.869 4.07434 -0.214844 0
M  V30 4241 H 383.544 3.93096 -1.35824 0
M  V30 4242 H 382.121 3.70068 0.458688 0
M  V30 4243 N 384.306 0.507319 1.49211 0
M  V30 4244 C 385.554 -0.0348839 2.0207 0
M  V30 4245 C 385.875 -1.36898 1.38866 0
M  V30 4246 O 385.145 -1.88133 0.546151 0
M  V30 4247 H 383.725 -0.0158812 0.746831 0
M  V30 4248 H 386.387 0.665998 1.83168 0
M  V30 4249 H 385.483 -0.159917 3.1169 0
M  V30 4250 N 385.784 -1.5574 0.241426 0
M  V30 4251 C 387.2 -1.59196 -0.113548 0
M  V30 4252 C 387.4 -1.25852 -1.57364 0
M  V30 4253 O 386.456 -1.00322 -2.31715 0
M  V30 4254 C 387.769 -2.99814 0.230695 0
M  V30 4255 C 389.317 -3.12513 0.174547 0
M  V30 4256 C 389.792 -4.55342 0.492744 0
M  V30 4257 N 391.283 -4.61076 0.443043 0
M  V30 4258 C 392.018 -5.6956 0.662484 0
M  V30 4259 N 391.514 -6.86328 0.944761 0
M  V30 4260 N 393.307 -5.58957 0.593564 0
M  V30 4261 H 385.458 -1.75685 1.19368 0
M  V30 4262 H 387.721 -0.81756 0.479896 0
M  V30 4263 H 387.427 -3.28932 1.24485 0
M  V30 4264 H 387.301 -3.74568 -0.444833 0
M  V30 4265 H 389.688 -2.83179 -0.830277 0
M  V30 4266 H 389.769 -2.40045 0.883845 0
M  V30 4267 H 389.413 -4.85396 1.4951 0
M  V30 4268 H 389.343 -5.26062 -0.23797 0
M  V30 4269 H 391.834 -3.77179 0.233374 0
M  V30 4270 H 392.147 -7.64935 1.09977 0
M  V30 4271 H 390.492 -6.88025 0.982175 0
M  V30 4272 H 393.683 -4.66611 0.373123 0
M  V30 4273 H 393.856 -6.43433 0.767981 0
M  V30 4274 N 387.262 0.0317525 -1.57568 0
M  V30 4275 C 388.539 0.758366 -1.803 0
M  V30 4276 C 388.919 1.93718 -0.838845 0
M  V30 4277 O 388.267 2.28187 0.119571 0
M  V30 4278 C 388.477 1.19392 -3.27943 0
M  V30 4279 C 389.825 1.61094 -3.92854 0
M  V30 4280 O 390.849 1.28857 -3.32076 0
M  V30 4281 O 389.708 2.20918 -4.99858 0
M  V30 4282 H 386.802 0.366514 -0.741348 0
M  V30 4283 H 389.348 0.00873765 -1.69698 0
M  V30 4284 H 388.12 0.352275 -3.89711 0
M  V30 4285 H 387.743 2.00365 -3.43424 0
M  V30 4286 N 388.74 1.54641 0.303973 0
M  V30 4287 C 390.156 1.45788 0.649463 0
M  V30 4288 C 390.356 0.64666 1.90842 0
M  V30 4289 O 389.412 0.153183 2.52035 0
M  V30 4290 C 390.725 2.89718 0.805227 0
M  V30 4291 C 392.273 2.99742 0.901305 0
M  V30 4292 C 392.748 4.44863 1.08909 0
M  V30 4293 N 394.239 4.48559 1.15536 0
M  V30 4294 C 394.974 5.58026 1.3189 0
M  V30 4295 N 394.47 6.77422 1.45161 0
M  V30 4296 N 396.263 5.45708 1.34755 0
M  V30 4297 H 388.414 2.05854 -0.523237 0
M  V30 4298 H 390.677 0.932186 -0.172431 0
M  V30 4299 H 390.383 3.51666 -0.0489108 0
M  V30 4300 H 390.257 3.36964 1.69513 0
M  V30 4301 H 392.644 2.3791 1.74593 0
M  V30 4302 H 392.725 2.55797 -0.0125531 0
M  V30 4303 H 392.369 5.07288 0.249241 0
M  V30 4304 H 392.299 4.86436 2.01713 0
M  V30 4305 H 394.79 3.6254 1.06646 0
M  V30 4306 H 395.103 7.56604 1.57387 0
M  V30 4307 H 393.448 6.80292 1.42223 0
M  V30 4308 H 396.639 4.51378 1.23996 0
M  V30 4309 H 396.812 6.3107 1.47157 0
M  V30 4310 N 390.218 -0.567019 1.47046 0
M  V30 4311 C 391.458 -1.3355 1.54738 0
M  V30 4312 C 391.822 -1.90947 0.200772 0
M  V30 4313 O 393.023 -2.68367 0.152489 0
M  V30 4314 C 391.294 -2.42317 2.62712 0
M  V30 4315 S 392.853 -3.29383 2.89918 0
M  V30 4316 H 389.671 -0.454788 0.546525 0
M  V30 4317 H 392.273 -0.650191 1.84371 0
M  V30 4318 H 390.977 -1.98568 3.59164 0
M  V30 4319 H 390.508 -3.15601 2.34861 0
M  V30 4320 H 392.523 -4.41548 2.26384 0
M  V30 4321 N 391.696 -1.35014 -0.812953 0
M  V30 4322 C 392.626 -1.30069 -1.93919 0
M  V30 4323 C 393.607 -0.176275 -1.69184 0
M  V30 4324 O 394.792 -0.370227 -1.90638 0
M  V30 4325 C 391.922 -1.06547 -3.30552 0
M  V30 4326 C 390.876 -2.15561 -3.69753 0
M  V30 4327 C 390.202 -1.77214 -5.04479 0
M  V30 4328 C 391.502 -3.57476 -3.808 0
M  V30 4329 H 393.196 -2.24303 -1.98314 0
M  V30 4330 H 390.742 -1.07977 -0.952736 0
M  V30 4331 H 392.695 -1.01729 -4.08937 0
M  V30 4332 H 391.419 -0.0875719 -3.26483 0
M  V30 4333 H 390.078 -2.19466 -2.9365 0
M  V30 4334 H 389.726 -0.780589 -4.96906 0
M  V30 4335 H 389.426 -2.50184 -5.31678 0
M  V30 4336 H 390.95 -1.7391 -5.8531 0
M  V30 4337 H 392.364 -3.55929 -4.4943 0
M  V30 4338 H 390.761 -4.29152 -4.19462 0
M  V30 4339 H 391.831 -3.94091 -2.82525 0
M  V30 4340 N 393.175 1.03435 -1.18907 0
M  V30 4341 C 394.125 2.09924 -0.889706 0
M  V30 4342 C 395.109 1.60261 0.143216 0
M  V30 4343 O 396.301 1.76892 -0.0617122 0
M  V30 4344 C 393.43 3.40669 -0.424168 0
M  V30 4345 C 392.516 3.97082 -1.48952 0
M  V30 4346 N 392.907 4.27227 -2.70759 0
M  V30 4347 C 391.205 4.25029 -1.35152 0
M  V30 4348 C 391.906 4.7246 -3.39347 0
M  V30 4349 N 390.882 4.7366 -2.66735 0
M  V30 4350 H 394.684 2.31116 -1.81555 0
M  V30 4351 H 392.198 1.21246 -1.08042 0
M  V30 4352 H 394.195 4.16461 -0.191176 0
M  V30 4353 H 392.855 3.20901 0.495263 0
M  V30 4354 H 393.866 4.16678 -3.0757 0
M  V30 4355 H 390.543 4.14554 -0.495126 0
M  V30 4356 H 391.933 5.04751 -4.43481 0
M  V30 4357 N 394.653 0.992116 1.22453 0
M  V30 4358 C 395.563 0.55065 2.28046 0
M  V30 4359 C 396.579 -0.400189 1.69335 0
M  V30 4360 O 397.755 -0.267215 1.99619 0
M  V30 4361 C 394.82 -0.128496 3.46462 0
M  V30 4362 C 393.881 0.865208 4.20491 0
M  V30 4363 C 393.114 0.218377 5.33253 0
M  V30 4364 O 393.337 -0.987894 5.6178 0
M  V30 4365 O 392.271 0.922845 5.94783 0
M  V30 4366 H 396.097 1.4291 2.67975 0
M  V30 4367 H 393.682 0.760326 1.28606 0
M  V30 4368 H 395.564 -0.508947 4.18315 0
M  V30 4369 H 394.239 -0.981526 3.0846 0
M  V30 4370 H 393.146 1.29658 3.50913 0
M  V30 4371 H 394.479 1.68741 4.62371 0
M  V30 4372 N 396.131 -1.37776 0.765217 0
M  V30 4373 C 397.356 -2.04651 0.336537 0
M  V30 4374 C 397.781 -1.57337 -1.03086 0
M  V30 4375 O 397.139 -0.730621 -1.65927 0
M  V30 4376 C 397.187 -3.58577 0.381468 0
M  V30 4377 O 396.291 -4.07706 -0.62042 0
M  V30 4378 H 395.632 -0.64756 0.146838 0
M  V30 4379 H 398.162 -1.76221 1.03959 0
M  V30 4380 H 398.172 -4.07314 0.236448 0
M  V30 4381 H 396.847 -3.9237 1.37907 0
M  V30 4382 H 395.424 -3.70306 -0.439056 0
M  V30 4383 N 397.609 -0.515225 -1.4894 0
M  V30 4384 C 398.556 0.255567 -2.29381 0
M  V30 4385 C 399.526 0.947387 -1.36432 0
M  V30 4386 O 400.711 0.951288 -1.65394 0
M  V30 4387 C 397.851 1.30551 -3.19453 0
M  V30 4388 C 396.964 0.624029 -4.27469 0
M  V30 4389 C 396.099 1.65563 -5.0474 0
M  V30 4390 C 395.138 0.956802 -6.04576 0
M  V30 4391 N 394.275 1.93326 -6.74959 0
M  V30 4392 H 399.115 -0.436607 -2.94784 0
M  V30 4393 H 396.652 -0.227154 -1.45336 0
M  V30 4394 H 398.61 1.92639 -3.70062 0
M  V30 4395 H 397.24 1.96626 -2.56004 0
M  V30 4396 H 396.292 -0.110459 -3.8024 0
M  V30 4397 H 397.604 0.0746092 -4.98744 0
M  V30 4398 H 396.758 2.35119 -5.59289 0
M  V30 4399 H 395.497 2.23893 -4.3327 0
M  V30 4400 H 394.502 0.247097 -5.49244 0
M  V30 4401 H 395.727 0.379814 -6.78037 0
M  V30 4402 H 393.673 2.50591 -6.06251 0
M  V30 4403 H 393.59 1.43489 -7.42258 0
M  V30 4404 H 394.858 2.62126 -7.34105 0
M  V30 4405 N 399.087 1.5561 -0.249682 0
M  V30 4406 C 400.335 1.98618 0.373548 0
M  V30 4407 C 400.656 1.13919 1.58264 0
M  V30 4408 O 399.926 0.222637 1.94631 0
M  V30 4409 H 398.506 0.733571 0.141006 0
M  V30 4410 H 401.168 1.91748 -0.349117 0
M  V30 4411 H 400.264 3.04584 0.680796 0
M  V30 4412 N 400.565 -0.0233959 1.57583 0
M  V30 4413 C 401.981 -0.379134 1.55031 0
M  V30 4414 C 402.181 -1.76255 0.976548 0
M  V30 4415 O 401.237 -2.45266 0.600078 0
M  V30 4416 C 402.55 -0.275792 2.99433 0
M  V30 4417 C 404.098 -0.352458 3.11009 0
M  V30 4418 C 404.573 -0.278501 4.57152 0
M  V30 4419 N 406.064 -0.337123 4.61972 0
M  V30 4420 C 406.799 -0.302876 5.726 0
M  V30 4421 N 406.295 -0.220589 6.92449 0
M  V30 4422 N 408.088 -0.353023 5.6099 0
M  V30 4423 H 400.239 0.881869 1.93227 0
M  V30 4424 H 402.502 0.335867 0.886509 0
M  V30 4425 H 402.208 0.675108 3.4516 0
M  V30 4426 H 402.082 -1.06721 3.61788 0
M  V30 4427 H 404.469 -1.29379 2.65226 0
M  V30 4428 H 404.55 0.468409 2.51475 0
M  V30 4429 H 404.194 0.659189 5.03604 0
M  V30 4430 H 404.124 -1.11755 5.14605 0
M  V30 4431 H 406.615 -0.403002 3.75745 0
M  V30 4432 H 406.928 -0.199713 7.72542 0
M  V30 4433 H 405.273 -0.186555 6.9475 0
M  V30 4434 H 408.464 -0.415339 4.66254 0
M  V30 4435 H 408.637 -0.322866 6.47195 0
M  V30 4436 N 402.043 -1.548 -0.295768 0
M  V30 4437 C 403.006 -1.85363 -1.34808 0
M  V30 4438 C 404.006 -0.726817 -1.43436 0
M  V30 4439 O 405.196 -0.995088 -1.42981 0
M  V30 4440 C 402.328 -2.03859 -2.73229 0
M  V30 4441 H 403.521 -2.7941 -1.08949 0
M  V30 4442 H 401.074 -1.46942 -0.532702 0
M  V30 4443 H 401.809 -1.12117 -3.04303 0
M  V30 4444 H 401.594 -2.8588 -2.68356 0
M  V30 4445 H 403.084 -2.28857 -3.49305 0
M  V30 4446 N 403.521 0.559213 -1.47345 0
M  V30 4447 C 404.471 1.66192 -1.5609 0
M  V30 4448 C 405.455 1.55323 -0.419957 0
M  V30 4449 O 406.647 1.63839 -0.669762 0
M  V30 4450 C 403.776 3.0497 -1.57634 0
M  V30 4451 C 402.862 3.2105 -2.77106 0
M  V30 4452 N 403.253 3.07203 -4.01821 0
M  V30 4453 C 401.551 3.52046 -2.73825 0
M  V30 4454 C 402.252 3.25919 -4.81821 0
M  V30 4455 N 401.228 3.52161 -4.14106 0
M  V30 4456 H 405.03 1.54052 -2.5029 0
M  V30 4457 H 402.544 0.763914 -1.43311 0
M  V30 4458 H 404.541 3.84142 -1.61989 0
M  V30 4459 H 403.201 3.18224 -0.645281 0
M  V30 4460 H 404.212 2.84572 -4.32711 0
M  V30 4461 H 400.889 3.71839 -1.89848 0
M  V30 4462 H 402.279 3.20198 -5.90697 0
M  V30 4463 N 404.999 1.35443 0.805782 0
M  V30 4464 C 406.41 1.25768 1.37983 0
M  V30 4465 C 406.761 -0.10958 1.95894 0
M  V30 4466 O 405.886 -1.01056 1.91355 0
M  V30 4467 C 406.481 2.27727 2.5085 0
M  V30 4468 C 405.04 2.2179 3.04115 0
M  V30 4469 C 404.187 2.13393 1.77084 0
M  V30 4470 H 407.138 1.4656 0.608752 0
M  V30 4471 H 407.159 1.90422 3.29424 0
M  V30 4472 H 406.671 3.27227 2.08671 0
M  V30 4473 H 404.772 1.25703 3.50756 0
M  V30 4474 H 404.885 3.13788 3.62042 0
M  V30 4475 H 403.249 1.59384 1.98668 0
M  V30 4476 H 404.032 3.14755 1.37056 0
M  V30 4477 N 406.477 -1.02803 1.19454 0
M  V30 4478 C 407.409 -2.11181 0.890807 0
M  V30 4479 C 408.422 -1.6238 -0.116829 0
M  V30 4480 O 409.611 -1.78144 0.112694 0
M  V30 4481 C 406.711 -3.37461 0.311942 0
M  V30 4482 C 405.884 -4.15446 1.36834 0
M  V30 4483 C 404.943 -5.20039 0.802864 0
M  V30 4484 O 403.969 -5.49602 1.48077 0
M  V30 4485 N 405.171 -5.79165 -0.393417 0
M  V30 4486 H 407.936 -2.37827 1.82369 0
M  V30 4487 H 405.497 -1.19101 1.09666 0
M  V30 4488 H 407.489 -4.0462 -0.0802225 0
M  V30 4489 H 406.059 -3.08156 -0.52524 0
M  V30 4490 H 405.279 -3.43423 1.93531 0
M  V30 4491 H 406.567 -4.64335 2.08015 0
M  V30 4492 H 405.965 -5.57466 -0.961658 0
M  V30 4493 H 404.522 -6.47729 -0.727351 0
M  V30 4494 N 407.956 -0.998596 -1.21925 0
M  V30 4495 C 409.202 -0.678667 -1.91107 0
M  V30 4496 C 409.535 0.78791 -1.77498 0
M  V30 4497 O 408.81 1.57043 -1.1475 0
M  V30 4498 C 409.093 -1.09245 -3.43129 0
M  V30 4499 C 408.946 -2.61801 -3.6576 0
M  V30 4500 C 410.265 -0.649984 -4.35274 0
M  V30 4501 H 407.384 -0.248025 -0.694012 0
M  V30 4502 H 410.026 -1.24314 -1.43688 0
M  V30 4503 H 408.176 -0.612171 -3.83647 0
M  V30 4504 H 409.848 -3.17543 -3.34611 0
M  V30 4505 H 408.091 -3.03609 -3.09845 0
M  V30 4506 H 408.762 -2.85804 -4.7225 0
M  V30 4507 H 411.238 -1.0626 -4.02303 0
M  V30 4508 H 410.114 -0.967743 -5.40302 0
M  V30 4509 H 410.375 0.449139 -4.39813 0
M  V30 4510 N 409.434 1.37368 -0.772513 0
M  V30 4511 C 410.711 1.93839 -0.26188 0
M  V30 4512 C 411.091 1.7061 1.24319 0
M  V30 4513 O 410.439 1.05534 2.02669 0
M  V30 4514 C 410.649 3.43154 -0.636102 0
M  V30 4515 C 411.997 4.20249 -0.606324 0
M  V30 4516 O 413.021 3.5152 -0.575538 0
M  V30 4517 O 411.88 5.42809 -0.634086 0
M  V30 4518 H 408.974 0.82478 -0.0605555 0
M  V30 4519 H 411.52 1.4665 -0.853917 0
M  V30 4520 H 410.292 3.53647 -1.6748 0
M  V30 4521 H 409.915 3.97596 -0.0170516 0
M  V30 4522 N 410.912 0.523116 1.48665 0
M  V30 4523 C 412.323 0.0808997 1.86525 0
M  V30 4524 C 412.674 -1.33975 1.43336 0
M  V30 4525 O 411.799 -2.00221 0.821009 0
M  V30 4526 C 412.394 0.140037 3.3851 0
M  V30 4527 C 410.953 -0.246948 3.75589 0
M  V30 4528 C 410.1 0.502845 2.72703 0
M  V30 4529 H 413.051 0.734736 1.40667 0
M  V30 4530 H 413.072 -0.649945 3.74908 0
M  V30 4531 H 412.584 1.17412 3.69914 0
M  V30 4532 H 410.685 -1.28343 3.49798 0
M  V30 4533 H 410.798 0.0878859 4.79019 0
M  V30 4534 H 409.162 -0.0500581 2.54651 0
M  V30 4535 H 409.945 1.53743 3.0695 0
M  V30 4536 N 412.39 -1.55475 0.257931 0
M  V30 4537 C 413.337 -2.21837 -0.636939 0
M  V30 4538 C 414.307 -1.18596 -1.16294 0
M  V30 4539 O 415.492 -1.47081 -1.21539 0
M  V30 4540 C 412.632 -2.9301 -1.82317 0
M  V30 4541 C 411.745 -4.10931 -1.33265 0
M  V30 4542 C 410.88 -4.69791 -2.47931 0
M  V30 4543 C 409.919 -5.7994 -1.95796 0
M  V30 4544 N 409.056 -6.32935 -3.0387 0
M  V30 4545 H 413.896 -2.9793 -0.0643591 0
M  V30 4546 H 411.433 -1.47086 -0.0200031 0
M  V30 4547 H 413.391 -3.3248 -2.52018 0
M  V30 4548 H 412.021 -2.1937 -2.36805 0
M  V30 4549 H 411.073 -3.76699 -0.52931 0
M  V30 4550 H 412.385 -4.90417 -0.910654 0
M  V30 4551 H 411.539 -5.11892 -3.25656 0
M  V30 4552 H 410.278 -3.89545 -2.93438 0
M  V30 4553 H 409.283 -5.37305 -1.16546 0
M  V30 4554 H 410.508 -6.62043 -1.51246 0
M  V30 4555 H 408.454 -5.55591 -3.48791 0
M  V30 4556 H 408.371 -7.07645 -2.66035 0
M  V30 4557 H 409.639 -6.79695 -3.81621 0
M  V30 4558 N 413.868 0.0150385 -1.57593 0
M  V30 4559 C 414.798 1.01047 -2.10503 0
M  V30 4560 C 415.779 1.36816 -1.01071 0
M  V30 4561 O 416.964 1.45455 -1.28672 0
M  V30 4562 C 414.094 2.30708 -2.59598 0
M  V30 4563 C 413.048 2.09142 -3.73421 0
M  V30 4564 C 412.374 3.44685 -4.08774 0
M  V30 4565 C 413.674 1.46619 -5.01298 0
M  V30 4566 H 415.368 0.569978 -2.93925 0
M  V30 4567 H 412.914 0.272724 -1.41394 0
M  V30 4568 H 414.867 3.00687 -2.95238 0
M  V30 4569 H 413.591 2.76843 -1.73279 0
M  V30 4570 H 412.25 1.41592 -3.38153 0
M  V30 4571 H 411.898 3.88495 -3.195 0
M  V30 4572 H 411.598 3.31077 -4.8545 0
M  V30 4573 H 413.122 4.16004 -4.4696 0
M  V30 4574 H 414.536 2.06535 -5.34805 0
M  V30 4575 H 412.933 1.43544 -5.82679 0
M  V30 4576 H 414.003 0.433611 -4.82957 0
M  V30 4577 N 415.346 1.54954 0.287554 0
M  V30 4578 C 416.276 1.89839 1.35954 0
M  V30 4579 C 417.257 0.758675 1.52244 0
M  V30 4580 O 418.442 1.01557 1.65529 0
M  V30 4581 C 415.572 2.15753 2.72154 0
M  V30 4582 C 414.526 3.3159 2.70614 0
M  V30 4583 C 413.852 3.42952 4.10229 0
M  V30 4584 C 415.152 4.68359 2.31165 0
M  V30 4585 H 416.846 2.79625 1.07007 0
M  V30 4586 H 414.392 1.3454 0.513316 0
M  V30 4587 H 416.345 2.38743 3.47246 0
M  V30 4588 H 415.069 1.22752 3.02654 0
M  V30 4589 H 413.728 3.08545 1.97979 0
M  V30 4590 H 413.376 2.47443 4.37928 0
M  V30 4591 H 413.076 4.20826 4.10097 0
M  V30 4592 H 414.6 3.68218 4.87081 0
M  V30 4593 H 416.014 4.9099 2.95976 0
M  V30 4594 H 414.411 5.49044 2.42221 0
M  V30 4595 H 415.481 4.68165 1.26291 0
M  V30 4596 N 416.824 -0.551391 1.4764 0
M  V30 4597 C 417.772 -1.67896 1.60978 0
M  V30 4598 C 418.766 -1.62549 0.476877 0
M  V30 4599 O 419.972 -1.67664 0.654878 0
M  V30 4600 H 416.347 -0.555649 0.506713 0
M  V30 4601 H 418.318 -1.53784 2.55721 0
M  V30 4602 C 417.067 -3.06234 1.64669 0
M  V30 4603 H 416.39 -3.11033 2.51194 0
M  V30 4604 H 417.83 -3.84804 1.7805 0
M  V30 4605 C 416.289 -3.34737 0.381115 0
M  V30 4606 O 416.819 -3.98381 -0.515297 0
M  V30 4607 N 415.025 -2.8944 0.259354 0
M  V30 4608 H 414.572 -2.37827 0.98976 0
M  V30 4609 H 414.53 -3.08882 -0.586464 0
M  V30 4610 N 418.302 -1.35869 -0.798587 0
M  V30 4611 C 419.249 -1.29446 -1.91082 0
M  V30 4612 C 420.219 -0.16487 -1.6528 0
M  V30 4613 O 421.404 -0.349888 -1.87564 0
M  V30 4614 C 418.544 -1.0804 -3.27752 0
M  V30 4615 C 417.657 -2.29993 -3.65687 0
M  V30 4616 C 416.792 -2.01673 -4.91428 0
M  V30 4617 C 415.831 -3.19636 -5.22015 0
M  V30 4618 N 414.968 -2.91039 -6.38937 0
M  V30 4619 H 419.808 -2.24553 -1.95907 0
M  V30 4620 H 417.345 -1.11615 -0.958148 0
M  V30 4621 H 419.303 -0.936586 -4.06551 0
M  V30 4622 H 417.933 -0.16592 -3.22373 0
M  V30 4623 H 416.985 -2.55211 -2.82085 0
M  V30 4624 H 418.297 -3.18052 -3.84245 0
M  V30 4625 H 417.451 -1.84168 -5.78072 0
M  V30 4626 H 416.19 -1.10911 -4.74921 0
M  V30 4627 H 415.195 -3.37709 -4.33858 0
M  V30 4628 H 416.42 -4.11211 -5.40447 0
M  V30 4629 H 414.366 -2.0288 -6.2384 0
M  V30 4630 H 414.283 -3.72635 -6.57784 0
M  V30 4631 H 415.551 -2.77093 -7.28587 0
M  V30 4632 N 419.78 1.02168 -1.19998 0
M  V30 4633 C 420.71 2.12488 -0.96804 0
M  V30 4634 C 421.691 1.69799 0.101185 0
M  V30 4635 O 422.876 1.94121 -0.0552993 0
M  V30 4636 C 420.006 3.43479 -0.513776 0
M  V30 4637 C 418.96 3.99884 -1.52566 0
M  V30 4638 C 418.286 5.26582 -0.928214 0
M  V30 4639 C 419.586 4.33861 -2.90795 0
M  V30 4640 H 421.28 2.32149 -1.89069 0
M  V30 4641 H 418.826 1.11564 -0.910468 0
M  V30 4642 H 420.779 4.20036 -0.338774 0
M  V30 4643 H 419.503 3.23561 0.444493 0
M  V30 4644 H 418.162 3.25429 -1.68794 0
M  V30 4645 H 417.81 5.02986 0.0378289 0
M  V30 4646 H 417.51 5.65284 -1.60397 0
M  V30 4647 H 419.034 6.05799 -0.764167 0
M  V30 4648 H 420.448 5.01327 -2.78109 0
M  V30 4649 H 418.845 4.83664 -3.55231 0
M  V30 4650 H 419.915 3.42848 -3.42904 0
M  V30 4651 N 421.258 1.00505 1.21394 0
M  V30 4652 C 422.208 0.536503 2.21598 0
M  V30 4653 C 423.192 -0.401914 1.55799 0
M  V30 4654 O 424.384 -0.226757 1.75541 0
M  V30 4655 C 421.513 -0.135446 3.43033 0
M  V30 4656 C 420.599 0.823992 4.16018 0
M  V30 4657 N 420.99 1.97683 4.6557 0
M  V30 4658 C 419.288 0.642387 4.4135 0
M  V30 4659 C 419.989 2.58003 5.21354 0
M  V30 4660 N 418.965 1.86162 5.1073 0
M  V30 4661 H 422.767 1.41557 2.57563 0
M  V30 4662 H 420.281 0.868878 1.37202 0
M  V30 4663 H 422.278 -0.488584 4.14027 0
M  V30 4664 H 420.938 -1.01049 3.08576 0
M  V30 4665 H 421.949 2.3572 4.61147 0
M  V30 4666 H 418.626 -0.185578 4.17087 0
M  V30 4667 H 420.016 3.555 5.70149 0
M  V30 4668 N 422.737 -1.36956 0.779787 0
M  V30 4669 C 423.647 -2.33965 0.172491 0
M  V30 4670 C 424.663 -1.60574 -0.670222 0
M  V30 4671 O 425.839 -1.92617 -0.588263 0
M  V30 4672 C 422.904 -3.39761 -0.690173 0
M  V30 4673 C 421.965 -4.28964 0.169924 0
M  V30 4674 C 421.198 -5.29707 -0.651662 0
M  V30 4675 O 421.421 -5.38238 -1.88827 0
M  V30 4676 O 420.355 -6.01873 -0.0566264 0
M  V30 4677 H 424.181 -2.87647 0.974321 0
M  V30 4678 H 421.766 -1.39258 0.541078 0
M  V30 4679 H 423.648 -4.04471 -1.1824 0
M  V30 4680 H 422.323 -2.88394 -1.47006 0
M  V30 4681 H 421.23 -3.67326 0.708696 0
M  V30 4682 H 422.563 -4.83656 0.913085 0
M  V30 4683 N 424.215 -0.530993 -1.48385 0
M  V30 4684 C 425.445 -0.00133928 -2.066 0
M  V30 4685 C 425.853 1.28599 -1.38777 0
M  V30 4686 O 425.196 1.77599 -0.469495 0
M  V30 4687 C 425.258 0.292137 -3.58311 0
M  V30 4688 C 424.922 -0.901864 -4.48013 0
M  V30 4689 C 425.919 -1.80053 -4.87726 0
M  V30 4690 C 423.604 -1.10915 -4.89901 0
M  V30 4691 C 425.598 -2.89038 -5.68098 0
M  V30 4692 C 423.285 -2.20213 -5.70043 0
M  V30 4693 C 424.283 -3.09107 -6.0905 0
M  V30 4694 O 423.971 -4.16514 -6.87583 0
M  V30 4695 H 423.703 -0.0308475 -0.675296 0
M  V30 4696 H 426.257 -0.736335 -1.91748 0
M  V30 4697 H 424.487 1.08112 -3.7128 0
M  V30 4698 H 426.176 0.763994 -3.98645 0
M  V30 4699 H 426.942 -1.65234 -4.55986 0
M  V30 4700 H 422.821 -0.426498 -4.59023 0
M  V30 4701 H 426.365 -3.58451 -5.98464 0
M  V30 4702 H 422.262 -2.35016 -6.01197 0
M  V30 4703 H 423.03 -4.14237 -7.05939 0
M  V30 4704 N 425.693 1.55336 -0.266172 0
M  V30 4705 C 426.94 1.99397 0.353158 0
M  V30 4706 C 427.268 1.15451 1.56529 0
M  V30 4707 O 426.523 0.209974 1.9457 0
M  V30 4708 C 426.822 3.48606 0.787957 0
M  V30 4709 C 426.488 4.49773 -0.318541 0
M  V30 4710 C 425.15 4.77158 -0.62239 0
M  V30 4711 C 427.502 5.10212 -1.06459 0
M  V30 4712 C 424.83 5.62251 -1.67602 0
M  V30 4713 C 427.182 5.96449 -2.10788 0
M  V30 4714 C 425.846 6.22158 -2.41817 0
M  V30 4715 H 425.116 0.729644 0.12923 0
M  V30 4716 H 427.763 1.87732 -0.37802 0
M  V30 4717 H 426.068 3.57701 1.59866 0
M  V30 4718 H 427.765 3.80098 1.27775 0
M  V30 4719 H 424.355 4.2854 -0.0715925 0
M  V30 4720 H 428.539 4.89086 -0.843098 0
M  V30 4721 H 423.795 5.80419 -1.92155 0
M  V30 4722 H 427.969 6.42317 -2.69076 0
M  V30 4723 H 425.596 6.87888 -3.23596 0
M  V30 4724 N 427.171 -0.0066808 1.57599 0
M  V30 4725 C 428.121 -1.0086 2.04478 0
M  V30 4726 C 429.105 -1.30714 0.938231 0
M  V30 4727 O 430.297 -1.29924 1.20203 0
M  V30 4728 C 427.426 -2.30273 2.54615 0
M  V30 4729 C 426.512 -2.03413 3.72134 0
M  V30 4730 N 426.903 -1.46688 4.84062 0
M  V30 4731 C 425.201 -2.33589 3.79937 0
M  V30 4732 C 425.902 -1.36146 5.65543 0
M  V30 4733 N 424.878 -1.84477 5.1134 0
M  V30 4734 H 428.68 -0.564402 2.8843 0
M  V30 4735 H 426.194 -0.212521 1.61003 0
M  V30 4736 H 428.191 -3.02885 2.86472 0
M  V30 4737 H 426.851 -2.75352 1.72079 0
M  V30 4738 H 427.862 -1.14658 5.05049 0
M  V30 4739 H 424.539 -2.81589 3.08243 0
M  V30 4740 H 425.929 -0.925873 6.6549 0
M  V30 4741 N 428.649 -1.55105 -0.279332 0
M  V30 4742 C 429.559 -1.90638 -1.36727 0
M  V30 4743 C 430.575 -0.802899 -1.54368 0
M  V30 4744 O 431.751 -1.10138 -1.68616 0
M  V30 4745 C 428.816 -2.16547 -2.70755 0
M  V30 4746 C 427.877 -3.40146 -2.61915 0
M  V30 4747 C 427.11 -3.6481 -3.8955 0
M  V30 4748 O 427.333 -2.92095 -4.89935 0
M  V30 4749 O 426.267 -4.58343 -3.90135 0
M  V30 4750 H 430.093 -2.83237 -1.09591 0
M  V30 4751 H 427.678 -1.4157 -0.477306 0
M  V30 4752 H 429.56 -2.34665 -3.50014 0
M  V30 4753 H 428.235 -1.27131 -2.9769 0
M  V30 4754 H 427.142 -3.2737 -1.81052 0
M  V30 4755 H 428.475 -4.29761 -2.3993 0
M  V30 4756 N 430.127 0.543554 -1.4793 0
M  V30 4757 C 431.538 1.12561 -1.48953 0
M  V30 4758 C 431.889 1.94578 -0.251754 0
M  V30 4759 O 431.014 2.0665 0.642255 0
M  V30 4760 C 431.609 2.04801 -2.69892 0
M  V30 4761 C 430.168 2.58251 -2.73831 0
M  V30 4762 C 429.315 1.34918 -2.42265 0
M  V30 4763 H 432.266 0.32947 -1.55242 0
M  V30 4764 H 432.287 2.88886 -2.47639 0
M  V30 4765 H 431.799 1.4508 -3.59963 0
M  V30 4766 H 429.9 3.21732 -1.87934 0
M  V30 4767 H 430.013 2.98312 -3.74895 0
M  V30 4768 H 428.377 1.66046 -1.93134 0
M  V30 4769 H 429.16 0.769693 -3.3456 0
M  V30 4770 N 431.605 1.3629 0.791371 0
M  V30 4771 C 432.553 1.30514 1.92533 0
M  V30 4772 C 433.547 0.197285 1.68247 0
M  V30 4773 O 434.753 0.364176 1.76278 0
M  V30 4774 H 431.128 0.406263 0.632815 0
M  V30 4775 H 433.099 2.26282 1.94523 0
M  V30 4776 C 431.848 1.10933 3.29529 0
M  V30 4777 H 431.171 1.95427 3.48781 0
M  V30 4778 H 432.611 1.10937 4.0923 0
M  V30 4779 C 431.07 -0.186123 3.36385 0
M  V30 4780 O 431.6 -1.17664 3.84081 0
M  V30 4781 N 429.806 -0.230128 2.89687 0
M  V30 4782 H 429.353 0.576545 2.51065 0
M  V30 4783 H 429.311 -1.09658 2.94657 0
M  V30 4784 N 433.083 -1.0153 1.20538 0
M  V30 4785 C 434.03 -2.10098 0.955383 0
M  V30 4786 C 435 -1.65702 -0.114878 0
M  V30 4787 O 436.185 -1.90776 0.0301118 0
M  V30 4788 C 433.325 -3.41236 0.514969 0
M  V30 4789 C 432.438 -3.99102 1.65353 0
M  V30 4790 C 431.573 -5.18306 1.16329 0
M  V30 4791 C 430.612 -5.68258 2.27485 0
M  V30 4792 N 429.749 -6.78722 1.7967 0
M  V30 4793 H 434.589 -2.30818 1.88486 0
M  V30 4794 H 432.126 -1.13189 0.939499 0
M  V30 4795 H 434.084 -4.16504 0.240935 0
M  V30 4796 H 432.714 -3.20585 -0.377512 0
M  V30 4797 H 431.766 -3.20918 2.04245 0
M  V30 4798 H 433.078 -4.32177 2.49047 0
M  V30 4799 H 432.232 -6.00782 0.845302 0
M  V30 4800 H 430.971 -4.86799 0.296254 0
M  V30 4801 H 429.976 -4.84385 2.60099 0
M  V30 4802 H 431.201 -6.01798 3.14667 0
M  V30 4803 H 429.147 -6.49042 0.95295 0
M  V30 4804 H 429.064 -7.10996 2.56944 0
M  V30 4805 H 430.332 -7.64759 1.50875 0
M  V30 4806 N 434.561 -1.01147 -1.20859 0
M  V30 4807 C 435.508 -0.577354 -2.23462 0
M  V30 4808 C 436.478 0.399922 -1.61214 0
M  V30 4809 O 437.663 0.300515 -1.88419 0
M  V30 4810 C 434.803 0.083372 -3.44999 0
M  V30 4811 C 433.916 -0.937856 -4.21697 0
M  V30 4812 C 433.051 -0.248717 -5.30617 0
M  V30 4813 C 432.09 -1.25705 -5.99053 0
M  V30 4814 N 431.227 -0.594939 -6.99575 0
M  V30 4815 H 436.067 -1.45695 -2.59956 0
M  V30 4816 H 433.604 -0.729428 -1.27741 0
M  V30 4817 H 435.562 0.483535 -4.14388 0
M  V30 4818 H 434.192 0.926645 -3.09214 0
M  V30 4819 H 433.244 -1.45622 -3.51423 0
M  V30 4820 H 434.556 -1.70493 -4.68757 0
M  V30 4821 H 433.71 0.207215 -6.06346 0
M  V30 4822 H 432.449 0.55071 -4.84581 0
M  V30 4823 H 431.454 -1.72343 -5.2209 0
M  V30 4824 H 432.679 -2.05767 -6.47176 0
M  V30 4825 H 430.625 0.184713 -6.5574 0
M  V30 4826 H 430.542 -1.30017 -7.44736 0
M  V30 4827 H 431.81 -0.162427 -7.79331 0
M  V30 4828 N 436.039 1.36541 -0.78704 0
M  V30 4829 C 437.286 1.99304 -0.358341 0
M  V30 4830 C 437.614 1.62467 1.06933 0
M  V30 4831 O 436.869 0.870019 1.75297 0
M  V30 4832 C 437.168 3.54343 -0.466485 0
M  V30 4833 C 436.834 4.10993 -1.85461 0
M  V30 4834 C 435.496 4.26177 -2.23443 0
M  V30 4835 C 437.848 4.41895 -2.76366 0
M  V30 4836 C 435.176 4.69573 -3.51736 0
M  V30 4837 C 437.528 4.86722 -4.04084 0
M  V30 4838 C 436.192 5.00112 -4.42091 0
M  V30 4839 H 435.462 0.729306 -0.131126 0
M  V30 4840 H 438.109 1.63068 -1.00404 0
M  V30 4841 H 436.414 3.90918 0.262719 0
M  V30 4842 H 438.111 4.00833 -0.115854 0
M  V30 4843 H 434.701 3.99612 -1.54946 0
M  V30 4844 H 438.885 4.29735 -2.48277 0
M  V30 4845 H 434.141 4.78127 -3.81057 0
M  V30 4846 H 438.315 5.09598 -4.7464 0
M  V30 4847 H 435.942 5.33498 -5.41557 0
M  V30 4848 N 437.518 0.538854 1.48102 0
M  V30 4849 C 438.765 0.0080018 2.02498 0
M  V30 4850 C 439.093 -1.33437 1.41509 0
M  V30 4851 O 438.348 -1.87709 0.553507 0
M  V30 4852 C 438.647 -0.153808 3.57069 0
M  V30 4853 C 438.313 1.11533 4.36888 0
M  V30 4854 C 436.975 1.46314 4.58417 0
M  V30 4855 C 439.327 1.95718 4.83057 0
M  V30 4856 C 436.655 2.6516 5.23361 0
M  V30 4857 C 439.007 3.13751 5.49312 0
M  V30 4858 C 437.671 3.48866 5.69077 0
M  V30 4859 H 436.941 0.00292807 0.740994 0
M  V30 4860 H 439.588 0.706668 1.77984 0
M  V30 4861 H 437.893 -0.935309 3.80472 0
M  V30 4862 H 439.59 -0.579607 3.96789 0
M  V30 4863 H 436.18 0.834484 4.20398 0
M  V30 4864 H 440.364 1.70158 4.66219 0
M  V30 4865 H 435.62 2.92558 5.36861 0
M  V30 4866 H 439.794 3.79282 5.84053 0
M  V30 4867 H 437.421 4.41054 6.19173 0
M  V30 4868 N 438.996 -1.55193 0.274407 0
M  V30 4869 C 439.906 -2.26164 -0.623473 0
M  V30 4870 C 440.922 -1.28729 -1.17068 0
M  V30 4871 O 442.098 -1.61663 -1.20112 0
M  V30 4872 C 439.163 -2.96833 -1.7914 0
M  V30 4873 C 438.224 -4.09745 -1.28093 0
M  V30 4874 C 437.457 -4.77034 -2.3932 0
M  V30 4875 O 437.68 -4.4353 -3.5866 0
M  V30 4876 O 436.614 -5.64996 -2.07516 0
M  V30 4877 H 440.44 -3.03661 -0.0485661 0
M  V30 4878 H 438.025 -1.49341 0.0418382 0
M  V30 4879 H 439.907 -3.41248 -2.4724 0
M  V30 4880 H 438.582 -2.22253 -2.35341 0
M  V30 4881 H 437.489 -3.69787 -0.566416 0
M  V30 4882 H 438.822 -4.86224 -0.764683 0
M  V30 4883 N 440.474 -0.00167713 -1.576 0
M  V30 4884 C 441.404 0.988091 -2.11563 0
M  V30 4885 C 442.385 1.35736 -1.02517 0
M  V30 4886 O 443.57 1.44082 -1.30208 0
M  V30 4887 C 440.7 2.27941 -2.62031 0
M  V30 4888 C 439.654 2.0517 -3.75619 0
M  V30 4889 C 438.98 3.4033 -4.12407 0
M  V30 4890 C 440.28 1.41294 -5.02825 0
M  V30 4891 H 441.974 0.538771 -2.94513 0
M  V30 4892 H 439.52 0.257712 -1.41675 0
M  V30 4893 H 441.473 2.97539 -2.9841 0
M  V30 4894 H 440.197 2.74989 -1.76205 0
M  V30 4895 H 438.856 1.37998 -3.39635 0
M  V30 4896 H 438.504 3.85085 -3.23603 0
M  V30 4897 H 438.204 3.25909 -4.88935 0
M  V30 4898 H 439.728 4.1124 -4.51347 0
M  V30 4899 H 441.142 2.00851 -5.36965 0
M  V30 4900 H 439.539 1.37356 -5.84169 0
M  V30 4901 H 440.609 0.382362 -4.8339 0
M  V30 4902 N 441.952 1.55251 0.271103 0
M  V30 4903 C 443.198 1.76207 1.00394 0
M  V30 4904 C 443.531 0.562604 1.85872 0
M  V30 4905 O 442.806 -0.439785 1.89463 0
M  V30 4906 C 443.089 3.06828 1.8849 0
M  V30 4907 C 442.942 4.37134 1.05992 0
M  V30 4908 C 444.261 3.33503 2.87165 0
M  V30 4909 H 441.38 0.641086 0.363562 0
M  V30 4910 H 444.022 1.87982 0.276189 0
M  V30 4911 H 442.172 2.96921 2.5054 0
M  V30 4912 H 443.844 4.59001 0.459978 0
M  V30 4913 H 442.087 4.32275 0.363443 0
M  V30 4914 H 442.758 5.2486 1.70955 0
M  V30 4915 H 445.234 3.43215 2.3525 0
M  V30 4916 H 444.11 4.2616 3.45946 0
M  V30 4917 H 444.371 2.53235 3.62387 0
M  V30 4918 N 443.43 -0.535701 1.48216 0
M  V30 4919 C 444.678 -1.28928 1.55634 0
M  V30 4920 C 444.999 -1.93645 0.229514 0
M  V30 4921 O 444.269 -1.81038 -0.74846 0
M  V30 4922 H 442.849 -0.47884 0.573342 0
M  V30 4923 H 445.511 -0.623853 1.84646 0
M  V30 4924 H 444.607 -2.07157 2.33436 0
M  V30 4925 N 444.908 -1.36708 -0.784132 0
M  V30 4926 C 446.324 -1.17237 -1.08294 0
M  V30 4927 C 446.524 -5.93947e-05 -2.015 0
M  V30 4928 O 445.58 0.663686 -2.43622 0
M  V30 4929 C 446.893 -2.48557 -1.69233 0
M  V30 4930 C 448.441 -2.54968 -1.8155 0
M  V30 4931 C 448.916 -3.86388 -2.45904 0
M  V30 4932 N 450.407 -3.87762 -2.53367 0
M  V30 4933 C 451.142 -4.86191 -3.03983 0
M  V30 4934 N 450.638 -5.95015 -3.54866 0
M  V30 4935 N 452.431 -4.73606 -3.02743 0
M  V30 4936 H 444.582 -2.11758 -0.16501 0
M  V30 4937 H 446.845 -0.93822 -0.135822 0
M  V30 4938 H 446.551 -3.34638 -1.08215 0
M  V30 4939 H 446.425 -2.64748 -2.68679 0
M  V30 4940 H 448.812 -1.69302 -2.41704 0
M  V30 4941 H 448.893 -2.42672 -0.80895 0
M  V30 4942 H 448.537 -4.72462 -1.86392 0
M  V30 4943 H 448.467 -3.95982 -3.4714 0
M  V30 4944 H 450.958 -3.09145 -2.17343 0
M  V30 4945 H 451.271 -6.66086 -3.91854 0
M  V30 4946 H 449.616 -5.98676 -3.53003 0
M  V30 4947 H 452.807 -3.87717 -2.62284 0
M  V30 4948 H 452.98 -5.50473 -3.41881 0
M  V30 4949 N 446.386 1.0089 -1.21074 0
M  V30 4950 C 447.614 1.78191 -1.05145 0
M  V30 4951 C 448.029 1.84537 0.398952 0
M  V30 4952 O 447.386 1.30393 1.27687 0
M  V30 4953 C 447.437 3.22288 -1.63746 0
M  V30 4954 O 447.158 3.16315 -3.03111 0
M  V30 4955 C 448.659 4.16106 -1.52875 0
M  V30 4956 H 445.879 0.560129 -0.369454 0
M  V30 4957 H 448.423 1.26945 -1.60328 0
M  V30 4958 H 446.578 3.70655 -1.12664 0
M  V30 4959 H 446.992 4.06817 -3.31059 0
M  V30 4960 H 448.466 5.15026 -1.98626 0
M  V30 4961 H 448.943 4.36541 -0.482521 0
M  V30 4962 H 449.549 3.73625 -2.03185 0
M  V30 4963 N 447.864 1.01787 1.20321 0
M  V30 4964 C 449.111 0.707936 1.89722 0
M  V30 4965 C 449.439 -0.762535 1.78929 0
M  V30 4966 O 448.694 -1.56977 1.16861 0
M  V30 4967 C 448.993 1.09076 3.40349 0
M  V30 4968 C 448.659 2.55765 3.71342 0
M  V30 4969 C 447.321 2.95845 3.79511 0
M  V30 4970 C 449.673 3.50723 3.85542 0
M  V30 4971 C 447.001 4.2982 3.99339 0
M  V30 4972 C 449.353 4.84387 4.06881 0
M  V30 4973 C 448.017 5.24172 4.1328 0
M  V30 4974 H 447.287 0.259052 0.694243 0
M  V30 4975 H 449.934 1.27868 1.42555 0
M  V30 4976 H 448.239 0.438453 3.89339 0
M  V30 4977 H 449.936 0.828636 3.92345 0
M  V30 4978 H 446.526 2.2371 3.65584 0
M  V30 4979 H 450.71 3.20916 3.78585 0
M  V30 4980 H 445.966 4.60196 4.02529 0
M  V30 4981 H 450.14 5.57891 4.1681 0
M  V30 4982 H 447.767 6.27997 4.28396 0
M  V30 4983 N 449.342 -1.36122 0.79427 0
M  V30 4984 C 450.619 -1.93398 0.292685 0
M  V30 4985 C 450.999 -1.72567 -1.21589 0
M  V30 4986 O 450.347 -1.08745 -2.00965 0
M  V30 4987 C 450.557 -3.42099 0.690614 0
M  V30 4988 C 451.905 -4.19231 0.673105 0
M  V30 4989 O 452.929 -3.50559 0.631389 0
M  V30 4990 O 451.788 -5.41732 0.720362 0
M  V30 4991 H 448.882 -0.823712 0.0736693 0
M  V30 4992 H 451.428 -1.45273 0.87714 0
M  V30 4993 H 450.2 -3.50938 1.73085 0
M  V30 4994 H 449.823 -3.97519 0.0803036 0
M  V30 4995 N 450.82 -0.546701 -1.47814 0
M  V30 4996 C 452.066 -0.0269594 -2.03382 0
M  V30 4997 C 452.421 1.30406 -1.41464 0
M  V30 4998 O 451.714 1.8332 -0.557151 0
M  V30 4999 C 451.908 0.134869 -3.57145 0
M  V30 5000 C 451.737 -1.17891 -4.33972 0
M  V30 5001 C 450.507 -1.74336 -4.74273 0
M  V30 5002 C 452.705 -2.09361 -4.69758 0
M  V30 5003 N 450.687 -2.99829 -5.35701 0
M  V30 5004 C 452.058 -3.19431 -5.31379 0
M  V30 5005 C 454.113 -2.09484 -4.51687 0
M  V30 5006 C 452.816 -4.2971 -5.76838 0
M  V30 5007 C 454.842 -3.18767 -4.98138 0
M  V30 5008 C 454.204 -4.27557 -5.59799 0
M  V30 5009 H 450.303 -0.0517733 -0.780284 0
M  V30 5010 H 452.887 -0.731673 -1.80429 0
M  V30 5011 H 451.058 0.80869 -3.79888 0
M  V30 5012 H 452.79 0.655726 -3.99352 0
M  V30 5013 H 449.545 -1.28265 -4.559 0
M  V30 5014 H 449.969 -3.63765 -5.70968 0
M  V30 5015 H 454.611 -1.26663 -4.03381 0
M  V30 5016 H 452.329 -5.13297 -6.24141 0
M  V30 5017 H 455.915 -3.19937 -4.85934 0
M  V30 5018 H 454.795 -5.10725 -5.95088 0
M  V30 5019 N 452.299 1.55045 -0.282633 0
M  V30 5020 C 453.249 2.19514 0.616249 0
M  V30 5021 C 454.233 1.16216 1.11277 0
M  V30 5022 O 455.425 1.42004 1.05659 0
M  V30 5023 C 452.554 2.92548 1.7964 0
M  V30 5024 C 451.64 4.03142 1.31671 0
M  V30 5025 N 452.031 5.0276 0.553695 0
M  V30 5026 C 450.329 4.1635 1.59903 0
M  V30 5027 C 451.03 5.80923 0.30054 0
M  V30 5028 N 450.006 5.3651 0.875116 0
M  V30 5029 H 453.808 2.93889 0.0255363 0
M  V30 5030 H 451.322 1.62169 -0.0865362 0
M  V30 5031 H 453.319 3.37188 2.45173 0
M  V30 5032 H 451.979 2.19685 2.39099 0
M  V30 5033 H 452.99 5.17512 0.20032 0
M  V30 5034 H 449.667 3.54682 2.20243 0
M  V30 5035 H 451.057 6.7118 -0.311053 0
M  V30 5036 O 453.816 0.148543 1.60815 0
M  V30 5037 H 454.507 -0.445161 1.88515 0
M  V30 END ATOM
M  V30 BEGIN BOND
M  V30 END BOND
M  V30 END CTAB
M  END
$$$$
