drugbank_drug|DB00012 DB00012 sequence
 OpenBabel12092119123D

  0  0  0     0  0            999 V3000
M  V30 BEGIN CTAB
M  V30 COUNTS 2614 2637 0 0 0
M  V30 BEGIN ATOM
M  V30 1 H -0.908 1.98254 -0.117106 0
M  V30 2 N 0 1.576 0 0
M  V30 3 C 0.963 2.07369 0.976253 0
M  V30 4 C 1.963 0.98309 1.27248 0
M  V30 5 O 3.153 1.24574 1.21766 0
M  V30 6 C 0.285 2.51514 2.30116 0
M  V30 7 H 1.478 2.94892 0.545759 0
M  V30 8 H -0.969 1.54328 0.247471 0
M  V30 9 H -0.234 1.67234 2.77855 0
M  V30 10 H -0.449 3.31163 2.09937 0
M  V30 11 H 1.041 2.90345 3.00149 0
M  V30 12 N 1.4781 -0.272755 1.55222 0
M  V30 13 C 2.8891 -0.84378 1.66545 0
M  V30 14 C 3.2401 -1.87035 0.592641 0
M  V30 15 O 2.3651 -2.14761 -0.265818 0
M  V30 16 C 2.9601 -1.53723 3.01918 0
M  V30 17 C 1.5191 -2.05628 3.15268 0
M  V30 18 C 0.6661 -0.898424 2.62343 0
M  V30 19 H 3.6171 -0.0490998 1.58624 0
M  V30 20 H 3.6381 -2.40421 2.94921 0
M  V30 21 H 3.1501 -0.78983 3.79978 0
M  V30 22 H 1.2511 -2.83329 2.41983 0
M  V30 23 H 1.3641 -2.27142 4.21833 0
M  V30 24 H -0.2719 -1.29186 2.19506 0
M  V30 25 H 0.5111 -0.164528 3.42906 0
M  V30 26 N 2.9562 -1.48159 -0.537278 0
M  V30 27 C 4.3672 -1.49429 -1.11928 0
M  V30 28 C 4.7182 -0.26 -1.9447 0
M  V30 29 O 3.8432 0.633489 -2.0692 0
M  V30 30 C 4.4382 -2.70758 -2.03656 0
M  V30 31 C 2.9972 -2.74923 -2.57088 0
M  V30 32 C 2.1442 -2.42835 -1.3389 0
M  V30 33 H 5.0952 -1.55381 -0.322886 0
M  V30 34 H 5.1162 -2.48861 -2.87834 0
M  V30 35 H 4.6282 -3.60575 -1.43553 0
M  V30 36 H 2.7292 -1.89296 -3.20933 0
M  V30 37 H 2.8422 -3.76157 -2.9672 0
M  V30 38 H 1.2062 -1.93836 -1.65226 0
M  V30 39 H 1.9892 -3.34884 -0.755504 0
M  V30 40 N 4.4343 0.785586 -1.36625 0
M  V30 41 C 5.8503 1.08419 -1.17122 0
M  V30 42 C 6.0503 2.015 0.00208491 0
M  V30 43 O 5.1063 2.43551 0.666278 0
M  V30 44 C 6.4193 1.69498 -2.48377 0
M  V30 45 C 7.9673 1.81821 -2.54775 0
M  V30 46 C 8.4423 2.46315 -3.86126 0
M  V30 47 N 9.9333 2.53779 -3.87492 0
M  V30 48 C 10.6683 3.045 -4.85868 0
M  V30 49 N 10.1643 3.55499 -5.94637 0
M  V30 50 N 11.9573 3.03247 -4.73284 0
M  V30 51 H 4.1083 0.167264 -2.1174 0
M  V30 52 H 6.3713 0.13682 -0.938075 0
M  V30 53 H 6.0773 1.08571 -3.34522 0
M  V30 54 H 5.9513 2.6896 -2.64462 0
M  V30 55 H 8.3383 2.41884 -1.69045 0
M  V30 56 H 8.4193 0.811532 -2.42586 0
M  V30 57 H 8.0633 1.86895 -4.72263 0
M  V30 58 H 7.9933 3.47561 -3.95612 0
M  V30 59 H 10.4843 2.17672 -3.08913 0
M  V30 60 H 10.7973 3.92562 -6.65669 0
M  V30 61 H 9.1423 3.5364 -5.98301 0
M  V30 62 H 12.3333 2.62696 -3.87438 0
M  V30 63 H 12.5063 3.42467 -5.50109 0
M  V30 64 N 5.9124 1.20967 1.01018 0
M  V30 65 C 6.8424 0.988272 2.11555 0
M  V30 66 C 7.8234 -0.0849778 1.69888 0
M  V30 67 O 9.0084 0.0738202 1.9406 0
M  V30 68 C 6.1384 0.546528 3.42973 0
M  V30 69 C 5.0924 1.56375 3.9841 0
M  V30 70 C 4.4184 0.97842 5.25672 0
M  V30 71 C 5.7184 2.94922 4.31066 0
M  V30 72 H 7.4124 1.91276 2.30334 0
M  V30 73 H 4.9584 0.921073 1.1069 0
M  V30 74 H 6.9114 0.378839 4.19694 0
M  V30 75 H 5.6354 -0.413598 3.23971 0
M  V30 76 H 4.2944 1.71891 3.23804 0
M  V30 77 H 3.9424 0.0101688 5.02999 0
M  V30 78 H 3.6424 1.65784 5.63728 0
M  V30 79 H 5.1664 0.821939 6.05043 0
M  V30 80 H 6.5804 2.8288 4.9865 0
M  V30 81 H 4.9774 3.5983 4.80253 0
M  V30 82 H 6.0474 3.4616 3.39561 0
M  V30 83 N 7.3905 -1.2043 1.01659 0
M  V30 84 C 8.6395 -1.89118 0.701237 0
M  V30 85 C 8.9525 -1.79705 -0.772358 0
M  V30 86 O 10.1585 -2.43528 -1.20026 0
M  V30 87 C 8.6145 -3.39168 1.20388 0
M  V30 88 C 8.2225 -3.57166 2.70438 0
M  V30 89 C 9.9665 -4.1341 0.963953 0
M  V30 90 C 7.8735 -5.01042 3.14183 0
M  V30 91 H 6.8035 -0.708267 0.2586 0
M  V30 92 H 9.4545 -1.36239 1.22927 0
M  V30 93 H 7.8365 -3.91369 0.603824 0
M  V30 94 H 9.0105 -3.15351 3.35992 0
M  V30 95 H 7.3255 -2.96294 2.92572 0
M  V30 96 H 9.9225 -5.19491 1.26621 0
M  V30 97 H 10.2655 -4.16181 -0.099578 0
M  V30 98 H 10.7985 -3.67309 1.52738 0
M  V30 99 H 7.5375 -5.03426 4.19812 0
M  V30 100 H 7.0575 -5.43668 2.53348 0
M  V30 101 H 8.7365 -5.69623 3.0682 0
M  V30 102 N 8.8686 -0.792821 -1.36206 0
M  V30 103 C 10.1086 -0.372238 -2.00982 0
M  V30 104 C 10.4726 1.03749 -1.61555 0
M  V30 105 O 11.6736 1.55934 -2.18948 0
M  V30 106 C 9.9446 -0.534566 -3.5338 0
M  V30 107 S 11.5036 -0.202365 -4.38333 0
M  V30 108 H 8.3216 -0.142044 -0.696667 0
M  V30 109 H 10.9236 -1.03206 -1.66039 0
M  V30 110 H 9.6276 -1.5608 -3.79562 0
M  V30 111 H 9.1586 0.141065 -3.93147 0
M  V30 112 H 11.1736 0.994869 -4.86124 0
M  V30 113 N 10.3467 1.47872 -0.545128 0
M  V30 114 C 11.6237 1.9554 0.0485222 0
M  V30 115 C 12.0037 1.4876 1.49779 0
M  V30 116 O 11.3517 0.720925 2.16829 0
M  V30 117 C 11.5617 3.48898 -0.084417 0
M  V30 118 C 12.9097 4.24547 0.0671239 0
M  V30 119 O 13.9337 3.56198 -0.0113649 0
M  V30 120 O 12.7927 5.45999 0.233882 0
M  V30 121 H 9.8867 0.823957 0.0708773 0
M  V30 122 H 12.4327 1.58327 -0.610798 0
M  V30 123 H 11.2047 3.75714 -1.09337 0
M  V30 124 H 10.8277 3.92845 0.613066 0
M  V30 125 N 11.8248 0.280983 1.55075 0
M  V30 126 C 13.0498 -0.340154 2.04592 0
M  V30 127 C 13.4748 -1.48246 1.15779 0
M  V30 128 O 12.8328 -1.80614 0.15761 0
M  V30 129 C 12.8808 -0.793104 3.5177 0
M  V30 130 O 11.9848 -1.89981 3.66034 0
M  V30 131 H 11.3258 -0.0694289 0.66036 0
M  V30 132 H 13.8558 0.416993 2.00306 0
M  V30 133 H 13.8658 -1.08729 3.93245 0
M  V30 134 H 12.5408 0.0426163 4.15878 0
M  V30 135 H 11.1178 -1.60771 3.36463 0
M  V30 136 N 13.3029 -1.57598 0.00835791 0
M  V30 137 C 14.7189 -1.55764 -0.347822 0
M  V30 138 C 14.9189 -1.01186 -1.74252 0
M  V30 139 O 13.9749 -0.649371 -2.44007 0
M  V30 140 C 15.2879 -2.99927 -0.215407 0
M  V30 141 C 16.8359 -3.11656 -0.289725 0
M  V30 142 C 17.3109 -4.57621 -0.18634 0
M  V30 143 N 18.8019 -4.62557 -0.243978 0
M  V30 144 C 19.5369 -5.73094 -0.18745 0
M  V30 145 N 19.0329 -6.92753 -0.0810331 0
M  V30 146 N 20.8259 -5.61588 -0.239925 0
M  V30 147 H 12.9769 -1.91411 0.92062 0
M  V30 148 H 15.2399 -0.879562 0.353659 0
M  V30 149 H 14.9459 -3.43729 0.744512 0
M  V30 150 H 14.8199 -3.63865 -0.994097 0
M  V30 151 H 17.2069 -2.67779 -1.24009 0
M  V30 152 H 17.2879 -2.5048 0.51898 0
M  V30 153 H 16.9319 -5.02174 0.760519 0
M  V30 154 H 16.8619 -5.16752 -1.01364 0
M  V30 155 H 19.3529 -3.76481 -0.327217 0
M  V30 156 H 19.6659 -7.72787 -0.0440241 0
M  V30 157 H 18.0109 -6.94984 -0.0465419 0
M  V30 158 H 21.2019 -4.66996 -0.321317 0
M  V30 159 H 21.3749 -6.47714 -0.192407 0
M  V30 160 N 14.781 0.264519 -1.55364 0
M  V30 161 C 16.027 0.99646 -1.76631 0
M  V30 162 C 16.36 1.85632 -0.570478 0
M  V30 163 O 15.635 1.89647 0.43175 0
M  V30 164 C 15.918 1.87187 -3.07625 0
M  V30 165 C 15.771 1.04138 -4.37579 0
M  V30 166 C 17.09 2.85749 -3.34717 0
M  V30 167 H 14.209 0.360841 -0.642622 0
M  V30 168 H 16.851 0.268218 -1.88097 0
M  V30 169 H 15.001 2.49279 -2.9798 0
M  V30 170 H 16.673 0.440517 -4.59192 0
M  V30 171 H 14.916 0.345115 -4.32425 0
M  V30 172 H 15.587 1.68729 -5.2558 0
M  V30 173 H 18.063 2.33793 -3.4421 0
M  V30 174 H 16.939 3.44136 -4.27623 0
M  V30 175 H 17.2 3.61311 -2.54768 0
M  V30 176 N 16.2591 1.48442 0.529413 0
M  V30 177 C 17.1891 1.65902 1.64313 0
M  V30 178 C 18.1701 0.507897 1.6234 0
M  V30 179 O 19.3551 0.740503 1.79528 0
M  V30 180 C 16.4851 1.69911 3.02898 0
M  V30 181 C 15.4391 2.8453 3.19729 0
M  V30 182 C 14.7651 2.73629 4.59381 0
M  V30 183 C 16.0651 4.25821 3.02447 0
M  V30 184 H 17.7591 2.5914 1.49955 0
M  V30 185 H 15.3051 1.24709 0.719982 0
M  V30 186 H 17.2581 1.80715 3.80684 0
M  V30 187 H 15.9821 0.732524 3.18279 0
M  V30 188 H 14.6411 2.73283 2.44361 0
M  V30 189 H 14.2891 1.74938 4.71599 0
M  V30 190 H 13.9891 3.50541 4.71588 0
M  V30 191 H 15.5131 2.86401 5.39265 0
M  V30 192 H 16.9271 4.37898 3.70024 0
M  V30 193 H 15.3241 5.03735 3.26146 0
M  V30 194 H 16.3941 4.42244 1.98867 0
M  V30 195 N 17.7372 -0.778329 1.37039 0
M  V30 196 C 18.6472 -1.92253 1.34446 0
M  V30 197 C 19.6632 -1.72267 0.244991 0
M  V30 198 O 20.8392 -1.95615 0.479258 0
M  V30 199 C 17.9042 -3.27282 1.144 0
M  V30 200 C 16.9652 -3.59969 2.33925 0
M  V30 201 C 16.1982 -4.88555 2.14825 0
M  V30 202 O 16.4212 -5.59113 1.12912 0
M  V30 203 O 15.3552 -5.20153 3.02861 0
M  V30 204 H 19.1812 -1.97392 2.30803 0
M  V30 205 H 16.7662 -0.920154 1.17701 0
M  V30 206 H 18.6482 -4.08062 1.05182 0
M  V30 207 H 17.3232 -3.23011 0.211124 0
M  V30 208 H 16.2302 -2.7945 2.48714 0
M  V30 209 H 17.5632 -3.68976 3.25757 0
M  V30 210 N 19.2153 -1.21501 -1.00376 0
M  V30 211 C 20.6313 -0.972629 -1.26539 0
M  V30 212 C 20.8313 0.340257 -1.98606 0
M  V30 213 O 19.8873 1.06561 -2.28913 0
M  V30 214 C 21.2003 -2.16404 -2.08781 0
M  V30 215 C 22.7483 -2.20643 -2.22004 0
M  V30 216 C 23.2233 -3.39306 -3.07629 0
M  V30 217 N 24.7143 -3.39401 -3.15217 0
M  V30 218 C 25.4493 -4.27867 -3.81729 0
M  V30 219 N 24.9453 -5.26533 -4.5026 0
M  V30 220 N 26.7383 -4.15672 -3.78382 0
M  V30 221 H 18.8893 -2.05929 -0.520281 0
M  V30 222 H 21.1523 -0.901803 -0.292328 0
M  V30 223 H 20.8583 -3.11554 -1.63178 0
M  V30 224 H 20.7323 -2.15567 -3.09533 0
M  V30 225 H 23.1193 -1.26048 -2.66825 0
M  V30 226 H 23.2003 -2.25523 -1.20718 0
M  V30 227 H 22.8443 -4.34195 -2.63509 0
M  V30 228 H 22.7743 -3.31665 -4.09031 0
M  V30 229 H 25.2653 -2.67997 -2.66432 0
M  V30 230 H 25.5783 -5.90337 -4.98721 0
M  V30 231 H 23.9233 -5.30457 -4.49044 0
M  V30 232 H 27.1143 -3.3785 -3.23998 0
M  V30 233 H 27.2873 -4.84825 -4.2994 0
M  V30 234 N 20.6934 1.19889 -1.02296 0
M  V30 235 C 21.9234 1.93109 -0.734332 0
M  V30 236 C 22.3314 1.75377 0.709889 0
M  V30 237 O 21.6744 1.06912 1.49384 0
M  V30 238 C 21.7364 3.45362 -0.99827 0
M  V30 239 C 21.4004 3.8686 -2.43287 0
M  V30 240 C 22.3974 3.92102 -3.41397 0
M  V30 241 C 20.0824 4.18668 -2.77529 0
M  V30 242 C 22.0764 4.28573 -4.71809 0
M  V30 243 C 19.7634 4.54813 -4.08153 0
M  V30 244 C 20.7614 4.59739 -5.05103 0
M  V30 245 O 20.4494 4.95051 -6.33388 0
M  V30 246 H 20.1814 0.620409 -0.268456 0
M  V30 247 H 22.7354 1.53144 -1.3688 0
M  V30 248 H 20.9654 3.85482 -0.306645 0
M  V30 249 H 22.6544 3.99814 -0.700234 0
M  V30 250 H 23.4204 3.67685 -3.1628 0
M  V30 251 H 19.2994 4.14021 -2.0275 0
M  V30 252 H 22.8434 4.32333 -5.4748 0
M  V30 253 H 18.7404 4.78687 -4.33047 0
M  V30 254 H 19.5084 5.1302 -6.37772 0
M  V30 255 N 22.1715 0.800033 1.35784 0
M  V30 256 C 23.1015 0.220184 2.3246 0
M  V30 257 C 24.0825 -0.65073 1.57161 0
M  V30 258 O 25.2675 -0.582359 1.85263 0
M  V30 259 C 22.3975 -0.637353 3.41402 0
M  V30 260 C 21.3515 0.134531 4.27789 0
M  V30 261 C 20.6775 -0.844285 5.27992 0
M  V30 262 C 21.9775 1.32979 5.05088 0
M  V30 263 H 23.6715 1.02787 2.81203 0
M  V30 264 H 21.2175 0.495717 1.35199 0
M  V30 265 H 23.1705 -1.05302 4.08031 0
M  V30 266 H 21.8945 -1.47785 2.91251 0
M  V30 267 H 20.5535 0.531296 3.6273 0
M  V30 268 H 20.2015 -1.68011 4.74111 0
M  V30 269 H 19.9015 -0.332184 5.8666 0
M  V30 270 H 21.4255 -1.2583 5.97494 0
M  V30 271 H 22.8395 0.98934 5.64699 0
M  V30 272 H 21.2365 1.77593 5.7322 0
M  V30 273 H 22.3065 2.11978 4.36111 0
M  V30 274 N 23.6496 -1.47581 0.552962 0
M  V30 275 C 24.5796 -2.32762 -0.185451 0
M  V30 276 C 25.5606 -1.43527 -0.912905 0
M  V30 277 O 26.7456 -1.72388 -0.894201 0
M  V30 278 C 23.8756 -3.25219 -1.21859 0
M  V30 279 C 22.8296 -4.23661 -0.607864 0
M  V30 280 C 22.1556 -5.05413 -1.74533 0
M  V30 281 C 23.4556 -5.20481 0.435582 0
M  V30 282 H 25.1496 -2.94749 0.525684 0
M  V30 283 H 22.6956 -1.41738 0.254251 0
M  V30 284 H 24.6486 -3.8365 -1.7433 0
M  V30 285 H 23.3726 -2.61279 -1.95961 0
M  V30 286 H 22.0316 -3.66451 -0.104489 0
M  V30 287 H 21.6796 -4.3788 -2.47529 0
M  V30 288 H 21.3796 -5.72059 -1.34249 0
M  V30 289 H 22.9036 -5.66701 -2.27338 0
M  V30 290 H 24.3176 -5.733 -0.00290157 0
M  V30 291 H 22.7146 -5.95305 0.757067 0
M  V30 292 H 23.7846 -4.66217 1.33303 0
M  V30 293 N 25.1277 -0.289203 -1.54924 0
M  V30 294 C 26.0377 0.601863 -2.26748 0
M  V30 295 C 27.0537 1.15834 -1.2984 0
M  V30 296 O 28.2297 1.18564 -1.62802 0
M  V30 297 C 25.2947 1.76299 -2.98529 0
M  V30 298 C 24.3557 1.24178 -4.10948 0
M  V30 299 C 23.5887 2.34757 -4.79296 0
M  V30 300 O 23.8117 3.54411 -4.46933 0
M  V30 301 O 22.7457 2.02115 -5.66951 0
M  V30 302 H 26.5717 0.0195879 -3.03694 0
M  V30 303 H 24.1567 -0.0560868 -1.49295 0
M  V30 304 H 26.0387 2.43973 -3.43592 0
M  V30 305 H 24.7137 2.33209 -2.24488 0
M  V30 306 H 23.6207 0.531104 -3.70311 0
M  V30 307 H 24.9537 0.718252 -4.86931 0
M  V30 308 N 26.6058 1.57591 -0.0167156 0
M  V30 309 C 27.5688 2.08393 0.954204 0
M  V30 310 C 28.5688 0.996531 1.26198 0
M  V30 311 O 29.7588 1.25858 1.20438 0
M  V30 312 C 26.8908 2.5394 2.27436 0
M  V30 313 H 28.0838 2.95455 0.514451 0
M  V30 314 H 25.6368 1.54582 0.231089 0
M  V30 315 H 26.3718 1.70171 2.76066 0
M  V30 316 H 26.1568 3.33371 2.06412 0
M  V30 317 H 27.6468 2.93512 2.97053 0
M  V30 318 N 28.0839 -0.256276 1.55502 0
M  V30 319 C 29.0309 -1.31714 1.89526 0
M  V30 320 C 30.0009 -1.4828 0.748479 0
M  V30 321 O 31.1859 -1.62416 1.00128 0
M  V30 322 C 28.3259 -2.66933 2.18725 0
M  V30 323 C 27.4389 -2.58452 3.4616 0
M  V30 324 C 26.5739 -3.85961 3.64976 0
M  V30 325 C 25.6129 -3.72059 4.86044 0
M  V30 326 N 24.7499 -4.9144 5.01429 0
M  V30 327 H 29.5899 -1.01998 2.80001 0
M  V30 328 H 27.1269 -0.492413 1.38613 0
M  V30 329 H 29.0849 -3.4563 2.33657 0
M  V30 330 H 27.7149 -2.94816 1.31466 0
M  V30 331 H 26.7669 -1.71374 3.3961 0
M  V30 332 H 28.0789 -2.44085 4.34999 0
M  V30 333 H 27.2329 -4.73101 3.79816 0
M  V30 334 H 25.9719 -4.03215 2.74353 0
M  V30 335 H 24.9769 -2.83302 4.7119 0
M  V30 336 H 26.2019 -3.56309 5.78118 0
M  V30 337 H 24.1479 -5.09072 4.13741 0
M  V30 338 H 24.0649 -4.79668 5.84341 0
M  V30 339 H 25.3329 -5.80104 5.20672 0
M  V30 340 N 29.562 -1.4872 -0.521534 0
M  V30 341 C 30.472 -1.66569 -1.65203 0
M  V30 342 C 31.488 -0.548197 -1.65139 0
M  V30 343 O 32.664 -0.820339 -1.83936 0
M  V30 344 C 29.729 -1.70917 -3.01642 0
M  V30 345 C 28.79 -2.94356 -3.12495 0
M  V30 346 C 28.023 -2.98487 -4.42426 0
M  V30 347 O 28.246 -2.10786 -5.30024 0
M  V30 348 O 27.18 -3.90746 -4.57822 0
M  V30 349 H 31.006 -2.62298 -1.5308 0
M  V30 350 H 28.591 -1.3222 -0.695565 0
M  V30 351 H 30.473 -1.7625 -3.82771 0
M  V30 352 H 29.148 -0.783633 -3.14071 0
M  V30 353 H 28.055 -2.94552 -2.3063 0
M  V30 354 H 29.388 -3.86322 -3.04986 0
M  V30 355 N 31.0401 0.771051 -1.3745 0
M  V30 356 C 32.0031 1.86598 -1.33093 0
M  V30 357 C 33.0031 1.59076 -0.234845 0
M  V30 358 O 34.1931 1.67145 -0.490732 0
M  V30 359 C 31.3251 3.23747 -1.06773 0
M  V30 360 H 32.5181 1.91873 -2.30488 0
M  V30 361 H 30.0711 0.970876 -1.2249 0
M  V30 362 H 30.8061 3.24148 -0.099129 0
M  V30 363 H 30.5911 3.45115 -1.86112 0
M  V30 364 H 32.0811 4.03824 -1.06377 0
M  V30 365 N 32.5182 1.22032 0.997298 0
M  V30 366 C 33.4282 1.00271 2.12092 0
M  V30 367 C 34.4442 -0.047621 1.73935 0
M  V30 368 O 35.6202 0.144136 2.00884 0
M  V30 369 C 32.6852 0.578449 3.4184 0
M  V30 370 C 31.7462 1.70189 3.94125 0
M  V30 371 C 30.9792 1.29778 5.17681 0
M  V30 372 O 31.2022 0.174676 5.70132 0
M  V30 373 O 30.1362 2.11261 5.63607 0
M  V30 374 H 33.9622 1.94398 2.3333 0
M  V30 375 H 31.5472 1.00587 1.10465 0
M  V30 376 H 33.4292 0.351998 4.19927 0
M  V30 377 H 32.1042 -0.334019 3.21972 0
M  V30 378 H 31.0112 1.98282 3.1723 0
M  V30 379 H 32.3442 2.59206 4.18417 0
M  V30 380 N 33.9963 -1.19345 1.0293 0
M  V30 381 C 34.9443 -2.24621 0.604001 0
M  V30 382 C 35.9383 -1.65452 -0.363587 0
M  V30 383 O 37.1443 -1.78497 -0.23212 0
M  V30 384 H 33.5193 -0.730858 0.177061 0
M  V30 385 H 35.4903 -2.5781 1.50255 0
M  V30 386 C 34.2393 -3.47688 -0.0289127 0
M  V30 387 H 33.5623 -3.93505 0.706651 0
M  V30 388 H 35.0023 -4.23011 -0.289432 0
M  V30 389 C 33.4613 -3.11817 -1.2756 0
M  V30 390 O 33.9913 -3.2451 -2.36762 0
M  V30 391 N 32.1973 -2.66246 -1.16453 0
M  V30 392 H 31.7443 -2.56118 -0.275914 0
M  V30 393 H 31.7023 -2.42617 -1.99961 0
M  V30 394 N 35.4744 -0.807222 -1.35358 0
M  V30 395 C 36.7234 -0.384376 -1.98004 0
M  V30 396 C 37.0364 1.0543 -1.64754 0
M  V30 397 O 38.2424 1.58029 -2.20769 0
M  V30 398 C 36.6984 -0.636326 -3.5423 0
M  V30 399 C 36.3064 -2.08759 -3.96388 0
M  V30 400 C 38.0504 -0.278869 -4.23583 0
M  V30 401 C 35.9574 -2.28525 -5.45463 0
M  V30 402 H 34.8874 -0.139986 -0.740891 0
M  V30 403 H 37.5384 -0.991369 -1.54415 0
M  V30 404 H 35.9204 0.0406256 -3.95979 0
M  V30 405 H 37.0944 -2.8024 -3.6579 0
M  V30 406 H 35.4094 -2.40497 -3.39926 0
M  V30 407 H 38.0064 -0.404599 -5.33167 0
M  V30 408 H 38.3494 0.775012 -4.09022 0
M  V30 409 H 38.8824 -0.909764 -3.87257 0
M  V30 410 H 35.6214 -3.32361 -5.64992 0
M  V30 411 H 35.1414 -1.61569 -5.77629 0
M  V30 412 H 36.8204 -2.10109 -6.11934 0
M  V30 413 N 36.9525 1.47285 -0.560781 0
M  V30 414 C 38.1805 2.06855 -0.0430262 0
M  V30 415 C 38.5955 1.41291 1.25229 0
M  V30 416 O 37.9525 0.510648 1.7521 0
M  V30 417 C 38.0035 3.61178 0.152518 0
M  V30 418 O 37.7245 4.24285 -1.0915 0
M  V30 419 C 39.2255 4.37624 0.707145 0
M  V30 420 H 36.4455 0.669319 -0.0474652 0
M  V30 421 H 38.9895 1.89237 -0.77521 0
M  V30 422 H 37.1445 3.78298 0.834843 0
M  V30 423 H 37.5585 5.16868 -0.891482 0
M  V30 424 H 39.0325 5.46271 0.793244 0
M  V30 425 H 39.5095 4.04152 1.71923 0
M  V30 426 H 40.1155 4.25257 0.0604027 0
M  V30 427 N 38.4306 0.297415 1.54768 0
M  V30 428 C 39.6586 -0.315623 2.04478 0
M  V30 429 C 40.0736 -1.47792 1.17486 0
M  V30 430 O 39.4306 -1.81404 0.19971 0
M  V30 431 C 39.4816 -0.7753 3.53088 0
M  V30 432 O 39.2026 0.340732 4.36773 0
M  V30 433 C 40.7036 -1.45386 4.18781 0
M  V30 434 H 37.9236 -0.0690887 0.667434 0
M  V30 435 H 40.4676 0.436003 1.99798 0
M  V30 436 H 38.6226 -1.47696 3.58141 0
M  V30 437 H 39.0366 -0.0165035 5.24497 0
M  V30 438 H 40.5106 -1.72669 5.24299 0
M  V30 439 H 40.9876 -2.39275 3.68299 0
M  V30 440 H 41.5936 -0.795475 4.17795 0
M  V30 441 N 39.9087 -1.5758 0.0250728 0
M  V30 442 C 41.1567 -1.91255 -0.653151 0
M  V30 443 C 41.4777 -0.901691 -1.729 0
M  V30 444 O 40.7477 0.0573785 -1.95816 0
M  V30 445 H 39.3277 -0.705942 -0.244243 0
M  V30 446 H 41.9897 -1.94767 0.0719209 0
M  V30 447 H 41.0857 -2.91752 -1.10847 0
M  V30 448 N 41.3868 0.248026 -1.55636 0
M  V30 449 C 42.6268 0.983592 -1.79178 0
M  V30 450 C 42.9908 1.82567 -0.594414 0
M  V30 451 O 44.1918 2.59292 -0.708583 0
M  V30 452 C 42.4628 1.82228 -3.07454 0
M  V30 453 S 44.0218 2.61709 -3.52213 0
M  V30 454 H 40.8398 0.330866 -0.629324 0
M  V30 455 H 43.4418 0.251562 -1.93875 0
M  V30 456 H 42.1458 1.19333 -3.92668 0
M  V30 457 H 41.6768 2.59708 -2.95492 0
M  V30 458 H 43.6918 3.84655 -3.13457 0
M  V30 459 N 42.8649 1.48995 0.513639 0
M  V30 460 C 43.8279 1.64229 1.59879 0
M  V30 461 C 44.8279 0.514696 1.5234 0
M  V30 462 O 46.0179 0.78087 1.55718 0
M  V30 463 C 43.1499 1.62783 2.99524 0
M  V30 464 H 44.3429 2.61004 1.47705 0
M  V30 465 H 41.8959 1.37837 0.736936 0
M  V30 466 H 42.6309 0.675461 3.17188 0
M  V30 467 H 42.4159 2.4466 3.06404 0
M  V30 468 H 43.9059 1.76669 3.78388 0
M  V30 469 N 44.343 -0.763751 1.37857 0
M  V30 470 C 45.253 -1.90817 1.36478 0
M  V30 471 C 46.269 -1.71997 0.263248 0
M  V30 472 O 47.445 -1.95095 0.499979 0
M  V30 473 C 44.51 -3.2605 1.17864 0
M  V30 474 C 43.571 -3.57467 2.3773 0
M  V30 475 C 42.804 -4.86249 2.19995 0
M  V30 476 O 43.027 -5.57884 1.18836 0
M  V30 477 O 41.961 -5.16911 3.08361 0
M  V30 478 H 45.787 -1.94933 2.32884 0
M  V30 479 H 43.372 -0.907619 1.1867 0
M  V30 480 H 45.254 -4.06924 1.09504 0
M  V30 481 H 43.929 -3.22769 0.245372 0
M  V30 482 H 42.836 -2.76796 2.51664 0
M  V30 483 H 44.169 -3.655 3.29652 0
M  V30 484 N 45.8211 -1.22559 -0.990812 0
M  V30 485 C 46.7711 -0.964807 -2.0658 0
M  V30 486 C 47.7551 0.0853472 -1.60673 0
M  V30 487 O 48.9471 -0.125443 -1.76555 0
M  V30 488 C 46.0761 -0.546707 -3.38919 0
M  V30 489 C 45.1621 -1.6317 -3.91454 0
M  V30 490 N 45.5531 -2.85985 -4.17189 0
M  V30 491 C 43.8511 -1.50387 -4.19881 0
M  V30 492 C 44.5521 -3.56159 -4.59919 0
M  V30 493 N 43.5281 -2.83637 -4.63736 0
M  V30 494 H 47.3301 -1.89769 -2.24421 0
M  V30 495 H 44.8441 -1.12343 -1.17273 0
M  V30 496 H 46.8411 -0.34119 -4.15502 0
M  V30 497 H 45.5011 0.379254 -3.22478 0
M  V30 498 H 46.5121 -3.22392 -4.05319 0
M  V30 499 H 43.1891 -0.644254 -4.12499 0
M  V30 500 H 44.5791 -4.6139 -4.88435 0
M  V30 501 N 47.2992 1.18797 -1.03562 0
M  V30 502 C 48.5392 1.90346 -0.744832 0
M  V30 503 C 48.9032 1.78231 0.713972 0
M  V30 504 O 50.1042 2.44441 1.11813 0
M  V30 505 C 48.3752 3.36942 -1.19184 0
M  V30 506 S 49.9342 4.26638 -1.02593 0
M  V30 507 H 46.7522 0.657343 -0.270963 0
M  V30 508 H 49.3542 1.43579 -1.32685 0
M  V30 509 H 48.0582 3.43287 -2.24905 0
M  V30 510 H 47.5892 3.88745 -0.603397 0
M  V30 511 H 49.6042 4.96164 0.0596033 0
M  V30 512 N 48.7773 0.814389 1.34928 0
M  V30 513 C 50.0023 0.410097 2.03305 0
M  V30 514 C 50.4273 -0.973464 1.60951 0
M  V30 515 O 49.7853 -1.63185 0.789964 0
M  V30 516 C 49.8333 0.51049 3.56968 0
M  V30 517 O 48.9373 -0.473035 4.09678 0
M  V30 518 H 48.2783 0.170088 0.641846 0
M  V30 519 H 50.8083 1.10244 1.72358 0
M  V30 520 H 50.8183 0.383135 4.06197 0
M  V30 521 H 49.4933 1.51963 3.87144 0
M  V30 522 H 48.0703 -0.305272 3.71648 0
M  V30 523 N 50.2554 -1.46986 0.568584 0
M  V30 524 C 51.1854 -2.32946 -0.160753 0
M  V30 525 C 52.1664 -1.44487 -0.897631 0
M  V30 526 O 53.3514 -1.73327 -0.875867 0
M  V30 527 C 50.4814 -3.26494 -1.18403 0
M  V30 528 C 49.4354 -4.24282 -0.562895 0
M  V30 529 C 48.7614 -5.07236 -1.69163 0
M  V30 530 C 50.0614 -5.19989 0.490761 0
M  V30 531 H 51.7554 -2.94175 0.556916 0
M  V30 532 H 49.3014 -1.4146 0.26927 0
M  V30 533 H 51.2544 -3.85477 -1.70251 0
M  V30 534 H 49.9784 -2.63343 -1.93179 0
M  V30 535 H 48.6374 -3.66541 -0.0656164 0
M  V30 536 H 48.2854 -4.4048 -2.42871 0
M  V30 537 H 47.9854 -5.7345 -1.28174 0
M  V30 538 H 49.5094 -5.6908 -2.21314 0
M  V30 539 H 50.9234 -5.73271 0.0579047 0
M  V30 540 H 49.3204 -5.94469 0.820165 0
M  V30 541 H 50.3904 -4.64777 1.3824 0
M  V30 542 N 51.7335 -0.305618 -1.54608 0
M  V30 543 C 52.6815 0.584119 -2.25146 0
M  V30 544 C 53.6755 1.13326 -1.25911 0
M  V30 545 O 54.8815 1.08337 -1.43747 0
M  V30 546 H 51.2565 0.206983 -0.722954 0
M  V30 547 H 53.2275 -0.033291 -2.98381 0
M  V30 548 C 51.9765 1.74225 -3.009 0
M  V30 549 H 51.2995 1.32892 -3.77067 0
M  V30 550 H 52.7395 2.34077 -3.53531 0
M  V30 551 C 51.1985 2.64914 -2.0814 0
M  V30 552 O 51.7285 3.66137 -1.65246 0
M  V30 553 N 49.9345 2.3275 -1.74 0
M  V30 554 H 49.4815 1.50479 -2.09078 0
M  V30 555 H 49.4395 2.93694 -1.12211 0
M  V30 556 N 53.2116 1.57565 -0.0334293 0
M  V30 557 C 54.1216 2.13943 0.962572 0
M  V30 558 C 55.1376 1.09276 1.35406 0
M  V30 559 O 56.3136 1.41355 1.4346 0
M  V30 560 C 53.3786 2.65887 2.22497 0
M  V30 561 C 52.4396 3.85286 1.8935 0
M  V30 562 C 51.6726 4.34743 3.09571 0
M  V30 563 O 51.8956 3.83352 4.22371 0
M  V30 564 O 50.8296 5.26538 2.91618 0
M  V30 565 H 54.6556 2.99333 0.513169 0
M  V30 566 H 52.2406 1.4822 0.18743 0
M  V30 567 H 54.1226 2.99346 2.96598 0
M  V30 568 H 52.7976 1.83578 2.6661 0
M  V30 569 H 51.7046 3.56746 1.1262 0
M  V30 570 H 53.0376 4.68771 1.5005 0
M  V30 571 N 54.6897 -0.239769 1.55765 0
M  V30 572 C 55.6377 -1.31668 1.91745 0
M  V30 573 C 56.6317 -1.49462 0.797338 0
M  V30 574 O 57.8377 -1.50852 0.982021 0
M  V30 575 H 54.2127 -0.441048 0.609082 0
M  V30 576 H 56.1837 -0.985923 2.81642 0
M  V30 577 C 54.9327 -2.66368 2.2348 0
M  V30 578 H 54.2557 -2.53478 3.09175 0
M  V30 579 H 55.6957 -3.40578 2.52553 0
M  V30 580 C 54.1547 -3.20002 1.05359 0
M  V30 581 O 54.6847 -4.00538 0.305261 0
M  V30 582 N 52.8907 -2.78126 0.842292 0
M  V30 583 H 52.4377 -2.12742 1.45253 0
M  V30 584 H 52.3957 -3.14354 0.053652 0
M  V30 585 N 56.1678 -1.49265 -0.50573 0
M  V30 586 C 57.4168 -1.57761 -1.25675 0
M  V30 587 C 57.7298 -0.267371 -1.93764 0
M  V30 588 O 58.9358 -0.230827 -2.70517 0
M  V30 589 C 57.3918 -2.78332 -2.28165 0
M  V30 590 C 56.9998 -4.16096 -1.66037 0
M  V30 591 C 58.7438 -2.96155 -3.04125 0
M  V30 592 C 56.6508 -5.27895 -2.6661 0
M  V30 593 H 55.5808 -0.587391 -0.472745 0
M  V30 594 H 58.2318 -1.75644 -0.53118 0
M  V30 595 H 56.6138 -2.53934 -3.03865 0
M  V30 596 H 57.7878 -4.50612 -0.963622 0
M  V30 597 H 56.1028 -4.03591 -1.02484 0
M  V30 598 H 58.6998 -3.76849 -3.79327 0
M  V30 599 H 59.0428 -2.06534 -3.61455 0
M  V30 600 H 59.5758 -3.2057 -2.35541 0
M  V30 601 H 56.3148 -6.1956 -2.14068 0
M  V30 602 H 55.8348 -4.97839 -3.34539 0
M  V30 603 H 57.5138 -5.57031 -3.29129 0
M  V30 604 N 57.6459 0.756429 -1.3826 0
M  V30 605 C 58.8739 1.54565 -1.3754 0
M  V30 606 C 59.2889 1.88767 0.0355331 0
M  V30 607 O 58.6459 1.52572 1.0014 0
M  V30 608 C 58.6969 2.84654 -2.22833 0
M  V30 609 O 58.4179 2.51912 -3.5843 0
M  V30 610 C 59.9189 3.78807 -2.30261 0
M  V30 611 H 57.1389 0.478353 -0.470553 0
M  V30 612 H 59.6829 0.936381 -1.81803 0
M  V30 613 H 57.8379 3.41965 -1.8204 0
M  V30 614 H 58.2519 3.35325 -4.03308 0
M  V30 615 H 59.7259 4.67045 -2.94233 0
M  V30 616 H 60.2029 4.19038 -1.31545 0
M  V30 617 H 60.8089 3.2742 -2.71433 0
M  V30 618 N 59.124 1.23083 0.984299 0
M  V30 619 C 60.37 1.06214 1.72761 0
M  V30 620 C 60.703 -0.400584 1.90024 0
M  V30 621 O 59.978 -1.29672 1.44967 0
M  V30 622 C 60.261 1.78375 3.12817 0
M  V30 623 C 60.114 3.32296 3.03149 0
M  V30 624 C 61.433 1.54309 4.12161 0
M  V30 625 H 58.552 0.387251 0.627061 0
M  V30 626 H 61.194 1.51536 1.14616 0
M  V30 627 H 59.344 1.39848 3.62457 0
M  V30 628 H 61.016 3.8032 2.61064 0
M  V30 629 H 59.259 3.6153 2.39747 0
M  V30 630 H 59.93 3.77972 4.02295 0
M  V30 631 H 62.406 1.87791 3.71314 0
M  V30 632 H 61.282 2.07281 5.08258 0
M  V30 633 H 61.543 0.477572 4.39513 0
M  V30 634 N 60.6021 -1.18246 1.0419 0
M  V30 635 C 62.0131 -1.69914 0.773698 0
M  V30 636 C 62.3641 -1.83085 -0.705297 0
M  V30 637 O 61.4891 -1.51123 -1.5489 0
M  V30 638 C 62.0841 -3.08619 1.39784 0
M  V30 639 C 60.6431 -3.57494 1.17792 0
M  V30 640 C 59.7901 -2.34013 1.48773 0
M  V30 641 H 62.7411 -1.02904 1.20816 0
M  V30 642 H 62.7621 -3.71958 0.801714 0
M  V30 643 H 62.2741 -2.99001 2.47426 0
M  V30 644 H 60.3751 -3.72406 0.120295 0
M  V30 645 H 60.4881 -4.40852 1.87581 0
M  V30 646 H 58.8521 -2.37986 0.907463 0
M  V30 647 H 59.6351 -2.27013 2.57527 0
M  V30 648 N 62.0802 -0.821533 -1.34494 0
M  V30 649 C 63.3572 -0.33159 -1.92769 0
M  V30 650 C 63.7372 1.18088 -1.74981 0
M  V30 651 O 63.0852 1.98733 -1.12772 0
M  V30 652 C 63.2952 -0.759398 -3.40638 0
M  V30 653 C 64.6432 -0.757433 -4.1779 0
M  V30 654 O 65.6672 -0.70189 -3.49216 0
M  V30 655 O 64.5262 -0.829361 -5.4017 0
M  V30 656 H 61.6202 -0.0902502 -0.822061 0
M  V30 657 H 64.1662 -0.906231 -1.43477 0
M  V30 658 H 62.9382 -1.8012 -3.47379 0
M  V30 659 H 62.5612 -0.160378 -3.97276 0
M  V30 660 N 63.5583 1.46682 -0.576371 0
M  V30 661 C 64.7863 2.06798 -0.0649635 0
M  V30 662 C 65.2013 1.42612 1.23723 0
M  V30 663 O 64.5583 0.529203 1.74659 0
M  V30 664 C 64.6093 3.6132 0.114202 0
M  V30 665 O 64.3303 4.23104 -1.13644 0
M  V30 666 C 65.8313 4.38349 0.66069 0
M  V30 667 H 63.0513 0.668778 -0.0545616 0
M  V30 668 H 65.5953 1.88404 -0.795237 0
M  V30 669 H 63.7503 3.79162 0.794673 0
M  V30 670 H 64.1643 5.15894 -0.946253 0
M  V30 671 H 65.6383 5.47081 0.73526 0
M  V30 672 H 66.1153 4.05953 1.67627 0
M  V30 673 H 66.7213 4.25297 0.0152951 0
M  V30 674 N 65.0364 0.313813 1.54444 0
M  V30 675 C 65.9834 -0.55655 2.23989 0
M  V30 676 C 66.9534 -1.11943 1.22711 0
M  V30 677 O 68.1384 -1.16158 1.51367 0
M  V30 678 C 65.2784 -1.71635 2.99392 0
M  V30 679 C 64.3914 -1.18364 4.15468 0
M  V30 680 C 63.5264 -2.30834 4.78424 0
M  V30 681 C 62.5654 -1.74762 5.86622 0
M  V30 682 N 61.7024 -2.80855 6.43479 0
M  V30 683 H 66.5424 0.0430893 2.97969 0
M  V30 684 H 64.0794 0.0330359 1.47063 0
M  V30 685 H 66.0374 -2.39868 3.41349 0
M  V30 686 H 64.6674 -2.28742 2.27765 0
M  V30 687 H 63.7194 -0.393163 3.78363 0
M  V30 688 H 65.0314 -0.733262 4.93381 0
M  V30 689 H 64.1854 -3.0699 5.23299 0
M  V30 690 H 62.9244 -2.79204 3.99871 0
M  V30 691 H 61.9294 -0.970995 5.41158 0
M  V30 692 H 63.1544 -1.2728 6.67066 0
M  V30 693 H 61.1004 -3.28535 5.67804 0
M  V30 694 H 61.0174 -2.40351 7.16776 0
M  V30 695 H 62.2854 -3.5687 6.93011 0
M  V30 696 N 66.5145 -1.57545 0.0417849 0
M  V30 697 C 67.7605 -1.92601 -0.635021 0
M  V30 698 C 68.0935 -0.919627 -1.71045 0
M  V30 699 O 67.3685 0.0557892 -1.9442 0
M  V30 700 C 67.6515 -3.38085 -1.23979 0
M  V30 701 C 67.5045 -4.49467 -0.173057 0
M  V30 702 C 68.8235 -3.83776 -2.15416 0
M  V30 703 H 65.9425 -0.700397 -0.229374 0
M  V30 704 H 68.5845 -1.89728 0.101633 0
M  V30 705 H 66.7345 -3.40664 -1.86762 0
M  V30 706 H 68.4065 -4.59018 0.458312 0
M  V30 707 H 66.6495 -4.30909 0.499996 0
M  V30 708 H 67.3205 -5.48323 -0.636054 0
M  V30 709 H 69.7965 -3.83013 -1.62605 0
M  V30 710 H 68.6725 -4.8624 -2.54679 0
M  V30 711 H 68.9335 -3.19998 -3.05047 0
M  V30 712 N 67.9926 0.231505 -1.5589 0
M  V30 713 C 68.9406 1.30649 -1.92441 0
M  V30 714 C 69.9346 1.49037 -0.805254 0
M  V30 715 O 71.1406 1.50329 -0.990007 0
M  V30 716 H 67.5156 0.437812 -0.611412 0
M  V30 717 H 69.4866 0.970973 -2.82161 0
M  V30 718 C 68.2356 2.65179 -2.24889 0
M  V30 719 H 67.5586 2.51835 -3.10514 0
M  V30 720 H 68.9986 3.39234 -2.54355 0
M  V30 721 C 67.4576 3.19439 -1.07054 0
M  V30 722 O 67.9876 4.00371 -0.326499 0
M  V30 723 N 66.1936 2.77675 -0.85703 0
M  V30 724 H 65.7406 2.11969 -1.46379 0
M  V30 725 H 65.6986 3.14321 -0.0703223 0
M  V30 726 N 69.4707 1.49531 0.497807 0
M  V30 727 C 70.7177 1.59179 1.25173 0
M  V30 728 C 71.0457 0.279932 1.92475 0
M  V30 729 O 70.3007 -0.732383 1.81479 0
M  V30 730 C 70.5997 2.70252 2.33878 0
M  V30 731 C 70.2657 4.11644 1.84012 0
M  V30 732 C 68.9277 4.50121 1.70132 0
M  V30 733 C 71.2797 5.00121 1.46725 0
M  V30 734 C 68.6077 5.74845 1.17348 0
M  V30 735 C 70.9597 6.25366 0.95392 0
M  V30 736 C 69.6237 6.6267 0.801538 0
M  V30 737 H 68.8937 0.582478 0.45804 0
M  V30 738 H 71.5407 1.83373 0.551948 0
M  V30 739 H 69.8457 2.40041 3.09657 0
M  V30 740 H 71.5427 2.74925 2.9192 0
M  V30 741 H 68.1327 3.81274 1.95775 0
M  V30 742 H 72.3167 4.71048 1.56294 0
M  V30 743 H 67.5727 6.02444 1.04264 0
M  V30 744 H 71.7467 6.93301 0.656225 0
M  V30 745 H 69.3737 7.59197 0.390351 0
M  V30 746 N 70.9488 -0.749086 1.3866 0
M  V30 747 C 72.1788 -1.53611 1.38157 0
M  V30 748 C 72.5868 -1.89177 -0.0293595 0
M  V30 749 O 71.9298 -1.53606 -1.00752 0
M  V30 750 C 71.9918 -2.86087 2.17702 0
M  V30 751 C 71.6558 -2.73034 3.66472 0
M  V30 752 C 72.6528 -2.42526 4.59866 0
M  V30 753 C 70.3378 -2.90345 4.09884 0
M  V30 754 C 72.3318 -2.29492 5.94653 0
M  V30 755 C 70.0188 -2.7693 5.4475 0
M  V30 756 C 71.0168 -2.46547 6.36949 0
M  V30 757 O 70.7048 -2.33199 7.69333 0
M  V30 758 H 70.4368 -0.481773 0.474205 0
M  V30 759 H 72.9908 -0.934465 1.82912 0
M  V30 760 H 71.2208 -3.48458 1.67672 0
M  V30 761 H 72.9098 -3.47625 2.09551 0
M  V30 762 H 73.6758 -2.28816 4.27631 0
M  V30 763 H 69.5548 -3.1299 3.38464 0
M  V30 764 H 73.0988 -2.05698 6.66584 0
M  V30 765 H 68.9958 -2.90215 5.76581 0
M  V30 766 H 69.7638 -2.48376 7.79905 0
M  V30 767 N 72.4269 -1.23603 -0.977757 0
M  V30 768 C 73.3899 -1.02069 -2.05218 0
M  V30 769 C 74.3899 0.0184305 -1.60789 0
M  V30 770 O 75.5799 -0.221569 -1.72785 0
M  V30 771 C 72.7119 -0.544926 -3.36517 0
M  V30 772 H 73.9049 -1.9742 -2.25755 0
M  V30 773 H 71.4579 -1.05684 -1.15155 0
M  V30 774 H 72.1929 0.412241 -3.21669 0
M  V30 775 H 71.9779 -1.2948 -3.70105 0
M  V30 776 H 73.4679 -0.414985 -4.15533 0
M  V30 777 N 73.905 1.17692 -1.04816 0
M  V30 778 C 75.151 1.88389 -0.766892 0
M  V30 779 C 75.506 1.79282 0.698269 0
M  V30 780 O 74.799 1.18739 1.50372 0
M  V30 781 C 74.993 3.37462 -1.17703 0
M  V30 782 C 74.822 3.6108 -2.68051 0
M  V30 783 C 73.592 3.78018 -3.35307 0
M  V30 784 C 75.79 3.61039 -3.66273 0
M  V30 785 N 73.772 3.89444 -4.74559 0
M  V30 786 C 75.143 3.78269 -4.91235 0
M  V30 787 C 77.198 3.44168 -3.59796 0
M  V30 788 C 75.901 3.80376 -6.10497 0
M  V30 789 C 77.927 3.4756 -4.78493 0
M  V30 790 C 77.289 3.65295 -6.02278 0
M  V30 791 H 73.388 0.707651 -0.332798 0
M  V30 792 H 75.972 1.41314 -1.33934 0
M  V30 793 H 74.143 3.83214 -0.63257 0
M  V30 794 H 75.875 3.95759 -0.845989 0
M  V30 795 H 72.63 3.77714 -2.85708 0
M  V30 796 H 73.054 3.98962 -5.46954 0
M  V30 797 H 77.696 3.29396 -2.65062 0
M  V30 798 H 75.414 3.93933 -7.05579 0
M  V30 799 H 79 3.3577 -4.75131 0
M  V30 800 H 77.88 3.6782 -6.92588 0
M  V30 801 N 75.3831 0.828654 1.34056 0
M  V30 802 C 76.3301 0.252567 2.29414 0
M  V30 803 C 77.3001 -0.62588 1.53857 0
M  V30 804 O 78.4851 -0.566312 1.82202 0
M  V30 805 C 75.6251 -0.574831 3.40279 0
M  V30 806 C 74.7381 0.326499 4.30764 0
M  V30 807 C 73.8731 -0.511016 5.28736 0
M  V30 808 C 72.9121 0.389342 6.1086 0
M  V30 809 N 72.0491 -0.409439 7.00905 0
M  V30 810 H 76.8891 1.07108 2.78086 0
M  V30 811 H 74.4261 0.539677 1.36843 0
M  V30 812 H 76.3841 -1.06992 4.03248 0
M  V30 813 H 75.0141 -1.35841 2.92826 0
M  V30 814 H 74.0661 0.939837 3.68607 0
M  V30 815 H 75.3781 1.01857 4.88289 0
M  V30 816 H 74.5321 -1.07035 5.97184 0
M  V30 817 H 73.2711 -1.23657 4.71763 0
M  V30 818 H 72.2761 0.960769 5.4134 0
M  V30 819 H 73.5011 1.1131 6.69916 0
M  V30 820 H 71.4471 -1.11856 6.46393 0
M  V30 821 H 71.3641 0.224126 7.55668 0
M  V30 822 H 72.6321 -0.951336 7.73673 0
M  V30 823 N 76.8612 -1.46375 0.584142 0
M  V30 824 C 78.2772 -1.57694 0.245929 0
M  V30 825 C 78.4772 -1.57903 -1.25175 0
M  V30 826 O 77.5332 -1.49676 -2.03355 0
M  V30 827 C 78.8462 -2.87028 0.896402 0
M  V30 828 C 80.3942 -3.00662 0.870127 0
M  V30 829 C 80.8692 -4.32734 1.50017 0
M  V30 830 N 82.3602 -4.39436 1.46458 0
M  V30 831 C 83.0952 -5.40248 1.92144 0
M  V30 832 N 82.5912 -6.47726 2.4581 0
M  V30 833 N 84.3842 -5.31459 1.83052 0
M  V30 834 H 76.5352 -1.44483 1.55687 0
M  V30 835 H 78.7982 -0.689291 0.650831 0
M  V30 836 H 78.5042 -2.9269 1.95002 0
M  V30 837 H 78.3782 -3.75014 0.405486 0
M  V30 838 H 80.7652 -2.94581 -0.174871 0
M  V30 839 H 80.8462 -2.14148 1.39908 0
M  V30 840 H 80.4902 -4.39573 2.54437 0
M  V30 841 H 80.4202 -5.18025 0.946432 0
M  V30 842 H 82.9112 -3.62367 1.07231 0
M  V30 843 H 83.2242 -7.20863 2.78525 0
M  V30 844 H 81.5692 -6.48542 2.49836 0
M  V30 845 H 84.7602 -4.46396 1.40883 0
M  V30 846 H 84.9332 -6.09881 2.18973 0
M  V30 847 N 78.3393 -0.321999 -1.54275 0
M  V30 848 C 79.2723 0.58718 -2.20516 0
M  V30 849 C 80.2503 1.11693 -1.18167 0
M  V30 850 O 81.4343 1.18122 -1.46899 0
M  V30 851 C 78.5613 1.80554 -2.86562 0
M  V30 852 C 77.6073 1.40718 -4.02617 0
M  V30 853 S 78.4403 0.445218 -5.33646 0
M  V30 854 C 79.5963 1.6709 -6.03185 0
M  V30 855 H 79.8293 0.0244875 -2.9729 0
M  V30 856 H 77.3623 -0.106087 -1.54035 0
M  V30 857 H 79.3203 2.50462 -3.25237 0
M  V30 858 H 77.9813 2.33942 -2.09595 0
M  V30 859 H 77.1743 2.31501 -4.47687 0
M  V30 860 H 76.7763 0.78782 -3.65608 0
M  V30 861 H 79.0683 2.60856 -6.25268 0
M  V30 862 H 80.0113 1.26239 -6.96756 0
M  V30 863 H 80.4193 1.85716 -5.33076 0
M  V30 864 N 79.8174 1.5752 -0.0501392 0
M  V30 865 C 80.7274 2.14952 0.939827 0
M  V30 866 C 81.7434 1.10706 1.34239 0
M  V30 867 O 82.9194 1.42869 1.41952 0
M  V30 868 C 79.9844 2.68232 2.19665 0
M  V30 869 C 79.0454 3.87272 1.85253 0
M  V30 870 C 78.2784 4.38002 3.04943 0
M  V30 871 O 78.5014 3.87811 4.18281 0
M  V30 872 O 77.4354 5.29602 2.86017 0
M  V30 873 H 81.2614 2.9986 0.481392 0
M  V30 874 H 78.8464 1.4841 0.171699 0
M  V30 875 H 80.7284 3.02475 2.93406 0
M  V30 876 H 79.4034 1.86395 2.64648 0
M  V30 877 H 78.3104 3.5792 1.0883 0
M  V30 878 H 79.6434 4.70336 1.4507 0
M  V30 879 N 81.2955 -0.223234 1.56011 0
M  V30 880 C 82.5415 -0.949279 1.79211 0
M  V30 881 C 82.8745 -1.84054 0.619494 0
M  V30 882 O 82.1495 -1.90726 -0.381317 0
M  V30 883 C 82.4325 -1.78965 3.12479 0
M  V30 884 C 82.2855 -0.924997 4.40186 0
M  V30 885 C 83.6045 -2.76774 3.42175 0
M  V30 886 H 80.7235 -0.343676 0.651963 0
M  V30 887 H 83.3655 -0.218253 1.88742 0
M  V30 888 H 81.5155 -2.41291 3.04485 0
M  V30 889 H 83.1875 -0.318615 4.60198 0
M  V30 890 H 81.4305 -0.230344 4.33188 0
M  V30 891 H 82.1015 -1.54735 5.29869 0
M  V30 892 H 84.5775 -2.24584 3.50287 0
M  V30 893 H 83.4535 -3.32678 4.36597 0
M  V30 894 H 83.7145 -3.54429 2.64258 0
M  V30 895 N 82.7736 -1.49793 -0.48987 0
M  V30 896 C 84.0216 -1.59525 -1.24081 0
M  V30 897 C 84.3426 -0.288953 -1.92847 0
M  V30 898 O 83.6126 0.692436 -1.83254 0
M  V30 899 H 82.1926 -0.587796 -0.460983 0
M  V30 900 H 84.8546 -1.86477 -0.566778 0
M  V30 901 H 83.9506 -2.39696 -1.99881 0
M  V30 902 N 84.2517 0.741722 -1.39055 0
M  V30 903 C 85.1837 1.8657 -1.33133 0
M  V30 904 C 86.1967 1.61001 -0.241329 0
M  V30 905 O 87.3857 1.7136 -0.499784 0
M  V30 906 C 84.4857 3.22457 -1.04283 0
M  V30 907 C 83.6587 3.75435 -2.24427 0
M  V30 908 C 82.7177 4.89867 -1.92138 0
M  V30 909 O 81.7437 5.03879 -2.64754 0
M  V30 910 N 82.9457 5.73738 -0.88347 0
M  V30 911 H 85.7107 1.92156 -2.29991 0
M  V30 912 H 83.2717 0.922172 -1.3307 0
M  V30 913 H 85.2637 3.9657 -0.807128 0
M  V30 914 H 83.8337 3.12181 -0.161807 0
M  V30 915 H 83.0537 2.92751 -2.6399 0
M  V30 916 H 84.3417 4.07563 -3.04581 0
M  V30 917 H 83.7397 5.64999 -0.281517 0
M  V30 918 H 82.2967 6.47947 -0.707662 0
M  V30 919 N 85.7298 1.2412 0.971189 0
M  V30 920 C 86.6618 0.988349 2.06795 0
M  V30 921 C 87.6748 -0.0409541 1.62748 0
M  V30 922 O 88.8638 0.195673 1.77424 0
M  V30 923 C 85.9638 0.469023 3.35639 0
M  V30 924 C 85.1368 1.56065 4.08611 0
M  V30 925 C 84.1958 1.04458 5.15728 0
M  V30 926 O 83.2218 1.73553 5.42096 0
M  V30 927 N 84.4238 -0.122817 5.8037 0
M  V30 928 H 87.1888 1.93265 2.29061 0
M  V30 929 H 84.7498 1.15102 1.13856 0
M  V30 930 H 86.7418 0.108613 4.04554 0
M  V30 931 H 85.3118 -0.380919 3.1027 0
M  V30 932 H 84.5318 2.09341 3.34021 0
M  V30 933 H 85.8198 2.29449 4.54126 0
M  V30 934 H 85.2178 -0.700563 5.61345 0
M  V30 935 H 83.7748 -0.424404 6.50417 0
M  V30 936 N 87.2079 -1.17134 1.05439 0
M  V30 937 C 88.1709 -2.19439 0.661764 0
M  V30 938 C 89.1709 -1.58199 -0.288042 0
M  V30 939 O 90.3609 -1.74053 -0.0715803 0
M  V30 940 C 87.4929 -3.40889 -0.0276209 0
M  V30 941 H 88.6859 -2.55688 1.56728 0
M  V30 942 H 86.2389 -1.31259 0.848567 0
M  V30 943 H 86.9739 -3.10187 -0.94629 0
M  V30 944 H 86.7589 -3.86586 0.655238 0
M  V30 945 H 88.2489 -4.16603 -0.288342 0
M  V30 946 N 88.686 -0.835752 -1.33615 0
M  V30 947 C 89.932 -0.430596 -1.98176 0
M  V30 948 C 90.265 1.00684 -1.66061 0
M  V30 949 O 89.54 1.70339 -0.938877 0
M  V30 950 C 89.823 -0.648065 -3.5422 0
M  V30 951 C 89.676 -2.13255 -3.96033 0
M  V30 952 C 90.995 -0.0922113 -4.40003 0
M  V30 953 H 88.114 -0.157924 -0.719881 0
M  V30 954 H 90.756 -1.05069 -1.58305 0
M  V30 955 H 88.906 -0.120237 -3.88314 0
M  V30 956 H 90.578 -2.725 -3.72211 0
M  V30 957 H 88.821 -2.61823 -3.45878 0
M  V30 958 H 89.492 -2.23547 -5.04708 0
M  V30 959 H 91.968 -0.543343 -4.12537 0
M  V30 960 H 90.844 -0.274083 -5.48215 0
M  V30 961 H 91.105 1.00378 -4.30554 0
M  V30 962 N 90.1641 1.46063 -0.591896 0
M  V30 963 C 91.0741 2.34192 0.13831 0
M  V30 964 C 92.0901 1.50305 0.876608 0
M  V30 965 O 93.2661 1.8315 0.837728 0
M  V30 966 C 90.3311 3.27656 1.13326 0
M  V30 967 C 89.3921 4.27445 0.39863 0
M  V30 968 C 88.6251 5.16443 1.34618 0
M  V30 969 O 88.8481 5.08553 2.58321 0
M  V30 970 O 87.7821 5.95843 0.851768 0
M  V30 971 H 91.6081 2.98002 -0.58552 0
M  V30 972 H 89.1931 1.45188 -0.352239 0
M  V30 973 H 91.0751 3.85291 1.70671 0
M  V30 974 H 89.7501 2.6643 1.83839 0
M  V30 975 H 88.6571 3.73471 -0.216895 0
M  V30 976 H 89.9901 4.91482 -0.265709 0
M  V30 977 N 91.6422 0.330177 1.54103 0
M  V30 978 C 92.8882 -0.270806 2.00984 0
M  V30 979 C 93.2212 -1.51265 1.21789 0
M  V30 980 O 92.4962 -1.92142 0.301927 0
M  V30 981 C 92.7792 -0.598339 3.55094 0
M  V30 982 C 92.6322 0.654674 4.4501 0
M  V30 983 C 93.9512 -1.41334 4.16789 0
M  V30 984 H 91.0702 -0.0969531 0.730595 0
M  V30 985 H 93.7122 0.448066 1.84641 0
M  V30 986 H 91.8622 -1.21078 3.69151 0
M  V30 987 H 93.5342 1.29285 4.42813 0
M  V30 988 H 91.7772 1.28224 4.14416 0
M  V30 989 H 92.4482 0.380944 5.50684 0
M  V30 990 H 94.9242 -0.895597 4.06347 0
M  V30 991 H 93.8002 -1.61127 5.24718 0
M  V30 992 H 94.0612 -2.41146 3.70541 0
M  V30 993 N 93.1203 -1.57491 0.0584922 0
M  V30 994 C 94.3663 -1.94081 -0.608617 0
M  V30 995 C 94.7213 -0.937438 -1.68017 0
M  V30 996 O 94.0143 0.0423034 -1.91553 0
M  V30 997 C 94.2083 -3.3513 -1.24188 0
M  V30 998 C 94.0373 -4.49095 -0.233187 0
M  V30 999 C 92.8073 -5.04988 0.177439 0
M  V30 1000 C 95.0053 -5.1162 0.524306 0
M  V30 1001 N 92.9873 -6.02487 1.17823 0
M  V30 1002 C 94.3583 -6.04493 1.37796 0
M  V30 1003 C 96.4133 -4.94489 0.581822 0
M  V30 1004 C 95.1163 -6.82075 2.28399 0
M  V30 1005 C 97.1423 -5.72703 1.47531 0
M  V30 1006 C 96.5043 -6.65214 2.31667 0
M  V30 1007 H 92.6033 -0.75752 -0.194134 0
M  V30 1008 H 95.1873 -1.94248 0.132533 0
M  V30 1009 H 93.3583 -3.35726 -1.95302 0
M  V30 1010 H 95.0903 -3.5899 -1.86838 0
M  V30 1011 H 91.8453 -4.73165 -0.203004 0
M  V30 1012 H 92.2693 -6.55933 1.67573 0
M  V30 1013 H 96.9113 -4.22765 -0.054443 0
M  V30 1014 H 94.6293 -7.53085 2.93067 0
M  V30 1015 H 98.2153 -5.61472 1.52448 0
M  V30 1016 H 97.0953 -7.24679 2.99683 0
M  V30 1017 N 94.5984 0.214957 -1.56127 0
M  V30 1018 C 95.5304 1.29004 -1.89448 0
M  V30 1019 C 96.5434 1.42716 -0.783326 0
M  V30 1020 O 97.7324 1.43496 -1.06166 0
M  V30 1021 C 94.8324 2.66482 -2.09381 0
M  V30 1022 C 94.0054 2.74633 -3.40434 0
M  V30 1023 C 93.0644 3.9317 -3.49719 0
M  V30 1024 O 92.0904 3.812 -4.227 0
M  V30 1025 N 93.2924 5.07765 -2.81346 0
M  V30 1026 H 96.0574 1.00743 -2.82261 0
M  V30 1027 H 93.6184 0.40497 -1.56753 0
M  V30 1028 H 95.6104 3.44173 -2.12901 0
M  V30 1029 H 94.1804 2.87314 -1.23163 0
M  V30 1030 H 93.4004 1.83368 -3.48955 0
M  V30 1031 H 94.6884 2.77054 -4.26754 0
M  V30 1032 H 94.0864 5.20386 -2.21843 0
M  V30 1033 H 92.6434 5.83474 -2.90519 0
M  V30 1034 N 96.0765 1.50051 0.48192 0
M  V30 1035 C 97.3245 1.60181 1.23234 0
M  V30 1036 C 97.6455 0.299176 1.92691 0
M  V30 1037 O 96.9155 -0.682708 1.83619 0
M  V30 1038 H 95.4955 0.590232 0.457859 0
M  V30 1039 H 98.1575 1.86775 0.556881 0
M  V30 1040 H 97.2535 2.40753 1.98607 0
M  V30 1041 N 97.5546 -0.734337 1.39446 0
M  V30 1042 C 98.4846 -1.86155 1.40955 0
M  V30 1043 C 99.4656 -1.67898 0.272827 0
M  V30 1044 O 100.651 -1.88207 0.478743 0
M  V30 1045 C 97.7806 -3.23912 1.25294 0
M  V30 1046 C 96.7346 -3.56808 2.36373 0
M  V30 1047 C 96.0606 -4.93508 2.058 0
M  V30 1048 C 97.3606 -3.59713 3.78687 0
M  V30 1049 H 99.0546 -1.8515 2.35287 0
M  V30 1050 H 96.6006 -0.889367 1.13253 0
M  V30 1051 H 98.5536 -4.02443 1.2497 0
M  V30 1052 H 97.2776 -3.25446 0.274308 0
M  V30 1053 H 95.9366 -2.80606 2.35914 0
M  V30 1054 H 95.5846 -4.91623 1.06374 0
M  V30 1055 H 95.2846 -5.16486 2.80208 0
M  V30 1056 H 96.8086 -5.74396 2.07128 0
M  V30 1057 H 98.2226 -4.2832 3.81071 0
M  V30 1058 H 96.6196 -3.94209 4.52459 0
M  V30 1059 H 97.6896 -2.59504 4.09617 0
M  V30 1060 N 99.0327 -1.24633 -0.964593 0
M  V30 1061 C 99.9957 -1.0424 -2.04124 0
M  V30 1062 C 100.996 0.00137563 -1.608 0
M  V30 1063 O 102.186 -0.239883 -1.7254 0
M  V30 1064 C 99.3177 -0.580588 -3.3592 0
M  V30 1065 H 100.511 -1.99803 -2.23649 0
M  V30 1066 H 98.0637 -1.06899 -1.14027 0
M  V30 1067 H 98.7987 0.3781 -3.22088 0
M  V30 1068 H 98.5837 -1.33398 -3.6871 0
M  V30 1069 H 100.074 -0.459034 -4.15069 0
M  V30 1070 N 100.511 1.16574 -1.06058 0
M  V30 1071 C 101.441 2.23057 -0.690488 0
M  V30 1072 C 102.422 1.67141 0.315901 0
M  V30 1073 O 103.607 1.93253 0.191556 0
M  V30 1074 C 100.737 3.47222 -0.073625 0
M  V30 1075 C 99.6908 4.16016 -1.00573 0
M  V30 1076 C 99.0168 5.34104 -0.252289 0
M  V30 1077 C 100.317 4.67264 -2.33371 0
M  V30 1078 H 102.011 2.54271 -1.58072 0
M  V30 1079 H 99.5568 1.22218 -0.76149 0
M  V30 1080 H 101.51 4.20939 0.19714 0
M  V30 1081 H 100.234 3.15302 0.85161 0
M  V30 1082 H 98.8928 3.44223 -1.2612 0
M  V30 1083 H 98.5408 4.98437 0.675988 0
M  V30 1084 H 98.2408 5.81072 -0.873455 0
M  V30 1085 H 99.7648 6.10599 0.0109857 0
M  V30 1086 H 101.179 5.32573 -2.12223 0
M  V30 1087 H 99.5758 5.24843 -2.90963 0
M  V30 1088 H 100.646 3.83602 -2.96611 0
M  V30 1089 N 101.989 0.842826 1.3317 0
M  V30 1090 C 102.919 0.294028 2.31641 0
M  V30 1091 C 103.9 -0.600401 1.59151 0
M  V30 1092 O 105.085 -0.523124 1.87022 0
M  V30 1093 C 102.215 -0.528416 3.43257 0
M  V30 1094 C 101.169 0.27056 4.27144 0
M  V30 1095 C 100.495 -0.675881 5.30411 0
M  V30 1096 C 101.795 1.48981 5.00602 0
M  V30 1097 H 103.489 1.11681 2.77791 0
M  V30 1098 H 101.035 0.538478 1.33553 0
M  V30 1099 H 102.988 -0.922674 4.11175 0
M  V30 1100 H 101.712 -1.38445 2.95805 0
M  V30 1101 H 100.371 0.646427 3.60856 0
M  V30 1102 H 100.019 -1.52842 4.79216 0
M  V30 1103 H 99.7189 -0.145374 5.8742 0
M  V30 1104 H 101.243 -1.06757 6.01195 0
M  V30 1105 H 102.657 1.16849 5.61266 0
M  V30 1106 H 101.054 1.95739 5.6728 0
M  V30 1107 H 102.124 2.25746 4.29147 0
M  V30 1108 N 103.467 -1.45747 0.599634 0
M  V30 1109 C 104.692 -2.07178 0.0960198 0
M  V30 1110 C 105.117 -1.44268 -1.207 0
M  V30 1111 O 104.475 -0.532503 -1.73303 0
M  V30 1112 C 104.523 -3.60579 -0.0385348 0
M  V30 1113 O 103.627 -3.97713 -1.0908 0
M  V30 1114 H 102.968 -0.660251 0.0704593 0
M  V30 1115 H 105.498 -1.87124 0.827385 0
M  V30 1116 H 105.508 -4.07298 -0.239304 0
M  V30 1117 H 104.183 -4.05756 0.912947 0
M  V30 1118 H 102.76 -3.62678 -0.867135 0
M  V30 1119 N 104.945 -0.338344 -1.53925 0
M  V30 1120 C 105.855 0.529421 -2.28548 0
M  V30 1121 C 106.871 1.11645 -1.3346 0
M  V30 1122 O 108.047 1.13325 -1.66492 0
M  V30 1123 C 105.112 1.66713 -3.03987 0
M  V30 1124 C 104.173 1.11041 -4.14691 0
M  V30 1125 C 103.406 2.19389 -4.86522 0
M  V30 1126 O 103.629 3.40013 -4.57982 0
M  V30 1127 O 102.563 1.83976 -5.73094 0
M  V30 1128 H 106.389 -0.0770399 -3.03602 0
M  V30 1129 H 103.974 -0.103555 -1.49041 0
M  V30 1130 H 105.856 2.32918 -3.5118 0
M  V30 1131 H 104.531 2.25949 -2.31794 0
M  V30 1132 H 103.438 0.413024 -3.71813 0
M  V30 1133 H 104.771 0.562975 -4.8897 0
M  V30 1134 N 106.423 1.57458 -0.0668435 0
M  V30 1135 C 107.386 2.11323 0.887422 0
M  V30 1136 C 108.386 1.03618 1.22964 0
M  V30 1137 O 109.576 1.29626 1.16373 0
M  V30 1138 C 106.708 2.61048 2.19242 0
M  V30 1139 H 107.901 2.96942 0.420194 0
M  V30 1140 H 105.454 1.55239 0.181793 0
M  V30 1141 H 106.189 1.78868 2.70512 0
M  V30 1142 H 105.974 3.39769 1.95702 0
M  V30 1143 H 107.464 3.02814 2.87565 0
M  V30 1144 N 107.901 -0.206675 1.56239 0
M  V30 1145 C 109.147 -0.930218 1.80208 0
M  V30 1146 C 109.48 -1.83387 0.638981 0
M  V30 1147 O 108.755 -1.91119 -0.361066 0
M  V30 1148 C 109.038 -1.75641 3.1436 0
M  V30 1149 C 108.891 -0.878257 4.41142 0
M  V30 1150 C 110.21 -2.73129 3.45092 0
M  V30 1151 H 107.329 -0.336742 0.655571 0
M  V30 1152 H 109.971 -0.198222 1.88963 0
M  V30 1153 H 108.121 -2.38048 3.07027 0
M  V30 1154 H 109.793 -0.269787 4.6051 0
M  V30 1155 H 108.036 -0.184385 4.33408 0
M  V30 1156 H 108.707 -1.49106 5.3148 0
M  V30 1157 H 111.183 -2.20856 3.52649 0
M  V30 1158 H 110.059 -3.28028 4.40101 0
M  V30 1159 H 110.32 -3.51606 2.68003 0
M  V30 1160 N 109.379 -1.50304 -0.473955 0
M  V30 1161 C 110.309 -1.71886 -1.58042 0
M  V30 1162 C 111.29 -0.567799 -1.60344 0
M  V30 1163 O 112.475 -0.806623 -1.76656 0
M  V30 1164 C 109.605 -1.81036 -2.96384 0
M  V30 1165 C 108.559 -2.962 -3.08949 0
M  V30 1166 C 107.885 -2.9049 -4.48909 0
M  V30 1167 C 109.185 -4.36752 -2.86434 0
M  V30 1168 H 110.879 -2.64527 -1.40234 0
M  V30 1169 H 108.425 -1.27295 -0.673201 0
M  V30 1170 H 110.378 -1.94719 -3.73714 0
M  V30 1171 H 109.102 -0.850147 -3.15341 0
M  V30 1172 H 107.761 -2.82164 -2.3405 0
M  V30 1173 H 107.409 -1.92321 -4.64781 0
M  V30 1174 H 107.109 -3.67802 -4.58253 0
M  V30 1175 H 108.633 -3.06218 -5.28264 0
M  V30 1176 H 110.047 -4.5133 -3.53517 0
M  V30 1177 H 108.444 -5.15493 -3.07225 0
M  V30 1178 H 109.514 -4.49321 -1.82316 0
M  V30 1179 N 110.857 0.726932 -1.39834 0
M  V30 1180 C 112.273 1.03354 -1.21615 0
M  V30 1181 C 112.473 2.01327 -0.08338 0
M  V30 1182 O 111.529 2.46158 0.56238 0
M  V30 1183 C 112.842 1.58811 -2.55342 0
M  V30 1184 C 114.39 1.70851 -2.62257 0
M  V30 1185 C 114.865 2.29716 -3.96225 0
M  V30 1186 N 116.356 2.37116 -3.97907 0
M  V30 1187 C 117.091 2.83619 -4.98345 0
M  V30 1188 N 116.587 3.29958 -6.09179 0
M  V30 1189 N 118.38 2.82901 -4.8572 0
M  V30 1190 H 110.531 0.0773069 -2.12259 0
M  V30 1191 H 112.794 0.0969102 -0.943034 0
M  V30 1192 H 112.5 0.942855 -3.38826 0
M  V30 1193 H 112.374 2.57502 -2.75632 0
M  V30 1194 H 114.761 2.34497 -1.79152 0
M  V30 1195 H 114.842 0.707913 -2.45809 0
M  V30 1196 H 114.486 1.66696 -4.79765 0
M  V30 1197 H 114.416 3.30469 -4.09997 0
M  V30 1198 H 116.907 2.04374 -3.17868 0
M  V30 1199 H 117.22 3.63976 -6.8172 0
M  V30 1200 H 115.565 3.27946 -6.12761 0
M  V30 1201 H 118.756 2.46027 -3.98231 0
M  V30 1202 H 118.929 3.18827 -5.6414 0
M  V30 1203 N 112.336 1.25143 0.95797 0
M  V30 1204 C 113.584 1.09476 1.69881 0
M  V30 1205 C 113.905 -0.365502 1.91544 0
M  V30 1206 O 113.175 -1.25985 1.50015 0
M  V30 1207 H 111.755 0.402128 0.629525 0
M  V30 1208 H 114.417 1.57214 1.15194 0
M  V30 1209 H 113.513 1.60046 2.6794 0
M  V30 1210 N 113.814 -1.1601 1.06675 0
M  V30 1211 C 114.746 -2.20115 0.638921 0
M  V30 1212 C 115.759 -1.59916 -0.305057 0
M  V30 1213 O 116.948 -1.78245 -0.0954446 0
M  V30 1214 C 114.048 -3.38798 -0.0830083 0
M  V30 1215 C 113.221 -4.2855 0.875426 0
M  V30 1216 C 112.28 -5.25849 0.192042 0
M  V30 1217 O 111.306 -5.63102 0.830921 0
M  V30 1218 N 112.508 -5.70648 -1.06493 0
M  V30 1219 H 115.273 -2.57439 1.53444 0
M  V30 1220 H 112.834 -1.31057 0.950557 0
M  V30 1221 H 114.826 -4.00936 -0.550685 0
M  V30 1222 H 113.396 -2.99947 -0.880386 0
M  V30 1223 H 112.616 -3.63617 1.52238 0
M  V30 1224 H 113.904 -4.85393 1.52548 0
M  V30 1225 H 113.302 -5.42482 -1.60405 0
M  V30 1226 H 111.859 -6.34859 -1.47641 0
M  V30 1227 N 115.292 -0.849877 -1.32721 0
M  V30 1228 C 116.255 -0.296122 -2.27279 0
M  V30 1229 C 117.255 0.541458 -1.5141 0
M  V30 1230 O 118.445 0.353658 -1.70572 0
M  V30 1231 C 115.577 0.581579 -3.35902 0
M  V30 1232 H 116.77 -1.13064 -2.77771 0
M  V30 1233 H 114.323 -0.62383 -1.43311 0
M  V30 1234 H 115.058 1.43809 -2.9067 0
M  V30 1235 H 114.843 -0.0178814 -3.92096 0
M  V30 1236 H 116.333 0.961951 -4.0637 0
M  V30 1237 N 116.77 1.45427 -0.607355 0
M  V30 1238 C 117.7 2.3329 0.0989352 0
M  V30 1239 C 118.681 1.46816 0.859007 0
M  V30 1240 O 119.866 1.75588 0.829604 0
M  V30 1241 C 116.996 3.29518 1.09705 0
M  V30 1242 C 115.95 4.25626 0.450206 0
M  V30 1243 C 115.276 5.11542 1.55655 0
M  V30 1244 C 116.576 5.18505 -0.628455 0
M  V30 1245 H 118.27 2.92595 -0.634716 0
M  V30 1246 H 115.816 1.40696 -0.306681 0
M  V30 1247 H 117.769 3.89855 1.59971 0
M  V30 1248 H 116.493 2.68372 1.86129 0
M  V30 1249 H 115.152 3.66586 -0.0315886 0
M  V30 1250 H 114.8 4.46765 2.31107 0
M  V30 1251 H 114.5 5.76647 1.12925 0
M  V30 1252 H 116.024 5.74748 2.06148 0
M  V30 1253 H 117.438 5.72916 -0.209877 0
M  V30 1254 H 115.835 5.92085 -0.977489 0
M  V30 1255 H 116.905 4.60948 -1.50514 0
M  V30 1256 N 118.248 0.346503 1.53744 0
M  V30 1257 C 119.178 -0.501193 2.28058 0
M  V30 1258 C 120.159 -1.10014 1.29734 0
M  V30 1259 O 121.344 -1.12097 1.58581 0
M  V30 1260 C 118.474 -1.65078 3.05559 0
M  V30 1261 C 117.428 -1.18003 4.11411 0
M  V30 1262 C 116.754 -2.41837 4.76884 0
M  V30 1263 C 118.054 -0.278394 5.21558 0
M  V30 1264 H 119.748 0.11875 2.99164 0
M  V30 1265 H 117.294 0.0585531 1.43881 0
M  V30 1266 H 119.247 -2.25028 3.56287 0
M  V30 1267 H 117.971 -2.29767 2.32109 0
M  V30 1268 H 116.63 -0.603331 3.61601 0
M  V30 1269 H 116.278 -3.0494 4.00026 0
M  V30 1270 H 115.978 -2.1102 5.48402 0
M  V30 1271 H 117.502 -3.02508 5.30397 0
M  V30 1272 H 118.916 -0.784823 5.67903 0
M  V30 1273 H 117.313 -0.0619707 6.00068 0
M  V30 1274 H 118.383 0.684677 4.80042 0
M  V30 1275 N 119.726 -1.57421 0.075193 0
M  V30 1276 C 120.972 -1.93905 -0.594025 0
M  V30 1277 C 121.305 -0.955701 -1.69056 0
M  V30 1278 O 120.58 0.0145373 -1.94495 0
M  V30 1279 C 120.863 -3.40638 -1.1678 0
M  V30 1280 C 120.716 -4.49733 -0.0776792 0
M  V30 1281 C 122.035 -3.88259 -2.07228 0
M  V30 1282 H 119.154 -0.705105 -0.214466 0
M  V30 1283 H 121.796 -1.8947 0.141854 0
M  V30 1284 H 119.946 -3.44549 -1.79494 0
M  V30 1285 H 121.618 -4.57942 0.555573 0
M  V30 1286 H 119.861 -4.29751 0.591286 0
M  V30 1287 H 120.532 -5.49549 -0.519603 0
M  V30 1288 H 123.008 -3.86376 -1.54445 0
M  V30 1289 H 121.884 -4.91533 -2.44308 0
M  V30 1290 H 122.145 -3.26396 -2.98191 0
M  V30 1291 N 121.204 0.198386 -1.56346 0
M  V30 1292 C 122.152 1.26538 -1.95169 0
M  V30 1293 C 123.146 1.47295 -0.836685 0
M  V30 1294 O 124.352 1.48195 -1.02167 0
M  V30 1295 H 120.727 0.424744 -0.620561 0
M  V30 1296 H 122.698 0.910904 -2.84157 0
M  V30 1297 C 121.447 2.6035 -2.30463 0
M  V30 1298 H 120.77 2.45192 -3.15786 0
M  V30 1299 H 122.21 3.33762 -2.61494 0
M  V30 1300 C 120.669 3.17096 -1.13806 0
M  V30 1301 O 121.199 3.99588 -0.41135 0
M  V30 1302 N 119.405 2.75795 -0.915736 0
M  V30 1303 H 118.952 2.08816 -1.50843 0
M  V30 1304 H 118.91 3.14101 -0.136979 0
M  V30 1305 N 122.682 1.50554 0.465978 0
M  V30 1306 C 123.907 1.65838 1.24549 0
M  V30 1307 C 124.332 0.343486 1.84937 0
M  V30 1308 O 123.69 -0.69324 1.67523 0
M  V30 1309 C 123.738 2.75533 2.32624 0
M  V30 1310 O 122.842 2.37142 3.37398 0
M  V30 1311 H 122.183 0.553893 0.366194 0
M  V30 1312 H 124.713 1.96959 0.553927 0
M  V30 1313 H 124.723 2.98763 2.77857 0
M  V30 1314 H 123.398 3.70962 1.88043 0
M  V30 1315 H 121.975 2.24377 2.97841 0
M  V30 1316 N 124.16 -0.719506 1.40217 0
M  V30 1317 C 125.385 -1.51371 1.4178 0
M  V30 1318 C 125.81 -1.88091 0.0182355 0
M  V30 1319 O 125.168 -1.52997 -0.972707 0
M  V30 1320 C 125.216 -2.768 2.31115 0
M  V30 1321 O 124.32 -3.73349 1.7517 0
M  V30 1322 H 123.661 -0.456529 0.482159 0
M  V30 1323 H 126.191 -0.88644 1.844 0
M  V30 1324 H 126.201 -3.25371 2.46167 0
M  V30 1325 H 124.876 -2.49407 3.3282 0
M  V30 1326 H 123.453 -3.32179 1.69444 0
M  V30 1327 N 125.638 -1.25649 -0.95132 0
M  V30 1328 C 126.57 -1.02112 -2.05197 0
M  V30 1329 C 127.583 0.0150571 -1.62793 0
M  V30 1330 O 128.772 -0.223874 -1.77091 0
M  V30 1331 C 125.872 -0.522361 -3.3485 0
M  V30 1332 C 125.045 -1.62546 -4.06076 0
M  V30 1333 C 124.104 -1.12649 -5.14001 0
M  V30 1334 O 123.13 -1.82156 -5.39266 0
M  V30 1335 N 124.332 0.03047 -5.80492 0
M  V30 1336 H 127.097 -1.96885 -2.25957 0
M  V30 1337 H 124.658 -1.16899 -1.1201 0
M  V30 1338 H 126.65 -0.172961 -4.0433 0
M  V30 1339 H 125.22 0.33151 -3.10837 0
M  V30 1340 H 124.44 -2.14628 -3.30649 0
M  V30 1341 H 125.728 -2.36644 -4.50419 0
M  V30 1342 H 125.126 0.611169 -5.62389 0
M  V30 1343 H 123.683 0.320875 -6.5101 0
M  V30 1344 N 127.117 1.15442 -1.07289 0
M  V30 1345 C 128.528 1.67803 -0.818475 0
M  V30 1346 C 128.879 1.8489 0.656507 0
M  V30 1347 O 128.004 1.55176 1.50829 0
M  V30 1348 C 128.599 3.04805 -1.47917 0
M  V30 1349 C 127.158 3.54245 -1.27229 0
M  V30 1350 C 126.305 2.29986 -1.54925 0
M  V30 1351 H 129.256 0.996646 -1.23502 0
M  V30 1352 H 129.277 3.69702 -0.90005 0
M  V30 1353 H 128.789 2.92336 -2.55267 0
M  V30 1354 H 126.89 3.71956 -0.21899 0
M  V30 1355 H 127.003 4.35723 -1.99203 0
M  V30 1356 H 125.367 2.35496 -0.970242 0
M  V30 1357 H 126.15 2.20105 -2.63455 0
M  V30 1358 N 128.595 0.856903 1.32268 0
M  V30 1359 C 129.841 0.471355 1.97863 0
M  V30 1360 C 130.196 -0.962896 1.66572 0
M  V30 1361 O 129.489 -1.66686 0.944797 0
M  V30 1362 C 129.683 0.649919 3.51441 0
M  V30 1363 C 129.512 2.09997 3.97657 0
M  V30 1364 C 128.282 2.73893 4.2463 0
M  V30 1365 C 130.48 3.07081 4.1256 0
M  V30 1366 N 128.462 4.09786 4.57109 0
M  V30 1367 C 129.833 4.27968 4.48602 0
M  V30 1368 C 131.888 3.03247 3.949 0
M  V30 1369 C 130.591 5.45521 4.68827 0
M  V30 1370 C 132.617 4.20046 4.16311 0
M  V30 1371 C 131.979 5.39692 4.52672 0
M  V30 1372 H 128.078 0.221263 0.750044 0
M  V30 1373 H 130.662 1.10876 1.60045 0
M  V30 1374 H 128.833 0.0421938 3.88377 0
M  V30 1375 H 130.565 0.234044 4.04023 0
M  V30 1376 H 127.32 2.24918 4.16784 0
M  V30 1377 H 127.744 4.7989 4.7753 0
M  V30 1378 H 132.386 2.11863 3.65888 0
M  V30 1379 H 130.104 6.37434 4.96693 0
M  V30 1380 H 133.69 4.18517 4.04147 0
M  V30 1381 H 132.57 6.28566 4.68907 0
M  V30 1382 N 130.073 -1.45103 0.615059 0
M  V30 1383 C 130.983 -2.34382 -0.101034 0
M  V30 1384 C 131.999 -1.51681 -0.852585 0
M  V30 1385 O 133.175 -1.8446 -0.808484 0
M  V30 1386 C 130.24 -3.29417 -1.08099 0
M  V30 1387 C 129.301 -4.28025 -0.330577 0
M  V30 1388 C 128.534 -5.1852 -1.26385 0
M  V30 1389 O 128.757 -5.12598 -2.50198 0
M  V30 1390 O 127.691 -5.97122 -0.756866 0
M  V30 1391 H 131.517 -2.97033 0.632855 0
M  V30 1392 H 129.102 -1.4461 0.375293 0
M  V30 1393 H 130.984 -3.87958 -1.6452 0
M  V30 1394 H 129.659 -2.69321 -1.79577 0
M  V30 1395 H 128.566 -3.73078 0.276283 0
M  V30 1396 H 129.899 -4.90997 0.343866 0
M  V30 1397 N 131.551 -0.354651 -1.53558 0
M  V30 1398 C 132.962 0.126902 -1.86268 0
M  V30 1399 C 133.313 1.49075 -1.27558 0
M  V30 1400 O 132.438 2.08105 -0.5934 0
M  V30 1401 C 133.033 0.237046 -3.3797 0
M  V30 1402 C 131.592 0.662842 -3.70518 0
M  V30 1403 C 130.739 -0.196652 -2.76602 0
M  V30 1404 H 133.69 -0.573849 -1.47962 0
M  V30 1405 H 133.711 1.06259 -3.65362 0
M  V30 1406 H 133.223 -0.755725 -3.80671 0
M  V30 1407 H 131.324 1.66424 -3.33367 0
M  V30 1408 H 131.437 0.445034 -4.77029 0
M  V30 1409 H 129.801 0.332763 -2.52517 0
M  V30 1410 H 130.584 -1.18676 -3.22135 0
M  V30 1411 N 133.029 1.57378 -0.0835403 0
M  V30 1412 C 133.959 2.1641 0.87686 0
M  V30 1413 C 134.94 1.09429 1.30228 0
M  V30 1414 O 136.125 1.37516 1.37124 0
M  V30 1415 C 133.255 2.73517 2.14022 0
M  V30 1416 C 132.209 3.85769 1.85381 0
M  V30 1417 C 131.535 4.29529 3.18448 0
M  V30 1418 C 132.835 5.09486 1.14984 0
M  V30 1419 H 134.529 2.96914 0.385059 0
M  V30 1420 H 132.075 1.42823 0.18377 0
M  V30 1421 H 134.028 3.13463 2.81636 0
M  V30 1422 H 132.752 1.90252 2.65465 0
M  V30 1423 H 131.411 3.46345 1.20169 0
M  V30 1424 H 131.059 3.43169 3.67755 0
M  V30 1425 H 130.759 5.05204 3.00071 0
M  V30 1426 H 132.283 4.72099 3.8724 0
M  V30 1427 H 133.697 5.46674 1.72687 0
M  V30 1428 H 132.094 5.90515 1.06826 0
M  V30 1429 H 133.164 4.84724 0.130749 0
M  V30 1430 N 134.507 -0.190092 1.56449 0
M  V30 1431 C 135.439 -1.25973 1.91477 0
M  V30 1432 C 136.452 -1.41452 0.805931 0
M  V30 1433 O 137.641 -1.41789 1.08435 0
M  V30 1434 C 134.741 -2.63117 2.13594 0
M  V30 1435 C 133.914 -2.69182 3.4476 0
M  V30 1436 C 132.973 -3.87557 3.5593 0
M  V30 1437 O 131.999 -3.74427 4.28711 0
M  V30 1438 N 133.201 -5.03224 2.89388 0
M  V30 1439 H 135.966 -0.962394 2.83828 0
M  V30 1440 H 133.527 -0.379981 1.57378 0
M  V30 1441 H 135.519 -3.40742 2.1835 0
M  V30 1442 H 134.089 -2.85319 1.27719 0
M  V30 1443 H 133.309 -1.77793 3.51828 0
M  V30 1444 H 134.597 -2.70229 4.31107 0
M  V30 1445 H 133.995 -5.16791 2.30094 0
M  V30 1446 H 132.552 -5.78778 2.99764 0
M  V30 1447 N 135.985 -1.50799 -0.457987 0
M  V30 1448 C 136.915 -1.73553 -1.5621 0
M  V30 1449 C 137.896 -0.584774 -1.59732 0
M  V30 1450 O 139.081 -0.825314 -1.7579 0
M  V30 1451 C 136.211 -1.84169 -2.94447 0
M  V30 1452 C 135.165 -2.99461 -3.0579 0
M  V30 1453 C 134.491 -2.95235 -4.45803 0
M  V30 1454 C 135.791 -4.39766 -2.81786 0
M  V30 1455 H 137.485 -2.66 -1.37421 0
M  V30 1456 H 135.031 -1.28002 -0.659662 0
M  V30 1457 H 136.984 -1.98672 -3.71628 0
M  V30 1458 H 135.708 -0.883545 -3.14422 0
M  V30 1459 H 134.367 -2.8463 -2.31044 0
M  V30 1460 H 134.015 -1.97239 -4.62715 0
M  V30 1461 H 133.715 -3.72642 -4.54326 0
M  V30 1462 H 135.239 -3.11803 -5.24987 0
M  V30 1463 H 136.653 -4.55054 -3.4871 0
M  V30 1464 H 135.05 -5.18722 -3.0174 0
M  V30 1465 H 136.12 -4.51229 -1.7754 0
M  V30 1466 N 137.463 0.71206 -1.40597 0
M  V30 1467 C 138.413 1.81783 -1.37619 0
M  V30 1468 C 139.397 1.58896 -0.253162 0
M  V30 1469 O 140.589 1.70009 -0.492547 0
M  V30 1470 C 137.718 3.19944 -1.24462 0
M  V30 1471 C 136.804 3.48582 -2.4156 0
M  V30 1472 N 137.195 3.48016 -3.67041 0
M  V30 1473 C 135.493 3.79056 -2.35016 0
M  V30 1474 C 136.194 3.75096 -4.44609 0
M  V30 1475 N 135.17 3.94022 -3.74497 0
M  V30 1476 H 138.972 1.79683 -2.32575 0
M  V30 1477 H 136.486 0.91134 -1.34419 0
M  V30 1478 H 138.483 3.99133 -1.20411 0
M  V30 1479 H 137.143 3.23267 -0.304762 0
M  V30 1480 H 138.154 3.28782 -4.00153 0
M  V30 1481 H 134.831 3.89848 -1.49415 0
M  V30 1482 H 136.221 3.80934 -5.53479 0
M  V30 1483 N 138.941 1.26152 0.944643 0
M  V30 1484 C 140.187 1.11657 1.69294 0
M  V30 1485 C 140.52 -0.339926 1.91202 0
M  V30 1486 O 139.795 -1.24994 1.49019 0
M  V30 1487 C 140.078 1.88236 3.06984 0
M  V30 1488 C 139.931 3.41772 2.92424 0
M  V30 1489 C 141.25 1.67343 4.07043 0
M  V30 1490 H 138.369 0.407004 0.614424 0
M  V30 1491 H 141.011 1.55106 1.09737 0
M  V30 1492 H 139.161 1.51308 3.57824 0
M  V30 1493 H 140.833 3.88433 2.48832 0
M  V30 1494 H 139.076 3.68974 2.28124 0
M  V30 1495 H 139.747 3.90579 3.90067 0
M  V30 1496 H 142.223 1.99509 3.65151 0
M  V30 1497 H 141.099 2.23346 5.01406 0
M  V30 1498 H 141.36 0.617158 4.37771 0
M  V30 1499 N 140.419 -1.14872 1.07899 0
M  V30 1500 C 141.696 -1.81928 0.71845 0
M  V30 1501 C 142.076 -1.95417 -0.798455 0
M  V30 1502 O 141.424 -1.50997 -1.715 0
M  V30 1503 C 141.634 -3.17937 1.43935 0
M  V30 1504 C 142.982 -3.93501 1.59506 0
M  V30 1505 O 144.006 -3.27509 1.40058 0
M  V30 1506 O 142.865 -5.1183 1.91551 0
M  V30 1507 H 139.959 -0.78628 0.256305 0
M  V30 1508 H 142.505 -1.21934 1.18026 0
M  V30 1509 H 141.277 -3.0325 2.47295 0
M  V30 1510 H 140.9 -3.85619 0.968687 0
M  V30 1511 N 141.898 -0.863906 -1.31812 0
M  V30 1512 C 142.845 -0.313303 -2.28664 0
M  V30 1513 C 143.815 0.584868 -1.55462 0
M  V30 1514 O 145 0.517805 -1.83639 0
M  V30 1515 C 142.14 0.48441 -3.41683 0
M  V30 1516 C 141.253 -0.440594 -4.29747 0
M  V30 1517 C 140.388 0.370652 -5.29905 0
M  V30 1518 C 139.427 -0.551164 -6.09613 0
M  V30 1519 N 138.564 0.223462 -7.01744 0
M  V30 1520 H 143.404 -1.14444 -2.75148 0
M  V30 1521 H 140.941 -0.575769 -1.35364 0
M  V30 1522 H 142.899 0.962627 -4.05943 0
M  V30 1523 H 141.529 1.28029 -2.96325 0
M  V30 1524 H 140.581 -1.03724 -3.65986 0
M  V30 1525 H 141.893 -1.14767 -4.85417 0
M  V30 1526 H 141.047 0.911638 -5.99812 0
M  V30 1527 H 139.786 1.11105 -4.74876 0
M  V30 1528 H 138.791 -1.10396 -5.38603 0
M  V30 1529 H 140.016 -1.29032 -6.66729 0
M  V30 1530 H 137.962 0.946787 -6.49132 0
M  V30 1531 H 137.879 -0.424399 -7.54808 0
M  V30 1532 H 139.147 0.745876 -7.75923 0
M  V30 1533 N 143.376 1.44774 -0.622745 0
M  V30 1534 C 144.339 2.29069 0.0774015 0
M  V30 1535 C 145.339 1.4059 0.780461 0
M  V30 1536 O 146.529 1.62551 0.626322 0
M  V30 1537 C 143.661 3.21974 1.12006 0
M  V30 1538 H 144.854 2.92459 -0.663901 0
M  V30 1539 H 142.407 1.51548 -0.382486 0
M  V30 1540 H 143.142 2.63417 1.89162 0
M  V30 1541 H 142.927 3.87168 0.619951 0
M  V30 1542 H 144.417 3.85318 1.60995 0
M  V30 1543 N 144.854 0.36279 1.53368 0
M  V30 1544 C 146.1 -0.228113 2.01513 0
M  V30 1545 C 146.433 -1.48648 1.2497 0
M  V30 1546 O 145.708 -1.91459 0.342616 0
M  V30 1547 C 145.991 -0.522884 3.56284 0
M  V30 1548 C 145.844 0.74892 4.43521 0
M  V30 1549 C 147.163 -1.32461 4.19693 0
M  V30 1550 H 144.282 -0.0814343 0.732487 0
M  V30 1551 H 146.924 0.48713 1.83649 0
M  V30 1552 H 145.074 -1.1322 3.71636 0
M  V30 1553 H 146.746 1.38648 4.39971 0
M  V30 1554 H 144.989 1.36986 4.11603 0
M  V30 1555 H 145.66 0.497667 5.49752 0
M  V30 1556 H 148.136 -0.809203 4.08156 0
M  V30 1557 H 147.012 -1.49961 5.28018 0
M  V30 1558 H 147.273 -2.33232 3.75573 0
M  V30 1559 N 146.332 -1.57332 0.0918853 0
M  V30 1560 C 147.557 -1.98995 -0.584442 0
M  V30 1561 C 147.982 -0.970528 -1.61128 0
M  V30 1562 O 147.34 0.0613904 -1.81196 0
M  V30 1563 C 147.388 -3.39636 -1.21161 0
M  V30 1564 O 146.492 -3.40447 -2.32744 0
M  V30 1565 H 145.833 -0.647165 -0.148572 0
M  V30 1566 H 148.363 -2.03873 0.172347 0
M  V30 1567 H 148.373 -3.7726 -1.55367 0
M  V30 1568 H 147.048 -4.13356 -0.459313 0
M  V30 1569 H 145.625 -3.14614 -2.0018 0
M  V30 1570 N 147.81 0.181792 -1.56548 0
M  V30 1571 C 149.058 0.89832 -1.81038 0
M  V30 1572 C 149.379 1.83232 -0.667164 0
M  V30 1573 O 148.649 1.93372 0.313673 0
M  V30 1574 H 147.229 0.33471 -0.667816 0
M  V30 1575 H 149.891 0.184116 -1.94028 0
M  V30 1576 H 148.987 1.4815 -2.74696 0
M  V30 1577 N 149.288 1.51039 0.449983 0
M  V30 1578 C 150.218 1.74379 1.55288 0
M  V30 1579 C 151.199 0.593236 1.5942 0
M  V30 1580 O 152.384 0.834625 1.7535 0
M  V30 1581 C 149.514 1.85728 2.93466 0
M  V30 1582 C 148.468 3.01078 3.04197 0
M  V30 1583 C 147.794 2.97595 4.44231 0
M  V30 1584 C 149.094 4.41254 2.7945 0
M  V30 1585 H 150.788 2.66725 1.36008 0
M  V30 1586 H 148.334 1.2835 0.652864 0
M  V30 1587 H 150.287 2.0064 3.70569 0
M  V30 1588 H 149.011 0.900207 3.13949 0
M  V30 1589 H 147.67 2.85851 2.29531 0
M  V30 1590 H 147.318 1.99691 4.61663 0
M  V30 1591 H 147.018 3.75046 4.52343 0
M  V30 1592 H 148.542 3.14583 5.23326 0
M  V30 1593 H 149.956 4.56897 3.46292 0
M  V30 1594 H 148.353 5.20315 2.98985 0
M  V30 1595 H 149.423 4.52164 1.75144 0
M  V30 1596 N 150.766 -0.704594 1.40972 0
M  V30 1597 C 152.182 -1.01406 1.23244 0
M  V30 1598 C 152.382 -2.01169 0.115399 0
M  V30 1599 O 151.438 -2.47021 -0.523147 0
M  V30 1600 C 152.751 -1.54728 2.57836 0
M  V30 1601 C 154.299 -1.66658 2.64942 0
M  V30 1602 C 154.774 -2.23383 3.9983 0
M  V30 1603 N 156.265 -2.30756 4.01629 0
M  V30 1604 C 157 -2.75655 5.02794 0
M  V30 1605 N 156.496 -3.20225 6.14352 0
M  V30 1606 N 158.289 -2.75138 4.90159 0
M  V30 1607 H 150.44 -0.0435285 2.12355 0
M  V30 1608 H 152.703 -0.0818951 0.944456 0
M  V30 1609 H 152.409 -0.888832 3.40283 0
M  V30 1610 H 152.283 -2.53084 2.79693 0
M  V30 1611 H 154.67 -2.31617 1.8286 0
M  V30 1612 H 154.751 -0.668717 2.46904 0
M  V30 1613 H 154.395 -1.59043 4.82357 0
M  V30 1614 H 154.325 -3.23904 4.15203 0
M  V30 1615 H 156.816 -1.99291 3.21079 0
M  V30 1616 H 157.129 -3.53084 6.87424 0
M  V30 1617 H 155.474 -3.18156 6.17901 0
M  V30 1618 H 158.665 -2.39661 4.02095 0
M  V30 1619 H 158.838 -3.09812 5.6914 0
M  V30 1620 N 152.244 -1.26651 -0.937939 0
M  V30 1621 C 153.469 -1.15279 -1.72411 0
M  V30 1622 C 153.894 0.287866 -1.85884 0
M  V30 1623 O 153.252 1.20855 -1.35143 0
M  V30 1624 C 153.3 -1.83028 -3.10698 0
M  V30 1625 O 152.404 -1.12128 -3.96864 0
M  V30 1626 H 151.745 -0.401504 -0.528858 0
M  V30 1627 H 154.275 -1.67531 -1.1745 0
M  V30 1628 H 154.285 -1.89981 -3.6107 0
M  V30 1629 H 152.96 -2.87833 -3.00208 0
M  V30 1630 H 151.537 -1.13173 -3.55312 0
M  V30 1631 N 153.722 1.14298 -1.08507 0
M  V30 1632 C 154.652 2.21542 -0.737646 0
M  V30 1633 C 155.633 1.67773 0.280377 0
M  V30 1634 O 156.818 1.93616 0.150521 0
M  V30 1635 C 153.948 3.46988 -0.147259 0
M  V30 1636 C 152.902 4.13789 -1.09374 0
M  V30 1637 C 152.228 5.33449 -0.365524 0
M  V30 1638 C 153.528 4.62208 -2.4323 0
M  V30 1639 H 155.222 2.5086 -1.6343 0
M  V30 1640 H 152.768 1.20576 -0.787243 0
M  V30 1641 H 154.721 4.21262 0.107808 0
M  V30 1642 H 153.445 3.17037 0.784538 0
M  V30 1643 H 152.104 3.4147 -1.33393 0
M  V30 1644 H 151.752 4.99759 0.57011 0
M  V30 1645 H 151.452 5.79088 -0.996512 0
M  V30 1646 H 152.976 6.10485 -0.118534 0
M  V30 1647 H 154.39 5.27952 -2.23472 0
M  V30 1648 H 152.787 5.18553 -3.02031 0
M  V30 1649 H 153.857 3.77224 -3.04681 0
M  V30 1650 N 155.201 0.870884 1.31352 0
M  V30 1651 C 156.429 0.49677 2.00848 0
M  V30 1652 C 156.844 -0.910998 1.65367 0
M  V30 1653 O 156.201 -1.59696 0.883374 0
M  V30 1654 C 156.252 0.645308 3.55694 0
M  V30 1655 O 155.973 1.99764 3.89905 0
M  V30 1656 C 157.474 0.272326 4.42463 0
M  V30 1657 H 154.694 0.193462 0.642506 0
M  V30 1658 H 157.238 1.1723 1.67563 0
M  V30 1659 H 155.393 0.0173176 3.87396 0
M  V30 1660 H 155.807 2.00607 4.84621 0
M  V30 1661 H 157.281 0.427208 5.50344 0
M  V30 1662 H 157.758 -0.788587 4.32062 0
M  V30 1663 H 158.364 0.876054 4.1618 0
M  V30 1664 N 156.679 -1.44442 0.630414 0
M  V30 1665 C 157.907 -2.06414 0.141671 0
M  V30 1666 C 158.322 -1.47105 -1.18345 0
M  V30 1667 O 157.679 -0.593662 -1.72574 0
M  V30 1668 C 157.73 -3.61494 0.0199784 0
M  V30 1669 O 157.451 -4.18594 1.29269 0
M  V30 1670 C 158.952 -4.40499 -0.497544 0
M  V30 1671 H 156.172 -0.666292 0.0793452 0
M  V30 1672 H 158.716 -1.85323 0.864614 0
M  V30 1673 H 156.871 -3.8185 -0.653402 0
M  V30 1674 H 157.285 -5.12026 1.13707 0
M  V30 1675 H 158.759 -5.49433 -0.531708 0
M  V30 1676 H 159.236 -4.11895 -1.52445 0
M  V30 1677 H 159.842 -4.25061 0.142562 0
M  V30 1678 N 158.157 -0.370918 -1.53173 0
M  V30 1679 C 159.087 0.464847 -2.28826 0
M  V30 1680 C 160.068 1.07936 -1.31468 0
M  V30 1681 O 161.253 1.0956 -1.60344 0
M  V30 1682 C 158.383 1.60196 -3.08147 0
M  V30 1683 C 157.337 1.11443 -4.13237 0
M  V30 1684 C 156.663 2.3422 -4.80672 0
M  V30 1685 C 157.963 0.195384 -5.21934 0
M  V30 1686 H 159.657 -0.166329 -2.98938 0
M  V30 1687 H 157.203 -0.0814359 -1.4377 0
M  V30 1688 H 159.156 2.19332 -3.59822 0
M  V30 1689 H 157.88 2.26045 -2.35735 0
M  V30 1690 H 156.539 0.545727 -3.62515 0
M  V30 1691 H 156.187 2.98537 -4.04827 0
M  V30 1692 H 155.887 2.02269 -5.51689 0
M  V30 1693 H 157.411 2.94032 -5.35143 0
M  V30 1694 H 158.825 0.694375 -5.69079 0
M  V30 1695 H 157.222 -0.0335027 -6.00091 0
M  V30 1696 H 158.292 -0.760961 -4.78892 0
M  V30 1697 N 159.635 1.57281 -0.100228 0
M  V30 1698 C 160.565 2.17328 0.853857 0
M  V30 1699 C 161.546 1.10804 1.2906 0
M  V30 1700 O 162.731 1.38963 1.35657 0
M  V30 1701 C 159.861 2.75772 2.11109 0
M  V30 1702 C 158.815 3.87713 1.81279 0
M  V30 1703 C 158.141 4.32882 3.13874 0
M  V30 1704 C 159.441 5.10677 1.09574 0
M  V30 1705 H 161.135 2.97305 0.353545 0
M  V30 1706 H 158.681 1.43009 0.168612 0
M  V30 1707 H 160.634 3.16433 2.78296 0
M  V30 1708 H 159.358 1.93057 2.63432 0
M  V30 1709 H 158.017 3.476 1.16489 0
M  V30 1710 H 157.665 3.47051 3.64095 0
M  V30 1711 H 157.365 5.08358 2.94696 0
M  V30 1712 H 158.889 4.7618 3.82211 0
M  V30 1713 H 160.303 5.48474 1.66879 0
M  V30 1714 H 158.7 5.91615 1.00557 0
M  V30 1715 H 159.77 4.84835 0.0793299 0
M  V30 1716 N 161.113 -0.173488 1.56642 0
M  V30 1717 C 162.529 -0.525174 1.50712 0
M  V30 1718 C 162.729 -1.8476 0.804107 0
M  V30 1719 O 161.785 -2.49869 0.363574 0
M  V30 1720 C 163.098 -0.559937 2.95441 0
M  V30 1721 C 164.646 -0.647288 3.06234 0
M  V30 1722 C 165.121 -0.712963 4.52417 0
M  V30 1723 N 166.612 -0.775911 4.56655 0
M  V30 1724 C 167.347 -0.847264 5.67106 0
M  V30 1725 N 166.843 -0.879585 6.87194 0
M  V30 1726 N 168.636 -0.886117 5.55071 0
M  V30 1727 H 160.787 0.693681 2.00753 0
M  V30 1728 H 163.05 0.249841 0.914485 0
M  V30 1729 H 162.756 0.343049 3.50023 0
M  V30 1730 H 162.63 -1.40718 3.49969 0
M  V30 1731 H 165.017 -1.5407 2.51687 0
M  V30 1732 H 165.098 0.226586 2.54794 0
M  V30 1733 H 164.742 0.176183 5.07594 0
M  V30 1734 H 164.672 -1.60295 5.0161 0
M  V30 1735 H 167.163 -0.759304 3.70193 0
M  V30 1736 H 167.476 -0.935144 7.67121 0
M  V30 1737 H 165.821 -0.847898 6.89808 0
M  V30 1738 H 169.012 -0.857853 4.60172 0
M  V30 1739 H 169.185 -0.938263 6.41171 0
M  V30 1740 N 162.591 -1.51276 -0.441967 0
M  V30 1741 C 163.554 -1.7167 -1.51862 0
M  V30 1742 C 164.554 -0.586793 -1.49711 0
M  V30 1743 O 165.744 -0.854276 -1.51815 0
M  V30 1744 C 162.876 -1.76889 -2.91416 0
M  V30 1745 H 164.069 -2.67754 -1.35084 0
M  V30 1746 H 161.622 -1.41196 -0.670333 0
M  V30 1747 H 162.357 -0.826026 -3.13604 0
M  V30 1748 H 162.142 -2.59001 -2.94382 0
M  V30 1749 H 163.632 -1.94522 -3.69528 0
M  V30 1750 N 164.069 0.697108 -1.41344 0
M  V30 1751 C 164.999 1.82353 -1.45841 0
M  V30 1752 C 165.98 1.67115 -0.317247 0
M  V30 1753 O 167.165 1.86871 -0.528474 0
M  V30 1754 C 164.295 3.20476 -1.33838 0
M  V30 1755 C 163.249 3.50415 -2.4575 0
M  V30 1756 C 162.575 4.87878 -2.18813 0
M  V30 1757 C 163.875 3.49546 -3.88091 0
M  V30 1758 H 165.569 1.78846 -2.40113 0
M  V30 1759 H 163.115 0.859028 -1.15571 0
M  V30 1760 H 165.068 3.98988 -1.35596 0
M  V30 1761 H 163.792 3.24604 -0.360498 0
M  V30 1762 H 162.451 2.74253 -2.43271 0
M  V30 1763 H 162.099 4.8863 -1.19371 0
M  V30 1764 H 161.799 5.08875 -2.93803 0
M  V30 1765 H 163.323 5.68702 -2.22284 0
M  V30 1766 H 164.737 4.18066 -3.92293 0
M  V30 1767 H 163.134 3.82075 -4.62751 0
M  V30 1768 H 164.204 2.48552 -4.16353 0
M  V30 1769 N 165.547 1.27147 0.931209 0
M  V30 1770 C 166.795 1.13055 1.6752 0
M  V30 1771 C 167.116 -0.324791 1.92276 0
M  V30 1772 O 166.386 -1.22775 1.52654 0
M  V30 1773 H 164.966 0.415391 0.620854 0
M  V30 1774 H 167.628 1.59623 1.11833 0
M  V30 1775 H 166.724 1.65694 2.64485 0
M  V30 1776 N 167.025 -1.13721 1.09112 0
M  V30 1777 C 167.988 -2.17222 0.731241 0
M  V30 1778 C 168.988 -1.59035 -0.237566 0
M  V30 1779 O 170.178 -1.74192 -0.0161704 0
M  V30 1780 C 167.31 -3.40804 0.0808443 0
M  V30 1781 H 168.503 -2.50573 1.64783 0
M  V30 1782 H 166.056 -1.28493 0.889897 0
M  V30 1783 H 166.791 -3.1304 -0.847127 0
M  V30 1784 H 166.576 -3.84306 0.777896 0
M  V30 1785 H 168.066 -4.1731 -0.155657 0
M  V30 1786 N 168.503 -0.877838 -1.30888 0
M  V30 1787 C 169.435 -0.296607 -2.27273 0
M  V30 1788 C 170.448 0.544799 -1.53414 0
M  V30 1789 O 171.637 0.365511 -1.74718 0
M  V30 1790 C 168.737 0.597481 -3.33592 0
M  V30 1791 C 167.91 -0.213251 -4.3688 0
M  V30 1792 C 166.969 0.610208 -5.2265 0
M  V30 1793 O 165.995 0.035441 -5.69189 0
M  V30 1794 N 167.197 1.92071 -5.47804 0
M  V30 1795 H 169.962 -1.12492 -2.77787 0
M  V30 1796 H 167.523 -0.740105 -1.43993 0
M  V30 1797 H 169.515 1.15425 -3.87891 0
M  V30 1798 H 168.085 1.32647 -2.83061 0
M  V30 1799 H 167.305 -0.951466 -3.82545 0
M  V30 1800 H 168.593 -0.769262 -5.02951 0
M  V30 1801 H 167.991 2.4107 -5.11763 0
M  V30 1802 H 166.548 2.42508 -6.05007 0
M  V30 1803 N 169.982 1.44106 -0.638065 0
M  V30 1804 C 170.929 2.30715 0.062701 0
M  V30 1805 C 171.899 1.43882 0.829883 0
M  V30 1806 O 173.084 1.72775 0.809532 0
M  V30 1807 C 170.224 3.29258 1.03358 0
M  V30 1808 C 169.337 4.31192 0.26409 0
M  V30 1809 C 168.472 5.16825 1.22741 0
M  V30 1810 C 167.511 6.10462 0.447475 0
M  V30 1811 N 166.648 6.8877 1.36161 0
M  V30 1812 H 171.488 2.90096 -0.681781 0
M  V30 1813 H 169.025 1.42925 -0.347988 0
M  V30 1814 H 170.983 3.84886 1.60992 0
M  V30 1815 H 169.613 2.71562 1.74511 0
M  V30 1816 H 168.665 3.77981 -0.428295 0
M  V30 1817 H 169.977 4.97619 -0.343052 0
M  V30 1818 H 169.131 5.77004 1.87487 0
M  V30 1819 H 167.87 4.50488 1.86847 0
M  V30 1820 H 166.875 5.49386 -0.213433 0
M  V30 1821 H 168.1 6.78837 -0.188968 0
M  V30 1822 H 166.046 6.25096 1.98975 0
M  V30 1823 H 165.963 7.51663 0.808656 0
M  V30 1824 H 167.231 7.53467 1.99769 0
M  V30 1825 N 171.46 0.379036 1.52974 0
M  V30 1826 C 172.37 -0.468639 2.29872 0
M  V30 1827 C 173.386 -1.08067 1.36373 0
M  V30 1828 O 174.562 -1.08871 1.69438 0
M  V30 1829 C 171.627 -1.58594 3.083 0
M  V30 1830 C 170.688 -1.00007 4.17489 0
M  V30 1831 C 169.921 -2.06413 4.92168 0
M  V30 1832 O 170.144 -3.27751 4.66835 0
M  V30 1833 O 169.078 -1.68717 5.7777 0
M  V30 1834 H 172.904 0.157508 3.03291 0
M  V30 1835 H 170.489 0.143035 1.48714 0
M  V30 1836 H 172.371 -2.23525 3.57232 0
M  V30 1837 H 171.046 -2.19724 2.37703 0
M  V30 1838 H 169.953 -0.314299 3.72777 0
M  V30 1839 H 171.286 -0.433135 4.90291 0
M  V30 1840 N 172.938 -1.57226 0.108567 0
M  V30 1841 C 173.901 -2.13602 -0.831082 0
M  V30 1842 C 174.901 -1.06841 -1.20173 0
M  V30 1843 O 176.091 -1.32666 -1.12895 0
M  V30 1844 C 173.223 -2.66769 -2.12243 0
M  V30 1845 H 174.416 -2.97951 -0.341317 0
M  V30 1846 H 171.969 -1.55667 -0.14057 0
M  V30 1847 H 172.704 -1.85977 -2.65675 0
M  V30 1848 H 172.489 -3.44839 -1.86625 0
M  V30 1849 H 173.979 -3.10332 -2.79435 0
M  V30 1850 N 174.416 0.165178 -1.56732 0
M  V30 1851 C 175.665 0.879143 -1.81532 0
M  V30 1852 C 175.978 1.83144 -0.686842 0
M  V30 1853 O 177.184 2.58823 -0.819944 0
M  V30 1854 C 175.64 1.61388 -3.21686 0
M  V30 1855 C 175.248 0.704904 -4.4242 0
M  V30 1856 C 176.992 2.3157 -3.55774 0
M  V30 1857 C 174.899 1.44022 -5.73595 0
M  V30 1858 H 173.829 0.332033 -0.676957 0
M  V30 1859 H 176.48 0.132008 -1.83025 0
M  V30 1860 H 174.862 2.40599 -3.14529 0
M  V30 1861 H 176.036 -0.0506815 -4.60772 0
M  V30 1862 H 174.351 0.112419 -4.16248 0
M  V30 1863 H 176.948 2.8719 -4.51028 0
M  V30 1864 H 177.291 3.07201 -2.8095 0
M  V30 1865 H 177.824 1.59297 -3.64513 0
M  V30 1866 H 174.563 0.72612 -6.51466 0
M  V30 1867 H 174.083 2.16898 -5.5921 0
M  V30 1868 H 175.762 1.98606 -6.15764 0
M  V30 1869 N 175.894 1.51508 0.433938 0
M  V30 1870 C 177.119 1.68443 1.21003 0
M  V30 1871 C 177.544 0.382636 1.84167 0
M  V30 1872 O 176.902 -0.65755 1.68956 0
M  V30 1873 C 176.95 2.80405 2.26727 0
M  V30 1874 O 176.054 2.44245 3.32292 0
M  V30 1875 H 175.395 0.561536 0.354363 0
M  V30 1876 H 177.925 1.9809 0.512024 0
M  V30 1877 H 177.935 3.0459 2.71457 0
M  V30 1878 H 176.61 3.74867 1.80132 0
M  V30 1879 H 175.187 2.30644 2.93015 0
M  V30 1880 N 177.372 -0.689602 1.41712 0
M  V30 1881 C 178.783 -1.26973 1.36875 0
M  V30 1882 C 179.134 -1.96124 0.054748 0
M  V30 1883 O 178.259 -1.99141 -0.84687 0
M  V30 1884 C 178.854 -2.30912 2.47922 0
M  V30 1885 C 177.413 -2.84486 2.46464 0
M  V30 1886 C 176.56 -1.58603 2.27465 0
M  V30 1887 H 179.511 -0.48396 1.51141 0
M  V30 1888 H 179.532 -3.12331 2.17323 0
M  V30 1889 H 179.044 -1.80554 3.43543 0
M  V30 1890 H 177.145 -3.39005 1.54617 0
M  V30 1891 H 177.258 -3.34511 3.42986 0
M  V30 1892 H 175.622 -1.84632 1.75451 0
M  V30 1893 H 176.405 -1.10233 3.25121 0
M  V30 1894 N 178.85 -1.27639 -0.924453 0
M  V30 1895 C 180.261 -1.12834 -1.48746 0
M  V30 1896 C 180.612 0.285505 -1.94112 0
M  V30 1897 O 179.737 1.17874 -1.81479 0
M  V30 1898 C 180.332 -2.04217 -2.70334 0
M  V30 1899 C 178.891 -1.93509 -3.22848 0
M  V30 1900 C 178.038 -1.96583 -1.95577 0
M  V30 1901 H 180.989 -1.40484 -0.738233 0
M  V30 1902 H 181.01 -1.59989 -3.4523 0
M  V30 1903 H 180.522 -3.07111 -2.37285 0
M  V30 1904 H 178.623 -0.936131 -3.60649 0
M  V30 1905 H 178.736 -2.79917 -3.88823 0
M  V30 1906 H 177.1 -1.4085 -2.12211 0
M  V30 1907 H 177.883 -3.01137 -1.64837 0
M  V30 1908 N 180.328 1.1314 -1.09713 0
M  V30 1909 C 181.605 1.80762 -0.747302 0
M  V30 1910 C 181.985 1.96663 0.767265 0
M  V30 1911 O 181.333 1.53706 1.69076 0
M  V30 1912 C 181.543 3.15606 -1.48975 0
M  V30 1913 C 182.891 3.90914 -1.65746 0
M  V30 1914 O 183.915 3.25239 -1.45251 0
M  V30 1915 O 182.774 5.08718 -1.9967 0
M  V30 1916 H 179.868 0.782103 -0.268782 0
M  V30 1917 H 182.414 1.20041 -1.19951 0
M  V30 1918 H 181.186 2.99278 -2.52088 0
M  V30 1919 H 180.809 3.84029 -1.02991 0
M  V30 1920 N 181.806 0.884767 1.30421 0
M  V30 1921 C 182.769 0.356277 2.26414 0
M  V30 1922 C 183.769 -0.501124 1.52792 0
M  V30 1923 O 184.959 -0.30831 1.7145 0
M  V30 1924 C 182.091 -0.492316 3.37326 0
M  V30 1925 H 183.284 1.20389 2.74675 0
M  V30 1926 H 180.837 0.661607 1.41607 0
M  V30 1927 H 181.572 -1.36052 2.94381 0
M  V30 1928 H 181.357 0.121832 3.91911 0
M  V30 1929 H 182.847 -0.853871 4.08777 0
M  V30 1930 N 183.284 -1.43765 0.645699 0
M  V30 1931 C 184.247 -2.29163 -0.0409488 0
M  V30 1932 C 185.247 -1.41813 -0.757996 0
M  V30 1933 O 186.437 -1.63527 -0.600382 0
M  V30 1934 C 183.569 -3.23716 -1.06869 0
M  V30 1935 H 184.762 -2.91366 0.710345 0
M  V30 1936 H 182.315 -1.5092 0.406547 0
M  V30 1937 H 183.05 -2.66393 -1.84947 0
M  V30 1938 H 182.835 -3.88105 -0.558277 0
M  V30 1939 H 184.325 -3.87831 -1.54845 0
M  V30 1940 N 184.763 -0.387143 -1.52771 0
M  V30 1941 C 185.988 0.198407 -2.06449 0
M  V30 1942 C 186.413 1.39918 -1.25716 0
M  V30 1943 O 185.771 1.79099 -0.281657 0
M  V30 1944 C 185.819 0.548893 -3.56398 0
M  V30 1945 O 184.923 1.64315 -3.78252 0
M  V30 1946 H 184.264 0.0237731 -0.663574 0
M  V30 1947 H 186.794 -0.553989 -1.96957 0
M  V30 1948 H 186.804 0.813812 -3.99801 0
M  V30 1949 H 185.479 -0.329005 -4.14597 0
M  V30 1950 H 184.056 1.37211 -3.46738 0
M  V30 1951 N 186.241 1.57166 -0.116904 0
M  V30 1952 C 187.204 2.14039 0.819742 0
M  V30 1953 C 188.204 1.07477 1.19605 0
M  V30 1954 O 189.394 1.33263 1.1219 0
M  V30 1955 C 186.526 2.67891 2.10826 0
M  V30 1956 H 187.719 2.98128 0.325511 0
M  V30 1957 H 185.272 1.55739 0.132312 0
M  V30 1958 H 186.007 1.87384 2.64685 0
M  V30 1959 H 185.792 3.45823 1.84793 0
M  V30 1960 H 187.282 3.11809 2.77785 0
M  V30 1961 N 187.719 -0.156864 1.56817 0
M  V30 1962 C 188.682 -1.17781 1.96622 0
M  V30 1963 C 189.682 -1.36401 0.851555 0
M  V30 1964 O 190.872 -1.33561 1.11836 0
M  V30 1965 C 188.004 -2.54008 2.27361 0
M  V30 1966 H 189.197 -0.836564 2.87996 0
M  V30 1967 H 186.75 -0.39985 1.51099 0
M  V30 1968 H 187.485 -2.9312 1.38748 0
M  V30 1969 H 187.27 -2.41856 3.08623 0
M  V30 1970 H 188.76 -3.27558 2.59029 0
M  V30 1971 N 189.197 -1.51736 -0.425897 0
M  V30 1972 C 190.608 -1.5732 -1.00536 0
M  V30 1973 C 190.959 -0.403537 -1.92005 0
M  V30 1974 O 190.084 0.478256 -2.11049 0
M  V30 1975 C 190.679 -2.85119 -1.8301 0
M  V30 1976 C 189.238 -2.93236 -2.35987 0
M  V30 1977 C 188.385 -2.52098 -1.15508 0
M  V30 1978 H 191.336 -1.57348 -0.206739 0
M  V30 1979 H 191.357 -2.69526 -2.68581 0
M  V30 1980 H 190.869 -3.7023 -1.16411 0
M  V30 1981 H 188.97 -2.12581 -3.06007 0
M  V30 1982 H 189.083 -3.9713 -2.68001 0
M  V30 1983 H 187.447 -2.05558 -1.50393 0
M  V30 1984 H 188.23 -3.39565 -0.505014 0
M  V30 1985 N 190.675 0.682077 -1.42076 0
M  V30 1986 C 191.605 1.80796 -1.47767 0
M  V30 1987 C 192.586 1.6677 -0.334954 0
M  V30 1988 O 193.771 1.863 -0.548264 0
M  V30 1989 C 190.901 3.19038 -1.37229 0
M  V30 1990 C 189.855 3.47789 -2.49453 0
M  V30 1991 C 189.181 4.8553 -2.23975 0
M  V30 1992 C 190.481 3.45411 -3.91776 0
M  V30 1993 H 192.175 1.7629 -2.41997 0
M  V30 1994 H 189.721 0.846721 -1.16476 0
M  V30 1995 H 191.674 3.97528 -1.39821 0
M  V30 1996 H 190.398 3.24204 -0.394907 0
M  V30 1997 H 189.057 2.71657 -2.46166 0
M  V30 1998 H 188.705 4.87337 -1.24547 0
M  V30 1999 H 188.405 5.0573 -2.99184 0
M  V30 2000 H 189.929 5.66312 -2.28304 0
M  V30 2001 H 191.343 4.13882 -3.96705 0
M  V30 2002 H 189.74 3.77145 -4.66778 0
M  V30 2003 H 190.81 2.44122 -4.18966 0
M  V30 2004 N 192.153 1.28127 0.917671 0
M  V30 2005 C 193.569 1.05749 1.19538 0
M  V30 2006 C 193.769 -0.202633 2.00479 0
M  V30 2007 O 192.825 -0.905382 2.3571 0
M  V30 2008 C 194.138 2.30273 1.93378 0
M  V30 2009 C 195.686 2.35412 2.06277 0
M  V30 2010 C 196.161 3.59692 2.83524 0
M  V30 2011 N 197.652 3.60309 2.91087 0
M  V30 2012 C 198.387 4.53147 3.51348 0
M  V30 2013 N 197.883 5.563 4.12919 0
M  V30 2014 N 199.676 4.40751 3.48849 0
M  V30 2015 H 191.827 2.09024 0.377184 0
M  V30 2016 H 194.09 0.919798 0.22951 0
M  V30 2017 H 193.796 3.22055 1.41328 0
M  V30 2018 H 193.67 2.36378 2.93947 0
M  V30 2019 H 196.057 1.4413 2.57508 0
M  V30 2020 H 196.138 2.33304 1.04895 0
M  V30 2021 H 195.782 4.51316 2.32973 0
M  V30 2022 H 195.712 3.59054 3.85211 0
M  V30 2023 H 198.203 2.85714 2.47338 0
M  V30 2024 H 198.516 6.2329 4.56869 0
M  V30 2025 H 196.861 5.60131 4.11435 0
M  V30 2026 H 200.052 3.59367 2.99955 0
M  V30 2027 H 200.225 5.13291 3.9552 0
M  V30 2028 N 193.631 -1.12557 1.10312 0
M  V30 2029 C 194.859 -1.87864 0.866873 0
M  V30 2030 C 195.274 -1.79588 -0.582557 0
M  V30 2031 O 194.631 -1.16887 -1.40156 0
M  V30 2032 C 194.682 -3.37125 1.30496 0
M  V30 2033 O 194.403 -3.45201 2.69755 0
M  V30 2034 C 195.904 -4.29373 1.10243 0
M  V30 2035 H 193.124 -0.594452 0.311236 0
M  V30 2036 H 195.668 -1.42429 1.46745 0
M  V30 2037 H 193.823 -3.80109 0.748081 0
M  V30 2038 H 194.237 -4.38056 2.88457 0
M  V30 2039 H 195.711 -5.32394 1.45811 0
M  V30 2040 H 196.188 -4.39181 0.0409492 0
M  V30 2041 H 196.794 -3.92169 1.64571 0
M  V30 2042 N 195.109 -0.891671 -1.2995 0
M  V30 2043 C 196.358 -0.509521 -1.95158 0
M  V30 2044 C 196.671 0.947388 -1.71125 0
M  V30 2045 O 197.877 1.43669 -2.30372 0
M  V30 2046 C 196.333 -0.860315 -3.49466 0
M  V30 2047 C 195.941 -2.33545 -3.8231 0
M  V30 2048 C 197.685 -0.547687 -4.20952 0
M  V30 2049 C 195.592 -2.62752 -5.29826 0
M  V30 2050 H 194.522 -0.18682 -0.730489 0
M  V30 2051 H 197.173 -1.08756 -1.47798 0
M  V30 2052 H 195.555 -0.211285 -3.95436 0
M  V30 2053 H 196.729 -3.02936 -3.47227 0
M  V30 2054 H 195.044 -2.61629 -3.23944 0
M  V30 2055 H 197.641 -0.742854 -5.29515 0
M  V30 2056 H 197.984 0.51332 -4.13123 0
M  V30 2057 H 198.517 -1.1542 -3.80688 0
M  V30 2058 H 195.256 -3.6762 -5.42712 0
M  V30 2059 H 194.776 -1.97977 -5.66185 0
M  V30 2060 H 196.455 -2.48601 -5.97333 0
M  V30 2061 N 196.587 1.43421 -0.653314 0
M  V30 2062 C 197.815 2.06163 -0.174491 0
M  V30 2063 C 198.23 1.48969 1.1599 0
M  V30 2064 O 197.587 0.621042 1.71608 0
M  V30 2065 C 197.638 3.61417 -0.0774865 0
M  V30 2066 O 197.359 4.16485 -1.35912 0
M  V30 2067 C 198.86 4.41235 0.427402 0
M  V30 2068 H 196.08 0.664946 -0.0899353 0
M  V30 2069 H 198.624 1.83924 -0.893988 0
M  V30 2070 H 196.779 3.82841 0.59257 0
M  V30 2071 H 197.193 5.10153 -1.21839 0
M  V30 2072 H 198.667 5.5021 0.44423 0
M  V30 2073 H 199.144 4.14268 1.45873 0
M  V30 2074 H 199.75 4.2478 -0.210167 0
M  V30 2075 N 198.065 0.39524 1.52563 0
M  V30 2076 C 199.028 -0.425001 2.25225 0
M  V30 2077 C 200.028 -0.985266 1.27079 0
M  V30 2078 O 201.218 -0.866332 1.5113 0
M  V30 2079 C 198.35 -1.59686 3.01186 0
M  V30 2080 H 199.543 0.211233 2.99155 0
M  V30 2081 H 197.096 0.147472 1.55603 0
M  V30 2082 H 197.831 -2.27035 2.31572 0
M  V30 2083 H 197.616 -1.20176 3.73229 0
M  V30 2084 H 199.106 -2.17743 3.5634 0
M  V30 2085 N 199.544 -1.57102 0.125237 0
M  V30 2086 C 200.821 -1.86953 -0.575142 0
M  V30 2087 C 201.201 -1.02749 -1.84407 0
M  V30 2088 O 200.549 -0.108144 -2.28244 0
M  V30 2089 C 200.759 -3.38198 -0.861583 0
M  V30 2090 C 202.107 -4.06937 -1.21192 0
M  V30 2091 O 203.131 -3.43252 -0.951645 0
M  V30 2092 O 201.99 -5.19364 -1.70068 0
M  V30 2093 H 199.084 -0.774147 -0.290906 0
M  V30 2094 H 201.63 -1.68942 0.160211 0
M  V30 2095 H 200.402 -3.91282 0.0373647 0
M  V30 2096 H 200.025 -3.61661 -1.65188 0
M  V30 2097 N 201.022 0.148545 -1.56898 0
M  V30 2098 C 202.25 0.876389 -1.87422 0
M  V30 2099 C 202.665 1.74809 -0.713256 0
M  V30 2100 O 202.022 1.79725 0.317025 0
M  V30 2101 C 202.073 1.73438 -3.17178 0
M  V30 2102 O 201.794 0.897809 -4.28802 0
M  V30 2103 C 203.295 2.56993 -3.61205 0
M  V30 2104 H 200.515 0.253489 -0.621277 0
M  V30 2105 H 203.059 0.141798 -2.04008 0
M  V30 2106 H 201.214 2.42205 -3.0235 0
M  V30 2107 H 201.628 1.48672 -5.02988 0
M  V30 2108 H 203.102 3.12773 -4.54838 0
M  V30 2109 H 203.579 3.32958 -2.86419 0
M  V30 2110 H 204.185 1.9352 -3.78722 0
M  V30 2111 N 202.5 1.5196 0.417844 0
M  V30 2112 C 203.747 1.65591 1.16559 0
M  V30 2113 C 204.075 0.381565 1.90721 0
M  V30 2114 O 203.33 -0.635156 1.85106 0
M  V30 2115 C 203.629 2.82269 2.19223 0
M  V30 2116 C 203.295 4.20819 1.61933 0
M  V30 2117 C 201.957 4.58506 1.46033 0
M  V30 2118 C 204.309 5.07196 1.20008 0
M  V30 2119 C 201.637 5.80257 0.867113 0
M  V30 2120 C 203.989 6.29544 0.621086 0
M  V30 2121 C 202.653 6.65987 0.449144 0
M  V30 2122 H 201.923 0.605939 0.42652 0
M  V30 2123 H 204.57 1.86041 0.45397 0
M  V30 2124 H 202.875 2.56118 2.96498 0
M  V30 2125 H 204.572 2.90012 2.76936 0
M  V30 2126 H 201.162 3.91116 1.7529 0
M  V30 2127 H 205.346 4.7867 1.31105 0
M  V30 2128 H 200.602 6.07124 0.721833 0
M  V30 2129 H 204.776 6.95805 0.287798 0
M  V30 2130 H 202.403 7.60199 -0.012632 0
M  V30 2131 N 203.978 -0.674533 1.42435 0
M  V30 2132 C 205.394 -0.98769 1.25367 0
M  V30 2133 C 205.594 -2.00879 0.158044 0
M  V30 2134 O 204.65 -2.48075 -0.470633 0
M  V30 2135 C 205.963 -1.49224 2.6106 0
M  V30 2136 C 207.511 -1.61 2.68417 0
M  V30 2137 C 207.986 -2.14852 4.04478 0
M  V30 2138 N 209.477 -2.22185 4.06434 0
M  V30 2139 C 210.212 -2.64928 5.08528 0
M  V30 2140 N 209.708 -3.07121 6.21006 0
M  V30 2141 N 211.501 -2.64679 4.95885 0
M  V30 2142 H 203.652 0.00152503 2.124 0
M  V30 2143 H 205.915 -0.0618434 0.945981 0
M  V30 2144 H 205.621 -0.816453 3.42092 0
M  V30 2145 H 205.495 -2.47094 2.84999 0
M  V30 2146 H 207.882 -2.27686 1.87732 0
M  V30 2147 H 207.963 -0.616195 2.48267 0
M  V30 2148 H 207.607 -1.48775 4.85622 0
M  V30 2149 H 207.537 -3.15024 4.2198 0
M  V30 2150 H 210.028 -1.92435 3.25234 0
M  V30 2151 H 210.341 -3.38423 6.94759 0
M  V30 2152 H 208.686 -3.04978 6.24511 0
M  V30 2153 H 211.877 -2.31078 4.07088 0
M  V30 2154 H 212.05 -2.9767 5.75584 0
M  V30 2155 N 205.456 -1.28612 -0.910864 0
M  V30 2156 C 206.403 -1.12786 -2.01365 0
M  V30 2157 C 207.373 -0.024201 -1.66082 0
M  V30 2158 O 208.558 -0.189667 -1.89855 0
M  V30 2159 C 205.698 -0.798743 -3.35729 0
M  V30 2160 C 204.811 -1.98173 -3.83864 0
M  V30 2161 C 203.946 -1.59298 -5.06752 0
M  V30 2162 C 202.985 -2.74245 -5.47226 0
M  V30 2163 N 202.122 -2.35842 -6.61304 0
M  V30 2164 H 206.962 -2.07142 -2.14234 0
M  V30 2165 H 204.499 -1.03093 -1.0493 0
M  V30 2166 H 206.457 -0.588662 -4.13026 0
M  V30 2167 H 205.087 0.10789 -3.2262 0
M  V30 2168 H 204.139 -2.30386 -3.02699 0
M  V30 2169 H 205.451 -2.84343 -4.09818 0
M  V30 2170 H 204.605 -1.34513 -5.916 0
M  V30 2171 H 203.344 -0.702618 -4.82612 0
M  V30 2172 H 202.349 -2.99725 -4.60918 0
M  V30 2173 H 203.574 -3.63928 -5.73353 0
M  V30 2174 H 201.52 -1.49279 -6.38789 0
M  V30 2175 H 201.437 -3.15546 -6.86998 0
M  V30 2176 H 202.705 -2.14348 -7.4945 0
M  V30 2177 N 206.934 1.1197 -1.10907 0
M  V30 2178 C 207.864 2.19928 -0.784473 0
M  V30 2179 C 208.845 1.6833 0.244726 0
M  V30 2180 O 210.03 1.93892 0.109418 0
M  V30 2181 C 207.16 3.46597 -0.220827 0
M  V30 2182 C 206.114 4.11376 -1.18127 0
M  V30 2183 C 205.44 5.32554 -0.478594 0
M  V30 2184 C 206.74 4.56945 -2.52979 0
M  V30 2185 H 208.434 2.47337 -1.68715 0
M  V30 2186 H 205.98 1.18879 -0.812642 0
M  V30 2187 H 207.933 4.21396 0.0184278 0
M  V30 2188 H 206.657 3.1863 0.717113 0
M  V30 2189 H 205.316 3.38564 -1.40606 0
M  V30 2190 H 204.964 5.00856 0.463976 0
M  V30 2191 H 204.664 5.76844 -1.11912 0
M  V30 2192 H 206.188 6.10096 -0.248 0
M  V30 2193 H 207.602 5.23093 -2.3462 0
M  V30 2194 H 205.999 5.1203 -3.12962 0
M  V30 2195 H 207.069 3.70676 -3.12614 0
M  V30 2196 N 208.412 0.89855 1.29475 0
M  V30 2197 C 209.659 0.523882 1.95606 0
M  V30 2198 C 209.987 -0.929608 1.70847 0
M  V30 2199 O 209.242 -1.67401 1.01367 0
M  V30 2200 C 209.541 0.761398 3.49195 0
M  V30 2201 C 209.207 2.19207 3.94029 0
M  V30 2202 C 207.869 2.58326 4.05982 0
M  V30 2203 C 210.221 3.12379 4.17216 0
M  V30 2204 C 207.549 3.898 4.38489 0
M  V30 2205 C 209.901 4.43401 4.51197 0
M  V30 2206 C 208.565 4.82394 4.61359 0
M  V30 2207 H 207.835 0.191702 0.715773 0
M  V30 2208 H 210.482 1.13699 1.54094 0
M  V30 2209 H 208.787 0.0653622 3.91745 0
M  V30 2210 H 210.484 0.450904 3.98457 0
M  V30 2211 H 207.074 1.87846 3.85242 0
M  V30 2212 H 211.258 2.83371 4.07449 0
M  V30 2213 H 206.514 4.19734 4.44559 0
M  V30 2214 H 210.688 5.15623 4.68087 0
M  V30 2215 H 208.315 5.84306 4.86303 0
M  V30 2216 N 209.89 -1.43072 0.660911 0
M  V30 2217 C 211.306 -1.56169 0.329173 0
M  V30 2218 C 211.506 -1.64317 -1.16629 0
M  V30 2219 O 210.562 -1.60245 -1.95135 0
M  V30 2220 C 211.875 -2.81873 1.04729 0
M  V30 2221 C 213.423 -2.95627 1.02828 0
M  V30 2222 C 213.898 -4.24174 1.72744 0
M  V30 2223 N 215.389 -4.31055 1.69545 0
M  V30 2224 C 216.124 -5.29304 2.20511 0
M  V30 2225 N 215.62 -6.33786 2.79799 0
M  V30 2226 N 217.413 -5.21008 2.10966 0
M  V30 2227 H 209.564 -1.36027 1.63127 0
M  V30 2228 H 211.827 -0.653823 0.686454 0
M  V30 2229 H 211.533 -2.81942 2.10242 0
M  V30 2230 H 211.407 -3.72338 0.603702 0
M  V30 2231 H 213.794 -2.95094 -0.0184742 0
M  V30 2232 H 213.875 -2.06431 1.51063 0
M  V30 2233 H 213.519 -4.25467 2.7738 0
M  V30 2234 H 213.449 -5.1228 1.2197 0
M  V30 2235 H 215.94 -3.56174 1.26288 0
M  V30 2236 H 216.253 -7.05086 3.16344 0
M  V30 2237 H 214.598 -6.34387 2.83863 0
M  V30 2238 H 217.789 -4.38301 1.64347 0
M  V30 2239 H 217.962 -5.97416 2.50993 0
M  V30 2240 N 211.368 -0.403325 -1.52352 0
M  V30 2241 C 212.614 0.174605 -2.02047 0
M  V30 2242 C 212.947 1.45282 -1.28867 0
M  V30 2243 O 212.222 1.90483 -0.393257 0
M  V30 2244 C 212.505 0.428238 -3.57545 0
M  V30 2245 C 212.358 -0.866248 -4.4138 0
M  V30 2246 C 213.677 1.21287 -4.23057 0
M  V30 2247 H 210.796 0.0619851 -0.734389 0
M  V30 2248 H 213.438 -0.53565 -1.82293 0
M  V30 2249 H 211.588 1.03327 -3.74507 0
M  V30 2250 H 213.26 -1.50265 -4.3614 0
M  V30 2251 H 211.503 -1.47851 -4.07827 0
M  V30 2252 H 212.174 -0.643249 -5.48239 0
M  V30 2253 H 214.65 0.700703 -4.10158 0
M  V30 2254 H 213.526 1.35909 -5.31808 0
M  V30 2255 H 213.787 2.23193 -3.81625 0
M  V30 2256 N 212.846 1.57033 -0.133567 0
M  V30 2257 C 214.076 1.99754 0.527429 0
M  V30 2258 C 214.484 1.01245 1.59832 0
M  V30 2259 O 213.827 -0.000645496 1.837 0
M  V30 2260 C 213.889 3.38903 1.19939 0
M  V30 2261 C 213.553 4.56174 0.274709 0
M  V30 2262 C 214.55 5.17563 -0.492398 0
M  V30 2263 C 212.235 5.01972 0.18153 0
M  V30 2264 C 214.229 6.2315 -1.34027 0
M  V30 2265 C 211.916 6.07416 -0.669958 0
M  V30 2266 C 212.914 6.67874 -1.42947 0
M  V30 2267 O 212.602 7.71279 -2.2668 0
M  V30 2268 H 212.334 0.660702 0.142999 0
M  V30 2269 H 214.888 2.04207 -0.221099 0
M  V30 2270 H 213.118 3.31248 1.99528 0
M  V30 2271 H 214.807 3.65818 1.75875 0
M  V30 2272 H 215.573 4.83087 -0.430367 0
M  V30 2273 H 211.452 4.54652 0.762422 0
M  V30 2274 H 214.996 6.70268 -1.93357 0
M  V30 2275 H 210.893 6.41321 -0.73333 0
M  V30 2276 H 211.661 7.88441 -2.1978 0
M  V30 2277 N 214.325 -0.140222 1.56975 0
M  V30 2278 C 215.55 -0.870414 1.88251 0
M  V30 2279 C 215.975 -1.73637 0.723312 0
M  V30 2280 O 215.333 -1.78329 -0.32689 0
M  V30 2281 C 215.381 -1.69737 3.18154 0
M  V30 2282 O 214.485 -2.80229 3.02565 0
M  V30 2283 H 213.826 -0.242025 0.61832 0
M  V30 2284 H 216.356 -0.128999 2.04193 0
M  V30 2285 H 216.366 -2.09099 3.50345 0
M  V30 2286 H 215.041 -1.06152 4.02125 0
M  V30 2287 H 213.618 -2.44224 2.81796 0
M  V30 2288 N 215.803 -1.52179 -0.40978 0
M  V30 2289 C 216.751 -1.76086 -1.51975 0
M  V30 2290 C 217.745 -0.627964 -1.57331 0
M  V30 2291 O 218.951 -0.809993 -1.60745 0
M  V30 2292 H 215.326 -0.556829 -0.505416 0
M  V30 2293 H 217.297 -2.69077 -1.28996 0
M  V30 2294 C 216.046 -1.92799 -2.8935 0
M  V30 2295 H 215.369 -2.79392 -2.85972 0
M  V30 2296 H 216.809 -2.13527 -3.66309 0
M  V30 2297 C 215.268 -0.694923 -3.29655 0
M  V30 2298 O 215.798 0.13751 -4.01465 0
M  V30 2299 N 214.004 -0.53101 -2.85707 0
M  V30 2300 H 213.551 -1.20952 -2.27439 0
M  V30 2301 H 213.509 0.292718 -3.13034 0
M  V30 2302 N 217.281 0.66697 -1.42791 0
M  V30 2303 C 218.528 1.42699 -1.43678 0
M  V30 2304 C 218.856 1.94419 -0.0560425 0
M  V30 2305 O 218.111 1.7182 0.936831 0
M  V30 2306 C 218.41 2.6349 -2.4147 0
M  V30 2307 C 218.076 2.30267 -3.8767 0
M  V30 2308 C 216.738 2.20918 -4.27491 0
M  V30 2309 C 219.09 2.03435 -4.79858 0
M  V30 2310 C 216.418 1.82873 -5.57471 0
M  V30 2311 C 218.77 1.66892 -6.10188 0
M  V30 2312 C 217.434 1.56058 -6.49001 0
M  V30 2313 H 216.704 0.522171 -0.525755 0
M  V30 2314 H 219.351 0.759785 -1.75783 0
M  V30 2315 H 217.656 3.35279 -2.0272 0
M  V30 2316 H 219.353 3.21684 -2.39417 0
M  V30 2317 H 215.943 2.38449 -3.56146 0
M  V30 2318 H 220.127 2.09586 -4.49875 0
M  V30 2319 H 215.383 1.7306 -5.86396 0
M  V30 2320 H 219.557 1.45157 -6.81104 0
M  V30 2321 H 217.184 1.26348 -7.49627 0
M  V30 2322 N 218.759 1.29093 0.90403 0
M  V30 2323 C 219.689 1.16401 2.02418 0
M  V30 2324 C 220.67 0.0593085 1.69997 0
M  V30 2325 O 221.855 0.238021 1.92736 0
M  V30 2326 C 218.985 0.835233 3.37107 0
M  V30 2327 C 217.939 1.89578 3.83724 0
M  V30 2328 C 217.265 1.42041 5.15489 0
M  V30 2329 C 218.565 3.30394 4.04521 0
M  V30 2330 H 220.259 2.10109 2.13295 0
M  V30 2331 H 217.805 1.01157 1.02486 0
M  V30 2332 H 219.758 0.733169 4.14973 0
M  V30 2333 H 218.482 -0.137543 3.2631 0
M  V30 2334 H 217.141 1.98715 3.08071 0
M  V30 2335 H 216.789 0.436426 5.01103 0
M  V30 2336 H 216.489 2.12964 5.4765 0
M  V30 2337 H 218.013 1.33176 5.959 0
M  V30 2338 H 219.427 3.24123 4.72882 0
M  V30 2339 H 217.824 3.99237 4.48029 0
M  V30 2340 H 218.894 3.73692 3.09002 0
M  V30 2341 N 220.237 -1.11381 1.11499 0
M  V30 2342 C 221.653 -1.35143 0.849031 0
M  V30 2343 C 221.853 -1.94515 -0.525938 0
M  V30 2344 O 220.909 -2.1785 -1.27662 0
M  V30 2345 C 222.222 -2.28249 1.95762 0
M  V30 2346 C 223.77 -2.41812 1.98736 0
M  V30 2347 C 224.245 -3.3824 3.088 0
M  V30 2348 N 225.736 -3.45803 3.08179 0
M  V30 2349 C 226.471 -4.20358 3.89982 0
M  V30 2350 N 225.967 -4.97884 4.8175 0
M  V30 2351 N 227.76 -4.15877 3.78157 0
M  V30 2352 H 219.911 -0.712062 2.00109 0
M  V30 2353 H 222.174 -0.376025 0.870235 0
M  V30 2354 H 221.88 -1.91817 2.94787 0
M  V30 2355 H 221.754 -3.28473 1.85433 0
M  V30 2356 H 224.141 -2.77518 1.00338 0
M  V30 2357 H 224.222 -1.41437 2.13141 0
M  V30 2358 H 223.866 -3.03261 4.07425 0
M  V30 2359 H 223.796 -4.38471 2.91635 0
M  V30 2360 H 226.287 -2.90506 2.41691 0
M  V30 2361 H 226.6 -5.52142 5.40702 0
M  V30 2362 H 224.945 -4.97043 4.85771 0
M  V30 2363 H 228.136 -3.544 3.05808 0
M  V30 2364 H 228.309 -4.73723 4.42143 0
M  V30 2365 N 221.715 -0.905404 -1.28997 0
M  V30 2366 C 222.963 -0.533192 -1.9494 0
M  V30 2367 C 223.284 0.924618 -1.71685 0
M  V30 2368 O 222.554 1.65268 -1.05183 0
M  V30 2369 H 221.134 -0.194194 -0.721317 0
M  V30 2370 H 223.796 -1.15294 -1.57141 0
M  V30 2371 H 222.892 -0.72059 -3.03667 0
M  V30 2372 N 223.193 1.4272 -0.668489 0
M  V30 2373 C 224.14 2.30796 0.0137489 0
M  V30 2374 C 225.11 1.4561 0.799177 0
M  V30 2375 O 226.295 1.74453 0.772702 0
M  V30 2376 C 223.435 3.31377 0.963507 0
M  V30 2377 C 222.548 4.31655 0.172569 0
M  V30 2378 C 221.683 5.19312 1.1175 0
M  V30 2379 C 220.722 6.11274 0.317886 0
M  V30 2380 N 219.859 6.91504 1.2152 0
M  V30 2381 H 224.699 2.88585 -0.743161 0
M  V30 2382 H 222.236 1.42154 -0.378226 0
M  V30 2383 H 224.194 3.88214 1.52792 0
M  V30 2384 H 222.824 2.75202 1.68712 0
M  V30 2385 H 221.876 3.76988 -0.508374 0
M  V30 2386 H 223.188 4.96779 -0.448527 0
M  V30 2387 H 222.342 5.80851 1.75206 0
M  V30 2388 H 221.081 4.5435 1.77249 0
M  V30 2389 H 220.086 5.48809 -0.329918 0
M  V30 2390 H 221.311 6.78283 -0.332917 0
M  V30 2391 H 219.257 6.29176 1.85671 0
M  V30 2392 H 219.174 7.53209 0.649036 0
M  V30 2393 H 220.442 7.57535 1.83742 0
M  V30 2394 N 224.671 0.411399 1.52136 0
M  V30 2395 C 225.601 -0.404015 2.29978 0
M  V30 2396 C 226.582 -1.04412 1.34284 0
M  V30 2397 O 227.767 -1.0527 1.63192 0
M  V30 2398 C 224.897 -1.5197 3.12286 0
M  V30 2399 C 223.851 -1.00448 4.16046 0
M  V30 2400 C 223.177 -2.21393 4.86712 0
M  V30 2401 C 224.477 -0.0569336 5.22269 0
M  V30 2402 H 226.171 0.245529 2.98392 0
M  V30 2403 H 223.717 0.119525 1.43503 0
M  V30 2404 H 225.67 -2.09715 3.6551 0
M  V30 2405 H 224.394 -2.19716 2.41646 0
M  V30 2406 H 223.053 -0.449421 3.63835 0
M  V30 2407 H 222.701 -2.87699 4.12599 0
M  V30 2408 H 222.401 -1.87571 5.56858 0
M  V30 2409 H 223.925 -2.7974 5.4275 0
M  V30 2410 H 225.339 -0.54325 5.7072 0
M  V30 2411 H 223.736 0.192594 5.99791 0
M  V30 2412 H 224.806 0.887663 4.76706 0
M  V30 2413 N 226.149 -1.5696 0.141893 0
M  V30 2414 C 227.096 -2.16501 -0.799737 0
M  V30 2415 C 228.066 -1.09643 -1.24771 0
M  V30 2416 O 229.251 -1.3766 -1.32115 0
M  V30 2417 C 226.391 -2.78679 -2.03549 0
M  V30 2418 C 225.504 -3.99914 -1.6338 0
M  V30 2419 C 224.639 -4.50106 -2.82096 0
M  V30 2420 C 223.678 -5.63819 -2.38275 0
M  V30 2421 N 222.815 -6.08651 -3.49983 0
M  V30 2422 H 227.655 -2.96632 -0.285179 0
M  V30 2423 H 225.192 -1.46533 -0.129053 0
M  V30 2424 H 227.15 -3.1287 -2.75986 0
M  V30 2425 H 225.78 -2.012 -2.52425 0
M  V30 2426 H 224.832 -3.71735 -0.807279 0
M  V30 2427 H 226.144 -4.82311 -1.27192 0
M  V30 2428 H 225.298 -4.86325 -3.62729 0
M  V30 2429 H 224.037 -3.66706 -3.21525 0
M  V30 2430 H 223.042 -5.2718 -1.56081 0
M  V30 2431 H 224.267 -6.49 -1.99938 0
M  V30 2432 H 222.213 -5.28188 -3.89042 0
M  V30 2433 H 222.13 -6.85961 -3.17794 0
M  V30 2434 H 223.398 -6.49515 -4.30988 0
M  V30 2435 N 227.627 0.131896 -1.57047 0
M  V30 2436 C 228.557 1.16384 -2.02428 0
M  V30 2437 C 229.538 1.43936 -0.90644 0
M  V30 2438 O 230.723 1.54599 -1.17528 0
M  V30 2439 C 227.853 2.49328 -2.4177 0
M  V30 2440 C 226.807 2.36266 -3.56879 0
M  V30 2441 C 226.133 3.74057 -3.8208 0
M  V30 2442 C 227.433 1.834 -4.89042 0
M  V30 2443 H 229.127 0.786433 -2.88887 0
M  V30 2444 H 226.673 0.376855 -1.38981 0
M  V30 2445 H 228.626 3.21759 -2.7212 0
M  V30 2446 H 227.35 2.88934 -1.52266 0
M  V30 2447 H 226.009 1.66286 -3.26718 0
M  V30 2448 H 225.657 4.11125 -2.89803 0
M  V30 2449 H 225.357 3.66174 -4.59554 0
M  V30 2450 H 226.881 4.48012 -4.1487 0
M  V30 2451 H 228.295 2.45636 -5.18011 0
M  V30 2452 H 226.692 1.8637 -5.70426 0
M  V30 2453 H 227.762 0.790662 -4.7841 0
M  V30 2454 N 229.106 1.52395 0.401703 0
M  V30 2455 C 230.336 1.70429 1.1678 0
M  V30 2456 C 230.744 0.416702 1.84554 0
M  V30 2457 O 230.087 -0.617697 1.73003 0
M  V30 2458 C 230.149 2.78919 2.26814 0
M  V30 2459 C 229.813 4.20437 1.79113 0
M  V30 2460 C 230.81 5.04028 1.27482 0
M  V30 2461 C 228.495 4.66704 1.85722 0
M  V30 2462 C 230.489 6.31961 0.830913 0
M  V30 2463 C 228.176 5.94625 1.40942 0
M  V30 2464 C 229.174 6.77082 0.897128 0
M  V30 2465 O 228.862 8.02607 0.455822 0
M  V30 2466 H 228.594 0.574272 0.356634 0
M  V30 2467 H 231.148 1.99767 0.477724 0
M  V30 2468 H 229.378 2.44973 2.99207 0
M  V30 2469 H 231.067 2.8548 2.88541 0
M  V30 2470 H 231.833 4.69471 1.21744 0
M  V30 2471 H 227.712 4.0262 2.24539 0
M  V30 2472 H 231.256 6.96271 0.430368 0
M  V30 2473 H 227.153 6.28688 1.46362 0
M  V30 2474 H 227.921 8.16453 0.578457 0
M  V30 2475 N 230.584 -0.659388 1.43143 0
M  V30 2476 C 231.812 -1.44723 1.47861 0
M  V30 2477 C 232.227 -1.88563 0.0945886 0
M  V30 2478 O 231.584 -1.59108 -0.893915 0
M  V30 2479 C 231.635 -2.68627 2.41913 0
M  V30 2480 O 231.356 -2.26623 3.74932 0
M  V30 2481 C 232.857 -3.62045 2.55809 0
M  V30 2482 H 230.077 -0.444801 0.502387 0
M  V30 2483 H 232.621 -0.808916 1.87821 0
M  V30 2484 H 230.776 -3.28613 2.05164 0
M  V30 2485 H 231.19 -3.06745 4.2545 0
M  V30 2486 H 232.664 -4.45666 3.25708 0
M  V30 2487 H 233.141 -4.08981 1.60099 0
M  V30 2488 H 233.747 -3.07944 2.93344 0
M  V30 2489 N 232.062 -1.29571 -0.897171 0
M  V30 2490 C 233.31 -1.17456 -1.64464 0
M  V30 2491 C 233.631 0.273698 -1.9307 0
M  V30 2492 O 232.901 1.18684 -1.55855 0
M  V30 2493 H 231.481 -0.431706 -0.609622 0
M  V30 2494 H 234.143 -1.62531 -1.07562 0
M  V30 2495 H 233.239 -1.72648 -2.59998 0
M  V30 2496 N 233.54 1.10788 -1.12088 0
M  V30 2497 C 234.45 2.20599 -0.798338 0
M  V30 2498 C 235.466 1.72712 0.21135 0
M  V30 2499 O 236.642 2.01348 0.0458477 0
M  V30 2500 C 233.707 3.45771 -0.253674 0
M  V30 2501 C 232.768 4.08411 -1.32283 0
M  V30 2502 C 232.001 5.27608 -0.80406 0
M  V30 2503 O 232.224 5.69241 0.363478 0
M  V30 2504 O 231.158 5.8101 -1.57198 0
M  V30 2505 H 234.984 2.50614 -1.7154 0
M  V30 2506 H 232.569 1.19454 -0.897275 0
M  V30 2507 H 234.451 4.21376 0.0453691 0
M  V30 2508 H 233.126 3.1739 0.636005 0
M  V30 2509 H 232.033 3.34507 -1.67499 0
M  V30 2510 H 233.366 4.40986 -2.18614 0
M  V30 2511 N 235.018 0.912232 1.28515 0
M  V30 2512 C 235.981 0.404223 2.25607 0
M  V30 2513 C 236.981 -0.468602 1.53821 0
M  V30 2514 O 238.171 -0.271873 1.72065 0
M  V30 2515 C 235.303 -0.420653 3.38295 0
M  V30 2516 H 236.496 1.26188 2.7206 0
M  V30 2517 H 234.049 0.691495 1.40171 0
M  V30 2518 H 234.784 -1.29777 2.97201 0
M  V30 2519 H 234.569 0.204935 3.91564 0
M  V30 2520 H 236.059 -0.766971 4.10496 0
M  V30 2521 N 236.496 -1.42363 0.676048 0
M  V30 2522 C 237.736 -2.03392 0.20273 0
M  V30 2523 C 238.1 -1.52306 -1.16906 0
M  V30 2524 O 239.301 -2.05129 -1.73711 0
M  V30 2525 C 237.572 -3.56614 0.236947 0
M  V30 2526 S 239.131 -4.38489 -0.165186 0
M  V30 2527 H 235.949 -0.70611 0.0832418 0
M  V30 2528 H 238.551 -1.74093 0.88948 0
M  V30 2529 H 237.255 -3.91293 1.23767 0
M  V30 2530 H 236.786 -3.90587 -0.469596 0
M  V30 2531 H 238.801 -4.76093 -1.39822 0
M  V30 2532 N 237.974 -0.419461 -1.51915 0
M  V30 2533 C 239.39 -0.0708431 -1.59443 0
M  V30 2534 C 239.59 1.41796 -1.43164 0
M  V30 2535 O 238.646 2.18596 -1.26381 0
M  V30 2536 C 239.959 -0.574991 -2.95151 0
M  V30 2537 C 241.507 -0.533867 -3.08413 0
M  V30 2538 C 241.982 -1.01469 -4.46618 0
M  V30 2539 N 243.473 -0.971939 -4.52888 0
M  V30 2540 C 244.208 -1.31505 -5.58116 0
M  V30 2541 N 243.704 -1.73014 -6.70849 0
M  V30 2542 N 245.497 -1.23436 -5.48379 0
M  V30 2543 H 237.648 -1.38836 -1.60743 0
M  V30 2544 H 239.911 -0.570998 -0.756747 0
M  V30 2545 H 239.617 -1.61597 -3.12377 0
M  V30 2546 H 239.491 0.00979777 -3.77199 0
M  V30 2547 H 241.878 0.498086 -2.90866 0
M  V30 2548 H 241.959 -1.15484 -2.28248 0
M  V30 2549 H 241.603 -2.04502 -4.6491 0
M  V30 2550 H 241.533 -0.370433 -5.25295 0
M  V30 2551 H 244.024 -0.666893 -3.71969 0
M  V30 2552 H 244.337 -1.97479 -7.47143 0
M  V30 2553 H 242.682 -1.76926 -6.72103 0
M  V30 2554 H 245.873 -0.908869 -4.59192 0
M  V30 2555 H 246.046 -1.50506 -6.30279 0
M  V30 2556 N 239.452 1.56882 -0.150215 0
M  V30 2557 C 240.68 2.00593 0.506948 0
M  V30 2558 C 241.095 1.03033 1.58208 0
M  V30 2559 O 240.452 0.0278396 1.82479 0
M  V30 2560 C 240.503 3.44209 1.10465 0
M  V30 2561 O 240.224 4.3804 0.0724636 0
M  V30 2562 C 241.725 4.03214 1.84211 0
M  V30 2563 H 238.945 0.65795 0.13169 0
M  V30 2564 H 241.489 2.03018 -0.245743 0
M  V30 2565 H 239.644 3.42625 1.80795 0
M  V30 2566 H 240.058 5.22007 0.510793 0
M  V30 2567 H 241.532 5.0569 2.21318 0
M  V30 2568 H 242.009 3.44107 2.72923 0
M  V30 2569 H 242.615 4.08437 1.18572 0
M  V30 2570 N 240.93 -0.123565 1.57115 0
M  V30 2571 C 242.178 -0.83051 1.84247 0
M  V30 2572 C 242.499 -1.80629 0.73471 0
M  V30 2573 O 241.769 -1.94403 -0.241688 0
M  V30 2574 H 240.349 -0.309694 0.679778 0
M  V30 2575 H 243.011 -0.111976 1.94578 0
M  V30 2576 H 242.107 -1.37852 2.80006 0
M  V30 2577 N 242.408 -1.52605 -0.393616 0
M  V30 2578 C 243.685 -1.58001 -1.15304 0
M  V30 2579 C 244.065 -0.370385 -2.07825 0
M  V30 2580 O 243.413 0.641638 -2.19306 0
M  V30 2581 C 243.623 -2.91652 -1.91677 0
M  V30 2582 C 244.971 -3.4522 -2.47201 0
M  V30 2583 O 245.995 -2.93495 -2.01839 0
M  V30 2584 O 244.854 -4.35579 -3.3005 0
M  V30 2585 H 241.948 -0.637068 -0.527327 0
M  V30 2586 H 244.494 -1.64939 -0.399141 0
M  V30 2587 H 243.266 -3.71136 -1.23992 0
M  V30 2588 H 242.889 -2.88077 -2.74039 0
M  V30 2589 N 243.887 0.651787 -1.4349 0
M  V30 2590 C 245.303 0.96762 -1.26922 0
M  V30 2591 C 245.503 2.00602 -0.189982 0
M  V30 2592 O 244.559 2.48793 0.431107 0
M  V30 2593 C 245.872 1.45052 -2.63401 0
M  V30 2594 C 247.42 1.5671 -2.70945 0
M  V30 2595 C 247.895 2.0839 -4.07845 0
M  V30 2596 N 249.386 2.1569 -4.09917 0
M  V30 2597 C 250.121 2.56804 -5.12679 0
M  V30 2598 N 249.617 2.97203 -6.25813 0
M  V30 2599 N 251.41 2.56756 -5.00033 0
M  V30 2600 H 243.561 -0.0353158 -2.12371 0
M  V30 2601 H 245.824 0.0467858 -0.946845 0
M  V30 2602 H 245.53 0.761926 -3.43348 0
M  V30 2603 H 245.404 2.42529 -2.88894 0
M  V30 2604 H 247.791 2.2467 -1.9133 0
M  V30 2605 H 247.872 0.57662 -2.49216 0
M  V30 2606 H 247.516 1.41031 -4.87927 0
M  V30 2607 H 247.446 3.08271 -4.26938 0
M  V30 2608 H 249.937 1.87237 -3.28254 0
M  V30 2609 H 250.25 3.27328 -7.00055 0
M  V30 2610 H 248.595 2.95004 -6.29283 0
M  V30 2611 H 251.786 2.24572 -4.10713 0
M  V30 2612 H 251.959 2.88475 -5.80247 0
M  V30 2613 O 245.404 1.40586 0.794848 0
M  V30 2614 H 246.095 1.29493 1.44053 0
M  V30 END ATOM
M  V30 BEGIN BOND
M  V30 END BOND
M  V30 END CTAB
M  END
$$$$
