drugbank_target|P19235 Erythropoietin receptor (DB00012; DB00016; DB07637; DB08894; DB09107)
 OpenBabel12092119363D

  0  0  0     0  0            999 V3000
M  V30 BEGIN CTAB
M  V30 COUNTS 7663 7782 0 0 0
M  V30 BEGIN ATOM
M  V30 1 H -0.908 1.98254 -0.117106 0
M  V30 2 N 0 1.576 0 0
M  V30 3 C 0.933 2.03868 1.02534 0
M  V30 4 C 1.911 0.928543 1.3348 0
M  V30 5 O 3.095 1.19667 1.45644 0
M  V30 6 C 0.222 2.43627 2.35294 0
M  V30 7 C -0.732 3.65373 2.2001 0
M  V30 8 S 0.101 5.13292 1.52614 0
M  V30 9 C 1.257 5.56322 2.86805 0
M  V30 10 H 1.49 2.90518 0.631377 0
M  V30 11 H -0.977 1.52953 0.210867 0
M  V30 12 H 0.981 2.67203 3.11629 0
M  V30 13 H -0.358 1.57376 2.7183 0
M  V30 14 H -1.165 3.90944 3.18086 0
M  V30 15 H -1.563 3.418 1.51819 0
M  V30 16 H 0.729 5.58782 3.83104 0
M  V30 17 H 1.672 6.56266 2.65933 0
M  V30 18 H 2.08 4.83886 2.90714 0
M  V30 19 N 1.4781 -0.272755 1.55222 0
M  V30 20 C 2.7551 -1.02562 1.66555 0
M  V30 21 C 3.1351 -2.04282 0.532189 0
M  V30 22 O 2.4831 -2.23662 -0.467717 0
M  V30 23 C 2.6931 -1.6822 3.05782 0
M  V30 24 C 4.0411 -2.19373 3.63539 0
M  V30 25 O 5.0651 -1.78206 3.08417 0
M  V30 26 O 3.9241 -2.94883 4.60115 0
M  V30 27 H 1.0181 -0.475755 0.676451 0
M  V30 28 H 3.5641 -0.268593 1.67561 0
M  V30 29 H 2.3361 -0.945112 3.79715 0
M  V30 30 H 1.9591 -2.50609 3.08676 0
M  V30 31 N 2.9562 -1.48159 -0.537278 0
M  V30 32 C 3.9062 -1.5854 -1.63857 0
M  V30 33 C 4.8902 -0.442969 -1.54682 0
M  V30 34 O 6.0822 -0.69401 -1.62827 0
M  V30 35 C 3.2112 -1.62144 -3.02596 0
M  V30 36 C 2.2972 -2.81841 -3.16901 0
M  V30 37 N 2.6882 -4.06337 -3.01204 0
M  V30 38 C 0.9862 -2.79021 -3.47942 0
M  V30 39 C 1.6872 -4.86606 -3.18731 0
M  V30 40 N 0.6632 -4.19288 -3.45974 0
M  V30 41 H 4.4652 -2.5255 -1.50319 0
M  V30 42 H 1.9792 -1.4443 -0.742555 0
M  V30 43 H 3.9762 -1.67674 -3.81695 0
M  V30 44 H 2.6362 -0.69245 -3.17231 0
M  V30 45 H 3.6472 -4.36888 -2.78117 0
M  V30 46 H 0.3242 -1.95347 -3.6898 0
M  V30 47 H 1.7142 -5.95385 -3.11394 0
M  V30 48 N 4.4343 0.785586 -1.36625 0
M  V30 49 C 5.3643 1.91259 -1.33949 0
M  V30 50 C 6.3453 1.68795 -0.210325 0
M  V30 51 O 7.5303 1.89854 -0.408561 0
M  V30 52 C 4.6603 3.28339 -1.13186 0
M  V30 53 C 3.6143 3.65335 -2.22967 0
M  V30 54 C 2.9403 5.00806 -1.87342 0
M  V30 55 C 4.2403 3.7352 -3.65075 0
M  V30 56 H 5.9343 1.93755 -2.28253 0
M  V30 57 H 3.4803 0.930788 -1.09874 0
M  V30 58 H 5.4333 4.06804 -1.09948 0
M  V30 59 H 4.1573 3.2624 -0.153332 0
M  V30 60 H 2.8163 2.89169 -2.25337 0
M  V30 61 H 2.4643 4.95233 -0.880545 0
M  V30 62 H 2.1643 5.26529 -2.60846 0
M  V30 63 H 3.6883 5.81687 -1.85667 0
M  V30 64 H 5.1023 4.42168 -3.64911 0
M  V30 65 H 3.4993 4.10731 -4.37516 0
M  V30 66 H 4.5693 2.74527 -3.99703 0
M  V30 67 N 5.9124 1.20967 1.01018 0
M  V30 68 C 7.1604 1.02172 1.74371 0
M  V30 69 C 7.4814 -0.446414 1.89821 0
M  V30 70 O 6.7514 -1.32234 1.44537 0
M  V30 71 H 5.3314 0.375066 0.646014 0
M  V30 72 H 7.9934 1.52187 1.21758 0
M  V30 73 H 7.0894 1.48538 2.74487 0
M  V30 74 N 7.3905 -1.2043 1.01659 0
M  V30 75 C 8.3535 -2.21433 0.591616 0
M  V30 76 C 9.3535 -1.57203 -0.338226 0
M  V30 77 O 10.5435 -1.73737 -0.126918 0
M  V30 78 C 7.6755 -3.40628 -0.136058 0
M  V30 79 H 8.8685 -2.60545 1.48514 0
M  V30 80 H 6.4215 -1.33893 0.806379 0
M  V30 81 H 7.1565 -3.07019 -1.04449 0
M  V30 82 H 6.9415 -3.88475 0.531917 0
M  V30 83 H 8.4315 -4.15475 -0.420735 0
M  V30 84 N 8.8686 -0.792821 -1.36206 0
M  V30 85 C 10.0936 -0.377701 -2.03932 0
M  V30 86 C 10.5186 0.998947 -1.59382 0
M  V30 87 O 9.8766 1.64421 -0.763903 0
M  V30 88 C 9.9246 -0.453635 -3.57735 0
M  V30 89 O 9.0286 0.538151 -4.08874 0
M  V30 90 H 8.3696 -0.159855 -0.644471 0
M  V30 91 H 10.8996 -1.07488 -1.7409 0
M  V30 92 H 10.9096 -0.318464 -4.06755 0
M  V30 93 H 9.5846 -1.45784 -3.89512 0
M  V30 94 H 8.1616 0.364359 -3.71116 0
M  V30 95 N 10.3467 1.47872 -0.545128 0
M  V30 96 C 11.2767 2.32661 0.197793 0
M  V30 97 C 12.2577 1.43041 0.920504 0
M  V30 98 O 13.4427 1.71912 0.90333 0
M  V30 99 C 10.5727 3.24569 1.23582 0
M  V30 100 C 9.5267 4.23333 0.630323 0
M  V30 101 C 8.8527 5.0448 1.77211 0
M  V30 102 C 10.1527 5.20704 -0.407974 0
M  V30 103 H 11.8467 2.95024 -0.510045 0
M  V30 104 H 9.3927 1.4187 -0.246731 0
M  V30 105 H 11.3457 3.8272 1.76362 0
M  V30 106 H 10.0697 2.60236 1.97344 0
M  V30 107 H 8.7287 3.6639 0.123922 0
M  V30 108 H 8.3767 4.36561 2.49847 0
M  V30 109 H 8.0767 5.71339 1.37281 0
M  V30 110 H 9.6007 5.65487 2.3034 0
M  V30 111 H 11.0147 5.7329 0.033305 0
M  V30 112 H 9.4117 5.95699 -0.725486 0
M  V30 113 H 10.4817 4.66917 -1.30828 0
M  V30 114 N 11.8248 0.280983 1.55075 0
M  V30 115 C 13.0708 -0.327573 2.00745 0
M  V30 116 C 13.4258 -1.53045 1.16598 0
M  V30 117 O 12.7188 -1.90221 0.229451 0
M  V30 118 C 12.9128 -0.754656 3.49342 0
M  V30 119 C 12.7418 0.40529 4.4787 0
M  V30 120 C 11.5118 0.890947 4.97383 0
M  V30 121 C 13.7098 1.24371 4.99035 0
M  V30 122 N 11.6918 2.01975 5.79724 0
M  V30 123 C 13.0628 2.22031 5.7888 0
M  V30 124 C 15.1178 1.27638 4.81262 0
M  V30 125 C 13.8208 3.22709 6.42846 0
M  V30 126 C 15.8468 2.27164 5.46031 0
M  V30 127 C 15.2088 3.23556 6.25692 0
M  V30 128 H 11.3078 -0.0848774 0.77738 0
M  V30 129 H 13.8918 0.406342 1.90413 0
M  V30 130 H 12.0628 -1.45778 3.60005 0
M  V30 131 H 13.7948 -1.34105 3.81835 0
M  V30 132 H 10.5498 0.469262 4.71269 0
M  V30 133 H 10.9738 2.58794 6.25584 0
M  V30 134 H 15.6158 0.544936 4.19274 0
M  V30 135 H 13.3338 3.96784 7.0398 0
M  V30 136 H 16.9198 2.30441 5.34217 0
M  V30 137 H 15.7998 3.99309 6.74924 0
M  V30 138 N 13.3029 -1.57598 0.00835791 0
M  V30 139 C 14.7139 -1.7892 -0.53333 0
M  V30 140 C 15.0649 -0.916609 -1.73473 0
M  V30 141 O 14.1899 -0.121336 -2.1606 0
M  V30 142 C 14.7849 -3.24488 -0.974313 0
M  V30 143 C 13.3439 -3.46878 -1.46125 0
M  V30 144 C 12.4909 -2.74157 -0.416302 0
M  V30 145 H 15.4419 -1.56958 0.234495 0
M  V30 146 H 15.4629 -3.3306 -1.83988 0
M  V30 147 H 14.9749 -3.87972 -0.099718 0
M  V30 148 H 13.0759 -2.8862 -2.35646 0
M  V30 149 H 13.1889 -4.55572 -1.48295 0
M  V30 150 H 11.5529 -2.39022 -0.87981 0
M  V30 151 H 12.3359 -3.40345 0.44947 0
M  V30 152 N 14.781 0.264519 -1.55364 0
M  V30 153 C 15.713 1.34965 -1.85248 0
M  V30 154 C 16.726 1.45136 -0.737525 0
M  V30 155 O 17.915 1.46801 -1.01547 0
M  V30 156 C 15.015 2.73008 -2.00797 0
M  V30 157 C 14.188 2.85324 -3.31525 0
M  V30 158 C 13.247 4.04097 -3.37034 0
M  V30 159 O 12.273 3.94455 -4.10358 0
M  V30 160 N 13.475 5.16458 -2.65049 0
M  V30 161 H 16.24 1.09672 -2.78913 0
M  V30 162 H 13.801 0.454635 -1.55386 0
M  V30 163 H 15.793 3.50772 -2.01844 0
M  V30 164 H 14.363 2.91087 -1.1396 0
M  V30 165 H 13.583 1.94377 -3.42945 0
M  V30 166 H 14.871 2.9049 -4.17724 0
M  V30 167 H 14.269 5.27181 -2.05175 0
M  V30 168 H 12.826 5.92422 -2.71809 0
M  V30 169 N 16.2591 1.48442 0.529413 0
M  V30 170 C 17.5051 1.5672 1.28711 0
M  V30 171 C 17.8381 0.2406 1.92704 0
M  V30 172 O 17.1131 -0.753454 1.79313 0
M  V30 173 C 17.3961 2.70587 2.37603 0
M  V30 174 C 17.2491 4.12953 1.78297 0
M  V30 175 C 18.5681 2.80212 3.39366 0
M  V30 176 H 15.6871 0.570474 0.466613 0
M  V30 177 H 18.3291 1.80617 0.589706 0
M  V30 178 H 16.4791 2.50342 2.97088 0
M  V30 179 H 18.1511 4.44639 1.22858 0
M  V30 180 H 16.3941 4.19927 1.0883 0
M  V30 181 H 17.0651 4.88448 2.57144 0
M  V30 182 H 19.5411 2.98553 2.89836 0
M  V30 183 H 18.4171 3.61611 4.12951 0
M  V30 184 H 18.6781 1.88393 3.99951 0
M  V30 185 N 17.7372 -0.778329 1.37039 0
M  V30 186 C 18.9852 -1.53361 1.31623 0
M  V30 187 C 19.3062 -1.94739 -0.100831 0
M  V30 188 O 18.5762 -1.65797 -1.04347 0
M  V30 189 H 17.1562 -0.568794 0.484234 0
M  V30 190 H 19.8182 -0.926742 1.71457 0
M  V30 191 H 18.9142 -2.43606 1.95096 0
M  V30 192 N 19.2153 -1.21501 -1.00376 0
M  V30 193 C 20.4403 -1.05977 -1.78279 0
M  V30 194 C 20.8653 0.385994 -1.84097 0
M  V30 195 O 20.2233 1.27849 -1.28547 0
M  V30 196 C 20.2713 -1.66302 -3.19963 0
M  V30 197 O 19.3753 -0.909333 -4.0225 0
M  V30 198 H 18.7163 -0.372906 -0.549397 0
M  V30 199 H 21.2463 -1.6107 -1.26165 0
M  V30 200 H 21.2563 -1.70574 -3.70632 0
M  V30 201 H 19.9313 -2.71515 -3.15043 0
M  V30 202 H 18.5083 -0.941795 -3.60811 0
M  V30 203 N 20.6934 1.19889 -1.02296 0
M  V30 204 C 21.6234 2.25141 -0.619174 0
M  V30 205 C 22.6044 1.66051 0.368915 0
M  V30 206 O 23.7894 1.92546 0.252941 0
M  V30 207 C 20.9194 3.4728 0.0368783 0
M  V30 208 C 19.8734 4.19005 -0.872865 0
M  V30 209 C 19.1994 5.34637 -0.0822402 0
M  V30 210 C 20.4994 4.74452 -2.18387 0
M  V30 211 H 22.1934 2.59171 -1.49903 0
M  V30 212 H 19.7394 1.24579 -0.722222 0
M  V30 213 H 21.6924 4.20098 0.330958 0
M  V30 214 H 20.4164 3.12433 0.95149 0
M  V30 215 H 19.0754 3.48061 -1.15105 0
M  V30 216 H 18.7234 4.96034 0.83422 0
M  V30 217 H 18.4234 5.83557 -0.688149 0
M  V30 218 H 19.9474 6.10255 0.205238 0
M  V30 219 H 21.3614 5.39055 -1.95172 0
M  V30 220 H 19.7584 5.33834 -2.74119 0
M  V30 221 H 20.8284 3.92844 -2.84257 0
M  V30 222 N 22.1715 0.800033 1.35784 0
M  V30 223 C 23.4115 0.382891 2.00782 0
M  V30 224 C 23.7755 -1.02891 1.62103 0
M  V30 225 O 24.9765 -1.54771 2.19771 0
M  V30 226 C 23.2475 0.553299 3.53091 0
M  V30 227 S 24.8065 0.225608 4.3822 0
M  V30 228 H 21.6245 0.145737 0.695904 0
M  V30 229 H 24.2265 1.04085 1.65489 0
M  V30 230 H 22.9305 1.58091 3.78729 0
M  V30 231 H 22.4615 -0.120214 3.93216 0
M  V30 232 H 24.4765 -0.969074 4.86645 0
M  V30 233 N 23.6496 -1.47581 0.552962 0
M  V30 234 C 24.5796 -2.32762 -0.185451 0
M  V30 235 C 25.5606 -1.43527 -0.912905 0
M  V30 236 O 26.7456 -1.72388 -0.894201 0
M  V30 237 C 23.8756 -3.25219 -1.21859 0
M  V30 238 C 22.8296 -4.23661 -0.607864 0
M  V30 239 C 22.1556 -5.05413 -1.74533 0
M  V30 240 C 23.4556 -5.20481 0.435582 0
M  V30 241 H 25.1496 -2.94749 0.525684 0
M  V30 242 H 22.6956 -1.41738 0.254251 0
M  V30 243 H 24.6486 -3.8365 -1.7433 0
M  V30 244 H 23.3726 -2.61279 -1.95961 0
M  V30 245 H 22.0316 -3.66451 -0.104489 0
M  V30 246 H 21.6796 -4.3788 -2.47529 0
M  V30 247 H 21.3796 -5.72059 -1.34249 0
M  V30 248 H 22.9036 -5.66701 -2.27338 0
M  V30 249 H 24.3176 -5.733 -0.00290157 0
M  V30 250 H 22.7146 -5.95305 0.757067 0
M  V30 251 H 23.7846 -4.66217 1.33303 0
M  V30 252 N 25.1277 -0.289203 -1.54924 0
M  V30 253 C 26.0577 0.58549 -2.2604 0
M  V30 254 C 27.0387 1.14753 -1.25562 0
M  V30 255 O 28.2237 1.17906 -1.54311 0
M  V30 256 C 25.3537 1.76305 -2.99222 0
M  V30 257 C 24.3077 1.33191 -4.06748 0
M  V30 258 C 23.6337 2.5937 -4.6758 0
M  V30 259 C 24.9337 0.471775 -5.20165 0
M  V30 260 H 26.6277 -0.00763532 -2.99399 0
M  V30 261 H 24.1737 -0.00511229 -1.43999 0
M  V30 262 H 26.1267 2.38097 -3.47689 0
M  V30 263 H 24.8507 2.38223 -2.23422 0
M  V30 264 H 23.5097 0.737121 -3.59113 0
M  V30 265 H 23.1577 3.19576 -3.88433 0
M  V30 266 H 22.8577 2.31228 -5.40192 0
M  V30 267 H 24.3817 3.21985 -5.18804 0
M  V30 268 H 25.7957 0.995056 -5.64599 0
M  V30 269 H 24.1927 0.284639 -5.99425 0
M  V30 270 H 25.2627 -0.506041 -4.82252 0
M  V30 271 N 26.6058 1.57591 -0.0167156 0
M  V30 272 C 27.5358 2.12496 0.967858 0
M  V30 273 C 28.5168 1.03807 1.34752 0
M  V30 274 O 29.7018 1.31577 1.42833 0
M  V30 275 C 26.8318 2.64194 2.25431 0
M  V30 276 C 25.7858 3.77559 2.01576 0
M  V30 277 C 25.1118 4.15636 3.36379 0
M  V30 278 C 26.4118 5.04151 1.36489 0
M  V30 279 H 28.1058 2.95013 0.510643 0
M  V30 280 H 25.6518 1.41915 0.244181 0
M  V30 281 H 27.6048 3.01236 2.94678 0
M  V30 282 H 26.3288 1.78821 2.73296 0
M  V30 283 H 24.9878 3.40937 1.34751 0
M  V30 284 H 24.6358 3.27263 3.81979 0
M  V30 285 H 24.3358 4.92022 3.21229 0
M  V30 286 H 25.8598 4.5525 4.06915 0
M  V30 287 H 27.2738 5.38857 1.95718 0
M  V30 288 H 25.6708 5.85453 1.31776 0
M  V30 289 H 26.7408 4.83733 0.336219 0
M  V30 290 N 28.0839 -0.256276 1.55502 0
M  V30 291 C 29.0469 -1.30047 1.88734 0
M  V30 292 C 30.0469 -1.4154 0.763086 0
M  V30 293 O 31.2369 -1.40403 1.03115 0
M  V30 294 C 28.3689 -2.67953 2.10747 0
M  V30 295 H 29.5619 -1.01802 2.82093 0
M  V30 296 H 27.1149 -0.495134 1.4825 0
M  V30 297 H 27.8499 -3.01351 1.19825 0
M  V30 298 H 27.6349 -2.60993 2.92617 0
M  V30 299 H 29.1249 -3.43368 2.37673 0
M  V30 300 N 29.562 -1.4872 -0.521534 0
M  V30 301 C 30.81 -1.56857 -1.27437 0
M  V30 302 C 31.131 -0.247982 -1.93417 0
M  V30 303 O 30.401 0.731151 -1.81744 0
M  V30 304 H 28.981 -0.577885 -0.473347 0
M  V30 305 H 31.643 -1.85233 -0.606205 0
M  V30 306 H 30.739 -2.35402 -2.0492 0
M  V30 307 N 31.0401 0.771051 -1.3745 0
M  V30 308 C 32.0031 1.86598 -1.33093 0
M  V30 309 C 33.0031 1.59076 -0.234845 0
M  V30 310 O 34.1931 1.67145 -0.490732 0
M  V30 311 C 31.3251 3.23747 -1.06773 0
M  V30 312 H 32.5181 1.91873 -2.30488 0
M  V30 313 H 30.0711 0.970876 -1.2249 0
M  V30 314 H 30.8061 3.24148 -0.099129 0
M  V30 315 H 30.5911 3.45115 -1.86112 0
M  V30 316 H 32.0811 4.03824 -1.06377 0
M  V30 317 N 32.5182 1.22032 0.997298 0
M  V30 318 C 33.4812 0.987909 2.06816 0
M  V30 319 C 34.4812 -0.0440084 1.6074 0
M  V30 320 O 35.6712 0.194053 1.73116 0
M  V30 321 C 32.8032 0.49132 3.37341 0
M  V30 322 H 33.9962 1.93803 2.28868 0
M  V30 323 H 31.5492 1.03838 1.16822 0
M  V30 324 H 32.2842 -0.463364 3.20973 0
M  V30 325 H 32.0692 1.23575 3.72118 0
M  V30 326 H 33.5592 0.348824 4.16141 0
M  V30 327 N 33.9963 -1.19345 1.0293 0
M  V30 328 C 35.2423 -1.89585 0.736824 0
M  V30 329 C 35.5973 -1.78148 -0.726703 0
M  V30 330 O 34.8903 -1.16332 -1.52242 0
M  V30 331 C 35.0843 -3.39292 1.12319 0
M  V30 332 C 34.9133 -3.65298 2.62273 0
M  V30 333 C 33.6833 -3.83304 3.29251 0
M  V30 334 C 35.8813 -3.6682 3.60482 0
M  V30 335 N 33.8633 -3.96944 4.68304 0
M  V30 336 C 35.2343 -3.86037 4.85155 0
M  V30 337 C 37.2893 -3.49848 3.54275 0
M  V30 338 C 35.9923 -3.9004 6.04369 0
M  V30 339 C 38.0183 -3.55129 4.72903 0
M  V30 340 C 37.3803 -3.74831 5.9639 0
M  V30 341 H 33.4793 -0.712856 0.321497 0
M  V30 342 H 36.0633 -1.43427 1.31669 0
M  V30 343 H 34.2343 -3.84172 0.571524 0
M  V30 344 H 35.9663 -3.97055 0.78292 0
M  V30 345 H 32.7213 -3.82211 2.79663 0
M  V30 346 H 33.1453 -4.07613 5.40538 0
M  V30 347 H 37.7873 -3.33572 2.59788 0
M  V30 348 H 35.5053 -4.05108 6.99223 0
M  V30 349 H 39.0913 -3.43287 4.69729 0
M  V30 350 H 37.9713 -3.78792 6.86649 0
M  V30 351 N 35.4744 -0.807222 -1.35358 0
M  V30 352 C 36.4374 -0.223665 -2.28106 0
M  V30 353 C 37.4374 0.589354 -1.4961 0
M  V30 354 O 38.6274 0.407745 -1.69361 0
M  V30 355 C 35.7594 0.688149 -3.33882 0
M  V30 356 H 36.9524 -1.04169 -2.81227 0
M  V30 357 H 34.5054 -0.577921 -1.45223 0
M  V30 358 H 35.2404 1.52984 -2.85948 0
M  V30 359 H 35.0254 0.10687 -3.91954 0
M  V30 360 H 36.5154 1.09075 -4.03104 0
M  V30 361 N 36.9525 1.47285 -0.560781 0
M  V30 362 C 38.3635 1.86258 -0.128343 0
M  V30 363 C 38.7145 1.46699 1.30284 0
M  V30 364 O 37.8395 0.871698 1.98067 0
M  V30 365 C 38.4345 3.38044 -0.22614 0
M  V30 366 C 36.9935 3.76096 0.151283 0
M  V30 367 C 36.1405 2.71335 -0.572084 0
M  V30 368 H 39.0915 1.38752 -0.770297 0
M  V30 369 H 39.1125 3.76441 0.554322 0
M  V30 370 H 38.6245 3.66806 -1.26788 0
M  V30 371 H 36.7255 3.52951 1.19399 0
M  V30 372 H 36.8385 4.78641 -0.209765 0
M  V30 373 H 35.2025 2.54696 -0.0147653 0
M  V30 374 H 35.9855 3.02938 -1.61504 0
M  V30 375 N 38.4306 0.297415 1.54768 0
M  V30 376 C 39.8416 -0.195947 1.85669 0
M  V30 377 C 40.1926 -1.53707 1.21937 0
M  V30 378 O 39.3176 -2.10164 0.515754 0
M  V30 379 C 39.9126 -0.362318 3.36857 0
M  V30 380 C 38.4716 -0.799901 3.67802 0
M  V30 381 C 37.6186 0.0938578 2.77141 0
M  V30 382 H 40.5696 0.518538 1.4999 0
M  V30 383 H 40.5906 -1.19745 3.61167 0
M  V30 384 H 40.1026 0.613921 3.83214 0
M  V30 385 H 38.2036 -1.78682 3.26961 0
M  V30 386 H 38.3166 -0.621773 4.75048 0
M  V30 387 H 36.6806 -0.426254 2.51108 0
M  V30 388 H 37.4636 1.06639 3.26318 0
M  V30 389 N 39.9087 -1.5758 0.0250728 0
M  V30 390 C 41.3197 -1.79476 -0.514323 0
M  V30 391 C 41.6707 -0.934956 -1.72491 0
M  V30 392 O 40.7957 -0.144245 -2.15919 0
M  V30 393 C 41.3907 -3.25503 -0.939842 0
M  V30 394 C 39.9497 -3.48408 -1.42438 0
M  V30 395 C 39.0967 -2.74583 -0.387201 0
M  V30 396 H 42.0477 -1.567 0.25113 0
M  V30 397 H 42.0687 -3.34992 -1.80445 0
M  V30 398 H 41.5807 -3.88056 -0.0585628 0
M  V30 399 H 39.6817 -2.91103 -2.32572 0
M  V30 400 H 39.7947 -4.57119 -1.43455 0
M  V30 401 H 38.1587 -2.39942 -0.854409 0
M  V30 402 H 38.9417 -3.39849 0.485543 0
M  V30 403 N 41.3868 0.248026 -1.55636 0
M  V30 404 C 42.3348 1.32683 -1.91045 0
M  V30 405 C 43.3288 1.49883 -0.789401 0
M  V30 406 O 44.5348 1.51371 -0.974007 0
M  V30 407 H 40.9098 0.444272 -0.606734 0
M  V30 408 H 42.8808 1.00085 -2.81115 0
M  V30 409 C 41.6298 2.6755 -2.22064 0
M  V30 410 H 40.9528 2.55114 -3.07826 0
M  V30 411 H 42.3928 3.41912 -2.50743 0
M  V30 412 C 40.8518 3.20556 -1.0366 0
M  V30 413 O 41.3818 4.00695 -0.284016 0
M  V30 414 N 39.5878 2.78568 -0.82753 0
M  V30 415 H 39.1348 2.1351 -1.44123 0
M  V30 416 H 39.0928 3.14378 -0.0369803 0
M  V30 417 N 42.8649 1.48995 0.513639 0
M  V30 418 C 43.7949 1.67636 1.62544 0
M  V30 419 C 44.7759 0.525087 1.61793 0
M  V30 420 O 45.9609 0.759502 1.78732 0
M  V30 421 C 43.0909 1.73114 3.01079 0
M  V30 422 C 42.0449 2.87905 3.16693 0
M  V30 423 C 41.3709 2.78486 4.56453 0
M  V30 424 C 42.6709 4.29005 2.97913 0
M  V30 425 H 44.3649 2.60716 1.47198 0
M  V30 426 H 41.9109 1.25465 0.706714 0
M  V30 427 H 43.8639 1.84742 3.78746 0
M  V30 428 H 42.5879 0.766241 3.17484 0
M  V30 429 H 41.2469 2.75859 2.41448 0
M  V30 430 H 40.8949 1.7993 4.69717 0
M  V30 431 H 40.5949 3.55523 4.67843 0
M  V30 432 H 42.1189 2.92104 5.36197 0
M  V30 433 H 43.5329 4.41798 3.65359 0
M  V30 434 H 41.9299 5.07166 3.20785 0
M  V30 435 H 42.9999 4.44329 1.94165 0
M  V30 436 N 44.343 -0.763751 1.37857 0
M  V30 437 C 45.754 -1.3405 1.29952 0
M  V30 438 C 46.105 -1.96138 -0.0492898 0
M  V30 439 O 45.23 -1.94372 -0.951239 0
M  V30 440 C 45.825 -2.43729 2.35333 0
M  V30 441 C 44.384 -2.97151 2.31037 0
M  V30 442 C 43.531 -1.70438 2.18738 0
M  V30 443 H 46.482 -0.563396 1.48363 0
M  V30 444 H 46.503 -3.23412 2.00462 0
M  V30 445 H 46.015 -1.9851 3.33489 0
M  V30 446 H 44.116 -3.46724 1.3643 0
M  V30 447 H 44.229 -3.52221 3.24772 0
M  V30 448 H 42.593 -1.93673 1.65418 0
M  V30 449 H 43.376 -1.27312 3.18821 0
M  V30 450 N 45.8211 -1.22559 -0.990812 0
M  V30 451 C 47.0981 -0.959875 -1.70428 0
M  V30 452 C 47.4781 0.524455 -2.04481 0
M  V30 453 O 46.8261 1.49302 -1.72977 0
M  V30 454 C 47.0361 -1.85955 -2.95333 0
M  V30 455 C 48.3841 -2.11687 -3.68068 0
M  V30 456 O 49.4081 -1.8342 -3.05345 0
M  V30 457 O 48.2671 -2.59572 -4.80921 0
M  V30 458 H 45.3611 -0.361154 -0.743974 0
M  V30 459 H 47.9071 -1.33554 -1.04697 0
M  V30 460 H 46.6791 -2.86346 -2.66687 0
M  V30 461 H 46.3021 -1.4856 -3.68803 0
M  V30 462 N 47.2992 1.18797 -1.03562 0
M  V30 463 C 48.7102 1.70322 -0.764676 0
M  V30 464 C 49.0612 1.82708 0.714996 0
M  V30 465 O 48.1862 1.50299 1.55689 0
M  V30 466 C 48.7812 3.09356 -1.38145 0
M  V30 467 C 47.3402 3.58114 -1.15895 0
M  V30 468 C 46.4872 2.34798 -1.4753 0
M  V30 469 H 49.4382 1.03543 -1.20268 0
M  V30 470 H 49.4592 3.72378 -0.781977 0
M  V30 471 H 48.9712 3.00309 -2.45837 0
M  V30 472 H 47.0722 3.72464 -0.100544 0
M  V30 473 H 47.1852 4.4184 -1.8524 0
M  V30 474 H 45.5492 2.38464 -0.894829 0
M  V30 475 H 46.3322 2.28375 -2.56319 0
M  V30 476 N 48.7773 0.814389 1.34928 0
M  V30 477 C 49.7243 0.22822 2.29669 0
M  V30 478 C 50.6943 -0.642164 1.53184 0
M  V30 479 O 51.8793 -0.585605 1.81591 0
M  V30 480 C 49.0193 -0.61089 3.3965 0
M  V30 481 C 48.1323 0.280792 4.31086 0
M  V30 482 C 47.2673 -0.567067 5.28165 0
M  V30 483 C 46.3063 0.324531 6.11239 0
M  V30 484 N 45.4433 -0.483756 7.00431 0
M  V30 485 H 50.2833 1.04153 2.79206 0
M  V30 486 H 47.8203 0.525133 1.37407 0
M  V30 487 H 49.7783 -1.11263 4.0209 0
M  V30 488 H 48.4083 -1.38939 2.91369 0
M  V30 489 H 47.4603 0.900688 3.69583 0
M  V30 490 H 48.7723 0.966723 4.89342 0
M  V30 491 H 47.9263 -1.13363 5.96015 0
M  V30 492 H 46.6653 -1.28654 4.70425 0
M  V30 493 H 45.6703 0.903298 5.42329 0
M  V30 494 H 46.8953 1.04198 6.71059 0
M  V30 495 H 44.8413 -1.18706 6.45171 0
M  V30 496 H 44.7583 0.143965 7.55863 0
M  V30 497 H 46.0263 -1.03334 7.7262 0
M  V30 498 N 50.2554 -1.46986 0.568584 0
M  V30 499 C 51.5024 -2.02441 0.0487986 0
M  V30 500 C 51.8304 -1.44169 -1.30559 0
M  V30 501 O 51.0854 -0.591213 -1.86556 0
M  V30 502 C 51.3844 -3.57306 -0.081836 0
M  V30 503 C 51.0504 -4.34552 1.20313 0
M  V30 504 C 49.7124 -4.55376 1.5552 0
M  V30 505 C 52.0644 -4.79016 2.05411 0
M  V30 506 C 49.3924 -5.17913 2.7565 0
M  V30 507 C 51.7444 -5.42879 3.24754 0
M  V30 508 C 50.4084 -5.61933 3.60261 0
M  V30 509 H 49.6784 -0.740785 0.0178567 0
M  V30 510 H 52.3254 -1.76525 0.742384 0
M  V30 511 H 50.6304 -3.8228 -0.858463 0
M  V30 512 H 52.3274 -3.97876 -0.499546 0
M  V30 513 H 48.9174 -4.18631 0.919014 0
M  V30 514 H 53.1014 -4.62696 1.79516 0
M  V30 515 H 48.3574 -5.30858 3.03315 0
M  V30 516 H 52.5314 -5.76293 3.90973 0
M  V30 517 H 50.1584 -6.10161 4.53439 0
M  V30 518 N 51.7335 -0.305618 -1.54608 0
M  V30 519 C 52.6435 0.57778 -2.27374 0
M  V30 520 C 53.6595 1.14451 -1.31061 0
M  V30 521 O 54.8355 1.16831 -1.6405 0
M  V30 522 C 51.9005 1.73123 -3.00382 0
M  V30 523 C 50.9615 1.19812 -4.12242 0
M  V30 524 C 50.1945 2.2966 -4.81759 0
M  V30 525 O 50.4175 3.49651 -4.50666 0
M  V30 526 O 49.3515 1.96091 -5.69062 0
M  V30 527 H 53.1775 -0.012624 -3.03697 0
M  V30 528 H 50.7625 -0.0719184 -1.49227 0
M  V30 529 H 52.6445 2.40315 -3.4616 0
M  V30 530 H 51.3195 2.30815 -2.26949 0
M  V30 531 H 50.2265 0.491798 -3.70853 0
M  V30 532 H 51.5595 0.666566 -4.87666 0
M  V30 533 N 53.2116 1.57565 -0.0334293 0
M  V30 534 C 54.4366 1.96689 0.657895 0
M  V30 535 C 54.8616 0.910057 1.64619 0
M  V30 536 O 54.2196 -0.128598 1.80843 0
M  V30 537 C 54.2676 3.34905 1.33683 0
M  V30 538 O 53.3716 3.31574 2.45219 0
M  V30 539 H 52.7126 0.641205 0.172489 0
M  V30 540 H 55.2426 2.04372 -0.0965621 0
M  V30 541 H 55.2526 3.71234 1.69262 0
M  V30 542 H 53.9276 4.11366 0.612411 0
M  V30 543 H 52.5046 3.06968 2.11719 0
M  V30 544 N 54.6897 -0.239769 1.55765 0
M  V30 545 C 55.6367 -1.29696 1.90913 0
M  V30 546 C 56.6067 -1.47478 0.764164 0
M  V30 547 O 57.7917 -1.61345 1.01845 0
M  V30 548 C 54.9317 -2.64598 2.21544 0
M  V30 549 C 54.0447 -2.54765 3.48882 0
M  V30 550 C 53.1797 -3.82069 3.69049 0
M  V30 551 C 52.2187 -3.66883 4.89963 0
M  V30 552 N 51.3557 -4.86094 5.06614 0
M  V30 553 H 56.1957 -0.990224 2.81067 0
M  V30 554 H 53.7327 -0.477684 1.39128 0
M  V30 555 H 55.6907 -3.43132 2.3731 0
M  V30 556 H 54.3207 -2.93405 1.34585 0
M  V30 557 H 53.3727 -1.67763 3.41409 0
M  V30 558 H 54.6847 -2.39457 4.37563 0
M  V30 559 H 53.8387 -4.69046 3.84812 0
M  V30 560 H 52.5777 -4.00282 2.78614 0
M  V30 561 H 51.5827 -2.78289 4.74168 0
M  V30 562 H 52.8077 -3.50157 5.81865 0
M  V30 563 H 50.7537 -5.04655 4.19117 0
M  V30 564 H 50.6707 -4.73443 5.89396 0
M  V30 565 H 51.9387 -5.74549 5.26795 0
M  V30 566 N 56.1678 -1.49265 -0.50573 0
M  V30 567 C 57.1308 -1.65075 -1.59006 0
M  V30 568 C 58.1308 -0.522768 -1.52065 0
M  V30 569 O 59.3208 -0.789117 -1.55302 0
M  V30 570 C 56.4528 -1.64369 -2.98656 0
M  V30 571 H 57.6458 -2.61784 -1.46319 0
M  V30 572 H 55.1988 -1.38226 -0.729616 0
M  V30 573 H 55.9338 -0.692272 -3.16825 0
M  V30 574 H 55.7188 -2.46282 -3.05103 0
M  V30 575 H 57.2088 -1.78674 -3.77446 0
M  V30 576 N 57.6459 0.756429 -1.3826 0
M  V30 577 C 58.6089 1.85176 -1.35065 0
M  V30 578 C 59.6089 1.58818 -0.251703 0
M  V30 579 O 60.7989 1.66615 -0.508433 0
M  V30 580 C 57.9309 3.22596 -1.10201 0
M  V30 581 H 59.1239 1.89417 -2.3251 0
M  V30 582 H 56.6769 0.95783 -1.23512 0
M  V30 583 H 57.4119 3.24025 -0.133504 0
M  V30 584 H 57.1969 3.43122 -1.89762 0
M  V30 585 H 58.6869 4.02673 -1.10654 0
M  V30 586 N 59.124 1.23083 0.984299 0
M  V30 587 C 60.054 1.03292 2.09411 0
M  V30 588 C 61.035 -0.048923 1.7003 0
M  V30 589 O 62.22 0.114967 1.93859 0
M  V30 590 C 59.35 0.619155 3.41736 0
M  V30 591 C 58.304 1.64791 3.95004 0
M  V30 592 C 57.63 1.0897 5.23478 0
M  V30 593 C 58.93 3.03999 4.24714 0
M  V30 594 H 60.624 1.96119 2.26225 0
M  V30 595 H 58.17 0.944344 1.08711 0
M  V30 596 H 60.123 0.467777 4.18796 0
M  V30 597 H 58.847 -0.344786 3.24775 0
M  V30 598 H 57.506 1.78721 3.20085 0
M  V30 599 H 57.154 0.11686 5.02864 0
M  V30 600 H 56.854 1.77704 5.60085 0
M  V30 601 H 58.378 0.950093 6.03163 0
M  V30 602 H 59.792 2.93393 4.92538 0
M  V30 603 H 58.189 3.69936 4.72512 0
M  V30 604 H 59.259 3.53285 3.32142 0
M  V30 605 N 60.6021 -1.18246 1.0419 0
M  V30 606 C 61.5321 -2.24127 0.654914 0
M  V30 607 C 62.5131 -1.66617 -0.342451 0
M  V30 608 O 63.6981 -1.92924 -0.222277 0
M  V30 609 C 60.8281 -3.47295 0.0183757 0
M  V30 610 C 59.7821 -4.17563 0.939414 0
M  V30 611 C 59.1081 -5.34438 0.167286 0
M  V30 612 C 60.4081 -4.70917 2.25908 0
M  V30 613 H 62.1021 -2.56753 1.54007 0
M  V30 614 H 59.6481 -1.23414 0.74195 0
M  V30 615 H 61.6011 -4.20572 -0.264082 0
M  V30 616 H 60.3251 -3.13907 -0.901664 0
M  V30 617 H 58.9841 -3.46186 1.20628 0
M  V30 618 H 58.6321 -4.97298 -0.7552 0
M  V30 619 H 58.3321 -5.82388 0.780901 0
M  V30 620 H 59.8561 -6.10504 -0.108125 0
M  V30 621 H 61.2701 -5.35882 2.03724 0
M  V30 622 H 59.6671 -5.29406 2.82577 0
M  V30 623 H 60.7371 -3.88272 2.9047 0
M  V30 624 N 62.0802 -0.821533 -1.34494 0
M  V30 625 C 63.0432 -0.247847 -2.27856 0
M  V30 626 C 64.0432 0.573453 -1.50227 0
M  V30 627 O 65.2332 0.389759 -1.69784 0
M  V30 628 C 62.3652 0.652698 -3.34593 0
M  V30 629 H 63.5582 -1.07146 -2.80107 0
M  V30 630 H 61.1112 -0.593291 -1.44602 0
M  V30 631 H 61.8462 1.49943 -2.87555 0
M  V30 632 H 61.6312 0.065292 -3.92046 0
M  V30 633 H 63.1212 1.04793 -4.04238 0
M  V30 634 N 63.5583 1.46682 -0.576371 0
M  V30 635 C 64.5213 2.28707 0.150239 0
M  V30 636 C 65.5213 1.38035 0.824794 0
M  V30 637 O 66.7113 1.60476 0.677719 0
M  V30 638 C 63.8433 3.18248 1.22192 0
M  V30 639 H 65.0363 2.94423 -0.570521 0
M  V30 640 H 62.5893 1.52688 -0.334078 0
M  V30 641 H 63.3243 2.57265 1.97447 0
M  V30 642 H 63.1093 3.85 0.742812 0
M  V30 643 H 64.5993 3.80001 1.73172 0
M  V30 644 N 65.0364 0.313813 1.54444 0
M  V30 645 C 66.4524 -0.0391619 1.59552 0
M  V30 646 C 66.6524 -1.51322 1.33056 0
M  V30 647 O 65.7084 -2.26782 1.11022 0
M  V30 648 C 67.0214 0.370302 2.98411 0
M  V30 649 C 68.5694 0.320139 3.11358 0
M  V30 650 C 69.0444 0.704617 4.52547 0
M  V30 651 N 70.5354 0.657645 4.58508 0
M  V30 652 C 71.2704 0.927453 5.6585 0
M  V30 653 N 70.7664 1.26389 6.81174 0
M  V30 654 N 72.5594 0.853662 5.5558 0
M  V30 655 H 64.7104 1.27433 1.69925 0
M  V30 656 H 66.9734 0.517511 0.794284 0
M  V30 657 H 66.6794 1.39694 3.22767 0
M  V30 658 H 66.5534 -0.269619 3.76235 0
M  V30 659 H 68.9404 -0.697275 2.86744 0
M  V30 660 H 69.0214 0.99486 2.35661 0
M  V30 661 H 68.6654 1.7199 4.77893 0
M  V30 662 H 68.5954 0.00768843 5.26599 0
M  V30 663 H 71.0864 0.409067 3.75679 0
M  V30 664 H 71.3994 1.4554 7.58972 0
M  V30 665 H 69.7444 1.30206 6.82694 0
M  V30 666 H 72.9354 0.590383 4.64362 0
M  V30 667 H 73.1084 1.0673 6.3915 0
M  V30 668 N 66.5145 -1.57545 0.0417849 0
M  V30 669 C 67.7625 -1.91937 -0.632829 0
M  V30 670 C 68.0835 -0.919978 -1.71934 0
M  V30 671 O 67.3535 0.0366064 -1.95866 0
M  V30 672 H 65.9335 -0.708493 -0.236742 0
M  V30 673 H 68.5955 -1.9468 0.0925745 0
M  V30 674 H 67.6915 -2.92912 -1.07746 0
M  V30 675 N 67.9926 0.231505 -1.5589 0
M  V30 676 C 69.4036 0.799327 -1.68724 0
M  V30 677 C 69.7546 1.85398 -0.642022 0
M  V30 678 O 68.8796 2.1539 0.208784 0
M  V30 679 C 69.4746 1.45664 -3.05888 0
M  V30 680 C 68.0336 1.97197 -3.20609 0
M  V30 681 C 67.1806 0.828552 -2.64632 0
M  V30 682 H 70.1316 0.00702616 -1.58698 0
M  V30 683 H 70.1526 2.32517 -3.01191 0
M  V30 684 H 69.6646 0.688808 -3.81939 0
M  V30 685 H 67.7656 2.76813 -2.4941 0
M  V30 686 H 67.8786 2.15878 -4.27707 0
M  V30 687 H 66.2426 1.23321 -2.22854 0
M  V30 688 H 67.0256 0.0735544 -3.43221 0
M  V30 689 N 69.4707 1.49531 0.497807 0
M  V30 690 C 70.3807 1.69176 1.62532 0
M  V30 691 C 71.3967 0.5744 1.64246 0
M  V30 692 O 72.5727 0.849497 1.82608 0
M  V30 693 C 69.6377 1.75695 2.98885 0
M  V30 694 C 68.6987 2.9929 3.07773 0
M  V30 695 C 67.9317 3.05488 4.37622 0
M  V30 696 O 68.1547 2.19192 5.26603 0
M  V30 697 O 67.0887 3.9798 4.51548 0
M  V30 698 H 70.9147 2.647 1.48887 0
M  V30 699 H 68.4997 1.3331 0.674441 0
M  V30 700 H 70.3817 1.82317 3.79919 0
M  V30 701 H 69.0567 0.8335 3.12785 0
M  V30 702 H 67.9637 2.98183 2.25915 0
M  V30 703 H 69.2967 3.91125 2.98801 0
M  V30 704 N 70.9488 -0.749086 1.3866 0
M  V30 705 C 71.8588 -1.89358 1.38494 0
M  V30 706 C 72.8748 -1.71708 0.281476 0
M  V30 707 O 74.0508 -1.94554 0.520643 0
M  V30 708 C 71.1158 -3.24782 1.21316 0
M  V30 709 C 70.1768 -3.54926 2.41508 0
M  V30 710 C 69.4098 -4.83888 2.2514 0
M  V30 711 O 69.6328 -5.56592 1.24746 0
M  V30 712 O 68.5668 -5.13612 3.13826 0
M  V30 713 H 72.3928 -1.92452 2.34938 0
M  V30 714 H 69.9778 -0.894981 1.19626 0
M  V30 715 H 71.8598 -4.05739 1.13814 0
M  V30 716 H 70.5348 -3.2249 0.279592 0
M  V30 717 H 69.4418 -2.74112 2.54585 0
M  V30 718 H 70.7748 -3.61983 3.3351 0
M  V30 719 N 72.4269 -1.23603 -0.977757 0
M  V30 720 C 73.3569 -1.04401 -2.0886 0
M  V30 721 C 74.3379 0.0399052 -1.70053 0
M  V30 722 O 75.5229 -0.125246 -1.93796 0
M  V30 723 C 72.6529 -0.637269 -3.41403 0
M  V30 724 C 71.6069 -1.66883 -3.94124 0
M  V30 725 C 70.9329 -1.11745 -5.22893 0
M  V30 726 C 72.2329 -3.06247 -4.23096 0
M  V30 727 H 73.9269 -1.97316 -2.25182 0
M  V30 728 H 71.4729 -0.950096 -1.08209 0
M  V30 729 H 73.4259 -0.48998 -4.18542 0
M  V30 730 H 72.1499 0.327557 -3.24953 0
M  V30 731 H 70.8089 -1.80416 -3.19133 0
M  V30 732 H 70.4569 -0.143527 -5.02795 0
M  V30 733 H 70.1569 -1.80672 -5.59134 0
M  V30 734 H 71.6809 -0.982067 -6.02651 0
M  V30 735 H 73.0949 -2.96001 -4.90975 0
M  V30 736 H 71.4919 -3.72436 -4.70544 0
M  V30 737 H 72.5619 -3.55041 -3.30263 0
M  V30 738 N 73.905 1.17692 -1.04816 0
M  V30 739 C 74.835 2.23777 -0.666791 0
M  V30 740 C 75.816 1.66796 0.33361 0
M  V30 741 O 77.001 1.93039 0.212042 0
M  V30 742 C 74.131 3.47281 -0.0367933 0
M  V30 743 C 73.085 4.17059 -0.961546 0
M  V30 744 C 72.411 5.34342 -0.195626 0
M  V30 745 C 73.711 4.69713 -2.28402 0
M  V30 746 H 75.405 2.55933 -1.55367 0
M  V30 747 H 72.951 1.23019 -0.748484 0
M  V30 748 H 74.904 4.20706 0.241775 0
M  V30 749 H 73.628 3.14381 0.885004 0
M  V30 750 H 72.287 3.45541 -1.22462 0
M  V30 751 H 71.935 4.97692 0.728816 0
M  V30 752 H 71.635 5.81966 -0.811775 0
M  V30 753 H 73.159 6.10553 0.0757473 0
M  V30 754 H 74.573 5.34794 -2.06563 0
M  V30 755 H 72.97 5.279 -2.8538 0
M  V30 756 H 74.04 3.86726 -2.92525 0
M  V30 757 N 75.3831 0.828654 1.34056 0
M  V30 758 C 76.6231 0.425394 1.99924 0
M  V30 759 C 76.9871 -0.994294 1.64249 0
M  V30 760 O 78.1881 -1.50074 2.23005 0
M  V30 761 C 76.4591 0.628071 3.51838 0
M  V30 762 S 78.0181 0.318511 4.37642 0
M  V30 763 H 74.8361 0.160465 0.692656 0
M  V30 764 H 77.4381 1.07572 1.63244 0
M  V30 765 H 76.1421 1.66089 3.7529 0
M  V30 766 H 75.6731 -0.0367799 3.93383 0
M  V30 767 H 77.6881 -0.865632 4.88591 0
M  V30 768 N 76.8612 -1.46375 0.584142 0
M  V30 769 C 78.1082 -2.02378 0.0702675 0
M  V30 770 C 78.4362 -1.45545 -1.29023 0
M  V30 771 O 77.6912 -0.610967 -1.85918 0
M  V30 772 C 77.9902 -3.57373 -0.0439342 0
M  V30 773 C 77.6562 -4.33252 1.24915 0
M  V30 774 C 76.3182 -4.53701 1.60341 0
M  V30 775 C 78.6702 -4.7681 2.1048 0
M  V30 776 C 75.9982 -5.1496 2.81128 0
M  V30 777 C 78.3502 -5.39404 3.30494 0
M  V30 778 C 77.0142 -5.5808 3.66201 0
M  V30 779 H 76.2842 -0.740554 0.0257127 0
M  V30 780 H 78.9312 -1.75727 0.761065 0
M  V30 781 H 77.2362 -3.83169 -0.817869 0
M  V30 782 H 78.9332 -3.98384 -0.457318 0
M  V30 783 H 75.5232 -4.17633 0.963364 0
M  V30 784 H 79.7072 -4.60766 1.84414 0
M  V30 785 H 74.9632 -5.27611 3.08928 0
M  V30 786 H 79.1372 -5.72114 3.97063 0
M  V30 787 H 76.7642 -6.05318 4.59885 0
M  V30 788 N 78.3393 -0.321999 -1.54275 0
M  V30 789 C 79.5673 0.283052 -2.04955 0
M  V30 790 C 79.9823 1.45904 -1.19823 0
M  V30 791 O 79.3393 1.81063 -0.228545 0
M  V30 792 C 79.3903 0.719028 -3.54277 0
M  V30 793 O 79.1113 -0.410175 -4.36176 0
M  V30 794 C 80.6123 1.38705 -4.21041 0
M  V30 795 H 77.8323 0.0584616 -0.668448 0
M  V30 796 H 80.3763 -0.467734 -1.99079 0
M  V30 797 H 78.5313 1.41979 -3.60445 0
M  V30 798 H 78.9453 -0.0669416 -5.24457 0
M  V30 799 H 80.4193 1.64306 -5.2698 0
M  V30 800 H 80.8963 2.33385 -3.72059 0
M  V30 801 H 81.5023 0.728906 -4.19007 0
M  V30 802 N 79.8174 1.5752 -0.0501392 0
M  V30 803 C 80.7274 2.14952 0.939827 0
M  V30 804 C 81.7434 1.10706 1.34239 0
M  V30 805 O 82.9194 1.42869 1.41952 0
M  V30 806 C 79.9844 2.68232 2.19665 0
M  V30 807 C 79.0454 3.87272 1.85253 0
M  V30 808 C 78.2784 4.38002 3.04943 0
M  V30 809 O 78.5014 3.87811 4.18281 0
M  V30 810 O 77.4354 5.29602 2.86017 0
M  V30 811 H 81.2614 2.9986 0.481392 0
M  V30 812 H 78.8464 1.4841 0.171699 0
M  V30 813 H 80.7284 3.02475 2.93406 0
M  V30 814 H 79.4034 1.86395 2.64648 0
M  V30 815 H 78.3104 3.5792 1.0883 0
M  V30 816 H 79.6434 4.70336 1.4507 0
M  V30 817 N 81.2955 -0.223234 1.56011 0
M  V30 818 C 82.7115 -0.572856 1.48965 0
M  V30 819 C 82.9115 -1.87225 0.74492 0
M  V30 820 O 81.9675 -2.50899 0.283896 0
M  V30 821 C 83.2805 -0.653646 2.9351 0
M  V30 822 C 84.8285 -0.744386 3.0402 0
M  V30 823 C 85.3035 -0.856535 4.49919 0
M  V30 824 N 86.7945 -0.9208 4.53955 0
M  V30 825 C 87.5295 -1.02726 5.64123 0
M  V30 826 N 87.0255 -1.09777 6.84047 0
M  V30 827 N 88.8185 -1.06226 5.51971 0
M  V30 828 H 80.9695 0.629462 2.02858 0
M  V30 829 H 83.2325 0.220621 0.921971 0
M  V30 830 H 82.9385 0.231518 3.50937 0
M  V30 831 H 82.8125 -1.51781 3.45315 0
M  V30 832 H 85.1995 -1.61999 2.46658 0
M  V30 833 H 85.2805 0.14541 2.55386 0
M  V30 834 H 84.9245 0.0146069 5.07898 0
M  V30 835 H 84.8545 -1.76172 4.96257 0
M  V30 836 H 87.3455 -0.876694 3.6759 0
M  V30 837 H 87.6585 -1.17872 7.63758 0
M  V30 838 H 86.0035 -1.06693 6.86762 0
M  V30 839 H 89.1945 -1.00382 4.5721 0
M  V30 840 H 89.3675 -1.14177 6.37862 0
M  V30 841 N 82.7736 -1.49793 -0.48987 0
M  V30 842 C 83.7036 -1.70201 -1.59856 0
M  V30 843 C 84.6846 -0.55076 -1.60937 0
M  V30 844 O 85.8696 -0.787841 -1.77501 0
M  V30 845 C 82.9996 -1.77882 -2.98287 0
M  V30 846 C 81.9536 -2.92907 -3.12073 0
M  V30 847 C 81.2796 -2.85712 -4.51965 0
M  V30 848 C 82.5796 -4.3369 -2.91051 0
M  V30 849 H 84.2736 -2.63025 -1.43032 0
M  V30 850 H 81.8196 -1.26574 -0.686664 0
M  V30 851 H 83.7726 -1.90744 -3.75759 0
M  V30 852 H 82.4966 -0.816653 -3.16225 0
M  V30 853 H 81.1556 -2.79665 -2.37029 0
M  V30 854 H 80.8036 -1.8738 -4.66795 0
M  V30 855 H 80.5036 -3.62921 -4.62128 0
M  V30 856 H 82.0276 -3.00598 -5.31482 0
M  V30 857 H 83.4416 -4.47555 -3.58284 0
M  V30 858 H 81.8386 -5.12205 -3.12675 0
M  V30 859 H 82.9086 -4.47362 -1.87071 0
M  V30 860 N 84.2517 0.741722 -1.39055 0
M  V30 861 C 85.1617 1.88621 -1.39496 0
M  V30 862 C 86.1777 1.71557 -0.290578 0
M  V30 863 O 87.3537 1.94275 -0.530954 0
M  V30 864 C 84.4187 3.24134 -1.23037 0
M  V30 865 C 83.4797 3.5364 -2.43387 0
M  V30 866 C 82.7127 4.82687 -2.27703 0
M  V30 867 O 82.9357 5.55922 -1.27696 0
M  V30 868 O 81.8697 5.1194 -3.16545 0
M  V30 869 H 85.6957 1.91203 -2.35956 0
M  V30 870 H 83.2807 0.888625 -1.20099 0
M  V30 871 H 85.1627 4.0513 -1.15964 0
M  V30 872 H 83.8377 3.22337 -0.296691 0
M  V30 873 H 82.7447 2.72758 -2.56035 0
M  V30 874 H 84.0777 3.60209 -3.35425 0
M  V30 875 N 85.7298 1.2412 0.971189 0
M  V30 876 C 87.0068 0.986867 1.6888 0
M  V30 877 C 87.3868 -0.491857 2.0529 0
M  V30 878 O 86.7348 -1.46531 1.75331 0
M  V30 879 C 86.9448 1.9063 2.92338 0
M  V30 880 C 88.2928 2.17515 3.64654 0
M  V30 881 O 89.3168 1.88254 3.02388 0
M  V30 882 O 88.1758 2.6719 4.7673 0
M  V30 883 H 85.2698 0.372944 0.738134 0
M  V30 884 H 87.8158 1.35203 1.02559 0
M  V30 885 H 86.5878 2.90552 2.62097 0
M  V30 886 H 86.2108 1.54408 3.66393 0
M  V30 887 N 87.2079 -1.17134 1.05439 0
M  V30 888 C 88.1379 -2.2342 0.678649 0
M  V30 889 C 89.1189 -1.66971 -0.32476 0
M  V30 890 O 90.3039 -1.93149 -0.201802 0
M  V30 891 C 87.4339 -3.47256 0.0552099 0
M  V30 892 C 86.3879 -4.16543 0.98365 0
M  V30 893 C 85.7139 -5.34231 0.223961 0
M  V30 894 C 87.0139 -4.68495 2.3089 0
M  V30 895 H 88.7079 -2.55105 1.56722 0
M  V30 896 H 86.2539 -1.2262 0.754998 0
M  V30 897 H 88.2069 -4.20828 -0.21946 0
M  V30 898 H 86.9309 -3.14846 -0.868319 0
M  V30 899 H 85.5899 -3.44887 1.24293 0
M  V30 900 H 85.2379 -4.98071 -0.702412 0
M  V30 901 H 84.9379 -5.81527 0.842627 0
M  V30 902 H 86.4619 -6.10585 -0.0433671 0
M  V30 903 H 87.8759 -5.33691 2.09396 0
M  V30 904 H 86.2729 -5.26379 2.88176 0
M  V30 905 H 87.3429 -3.85169 2.94572 0
M  V30 906 N 88.686 -0.835752 -1.33615 0
M  V30 907 C 89.932 -0.430596 -1.98176 0
M  V30 908 C 90.265 1.00684 -1.66061 0
M  V30 909 O 89.54 1.70339 -0.938877 0
M  V30 910 C 89.823 -0.648065 -3.5422 0
M  V30 911 C 89.676 -2.13255 -3.96033 0
M  V30 912 C 90.995 -0.0922113 -4.40003 0
M  V30 913 H 88.114 -0.157924 -0.719881 0
M  V30 914 H 90.756 -1.05069 -1.58305 0
M  V30 915 H 88.906 -0.120237 -3.88314 0
M  V30 916 H 90.578 -2.725 -3.72211 0
M  V30 917 H 88.821 -2.61823 -3.45878 0
M  V30 918 H 89.492 -2.23547 -5.04708 0
M  V30 919 H 91.968 -0.543343 -4.12537 0
M  V30 920 H 90.844 -0.274083 -5.48215 0
M  V30 921 H 91.105 1.00378 -4.30554 0
M  V30 922 N 90.1641 1.46063 -0.591896 0
M  V30 923 C 91.4041 2.04228 -0.0838014 0
M  V30 924 C 91.7681 1.45231 1.25587 0
M  V30 925 O 92.9691 1.94653 1.85375 0
M  V30 926 C 91.2401 3.57389 -0.0286282 0
M  V30 927 S 92.7991 4.3678 0.420557 0
M  V30 928 H 89.6171 0.709762 -0.0419319 0
M  V30 929 H 92.2191 1.78983 -0.786465 0
M  V30 930 H 90.9231 3.97843 -1.00743 0
M  V30 931 H 90.4541 3.87185 0.69652 0
M  V30 932 H 92.4691 4.67131 1.67341 0
M  V30 933 N 91.6422 0.330177 1.54103 0
M  V30 934 C 92.8892 -0.270405 2.00686 0
M  V30 935 C 93.2172 -1.51621 1.21825 0
M  V30 936 O 92.4722 -1.93536 0.29025 0
M  V30 937 C 92.7712 -0.643134 3.51566 0
M  V30 938 C 92.4372 0.504251 4.48072 0
M  V30 939 C 91.0992 0.819163 4.74176 0
M  V30 940 C 93.4512 1.27465 5.05373 0
M  V30 941 C 90.7792 1.90708 5.5484 0
M  V30 942 C 93.1312 2.35271 5.87223 0
M  V30 943 C 91.7952 2.67336 6.11627 0
M  V30 944 H 91.0652 -0.0989482 0.734364 0
M  V30 945 H 93.7122 0.455324 1.86008 0
M  V30 946 H 92.0172 -1.44938 3.64006 0
M  V30 947 H 93.7142 -1.11949 3.85056 0
M  V30 948 H 90.3042 0.248733 4.27878 0
M  V30 949 H 94.4882 1.04462 4.85182 0
M  V30 950 H 89.7442 2.15991 5.71977 0
M  V30 951 H 93.9182 2.95405 6.30641 0
M  V30 952 H 91.5452 3.51763 6.73919 0
M  V30 953 N 93.1203 -1.57491 0.0584922 0
M  V30 954 C 94.3663 -1.94081 -0.608617 0
M  V30 955 C 94.7213 -0.937438 -1.68017 0
M  V30 956 O 94.0143 0.0423034 -1.91553 0
M  V30 957 C 94.2083 -3.3513 -1.24188 0
M  V30 958 C 94.0373 -4.49095 -0.233187 0
M  V30 959 C 92.8073 -5.04988 0.177439 0
M  V30 960 C 95.0053 -5.1162 0.524306 0
M  V30 961 N 92.9873 -6.02487 1.17823 0
M  V30 962 C 94.3583 -6.04493 1.37796 0
M  V30 963 C 96.4133 -4.94489 0.581822 0
M  V30 964 C 95.1163 -6.82075 2.28399 0
M  V30 965 C 97.1423 -5.72703 1.47531 0
M  V30 966 C 96.5043 -6.65214 2.31667 0
M  V30 967 H 92.6033 -0.75752 -0.194134 0
M  V30 968 H 95.1873 -1.94248 0.132533 0
M  V30 969 H 93.3583 -3.35726 -1.95302 0
M  V30 970 H 95.0903 -3.5899 -1.86838 0
M  V30 971 H 91.8453 -4.73165 -0.203004 0
M  V30 972 H 92.2693 -6.55933 1.67573 0
M  V30 973 H 96.9113 -4.22765 -0.054443 0
M  V30 974 H 94.6293 -7.53085 2.93067 0
M  V30 975 H 98.2153 -5.61472 1.52448 0
M  V30 976 H 97.0953 -7.24679 2.99683 0
M  V30 977 N 94.5984 0.214957 -1.56127 0
M  V30 978 C 95.5084 1.28727 -1.96129 0
M  V30 979 C 96.5244 1.50916 -0.866044 0
M  V30 980 O 97.7004 1.63918 -1.17016 0
M  V30 981 C 94.7654 2.61569 -2.27558 0
M  V30 982 C 93.8264 2.47625 -3.50685 0
M  V30 983 C 93.0594 3.74132 -3.80606 0
M  V30 984 O 93.2824 4.77438 -3.12104 0
M  V30 985 O 92.2164 3.70849 -4.74083 0
M  V30 986 H 96.0424 0.977855 -2.87527 0
M  V30 987 H 93.6274 0.418358 -1.43423 0
M  V30 988 H 95.5094 3.40012 -2.48938 0
M  V30 989 H 94.1844 2.92178 -1.39332 0
M  V30 990 H 93.0914 1.67361 -3.34576 0
M  V30 991 H 94.4244 2.21954 -4.39315 0
M  V30 992 N 96.0765 1.50051 0.48192 0
M  V30 993 C 96.9865 1.7089 1.60728 0
M  V30 994 C 98.0025 0.591788 1.63627 0
M  V30 995 O 99.1785 0.868817 1.81696 0
M  V30 996 C 96.2435 1.78855 2.97005 0
M  V30 997 C 95.3045 3.02537 3.04581 0
M  V30 998 C 94.5375 3.10112 4.34357 0
M  V30 999 O 94.7605 2.24765 5.24249 0
M  V30 1000 O 93.6945 4.02747 4.47301 0
M  V30 1001 H 97.5205 2.66264 1.46072 0
M  V30 1002 H 95.1055 1.34018 0.660264 0
M  V30 1003 H 96.9875 1.86336 3.77964 0
M  V30 1004 H 95.6625 0.866628 3.11883 0
M  V30 1005 H 94.5695 3.00563 2.22739 0
M  V30 1006 H 95.9025 3.94272 2.94636 0
M  V30 1007 N 97.5546 -0.734337 1.39446 0
M  V30 1008 C 98.5176 -1.83004 1.37994 0
M  V30 1009 C 99.5176 -1.58397 0.276938 0
M  V30 1010 O 100.708 -1.65785 0.534875 0
M  V30 1011 C 97.8396 -3.20802 1.1532 0
M  V30 1012 H 99.0326 -1.85694 2.35494 0
M  V30 1013 H 96.5856 -0.938059 1.25021 0
M  V30 1014 H 97.3206 -3.23772 0.185036 0
M  V30 1015 H 97.1056 -3.4006 1.95197 0
M  V30 1016 H 98.5956 -4.00862 1.17046 0
M  V30 1017 N 99.0327 -1.24633 -0.964593 0
M  V30 1018 C 99.9957 -1.0424 -2.04124 0
M  V30 1019 C 100.996 0.00137563 -1.608 0
M  V30 1020 O 102.186 -0.239883 -1.7254 0
M  V30 1021 C 99.3177 -0.580588 -3.3592 0
M  V30 1022 H 100.511 -1.99803 -2.23649 0
M  V30 1023 H 98.0637 -1.06899 -1.14027 0
M  V30 1024 H 98.7987 0.3781 -3.22088 0
M  V30 1025 H 98.5837 -1.33398 -3.6871 0
M  V30 1026 H 100.074 -0.459034 -4.15069 0
M  V30 1027 N 100.511 1.16574 -1.06058 0
M  V30 1028 C 101.736 1.91493 -0.796562 0
M  V30 1029 C 102.161 1.76773 0.642868 0
M  V30 1030 O 101.519 1.09142 1.44768 0
M  V30 1031 C 101.567 3.40293 -1.19303 0
M  V30 1032 O 100.671 4.11074 -0.330394 0
M  V30 1033 H 100.012 0.596678 -0.291326 0
M  V30 1034 H 102.542 1.47708 -1.41575 0
M  V30 1035 H 102.552 3.91057 -1.16356 0
M  V30 1036 H 101.227 3.50326 -2.24153 0
M  V30 1037 H 99.8038 3.70513 -0.421225 0
M  V30 1038 N 101.989 0.842826 1.3317 0
M  V30 1039 C 102.952 0.284065 2.27433 0
M  V30 1040 C 103.952 -0.54948 1.5112 0
M  V30 1041 O 105.142 -0.362699 1.70382 0
M  V30 1042 C 102.274 -0.599384 3.35589 0
M  V30 1043 H 103.467 1.11589 2.78366 0
M  V30 1044 H 101.02 0.616221 1.4364 0
M  V30 1045 H 101.755 -1.45349 2.89904 0
M  V30 1046 H 101.54 -0.00291266 3.921 0
M  V30 1047 H 103.03 -0.983488 4.05854 0
M  V30 1048 N 103.467 -1.45747 0.599634 0
M  V30 1049 C 104.715 -2.01893 0.0915472 0
M  V30 1050 C 105.036 -1.47155 -1.27946 0
M  V30 1051 O 104.306 -0.66273 -1.84349 0
M  V30 1052 H 102.886 -0.746363 0.0308524 0
M  V30 1053 H 105.548 -1.78645 0.779237 0
M  V30 1054 H 104.644 -3.1208 0.0353086 0
M  V30 1055 N 104.945 -0.338344 -1.53925 0
M  V30 1056 C 106.191 0.260143 -2.01125 0
M  V30 1057 C 106.524 1.50617 -1.22589 0
M  V30 1058 O 105.799 1.91979 -0.312113 0
M  V30 1059 C 106.082 0.579499 -3.55407 0
M  V30 1060 C 105.935 -0.678264 -4.44657 0
M  V30 1061 C 107.254 1.39122 -4.17532 0
M  V30 1062 H 104.373 0.0930772 -0.731099 0
M  V30 1063 H 107.015 -0.457852 -1.84401 0
M  V30 1064 H 105.165 1.19118 -3.69788 0
M  V30 1065 H 106.837 -1.31631 -4.42121 0
M  V30 1066 H 105.08 -1.3042 -4.13731 0
M  V30 1067 H 105.751 -0.410143 -5.50474 0
M  V30 1068 H 108.227 0.874035 -4.06817 0
M  V30 1069 H 107.103 1.58342 -5.25565 0
M  V30 1070 H 107.364 2.39178 -3.71815 0
M  V30 1071 N 106.423 1.57458 -0.0668435 0
M  V30 1072 C 107.671 1.92919 0.602214 0
M  V30 1073 C 107.992 0.947215 1.70449 0
M  V30 1074 O 107.262 -0.00544117 1.95899 0
M  V30 1075 H 105.842 0.71217 0.22544 0
M  V30 1076 H 108.504 1.94508 -0.123535 0
M  V30 1077 H 107.6 2.94589 1.03073 0
M  V30 1078 N 107.901 -0.206675 1.56239 0
M  V30 1079 C 109.312 -0.772383 1.69974 0
M  V30 1080 C 109.663 -1.84353 0.671436 0
M  V30 1081 O 108.788 -2.15695 -0.174491 0
M  V30 1082 C 109.383 -1.40779 3.08167 0
M  V30 1083 C 107.942 -1.92072 3.23706 0
M  V30 1084 C 107.089 -0.786347 2.65917 0
M  V30 1085 H 110.04 0.0182223 1.5869 0
M  V30 1086 H 110.061 -2.27696 3.04852 0
M  V30 1087 H 109.573 -0.627958 3.82986 0
M  V30 1088 H 107.674 -2.7281 2.53782 0
M  V30 1089 H 107.787 -2.09046 4.31087 0
M  V30 1090 H 106.151 -1.1976 2.24788 0
M  V30 1091 H 106.934 -0.0189416 3.43295 0
M  V30 1092 N 109.379 -1.50304 -0.473955 0
M  V30 1093 C 110.627 -1.60832 -1.22382 0
M  V30 1094 C 110.948 -0.30939 -1.9253 0
M  V30 1095 O 110.218 0.67296 -1.83978 0
M  V30 1096 H 108.798 -0.592652 -0.454723 0
M  V30 1097 H 111.46 -1.87068 -0.546968 0
M  V30 1098 H 110.556 -2.41803 -1.97327 0
M  V30 1099 N 110.857 0.726932 -1.39834 0
M  V30 1100 C 111.805 1.86235 -1.39353 0
M  V30 1101 C 112.799 1.67144 -0.275555 0
M  V30 1102 O 114.005 1.74387 -0.44601 0
M  V30 1103 H 110.38 0.613174 -0.43534 0
M  V30 1104 H 112.351 1.83756 -2.35109 0
M  V30 1105 C 111.1 3.23995 -1.26185 0
M  V30 1106 H 110.423 3.39285 -2.11484 0
M  V30 1107 H 111.863 4.03609 -1.29907 0
M  V30 1108 C 110.322 3.36888 0.0290018 0
M  V30 1109 O 110.852 3.89152 0.99619 0
M  V30 1110 N 109.058 2.90446 0.0947437 0
M  V30 1111 H 108.605 2.48102 -0.693035 0
M  V30 1112 H 108.563 2.99451 0.957932 0
M  V30 1113 N 112.336 1.25143 0.95797 0
M  V30 1114 C 113.566 1.12261 1.73439 0
M  V30 1115 C 113.974 -0.326715 1.86358 0
M  V30 1116 O 113.317 -1.2367 1.35836 0
M  V30 1117 C 113.379 1.69966 3.16784 0
M  V30 1118 C 113.043 3.18936 3.27305 0
M  V30 1119 C 114.04 4.15968 3.11877 0
M  V30 1120 C 111.725 3.59083 3.51234 0
M  V30 1121 C 113.719 5.51126 3.20217 0
M  V30 1122 C 111.406 4.9438 3.5921 0
M  V30 1123 C 112.404 5.90211 3.43716 0
M  V30 1124 O 112.092 7.23046 3.51368 0
M  V30 1125 H 111.824 0.392476 0.550399 0
M  V30 1126 H 114.378 1.65927 1.21068 0
M  V30 1127 H 112.608 1.10744 3.70503 0
M  V30 1128 H 114.297 1.52232 3.76272 0
M  V30 1129 H 115.063 3.86292 2.93264 0
M  V30 1130 H 110.942 2.84989 3.62356 0
M  V30 1131 H 114.486 6.25905 3.0804 0
M  V30 1132 H 110.383 5.23723 3.77339 0
M  V30 1133 H 111.151 7.31097 3.6802 0
M  V30 1134 N 113.814 -1.1601 1.06675 0
M  V30 1135 C 115.039 -1.91068 0.806706 0
M  V30 1136 C 115.464 -1.77112 -0.633485 0
M  V30 1137 O 114.822 -1.09908 -1.44187 0
M  V30 1138 C 114.87 -3.39655 1.21106 0
M  V30 1139 O 113.974 -4.10893 0.352189 0
M  V30 1140 H 113.315 -0.595125 0.294486 0
M  V30 1141 H 115.845 -1.46955 1.42356 0
M  V30 1142 H 115.855 -3.90434 1.18428 0
M  V30 1143 H 114.53 -3.49132 2.26008 0
M  V30 1144 H 113.107 -3.70285 0.440868 0
M  V30 1145 N 115.292 -0.849877 -1.32721 0
M  V30 1146 C 116.539 -0.450923 -1.97416 0
M  V30 1147 C 116.867 0.992376 -1.67279 0
M  V30 1148 O 116.122 1.71048 -0.950845 0
M  V30 1149 C 116.421 -0.631272 -3.51781 0
M  V30 1150 C 116.087 -2.04432 -4.01894 0
M  V30 1151 C 114.749 -2.4308 -4.1529 0
M  V30 1152 C 117.101 -2.96679 -4.28522 0
M  V30 1153 C 114.429 -3.73257 -4.52654 0
M  V30 1154 C 116.781 -4.26349 -4.67343 0
M  V30 1155 C 115.445 -4.64939 -4.78945 0
M  V30 1156 H 114.715 -0.165004 -0.722395 0
M  V30 1157 H 117.362 -1.07901 -1.58207 0
M  V30 1158 H 115.667 0.0800767 -3.91718 0
M  V30 1159 H 117.364 -0.302709 -3.99856 0
M  V30 1160 H 113.954 -1.73419 -3.91949 0
M  V30 1161 H 118.138 -2.68054 -4.17685 0
M  V30 1162 H 113.394 -4.02946 -4.59831 0
M  V30 1163 H 117.568 -4.97895 -4.86902 0
M  V30 1164 H 115.195 -5.65855 -5.07654 0
M  V30 1165 N 116.77 1.45427 -0.607355 0
M  V30 1166 C 117.995 2.07124 -0.107006 0
M  V30 1167 C 118.42 1.44906 1.19933 0
M  V30 1168 O 117.778 0.541687 1.73019 0
M  V30 1169 C 117.826 3.60595 0.0194119 0
M  V30 1170 O 116.93 3.98285 1.0697 0
M  V30 1171 H 116.271 0.659868 -0.0739597 0
M  V30 1172 H 118.801 1.86683 -0.837297 0
M  V30 1173 H 118.811 4.07419 0.2177 0
M  V30 1174 H 117.486 4.05266 -0.934453 0
M  V30 1175 H 116.063 3.63133 0.847889 0
M  V30 1176 N 118.248 0.346503 1.53744 0
M  V30 1177 C 119.478 -0.250047 2.05081 0
M  V30 1178 C 119.886 -1.44529 1.22098 0
M  V30 1179 O 119.229 -1.81992 0.249917 0
M  V30 1180 C 119.291 -0.725934 3.52094 0
M  V30 1181 C 118.955 0.350053 4.55657 0
M  V30 1182 C 119.952 1.19372 5.0601 0
M  V30 1183 C 117.637 0.504827 4.99757 0
M  V30 1184 C 119.631 2.17768 5.99046 0
M  V30 1185 C 117.318 1.49218 5.92602 0
M  V30 1186 C 118.316 2.32706 6.42135 0
M  V30 1187 O 118.004 3.2976 7.33153 0
M  V30 1188 H 117.736 -0.0515469 0.674032 0
M  V30 1189 H 120.29 0.497559 1.99282 0
M  V30 1190 H 118.52 -1.52483 3.55367 0
M  V30 1191 H 120.209 -1.24336 3.86388 0
M  V30 1192 H 120.975 1.08525 4.72702 0
M  V30 1193 H 116.854 -0.135178 4.60802 0
M  V30 1194 H 120.398 2.82971 6.37631 0
M  V30 1195 H 116.295 1.6012 6.25325 0
M  V30 1196 H 117.063 3.25265 7.51096 0
M  V30 1197 N 119.726 -1.57421 0.075193 0
M  V30 1198 C 120.658 -2.09904 -0.920483 0
M  V30 1199 C 121.671 -1.03191 -1.25918 0
M  V30 1200 O 122.86 -1.30695 -1.21577 0
M  V30 1201 C 119.96 -2.54726 -2.23534 0
M  V30 1202 C 119.133 -3.8505 -2.07498 0
M  V30 1203 C 118.192 -4.15929 -3.22319 0
M  V30 1204 O 117.218 -4.85474 -2.9716 0
M  V30 1205 N 118.42 -3.69745 -4.47514 0
M  V30 1206 H 121.185 -2.95954 -0.472359 0
M  V30 1207 H 118.746 -1.61523 -0.110444 0
M  V30 1208 H 120.738 -2.72443 -2.9926 0
M  V30 1209 H 119.308 -1.73795 -2.59835 0
M  V30 1210 H 118.528 -3.76679 -1.16219 0
M  V30 1211 H 119.816 -4.70348 -1.94038 0
M  V30 1212 H 119.214 -3.13569 -4.7084 0
M  V30 1213 H 117.771 -3.92655 -5.20255 0
M  V30 1214 N 121.204 0.198386 -1.56346 0
M  V30 1215 C 122.134 1.24865 -1.9731 0
M  V30 1216 C 123.115 1.47651 -0.844576 0
M  V30 1217 O 124.3 1.59444 -1.10866 0
M  V30 1218 C 121.43 2.59358 -2.30977 0
M  V30 1219 C 120.384 2.5119 -3.46537 0
M  V30 1220 C 119.71 3.89926 -3.65871 0
M  V30 1221 C 121.01 2.03977 -4.80823 0
M  V30 1222 H 122.704 0.908252 -2.85291 0
M  V30 1223 H 120.25 0.435462 -1.37258 0
M  V30 1224 H 122.203 3.33011 -2.58228 0
M  V30 1225 H 120.927 2.95132 -1.39874 0
M  V30 1226 H 119.586 1.79993 -3.19371 0
M  V30 1227 H 119.234 4.23046 -2.72105 0
M  V30 1228 H 118.934 3.85336 -4.4361 0
M  V30 1229 H 120.458 4.65205 -3.95495 0
M  V30 1230 H 121.872 2.67386 -5.07127 0
M  V30 1231 H 120.269 2.10397 -5.62008 0
M  V30 1232 H 121.339 0.992861 -4.74626 0
M  V30 1233 N 122.682 1.50554 0.465978 0
M  V30 1234 C 123.592 1.72585 1.58907 0
M  V30 1235 C 124.608 0.60911 1.6299 0
M  V30 1236 O 125.784 0.88804 1.80765 0
M  V30 1237 C 122.849 1.81995 2.95091 0
M  V30 1238 C 121.91 3.05751 3.01355 0
M  V30 1239 C 121.143 3.14702 4.31043 0
M  V30 1240 O 121.366 2.30313 5.21835 0
M  V30 1241 O 120.3 4.07468 4.43005 0
M  V30 1242 H 124.126 2.67799 1.43239 0
M  V30 1243 H 121.711 1.34711 0.646013 0
M  V30 1244 H 123.593 1.90335 3.75966 0
M  V30 1245 H 122.268 0.899659 3.10947 0
M  V30 1246 H 121.175 3.02908 2.19539 0
M  V30 1247 H 122.508 3.97375 2.90437 0
M  V30 1248 N 124.16 -0.719506 1.40217 0
M  V30 1249 C 125.437 -1.47221 1.28784 0
M  V30 1250 C 125.817 -2.10883 -0.0956067 0
M  V30 1251 O 125.165 -1.99833 -1.10811 0
M  V30 1252 C 125.375 -2.5111 2.42373 0
M  V30 1253 C 126.723 -3.17053 2.82423 0
M  V30 1254 O 127.747 -2.61429 2.41937 0
M  V30 1255 O 126.606 -4.17742 3.52355 0
M  V30 1256 H 123.7 -0.654491 0.50554 0
M  V30 1257 H 126.246 -0.752014 1.52128 0
M  V30 1258 H 125.018 -2.02556 3.34793 0
M  V30 1259 H 124.641 -3.3067 2.20778 0
M  V30 1260 N 125.638 -1.25649 -0.95132 0
M  V30 1261 C 126.548 -1.08073 -2.08224 0
M  V30 1262 C 127.564 -0.0169666 -1.73992 0
M  V30 1263 O 128.74 -0.218593 -2.0021 0
M  V30 1264 C 125.805 -0.704922 -3.39458 0
M  V30 1265 C 124.866 -1.84699 -3.87537 0
M  V30 1266 C 124.099 -1.48902 -5.12508 0
M  V30 1267 O 124.322 -0.386156 -5.69091 0
M  V30 1268 O 123.256 -2.32033 -5.55378 0
M  V30 1269 H 127.082 -2.02924 -2.25954 0
M  V30 1270 H 124.667 -1.04618 -1.06656 0
M  V30 1271 H 126.549 -0.507609 -4.18332 0
M  V30 1272 H 125.224 0.214291 -3.2299 0
M  V30 1273 H 124.131 -2.09919 -3.09653 0
M  V30 1274 H 125.464 -2.74557 -4.08509 0
M  V30 1275 N 127.117 1.15442 -1.07289 0
M  V30 1276 C 128.528 1.67803 -0.818475 0
M  V30 1277 C 128.879 1.8489 0.656507 0
M  V30 1278 O 128.004 1.55176 1.50829 0
M  V30 1279 C 128.599 3.04805 -1.47917 0
M  V30 1280 C 127.158 3.54245 -1.27229 0
M  V30 1281 C 126.305 2.29986 -1.54925 0
M  V30 1282 H 129.256 0.996646 -1.23502 0
M  V30 1283 H 129.277 3.69702 -0.90005 0
M  V30 1284 H 128.789 2.92336 -2.55267 0
M  V30 1285 H 126.89 3.71956 -0.21899 0
M  V30 1286 H 127.003 4.35723 -1.99203 0
M  V30 1287 H 125.367 2.35496 -0.970242 0
M  V30 1288 H 126.15 2.20105 -2.63455 0
M  V30 1289 N 128.595 0.856903 1.32268 0
M  V30 1290 C 129.841 0.471355 1.97863 0
M  V30 1291 C 130.196 -0.962896 1.66572 0
M  V30 1292 O 129.489 -1.66686 0.944797 0
M  V30 1293 C 129.683 0.649919 3.51441 0
M  V30 1294 C 129.512 2.09997 3.97657 0
M  V30 1295 C 128.282 2.73893 4.2463 0
M  V30 1296 C 130.48 3.07081 4.1256 0
M  V30 1297 N 128.462 4.09786 4.57109 0
M  V30 1298 C 129.833 4.27968 4.48602 0
M  V30 1299 C 131.888 3.03247 3.949 0
M  V30 1300 C 130.591 5.45521 4.68827 0
M  V30 1301 C 132.617 4.20046 4.16311 0
M  V30 1302 C 131.979 5.39692 4.52672 0
M  V30 1303 H 128.078 0.221263 0.750044 0
M  V30 1304 H 130.662 1.10876 1.60045 0
M  V30 1305 H 128.833 0.0421938 3.88377 0
M  V30 1306 H 130.565 0.234044 4.04023 0
M  V30 1307 H 127.32 2.24918 4.16784 0
M  V30 1308 H 127.744 4.7989 4.7753 0
M  V30 1309 H 132.386 2.11863 3.65888 0
M  V30 1310 H 130.104 6.37434 4.96693 0
M  V30 1311 H 133.69 4.18517 4.04147 0
M  V30 1312 H 132.57 6.28566 4.68907 0
M  V30 1313 N 130.073 -1.45103 0.615059 0
M  V30 1314 C 131.02 -2.30586 -0.0993978 0
M  V30 1315 C 131.99 -1.42544 -0.852669 0
M  V30 1316 O 133.175 -1.71465 -0.836917 0
M  V30 1317 C 130.315 -3.27572 -1.08583 0
M  V30 1318 C 129.428 -4.30717 -0.332656 0
M  V30 1319 C 128.563 -5.14807 -1.30947 0
M  V30 1320 C 127.602 -6.09673 -0.544538 0
M  V30 1321 N 126.739 -6.86517 -1.47101 0
M  V30 1322 H 131.579 -2.91144 0.635542 0
M  V30 1323 H 129.116 -1.4346 0.325206 0
M  V30 1324 H 131.074 -3.82276 -1.67095 0
M  V30 1325 H 129.704 -2.68751 -1.78809 0
M  V30 1326 H 128.756 -3.78615 0.368107 0
M  V30 1327 H 130.068 -4.98102 0.263842 0
M  V30 1328 H 129.222 -5.73948 -1.96643 0
M  V30 1329 H 127.961 -4.47458 -1.9399 0
M  V30 1330 H 126.966 -5.49656 0.126003 0
M  V30 1331 H 128.191 -6.79052 0.080947 0
M  V30 1332 H 126.137 -6.21851 -2.08895 0
M  V30 1333 H 126.054 -7.50281 -0.928137 0
M  V30 1334 H 127.322 -7.50194 -2.11731 0
M  V30 1335 N 131.551 -0.354651 -1.53558 0
M  V30 1336 C 132.481 0.489091 -2.2832 0
M  V30 1337 C 133.462 1.09324 -1.30316 0
M  V30 1338 O 134.647 1.11255 -1.59173 0
M  V30 1339 C 131.777 1.63456 -3.0643 0
M  V30 1340 C 130.731 1.1582 -4.12031 0
M  V30 1341 C 130.057 2.39305 -4.7816 0
M  V30 1342 C 131.357 0.250731 -5.21698 0
M  V30 1343 H 133.051 -0.134614 -2.99097 0
M  V30 1344 H 130.597 -0.0661826 -1.43848 0
M  V30 1345 H 132.55 2.23136 -3.57475 0
M  V30 1346 H 131.274 2.28533 -2.33325 0
M  V30 1347 H 129.933 0.584146 -3.61916 0
M  V30 1348 H 129.581 3.02814 -4.01637 0
M  V30 1349 H 129.281 2.08109 -5.49513 0
M  V30 1350 H 130.805 2.99691 -5.31994 0
M  V30 1351 H 132.219 0.754695 -5.68311 0
M  V30 1352 H 130.616 0.0301468 -6.00092 0
M  V30 1353 H 131.686 -0.710125 -4.79672 0
M  V30 1354 N 133.029 1.57378 -0.0835403 0
M  V30 1355 C 134.269 1.95808 0.586381 0
M  V30 1356 C 134.633 0.963706 1.66062 0
M  V30 1357 O 135.834 1.23608 2.38693 0
M  V30 1358 C 134.105 3.38808 1.13771 0
M  V30 1359 S 135.664 3.99225 1.82112 0
M  V30 1360 H 132.482 0.684675 0.191679 0
M  V30 1361 H 135.084 1.94843 -0.160194 0
M  V30 1362 H 133.788 4.08954 0.344197 0
M  V30 1363 H 133.319 3.43344 1.92038 0
M  V30 1364 H 135.334 3.87087 3.10449 0
M  V30 1365 N 134.507 -0.190092 1.56449 0
M  V30 1366 C 135.923 -0.54113 1.50146 0
M  V30 1367 C 136.123 -1.85603 0.784465 0
M  V30 1368 O 135.179 -2.5024 0.337051 0
M  V30 1369 C 136.492 -0.591241 2.9483 0
M  V30 1370 C 138.04 -0.679732 3.0553 0
M  V30 1371 C 138.515 -0.760908 4.51635 0
M  V30 1372 N 140.006 -0.824302 4.55806 0
M  V30 1373 C 140.741 -0.907365 5.66175 0
M  V30 1374 N 140.237 -0.952422 6.86222 0
M  V30 1375 N 142.03 -0.94494 5.541 0
M  V30 1376 H 134.181 0.67235 2.01478 0
M  V30 1377 H 136.444 0.240127 0.917084 0
M  V30 1378 H 136.15 0.305905 3.50367 0
M  V30 1379 H 136.024 -1.44422 3.48457 0
M  V30 1380 H 138.411 -1.56731 2.50039 0
M  V30 1381 H 138.492 0.199549 2.5502 0
M  V30 1382 H 138.136 0.122336 5.07753 0
M  V30 1383 H 138.066 -1.65606 4.99882 0
M  V30 1384 H 140.557 -0.798526 3.69367 0
M  V30 1385 H 140.87 -1.01645 7.66086 0
M  V30 1386 H 139.215 -0.921014 6.8887 0
M  V30 1387 H 142.406 -0.906612 4.59236 0
M  V30 1388 H 142.579 -1.00622 6.4014 0
M  V30 1389 N 135.985 -1.50799 -0.457987 0
M  V30 1390 C 136.915 -1.73553 -1.5621 0
M  V30 1391 C 137.896 -0.584774 -1.59732 0
M  V30 1392 O 139.081 -0.825314 -1.7579 0
M  V30 1393 C 136.211 -1.84169 -2.94447 0
M  V30 1394 C 135.165 -2.99461 -3.0579 0
M  V30 1395 C 134.491 -2.95235 -4.45803 0
M  V30 1396 C 135.791 -4.39766 -2.81786 0
M  V30 1397 H 137.485 -2.66 -1.37421 0
M  V30 1398 H 135.031 -1.28002 -0.659662 0
M  V30 1399 H 136.984 -1.98672 -3.71628 0
M  V30 1400 H 135.708 -0.883545 -3.14422 0
M  V30 1401 H 134.367 -2.8463 -2.31044 0
M  V30 1402 H 134.015 -1.97239 -4.62715 0
M  V30 1403 H 133.715 -3.72642 -4.54326 0
M  V30 1404 H 135.239 -3.11803 -5.24987 0
M  V30 1405 H 136.653 -4.55054 -3.4871 0
M  V30 1406 H 135.05 -5.18722 -3.0174 0
M  V30 1407 H 136.12 -4.51229 -1.7754 0
M  V30 1408 N 137.463 0.71206 -1.40597 0
M  V30 1409 C 138.413 1.81783 -1.37619 0
M  V30 1410 C 139.397 1.58896 -0.253162 0
M  V30 1411 O 140.589 1.70009 -0.492547 0
M  V30 1412 C 137.718 3.19944 -1.24462 0
M  V30 1413 C 136.804 3.48582 -2.4156 0
M  V30 1414 N 137.195 3.48016 -3.67041 0
M  V30 1415 C 135.493 3.79056 -2.35016 0
M  V30 1416 C 136.194 3.75096 -4.44609 0
M  V30 1417 N 135.17 3.94022 -3.74497 0
M  V30 1418 H 138.972 1.79683 -2.32575 0
M  V30 1419 H 136.486 0.91134 -1.34419 0
M  V30 1420 H 138.483 3.99133 -1.20411 0
M  V30 1421 H 137.143 3.23267 -0.304762 0
M  V30 1422 H 138.154 3.28782 -4.00153 0
M  V30 1423 H 134.831 3.89848 -1.49415 0
M  V30 1424 H 136.221 3.80934 -5.53479 0
M  V30 1425 N 138.941 1.26152 0.944643 0
M  V30 1426 C 139.873 1.03199 2.04652 0
M  V30 1427 C 140.886 -0.00642356 1.62799 0
M  V30 1428 O 142.075 0.233263 1.76969 0
M  V30 1429 C 139.175 0.540111 3.34568 0
M  V30 1430 C 138.348 1.64697 4.05208 0
M  V30 1431 C 137.407 1.15374 5.13396 0
M  V30 1432 O 136.433 1.85013 5.38293 0
M  V30 1433 N 137.635 0.00031529 5.805 0
M  V30 1434 H 140.4 1.9808 2.2491 0
M  V30 1435 H 137.961 1.17491 1.11389 0
M  V30 1436 H 139.953 0.194401 4.04233 0
M  V30 1437 H 138.523 -0.315021 3.11009 0
M  V30 1438 H 137.743 2.16379 3.29506 0
M  V30 1439 H 139.031 2.3903 4.49157 0
M  V30 1440 H 138.429 -0.581336 5.62705 0
M  V30 1441 H 136.986 -0.286346 6.51171 0
M  V30 1442 N 140.419 -1.14872 1.07899 0
M  V30 1443 C 141.382 -2.17986 0.708161 0
M  V30 1444 C 142.382 -1.58775 -0.25442 0
M  V30 1445 O 143.572 -1.74166 -0.034645 0
M  V30 1446 C 140.704 -3.40871 0.0446929 0
M  V30 1447 H 141.897 -2.52306 1.62116 0
M  V30 1448 H 139.45 -1.2943 0.876218 0
M  V30 1449 H 140.185 -3.12124 -0.880281 0
M  V30 1450 H 139.97 -3.8511 0.737091 0
M  V30 1451 H 141.46 -4.17121 -0.19991 0
M  V30 1452 N 141.898 -0.863906 -1.31812 0
M  V30 1453 C 143.309 -0.52522 -1.7916 0
M  V30 1454 C 143.66 0.957518 -1.71248 0
M  V30 1455 O 142.785 1.74734 -1.27659 0
M  V30 1456 C 143.38 -0.9466 -3.25307 0
M  V30 1457 C 141.939 -0.659668 -3.70574 0
M  V30 1458 C 141.086 -1.14126 -2.52726 0
M  V30 1459 H 144.037 -1.05022 -1.1898 0
M  V30 1460 H 144.058 -0.266766 -3.79564 0
M  V30 1461 H 143.57 -2.02579 -3.31034 0
M  V30 1462 H 141.671 0.408416 -3.70355 0
M  V30 1463 H 141.784 -1.23245 -4.62977 0
M  V30 1464 H 140.148 -0.561216 -2.4844 0
M  V30 1465 H 140.931 -2.22775 -2.61201 0
M  V30 1466 N 143.376 1.44774 -0.622745 0
M  V30 1467 C 144.604 2.06487 -0.130722 0
M  V30 1468 C 145.019 1.46476 1.19123 0
M  V30 1469 O 144.376 0.584502 1.72887 0
M  V30 1470 C 144.427 3.615 -0.000807207 0
M  V30 1471 O 144.148 4.19274 -1.27048 0
M  V30 1472 C 145.649 4.40229 0.520898 0
M  V30 1473 H 142.869 0.666704 -0.0758106 0
M  V30 1474 H 145.413 1.85779 -0.854774 0
M  V30 1475 H 143.568 3.81498 0.673643 0
M  V30 1476 H 143.982 5.12622 -1.1099 0
M  V30 1477 H 145.456 5.49144 0.560838 0
M  V30 1478 H 145.933 4.1108 1.54627 0
M  V30 1479 H 146.539 4.25131 -0.120018 0
M  V30 1480 N 144.854 0.36279 1.53368 0
M  V30 1481 C 145.817 -0.472679 2.24273 0
M  V30 1482 C 146.817 -1.012 1.24961 0
M  V30 1483 O 148.007 -0.898194 1.49259 0
M  V30 1484 C 145.139 -1.66039 2.97731 0
M  V30 1485 H 146.332 0.14773 2.99536 0
M  V30 1486 H 143.885 0.114434 1.55881 0
M  V30 1487 H 144.62 -2.31896 2.26704 0
M  V30 1488 H 144.405 -1.28066 3.70596 0
M  V30 1489 H 145.895 -2.25252 3.51641 0
M  V30 1490 N 146.332 -1.57332 0.0918853 0
M  V30 1491 C 147.748 -1.57389 -0.264766 0
M  V30 1492 C 147.948 -1.10281 -1.68643 0
M  V30 1493 O 147.004 -0.777801 -2.40222 0
M  V30 1494 C 148.317 -3.00648 -0.0561195 0
M  V30 1495 C 149.865 -3.12754 -0.124116 0
M  V30 1496 C 150.34 -4.57965 0.0564972 0
M  V30 1497 N 151.831 -4.632 0.00155611 0
M  V30 1498 C 152.566 -5.73281 0.116598 0
M  V30 1499 N 152.062 -6.92208 0.286294 0
M  V30 1500 N 153.855 -5.6207 0.0580973 0
M  V30 1501 H 146.006 -1.86262 1.02079 0
M  V30 1502 H 148.269 -0.859579 0.399786 0
M  V30 1503 H 147.975 -3.393 0.925669 0
M  V30 1504 H 147.849 -3.68623 -0.799823 0
M  V30 1505 H 150.236 -2.73976 -1.09641 0
M  V30 1506 H 150.317 -2.47377 0.651024 0
M  V30 1507 H 149.961 -4.97436 1.02564 0
M  V30 1508 H 149.891 -5.21399 -0.738297 0
M  V30 1509 H 152.382 -3.77686 -0.127192 0
M  V30 1510 H 152.695 -7.71934 0.365676 0
M  V30 1511 H 151.04 -6.94254 0.32192 0
M  V30 1512 H 154.231 -4.68043 -0.0733204 0
M  V30 1513 H 154.404 -6.47824 0.151203 0
M  V30 1514 N 147.81 0.181792 -1.56548 0
M  V30 1515 C 149.058 0.89832 -1.81038 0
M  V30 1516 C 149.379 1.83232 -0.667164 0
M  V30 1517 O 148.649 1.93372 0.313673 0
M  V30 1518 H 147.229 0.33471 -0.667816 0
M  V30 1519 H 149.891 0.184116 -1.94028 0
M  V30 1520 H 148.987 1.4815 -2.74696 0
M  V30 1521 N 149.288 1.51039 0.449983 0
M  V30 1522 C 150.251 1.70863 1.5277 0
M  V30 1523 C 151.251 0.578846 1.5002 0
M  V30 1524 O 152.441 0.846213 1.52266 0
M  V30 1525 C 149.573 1.75341 2.9235 0
M  V30 1526 H 150.766 2.67034 1.36502 0
M  V30 1527 H 148.319 1.40838 0.677812 0
M  V30 1528 H 149.054 0.809383 3.14037 0
M  V30 1529 H 148.839 2.57436 2.95752 0
M  V30 1530 H 150.329 1.92559 3.70555 0
M  V30 1531 N 150.766 -0.704594 1.40972 0
M  V30 1532 C 152.012 -1.46675 1.40051 0
M  V30 1533 C 152.345 -1.94199 0.00641102 0
M  V30 1534 O 151.62 -1.68916 -0.964235 0
M  V30 1535 C 151.903 -2.68505 2.39952 0
M  V30 1536 C 151.756 -2.26805 3.88432 0
M  V30 1537 C 153.075 -3.70686 2.37233 0
M  V30 1538 H 150.194 -0.532015 0.510028 0
M  V30 1539 H 152.836 -0.803255 1.72185 0
M  V30 1540 H 150.986 -3.25114 2.1268 0
M  V30 1541 H 152.658 -1.75592 4.26574 0
M  V30 1542 H 150.901 -1.58685 4.03734 0
M  V30 1543 H 151.572 -3.14181 4.53866 0
M  V30 1544 H 154.048 -3.23731 2.61415 0
M  V30 1545 H 152.924 -4.53553 3.09162 0
M  V30 1546 H 153.185 -4.19754 1.38777 0
M  V30 1547 N 152.244 -1.26651 -0.937939 0
M  V30 1548 C 153.66 -1.03834 -1.21205 0
M  V30 1549 C 153.86 0.234502 -2.00131 0
M  V30 1550 O 152.916 0.942767 -2.3424 0
M  V30 1551 C 154.229 -2.27167 -1.97017 0
M  V30 1552 C 155.777 -2.32101 -2.09996 0
M  V30 1553 C 156.252 -3.55136 -2.8921 0
M  V30 1554 N 157.743 -3.55632 -2.96783 0
M  V30 1555 C 158.478 -4.475 -3.58512 0
M  V30 1556 N 157.974 -5.4966 -4.21717 0
M  V30 1557 N 159.767 -4.35145 -3.55816 0
M  V30 1558 H 151.918 -2.08398 -0.410391 0
M  V30 1559 H 154.181 -0.916031 -0.244114 0
M  V30 1560 H 153.887 -3.19765 -1.46434 0
M  V30 1561 H 153.761 -2.31672 -2.97671 0
M  V30 1562 H 156.148 -1.40015 -2.59769 0
M  V30 1563 H 156.229 -2.31605 -1.08594 0
M  V30 1564 H 155.873 -4.47553 -2.40123 0
M  V30 1565 H 155.803 -3.5288 -3.90875 0
M  V30 1566 H 158.294 -2.81743 -2.51852 0
M  V30 1567 H 158.607 -6.15943 -4.66727 0
M  V30 1568 H 156.952 -5.53514 -4.20294 0
M  V30 1569 H 160.143 -3.5455 -3.05634 0
M  V30 1570 H 160.316 -5.06934 -4.03636 0
M  V30 1571 N 153.722 1.14298 -1.08507 0
M  V30 1572 C 154.969 1.85359 -0.815373 0
M  V30 1573 C 155.297 1.83001 0.658865 0
M  V30 1574 O 154.552 1.25655 1.50031 0
M  V30 1575 C 154.851 3.33547 -1.28379 0
M  V30 1576 C 154.517 3.56093 -2.76602 0
M  V30 1577 C 153.179 3.61955 -3.17084 0
M  V30 1578 C 155.531 3.64834 -3.72217 0
M  V30 1579 C 152.859 3.74082 -4.51973 0
M  V30 1580 C 155.211 3.78487 -5.06883 0
M  V30 1581 C 153.875 3.82598 -5.46969 0
M  V30 1582 H 153.145 0.678276 -0.298366 0
M  V30 1583 H 155.792 1.35002 -1.35819 0
M  V30 1584 H 154.097 3.86191 -0.660593 0
M  V30 1585 H 155.794 3.86959 -1.05186 0
M  V30 1586 H 152.384 3.52179 -2.4427 0
M  V30 1587 H 156.568 3.59595 -3.42061 0
M  V30 1588 H 151.824 3.75527 -4.82483 0
M  V30 1589 H 155.998 3.84193 -5.80834 0
M  V30 1590 H 153.625 3.91747 -6.51489 0
M  V30 1591 N 155.201 0.870884 1.31352 0
M  V30 1592 C 156.447 0.492314 1.97352 0
M  V30 1593 C 156.802 -0.945174 1.67583 0
M  V30 1594 O 156.095 -1.65674 0.962423 0
M  V30 1595 C 156.289 0.687157 3.50732 0
M  V30 1596 C 156.118 2.14203 3.95407 0
M  V30 1597 C 154.888 2.78382 4.21701 0
M  V30 1598 C 157.086 3.1144 4.09279 0
M  V30 1599 N 155.068 4.14611 4.52737 0
M  V30 1600 C 156.439 4.32702 4.44037 0
M  V30 1601 C 158.494 3.07418 3.91661 0
M  V30 1602 C 157.197 5.50463 4.63015 0
M  V30 1603 C 159.223 4.24438 4.11833 0
M  V30 1604 C 158.585 5.44463 4.46923 0
M  V30 1605 H 154.684 0.229206 0.747655 0
M  V30 1606 H 157.268 1.12568 1.5886 0
M  V30 1607 H 155.439 0.083384 3.8831 0
M  V30 1608 H 157.171 0.276883 4.03752 0
M  V30 1609 H 153.926 2.29326 4.14375 0
M  V30 1610 H 154.35 4.84928 4.72413 0
M  V30 1611 H 158.992 2.15732 3.6362 0
M  V30 1612 H 156.71 6.42666 4.89904 0
M  V30 1613 H 160.296 4.2278 3.99685 0
M  V30 1614 H 159.176 6.33504 4.62214 0
M  V30 1615 N 156.679 -1.44442 0.630414 0
M  V30 1616 C 157.919 -2.03934 0.137919 0
M  V30 1617 C 158.283 -1.48509 -1.21692 0
M  V30 1618 O 159.484 -1.99499 -1.80149 0
M  V30 1619 C 157.755 -3.57187 0.123373 0
M  V30 1620 S 159.314 -4.37741 -0.304604 0
M  V30 1621 H 156.132 -0.708401 0.0607353 0
M  V30 1622 H 158.734 -1.76835 0.833643 0
M  V30 1623 H 157.438 -3.95032 1.11256 0
M  V30 1624 H 156.969 -3.88895 -0.59362 0
M  V30 1625 H 158.984 -4.71403 -1.54897 0
M  V30 1626 N 158.157 -0.370918 -1.53173 0
M  V30 1627 C 159.382 0.220293 -2.06227 0
M  V30 1628 C 159.807 1.41243 -1.24225 0
M  V30 1629 O 159.165 1.79387 -0.262645 0
M  V30 1630 C 159.213 0.586663 -3.55796 0
M  V30 1631 O 158.317 1.68317 -3.76488 0
M  V30 1632 H 157.658 0.0308099 -0.663285 0
M  V30 1633 H 160.188 -0.533068 -1.97534 0
M  V30 1634 H 160.198 0.85617 -3.98916 0
M  V30 1635 H 158.873 -0.285013 -4.14922 0
M  V30 1636 H 157.45 1.40881 -3.45264 0
M  V30 1637 N 159.635 1.57281 -0.100228 0
M  V30 1638 C 160.565 2.17328 0.853857 0
M  V30 1639 C 161.546 1.10804 1.2906 0
M  V30 1640 O 162.731 1.38963 1.35657 0
M  V30 1641 C 159.861 2.75772 2.11109 0
M  V30 1642 C 158.815 3.87713 1.81279 0
M  V30 1643 C 158.141 4.32882 3.13874 0
M  V30 1644 C 159.441 5.10677 1.09574 0
M  V30 1645 H 161.135 2.97305 0.353545 0
M  V30 1646 H 158.681 1.43009 0.168612 0
M  V30 1647 H 160.634 3.16433 2.78296 0
M  V30 1648 H 159.358 1.93057 2.63432 0
M  V30 1649 H 158.017 3.476 1.16489 0
M  V30 1650 H 157.665 3.47051 3.64095 0
M  V30 1651 H 157.365 5.08358 2.94696 0
M  V30 1652 H 158.889 4.7618 3.82211 0
M  V30 1653 H 160.303 5.48474 1.66879 0
M  V30 1654 H 158.7 5.91615 1.00557 0
M  V30 1655 H 159.77 4.84835 0.0793299 0
M  V30 1656 N 161.113 -0.173488 1.56642 0
M  V30 1657 C 162.524 -0.736155 1.71574 0
M  V30 1658 C 162.875 -1.82888 0.710389 0
M  V30 1659 O 162 -2.16017 -0.1287 0
M  V30 1660 C 162.595 -1.34211 3.11083 0
M  V30 1661 C 161.154 -1.85162 3.27707 0
M  V30 1662 C 160.301 -0.729765 2.67525 0
M  V30 1663 H 163.252 0.0518786 1.58615 0
M  V30 1664 H 163.273 -2.21178 3.09613 0
M  V30 1665 H 162.785 -0.546579 3.84232 0
M  V30 1666 H 160.886 -2.67366 2.59512 0
M  V30 1667 H 160.999 -1.99855 4.35425 0
M  V30 1668 H 159.363 -1.14965 2.27278 0
M  V30 1669 H 160.146 0.0538806 3.43258 0
M  V30 1670 N 162.591 -1.51276 -0.441967 0
M  V30 1671 C 163.819 -1.67516 -1.21434 0
M  V30 1672 C 164.234 -0.37055 -1.85128 0
M  V30 1673 O 163.591 0.650498 -1.70513 0
M  V30 1674 C 163.642 -2.78748 -2.30177 0
M  V30 1675 O 163.363 -4.04154 -1.69089 0
M  V30 1676 C 164.864 -3.06217 -3.20541 0
M  V30 1677 H 162.084 -0.562276 -0.366178 0
M  V30 1678 H 164.628 -1.97666 -0.524244 0
M  V30 1679 H 162.783 -2.5121 -2.94911 0
M  V30 1680 H 163.197 -4.65894 -2.40922 0
M  V30 1681 H 164.671 -3.8764 -3.92987 0
M  V30 1682 H 165.148 -2.18439 -3.81026 0
M  V30 1683 H 165.754 -3.35397 -2.61513 0
M  V30 1684 N 164.069 0.697108 -1.41344 0
M  V30 1685 C 165.032 1.79281 -1.42797 0
M  V30 1686 C 166.032 1.57607 -0.318837 0
M  V30 1687 O 167.222 1.64309 -0.578642 0
M  V30 1688 C 164.354 3.17632 -1.23785 0
M  V30 1689 H 165.547 1.79385 -2.40335 0
M  V30 1690 H 163.1 0.904582 -1.27464 0
M  V30 1691 H 163.835 3.23167 -0.270814 0
M  V30 1692 H 163.62 3.34765 -2.04144 0
M  V30 1693 H 165.11 3.97617 -1.27633 0
M  V30 1694 N 165.547 1.27147 0.931209 0
M  V30 1695 C 166.824 1.0401 1.65654 0
M  V30 1696 C 167.204 -0.426297 2.06751 0
M  V30 1697 O 166.552 -1.40879 1.79904 0
M  V30 1698 C 166.762 1.99834 2.86125 0
M  V30 1699 C 168.11 2.29007 3.57549 0
M  V30 1700 O 169.134 1.97779 2.96246 0
M  V30 1701 O 167.993 2.82222 4.67989 0
M  V30 1702 H 165.087 0.396239 0.725895 0
M  V30 1703 H 167.633 1.38397 0.982056 0
M  V30 1704 H 166.405 2.98744 2.52721 0
M  V30 1705 H 166.028 1.65987 3.61295 0
M  V30 1706 N 167.025 -1.13721 1.09112 0
M  V30 1707 C 168.253 -1.88773 0.846899 0
M  V30 1708 C 168.668 -1.7896 -0.601572 0
M  V30 1709 O 168.025 -1.15394 -1.41388 0
M  V30 1710 C 168.076 -3.3849 1.26913 0
M  V30 1711 O 167.797 -3.48043 2.66079 0
M  V30 1712 C 169.298 -4.30518 1.05682 0
M  V30 1713 H 166.518 -0.59772 0.304914 0
M  V30 1714 H 169.062 -1.43977 1.45227 0
M  V30 1715 H 167.217 -3.80881 0.707723 0
M  V30 1716 H 167.631 -4.4109 2.83795 0
M  V30 1717 H 169.105 -5.3391 1.40156 0
M  V30 1718 H 169.582 -4.392 -0.00563416 0
M  V30 1719 H 170.188 -3.93893 1.60402 0
M  V30 1720 N 168.503 -0.877838 -1.30888 0
M  V30 1721 C 169.728 -0.506629 -2.01117 0
M  V30 1722 C 170.153 0.895564 -1.65412 0
M  V30 1723 O 169.511 1.5923 -0.866922 0
M  V30 1724 C 169.559 -0.680223 -3.54126 0
M  V30 1725 O 168.663 0.277033 -4.11468 0
M  V30 1726 H 168.004 -0.200518 -0.633 0
M  V30 1727 H 170.534 -1.18342 -1.66902 0
M  V30 1728 H 170.544 -0.5765 -4.03907 0
M  V30 1729 H 169.219 -1.70261 -3.79452 0
M  V30 1730 H 167.796 0.127606 -3.72682 0
M  V30 1731 N 169.982 1.44106 -0.638065 0
M  V30 1732 C 171.207 2.0685 -0.150916 0
M  V30 1733 C 171.632 1.47417 1.16833 0
M  V30 1734 O 170.99 0.578264 1.71831 0
M  V30 1735 C 171.038 3.60555 -0.05708 0
M  V30 1736 O 170.142 4.00465 0.984972 0
M  V30 1737 H 169.483 0.658151 -0.0879399 0
M  V30 1738 H 172.013 1.84865 -0.876707 0
M  V30 1739 H 172.023 4.07789 0.131232 0
M  V30 1740 H 170.698 4.03193 -1.02021 0
M  V30 1741 H 169.275 3.64849 0.770672 0
M  V30 1742 N 171.46 0.379036 1.52974 0
M  V30 1743 C 172.707 -0.206421 2.01445 0
M  V30 1744 C 173.035 -1.47668 1.26587 0
M  V30 1745 O 172.29 -1.92514 0.351675 0
M  V30 1746 C 172.589 -0.53096 3.53434 0
M  V30 1747 C 172.255 0.646546 4.46241 0
M  V30 1748 C 170.917 0.969604 4.7133 0
M  V30 1749 C 173.269 1.43479 5.01062 0
M  V30 1750 C 170.597 2.08263 5.48492 0
M  V30 1751 C 172.949 2.53834 5.7944 0
M  V30 1752 C 171.613 2.86659 6.02812 0
M  V30 1753 H 170.883 -0.0755349 0.73714 0
M  V30 1754 H 173.53 0.514271 1.84465 0
M  V30 1755 H 171.835 -1.33285 3.68432 0
M  V30 1756 H 173.532 -0.996417 3.88423 0
M  V30 1757 H 170.122 0.384734 4.2687 0
M  V30 1758 H 174.306 1.19844 4.81613 0
M  V30 1759 H 169.562 2.34078 5.64816 0
M  V30 1760 H 173.736 3.15319 6.20924 0
M  V30 1761 H 171.363 3.73026 6.62387 0
M  V30 1762 N 172.938 -1.57226 0.108567 0
M  V30 1763 C 174.184 -1.95121 -0.552761 0
M  V30 1764 C 174.517 -0.991345 -1.66991 0
M  V30 1765 O 173.792 -0.0267211 -1.94482 0
M  V30 1766 C 174.075 -3.43039 -1.09528 0
M  V30 1767 C 173.928 -4.49797 0.0177332 0
M  V30 1768 C 175.247 -3.92567 -1.98945 0
M  V30 1769 H 172.366 -0.709496 -0.199461 0
M  V30 1770 H 175.008 -1.89126 0.182011 0
M  V30 1771 H 173.158 -3.48279 -1.72146 0
M  V30 1772 H 174.83 -4.56661 0.652584 0
M  V30 1773 H 173.073 -4.284 0.682309 0
M  V30 1774 H 173.744 -5.50528 -0.402919 0
M  V30 1775 H 176.22 -3.89565 -1.46214 0
M  V30 1776 H 175.096 -4.96605 -2.33827 0
M  V30 1777 H 175.357 -3.32648 -2.91201 0
M  V30 1778 N 174.416 0.165178 -1.56732 0
M  V30 1779 C 175.827 0.727046 -1.71962 0
M  V30 1780 C 176.178 1.82508 -0.720078 0
M  V30 1781 O 175.303 2.16082 0.117242 0
M  V30 1782 C 175.898 1.32559 -3.11791 0
M  V30 1783 C 174.457 1.83422 -3.28684 0
M  V30 1784 C 173.604 0.715567 -2.67908 0
M  V30 1785 H 176.555 -0.0602896 -1.58585 0
M  V30 1786 H 176.576 2.19533 -3.10782 0
M  V30 1787 H 176.088 0.526195 -3.84516 0
M  V30 1788 H 174.189 2.65986 -2.60926 0
M  V30 1789 H 174.302 1.97543 -4.36478 0
M  V30 1790 H 172.666 1.13758 -2.27884 0
M  V30 1791 H 173.449 -0.0720836 -3.43224 0
M  V30 1792 N 175.894 1.51508 0.433938 0
M  V30 1793 C 176.824 1.76016 1.53429 0
M  V30 1794 C 177.805 0.610112 1.58782 0
M  V30 1795 O 178.99 0.853177 1.74455 0
M  V30 1796 C 176.12 1.88831 2.9148 0
M  V30 1797 C 175.074 3.04288 3.00987 0
M  V30 1798 C 174.4 3.0229 4.4105 0
M  V30 1799 C 175.7 4.44193 2.74754 0
M  V30 1800 H 177.394 2.68152 1.33171 0
M  V30 1801 H 174.94 1.29035 0.639214 0
M  V30 1802 H 176.893 2.04559 3.6842 0
M  V30 1803 H 175.617 0.933455 3.12976 0
M  V30 1804 H 174.276 2.8827 2.26486 0
M  V30 1805 H 173.924 2.04576 4.59519 0
M  V30 1806 H 173.624 3.79822 4.4834 0
M  V30 1807 H 175.148 3.20116 5.1996 0
M  V30 1808 H 176.562 4.60544 3.41426 0
M  V30 1809 H 174.959 5.23457 2.9345 0
M  V30 1810 H 176.029 4.53996 1.70339 0
M  V30 1811 N 177.372 -0.689602 1.41712 0
M  V30 1812 C 178.282 -1.83314 1.46401 0
M  V30 1813 C 179.298 -1.7036 0.35405 0
M  V30 1814 O 180.474 -1.92171 0.602692 0
M  V30 1815 C 177.539 -3.19344 1.34982 0
M  V30 1816 C 176.6 -3.44363 2.56344 0
M  V30 1817 C 175.833 -4.73904 2.45461 0
M  V30 1818 O 176.056 -5.508 1.48241 0
M  V30 1819 O 174.99 -4.99839 3.35328 0
M  V30 1820 H 178.816 -1.82314 2.42889 0
M  V30 1821 H 176.401 -0.843438 1.23315 0
M  V30 1822 H 178.283 -4.00547 1.3092 0
M  V30 1823 H 176.958 -3.21014 0.41612 0
M  V30 1824 H 175.865 -2.63067 2.65982 0
M  V30 1825 H 177.198 -3.47512 3.48563 0
M  V30 1826 N 178.85 -1.27639 -0.924453 0
M  V30 1827 C 179.78 -1.13166 -2.04244 0
M  V30 1828 C 180.761 -0.032256 -1.70069 0
M  V30 1829 O 181.946 -0.207328 -1.9309 0
M  V30 1830 C 179.076 -0.781496 -3.38393 0
M  V30 1831 C 178.03 -1.83449 -3.86692 0
M  V30 1832 C 177.356 -1.33822 -5.17683 0
M  V30 1833 C 178.656 -3.23917 -4.09726 0
M  V30 1834 H 180.35 -2.06689 -2.1661 0
M  V30 1835 H 177.896 -0.995136 -1.04082 0
M  V30 1836 H 179.849 -0.667057 -4.16087 0
M  V30 1837 H 178.573 0.189439 -3.2605 0
M  V30 1838 H 177.232 -1.93789 -3.11193 0
M  V30 1839 H 176.88 -0.35665 -5.01734 0
M  V30 1840 H 176.58 -2.04224 -5.50968 0
M  V30 1841 H 178.104 -1.23679 -5.97943 0
M  V30 1842 H 179.518 -3.16559 -4.77978 0
M  V30 1843 H 177.915 -3.92059 -4.54324 0
M  V30 1844 H 178.985 -3.68729 -3.14908 0
M  V30 1845 N 180.328 1.1314 -1.09713 0
M  V30 1846 C 181.744 1.36477 -0.827423 0
M  V30 1847 C 181.944 1.93654 0.556817 0
M  V30 1848 O 181 2.15791 1.31112 0
M  V30 1849 C 182.313 2.31334 -1.92106 0
M  V30 1850 C 183.861 2.44943 -1.94864 0
M  V30 1851 C 184.336 3.4311 -3.0338 0
M  V30 1852 N 185.827 3.50662 -3.02639 0
M  V30 1853 C 186.562 4.2651 -3.83246 0
M  V30 1854 N 186.058 5.05485 -4.73768 0
M  V30 1855 N 187.851 4.2184 -3.71493 0
M  V30 1856 H 180.002 0.743807 -1.9895 0
M  V30 1857 H 182.265 0.389823 -0.864143 0
M  V30 1858 H 181.971 1.96483 -2.91698 0
M  V30 1859 H 181.845 3.31381 -1.80184 0
M  V30 1860 H 184.232 2.79079 -0.959099 0
M  V30 1861 H 184.313 1.4481 -2.10864 0
M  V30 1862 H 183.957 3.09704 -4.02549 0
M  V30 1863 H 183.887 4.43055 -2.84622 0
M  V30 1864 H 186.378 2.94315 -2.37039 0
M  V30 1865 H 186.691 5.60675 -5.3185 0
M  V30 1866 H 185.036 5.04708 -4.77802 0
M  V30 1867 H 188.227 3.5922 -3.00131 0
M  V30 1868 H 188.4 4.80697 -4.3455 0
M  V30 1869 N 181.806 0.884767 1.30421 0
M  V30 1870 C 183.052 0.503851 1.96441 0
M  V30 1871 C 183.385 -0.944518 1.69684 0
M  V30 1872 O 182.66 -1.66737 1.00145 0
M  V30 1873 C 182.943 0.779085 3.51571 0
M  V30 1874 C 182.796 2.27807 3.87846 0
M  V30 1875 C 184.115 0.255452 4.39358 0
M  V30 1876 H 181.234 0.184533 0.713524 0
M  V30 1877 H 183.876 1.10872 1.54297 0
M  V30 1878 H 182.026 0.264274 3.876 0
M  V30 1879 H 183.698 2.86127 3.61841 0
M  V30 1880 H 181.941 2.74479 3.35922 0
M  V30 1881 H 182.612 2.42125 4.96064 0
M  V30 1882 H 185.088 0.696079 4.10236 0
M  V30 1883 H 183.964 0.477361 5.4682 0
M  V30 1884 H 184.225 -0.843293 4.33983 0
M  V30 1885 N 183.284 -1.43765 0.645699 0
M  V30 1886 C 184.512 -2.06253 0.163556 0
M  V30 1887 C 184.927 -1.48352 -1.16778 0
M  V30 1888 O 184.284 -0.611932 -1.71935 0
M  V30 1889 C 184.335 -3.61453 0.0583186 0
M  V30 1890 O 184.056 -4.172 1.33702 0
M  V30 1891 C 185.557 -4.41002 -0.450795 0
M  V30 1892 H 182.777 -0.665413 0.0864077 0
M  V30 1893 H 185.321 -1.84396 0.884222 0
M  V30 1894 H 183.476 -3.82522 -0.612865 0
M  V30 1895 H 183.89 -5.10791 1.19131 0
M  V30 1896 H 185.364 -5.49966 -0.473403 0
M  V30 1897 H 185.841 -4.13488 -1.48068 0
M  V30 1898 H 186.447 -4.24886 0.187637 0
M  V30 1899 N 184.763 -0.387143 -1.52771 0
M  V30 1900 C 185.726 0.436939 -2.24997 0
M  V30 1901 C 186.726 0.991991 -1.26555 0
M  V30 1902 O 187.916 0.874335 -1.50669 0
M  V30 1903 C 185.048 1.61281 -3.00335 0
M  V30 1904 H 186.241 -0.195365 -2.99263 0
M  V30 1905 H 183.794 -0.139218 -1.55679 0
M  V30 1906 H 184.529 2.2826 -2.30364 0
M  V30 1907 H 184.314 1.22154 -3.72587 0
M  V30 1908 H 185.804 2.19629 -3.5518 0
M  V30 1909 N 186.241 1.57166 -0.116904 0
M  V30 1910 C 187.204 2.14039 0.819742 0
M  V30 1911 C 188.204 1.07477 1.19605 0
M  V30 1912 O 189.394 1.33263 1.1219 0
M  V30 1913 C 186.526 2.67891 2.10826 0
M  V30 1914 H 187.719 2.98128 0.325511 0
M  V30 1915 H 185.272 1.55739 0.132312 0
M  V30 1916 H 186.007 1.87384 2.64685 0
M  V30 1917 H 185.792 3.45823 1.84793 0
M  V30 1918 H 187.282 3.11809 2.77785 0
M  V30 1919 N 187.719 -0.156864 1.56817 0
M  V30 1920 C 188.944 -0.890331 1.87318 0
M  V30 1921 C 189.369 -1.74394 0.704855 0
M  V30 1922 O 188.727 -1.77972 -0.345786 0
M  V30 1923 C 188.775 -1.73102 3.16336 0
M  V30 1924 O 187.879 -2.83422 2.99576 0
M  V30 1925 H 187.22 -0.24857 0.615718 0
M  V30 1926 H 189.75 -0.150649 2.04045 0
M  V30 1927 H 189.76 -2.12803 3.48107 0
M  V30 1928 H 188.435 -1.10412 4.00976 0
M  V30 1929 H 187.012 -2.47199 2.7919 0
M  V30 1930 N 189.197 -1.51736 -0.425897 0
M  V30 1931 C 190.445 -1.64644 -1.17204 0
M  V30 1932 C 190.766 -0.370486 -1.91448 0
M  V30 1933 O 190.036 0.614088 -1.86026 0
M  V30 1934 H 188.616 -0.606819 -0.435638 0
M  V30 1935 H 191.278 -1.88713 -0.487177 0
M  V30 1936 H 190.374 -2.47958 -1.89534 0
M  V30 1937 N 190.675 0.682077 -1.42076 0
M  V30 1938 C 191.638 1.77756 -1.44691 0
M  V30 1939 C 192.638 1.5726 -0.335535 0
M  V30 1940 O 193.828 1.63686 -0.596037 0
M  V30 1941 C 190.96 3.16301 -1.27146 0
M  V30 1942 H 192.153 1.76826 -2.42224 0
M  V30 1943 H 189.706 0.891012 -1.28416 0
M  V30 1944 H 190.441 3.22862 -0.305075 0
M  V30 1945 H 190.226 3.32581 -2.07683 0
M  V30 1946 H 191.716 3.96241 -1.31843 0
M  V30 1947 N 192.153 1.28127 0.917671 0
M  V30 1948 C 193.564 1.13622 1.48145 0
M  V30 1949 C 193.915 -0.275207 1.9426 0
M  V30 1950 O 193.04 -1.1691 1.82102 0
M  V30 1951 C 193.635 2.05648 2.69248 0
M  V30 1952 C 192.194 1.95219 3.21818 0
M  V30 1953 C 191.341 1.97618 1.94532 0
M  V30 1954 H 194.292 1.40874 0.730772 0
M  V30 1955 H 194.313 1.61818 3.44377 0
M  V30 1956 H 193.825 3.08365 2.35653 0
M  V30 1957 H 191.926 0.955244 3.60147 0
M  V30 1958 H 192.039 2.81976 3.87333 0
M  V30 1959 H 190.403 1.41973 2.11461 0
M  V30 1960 H 191.186 3.02007 1.63238 0
M  V30 1961 N 193.631 -1.12557 1.10312 0
M  V30 1962 C 195.047 -1.36036 0.834649 0
M  V30 1963 C 195.247 -1.93946 -0.546539 0
M  V30 1964 O 194.303 -2.16484 -1.29966 0
M  V30 1965 C 195.616 -2.30312 1.9333 0
M  V30 1966 C 197.164 -2.43906 1.9616 0
M  V30 1967 C 197.639 -3.41496 3.05195 0
M  V30 1968 N 199.13 -3.49053 3.04494 0
M  V30 1969 C 199.865 -4.24471 3.85502 0
M  V30 1970 N 199.361 -5.02966 4.76442 0
M  V30 1971 N 201.154 -4.19864 3.73725 0
M  V30 1972 H 193.305 -0.733246 1.99342 0
M  V30 1973 H 195.568 -0.385234 0.866198 0
M  V30 1974 H 195.274 -1.94933 2.92735 0
M  V30 1975 H 195.148 -3.30421 1.81939 0
M  V30 1976 H 197.535 -2.78567 0.973886 0
M  V30 1977 H 197.616 -1.4369 2.11629 0
M  V30 1978 H 197.26 -3.07565 4.04186 0
M  V30 1979 H 197.19 -4.41539 2.86968 0
M  V30 1980 H 199.681 -2.93053 2.38596 0
M  V30 1981 H 199.994 -5.57846 5.34815 0
M  V30 1982 H 198.339 -5.02167 4.80472 0
M  V30 1983 H 201.53 -3.57623 3.02032 0
M  V30 1984 H 201.703 -4.78386 4.37093 0
M  V30 1985 N 195.109 -0.891671 -1.2995 0
M  V30 1986 C 196.339 -0.527893 -1.99742 0
M  V30 1987 C 196.747 0.88979 -1.66971 0
M  V30 1988 O 196.09 1.59766 -0.906667 0
M  V30 1989 C 196.152 -0.630804 -3.53922 0
M  V30 1990 C 195.816 -2.01401 -4.10228 0
M  V30 1991 C 196.813 -2.98422 -4.25724 0
M  V30 1992 C 194.498 -2.32121 -4.45449 0
M  V30 1993 C 196.492 -4.24293 -4.75662 0
M  V30 1994 C 194.179 -3.58237 -4.95086 0
M  V30 1995 C 195.177 -4.54137 -5.10146 0
M  V30 1996 O 194.865 -5.78014 -5.58708 0
M  V30 1997 H 194.597 -0.201953 -0.645129 0
M  V30 1998 H 197.151 -1.20076 -1.66646 0
M  V30 1999 H 195.381 0.0990616 -3.86573 0
M  V30 2000 H 197.07 -0.277338 -4.04951 0
M  V30 2001 H 197.836 -2.76001 -3.98809 0
M  V30 2002 H 193.715 -1.5824 -4.32991 0
M  V30 2003 H 197.259 -4.99153 -4.87332 0
M  V30 2004 H 193.156 -3.80491 -5.21437 0
M  V30 2005 H 193.924 -5.8049 -5.77039 0
M  V30 2006 N 196.587 1.43421 -0.653314 0
M  V30 2007 C 197.537 2.2792 0.060558 0
M  V30 2008 C 198.521 1.39906 0.794677 0
M  V30 2009 O 199.713 1.63536 0.677128 0
M  V30 2010 C 196.842 3.27603 1.0262 0
M  V30 2011 C 195.928 4.23104 0.290551 0
M  V30 2012 N 196.319 5.01031 -0.692967 0
M  V30 2013 C 194.617 4.42816 0.531984 0
M  V30 2014 C 195.318 5.70626 -1.12963 0
M  V30 2015 N 194.294 5.41617 -0.463867 0
M  V30 2016 H 198.096 2.85585 -0.694143 0
M  V30 2017 H 195.61 1.55126 -0.480602 0
M  V30 2018 H 197.607 3.86918 1.55242 0
M  V30 2019 H 196.267 2.71499 1.78096 0
M  V30 2020 H 197.278 5.0669 -1.07169 0
M  V30 2021 H 193.955 3.97782 1.26791 0
M  V30 2022 H 195.345 6.4318 -1.94343 0
M  V30 2023 N 198.065 0.39524 1.52563 0
M  V30 2024 C 199.481 0.0454682 1.59535 0
M  V30 2025 C 199.681 -1.44056 1.4089 0
M  V30 2026 O 198.737 -2.20579 1.22888 0
M  V30 2027 C 200.05 0.527963 2.96029 0
M  V30 2028 C 201.598 0.484733 3.09224 0
M  V30 2029 C 202.073 0.943512 4.48176 0
M  V30 2030 N 203.564 0.899765 4.54377 0
M  V30 2031 C 204.299 1.22609 5.60138 0
M  V30 2032 N 203.795 1.62319 6.73516 0
M  V30 2033 N 205.588 1.14696 5.50274 0
M  V30 2034 H 197.739 1.36261 1.62931 0
M  V30 2035 H 200.002 0.558887 0.765735 0
M  V30 2036 H 199.708 1.56607 3.14908 0
M  V30 2037 H 199.582 -0.0698056 3.77135 0
M  V30 2038 H 201.969 -0.544298 2.90037 0
M  V30 2039 H 202.05 1.11838 2.30056 0
M  V30 2040 H 201.694 1.9708 4.68104 0
M  V30 2041 H 201.624 0.286817 5.25818 0
M  V30 2042 H 204.115 0.607632 3.72983 0
M  V30 2043 H 204.428 1.85567 7.5019 0
M  V30 2044 H 202.773 1.66211 6.74833 0
M  V30 2045 H 205.964 0.835701 4.6058 0
M  V30 2046 H 206.137 1.40459 6.32594 0
M  V30 2047 N 199.544 -1.57102 0.125237 0
M  V30 2048 C 200.79 -1.95697 -0.532035 0
M  V30 2049 C 201.123 -1.009 -1.6593 0
M  V30 2050 O 200.398 -0.047347 -1.94442 0
M  V30 2051 C 200.681 -3.44181 -1.05884 0
M  V30 2052 C 200.534 -4.49752 0.0654392 0
M  V30 2053 C 201.853 -3.94655 -1.9477 0
M  V30 2054 H 198.972 -0.711571 -0.191925 0
M  V30 2055 H 201.614 -1.88923 0.20206 0
M  V30 2056 H 199.764 -3.50085 -1.68442 0
M  V30 2057 H 201.436 -4.55943 0.700982 0
M  V30 2058 H 199.679 -4.27653 0.727709 0
M  V30 2059 H 200.35 -5.50924 -0.344505 0
M  V30 2060 H 202.826 -3.91094 -1.42074 0
M  V30 2061 H 201.702 -4.99057 -2.28546 0
M  V30 2062 H 201.963 -3.35718 -2.87656 0
M  V30 2063 N 201.022 0.148545 -1.56898 0
M  V30 2064 C 202.271 0.85984 -1.82454 0
M  V30 2065 C 202.584 1.82406 -0.706229 0
M  V30 2066 O 203.79 2.57938 -0.847349 0
M  V30 2067 C 202.246 1.57967 -3.2338 0
M  V30 2068 C 201.854 0.65794 -4.43142 0
M  V30 2069 C 203.598 2.27784 -3.58211 0
M  V30 2070 C 201.505 1.3793 -5.75091 0
M  V30 2071 H 200.435 0.324834 -0.68044 0
M  V30 2072 H 203.086 0.112588 -1.83154 0
M  V30 2073 H 201.468 2.37249 -3.17063 0
M  V30 2074 H 202.642 -0.0995497 -4.60692 0
M  V30 2075 H 200.957 0.0682643 -4.16344 0
M  V30 2076 H 203.554 2.8239 -4.54048 0
M  V30 2077 H 203.897 3.04204 -2.84193 0
M  V30 2078 H 204.43 1.55421 -3.66182 0
M  V30 2079 H 201.169 0.656982 -6.52199 0
M  V30 2080 H 200.689 2.10954 -5.61479 0
M  V30 2081 H 202.368 1.92063 -6.17835 0
M  V30 2082 N 202.5 1.5196 0.417844 0
M  V30 2083 C 203.45 1.7106 1.5074 0
M  V30 2084 C 204.434 0.564487 1.50673 0
M  V30 2085 O 205.626 0.821206 1.56797 0
M  V30 2086 C 202.755 1.85677 2.88754 0
M  V30 2087 C 201.841 3.06133 2.93502 0
M  V30 2088 N 202.232 4.28987 2.67962 0
M  V30 2089 C 200.53 3.05787 3.24669 0
M  V30 2090 C 201.231 5.10395 2.79055 0
M  V30 2091 N 200.207 4.45455 3.11561 0
M  V30 2092 H 204.009 2.63696 1.29775 0
M  V30 2093 H 201.523 1.49873 0.625436 0
M  V30 2094 H 203.52 1.97475 3.67164 0
M  V30 2095 H 202.18 0.942348 3.10725 0
M  V30 2096 H 203.191 4.57607 2.4252 0
M  V30 2097 H 199.868 2.2405 3.52289 0
M  V30 2098 H 201.258 6.18247 2.63097 0
M  V30 2099 N 203.978 -0.674533 1.42435 0
M  V30 2100 C 205.227 -1.43034 1.42212 0
M  V30 2101 C 205.54 -1.95555 0.0420788 0
M  V30 2102 O 206.746 -2.71374 -0.0827558 0
M  V30 2103 C 205.202 -2.58748 2.50155 0
M  V30 2104 C 204.81 -2.12925 3.94166 0
M  V30 2105 C 206.554 -3.36257 2.59098 0
M  V30 2106 C 204.461 -3.25723 4.93618 0
M  V30 2107 H 203.391 -0.537345 0.528939 0
M  V30 2108 H 206.042 -0.73024 1.68344 0
M  V30 2109 H 204.424 -3.31128 2.17188 0
M  V30 2110 H 205.598 -1.47697 4.36488 0
M  V30 2111 H 203.913 -1.48354 3.89076 0
M  V30 2112 H 206.51 -4.20264 3.30578 0
M  V30 2113 H 206.853 -3.82866 1.63461 0
M  V30 2114 H 207.386 -2.70947 2.9126 0
M  V30 2115 H 204.125 -2.84105 5.90732 0
M  V30 2116 H 203.645 -3.89732 4.55926 0
M  V30 2117 H 205.324 -3.91186 5.15347 0
M  V30 2118 N 205.456 -1.28612 -0.910864 0
M  V30 2119 C 206.404 -1.1265 -2.03501 0
M  V30 2120 C 207.398 -0.0450054 -1.6934 0
M  V30 2121 O 208.604 -0.203988 -1.7884 0
M  V30 2122 H 204.979 -0.347639 -0.666822 0
M  V30 2123 H 206.95 -2.07849 -2.14106 0
M  V30 2124 C 205.699 -0.808143 -3.38178 0
M  V30 2125 H 205.022 -1.63231 -3.6496 0
M  V30 2126 H 206.462 -0.736426 -4.17556 0
M  V30 2127 C 204.921 0.488226 -3.33344 0
M  V30 2128 O 205.451 1.51766 -3.71927 0
M  V30 2129 N 203.657 0.490009 -2.86439 0
M  V30 2130 H 203.204 -0.348161 -2.55236 0
M  V30 2131 H 203.162 1.35741 -2.83587 0
M  V30 2132 N 206.934 1.1197 -1.10907 0
M  V30 2133 C 207.844 2.21433 -0.774896 0
M  V30 2134 C 208.86 1.72478 0.229657 0
M  V30 2135 O 210.036 2.01288 0.0672008 0
M  V30 2136 C 207.101 3.4602 -0.216986 0
M  V30 2137 C 206.162 4.09791 -1.27944 0
M  V30 2138 C 205.395 5.28431 -0.748055 0
M  V30 2139 O 205.618 5.68823 0.423833 0
M  V30 2140 O 204.552 5.82644 -1.51027 0
M  V30 2141 H 208.378 2.5242 -1.68873 0
M  V30 2142 H 205.963 1.20399 -0.884555 0
M  V30 2143 H 207.845 4.21304 0.090059 0
M  V30 2144 H 206.52 3.16698 0.669633 0
M  V30 2145 H 205.427 3.36265 -1.63941 0
M  V30 2146 H 206.76 4.4328 -2.13925 0
M  V30 2147 N 208.412 0.89855 1.29475 0
M  V30 2148 C 209.658 0.524658 1.95896 0
M  V30 2149 C 209.991 -0.926468 1.70676 0
M  V30 2150 O 209.266 -1.65665 1.01908 0
M  V30 2151 C 209.549 0.81633 3.50725 0
M  V30 2152 C 209.402 2.31907 3.85408 0
M  V30 2153 C 210.721 0.302038 4.39062 0
M  V30 2154 H 207.84 0.19209 0.711527 0
M  V30 2155 H 210.482 1.12502 1.53112 0
M  V30 2156 H 208.632 0.305369 3.87298 0
M  V30 2157 H 210.304 2.89949 3.58786 0
M  V30 2158 H 208.547 2.78027 3.32992 0
M  V30 2159 H 209.218 2.47373 4.93468 0
M  V30 2160 H 211.694 0.739551 4.09475 0
M  V30 2161 H 210.57 0.535331 5.46283 0
M  V30 2162 H 210.831 -0.797216 4.34853 0
M  V30 2163 N 209.89 -1.43072 0.660911 0
M  V30 2164 C 211.136 -2.0202 0.177708 0
M  V30 2165 C 211.469 -1.52066 -1.20787 0
M  V30 2166 O 210.744 -0.716987 -1.80802 0
M  V30 2167 C 211.027 -3.59561 0.197019 0
M  V30 2168 C 210.88 -4.19727 1.61706 0
M  V30 2169 C 212.199 -4.37664 -0.462396 0
M  V30 2170 H 209.318 -0.734034 0.0660494 0
M  V30 2171 H 211.96 -1.70272 0.843058 0
M  V30 2172 H 210.11 -3.86739 -0.369527 0
M  V30 2173 H 211.782 -4.03553 2.23479 0
M  V30 2174 H 210.025 -3.76084 2.16201 0
M  V30 2175 H 210.696 -5.28834 1.58237 0
M  V30 2176 H 213.172 -4.16095 0.0197215 0
M  V30 2177 H 212.048 -5.47305 -0.418188 0
M  V30 2178 H 212.309 -4.14493 -1.53778 0
M  V30 2179 N 211.368 -0.403325 -1.52352 0
M  V30 2180 C 212.298 0.416205 -2.29761 0
M  V30 2181 C 213.279 1.05123 -1.33728 0
M  V30 2182 O 214.464 1.06134 -1.62632 0
M  V30 2183 C 211.594 1.53624 -3.11475 0
M  V30 2184 C 210.548 1.02653 -4.15507 0
M  V30 2185 C 209.874 2.23971 -4.85532 0
M  V30 2186 C 211.174 0.08463 -5.22231 0
M  V30 2187 H 212.868 -0.229701 -2.98518 0
M  V30 2188 H 210.414 -0.111913 -1.43564 0
M  V30 2189 H 212.367 2.1165 -3.64393 0
M  V30 2190 H 211.091 2.20994 -2.40477 0
M  V30 2191 H 209.75 0.46871 -3.63591 0
M  V30 2192 H 209.398 2.89883 -4.11068 0
M  V30 2193 H 209.098 1.90521 -5.55856 0
M  V30 2194 H 210.622 2.82614 -5.41259 0
M  V30 2195 H 212.036 0.573509 -5.70424 0
M  V30 2196 H 210.433 -0.160783 -5.99885 0
M  V30 2197 H 211.503 -0.86237 -4.7717 0
M  V30 2198 N 212.846 1.57033 -0.133567 0
M  V30 2199 C 213.776 2.1909 0.807567 0
M  V30 2200 C 214.757 1.13517 1.26681 0
M  V30 2201 O 215.942 1.41809 1.32679 0
M  V30 2202 C 213.072 2.80188 2.05212 0
M  V30 2203 C 212.026 3.91471 1.73015 0
M  V30 2204 C 211.352 4.39443 3.04622 0
M  V30 2205 C 212.652 5.12886 0.987168 0
M  V30 2206 H 214.346 2.97988 0.290403 0
M  V30 2207 H 211.892 1.43335 0.138239 0
M  V30 2208 H 213.845 3.22264 2.71521 0
M  V30 2209 H 212.569 1.98601 2.59278 0
M  V30 2210 H 211.228 3.49993 1.0909 0
M  V30 2211 H 210.876 3.54695 3.56651 0
M  V30 2212 H 210.576 5.14495 2.83847 0
M  V30 2213 H 212.1 4.8418 3.72024 0
M  V30 2214 H 213.514 5.51891 1.55208 0
M  V30 2215 H 211.911 5.93615 0.87985 0
M  V30 2216 H 212.981 4.84894 -0.0235286 0
M  V30 2217 N 214.325 -0.140222 1.56975 0
M  V30 2218 C 215.602 -0.880769 1.74648 0
M  V30 2219 C 215.982 -1.99036 0.703404 0
M  V30 2220 O 215.33 -2.26821 -0.27648 0
M  V30 2221 C 215.54 -1.417 3.18939 0
M  V30 2222 C 216.888 -1.87774 3.80823 0
M  V30 2223 O 217.912 -1.51427 3.2241 0
M  V30 2224 O 216.771 -2.54827 4.83452 0
M  V30 2225 H 213.865 -0.416713 0.714338 0
M  V30 2226 H 216.411 -0.125618 1.69234 0
M  V30 2227 H 215.183 -0.619902 3.86359 0
M  V30 2228 H 214.806 -2.23546 3.28805 0
M  V30 2229 N 215.803 -1.52179 -0.40978 0
M  V30 2230 C 216.766 -1.74853 -1.48186 0
M  V30 2231 C 217.766 -0.618417 -1.48433 0
M  V30 2232 O 218.956 -0.886286 -1.49969 0
M  V30 2233 C 216.088 -1.8303 -2.87598 0
M  V30 2234 H 217.281 -2.70559 -1.29374 0
M  V30 2235 H 214.834 -1.42586 -0.640233 0
M  V30 2236 H 215.569 -0.89236 -3.11781 0
M  V30 2237 H 215.354 -2.65187 -2.88822 0
M  V30 2238 H 216.844 -2.02316 -3.65319 0
M  V30 2239 N 217.281 0.66697 -1.42791 0
M  V30 2240 C 218.692 1.2478 -1.38877 0
M  V30 2241 C 219.043 1.96012 -0.0859426 0
M  V30 2242 O 218.168 2.00463 0.815081 0
M  V30 2243 C 218.763 2.26938 -2.51564 0
M  V30 2244 C 217.322 2.80529 -2.50959 0
M  V30 2245 C 216.469 1.54965 -2.29959 0
M  V30 2246 H 219.42 0.459853 -1.51892 0
M  V30 2247 H 219.441 3.08834 -2.22265 0
M  V30 2248 H 218.953 1.75065 -3.46372 0
M  V30 2249 H 217.054 3.36502 -1.59991 0
M  V30 2250 H 217.167 3.29012 -3.48265 0
M  V30 2251 H 215.531 1.81817 -1.78366 0
M  V30 2252 H 216.314 1.05047 -3.26833 0
M  V30 2253 N 218.759 1.29093 0.90403 0
M  V30 2254 C 220.005 1.16986 1.65656 0
M  V30 2255 C 220.338 -0.278925 1.92186 0
M  V30 2256 O 219.613 -1.2019 1.5292 0
M  V30 2257 C 219.896 1.97908 3.0084 0
M  V30 2258 C 219.749 3.50903 2.81403 0
M  V30 2259 C 221.068 1.80208 4.01513 0
M  V30 2260 H 218.187 0.426346 0.601164 0
M  V30 2261 H 220.829 1.58518 1.04747 0
M  V30 2262 H 218.979 1.62616 3.52829 0
M  V30 2263 H 220.651 3.96153 2.36348 0
M  V30 2264 H 218.894 3.76045 2.1627 0
M  V30 2265 H 219.565 4.02791 3.77443 0
M  V30 2266 H 222.041 2.11025 3.58619 0
M  V30 2267 H 220.917 2.39184 4.94047 0
M  V30 2268 H 221.178 0.756119 4.35586 0
M  V30 2269 N 220.237 -1.11381 1.11499 0
M  V30 2270 C 221.485 -1.8277 0.862524 0
M  V30 2271 C 221.806 -1.85097 -0.613534 0
M  V30 2272 O 221.076 -1.32198 -1.4457 0
M  V30 2273 H 219.656 -0.676823 0.316101 0
M  V30 2274 H 222.318 -1.34816 1.4075 0
M  V30 2275 H 221.414 -2.86614 1.23527 0
M  V30 2276 N 221.715 -0.905404 -1.28997 0
M  V30 2277 C 222.645 -0.404212 -2.29975 0
M  V30 2278 C 223.626 0.523784 -1.61835 0
M  V30 2279 O 224.811 0.433298 -1.89304 0
M  V30 2280 C 221.941 0.364042 -3.45387 0
M  V30 2281 C 220.895 -0.474048 -4.25367 0
M  V30 2282 C 220.221 0.422045 -5.33032 0
M  V30 2283 C 221.521 -1.72696 -4.92923 0
M  V30 2284 H 223.215 -1.24807 -2.72146 0
M  V30 2285 H 220.761 -0.601585 -1.30832 0
M  V30 2286 H 222.714 0.725447 -4.15109 0
M  V30 2287 H 221.438 1.24174 -3.02074 0
M  V30 2288 H 220.097 -0.81786 -3.57361 0
M  V30 2289 H 219.745 1.29804 -4.85963 0
M  V30 2290 H 219.445 -0.135057 -5.87445 0
M  V30 2291 H 220.969 0.779517 -6.05604 0
M  V30 2292 H 222.383 -1.43495 -5.55051 0
M  V30 2293 H 220.78 -2.22582 -5.57295 0
M  V30 2294 H 221.85 -2.45964 -4.17887 0
M  V30 2295 N 223.193 1.4272 -0.668489 0
M  V30 2296 C 224.439 2.01923 -0.188419 0
M  V30 2297 C 224.772 1.52704 1.19979 0
M  V30 2298 O 224.047 0.726566 1.8042 0
M  V30 2299 C 224.33 3.59451 -0.216085 0
M  V30 2300 C 224.183 4.18864 -1.6393 0
M  V30 2301 C 225.502 4.37903 0.439179 0
M  V30 2302 H 222.621 0.733674 -0.0699412 0
M  V30 2303 H 225.263 1.69822 -0.852076 0
M  V30 2304 H 223.413 3.86929 0.349012 0
M  V30 2305 H 225.085 4.02362 -2.25616 0
M  V30 2306 H 223.328 3.74933 -2.18193 0
M  V30 2307 H 223.999 5.27987 -1.61039 0
M  V30 2308 H 226.475 4.16079 -0.0417878 0
M  V30 2309 H 225.351 5.47519 0.389157 0
M  V30 2310 H 225.612 4.15303 1.51577 0
M  V30 2311 N 224.671 0.411399 1.52136 0
M  V30 2312 C 225.634 -0.401089 2.25663 0
M  V30 2313 C 226.634 -0.971732 1.28117 0
M  V30 2314 O 227.824 -0.850254 1.52041 0
M  V30 2315 C 224.956 -1.56483 3.02863 0
M  V30 2316 H 226.149 0.24295 2.98914 0
M  V30 2317 H 223.702 0.163968 1.55438 0
M  V30 2318 H 224.437 -2.24567 2.33967 0
M  V30 2319 H 224.222 -1.16211 3.74483 0
M  V30 2320 H 225.712 -2.13951 3.58629 0
M  V30 2321 N 226.149 -1.5696 0.141893 0
M  V30 2322 C 227.565 -1.58151 -0.21456 0
M  V30 2323 C 227.765 -1.1559 -1.65049 0
M  V30 2324 O 226.821 -0.853832 -2.37626 0
M  V30 2325 C 228.134 -3.00674 0.0395576 0
M  V30 2326 C 229.682 -3.1299 -0.0245529 0
M  V30 2327 C 230.157 -4.57554 0.202167 0
M  V30 2328 N 231.648 -4.62961 0.148919 0
M  V30 2329 C 232.383 -5.7262 0.298924 0
M  V30 2330 N 231.879 -6.90947 0.50637 0
M  V30 2331 N 233.672 -5.61601 0.236886 0
M  V30 2332 H 225.823 -1.8292 1.07953 0
M  V30 2333 H 228.086 -0.846425 0.42693 0
M  V30 2334 H 227.792 -3.36183 1.03315 0
M  V30 2335 H 227.666 -3.70981 -0.682143 0
M  V30 2336 H 230.053 -2.77326 -1.00869 0
M  V30 2337 H 230.134 -2.4518 0.729396 0
M  V30 2338 H 229.778 -4.93922 1.18338 0
M  V30 2339 H 229.708 -5.23484 -0.572044 0
M  V30 2340 H 232.199 -3.77899 -0.00697015 0
M  V30 2341 H 232.512 -7.7038 0.611076 0
M  V30 2342 H 230.857 -6.92878 0.542628 0
M  V30 2343 H 234.048 -4.68039 0.0756209 0
M  V30 2344 H 234.221 -6.47015 0.357227 0
M  V30 2345 N 227.627 0.131896 -1.57047 0
M  V30 2346 C 228.557 1.16384 -2.02428 0
M  V30 2347 C 229.538 1.43936 -0.90644 0
M  V30 2348 O 230.723 1.54599 -1.17528 0
M  V30 2349 C 227.853 2.49328 -2.4177 0
M  V30 2350 C 226.807 2.36266 -3.56879 0
M  V30 2351 C 226.133 3.74057 -3.8208 0
M  V30 2352 C 227.433 1.834 -4.89042 0
M  V30 2353 H 229.127 0.786433 -2.88887 0
M  V30 2354 H 226.673 0.376855 -1.38981 0
M  V30 2355 H 228.626 3.21759 -2.7212 0
M  V30 2356 H 227.35 2.88934 -1.52266 0
M  V30 2357 H 226.009 1.66286 -3.26718 0
M  V30 2358 H 225.657 4.11125 -2.89803 0
M  V30 2359 H 225.357 3.66174 -4.59554 0
M  V30 2360 H 226.881 4.48012 -4.1487 0
M  V30 2361 H 228.295 2.45636 -5.18011 0
M  V30 2362 H 226.692 1.8637 -5.70426 0
M  V30 2363 H 227.762 0.790662 -4.7841 0
M  V30 2364 N 229.106 1.52395 0.401703 0
M  V30 2365 C 230.069 1.75636 1.47257 0
M  V30 2366 C 231.069 0.62628 1.48103 0
M  V30 2367 O 232.259 0.894227 1.49497 0
M  V30 2368 C 229.391 1.84553 2.86624 0
M  V30 2369 H 230.584 2.71241 1.27938 0
M  V30 2370 H 228.137 1.42923 0.632662 0
M  V30 2371 H 228.872 0.908882 3.11303 0
M  V30 2372 H 228.657 2.66715 2.87412 0
M  V30 2373 H 230.147 2.04251 3.64241 0
M  V30 2374 N 230.584 -0.659388 1.43143 0
M  V30 2375 C 231.861 -1.41627 1.34912 0
M  V30 2376 C 232.241 -2.11099 -0.00607785 0
M  V30 2377 O 231.589 -2.04353 -1.02236 0
M  V30 2378 C 231.799 -2.40604 2.52805 0
M  V30 2379 C 233.147 -3.04789 2.95616 0
M  V30 2380 O 234.171 -2.50932 2.52807 0
M  V30 2381 O 233.03 -4.02421 3.69756 0
M  V30 2382 H 230.124 -0.63246 0.532844 0
M  V30 2383 H 232.67 -0.686814 1.5518 0
M  V30 2384 H 231.442 -1.88174 3.43083 0
M  V30 2385 H 231.065 -3.21009 2.34604 0
M  V30 2386 N 232.062 -1.29571 -0.897171 0
M  V30 2387 C 232.972 -1.16808 -2.03453 0
M  V30 2388 C 233.988 -0.0907471 -1.73763 0
M  V30 2389 O 235.164 -0.303312 -1.99103 0
M  V30 2390 C 232.229 -0.848264 -3.36163 0
M  V30 2391 C 231.29 -2.0097 -3.79354 0
M  V30 2392 C 230.523 -1.70505 -5.05731 0
M  V30 2393 O 230.746 -0.62718 -5.66941 0
M  V30 2394 O 229.68 -2.5538 -5.45036 0
M  V30 2395 H 233.506 -2.12325 -2.17144 0
M  V30 2396 H 231.091 -1.09047 -1.02123 0
M  V30 2397 H 232.973 -0.684581 -4.15802 0
M  V30 2398 H 231.648 0.0771071 -3.23608 0
M  V30 2399 H 230.555 -2.22863 -3.00471 0
M  V30 2400 H 231.888 -2.91636 -3.96496 0
M  V30 2401 N 233.54 1.10788 -1.12088 0
M  V30 2402 C 234.765 1.87002 -0.896949 0
M  V30 2403 C 235.19 1.79933 0.548261 0
M  V30 2404 O 234.548 1.16662 1.38779 0
M  V30 2405 C 234.596 3.3349 -1.37174 0
M  V30 2406 O 233.7 4.08745 -0.547831 0
M  V30 2407 H 233.041 0.580397 -0.322545 0
M  V30 2408 H 235.571 1.39996 -1.49206 0
M  V30 2409 H 235.581 3.84339 -1.36922 0
M  V30 2410 H 234.256 3.37951 -2.42408 0
M  V30 2411 H 232.833 3.6776 -0.617034 0
M  V30 2412 N 235.018 0.912232 1.28515 0
M  V30 2413 C 236.266 0.543523 1.94654 0
M  V30 2414 C 236.587 -0.9155 1.72173 0
M  V30 2415 O 235.857 -1.64708 1.06058 0
M  V30 2416 H 234.437 0.198017 0.720277 0
M  V30 2417 H 237.099 1.16126 1.56527 0
M  V30 2418 H 236.195 0.736684 3.03281 0
M  V30 2419 N 236.496 -1.42363 0.676048 0
M  V30 2420 C 237.446 -2.27987 -0.0242903 0
M  V30 2421 C 238.43 -1.41153 -0.772319 0
M  V30 2422 O 239.622 -1.64592 -0.651025 0
M  V30 2423 C 236.751 -3.29195 -0.973953 0
M  V30 2424 C 235.837 -4.23512 -0.223202 0
M  V30 2425 N 236.228 -4.99865 0.772589 0
M  V30 2426 C 234.526 -4.43606 -0.461469 0
M  V30 2427 C 235.227 -5.68757 1.22027 0
M  V30 2428 N 234.203 -5.40811 0.549975 0
M  V30 2429 H 238.005 -2.84445 0.73949 0
M  V30 2430 H 235.519 -1.54341 0.50522 0
M  V30 2431 H 237.516 -3.89339 -1.49067 0
M  V30 2432 H 236.176 -2.74298 -1.73755 0
M  V30 2433 H 237.187 -5.04921 1.15217 0
M  V30 2434 H 233.864 -3.99749 -1.20446 0
M  V30 2435 H 235.254 -6.40007 2.0455 0
M  V30 2436 N 237.974 -0.419461 -1.51915 0
M  V30 2437 C 239.22 0.153166 -2.02221 0
M  V30 2438 C 239.553 1.43907 -1.30401 0
M  V30 2439 O 238.828 1.90055 -0.413438 0
M  V30 2440 C 239.111 0.390291 -3.57979 0
M  V30 2441 C 238.964 -0.913014 -4.40436 0
M  V30 2442 C 240.283 1.16794 -4.2432 0
M  V30 2443 H 237.402 0.0541924 -0.735005 0
M  V30 2444 H 240.044 -0.554955 -1.81715 0
M  V30 2445 H 238.194 0.993491 -3.75582 0
M  V30 2446 H 239.866 -1.54882 -4.34522 0
M  V30 2447 H 238.109 -1.52168 -4.06236 0
M  V30 2448 H 238.78 -0.701361 -5.47526 0
M  V30 2449 H 241.256 0.657161 -4.10878 0
M  V30 2450 H 240.132 1.3026 -5.3322 0
M  V30 2451 H 240.393 2.19132 -3.83971 0
M  V30 2452 N 239.452 1.56882 -0.150215 0
M  V30 2453 C 240.698 1.96518 0.500834 0
M  V30 2454 C 241.031 1.03527 1.64304 0
M  V30 2455 O 240.306 0.0782751 1.94342 0
M  V30 2456 C 240.589 3.45822 1.00395 0
M  V30 2457 C 240.442 4.49591 -0.136983 0
M  V30 2458 C 241.761 3.97704 1.88467 0
M  V30 2459 H 238.88 0.714535 0.18058 0
M  V30 2460 H 241.522 1.88577 -0.232091 0
M  V30 2461 H 239.672 3.5272 1.62851 0
M  V30 2462 H 241.344 4.5477 -0.77343 0
M  V30 2463 H 239.587 4.26441 -0.795652 0
M  V30 2464 H 240.258 5.51402 0.256815 0
M  V30 2465 H 242.734 3.93304 1.35834 0
M  V30 2466 H 241.61 5.0263 2.20578 0
M  V30 2467 H 241.871 3.40252 2.82279 0
M  V30 2468 N 240.93 -0.123565 1.57115 0
M  V30 2469 C 241.86 -1.15309 2.03042 0
M  V30 2470 C 242.841 -1.43454 0.914061 0
M  V30 2471 O 244.026 -1.53973 1.18347 0
M  V30 2472 C 241.156 -2.48043 2.43089 0
M  V30 2473 C 240.11 -2.3437 3.58127 0
M  V30 2474 C 239.436 -3.72026 3.84059 0
M  V30 2475 C 240.736 -1.80804 4.90007 0
M  V30 2476 H 242.43 -0.771102 2.893 0
M  V30 2477 H 239.976 -0.369479 1.39179 0
M  V30 2478 H 241.929 -3.20311 2.73823 0
M  V30 2479 H 240.653 -2.88122 1.53796 0
M  V30 2480 H 239.312 -1.64551 3.27595 0
M  V30 2481 H 238.96 -4.09582 2.91979 0
M  V30 2482 H 238.66 -3.63732 4.6149 0
M  V30 2483 H 240.184 -4.45806 4.1724 0
M  V30 2484 H 241.598 -2.42886 5.19307 0
M  V30 2485 H 239.995 -1.83343 5.71407 0
M  V30 2486 H 241.065 -0.76528 4.78823 0
M  V30 2487 N 242.408 -1.52605 -0.393616 0
M  V30 2488 C 243.824 -1.41753 -0.733357 0
M  V30 2489 C 244.024 -0.534293 -1.94287 0
M  V30 2490 O 243.08 -0.0059787 -2.52499 0
M  V30 2491 C 244.393 -2.84531 -0.972772 0
M  V30 2492 C 245.941 -2.93978 -1.07453 0
M  V30 2493 C 246.416 -4.37756 -1.3466 0
M  V30 2494 N 247.907 -4.4106 -1.41492 0
M  V30 2495 C 248.642 -5.49387 -1.642 0
M  V30 2496 N 248.138 -6.67806 -1.8441 0
M  V30 2497 N 249.931 -5.36923 -1.66342 0
M  V30 2498 H 242.082 -2.08555 0.402328 0
M  V30 2499 H 244.345 -0.940654 0.117789 0
M  V30 2500 H 244.051 -3.51353 -0.156204 0
M  V30 2501 H 243.925 -3.26508 -1.88871 0
M  V30 2502 H 246.312 -2.27326 -1.88167 0
M  V30 2503 H 246.393 -2.55435 -0.136605 0
M  V30 2504 H 246.037 -5.04972 -0.544581 0
M  V30 2505 H 245.967 -4.73848 -2.2973 0
M  V30 2506 H 248.458 -3.55705 -1.27601 0
M  V30 2507 H 248.771 -7.46141 -2.01231 0
M  V30 2508 H 247.116 -6.70843 -1.81644 0
M  V30 2509 H 250.307 -4.43381 -1.50102 0
M  V30 2510 H 250.48 -6.21416 -1.837 0
M  V30 2511 N 243.887 0.651787 -1.4349 0
M  V30 2512 C 245.133 1.4121 -1.46395 0
M  V30 2513 C 245.488 1.92202 -0.087366 0
M  V30 2514 O 244.781 1.69452 0.894231 0
M  V30 2515 C 244.975 2.60914 -2.44251 0
M  V30 2516 C 244.804 2.21639 -3.91288 0
M  V30 2517 C 243.574 2.09897 -4.59643 0
M  V30 2518 C 245.772 1.81835 -4.81083 0
M  V30 2519 N 243.754 1.63967 -5.91598 0
M  V30 2520 C 245.125 1.46998 -6.02322 0
M  V30 2521 C 247.18 1.69031 -4.6833 0
M  V30 2522 C 245.883 1.00638 -7.12225 0
M  V30 2523 C 247.909 1.24077 -5.78238 0
M  V30 2524 C 247.271 0.901772 -6.98604 0
M  V30 2525 H 243.37 0.512322 -0.590805 0
M  V30 2526 H 245.954 0.74989 -1.7968 0
M  V30 2527 H 244.125 3.24792 -2.1299 0
M  V30 2528 H 245.857 3.27622 -2.37584 0
M  V30 2529 H 242.612 2.297 -4.14168 0
M  V30 2530 H 243.036 1.43359 -6.61647 0
M  V30 2531 H 247.678 1.93878 -3.75727 0
M  V30 2532 H 245.396 0.745399 -8.04655 0
M  V30 2533 H 248.982 1.14657 -5.7039 0
M  V30 2534 H 247.862 0.559226 -7.82203 0
M  V30 2535 N 245.365 1.30045 0.890287 0
M  V30 2536 C 246.295 1.18541 2.01172 0
M  V30 2537 C 247.276 0.0773356 1.69924 0
M  V30 2538 O 248.461 0.25845 1.92473 0
M  V30 2539 C 245.591 0.870941 3.36202 0
M  V30 2540 C 244.545 1.93637 3.81692 0
M  V30 2541 C 243.871 1.475 5.13953 0
M  V30 2542 C 245.171 3.34666 4.00994 0
M  V30 2543 H 246.865 2.12359 2.11054 0
M  V30 2544 H 244.411 1.02238 1.01407 0
M  V30 2545 H 246.364 0.777141 4.14172 0
M  V30 2546 H 245.088 -0.102926 3.26438 0
M  V30 2547 H 243.747 2.01972 3.05946 0
M  V30 2548 H 243.395 0.489551 5.00612 0
M  V30 2549 H 243.095 2.1876 5.4536 0
M  V30 2550 H 244.619 1.39489 5.94454 0
M  V30 2551 H 246.033 3.2912 4.69417 0
M  V30 2552 H 244.43 4.03966 4.43769 0
M  V30 2553 H 245.5 3.76949 3.05021 0
M  V30 2554 N 246.843 -1.10192 1.12674 0
M  V30 2555 C 248.254 -1.63707 0.897604 0
M  V30 2556 C 248.605 -1.87812 -0.567546 0
M  V30 2557 O 247.73 -1.62196 -1.43253 0
M  V30 2558 C 248.325 -2.974 1.62292 0
M  V30 2559 C 246.884 -3.47772 1.43986 0
M  V30 2560 C 246.031 -2.22332 1.65722 0
M  V30 2561 H 248.982 -0.936587 1.28116 0
M  V30 2562 H 249.003 -3.64986 1.07541 0
M  V30 2563 H 248.515 -2.79824 2.68924 0
M  V30 2564 H 246.616 -3.70487 0.396206 0
M  V30 2565 H 246.729 -4.25723 2.19765 0
M  V30 2566 H 245.093 -2.30599 1.08149 0
M  V30 2567 H 245.876 -2.07285 2.73657 0
M  V30 2568 N 248.321 -0.919034 -1.28029 0
M  V30 2569 C 249.732 -0.600735 -1.76771 0
M  V30 2570 C 250.083 0.884024 -1.75156 0
M  V30 2571 O 249.208 1.69163 -1.34956 0
M  V30 2572 C 249.803 -1.08372 -3.21 0
M  V30 2573 C 248.362 -0.816248 -3.67443 0
M  V30 2574 C 247.509 -1.24742 -2.47658 0
M  V30 2575 H 250.46 -1.09974 -1.14418 0
M  V30 2576 H 250.481 -0.427512 -3.78091 0
M  V30 2577 H 249.993 -2.16437 -3.22144 0
M  V30 2578 H 248.094 0.250968 -3.71754 0
M  V30 2579 H 248.207 -1.4277 -4.57333 0
M  V30 2580 H 246.571 -0.666083 -2.45836 0
M  V30 2581 H 247.354 -2.33653 -2.51518 0
M  V30 2582 N 249.799 1.42003 -0.683588 0
M  V30 2583 C 251.21 1.84501 -0.285736 0
M  V30 2584 C 251.561 1.57213 1.17382 0
M  V30 2585 O 250.686 1.03642 1.89966 0
M  V30 2586 C 251.281 3.34912 -0.511821 0
M  V30 2587 C 249.84 3.76025 -0.168005 0
M  V30 2588 C 248.987 2.6551 -0.799983 0
M  V30 2589 H 251.938 1.31724 -0.885119 0
M  V30 2590 H 251.959 3.79784 0.233292 0
M  V30 2591 H 251.471 3.54741 -1.57418 0
M  V30 2592 H 249.572 3.61801 0.890567 0
M  V30 2593 H 249.685 4.75141 -0.614661 0
M  V30 2594 H 248.049 2.53654 -0.230568 0
M  V30 2595 H 248.832 2.8816 -1.86597 0
M  V30 2596 N 251.277 0.427512 1.51691 0
M  V30 2597 C 252.187 -0.39527 2.31246 0
M  V30 2598 C 253.203 -1.03674 1.39742 0
M  V30 2599 O 254.379 -1.03425 1.72816 0
M  V30 2600 C 251.444 -1.48706 3.13189 0
M  V30 2601 C 250.505 -0.866743 4.20459 0
M  V30 2602 C 249.738 -1.90651 4.98486 0
M  V30 2603 O 249.961 -3.12733 4.77026 0
M  V30 2604 O 248.895 -1.5025 5.82845 0
M  V30 2605 H 252.721 0.253918 3.02637 0
M  V30 2606 H 250.306 0.190274 1.48183 0
M  V30 2607 H 252.188 -2.12047 3.64162 0
M  V30 2608 H 250.863 -2.12051 2.44573 0
M  V30 2609 H 249.77 -0.195544 3.73589 0
M  V30 2610 H 251.103 -0.276934 4.9142 0
M  V30 2611 N 252.755 -1.56801 0.158532 0
M  V30 2612 C 253.983 -2.00859 -0.496303 0
M  V30 2613 C 254.398 -1.03871 -1.57659 0
M  V30 2614 O 253.755 -0.0375165 -1.82461 0
M  V30 2615 C 253.806 -3.4479 -1.08638 0
M  V30 2616 O 253.527 -4.38072 -0.0492322 0
M  V30 2617 C 255.028 -4.04185 -1.8207 0
M  V30 2618 H 252.248 -0.65864 -0.128199 0
M  V30 2619 H 254.792 -2.02885 0.256506 0
M  V30 2620 H 252.947 -3.43579 -1.78975 0
M  V30 2621 H 253.361 -5.2227 -0.483102 0
M  V30 2622 H 254.835 -5.06857 -2.18633 0
M  V30 2623 H 255.312 -3.45549 -2.71095 0
M  V30 2624 H 255.918 -4.0906 -1.16405 0
M  V30 2625 N 254.233 0.115231 -1.57178 0
M  V30 2626 C 255.644 0.67197 -1.74188 0
M  V30 2627 C 255.995 1.80125 -0.777777 0
M  V30 2628 O 255.12 2.16346 0.0484376 0
M  V30 2629 C 255.715 1.22573 -3.1585 0
M  V30 2630 C 254.274 1.72872 -3.34353 0
M  V30 2631 C 253.421 0.629972 -2.70049 0
M  V30 2632 H 256.372 -0.110712 -1.58313 0
M  V30 2633 H 256.393 2.09535 -3.17609 0
M  V30 2634 H 255.905 0.403598 -3.85996 0
M  V30 2635 H 254.006 2.5755 -2.69256 0
M  V30 2636 H 254.119 1.83557 -4.42542 0
M  V30 2637 H 252.483 1.0645 -2.31388 0
M  V30 2638 H 253.266 -0.181241 -3.42821 0
M  V30 2639 N 255.711 1.52812 0.385517 0
M  V30 2640 C 256.644 1.72592 1.49289 0
M  V30 2641 C 257.622 0.573819 1.52138 0
M  V30 2642 O 258.806 0.80404 1.70492 0
M  V30 2643 C 255.933 1.78669 2.87741 0
M  V30 2644 C 254.979 3.00455 3.02703 0
M  V30 2645 S 255.812 4.60366 2.73538 0
M  V30 2646 C 256.968 4.69263 4.14177 0
M  V30 2647 H 257.201 2.66248 1.32285 0
M  V30 2648 H 254.734 1.43148 0.578611 0
M  V30 2649 H 256.692 1.82855 3.67524 0
M  V30 2650 H 255.353 0.861 3.02069 0
M  V30 2651 H 254.546 3.01258 4.04054 0
M  V30 2652 H 254.148 2.94278 2.30817 0
M  V30 2653 H 256.44 4.48092 5.08153 0
M  V30 2654 H 257.383 5.71276 4.18388 0
M  V30 2655 H 257.791 3.98072 4.00249 0
M  V30 2656 N 257.189 -0.644168 1.43834 0
M  V30 2657 C 258.417 -1.43147 1.49387 0
M  V30 2658 C 258.832 -1.88452 0.114583 0
M  V30 2659 O 258.189 -1.60047 -0.876989 0
M  V30 2660 C 258.24 -2.66046 2.44748 0
M  V30 2661 O 257.961 -2.22633 3.77314 0
M  V30 2662 C 259.462 -3.59311 2.59635 0
M  V30 2663 H 256.682 -0.439447 0.507077 0
M  V30 2664 H 259.226 -0.78895 1.88669 0
M  V30 2665 H 257.381 -3.26418 2.08638 0
M  V30 2666 H 257.795 -3.02216 4.28679 0
M  V30 2667 H 259.269 -4.42187 3.30416 0
M  V30 2668 H 259.746 -4.07259 1.64427 0
M  V30 2669 H 260.352 -3.04816 2.96593 0
M  V30 2670 N 258.668 -1.30515 -0.883378 0
M  V30 2671 C 259.893 -1.22487 -1.67367 0
M  V30 2672 C 260.318 0.208767 -1.86938 0
M  V30 2673 O 259.676 1.15015 -1.40148 0
M  V30 2674 C 259.724 -1.96041 -3.02655 0
M  V30 2675 O 258.828 -1.28859 -3.91751 0
M  V30 2676 H 258.169 -0.423573 -0.511353 0
M  V30 2677 H 260.699 -1.72362 -1.10239 0
M  V30 2678 H 260.709 -2.05124 -3.52687 0
M  V30 2679 H 259.384 -3.00307 -2.8773 0
M  V30 2680 H 257.961 -1.28141 -3.50192 0
M  V30 2681 N 260.146 1.09593 -1.13257 0
M  V30 2682 C 261.096 2.14345 -0.777179 0
M  V30 2683 C 262.08 1.59277 0.227966 0
M  V30 2684 O 263.272 1.76971 0.0321413 0
M  V30 2685 C 260.401 3.42439 -0.242991 0
M  V30 2686 C 259.487 4.04419 -1.27694 0
M  V30 2687 N 259.878 4.40979 -2.47732 0
M  V30 2688 C 258.176 4.31596 -1.12432 0
M  V30 2689 C 258.877 4.89784 -3.13826 0
M  V30 2690 N 257.853 4.87133 -2.41252 0
M  V30 2691 H 261.655 2.40415 -1.69049 0
M  V30 2692 H 259.169 1.26803 -1.01463 0
M  V30 2693 H 261.166 4.16889 0.0298496 0
M  V30 2694 H 259.826 3.17824 0.66467 0
M  V30 2695 H 260.837 4.32396 -2.85051 0
M  V30 2696 H 257.514 4.16595 -0.274684 0
M  V30 2697 H 258.904 5.2755 -4.16102 0
M  V30 2698 N 261.624 0.925811 1.2754 0
M  V30 2699 C 262.873 0.561084 1.93739 0
M  V30 2700 C 263.186 -0.901685 1.73577 0
M  V30 2701 O 264.392 -1.37511 2.34101 0
M  V30 2702 C 262.848 0.952668 3.47062 0
M  V30 2703 C 262.456 2.43599 3.75983 0
M  V30 2704 C 264.2 0.659103 4.19352 0
M  V30 2705 C 262.107 2.76707 5.22673 0
M  V30 2706 H 261.037 0.206122 0.725279 0
M  V30 2707 H 263.688 1.12637 1.44863 0
M  V30 2708 H 262.07 0.316053 3.94737 0
M  V30 2709 H 263.244 3.12035 3.39073 0
M  V30 2710 H 261.559 2.70125 3.16893 0
M  V30 2711 H 264.156 0.882985 5.27359 0
M  V30 2712 H 264.499 -0.403607 4.14339 0
M  V30 2713 H 265.032 1.25473 3.77494 0
M  V30 2714 H 261.771 3.8188 5.32774 0
M  V30 2715 H 261.291 2.12919 5.60737 0
M  V30 2716 H 262.97 2.6435 5.90532 0
M  V30 2717 N 263.102 -1.41638 0.69111 0
M  V30 2718 C 264.518 -1.55435 0.362224 0
M  V30 2719 C 264.718 -1.66754 -1.13117 0
M  V30 2720 O 263.774 -1.64348 -1.91692 0
M  V30 2721 C 265.087 -2.79588 1.10684 0
M  V30 2722 C 266.635 -2.9338 1.09075 0
M  V30 2723 C 267.11 -4.20414 1.81703 0
M  V30 2724 N 268.601 -4.27362 1.7865 0
M  V30 2725 C 269.336 -5.24507 2.31689 0
M  V30 2726 N 268.832 -6.27708 2.93179 0
M  V30 2727 N 270.625 -5.16416 2.2197 0
M  V30 2728 H 262.776 -1.32536 1.65976 0
M  V30 2729 H 265.039 -0.639115 0.700168 0
M  V30 2730 H 264.745 -2.77419 2.16175 0
M  V30 2731 H 264.619 -3.70973 0.682545 0
M  V30 2732 H 267.006 -2.95067 0.0441238 0
M  V30 2733 H 267.087 -2.0318 1.55407 0
M  V30 2734 H 266.731 -4.19488 2.86343 0
M  V30 2735 H 266.661 -5.09578 1.32808 0
M  V30 2736 H 269.152 -3.53415 1.33815 0
M  V30 2737 H 269.465 -6.98217 3.31229 0
M  V30 2738 H 267.81 -6.28223 2.97255 0
M  V30 2739 H 271.001 -4.34716 1.73607 0
M  V30 2740 H 271.174 -5.91958 2.63609 0
M  V30 2741 N 264.58 -0.43555 -1.51462 0
M  V30 2742 C 265.81 0.130053 -2.0619 0
M  V30 2743 C 266.218 1.37164 -1.30317 0
M  V30 2744 O 265.561 1.80225 -0.355598 0
M  V30 2745 C 265.623 0.519418 -3.55728 0
M  V30 2746 C 265.287 -0.615119 -4.52841 0
M  V30 2747 C 266.284 -1.48671 -4.9819 0
M  V30 2748 C 263.969 -0.795341 -4.95963 0
M  V30 2749 C 265.963 -2.52324 -5.8533 0
M  V30 2750 C 263.65 -1.83514 -5.82894 0
M  V30 2751 C 264.648 -2.69748 -6.27475 0
M  V30 2752 O 264.336 -3.71944 -7.1268 0
M  V30 2753 H 264.068 0.0121612 -0.675891 0
M  V30 2754 H 266.622 -0.6129 -1.96043 0
M  V30 2755 H 264.852 1.31505 -3.63653 0
M  V30 2756 H 266.541 1.01597 -3.92979 0
M  V30 2757 H 267.307 -1.359 -4.65571 0
M  V30 2758 H 263.186 -0.133713 -4.60806 0
M  V30 2759 H 266.73 -3.19665 -6.20048 0
M  V30 2760 H 262.627 -1.96306 -6.14926 0
M  V30 2761 H 263.395 -3.68503 -7.30854 0
M  V30 2762 N 266.058 1.56714 -0.166846 0
M  V30 2763 C 266.968 2.21331 0.777791 0
M  V30 2764 C 267.984 1.20358 1.25658 0
M  V30 2765 O 269.16 1.53005 1.30964 0
M  V30 2766 C 266.225 2.83787 1.99163 0
M  V30 2767 C 265.286 3.99947 1.56016 0
M  V30 2768 C 264.519 4.59415 2.71613 0
M  V30 2769 O 264.742 4.17769 3.88362 0
M  V30 2770 O 263.676 5.49359 2.45945 0
M  V30 2771 H 267.502 3.02605 0.257636 0
M  V30 2772 H 265.087 1.49275 0.0611393 0
M  V30 2773 H 266.969 3.23405 2.70161 0
M  V30 2774 H 265.644 2.05513 2.50092 0
M  V30 2775 H 264.551 3.65007 0.819809 0
M  V30 2776 H 265.884 4.79801 1.09782 0
M  V30 2777 N 267.536 -0.106894 1.57237 0
M  V30 2778 C 268.782 -0.81373 1.85759 0
M  V30 2779 C 269.115 -1.78952 0.754315 0
M  V30 2780 O 268.39 -1.93029 -0.23879 0
M  V30 2781 C 268.673 -1.55293 3.24894 0
M  V30 2782 C 268.526 -0.595929 4.45835 0
M  V30 2783 C 269.845 -2.5063 3.61763 0
M  V30 2784 H 266.964 -0.294369 0.67566 0
M  V30 2785 H 269.606 -0.0776472 1.89841 0
M  V30 2786 H 267.756 -2.1804 3.21544 0
M  V30 2787 H 269.428 0.0236262 4.61294 0
M  V30 2788 H 267.671 0.0916191 4.33703 0
M  V30 2789 H 268.342 -1.15004 5.39887 0
M  V30 2790 H 270.818 -1.97982 3.65981 0
M  V30 2791 H 269.694 -2.99376 4.60071 0
M  V30 2792 H 269.955 -3.3385 2.89821 0
M  V30 2793 N 269.014 -1.53014 -0.377408 0
M  V30 2794 C 270.291 -1.59215 -1.13622 0
M  V30 2795 C 270.671 -0.392407 -2.07421 0
M  V30 2796 O 270.019 0.618342 -2.19975 0
M  V30 2797 C 270.229 -2.93669 -1.88573 0
M  V30 2798 C 271.577 -3.47822 -2.43526 0
M  V30 2799 O 272.601 -2.9562 -1.98715 0
M  V30 2800 O 271.46 -4.39055 -3.25412 0
M  V30 2801 H 268.554 -0.642625 -0.52054 0
M  V30 2802 H 271.1 -1.65353 -0.381625 0
M  V30 2803 H 269.872 -3.7243 -1.20048 0
M  V30 2804 H 269.495 -2.90968 -2.70968 0
M  V30 2805 N 270.492 0.636531 -1.44174 0
M  V30 2806 C 271.738 1.39826 -1.4689 0
M  V30 2807 C 272.071 1.93947 -0.0990585 0
M  V30 2808 O 271.346 1.73325 0.882544 0
M  V30 2809 C 271.629 2.56751 -2.5249 0
M  V30 2810 C 271.482 2.08014 -3.98811 0
M  V30 2811 C 272.801 3.58946 -2.54649 0
M  V30 2812 H 269.92 0.507075 -0.53483 0
M  V30 2813 H 272.562 0.720188 -1.75822 0
M  V30 2814 H 270.712 3.14597 -2.2795 0
M  V30 2815 H 272.384 1.5504 -4.34466 0
M  V30 2816 H 270.627 1.39242 -4.10846 0
M  V30 2817 H 271.298 2.92169 -4.68339 0
M  V30 2818 H 273.774 3.1089 -2.76563 0
M  V30 2819 H 272.65 4.38286 -3.3045 0
M  V30 2820 H 272.911 4.12655 -1.58646 0
M  V30 2821 N 271.97 1.30982 0.876444 0
M  V30 2822 C 273.195 1.23373 1.66715 0
M  V30 2823 C 273.62 -0.19885 1.87046 0
M  V30 2824 O 272.978 -1.1427 1.40756 0
M  V30 2825 C 273.026 1.97644 3.01611 0
M  V30 2826 O 272.13 1.30935 3.91062 0
M  V30 2827 H 271.471 0.426279 0.509099 0
M  V30 2828 H 274.001 1.72944 1.09323 0
M  V30 2829 H 274.011 2.06992 3.51594 0
M  V30 2830 H 272.686 3.01829 2.86133 0
M  V30 2831 H 271.263 1.29996 3.49507 0
M  V30 2832 N 273.449 -1.08991 1.13837 0
M  V30 2833 C 274.412 -2.13925 0.822715 0
M  V30 2834 C 275.412 -1.599 -0.1699 0
M  V30 2835 O 276.602 -1.74104 0.0577251 0
M  V30 2836 C 273.734 -3.40155 0.225318 0
M  V30 2837 H 274.927 -2.43358 1.75262 0
M  V30 2838 H 272.48 -1.24603 0.943594 0
M  V30 2839 H 273.215 -3.16352 -0.713594 0
M  V30 2840 H 273 -3.80661 0.940193 0
M  V30 2841 H 274.49 -4.17594 0.0214784 0
M  V30 2842 N 274.927 -0.932562 -1.27047 0
M  V30 2843 C 276.175 -0.574422 -1.93765 0
M  V30 2844 C 276.496 0.887993 -1.73608 0
M  V30 2845 O 275.766 1.62999 -1.08665 0
M  V30 2846 H 274.346 -0.209451 -0.717035 0
M  V30 2847 H 277.008 -1.18601 -1.5466 0
M  V30 2848 H 276.104 -0.784841 -3.02071 0
M  V30 2849 N 276.405 1.4127 -0.698611 0
M  V30 2850 C 277.353 2.32588 -0.023855 0
M  V30 2851 C 278.347 1.51128 0.765292 0
M  V30 2852 O 279.553 1.67043 0.670571 0
M  V30 2853 H 275.928 0.751918 0.0110871 0
M  V30 2854 H 277.899 2.87167 -0.811031 0
M  V30 2855 C 276.648 3.35947 0.896369 0
M  V30 2856 H 275.971 3.98684 0.298548 0
M  V30 2857 H 277.411 4.02376 1.33676 0
M  V30 2858 C 275.87 2.70076 2.01396 0
M  V30 2859 O 276.4 2.55093 3.10307 0
M  V30 2860 N 274.606 2.28724 1.79259 0
M  V30 2861 H 274.153 2.4111 0.906841 0
M  V30 2862 H 274.111 1.84986 2.54219 0
M  V30 2863 N 277.883 0.443576 1.51229 0
M  V30 2864 C 279.131 -0.120557 2.0174 0
M  V30 2865 C 279.452 -1.42665 1.32935 0
M  V30 2866 O 278.722 -1.9028 0.465866 0
M  V30 2867 H 277.302 -0.0475426 0.745486 0
M  V30 2868 H 279.964 0.587711 1.85828 0
M  V30 2869 H 279.06 -0.291972 3.10731 0
M  V30 2870 N 279.361 -1.56624 0.175154 0
M  V30 2871 C 280.324 -2.16934 -0.739738 0
M  V30 2872 C 281.324 -1.11842 -1.15533 0
M  V30 2873 O 282.514 -1.37335 -1.07167 0
M  V30 2874 C 279.646 -2.75531 -2.00738 0
M  V30 2875 H 280.839 -2.99131 -0.214639 0
M  V30 2876 H 278.392 -1.56123 -0.0744197 0
M  V30 2877 H 279.127 -1.97078 -2.57548 0
M  V30 2878 H 278.912 -3.52444 -1.71831 0
M  V30 2879 H 280.402 -3.21904 -2.66021 0
M  V30 2880 N 280.839 0.0985539 -1.57292 0
M  V30 2881 C 282.087 0.801092 -1.85545 0
M  V30 2882 C 282.408 1.79438 -0.763353 0
M  V30 2883 O 281.678 1.94763 0.21073 0
M  V30 2884 H 280.258 0.29884 -0.684619 0
M  V30 2885 H 282.92 0.0810064 -1.94732 0
M  V30 2886 H 282.016 1.3338 -2.82163 0
M  V30 2887 N 282.317 1.53212 0.369288 0
M  V30 2888 C 283.542 1.73423 1.1375 0
M  V30 2889 C 283.967 0.460404 1.82378 0
M  V30 2890 O 283.325 -0.585298 1.71592 0
M  V30 2891 C 283.373 2.89769 2.1463 0
M  V30 2892 O 282.477 2.58119 3.21634 0
M  V30 2893 H 281.818 0.576061 0.330227 0
M  V30 2894 H 284.348 2.00083 0.427547 0
M  V30 2895 H 284.358 3.15829 2.58294 0
M  V30 2896 H 283.033 3.8217 1.64071 0
M  V30 2897 H 281.61 2.42864 2.82969 0
M  V30 2898 N 283.795 -0.628877 1.44509 0
M  V30 2899 C 285.041 -1.39045 1.47629 0
M  V30 2900 C 285.374 -1.93892 0.109343 0
M  V30 2901 O 284.649 -1.7379 -0.87334 0
M  V30 2902 C 284.932 -2.55408 2.53848 0
M  V30 2903 C 284.785 -2.05896 3.99909 0
M  V30 2904 C 286.104 -3.5759 2.56549 0
M  V30 2905 H 283.223 -0.504232 0.537512 0
M  V30 2906 H 285.865 -0.710854 1.76201 0
M  V30 2907 H 284.015 -3.13384 2.29615 0
M  V30 2908 H 285.687 -1.52734 4.35282 0
M  V30 2909 H 283.93 -1.37061 4.11578 0
M  V30 2910 H 284.601 -2.89681 4.69882 0
M  V30 2911 H 287.077 -3.09419 2.78207 0
M  V30 2912 H 285.953 -4.36527 3.32769 0
M  V30 2913 H 286.214 -4.11808 1.60832 0
M  V30 2914 N 285.273 -1.31445 -0.869486 0
M  V30 2915 C 286.205 -1.14955 -1.98287 0
M  V30 2916 C 287.218 -0.0885037 -1.62559 0
M  V30 2917 O 288.407 -0.336044 -1.75308 0
M  V30 2918 C 285.507 -0.734255 -3.3085 0
M  V30 2919 C 284.68 -1.88042 -3.94917 0
M  V30 2920 C 283.739 -1.4511 -5.05796 0
M  V30 2921 O 282.765 -2.16082 -5.2659 0
M  V30 2922 N 283.967 -0.338763 -5.79511 0
M  V30 2923 H 286.732 -2.10856 -2.12979 0
M  V30 2924 H 284.293 -1.23786 -1.04349 0
M  V30 2925 H 286.285 -0.42975 -4.02412 0
M  V30 2926 H 284.855 0.133158 -3.12316 0
M  V30 2927 H 284.075 -2.35222 -3.1633 0
M  V30 2928 H 285.363 -2.6481 -4.34457 0
M  V30 2929 H 284.761 0.252274 -5.65137 0
M  V30 2930 H 283.318 -0.0937925 -6.51733 0
M  V30 2931 N 286.751 1.08385 -1.14413 0
M  V30 2932 C 288.167 1.32844 -0.884563 0
M  V30 2933 C 288.367 1.95841 0.474181 0
M  V30 2934 O 287.423 2.21158 1.21842 0
M  V30 2935 C 288.736 2.22978 -2.01745 0
M  V30 2936 C 290.284 2.36458 -2.05077 0
M  V30 2937 C 290.759 3.29934 -3.1766 0
M  V30 2938 N 292.25 3.37511 -3.17239 0
M  V30 2939 C 292.985 4.09871 -4.0099 0
M  V30 2940 N 292.481 4.84936 -4.94781 0
M  V30 2941 N 294.274 4.05704 -3.89051 0
M  V30 2942 H 286.425 0.658756 -2.01926 0
M  V30 2943 H 288.688 0.352821 -0.879899 0
M  V30 2944 H 288.394 1.83934 -2.99769 0
M  V30 2945 H 288.268 3.23441 -1.94077 0
M  V30 2946 H 290.655 2.7476 -1.0766 0
M  V30 2947 H 290.736 1.35736 -2.16816 0
M  V30 2948 H 290.38 2.92352 -4.15322 0
M  V30 2949 H 290.31 4.30584 -3.03158 0
M  V30 2950 H 292.801 2.83996 -2.49308 0
M  V30 2951 H 293.114 5.37612 -5.55151 0
M  V30 2952 H 291.459 4.83988 -4.98779 0
M  V30 2953 H 294.65 3.46167 -3.15097 0
M  V30 2954 H 294.823 4.61834 -4.54547 0
M  V30 2955 N 288.23 0.939286 1.26551 0
M  V30 2956 C 289.476 0.586715 1.94128 0
M  V30 2957 C 289.809 -0.8717 1.73537 0
M  V30 2958 O 289.084 -1.62339 1.07127 0
M  V30 2959 C 289.367 0.927497 3.4795 0
M  V30 2960 C 289.22 2.44052 3.77834 0
M  V30 2961 C 290.539 0.441569 4.37879 0
M  V30 2962 H 287.658 0.21463 0.705055 0
M  V30 2963 H 290.3 1.17316 1.49455 0
M  V30 2964 H 288.45 0.428431 3.8613 0
M  V30 2965 H 290.122 3.01216 3.4938 0
M  V30 2966 H 288.365 2.8848 3.23978 0
M  V30 2967 H 289.036 2.62947 4.85348 0
M  V30 2968 H 291.512 0.869448 4.06915 0
M  V30 2969 H 290.388 0.708856 5.44304 0
M  V30 2970 H 290.649 -0.658467 4.37169 0
M  V30 2971 N 289.708 -1.40897 0.706093 0
M  V30 2972 C 290.618 -2.3455 0.0482286 0
M  V30 2973 C 291.634 -1.56796 -0.754396 0
M  V30 2974 O 292.81 -1.89228 -0.689538 0
M  V30 2975 C 289.875 -3.35625 -0.869303 0
M  V30 2976 C 288.936 -4.29261 -0.0576994 0
M  V30 2977 C 288.169 -5.25508 -0.931531 0
M  V30 2978 O 288.392 -5.27472 -2.17092 0
M  V30 2979 O 287.326 -6.00727 -0.375587 0
M  V30 2980 H 291.152 -2.92407 0.820476 0
M  V30 2981 H 288.737 -1.4193 0.4665 0
M  V30 2982 H 290.619 -3.97635 -1.39514 0
M  V30 2983 H 289.294 -2.80196 -1.62086 0
M  V30 2984 H 288.201 -3.70566 0.512988 0
M  V30 2985 H 289.534 -4.87817 0.655426 0
M  V30 2986 N 291.186 -0.45159 -1.50991 0
M  V30 2987 C 292.435 0.111653 -2.01391 0
M  V30 2988 C 292.748 1.42529 -1.33959 0
M  V30 2989 O 293.954 2.07232 -1.75405 0
M  V30 2990 C 292.41 0.249514 -3.59034 0
M  V30 2991 C 292.018 -1.05453 -4.35412 0
M  V30 2992 C 293.762 0.765762 -4.17536 0
M  V30 2993 C 291.669 -0.881529 -5.84793 0
M  V30 2994 H 290.599 0.0455022 -0.752626 0
M  V30 2995 H 293.25 -0.583524 -1.73975 0
M  V30 2996 H 291.632 1.00803 -3.82955 0
M  V30 2997 H 292.806 -1.82248 -4.23229 0
M  V30 2998 H 291.121 -1.50039 -3.88429 0
M  V30 2999 H 293.718 0.911913 -5.26866 0
M  V30 3000 H 294.061 1.75201 -3.77638 0
M  V30 3001 H 294.594 0.0651744 -3.97747 0
M  V30 3002 H 291.333 -1.84057 -6.29129 0
M  V30 3003 H 290.853 -0.153625 -5.99603 0
M  V30 3004 H 292.532 -0.540363 -6.4474 0
M  V30 3005 N 292.664 1.56529 -0.183458 0
M  V30 3006 C 293.594 2.21549 0.737456 0
M  V30 3007 C 294.575 1.17489 1.23005 0
M  V30 3008 O 295.76 1.45959 1.281 0
M  V30 3009 C 292.89 2.86575 1.96194 0
M  V30 3010 C 291.844 3.96778 1.60473 0
M  V30 3011 C 291.17 4.48911 2.90487 0
M  V30 3012 C 292.47 5.15767 0.823497 0
M  V30 3013 H 294.164 2.98761 0.195453 0
M  V30 3014 H 291.71 1.43702 0.0925686 0
M  V30 3015 H 293.663 3.30739 2.61131 0
M  V30 3016 H 292.387 2.06749 2.52828 0
M  V30 3017 H 291.046 3.53286 0.978997 0
M  V30 3018 H 290.694 3.65862 3.45186 0
M  V30 3019 H 290.394 5.23265 2.67335 0
M  V30 3020 H 291.918 4.95771 3.56432 0
M  V30 3021 H 293.332 5.56549 1.37571 0
M  V30 3022 H 291.729 5.96114 0.690551 0
M  V30 3023 H 292.799 4.84574 -0.177782 0
M  V30 3024 N 294.142 -0.090211 1.57342 0
M  V30 3025 C 295.052 -1.12735 2.05738 0
M  V30 3026 C 296.068 -1.43557 0.983231 0
M  V30 3027 O 297.244 -1.54101 1.29672 0
M  V30 3028 C 294.309 -2.42659 2.47624 0
M  V30 3029 C 293.37 -2.18975 3.69254 0
M  V30 3030 C 292.603 -3.42704 4.09133 0
M  V30 3031 O 292.826 -4.51127 3.49057 0
M  V30 3032 O 291.76 -3.32003 5.02053 0
M  V30 3033 H 295.586 -0.746279 2.94388 0
M  V30 3034 H 293.171 -0.303064 1.46294 0
M  V30 3035 H 295.053 -3.19155 2.7517 0
M  V30 3036 H 293.728 -2.80182 1.62109 0
M  V30 3037 H 292.635 -1.40244 3.46818 0
M  V30 3038 H 293.968 -1.86342 4.55563 0
M  V30 3039 N 295.62 -1.53406 -0.361157 0
M  V30 3040 C 296.868 -1.69467 -1.10115 0
M  V30 3041 C 297.189 -0.451352 -1.89705 0
M  V30 3042 O 296.459 0.534636 -1.88463 0
M  V30 3043 H 295.039 -0.624749 -0.409508 0
M  V30 3044 H 297.701 -1.90609 -0.406699 0
M  V30 3045 H 296.797 -2.55774 -1.78847 0
M  V30 3046 N 297.098 0.621204 -1.44841 0
M  V30 3047 C 298.514 0.94048 -1.28946 0
M  V30 3048 C 298.714 2.00154 -0.23249 0
M  V30 3049 O 297.77 2.49651 0.378237 0
M  V30 3050 C 299.083 1.39433 -2.66419 0
M  V30 3051 C 300.631 1.50927 -2.74208 0
M  V30 3052 C 301.106 1.99692 -4.12174 0
M  V30 3053 N 302.597 2.06947 -4.144 0
M  V30 3054 C 303.332 2.45871 -5.1801 0
M  V30 3055 N 302.828 2.83862 -6.31977 0
M  V30 3056 N 304.621 2.46092 -5.05366 0
M  V30 3057 H 296.772 -0.0803548 -2.12248 0
M  V30 3058 H 299.035 0.0266913 -0.947624 0
M  V30 3059 H 298.741 0.688925 -3.44887 0
M  V30 3060 H 298.615 2.36347 -2.93973 0
M  V30 3061 H 301.002 2.20561 -1.96053 0
M  V30 3062 H 301.083 0.523627 -2.50383 0
M  V30 3063 H 300.727 1.30649 -4.90809 0
M  V30 3064 H 300.657 2.99146 -4.33381 0
M  V30 3065 H 303.148 1.80232 -3.32152 0
M  V30 3066 H 303.461 3.12405 -7.0684 0
M  V30 3067 H 301.806 2.8159 -6.35399 0
M  V30 3068 H 304.997 2.1581 -4.15384 0
M  V30 3069 H 305.17 2.76102 -5.86235 0
M  V30 3070 N 298.576 1.31904 0.862503 0
M  V30 3071 C 299.804 1.24998 1.64873 0
M  V30 3072 C 300.219 -0.183425 1.87907 0
M  V30 3073 O 299.576 -1.11794 1.44251 0
M  V30 3074 C 299.627 1.99829 3.01248 0
M  V30 3075 O 299.348 3.37575 2.79239 0
M  V30 3076 C 300.849 1.99852 3.95694 0
M  V30 3077 H 298.069 0.431599 0.513773 0
M  V30 3078 H 300.613 1.73901 1.07604 0
M  V30 3079 H 298.768 1.54668 3.55185 0
M  V30 3080 H 299.182 3.75776 3.65914 0
M  V30 3081 H 300.656 2.56709 4.88676 0
M  V30 3082 H 301.133 0.982852 4.28062 0
M  V30 3083 H 301.739 2.44926 3.47694 0
M  V30 3084 N 300.054 -1.07777 1.14986 0
M  V30 3085 C 300.964 -2.18404 0.856546 0
M  V30 3086 C 301.98 -1.73211 -0.165485 0
M  V30 3087 O 303.156 -2.01399 0.00755219 0
M  V30 3088 C 300.221 -3.44977 0.34526 0
M  V30 3089 C 299.282 -4.0476 1.43065 0
M  V30 3090 C 298.515 -5.25291 0.943663 0
M  V30 3091 O 298.738 -5.70004 -0.212426 0
M  V30 3092 O 297.672 -5.76638 1.72547 0
M  V30 3093 H 301.498 -2.45978 1.78125 0
M  V30 3094 H 299.083 -1.17033 0.928631 0
M  V30 3095 H 300.965 -4.21348 0.0663671 0
M  V30 3096 H 299.64 -3.18965 -0.551631 0
M  V30 3097 H 298.547 -3.29949 1.76309 0
M  V30 3098 H 299.88 -4.35035 2.30229 0
M  V30 3099 N 301.532 -0.945985 -1.26051 0
M  V30 3100 C 302.772 -0.603665 -1.95282 0
M  V30 3101 C 303.136 0.842377 -1.72534 0
M  V30 3102 O 304.337 1.29387 -2.35611 0
M  V30 3103 C 302.608 -0.942292 -3.44754 0
M  V30 3104 S 304.167 -0.711242 -4.32997 0
M  V30 3105 H 300.985 -0.222176 -0.675395 0
M  V30 3106 H 303.587 -1.21832 -1.52896 0
M  V30 3107 H 302.291 -1.99203 -3.58812 0
M  V30 3108 H 301.822 -0.317546 -3.92116 0
M  V30 3109 H 303.837 0.422221 -4.944 0
M  V30 3110 N 303.011 1.40521 -0.713556 0
M  V30 3111 C 304.257 2.01221 -0.252564 0
M  V30 3112 C 304.59 1.56444 1.1506 0
M  V30 3113 O 303.865 0.783597 1.78017 0
M  V30 3114 C 304.148 3.58582 -0.330332 0
M  V30 3115 C 304.001 4.13437 -1.77173 0
M  V30 3116 C 305.32 4.39079 0.299641 0
M  V30 3117 H 302.439 0.731077 -0.0932471 0
M  V30 3118 H 305.081 1.67026 -0.905673 0
M  V30 3119 H 303.231 3.87844 0.225737 0
M  V30 3120 H 304.903 3.9498 -2.38303 0
M  V30 3121 H 303.146 3.67801 -2.3001 0
M  V30 3122 H 303.817 5.22597 -1.77755 0
M  V30 3123 H 306.293 4.15735 -0.174139 0
M  V30 3124 H 305.169 5.4848 0.214771 0
M  V30 3125 H 305.43 4.19915 1.38288 0
M  V30 3126 N 304.489 0.459591 1.5075 0
M  V30 3127 C 305.419 -0.330644 2.31147 0
M  V30 3128 C 306.4 -1.00087 1.37538 0
M  V30 3129 O 307.585 -1.00025 1.66459 0
M  V30 3130 C 304.715 -1.41958 3.16962 0
M  V30 3131 C 303.669 -0.871608 4.19031 0
M  V30 3132 C 302.995 -2.05797 4.9351 0
M  V30 3133 C 304.295 0.109251 5.22186 0
M  V30 3134 H 305.989 0.340336 2.97459 0
M  V30 3135 H 303.535 0.165119 1.4305 0
M  V30 3136 H 305.488 -1.9798 3.71997 0
M  V30 3137 H 304.212 -2.11917 2.48513 0
M  V30 3138 H 302.871 -0.333442 3.6508 0
M  V30 3139 H 302.519 -2.74427 4.21544 0
M  V30 3140 H 302.219 -1.6976 5.62544 0
M  V30 3141 H 303.743 -2.62331 5.51375 0
M  V30 3142 H 305.157 -0.361405 5.7216 0
M  V30 3143 H 303.554 0.383316 5.98875 0
M  V30 3144 H 304.624 1.03887 4.73641 0
M  V30 3145 N 305.967 -1.56429 0.191757 0
M  V30 3146 C 307.192 -2.02309 -0.456706 0
M  V30 3147 C 307.617 -1.07103 -1.5463 0
M  V30 3148 O 306.975 -0.0539677 -1.8122 0
M  V30 3149 C 307.023 -3.46654 -0.993159 0
M  V30 3150 O 306.127 -3.54559 -2.10622 0
M  V30 3151 H 305.468 -0.655303 -0.107114 0
M  V30 3152 H 307.998 -2.02364 0.301653 0
M  V30 3153 H 308.008 -3.86377 -1.31061 0
M  V30 3154 H 306.683 -4.1544 -0.195504 0
M  V30 3155 H 305.26 -3.26708 -1.79767 0
M  V30 3156 N 307.445 0.0818655 -1.57387 0
M  V30 3157 C 308.393 1.11712 -2.04018 0
M  V30 3158 C 309.387 1.40683 -0.94364 0
M  V30 3159 O 310.593 1.40209 -1.12878 0
M  V30 3160 H 306.968 0.377542 -0.650358 0
M  V30 3161 H 308.939 0.697614 -2.90131 0
M  V30 3162 C 307.688 2.42537 -2.49141 0
M  V30 3163 H 307.011 2.21092 -3.33104 0
M  V30 3164 H 308.451 3.13446 -2.85531 0
M  V30 3165 C 306.91 3.0778 -1.37014 0
M  V30 3166 O 307.44 3.95436 -0.706621 0
M  V30 3167 N 305.646 2.68242 -1.11779 0
M  V30 3168 H 305.193 1.97052 -1.65917 0
M  V30 3169 H 305.151 3.1222 -0.369594 0
M  V30 3170 N 308.923 1.53595 0.353017 0
M  V30 3171 C 309.853 1.83902 1.43883 0
M  V30 3172 C 310.834 0.693421 1.55324 0
M  V30 3173 O 312.019 0.944452 1.69687 0
M  V30 3174 C 309.149 2.04016 2.8106 0
M  V30 3175 C 308.103 3.19814 2.84434 0
M  V30 3176 C 307.429 3.25244 4.24406 0
M  V30 3177 C 308.729 4.58133 2.50822 0
M  V30 3178 H 310.423 2.74835 1.1877 0
M  V30 3179 H 307.969 1.32242 0.569917 0
M  V30 3180 H 309.922 2.238 3.57059 0
M  V30 3181 H 308.646 1.09804 3.07588 0
M  V30 3182 H 307.305 2.9987 2.10887 0
M  V30 3183 H 306.953 2.28646 4.48029 0
M  V30 3184 H 306.653 4.03054 4.27576 0
M  V30 3185 H 308.177 3.47228 5.0226 0
M  V30 3186 H 309.591 4.77995 3.16534 0
M  V30 3187 H 307.988 5.38276 2.6529 0
M  V30 3188 H 309.058 4.62387 1.46034 0
M  V30 3189 N 310.401 -0.613514 1.45168 0
M  V30 3190 C 311.817 -0.933629 1.29443 0
M  V30 3191 C 312.017 -2.00028 0.243101 0
M  V30 3192 O 311.073 -2.49848 -0.364992 0
M  V30 3193 C 312.386 -1.38018 2.67155 0
M  V30 3194 C 313.934 -1.49471 2.75004 0
M  V30 3195 C 314.409 -1.97503 4.13227 0
M  V30 3196 N 315.9 -2.04746 4.15491 0
M  V30 3197 C 316.635 -2.43121 5.19307 0
M  V30 3198 N 316.131 -2.80506 6.33473 0
M  V30 3199 N 317.924 -2.43408 5.06664 0
M  V30 3200 H 310.075 0.0916097 2.12202 0
M  V30 3201 H 312.338 -0.0216655 0.947752 0
M  V30 3202 H 312.044 -0.670625 3.45247 0
M  V30 3203 H 311.918 -2.34784 2.95222 0
M  V30 3204 H 314.305 -2.19519 1.9722 0
M  V30 3205 H 314.386 -0.510342 2.50657 0
M  V30 3206 H 314.03 -1.28045 4.91495 0
M  V30 3207 H 313.96 -2.96843 4.34962 0
M  V30 3208 H 316.451 -1.78468 3.33103 0
M  V30 3209 H 316.764 -3.08652 7.08487 0
M  V30 3210 H 315.109 -2.78216 6.36884 0
M  V30 3211 H 318.3 -2.13604 4.16523 0
M  V30 3212 H 318.473 -2.72989 5.87691 0
M  V30 3213 N 311.879 -1.3236 -0.855495 0
M  V30 3214 C 313.127 -1.22629 -1.60644 0
M  V30 3215 C 313.448 0.212136 -1.93843 0
M  V30 3216 O 312.718 1.13666 -1.59552 0
M  V30 3217 H 311.298 -0.450882 -0.595579 0
M  V30 3218 H 313.96 -1.65871 -1.02337 0
M  V30 3219 H 313.056 -1.80832 -2.54374 0
M  V30 3220 N 313.357 1.07166 -1.15556 0
M  V30 3221 C 314.773 1.31899 -0.898603 0
M  V30 3222 C 314.973 1.96333 0.453383 0
M  V30 3223 O 314.029 2.22438 1.19489 0
M  V30 3224 C 315.342 2.20826 -2.04099 0
M  V30 3225 C 316.89 2.34269 -2.07574 0
M  V30 3226 C 317.365 3.26546 -3.21141 0
M  V30 3227 N 318.856 3.34127 -3.20801 0
M  V30 3228 C 319.591 4.05595 -4.05315 0
M  V30 3229 N 319.087 4.79661 -4.99897 0
M  V30 3230 N 320.88 4.01555 -3.93332 0
M  V30 3231 H 313.031 0.637302 -2.02613 0
M  V30 3232 H 315.294 0.343468 -0.883591 0
M  V30 3233 H 315 1.80744 -3.01703 0
M  V30 3234 H 314.874 3.21364 -1.97496 0
M  V30 3235 H 317.261 2.73603 -1.10568 0
M  V30 3236 H 317.342 1.33429 -2.18244 0
M  V30 3237 H 316.986 2.87931 -4.184 0
M  V30 3238 H 316.916 4.27345 -3.07708 0
M  V30 3239 H 319.407 2.81336 -2.52306 0
M  V30 3240 H 319.72 5.31694 -5.60822 0
M  V30 3241 H 318.065 4.78671 -5.03884 0
M  V30 3242 H 321.256 3.42806 -3.18751 0
M  V30 3243 H 321.429 4.56987 -4.5942 0
M  V30 3244 N 314.835 0.952656 1.25548 0
M  V30 3245 C 316.063 0.623496 1.97282 0
M  V30 3246 C 316.478 -0.803987 1.70826 0
M  V30 3247 O 315.835 -1.53755 0.983147 0
M  V30 3248 C 315.886 0.870209 3.5087 0
M  V30 3249 O 315.607 2.24156 3.76412 0
M  V30 3250 C 317.108 0.553164 4.39835 0
M  V30 3251 H 314.328 0.233931 0.628902 0
M  V30 3252 H 316.872 1.27649 1.59768 0
M  V30 3253 H 315.027 0.263652 3.86502 0
M  V30 3254 H 315.441 2.31021 4.70882 0
M  V30 3255 H 316.915 0.776342 5.46513 0
M  V30 3256 H 317.392 -0.512215 4.36203 0
M  V30 3257 H 317.998 1.13896 4.09766 0
M  V30 3258 N 316.313 -1.40141 0.720998 0
M  V30 3259 C 317.729 -1.54632 0.395113 0
M  V30 3260 C 317.929 -1.69115 -1.09555 0
M  V30 3261 O 316.985 -1.68377 -1.88163 0
M  V30 3262 C 318.298 -2.77177 1.1659 0
M  V30 3263 C 319.846 -2.91 1.15274 0
M  V30 3264 C 320.321 -4.16465 1.90579 0
M  V30 3265 N 321.812 -4.23476 1.87675 0
M  V30 3266 C 322.547 -5.19475 2.42762 0
M  V30 3267 N 322.043 -6.21348 3.06428 0
M  V30 3268 N 323.836 -5.11592 2.32874 0
M  V30 3269 H 315.987 -1.28986 1.68749 0
M  V30 3270 H 318.25 -0.62412 0.713567 0
M  V30 3271 H 317.956 -2.72771 2.22011 0
M  V30 3272 H 317.83 -3.69442 0.76108 0
M  V30 3273 H 320.217 -2.94907 0.106702 0
M  V30 3274 H 320.298 -1.99838 1.59682 0
M  V30 3275 H 319.942 -4.1332 2.95176 0
M  V30 3276 H 319.872 -5.06646 1.43587 0
M  V30 3277 H 322.363 -3.50497 1.41281 0
M  V30 3278 H 322.676 -6.91034 3.45965 0
M  V30 3279 H 321.021 -6.21777 3.10514 0
M  V30 3280 H 324.212 -4.30936 1.82789 0
M  V30 3281 H 324.385 -5.86233 2.76106 0
M  V30 3282 N 317.792 -0.46758 -1.50504 0
M  V30 3283 C 319.022 0.086288 -2.0642 0
M  V30 3284 C 319.43 1.34369 -1.33197 0
M  V30 3285 O 318.773 1.79431 -0.393747 0
M  V30 3286 C 318.835 0.443846 -3.5675 0
M  V30 3287 C 318.499 -0.711035 -4.51435 0
M  V30 3288 C 319.496 -1.59205 -4.94924 0
M  V30 3289 C 317.181 -0.900363 -4.94165 0
M  V30 3290 C 319.175 -2.64683 -5.79846 0
M  V30 3291 C 316.862 -1.95837 -5.7887 0
M  V30 3292 C 317.86 -2.82997 -6.21612 0
M  V30 3293 O 317.548 -3.86977 -7.0463 0
M  V30 3294 H 317.28 -0.00217814 -0.675996 0
M  V30 3295 H 319.834 -0.654346 -1.94698 0
M  V30 3296 H 318.064 1.23762 -3.6636 0
M  V30 3297 H 319.753 0.932386 -3.95046 0
M  V30 3298 H 320.519 -1.45745 -4.62583 0
M  V30 3299 H 316.398 -0.231427 -4.60419 0
M  V30 3300 H 319.942 -3.32745 -6.13128 0
M  V30 3301 H 315.839 -2.09305 -6.10624 0
M  V30 3302 H 316.607 -3.83923 -7.22873 0
M  V30 3303 N 319.27 1.56325 -0.20005 0
M  V30 3304 C 320.498 2.02105 0.442874 0
M  V30 3305 C 320.913 1.08014 1.5485 0
M  V30 3306 O 320.27 0.0858797 1.82298 0
M  V30 3307 C 320.321 3.47549 0.994583 0
M  V30 3308 O 320.042 4.38049 -0.0669322 0
M  V30 3309 C 321.543 4.0887 1.7129 0
M  V30 3310 H 318.763 0.661807 0.110691 0
M  V30 3311 H 321.307 2.02134 -0.310207 0
M  V30 3312 H 319.462 3.48204 1.69803 0
M  V30 3313 H 319.876 5.23368 0.344462 0
M  V30 3314 H 321.35 5.12475 2.05118 0
M  V30 3315 H 321.827 3.52615 2.61838 0
M  V30 3316 H 322.433 4.12002 1.05518 0
M  V30 3317 N 320.748 -0.0735177 1.57428 0
M  V30 3318 C 321.995 -0.772999 1.87166 0
M  V30 3319 C 322.323 -1.77665 0.791551 0
M  V30 3320 O 321.578 -1.94541 -0.212636 0
M  V30 3321 C 321.877 -1.51799 3.23561 0
M  V30 3322 C 321.543 -0.654484 4.46125 0
M  V30 3323 C 320.205 -0.416511 4.79394 0
M  V30 3324 C 322.557 -0.0555862 5.2117 0
M  V30 3325 C 319.885 0.429869 5.85123 0
M  V30 3326 C 322.237 0.778239 6.27795 0
M  V30 3327 C 320.901 1.0261 6.59566 0
M  V30 3328 H 320.171 -0.282861 0.684888 0
M  V30 3329 H 322.818 -0.0338272 1.9147 0
M  V30 3330 H 321.123 -2.32932 3.1504 0
M  V30 3331 H 322.82 -2.06397 3.43804 0
M  V30 3332 H 319.41 -0.850091 4.20085 0
M  V30 3333 H 323.594 -0.226558 4.95783 0
M  V30 3334 H 318.85 0.630665 6.08139 0
M  V30 3335 H 323.024 1.24906 6.85107 0
M  V30 3336 H 320.651 1.68371 7.4132 0
M  V30 3337 N 322.226 -1.5378 -0.344866 0
M  V30 3338 C 323.189 -1.80981 -1.40637 0
M  V30 3339 C 324.189 -0.680816 -1.45676 0
M  V30 3340 O 325.379 -0.949095 -1.46075 0
M  V30 3341 C 322.511 -1.95063 -2.79577 0
M  V30 3342 H 323.704 -2.75803 -1.17783 0
M  V30 3343 H 321.257 -1.45173 -0.579181 0
M  V30 3344 H 321.992 -1.02379 -3.07716 0
M  V30 3345 H 321.777 -2.77198 -2.77315 0
M  V30 3346 H 323.267 -2.17629 -3.56409 0
M  V30 3347 N 323.704 0.605807 -1.45491 0
M  V30 3348 C 324.95 1.36679 -1.49823 0
M  V30 3349 C 325.283 1.93693 -0.140175 0
M  V30 3350 O 324.558 1.75158 0.845581 0
M  V30 3351 C 324.841 2.51337 -2.57879 0
M  V30 3352 C 324.694 1.99508 -4.03134 0
M  V30 3353 C 326.013 3.53463 -2.62205 0
M  V30 3354 H 323.132 0.495617 -0.545466 0
M  V30 3355 H 325.774 0.682732 -1.7731 0
M  V30 3356 H 323.924 3.09691 -2.34571 0
M  V30 3357 H 325.596 1.45789 -4.37656 0
M  V30 3358 H 323.839 1.30496 -4.13707 0
M  V30 3359 H 324.51 2.82169 -4.74431 0
M  V30 3360 H 326.986 3.04953 -2.83095 0
M  V30 3361 H 325.862 4.31178 -3.39672 0
M  V30 3362 H 326.123 4.09197 -1.67363 0
M  V30 3363 N 325.182 1.32811 0.848464 0
M  V30 3364 C 326.598 1.11937 1.13764 0
M  V30 3365 C 326.798 -0.0960789 2.01271 0
M  V30 3366 O 325.854 -0.779165 2.40178 0
M  V30 3367 C 327.167 2.402 1.809 0
M  V30 3368 C 328.715 2.46016 1.93508 0
M  V30 3369 C 329.19 3.74215 2.64059 0
M  V30 3370 N 330.681 3.75232 2.71579 0
M  V30 3371 C 331.416 4.71134 3.26833 0
M  V30 3372 N 330.912 5.77406 3.8285 0
M  V30 3373 N 332.705 4.58623 3.24995 0
M  V30 3374 H 324.856 2.1073 0.265855 0
M  V30 3375 H 327.119 0.930671 0.180431 0
M  V30 3376 H 326.825 3.29093 1.24058 0
M  V30 3377 H 326.699 2.51628 2.81004 0
M  V30 3378 H 329.086 1.57577 2.49506 0
M  V30 3379 H 329.167 2.38536 0.923811 0
M  V30 3380 H 328.811 4.63031 2.08722 0
M  V30 3381 H 328.741 3.78968 3.65637 0
M  V30 3382 H 331.232 2.98423 2.31845 0
M  V30 3383 H 331.545 6.46632 4.23187 0
M  V30 3384 H 329.89 5.81152 3.81165 0
M  V30 3385 H 333.081 3.74762 2.80484 0
M  V30 3386 H 333.254 5.33535 3.67756 0
M  V30 3387 N 326.66 -1.06551 1.16123 0
M  V30 3388 C 327.623 -2.12132 0.867906 0
M  V30 3389 C 328.623 -1.60224 -0.135944 0
M  V30 3390 O 329.813 -1.73943 0.0946422 0
M  V30 3391 C 326.945 -3.396 0.297419 0
M  V30 3392 H 328.138 -2.39586 1.80385 0
M  V30 3393 H 325.691 -1.22574 0.969812 0
M  V30 3394 H 326.426 -3.17794 -0.64633 0
M  V30 3395 H 326.211 -3.78581 1.02073 0
M  V30 3396 H 327.701 -4.17455 0.110052 0
M  V30 3397 N 328.138 -0.959301 -1.25041 0
M  V30 3398 C 329.554 -0.664474 -1.4511 0
M  V30 3399 C 329.754 0.776481 -1.85938 0
M  V30 3400 O 328.81 1.55128 -1.99227 0
M  V30 3401 C 330.123 -1.64139 -2.5195 0
M  V30 3402 C 331.671 -1.65309 -2.65786 0
M  V30 3403 C 332.146 -2.61777 -3.75815 0
M  V30 3404 N 333.637 -2.60169 -3.83231 0
M  V30 3405 C 334.372 -3.31489 -4.6787 0
M  V30 3406 N 333.868 -4.12298 -5.56761 0
M  V30 3407 N 335.661 -3.20354 -4.61876 0
M  V30 3408 H 327.812 -1.89043 -0.968332 0
M  V30 3409 H 330.075 -0.813408 -0.4869 0
M  V30 3410 H 329.781 -2.67086 -2.28819 0
M  V30 3411 H 329.655 -1.40756 -3.49954 0
M  V30 3412 H 332.042 -0.630778 -2.8828 0
M  V30 3413 H 332.123 -1.92753 -1.68167 0
M  V30 3414 H 331.767 -3.64137 -3.54071 0
M  V30 3415 H 331.697 -2.31616 -4.72929 0
M  V30 3416 H 334.188 -2.01507 -3.19692 0
M  V30 3417 H 334.501 -4.63625 -6.18281 0
M  V30 3418 H 332.846 -4.16395 -5.56454 0
M  V30 3419 H 336.037 -2.56692 -3.91442 0
M  V30 3420 H 336.21 -3.76201 -5.27614 0
M  V30 3421 N 329.616 1.39756 -0.72842 0
M  V30 3422 C 330.549 2.28176 -0.0330172 0
M  V30 3423 C 331.527 1.44035 0.754501 0
M  V30 3424 O 332.711 1.73434 0.738445 0
M  V30 3425 C 329.838 3.24795 0.960504 0
M  V30 3426 C 328.884 4.25693 0.262264 0
M  V30 3427 S 329.717 5.25714 -1.01906 0
M  V30 3428 C 330.873 6.25894 -0.0279717 0
M  V30 3429 H 331.106 2.86807 -0.78287 0
M  V30 3430 H 328.639 1.45382 -0.519951 0
M  V30 3431 H 330.597 3.80983 1.52846 0
M  V30 3432 H 329.258 2.65196 1.68315 0
M  V30 3433 H 328.451 4.93699 1.01379 0
M  V30 3434 H 328.053 3.7327 -0.233482 0
M  V30 3435 H 330.345 6.72585 0.814621 0
M  V30 3436 H 331.288 7.04876 -0.67499 0
M  V30 3437 H 331.696 5.63466 0.341489 0
M  V30 3438 N 331.094 0.475555 1.50254 0
M  V30 3439 C 332.057 -0.305016 2.27161 0
M  V30 3440 C 333.057 -0.916519 1.32123 0
M  V30 3441 O 334.247 -0.785003 1.5551 0
M  V30 3442 C 331.379 -1.43496 3.09227 0
M  V30 3443 H 332.572 0.369511 2.97615 0
M  V30 3444 H 330.125 0.229747 1.54602 0
M  V30 3445 H 330.86 -2.14441 2.43281 0
M  V30 3446 H 330.645 -1.00223 3.79075 0
M  V30 3447 H 332.135 -1.98548 3.67381 0
M  V30 3448 N 332.573 -1.56217 0.208337 0
M  V30 3449 C 333.483 -2.23316 -0.718836 0
M  V30 3450 C 334.499 -1.23648 -1.22422 0
M  V30 3451 O 335.675 -1.56423 -1.26861 0
M  V30 3452 C 332.74 -2.88968 -1.91568 0
M  V30 3453 C 331.801 -4.03943 -1.45357 0
M  V30 3454 C 331.034 -4.66455 -2.59337 0
M  V30 3455 O 331.257 -4.27919 -3.77149 0
M  V30 3456 O 330.191 -5.55686 -2.31293 0
M  V30 3457 H 334.017 -3.03182 -0.177315 0
M  V30 3458 H 331.602 -1.49384 -0.0215402 0
M  V30 3459 H 333.484 -3.30455 -2.61491 0
M  V30 3460 H 332.159 -2.12071 -2.44556 0
M  V30 3461 H 331.066 -3.67052 -0.722746 0
M  V30 3462 H 332.399 -4.82543 -0.970219 0
M  V30 3463 N 334.051 0.0651679 -1.57465 0
M  V30 3464 C 335.462 0.616213 -1.76238 0
M  V30 3465 C 335.813 1.7756 -0.834689 0
M  V30 3466 O 334.938 2.1639 -0.0204156 0
M  V30 3467 C 335.533 1.12462 -3.1959 0
M  V30 3468 C 334.092 1.62147 -3.39684 0
M  V30 3469 C 333.239 0.543739 -2.71917 0
M  V30 3470 H 336.19 -0.161022 -1.57881 0
M  V30 3471 H 336.211 1.99324 -3.24114 0
M  V30 3472 H 335.723 0.280592 -3.87084 0
M  V30 3473 H 333.824 2.48854 -2.77313 0
M  V30 3474 H 333.937 1.69385 -4.48158 0
M  V30 3475 H 332.301 0.990352 -2.34657 0
M  V30 3476 H 333.084 -0.290216 -3.42071 0
M  V30 3477 N 335.529 1.53961 0.336706 0
M  V30 3478 C 336.754 1.75797 1.10046 0
M  V30 3479 C 337.179 0.498985 1.81361 0
M  V30 3480 O 336.537 -0.548769 1.72795 0
M  V30 3481 C 336.585 2.94257 2.08436 0
M  V30 3482 O 335.689 2.64883 3.16087 0
M  V30 3483 H 335.03 0.582936 0.317934 0
M  V30 3484 H 337.56 2.00945 0.38501 0
M  V30 3485 H 337.57 3.21237 2.51537 0
M  V30 3486 H 336.245 3.85564 1.55927 0
M  V30 3487 H 334.822 2.48812 2.77753 0
M  V30 3488 N 337.007 -0.598083 1.45811 0
M  V30 3489 C 338.254 -1.35681 1.50323 0
M  V30 3490 C 338.582 -1.9393 0.148739 0
M  V30 3491 O 337.837 -1.76094 -0.853787 0
M  V30 3492 C 338.136 -2.51669 2.53766 0
M  V30 3493 C 337.802 -2.11508 3.98215 0
M  V30 3494 C 336.464 -2.0027 4.37545 0
M  V30 3495 C 338.816 -1.80308 4.89018 0
M  V30 3496 C 336.144 -1.56067 5.65562 0
M  V30 3497 C 338.496 -1.37589 6.17456 0
M  V30 3498 C 337.16 -1.24916 6.55708 0
M  V30 3499 H 336.43 -0.496492 0.550069 0
M  V30 3500 H 339.077 -0.675052 1.79207 0
M  V30 3501 H 337.382 -3.25225 2.18486 0
M  V30 3502 H 339.079 -3.09895 2.54492 0
M  V30 3503 H 335.669 -2.21185 3.67117 0
M  V30 3504 H 339.853 -1.87884 4.59362 0
M  V30 3505 H 335.109 -1.44886 5.93985 0
M  V30 3506 H 339.283 -1.12495 6.87254 0
M  V30 3507 H 336.91 -0.904386 7.54801 0
M  V30 3508 N 338.485 -1.33259 -0.841409 0
M  V30 3509 C 339.733 -1.24326 -1.59334 0
M  V30 3510 C 340.054 0.191564 -1.94057 0
M  V30 3511 O 339.324 1.11967 -1.60749 0
M  V30 3512 H 337.904 -0.457174 -0.590763 0
M  V30 3513 H 340.566 -1.66947 -1.00571 0
M  V30 3514 H 339.662 -1.8352 -2.52442 0
M  V30 3515 N 339.963 1.05934 -1.16686 0
M  V30 3516 C 341.211 1.78447 -0.948744 0
M  V30 3517 C 341.532 1.87813 0.524523 0
M  V30 3518 O 340.802 1.38945 1.38098 0
M  V30 3519 H 339.382 0.660971 -0.348033 0
M  V30 3520 H 342.044 1.27947 -1.47022 0
M  V30 3521 H 341.14 2.80394 -1.37061 0
M  V30 3522 N 341.441 0.965919 1.2453 0
M  V30 3523 C 342.688 0.626831 1.92554 0
M  V30 3524 C 343.016 -0.837739 1.75534 0
M  V30 3525 O 342.271 -1.61793 1.10098 0
M  V30 3526 C 342.57 0.945428 3.44669 0
M  V30 3527 C 342.236 2.39785 3.81856 0
M  V30 3528 C 340.898 2.79483 3.91718 0
M  V30 3529 C 343.25 3.34055 4.00071 0
M  V30 3530 C 340.578 4.12496 4.1721 0
M  V30 3531 C 342.93 4.66694 4.27059 0
M  V30 3532 C 341.594 5.06172 4.3514 0
M  V30 3533 H 340.864 0.229374 0.704605 0
M  V30 3534 H 343.511 1.21707 1.4785 0
M  V30 3535 H 341.816 0.272926 3.90848 0
M  V30 3536 H 343.513 0.661484 3.95507 0
M  V30 3537 H 340.103 2.08003 3.74743 0
M  V30 3538 H 344.287 3.04571 3.91855 0
M  V30 3539 H 339.543 4.42709 4.21685 0
M  V30 3540 H 343.717 5.3971 4.40097 0
M  V30 3541 H 341.344 6.09262 4.54646 0
M  V30 3542 N 342.919 -1.39368 0.735821 0
M  V30 3543 C 344.165 -2.01272 0.293439 0
M  V30 3544 C 344.52 -1.57344 -1.10728 0
M  V30 3545 O 343.813 -0.792744 -1.74431 0
M  V30 3546 C 344.007 -3.5583 0.334651 0
M  V30 3547 C 343.836 -4.14764 1.73784 0
M  V30 3548 C 342.606 -4.47315 2.35026 0
M  V30 3549 C 344.804 -4.38246 2.69157 0
M  V30 3550 N 342.786 -4.91756 3.6749 0
M  V30 3551 C 344.157 -4.849 3.86357 0
M  V30 3552 C 346.212 -4.20315 2.66908 0
M  V30 3553 C 344.915 -5.15505 5.01645 0
M  V30 3554 C 346.941 -4.52033 3.8134 0
M  V30 3555 C 346.303 -4.98895 4.97276 0
M  V30 3556 H 342.402 -0.766756 0.153652 0
M  V30 3557 H 344.986 -1.69276 0.961967 0
M  V30 3558 H 343.157 -3.87212 -0.303527 0
M  V30 3559 H 344.889 -4.04503 -0.126358 0
M  V30 3560 H 341.644 -4.35143 1.86943 0
M  V30 3561 H 342.068 -5.18333 4.35499 0
M  V30 3562 H 346.71 -3.83287 1.78468 0
M  V30 3563 H 344.428 -5.51437 5.90713 0
M  V30 3564 H 348.014 -4.39781 3.80899 0
M  V30 3565 H 346.894 -5.22973 5.84353 0
M  V30 3566 N 344.397 -0.483516 -1.5 0
M  V30 3567 C 345.622 0.0667119 -2.07293 0
M  V30 3568 C 346.047 1.3164 -1.3436 0
M  V30 3569 O 345.405 1.76945 -0.394987 0
M  V30 3570 C 345.453 0.321126 -3.59167 0
M  V30 3571 O 344.557 1.39927 -3.87936 0
M  V30 3572 H 343.898 -0.0184758 -0.663743 0
M  V30 3573 H 346.428 -0.678125 -1.93035 0
M  V30 3574 H 346.438 0.557906 -4.04168 0
M  V30 3575 H 345.113 -0.592007 -4.11665 0
M  V30 3576 H 343.69 1.14882 -3.54763 0
M  V30 3577 N 345.875 1.56104 -0.216619 0
M  V30 3578 C 346.838 2.18819 0.681962 0
M  V30 3579 C 347.838 1.14866 1.12528 0
M  V30 3580 O 349.028 1.40128 1.03488 0
M  V30 3581 C 346.16 2.80756 1.93362 0
M  V30 3582 H 347.353 2.99595 0.135254 0
M  V30 3583 H 344.906 1.56265 0.0330003 0
M  V30 3584 H 345.641 2.03837 2.52232 0
M  V30 3585 H 345.426 3.56876 1.62426 0
M  V30 3586 H 346.916 3.28844 2.57393 0
M  V30 3587 N 347.353 -0.0568162 1.57498 0
M  V30 3588 C 348.599 -0.748893 1.89111 0
M  V30 3589 C 348.954 -1.74422 0.81208 0
M  V30 3590 O 348.247 -1.90731 -0.182247 0
M  V30 3591 C 348.441 -1.48359 3.25153 0
M  V30 3592 C 348.27 -0.560924 4.46188 0
M  V30 3593 C 347.04 -0.192264 5.04934 0
M  V30 3594 C 349.238 0.148824 5.14085 0
M  V30 3595 N 347.22 0.734555 6.0949 0
M  V30 3596 C 348.591 0.932286 6.12951 0
M  V30 3597 C 350.646 0.218713 4.97419 0
M  V30 3598 C 349.349 1.77917 6.96949 0
M  V30 3599 C 351.375 1.05262 5.81957 0
M  V30 3600 C 350.737 1.82409 6.80372 0
M  V30 3601 H 346.836 -0.249002 0.741298 0
M  V30 3602 H 349.42 -0.00984926 1.94698 0
M  V30 3603 H 347.591 -2.19326 3.20547 0
M  V30 3604 H 349.323 -2.12586 3.44368 0
M  V30 3605 H 346.078 -0.548421 4.70414 0
M  V30 3606 H 346.502 1.19165 6.6643 0
M  V30 3607 H 351.144 -0.363407 4.21235 0
M  V30 3608 H 348.862 2.3722 7.72497 0
M  V30 3609 H 352.448 1.10987 5.71116 0
M  V30 3610 H 351.328 2.45895 7.44651 0
M  V30 3611 N 348.832 -1.54138 -0.328536 0
M  V30 3612 C 350.057 -1.76378 -1.09112 0
M  V30 3613 C 350.482 -0.508596 -1.81094 0
M  V30 3614 O 349.84 0.539598 -1.73084 0
M  V30 3615 C 349.888 -2.95358 -2.06872 0
M  V30 3616 O 348.992 -2.66556 -3.14677 0
M  V30 3617 H 348.333 -0.584614 -0.314838 0
M  V30 3618 H 350.863 -2.01146 -0.374348 0
M  V30 3619 H 350.873 -3.22566 -2.4983 0
M  V30 3620 H 349.548 -3.86385 -1.5388 0
M  V30 3621 H 348.125 -2.50282 -2.7643 0
M  V30 3622 N 350.31 0.590341 -1.46126 0
M  V30 3623 C 351.22 1.72793 -1.58681 0
M  V30 3624 C 352.236 1.67516 -0.470566 0
M  V30 3625 O 353.412 1.87562 -0.733642 0
M  V30 3626 C 350.477 3.09287 -1.5666 0
M  V30 3627 C 349.538 3.25886 -2.79458 0
M  V30 3628 C 348.771 4.55869 -2.77524 0
M  V30 3629 O 348.994 5.3928 -1.85832 0
M  V30 3630 O 347.928 4.75552 -3.68964 0
M  V30 3631 H 351.754 1.65149 -2.54872 0
M  V30 3632 H 349.339 0.756486 -1.28832 0
M  V30 3633 H 351.221 3.90577 -1.58202 0
M  V30 3634 H 349.896 3.17385 -0.636271 0
M  V30 3635 H 348.803 2.44119 -2.83472 0
M  V30 3636 H 350.136 3.22675 -3.71674 0
M  V30 3637 N 351.788 1.33704 0.83433 0
M  V30 3638 C 353.199 1.22813 1.4062 0
M  V30 3639 C 353.55 -0.151107 1.95617 0
M  V30 3640 O 352.675 -1.05092 1.89168 0
M  V30 3641 C 353.27 2.22355 2.55624 0
M  V30 3642 C 351.829 2.1529 3.08751 0
M  V30 3643 C 350.976 2.09589 1.8157 0
M  V30 3644 H 353.927 1.45236 0.639702 0
M  V30 3645 H 353.948 1.83391 3.33389 0
M  V30 3646 H 353.46 3.22728 2.15566 0
M  V30 3647 H 351.561 1.18235 3.53343 0
M  V30 3648 H 351.674 3.06038 3.68616 0
M  V30 3649 H 350.038 1.55134 2.02004 0
M  V30 3650 H 350.821 3.11777 1.43701 0
M  V30 3651 N 353.266 -1.05314 1.17247 0
M  V30 3652 C 354.512 -1.78557 0.961513 0
M  V30 3653 C 354.845 -1.87419 -0.508697 0
M  V30 3654 O 354.12 -1.37307 -1.37757 0
M  V30 3655 C 354.403 -3.22514 1.60176 0
M  V30 3656 C 354.256 -3.21673 3.14399 0
M  V30 3657 C 355.575 -4.20318 1.30463 0
M  V30 3658 H 352.694 -0.6482 0.350723 0
M  V30 3659 H 355.336 -1.23102 1.44727 0
M  V30 3660 H 353.486 -3.69867 1.18871 0
M  V30 3661 H 355.158 -2.82405 3.64753 0
M  V30 3662 H 353.401 -2.60048 3.47214 0
M  V30 3663 H 354.072 -4.23271 3.54324 0
M  V30 3664 H 356.548 -3.81454 1.66229 0
M  V30 3665 H 355.424 -5.19289 1.77848 0
M  V30 3666 H 355.685 -4.41526 0.22521 0
M  V30 3667 N 354.744 -0.972509 -1.24016 0
M  V30 3668 C 355.969 -0.654417 -1.96805 0
M  V30 3669 C 356.394 0.770398 -1.716 0
M  V30 3670 O 355.752 1.52361 -0.982647 0
M  V30 3671 C 355.8 -0.941031 -3.48105 0
M  V30 3672 O 354.904 -0.0289472 -4.1239 0
M  V30 3673 H 354.245 -0.24692 -0.616382 0
M  V30 3674 H 356.775 -1.30396 -1.57664 0
M  V30 3675 H 356.785 -0.87452 -3.98517 0
M  V30 3676 H 355.46 -1.97939 -3.65777 0
M  V30 3677 H 354.037 -0.149192 -3.72601 0
M  V30 3678 N 356.222 1.38976 -0.743202 0
M  V30 3679 C 357.152 2.33171 -0.123873 0
M  V30 3680 C 358.133 1.54336 0.71516 0
M  V30 3681 O 359.318 1.82696 0.658467 0
M  V30 3682 C 356.448 3.38474 0.777978 0
M  V30 3683 C 355.402 4.27979 0.0424758 0
M  V30 3684 C 354.728 5.2405 1.06189 0
M  V30 3685 C 356.028 5.10155 -1.1198 0
M  V30 3686 H 357.722 2.85213 -0.910709 0
M  V30 3687 H 355.268 1.37133 -0.439388 0
M  V30 3688 H 357.221 4.03328 1.22084 0
M  V30 3689 H 355.945 2.84891 1.59702 0
M  V30 3690 H 354.604 3.64616 -0.380853 0
M  V30 3691 H 354.252 4.66758 1.87472 0
M  V30 3692 H 353.952 5.84785 0.574485 0
M  V30 3693 H 355.476 5.9178 1.50428 0
M  V30 3694 H 356.89 5.68307 -0.75499 0
M  V30 3695 H 355.287 5.80073 -1.53738 0
M  V30 3696 H 356.357 4.44504 -1.93764 0
M  V30 3697 N 357.7 0.491464 1.49741 0
M  V30 3698 C 358.63 -0.28154 2.31796 0
M  V30 3699 C 359.611 -0.971473 1.3963 0
M  V30 3700 O 360.796 -0.964719 1.68543 0
M  V30 3701 C 357.926 -1.35203 3.19902 0
M  V30 3702 C 356.88 -0.782529 4.20786 0
M  V30 3703 C 356.206 -1.95283 4.97764 0
M  V30 3704 C 357.506 0.21999 5.21837 0
M  V30 3705 H 359.2 0.403355 2.96671 0
M  V30 3706 H 356.746 0.195425 1.42668 0
M  V30 3707 H 358.699 -1.90045 3.76113 0
M  V30 3708 H 357.423 -2.06598 2.52953 0
M  V30 3709 H 356.082 -0.255928 3.65706 0
M  V30 3710 H 355.73 -2.65423 4.2727 0
M  V30 3711 H 355.43 -1.57789 5.66018 0
M  V30 3712 H 356.954 -2.50577 5.56816 0
M  V30 3713 H 358.368 -0.23996 5.72798 0
M  V30 3714 H 356.765 0.51026 5.97927 0
M  V30 3715 H 357.835 1.13911 4.7133 0
M  V30 3716 N 359.178 -1.55987 0.224894 0
M  V30 3717 C 360.406 -2.02784 -0.410665 0
M  V30 3718 C 360.821 -1.10464 -1.53112 0
M  V30 3719 O 360.178 -0.114871 -1.82138 0
M  V30 3720 C 360.229 -3.49087 -0.939165 0
M  V30 3721 O 359.95 -4.37887 0.136614 0
M  V30 3722 C 361.451 -4.11543 -1.64763 0
M  V30 3723 H 358.671 -0.663484 -0.100148 0
M  V30 3724 H 361.215 -2.01614 0.342326 0
M  V30 3725 H 359.37 -3.50861 -1.64242 0
M  V30 3726 H 359.784 -5.23849 -0.261155 0
M  V30 3727 H 361.258 -5.15673 -1.96939 0
M  V30 3728 H 361.735 -3.56736 -2.56195 0
M  V30 3729 H 362.341 -4.13629 -0.989503 0
M  V30 3730 N 360.656 0.0484629 -1.57525 0
M  V30 3731 C 362.067 0.597486 -1.76881 0
M  V30 3732 C 362.418 1.76664 -0.853475 0
M  V30 3733 O 361.543 2.16357 -0.0433656 0
M  V30 3734 C 362.138 1.09066 -3.20765 0
M  V30 3735 C 360.697 1.58535 -3.41385 0
M  V30 3736 C 359.844 0.514868 -2.72478 0
M  V30 3737 H 362.795 -0.177758 -1.57701 0
M  V30 3738 H 362.816 1.95875 -3.2621 0
M  V30 3739 H 362.328 0.239521 -3.8736 0
M  V30 3740 H 360.429 2.45898 -2.79937 0
M  V30 3741 H 360.542 1.64622 -4.49929 0
M  V30 3742 H 358.906 0.965407 -2.35695 0
M  V30 3743 H 359.689 -0.32648 -3.41744 0
M  V30 3744 N 362.134 1.5431 0.320358 0
M  V30 3745 C 363.359 1.76954 1.08175 0
M  V30 3746 C 363.784 0.518193 1.80821 0
M  V30 3747 O 363.142 -0.530411 1.73368 0
M  V30 3748 C 363.19 2.96451 2.05303 0
M  V30 3749 O 362.294 2.68221 3.13259 0
M  V30 3750 H 361.635 0.586275 0.311733 0
M  V30 3751 H 364.165 2.01342 0.363676 0
M  V30 3752 H 364.175 3.23887 2.48116 0
M  V30 3753 H 362.85 3.87196 1.51829 0
M  V30 3754 H 361.427 2.51744 2.75099 0
M  V30 3755 N 363.613 -0.582584 1.46437 0
M  V30 3756 C 364.89 -1.34276 1.4223 0
M  V30 3757 C 365.27 -2.10835 0.10583 0
M  V30 3758 O 364.618 -2.09485 -0.912596 0
M  V30 3759 C 364.828 -2.26865 2.65204 0
M  V30 3760 C 366.176 -2.88691 3.11356 0
M  V30 3761 O 367.2 -2.37178 2.65753 0
M  V30 3762 O 366.059 -3.82255 3.90568 0
M  V30 3763 H 363.153 -0.603326 0.565621 0
M  V30 3764 H 365.699 -0.603591 1.58603 0
M  V30 3765 H 364.471 -1.69724 3.52576 0
M  V30 3766 H 364.094 -3.08122 2.5129 0
M  V30 3767 N 365.091 -1.34144 -0.827227 0
M  V30 3768 C 366.021 -1.28005 -1.95287 0
M  V30 3769 C 367.002 -0.158321 -1.69362 0
M  V30 3770 O 368.187 -0.349987 -1.9102 0
M  V30 3771 C 365.317 -1.03036 -3.31664 0
M  V30 3772 C 364.271 -2.11628 -3.72019 0
M  V30 3773 C 363.597 -1.71854 -5.0633 0
M  V30 3774 C 364.897 -3.53417 -3.8457 0
M  V30 3775 H 366.591 -2.22187 -2.00682 0
M  V30 3776 H 364.137 -1.0696 -0.964135 0
M  V30 3777 H 366.09 -0.973863 -4.09993 0
M  V30 3778 H 364.814 -0.0529391 -3.26557 0
M  V30 3779 H 363.473 -2.16339 -2.95961 0
M  V30 3780 H 363.121 -0.727841 -4.97706 0
M  V30 3781 H 362.821 -2.44531 -5.34302 0
M  V30 3782 H 364.345 -1.67692 -5.87122 0
M  V30 3783 H 365.759 -3.51142 -4.5318 0
M  V30 3784 H 364.156 -4.24679 -4.2399 0
M  V30 3785 H 365.226 -3.91072 -2.86689 0
M  V30 3786 N 366.569 1.04691 -1.17803 0
M  V30 3787 C 367.846 1.7472 -0.879328 0
M  V30 3788 C 368.226 2.01812 0.619271 0
M  V30 3789 O 367.574 1.65824 1.57209 0
M  V30 3790 C 367.784 3.03686 -1.71976 0
M  V30 3791 C 369.132 3.77542 -1.94286 0
M  V30 3792 O 370.156 3.13569 -1.68976 0
M  V30 3793 O 369.015 4.92506 -2.36855 0
M  V30 3794 H 366.109 0.760011 -0.326056 0
M  V30 3795 H 368.655 1.10813 -1.28525 0
M  V30 3796 H 367.427 2.79754 -2.73594 0
M  V30 3797 H 367.05 3.75332 -1.31194 0
M  V30 3798 N 368.047 0.979072 1.23499 0
M  V30 3799 C 369.458 0.684391 1.73704 0
M  V30 3800 C 369.809 -0.799448 1.79174 0
M  V30 3801 O 368.934 -1.62531 1.42873 0
M  V30 3802 C 369.529 1.23564 3.15464 0
M  V30 3803 C 368.088 0.99063 3.6313 0
M  V30 3804 C 367.235 1.36416 2.41425 0
M  V30 3805 H 370.186 1.15307 1.09041 0
M  V30 3806 H 370.207 0.607417 3.7562 0
M  V30 3807 H 369.719 2.31561 3.1145 0
M  V30 3808 H 367.82 -0.0733136 3.72528 0
M  V30 3809 H 367.933 1.64427 4.5 0
M  V30 3810 H 366.297 0.782616 2.42378 0
M  V30 3811 H 367.08 2.45387 2.40083 0
M  V30 3812 N 369.525 -1.3858 0.750561 0
M  V30 3813 C 370.455 -2.33102 0.136237 0
M  V30 3814 C 371.436 -1.54713 -0.706965 0
M  V30 3815 O 372.621 -1.83043 -0.648769 0
M  V30 3816 C 369.751 -3.38882 -0.760017 0
M  V30 3817 C 368.705 -4.27995 -0.0197785 0
M  V30 3818 C 368.031 -5.24605 -1.03408 0
M  V30 3819 C 369.331 -5.09554 1.14684 0
M  V30 3820 H 371.025 -2.84726 0.925822 0
M  V30 3821 H 368.571 -1.36898 0.446654 0
M  V30 3822 H 370.524 -4.0397 -1.19943 0
M  V30 3823 H 369.248 -2.85734 -1.58189 0
M  V30 3824 H 367.907 -3.64409 0.400184 0
M  V30 3825 H 367.555 -4.67746 -1.84994 0
M  V30 3826 H 367.255 -5.85081 -0.543464 0
M  V30 3827 H 368.779 -5.9257 -1.47288 0
M  V30 3828 H 370.193 -5.67899 0.785118 0
M  V30 3829 H 368.59 -5.7925 1.56812 0
M  V30 3830 H 369.66 -4.4347 1.96118 0
M  V30 3831 N 371.003 -0.499398 -1.49478 0
M  V30 3832 C 372.252 0.0475259 -2.01644 0
M  V30 3833 C 372.565 1.38195 -1.38425 0
M  V30 3834 O 373.771 2.01547 -1.8191 0
M  V30 3835 C 372.227 0.135164 -3.59646 0
M  V30 3836 C 371.835 -1.19252 -4.31837 0
M  V30 3837 C 373.579 0.632538 -4.19761 0
M  V30 3838 C 371.486 -1.06713 -5.81693 0
M  V30 3839 H 370.416 0.0215349 -0.753692 0
M  V30 3840 H 373.067 -0.638577 -1.7203 0
M  V30 3841 H 371.449 0.885681 -3.85969 0
M  V30 3842 H 372.623 -1.9562 -4.17216 0
M  V30 3843 H 370.938 -1.62321 -3.83459 0
M  V30 3844 H 373.535 0.743833 -5.29501 0
M  V30 3845 H 373.878 1.63098 -3.83021 0
M  V30 3846 H 374.411 -0.0613987 -3.97753 0
M  V30 3847 H 371.15 -2.03979 -6.22955 0
M  V30 3848 H 370.67 -0.344307 -5.98811 0
M  V30 3849 H 372.349 -0.745208 -6.42694 0
M  V30 3850 N 372.481 1.55866 -0.233164 0
M  V30 3851 C 373.411 2.23783 0.666599 0
M  V30 3852 C 374.392 1.21343 1.19205 0
M  V30 3853 O 375.577 1.4996 1.23392 0
M  V30 3854 C 372.707 2.92671 1.86978 0
M  V30 3855 C 371.661 4.01682 1.47768 0
M  V30 3856 C 370.987 4.57926 2.76058 0
M  V30 3857 C 372.287 5.18126 0.658993 0
M  V30 3858 H 373.981 2.99232 0.100306 0
M  V30 3859 H 371.527 1.43924 0.046804 0
M  V30 3860 H 373.48 3.3888 2.50476 0
M  V30 3861 H 372.204 2.14688 2.46123 0
M  V30 3862 H 370.863 3.56222 0.866106 0
M  V30 3863 H 370.511 3.76659 3.33372 0
M  V30 3864 H 370.211 5.31505 2.50552 0
M  V30 3865 H 371.735 5.06859 3.40479 0
M  V30 3866 H 373.149 5.60644 1.19795 0
M  V30 3867 H 371.546 5.98009 0.500552 0
M  V30 3868 H 372.616 4.83763 -0.331856 0
M  V30 3869 N 373.959 -0.0401083 1.57549 0
M  V30 3870 C 375.187 -0.745196 1.93014 0
M  V30 3871 C 375.602 -1.6948 0.831984 0
M  V30 3872 O 374.959 -1.81482 -0.192463 0
M  V30 3873 C 375.01 -1.51176 3.28372 0
M  V30 3874 O 374.731 -0.600284 4.33968 0
M  V30 3875 C 376.232 -2.315 3.78051 0
M  V30 3876 H 373.452 -0.210088 0.637263 0
M  V30 3877 H 375.996 -0.000924689 2.045 0
M  V30 3878 H 374.151 -2.20801 3.18317 0
M  V30 3879 H 374.565 -1.13669 5.12035 0
M  V30 3880 H 376.039 -2.80697 4.75303 0
M  V30 3881 H 376.516 -3.12436 3.08675 0
M  V30 3882 H 377.122 -1.66971 3.91153 0
M  V30 3883 N 375.437 -1.54477 -0.31217 0
M  V30 3884 C 376.367 -1.87652 -1.38957 0
M  V30 3885 C 377.348 -0.734358 -1.53431 0
M  V30 3886 O 378.533 -0.98911 -1.67123 0
M  V30 3887 C 375.663 -2.11396 -2.75552 0
M  V30 3888 C 374.617 -3.27243 -2.75855 0
M  V30 3889 C 373.943 -3.36382 -4.15633 0
M  V30 3890 C 375.243 -4.64622 -2.38587 0
M  V30 3891 H 376.937 -2.77887 -1.11442 0
M  V30 3892 H 374.483 -1.33707 -0.534655 0
M  V30 3893 H 376.436 -2.33189 -3.51 0
M  V30 3894 H 375.16 -1.17921 -3.04569 0
M  V30 3895 H 373.819 -3.05356 -2.02863 0
M  V30 3896 H 373.467 -2.40445 -4.41809 0
M  V30 3897 H 373.167 -4.14249 -4.1674 0
M  V30 3898 H 374.691 -3.60422 -4.92877 0
M  V30 3899 H 376.105 -4.86219 -3.03749 0
M  V30 3900 H 374.502 -5.45121 -2.50925 0
M  V30 3901 H 375.572 -4.66097 -1.33723 0
M  V30 3902 N 376.915 0.57481 -1.46744 0
M  V30 3903 C 378.14 1.36341 -1.56288 0
M  V30 3904 C 378.565 1.86954 -0.207347 0
M  V30 3905 O 377.923 1.62006 0.813871 0
M  V30 3906 C 377.971 2.52147 -2.57787 0
M  V30 3907 O 377.075 3.53834 -2.11838 0
M  V30 3908 H 376.416 0.405713 -0.525636 0
M  V30 3909 H 378.946 0.696453 -1.92382 0
M  V30 3910 H 378.956 2.98958 -2.77648 0
M  V30 3911 H 377.631 2.14663 -3.5622 0
M  V30 3912 H 376.208 3.1345 -2.01999 0
M  V30 3913 N 378.394 1.34581 0.820102 0
M  V30 3914 C 379.324 1.29038 1.94606 0
M  V30 3915 C 380.305 0.1673 1.69275 0
M  V30 3916 O 381.49 0.360112 1.90832 0
M  V30 3917 C 378.62 1.04793 3.31113 0
M  V30 3918 C 377.574 2.13597 3.70891 0
M  V30 3919 C 376.9 1.74537 5.05412 0
M  V30 3920 C 378.2 3.55451 3.8269 0
M  V30 3921 H 379.894 2.23248 1.99501 0
M  V30 3922 H 377.44 1.0747 0.958449 0
M  V30 3923 H 379.393 0.995592 4.0947 0
M  V30 3924 H 378.117 0.0702565 3.26524 0
M  V30 3925 H 376.776 2.17905 2.9481 0
M  V30 3926 H 376.424 0.754226 4.97313 0
M  V30 3927 H 376.124 2.47361 5.32997 0
M  V30 3928 H 377.648 1.70803 5.86224 0
M  V30 3929 H 379.062 3.5354 4.51312 0
M  V30 3930 H 377.459 4.26922 4.21732 0
M  V30 3931 H 378.529 3.92587 2.84611 0
M  V30 3932 N 379.872 -1.04064 1.18357 0
M  V30 3933 C 381.121 -1.76662 0.973313 0
M  V30 3934 C 381.434 -1.89154 -0.497991 0
M  V30 3935 O 382.64 -2.58606 -0.826762 0
M  V30 3936 C 381.096 -3.17624 1.69242 0
M  V30 3937 C 380.704 -3.13225 3.20303 0
M  V30 3938 C 382.448 -3.946 1.56497 0
M  V30 3939 C 380.355 -4.49046 3.84853 0
M  V30 3940 H 379.285 -0.662214 0.36054 0
M  V30 3941 H 381.936 -1.16553 1.41731 0
M  V30 3942 H 380.318 -3.78129 1.1762 0
M  V30 3943 H 381.492 -2.62172 3.78949 0
M  V30 3944 H 379.807 -2.49749 3.33189 0
M  V30 3945 H 382.404 -4.95042 2.02084 0
M  V30 3946 H 382.747 -4.13074 0.517243 0
M  V30 3947 H 383.28 -3.4067 2.05399 0
M  V30 3948 H 380.019 -4.35777 4.89672 0
M  V30 3949 H 379.539 -5.00203 3.30994 0
M  V30 3950 H 381.218 -5.17961 3.87718 0
M  V30 3951 N 381.35 -0.985608 -1.22978 0
M  V30 3952 C 382.28 -0.549649 -2.26939 0
M  V30 3953 C 383.261 0.419803 -1.64838 0
M  V30 3954 O 384.446 0.31203 -1.91677 0
M  V30 3955 C 381.576 0.143652 -3.47003 0
M  V30 3956 C 380.53 -0.743606 -4.21491 0
M  V30 3957 C 379.856 0.0822027 -5.34637 0
M  V30 3958 C 381.156 -2.03694 -4.80943 0
M  V30 3959 H 382.85 -1.41862 -2.63658 0
M  V30 3960 H 380.396 -0.683571 -1.26741 0
M  V30 3961 H 382.349 0.459985 -4.18882 0
M  V30 3962 H 381.073 1.04711 -3.09359 0
M  V30 3963 H 379.732 -1.04347 -3.51436 0
M  V30 3964 H 379.38 0.986359 -4.93234 0
M  V30 3965 H 379.08 -0.508377 -5.85397 0
M  V30 3966 H 380.604 0.392797 -6.09335 0
M  V30 3967 H 382.018 -1.78504 -5.44802 0
M  V30 3968 H 380.415 -2.57573 -5.42011 0
M  V30 3969 H 381.485 -2.72042 -4.01399 0
M  V30 3970 N 382.828 1.3818 -0.7579 0
M  V30 3971 C 384.074 2.00316 -0.316453 0
M  V30 3972 C 384.407 1.60026 1.10025 0
M  V30 3973 O 383.682 0.839835 1.75434 0
M  V30 3974 C 383.965 3.57349 -0.444245 0
M  V30 3975 C 383.818 4.07591 -1.90236 0
M  V30 3976 C 385.137 4.3981 0.1598 0
M  V30 3977 H 382.256 0.727741 -0.116459 0
M  V30 3978 H 384.898 1.6406 -0.958352 0
M  V30 3979 H 383.048 3.88365 0.102233 0
M  V30 3980 H 384.72 3.87199 -2.50748 0
M  V30 3981 H 382.963 3.60297 -2.41595 0
M  V30 3982 H 383.634 5.16677 -1.94291 0
M  V30 3983 H 386.11 4.14971 -0.306314 0
M  V30 3984 H 384.986 5.48885 0.0401675 0
M  V30 3985 H 385.247 4.24102 1.24859 0
M  V30 3986 N 384.306 0.507319 1.49211 0
M  V30 3987 C 385.552 -0.0350047 2.0277 0
M  V30 3988 C 385.885 -1.3606 1.38569 0
M  V30 3989 O 385.16 -1.87321 0.523542 0
M  V30 3990 C 385.443 -0.180916 3.59645 0
M  V30 3991 C 385.296 1.16825 4.34364 0
M  V30 3992 C 386.615 -0.918558 4.30407 0
M  V30 3993 H 383.734 -0.0112473 0.736914 0
M  V30 3994 H 386.376 0.659956 1.7817 0
M  V30 3995 H 384.526 -0.772826 3.80736 0
M  V30 3996 H 386.198 1.79952 4.24753 0
M  V30 3997 H 384.441 1.75594 3.96673 0
M  V30 3998 H 385.112 1.01939 5.42506 0
M  V30 3999 H 387.588 -0.41649 4.1401 0
M  V30 4000 H 386.464 -0.989505 5.39907 0
M  V30 4001 H 386.725 -1.96373 3.96093 0
M  V30 4002 N 385.784 -1.5574 0.241426 0
M  V30 4003 C 387.033 -1.97986 -0.385295 0
M  V30 4004 C 387.346 -1.13267 -1.59468 0
M  V30 4005 O 388.552 -1.45501 -2.2922 0
M  V30 4006 C 387.008 -3.52275 -0.736884 0
M  V30 4007 C 386.616 -4.45726 0.450796 0
M  V30 4008 C 388.36 -4.03189 -1.3281 0
M  V30 4009 C 386.267 -5.91352 0.0756662 0
M  V30 4010 H 385.197 -0.739386 -0.147731 0
M  V30 4011 H 387.848 -1.80308 0.340779 0
M  V30 4012 H 386.23 -3.65628 -1.52094 0
M  V30 4013 H 387.404 -4.44131 1.22819 0
M  V30 4014 H 385.719 -4.05264 0.956573 0
M  V30 4015 H 388.316 -5.09505 -1.62201 0
M  V30 4016 H 388.659 -3.50212 -2.25071 0
M  V30 4017 H 389.192 -3.93141 -0.607069 0
M  V30 4018 H 385.931 -6.48354 0.965272 0
M  V30 4019 H 385.451 -5.96095 -0.665635 0
M  V30 4020 H 387.13 -6.46084 -0.344075 0
M  V30 4021 N 387.262 0.0317525 -1.57568 0
M  V30 4022 C 388.192 1.03274 -2.0942 0
M  V30 4023 C 389.173 1.3788 -0.996143 0
M  V30 4024 O 390.358 1.46811 -1.27122 0
M  V30 4025 C 387.488 2.33448 -2.57137 0
M  V30 4026 C 386.442 2.13091 -3.71182 0
M  V30 4027 C 385.768 3.49001 -4.05095 0
M  V30 4028 C 387.068 1.51928 -4.99715 0
M  V30 4029 H 388.762 0.60112 -2.93303 0
M  V30 4030 H 386.308 0.287705 -1.41097 0
M  V30 4031 H 388.261 3.03802 -2.92032 0
M  V30 4032 H 386.985 2.78665 -1.70333 0
M  V30 4033 H 385.644 1.45171 -3.36632 0
M  V30 4034 H 385.292 3.91862 -3.15362 0
M  V30 4035 H 384.992 3.36207 -4.81911 0
M  V30 4036 H 386.516 4.20721 -4.42522 0
M  V30 4037 H 387.93 2.12196 -5.32584 0
M  V30 4038 H 386.327 1.49716 -5.81124 0
M  V30 4039 H 387.397 0.484811 -4.8247 0
M  V30 4040 N 388.74 1.54641 0.303973 0
M  V30 4041 C 389.986 1.74038 1.04109 0
M  V30 4042 C 390.319 0.523051 1.87024 0
M  V30 4043 O 389.594 -0.479874 1.88487 0
M  V30 4044 C 389.877 3.02761 1.94955 0
M  V30 4045 C 389.73 4.34787 1.1524 0
M  V30 4046 C 391.049 3.27336 2.94175 0
M  V30 4047 H 388.168 0.63323 0.377079 0
M  V30 4048 H 390.81 1.87354 0.316001 0
M  V30 4049 H 388.96 2.9154 2.56782 0
M  V30 4050 H 390.632 4.57922 0.557236 0
M  V30 4051 H 388.875 4.31407 0.455053 0
M  V30 4052 H 389.546 5.21116 1.8205 0
M  V30 4053 H 392.022 3.38148 2.42477 0
M  V30 4054 H 390.898 4.18726 3.54908 0
M  V30 4055 H 391.159 2.45491 3.67677 0
M  V30 4056 N 390.218 -0.567019 1.47046 0
M  V30 4057 C 391.148 -1.68482 1.61667 0
M  V30 4058 C 392.129 -1.6358 0.466418 0
M  V30 4059 O 393.314 -1.81354 0.694574 0
M  V30 4060 C 390.444 -3.07124 1.62148 0
M  V30 4061 C 389.398 -3.26867 2.76301 0
M  V30 4062 C 388.724 -4.66196 2.61849 0
M  V30 4063 C 390.024 -3.13186 4.17986 0
M  V30 4064 H 391.718 -1.56502 2.5524 0
M  V30 4065 H 389.264 -0.751486 1.22836 0
M  V30 4066 H 391.217 -3.8516 1.70968 0
M  V30 4067 H 389.941 -3.2004 0.651287 0
M  V30 4068 H 388.6 -2.51237 2.66975 0
M  V30 4069 H 388.248 -4.75898 1.62879 0
M  V30 4070 H 387.948 -4.80356 3.38425 0
M  V30 4071 H 389.472 -5.46379 2.72584 0
M  V30 4072 H 390.886 -3.81049 4.2834 0
M  V30 4073 H 389.283 -3.3886 4.95272 0
M  V30 4074 H 390.353 -2.10057 4.3704 0
M  V30 4075 N 391.696 -1.35014 -0.812953 0
M  V30 4076 C 392.626 -1.30069 -1.93919 0
M  V30 4077 C 393.607 -0.176275 -1.69184 0
M  V30 4078 O 394.792 -0.370227 -1.90638 0
M  V30 4079 C 391.922 -1.06547 -3.30552 0
M  V30 4080 C 390.876 -2.15561 -3.69753 0
M  V30 4081 C 390.202 -1.77214 -5.04479 0
M  V30 4082 C 391.502 -3.57476 -3.808 0
M  V30 4083 H 393.196 -2.24303 -1.98314 0
M  V30 4084 H 390.742 -1.07977 -0.952736 0
M  V30 4085 H 392.695 -1.01729 -4.08937 0
M  V30 4086 H 391.419 -0.0875719 -3.26483 0
M  V30 4087 H 390.078 -2.19466 -2.9365 0
M  V30 4088 H 389.726 -0.780589 -4.96906 0
M  V30 4089 H 389.426 -2.50184 -5.31678 0
M  V30 4090 H 390.95 -1.7391 -5.8531 0
M  V30 4091 H 392.364 -3.55929 -4.4943 0
M  V30 4092 H 390.761 -4.29152 -4.19462 0
M  V30 4093 H 391.831 -3.94091 -2.82525 0
M  V30 4094 N 393.175 1.03435 -1.18907 0
M  V30 4095 C 394.403 1.80381 -1.01342 0
M  V30 4096 C 394.818 1.83649 0.438005 0
M  V30 4097 O 394.175 1.27655 1.30424 0
M  V30 4098 C 394.226 3.25689 -1.56873 0
M  V30 4099 O 393.947 3.22673 -2.96334 0
M  V30 4100 C 395.448 4.19255 -1.44014 0
M  V30 4101 H 392.668 0.56784 -0.35749 0
M  V30 4102 H 395.212 1.30317 -1.576 0
M  V30 4103 H 393.367 3.72962 -1.04777 0
M  V30 4104 H 393.781 4.13748 -3.22355 0
M  V30 4105 H 395.255 5.19123 -1.87657 0
M  V30 4106 H 395.732 4.37467 -0.389815 0
M  V30 4107 H 396.338 3.77851 -1.95214 0
M  V30 4108 N 394.653 0.992116 1.22453 0
M  V30 4109 C 395.899 0.668523 1.91464 0
M  V30 4110 C 396.232 -0.797313 1.77078 0
M  V30 4111 O 395.507 -1.5765 1.13916 0
M  V30 4112 C 395.79 1.07424 3.43703 0
M  V30 4113 C 395.643 2.59857 3.67143 0
M  V30 4114 C 396.962 0.626891 4.35612 0
M  V30 4115 H 394.081 0.244341 0.695318 0
M  V30 4116 H 396.723 1.2355 1.44345 0
M  V30 4117 H 394.873 0.591816 3.83966 0
M  V30 4118 H 396.545 3.15764 3.3629 0
M  V30 4119 H 394.788 3.01961 3.11451 0
M  V30 4120 H 395.459 2.83296 4.73759 0
M  V30 4121 H 397.935 1.04125 4.02861 0
M  V30 4122 H 396.811 0.939076 5.40807 0
M  V30 4123 H 397.072 -0.472457 4.39568 0
M  V30 4124 N 396.131 -1.37776 0.765217 0
M  V30 4125 C 397.061 -2.32945 0.160953 0
M  V30 4126 C 398.042 -1.55454 -0.690516 0
M  V30 4127 O 399.227 -1.83721 -0.629318 0
M  V30 4128 C 396.357 -3.39669 -0.724031 0
M  V30 4129 C 395.311 -4.27992 0.0256173 0
M  V30 4130 C 394.637 -5.25673 -0.978383 0
M  V30 4131 C 395.937 -5.08309 1.20082 0
M  V30 4132 H 397.631 -2.83728 0.955969 0
M  V30 4133 H 395.177 -1.36416 0.461149 0
M  V30 4134 H 397.13 -4.05219 -1.15652 0
M  V30 4135 H 395.854 -2.87396 -1.5515 0
M  V30 4136 H 394.513 -3.63964 0.438812 0
M  V30 4137 H 394.161 -4.69682 -1.80022 0
M  V30 4138 H 393.861 -5.85625 -0.481378 0
M  V30 4139 H 395.385 -5.94098 -1.40995 0
M  V30 4140 H 396.799 -5.67034 0.845307 0
M  V30 4141 H 395.196 -5.77554 1.62947 0
M  V30 4142 H 396.266 -4.41365 2.00811 0
M  V30 4143 N 397.609 -0.515225 -1.4894 0
M  V30 4144 C 398.572 0.244681 -2.2789 0
M  V30 4145 C 399.572 0.881166 -1.34507 0
M  V30 4146 O 400.762 0.743497 -1.57537 0
M  V30 4147 C 397.894 1.35247 -3.12923 0
M  V30 4148 H 399.087 -0.448289 -2.96531 0
M  V30 4149 H 396.64 -0.270656 -1.53939 0
M  V30 4150 H 397.375 2.07916 -2.48881 0
M  V30 4151 H 397.16 0.901374 -3.81599 0
M  V30 4152 H 398.65 1.88737 -3.72516 0
M  V30 4153 N 399.087 1.5561 -0.249682 0
M  V30 4154 C 400.017 2.24477 0.642826 0
M  V30 4155 C 400.998 1.22601 1.17911 0
M  V30 4156 O 402.183 1.5126 1.21795 0
M  V30 4157 C 399.313 2.94638 1.83863 0
M  V30 4158 C 398.267 4.03227 1.435 0
M  V30 4159 C 397.593 4.60828 2.71186 0
M  V30 4160 C 398.893 5.18796 0.604002 0
M  V30 4161 H 400.587 2.99321 0.0685625 0
M  V30 4162 H 398.133 1.43965 0.0315363 0
M  V30 4163 H 400.086 3.41517 2.46868 0
M  V30 4164 H 398.81 2.17287 2.43832 0
M  V30 4165 H 397.469 3.57121 0.828275 0
M  V30 4166 H 397.117 3.80174 3.29358 0
M  V30 4167 H 396.817 5.34132 2.44901 0
M  V30 4168 H 398.341 5.10442 3.35084 0
M  V30 4169 H 399.755 5.61883 1.13842 0
M  V30 4170 H 398.152 5.98506 0.437097 0
M  V30 4171 H 399.222 4.83384 -0.383147 0
M  V30 4172 N 400.565 -0.0233959 1.57583 0
M  V30 4173 C 401.495 -1.02162 2.09965 0
M  V30 4174 C 402.476 -1.3735 1.00344 0
M  V30 4175 O 403.661 -1.46135 1.27899 0
M  V30 4176 C 400.791 -2.32081 2.58371 0
M  V30 4177 C 399.745 -2.1112 3.72307 0
M  V30 4178 C 399.071 -3.46848 4.06941 0
M  V30 4179 C 400.371 -1.49276 5.00514 0
M  V30 4180 H 402.065 -0.585557 2.93618 0
M  V30 4181 H 399.611 -0.280218 1.41247 0
M  V30 4182 H 401.564 -3.02249 2.93639 0
M  V30 4183 H 400.288 -2.77758 1.71808 0
M  V30 4184 H 398.947 -1.43384 3.37397 0
M  V30 4185 H 398.595 -3.90184 3.17436 0
M  V30 4186 H 398.295 -3.33646 4.83688 0
M  V30 4187 H 399.819 -4.18369 4.44747 0
M  V30 4188 H 401.233 -2.09368 5.33702 0
M  V30 4189 H 399.63 -1.46632 5.8191 0
M  V30 4190 H 400.7 -0.459217 4.82721 0
M  V30 4191 N 402.043 -1.548 -0.295768 0
M  V30 4192 C 403.268 -1.78653 -1.05346 0
M  V30 4193 C 403.693 -0.546894 -1.79974 0
M  V30 4194 O 403.051 0.502763 -1.7419 0
M  V30 4195 C 403.099 -2.99679 -2.00561 0
M  V30 4196 O 402.203 -2.7317 -3.08953 0
M  V30 4197 H 401.544 -0.59116 -0.302367 0
M  V30 4198 H 404.074 -2.01895 -0.331598 0
M  V30 4199 H 404.084 -3.27793 -2.42932 0
M  V30 4200 H 402.759 -3.89562 -1.4565 0
M  V30 4201 H 401.336 -2.56089 -2.71059 0
M  V30 4202 N 403.521 0.559213 -1.47345 0
M  V30 4203 C 404.471 1.66192 -1.5609 0
M  V30 4204 C 405.455 1.55323 -0.419957 0
M  V30 4205 O 406.647 1.63839 -0.669762 0
M  V30 4206 C 403.776 3.0497 -1.57634 0
M  V30 4207 C 402.862 3.2105 -2.77106 0
M  V30 4208 N 403.253 3.07203 -4.01821 0
M  V30 4209 C 401.551 3.52046 -2.73825 0
M  V30 4210 C 402.252 3.25919 -4.81821 0
M  V30 4211 N 401.228 3.52161 -4.14106 0
M  V30 4212 H 405.03 1.54052 -2.5029 0
M  V30 4213 H 402.544 0.763914 -1.43311 0
M  V30 4214 H 404.541 3.84142 -1.61989 0
M  V30 4215 H 403.201 3.18224 -0.645281 0
M  V30 4216 H 404.212 2.84572 -4.32711 0
M  V30 4217 H 400.889 3.71839 -1.89848 0
M  V30 4218 H 402.279 3.20198 -5.90697 0
M  V30 4219 N 404.999 1.35443 0.805782 0
M  V30 4220 C 406.415 1.15499 1.10146 0
M  V30 4221 C 406.615 -0.0319975 2.01475 0
M  V30 4222 O 405.671 -0.70236 2.42535 0
M  V30 4223 C 406.984 2.45833 1.73166 0
M  V30 4224 C 408.532 2.52047 1.85583 0
M  V30 4225 C 409.007 3.82427 2.52019 0
M  V30 4226 N 410.498 3.83682 2.59504 0
M  V30 4227 C 411.233 4.81294 3.11679 0
M  V30 4228 N 410.729 5.89294 3.64287 0
M  V30 4229 N 412.522 4.6873 3.1024 0
M  V30 4230 H 404.673 2.11469 0.198678 0
M  V30 4231 H 406.936 0.93594 0.150731 0
M  V30 4232 H 406.642 3.32874 1.13526 0
M  V30 4233 H 406.516 2.6044 2.72857 0
M  V30 4234 H 408.903 1.65435 2.44367 0
M  V30 4235 H 408.984 2.41354 0.847455 0
M  V30 4236 H 408.628 4.69437 1.93885 0
M  V30 4237 H 408.558 3.90409 3.53395 0
M  V30 4238 H 411.049 3.05648 2.22234 0
M  V30 4239 H 411.362 6.59768 4.02401 0
M  V30 4240 H 409.707 5.92985 3.62483 0
M  V30 4241 H 412.898 3.83496 2.68419 0
M  V30 4242 H 413.071 5.44965 3.50596 0
M  V30 4243 N 406.477 -1.02803 1.19454 0
M  V30 4244 C 407.893 -1.28473 0.946937 0
M  V30 4245 C 408.093 -1.97881 -0.380202 0
M  V30 4246 O 407.149 -2.26719 -1.11151 0
M  V30 4247 C 408.462 -2.13099 2.12154 0
M  V30 4248 C 410.01 -2.26404 2.16126 0
M  V30 4249 C 410.485 -3.14402 3.33039 0
M  V30 4250 N 411.976 -3.21991 3.32981 0
M  V30 4251 C 412.711 -3.90272 4.20089 0
M  V30 4252 N 412.207 -4.60777 5.17355 0
M  V30 4253 N 414 -3.8668 4.07964 0
M  V30 4254 H 406.151 -0.561665 2.04839 0
M  V30 4255 H 408.414 -0.310438 0.89573 0
M  V30 4256 H 408.12 -1.69422 3.08203 0
M  V30 4257 H 407.994 -3.13813 2.09287 0
M  V30 4258 H 410.381 -2.69311 1.20647 0
M  V30 4259 H 410.462 -1.25237 2.23045 0
M  V30 4260 H 410.106 -2.72204 4.28798 0
M  V30 4261 H 410.036 -4.1563 3.23356 0
M  V30 4262 H 412.527 -2.71778 2.62574 0
M  V30 4263 H 412.84 -5.10513 5.80169 0
M  V30 4264 H 411.185 -4.5964 5.21302 0
M  V30 4265 H 414.376 -3.30739 3.31254 0
M  V30 4266 H 414.549 -4.39621 4.76064 0
M  V30 4267 N 407.956 -0.998596 -1.21925 0
M  V30 4268 C 408.919 -0.558679 -2.22287 0
M  V30 4269 C 409.919 0.361525 -1.56683 0
M  V30 4270 O 411.109 0.152695 -1.73529 0
M  V30 4271 C 408.241 0.18661 -3.40389 0
M  V30 4272 H 409.434 -1.4463 -2.62721 0
M  V30 4273 H 406.987 -0.786413 -1.35075 0
M  V30 4274 H 407.722 1.08996 -3.05435 0
M  V30 4275 H 407.507 -0.474188 -3.89222 0
M  V30 4276 H 408.997 0.482367 -4.14805 0
M  V30 4277 N 409.434 1.37368 -0.772513 0
M  V30 4278 C 410.364 2.32856 -0.173304 0
M  V30 4279 C 411.345 1.55818 0.682262 0
M  V30 4280 O 412.53 1.84052 0.619566 0
M  V30 4281 C 409.66 3.40048 0.706007 0
M  V30 4282 C 408.614 4.27973 -0.0483144 0
M  V30 4283 C 407.94 5.26184 0.950491 0
M  V30 4284 C 409.24 5.07665 -1.22776 0
M  V30 4285 H 410.934 2.83217 -0.971002 0
M  V30 4286 H 408.48 1.3617 -0.468377 0
M  V30 4287 H 410.433 4.05827 1.13501 0
M  V30 4288 H 409.157 2.88214 1.53623 0
M  V30 4289 H 407.816 3.63726 -0.458107 0
M  V30 4290 H 407.464 4.7063 1.77529 0
M  V30 4291 H 407.164 5.85872 0.450314 0
M  V30 4292 H 408.688 5.94838 1.37842 0
M  V30 4293 H 410.102 5.66578 -0.875366 0
M  V30 4294 H 408.499 5.76681 -1.66007 0
M  V30 4295 H 409.569 4.40294 -2.03149 0
M  V30 4296 N 410.912 0.523116 1.48665 0
M  V30 4297 C 411.859 -0.243398 2.29513 0
M  V30 4298 C 412.829 -0.940139 1.36933 0
M  V30 4299 O 414.014 -0.942503 1.65896 0
M  V30 4300 C 411.154 -1.28855 3.20141 0
M  V30 4301 C 410.267 -0.60135 4.27794 0
M  V30 4302 C 409.402 -1.62884 5.05611 0
M  V30 4303 C 408.441 -0.924726 6.05075 0
M  V30 4304 N 407.578 -1.89744 6.75975 0
M  V30 4305 H 412.418 0.452234 2.94549 0
M  V30 4306 H 409.955 0.234858 1.45213 0
M  V30 4307 H 411.913 -1.90674 3.71079 0
M  V30 4308 H 410.543 -1.95266 2.57043 0
M  V30 4309 H 409.595 0.130623 3.80176 0
M  V30 4310 H 410.907 -0.0481585 4.98777 0
M  V30 4311 H 410.061 -2.32149 5.60528 0
M  V30 4312 H 408.8 -2.21592 4.34452 0
M  V30 4313 H 407.805 -0.217966 5.49368 0
M  V30 4314 H 409.03 -0.343851 6.78229 0
M  V30 4315 H 406.976 -2.47373 6.07571 0
M  V30 4316 H 406.893 -1.3955 7.43009 0
M  V30 4317 H 408.161 -2.58229 7.35485 0
M  V30 4318 N 412.39 -1.55475 0.257931 0
M  V30 4319 C 413.322 -2.19192 -0.669881 0
M  V30 4320 C 414.335 -1.17148 -1.1305 0
M  V30 4321 O 415.524 -1.43959 -1.05537 0
M  V30 4322 C 412.624 -2.79016 -1.92363 0
M  V30 4323 C 411.797 -4.06586 -1.61265 0
M  V30 4324 C 410.856 -4.50622 -2.7171 0
M  V30 4325 O 409.882 -5.16765 -2.38627 0
M  V30 4326 N 411.084 -4.19325 -4.01431 0
M  V30 4327 H 413.849 -2.99441 -0.124635 0
M  V30 4328 H 411.41 -1.6171 0.0783311 0
M  V30 4329 H 413.402 -3.05427 -2.65511 0
M  V30 4330 H 411.972 -2.0286 -2.37837 0
M  V30 4331 H 411.192 -3.87646 -0.715811 0
M  V30 4332 H 412.48 -4.89737 -1.37967 0
M  V30 4333 H 411.878 -3.66247 -4.31138 0
M  V30 4334 H 410.435 -4.50547 -4.7101 0
M  V30 4335 N 413.868 0.0150385 -1.57593 0
M  V30 4336 C 414.815 1.01126 -2.07466 0
M  V30 4337 C 415.785 1.35064 -0.966794 0
M  V30 4338 O 416.97 1.4516 -1.23827 0
M  V30 4339 C 414.11 2.30276 -2.57035 0
M  V30 4340 C 413.223 2.02373 -3.81666 0
M  V30 4341 C 412.358 3.25496 -4.19793 0
M  V30 4342 C 411.397 2.93211 -5.37303 0
M  V30 4343 N 410.534 4.08826 -5.70794 0
M  V30 4344 H 415.374 0.57901 -2.92321 0
M  V30 4345 H 412.911 0.27426 -1.44521 0
M  V30 4346 H 414.869 3.05757 -2.83846 0
M  V30 4347 H 413.499 2.71197 -1.75077 0
M  V30 4348 H 412.551 1.17327 -3.61854 0
M  V30 4349 H 413.863 1.74567 -4.67256 0
M  V30 4350 H 413.017 4.09333 -4.47807 0
M  V30 4351 H 411.756 3.56428 -3.32882 0
M  V30 4352 H 410.761 2.07777 -5.09027 0
M  V30 4353 H 411.986 2.63542 -6.25877 0
M  V30 4354 H 409.932 4.39682 -4.86842 0
M  V30 4355 H 409.849 3.84491 -6.50924 0
M  V30 4356 H 411.117 4.93496 -6.03392 0
M  V30 4357 N 415.346 1.54954 0.287554 0
M  V30 4358 C 416.595 1.74081 1.01877 0
M  V30 4359 C 416.908 0.541135 1.87966 0
M  V30 4360 O 418.114 0.614491 2.64455 0
M  V30 4361 C 416.57 3.08042 1.86113 0
M  V30 4362 C 416.178 4.35531 1.04961 0
M  V30 4363 C 417.922 3.36523 2.58752 0
M  V30 4364 C 415.829 5.60538 1.88551 0
M  V30 4365 H 414.759 0.64884 0.384087 0
M  V30 4366 H 417.41 1.81426 0.275101 0
M  V30 4367 H 415.792 2.94696 2.64519 0
M  V30 4368 H 416.966 4.59751 0.31074 0
M  V30 4369 H 415.281 4.14085 0.43843 0
M  V30 4370 H 417.878 4.27122 3.21668 0
M  V30 4371 H 418.221 2.56 3.28283 0
M  V30 4372 H 418.754 3.50901 1.87386 0
M  V30 4373 H 415.493 6.43767 1.23466 0
M  V30 4374 H 415.013 5.40483 2.60074 0
M  V30 4375 H 416.692 5.98297 2.46273 0
M  V30 4376 N 416.824 -0.551391 1.4764 0
M  V30 4377 C 418.07 -1.30789 1.55774 0
M  V30 4378 C 418.425 -1.91143 0.219562 0
M  V30 4379 O 417.718 -1.7521 -0.775375 0
M  V30 4380 C 417.912 -2.43469 2.61644 0
M  V30 4381 C 417.741 -1.94157 4.05627 0
M  V30 4382 C 416.511 -1.77734 4.7301 0
M  V30 4383 C 418.709 -1.48262 4.92466 0
M  V30 4384 N 416.691 -1.22823 6.01488 0
M  V30 4385 C 418.062 -1.05156 6.11017 0
M  V30 4386 C 420.117 -1.36367 4.78862 0
M  V30 4387 C 418.82 -0.513357 7.17466 0
M  V30 4388 C 420.846 -0.839484 5.85411 0
M  V30 4389 C 420.208 -0.418377 7.03156 0
M  V30 4390 H 416.307 -0.470406 0.624694 0
M  V30 4391 H 418.891 -0.624331 1.84419 0
M  V30 4392 H 417.062 -3.09348 2.34859 0
M  V30 4393 H 418.794 -3.10477 2.59589 0
M  V30 4394 H 415.549 -2.00623 4.29007 0
M  V30 4395 H 415.973 -0.974393 6.69951 0
M  V30 4396 H 420.615 -1.67535 3.88191 0
M  V30 4397 H 418.333 -0.189318 8.07878 0
M  V30 4398 H 421.919 -0.750921 5.76934 0
M  V30 4399 H 420.799 -0.0190538 7.84198 0
M  V30 4400 N 418.302 -1.35869 -0.798587 0
M  V30 4401 C 419.713 -1.26498 -1.37314 0
M  V30 4402 C 420.064 0.0991899 -1.95949 0
M  V30 4403 O 419.189 1.0004 -1.91888 0
M  V30 4404 C 419.784 -2.29054 -2.49639 0
M  V30 4405 C 418.343 -2.234 -3.02935 0
M  V30 4406 C 417.49 -2.14329 -1.75949 0
M  V30 4407 H 420.441 -1.46881 -0.600971 0
M  V30 4408 H 420.462 -1.92166 -3.28409 0
M  V30 4409 H 419.974 -3.2833 -2.06933 0
M  V30 4410 H 418.075 -1.27562 -3.50084 0
M  V30 4411 H 418.188 -3.15703 -3.60372 0
M  V30 4412 H 416.552 -1.60435 -1.9782 0
M  V30 4413 H 417.335 -3.15477 -1.35384 0
M  V30 4414 N 419.78 1.02168 -1.19998 0
M  V30 4415 C 421.028 1.75338 -1.00504 0
M  V30 4416 C 421.349 1.89387 0.464506 0
M  V30 4417 O 420.619 1.43268 1.33608 0
M  V30 4418 H 419.199 0.649564 -0.368885 0
M  V30 4419 H 421.861 1.23205 -1.51018 0
M  V30 4420 H 420.957 2.75892 -1.45912 0
M  V30 4421 N 421.258 1.00505 1.21394 0
M  V30 4422 C 422.507 0.683159 1.89778 0
M  V30 4423 C 422.82 -0.789471 1.7896 0
M  V30 4424 O 424.026 -1.22344 2.42372 0
M  V30 4425 C 422.482 1.17146 3.40301 0
M  V30 4426 C 422.09 2.67017 3.5973 0
M  V30 4427 C 423.834 0.924461 4.14311 0
M  V30 4428 C 421.741 3.09387 5.04017 0
M  V30 4429 H 420.671 0.25183 0.710702 0
M  V30 4430 H 423.322 1.21622 1.37406 0
M  V30 4431 H 421.704 0.566451 3.91928 0
M  V30 4432 H 422.878 3.32968 3.18542 0
M  V30 4433 H 421.193 2.89732 2.99073 0
M  V30 4434 H 423.79 1.21658 5.20676 0
M  V30 4435 H 424.133 -0.139286 4.16067 0
M  V30 4436 H 424.666 1.49226 3.6875 0
M  V30 4437 H 421.405 4.14989 5.07409 0
M  V30 4438 H 420.925 2.48149 5.46061 0
M  V30 4439 H 422.604 3.01371 5.72525 0
M  V30 4440 N 422.737 -1.36956 0.779787 0
M  V30 4441 C 424.148 -1.82094 0.412156 0
M  V30 4442 C 424.499 -1.64926 -1.06273 0
M  V30 4443 O 423.624 -1.16483 -1.82375 0
M  V30 4444 C 424.219 -3.3059 0.741319 0
M  V30 4445 C 422.778 -3.73974 0.426641 0
M  V30 4446 C 421.925 -2.59368 0.980987 0
M  V30 4447 H 424.876 -1.25314 0.973758 0
M  V30 4448 H 424.897 -3.80489 0.028887 0
M  V30 4449 H 424.409 -3.43054 1.81482 0
M  V30 4450 H 422.51 -3.67076 -0.639215 0
M  V30 4451 H 422.623 -4.69778 0.940515 0
M  V30 4452 H 420.987 -2.51463 0.404757 0
M  V30 4453 H 421.77 -2.74621 2.06005 0
M  V30 4454 N 424.215 -0.530993 -1.48385 0
M  V30 4455 C 425.44 0.000729535 -2.074 0
M  V30 4456 C 425.865 1.27298 -1.3848 0
M  V30 4457 O 425.223 1.75599 -0.451081 0
M  V30 4458 C 425.271 0.206697 -3.60007 0
M  V30 4459 O 424.375 1.27514 -3.92191 0
M  V30 4460 H 423.716 -0.039583 -0.662819 0
M  V30 4461 H 426.246 -0.739194 -1.9078 0
M  V30 4462 H 426.256 0.42904 -4.05738 0
M  V30 4463 H 424.931 -0.722675 -4.09573 0
M  V30 4464 H 423.508 1.03537 -3.58238 0
M  V30 4465 N 425.693 1.55336 -0.266172 0
M  V30 4466 C 427.104 1.85236 0.233315 0
M  V30 4467 C 427.455 1.18816 1.56132 0
M  V30 4468 O 426.58 0.473307 2.11161 0
M  V30 4469 C 427.175 3.36059 0.430113 0
M  V30 4470 C 425.734 3.66116 0.873842 0
M  V30 4471 C 424.881 2.77274 -0.0380016 0
M  V30 4472 H 427.832 1.51004 -0.488214 0
M  V30 4473 H 427.853 3.58681 1.26998 0
M  V30 4474 H 427.365 3.84373 -0.536588 0
M  V30 4475 H 425.466 3.23295 1.85233 0
M  V30 4476 H 425.579 4.73699 0.717358 0
M  V30 4477 H 423.943 2.50198 0.476759 0
M  V30 4478 H 424.726 3.284 -1.00042 0
M  V30 4479 N 427.171 -0.0066808 1.57599 0
M  V30 4480 C 428.081 -1.01671 2.11424 0
M  V30 4481 C 429.097 -1.38143 1.05795 0
M  V30 4482 O 430.273 -1.47011 1.37658 0
M  V30 4483 C 427.338 -2.29192 2.60139 0
M  V30 4484 C 426.399 -1.99094 3.80342 0
M  V30 4485 C 425.632 -3.20535 4.26724 0
M  V30 4486 O 425.855 -4.3199 3.72479 0
M  V30 4487 O 424.789 -3.04924 5.18946 0
M  V30 4488 H 428.615 -0.589181 2.9793 0
M  V30 4489 H 426.2 -0.225091 1.47695 0
M  V30 4490 H 428.082 -3.0412 2.917 0
M  V30 4491 H 426.757 -2.71195 1.76733 0
M  V30 4492 H 425.664 -1.21663 3.53764 0
M  V30 4493 H 426.997 -1.61931 4.648 0
M  V30 4494 N 428.649 -1.55105 -0.279332 0
M  V30 4495 C 429.874 -1.7976 -1.03446 0
M  V30 4496 C 430.299 -0.565952 -1.79384 0
M  V30 4497 O 429.657 0.484259 -1.74713 0
M  V30 4498 C 429.705 -3.0179 -1.97371 0
M  V30 4499 O 428.809 -2.76432 -3.06038 0
M  V30 4500 H 428.15 -0.594334 -0.29608 0
M  V30 4501 H 430.68 -2.02235 -0.310165 0
M  V30 4502 H 430.69 -3.30351 -2.39441 0
M  V30 4503 H 429.365 -3.91085 -1.4151 0
M  V30 4504 H 427.942 -2.58949 -2.68328 0
M  V30 4505 N 430.127 0.543554 -1.4793 0
M  V30 4506 C 431.037 1.67657 -1.64098 0
M  V30 4507 C 432.053 1.65934 -0.523622 0
M  V30 4508 O 433.229 1.85133 -0.792943 0
M  V30 4509 C 430.294 3.04146 -1.66421 0
M  V30 4510 C 429.355 3.16831 -2.89684 0
M  V30 4511 C 428.588 4.46809 -2.91886 0
M  V30 4512 O 428.811 5.33095 -2.02895 0
M  V30 4513 O 427.745 4.63573 -3.83906 0
M  V30 4514 H 431.571 1.56957 -2.59997 0
M  V30 4515 H 429.156 0.715116 -1.31173 0
M  V30 4516 H 431.038 3.85346 -1.70548 0
M  V30 4517 H 429.713 3.152 -0.736923 0
M  V30 4518 H 428.62 2.34977 -2.91095 0
M  V30 4519 H 429.953 3.10687 -3.81752 0
M  V30 4520 N 431.605 1.3629 0.791371 0
M  V30 4521 C 432.852 1.30412 1.54916 0
M  V30 4522 C 433.18 -0.117162 1.94147 0
M  V30 4523 O 432.435 -1.08599 1.62803 0
M  V30 4524 C 432.734 2.17068 2.8393 0
M  V30 4525 C 432.4 3.65645 2.63846 0
M  V30 4526 C 431.062 4.0614 2.58077 0
M  V30 4527 C 433.414 4.59855 2.45322 0
M  V30 4528 C 430.742 5.3899 2.31748 0
M  V30 4529 C 433.094 5.9292 2.2052 0
M  V30 4530 C 431.758 6.32542 2.13183 0
M  V30 4531 H 431.028 0.47721 0.566879 0
M  V30 4532 H 433.675 1.68325 0.913172 0
M  V30 4533 H 431.98 1.72085 3.51986 0
M  V30 4534 H 433.677 2.09846 3.4171 0
M  V30 4535 H 430.267 3.33518 2.69191 0
M  V30 4536 H 434.451 4.29443 2.48782 0
M  V30 4537 H 429.707 5.68672 2.24548 0
M  V30 4538 H 433.881 6.65487 2.05182 0
M  V30 4539 H 431.508 7.35412 1.92544 0
M  V30 4540 N 433.083 -1.0153 1.20538 0
M  V30 4541 C 433.993 -2.13557 0.971113 0
M  V30 4542 C 435.009 -1.73845 -0.0734366 0
M  V30 4543 O 436.185 -2.01075 0.114299 0
M  V30 4544 C 433.25 -3.42661 0.527639 0
M  V30 4545 C 432.311 -3.96608 1.64319 0
M  V30 4546 C 431.544 -5.1955 1.22078 0
M  V30 4547 O 431.767 -5.70329 0.0900198 0
M  V30 4548 O 430.701 -5.66681 2.02871 0
M  V30 4549 H 434.527 -2.3619 1.90913 0
M  V30 4550 H 432.112 -1.11946 0.989362 0
M  V30 4551 H 433.994 -4.20404 0.289621 0
M  V30 4552 H 432.669 -3.21441 -0.381779 0
M  V30 4553 H 431.576 -3.20139 1.93551 0
M  V30 4554 H 432.909 -4.22219 2.52966 0
M  V30 4555 N 434.561 -1.01147 -1.20859 0
M  V30 4556 C 435.809 -0.696486 -1.89719 0
M  V30 4557 C 436.13 0.775788 -1.78904 0
M  V30 4558 O 435.4 1.55759 -1.18811 0
M  V30 4559 H 433.98 -0.254628 -0.702263 0
M  V30 4560 H 436.642 -1.28197 -1.46804 0
M  V30 4561 H 435.738 -0.975357 -2.96468 0
M  V30 4562 N 436.039 1.36541 -0.78704 0
M  V30 4563 C 436.969 2.32659 -0.197992 0
M  V30 4564 C 437.95 1.56533 0.665697 0
M  V30 4565 O 439.135 1.84698 0.60001 0
M  V30 4566 C 436.265 3.40778 0.669901 0
M  V30 4567 C 435.219 4.27897 -0.0937039 0
M  V30 4568 C 434.545 5.27163 0.894629 0
M  V30 4569 C 435.845 5.06334 -1.28154 0
M  V30 4570 H 437.539 2.82171 -1.00099 0
M  V30 4571 H 435.085 1.35665 -0.482793 0
M  V30 4572 H 437.038 4.07008 1.09191 0
M  V30 4573 H 435.762 2.89827 1.50558 0
M  V30 4574 H 434.421 3.6322 -0.49666 0
M  V30 4575 H 434.069 4.72486 1.72527 0
M  V30 4576 H 433.769 5.86317 0.388149 0
M  V30 4577 H 435.293 5.96266 1.31525 0
M  V30 4578 H 436.707 5.65617 -0.93541 0
M  V30 4579 H 435.104 5.74888 -1.72115 0
M  V30 4580 H 436.174 4.38114 -2.07807 0
M  V30 4581 N 437.518 0.538854 1.48102 0
M  V30 4582 C 438.765 0.0080018 2.02498 0
M  V30 4583 C 439.093 -1.33437 1.41509 0
M  V30 4584 O 438.348 -1.87709 0.553507 0
M  V30 4585 C 438.647 -0.153808 3.57069 0
M  V30 4586 C 438.313 1.11533 4.36888 0
M  V30 4587 C 436.975 1.46314 4.58417 0
M  V30 4588 C 439.327 1.95718 4.83057 0
M  V30 4589 C 436.655 2.6516 5.23361 0
M  V30 4590 C 439.007 3.13751 5.49312 0
M  V30 4591 C 437.671 3.48866 5.69077 0
M  V30 4592 H 436.941 0.00292807 0.740994 0
M  V30 4593 H 439.588 0.706668 1.77984 0
M  V30 4594 H 437.893 -0.935309 3.80472 0
M  V30 4595 H 439.59 -0.579607 3.96789 0
M  V30 4596 H 436.18 0.834484 4.20398 0
M  V30 4597 H 440.364 1.70158 4.66219 0
M  V30 4598 H 435.62 2.92558 5.36861 0
M  V30 4599 H 439.794 3.79282 5.84053 0
M  V30 4600 H 437.421 4.41054 6.19173 0
M  V30 4601 N 438.996 -1.55193 0.274407 0
M  V30 4602 C 440.224 -2.03987 -0.345943 0
M  V30 4603 C 440.639 -1.15279 -1.4952 0
M  V30 4604 O 439.996 -0.172759 -1.8168 0
M  V30 4605 C 440.047 -3.51898 -0.827631 0
M  V30 4606 O 439.768 -4.37231 0.275855 0
M  V30 4607 C 441.269 -4.16577 -1.51587 0
M  V30 4608 H 438.489 -0.666335 -0.0789892 0
M  V30 4609 H 441.033 -2.00423 0.406294 0
M  V30 4610 H 439.188 -3.55909 -1.52996 0
M  V30 4611 H 439.602 -5.24415 -0.0943638 0
M  V30 4612 H 441.076 -5.21678 -1.80433 0
M  V30 4613 H 441.553 -3.64707 -2.44716 0
M  V30 4614 H 442.159 -4.16568 -0.857409 0
M  V30 4615 N 440.474 -0.00167713 -1.576 0
M  V30 4616 C 441.702 0.693759 -1.94922 0
M  V30 4617 C 442.117 1.67215 -0.876626 0
M  V30 4618 O 441.474 1.81929 0.144279 0
M  V30 4619 C 441.525 1.42416 -3.32265 0
M  V30 4620 O 441.246 0.485014 -4.35407 0
M  V30 4621 C 442.747 2.21395 -3.84056 0
M  V30 4622 H 439.967 0.193118 -0.642609 0
M  V30 4623 H 442.511 -0.0532952 -2.04431 0
M  V30 4624 H 440.666 2.12284 -3.24059 0
M  V30 4625 H 441.08 1.00053 -5.14868 0
M  V30 4626 H 442.554 2.67996 -4.82578 0
M  V30 4627 H 443.031 3.04142 -3.16851 0
M  V30 4628 H 443.637 1.56542 -3.95443 0
M  V30 4629 N 441.952 1.55251 0.271103 0
M  V30 4630 C 442.902 1.84649 1.33749 0
M  V30 4631 C 443.886 0.705529 1.44607 0
M  V30 4632 O 445.078 0.966916 1.48256 0
M  V30 4633 C 442.207 2.12354 2.69742 0
M  V30 4634 C 441.293 3.32714 2.62988 0
M  V30 4635 N 441.684 4.52575 2.25853 0
M  V30 4636 C 439.982 3.35341 2.94045 0
M  V30 4637 C 440.683 5.34669 2.29136 0
M  V30 4638 N 439.659 4.73123 2.67685 0
M  V30 4639 H 443.461 2.74865 1.0405 0
M  V30 4640 H 440.975 1.55152 0.479738 0
M  V30 4641 H 442.972 2.31572 3.4667 0
M  V30 4642 H 441.632 1.23422 3.00328 0
M  V30 4643 H 442.643 4.78639 1.978 0
M  V30 4644 H 439.32 2.56608 3.2933 0
M  V30 4645 H 440.71 6.40509 2.02971 0
M  V30 4646 N 443.43 -0.535701 1.48216 0
M  V30 4647 C 444.377 -1.64083 1.62312 0
M  V30 4648 C 445.347 -1.59448 0.465365 0
M  V30 4649 O 446.532 -1.77959 0.688135 0
M  V30 4650 C 443.672 -3.0236 1.66349 0
M  V30 4651 C 442.785 -3.17273 2.93193 0
M  V30 4652 C 441.92 -4.46075 2.88427 0
M  V30 4653 C 440.959 -4.54496 4.1 0
M  V30 4654 N 440.096 -5.7468 4.03345 0
M  V30 4655 H 444.936 -1.51374 2.5669 0
M  V30 4656 H 442.473 -0.737059 1.27302 0
M  V30 4657 H 444.431 -3.82461 1.66672 0
M  V30 4658 H 443.061 -3.13854 0.754672 0
M  V30 4659 H 442.113 -2.30462 3.02641 0
M  V30 4660 H 443.425 -3.19357 3.83162 0
M  V30 4661 H 442.579 -5.3446 2.87119 0
M  V30 4662 H 441.318 -4.46504 1.96177 0
M  V30 4663 H 440.323 -3.64519 4.11589 0
M  V30 4664 H 441.548 -4.5581 5.03402 0
M  V30 4665 H 439.494 -5.76017 3.13912 0
M  V30 4666 H 439.411 -5.78234 4.87013 0
M  V30 4667 H 440.679 -6.65367 4.06087 0
M  V30 4668 N 444.908 -1.36708 -0.784132 0
M  V30 4669 C 446.156 -1.30972 -1.53918 0
M  V30 4670 C 446.477 0.109086 -1.94695 0
M  V30 4671 O 445.747 1.05048 -1.65353 0
M  V30 4672 H 444.327 -0.481819 -0.570841 0
M  V30 4673 H 446.989 -1.71063 -0.934002 0
M  V30 4674 H 446.085 -1.94061 -2.44431 0
M  V30 4675 N 446.386 1.0089 -1.21074 0
M  V30 4676 C 447.334 2.11707 -0.963476 0
M  V30 4677 C 448.328 1.69172 0.0879032 0
M  V30 4678 O 449.534 1.79889 -0.0631415 0
M  V30 4679 H 445.909 0.692026 -0.294287 0
M  V30 4680 H 447.88 2.29743 -1.90422 0
M  V30 4681 C 446.629 3.43473 -0.540509 0
M  V30 4682 H 445.952 3.76634 -1.34114 0
M  V30 4683 H 447.392 4.22044 -0.406777 0
M  V30 4684 C 445.851 3.2849 0.748079 0
M  V30 4685 O 446.381 3.58883 1.8046 0
M  V30 4686 N 444.587 2.81715 0.713081 0
M  V30 4687 H 444.134 2.5718 -0.146973 0
M  V30 4688 H 444.092 2.72071 1.57558 0
M  V30 4689 N 447.864 1.01787 1.20321 0
M  V30 4690 C 449.111 0.707936 1.89722 0
M  V30 4691 C 449.439 -0.762535 1.78929 0
M  V30 4692 O 448.694 -1.56977 1.16861 0
M  V30 4693 C 448.993 1.09076 3.40349 0
M  V30 4694 C 448.659 2.55765 3.71342 0
M  V30 4695 C 447.321 2.95845 3.79511 0
M  V30 4696 C 449.673 3.50723 3.85542 0
M  V30 4697 C 447.001 4.2982 3.99339 0
M  V30 4698 C 449.353 4.84387 4.06881 0
M  V30 4699 C 448.017 5.24172 4.1328 0
M  V30 4700 H 447.287 0.259052 0.694243 0
M  V30 4701 H 449.934 1.27868 1.42555 0
M  V30 4702 H 448.239 0.438453 3.89339 0
M  V30 4703 H 449.936 0.828636 3.92345 0
M  V30 4704 H 446.526 2.2371 3.65584 0
M  V30 4705 H 450.71 3.20916 3.78585 0
M  V30 4706 H 445.966 4.60196 4.02529 0
M  V30 4707 H 450.14 5.57891 4.1681 0
M  V30 4708 H 447.767 6.27997 4.28396 0
M  V30 4709 N 449.342 -1.36122 0.79427 0
M  V30 4710 C 450.274 -2.28683 0.153903 0
M  V30 4711 C 451.287 -1.49707 -0.639669 0
M  V30 4712 O 452.476 -1.7209 -0.474054 0
M  V30 4713 C 449.576 -3.29202 -0.804921 0
M  V30 4714 C 448.749 -4.37358 -0.060366 0
M  V30 4715 C 447.808 -5.17811 -0.935849 0
M  V30 4716 O 446.834 -5.67853 -0.391309 0
M  V30 4717 N 448.036 -5.34721 -2.25951 0
M  V30 4718 H 450.801 -2.84278 0.949008 0
M  V30 4719 H 448.362 -1.4834 0.648611 0
M  V30 4720 H 450.354 -3.79914 -1.39455 0
M  V30 4721 H 448.924 -2.74212 -1.50088 0
M  V30 4722 H 448.144 -3.87746 0.710382 0
M  V30 4723 H 449.432 -5.06777 0.45324 0
M  V30 4724 H 448.83 -4.95687 -2.72601 0
M  V30 4725 H 447.387 -5.88657 -2.79867 0
M  V30 4726 N 450.82 -0.546701 -1.47814 0
M  V30 4727 C 451.75 0.195317 -2.32682 0
M  V30 4728 C 452.731 0.918981 -1.43139 0
M  V30 4729 O 453.916 0.901501 -1.72008 0
M  V30 4730 C 451.046 1.23237 -3.247 0
M  V30 4731 C 450 0.625818 -4.234 0
M  V30 4732 C 449.326 1.76674 -5.04669 0
M  V30 4733 C 450.626 -0.413515 -5.2066 0
M  V30 4734 H 452.32 -0.513184 -2.94969 0
M  V30 4735 H 449.866 -0.248241 -1.41844 0
M  V30 4736 H 451.819 1.75955 -3.82907 0
M  V30 4737 H 450.543 1.97067 -2.60446 0
M  V30 4738 H 449.202 0.120023 -3.66403 0
M  V30 4739 H 448.85 2.49383 -4.36826 0
M  V30 4740 H 448.55 1.36673 -5.71484 0
M  V30 4741 H 450.074 2.29738 -5.65732 0
M  V30 4742 H 451.488 0.0272042 -5.73294 0
M  V30 4743 H 449.885 -0.731825 -5.95621 0
M  V30 4744 H 450.955 -1.31325 -4.66778 0
M  V30 4745 N 452.299 1.55045 -0.282633 0
M  V30 4746 C 453.545 2.0078 0.325436 0
M  V30 4747 C 453.9 1.1676 1.52921 0
M  V30 4748 O 453.193 0.231475 1.90197 0
M  V30 4749 C 453.387 3.49422 0.750938 0
M  V30 4750 C 453.216 4.47827 -0.410056 0
M  V30 4751 C 451.986 4.97288 -0.896239 0
M  V30 4752 C 454.184 4.98903 -1.24902 0
M  V30 4753 N 452.166 5.79508 -2.02591 0
M  V30 4754 C 453.537 5.78644 -2.22646 0
M  V30 4755 C 455.592 4.81126 -1.2815 0
M  V30 4756 C 454.295 6.42502 -3.23393 0
M  V30 4757 C 456.321 5.45789 -2.27745 0
M  V30 4758 C 455.683 6.25348 -3.24222 0
M  V30 4759 H 451.782 0.77747 0.08405 0
M  V30 4760 H 454.366 1.90369 -0.408368 0
M  V30 4761 H 452.537 3.60159 1.45395 0
M  V30 4762 H 454.269 3.81978 1.33698 0
M  V30 4763 H 451.024 4.71219 -0.474277 0
M  V30 4764 H 451.448 6.25308 -2.59459 0
M  V30 4765 H 456.09 4.19215 -0.549397 0
M  V30 4766 H 453.808 7.03558 -3.97533 0
M  V30 4767 H 457.394 5.33972 -2.31009 0
M  V30 4768 H 456.274 6.74498 -4.00027 0
M  V30 4769 N 453.777 0.010035 1.57597 0
M  V30 4770 C 454.707 -0.976857 2.12084 0
M  V30 4771 C 455.688 -1.35191 1.03235 0
M  V30 4772 O 456.873 -1.43389 1.3097 0
M  V30 4773 C 454.003 -2.26548 2.63236 0
M  V30 4774 C 452.957 -2.03175 3.76701 0
M  V30 4775 C 452.283 -3.38138 4.14206 0
M  V30 4776 C 453.583 -1.38625 5.03568 0
M  V30 4777 H 455.277 -0.523145 2.94794 0
M  V30 4778 H 452.823 -0.250195 1.4181 0
M  V30 4779 H 454.776 -2.95952 2.99984 0
M  V30 4780 H 453.5 -2.74051 1.77661 0
M  V30 4781 H 452.159 -1.36195 3.40362 0
M  V30 4782 H 451.807 -3.83363 3.25641 0
M  V30 4783 H 451.507 -3.23312 4.90656 0
M  V30 4784 H 453.031 -4.08841 4.53521 0
M  V30 4785 H 454.445 -1.98 5.38023 0
M  V30 4786 H 452.842 -1.34256 5.84889 0
M  V30 4787 H 453.912 -0.356722 4.83586 0
M  V30 4788 N 455.255 -1.55392 -0.262866 0
M  V30 4789 C 456.485 -1.80251 -1.00961 0
M  V30 4790 C 456.893 -0.58117 -1.80053 0
M  V30 4791 O 456.236 0.459427 -1.77862 0
M  V30 4792 C 456.298 -2.98207 -2.00781 0
M  V30 4793 C 455.962 -4.34856 -1.40533 0
M  V30 4794 C 456.959 -5.13459 -0.815853 0
M  V30 4795 C 454.644 -4.8153 -1.42948 0
M  V30 4796 C 456.638 -6.36875 -0.258562 0
M  V30 4797 C 454.325 -6.04899 -0.868334 0
M  V30 4798 C 455.323 -6.8241 -0.283884 0
M  V30 4799 O 455.011 -8.03451 0.268644 0
M  V30 4800 H 454.743 -0.604049 -0.303482 0
M  V30 4801 H 457.297 -2.03257 -0.295926 0
M  V30 4802 H 455.527 -2.70917 -2.75936 0
M  V30 4803 H 457.216 -3.10299 -2.61667 0
M  V30 4804 H 457.982 -4.78526 -0.789812 0
M  V30 4805 H 453.861 -4.21201 -1.87378 0
M  V30 4806 H 457.405 -6.97318 0.198257 0
M  V30 4807 H 453.302 -6.39312 -0.891649 0
M  V30 4808 H 454.07 -8.18346 0.158974 0
M  V30 4809 N 456.733 0.527833 -1.48498 0
M  V30 4810 C 457.665 1.6482 -1.5927 0
M  V30 4811 C 458.678 1.55659 -0.476869 0
M  V30 4812 O 459.867 1.62081 -0.747806 0
M  V30 4813 C 456.967 3.0348 -1.50842 0
M  V30 4814 C 456.14 3.381 -2.77502 0
M  V30 4815 C 455.199 4.5605 -2.62497 0
M  V30 4816 O 454.225 4.59165 -3.36387 0
M  V30 4817 N 455.427 5.54353 -1.72257 0
M  V30 4818 H 458.192 1.56015 -2.55889 0
M  V30 4819 H 455.753 0.715152 -1.45249 0
M  V30 4820 H 457.745 3.80264 -1.38496 0
M  V30 4821 H 456.315 3.06352 -0.621887 0
M  V30 4822 H 455.535 2.50473 -3.04396 0
M  V30 4823 H 456.823 3.58017 -3.61527 0
M  V30 4824 H 456.221 5.54617 -1.11431 0
M  V30 4825 H 454.778 6.30347 -1.65849 0
M  V30 4826 N 458.211 1.37122 0.776871 0
M  V30 4827 C 459.159 1.32549 1.91138 0
M  V30 4828 C 460.153 0.215119 1.68029 0
M  V30 4829 O 461.359 0.382852 1.75881 0
M  V30 4830 H 457.734 0.412952 0.62847 0
M  V30 4831 H 459.705 2.28332 1.92112 0
M  V30 4832 C 458.454 1.14422 3.28333 0
M  V30 4833 H 457.777 1.99115 3.46689 0
M  V30 4834 H 459.217 1.15272 4.0803 0
M  V30 4835 C 457.676 -0.150434 3.36564 0
M  V30 4836 O 458.206 -1.13584 3.85307 0
M  V30 4837 N 456.412 -0.19939 2.89915 0
M  V30 4838 H 455.959 0.603142 2.5044 0
M  V30 4839 H 455.917 -1.06526 2.95803 0
M  V30 4840 N 459.689 -1.00246 1.21608 0
M  V30 4841 C 460.966 -1.71336 0.943568 0
M  V30 4842 C 461.346 -2.03972 -0.543943 0
M  V30 4843 O 460.694 -1.71545 -1.50946 0
M  V30 4844 C 460.904 -2.97094 1.83128 0
M  V30 4845 C 462.252 -3.70071 2.08165 0
M  V30 4846 O 463.276 -3.07081 1.80498 0
M  V30 4847 O 462.135 -4.83376 2.54971 0
M  V30 4848 H 459.229 -0.747386 0.354039 0
M  V30 4849 H 461.775 -1.05967 1.32549 0
M  V30 4850 H 460.547 -2.69407 2.83788 0
M  V30 4851 H 460.17 -3.70204 1.45034 0
M  V30 4852 N 461.167 -1.02423 -1.1978 0
M  V30 4853 C 462.415 -0.716569 -1.8897 0
M  V30 4854 C 462.736 0.756769 -1.79716 0
M  V30 4855 O 462.006 1.5449 -1.20456 0
M  V30 4856 H 460.586 -0.262062 -0.699523 0
M  V30 4857 H 463.248 -1.29747 -1.45436 0
M  V30 4858 H 462.344 -1.00675 -2.95417 0
M  V30 4859 N 462.645 1.35699 -0.801477 0
M  V30 4860 C 463.885 2.00741 -0.385027 0
M  V30 4861 C 464.249 1.62213 1.02718 0
M  V30 4862 O 465.45 2.19936 1.54537 0
M  V30 4863 C 463.721 3.53032 -0.557057 0
M  V30 4864 S 465.28 4.38195 -0.230272 0
M  V30 4865 H 462.098 0.695748 -0.146477 0
M  V30 4866 H 464.7 1.65378 -1.04261 0
M  V30 4867 H 463.404 3.7856 -1.58494 0
M  V30 4868 H 462.935 3.93229 0.116029 0
M  V30 4869 H 464.95 4.86748 0.963895 0
M  V30 4870 N 464.123 0.554532 1.47522 0
M  V30 4871 C 465.053 -0.182974 2.32782 0
M  V30 4872 C 466.034 -0.911377 1.43624 0
M  V30 4873 O 467.219 -0.892366 1.72483 0
M  V30 4874 C 464.349 -1.21513 3.25349 0
M  V30 4875 C 463.303 -0.603355 4.23726 0
M  V30 4876 C 462.629 -1.73995 5.05598 0
M  V30 4877 C 463.929 0.441121 5.20434 0
M  V30 4878 H 465.623 0.52882 2.94693 0
M  V30 4879 H 463.169 0.255759 1.41711 0
M  V30 4880 H 465.122 -1.73922 3.83835 0
M  V30 4881 H 463.846 -1.95683 2.61487 0
M  V30 4882 H 462.505 -0.10059 3.66462 0
M  V30 4883 H 462.153 -2.47063 4.38143 0
M  V30 4884 H 461.853 -1.3364 5.72201 0
M  V30 4885 H 463.377 -2.26735 5.66942 0
M  V30 4886 H 464.791 0.00319931 5.733 0
M  V30 4887 H 463.188 0.763402 5.95224 0
M  V30 4888 H 464.258 1.33799 4.66075 0
M  V30 4889 N 465.601 -1.54893 0.290851 0
M  V30 4890 C 466.847 -2.00949 -0.314784 0
M  V30 4891 C 467.202 -1.1757 -1.52299 0
M  V30 4892 O 466.495 -0.241558 -1.90071 0
M  V30 4893 C 466.689 -3.49815 -0.732397 0
M  V30 4894 C 466.518 -4.47603 0.433799 0
M  V30 4895 C 465.288 -4.96806 0.922599 0
M  V30 4896 C 467.486 -4.98233 1.27546 0
M  V30 4897 N 465.468 -5.78426 2.05662 0
M  V30 4898 C 466.839 -5.77455 2.25712 0
M  V30 4899 C 468.894 -4.80439 1.307 0
M  V30 4900 C 467.597 -6.40778 3.26796 0
M  V30 4901 C 469.623 -5.44574 2.30637 0
M  V30 4902 C 468.985 -6.23619 3.27533 0
M  V30 4903 H 465.084 -0.777905 -0.0799257 0
M  V30 4904 H 467.668 -1.9015 0.418458 0
M  V30 4905 H 465.839 -3.60925 -1.43483 0
M  V30 4906 H 467.571 -3.82681 -1.31671 0
M  V30 4907 H 464.326 -4.70961 0.49926 0
M  V30 4908 H 464.75 -6.23923 2.62772 0
M  V30 4909 H 469.392 -4.18918 0.571622 0
M  V30 4910 H 467.11 -7.01439 4.01258 0
M  V30 4911 H 470.696 -5.32739 2.33838 0
M  V30 4912 H 469.576 -6.72367 4.03599 0
M  V30 4913 N 467.08 -0.0183926 -1.57589 0
M  V30 4914 C 468.326 0.657813 -1.92469 0
M  V30 4915 C 468.681 1.70349 -0.894375 0
M  V30 4916 O 467.974 1.91384 0.0910389 0
M  V30 4917 C 468.168 1.32676 -3.31861 0
M  V30 4918 C 467.997 0.347403 -4.48356 0
M  V30 4919 C 466.767 -0.0488653 -5.05276 0
M  V30 4920 C 468.965 -0.393931 -5.12789 0
M  V30 4921 N 466.947 -1.02451 -6.05291 0
M  V30 4922 C 468.318 -1.22367 -6.07804 0
M  V30 4923 C 470.373 -0.455789 -4.95809 0
M  V30 4924 C 469.076 -2.10966 -6.87667 0
M  V30 4925 C 471.102 -1.32908 -5.76272 0
M  V30 4926 C 470.464 -2.14662 -6.70894 0
M  V30 4927 H 466.563 0.21335 -0.752334 0
M  V30 4928 H 469.147 -0.0830547 -1.94523 0
M  V30 4929 H 467.318 2.03782 -3.30647 0
M  V30 4930 H 469.05 1.95913 -3.54119 0
M  V30 4931 H 465.805 0.323356 -4.72495 0
M  V30 4932 H 466.229 -1.50826 -6.59985 0
M  V30 4933 H 470.871 0.162017 -4.22489 0
M  V30 4934 H 468.589 -2.73807 -7.603 0
M  V30 4935 H 472.175 -1.38109 -5.6517 0
M  V30 4936 H 471.055 -2.81143 -7.32071 0
M  V30 4937 N 468.558 1.5553 0.254621 0
M  V30 4938 C 469.783 1.81383 1.00573 0
M  V30 4939 C 470.208 0.594419 1.78461 0
M  V30 4940 O 469.566 -0.456403 1.75461 0
M  V30 4941 C 469.614 3.04892 1.92545 0
M  V30 4942 O 468.718 2.81266 3.01601 0
M  V30 4943 H 468.059 0.598969 0.286587 0
M  V30 4944 H 470.589 2.02703 0.277952 0
M  V30 4945 H 470.599 3.34119 2.34155 0
M  V30 4946 H 469.274 3.93287 1.3527 0
M  V30 4947 H 467.851 2.63185 2.64174 0
M  V30 4948 N 470.036 -0.519951 1.48776 0
M  V30 4949 C 471.447 -1.10177 1.50725 0
M  V30 4950 C 471.798 -1.94153 0.282678 0
M  V30 4951 O 470.923 -2.07645 -0.609298 0
M  V30 4952 C 471.518 -2.00482 2.73116 0
M  V30 4953 C 470.077 -2.53862 2.77905 0
M  V30 4954 C 469.224 -1.31047 2.44381 0
M  V30 4955 H 472.175 -0.30473 1.55747 0
M  V30 4956 H 472.196 -2.8491 2.52203 0
M  V30 4957 H 471.708 -1.39335 3.62225 0
M  V30 4958 H 469.809 -3.18702 1.93029 0
M  V30 4959 H 469.922 -2.9231 3.79594 0
M  V30 4960 H 468.286 -1.62953 1.95751 0
M  V30 4961 H 469.069 -0.71637 3.35743 0
M  V30 4962 N 471.514 -1.37532 -0.769588 0
M  V30 4963 C 472.754 -1.34261 -1.54122 0
M  V30 4964 C 473.118 0.0717222 -1.91866 0
M  V30 4965 O 474.319 0.22918 -2.67821 0
M  V30 4966 C 472.59 -2.2574 -2.77086 0
M  V30 4967 S 474.149 -2.40339 -3.67127 0
M  V30 4968 H 470.967 -0.476595 -0.527615 0
M  V30 4969 H 473.569 -1.73303 -0.90479 0
M  V30 4970 H 472.273 -3.27417 -2.4744 0
M  V30 4971 H 471.804 -1.87789 -3.45686 0
M  V30 4972 H 473.819 -1.61558 -4.69163 0
M  V30 4973 N 472.992 0.995999 -1.22138 0
M  V30 4974 C 474.22 1.77066 -1.07029 0
M  V30 4975 C 474.635 1.8495 0.379357 0
M  V30 4976 O 473.992 1.3174 1.26297 0
M  V30 4977 C 474.043 3.20533 -1.67155 0
M  V30 4978 O 473.764 3.13082 -3.06449 0
M  V30 4979 C 475.265 4.14461 -1.5728 0
M  V30 4980 H 472.485 0.556179 -0.375374 0
M  V30 4981 H 475.029 1.25238 -1.61666 0
M  V30 4982 H 473.184 3.6944 -1.16589 0
M  V30 4983 H 473.598 4.03283 -3.35355 0
M  V30 4984 H 475.072 5.1289 -2.04078 0
M  V30 4985 H 475.549 4.36005 -0.528795 0
M  V30 4986 H 476.155 3.71449 -2.07136 0
M  V30 4987 N 474.47 1.03057 1.19235 0
M  V30 4988 C 475.881 0.757449 1.70645 0
M  V30 4989 C 476.232 -0.722735 1.82403 0
M  V30 4990 O 475.357 -1.56325 1.49638 0
M  V30 4991 C 475.952 1.36833 3.09939 0
M  V30 4992 C 474.511 1.14375 3.58602 0
M  V30 4993 C 473.658 1.46533 2.35422 0
M  V30 4994 H 476.609 1.19828 1.04052 0
M  V30 4995 H 476.63 0.766184 3.72706 0
M  V30 4996 H 476.142 2.44562 3.01349 0
M  V30 4997 H 474.243 0.0847542 3.72504 0
M  V30 4998 H 474.356 1.83366 4.42622 0
M  V30 4999 H 472.72 0.884712 2.38841 0
M  V30 5000 H 473.503 2.55349 2.2946 0
M  V30 5001 N 475.948 -1.35272 0.808662 0
M  V30 5002 C 477.195 -1.98709 0.390003 0
M  V30 5003 C 477.523 -1.64148 -1.04335 0
M  V30 5004 O 476.778 -0.897797 -1.73891 0
M  V30 5005 C 477.077 -3.53556 0.522798 0
M  V30 5006 C 476.743 -4.0799 1.91977 0
M  V30 5007 C 475.405 -4.22568 2.30195 0
M  V30 5008 C 477.757 -4.37442 2.83361 0
M  V30 5009 C 475.085 -4.63918 3.59162 0
M  V30 5010 C 477.437 -4.80232 4.11776 0
M  V30 5011 C 476.101 -4.93016 4.49991 0
M  V30 5012 H 475.371 -0.727127 0.142712 0
M  V30 5013 H 478.018 -1.6145 1.02985 0
M  V30 5014 H 476.323 -3.91287 -0.200494 0
M  V30 5015 H 478.02 -4.00598 0.179608 0
M  V30 5016 H 474.61 -3.97096 1.61284 0
M  V30 5017 H 478.794 -4.25731 2.55083 0
M  V30 5018 H 474.05 -4.72005 3.88615 0
M  V30 5019 H 478.224 -5.01982 4.82687 0
M  V30 5020 H 475.851 -5.24814 5.49976 0
M  V30 5021 N 477.426 -0.562348 -1.47226 0
M  V30 5022 C 478.654 -0.0452275 -2.06851 0
M  V30 5023 C 479.069 1.25078 -1.41424 0
M  V30 5024 O 478.426 1.75156 -0.512513 0
M  V30 5025 C 478.477 0.148674 -3.61194 0
M  V30 5026 O 478.198 -1.09602 -4.24169 0
M  V30 5027 C 479.699 0.702488 -4.37699 0
M  V30 5028 H 476.919 -0.0481775 -0.669268 0
M  V30 5029 H 479.463 -0.777223 -1.89155 0
M  V30 5030 H 477.618 0.830817 -3.78386 0
M  V30 5031 H 478.032 -0.896982 -5.16773 0
M  V30 5032 H 479.506 0.78743 -5.46355 0
M  V30 5033 H 479.983 1.71493 -4.04335 0
M  V30 5034 H 480.589 0.0558772 -4.25263 0
M  V30 5035 N 478.904 1.54736 -0.299062 0
M  V30 5036 C 479.814 2.27127 0.587413 0
M  V30 5037 C 480.83 1.30575 1.15005 0
M  V30 5038 O 482.006 1.63554 1.17525 0
M  V30 5039 C 479.071 2.99645 1.74395 0
M  V30 5040 C 478.132 4.11731 1.21559 0
M  V30 5041 C 477.365 4.80781 2.317 0
M  V30 5042 O 477.588 4.4918 3.51558 0
M  V30 5043 O 476.522 5.68226 1.98501 0
M  V30 5044 H 480.348 3.037 0.000250109 0
M  V30 5045 H 477.933 1.49256 -0.0655919 0
M  V30 5046 H 479.815 3.45138 2.4178 0
M  V30 5047 H 478.49 2.25969 2.31775 0
M  V30 5048 H 477.397 3.70641 0.507514 0
M  V30 5049 H 478.73 4.87379 0.687233 0
M  V30 5050 N 480.382 0.0267497 1.57577 0
M  V30 5051 C 481.659 -0.690926 1.82991 0
M  V30 5052 C 482.039 -1.90471 0.910164 0
M  V30 5053 O 481.387 -2.28474 -0.0347985 0
M  V30 5054 C 481.597 -1.07139 3.32148 0
M  V30 5055 C 482.945 -1.46402 3.98562 0
M  V30 5056 O 483.969 -1.16443 3.36629 0
M  V30 5057 O 482.828 -2.02214 5.07712 0
M  V30 5058 H 479.922 -0.338747 0.75444 0
M  V30 5059 H 482.468 0.0542506 1.69613 0
M  V30 5060 H 481.24 -0.207394 3.9075 0
M  V30 5061 H 480.863 -1.87481 3.50623 0
M  V30 5062 N 481.861 -1.55662 -0.24637 0
M  V30 5063 C 483.272 -1.67953 -0.81539 0
M  V30 5064 C 483.623 -0.624302 -1.86002 0
M  V30 5065 O 482.748 0.229328 -2.15181 0
M  V30 5066 C 483.343 -3.04484 -1.48576 0
M  V30 5067 C 481.902 -3.18713 -2.00248 0
M  V30 5068 C 481.049 -2.6383 -0.853766 0
M  V30 5069 H 484 -1.58685 -0.0221692 0
M  V30 5070 H 484.021 -2.98959 -2.3538 0
M  V30 5071 H 483.533 -3.81264 -0.725222 0
M  V30 5072 H 481.634 -2.46757 -2.79181 0
M  V30 5073 H 481.747 -4.25628 -2.1995 0
M  V30 5074 H 480.111 -2.21667 -1.25442 0
M  V30 5075 H 480.894 -3.43135 -0.106302 0
M  V30 5076 N 483.339 0.512053 -1.4905 0
M  V30 5077 C 484.75 1.09376 -1.51307 0
M  V30 5078 C 485.101 1.94 -0.292971 0
M  V30 5079 O 484.226 2.07965 0.598277 0
M  V30 5080 C 484.821 1.99031 -2.74176 0
M  V30 5081 C 483.38 2.52385 -2.79247 0
M  V30 5082 C 482.527 1.29749 -2.45073 0
M  V30 5083 H 485.478 0.296467 -1.55906 0
M  V30 5084 H 485.499 2.83569 -2.53711 0
M  V30 5085 H 485.011 1.37412 -3.62959 0
M  V30 5086 H 483.112 3.17673 -1.94716 0
M  V30 5087 H 483.225 2.90293 -3.81139 0
M  V30 5088 H 481.589 1.61912 -1.96612 0
M  V30 5089 H 482.372 0.698555 -3.36118 0
M  V30 5090 N 484.817 1.37938 0.762283 0
M  V30 5091 C 485.78 1.34279 1.85747 0
M  V30 5092 C 486.78 0.244969 1.58923 0
M  V30 5093 O 487.97 0.501365 1.66829 0
M  V30 5094 C 485.102 1.08833 3.23061 0
M  V30 5095 H 486.295 2.31705 1.90401 0
M  V30 5096 H 483.848 1.23105 0.963057 0
M  V30 5097 H 484.583 0.119767 3.24079 0
M  V30 5098 H 484.368 1.88306 3.43923 0
M  V30 5099 H 485.858 1.08946 4.03138 0
M  V30 5100 N 486.295 -0.989507 1.22664 0
M  V30 5101 C 487.52 -1.77031 1.08051 0
M  V30 5102 C 487.945 -1.84535 -0.364483 0
M  V30 5103 O 487.303 -1.3003 -1.2634 0
M  V30 5104 C 487.351 -3.18 1.70024 0
M  V30 5105 O 486.455 -4.01161 0.956216 0
M  V30 5106 H 485.796 -0.545008 0.379292 0
M  V30 5107 H 488.326 -1.24277 1.62531 0
M  V30 5108 H 488.336 -3.68616 1.74888 0
M  V30 5109 H 487.011 -3.11853 2.75174 0
M  V30 5110 H 485.588 -3.59687 0.98384 0
M  V30 5111 N 487.773 -1.03688 -1.18687 0
M  V30 5112 C 488.703 -0.645407 -2.24403 0
M  V30 5113 C 489.684 0.349511 -1.66471 0
M  V30 5114 O 490.869 0.230453 -1.92828 0
M  V30 5115 C 487.999 -0.00365337 -3.473 0
M  V30 5116 C 486.953 -0.921705 -4.17958 0
M  V30 5117 C 486.279 -0.144629 -5.34504 0
M  V30 5118 C 487.579 -2.23909 -4.71871 0
M  V30 5119 H 489.273 -1.52917 -2.57404 0
M  V30 5120 H 486.819 -0.736711 -1.23728 0
M  V30 5121 H 488.772 0.281908 -4.20456 0
M  V30 5122 H 487.496 0.914963 -3.13522 0
M  V30 5123 H 486.155 -1.19159 -3.46694 0
M  V30 5124 H 485.803 0.776274 -4.96974 0
M  V30 5125 H 485.503 -0.756206 -5.82714 0
M  V30 5126 H 487.027 0.134004 -6.10453 0
M  V30 5127 H 488.441 -2.0145 -5.36741 0
M  V30 5128 H 486.838 -2.8033 -5.30599 0
M  V30 5129 H 487.908 -2.88822 -3.895 0
M  V30 5130 N 489.251 1.34841 -0.815825 0
M  V30 5131 C 490.161 2.33425 -0.234462 0
M  V30 5132 C 491.177 1.62295 0.627413 0
M  V30 5133 O 492.353 1.94109 0.536987 0
M  V30 5134 C 489.418 3.41471 0.599849 0
M  V30 5135 C 488.479 4.28362 -0.283596 0
M  V30 5136 C 487.712 5.31248 0.51099 0
M  V30 5137 O 487.935 5.43056 1.7449 0
M  V30 5138 O 486.869 6.01812 -0.10297 0
M  V30 5139 H 490.695 2.84962 -1.05024 0
M  V30 5140 H 488.28 1.37774 -0.577809 0
M  V30 5141 H 490.162 4.07464 1.07475 0
M  V30 5142 H 488.837 2.9219 1.39308 0
M  V30 5143 H 487.744 3.65318 -0.805836 0
M  V30 5144 H 489.077 4.81066 -1.041 0
M  V30 5145 N 490.729 0.570148 1.46925 0
M  V30 5146 C 491.975 0.0510284 2.02736 0
M  V30 5147 C 492.308 -1.3006 1.44215 0
M  V30 5148 O 491.583 -1.84932 0.602521 0
M  V30 5149 C 491.866 -0.028215 3.60089 0
M  V30 5150 C 491.719 1.35142 4.29018 0
M  V30 5151 C 493.038 -0.735181 4.33916 0
M  V30 5152 H 490.157 0.0200178 0.736728 0
M  V30 5153 H 492.799 0.73493 1.75211 0
M  V30 5154 H 490.949 -0.610648 3.83671 0
M  V30 5155 H 492.621 1.97806 4.16738 0
M  V30 5156 H 490.864 1.9226 3.88868 0
M  V30 5157 H 491.535 1.24857 5.37694 0
M  V30 5158 H 494.011 -0.240519 4.15404 0
M  V30 5159 H 492.887 -0.759622 5.43618 0
M  V30 5160 H 493.148 -1.79397 4.04066 0
M  V30 5161 N 492.207 -1.54576 0.307264 0
M  V30 5162 C 493.137 -2.26708 -0.55907 0
M  V30 5163 C 494.118 -1.26893 -1.1328 0
M  V30 5164 O 495.303 -1.55677 -1.16097 0
M  V30 5165 C 492.433 -3.01259 -1.72801 0
M  V30 5166 C 491.387 -4.08275 -1.28435 0
M  V30 5167 C 490.713 -4.70575 -2.53895 0
M  V30 5168 C 492.013 -5.2068 -0.411038 0
M  V30 5169 H 493.707 -2.9937 0.042576 0
M  V30 5170 H 491.253 -1.43983 0.0219173 0
M  V30 5171 H 493.206 -3.50444 -2.34023 0
M  V30 5172 H 491.93 -2.26187 -2.356 0
M  V30 5173 H 490.589 -3.59949 -0.695161 0
M  V30 5174 H 490.237 -3.92136 -3.15021 0
M  V30 5175 H 489.937 -5.42854 -2.24908 0
M  V30 5176 H 491.461 -5.22527 -3.15908 0
M  V30 5177 H 492.875 -5.65721 -0.929097 0
M  V30 5178 H 491.272 -5.99716 -0.214664 0
M  V30 5179 H 492.342 -4.81629 0.562287 0
M  V30 5180 N 493.685 -0.035106 -1.57561 0
M  V30 5181 C 494.91 0.655802 -1.96759 0
M  V30 5182 C 495.335 1.64523 -0.911809 0
M  V30 5183 O 494.693 1.80857 0.126673 0
M  V30 5184 C 494.741 1.33326 -3.35047 0
M  V30 5185 O 493.845 2.44866 -3.31835 0
M  V30 5186 H 493.186 0.171807 -0.641388 0
M  V30 5187 H 495.716 -0.0987369 -2.04362 0
M  V30 5188 H 495.726 1.68867 -3.71413 0
M  V30 5189 H 494.401 0.608033 -4.11431 0
M  V30 5190 H 492.978 2.11392 -3.07193 0
M  V30 5191 N 495.163 1.55791 0.238111 0
M  V30 5192 C 496.073 1.94196 1.31625 0
M  V30 5193 C 497.089 0.843545 1.52185 0
M  V30 5194 O 498.265 1.1457 1.65637 0
M  V30 5195 C 495.33 2.2365 2.64918 0
M  V30 5196 C 494.391 3.46971 2.52804 0
M  V30 5197 C 493.624 3.7501 3.79741 0
M  V30 5198 O 493.847 3.04982 4.82019 0
M  V30 5199 O 492.781 4.68525 3.77846 0
M  V30 5200 H 496.607 2.86044 1.02043 0
M  V30 5201 H 494.192 1.42786 0.439603 0
M  V30 5202 H 496.074 2.43863 3.4367 0
M  V30 5203 H 494.749 1.34979 2.94215 0
M  V30 5204 H 493.656 3.32055 1.72309 0
M  V30 5205 H 494.989 4.35971 2.28451 0
M  V30 5206 N 496.642 -0.504142 1.49319 0
M  V30 5207 C 498.058 -0.835039 1.36012 0
M  V30 5208 C 498.258 -1.97674 0.390808 0
M  V30 5209 O 497.314 -2.51867 -0.178655 0
M  V30 5210 C 498.627 -1.17821 2.76656 0
M  V30 5211 C 500.175 -1.2866 2.85334 0
M  V30 5212 C 500.65 -1.66307 4.26739 0
M  V30 5213 N 502.141 -1.73362 4.29534 0
M  V30 5214 C 502.876 -2.0393 5.35911 0
M  V30 5215 N 502.372 -2.32744 6.52535 0
M  V30 5216 N 504.165 -2.05155 5.23324 0
M  V30 5217 H 496.316 0.248764 2.10938 0
M  V30 5218 H 498.579 0.0486962 0.946748 0
M  V30 5219 H 498.285 -0.412682 3.4927 0
M  V30 5220 H 498.159 -2.12239 3.11825 0
M  V30 5221 H 500.546 -2.04285 2.1296 0
M  V30 5222 H 500.627 -0.323004 2.53752 0
M  V30 5223 H 500.271 -0.91234 4.99639 0
M  V30 5224 H 500.201 -2.63761 4.55782 0
M  V30 5225 H 502.692 -1.53268 3.45424 0
M  V30 5226 H 503.005 -2.55248 7.2943 0
M  V30 5227 H 501.35 -2.30207 6.55767 0
M  V30 5228 H 504.541 -1.82119 4.3122 0
M  V30 5229 H 504.714 -2.28644 6.06322 0
M  V30 5230 N 498.12 -1.38341 -0.754957 0
M  V30 5231 C 499.36 -1.35888 -1.52689 0
M  V30 5232 C 499.724 0.0513682 -1.91931 0
M  V30 5233 O 500.925 0.200761 -2.68049 0
M  V30 5234 C 499.196 -2.28666 -2.74676 0
M  V30 5235 S 500.755 -2.4422 -3.64558 0
M  V30 5236 H 497.573 -0.482165 -0.522531 0
M  V30 5237 H 500.175 -1.74253 -0.886358 0
M  V30 5238 H 498.879 -3.30023 -2.43953 0
M  V30 5239 H 498.41 -1.91445 -3.43675 0
M  V30 5240 H 500.425 -1.66525 -4.67423 0
M  V30 5241 N 499.598 0.982988 -1.23187 0
M  V30 5242 C 500.844 1.7273 -1.07405 0
M  V30 5243 C 501.199 1.885 0.385447 0
M  V30 5244 O 500.492 1.4243 1.28157 0
M  V30 5245 C 500.686 3.12736 -1.73006 0
M  V30 5246 C 500.515 3.10621 -3.25184 0
M  V30 5247 C 499.285 3.15957 -3.94334 0
M  V30 5248 C 501.483 2.93992 -4.21987 0
M  V30 5249 N 499.465 3.03701 -5.33516 0
M  V30 5250 C 500.836 2.8987 -5.48065 0
M  V30 5251 C 502.891 2.78457 -4.12754 0
M  V30 5252 C 501.594 2.71804 -6.65969 0
M  V30 5253 C 503.62 2.61754 -5.30319 0
M  V30 5254 C 502.982 2.58328 -6.55321 0
M  V30 5255 H 499.081 0.641279 -0.447533 0
M  V30 5256 H 501.665 1.16664 -1.55877 0
M  V30 5257 H 499.836 3.67026 -1.2707 0
M  V30 5258 H 501.568 3.75786 -1.50224 0
M  V30 5259 H 498.323 3.24034 -3.45397 0
M  V30 5260 H 498.747 3.00855 -6.06478 0
M  V30 5261 H 503.389 2.79898 -3.16886 0
M  V30 5262 H 501.107 2.69108 -7.61975 0
M  V30 5263 H 504.693 2.50702 -5.25014 0
M  V30 5264 H 503.573 2.45564 -7.4476 0
M  V30 5265 N 501.076 1.04316 1.18135 0
M  V30 5266 C 502.324 0.746542 1.87806 0
M  V30 5267 C 502.645 -0.728082 1.80898 0
M  V30 5268 O 501.915 -1.52554 1.22899 0
M  V30 5269 H 500.495 0.273157 0.695265 0
M  V30 5270 H 503.157 1.32044 1.43354 0
M  V30 5271 H 502.253 1.05362 2.93778 0
M  V30 5272 N 502.554 -1.34406 0.822964 0
M  V30 5273 C 503.782 -2.02508 0.424039 0
M  V30 5274 C 504.197 -1.61975 -0.970022 0
M  V30 5275 O 503.554 -0.825228 -1.62777 0
M  V30 5276 C 503.605 -3.57789 0.516657 0
M  V30 5277 O 503.326 -3.96853 1.85577 0
M  V30 5278 C 504.827 -4.43157 0.112637 0
M  V30 5279 H 502.047 -0.649063 0.170173 0
M  V30 5280 H 504.591 -1.7168 1.11113 0
M  V30 5281 H 502.746 -3.87207 -0.122353 0
M  V30 5282 H 503.16 -4.91538 1.83005 0
M  V30 5283 H 504.634 -5.51527 0.228526 0
M  V30 5284 H 505.111 -4.28939 -0.943837 0
M  V30 5285 H 505.717 -4.19067 0.725449 0
M  V30 5286 N 504.032 -0.577932 -1.46621 0
M  V30 5287 C 504.965 0.206312 -2.27265 0
M  V30 5288 C 505.943 0.901306 -1.35334 0
M  V30 5289 O 507.127 0.916151 -1.64739 0
M  V30 5290 C 504.254 1.29563 -3.1294 0
M  V30 5291 C 503.3 0.706981 -4.206 0
M  V30 5292 S 504.133 -0.462459 -5.33499 0
M  V30 5293 C 505.289 0.628171 -6.2274 0
M  V30 5294 H 505.522 -0.477961 -2.93433 0
M  V30 5295 H 503.055 -0.364715 -1.50031 0
M  V30 5296 H 505.013 1.91935 -3.62865 0
M  V30 5297 H 503.674 1.95183 -2.46095 0
M  V30 5298 H 502.867 1.52565 -4.80354 0
M  V30 5299 H 502.469 0.159022 -3.73662 0
M  V30 5300 H 504.761 1.51506 -6.60342 0
M  V30 5301 H 505.704 0.0674961 -7.08068 0
M  V30 5302 H 506.112 0.930167 -5.56784 0
M  V30 5303 N 505.51 1.54411 -0.315457 0
M  V30 5304 C 506.442 2.21527 0.588067 0
M  V30 5305 C 507.455 1.21263 1.08624 0
M  V30 5306 O 508.644 1.47777 1.00121 0
M  V30 5307 C 505.744 2.85963 1.81875 0
M  V30 5308 C 504.917 4.12291 1.46063 0
M  V30 5309 C 503.976 4.60396 2.54799 0
M  V30 5310 O 503.002 5.25265 2.19283 0
M  V30 5311 N 504.204 4.33935 3.85591 0
M  V30 5312 H 506.969 2.99697 0.013414 0
M  V30 5313 H 504.53 1.61308 -0.138295 0
M  V30 5314 H 506.522 3.15071 2.53993 0
M  V30 5315 H 505.092 2.11548 2.30144 0
M  V30 5316 H 504.312 3.90036 0.571445 0
M  V30 5317 H 505.6 4.9452 1.19695 0
M  V30 5318 H 504.998 3.81996 4.17248 0
M  V30 5319 H 503.555 4.67718 4.53964 0
M  V30 5320 N 506.988 0.0434614 1.5754 0
M  V30 5321 C 507.951 -0.918696 2.09982 0
M  V30 5322 C 508.951 -1.24488 1.01781 0
M  V30 5323 O 510.141 -1.18284 1.27885 0
M  V30 5324 C 507.273 -2.23093 2.57764 0
M  V30 5325 H 508.466 -0.464229 2.96285 0
M  V30 5326 H 506.019 -0.204818 1.54952 0
M  V30 5327 H 506.754 -2.73137 1.74832 0
M  V30 5328 H 506.539 -2.00724 3.36827 0
M  V30 5329 H 508.029 -2.92028 2.98512 0
M  V30 5330 N 508.466 -1.55915 -0.229846 0
M  V30 5331 C 509.712 -1.78807 -0.956868 0
M  V30 5332 C 510.045 -0.611687 -1.84315 0
M  V30 5333 O 509.32 0.389398 -1.90562 0
M  V30 5334 C 509.603 -3.11718 -1.80288 0
M  V30 5335 C 509.456 -4.3979 -0.943649 0
M  V30 5336 C 510.775 -3.40999 -2.78222 0
M  V30 5337 H 507.894 -0.6505 -0.346437 0
M  V30 5338 H 510.536 -1.88648 -0.226252 0
M  V30 5339 H 508.686 -3.03459 -2.42579 0
M  V30 5340 H 510.358 -4.60059 -0.338121 0
M  V30 5341 H 508.601 -4.33086 -0.248705 0
M  V30 5342 H 509.272 -5.29208 -1.5698 0
M  V30 5343 H 511.748 -3.49332 -2.26067 0
M  V30 5344 H 510.624 -4.35183 -3.34526 0
M  V30 5345 H 510.885 -2.62754 -3.55546 0
M  V30 5346 N 509.944 0.496216 -1.49584 0
M  V30 5347 C 510.854 1.62352 -1.69349 0
M  V30 5348 C 511.87 1.64184 -0.576147 0
M  V30 5349 O 513.046 1.82517 -0.85144 0
M  V30 5350 C 510.111 2.98698 -1.76013 0
M  V30 5351 C 509.172 3.07454 -2.99617 0
M  V30 5352 C 508.405 4.37296 -3.05953 0
M  V30 5353 O 508.628 5.2637 -2.19752 0
M  V30 5354 O 507.562 4.51124 -3.9846 0
M  V30 5355 H 511.388 1.48606 -2.64859 0
M  V30 5356 H 508.973 0.673022 -1.33382 0
M  V30 5357 H 510.855 3.79725 -1.82721 0
M  V30 5358 H 509.53 3.12696 -0.836828 0
M  V30 5359 H 508.437 2.25597 -2.98424 0
M  V30 5360 H 509.77 2.98385 -3.91443 0
M  V30 5361 N 511.423 1.38739 0.74761 0
M  V30 5362 C 512.834 1.31507 1.32524 0
M  V30 5363 C 513.185 -0.0263963 1.96182 0
M  V30 5364 O 512.31 -0.92849 1.95469 0
M  V30 5365 C 512.905 2.38162 2.40966 0
M  V30 5366 C 511.464 2.34489 2.94434 0
M  V30 5367 C 510.611 2.20712 1.67873 0
M  V30 5368 H 513.562 1.4901 0.546043 0
M  V30 5369 H 513.583 2.04222 3.21051 0
M  V30 5370 H 513.095 3.35783 1.94605 0
M  V30 5371 H 511.196 1.40467 3.45108 0
M  V30 5372 H 511.309 3.28861 3.48407 0
M  V30 5373 H 509.673 1.67667 1.91729 0
M  V30 5374 H 510.456 3.20285 1.23582 0
M  V30 5375 N 512.901 -0.976442 1.23707 0
M  V30 5376 C 514.149 -1.71487 1.06942 0
M  V30 5377 C 514.47 -1.9098 -0.393897 0
M  V30 5378 O 513.74 -1.48128 -1.28198 0
M  V30 5379 H 512.32 -0.635425 0.392739 0
M  V30 5380 H 514.982 -1.17515 1.55487 0
M  V30 5381 H 514.078 -2.70286 1.56051 0
M  V30 5382 N 514.379 -1.04941 -1.1758 0
M  V30 5383 C 515.607 -0.778294 -1.91703 0
M  V30 5384 C 516.022 0.665697 -1.76675 0
M  V30 5385 O 515.379 1.45456 -1.10222 0
M  V30 5386 C 515.43 -1.14628 -3.42845 0
M  V30 5387 O 515.151 -2.53359 -3.57409 0
M  V30 5388 C 516.652 -0.900931 -4.34049 0
M  V30 5389 H 513.872 -0.283167 -0.608323 0
M  V30 5390 H 516.416 -1.39942 -1.49119 0
M  V30 5391 H 514.571 -0.569953 -3.83184 0
M  V30 5392 H 514.985 -2.67709 -4.51035 0
M  V30 5393 H 516.459 -1.20817 -5.38616 0
M  V30 5394 H 516.936 0.163966 -4.38894 0
M  V30 5395 H 517.542 -1.46097 -3.99419 0
M  V30 5396 N 515.857 1.33968 -0.830081 0
M  V30 5397 C 517.134 1.92554 -0.343858 0
M  V30 5398 C 517.514 1.7573 1.16971 0
M  V30 5399 O 516.862 1.14035 1.98011 0
M  V30 5400 C 517.072 3.40147 -0.781073 0
M  V30 5401 C 518.42 4.17299 -0.78402 0
M  V30 5402 O 519.444 3.48762 -0.724112 0
M  V30 5403 O 518.303 5.39631 -0.863739 0
M  V30 5404 H 515.397 0.821469 -0.0954827 0
M  V30 5405 H 517.943 1.42897 -0.915348 0
M  V30 5406 H 516.715 3.46225 -1.82329 0
M  V30 5407 H 516.338 3.97166 -0.18567 0
M  V30 5408 N 517.335 0.585699 1.46312 0
M  V30 5409 C 518.612 0.00542031 1.95599 0
M  V30 5410 C 518.992 -1.45619 1.52834 0
M  V30 5411 O 518.34 -2.14759 0.780446 0
M  V30 5412 C 518.55 0.180601 3.48532 0
M  V30 5413 C 519.898 0.049979 4.24571 0
M  V30 5414 O 520.922 0.109589 3.56031 0
M  V30 5415 O 519.781 -0.0832226 5.46437 0
M  V30 5416 H 516.875 -0.0481281 0.825598 0
M  V30 5417 H 519.421 0.654227 1.56582 0
M  V30 5418 H 518.193 1.19657 3.72556 0
M  V30 5419 H 517.816 -0.504498 3.94386 0
M  V30 5420 N 518.813 -1.54241 0.323641 0
M  V30 5421 C 519.723 -2.28033 -0.551205 0
M  V30 5422 C 520.739 -1.32388 -1.12913 0
M  V30 5423 O 521.915 -1.65403 -1.14908 0
M  V30 5424 C 518.98 -3.02382 -1.69606 0
M  V30 5425 C 518.041 -4.13612 -1.14993 0
M  V30 5426 C 517.274 -4.84407 -2.24022 0
M  V30 5427 O 517.497 -4.54716 -3.44368 0
M  V30 5428 O 516.431 -5.71312 -1.89436 0
M  V30 5429 H 520.257 -3.03662 0.048066 0
M  V30 5430 H 517.842 -1.49133 0.0893289 0
M  V30 5431 H 519.724 -3.48941 -2.36259 0
M  V30 5432 H 518.399 -2.29628 -2.28151 0
M  V30 5433 H 517.306 -3.71402 -0.448484 0
M  V30 5434 H 518.639 -4.8841 -0.609608 0
M  V30 5435 N 520.291 -0.0518155 -1.57515 0
M  V30 5436 C 521.539 0.620595 -1.92336 0
M  V30 5437 C 521.86 1.71345 -0.930907 0
M  V30 5438 O 521.13 1.95885 0.0241341 0
M  V30 5439 H 519.71 0.232226 -0.709986 0
M  V30 5440 H 522.372 -0.104969 -1.94617 0
M  V30 5441 H 521.468 1.05879 -2.93592 0
M  V30 5442 N 521.769 1.56035 0.221574 0
M  V30 5443 C 523.18 1.69229 0.788567 0
M  V30 5444 C 523.531 0.653814 1.84986 0
M  V30 5445 O 522.656 -0.195065 2.15519 0
M  V30 5446 C 523.251 3.06809 1.43713 0
M  V30 5447 C 521.81 3.21858 1.95152 0
M  V30 5448 C 520.957 2.65155 0.811685 0
M  V30 5449 H 523.908 1.587 -0.00307894 0
M  V30 5450 H 523.929 3.02666 2.30594 0
M  V30 5451 H 523.441 3.82369 0.664475 0
M  V30 5452 H 521.542 2.51167 2.7522 0
M  V30 5453 H 521.655 4.29073 2.1315 0
M  V30 5454 H 520.019 2.23635 1.21899 0
M  V30 5455 H 520.802 3.43261 0.0516987 0
M  V30 5456 N 523.247 -0.488276 1.49845 0
M  V30 5457 C 524.177 -1.59675 1.70371 0
M  V30 5458 C 525.158 -1.60878 0.552473 0
M  V30 5459 O 526.343 -1.77417 0.78973 0
M  V30 5460 C 523.473 -2.98098 1.782 0
M  V30 5461 C 522.427 -3.11761 2.93239 0
M  V30 5462 C 521.753 -4.51661 2.86193 0
M  V30 5463 C 523.053 -2.90589 4.33999 0
M  V30 5464 H 524.747 -1.42752 2.63177 0
M  V30 5465 H 522.293 -0.685317 1.26647 0
M  V30 5466 H 524.246 -3.75555 1.91144 0
M  V30 5467 H 522.97 -3.16138 0.820018 0
M  V30 5468 H 521.629 -2.36732 2.79917 0
M  V30 5469 H 521.277 -4.66595 1.87877 0
M  V30 5470 H 520.977 -4.61742 3.63412 0
M  V30 5471 H 522.501 -5.31162 3.01163 0
M  V30 5472 H 523.915 -3.57807 4.47936 0
M  V30 5473 H 522.312 -3.1213 5.12538 0
M  V30 5474 H 523.382 -1.86595 4.4756 0
M  V30 5475 N 524.725 -1.39134 -0.740242 0
M  V30 5476 C 525.655 -1.40165 -1.86751 0
M  V30 5477 C 526.636 -0.265708 -1.68012 0
M  V30 5478 O 527.821 -0.47076 -1.88408 0
M  V30 5479 C 524.951 -1.2392 -3.2444 0
M  V30 5480 C 523.905 -2.34858 -3.57807 0
M  V30 5481 C 523.231 -2.03707 -4.94376 0
M  V30 5482 C 524.531 -3.77159 -3.61315 0
M  V30 5483 H 526.225 -2.345 -1.86145 0
M  V30 5484 H 523.771 -1.12875 -0.89416 0
M  V30 5485 H 525.724 -1.23263 -4.02969 0
M  V30 5486 H 524.448 -0.26051 -3.25559 0
M  V30 5487 H 523.107 -2.34723 -2.81604 0
M  V30 5488 H 522.755 -1.04289 -4.9207 0
M  V30 5489 H 522.455 -2.78016 -5.17669 0
M  V30 5490 H 523.979 -2.04691 -5.75268 0
M  V30 5491 H 525.393 -3.79252 -4.29931 0
M  V30 5492 H 523.79 -4.50784 -3.96124 0
M  V30 5493 H 524.86 -4.08513 -2.61238 0
M  V30 5494 N 526.204 0.969867 -1.24223 0
M  V30 5495 C 527.114 2.09806 -1.0497 0
M  V30 5496 C 528.13 1.73998 0.00886455 0
M  V30 5497 O 529.306 2.00513 -0.188848 0
M  V30 5498 C 526.371 3.40467 -0.654452 0
M  V30 5499 C 525.432 3.90236 -1.78926 0
M  V30 5500 C 524.665 5.14662 -1.41277 0
M  V30 5501 O 524.888 5.69602 -0.301632 0
M  V30 5502 O 523.822 5.58761 -2.23763 0
M  V30 5503 H 527.648 2.28942 -1.99548 0
M  V30 5504 H 525.233 1.08197 -1.03023 0
M  V30 5505 H 527.115 4.19039 -0.445452 0
M  V30 5506 H 525.79 3.22636 0.262216 0
M  V30 5507 H 524.697 3.12735 -2.05299 0
M  V30 5508 H 526.03 4.1254 -2.68462 0
M  V30 5509 N 527.682 1.05563 1.17022 0
M  V30 5510 C 529.093 0.793475 1.69 0
M  V30 5511 C 529.444 -0.683882 1.83895 0
M  V30 5512 O 528.569 -1.53116 1.5292 0
M  V30 5513 C 529.164 1.43376 3.06967 0
M  V30 5514 C 527.723 1.21956 3.56095 0
M  V30 5515 C 526.87 1.51494 2.3226 0
M  V30 5516 H 529.821 1.22008 1.01487 0
M  V30 5517 H 529.842 0.845068 3.70997 0
M  V30 5518 H 529.354 2.50899 2.96093 0
M  V30 5519 H 527.455 0.163749 3.7224 0
M  V30 5520 H 527.568 1.92713 4.38633 0
M  V30 5521 H 525.932 0.935175 2.3691 0
M  V30 5522 H 526.715 2.60159 2.23992 0
M  V30 5523 N 529.16 -1.33526 0.837174 0
M  V30 5524 C 530.406 -1.9813 0.432704 0
M  V30 5525 C 530.739 -1.66168 -1.00508 0
M  V30 5526 O 530.014 -0.94069 -1.70239 0
M  V30 5527 C 530.297 -3.54151 0.651834 0
M  V30 5528 C 530.15 -3.95806 2.13676 0
M  V30 5529 C 531.469 -4.39993 0.0968937 0
M  V30 5530 H 528.588 -0.719713 0.15869 0
M  V30 5531 H 531.23 -1.58193 1.05237 0
M  V30 5532 H 529.38 -3.88301 0.124369 0
M  V30 5533 H 531.052 -3.71921 2.72896 0
M  V30 5534 H 529.295 -3.45599 2.62191 0
M  V30 5535 H 529.966 -5.0447 2.24084 0
M  V30 5536 H 532.442 -4.12479 0.547733 0
M  V30 5537 H 531.318 -5.48186 0.279917 0
M  V30 5538 H 531.579 -4.3066 -0.9992 0
M  V30 5539 N 530.638 -0.59345 -1.46 0
M  V30 5540 C 531.886 -0.082988 -2.0193 0
M  V30 5541 C 532.207 1.28569 -1.46612 0
M  V30 5542 O 531.477 1.84629 -0.654909 0
M  V30 5543 H 530.057 -0.0276882 -0.746487 0
M  V30 5544 H 532.719 -0.771657 -1.78973 0
M  V30 5545 H 531.815 -0.022079 -3.12092 0
M  V30 5546 N 532.116 1.54067 -0.331816 0
M  V30 5547 C 533.341 2.05599 0.272705 0
M  V30 5548 C 533.766 1.2059 1.44359 0
M  V30 5549 O 533.124 0.216907 1.79998 0
M  V30 5550 C 533.172 3.54188 0.677021 0
M  V30 5551 O 532.276 3.72082 1.77844 0
M  V30 5552 H 531.617 0.662286 0.0476801 0
M  V30 5553 H 534.147 1.98826 -0.482624 0
M  V30 5554 H 534.157 3.96608 0.957415 0
M  V30 5555 H 532.832 4.15513 -0.179325 0
M  V30 5556 H 531.409 3.41566 1.49622 0
M  V30 5557 N 533.594 0.0601682 1.57485 0
M  V30 5558 C 534.504 -0.926121 2.15546 0
M  V30 5559 C 535.52 -1.33532 1.11558 0
M  V30 5560 O 536.696 -1.4104 1.4377 0
M  V30 5561 C 533.761 -2.17952 2.69625 0
M  V30 5562 C 532.822 -1.82783 3.88444 0
M  V30 5563 C 532.055 -3.02148 4.39935 0
M  V30 5564 O 532.278 -4.15803 3.90466 0
M  V30 5565 O 531.212 -2.82639 5.31412 0
M  V30 5566 H 535.038 -0.462289 3.00161 0
M  V30 5567 H 532.623 -0.162246 1.48516 0
M  V30 5568 H 534.505 -2.91474 3.04337 0
M  V30 5569 H 533.18 -2.63456 1.88077 0
M  V30 5570 H 532.087 -1.06549 3.58606 0
M  V30 5571 H 533.42 -1.42072 4.7125 0
M  V30 5572 N 535.072 -1.5615 -0.213296 0
M  V30 5573 C 536.022 -1.89485 -1.26804 0
M  V30 5574 C 537.006 -0.758713 -1.41889 0
M  V30 5575 O 538.198 -1.02127 -1.44565 0
M  V30 5576 C 535.327 -2.22219 -2.61675 0
M  V30 5577 C 534.413 -3.42245 -2.50458 0
M  V30 5578 N 534.804 -4.60645 -2.089 0
M  V30 5579 C 533.102 -3.46023 -2.81397 0
M  V30 5580 C 533.803 -5.42805 -2.09135 0
M  V30 5581 N 532.779 -4.82732 -2.49941 0
M  V30 5582 H 536.581 -2.78537 -0.937771 0
M  V30 5583 H 534.095 -1.56826 -0.421824 0
M  V30 5584 H 536.092 -2.44278 -3.37837 0
M  V30 5585 H 534.752 -1.34484 -2.95541 0
M  V30 5586 H 535.763 -4.85651 -1.79899 0
M  V30 5587 H 532.44 -2.68654 -3.1958 0
M  V30 5588 H 533.83 -6.47601 -1.79059 0
M  V30 5589 N 536.55 0.480323 -1.50102 0
M  V30 5590 C 537.513 1.56181 -1.6775 0
M  V30 5591 C 538.513 1.51156 -0.548503 0
M  V30 5592 O 539.703 1.5394 -0.815363 0
M  V30 5593 C 536.835 2.95823 -1.69415 0
M  V30 5594 H 538.028 1.41855 -2.6423 0
M  V30 5595 H 535.581 0.70605 -1.39444 0
M  V30 5596 H 536.316 3.15604 -0.745948 0
M  V30 5597 H 536.101 3.00878 -2.51425 0
M  V30 5598 H 537.591 3.74359 -1.85054 0
M  V30 5599 N 538.028 1.39524 0.732853 0
M  V30 5600 C 538.96 1.34318 1.85718 0
M  V30 5601 C 539.973 0.251576 1.60844 0
M  V30 5602 O 541.162 0.510685 1.71039 0
M  V30 5603 C 538.262 1.06334 3.21786 0
M  V30 5604 C 537.435 2.26813 3.73998 0
M  V30 5605 C 536.494 1.95253 4.88634 0
M  V30 5606 O 535.52 2.67957 5.02183 0
M  V30 5607 N 536.722 0.919984 5.73164 0
M  V30 5608 H 539.487 2.3121 1.90688 0
M  V30 5609 H 537.048 1.33654 0.91368 0
M  V30 5610 H 539.04 0.832363 3.96048 0
M  V30 5611 H 537.61 0.181682 3.12072 0
M  V30 5612 H 536.83 2.65849 2.91064 0
M  V30 5613 H 538.118 3.0717 4.05616 0
M  V30 5614 H 537.516 0.317487 5.64808 0
M  V30 5615 H 536.073 0.748905 6.47483 0
M  V30 5616 N 539.506 -0.963266 1.24736 0
M  V30 5617 C 540.783 -1.68248 0.9976 0
M  V30 5618 C 541.163 -2.05599 -0.478776 0
M  V30 5619 O 540.511 -1.7626 -1.45412 0
M  V30 5620 C 540.721 -2.91118 1.92487 0
M  V30 5621 C 542.069 -3.63261 2.19833 0
M  V30 5622 O 543.093 -3.01184 1.90176 0
M  V30 5623 O 541.952 -4.75019 2.7022 0
M  V30 5624 H 539.046 -0.735744 0.377637 0
M  V30 5625 H 541.592 -1.01696 1.35853 0
M  V30 5626 H 540.364 -2.60242 2.92215 0
M  V30 5627 H 539.987 -3.65402 1.56738 0
M  V30 5628 N 540.985 -1.06182 -1.16461 0
M  V30 5629 C 542.213 -0.798583 -1.90867 0
M  V30 5630 C 542.628 0.646921 -1.77371 0
M  V30 5631 O 541.985 1.44279 -1.11758 0
M  V30 5632 C 542.036 -1.18258 -3.4161 0
M  V30 5633 O 541.757 -2.57135 -3.54701 0
M  V30 5634 C 543.258 -0.946917 -4.33069 0
M  V30 5635 H 540.478 -0.289603 -0.605286 0
M  V30 5636 H 543.022 -1.41515 -1.47627 0
M  V30 5637 H 541.177 -0.610562 -3.82558 0
M  V30 5638 H 541.591 -2.72477 -4.4817 0
M  V30 5639 H 543.065 -1.26523 -5.37304 0
M  V30 5640 H 543.542 0.117406 -4.39043 0
M  V30 5641 H 544.148 -1.50326 -3.97847 0
M  V30 5642 N 542.463 1.3308 -0.844243 0
M  V30 5643 C 543.693 2.01515 -0.455541 0
M  V30 5644 C 544.101 1.63655 0.949406 0
M  V30 5645 O 543.444 0.84848 1.62931 0
M  V30 5646 C 543.506 3.55967 -0.502801 0
M  V30 5647 C 543.17 4.17222 -1.86481 0
M  V30 5648 C 544.167 4.36205 -2.8288 0
M  V30 5649 C 541.852 4.53528 -2.15911 0
M  V30 5650 C 543.846 4.90649 -4.06869 0
M  V30 5651 C 541.533 5.07679 -3.40155 0
M  V30 5652 C 542.531 5.26186 -4.35451 0
M  V30 5653 O 542.219 5.79183 -5.57496 0
M  V30 5654 H 541.951 0.65199 -0.178565 0
M  V30 5655 H 544.505 1.70867 -1.1399 0
M  V30 5656 H 542.735 3.85965 0.23836 0
M  V30 5657 H 544.424 4.05688 -0.131169 0
M  V30 5658 H 545.19 4.085 -2.61444 0
M  V30 5659 H 541.069 4.38414 -1.42528 0
M  V30 5660 H 544.613 5.0501 -4.81259 0
M  V30 5661 H 540.51 5.34815 -3.61446 0
M  V30 5662 H 541.278 5.97591 -5.5931 0
M  V30 5663 N 543.941 0.601185 1.45683 0
M  V30 5664 C 544.871 -0.108824 2.33246 0
M  V30 5665 C 545.852 -0.865223 1.46451 0
M  V30 5666 O 547.037 -0.83704 1.75235 0
M  V30 5667 C 544.167 -1.11101 3.2905 0
M  V30 5668 C 543.121 -0.468244 4.25431 0
M  V30 5669 C 542.447 -1.57822 5.10878 0
M  V30 5670 C 543.747 0.606469 5.18767 0
M  V30 5671 H 545.441 0.622306 2.92861 0
M  V30 5672 H 542.987 0.300714 1.40825 0
M  V30 5673 H 544.94 -1.61622 3.89174 0
M  V30 5674 H 543.664 -1.87265 2.67581 0
M  V30 5675 H 542.323 0.0160484 3.66596 0
M  V30 5676 H 541.971 -2.32998 4.45781 0
M  V30 5677 H 541.671 -1.15369 5.76163 0
M  V30 5678 H 543.195 -2.08583 5.73869 0
M  V30 5679 H 544.609 0.185589 5.73 0
M  V30 5680 H 543.006 0.952381 5.92494 0
M  V30 5681 H 544.076 1.48559 4.61582 0
M  V30 5682 N 545.419 -1.53889 0.339982 0
M  V30 5683 C 546.665 -2.01152 -0.258003 0
M  V30 5684 C 546.998 -1.22749 -1.50487 0
M  V30 5685 O 546.273 -0.314156 -1.91946 0
M  V30 5686 C 546.556 -3.55468 -0.575717 0
M  V30 5687 C 546.409 -4.44584 0.682996 0
M  V30 5688 C 547.728 -4.1768 -1.38677 0
M  V30 5689 H 544.847 -0.731198 -0.0922992 0
M  V30 5690 H 547.489 -1.84352 0.459814 0
M  V30 5691 H 545.639 -3.69914 -1.18725 0
M  V30 5692 H 547.311 -4.41981 1.32102 0
M  V30 5693 H 545.554 -4.13592 1.3086 0
M  V30 5694 H 546.225 -5.5043 0.416001 0
M  V30 5695 H 548.701 -4.0691 -0.869705 0
M  V30 5696 H 547.577 -5.25734 -1.57783 0
M  V30 5697 H 547.838 -3.72069 -2.38782 0
M  V30 5698 N 546.897 -0.0685191 -1.57451 0
M  V30 5699 C 547.827 0.89747 -2.15564 0
M  V30 5700 C 548.808 1.31266 -1.08181 0
M  V30 5701 O 549.993 1.38429 -1.36202 0
M  V30 5702 C 547.123 2.16623 -2.71463 0
M  V30 5703 C 546.077 1.89054 -3.83982 0
M  V30 5704 C 545.403 3.22532 -4.26471 0
M  V30 5705 C 546.703 1.1984 -5.08366 0
M  V30 5706 H 548.397 0.413373 -2.96533 0
M  V30 5707 H 545.943 0.197391 -1.42641 0
M  V30 5708 H 547.896 2.84614 -3.10761 0
M  V30 5709 H 546.62 2.67269 -1.8771 0
M  V30 5710 H 545.279 1.23469 -3.45183 0
M  V30 5711 H 544.927 3.71013 -3.39644 0
M  V30 5712 H 544.627 3.04879 -5.02317 0
M  V30 5713 H 546.151 3.91727 -4.68383 0
M  V30 5714 H 547.565 1.77896 -5.45001 0
M  V30 5715 H 545.962 1.12456 -5.89469 0
M  V30 5716 H 547.032 0.176996 -4.84577 0
M  V30 5717 N 548.375 1.56261 0.205012 0
M  V30 5718 C 549.652 1.70856 0.952233 0
M  V30 5719 C 550.032 0.620501 2.01775 0
M  V30 5720 O 549.38 -0.370035 2.25484 0
M  V30 5721 C 549.59 3.12807 1.54767 0
M  V30 5722 C 550.938 3.72733 2.0336 0
M  V30 5723 O 551.962 3.15873 1.64629 0
M  V30 5724 O 550.821 4.72501 2.746 0
M  V30 5725 H 547.915 0.696496 0.445895 0
M  V30 5726 H 550.461 1.6857 0.195489 0
M  V30 5727 H 549.233 3.83465 0.779132 0
M  V30 5728 H 548.856 3.1928 2.36951 0
M  V30 5729 N 549.853 -0.472356 1.50355 0
M  V30 5730 C 550.8 -1.57051 1.69126 0
M  V30 5731 C 551.77 -1.5733 0.532574 0
M  V30 5732 O 552.955 -1.7488 0.762994 0
M  V30 5733 C 550.095 -2.95033 1.79024 0
M  V30 5734 C 549.208 -3.04552 3.06386 0
M  V30 5735 C 548.343 -4.33441 3.07087 0
M  V30 5736 C 547.382 -4.36697 4.28908 0
M  V30 5737 N 546.519 -5.57056 4.27356 0
M  V30 5738 H 551.359 -1.40351 2.62879 0
M  V30 5739 H 548.896 -0.682403 1.30314 0
M  V30 5740 H 550.854 -3.75048 1.82744 0
M  V30 5741 H 549.484 -3.10371 0.887109 0
M  V30 5742 H 548.536 -2.17419 3.12143 0
M  V30 5743 H 549.848 -3.02818 3.96362 0
M  V30 5744 H 549.002 -5.21801 3.09529 0
M  V30 5745 H 547.741 -4.37782 2.14939 0
M  V30 5746 H 546.746 -3.46734 4.2668 0
M  V30 5747 H 547.971 -4.34049 5.22282 0
M  V30 5748 H 545.917 -5.62184 3.3806 0
M  V30 5749 H 545.834 -5.57058 5.111 0
M  V30 5750 H 547.102 -6.47545 4.33942 0
M  V30 5751 N 551.331 -1.39911 -0.725443 0
M  V30 5752 C 552.577 -1.38862 -1.48624 0
M  V30 5753 C 552.932 0.0125913 -1.92396 0
M  V30 5754 O 552.225 0.981046 -1.64578 0
M  V30 5755 C 552.419 -2.30368 -2.7325 0
M  V30 5756 C 552.248 -3.79247 -2.41665 0
M  V30 5757 C 551.018 -4.48119 -2.3349 0
M  V30 5758 C 553.216 -4.70988 -2.06579 0
M  V30 5759 N 551.198 -5.82282 -1.94476 0
M  V30 5760 C 552.569 -5.93873 -1.78087 0
M  V30 5761 C 554.624 -4.58917 -1.9313 0
M  V30 5762 C 553.327 -7.06036 -1.37499 0
M  V30 5763 C 555.353 -5.71012 -1.53946 0
M  V30 5764 C 554.715 -6.92976 -1.26345 0
M  V30 5765 H 550.814 -0.563394 -0.54232 0
M  V30 5766 H 553.398 -1.75542 -0.842213 0
M  V30 5767 H 551.569 -1.95831 -3.35417 0
M  V30 5768 H 553.301 -2.20245 -3.39521 0
M  V30 5769 H 550.056 -4.01677 -2.50904 0
M  V30 5770 H 550.48 -6.53307 -1.77535 0
M  V30 5771 H 555.122 -3.65149 -2.13134 0
M  V30 5772 H 552.84 -7.99697 -1.16237 0
M  V30 5773 H 556.426 -5.63664 -1.44132 0
M  V30 5774 H 555.306 -7.78243 -0.964787 0
M  V30 5775 N 552.809 0.956637 -1.25245 0
M  V30 5776 C 553.739 2.07058 -1.07931 0
M  V30 5777 C 554.72 1.70096 0.0110361 0
M  V30 5778 O 555.905 1.93555 -0.158121 0
M  V30 5779 C 553.035 3.40272 -0.695124 0
M  V30 5780 C 551.989 3.91235 -1.73549 0
M  V30 5781 C 551.315 5.20921 -1.20604 0
M  V30 5782 C 552.615 4.17837 -3.13385 0
M  V30 5783 H 554.309 2.218 -2.01109 0
M  V30 5784 H 551.855 1.06581 -0.968326 0
M  V30 5785 H 553.808 4.1765 -0.560949 0
M  V30 5786 H 552.532 3.25462 0.272355 0
M  V30 5787 H 551.191 3.16025 -1.85807 0
M  V30 5788 H 550.839 5.02479 -0.228846 0
M  V30 5789 H 550.539 5.55987 -1.90136 0
M  V30 5790 H 552.063 6.00897 -1.08421 0
M  V30 5791 H 553.477 4.8588 -3.04292 0
M  V30 5792 H 551.874 4.64154 -3.80369 0
M  V30 5793 H 552.944 3.2419 -3.60595 0
M  V30 5794 N 554.287 1.06798 1.15896 0
M  V30 5795 C 555.217 0.704677 2.22613 0
M  V30 5796 C 556.198 -0.305252 1.67339 0
M  V30 5797 O 557.383 -0.179247 1.93371 0
M  V30 5798 C 554.513 0.0957325 3.47168 0
M  V30 5799 C 553.467 1.0322 4.15367 0
M  V30 5800 C 552.793 0.286293 5.33933 0
M  V30 5801 C 554.093 2.36341 4.65768 0
M  V30 5802 H 555.787 1.59688 2.53259 0
M  V30 5803 H 553.333 0.769257 1.21731 0
M  V30 5804 H 555.286 -0.170333 4.21056 0
M  V30 5805 H 554.01 -0.831516 3.15838 0
M  V30 5806 H 552.669 1.28309 3.43413 0
M  V30 5807 H 552.317 -0.644237 4.98857 0
M  V30 5808 H 552.017 0.910436 5.80504 0
M  V30 5809 H 553.541 0.0278938 6.10594 0
M  V30 5810 H 554.955 2.1561 5.31211 0
M  V30 5811 H 553.352 2.94299 5.2298 0
M  V30 5812 H 554.422 2.99047 3.81705 0
M  V30 5813 N 555.766 -1.3263 0.851289 0
M  V30 5814 C 557.177 -1.79653 0.5081 0
M  V30 5815 C 557.528 -1.70327 -0.973815 0
M  V30 5816 O 556.653 -1.25986 -1.75944 0
M  V30 5817 C 557.248 -3.26196 0.915515 0
M  V30 5818 C 555.807 -3.71187 0.624277 0
M  V30 5819 C 554.954 -2.53804 1.11709 0
M  V30 5820 H 557.905 -1.19976 1.03882 0
M  V30 5821 H 557.926 -3.79801 0.230535 0
M  V30 5822 H 557.438 -3.32952 1.99411 0
M  V30 5823 H 555.539 -3.69948 -0.443737 0
M  V30 5824 H 555.652 -4.64132 1.18821 0
M  V30 5825 H 554.016 -2.48964 0.537484 0
M  V30 5826 H 554.799 -2.63315 2.20272 0
M  V30 5827 N 557.244 -0.608902 -1.45362 0
M  V30 5828 C 558.66 -0.272659 -1.57254 0
M  V30 5829 C 558.86 1.22477 -1.60005 0
M  V30 5830 O 557.916 2.00785 -1.53106 0
M  V30 5831 C 559.229 -0.944991 -2.85465 0
M  V30 5832 C 560.777 -0.921033 -2.99142 0
M  V30 5833 C 561.252 -1.5734 -4.30126 0
M  V30 5834 N 562.743 -1.53895 -4.36887 0
M  V30 5835 C 563.478 -2.01286 -5.36909 0
M  V30 5836 N 562.974 -2.56768 -6.43461 0
M  V30 5837 N 564.767 -1.92046 -5.28275 0
M  V30 5838 H 556.918 -1.58117 -1.4182 0
M  V30 5839 H 559.181 -0.662437 -0.678146 0
M  V30 5840 H 558.887 -1.99941 -2.89338 0
M  V30 5841 H 558.761 -0.469079 -3.74272 0
M  V30 5842 H 561.148 0.124846 -2.94836 0
M  V30 5843 H 561.229 -1.43522 -2.11743 0
M  V30 5844 H 560.873 -2.61862 -4.35191 0
M  V30 5845 H 560.803 -1.03422 -5.16344 0
M  V30 5846 H 563.294 -1.13366 -3.60495 0
M  V30 5847 H 563.607 -2.9072 -7.16032 0
M  V30 5848 H 561.952 -2.60808 -6.44208 0
M  V30 5849 H 565.143 -1.48439 -4.43941 0
M  V30 5850 H 565.316 -2.29293 -6.06077 0
M  V30 5851 N 558.722 1.53707 -0.348139 0
M  V30 5852 C 559.67 2.26671 0.521808 0
M  V30 5853 C 560.664 1.28988 1.09811 0
M  V30 5854 O 561.87 1.4668 1.04332 0
M  V30 5855 H 558.245 0.728387 0.186968 0
M  V30 5856 H 560.216 2.98176 -0.115563 0
M  V30 5857 C 558.965 3.05591 1.6586 0
M  V30 5858 H 558.288 3.80589 1.22443 0
M  V30 5859 H 559.728 3.59851 2.24239 0
M  V30 5860 C 558.187 2.15366 2.59073 0
M  V30 5861 O 558.717 1.7528 3.61441 0
M  V30 5862 N 556.923 1.80352 2.27863 0
M  V30 5863 H 556.47 2.13149 1.44656 0
M  V30 5864 H 556.428 1.20268 2.90488 0
M  V30 5865 N 560.2 0.0768682 1.57412 0
M  V30 5866 C 561.611 -0.455037 1.8107 0
M  V30 5867 C 561.962 -1.69323 0.991162 0
M  V30 5868 O 561.087 -2.15328 0.215156 0
M  V30 5869 C 561.682 -0.832316 3.28417 0
M  V30 5870 C 560.241 -1.30906 3.52903 0
M  V30 5871 C 559.388 -0.296714 2.75708 0
M  V30 5872 H 562.339 0.302514 1.5579 0
M  V30 5873 H 562.36 -1.69333 3.40744 0
M  V30 5874 H 561.872 0.0690532 3.88039 0
M  V30 5875 H 559.973 -2.22875 2.98592 0
M  V30 5876 H 560.086 -1.28348 4.61588 0
M  V30 5877 H 558.45 -0.775059 2.42621 0
M  V30 5878 H 559.233 0.597015 3.38069 0
M  V30 5879 N 561.678 -1.56367 -0.196722 0
M  V30 5880 C 563.089 -1.70462 -0.761545 0
M  V30 5881 C 563.44 -0.683161 -1.83922 0
M  V30 5882 O 562.565 0.160753 -2.15802 0
M  V30 5883 C 563.16 -3.09057 -1.38814 0
M  V30 5884 C 561.719 -3.24922 -1.90007 0
M  V30 5885 C 560.866 -2.66412 -0.769399 0
M  V30 5886 H 563.817 -1.58675 0.0283263 0
M  V30 5887 H 563.838 -3.06296 -2.2575 0
M  V30 5888 H 563.35 -3.83378 -0.603559 0
M  V30 5889 H 561.451 -2.55514 -2.71189 0
M  V30 5890 H 561.564 -4.3241 -2.06297 0
M  V30 5891 H 559.928 -2.25546 -1.18326 0
M  V30 5892 H 560.711 -3.433 0.00291773 0
M  V30 5893 N 563.156 0.464375 -1.50603 0
M  V30 5894 C 564.381 1.24372 -1.65971 0
M  V30 5895 C 564.806 1.84901 -0.345453 0
M  V30 5896 O 564.164 1.67596 0.691457 0
M  V30 5897 C 564.212 2.32331 -2.7578 0
M  V30 5898 O 563.316 3.37146 -2.375 0
M  V30 5899 H 562.657 0.365604 -0.554283 0
M  V30 5900 H 565.187 0.55183 -1.97018 0
M  V30 5901 H 565.197 2.77539 -2.99059 0
M  V30 5902 H 563.872 1.87648 -3.71162 0
M  V30 5903 H 562.449 2.97602 -2.24694 0
M  V30 5904 N 564.634 1.40294 0.718013 0
M  V30 5905 C 565.544 1.42678 1.86226 0
M  V30 5906 C 566.56 0.319655 1.71039 0
M  V30 5907 O 567.736 0.563852 1.93346 0
M  V30 5908 C 564.801 1.2852 3.21999 0
M  V30 5909 C 563.862 2.49354 3.49458 0
M  V30 5910 C 563.095 2.35863 4.78753 0
M  V30 5911 O 563.318 1.37114 5.53675 0
M  V30 5912 O 562.252 3.25189 5.06494 0
M  V30 5913 H 566.078 2.39167 1.87171 0
M  V30 5914 H 563.663 1.2159 0.868112 0
M  V30 5915 H 565.545 1.22824 4.03103 0
M  V30 5916 H 564.22 0.351359 3.21787 0
M  V30 5917 H 563.127 2.60628 2.68373 0
M  V30 5918 H 564.46 3.41491 3.54464 0
M  V30 5919 N 566.112 -0.949982 1.2575 0
M  V30 5920 C 567.389 -1.6718 1.01539 0
M  V30 5921 C 567.769 -2.06095 -0.456942 0
M  V30 5922 O 567.117 -1.77792 -1.43534 0
M  V30 5923 C 567.327 -2.8906 1.95564 0
M  V30 5924 C 568.675 -3.60909 2.23673 0
M  V30 5925 O 569.699 -2.9915 1.9336 0
M  V30 5926 O 568.558 -4.72127 2.75243 0
M  V30 5927 H 565.652 -0.731697 0.385419 0
M  V30 5928 H 568.198 -1.00249 1.36924 0
M  V30 5929 H 566.97 -2.57128 2.94959 0
M  V30 5930 H 566.593 -3.63719 1.60605 0
M  V30 5931 N 567.59 -1.07411 -1.15328 0
M  V30 5932 C 568.52 -0.716472 -2.22236 0
M  V30 5933 C 569.501 0.296373 -1.67498 0
M  V30 5934 O 570.686 0.168989 -1.93463 0
M  V30 5935 C 567.816 -0.114142 -3.47112 0
M  V30 5936 C 566.77 -1.05421 -4.14814 0
M  V30 5937 C 566.096 -0.314604 -5.33774 0
M  V30 5938 C 567.396 -2.38808 -4.64508 0
M  V30 5939 H 569.09 -1.61029 -2.52408 0
M  V30 5940 H 566.636 -0.775702 -1.21321 0
M  V30 5941 H 568.589 0.148001 -4.2114 0
M  V30 5942 H 567.313 0.814755 -3.16274 0
M  V30 5943 H 565.972 -1.30128 -3.42728 0
M  V30 5944 H 565.62 0.617772 -4.99192 0
M  V30 5945 H 565.32 -0.941209 -5.80013 0
M  V30 5946 H 566.844 -0.0602747 -6.1057 0
M  V30 5947 H 568.258 -2.18424 -5.3006 0
M  V30 5948 H 566.655 -2.97069 -5.21412 0
M  V30 5949 H 567.725 -3.01067 -3.80114 0
M  V30 5950 N 569.068 1.32177 -0.85831 0
M  V30 5951 C 570.479 1.79381 -0.517621 0
M  V30 5952 C 570.83 1.70841 0.964769 0
M  V30 5953 O 569.955 1.26917 1.75274 0
M  V30 5954 C 570.55 3.25706 -0.932801 0
M  V30 5955 C 569.109 3.70851 -0.643953 0
M  V30 5956 C 568.256 2.53208 -1.13054 0
M  V30 5957 H 571.207 1.19424 -1.04516 0
M  V30 5958 H 571.228 3.79673 -0.250674 0
M  V30 5959 H 570.74 3.31889 -2.01174 0
M  V30 5960 H 568.841 3.70178 0.424112 0
M  V30 5961 H 568.954 4.63495 -1.21281 0
M  V30 5962 H 567.318 2.48676 -0.550679 0
M  V30 5963 H 568.101 2.62143 -2.21666 0
M  V30 5964 N 570.547 0.616602 1.45037 0
M  V30 5965 C 571.795 0.115103 2.01772 0
M  V30 5966 C 572.116 -1.2622 1.48639 0
M  V30 5967 O 571.386 -1.83563 0.684199 0
M  V30 5968 H 569.966 0.0395607 0.745952 0
M  V30 5969 H 572.628 0.800032 1.77723 0
M  V30 5970 H 571.724 0.0717274 3.12018 0
M  V30 5971 N 572.025 -1.5352 0.356285 0
M  V30 5972 C 573.436 -1.86282 -0.12492 0
M  V30 5973 C 573.787 -1.27717 -1.48939 0
M  V30 5974 O 572.912 -0.595614 -2.08042 0
M  V30 5975 C 573.507 -3.37995 -0.23345 0
M  V30 5976 C 572.066 -3.70588 -0.658899 0
M  V30 5977 C 571.213 -2.76581 0.199596 0
M  V30 5978 H 574.164 -1.47901 0.575423 0
M  V30 5979 H 574.185 -3.65475 -1.0587 0
M  V30 5980 H 573.697 -3.8059 0.759776 0
M  V30 5981 H 571.798 -3.33544 -1.66069 0
M  V30 5982 H 571.911 -4.77076 -0.439957 0
M  V30 5983 H 570.275 -2.52552 -0.330076 0
M  V30 5984 H 571.058 -3.22008 1.19019 0
M  V30 5985 N 573.503 -0.0852151 -1.57369 0
M  V30 5986 C 574.751 0.579658 -1.93609 0
M  V30 5987 C 575.072 1.69332 -0.967043 0
M  V30 5988 O 574.342 1.95892 -0.0174215 0
M  V30 5989 H 572.922 0.217113 -0.714752 0
M  V30 5990 H 575.584 -0.146226 -1.94351 0
M  V30 5991 H 574.68 0.996276 -2.95771 0
M  V30 5992 N 574.981 1.5647 0.188427 0
M  V30 5993 C 576.229 1.80655 0.905986 0
M  V30 5994 C 576.55 0.659391 1.83513 0
M  V30 5995 O 575.82 -0.321868 1.93238 0
M  V30 5996 H 574.4 0.666391 0.337538 0
M  V30 5997 H 577.062 1.93949 0.192339 0
M  V30 5998 H 576.158 2.74066 1.49313 0
M  V30 5999 N 576.459 -0.456382 1.50847 0
M  V30 6000 C 577.684 -1.2349 1.66628 0
M  V30 6001 C 578.109 -1.84715 0.355254 0
M  V30 6002 O 577.467 -1.67961 -0.682559 0
M  V30 6003 C 577.515 -2.30865 2.77009 0
M  V30 6004 O 576.619 -3.35882 2.39285 0
M  V30 6005 H 575.96 -0.36266 0.556214 0
M  V30 6006 H 578.49 -0.541374 1.97308 0
M  V30 6007 H 578.5 -2.75949 3.00526 0
M  V30 6008 H 577.175 -1.85677 3.72152 0
M  V30 6009 H 575.752 -2.96406 2.26269 0
M  V30 6010 N 577.937 -1.40673 -0.710563 0
M  V30 6011 C 579.183 -1.39428 -1.47267 0
M  V30 6012 C 579.516 0.00182129 -1.942 0
M  V30 6013 O 578.791 0.971387 -1.68506 0
M  V30 6014 C 579.074 -2.38812 -2.6952 0
M  V30 6015 C 578.927 -3.87467 -2.28449 0
M  V30 6016 C 580.246 -2.3566 -3.71689 0
M  V30 6017 H 577.365 -0.507768 -0.534173 0
M  V30 6018 H 580.007 -1.71843 -0.810547 0
M  V30 6019 H 578.157 -2.113 -3.26013 0
M  V30 6020 H 579.829 -4.25825 -1.77399 0
M  V30 6021 H 578.072 -4.03058 -1.60395 0
M  V30 6022 H 578.743 -4.5253 -3.16103 0
M  V30 6023 H 581.219 -2.6004 -3.24836 0
M  V30 6024 H 580.095 -3.07237 -4.54859 0
M  V30 6025 H 580.356 -1.36996 -4.20339 0
M  V30 6026 N 579.415 0.9433 -1.26252 0
M  V30 6027 C 580.692 1.66639 -1.02424 0
M  V30 6028 C 581.072 2.06335 0.446006 0
M  V30 6029 O 580.42 1.78551 1.42589 0
M  V30 6030 C 580.63 2.88019 -1.97094 0
M  V30 6031 C 581.978 3.59718 -2.25584 0
M  V30 6032 O 583.002 2.9812 -1.94943 0
M  V30 6033 O 581.861 4.7066 -2.77743 0
M  V30 6034 H 578.955 0.729643 -0.389294 0
M  V30 6035 H 581.501 0.995218 -1.37454 0
M  V30 6036 H 580.273 2.5556 -2.96319 0
M  V30 6037 H 579.896 3.62863 -1.62532 0
M  V30 6038 N 580.893 1.08022 1.14757 0
M  V30 6039 C 582.142 0.802468 1.8505 0
M  V30 6040 C 582.455 -0.674061 1.83619 0
M  V30 6041 O 583.661 -1.06683 2.49662 0
M  V30 6042 C 582.117 1.38551 3.32162 0
M  V30 6043 C 581.725 2.89354 3.42021 0
M  V30 6044 C 583.469 1.18608 4.07594 0
M  V30 6045 C 581.376 3.40815 4.83321 0
M  V30 6046 H 580.306 0.296518 0.693248 0
M  V30 6047 H 582.957 1.30114 1.29393 0
M  V30 6048 H 581.339 0.814556 3.87532 0
M  V30 6049 H 582.513 3.52552 2.96722 0
M  V30 6050 H 580.828 3.08165 2.80041 0
M  V30 6051 H 583.425 1.54525 5.11885 0
M  V30 6052 H 583.768 0.125599 4.1611 0
M  V30 6053 H 584.301 1.72375 3.58513 0
M  V30 6054 H 581.04 4.46418 4.79991 0
M  V30 6055 H 580.56 2.82374 5.29174 0
M  V30 6056 H 582.239 3.37171 5.522 0
M  V30 6057 N 582.371 -1.3172 0.865308 0
M  V30 6058 C 583.617 -1.97168 0.474633 0
M  V30 6059 C 583.95 -1.68263 -0.969604 0
M  V30 6060 O 583.225 -0.976588 -1.68205 0
M  V30 6061 C 583.508 -3.52689 0.726808 0
M  V30 6062 C 583.361 -3.91185 2.22024 0
M  V30 6063 C 584.68 -4.39689 0.190201 0
M  V30 6064 H 581.799 -0.716185 0.17392 0
M  V30 6065 H 584.441 -1.55925 1.08569 0
M  V30 6066 H 582.591 -3.8795 0.206705 0
M  V30 6067 H 584.263 -3.66049 2.80724 0
M  V30 6068 H 582.506 -3.3996 2.69462 0
M  V30 6069 H 583.177 -4.99604 2.34735 0
M  V30 6070 H 585.653 -4.11225 0.635103 0
M  V30 6071 H 584.529 -5.47469 0.396132 0
M  V30 6072 H 584.79 -4.32683 -0.907625 0
M  V30 6073 N 583.85 -0.624285 -1.44708 0
M  V30 6074 C 584.812 0.0749638 -2.29077 0
M  V30 6075 C 585.812 0.778965 -1.40673 0
M  V30 6076 O 587.003 0.624591 -1.62618 0
M  V30 6077 C 584.135 1.11663 -3.22094 0
M  V30 6078 H 585.327 -0.667013 -2.92388 0
M  V30 6079 H 582.88 -0.384098 -1.51507 0
M  V30 6080 H 583.615 1.88881 -2.63618 0
M  V30 6081 H 583.401 0.61583 -3.87234 0
M  V30 6082 H 584.891 1.60585 -3.8549 0
M  V30 6083 N 585.328 1.53329 -0.364422 0
M  V30 6084 C 586.261 2.22052 0.526145 0
M  V30 6085 C 587.239 1.21203 1.08391 0
M  V30 6086 O 588.423 1.50101 1.14026 0
M  V30 6087 C 585.55 2.91432 1.72583 0
M  V30 6088 C 584.596 4.06345 1.29562 0
M  V30 6089 S 585.429 5.34671 0.297885 0
M  V30 6090 C 586.585 6.07563 1.50392 0
M  V30 6091 H 586.818 2.97244 -0.0575055 0
M  V30 6092 H 584.351 1.53684 -0.148525 0
M  V30 6093 H 586.309 3.3202 2.41398 0
M  V30 6094 H 584.97 2.15966 2.28073 0
M  V30 6095 H 584.163 4.53901 2.19067 0
M  V30 6096 H 583.765 3.67642 0.686696 0
M  V30 6097 H 586.057 6.32224 2.43513 0
M  V30 6098 H 587 6.99973 1.06977 0
M  V30 6099 H 587.408 5.37994 1.70945 0
M  V30 6100 N 586.806 0.0935595 1.57322 0
M  V30 6101 C 588.083 -0.612692 1.85756 0
M  V30 6102 C 588.463 -1.86439 0.99013 0
M  V30 6103 O 587.811 -2.28416 0.0621362 0
M  V30 6104 C 588.021 -0.929547 3.36393 0
M  V30 6105 C 589.369 -1.29366 4.04413 0
M  V30 6106 O 590.393 -1.02061 3.41265 0
M  V30 6107 O 589.252 -1.80498 5.15832 0
M  V30 6108 H 586.346 -0.306444 0.768128 0
M  V30 6109 H 588.892 0.126141 1.69231 0
M  V30 6110 H 587.664 -0.0414766 3.91278 0
M  V30 6111 H 587.287 -1.72441 3.5826 0
M  V30 6112 N 588.284 -1.56567 -0.180126 0
M  V30 6113 C 589.194 -1.98947 -1.24327 0
M  V30 6114 C 590.21 -0.899446 -1.4895 0
M  V30 6115 O 591.386 -1.20639 -1.61271 0
M  V30 6116 C 588.451 -2.33328 -2.56435 0
M  V30 6117 C 587.512 -3.56114 -2.39752 0
M  V30 6118 C 586.745 -3.88845 -3.65561 0
M  V30 6119 O 586.968 -3.22662 -4.70368 0
M  V30 6120 O 585.902 -4.82226 -3.60197 0
M  V30 6121 H 589.728 -2.89634 -0.913565 0
M  V30 6122 H 587.313 -1.44319 -0.386306 0
M  V30 6123 H 589.195 -2.5645 -3.34382 0
M  V30 6124 H 587.87 -1.45806 -2.89002 0
M  V30 6125 H 586.777 -3.38221 -1.59866 0
M  V30 6126 H 588.11 -4.4415 -2.12113 0
M  V30 6127 N 589.762 0.448376 -1.51087 0
M  V30 6128 C 591.01 1.19635 -1.62886 0
M  V30 6129 C 591.331 1.91977 -0.342024 0
M  V30 6130 O 590.601 1.85094 0.641636 0
M  V30 6131 H 589.181 0.444598 -0.600285 0
M  V30 6132 H 591.843 0.515138 -1.87969 0
M  V30 6133 H 590.939 1.93194 -2.45117 0
M  V30 6134 N 591.24 1.41047 0.703093 0
M  V30 6135 C 592.465 1.43537 1.49706 0
M  V30 6136 C 592.89 0.0401853 1.88057 0
M  V30 6137 O 592.248 -0.954785 1.54122 0
M  V30 6138 C 592.296 2.3433 2.74084 0
M  V30 6139 O 591.4 1.79515 3.71279 0
M  V30 6140 H 590.741 0.487454 0.450871 0
M  V30 6141 H 593.271 1.85422 0.86486 0
M  V30 6142 H 593.281 2.49947 3.22476 0
M  V30 6143 H 591.956 3.35708 2.45506 0
M  V30 6144 H 590.533 1.7331 3.30179 0
M  V30 6145 N 592.718 -0.936591 1.26751 0
M  V30 6146 C 593.628 -2.06949 1.10496 0
M  V30 6147 C 594.644 -1.7396 0.037271 0
M  V30 6148 O 595.82 -1.99941 0.241944 0
M  V30 6149 C 592.885 -3.38612 0.744491 0
M  V30 6150 C 591.946 -3.85355 1.89209 0
M  V30 6151 C 591.179 -5.10735 1.54873 0
M  V30 6152 O 591.402 -5.68602 0.452546 0
M  V30 6153 O 590.336 -5.52632 2.38499 0
M  V30 6154 H 594.162 -2.23571 2.05547 0
M  V30 6155 H 591.747 -1.05428 1.05855 0
M  V30 6156 H 593.629 -4.17711 0.556396 0
M  V30 6157 H 592.304 -3.23218 -0.176582 0
M  V30 6158 H 591.211 -3.07182 2.13518 0
M  V30 6159 H 592.544 -4.05277 2.79305 0
M  V30 6160 N 594.196 -1.08629 -1.14182 0
M  V30 6161 C 595.159 -0.722027 -2.1753 0
M  V30 6162 C 596.159 0.244305 -1.58933 0
M  V30 6163 O 597.349 0.0235545 -1.74184 0
M  V30 6164 C 594.481 -0.0663966 -3.40835 0
M  V30 6165 H 595.674 -1.63719 -2.51269 0
M  V30 6166 H 593.227 -0.884442 -1.28869 0
M  V30 6167 H 593.962 0.860389 -3.12678 0
M  V30 6168 H 593.747 -0.761598 -3.84632 0
M  V30 6169 H 595.237 0.173346 -4.1724 0
M  V30 6170 N 595.674 1.31259 -0.872281 0
M  V30 6171 C 596.899 2.0133 -0.498099 0
M  V30 6172 C 597.324 1.65031 0.902568 0
M  V30 6173 O 596.682 0.860164 1.59596 0
M  V30 6174 C 596.73 3.54411 -0.665205 0
M  V30 6175 O 595.834 4.11347 0.294473 0
M  V30 6176 H 595.175 0.633844 -0.197832 0
M  V30 6177 H 597.705 1.67402 -1.17633 0
M  V30 6178 H 597.715 4.04147 -0.559373 0
M  V30 6179 H 596.39 3.80171 -1.68651 0
M  V30 6180 H 594.967 3.72624 0.143403 0
M  V30 6181 N 597.152 0.631951 1.44375 0
M  V30 6182 C 598.377 0.142146 2.06912 0
M  V30 6183 C 598.802 -1.17456 1.4692 0
M  V30 6184 O 598.16 -1.72074 0.570975 0
M  V30 6185 C 598.208 0.0417952 3.60576 0
M  V30 6186 O 597.312 -1.00194 4.00044 0
M  V30 6187 H 596.653 0.0851491 0.658518 0
M  V30 6188 H 599.183 0.868863 1.85235 0
M  V30 6189 H 599.193 -0.148517 4.0773 0
M  V30 6190 H 597.868 1.0031 4.03622 0
M  V30 6191 H 596.445 -0.786131 3.64519 0
M  V30 6192 N 598.631 -1.53133 0.372548 0
M  V30 6193 C 599.871 -2.03267 -0.214943 0
M  V30 6194 C 600.235 -1.25362 -1.45425 0
M  V30 6195 O 601.436 -1.65536 -2.11781 0
M  V30 6196 C 599.707 -3.53985 -0.492897 0
M  V30 6197 S 601.266 -4.25977 -1.05307 0
M  V30 6198 H 598.084 -0.708289 -0.062029 0
M  V30 6199 H 600.686 -1.88539 0.517025 0
M  V30 6200 H 599.39 -4.08282 0.416442 0
M  V30 6201 H 598.921 -3.72887 -1.25375 0
M  V30 6202 H 600.936 -4.37731 -2.33679 0
M  V30 6203 N 600.109 -0.101901 -1.5727 0
M  V30 6204 C 601.334 0.571759 -1.99363 0
M  V30 6205 C 601.759 1.60507 -0.980768 0
M  V30 6206 O 601.117 1.81231 0.0498517 0
M  V30 6207 C 601.165 1.18996 -3.404 0
M  V30 6208 O 600.269 2.30572 -3.41922 0
M  V30 6209 H 599.61 0.144449 -0.648098 0
M  V30 6210 H 602.14 -0.185325 -2.03759 0
M  V30 6211 H 602.15 1.52962 -3.78241 0
M  V30 6212 H 600.825 0.432984 -4.1364 0
M  V30 6213 H 599.402 1.98173 -3.15883 0
M  V30 6214 N 601.587 1.56661 0.17182 0
M  V30 6215 C 602.812 1.86459 0.908165 0
M  V30 6216 C 603.237 0.688181 1.75059 0
M  V30 6217 O 602.595 -0.362753 1.77634 0
M  V30 6218 C 602.643 3.14669 1.76112 0
M  V30 6219 O 601.747 2.96858 2.86268 0
M  V30 6220 H 601.088 0.613318 0.254434 0
M  V30 6221 H 603.618 2.03892 0.170113 0
M  V30 6222 H 603.628 3.46061 2.16115 0
M  V30 6223 H 602.303 3.99905 1.14233 0
M  V30 6224 H 600.88 2.76819 2.49852 0
M  V30 6225 N 603.065 -0.440357 1.51323 0
M  V30 6226 C 604.028 -1.51679 1.71832 0
M  V30 6227 C 605.028 -1.49648 0.588386 0
M  V30 6228 O 606.218 -1.51724 0.855891 0
M  V30 6229 C 603.35 -2.91228 1.77199 0
M  V30 6230 H 604.543 -1.34799 2.67898 0
M  V30 6231 H 602.096 -0.66883 1.41267 0
M  V30 6232 H 602.831 -3.13516 0.829363 0
M  V30 6233 H 602.616 -2.94107 2.59314 0
M  V30 6234 H 604.106 -3.69321 1.94915 0
M  V30 6235 N 604.543 -1.41418 -0.695603 0
M  V30 6236 C 605.473 -1.46035 -1.82197 0
M  V30 6237 C 606.454 -0.319025 -1.67082 0
M  V30 6238 O 607.639 -0.530462 -1.86815 0
M  V30 6239 C 604.769 -1.34179 -3.20333 0
M  V30 6240 C 603.723 -2.46123 -3.50154 0
M  V30 6241 C 603.049 -2.19332 -4.87645 0
M  V30 6242 C 604.349 -3.88463 -3.49133 0
M  V30 6243 H 606.043 -2.40303 -1.78591 0
M  V30 6244 H 603.589 -1.15663 -0.857797 0
M  V30 6245 H 605.542 -1.36021 -3.98844 0
M  V30 6246 H 604.266 -0.363952 -3.24566 0
M  V30 6247 H 602.925 -2.43563 -2.73994 0
M  V30 6248 H 602.573 -1.19891 -4.88503 0
M  V30 6249 H 602.273 -2.94344 -5.08562 0
M  V30 6250 H 603.797 -2.22889 -5.68465 0
M  V30 6251 H 605.211 -3.92738 -4.17648 0
M  V30 6252 H 603.608 -4.63158 -3.81582 0
M  V30 6253 H 604.678 -4.16617 -2.48109 0
M  V30 6254 N 606.021 0.929856 -1.27246 0
M  V30 6255 C 606.984 2.01172 -1.09829 0
M  V30 6256 C 607.984 1.60743 -0.0429687 0
M  V30 6257 O 609.174 1.71813 -0.287373 0
M  V30 6258 C 606.306 3.34191 -0.673003 0
M  V30 6259 H 607.499 2.18054 -2.05895 0
M  V30 6260 H 605.052 1.11036 -1.10003 0
M  V30 6261 H 605.787 3.23009 0.289134 0
M  V30 6262 H 605.572 3.64892 -1.43515 0
M  V30 6263 H 607.062 4.13646 -0.573323 0
M  V30 6264 N 607.499 1.09233 1.13605 0
M  V30 6265 C 608.724 0.849067 1.89224 0
M  V30 6266 C 609.149 -0.593875 1.78479 0
M  V30 6267 O 608.507 -1.41703 1.13092 0
M  V30 6268 C 608.555 1.28642 3.36873 0
M  V30 6269 O 607.659 0.44363 4.10007 0
M  V30 6270 H 607 0.30767 0.588417 0
M  V30 6271 H 609.53 1.45595 1.43748 0
M  V30 6272 H 609.54 1.27096 3.87699 0
M  V30 6273 H 608.215 2.33729 3.44011 0
M  V30 6274 H 606.792 0.523241 3.69211 0
M  V30 6275 N 608.977 -1.30795 0.87923 0
M  V30 6276 C 609.924 -2.28282 0.339968 0
M  V30 6277 C 610.894 -1.56134 -0.566685 0
M  V30 6278 O 612.079 -1.84231 -0.496338 0
M  V30 6279 C 609.219 -3.42225 -0.444501 0
M  V30 6280 C 608.332 -4.29204 0.490717 0
M  V30 6281 C 607.467 -5.30302 -0.308784 0
M  V30 6282 C 606.506 -6.08929 0.622272 0
M  V30 6283 N 605.643 -7.01957 -0.14155 0
M  V30 6284 H 610.483 -2.73794 1.17647 0
M  V30 6285 H 608.02 -1.34682 0.591527 0
M  V30 6286 H 609.978 -4.07038 -0.915186 0
M  V30 6287 H 608.608 -2.97799 -1.24562 0
M  V30 6288 H 607.66 -3.6475 1.07988 0
M  V30 6289 H 608.972 -4.84045 1.20425 0
M  V30 6290 H 608.126 -6.00835 -0.841575 0
M  V30 6291 H 606.865 -4.7614 -1.05556 0
M  V30 6292 H 605.87 -5.37278 1.16674 0
M  V30 6293 H 607.095 -6.65178 1.36804 0
M  V30 6294 H 605.041 -6.50192 -0.870966 0
M  V30 6295 H 604.958 -7.54261 0.51246 0
M  V30 6296 H 606.226 -7.76741 -0.655271 0
M  V30 6297 N 610.455 -0.639598 -1.44038 0
M  V30 6298 C 611.866 -0.228866 -1.85292 0
M  V30 6299 C 612.217 1.22161 -1.53529 0
M  V30 6300 O 611.342 1.93064 -0.977518 0
M  V30 6301 C 611.937 -0.408592 -3.36327 0
M  V30 6302 C 610.496 -0.0522953 -3.76364 0
M  V30 6303 C 609.643 -0.717959 -2.67844 0
M  V30 6304 H 612.594 -0.844194 -1.34384 0
M  V30 6305 H 612.615 0.349968 -3.78887 0
M  V30 6306 H 612.127 -1.46435 -3.59414 0
M  V30 6307 H 610.228 1.0014 -3.58891 0
M  V30 6308 H 610.341 -0.468261 -4.76806 0
M  V30 6309 H 608.705 -0.152459 -2.54243 0
M  V30 6310 H 609.488 -1.77648 -2.93762 0
M  V30 6311 N 611.933 1.52934 -0.380664 0
M  V30 6312 C 613.158 2.06363 0.207157 0
M  V30 6313 C 613.583 1.25122 1.4045 0
M  V30 6314 O 612.941 0.274062 1.79217 0
M  V30 6315 C 612.989 3.56162 0.563996 0
M  V30 6316 O 612.093 3.77552 1.65917 0
M  V30 6317 H 611.434 0.663468 0.0265859 0
M  V30 6318 H 613.964 1.9719 -0.545635 0
M  V30 6319 H 613.974 3.99453 0.830752 0
M  V30 6320 H 612.649 4.14732 -0.311427 0
M  V30 6321 H 611.226 3.46154 1.3868 0
M  V30 6322 N 613.412 0.11024 1.57214 0
M  V30 6323 C 614.823 -0.416527 1.81994 0
M  V30 6324 C 615.174 -1.67183 1.02686 0
M  V30 6325 O 614.299 -2.14823 0.260782 0
M  V30 6326 C 614.894 -0.762466 3.30109 0
M  V30 6327 C 613.453 -1.23391 3.556 0
M  V30 6328 C 612.6 -0.238166 2.76275 0
M  V30 6329 H 615.551 0.335491 1.55113 0
M  V30 6330 H 615.572 -1.62068 3.44259 0
M  V30 6331 H 615.084 0.151346 3.87805 0
M  V30 6332 H 613.185 -2.16492 3.03253 0
M  V30 6333 H 613.298 -1.18528 4.64207 0
M  V30 6334 H 611.662 -0.723421 2.4421 0
M  V30 6335 H 612.445 0.668591 3.36727 0
M  V30 6336 N 614.89 -1.56749 -0.16351 0
M  V30 6337 C 615.8 -2.00255 -1.2221 0
M  V30 6338 C 616.816 -0.915194 -1.47987 0
M  V30 6339 O 617.992 -1.22342 -1.59982 0
M  V30 6340 C 615.057 -2.36035 -2.53946 0
M  V30 6341 C 614.118 -3.58637 -2.35962 0
M  V30 6342 C 613.351 -3.92701 -3.61416 0
M  V30 6343 O 613.574 -3.27632 -4.66919 0
M  V30 6344 O 612.508 -4.86019 -3.55062 0
M  V30 6345 H 616.334 -2.90586 -0.882794 0
M  V30 6346 H 613.919 -1.44721 -0.370978 0
M  V30 6347 H 615.801 -2.59982 -3.31643 0
M  V30 6348 H 614.476 -1.48863 -2.8744 0
M  V30 6349 H 613.383 -3.39898 -1.5627 0
M  V30 6350 H 614.716 -4.46374 -2.0739 0
M  V30 6351 N 616.368 0.432326 -1.51554 0
M  V30 6352 C 617.616 1.17901 -1.64146 0
M  V30 6353 C 617.937 1.91604 -0.362367 0
M  V30 6354 O 617.207 1.85764 0.621968 0
M  V30 6355 H 615.787 0.438206 -0.604966 0
M  V30 6356 H 618.449 0.495172 -1.88505 0
M  V30 6357 H 617.545 1.90584 -2.47152 0
M  V30 6358 N 617.846 1.41785 0.688094 0
M  V30 6359 C 618.809 1.43936 1.78368 0
M  V30 6360 C 619.809 0.328866 1.57401 0
M  V30 6361 O 620.999 0.589093 1.63937 0
M  V30 6362 C 618.131 1.25804 3.16838 0
M  V30 6363 H 619.324 2.41472 1.77852 0
M  V30 6364 H 616.877 1.28037 0.896448 0
M  V30 6365 H 617.612 0.291386 3.22988 0
M  V30 6366 H 617.397 2.06272 3.33458 0
M  V30 6367 H 618.887 1.30162 3.96797 0
M  V30 6368 N 619.324 -0.923095 1.27737 0
M  V30 6369 C 620.549 -1.71054 1.17283 0
M  V30 6370 C 620.974 -1.86208 -0.266153 0
M  V30 6371 O 620.332 -1.36545 -1.1927 0
M  V30 6372 C 620.38 -3.0854 1.86642 0
M  V30 6373 O 619.484 -3.95528 1.16752 0
M  V30 6374 H 618.825 -0.524136 0.407649 0
M  V30 6375 H 621.355 -1.15487 1.6889 0
M  V30 6376 H 621.365 -3.58828 1.94182 0
M  V30 6377 H 620.04 -2.96828 2.91317 0
M  V30 6378 H 618.617 -3.53967 1.17312 0
M  V30 6379 N 620.802 -1.09834 -1.13024 0
M  V30 6380 C 621.765 -0.745058 -2.16752 0
M  V30 6381 C 622.765 0.227435 -1.59183 0
M  V30 6382 O 623.955 0.0050786 -1.74199 0
M  V30 6383 C 621.087 -0.102543 -3.40746 0
M  V30 6384 H 622.28 -1.66375 -2.49518 0
M  V30 6385 H 619.833 -0.898061 -1.27924 0
M  V30 6386 H 620.568 0.827177 -3.13573 0
M  V30 6387 H 620.353 -0.80235 -3.83803 0
M  V30 6388 H 621.843 0.129082 -4.174 0
M  V30 6389 N 622.28 1.30327 -0.886154 0
M  V30 6390 C 623.243 2.26376 -0.358687 0
M  V30 6391 C 624.243 1.52845 0.499498 0
M  V30 6392 O 625.433 1.71483 0.306485 0
M  V30 6393 C 622.565 3.37379 0.488726 0
M  V30 6394 H 623.758 2.74547 -1.20681 0
M  V30 6395 H 621.311 1.41536 -0.663113 0
M  V30 6396 H 622.046 2.94526 1.35739 0
M  V30 6397 H 621.831 3.91897 -0.126003 0
M  V30 6398 H 623.321 4.08868 0.84952 0
M  V30 6399 N 623.758 0.647228 1.43697 0
M  V30 6400 C 624.983 0.164083 2.0675 0
M  V30 6401 C 625.408 -1.15892 1.48158 0
M  V30 6402 O 624.766 -1.71459 0.589194 0
M  V30 6403 C 624.814 0.0800368 3.60511 0
M  V30 6404 O 623.918 -0.959453 4.01084 0
M  V30 6405 H 623.259 0.0921288 0.657578 0
M  V30 6406 H 625.789 0.88846 1.84303 0
M  V30 6407 H 625.799 -0.105263 4.07864 0
M  V30 6408 H 624.474 1.04586 4.02535 0
M  V30 6409 H 623.051 -0.747425 3.65333 0
M  V30 6410 N 625.236 -1.5273 0.388769 0
M  V30 6411 C 626.483 -2.01573 -0.19359 0
M  V30 6412 C 626.811 -1.27525 -1.46859 0
M  V30 6413 O 626.066 -0.363926 -1.92286 0
M  V30 6414 C 626.365 -3.53765 -0.508445 0
M  V30 6415 C 626.031 -4.4582 0.674947 0
M  V30 6416 C 624.693 -4.70703 0.999596 0
M  V30 6417 C 627.045 -5.00138 1.46666 0
M  V30 6418 C 624.373 -5.47155 2.11751 0
M  V30 6419 C 626.725 -5.77812 2.57518 0
M  V30 6420 C 625.389 -6.00975 2.90492 0
M  V30 6421 H 624.659 -0.737606 -0.0708397 0
M  V30 6422 H 627.306 -1.84134 0.526006 0
M  V30 6423 H 625.611 -3.69274 -1.30936 0
M  V30 6424 H 627.308 -3.8905 -0.971664 0
M  V30 6425 H 623.898 -4.26616 0.411906 0
M  V30 6426 H 628.082 -4.8084 1.22909 0
M  V30 6427 H 623.338 -5.63314 2.3767 0
M  V30 6428 H 627.512 -6.18904 3.19267 0
M  V30 6429 H 625.139 -6.59998 3.77236 0
M  V30 6430 N 626.714 -0.118576 -1.57153 0
M  V30 6431 C 627.624 0.845484 -2.18835 0
M  V30 6432 C 628.64 1.29299 -1.16438 0
M  V30 6433 O 629.816 1.35607 -1.48905 0
M  V30 6434 C 626.881 2.07795 -2.77529 0
M  V30 6435 C 625.942 1.6824 -3.9496 0
M  V30 6436 C 625.175 2.85612 -4.50845 0
M  V30 6437 O 625.398 4.01025 -4.05629 0
M  V30 6438 O 624.332 2.62721 -5.41536 0
M  V30 6439 H 628.158 0.350568 -3.0167 0
M  V30 6440 H 625.743 0.107013 -1.49016 0
M  V30 6441 H 627.625 2.79978 -3.14945 0
M  V30 6442 H 626.3 2.56294 -1.97725 0
M  V30 6443 H 625.207 0.931663 -3.62313 0
M  V30 6444 H 626.54 1.24484 -4.76198 0
M  V30 6445 N 628.193 1.56834 0.155195 0
M  V30 6446 C 629.423 1.86778 0.883044 0
M  V30 6447 C 629.831 0.703824 1.75622 0
M  V30 6448 O 629.174 -0.33581 1.80605 0
M  V30 6449 C 629.236 3.1133 1.79761 0
M  V30 6450 C 628.9 4.43504 1.10242 0
M  V30 6451 C 629.897 5.17859 0.460204 0
M  V30 6452 C 627.582 4.90233 1.09437 0
M  V30 6453 C 629.576 6.37144 -0.180782 0
M  V30 6454 C 627.263 6.09444 0.449569 0
M  V30 6455 C 628.261 6.82744 -0.186888 0
M  V30 6456 O 627.949 7.99692 -0.821486 0
M  V30 6457 H 627.681 0.62352 0.261149 0
M  V30 6458 H 630.235 2.04813 0.155204 0
M  V30 6459 H 628.465 2.89282 2.56618 0
M  V30 6460 H 630.154 3.27587 2.39669 0
M  V30 6461 H 630.92 4.8283 0.458289 0
M  V30 6462 H 626.799 4.33109 1.57917 0
M  V30 6463 H 630.343 6.94296 -0.678154 0
M  V30 6464 H 626.24 6.43936 0.449123 0
M  V30 6465 H 627.008 8.15306 -0.722337 0
M  V30 6466 N 629.671 -0.424282 1.51781 0
M  V30 6467 C 630.899 -1.1947 1.68921 0
M  V30 6468 C 631.314 -1.84683 0.39213 0
M  V30 6469 O 630.671 -1.71261 -0.630554 0
M  V30 6470 C 630.722 -2.26909 2.81416 0
M  V30 6471 O 630.443 -1.64361 4.061 0
M  V30 6472 C 631.944 -3.16945 3.09937 0
M  V30 6473 H 629.164 -0.359591 0.566511 0
M  V30 6474 H 631.708 -0.501139 1.98265 0
M  V30 6475 H 629.863 -2.91959 2.54635 0
M  V30 6476 H 630.277 -2.35468 4.68674 0
M  V30 6477 H 631.751 -3.88437 3.922 0
M  V30 6478 H 632.228 -3.78451 2.22871 0
M  V30 6479 H 632.834 -2.57581 3.38426 0
M  V30 6480 N 631.149 -1.42148 -0.680565 0
M  V30 6481 C 632.398 -1.41604 -1.43636 0
M  V30 6482 C 632.711 -0.0337887 -1.95571 0
M  V30 6483 O 633.917 0.0942588 -2.71336 0
M  V30 6484 C 632.373 -2.49056 -2.59806 0
M  V30 6485 C 631.981 -3.9326 -2.14594 0
M  V30 6486 C 633.725 -2.5767 -3.37352 0
M  V30 6487 C 631.632 -4.92232 -3.27813 0
M  V30 6488 H 630.562 -0.526656 -0.539583 0
M  V30 6489 H 633.213 -1.68033 -0.737369 0
M  V30 6490 H 631.595 -2.15782 -3.32045 0
M  V30 6491 H 632.769 -4.35858 -1.49546 0
M  V30 6492 H 631.084 -3.88443 -1.50002 0
M  V30 6493 H 633.681 -3.28794 -4.21662 0
M  V30 6494 H 634.024 -1.61837 -3.83555 0
M  V30 6495 H 634.557 -2.90109 -2.72179 0
M  V30 6496 H 631.296 -5.89522 -2.86607 0
M  V30 6497 H 630.816 -4.5427 -3.91661 0
M  V30 6498 H 632.495 -5.13684 -3.93367 0
M  V30 6499 N 632.627 0.916307 -1.28225 0
M  V30 6500 C 633.557 2.0352 -1.14464 0
M  V30 6501 C 634.538 1.70045 -0.0430844 0
M  V30 6502 O 635.723 1.92954 -0.219619 0
M  V30 6503 C 632.853 3.37889 -0.803027 0
M  V30 6504 C 631.807 3.85516 -1.85908 0
M  V30 6505 C 631.133 5.1682 -1.37116 0
M  V30 6506 C 632.433 4.07655 -3.26519 0
M  V30 6507 H 634.127 2.1529 -2.08064 0
M  V30 6508 H 631.673 1.03446 -1.00174 0
M  V30 6509 H 633.626 4.15654 -0.693537 0
M  V30 6510 H 632.35 3.26164 0.168674 0
M  V30 6511 H 631.009 3.09953 -1.95767 0
M  V30 6512 H 630.657 5.01497 -0.38859 0
M  V30 6513 H 630.357 5.49657 -2.07728 0
M  V30 6514 H 631.881 5.97143 -1.27484 0
M  V30 6515 H 633.295 4.75953 -3.19596 0
M  V30 6516 H 631.692 4.51818 -3.94943 0
M  V30 6517 H 632.762 3.12553 -3.70727 0
M  V30 6518 N 634.105 1.10431 1.1244 0
M  V30 6519 C 635.382 0.758797 1.80282 0
M  V30 6520 C 635.762 -0.754727 1.97147 0
M  V30 6521 O 635.11 -1.68094 1.54779 0
M  V30 6522 C 635.32 1.50982 3.14651 0
M  V30 6523 C 636.668 1.68232 3.8985 0
M  V30 6524 O 637.692 1.47319 3.24308 0
M  V30 6525 O 636.551 2.02905 5.07437 0
M  V30 6526 H 633.645 0.273756 0.780376 0
M  V30 6527 H 636.191 1.20713 1.19275 0
M  V30 6528 H 634.963 2.53989 2.97666 0
M  V30 6529 H 634.586 1.05435 3.83366 0
M  V30 6530 N 635.583 -1.29855 0.893053 0
M  V30 6531 C 636.994 -1.77946 0.564998 0
M  V30 6532 C 637.345 -1.73339 -0.919134 0
M  V30 6533 O 636.47 -1.3152 -1.71847 0
M  V30 6534 C 637.065 -3.23118 1.01883 0
M  V30 6535 C 635.624 -3.69013 0.742051 0
M  V30 6536 C 634.771 -2.50121 1.19727 0
M  V30 6537 H 637.722 -1.16611 1.07646 0
M  V30 6538 H 637.743 -3.78875 0.351249 0
M  V30 6539 H 637.255 -3.26439 2.09903 0
M  V30 6540 H 635.356 -3.71173 -0.325816 0
M  V30 6541 H 635.469 -4.60117 1.33527 0
M  V30 6542 H 633.833 -2.47128 0.616418 0
M  V30 6543 H 634.616 -2.56174 2.28538 0
M  V30 6544 N 637.061 -0.65484 -1.43351 0
M  V30 6545 C 638.286 -0.175046 -2.0666 0
M  V30 6546 C 638.711 1.15104 -1.4877 0
M  V30 6547 O 638.069 1.71144 -0.598279 0
M  V30 6548 C 638.117 -0.0991544 -3.60464 0
M  V30 6549 O 637.221 0.938169 -4.01587 0
M  V30 6550 H 636.562 -0.0956148 -0.65708 0
M  V30 6551 H 639.092 -0.898222 -1.83829 0
M  V30 6552 H 639.102 0.083632 -4.07914 0
M  V30 6553 H 637.777 -1.06719 -4.01975 0
M  V30 6554 H 636.354 0.72804 -3.65724 0
M  V30 6555 N 638.539 1.52521 -0.396863 0
M  V30 6556 C 639.764 2.06571 0.185258 0
M  V30 6557 C 640.189 1.26605 1.39115 0
M  V30 6558 O 639.547 0.293055 1.78916 0
M  V30 6559 C 639.595 3.5674 0.526189 0
M  V30 6560 O 638.699 3.7929 1.61903 0
M  V30 6561 H 638.04 0.663712 0.0195474 0
M  V30 6562 H 640.57 1.966 -0.566519 0
M  V30 6563 H 640.58 4.00311 0.788338 0
M  V30 6564 H 639.255 4.14379 -0.355397 0
M  V30 6565 H 637.832 3.47605 1.35 0
M  V30 6566 N 640.017 0.126909 1.57088 0
M  V30 6567 C 640.949 -0.850973 2.12817 0
M  V30 6568 C 641.962 -1.22457 1.07276 0
M  V30 6569 O 643.151 -1.17215 1.34622 0
M  V30 6570 C 640.251 -2.15039 2.61938 0
M  V30 6571 C 639.424 -1.94726 3.91664 0
M  V30 6572 C 638.483 -3.0847 4.26301 0
M  V30 6573 O 637.509 -2.81038 4.94981 0
M  V30 6574 N 638.711 -4.35116 3.84259 0
M  V30 6575 H 641.476 -0.3748 2.97347 0
M  V30 6576 H 639.037 -0.0572793 1.61799 0
M  V30 6577 H 641.029 -2.90141 2.82135 0
M  V30 6578 H 639.599 -2.5398 1.82244 0
M  V30 6579 H 638.819 -1.03772 3.80296 0
M  V30 6580 H 640.107 -1.78469 4.76473 0
M  V30 6581 H 639.505 -4.60276 3.2888 0
M  V30 6582 H 638.062 -5.07064 4.09548 0
M  V30 6583 N 641.495 -1.56914 -0.146875 0
M  V30 6584 C 642.425 -2.01308 -1.1831 0
M  V30 6585 C 643.406 -0.892664 -1.44795 0
M  V30 6586 O 644.591 -1.16048 -1.55713 0
M  V30 6587 C 641.721 -2.3938 -2.51624 0
M  V30 6588 C 640.675 -3.54608 -2.3966 0
M  V30 6589 C 640.001 -3.78493 -3.77686 0
M  V30 6590 C 641.301 -4.87269 -1.88058 0
M  V30 6591 H 642.995 -2.88123 -0.813964 0
M  V30 6592 H 640.541 -1.38615 -0.3901 0
M  V30 6593 H 642.494 -2.69037 -3.24341 0
M  V30 6594 H 641.218 -1.49502 -2.90373 0
M  V30 6595 H 639.877 -3.25116 -1.69396 0
M  V30 6596 H 639.525 -2.85866 -4.13871 0
M  V30 6597 H 639.225 -4.56039 -3.70543 0
M  V30 6598 H 640.749 -4.10576 -4.51951 0
M  V30 6599 H 642.163 -5.15644 -2.50568 0
M  V30 6600 H 640.56 -5.68622 -1.91805 0
M  V30 6601 H 641.63 -4.77634 -0.836277 0
M  V30 6602 N 642.974 0.416227 -1.52004 0
M  V30 6603 C 643.904 1.51365 -1.77795 0
M  V30 6604 C 644.885 1.58059 -0.628601 0
M  V30 6605 O 646.07 1.73447 -0.873478 0
M  V30 6606 C 643.2 2.89256 -1.92219 0
M  V30 6607 C 642.154 2.97415 -3.0778 0
M  V30 6608 C 641.48 4.37492 -3.07417 0
M  V30 6609 C 642.78 2.69551 -4.47369 0
M  V30 6610 H 644.474 1.30033 -2.69688 0
M  V30 6611 H 642.02 0.624112 -1.29772 0
M  V30 6612 H 643.973 3.66008 -2.08845 0
M  V30 6613 H 642.697 3.11866 -0.969917 0
M  V30 6614 H 641.356 2.23107 -2.90893 0
M  V30 6615 H 641.004 4.571 -2.09925 0
M  V30 6616 H 640.704 4.43877 -3.85029 0
M  V30 6617 H 642.228 5.16188 -3.26162 0
M  V30 6618 H 643.642 3.36028 -4.64497 0
M  V30 6619 H 642.039 2.87321 -5.26846 0
M  V30 6620 H 643.109 1.65029 -4.55953 0
M  V30 6621 N 644.452 1.42507 0.673017 0
M  V30 6622 C 645.868 1.25472 0.986355 0
M  V30 6623 C 646.068 0.160181 2.00862 0
M  V30 6624 O 645.124 -0.467993 2.48125 0
M  V30 6625 C 646.437 2.61219 1.48947 0
M  V30 6626 C 647.985 2.68589 1.60715 0
M  V30 6627 C 648.46 4.04707 2.14422 0
M  V30 6628 N 649.951 4.0667 2.21752 0
M  V30 6629 C 650.686 5.0881 2.64386 0
M  V30 6630 N 650.182 6.21332 3.0646 0
M  V30 6631 N 651.975 4.96166 2.64151 0
M  V30 6632 H 644.126 2.124 -0.00378532 0
M  V30 6633 H 646.389 0.946046 0.0608367 0
M  V30 6634 H 646.095 3.42179 0.812812 0
M  V30 6635 H 645.969 2.85261 2.46791 0
M  V30 6636 H 648.356 1.87974 2.27486 0
M  V30 6637 H 648.437 2.48333 0.613552 0
M  V30 6638 H 648.081 4.8578 1.48258 0
M  V30 6639 H 648.011 4.22315 3.14575 0
M  V30 6640 H 650.502 3.25438 1.92089 0
M  V30 6641 H 650.815 6.95118 3.37684 0
M  V30 6642 H 649.16 6.24835 3.04313 0
M  V30 6643 H 652.351 4.07334 2.30644 0
M  V30 6644 H 652.524 5.759 2.97057 0
M  V30 6645 N 645.93 -0.909495 1.28709 0
M  V30 6646 C 647.341 -1.47419 1.14563 0
M  V30 6647 C 647.692 -1.94432 -0.262832 0
M  V30 6648 O 646.817 -1.82842 -1.15748 0
M  V30 6649 C 647.412 -2.67933 2.07358 0
M  V30 6650 C 645.971 -3.20568 1.97264 0
M  V30 6651 C 645.118 -1.93269 1.98852 0
M  V30 6652 H 648.069 -0.721787 1.41336 0
M  V30 6653 H 648.09 -3.43339 1.64007 0
M  V30 6654 H 647.602 -2.33685 3.09859 0
M  V30 6655 H 645.703 -3.59531 0.978157 0
M  V30 6656 H 645.816 -3.85529 2.84436 0
M  V30 6657 H 644.18 -2.10553 1.43317 0
M  V30 6658 H 644.963 -1.61312 3.0304 0
M  V30 6659 N 647.408 -1.11026 -1.11852 0
M  V30 6660 C 648.654 -0.867633 -1.83967 0
M  V30 6661 C 649.009 0.600309 -1.82795 0
M  V30 6662 O 648.302 1.43731 -1.26696 0
M  V30 6663 C 648.496 -1.35777 -3.30604 0
M  V30 6664 C 648.325 -2.87183 -3.46058 0
M  V30 6665 C 647.095 -3.55256 -3.59334 0
M  V30 6666 C 649.293 -3.85258 -3.40706 0
M  V30 6667 N 647.275 -4.94923 -3.63215 0
M  V30 6668 C 648.646 -5.1097 -3.51155 0
M  V30 6669 C 650.701 -3.77879 -3.2421 0
M  V30 6670 C 649.404 -6.30171 -3.46809 0
M  V30 6671 C 651.43 -4.96586 -3.2118 0
M  V30 6672 C 650.792 -6.21149 -3.32196 0
M  V30 6673 H 646.891 -0.370574 -0.688621 0
M  V30 6674 H 649.475 -1.41379 -1.33865 0
M  V30 6675 H 647.646 -0.83885 -3.79233 0
M  V30 6676 H 649.378 -1.05874 -3.90606 0
M  V30 6677 H 646.133 -3.05714 -3.61713 0
M  V30 6678 H 646.557 -5.67726 -3.68804 0
M  V30 6679 H 651.199 -2.82485 -3.14582 0
M  V30 6680 H 648.917 -7.25847 -3.55206 0
M  V30 6681 H 652.503 -4.92591 -3.09589 0
M  V30 6682 H 651.383 -7.11463 -3.29834 0
M  V30 6683 N 648.886 1.2938 -0.899927 0
M  V30 6684 C 650.114 1.99691 -0.541386 0
M  V30 6685 C 650.529 1.67355 0.873936 0
M  V30 6686 O 649.886 0.918728 1.57688 0
M  V30 6687 C 649.937 3.54168 -0.72438 0
M  V30 6688 O 649.658 3.85359 -2.08399 0
M  V30 6689 C 651.159 4.41746 -0.370819 0
M  V30 6690 H 648.379 0.638037 -0.207726 0
M  V30 6691 H 650.923 1.6491 -1.20934 0
M  V30 6692 H 649.078 3.87261 -0.103607 0
M  V30 6693 H 649.492 4.80032 -2.11352 0
M  V30 6694 H 650.966 5.49256 -0.549693 0
M  V30 6695 H 651.443 4.33712 0.692148 0
M  V30 6696 H 652.049 4.14125 -0.968543 0
M  V30 6697 N 650.364 0.662433 1.43002 0
M  V30 6698 C 651.294 -0.00979809 2.33498 0
M  V30 6699 C 652.275 -0.802329 1.49989 0
M  V30 6700 O 653.46 -0.761964 1.78627 0
M  V30 6701 C 650.59 -0.970446 3.33466 0
M  V30 6702 C 649.544 -0.287383 4.27034 0
M  V30 6703 C 648.87 -1.36012 5.17112 0
M  V30 6704 C 650.17 0.82595 5.15728 0
M  V30 6705 H 651.864 0.745959 2.89958 0
M  V30 6706 H 649.41 0.360172 1.39423 0
M  V30 6707 H 651.363 -1.44971 3.95679 0
M  V30 6708 H 650.087 -1.75748 2.75282 0
M  V30 6709 H 648.746 0.17152 3.66199 0
M  V30 6710 H 648.394 -2.13882 4.55262 0
M  V30 6711 H 648.094 -0.908276 5.80538 0
M  V30 6712 H 649.618 -1.84056 5.82199 0
M  V30 6713 H 651.032 0.42845 5.71697 0
M  V30 6714 H 649.429 1.20282 5.87922 0
M  V30 6715 H 650.499 1.68003 4.54866 0
M  V30 6716 N 651.842 -1.52309 0.404946 0
M  V30 6717 C 653.082 -2.03677 -0.171779 0
M  V30 6718 C 653.446 -1.28419 -1.42733 0
M  V30 6719 O 654.647 -1.69991 -2.08222 0
M  V30 6720 C 652.918 -3.54951 -0.417701 0
M  V30 6721 S 654.477 -4.28114 -0.962472 0
M  V30 6722 H 651.295 -0.709445 -0.0469912 0
M  V30 6723 H 653.897 -1.874 0.556901 0
M  V30 6724 H 652.601 -4.07306 0.50295 0
M  V30 6725 H 652.132 -3.75462 -1.17437 0
M  V30 6726 H 654.147 -4.42589 -2.24342 0
M  V30 6727 N 653.32 -0.135238 -1.57019 0
M  V30 6728 C 654.731 0.387521 -1.82634 0
M  V30 6729 C 655.082 1.65528 -1.05332 0
M  V30 6730 O 654.207 2.14381 -0.294926 0
M  V30 6731 C 654.802 0.709852 -3.3128 0
M  V30 6732 C 653.361 1.17718 -3.57518 0
M  V30 6733 C 652.508 0.194183 -2.76619 0
M  V30 6734 H 655.459 -0.360126 -1.5456 0
M  V30 6735 H 655.48 1.5657 -3.46794 0
M  V30 6736 H 654.992 -0.213024 -3.87515 0
M  V30 6737 H 653.093 2.1164 -3.06658 0
M  V30 6738 H 653.206 1.11128 -4.66034 0
M  V30 6739 H 651.57 0.684478 -2.4533 0
M  V30 6740 H 652.353 -0.722076 -3.3562 0
M  V30 6741 N 654.798 1.5699 0.138552 0
M  V30 6742 C 655.708 2.02174 1.19008 0
M  V30 6743 C 656.724 0.938622 1.46512 0
M  V30 6744 O 657.9 1.24872 1.58016 0
M  V30 6745 C 654.965 2.40045 2.50159 0
M  V30 6746 C 654.026 3.62346 2.30226 0
M  V30 6747 C 653.259 3.98401 3.55123 0
M  V30 6748 O 653.482 3.35019 4.61647 0
M  V30 6749 O 652.416 4.91606 3.47285 0
M  V30 6750 H 656.242 2.91954 0.836452 0
M  V30 6751 H 653.827 1.45293 0.347907 0
M  V30 6752 H 655.709 2.65225 3.27465 0
M  V30 6753 H 654.384 1.53417 2.85035 0
M  V30 6754 H 653.291 3.42341 1.50843 0
M  V30 6755 H 654.624 4.49617 2.00262 0
M  V30 6756 N 656.276 -0.40816 1.52223 0
M  V30 6757 C 657.206 -1.5042 1.78595 0
M  V30 6758 C 658.187 -1.57723 0.636974 0
M  V30 6759 O 659.372 -1.72982 0.882664 0
M  V30 6760 C 656.502 -2.88232 1.93751 0
M  V30 6761 C 655.456 -2.95779 3.09352 0
M  V30 6762 C 654.782 -4.35855 3.09732 0
M  V30 6763 C 656.082 -2.67175 4.48793 0
M  V30 6764 H 657.776 -1.28601 2.70374 0
M  V30 6765 H 655.322 -0.617221 1.30101 0
M  V30 6766 H 657.275 -3.64895 2.10783 0
M  V30 6767 H 655.999 -3.11347 0.986443 0
M  V30 6768 H 654.658 -2.21561 2.92072 0
M  V30 6769 H 654.306 -4.55981 2.12346 0
M  V30 6770 H 654.006 -4.41829 3.87377 0
M  V30 6771 H 655.53 -5.14451 3.28895 0
M  V30 6772 H 656.944 -3.3356 4.66273 0
M  V30 6773 H 655.341 -2.84523 5.28362 0
M  V30 6774 H 656.411 -1.62609 4.56822 0
M  V30 6775 N 657.755 -1.42862 -0.66545 0
M  V30 6776 C 659.166 -1.3901 -1.24632 0
M  V30 6777 C 659.517 -0.0880285 -1.96002 0
M  V30 6778 O 658.642 0.812947 -2.0055 0
M  V30 6779 C 659.237 -2.51806 -2.2667 0
M  V30 6780 C 657.796 -2.51257 -2.80262 0
M  V30 6781 C 656.943 -2.30124 -1.5472 0
M  V30 6782 H 659.894 -1.5194 -0.458237 0
M  V30 6783 H 659.915 -2.22593 -3.08598 0
M  V30 6784 H 659.427 -3.46558 -1.74697 0
M  V30 6785 H 657.528 -1.60349 -3.36332 0
M  V30 6786 H 657.641 -3.48614 -3.28641 0
M  V30 6787 H 656.005 -1.7856 -1.81627 0
M  V30 6788 H 656.788 -3.26945 -1.04699 0
M  V30 6789 N 659.233 0.902656 -1.29189 0
M  V30 6790 C 660.644 1.46809 -1.15343 0
M  V30 6791 C 660.995 1.94568 0.252517 0
M  V30 6792 O 660.12 1.83454 1.14777 0
M  V30 6793 C 660.715 2.66829 -2.08776 0
M  V30 6794 C 659.274 3.19518 -1.98961 0
M  V30 6795 C 658.421 1.92212 -1.99874 0
M  V30 6796 H 661.372 0.714282 -1.41717 0
M  V30 6797 H 661.393 3.42465 -1.65826 0
M  V30 6798 H 660.905 2.32039 -3.11094 0
M  V30 6799 H 659.006 3.59008 -0.99721 0
M  V30 6800 H 659.119 3.84016 -2.86477 0
M  V30 6801 H 657.483 2.0979 -1.44431 0
M  V30 6802 H 658.266 1.59702 -3.03891 0
M  V30 6803 N 660.711 1.11618 1.11262 0
M  V30 6804 C 661.939 0.888739 1.8684 0
M  V30 6805 C 662.354 -0.561558 1.80255 0
M  V30 6806 O 661.711 -1.38782 1.18515 0
M  V30 6807 C 661.762 1.34422 3.35579 0
M  V30 6808 O 661.483 2.73766 3.42029 0
M  V30 6809 C 662.984 1.15246 4.28058 0
M  V30 6810 H 660.204 0.318152 0.590779 0
M  V30 6811 H 662.748 1.48398 1.40707 0
M  V30 6812 H 660.903 0.79239 3.7921 0
M  V30 6813 H 661.317 2.9355 4.34659 0
M  V30 6814 H 662.791 1.52015 5.30656 0
M  V30 6815 H 663.268 0.0922007 4.39103 0
M  V30 6816 H 663.874 1.69136 3.90222 0
M  V30 6817 N 662.189 -1.289 0.906776 0
M  V30 6818 C 663.6 -1.77336 0.58384 0
M  V30 6819 C 663.951 -1.74304 -0.900697 0
M  V30 6820 O 663.076 -1.33335 -1.70443 0
M  V30 6821 C 663.671 -3.22019 1.05304 0
M  V30 6822 C 662.23 -3.68205 0.781148 0
M  V30 6823 C 661.377 -2.48837 1.22373 0
M  V30 6824 H 664.328 -1.15462 1.08877 0
M  V30 6825 H 664.349 -3.78481 0.391414 0
M  V30 6826 H 663.861 -3.24194 2.13353 0
M  V30 6827 H 661.962 -3.71497 -0.28643 0
M  V30 6828 H 662.075 -4.58675 1.384 0
M  V30 6829 H 660.439 -2.46461 0.642594 0
M  V30 6830 H 661.222 -2.53736 2.31242 0
M  V30 6831 N 663.667 -0.670007 -1.42649 0
M  V30 6832 C 665.078 -0.268118 -1.84765 0
M  V30 6833 C 665.429 1.18877 -1.56086 0
M  V30 6834 O 664.554 1.90947 -1.01825 0
M  V30 6835 C 665.149 -0.47984 -3.35385 0
M  V30 6836 C 663.708 -0.132116 -3.76168 0
M  V30 6837 C 662.855 -0.774611 -2.66261 0
M  V30 6838 H 665.806 -0.872509 -1.32563 0
M  V30 6839 H 665.827 0.269522 -3.79544 0
M  V30 6840 H 665.339 -1.54026 -3.56227 0
M  V30 6841 H 663.44 0.92505 -3.60934 0
M  V30 6842 H 663.553 -0.569294 -4.75706 0
M  V30 6843 H 661.917 -0.206353 -2.53863 0
M  V30 6844 H 662.7 -1.83839 -2.89928 0
M  V30 6845 N 665.145 1.52092 -0.413018 0
M  V30 6846 C 666.095 2.23947 0.427993 0
M  V30 6847 C 667.079 1.25229 1.01027 0
M  V30 6848 O 668.271 1.50448 0.932444 0
M  V30 6849 C 665.4 3.0672 1.542 0
M  V30 6850 C 664.486 4.12851 0.970307 0
M  V30 6851 N 664.877 5.05644 0.125611 0
M  V30 6852 C 663.175 4.28404 1.24042 0
M  V30 6853 C 663.876 5.8138 -0.192876 0
M  V30 6854 N 662.852 5.41996 0.417273 0
M  V30 6855 H 666.654 2.93048 -0.223628 0
M  V30 6856 H 664.168 1.60852 -0.223664 0
M  V30 6857 H 666.165 3.56754 2.15714 0
M  V30 6858 H 664.825 2.39159 2.19621 0
M  V30 6859 H 665.836 5.17348 -0.238995 0
M  V30 6860 H 662.513 3.72071 1.89391 0
M  V30 6861 H 663.903 6.66129 -0.878762 0
M  V30 6862 N 666.623 0.143563 1.56945 0
M  V30 6863 C 667.553 -0.7936 2.196 0
M  V30 6864 C 668.534 -1.25955 1.14321 0
M  V30 6865 O 669.719 -1.31773 1.42651 0
M  V30 6866 C 666.849 -2.03424 2.81489 0
M  V30 6867 C 665.803 -1.70519 3.92565 0
M  V30 6868 C 665.129 -3.01817 4.41373 0
M  V30 6869 C 666.429 -0.95449 5.13504 0
M  V30 6870 H 668.123 -0.271423 2.98167 0
M  V30 6871 H 665.669 -0.12911 1.4342 0
M  V30 6872 H 667.622 -2.69463 3.23987 0
M  V30 6873 H 666.346 -2.58008 2.00248 0
M  V30 6874 H 665.005 -1.06859 3.5068 0
M  V30 6875 H 664.653 -3.54386 3.56959 0
M  V30 6876 H 664.353 -2.80565 5.16292 0
M  V30 6877 H 665.877 -3.68934 4.86539 0
M  V30 6878 H 667.291 -1.5169 5.52868 0
M  V30 6879 H 665.688 -0.842035 5.94163 0
M  V30 6880 H 666.758 0.0544033 4.84869 0
M  V30 6881 N 668.101 -1.57061 -0.130224 0
M  V30 6882 C 669.048 -1.99517 -1.16024 0
M  V30 6883 C 670.018 -0.865452 -1.41771 0
M  V30 6884 O 671.203 -1.12882 -1.53826 0
M  V30 6885 C 668.343 -2.3951 -2.48453 0
M  V30 6886 C 667.456 -3.65848 -2.29737 0
M  V30 6887 C 666.591 -3.9487 -3.55318 0
M  V30 6888 C 665.63 -5.14426 -3.31711 0
M  V30 6889 N 664.767 -5.39375 -4.49466 0
M  V30 6890 H 669.607 -2.87305 -0.791194 0
M  V30 6891 H 667.144 -1.42129 -0.379195 0
M  V30 6892 H 669.102 -2.60731 -3.25692 0
M  V30 6893 H 667.732 -1.54779 -2.83272 0
M  V30 6894 H 666.784 -3.52307 -1.4347 0
M  V30 6895 H 668.096 -4.53241 -2.08263 0
M  V30 6896 H 667.25 -4.16679 -4.4098 0
M  V30 6897 H 665.989 -3.05931 -3.79813 0
M  V30 6898 H 664.994 -4.92473 -2.44439 0
M  V30 6899 H 666.219 -6.04933 -3.08598 0
M  V30 6900 H 664.165 -4.53391 -4.74102 0
M  V30 6901 H 664.082 -6.21069 -4.31055 0
M  V30 6902 H 665.35 -5.65694 -5.36293 0
M  V30 6903 N 669.579 0.400081 -1.52437 0
M  V30 6904 C 670.809 1.16598 -1.70553 0
M  V30 6905 C 671.217 1.8451 -0.418665 0
M  V30 6906 O 670.56 1.73069 0.615855 0
M  V30 6907 C 670.622 2.26517 -2.7916 0
M  V30 6908 C 670.286 1.78666 -4.20628 0
M  V30 6909 C 671.283 1.26946 -5.04163 0
M  V30 6910 C 668.968 1.85225 -4.66902 0
M  V30 6911 C 670.962 0.824187 -6.32049 0
M  V30 6912 C 668.649 1.40309 -5.94774 0
M  V30 6913 C 669.647 0.889922 -6.77178 0
M  V30 6914 O 669.335 0.447281 -8.02655 0
M  V30 6915 H 669.067 0.356023 -0.574651 0
M  V30 6916 H 671.621 0.475598 -1.99818 0
M  V30 6917 H 669.851 2.98946 -2.45292 0
M  V30 6918 H 671.54 2.88237 -2.85787 0
M  V30 6919 H 672.306 1.21244 -4.69601 0
M  V30 6920 H 668.185 2.24111 -4.02859 0
M  V30 6921 H 671.729 0.422958 -6.96317 0
M  V30 6922 H 667.626 1.45693 -6.28843 0
M  V30 6923 H 668.394 0.569768 -8.16514 0
M  V30 6924 N 671.057 1.43213 0.657864 0
M  V30 6925 C 671.987 1.50815 1.78262 0
M  V30 6926 C 672.968 0.363211 1.66177 0
M  V30 6927 O 674.153 0.579806 1.85343 0
M  V30 6928 C 671.283 1.42625 3.16663 0
M  V30 6929 C 670.237 2.5532 3.43505 0
M  V30 6930 C 669.563 2.32184 4.81658 0
M  V30 6931 C 670.863 3.97583 3.38711 0
M  V30 6932 H 672.557 2.44954 1.72157 0
M  V30 6933 H 670.103 1.17896 0.82683 0
M  V30 6934 H 672.056 1.46548 3.95097 0
M  V30 6935 H 670.78 0.449877 3.23487 0
M  V30 6936 H 669.439 2.50742 2.6744 0
M  V30 6937 H 669.087 1.32801 4.85153 0
M  V30 6938 H 668.787 3.07724 5.00579 0
M  V30 6939 H 670.311 2.37883 5.62356 0
M  V30 6940 H 671.725 4.03673 4.07089 0
M  V30 6941 H 670.122 4.73112 3.69168 0
M  V30 6942 H 671.192 4.23049 2.36976 0
M  V30 6943 N 672.536 -0.895792 1.29666 0
M  V30 6944 C 673.766 -1.67757 1.20586 0
M  V30 6945 C 674.174 -1.87729 -0.235432 0
M  V30 6946 O 673.517 -1.41706 -1.16898 0
M  V30 6947 C 673.579 -3.08117 1.85215 0
M  V30 6948 C 673.243 -3.1136 3.3452 0
M  V30 6949 C 674.24 -2.91217 4.30684 0
M  V30 6950 C 671.925 -3.33302 3.75786 0
M  V30 6951 C 673.919 -2.92955 5.66089 0
M  V30 6952 C 671.606 -3.3467 5.11311 0
M  V30 6953 C 672.604 -3.14519 6.06273 0
M  V30 6954 O 672.292 -3.15684 7.39323 0
M  V30 6955 H 672.024 -0.530601 0.418854 0
M  V30 6956 H 674.578 -1.12831 1.71634 0
M  V30 6957 H 672.808 -3.64661 1.28683 0
M  V30 6958 H 674.497 -3.68399 1.70403 0
M  V30 6959 H 675.263 -2.74074 4.00136 0
M  V30 6960 H 671.142 -3.48025 3.02324 0
M  V30 6961 H 674.686 -2.77145 6.40185 0
M  V30 6962 H 670.583 -3.51346 5.41504 0
M  V30 6963 H 671.351 -3.31924 7.48177 0
M  V30 6964 N 674.014 -1.12206 -1.10668 0
M  V30 6965 C 674.944 -0.810086 -2.18997 0
M  V30 6966 C 675.925 0.225065 -1.68604 0
M  V30 6967 O 677.11 0.086783 -1.94006 0
M  V30 6968 C 674.24 -0.261262 -3.46316 0
M  V30 6969 C 673.194 -1.2292 -4.09969 0
M  V30 6970 C 672.52 -0.540713 -5.31959 0
M  V30 6971 C 673.82 -2.58295 -4.53962 0
M  V30 6972 H 675.514 -1.7159 -2.45352 0
M  V30 6973 H 673.06 -0.82646 -1.17922 0
M  V30 6974 H 675.013 -0.0307522 -4.21389 0
M  V30 6975 H 673.737 0.679879 -3.19445 0
M  V30 6976 H 672.396 -1.44548 -3.369 0
M  V30 6977 H 672.044 0.405492 -5.01363 0
M  V30 6978 H 671.744 -1.18637 -5.75499 0
M  V30 6979 H 673.268 -0.319184 -6.09765 0
M  V30 6980 H 674.682 -2.40709 -5.20319 0
M  V30 6981 H 673.079 -3.18916 -5.08343 0
M  V30 6982 H 674.149 -3.16918 -3.67002 0
M  V30 6983 N 675.492 1.28418 -0.913599 0
M  V30 6984 C 676.738 1.9527 -0.547484 0
M  V30 6985 C 677.071 1.71745 0.906486 0
M  V30 6986 O 676.346 1.03834 1.64465 0
M  V30 6987 C 676.629 3.49748 -0.857205 0
M  V30 6988 C 676.482 3.82675 -2.3639 0
M  V30 6989 C 677.801 4.3868 -0.353258 0
M  V30 6990 H 674.92 0.709236 -0.200381 0
M  V30 6991 H 677.562 1.51789 -1.14281 0
M  V30 6992 H 675.712 3.86915 -0.350548 0
M  V30 6993 H 677.384 3.55378 -2.94116 0
M  V30 6994 H 675.627 3.29724 -2.81894 0
M  V30 6995 H 676.298 4.90547 -2.53115 0
M  V30 6996 H 678.774 4.08584 -0.787288 0
M  V30 6997 H 677.65 5.45621 -0.599049 0
M  V30 6998 H 677.911 4.35753 0.746413 0
M  V30 6999 N 676.97 0.677563 1.42291 0
M  V30 7000 C 678.216 0.201272 2.01799 0
M  V30 7001 C 678.549 -1.19004 1.53465 0
M  V30 7002 O 677.824 -1.79953 0.738039 0
M  V30 7003 C 678.107 0.238968 3.59306 0
M  V30 7004 C 677.96 1.66594 4.17812 0
M  V30 7005 C 679.279 -0.411287 4.38174 0
M  V30 7006 H 676.398 0.0746114 0.733214 0
M  V30 7007 H 679.04 0.862872 1.69276 0
M  V30 7008 H 677.19 -0.324368 3.87144 0
M  V30 7009 H 678.862 2.28173 4.00917 0
M  V30 7010 H 677.105 2.20576 3.73536 0
M  V30 7011 H 677.776 1.64398 5.26951 0
M  V30 7012 H 680.252 0.0682804 4.16044 0
M  V30 7013 H 679.128 -0.354286 5.47755 0
M  V30 7014 H 679.389 -1.4893 4.1626 0
M  V30 7015 N 678.448 -1.51871 0.421078 0
M  V30 7016 C 679.673 -2.0684 -0.152371 0
M  V30 7017 C 680.098 -1.28802 -1.37083 0
M  V30 7018 O 679.456 -0.321482 -1.78427 0
M  V30 7019 C 679.504 -3.57532 -0.469368 0
M  V30 7020 O 678.608 -3.81818 -1.55848 0
M  V30 7021 H 677.949 -0.663939 -0.00898586 0
M  V30 7022 H 680.479 -1.95674 0.597724 0
M  V30 7023 H 680.489 -4.01515 -0.724553 0
M  V30 7024 H 679.164 -4.13761 0.421276 0
M  V30 7025 H 677.741 -3.49709 -1.29453 0
M  V30 7026 N 679.926 -0.151884 -1.56866 0
M  V30 7027 C 681.203 0.543328 -1.87902 0
M  V30 7028 C 681.583 1.82636 -1.05864 0
M  V30 7029 O 680.931 2.28028 -0.146868 0
M  V30 7030 C 681.141 0.804056 -3.39611 0
M  V30 7031 C 682.489 1.14267 -4.08935 0
M  V30 7032 O 683.513 0.893248 -3.44818 0
M  V30 7033 O 682.372 1.61229 -5.22176 0
M  V30 7034 H 679.466 0.277724 -0.778973 0
M  V30 7035 H 682.012 -0.188862 -1.68646 0
M  V30 7036 H 680.784 -0.103772 -3.91162 0
M  V30 7037 H 680.407 1.59025 -3.64413 0
M  V30 7038 N 681.404 1.57128 0.121893 0
M  V30 7039 C 682.629 1.89254 0.848385 0
M  V30 7040 C 683.054 0.743527 1.72781 0
M  V30 7041 O 682.412 -0.306056 1.78698 0
M  V30 7042 C 682.46 3.20113 1.66012 0
M  V30 7043 O 681.564 3.05815 2.76679 0
M  V30 7044 H 680.905 0.621103 0.234793 0
M  V30 7045 H 683.435 2.0433 0.10516 0
M  V30 7046 H 683.445 3.52761 2.04996 0
M  V30 7047 H 682.12 4.03336 1.01452 0
M  V30 7048 H 680.697 2.84627 2.40918 0
M  V30 7049 N 682.882 -0.391992 1.52647 0
M  V30 7050 C 684.13 -1.13507 1.67214 0
M  V30 7051 C 684.451 -1.90575 0.41304 0
M  V30 7052 O 683.721 -1.87348 -0.572498 0
M  V30 7053 H 682.301 -0.422013 0.616372 0
M  V30 7054 H 684.963 -0.44502 1.89751 0
M  V30 7055 H 684.059 -1.83964 2.52118 0
M  V30 7056 N 684.36 -1.4356 -0.65026 0
M  V30 7057 C 685.609 -1.44619 -1.406 0
M  V30 7058 C 685.922 -0.0752645 -1.95455 0
M  V30 7059 O 687.128 0.0366832 -2.71475 0
M  V30 7060 C 685.584 -2.54511 -2.54465 0
M  V30 7061 C 685.192 -3.97723 -2.06204 0
M  V30 7062 C 686.936 -2.64768 -3.31811 0
M  V30 7063 C 684.843 -4.99075 -3.17298 0
M  V30 7064 H 683.773 -0.537983 -0.52829 0
M  V30 7065 H 686.424 -1.69559 -0.701561 0
M  V30 7066 H 684.806 -2.22777 -3.27393 0
M  V30 7067 H 685.98 -4.38932 -1.40267 0
M  V30 7068 H 684.295 -3.91538 -1.41729 0
M  V30 7069 H 686.892 -3.37664 -4.14593 0
M  V30 7070 H 687.235 -1.69936 -3.80036 0
M  V30 7071 H 687.768 -2.95817 -2.65964 0
M  V30 7072 H 684.507 -5.95469 -2.74038 0
M  V30 7073 H 684.027 -4.62476 -3.81937 0
M  V30 7074 H 685.706 -5.21913 -3.82382 0
M  V30 7075 N 685.838 0.888903 -1.30139 0
M  V30 7076 C 687.063 1.67884 -1.21777 0
M  V30 7077 C 687.488 1.86848 0.216689 0
M  V30 7078 O 686.846 1.39659 1.15608 0
M  V30 7079 C 686.894 3.03483 -1.94757 0
M  V30 7080 O 685.998 3.92294 -1.27198 0
M  V30 7081 H 685.339 0.513144 -0.421402 0
M  V30 7082 H 687.869 1.10968 -1.71893 0
M  V30 7083 H 687.879 3.53553 -2.03627 0
M  V30 7084 H 686.554 2.89 -2.99085 0
M  V30 7085 H 685.131 3.50732 -1.26655 0
M  V30 7086 N 687.317 1.12792 1.10072 0
M  V30 7087 C 688.545 0.908506 1.85886 0
M  V30 7088 C 688.96 -0.542408 1.80841 0
M  V30 7089 O 688.317 -1.37517 1.1998 0
M  V30 7090 C 688.368 1.37973 3.34134 0
M  V30 7091 O 688.089 2.77378 3.39106 0
M  V30 7092 C 689.59 1.1978 4.26811 0
M  V30 7093 H 686.81 0.3244 0.587372 0
M  V30 7094 H 689.354 1.49882 1.39125 0
M  V30 7095 H 687.509 0.832566 3.78348 0
M  V30 7096 H 687.923 2.98144 4.31521 0
M  V30 7097 H 689.397 1.57635 5.29014 0
M  V30 7098 H 689.874 0.138768 4.38981 0
M  V30 7099 H 690.48 1.73266 3.88406 0
M  V30 7100 N 688.795 -1.27931 0.920396 0
M  V30 7101 C 690.072 -1.89728 0.475687 0
M  V30 7102 C 690.452 -1.8337 -1.04588 0
M  V30 7103 O 689.8 -1.27404 -1.89685 0
M  V30 7104 C 690.01 -3.33959 1.01354 0
M  V30 7105 C 691.358 -4.10907 1.06963 0
M  V30 7106 O 692.382 -3.42945 0.962646 0
M  V30 7107 O 691.241 -5.32399 1.23343 0
M  V30 7108 H 688.335 -0.81294 0.151845 0
M  V30 7109 H 690.881 -1.36252 1.01161 0
M  V30 7110 H 689.653 -3.32843 2.05746 0
M  V30 7111 H 689.276 -3.94944 0.458829 0
M  V30 7112 N 690.273 -0.685099 -1.4193 0
M  V30 7113 C 691.503 -0.220052 -2.05425 0
M  V30 7114 C 691.911 1.13185 -1.51611 0
M  V30 7115 O 691.254 1.71631 -0.654875 0
M  V30 7116 C 691.316 -0.0888364 -3.5939 0
M  V30 7117 C 690.98 -1.37109 -4.35947 0
M  V30 7118 C 691.977 -2.30675 -4.65924 0
M  V30 7119 C 689.662 -1.62155 -4.75406 0
M  V30 7120 C 691.656 -3.47556 -5.34306 0
M  V30 7121 C 689.343 -2.79324 -5.43527 0
M  V30 7122 C 690.341 -3.71848 -5.72903 0
M  V30 7123 O 690.029 -4.86966 -6.39624 0
M  V30 7124 H 689.761 -0.102165 -0.668235 0
M  V30 7125 H 692.315 -0.935194 -1.82875 0
M  V30 7126 H 690.545 0.681981 -3.80639 0
M  V30 7127 H 692.234 0.337669 -4.04493 0
M  V30 7128 H 693 -2.12579 -4.3593 0
M  V30 7129 H 688.879 -0.910053 -4.51928 0
M  V30 7130 H 692.423 -4.19794 -5.57153 0
M  V30 7131 H 688.32 -2.97342 -5.72938 0
M  V30 7132 H 689.088 -4.86644 -6.58118 0
M  V30 7133 N 691.751 1.51645 -0.429126 0
M  V30 7134 C 692.976 2.06917 0.141399 0
M  V30 7135 C 693.401 1.29527 1.36398 0
M  V30 7136 O 692.759 0.33094 1.78254 0
M  V30 7137 C 692.807 3.57776 0.4504 0
M  V30 7138 O 691.911 3.82639 1.53821 0
M  V30 7139 H 691.252 0.663978 0.0054647 0
M  V30 7140 H 693.782 1.95355 -0.608093 0
M  V30 7141 H 693.792 4.01894 0.703249 0
M  V30 7142 H 692.467 4.13532 -0.443213 0
M  V30 7143 H 691.044 3.5039 1.27597 0
M  V30 7144 N 693.229 0.160201 1.56784 0
M  V30 7145 C 694.454 -0.497373 2.01348 0
M  V30 7146 C 694.879 -1.56757 1.03966 0
M  V30 7147 O 694.237 -1.81292 0.0174455 0
M  V30 7148 C 694.285 -1.0628 3.44582 0
M  V30 7149 O 693.389 -2.17723 3.50244 0
M  V30 7150 H 692.73 -0.120295 0.653012 0
M  V30 7151 H 695.26 0.260821 2.02931 0
M  V30 7152 H 695.27 -1.38819 3.83658 0
M  V30 7153 H 693.945 -0.279166 4.14962 0
M  V30 7154 H 692.522 -1.86313 3.2302 0
M  V30 7155 N 694.707 -1.5719 -0.113559 0
M  V30 7156 C 695.955 -1.84772 -0.818761 0
M  V30 7157 C 696.276 -0.746196 -1.80158 0
M  V30 7158 O 695.546 0.229305 -1.94553 0
M  V30 7159 H 694.126 -0.681737 -0.305359 0
M  V30 7160 H 696.788 -1.94645 -0.0995845 0
M  V30 7161 H 695.884 -2.80878 -1.36067 0
M  V30 7162 N 696.185 0.383891 -1.52853 0
M  V30 7163 C 697.462 1.14296 -1.58732 0
M  V30 7164 C 697.842 2.07585 -0.383611 0
M  V30 7165 O 697.19 2.1971 0.627661 0
M  V30 7166 C 697.4 1.89816 -2.92867 0
M  V30 7167 C 698.748 2.44998 -3.46787 0
M  V30 7168 O 699.772 1.99966 -2.94774 0
M  V30 7169 O 698.631 3.2727 -4.37672 0
M  V30 7170 H 695.725 0.52326 -0.640413 0
M  V30 7171 H 698.271 0.388631 -1.6519 0
M  V30 7172 H 697.043 1.21626 -3.71918 0
M  V30 7173 H 696.666 2.72199 -2.89816 0
M  V30 7174 N 697.663 1.43903 0.642637 0
M  V30 7175 C 698.888 1.49758 1.43483 0
M  V30 7176 C 699.313 0.119911 1.87717 0
M  V30 7177 O 698.671 -0.888558 1.58033 0
M  V30 7178 C 698.719 2.45744 2.63898 0
M  V30 7179 O 697.823 1.95101 3.63331 0
M  V30 7180 H 697.164 0.506138 0.429791 0
M  V30 7181 H 699.694 1.88923 0.785438 0
M  V30 7182 H 699.704 2.63399 3.11584 0
M  V30 7183 H 698.379 3.45818 2.31046 0
M  V30 7184 H 696.956 1.87158 3.22531 0
M  V30 7185 N 699.141 -0.881989 1.30609 0
M  V30 7186 C 700.073 -1.99375 1.13058 0
M  V30 7187 C 701.086 -1.62636 0.0729879 0
M  V30 7188 O 702.275 -1.75621 0.319301 0
M  V30 7189 C 699.375 -3.31536 0.702651 0
M  V30 7190 C 698.548 -3.96693 1.84265 0
M  V30 7191 C 697.607 -5.07158 1.40277 0
M  V30 7192 O 696.633 -5.28628 2.11048 0
M  V30 7193 N 697.835 -5.79808 0.283449 0
M  V30 7194 H 700.6 -2.14981 2.08814 0
M  V30 7195 H 698.161 -1.05526 1.22784 0
M  V30 7196 H 700.153 -4.02804 0.391331 0
M  V30 7197 H 698.723 -3.12175 -0.162954 0
M  V30 7198 H 697.943 -3.1856 2.32192 0
M  V30 7199 H 699.231 -4.36964 2.60653 0
M  V30 7200 H 698.629 -5.64871 -0.306189 0
M  V30 7201 H 697.186 -6.51792 0.0315985 0
M  V30 7202 N 700.619 -1.13374 -1.09472 0
M  V30 7203 C 701.867 -0.893422 -1.8128 0
M  V30 7204 C 702.188 0.582029 -1.86111 0
M  V30 7205 O 701.458 1.42305 -1.34633 0
M  V30 7206 H 700.038 -0.327543 -0.67136 0
M  V30 7207 H 702.7 -1.43018 -1.32408 0
M  V30 7208 H 701.796 -1.28374 -2.84476 0
M  V30 7209 N 702.098 1.27442 -0.927168 0
M  V30 7210 C 703.061 2.2512 -0.430525 0
M  V30 7211 C 704.061 1.54357 0.450619 0
M  V30 7212 O 705.251 1.72371 0.251774 0
M  V30 7213 C 702.383 3.38763 0.381144 0
M  V30 7214 H 703.576 2.70569 -1.29354 0
M  V30 7215 H 701.129 1.39355 -0.707806 0
M  V30 7216 H 701.864 2.98695 1.263 0
M  V30 7217 H 701.649 3.91298 -0.250618 0
M  V30 7218 H 703.139 4.11364 0.719012 0
M  V30 7219 N 703.576 0.692616 1.41565 0
M  V30 7220 C 704.508 -0.0137132 2.29196 0
M  V30 7221 C 705.521 -0.747417 1.44629 0
M  V30 7222 O 706.71 -0.598611 1.68163 0
M  V30 7223 C 703.81 -1.04347 3.22436 0
M  V30 7224 C 702.983 -0.379985 4.35746 0
M  V30 7225 C 702.042 -1.31195 5.09583 0
M  V30 7226 O 701.068 -0.805455 5.63472 0
M  V30 7227 N 702.27 -2.64443 5.16769 0
M  V30 7228 H 705.035 0.738614 2.90456 0
M  V30 7229 H 702.596 0.538415 1.52685 0
M  V30 7230 H 704.588 -1.6686 3.687 0
M  V30 7231 H 703.158 -1.69736 2.62504 0
M  V30 7232 H 702.378 0.424975 3.91903 0
M  V30 7233 H 703.666 0.0814904 5.08735 0
M  V30 7234 H 703.064 -3.08114 4.74428 0
M  V30 7235 H 701.621 -3.22159 5.66619 0
M  V30 7236 N 705.054 -1.51416 0.437162 0
M  V30 7237 C 706.302 -2.01687 -0.129108 0
M  V30 7238 C 706.623 -1.32329 -1.43227 0
M  V30 7239 O 705.893 -0.457796 -1.90476 0
M  V30 7240 H 704.473 -0.745277 -0.0507023 0
M  V30 7241 H 707.135 -1.86075 0.579828 0
M  V30 7242 H 706.231 -3.10605 -0.305141 0
M  V30 7243 N 706.532 -0.168513 -1.56696 0
M  V30 7244 C 707.78 0.476216 -1.96409 0
M  V30 7245 C 708.101 1.63968 -1.05544 0
M  V30 7246 O 707.371 1.95525 -0.121235 0
M  V30 7247 H 705.951 0.178921 -0.725256 0
M  V30 7248 H 708.613 -0.249042 -1.93302 0
M  V30 7249 H 707.709 0.838094 -3.00637 0
M  V30 7250 N 708.01 1.57248 0.105221 0
M  V30 7251 C 708.94 2.04374 1.12931 0
M  V30 7252 C 709.921 0.93074 1.42377 0
M  V30 7253 O 711.106 1.20136 1.52581 0
M  V30 7254 C 708.236 2.45967 2.45189 0
M  V30 7255 C 707.19 3.60838 2.30174 0
M  V30 7256 C 706.516 3.88374 3.67518 0
M  V30 7257 C 707.816 4.92084 1.75073 0
M  V30 7258 H 709.51 2.9018 0.737287 0
M  V30 7259 H 707.056 1.39601 0.353211 0
M  V30 7260 H 709.009 2.77542 3.17094 0
M  V30 7261 H 707.733 1.57148 2.86308 0
M  V30 7262 H 706.392 3.29493 1.60716 0
M  V30 7263 H 706.04 2.96739 4.06147 0
M  V30 7264 H 705.74 4.65703 3.58321 0
M  V30 7265 H 707.264 4.22415 4.40906 0
M  V30 7266 H 708.678 5.22106 2.36809 0
M  V30 7267 H 707.075 5.73507 1.76662 0
M  V30 7268 H 708.145 4.79684 0.709347 0
M  V30 7269 N 709.488 -0.375779 1.53054 0
M  V30 7270 C 710.713 -1.14484 1.7294 0
M  V30 7271 C 711.138 -1.82572 0.452668 0
M  V30 7272 O 710.496 -1.71343 -0.592567 0
M  V30 7273 C 710.544 -2.15857 2.88857 0
M  V30 7274 O 709.648 -3.22725 2.56753 0
M  V30 7275 H 708.989 -0.332666 0.574656 0
M  V30 7276 H 711.519 -0.436025 1.999 0
M  V30 7277 H 711.529 -2.59631 3.14731 0
M  V30 7278 H 710.204 -1.65689 3.81471 0
M  V30 7279 H 708.781 -2.83996 2.41663 0
M  V30 7280 N 710.966 -1.44241 -0.634997 0
M  V30 7281 C 712.243 -1.37296 -1.39317 0
M  V30 7282 C 712.623 -0.0297532 -2.11079 0
M  V30 7283 O 711.971 0.987524 -2.06059 0
M  V30 7284 C 712.181 -2.56853 -2.36279 0
M  V30 7285 C 713.529 -3.00747 -2.99728 0
M  V30 7286 O 714.553 -2.5703 -2.46605 0
M  V30 7287 O 713.412 -3.76533 -3.96087 0
M  V30 7288 H 710.506 -0.543503 -0.623325 0
M  V30 7289 H 713.052 -1.56324 -0.660376 0
M  V30 7290 H 711.824 -3.46228 -1.82324 0
M  V30 7291 H 711.447 -2.40019 -3.16981 0
M  V30 7292 N 712.444 0.87505 -1.31075 0
M  V30 7293 C 713.692 1.62447 -1.20231 0
M  V30 7294 C 714.013 1.93506 0.240888 0
M  V30 7295 O 713.283 1.57847 1.16022 0
M  V30 7296 H 711.863 0.602207 -0.441991 0
M  V30 7297 H 714.525 1.04788 -1.64334 0
M  V30 7298 H 713.621 2.57031 -1.77036 0
M  V30 7299 N 713.922 1.13953 1.08869 0
M  V30 7300 C 715.333 0.916649 1.62648 0
M  V30 7301 C 715.684 -0.545589 1.88462 0
M  V30 7302 O 714.809 -1.41351 1.63856 0
M  V30 7303 C 715.404 1.65751 2.95486 0
M  V30 7304 C 713.963 1.48034 3.46068 0
M  V30 7305 C 713.11 1.68305 2.20383 0
M  V30 7306 H 716.061 1.292 0.921572 0
M  V30 7307 H 716.082 1.11794 3.63707 0
M  V30 7308 H 715.594 2.72171 2.76667 0
M  V30 7309 H 713.695 0.439416 3.7 0
M  V30 7310 H 713.808 2.24719 4.23129 0
M  V30 7311 H 712.172 1.10833 2.29321 0
M  V30 7312 H 712.955 2.76057 2.04077 0
M  V30 7313 N 715.4 -1.26948 0.933913 0
M  V30 7314 C 716.63 -1.97898 0.593279 0
M  V30 7315 C 717.038 -1.69806 -0.834412 0
M  V30 7316 O 716.381 -0.958704 -1.56699 0
M  V30 7317 C 716.443 -3.51657 0.746825 0
M  V30 7318 C 716.107 -4.03384 2.14779 0
M  V30 7319 C 717.104 -4.15682 3.12257 0
M  V30 7320 C 714.789 -4.37577 2.46641 0
M  V30 7321 C 716.783 -4.61455 4.39702 0
M  V30 7322 C 714.47 -4.8304 3.7432 0
M  V30 7323 C 715.468 -4.94939 4.70664 0
M  V30 7324 O 715.156 -5.39403 5.96071 0
M  V30 7325 H 714.888 -0.63814 0.223055 0
M  V30 7326 H 717.442 -1.62608 1.2549 0
M  V30 7327 H 715.672 -3.8669 0.0280889 0
M  V30 7328 H 717.361 -4.03821 0.410328 0
M  V30 7329 H 718.127 -3.89519 2.88964 0
M  V30 7330 H 714.006 -4.27554 1.72391 0
M  V30 7331 H 717.55 -4.70658 5.14905 0
M  V30 7332 H 713.447 -5.08646 3.97429 0
M  V30 7333 H 714.215 -5.57641 5.99148 0
M  V30 7334 N 716.879 -0.700114 -1.41195 0
M  V30 7335 C 718.104 -0.240704 -2.05998 0
M  V30 7336 C 718.529 1.10313 -1.52357 0
M  V30 7337 O 717.887 1.69154 -0.652424 0
M  V30 7338 C 717.935 -0.213783 -3.59966 0
M  V30 7339 O 717.039 0.809933 -4.04368 0
M  V30 7340 H 716.38 -0.116471 -0.653705 0
M  V30 7341 H 718.91 -0.956251 -1.80878 0
M  V30 7342 H 718.92 -0.0461852 -4.07974 0
M  V30 7343 H 717.595 -1.19454 -3.98376 0
M  V30 7344 H 716.172 0.611319 -3.67855 0
M  V30 7345 N 718.357 1.51182 -0.445186 0
M  V30 7346 C 719.305 2.29531 0.376597 0
M  V30 7347 C 720.299 1.35711 1.01385 0
M  V30 7348 O 721.505 1.53018 0.947922 0
M  V30 7349 H 717.88 0.738803 0.140267 0
M  V30 7350 H 719.851 2.96838 -0.304958 0
M  V30 7351 C 718.6 3.1552 1.4609 0
M  V30 7352 H 717.923 3.87605 0.979912 0
M  V30 7353 H 719.363 3.73384 2.009 0
M  V30 7354 C 717.822 2.31406 2.44852 0
M  V30 7355 O 718.352 1.97912 3.49562 0
M  V30 7356 N 716.558 1.94478 2.15932 0
M  V30 7357 H 716.105 2.21917 1.30808 0
M  V30 7358 H 716.063 1.38498 2.82251 0
M  V30 7359 N 719.835 0.176821 1.56605 0
M  V30 7360 C 721.246 -0.338963 1.83597 0
M  V30 7361 C 721.597 -1.62677 1.09684 0
M  V30 7362 O 720.722 -2.13524 0.351661 0
M  V30 7363 C 721.317 -0.62177 3.33046 0
M  V30 7364 C 719.876 -1.08198 3.60514 0
M  V30 7365 C 719.023 -0.120774 2.77037 0
M  V30 7366 H 721.974 0.400978 1.53551 0
M  V30 7367 H 721.995 -1.47321 3.50823 0
M  V30 7368 H 721.507 0.315692 3.86814 0
M  V30 7369 H 719.608 -2.03435 3.12162 0
M  V30 7370 H 719.721 -0.987329 4.68816 0
M  V30 7371 H 718.085 -0.619192 2.47059 0
M  V30 7372 H 718.868 0.810806 3.33588 0
M  V30 7373 N 721.313 -1.57302 -0.09688 0
M  V30 7374 C 722.543 -1.89926 -0.813114 0
M  V30 7375 C 722.951 -0.76852 -1.72888 0
M  V30 7376 O 722.294 0.268549 -1.81726 0
M  V30 7377 C 722.356 -3.17787 -1.68082 0
M  V30 7378 C 722.02 -4.4729 -0.937061 0
M  V30 7379 C 723.017 -5.1921 -0.267687 0
M  V30 7380 C 720.702 -4.93957 -0.911671 0
M  V30 7381 C 722.696 -6.36034 0.417129 0
M  V30 7382 C 720.383 -6.10693 -0.223068 0
M  V30 7383 C 721.381 -6.8158 0.440155 0
M  V30 7384 O 721.069 -7.96092 1.11772 0
M  V30 7385 H 720.801 -0.632783 -0.237828 0
M  V30 7386 H 723.355 -2.05248 -0.0790818 0
M  V30 7387 H 721.585 -2.98607 -2.45705 0
M  V30 7388 H 723.274 -3.36257 -2.27346 0
M  V30 7389 H 724.04 -4.84198 -0.278774 0
M  V30 7390 H 719.919 -4.38671 -1.41734 0
M  V30 7391 H 723.463 -6.91301 0.93537 0
M  V30 7392 H 719.36 -6.45159 -0.209821 0
M  V30 7393 H 720.128 -8.12064 1.02443 0
M  V30 7394 N 722.791 0.367657 -1.53252 0
M  V30 7395 C 723.701 1.47415 -1.82499 0
M  V30 7396 C 724.717 1.58711 -0.713222 0
M  V30 7397 O 725.893 1.74644 -1.00306 0
M  V30 7398 C 722.958 2.82706 -2.00694 0
M  V30 7399 C 722.019 2.80955 -3.24596 0
M  V30 7400 C 721.252 4.09793 -3.41914 0
M  V30 7401 O 721.475 5.05852 -2.63572 0
M  V30 7402 O 720.409 4.15731 -4.3526 0
M  V30 7403 H 724.235 1.25624 -2.765 0
M  V30 7404 H 721.82 0.557559 -1.38606 0
M  V30 7405 H 723.702 3.62873 -2.14246 0
M  V30 7406 H 722.377 3.04479 -1.09883 0
M  V30 7407 H 721.284 1.99494 -3.16469 0
M  V30 7408 H 722.617 2.64136 -4.15323 0
M  V30 7409 N 724.269 1.44576 0.627338 0
M  V30 7410 C 725.217 1.52039 1.76031 0
M  V30 7411 C 726.211 0.391796 1.64807 0
M  V30 7412 O 727.417 0.5669 1.7084 0
M  V30 7413 H 723.792 0.477165 0.581221 0
M  V30 7414 H 725.763 2.47387 1.6686 0
M  V30 7415 C 724.512 1.48539 3.14375 0
M  V30 7416 H 723.835 2.34699 3.23661 0
M  V30 7417 H 725.275 1.57821 3.93534 0
M  V30 7418 C 723.734 0.20672 3.36265 0
M  V30 7419 O 724.264 -0.72154 3.95167 0
M  V30 7420 N 722.47 0.108654 2.90397 0
M  V30 7421 H 722.017 0.864884 2.42647 0
M  V30 7422 H 721.975 -0.746121 3.05418 0
M  V30 7423 N 725.747 -0.868086 1.31537 0
M  V30 7424 C 726.972 -1.65926 1.24432 0
M  V30 7425 C 727.397 -1.87169 -0.186936 0
M  V30 7426 O 726.755 -1.4148 -1.13371 0
M  V30 7427 C 726.803 -3.00347 1.9956 0
M  V30 7428 O 725.907 -3.90221 1.33422 0
M  V30 7429 H 725.248 -0.506375 0.429512 0
M  V30 7430 H 727.778 -1.0822 1.73637 0
M  V30 7431 H 727.788 -3.50269 2.09226 0
M  V30 7432 H 726.463 -2.84205 3.03645 0
M  V30 7433 H 725.04 -3.48672 1.32219 0
M  V30 7434 N 727.225 -1.14528 -1.08264 0
M  V30 7435 C 728.155 -0.856356 -2.1723 0
M  V30 7436 C 729.136 0.189251 -1.69044 0
M  V30 7437 O 730.321 0.0456119 -1.94146 0
M  V30 7438 C 727.451 -0.334662 -3.45684 0
M  V30 7439 C 726.405 -1.31588 -4.0727 0
M  V30 7440 C 725.731 -0.653428 -5.30692 0
M  V30 7441 C 727.031 -2.67866 -4.48381 0
M  V30 7442 H 728.725 -1.76755 -2.41657 0
M  V30 7443 H 726.271 -0.851287 -1.16143 0
M  V30 7444 H 728.224 -0.120128 -4.21229 0
M  V30 7445 H 726.948 0.611967 -3.20815 0
M  V30 7446 H 725.607 -1.51661 -3.33758 0
M  V30 7447 H 725.255 0.299054 -5.0211 0
M  V30 7448 H 724.955 -1.30817 -5.72853 0
M  V30 7449 H 726.479 -0.448453 -6.08951 0
M  V30 7450 H 727.893 -2.51692 -5.15096 0
M  V30 7451 H 726.29 -3.29627 -5.01464 0
M  V30 7452 H 727.36 -3.24632 -3.60198 0
M  V30 7453 N 728.703 1.26451 -0.940633 0
M  V30 7454 C 729.952 1.93071 -0.583656 0
M  V30 7455 C 730.265 1.74618 0.881366 0
M  V30 7456 O 731.471 2.35689 1.34769 0
M  V30 7457 C 729.927 3.45927 -0.993106 0
M  V30 7458 C 729.535 3.73115 -2.4797 0
M  V30 7459 C 731.279 4.18554 -0.707998 0
M  V30 7460 C 729.186 5.19408 -2.82788 0
M  V30 7461 H 728.116 0.722824 -0.214572 0
M  V30 7462 H 730.767 1.43538 -1.1432 0
M  V30 7463 H 729.149 3.94341 -0.362099 0
M  V30 7464 H 730.323 3.35408 -3.15971 0
M  V30 7465 H 728.638 3.13719 -2.73805 0
M  V30 7466 H 731.235 5.26293 -0.94447 0
M  V30 7467 H 731.578 4.14782 0.355225 0
M  V30 7468 H 732.111 3.76003 -1.2987 0
M  V30 7469 H 728.85 5.28281 -3.88071 0
M  V30 7470 H 728.37 5.58214 -2.19449 0
M  V30 7471 H 730.049 5.87407 -2.71224 0
M  V30 7472 N 730.181 0.707592 1.40822 0
M  V30 7473 C 731.592 0.317011 1.83989 0
M  V30 7474 C 731.943 -1.14697 1.59182 0
M  V30 7475 O 731.068 -1.8818 1.06852 0
M  V30 7476 C 731.663 0.568593 3.33995 0
M  V30 7477 C 730.222 0.231804 3.75686 0
M  V30 7478 C 729.369 0.844933 2.64114 0
M  V30 7479 H 732.32 0.907349 1.30203 0
M  V30 7480 H 732.341 -0.168798 3.80125 0
M  V30 7481 H 731.853 1.63417 3.52018 0
M  V30 7482 H 729.954 -0.82903 3.6326 0
M  V30 7483 H 730.067 0.695219 4.74029 0
M  V30 7484 H 728.431 0.273588 2.53226 0
M  V30 7485 H 729.214 1.91462 2.84951 0
M  V30 7486 N 731.66 -1.50943 0.453197 0
M  V30 7487 C 732.623 -2.26684 -0.338705 0
M  V30 7488 C 733.623 -1.30748 -0.936032 0
M  V30 7489 O 734.813 -1.54327 -0.808002 0
M  V30 7490 C 731.945 -3.07063 -1.48071 0
M  V30 7491 H 733.138 -2.98131 0.325289 0
M  V30 7492 H 730.691 -1.54926 0.206771 0
M  V30 7493 H 731.426 -2.4007 -2.18029 0
M  V30 7494 H 731.211 -3.77545 -1.0584 0
M  V30 7495 H 732.701 -3.64393 -2.0398 0
M  V30 7496 N 733.138 -0.185124 -1.56509 0
M  V30 7497 C 734.101 0.72591 -2.17401 0
M  V30 7498 C 735.101 1.14819 -1.12575 0
M  V30 7499 O 736.291 1.0629 -1.38015 0
M  V30 7500 C 733.423 1.98979 -2.76803 0
M  V30 7501 H 734.616 0.195588 -2.99262 0
M  V30 7502 H 732.169 0.0644772 -1.56167 0
M  V30 7503 H 732.904 2.56287 -1.98714 0
M  V30 7504 H 732.689 1.69583 -3.53531 0
M  V30 7505 H 734.179 2.63966 -3.23592 0
M  V30 7506 N 734.616 1.57351 0.0885366 0
M  V30 7507 C 735.526 2.05858 1.12516 0
M  V30 7508 C 736.542 0.984758 1.43452 0
M  V30 7509 O 737.718 1.29836 1.53963 0
M  V30 7510 C 734.783 2.47882 2.42395 0
M  V30 7511 C 733.844 3.69487 2.18582 0
M  V30 7512 C 733.077 4.09497 3.42268 0
M  V30 7513 O 733.3 3.49536 4.50755 0
M  V30 7514 O 732.234 5.02406 3.31469 0
M  V30 7515 H 736.06 2.94467 0.743146 0
M  V30 7516 H 733.645 1.46326 0.301507 0
M  V30 7517 H 735.527 2.75509 3.18862 0
M  V30 7518 H 734.202 1.62408 2.8001 0
M  V30 7519 H 733.109 3.46967 1.39875 0
M  V30 7520 H 734.442 4.55761 1.85857 0
M  V30 7521 N 736.094 -0.359525 1.53444 0
M  V30 7522 C 737.505 -0.936009 1.61542 0
M  V30 7523 C 737.856 -1.90069 0.486633 0
M  V30 7524 O 736.981 -2.12929 -0.386047 0
M  V30 7525 C 737.576 -1.70441 2.92806 0
M  V30 7526 C 736.135 -2.23015 3.03218 0
M  V30 7527 C 735.282 -1.04438 2.56881 0
M  V30 7528 H 738.233 -0.138134 1.58098 0
M  V30 7529 H 738.254 -2.56609 2.80948 0
M  V30 7530 H 737.766 -1.00205 3.74941 0
M  V30 7531 H 735.867 -2.96475 2.25684 0
M  V30 7532 H 735.98 -2.50481 4.08407 0
M  V30 7533 H 734.344 -1.41314 2.11902 0
M  V30 7534 H 735.127 -0.356905 3.4144 0
M  V30 7535 N 737.572 -1.44907 -0.619662 0
M  V30 7536 C 738.502 -1.55488 -1.742 0
M  V30 7537 C 739.483 -0.407143 -1.65156 0
M  V30 7538 O 740.668 -0.628743 -1.8374 0
M  V30 7539 C 737.798 -1.5097 -3.1277 0
M  V30 7540 C 736.752 -2.64337 -3.36615 0
M  V30 7541 C 736.078 -2.44872 -4.75333 0
M  V30 7542 C 737.378 -4.06423 -3.28051 0
M  V30 7543 H 739.072 -2.49432 -1.65602 0
M  V30 7544 H 736.618 -1.20047 -0.795281 0
M  V30 7545 H 738.571 -1.56971 -3.91073 0
M  V30 7546 H 737.295 -0.535486 -3.2218 0
M  V30 7547 H 735.954 -2.57744 -2.60698 0
M  V30 7548 H 735.602 -1.45617 -4.81461 0
M  V30 7549 H 735.302 -3.20888 -4.92244 0
M  V30 7550 H 736.826 -2.52709 -5.55851 0
M  V30 7551 H 738.24 -4.14324 -3.96243 0
M  V30 7552 H 736.637 -4.82733 -3.56495 0
M  V30 7553 H 737.707 -4.29183 -2.25676 0
M  V30 7554 N 739.05 0.861098 -1.31996 0
M  V30 7555 C 740.461 1.43065 -1.19955 0
M  V30 7556 C 740.812 1.95273 0.190489 0
M  V30 7557 O 739.937 1.87012 1.08882 0
M  V30 7558 C 740.532 2.60052 -2.1716 0
M  V30 7559 C 739.091 3.13026 -2.09026 0
M  V30 7560 C 738.238 1.85756 -2.05888 0
M  V30 7561 H 741.189 0.668834 -1.43918 0
M  V30 7562 H 741.21 3.37016 -1.76637 0
M  V30 7563 H 740.722 2.22024 -3.18319 0
M  V30 7564 H 738.823 3.55653 -1.11092 0
M  V30 7565 H 738.936 3.74707 -2.98549 0
M  V30 7566 H 737.3 2.05088 -1.51033 0
M  V30 7567 H 738.083 1.49954 -3.08818 0
M  V30 7568 N 740.528 1.15101 1.07655 0
M  V30 7569 C 741.939 0.933848 1.61667 0
M  V30 7570 C 742.29 -0.525569 1.8903 0
M  V30 7571 O 741.415 -1.39605 1.65346 0
M  V30 7572 C 742.01 1.68876 2.93711 0
M  V30 7573 C 740.569 1.51697 3.44478 0
M  V30 7574 C 739.716 1.70633 2.18586 0
M  V30 7575 H 742.667 1.30171 0.907816 0
M  V30 7576 H 742.688 1.15645 3.625 0
M  V30 7577 H 742.2 2.7509 2.73764 0
M  V30 7578 H 740.301 0.478635 3.69513 0
M  V30 7579 H 740.414 2.29194 4.20722 0
M  V30 7580 H 738.778 1.13259 2.28132 0
M  V30 7581 H 739.561 2.78206 2.01137 0
M  V30 7582 N 742.006 -1.2595 0.947325 0
M  V30 7583 C 743.231 -1.98083 0.614633 0
M  V30 7584 C 743.656 -1.70013 -0.804815 0
M  V30 7585 O 743.014 -0.95175 -1.54309 0
M  V30 7586 C 743.062 -3.4993 0.870706 0
M  V30 7587 O 742.166 -4.12364 -0.0541451 0
M  V30 7588 H 741.507 -0.621232 0.234451 0
M  V30 7589 H 744.037 -1.60259 1.27193 0
M  V30 7590 H 744.047 -4.00198 0.794051 0
M  V30 7591 H 742.722 -3.69691 1.90529 0
M  V30 7592 H 741.299 -3.72826 0.0740917 0
M  V30 7593 N 743.484 -0.715051 -1.40445 0
M  V30 7594 C 744.714 -0.263576 -2.04912 0
M  V30 7595 C 745.122 1.09943 -1.53978 0
M  V30 7596 O 744.465 1.70203 -0.691133 0
M  V30 7597 C 744.527 -0.165048 -3.59121 0
M  V30 7598 C 744.191 -1.46325 -4.32941 0
M  V30 7599 C 745.188 -2.40506 -4.60926 0
M  V30 7600 C 742.873 -1.72203 -4.7186 0
M  V30 7601 C 744.867 -3.58812 -5.26814 0
M  V30 7602 C 742.554 -2.9079 -5.3748 0
M  V30 7603 C 743.552 -3.83917 -5.64887 0
M  V30 7604 O 743.24 -5.00424 -6.29151 0
M  V30 7605 H 742.972 -0.116317 -0.665918 0
M  V30 7606 H 745.526 -0.973774 -1.8085 0
M  V30 7607 H 743.756 0.601088 -3.82 0
M  V30 7608 H 745.445 0.251794 -4.05118 0
M  V30 7609 H 746.211 -2.21778 -4.31323 0
M  V30 7610 H 742.09 -1.00571 -4.49896 0
M  V30 7611 H 745.634 -4.31517 -5.48123 0
M  V30 7612 H 741.531 -3.09428 -5.66502 0
M  V30 7613 H 742.299 -5.00494 -6.47648 0
M  V30 7614 N 744.962 1.50701 -0.461195 0
M  V30 7615 C 746.208 2.02566 0.0973411 0
M  V30 7616 C 746.541 1.3432 1.40257 0
M  V30 7617 O 745.816 0.465692 1.88843 0
M  V30 7618 C 746.099 3.58919 0.291423 0
M  V30 7619 C 745.952 4.37751 -1.03413 0
M  V30 7620 C 747.271 4.27379 1.05048 0
M  V30 7621 H 744.39 0.73622 0.0339026 0
M  V30 7622 H 747.032 1.80115 -0.604855 0
M  V30 7623 H 745.182 3.78179 0.889539 0
M  V30 7624 H 746.854 4.30085 -1.66806 0
M  V30 7625 H 745.097 4.01885 -1.63313 0
M  V30 7626 H 745.768 5.45384 -0.852085 0
M  V30 7627 H 748.244 4.12534 0.543603 0
M  V30 7628 H 747.12 5.36609 1.15506 0
M  V30 7629 H 747.381 3.89868 2.0846 0
M  V30 7630 N 746.441 0.193421 1.56409 0
M  V30 7631 C 747.404 -0.714371 2.17783 0
M  V30 7632 C 748.404 -1.1422 1.13183 0
M  V30 7633 O 749.594 -1.05557 1.38576 0
M  V30 7634 C 746.726 -1.97509 2.77855 0
M  V30 7635 H 747.919 -0.179714 2.99361 0
M  V30 7636 H 745.472 -0.0561944 1.56199 0
M  V30 7637 H 746.207 -2.5523 2.0007 0
M  V30 7638 H 745.992 -1.67706 3.54425 0
M  V30 7639 H 747.482 -2.62246 3.24987 0
M  V30 7640 N 747.919 -1.57396 -0.0801906 0
M  V30 7641 C 749.159 -1.88668 -0.786367 0
M  V30 7642 C 749.523 -0.786216 -1.75165 0
M  V30 7643 O 750.724 -0.981769 -2.50229 0
M  V30 7644 C 748.995 -3.25176 -1.48308 0
M  V30 7645 S 750.554 -3.78177 -2.22549 0
M  V30 7646 H 747.372 -0.661094 -0.261679 0
M  V30 7647 H 749.974 -1.95453 -0.0428196 0
M  V30 7648 H 748.678 -4.03176 -0.766629 0
M  V30 7649 H 748.209 -3.21567 -2.26623 0
M  V30 7650 H 750.224 -3.52789 -3.48934 0
M  V30 7651 N 749.397 0.351382 -1.53633 0
M  V30 7652 C 750.622 1.11718 -1.74739 0
M  V30 7653 C 751.047 1.81829 -0.481657 0
M  V30 7654 O 750.405 1.72264 0.565233 0
M  V30 7655 C 750.453 2.11234 -2.92254 0
M  V30 7656 O 749.557 3.186 -2.61855 0
M  V30 7657 H 748.898 0.323482 -0.579875 0
M  V30 7658 H 751.428 0.404167 -2.00568 0
M  V30 7659 H 751.438 2.54591 -3.18822 0
M  V30 7660 H 750.113 1.59599 -3.84058 0
M  V30 7661 H 748.69 2.80115 -2.4615 0
M  V30 7662 O 750.914 1.53651 0.497361 0
M  V30 7663 H 751.605 1.55706 1.15218 0
M  V30 END ATOM
M  V30 BEGIN BOND
M  V30 END BOND
M  V30 END CTAB
M  END
$$$$
