drugbank_target|Q04707 Penicillin-binding protein 1A (DB01150; DB05659)
 OpenBabel12092120313D

  0  0  0     0  0            999 V3000
M  V30 BEGIN CTAB
M  V30 COUNTS 11034 11157 0 0 0
M  V30 BEGIN ATOM
M  V30 1 H -0.908 1.98254 -0.117106 0
M  V30 2 N 0 1.576 0 0
M  V30 3 C 0.933 2.03868 1.02534 0
M  V30 4 C 1.911 0.928543 1.3348 0
M  V30 5 O 3.095 1.19667 1.45644 0
M  V30 6 C 0.222 2.43627 2.35294 0
M  V30 7 C -0.732 3.65373 2.2001 0
M  V30 8 S 0.101 5.13292 1.52614 0
M  V30 9 C 1.257 5.56322 2.86805 0
M  V30 10 H 1.49 2.90518 0.631377 0
M  V30 11 H -0.977 1.52953 0.210867 0
M  V30 12 H 0.981 2.67203 3.11629 0
M  V30 13 H -0.358 1.57376 2.7183 0
M  V30 14 H -1.165 3.90944 3.18086 0
M  V30 15 H -1.563 3.418 1.51819 0
M  V30 16 H 0.729 5.58782 3.83104 0
M  V30 17 H 1.672 6.56266 2.65933 0
M  V30 18 H 2.08 4.83886 2.90714 0
M  V30 19 N 1.4781 -0.272755 1.55222 0
M  V30 20 C 2.4261 -1.35705 1.88909 0
M  V30 21 C 3.4201 -1.5112 0.765456 0
M  V30 22 O 4.6261 -1.52901 0.949802 0
M  V30 23 H 1.0011 -0.453868 0.59959 0
M  V30 24 H 2.9721 -1.04544 2.79487 0
M  V30 25 C 1.7211 -2.71049 2.17779 0
M  V30 26 H 1.0441 -2.59979 3.03728 0
M  V30 27 H 2.4841 -3.45858 2.45272 0
M  V30 28 C 0.9431 -3.22165 0.985473 0
M  V30 29 O 1.4731 -4.01096 0.220233 0
M  V30 30 N -0.3209 -2.7985 0.783108 0
M  V30 31 H -0.7739 -2.15775 1.40708 0
M  V30 32 H -0.8159 -3.14397 -0.0130392 0
M  V30 33 N 2.9562 -1.48159 -0.537278 0
M  V30 34 C 3.9032 -1.62138 -1.64256 0
M  V30 35 C 4.8732 -0.463668 -1.59497 0
M  V30 36 O 6.0582 -0.686241 -1.78032 0
M  V30 37 C 3.1982 -1.66028 -3.02537 0
M  V30 38 C 2.3112 -2.92855 -3.17585 0
M  V30 39 C 1.4462 -2.87952 -4.46382 0
M  V30 40 C 0.4852 -4.09516 -4.54932 0
M  V30 41 N -0.3778 -4.02733 -5.75109 0
M  V30 42 H 4.4622 -2.56529 -1.51647 0
M  V30 43 H 1.9992 -1.27224 -0.738414 0
M  V30 44 H 3.9572 -1.66265 -3.82638 0
M  V30 45 H 2.5872 -0.751331 -3.13934 0
M  V30 46 H 1.6392 -3.02395 -2.30784 0
M  V30 47 H 2.9512 -3.82822 -3.19764 0
M  V30 48 H 2.1052 -2.8655 -5.34765 0
M  V30 49 H 0.8442 -1.95702 -4.46712 0
M  V30 50 H -0.1508 -4.11201 -3.64957 0
M  V30 51 H 1.0742 -5.02917 -4.56346 0
M  V30 52 H -0.9798 -3.13299 -5.76351 0
M  V30 53 H -1.0628 -4.86397 -5.78752 0
M  V30 54 H 0.2052 -4.05379 -6.65799 0
M  V30 55 N 4.4343 0.785586 -1.36625 0
M  V30 56 C 5.8453 1.36101 -1.27803 0
M  V30 57 C 6.1963 1.96035 0.0804875 0
M  V30 58 O 5.3213 1.92834 0.982042 0
M  V30 59 C 5.9163 2.47442 -2.31426 0
M  V30 60 C 4.4753 3.00789 -2.26281 0
M  V30 61 C 3.6223 1.73896 -2.15999 0
M  V30 62 H 6.5733 0.586928 -1.47448 0
M  V30 63 H 6.5943 3.2656 -1.95291 0
M  V30 64 H 6.1063 2.03791 -3.30289 0
M  V30 65 H 4.2073 3.48851 -1.30896 0
M  V30 66 H 4.3203 3.57343 -3.19128 0
M  V30 67 H 2.6843 1.9628 -1.62316 0
M  V30 68 H 3.4673 1.32368 -3.16755 0
M  V30 69 N 5.9124 1.20967 1.01018 0
M  V30 70 C 7.1404 1.04956 1.78303 0
M  V30 71 C 7.5554 -0.400915 1.84494 0
M  V30 72 O 6.9124 -1.27826 1.30257 0
M  V30 73 C 6.9634 1.63403 3.22462 0
M  V30 74 O 6.6844 3.02775 3.16637 0
M  V30 75 C 8.1854 1.52432 4.16268 0
M  V30 76 H 5.4054 0.368858 0.560522 0
M  V30 77 H 7.9494 1.60193 1.27116 0
M  V30 78 H 6.1044 1.1227 3.70775 0
M  V30 79 H 6.5184 3.30626 4.07169 0
M  V30 80 H 7.9924 1.98078 5.15237 0
M  V30 81 H 8.4694 0.477875 4.36592 0
M  V30 82 H 9.0754 2.02787 3.73841 0
M  V30 83 N 7.3905 -1.2043 1.01659 0
M  V30 84 C 8.6395 -1.89118 0.701237 0
M  V30 85 C 8.9525 -1.79705 -0.772358 0
M  V30 86 O 10.1585 -2.43528 -1.20026 0
M  V30 87 C 8.6145 -3.39168 1.20388 0
M  V30 88 C 8.2225 -3.57166 2.70438 0
M  V30 89 C 9.9665 -4.1341 0.963953 0
M  V30 90 C 7.8735 -5.01042 3.14183 0
M  V30 91 H 6.8035 -0.708267 0.2586 0
M  V30 92 H 9.4545 -1.36239 1.22927 0
M  V30 93 H 7.8365 -3.91369 0.603824 0
M  V30 94 H 9.0105 -3.15351 3.35992 0
M  V30 95 H 7.3255 -2.96294 2.92572 0
M  V30 96 H 9.9225 -5.19491 1.26621 0
M  V30 97 H 10.2655 -4.16181 -0.099578 0
M  V30 98 H 10.7985 -3.67309 1.52738 0
M  V30 99 H 7.5375 -5.03426 4.19812 0
M  V30 100 H 7.0575 -5.43668 2.53348 0
M  V30 101 H 8.7365 -5.69623 3.0682 0
M  V30 102 N 8.8686 -0.792821 -1.36206 0
M  V30 103 C 9.7986 -0.207853 -2.32573 0
M  V30 104 C 10.7796 0.659055 -1.56813 0
M  V30 105 O 11.9646 0.592176 -1.84951 0
M  V30 106 C 9.0946 0.655449 -3.41059 0
M  V30 107 C 8.0486 -0.111842 -4.27854 0
M  V30 108 C 7.3746 0.872274 -5.27537 0
M  V30 109 C 8.6746 -1.30299 -5.05786 0
M  V30 110 H 10.3686 -1.01294 -2.81744 0
M  V30 111 H 7.9146 -0.48854 -1.3546 0
M  V30 112 H 9.8676 1.07464 -4.07467 0
M  V30 113 H 8.5916 1.49328 -2.90463 0
M  V30 114 H 7.2506 -0.512053 -3.63006 0
M  V30 115 H 6.8986 1.70523 -4.73214 0
M  V30 116 H 6.5986 0.363291 -5.86476 0
M  V30 117 H 8.1226 1.28996 -5.96818 0
M  V30 118 H 9.5366 -0.959379 -5.65216 0
M  V30 119 H 7.9336 -1.7455 -5.74154 0
M  V30 120 H 9.0036 -2.09663 -4.37229 0
M  V30 121 N 10.3467 1.47872 -0.545128 0
M  V30 122 C 11.7627 1.5829 -0.204032 0
M  V30 123 C 11.9627 1.54529 1.29317 0
M  V30 124 O 11.0187 1.44232 2.07252 0
M  V30 125 C 12.3317 2.89304 -0.819987 0
M  V30 126 C 13.8797 3.02864 -0.790105 0
M  V30 127 C 14.3547 4.3656 -1.38491 0
M  V30 128 N 15.8457 4.43165 -1.34755 0
M  V30 129 C 16.5807 5.45153 -1.77753 0
M  V30 130 N 16.0767 6.54016 -2.2855 0
M  V30 131 N 17.8697 5.36125 -1.68897 0
M  V30 132 H 10.0207 1.4856 -1.51802 0
M  V30 133 H 12.2837 0.706305 -0.632327 0
M  V30 134 H 11.9897 2.97757 -1.87173 0
M  V30 135 H 11.8637 3.75957 -0.305915 0
M  V30 136 H 14.2507 2.94014 0.252913 0
M  V30 137 H 14.3317 2.17782 -1.34181 0
M  V30 138 H 13.9757 4.46164 -2.42693 0
M  V30 139 H 13.9057 5.20353 -0.808754 0
M  V30 140 H 16.3967 3.65083 -0.975855 0
M  V30 141 H 16.7097 7.27994 -2.59314 0
M  V30 142 H 15.0547 6.54938 -2.32553 0
M  V30 143 H 18.2457 4.49975 -1.28998 0
M  V30 144 H 18.4187 6.15472 -2.02726 0
M  V30 145 N 11.8248 0.280983 1.55075 0
M  V30 146 C 12.7548 -0.597469 2.25727 0
M  V30 147 C 13.7358 -1.15417 1.24952 0
M  V30 148 O 14.9208 -1.18722 1.53684 0
M  V30 149 C 12.0508 -1.7789 2.98283 0
M  V30 150 C 11.0048 -1.35347 4.06036 0
M  V30 151 C 10.3308 -2.61846 4.66198 0
M  V30 152 C 11.6308 -0.499354 5.19907 0
M  V30 153 H 13.3248 -0.00824265 2.99399 0
M  V30 154 H 10.8708 -0.0025244 1.44 0
M  V30 155 H 12.8238 -2.39937 3.46422 0
M  V30 156 H 11.5478 -2.39405 2.22155 0
M  V30 157 H 10.2068 -0.756156 3.58717 0
M  V30 158 H 9.8548 -3.21632 3.86732 0
M  V30 159 H 9.5548 -2.3409 5.38958 0
M  V30 160 H 11.0788 -3.24732 5.1709 0
M  V30 161 H 12.4928 -1.02498 5.64063 0
M  V30 162 H 10.8898 -0.316424 5.99265 0
M  V30 163 H 11.9598 0.480459 4.82514 0
M  V30 164 N 13.3029 -1.57598 0.00835791 0
M  V30 165 C 14.5519 -1.90107 -0.673968 0
M  V30 166 C 14.8649 -0.884275 -1.7447 0
M  V30 167 O 16.0709 -1.09987 -2.48224 0
M  V30 168 C 14.5269 -3.37497 -1.24995 0
M  V30 169 C 14.1349 -4.47491 -0.2136 0
M  V30 170 C 15.8789 -3.79104 -1.90999 0
M  V30 171 C 13.7859 -5.85963 -0.80005 0
M  V30 172 H 12.7159 -0.709393 -0.255495 0
M  V30 173 H 15.3669 -1.83365 0.0702693 0
M  V30 174 H 13.7489 -3.39102 -2.04513 0
M  V30 175 H 14.9229 -4.57414 0.557596 0
M  V30 176 H 13.2379 -4.14956 0.346474 0
M  V30 177 H 15.8349 -4.79901 -2.35795 0
M  V30 178 H 16.1779 -3.1306 -2.74407 0
M  V30 179 H 16.7109 -3.79833 -1.18203 0
M  V30 180 H 13.4499 -6.555 -0.00456708 0
M  V30 181 H 12.9699 -5.79687 -1.54021 0
M  V30 182 H 14.6489 -6.33884 -1.29615 0
M  V30 183 N 14.781 0.264519 -1.55364 0
M  V30 184 C 15.728 1.32717 -1.88825 0
M  V30 185 C 16.698 1.48675 -0.740605 0
M  V30 186 O 17.883 1.62945 -0.992657 0
M  V30 187 C 15.023 2.68089 -2.17307 0
M  V30 188 C 14.136 2.60284 -3.44785 0
M  V30 189 C 13.271 3.87892 -3.62924 0
M  V30 190 C 12.31 3.74631 -4.84064 0
M  V30 191 N 11.447 4.94092 -4.98816 0
M  V30 192 H 16.287 1.03481 -2.79456 0
M  V30 193 H 13.824 0.499757 -1.3835 0
M  V30 194 H 15.782 3.46864 -2.31821 0
M  V30 195 H 14.412 2.95509 -1.299 0
M  V30 196 H 13.464 1.73173 -3.38697 0
M  V30 197 H 14.776 2.46388 -4.33698 0
M  V30 198 H 13.93 4.75109 -3.77302 0
M  V30 199 H 12.669 4.04664 -2.7221 0
M  V30 200 H 11.674 2.85797 -4.69681 0
M  V30 201 H 12.899 3.5937 -5.76221 0
M  V30 202 H 10.845 5.11259 -4.11036 0
M  V30 203 H 10.762 4.8276 -5.81789 0
M  V30 204 H 12.03 5.82857 -5.17588 0
M  V30 205 N 16.2591 1.48442 0.529413 0
M  V30 206 C 17.4891 1.59919 1.30804 0
M  V30 207 C 17.8971 0.258792 1.87422 0
M  V30 208 O 17.2401 -0.762096 1.67146 0
M  V30 209 C 17.3021 2.58693 2.49636 0
M  V30 210 C 16.9661 4.03745 2.14101 0
M  V30 211 C 17.9631 4.9141 1.6974 0
M  V30 212 C 15.6481 4.49285 2.24607 0
M  V30 213 C 17.6421 6.22645 1.36351 0
M  V30 214 C 15.3291 5.8054 1.9083 0
M  V30 215 C 16.3271 6.67043 1.46773 0
M  V30 216 O 16.0151 7.95856 1.1344 0
M  V30 217 H 15.7471 0.541981 0.404021 0
M  V30 218 H 18.3011 1.95 0.645309 0
M  V30 219 H 16.5311 2.18734 3.18892 0
M  V30 220 H 18.2201 2.59999 3.11698 0
M  V30 221 H 18.9861 4.57465 1.61094 0
M  V30 222 H 14.8651 3.82142 2.57854 0
M  V30 223 H 18.4091 6.90119 1.01891 0
M  V30 224 H 14.3061 6.14022 1.99117 0
M  V30 225 H 15.0741 8.08613 1.26832 0
M  V30 226 N 17.7372 -0.778329 1.37039 0
M  V30 227 C 18.6672 -1.90546 1.34962 0
M  V30 228 C 19.6482 -1.68681 0.219274 0
M  V30 229 O 20.8332 -1.89634 0.418624 0
M  V30 230 C 17.9632 -3.27734 1.14925 0
M  V30 231 C 16.9172 -3.64147 2.24902 0
M  V30 232 C 16.2432 -4.99806 1.89996 0
M  V30 233 C 17.5432 -3.71579 3.67051 0
M  V30 234 H 19.2372 -1.92541 2.29277 0
M  V30 235 H 16.7832 -0.924948 1.10366 0
M  V30 236 H 18.7362 -4.06215 1.12104 0
M  V30 237 H 17.4602 -3.26154 0.170631 0
M  V30 238 H 16.1192 -2.8797 2.26868 0
M  V30 239 H 15.7672 -4.94759 0.906796 0
M  V30 240 H 15.4672 -5.25139 2.63634 0
M  V30 241 H 16.9912 -5.80694 1.88749 0
M  V30 242 H 18.4052 -4.40227 3.67251 0
M  V30 243 H 16.8022 -4.08405 4.39688 0
M  V30 244 H 17.8722 -2.72404 4.01154 0
M  V30 245 N 19.2153 -1.21501 -1.00376 0
M  V30 246 C 20.4403 -1.05977 -1.78279 0
M  V30 247 C 20.8653 0.385994 -1.84097 0
M  V30 248 O 20.2233 1.27849 -1.28547 0
M  V30 249 C 20.2713 -1.66302 -3.19963 0
M  V30 250 O 19.3753 -0.909333 -4.0225 0
M  V30 251 H 18.7163 -0.372906 -0.549397 0
M  V30 252 H 21.2463 -1.6107 -1.26165 0
M  V30 253 H 21.2563 -1.70574 -3.70632 0
M  V30 254 H 19.9313 -2.71515 -3.15043 0
M  V30 255 H 18.5083 -0.941795 -3.60811 0
M  V30 256 N 20.6934 1.19889 -1.02296 0
M  V30 257 C 21.9424 1.88743 -0.711257 0
M  V30 258 C 22.2554 1.80112 0.762817 0
M  V30 259 O 23.4614 2.44161 1.18733 0
M  V30 260 C 21.9174 3.38525 -1.22185 0
M  V30 261 C 21.5254 3.55727 -2.72328 0
M  V30 262 C 23.2694 4.12893 -0.985864 0
M  V30 263 C 21.1764 4.99369 -3.16835 0
M  V30 264 H 20.1064 0.706885 -0.262353 0
M  V30 265 H 22.7574 1.35586 -1.23648 0
M  V30 266 H 21.1394 3.91044 -0.624571 0
M  V30 267 H 22.3134 3.13564 -3.3766 0
M  V30 268 H 20.6284 2.94739 -2.9414 0
M  V30 269 H 23.2254 5.18813 -1.29374 0
M  V30 270 H 23.5684 4.16228 0.0775055 0
M  V30 271 H 24.1014 3.66494 -1.54684 0
M  V30 272 H 20.8404 5.01193 -4.22476 0
M  V30 273 H 20.3604 5.42317 -2.56228 0
M  V30 274 H 22.0394 5.67988 -3.09837 0
M  V30 275 N 22.1715 0.800033 1.35784 0
M  V30 276 C 23.3965 0.388511 2.03729 0
M  V30 277 C 23.8215 -0.990481 1.5991 0
M  V30 278 O 23.1795 -1.64013 0.772612 0
M  V30 279 C 23.2275 0.4726 3.5749 0
M  V30 280 O 22.3315 -0.51646 4.09153 0
M  V30 281 H 21.6725 0.163271 0.643614 0
M  V30 282 H 24.2025 1.0841 1.73518 0
M  V30 283 H 24.2125 0.34003 4.06581 0
M  V30 284 H 22.8875 1.47848 3.88734 0
M  V30 285 H 21.4645 -0.344673 3.71304 0
M  V30 286 N 23.6496 -1.47581 0.552962 0
M  V30 287 C 24.8966 -2.02482 0.0273243 0
M  V30 288 C 25.2246 -1.42776 -1.32081 0
M  V30 289 O 24.4796 -0.571393 -1.87173 0
M  V30 290 C 24.7786 -3.57199 -0.119728 0
M  V30 291 C 24.4446 -4.35804 1.15697 0
M  V30 292 C 23.1066 -4.57 1.50681 0
M  V30 293 C 25.4586 -4.81167 2.00319 0
M  V30 294 C 22.7866 -5.20807 2.70142 0
M  V30 295 C 25.1386 -5.46293 3.18978 0
M  V30 296 C 23.8026 -5.65722 3.54281 0
M  V30 297 H 23.0726 -0.740933 0.00999866 0
M  V30 298 H 25.7196 -1.77302 0.72362 0
M  V30 299 H 24.0246 -3.81348 -0.89896 0
M  V30 300 H 25.7216 -3.97324 -0.541718 0
M  V30 301 H 22.3116 -4.19582 0.874561 0
M  V30 302 H 26.4956 -4.64574 1.74599 0
M  V30 303 H 21.7516 -5.34045 2.97668 0
M  V30 304 H 25.9256 -5.80407 3.84838 0
M  V30 305 H 23.5526 -6.14936 4.46942 0
M  V30 306 N 25.1277 -0.289203 -1.54924 0
M  V30 307 C 26.0577 0.58549 -2.2604 0
M  V30 308 C 27.0387 1.14753 -1.25562 0
M  V30 309 O 28.2237 1.17906 -1.54311 0
M  V30 310 C 25.3537 1.76305 -2.99222 0
M  V30 311 C 24.3077 1.33191 -4.06748 0
M  V30 312 C 23.6337 2.5937 -4.6758 0
M  V30 313 C 24.9337 0.471775 -5.20165 0
M  V30 314 H 26.6277 -0.00763532 -2.99399 0
M  V30 315 H 24.1737 -0.00511229 -1.43999 0
M  V30 316 H 26.1267 2.38097 -3.47689 0
M  V30 317 H 24.8507 2.38223 -2.23422 0
M  V30 318 H 23.5097 0.737121 -3.59113 0
M  V30 319 H 23.1577 3.19576 -3.88433 0
M  V30 320 H 22.8577 2.31228 -5.40192 0
M  V30 321 H 24.3817 3.21985 -5.18804 0
M  V30 322 H 25.7957 0.995056 -5.64599 0
M  V30 323 H 24.1927 0.284639 -5.99425 0
M  V30 324 H 25.2627 -0.506041 -4.82252 0
M  V30 325 N 26.6058 1.57591 -0.0167156 0
M  V30 326 C 27.8308 1.9598 0.67872 0
M  V30 327 C 28.2558 0.892546 1.65575 0
M  V30 328 O 27.6138 -0.147772 1.80697 0
M  V30 329 C 27.6618 3.33468 1.37227 0
M  V30 330 O 26.7658 3.28954 2.48722 0
M  V30 331 H 26.1068 0.639339 0.17928 0
M  V30 332 H 28.6368 2.04463 -0.0748802 0
M  V30 333 H 28.6468 3.69417 1.7319 0
M  V30 334 H 27.3218 4.10694 0.656007 0
M  V30 335 H 25.8988 3.04705 2.14963 0
M  V30 336 N 28.0839 -0.256276 1.55502 0
M  V30 337 C 29.0139 -1.32102 1.92539 0
M  V30 338 C 29.9949 -1.50684 0.789194 0
M  V30 339 O 31.1799 -1.63449 1.04872 0
M  V30 340 C 28.3099 -2.67752 2.21192 0
M  V30 341 C 27.2639 -2.63878 3.36975 0
M  V30 342 C 26.5899 -4.03236 3.51147 0
M  V30 343 C 27.8899 -2.21682 4.72921 0
M  V30 344 H 29.5839 -1.01351 2.81724 0
M  V30 345 H 27.1299 -0.486105 1.35547 0
M  V30 346 H 29.0829 -3.42365 2.45691 0
M  V30 347 H 27.8069 -3.0012 1.28824 0
M  V30 348 H 26.4659 -1.91722 3.12471 0
M  V30 349 H 26.1139 -4.32854 2.56216 0
M  V30 350 H 25.8139 -4.01535 4.29003 0
M  V30 351 H 27.3379 -4.79563 3.77957 0
M  V30 352 H 28.7519 -2.86023 4.96854 0
M  V30 353 H 27.1489 -2.3111 5.53812 0
M  V30 354 H 28.2189 -1.16833 4.70615 0
M  V30 355 N 29.562 -1.4872 -0.521534 0
M  V30 356 C 30.808 -1.574 -1.27879 0
M  V30 357 C 31.141 -0.250817 -1.92573 0
M  V30 358 O 30.416 0.743934 -1.79711 0
M  V30 359 C 30.699 -2.71843 -2.36164 0
M  V30 360 C 30.552 -4.13893 -1.76105 0
M  V30 361 C 31.871 -2.82008 -3.37875 0
M  V30 362 H 28.99 -0.572941 -0.463581 0
M  V30 363 H 31.632 -1.80927 -0.580119 0
M  V30 364 H 29.782 -2.51914 -2.95756 0
M  V30 365 H 31.454 -4.45284 -1.20499 0
M  V30 366 H 29.697 -4.20498 -1.06601 0
M  V30 367 H 30.368 -4.89804 -2.5455 0
M  V30 368 H 32.844 -3.00086 -2.88249 0
M  V30 369 H 31.72 -3.63796 -4.11028 0
M  V30 370 H 31.981 -1.90511 -3.98946 0
M  V30 371 N 31.0401 0.771051 -1.3745 0
M  V30 372 C 32.2891 1.52491 -1.3202 0
M  V30 373 C 32.6021 1.9538 0.0927347 0
M  V30 374 O 33.8081 2.70159 0.269503 0
M  V30 375 C 32.2641 2.75366 -2.31736 0
M  V30 376 C 31.8721 2.39573 -3.78562 0
M  V30 377 C 33.6161 3.53307 -2.35318 0
M  V30 378 C 31.5231 3.58954 -4.70007 0
M  V30 379 H 30.4531 0.572506 -0.490666 0
M  V30 380 H 33.1041 0.844474 -1.62914 0
M  V30 381 H 31.4861 3.45303 -1.93861 0
M  V30 382 H 32.6601 1.77415 -4.25277 0
M  V30 383 H 30.9751 1.74805 -3.77932 0
M  V30 384 H 33.5721 4.42039 -3.00842 0
M  V30 385 H 33.9151 3.93217 -1.36698 0
M  V30 386 H 34.4481 2.90367 -2.71904 0
M  V30 387 H 31.1871 3.24125 -5.69757 0
M  V30 388 H 30.7071 4.20214 -4.27996 0
M  V30 389 H 32.3861 4.25758 -4.87175 0
M  V30 390 N 32.5182 1.22032 0.997298 0
M  V30 391 C 33.4812 0.987909 2.06816 0
M  V30 392 C 34.4812 -0.0440084 1.6074 0
M  V30 393 O 35.6712 0.194053 1.73116 0
M  V30 394 C 32.8032 0.49132 3.37341 0
M  V30 395 H 33.9962 1.93803 2.28868 0
M  V30 396 H 31.5492 1.03838 1.16822 0
M  V30 397 H 32.2842 -0.463364 3.20973 0
M  V30 398 H 32.0692 1.23575 3.72118 0
M  V30 399 H 33.5592 0.348824 4.16141 0
M  V30 400 N 33.9963 -1.19345 1.0293 0
M  V30 401 C 34.9593 -2.20793 0.615069 0
M  V30 402 C 35.9593 -1.57553 -0.321533 0
M  V30 403 O 37.1493 -1.73862 -0.108483 0
M  V30 404 C 34.2813 -3.40754 -0.0999222 0
M  V30 405 H 35.4743 -2.58955 1.51269 0
M  V30 406 H 33.0273 -1.3303 0.820534 0
M  V30 407 H 33.7623 -3.0811 -1.01187 0
M  V30 408 H 33.5473 -3.87889 0.57309 0
M  V30 409 H 35.0373 -4.15898 -0.376645 0
M  V30 410 N 35.4744 -0.807222 -1.35358 0
M  V30 411 C 36.7234 -0.384376 -1.98004 0
M  V30 412 C 37.0364 1.0543 -1.64754 0
M  V30 413 O 38.2424 1.58029 -2.20769 0
M  V30 414 C 36.6984 -0.636326 -3.5423 0
M  V30 415 C 36.3064 -2.08759 -3.96388 0
M  V30 416 C 38.0504 -0.278869 -4.23583 0
M  V30 417 C 35.9574 -2.28525 -5.45463 0
M  V30 418 H 34.8874 -0.139986 -0.740891 0
M  V30 419 H 37.5384 -0.991369 -1.54415 0
M  V30 420 H 35.9204 0.0406256 -3.95979 0
M  V30 421 H 37.0944 -2.8024 -3.6579 0
M  V30 422 H 35.4094 -2.40497 -3.39926 0
M  V30 423 H 38.0064 -0.404599 -5.33167 0
M  V30 424 H 38.3494 0.775012 -4.09022 0
M  V30 425 H 38.8824 -0.909764 -3.87257 0
M  V30 426 H 35.6214 -3.32361 -5.64992 0
M  V30 427 H 35.1414 -1.61569 -5.77629 0
M  V30 428 H 36.8204 -2.10109 -6.11934 0
M  V30 429 N 36.9525 1.47285 -0.560781 0
M  V30 430 C 38.1985 2.02764 -0.0381184 0
M  V30 431 C 38.5315 1.43384 1.30976 0
M  V30 432 O 37.8065 0.590733 1.85312 0
M  V30 433 C 38.0895 3.60064 0.0511427 0
M  V30 434 C 37.9425 4.2987 -1.32408 0
M  V30 435 C 39.2615 4.33439 0.762795 0
M  V30 436 H 36.3805 0.736841 -0.0153264 0
M  V30 437 H 39.0225 1.75675 -0.723759 0
M  V30 438 H 37.1725 3.83274 0.635065 0
M  V30 439 H 38.8445 4.17989 -1.95148 0
M  V30 440 H 37.0875 3.90085 -1.8978 0
M  V30 441 H 37.7585 5.38478 -1.21431 0
M  V30 442 H 40.2345 4.15243 0.266965 0
M  V30 443 H 39.1105 5.43124 0.794221 0
M  V30 444 H 39.3715 4.02915 1.81966 0
M  V30 445 N 38.4306 0.297415 1.54768 0
M  V30 446 C 39.3606 -0.573494 2.26348 0
M  V30 447 C 40.3416 -1.14085 1.26169 0
M  V30 448 O 41.5266 -1.17086 1.54934 0
M  V30 449 C 38.6566 -1.74716 3.00153 0
M  V30 450 C 37.6106 -1.31032 4.07449 0
M  V30 451 C 36.9366 -2.56887 4.68949 0
M  V30 452 C 38.2366 -0.444183 5.20408 0
M  V30 453 H 39.9306 0.0235131 2.99391 0
M  V30 454 H 37.4766 0.0127488 1.43994 0
M  V30 455 H 39.4296 -2.3625 3.48947 0
M  V30 456 H 38.1536 -2.37035 2.24682 0
M  V30 457 H 36.8126 -0.718066 3.59499 0
M  V30 458 H 36.4606 -3.17512 3.90122 0
M  V30 459 H 36.1606 -2.2836 5.41411 0
M  V30 460 H 37.6846 -3.19229 5.20505 0
M  V30 461 H 39.0986 -0.9651 5.65118 0
M  V30 462 H 37.4956 -0.252846 5.99567 0
M  V30 463 H 38.5656 0.531609 4.81977 0
M  V30 464 N 39.9087 -1.5758 0.0250728 0
M  V30 465 C 41.1567 -1.91255 -0.653151 0
M  V30 466 C 41.4777 -0.901691 -1.729 0
M  V30 467 O 40.7477 0.0573785 -1.95816 0
M  V30 468 H 39.3277 -0.705942 -0.244243 0
M  V30 469 H 41.9897 -1.94767 0.0719209 0
M  V30 470 H 41.0857 -2.91752 -1.10847 0
M  V30 471 N 41.3868 0.248026 -1.55636 0
M  V30 472 C 42.6348 0.974295 -1.77065 0
M  V30 473 C 42.9558 1.85897 -0.588849 0
M  V30 474 O 42.2258 1.91868 0.395407 0
M  V30 475 H 40.8058 0.362733 -0.653019 0
M  V30 476 H 43.4678 0.266244 -1.93073 0
M  V30 477 H 42.5638 1.59667 -2.68166 0
M  V30 478 N 42.8649 1.48995 0.513639 0
M  V30 479 C 44.1129 1.57531 1.26604 0
M  V30 480 C 44.4339 0.258236 1.93283 0
M  V30 481 O 43.7039 -0.721502 1.8213 0
M  V30 482 H 42.2839 0.580387 0.470276 0
M  V30 483 H 44.9459 1.85552 0.596373 0
M  V30 484 H 44.0419 2.36486 2.03669 0
M  V30 485 N 44.343 -0.763751 1.37857 0
M  V30 486 C 45.589 -1.52483 1.33704 0
M  V30 487 C 45.922 -1.94051 -0.0759612 0
M  V30 488 O 45.197 -1.64675 -1.03501 0
M  V30 489 C 45.48 -2.78441 2.28348 0
M  V30 490 C 45.333 -2.43075 3.78463 0
M  V30 491 C 46.652 -3.80415 2.21298 0
M  V30 492 H 43.771 -0.553169 0.487005 0
M  V30 493 H 46.413 -0.875562 1.68624 0
M  V30 494 H 44.563 -3.33842 1.987 0
M  V30 495 H 46.235 -1.93527 4.18742 0
M  V30 496 H 44.478 -1.75666 3.96641 0
M  V30 497 H 45.149 -3.33149 4.40132 0
M  V30 498 H 47.625 -3.34527 2.47449 0
M  V30 499 H 46.501 -4.66257 2.89647 0
M  V30 500 H 46.762 -4.25262 1.20849 0
M  V30 501 N 45.8211 -1.22559 -0.990812 0
M  V30 502 C 47.0681 -1.05141 -1.73065 0
M  V30 503 C 47.3961 0.413191 -1.9006 0
M  V30 504 O 46.6511 1.32257 -1.44245 0
M  V30 505 C 46.9501 -1.71011 -3.13831 0
M  V30 506 C 46.6161 -3.20911 -3.16745 0
M  V30 507 C 45.2781 -3.61812 -3.17247 0
M  V30 508 C 47.6301 -4.16846 -3.12872 0
M  V30 509 C 44.9581 -4.97127 -3.1158 0
M  V30 510 C 47.3101 -5.5214 -3.08746 0
M  V30 511 C 45.9741 -5.92419 -3.07565 0
M  V30 512 H 45.2441 -0.384738 -0.633291 0
M  V30 513 H 47.8911 -1.5235 -1.16025 0
M  V30 514 H 46.1961 -1.16133 -3.74193 0
M  V30 515 H 47.8931 -1.55023 -3.69823 0
M  V30 516 H 44.4831 -2.88344 -3.17105 0
M  V30 517 H 48.6671 -3.86263 -3.11632 0
M  V30 518 H 43.9231 -5.27562 -3.09012 0
M  V30 519 H 48.0971 -6.26201 -3.04705 0
M  V30 520 H 45.7241 -6.97236 -3.02929 0
M  V30 521 N 47.2992 1.18797 -1.03562 0
M  V30 522 C 48.5462 1.8865 -0.736023 0
M  V30 523 C 48.8742 1.80041 0.735889 0
M  V30 524 O 48.1292 1.19179 1.55225 0
M  V30 525 C 48.4282 3.38692 -1.14117 0
M  V30 526 C 48.0942 3.67504 -2.6125 0
M  V30 527 C 46.7562 3.75078 -3.01447 0
M  V30 528 C 49.1082 3.80293 -3.56408 0
M  V30 529 C 46.4362 3.92915 -4.35701 0
M  V30 530 C 48.7882 3.99645 -4.90374 0
M  V30 531 C 47.4522 4.05453 -5.30249 0
M  V30 532 H 46.7222 0.690321 -0.26933 0
M  V30 533 H 49.3692 1.40641 -1.29971 0
M  V30 534 H 47.6742 3.88645 -0.496202 0
M  V30 535 H 49.3712 3.91072 -0.886789 0
M  V30 536 H 45.9612 3.62223 -2.29113 0
M  V30 537 H 50.1452 3.73779 -3.26501 0
M  V30 538 H 45.4012 3.95653 -4.66121 0
M  V30 539 H 49.5752 4.08482 -5.64017 0
M  V30 540 H 47.2022 4.19027 -6.34288 0
M  V30 541 N 48.7773 0.814389 1.34928 0
M  V30 542 C 50.0073 0.41054 2.0248 0
M  V30 543 C 50.4153 -0.985625 1.61499 0
M  V30 544 O 49.7583 -1.64781 0.811976 0
M  V30 545 C 49.8203 0.423384 3.56998 0
M  V30 546 C 49.4843 1.77141 4.21272 0
M  V30 547 C 50.4813 2.73093 4.42398 0
M  V30 548 C 48.1663 2.05755 4.58225 0
M  V30 549 C 50.1603 3.95838 4.9959 0
M  V30 550 C 47.8473 3.28762 5.1513 0
M  V30 551 C 48.8453 4.23621 5.35755 0
M  V30 552 O 48.5333 5.44456 5.91458 0
M  V30 553 H 48.2653 0.163997 0.655806 0
M  V30 554 H 50.8193 1.10155 1.73364 0
M  V30 555 H 49.0493 -0.324276 3.85338 0
M  V30 556 H 50.7383 0.0407683 4.0588 0
M  V30 557 H 51.5043 2.5228 4.14222 0
M  V30 558 H 47.3833 1.32727 4.4148 0
M  V30 559 H 50.9273 4.69891 5.15605 0
M  V30 560 H 46.8243 3.49443 5.42734 0
M  V30 561 H 47.5923 5.4586 6.09901 0
M  V30 562 N 50.2554 -1.46986 0.568584 0
M  V30 563 C 51.4854 -2.0653 0.0539173 0
M  V30 564 C 51.8934 -1.42004 -1.25026 0
M  V30 565 O 51.2364 -0.514541 -1.76347 0
M  V30 566 C 51.2984 -3.58938 -0.200854 0
M  V30 567 C 50.9624 -4.45572 1.01559 0
M  V30 568 C 51.9594 -4.82986 1.92407 0
M  V30 569 C 49.6444 -4.8692 1.23346 0
M  V30 570 C 51.6384 -5.60559 3.03402 0
M  V30 571 C 49.3254 -5.64255 2.34649 0
M  V30 572 C 50.3234 -6.00986 3.24507 0
M  V30 573 O 50.0114 -6.76761 4.33878 0
M  V30 574 H 49.7434 -0.674292 0.0480234 0
M  V30 575 H 52.2974 -1.89812 0.784896 0
M  V30 576 H 50.5274 -3.73911 -0.986279 0
M  V30 577 H 52.2164 -4.0046 -0.662294 0
M  V30 578 H 52.9824 -4.51633 1.76785 0
M  V30 579 H 48.8614 -4.57789 0.543178 0
M  V30 580 H 52.4054 -5.89147 3.73565 0
M  V30 581 H 48.3024 -5.95021 2.5024 0
M  V30 582 H 49.0704 -6.95168 4.32068 0
M  V30 583 N 51.7335 -0.305618 -1.54608 0
M  V30 584 C 52.9795 0.302746 -2.00528 0
M  V30 585 C 53.3125 1.53184 -1.19367 0
M  V30 586 O 52.5875 1.92598 -0.271321 0
M  V30 587 C 52.8705 0.654756 -3.54097 0
M  V30 588 C 52.7235 -0.583793 -4.45995 0
M  V30 589 C 54.0425 1.47947 -4.14487 0
M  V30 590 H 51.1615 0.108564 -0.72896 0
M  V30 591 H 53.8035 -0.418634 -1.85331 0
M  V30 592 H 51.9535 1.26935 -3.67178 0
M  V30 593 H 53.6255 -1.22224 -4.44814 0
M  V30 594 H 51.8685 -1.21615 -4.16404 0
M  V30 595 H 52.5395 -0.293287 -5.5122 0
M  V30 596 H 55.0155 0.96013 -4.04871 0
M  V30 597 H 53.8915 1.69454 -5.22088 0
M  V30 598 H 54.1525 2.47011 -3.66658 0
M  V30 599 N 53.2116 1.57565 -0.0334293 0
M  V30 600 C 54.4366 1.96689 0.657895 0
M  V30 601 C 54.8616 0.910057 1.64619 0
M  V30 602 O 54.2196 -0.128598 1.80843 0
M  V30 603 C 54.2676 3.34905 1.33683 0
M  V30 604 O 53.3716 3.31574 2.45219 0
M  V30 605 H 52.7126 0.641205 0.172489 0
M  V30 606 H 55.2426 2.04372 -0.0965621 0
M  V30 607 H 55.2526 3.71234 1.69262 0
M  V30 608 H 53.9276 4.11366 0.612411 0
M  V30 609 H 52.5046 3.06968 2.11719 0
M  V30 610 N 54.6897 -0.239769 1.55765 0
M  V30 611 C 55.6367 -1.29696 1.90913 0
M  V30 612 C 56.6067 -1.47478 0.764164 0
M  V30 613 O 57.7917 -1.61345 1.01845 0
M  V30 614 C 54.9317 -2.64598 2.21544 0
M  V30 615 C 54.0447 -2.54765 3.48882 0
M  V30 616 C 53.1797 -3.82069 3.69049 0
M  V30 617 C 52.2187 -3.66883 4.89963 0
M  V30 618 N 51.3557 -4.86094 5.06614 0
M  V30 619 H 56.1957 -0.990224 2.81067 0
M  V30 620 H 53.7327 -0.477684 1.39128 0
M  V30 621 H 55.6907 -3.43132 2.3731 0
M  V30 622 H 54.3207 -2.93405 1.34585 0
M  V30 623 H 53.3727 -1.67763 3.41409 0
M  V30 624 H 54.6847 -2.39457 4.37563 0
M  V30 625 H 53.8387 -4.69046 3.84812 0
M  V30 626 H 52.5777 -4.00282 2.78614 0
M  V30 627 H 51.5827 -2.78289 4.74168 0
M  V30 628 H 52.8077 -3.50157 5.81865 0
M  V30 629 H 50.7537 -5.04655 4.19117 0
M  V30 630 H 50.6707 -4.73443 5.89396 0
M  V30 631 H 51.9387 -5.74549 5.26795 0
M  V30 632 N 56.1678 -1.49265 -0.50573 0
M  V30 633 C 57.1308 -1.65075 -1.59006 0
M  V30 634 C 58.1308 -0.522768 -1.52065 0
M  V30 635 O 59.3208 -0.789117 -1.55302 0
M  V30 636 C 56.4528 -1.64369 -2.98656 0
M  V30 637 H 57.6458 -2.61784 -1.46319 0
M  V30 638 H 55.1988 -1.38226 -0.729616 0
M  V30 639 H 55.9338 -0.692272 -3.16825 0
M  V30 640 H 55.7188 -2.46282 -3.05103 0
M  V30 641 H 57.2088 -1.78674 -3.77446 0
M  V30 642 N 57.6459 0.756429 -1.3826 0
M  V30 643 C 59.0569 1.33359 -1.30661 0
M  V30 644 C 59.4079 1.96161 0.0388875 0
M  V30 645 O 58.5329 1.94874 0.940918 0
M  V30 646 C 59.1279 2.42477 -2.36622 0
M  V30 647 C 57.6869 2.95922 -2.3261 0
M  V30 648 C 56.8339 1.69275 -2.19639 0
M  V30 649 H 59.7849 0.55552 -1.4866 0
M  V30 650 H 59.8059 3.22345 -2.02174 0
M  V30 651 H 59.3179 1.96739 -3.34538 0
M  V30 652 H 57.4189 3.45996 -1.38267 0
M  V30 653 H 57.5319 3.50494 -3.26636 0
M  V30 654 H 55.8959 1.92793 -1.66442 0
M  V30 655 H 56.6789 1.25619 -3.19491 0
M  V30 656 N 59.124 1.23083 0.984299 0
M  V30 657 C 60.349 1.088 1.76571 0
M  V30 658 C 60.774 -0.356657 1.84688 0
M  V30 659 O 60.132 -1.25788 1.30565 0
M  V30 660 C 60.18 1.71371 3.17277 0
M  V30 661 O 59.284 0.973213 4.00752 0
M  V30 662 H 58.625 0.381599 0.543395 0
M  V30 663 H 61.155 1.63057 1.23587 0
M  V30 664 H 61.165 1.76449 3.67872 0
M  V30 665 H 59.84 2.76493 3.10684 0
M  V30 666 H 58.417 0.999078 3.59267 0
M  V30 667 N 60.6021 -1.18246 1.0419 0
M  V30 668 C 61.5321 -2.24127 0.654914 0
M  V30 669 C 62.5131 -1.66617 -0.342451 0
M  V30 670 O 63.6981 -1.92924 -0.222277 0
M  V30 671 C 60.8281 -3.47295 0.0183757 0
M  V30 672 C 59.7821 -4.17563 0.939414 0
M  V30 673 C 59.1081 -5.34438 0.167286 0
M  V30 674 C 60.4081 -4.70917 2.25908 0
M  V30 675 H 62.1021 -2.56753 1.54007 0
M  V30 676 H 59.6481 -1.23414 0.74195 0
M  V30 677 H 61.6011 -4.20572 -0.264082 0
M  V30 678 H 60.3251 -3.13907 -0.901664 0
M  V30 679 H 58.9841 -3.46186 1.20628 0
M  V30 680 H 58.6321 -4.97298 -0.7552 0
M  V30 681 H 58.3321 -5.82388 0.780901 0
M  V30 682 H 59.8561 -6.10504 -0.108125 0
M  V30 683 H 61.2701 -5.35882 2.03724 0
M  V30 684 H 59.6671 -5.29406 2.82577 0
M  V30 685 H 60.7371 -3.88272 2.9047 0
M  V30 686 N 62.0802 -0.821533 -1.34494 0
M  V30 687 C 63.3052 -0.420873 -2.03085 0
M  V30 688 C 63.7302 0.964915 -1.61465 0
M  V30 689 O 63.0882 1.62763 -0.798607 0
M  V30 690 C 63.1362 -0.529414 -3.56693 0
M  V30 691 O 62.2402 0.451302 -4.09923 0
M  V30 692 H 61.5812 -0.173489 -0.640935 0
M  V30 693 H 64.1112 -1.11157 -1.71771 0
M  V30 694 H 64.1212 -0.404671 -4.05988 0
M  V30 695 H 62.7962 -1.54014 -3.86332 0
M  V30 696 H 61.3732 0.285558 -3.71805 0
M  V30 697 N 63.5583 1.46682 -0.576371 0
M  V30 698 C 64.4683 2.34032 0.163141 0
M  V30 699 C 65.4843 1.49367 0.892501 0
M  V30 700 O 66.6603 1.82252 0.857106 0
M  V30 701 C 63.7253 3.26435 1.16795 0
M  V30 702 C 62.7863 4.26998 0.443944 0
M  V30 703 C 62.0193 5.14986 1.40088 0
M  V30 704 O 62.2423 5.05785 2.637 0
M  V30 705 O 61.1763 5.94906 0.914917 0
M  V30 706 H 65.0023 2.98607 -0.55388 0
M  V30 707 H 62.5873 1.45554 -0.336821 0
M  V30 708 H 64.4693 3.83459 1.74748 0
M  V30 709 H 63.1443 2.64465 1.86655 0
M  V30 710 H 62.0513 3.7368 -0.177271 0
M  V30 711 H 63.3843 4.91736 -0.213566 0
M  V30 712 N 65.0364 0.313813 1.54444 0
M  V30 713 C 66.2614 -0.296681 2.05267 0
M  V30 714 C 66.6864 -1.45757 1.18897 0
M  V30 715 O 66.0444 -1.80239 0.195886 0
M  V30 716 C 66.0924 -0.71831 3.53373 0
M  V30 717 O 65.1964 -1.82175 3.69981 0
M  V30 718 H 64.5374 -0.0554061 0.661684 0
M  V30 719 H 67.0674 0.459387 1.99376 0
M  V30 720 H 67.0774 -1.00364 3.95463 0
M  V30 721 H 65.7524 0.130821 4.15694 0
M  V30 722 H 64.3294 -1.53598 3.39797 0
M  V30 723 N 66.5145 -1.57545 0.0417849 0
M  V30 724 C 67.4615 -2.10977 -0.935805 0
M  V30 725 C 68.4315 -1.01486 -1.31491 0
M  V30 726 O 69.6165 -1.2898 -1.40602 0
M  V30 727 C 66.7565 -2.65169 -2.2086 0
M  V30 728 C 65.8695 -3.88714 -1.88482 0
M  V30 729 C 65.0045 -4.31254 -3.1015 0
M  V30 730 C 64.0435 -5.47524 -2.7365 0
M  V30 731 N 63.1805 -5.85162 -3.87982 0
M  V30 732 H 68.0205 -2.94218 -0.473249 0
M  V30 733 H 65.5575 -1.45415 -0.221981 0
M  V30 734 H 67.5155 -2.94685 -2.95325 0
M  V30 735 H 66.1455 -1.8474 -2.64709 0
M  V30 736 H 65.1975 -3.65849 -1.04205 0
M  V30 737 H 66.5095 -4.73245 -1.57608 0
M  V30 738 H 65.6635 -4.62273 -3.92923 0
M  V30 739 H 64.4025 -3.45516 -3.44195 0
M  V30 740 H 63.4075 -5.16187 -1.89291 0
M  V30 741 H 64.6325 -6.34971 -2.40807 0
M  V30 742 H 62.5785 -5.02377 -4.21846 0
M  V30 743 H 62.4955 -6.64362 -3.60775 0
M  V30 744 H 63.7635 -6.20791 -4.71422 0
M  V30 745 N 67.9926 0.231505 -1.5589 0
M  V30 746 C 68.9226 1.29022 -1.94617 0
M  V30 747 C 69.9036 1.4941 -0.813067 0
M  V30 748 O 71.0886 1.6176 -1.07459 0
M  V30 749 C 68.2186 2.64199 -2.25424 0
M  V30 750 C 67.1726 2.58484 -3.41131 0
M  V30 751 C 66.4986 3.97599 -3.57518 0
M  V30 752 C 67.7986 2.1413 -4.76388 0
M  V30 753 H 69.4926 0.968563 -2.83301 0
M  V30 754 H 67.0386 0.464479 -1.36303 0
M  V30 755 H 68.9916 3.38413 -2.51107 0
M  V30 756 H 67.7156 2.98032 -1.33583 0
M  V30 757 H 66.3746 1.86727 -3.15481 0
M  V30 758 H 66.0226 4.28723 -2.6307 0
M  V30 759 H 65.7226 3.94659 -4.35337 0
M  V30 760 H 67.2466 4.7349 -3.85538 0
M  V30 761 H 68.6606 2.78083 -5.01341 0
M  V30 762 H 67.0576 2.2227 -5.57419 0
M  V30 763 H 68.1276 1.09331 -4.72414 0
M  V30 764 N 69.4707 1.49531 0.497807 0
M  V30 765 C 70.7167 1.59415 1.25358 0
M  V30 766 C 71.0497 0.281422 1.9215 0
M  V30 767 O 70.3247 -0.715249 1.80871 0
M  V30 768 C 70.6077 2.75566 2.3181 0
M  V30 769 C 70.4607 4.16642 1.69498 0
M  V30 770 C 71.7797 2.87347 3.33346 0
M  V30 771 H 68.8987 0.580244 0.454408 0
M  V30 772 H 71.5407 1.81827 0.551262 0
M  V30 773 H 69.6907 2.56587 2.91711 0
M  V30 774 H 71.3627 4.47145 1.13399 0
M  V30 775 H 69.6057 4.22141 0.998978 0
M  V30 776 H 70.2767 4.93792 2.46725 0
M  V30 777 H 72.7527 3.04634 2.83438 0
M  V30 778 H 71.6287 3.70289 4.05188 0
M  V30 779 H 71.8897 1.96834 3.95865 0
M  V30 780 N 70.9488 -0.749086 1.3866 0
M  V30 781 C 71.9118 -1.84457 1.36045 0
M  V30 782 C 72.9118 -1.58682 0.260122 0
M  V30 783 O 74.1018 -1.66343 0.517261 0
M  V30 784 C 71.2338 -3.22008 1.11911 0
M  V30 785 H 72.4268 -1.88182 2.33512 0
M  V30 786 H 69.9798 -0.951266 1.24019 0
M  V30 787 H 70.7148 -3.2395 0.150686 0
M  V30 788 H 70.4998 -3.42111 1.91579 0
M  V30 789 H 71.9898 -4.0208 1.12788 0
M  V30 790 N 72.4269 -1.23603 -0.977757 0
M  V30 791 C 73.6549 -1.09646 -1.75458 0
M  V30 792 C 74.0699 0.351859 -1.85492 0
M  V30 793 O 73.4269 1.24327 -1.336 0
M  V30 794 C 73.4779 -1.71895 -3.18016 0
M  V30 795 O 73.1989 -3.11063 -3.08498 0
M  V30 796 C 74.6999 -1.63415 -4.12081 0
M  V30 797 H 71.9199 -0.38359 -0.550545 0
M  V30 798 H 74.4639 -1.63507 -1.22824 0
M  V30 799 H 72.6189 -1.22061 -3.67668 0
M  V30 800 H 73.0329 -3.41305 -3.9826 0
M  V30 801 H 74.5069 -2.11669 -5.09804 0
M  V30 802 H 74.9839 -0.593462 -4.35172 0
M  V30 803 H 75.5899 -2.12628 -3.68334 0
M  V30 804 N 73.905 1.17692 -1.04816 0
M  V30 805 C 75.133 1.91786 -0.776254 0
M  V30 806 C 75.548 1.76604 0.667577 0
M  V30 807 O 74.905 1.10067 1.45573 0
M  V30 808 C 74.956 3.42967 -1.14263 0
M  V30 809 O 74.677 3.57678 -2.52978 0
M  V30 810 C 76.178 4.34144 -0.896311 0
M  V30 811 H 73.398 0.608624 -0.282519 0
M  V30 812 H 75.942 1.49268 -1.39783 0
M  V30 813 H 74.097 3.83245 -0.565874 0
M  V30 814 H 74.511 4.51319 -2.67229 0
M  V30 815 H 75.985 5.38744 -1.20244 0
M  V30 816 H 76.462 4.38876 0.168636 0
M  V30 817 H 77.068 3.99574 -1.45672 0
M  V30 818 N 75.3831 0.828654 1.34056 0
M  V30 819 C 76.6081 0.431637 2.02859 0
M  V30 820 C 77.0331 -0.956339 1.61975 0
M  V30 821 O 76.3911 -1.62338 0.807228 0
M  V30 822 C 76.4391 0.548323 3.56407 0
M  V30 823 O 75.5431 -0.429556 4.10157 0
M  V30 824 H 74.8841 0.176886 0.640006 0
M  V30 825 H 77.4141 1.12066 1.71179 0
M  V30 826 H 77.4241 0.426196 4.05768 0
M  V30 827 H 76.0991 1.5606 3.8551 0
M  V30 828 H 74.6761 -0.265836 3.71951 0
M  V30 829 N 76.8612 -1.46375 0.584142 0
M  V30 830 C 78.0862 -2.07268 0.0740405 0
M  V30 831 C 78.5112 -1.42979 -1.22223 0
M  V30 832 O 77.8692 -0.514092 -1.73859 0
M  V30 833 C 77.9172 -3.60518 -0.0767769 0
M  V30 834 O 77.0212 -3.96533 -1.13292 0
M  V30 835 H 76.3622 -0.660961 0.0634524 0
M  V30 836 H 78.8922 -1.87991 0.807492 0
M  V30 837 H 78.9022 -4.07021 -0.282489 0
M  V30 838 H 77.5772 -4.06702 0.86986 0
M  V30 839 H 76.1542 -3.61738 -0.905553 0
M  V30 840 N 78.3393 -0.321999 -1.54275 0
M  V30 841 C 79.2863 0.544664 -2.24281 0
M  V30 842 C 80.2563 1.1129 -1.23303 0
M  V30 843 O 81.4413 1.15354 -1.51981 0
M  V30 844 C 78.5813 1.70045 -3.00298 0
M  V30 845 C 77.6943 1.16159 -4.1609 0
M  V30 846 C 76.8293 2.28293 -4.79641 0
M  V30 847 C 75.8683 1.71648 -5.8754 0
M  V30 848 N 75.0053 2.77438 -6.44959 0
M  V30 849 H 79.8453 -0.0588907 -2.97942 0
M  V30 850 H 77.3823 -0.0408345 -1.47043 0
M  V30 851 H 79.3403 2.38054 -3.42616 0
M  V30 852 H 77.9703 2.27531 -2.28975 0
M  V30 853 H 77.0223 0.373092 -3.78566 0
M  V30 854 H 78.3343 0.707087 -4.93763 0
M  V30 855 H 77.4883 3.0421 -5.2492 0
M  V30 856 H 76.2273 2.77079 -4.01346 0
M  V30 857 H 75.2323 0.942282 -5.41665 0
M  V30 858 H 76.4573 1.23741 -6.67731 0
M  V30 859 H 74.4033 3.25519 -5.69538 0
M  V30 860 H 74.3203 2.36547 -7.1804 0
M  V30 861 H 75.5883 3.53189 -6.94894 0
M  V30 862 N 79.8174 1.5752 -0.0501392 0
M  V30 863 C 81.0664 1.91827 0.623328 0
M  V30 864 C 81.3794 0.930222 1.72065 0
M  V30 865 O 82.5854 1.1653 2.4522 0
M  V30 866 C 81.0414 3.40692 1.16003 0
M  V30 867 C 80.6494 4.479 0.0948811 0
M  V30 868 C 82.3934 3.84034 1.80881 0
M  V30 869 C 80.3004 5.87879 0.644411 0
M  V30 870 H 79.2304 0.715918 0.236596 0
M  V30 871 H 81.8814 1.83115 -0.118861 0
M  V30 872 H 80.2634 3.44405 1.9545 0
M  V30 873 H 81.4374 4.55775 -0.678675 0
M  V30 874 H 79.7524 4.13892 -0.45637 0
M  V30 875 H 82.3494 4.85984 2.22988 0
M  V30 876 H 82.6924 3.20225 2.6601 0
M  V30 877 H 83.2254 3.82833 1.0809 0
M  V30 878 H 79.9644 6.55282 -0.169229 0
M  V30 879 H 79.4844 5.83567 1.38598 0
M  V30 880 H 81.1634 6.37098 1.12763 0
M  V30 881 N 81.2955 -0.223234 1.56011 0
M  V30 882 C 82.5255 -0.963413 1.82762 0
M  V30 883 C 82.9335 -1.78516 0.626804 0
M  V30 884 O 82.2765 -1.78974 -0.414014 0
M  V30 885 C 82.3385 -1.93126 3.0322 0
M  V30 886 C 82.0025 -1.2942 4.38291 0
M  V30 887 C 82.9995 -0.684916 5.15369 0
M  V30 888 C 80.6845 -1.30647 4.85012 0
M  V30 889 C 82.6785 -0.0963971 6.37327 0
M  V30 890 C 80.3655 -0.71411 6.06913 0
M  V30 891 C 81.3635 -0.110123 6.82911 0
M  V30 892 O 81.0515 0.47303 8.02507 0
M  V30 893 H 80.7835 -0.288011 0.611576 0
M  V30 894 H 83.3375 -0.244103 2.03944 0
M  V30 895 H 81.5675 -2.68952 2.77852 0
M  V30 896 H 83.2565 -2.53685 3.16857 0
M  V30 897 H 84.0225 -0.667774 4.80381 0
M  V30 898 H 79.9015 -1.76598 4.25833 0
M  V30 899 H 83.4455 0.375657 6.96588 0
M  V30 900 H 79.3425 -0.728659 6.41374 0
M  V30 901 H 80.1105 0.367186 8.17676 0
M  V30 902 N 82.7736 -1.49793 -0.48987 0
M  V30 903 C 84.0506 -1.50348 -1.25119 0
M  V30 904 C 84.4306 -0.237466 -2.0976 0
M  V30 905 O 83.7786 0.77981 -2.14782 0
M  V30 906 C 83.9886 -2.78872 -2.09837 0
M  V30 907 C 85.3366 -3.288 -2.68655 0
M  V30 908 O 86.3606 -2.80065 -2.20096 0
M  V30 909 O 85.2196 -4.13707 -3.57083 0
M  V30 910 H 82.3136 -0.602242 -0.566775 0
M  V30 911 H 84.8596 -1.62067 -0.503229 0
M  V30 912 H 83.6316 -3.62499 -1.47343 0
M  V30 913 H 83.2546 -2.70066 -2.91805 0
M  V30 914 N 84.2517 0.741722 -1.39055 0
M  V30 915 C 85.1997 1.87702 -1.3737 0
M  V30 916 C 86.1937 1.67427 -0.257812 0
M  V30 917 O 87.3997 1.7485 -0.427489 0
M  V30 918 H 83.7747 0.617757 -0.428812 0
M  V30 919 H 85.7457 1.86239 -2.33147 0
M  V30 920 C 84.4947 3.25315 -1.22741 0
M  V30 921 H 83.8177 3.41509 -2.07873 0
M  V30 922 H 85.2577 4.04964 -1.25618 0
M  V30 923 C 83.7167 3.36838 0.0647316 0
M  V30 924 O 84.2467 3.88073 1.03741 0
M  V30 925 N 82.4527 2.90329 0.125544 0
M  V30 926 H 81.9997 2.48823 -0.666682 0
M  V30 927 H 81.9577 2.98418 0.989639 0
M  V30 928 N 85.7298 1.2412 0.971189 0
M  V30 929 C 86.6768 1.0305 2.06517 0
M  V30 930 C 87.6468 -0.0550666 1.66009 0
M  V30 931 O 88.8318 0.0988688 1.90544 0
M  V30 932 C 85.9718 0.637653 3.39158 0
M  V30 933 C 85.0848 1.79633 3.92882 0
M  V30 934 C 84.2198 1.34939 5.13775 0
M  V30 935 C 83.2588 2.47823 5.59687 0
M  V30 936 N 82.3958 2.04022 6.71803 0
M  V30 937 H 87.2358 1.96685 2.23873 0
M  V30 938 H 84.7728 0.979694 1.09729 0
M  V30 939 H 86.7308 0.390931 4.15364 0
M  V30 940 H 85.3608 -0.261693 3.21737 0
M  V30 941 H 84.4128 2.15681 3.13346 0
M  V30 942 H 85.7248 2.64466 4.22918 0
M  V30 943 H 84.8788 1.06134 5.97345 0
M  V30 944 H 83.6178 0.471557 4.85415 0
M  V30 945 H 82.6228 2.77392 4.74693 0
M  V30 946 H 83.8478 3.36158 5.90063 0
M  V30 947 H 81.7938 1.18632 6.45184 0
M  V30 948 H 81.7108 2.82409 7.01271 0
M  V30 949 H 82.9788 1.78347 7.58823 0
M  V30 950 N 87.2079 -1.17134 1.05439 0
M  V30 951 C 88.1559 -2.23289 0.651511 0
M  V30 952 C 89.1499 -1.66186 -0.328411 0
M  V30 953 O 90.3559 -1.78949 -0.194206 0
M  V30 954 H 86.7309 -0.726938 0.192523 0
M  V30 955 H 88.7019 -2.54565 1.55689 0
M  V30 956 C 87.4509 -3.47671 0.0448436 0
M  V30 957 H 86.7739 -3.91918 0.78996 0
M  V30 958 H 88.2139 -4.2353 -0.19964 0
M  V30 959 C 86.6729 -3.14453 -1.20918 0
M  V30 960 O 87.2029 -3.29459 -2.29825 0
M  V30 961 N 85.4089 -2.68657 -1.10779 0
M  V30 962 H 84.9559 -2.56646 -0.221526 0
M  V30 963 H 84.9139 -2.46804 -1.9477 0
M  V30 964 N 88.686 -0.835752 -1.33615 0
M  V30 965 C 89.618 -0.224151 -2.28101 0
M  V30 966 C 90.631 0.593331 -1.51603 0
M  V30 967 O 91.82 0.420911 -1.73466 0
M  V30 968 C 88.92 0.703309 -3.31522 0
M  V30 969 C 88.093 -0.0741528 -4.37337 0
M  V30 970 C 87.152 0.776176 -5.20444 0
M  V30 971 O 86.178 0.216506 -5.68788 0
M  V30 972 N 87.38 2.09401 -5.41416 0
M  V30 973 H 90.145 -1.03598 -2.81225 0
M  V30 974 H 87.706 -0.69392 -1.46275 0
M  V30 975 H 89.698 1.27707 -3.84022 0
M  V30 976 H 88.268 1.41585 -2.78698 0
M  V30 977 H 87.488 -0.82928 -3.85378 0
M  V30 978 H 88.776 -0.608863 -5.05144 0
M  V30 979 H 88.174 2.57229 -5.03835 0
M  V30 980 H 86.731 2.61633 -5.96985 0
M  V30 981 N 90.1641 1.46063 -0.591896 0
M  V30 982 C 91.0941 2.33172 0.123673 0
M  V30 983 C 92.0751 1.45897 0.87453 0
M  V30 984 O 93.2601 1.74698 0.848181 0
M  V30 985 C 90.3901 3.28336 1.13194 0
M  V30 986 C 89.3441 4.25124 0.495324 0
M  V30 987 C 88.6701 5.09863 1.61071 0
M  V30 988 C 89.9701 5.19143 -0.573425 0
M  V30 989 H 91.6641 2.93252 -0.603646 0
M  V30 990 H 89.2101 1.41014 -0.291741 0
M  V30 991 H 91.1631 3.88137 1.64097 0
M  V30 992 H 89.8871 2.66383 1.88965 0
M  V30 993 H 88.5461 3.66599 0.00729452 0
M  V30 994 H 88.1941 4.44288 2.35832 0
M  V30 995 H 87.8941 5.75417 1.19035 0
M  V30 996 H 89.4181 5.72529 2.12233 0
M  V30 997 H 90.8321 5.73106 -0.1491 0
M  V30 998 H 89.2291 5.93089 -0.914636 0
M  V30 999 H 90.2991 4.62519 -1.45617 0
M  V30 1000 N 91.6422 0.330177 1.54103 0
M  V30 1001 C 92.8912 -0.271336 1.99867 0
M  V30 1002 C 93.2042 -1.52723 1.22209 0
M  V30 1003 O 94.4102 -2.20515 1.58383 0
M  V30 1004 C 92.8662 -0.534032 3.55916 0
M  V30 1005 C 92.4742 0.705193 4.42415 0
M  V30 1006 C 94.2182 -1.09514 4.1013 0
M  V30 1007 C 92.1252 0.414035 5.89949 0
M  V30 1008 H 91.0552 -0.105166 0.74663 0
M  V30 1009 H 93.7062 0.443429 1.78062 0
M  V30 1010 H 92.0882 -1.30915 3.73734 0
M  V30 1011 H 93.2622 1.4804 4.36372 0
M  V30 1012 H 91.5772 1.18698 3.99124 0
M  V30 1013 H 94.1742 -1.3277 5.17954 0
M  V30 1014 H 94.5172 -2.04656 3.62521 0
M  V30 1015 H 95.0502 -0.381038 3.95971 0
M  V30 1016 H 91.7892 1.33481 6.41766 0
M  V30 1017 H 91.3092 -0.323336 5.98928 0
M  V30 1018 H 92.9882 0.0263105 6.46995 0
M  V30 1019 N 93.1203 -1.57491 0.0584922 0
M  V30 1020 C 94.0833 -2.1085 -0.898617 0
M  V30 1021 C 95.0833 -1.02964 -1.23511 0
M  V30 1022 O 96.2733 -1.29007 -1.17059 0
M  V30 1023 C 93.4053 -2.59881 -2.20623 0
M  V30 1024 H 94.5983 -2.96715 -0.435936 0
M  V30 1025 H 92.1513 -1.55141 -0.190023 0
M  V30 1026 H 92.8863 -1.77431 -2.71457 0
M  V30 1027 H 92.6713 -3.38727 -1.97501 0
M  V30 1028 H 94.1613 -3.01285 -2.89166 0
M  V30 1029 N 94.5984 0.214957 -1.56127 0
M  V30 1030 C 95.8754 0.963093 -1.70247 0
M  V30 1031 C 96.2554 2.02166 -0.60764 0
M  V30 1032 O 95.6034 2.25244 0.384385 0
M  V30 1033 C 95.8134 1.56756 -3.11815 0
M  V30 1034 C 97.1614 2.0573 -3.7143 0
M  V30 1035 O 98.1854 1.66637 -3.14818 0
M  V30 1036 O 97.0444 2.77603 -4.70743 0
M  V30 1037 H 94.1384 0.450321 -0.693643 0
M  V30 1038 H 96.6844 0.206219 -1.68442 0
M  V30 1039 H 95.4564 0.803533 -3.82961 0
M  V30 1040 H 95.0794 2.3898 -3.17765 0
M  V30 1041 N 96.0765 1.50051 0.48192 0
M  V30 1042 C 97.0065 1.71046 1.58951 0
M  V30 1043 C 97.9875 0.559288 1.60642 0
M  V30 1044 O 99.1725 0.797243 1.77081 0
M  V30 1045 C 96.3025 1.79462 2.97339 0
M  V30 1046 C 95.2565 2.94558 3.10515 0
M  V30 1047 C 94.5825 2.88105 4.50444 0
M  V30 1048 C 95.8825 4.35227 2.88747 0
M  V30 1049 H 97.5765 2.6378 1.41635 0
M  V30 1050 H 95.1225 1.26936 0.679942 0
M  V30 1051 H 97.0755 1.92734 3.74742 0
M  V30 1052 H 95.7995 0.833412 3.15788 0
M  V30 1053 H 94.4585 2.80918 2.35543 0
M  V30 1054 H 94.1065 1.89853 4.65795 0
M  V30 1055 H 93.8065 3.65366 4.60197 0
M  V30 1056 H 95.3305 3.03412 5.29881 0
M  V30 1057 H 96.7445 4.49449 3.55905 0
M  V30 1058 H 95.1415 5.13856 3.09955 0
M  V30 1059 H 96.2115 4.48347 1.84696 0
M  V30 1060 N 97.5546 -0.734337 1.39446 0
M  V30 1061 C 98.8026 -1.49096 1.36436 0
M  V30 1062 C 99.1236 -1.94961 -0.0388255 0
M  V30 1063 O 98.3936 -1.69033 -0.990191 0
M  V30 1064 H 96.9736 -0.5531 0.502085 0
M  V30 1065 H 99.6356 -0.871725 1.74319 0
M  V30 1066 H 98.7316 -2.37276 2.02747 0
M  V30 1067 N 99.0327 -1.24633 -0.964593 0
M  V30 1068 C 100.258 -1.11596 -1.74818 0
M  V30 1069 C 100.683 0.32723 -1.85232 0
M  V30 1070 O 100.041 1.23695 -1.32549 0
M  V30 1071 C 100.089 -1.76397 -3.1451 0
M  V30 1072 O 99.1927 -1.03685 -3.99153 0
M  V30 1073 H 98.5337 -0.390196 -0.537255 0
M  V30 1074 H 101.064 -1.65002 -1.20977 0
M  V30 1075 H 101.074 -1.8228 -3.65018 0
M  V30 1076 H 99.7487 -2.81401 -3.06246 0
M  V30 1077 H 98.3257 -1.05611 -3.57632 0
M  V30 1078 N 100.511 1.16574 -1.06058 0
M  V30 1079 C 101.421 2.2452 -0.680282 0
M  V30 1080 C 102.437 1.71348 0.302604 0
M  V30 1081 O 103.613 2.00822 0.152513 0
M  V30 1082 C 100.678 3.46629 -0.0700315 0
M  V30 1083 C 99.7388 4.14849 -1.10448 0
M  V30 1084 C 98.9718 5.31129 -0.523256 0
M  V30 1085 O 99.1948 5.66514 0.664709 0
M  V30 1086 O 98.1288 5.88526 -1.26179 0
M  V30 1087 H 101.955 2.59355 -1.58015 0
M  V30 1088 H 99.5398 1.24043 -0.832694 0
M  V30 1089 H 101.422 4.20543 0.268667 0
M  V30 1090 H 100.097 3.13573 0.803353 0
M  V30 1091 H 99.0038 3.42916 -1.49532 0
M  V30 1092 H 100.337 4.51954 -1.94931 0
M  V30 1093 N 101.989 0.842826 1.3317 0
M  V30 1094 C 103.405 0.531128 1.50503 0
M  V30 1095 C 103.605 -0.940734 1.78192 0
M  V30 1096 O 102.661 -1.72436 1.84451 0
M  V30 1097 C 103.974 1.40789 2.65705 0
M  V30 1098 C 105.522 1.40708 2.79589 0
M  V30 1099 C 105.997 2.26878 3.97857 0
M  V30 1100 N 107.488 2.24609 4.05099 0
M  V30 1101 C 108.223 2.88019 4.95815 0
M  V30 1102 N 107.719 3.60496 5.9162 0
M  V30 1103 N 109.512 2.77469 4.88843 0
M  V30 1104 H 101.663 1.79557 1.1346 0
M  V30 1105 H 103.926 0.766267 0.558156 0
M  V30 1106 H 103.632 2.454 2.51936 0
M  V30 1107 H 103.506 1.08677 3.61205 0
M  V30 1108 H 105.893 0.368668 2.92788 0
M  V30 1109 H 105.974 1.76829 1.84838 0
M  V30 1110 H 105.618 3.3078 3.85418 0
M  V30 1111 H 105.548 1.88096 4.91861 0
M  V30 1112 H 108.039 1.71906 3.36536 0
M  V30 1113 H 108.352 4.06076 6.57512 0
M  V30 1114 H 106.697 3.64604 5.91683 0
M  V30 1115 H 109.888 2.20406 4.12963 0
M  V30 1116 H 110.061 3.2717 5.59342 0
M  V30 1117 N 103.467 -1.45747 0.599634 0
M  V30 1118 C 104.883 -1.57424 0.26264 0
M  V30 1119 C 105.083 -1.59222 -1.23493 0
M  V30 1120 O 104.139 -1.51825 -2.01756 0
M  V30 1121 C 105.452 -2.86061 0.926795 0
M  V30 1122 C 107 -2.99722 0.901967 0
M  V30 1123 C 107.475 -4.31119 1.54598 0
M  V30 1124 N 108.966 -4.37858 1.5111 0
M  V30 1125 C 109.701 -5.3818 1.97863 0
M  V30 1126 N 109.197 -6.45083 2.52666 0
M  V30 1127 N 110.99 -5.29487 1.88679 0
M  V30 1128 H 103.141 -1.42823 1.57211 0
M  V30 1129 H 105.404 -0.68235 0.658105 0
M  V30 1130 H 105.11 -2.90605 1.98095 0
M  V30 1131 H 104.984 -3.74563 0.445238 0
M  V30 1132 H 107.371 -2.9475 -0.143617 0
M  V30 1133 H 107.452 -2.12652 1.42171 0
M  V30 1134 H 107.096 -4.36849 2.59085 0
M  V30 1135 H 107.026 -5.16992 1.00132 0
M  V30 1136 H 109.517 -3.61209 1.11068 0
M  V30 1137 H 109.83 -7.17869 2.86155 0
M  V30 1138 H 108.175 -6.45856 2.56701 0
M  V30 1139 H 111.366 -4.44877 1.4561 0
M  V30 1140 H 111.539 -6.07524 2.25429 0
M  V30 1141 N 104.945 -0.338344 -1.53925 0
M  V30 1142 C 106.191 0.260143 -2.01125 0
M  V30 1143 C 106.524 1.50617 -1.22589 0
M  V30 1144 O 105.799 1.91979 -0.312113 0
M  V30 1145 C 106.082 0.579499 -3.55407 0
M  V30 1146 C 105.935 -0.678264 -4.44657 0
M  V30 1147 C 107.254 1.39122 -4.17532 0
M  V30 1148 H 104.373 0.0930772 -0.731099 0
M  V30 1149 H 107.015 -0.457852 -1.84401 0
M  V30 1150 H 105.165 1.19118 -3.69788 0
M  V30 1151 H 106.837 -1.31631 -4.42121 0
M  V30 1152 H 105.08 -1.3042 -4.13731 0
M  V30 1153 H 105.751 -0.410143 -5.50474 0
M  V30 1154 H 108.227 0.874035 -4.06817 0
M  V30 1155 H 107.103 1.58342 -5.25565 0
M  V30 1156 H 107.364 2.39178 -3.71815 0
M  V30 1157 N 106.423 1.57458 -0.0668435 0
M  V30 1158 C 107.371 2.13639 0.919851 0
M  V30 1159 C 108.365 1.07204 1.31163 0
M  V30 1160 O 109.571 1.25591 1.28945 0
M  V30 1161 H 105.946 0.683048 0.314562 0
M  V30 1162 H 107.917 2.95415 0.421047 0
M  V30 1163 C 106.666 2.70892 2.17975 0
M  V30 1164 H 105.989 3.5246 1.88711 0
M  V30 1165 H 107.429 3.13803 2.85138 0
M  V30 1166 C 105.888 1.65414 2.93496 0
M  V30 1167 O 106.418 1.07619 3.87015 0
M  V30 1168 N 104.624 1.36564 2.56512 0
M  V30 1169 H 104.171 1.83751 1.80536 0
M  V30 1170 H 104.129 0.66223 3.07347 0
M  V30 1171 N 107.901 -0.206675 1.56239 0
M  V30 1172 C 108.864 -1.23976 1.92776 0
M  V30 1173 C 109.864 -1.39041 0.807729 0
M  V30 1174 O 111.054 -1.37051 1.0753 0
M  V30 1175 C 108.186 -2.61112 2.19165 0
M  V30 1176 H 109.379 -0.927764 2.85189 0
M  V30 1177 H 106.932 -0.447718 1.4975 0
M  V30 1178 H 107.667 -2.97386 1.29352 0
M  V30 1179 H 107.452 -2.51552 3.00772 0
M  V30 1180 H 108.942 -3.35633 2.48476 0
M  V30 1181 N 109.379 -1.50304 -0.473955 0
M  V30 1182 C 110.311 -1.65109 -1.58971 0
M  V30 1183 C 111.324 -0.532676 -1.53839 0
M  V30 1184 O 112.513 -0.805751 -1.59279 0
M  V30 1185 C 109.613 -1.61684 -2.97845 0
M  V30 1186 C 108.786 -2.8951 -3.27876 0
M  V30 1187 C 107.845 -2.78768 -4.4629 0
M  V30 1188 O 106.871 -3.52722 -4.46739 0
M  V30 1189 N 108.073 -1.9213 -5.47783 0
M  V30 1190 H 110.838 -2.61347 -1.46689 0
M  V30 1191 H 108.399 -1.47732 -0.662324 0
M  V30 1192 H 110.391 -1.52114 -3.75024 0
M  V30 1193 H 108.961 -0.731925 -3.03911 0
M  V30 1194 H 108.181 -3.13228 -2.39336 0
M  V30 1195 H 109.469 -3.74199 -3.4475 0
M  V30 1196 H 108.867 -1.31353 -5.50239 0
M  V30 1197 H 107.424 -1.88466 -6.23958 0
M  V30 1198 N 110.857 0.726932 -1.39834 0
M  V30 1199 C 111.82 1.82269 -1.38962 0
M  V30 1200 C 112.82 1.58248 -0.285334 0
M  V30 1201 O 114.01 1.65499 -0.54366 0
M  V30 1202 C 111.142 3.20186 -1.17019 0
M  V30 1203 H 112.335 1.84443 -2.36476 0
M  V30 1204 H 109.888 0.931416 -1.25516 0
M  V30 1205 H 110.623 3.23669 -0.202204 0
M  V30 1206 H 110.408 3.3902 -1.96998 0
M  V30 1207 H 111.898 4.00235 -1.1917 0
M  V30 1208 N 112.336 1.25143 0.95797 0
M  V30 1209 C 113.284 1.05019 2.07542 0
M  V30 1210 C 114.278 -0.0178751 1.69391 0
M  V30 1211 O 115.484 0.137472 1.79474 0
M  V30 1212 H 111.859 0.32265 0.679265 0
M  V30 1213 H 113.83 1.99759 2.21673 0
M  V30 1214 C 112.579 0.682074 3.40944 0
M  V30 1215 H 111.902 1.49573 3.70767 0
M  V30 1216 H 113.342 0.580945 4.20001 0
M  V30 1217 C 111.801 -0.611608 3.31302 0
M  V30 1218 O 112.331 -1.65465 3.66038 0
M  V30 1219 N 110.537 -0.595982 2.84423 0
M  V30 1220 H 110.084 0.253192 2.56353 0
M  V30 1221 H 110.042 -1.46173 2.78354 0
M  V30 1222 N 113.814 -1.1601 1.06675 0
M  V30 1223 C 115.091 -1.82679 0.699114 0
M  V30 1224 C 115.471 -1.94559 -0.819137 0
M  V30 1225 O 114.819 -1.49169 -1.73092 0
M  V30 1226 C 115.029 -3.19445 1.40555 0
M  V30 1227 C 116.377 -3.95171 1.55323 0
M  V30 1228 O 117.401 -3.28976 1.36577 0
M  V30 1229 O 116.26 -5.13833 1.86112 0
M  V30 1230 H 113.354 -0.788954 0.247951 0
M  V30 1231 H 115.9 -1.23179 1.16726 0
M  V30 1232 H 114.672 -3.05856 2.44065 0
M  V30 1233 H 114.295 -3.86625 0.927733 0
M  V30 1234 N 115.292 -0.849877 -1.32721 0
M  V30 1235 C 116.541 -0.447175 -1.96681 0
M  V30 1236 C 116.854 1.00135 -1.68025 0
M  V30 1237 O 118.06 1.50926 -2.25685 0
M  V30 1238 C 116.516 -0.7487 -3.52026 0
M  V30 1239 C 116.124 -2.21264 -3.89546 0
M  V30 1240 C 117.868 -0.413487 -4.22481 0
M  V30 1241 C 115.775 -2.45763 -5.37917 0
M  V30 1242 H 114.705 -0.163486 -0.736063 0
M  V30 1243 H 117.356 -1.03999 -1.51183 0
M  V30 1244 H 115.738 -0.0853727 -3.95908 0
M  V30 1245 H 116.912 -2.91736 -3.56689 0
M  V30 1246 H 115.227 -2.5119 -3.32103 0
M  V30 1247 H 117.824 -0.574017 -5.3161 0
M  V30 1248 H 118.167 0.644492 -4.11281 0
M  V30 1249 H 118.7 -1.03251 -3.84167 0
M  V30 1250 H 115.439 -3.50168 -5.54132 0
M  V30 1251 H 114.959 -1.79864 -5.72197 0
M  V30 1252 H 116.638 -2.29471 -6.0494 0
M  V30 1253 N 116.77 1.45427 -0.607355 0
M  V30 1254 C 118.181 1.85756 -0.187535 0
M  V30 1255 C 118.532 1.5077 1.25551 0
M  V30 1256 O 117.657 0.93427 1.95193 0
M  V30 1257 C 118.252 3.37154 -0.333572 0
M  V30 1258 C 116.811 3.76387 0.0315542 0
M  V30 1259 C 115.958 2.69377 -0.658117 0
M  V30 1260 H 118.909 1.36231 -0.81405 0
M  V30 1261 H 118.93 3.78014 0.43428 0
M  V30 1262 H 118.442 3.62586 -1.38393 0
M  V30 1263 H 116.543 3.56571 1.0811 0
M  V30 1264 H 116.656 4.77731 -0.361935 0
M  V30 1265 H 115.02 2.5452 -0.0957873 0
M  V30 1266 H 115.803 2.97646 -1.7106 0
M  V30 1267 N 118.248 0.346503 1.53744 0
M  V30 1268 C 119.476 -0.25041 2.05379 0
M  V30 1269 C 119.891 -1.43979 1.22129 0
M  V30 1270 O 119.248 -1.80677 0.257321 0
M  V30 1271 C 119.299 -0.662575 3.55376 0
M  V30 1272 O 119.02 0.479515 4.35468 0
M  V30 1273 C 120.521 -1.31989 4.23195 0
M  V30 1274 H 117.741 -0.0478198 0.669294 0
M  V30 1275 H 120.285 0.499346 1.9831 0
M  V30 1276 H 118.44 -1.36227 3.62658 0
M  V30 1277 H 118.854 0.15037 5.24284 0
M  V30 1278 H 120.328 -1.55902 5.29527 0
M  V30 1279 H 120.805 -2.27436 3.75725 0
M  V30 1280 H 121.411 -0.662154 4.20114 0
M  V30 1281 N 119.726 -1.57421 0.075193 0
M  V30 1282 C 121.003 -1.85029 -0.634329 0
M  V30 1283 C 121.383 -0.968305 -1.87582 0
M  V30 1284 O 120.731 -0.0354749 -2.28472 0
M  V30 1285 C 120.941 -3.35286 -0.968742 0
M  V30 1286 C 122.289 -4.02875 -1.34077 0
M  V30 1287 O 123.313 -3.40051 -1.06037 0
M  V30 1288 O 122.172 -5.13691 -1.86506 0
M  V30 1289 H 119.266 -0.7645 -0.315387 0
M  V30 1290 H 121.812 -1.69366 0.106382 0
M  V30 1291 H 120.584 -3.91203 -0.0871376 0
M  V30 1292 H 120.207 -3.56223 -1.7661 0
M  V30 1293 N 121.204 0.198386 -1.56346 0
M  V30 1294 C 122.134 1.24865 -1.9731 0
M  V30 1295 C 123.115 1.47651 -0.844576 0
M  V30 1296 O 124.3 1.59444 -1.10866 0
M  V30 1297 C 121.43 2.59358 -2.30977 0
M  V30 1298 C 120.384 2.5119 -3.46537 0
M  V30 1299 C 119.71 3.89926 -3.65871 0
M  V30 1300 C 121.01 2.03977 -4.80823 0
M  V30 1301 H 122.704 0.908252 -2.85291 0
M  V30 1302 H 120.25 0.435462 -1.37258 0
M  V30 1303 H 122.203 3.33011 -2.58228 0
M  V30 1304 H 120.927 2.95132 -1.39874 0
M  V30 1305 H 119.586 1.79993 -3.19371 0
M  V30 1306 H 119.234 4.23046 -2.72105 0
M  V30 1307 H 118.934 3.85336 -4.4361 0
M  V30 1308 H 120.458 4.65205 -3.95495 0
M  V30 1309 H 121.872 2.67386 -5.07127 0
M  V30 1310 H 120.269 2.10397 -5.62008 0
M  V30 1311 H 121.339 0.992861 -4.74626 0
M  V30 1312 N 122.682 1.50554 0.465978 0
M  V30 1313 C 123.928 1.62038 1.21949 0
M  V30 1314 C 124.261 0.322116 1.9151 0
M  V30 1315 O 123.536 -0.676723 1.82348 0
M  V30 1316 C 123.819 2.80421 2.25912 0
M  V30 1317 C 123.672 4.20144 1.60622 0
M  V30 1318 C 124.991 2.94354 3.27176 0
M  V30 1319 H 122.11 0.589752 0.441998 0
M  V30 1320 H 124.752 1.82956 0.51257 0
M  V30 1321 H 122.902 2.62717 2.86203 0
M  V30 1322 H 124.574 4.49449 1.03889 0
M  V30 1323 H 122.817 4.24165 0.909211 0
M  V30 1324 H 123.488 4.98914 2.36196 0
M  V30 1325 H 125.964 3.10578 2.76913 0
M  V30 1326 H 124.84 3.788 3.97242 0
M  V30 1327 H 125.101 2.05186 3.916 0
M  V30 1328 N 124.16 -0.719506 1.40217 0
M  V30 1329 C 125.107 -1.83359 1.40172 0
M  V30 1330 C 126.077 -1.64065 0.259206 0
M  V30 1331 O 127.262 -1.85254 0.456677 0
M  V30 1332 C 124.402 -3.2103 1.26624 0
M  V30 1333 C 123.515 -3.51923 2.50548 0
M  V30 1334 C 122.65 -4.79079 2.29471 0
M  V30 1335 C 121.689 -5.02863 3.48992 0
M  V30 1336 N 120.826 -6.2123 3.27135 0
M  V30 1337 H 125.666 -1.82733 2.35399 0
M  V30 1338 H 123.203 -0.892688 1.16917 0
M  V30 1339 H 125.161 -4.00524 1.16776 0
M  V30 1340 H 123.791 -3.20895 0.350176 0
M  V30 1341 H 122.843 -2.67014 2.70939 0
M  V30 1342 H 124.155 -3.6541 3.39525 0
M  V30 1343 H 123.309 -5.66582 2.16955 0
M  V30 1344 H 122.048 -4.67794 1.37913 0
M  V30 1345 H 121.053 -4.13816 3.6199 0
M  V30 1346 H 122.278 -5.16023 4.41472 0
M  V30 1347 H 120.224 -6.11204 2.38256 0
M  V30 1348 H 120.141 -6.35375 4.09675 0
M  V30 1349 H 121.409 -7.11532 3.18344 0
M  V30 1350 N 125.638 -1.25649 -0.95132 0
M  V30 1351 C 126.601 -1.06399 -2.03007 0
M  V30 1352 C 127.601 -0.0156794 -1.60792 0
M  V30 1353 O 128.791 -0.25817 -1.72276 0
M  V30 1354 C 125.923 -0.616184 -3.35285 0
M  V30 1355 H 127.116 -2.02164 -2.21517 0
M  V30 1356 H 124.669 -1.08103 -1.12887 0
M  V30 1357 H 125.404 0.343917 -3.22471 0
M  V30 1358 H 125.189 -1.37301 -3.67275 0
M  V30 1359 H 126.679 -0.503032 -4.14559 0
M  V30 1360 N 127.117 1.15442 -1.07289 0
M  V30 1361 C 128.366 1.85557 -0.790669 0
M  V30 1362 C 128.679 1.83186 0.685739 0
M  V30 1363 O 129.885 2.48977 1.0827 0
M  V30 1364 C 128.341 3.33038 -1.36433 0
M  V30 1365 C 127.949 3.43856 -2.8717 0
M  V30 1366 C 129.693 4.0834 -1.1601 0
M  V30 1367 C 127.6 4.85482 -3.3773 0
M  V30 1368 H 126.53 0.695122 -0.292098 0
M  V30 1369 H 129.181 1.30219 -1.29287 0
M  V30 1370 H 127.563 3.88043 -0.789864 0
M  V30 1371 H 128.737 2.98961 -3.50655 0
M  V30 1372 H 127.052 2.81998 -3.06376 0
M  V30 1373 H 129.649 5.12859 -1.51262 0
M  V30 1374 H 129.992 4.16182 -0.0991007 0
M  V30 1375 H 130.525 3.59603 -1.70089 0
M  V30 1376 H 127.264 4.82823 -4.43353 0
M  V30 1377 H 126.784 5.30961 -2.78999 0
M  V30 1378 H 128.463 5.54335 -3.33648 0
M  V30 1379 N 128.595 0.856903 1.32268 0
M  V30 1380 C 129.841 0.462069 1.97466 0
M  V30 1381 C 130.174 -0.980298 1.67642 0
M  V30 1382 O 129.449 -1.68824 0.965858 0
M  V30 1383 C 129.732 0.704336 3.53145 0
M  V30 1384 C 129.585 2.19529 3.9259 0
M  V30 1385 C 130.904 0.1622 4.39801 0
M  V30 1386 H 128.023 0.169357 0.717278 0
M  V30 1387 H 130.665 1.07574 1.56614 0
M  V30 1388 H 128.815 0.181999 3.88073 0
M  V30 1389 H 130.487 2.78387 3.67829 0
M  V30 1390 H 128.73 2.67292 3.41668 0
M  V30 1391 H 129.401 2.31549 5.01088 0
M  V30 1392 H 131.877 0.608905 4.11621 0
M  V30 1393 H 130.753 0.361265 5.4771 0
M  V30 1394 H 131.014 -0.935158 4.32096 0
M  V30 1395 N 130.073 -1.45103 0.615059 0
M  V30 1396 C 131.298 -2.07064 0.117988 0
M  V30 1397 C 131.723 -1.4554 -1.19163 0
M  V30 1398 O 131.081 -0.550855 -1.72729 0
M  V30 1399 C 131.129 -3.606 -0.000288387 0
M  V30 1400 O 130.233 -3.98847 -1.04856 0
M  V30 1401 H 129.574 -0.659467 0.0774581 0
M  V30 1402 H 132.104 -1.86236 0.847186 0
M  V30 1403 H 132.114 -4.07529 -0.196091 0
M  V30 1404 H 130.789 -4.04765 0.955932 0
M  V30 1405 H 129.366 -3.63577 -0.828619 0
M  V30 1406 N 131.551 -0.354651 -1.53558 0
M  V30 1407 C 132.8 0.239504 -2.00273 0
M  V30 1408 C 133.113 1.50759 -1.24623 0
M  V30 1409 O 134.319 2.17968 -1.61871 0
M  V30 1410 C 132.775 0.477341 -3.5672 0
M  V30 1411 C 132.383 -0.775488 -4.41237 0
M  V30 1412 C 134.127 1.02975 -4.11821 0
M  V30 1413 C 132.034 -0.507838 -5.89216 0
M  V30 1414 H 130.964 0.0932743 -0.748208 0
M  V30 1415 H 133.615 -0.471701 -1.77334 0
M  V30 1416 H 131.997 1.24953 -3.7577 0
M  V30 1417 H 133.171 -1.54963 -4.33962 0
M  V30 1418 H 131.486 -1.25033 -3.97185 0
M  V30 1419 H 134.083 1.24513 -5.2 0
M  V30 1420 H 134.426 1.98862 -3.65731 0
M  V30 1421 H 134.959 0.317994 -3.96527 0
M  V30 1422 H 131.698 -1.43674 -6.39561 0
M  V30 1423 H 131.218 0.228011 -5.99366 0
M  V30 1424 H 132.897 -0.129238 -6.46871 0
M  V30 1425 N 133.029 1.57378 -0.0835403 0
M  V30 1426 C 133.939 2.16897 0.894021 0
M  V30 1427 C 134.955 1.13528 1.31861 0
M  V30 1428 O 136.131 1.45848 1.3889 0
M  V30 1429 C 133.196 2.72831 2.13925 0
M  V30 1430 C 132.257 3.91115 1.76997 0
M  V30 1431 C 131.49 4.44371 2.95584 0
M  V30 1432 O 131.713 3.96596 4.09961 0
M  V30 1433 O 130.647 5.35549 2.74719 0
M  V30 1434 H 134.473 3.00814 0.417679 0
M  V30 1435 H 132.058 1.48741 0.140181 0
M  V30 1436 H 133.94 3.0863 2.86924 0
M  V30 1437 H 132.615 1.91967 2.60635 0
M  V30 1438 H 131.522 3.60148 1.01214 0
M  V30 1439 H 132.855 4.73307 1.3506 0
M  V30 1440 N 134.507 -0.190092 1.56449 0
M  V30 1441 C 135.784 -0.935886 1.71757 0
M  V30 1442 C 136.164 -2.01173 0.639726 0
M  V30 1443 O 135.512 -2.25827 -0.348502 0
M  V30 1444 C 135.722 -1.51775 3.1427 0
M  V30 1445 C 137.07 -1.99794 3.74656 0
M  V30 1446 O 138.094 -1.61607 3.1743 0
M  V30 1447 O 136.953 -2.70079 4.751 0
M  V30 1448 H 134.047 -0.439229 0.700719 0
M  V30 1449 H 136.593 -0.179395 1.68749 0
M  V30 1450 H 135.365 -0.742505 3.84191 0
M  V30 1451 H 134.988 -2.33894 3.21527 0
M  V30 1452 N 135.985 -1.50799 -0.457987 0
M  V30 1453 C 136.935 -1.67003 -1.55222 0
M  V30 1454 C 137.919 -0.52434 -1.52117 0
M  V30 1455 O 139.111 -0.779345 -1.58919 0
M  V30 1456 C 136.24 -1.77956 -2.93576 0
M  V30 1457 C 135.326 -2.98243 -3.01516 0
M  V30 1458 N 135.717 -4.21732 -2.79241 0
M  V30 1459 C 134.015 -2.97072 -3.32662 0
M  V30 1460 C 134.716 -5.02817 -2.92489 0
M  V30 1461 N 133.692 -4.37038 -3.23262 0
M  V30 1462 H 137.494 -2.60163 -1.36721 0
M  V30 1463 H 135.008 -1.48163 -0.664952 0
M  V30 1464 H 137.005 -1.87671 -3.72271 0
M  V30 1465 H 135.665 -0.859634 -3.13114 0
M  V30 1466 H 136.676 -4.51016 -2.54567 0
M  V30 1467 H 133.353 -2.14631 -3.58106 0
M  V30 1468 H 134.743 -6.11054 -2.79396 0
M  V30 1469 N 137.463 0.71206 -1.40597 0
M  V30 1470 C 138.879 1.02058 -1.22704 0
M  V30 1471 C 139.079 2.01228 -0.104729 0
M  V30 1472 O 138.135 2.4674 0.53624 0
M  V30 1473 C 139.448 1.56094 -2.57012 0
M  V30 1474 C 140.996 1.6806 -2.64054 0
M  V30 1475 C 141.471 2.25501 -3.9864 0
M  V30 1476 N 142.962 2.32882 -4.004 0
M  V30 1477 C 143.697 2.78317 -5.01325 0
M  V30 1478 N 143.193 3.23478 -6.12645 0
M  V30 1479 N 144.986 2.77733 -4.88693 0
M  V30 1480 H 137.137 0.0547896 -2.12329 0
M  V30 1481 H 139.4 0.0869027 -0.944008 0
M  V30 1482 H 139.106 0.906865 -3.39807 0
M  V30 1483 H 138.98 2.54564 -2.78347 0
M  V30 1484 H 141.367 2.32583 -1.81629 0
M  V30 1485 H 141.448 0.681802 -2.46546 0
M  V30 1486 H 141.092 1.61598 -4.81506 0
M  V30 1487 H 141.022 3.26102 -4.13479 0
M  V30 1488 H 143.513 2.00991 -3.20017 0
M  V30 1489 H 143.826 3.56725 -6.85542 0
M  V30 1490 H 142.171 3.21429 -6.16205 0
M  V30 1491 H 145.362 2.4179 -4.00818 0
M  V30 1492 H 145.535 3.12826 -5.67489 0
M  V30 1493 N 138.941 1.26152 0.944643 0
M  V30 1494 C 140.188 1.11492 1.69044 0
M  V30 1495 C 140.516 -0.342366 1.91463 0
M  V30 1496 O 139.771 -1.26812 1.49054 0
M  V30 1497 C 140.07 1.82541 3.07268 0
M  V30 1498 C 139.736 3.32445 3.04616 0
M  V30 1499 C 138.398 3.73337 3.036 0
M  V30 1500 C 140.75 4.28171 2.97185 0
M  V30 1501 C 138.078 5.08348 2.92915 0
M  V30 1502 C 140.43 5.63218 2.88041 0
M  V30 1503 C 139.094 6.03426 2.85366 0
M  V30 1504 H 138.364 0.407977 0.618576 0
M  V30 1505 H 141.011 1.56551 1.10291 0
M  V30 1506 H 139.316 1.29941 3.69625 0
M  V30 1507 H 141.013 1.68642 3.63815 0
M  V30 1508 H 137.603 2.99915 3.06185 0
M  V30 1509 H 141.787 3.97563 2.97081 0
M  V30 1510 H 137.043 5.38667 2.89219 0
M  V30 1511 H 141.217 6.37078 2.81254 0
M  V30 1512 H 138.844 7.07999 2.76842 0
M  V30 1513 N 140.419 -1.14872 1.07899 0
M  V30 1514 C 141.666 -1.85789 0.805532 0
M  V30 1515 C 141.994 -1.82649 -0.668561 0
M  V30 1516 O 141.249 -1.24858 -1.50695 0
M  V30 1517 C 141.548 -3.34223 1.26609 0
M  V30 1518 C 141.214 -3.57555 2.74709 0
M  V30 1519 C 139.876 -3.63631 3.1516 0
M  V30 1520 C 142.228 -3.66803 3.70277 0
M  V30 1521 C 139.556 -3.76473 4.49983 0
M  V30 1522 C 141.908 -3.8117 5.04869 0
M  V30 1523 C 140.572 -3.85494 5.44932 0
M  V30 1524 H 139.842 -0.679849 0.294765 0
M  V30 1525 H 142.489 -1.3572 1.35101 0
M  V30 1526 H 140.794 -3.86536 0.640103 0
M  V30 1527 H 142.491 -3.87511 1.03132 0
M  V30 1528 H 139.081 -3.5347 2.42398 0
M  V30 1529 H 143.265 -3.61404 3.40149 0
M  V30 1530 H 138.521 -3.7808 4.80484 0
M  V30 1531 H 142.695 -3.87268 5.78789 0
M  V30 1532 H 140.322 -3.95197 6.49403 0
M  V30 1533 N 141.898 -0.863906 -1.31812 0
M  V30 1534 C 143.175 -0.39275 -1.91616 0
M  V30 1535 C 143.555 1.12461 -1.7865 0
M  V30 1536 O 142.903 1.95045 -1.19037 0
M  V30 1537 C 143.113 -0.867385 -3.38049 0
M  V30 1538 C 144.461 -0.889966 -4.15168 0
M  V30 1539 O 145.485 -0.812635 -3.46806 0
M  V30 1540 O 144.344 -1.00079 -5.37258 0
M  V30 1541 H 141.438 -0.116358 -0.818773 0
M  V30 1542 H 143.984 -0.951418 -1.40521 0
M  V30 1543 H 142.756 -1.91081 -3.41473 0
M  V30 1544 H 142.379 -0.286687 -3.96565 0
M  V30 1545 N 143.376 1.44774 -0.622745 0
M  V30 1546 C 144.326 2.2774 0.108889 0
M  V30 1547 C 145.31 1.38189 0.824175 0
M  V30 1548 O 146.502 1.62063 0.711664 0
M  V30 1549 C 143.631 3.25353 1.09546 0
M  V30 1550 C 142.717 4.22392 0.380232 0
M  V30 1551 N 143.108 5.02388 -0.586535 0
M  V30 1552 C 141.406 4.41588 0.625792 0
M  V30 1553 C 142.107 5.72894 -1.00834 0
M  V30 1554 N 141.083 5.42479 -0.348878 0
M  V30 1555 H 144.885 2.86993 -0.63341 0
M  V30 1556 H 142.399 1.5611 -0.447589 0
M  V30 1557 H 144.396 3.83538 1.63414 0
M  V30 1558 H 143.056 2.6766 1.83815 0
M  V30 1559 H 144.067 5.0885 -0.963975 0
M  V30 1560 H 140.744 3.95003 1.352 0
M  V30 1561 H 142.134 6.47158 -1.80656 0
M  V30 1562 N 144.854 0.36279 1.53368 0
M  V30 1563 C 146.27 0.0116182 1.59596 0
M  V30 1564 C 146.47 -1.47012 1.37803 0
M  V30 1565 O 145.526 -2.23136 1.18181 0
M  V30 1566 C 146.839 0.465052 2.97082 0
M  V30 1567 C 148.387 0.419033 3.10182 0
M  V30 1568 C 148.862 0.848235 4.50077 0
M  V30 1569 N 150.353 0.803183 4.56183 0
M  V30 1570 C 151.088 1.107 5.62613 0
M  V30 1571 N 150.584 1.47996 6.76808 0
M  V30 1572 N 152.377 1.02998 5.52583 0
M  V30 1573 H 144.528 1.32775 1.65785 0
M  V30 1574 H 146.791 0.542518 0.777417 0
M  V30 1575 H 146.497 1.49892 3.18159 0
M  V30 1576 H 146.371 -0.149786 3.76902 0
M  V30 1577 H 148.758 -0.605696 2.88817 0
M  V30 1578 H 148.839 1.06933 2.32377 0
M  V30 1579 H 148.483 1.87107 4.7218 0
M  V30 1580 H 148.413 0.175218 5.26308 0
M  V30 1581 H 150.904 0.52838 3.74188 0
M  V30 1582 H 151.217 1.69613 7.53957 0
M  V30 1583 H 149.562 1.51859 6.78206 0
M  V30 1584 H 152.753 0.737817 4.62249 0
M  V30 1585 H 152.926 1.2701 6.35431 0
M  V30 1586 N 146.332 -1.57332 0.0918853 0
M  V30 1587 C 147.58 -1.93853 -0.571446 0
M  V30 1588 C 147.901 -0.974212 -1.6892 0
M  V30 1589 O 147.171 -0.0257254 -1.95883 0
M  V30 1590 H 145.751 -0.715666 -0.214082 0
M  V30 1591 H 148.413 -1.94287 0.154464 0
M  V30 1592 H 147.509 -2.96191 -0.983729 0
M  V30 1593 N 147.81 0.181792 -1.56548 0
M  V30 1594 C 149.059 0.898348 -1.8059 0
M  V30 1595 C 149.372 1.83862 -0.667379 0
M  V30 1596 O 150.578 2.59678 -0.792446 0
M  V30 1597 C 149.034 1.64791 -3.19956 0
M  V30 1598 C 148.642 0.751789 -4.41647 0
M  V30 1599 C 150.386 2.35331 -3.53298 0
M  V30 1600 C 148.293 1.50098 -5.72035 0
M  V30 1601 H 147.223 0.339194 -0.673397 0
M  V30 1602 H 149.874 0.151413 -1.82874 0
M  V30 1603 H 148.256 2.43921 -3.11959 0
M  V30 1604 H 149.43 -0.0018076 -4.608 0
M  V30 1605 H 147.745 0.156562 -4.16106 0
M  V30 1606 H 150.342 2.91958 -4.47956 0
M  V30 1607 H 150.685 3.10164 -2.77676 0
M  V30 1608 H 151.218 1.63154 -3.62803 0
M  V30 1609 H 147.957 0.795175 -6.50659 0
M  V30 1610 H 147.477 2.22817 -5.56878 0
M  V30 1611 H 149.156 2.05125 -6.13622 0
M  V30 1612 N 149.288 1.51039 0.449983 0
M  V30 1613 C 150.565 1.53612 1.21089 0
M  V30 1614 C 150.945 0.292997 2.09057 0
M  V30 1615 O 150.293 -0.72259 2.16774 0
M  V30 1616 C 150.503 2.84337 2.0237 0
M  V30 1617 C 151.851 3.35807 2.59843 0
M  V30 1618 O 152.875 2.85802 2.12593 0
M  V30 1619 O 151.734 4.23029 3.45989 0
M  V30 1620 H 148.828 0.617057 0.550608 0
M  V30 1621 H 151.374 1.63344 0.460082 0
M  V30 1622 H 150.146 3.66278 1.37681 0
M  V30 1623 H 149.769 2.77708 2.84542 0
M  V30 1624 N 150.766 -0.704594 1.40972 0
M  V30 1625 C 151.994 -1.49354 1.43182 0
M  V30 1626 C 152.409 -1.88768 0.0345508 0
M  V30 1627 O 151.766 -1.56184 -0.944081 0
M  V30 1628 C 151.817 -2.76187 2.33244 0
M  V30 1629 O 151.538 -2.38436 3.67532 0
M  V30 1630 C 153.039 -3.7 2.44162 0
M  V30 1631 H 150.259 -0.460559 0.487982 0
M  V30 1632 H 152.803 -0.868261 1.85153 0
M  V30 1633 H 150.958 -3.34974 1.94606 0
M  V30 1634 H 151.372 -3.20126 4.15475 0
M  V30 1635 H 152.846 -4.55803 3.11364 0
M  V30 1636 H 153.323 -4.13867 1.47006 0
M  V30 1637 H 153.929 -3.17121 2.83398 0
M  V30 1638 N 152.244 -1.26651 -0.937939 0
M  V30 1639 C 153.493 -1.11775 -1.67897 0
M  V30 1640 C 153.806 0.33794 -1.92659 0
M  V30 1641 O 155.012 0.607434 -2.64618 0
M  V30 1642 C 153.468 -1.9523 -3.02346 0
M  V30 1643 C 153.076 -3.45393 -2.8532 0
M  V30 1644 C 154.82 -1.88972 -3.80118 0
M  V30 1645 C 152.727 -4.21083 -4.15263 0
M  V30 1646 H 151.657 -0.414696 -0.629717 0
M  V30 1647 H 154.308 -1.50988 -1.04283 0
M  V30 1648 H 152.69 -1.48853 -3.66959 0
M  V30 1649 H 153.864 -3.99561 -2.29537 0
M  V30 1650 H 152.179 -3.52921 -2.20988 0
M  V30 1651 H 154.776 -2.42805 -4.76392 0
M  V30 1652 H 155.119 -0.86113 -4.07296 0
M  V30 1653 H 155.652 -2.33189 -3.22285 0
M  V30 1654 H 152.391 -5.24425 -3.93267 0
M  V30 1655 H 151.911 -3.71695 -4.70747 0
M  V30 1656 H 153.59 -4.29706 -4.83696 0
M  V30 1657 N 153.722 1.14298 -1.08507 0
M  V30 1658 C 155.138 1.37347 -0.812901 0
M  V30 1659 C 155.338 1.93052 0.577325 0
M  V30 1660 O 154.394 2.14389 1.33393 0
M  V30 1661 C 155.707 2.33359 -1.89642 0
M  V30 1662 C 157.255 2.46996 -1.92255 0
M  V30 1663 C 157.73 3.46309 -2.99724 0
M  V30 1664 N 159.221 3.53853 -2.98902 0
M  V30 1665 C 159.956 4.3055 -3.787 0
M  V30 1666 N 159.452 5.10482 -4.6838 0
M  V30 1667 N 161.245 4.25757 -3.66998 0
M  V30 1668 H 153.396 0.764867 -1.9815 0
M  V30 1669 H 155.659 0.398966 -0.859959 0
M  V30 1670 H 155.365 1.99565 -2.89597 0
M  V30 1671 H 155.239 3.33274 -1.76659 0
M  V30 1672 H 157.626 2.80081 -0.929445 0
M  V30 1673 H 157.707 1.47039 -2.09316 0
M  V30 1674 H 157.351 3.13957 -3.99241 0
M  V30 1675 H 157.281 4.46049 -2.79907 0
M  V30 1676 H 159.772 2.96812 -2.33904 0
M  V30 1677 H 160.085 5.66284 -5.25873 0
M  V30 1678 H 158.43 5.09747 -4.72422 0
M  V30 1679 H 161.621 3.62383 -2.96304 0
M  V30 1680 H 161.794 4.85279 -4.29427 0
M  V30 1681 N 155.201 0.870884 1.31352 0
M  V30 1682 C 156.45 0.478408 1.95944 0
M  V30 1683 C 156.763 -0.974493 1.69597 0
M  V30 1684 O 157.969 -1.47316 2.28058 0
M  V30 1685 C 156.425 0.804609 3.50791 0
M  V30 1686 C 156.033 2.27433 3.85977 0
M  V30 1687 C 157.777 0.480648 4.2177 0
M  V30 1688 C 155.684 2.5429 5.33939 0
M  V30 1689 H 154.614 0.175175 0.733369 0
M  V30 1690 H 157.265 1.06391 1.4951 0
M  V30 1691 H 155.647 0.148347 3.95722 0
M  V30 1692 H 156.821 2.97373 3.52002 0
M  V30 1693 H 155.136 2.56442 3.28065 0
M  V30 1694 H 157.733 0.658519 5.30629 0
M  V30 1695 H 158.076 -0.578979 4.12254 0
M  V30 1696 H 158.609 1.09349 3.82476 0
M  V30 1697 H 155.348 3.58939 5.48491 0
M  V30 1698 H 154.868 1.88945 5.69263 0
M  V30 1699 H 156.547 2.39066 6.01212 0
M  V30 1700 N 156.679 -1.44442 0.630414 0
M  V30 1701 C 157.609 -2.33418 -0.0618083 0
M  V30 1702 C 158.59 -1.48165 -0.835541 0
M  V30 1703 O 159.775 -1.76886 -0.801564 0
M  V30 1704 C 156.905 -3.31222 -1.04449 0
M  V30 1705 C 155.859 -4.26288 -0.382436 0
M  V30 1706 C 155.185 -5.13954 -1.47497 0
M  V30 1707 C 156.485 -5.1744 0.710865 0
M  V30 1708 H 158.179 -2.91548 0.681184 0
M  V30 1709 H 155.725 -1.40191 0.329026 0
M  V30 1710 H 157.678 -3.92351 -1.53748 0
M  V30 1711 H 156.402 -2.71299 -1.81836 0
M  V30 1712 H 155.061 -3.6649 0.0899054 0
M  V30 1713 H 154.709 -4.50385 -2.2397 0
M  V30 1714 H 154.409 -5.7837 -1.03737 0
M  V30 1715 H 155.933 -5.77955 -1.96979 0
M  V30 1716 H 157.347 -5.72509 0.300996 0
M  V30 1717 H 155.744 -5.90455 1.07156 0
M  V30 1718 H 156.814 -4.58496 1.57829 0
M  V30 1719 N 158.157 -0.370918 -1.53173 0
M  V30 1720 C 159.405 0.216673 -2.00935 0
M  V30 1721 C 159.726 1.48845 -1.25977 0
M  V30 1722 O 158.996 1.92286 -0.374551 0
M  V30 1723 H 157.576 0.0830565 -0.742368 0
M  V30 1724 H 160.238 -0.49838 -1.8842 0
M  V30 1725 H 159.334 0.439893 -3.08984 0
M  V30 1726 N 159.635 1.57281 -0.100228 0
M  V30 1727 C 160.598 2.13158 0.842398 0
M  V30 1728 C 161.598 1.06202 1.20738 0
M  V30 1729 O 162.788 1.32066 1.13597 0
M  V30 1730 C 159.92 2.65639 2.13655 0
M  V30 1731 H 161.113 2.97766 0.357114 0
M  V30 1732 H 158.666 1.5559 0.148823 0
M  V30 1733 H 159.401 1.84566 2.66657 0
M  V30 1734 H 159.186 3.43844 1.88451 0
M  V30 1735 H 160.676 3.08846 2.81077 0
M  V30 1736 N 161.113 -0.173488 1.56642 0
M  V30 1737 C 162.36 -0.890465 1.81871 0
M  V30 1738 C 162.688 -1.82339 0.67696 0
M  V30 1739 O 161.943 -1.92795 -0.335926 0
M  V30 1740 C 162.242 -1.72069 3.13252 0
M  V30 1741 C 161.908 -0.936878 4.41059 0
M  V30 1742 C 160.57 -0.720545 4.75775 0
M  V30 1743 C 162.922 -0.386919 5.19762 0
M  V30 1744 C 160.25 0.0568829 5.86672 0
M  V30 1745 C 162.602 0.37741 6.31473 0
M  V30 1746 C 161.266 0.604563 6.64757 0
M  V30 1747 H 160.536 -0.325844 0.665512 0
M  V30 1748 H 163.183 -0.155527 1.90867 0
M  V30 1749 H 161.488 -2.52496 2.99588 0
M  V30 1750 H 163.185 -2.27844 3.29982 0
M  V30 1751 H 159.775 -1.11553 4.13828 0
M  V30 1752 H 163.959 -0.541398 4.93338 0
M  V30 1753 H 159.215 0.242635 6.10918 0
M  V30 1754 H 163.389 0.810825 6.91664 0
M  V30 1755 H 161.016 1.20885 7.50527 0
M  V30 1756 N 162.591 -1.51276 -0.441967 0
M  V30 1757 C 163.521 -1.752 -1.54361 0
M  V30 1758 C 164.502 -0.601682 -1.59103 0
M  V30 1759 O 165.687 -0.843913 -1.74905 0
M  V30 1760 C 162.817 -1.87282 -2.92477 0
M  V30 1761 C 161.771 -3.02687 -3.02596 0
M  V30 1762 C 161.097 -2.99947 -4.42647 0
M  V30 1763 C 162.397 -4.4273 -2.77106 0
M  V30 1764 H 164.091 -2.67442 -1.34592 0
M  V30 1765 H 161.637 -1.28694 -0.646048 0
M  V30 1766 H 163.59 -2.02602 -3.695 0
M  V30 1767 H 162.314 -0.916844 -3.13467 0
M  V30 1768 H 160.973 -2.87065 -2.28012 0
M  V30 1769 H 160.621 -2.02136 -4.60597 0
M  V30 1770 H 160.321 -3.77439 -4.50348 0
M  V30 1771 H 161.845 -3.17354 -5.2165 0
M  V30 1772 H 163.259 -4.58727 -3.43864 0
M  V30 1773 H 161.656 -5.21893 -2.96222 0
M  V30 1774 H 162.726 -4.53087 -1.72744 0
M  V30 1775 N 164.069 0.697108 -1.41344 0
M  V30 1776 C 165.485 1.00751 -1.2378 0
M  V30 1777 C 165.685 2.01105 -0.126066 0
M  V30 1778 O 164.741 2.47295 0.51004 0
M  V30 1779 C 166.054 1.53359 -2.58653 0
M  V30 1780 C 167.602 1.6525 -2.65822 0
M  V30 1781 C 168.077 2.2126 -4.01009 0
M  V30 1782 N 169.568 2.28622 -4.02847 0
M  V30 1783 C 170.303 2.72984 -5.04249 0
M  V30 1784 N 169.799 3.16962 -6.16041 0
M  V30 1785 N 171.592 2.72534 -4.91611 0
M  V30 1786 H 163.743 0.0322662 -2.12375 0
M  V30 1787 H 166.006 0.0768853 -0.944877 0
M  V30 1788 H 165.712 0.870773 -3.4075 0
M  V30 1789 H 165.586 2.51597 -2.81032 0
M  V30 1790 H 167.973 2.30644 -1.84086 0
M  V30 1791 H 168.054 0.655614 -2.47256 0
M  V30 1792 H 167.698 1.56482 -4.83193 0
M  V30 1793 H 167.628 3.21698 -4.16915 0
M  V30 1794 H 170.119 1.97585 -3.22131 0
M  V30 1795 H 170.432 3.49434 -6.89287 0
M  V30 1796 H 168.777 3.14875 -6.1958 0
M  V30 1797 H 171.968 2.37525 -4.0336 0
M  V30 1798 H 172.141 3.06789 -5.70775 0
M  V30 1799 N 165.547 1.27147 0.931209 0
M  V30 1800 C 166.495 1.09398 2.05268 0
M  V30 1801 C 167.489 0.0180591 1.6939 0
M  V30 1802 O 168.695 0.17551 1.79142 0
M  V30 1803 H 165.07 0.336986 0.672268 0
M  V30 1804 H 167.041 2.04416 2.17386 0
M  V30 1805 C 165.79 0.75424 3.39421 0
M  V30 1806 H 165.113 1.57404 3.67511 0
M  V30 1807 H 166.553 0.669903 4.18674 0
M  V30 1808 C 165.012 -0.541197 3.32525 0
M  V30 1809 O 165.542 -1.57664 3.69466 0
M  V30 1810 N 163.748 -0.535517 2.85623 0
M  V30 1811 H 163.295 0.307511 2.55758 0
M  V30 1812 H 163.253 -1.40236 2.81392 0
M  V30 1813 N 167.025 -1.13721 1.09112 0
M  V30 1814 C 167.955 -2.21148 0.749385 0
M  V30 1815 C 168.936 -1.6792 -0.271475 0
M  V30 1816 O 170.121 -1.93693 -0.140251 0
M  V30 1817 C 167.251 -3.46905 0.165659 0
M  V30 1818 C 166.205 -4.13203 1.11567 0
M  V30 1819 C 165.531 -5.33248 0.393809 0
M  V30 1820 C 166.831 -4.60912 2.45678 0
M  V30 1821 H 168.525 -2.4999 1.64758 0
M  V30 1822 H 166.071 -1.20156 0.793626 0
M  V30 1823 H 168.024 -4.21313 -0.085466 0
M  V30 1824 H 166.748 -3.17449 -0.767714 0
M  V30 1825 H 165.407 -3.40758 1.35202 0
M  V30 1826 H 165.055 -5.00054 -0.543599 0
M  V30 1827 H 164.755 -5.78552 1.02721 0
M  V30 1828 H 166.279 -6.10413 0.150908 0
M  V30 1829 H 167.693 -5.26759 2.26269 0
M  V30 1830 H 166.09 -5.16944 3.04776 0
M  V30 1831 H 167.16 -3.75603 3.06677 0
M  V30 1832 N 168.503 -0.877838 -1.30888 0
M  V30 1833 C 169.435 -0.296607 -2.27273 0
M  V30 1834 C 170.448 0.544799 -1.53414 0
M  V30 1835 O 171.637 0.365511 -1.74718 0
M  V30 1836 C 168.737 0.597481 -3.33592 0
M  V30 1837 C 167.91 -0.213251 -4.3688 0
M  V30 1838 C 166.969 0.610208 -5.2265 0
M  V30 1839 O 165.995 0.035441 -5.69189 0
M  V30 1840 N 167.197 1.92071 -5.47804 0
M  V30 1841 H 169.962 -1.12492 -2.77787 0
M  V30 1842 H 167.523 -0.740105 -1.43993 0
M  V30 1843 H 169.515 1.15425 -3.87891 0
M  V30 1844 H 168.085 1.32647 -2.83061 0
M  V30 1845 H 167.305 -0.951466 -3.82545 0
M  V30 1846 H 168.593 -0.769262 -5.02951 0
M  V30 1847 H 167.991 2.4107 -5.11763 0
M  V30 1848 H 166.548 2.42508 -6.05007 0
M  V30 1849 N 169.982 1.44106 -0.638065 0
M  V30 1850 C 171.207 2.0685 -0.150916 0
M  V30 1851 C 171.632 1.47417 1.16833 0
M  V30 1852 O 170.99 0.578264 1.71831 0
M  V30 1853 C 171.038 3.60555 -0.05708 0
M  V30 1854 O 170.142 4.00465 0.984972 0
M  V30 1855 H 169.483 0.658151 -0.0879399 0
M  V30 1856 H 172.013 1.84865 -0.876707 0
M  V30 1857 H 172.023 4.07789 0.131232 0
M  V30 1858 H 170.698 4.03193 -1.02021 0
M  V30 1859 H 169.275 3.64849 0.770672 0
M  V30 1860 N 171.46 0.379036 1.52974 0
M  V30 1861 C 172.408 -0.476033 2.27677 0
M  V30 1862 C 173.402 -1.0719 1.31174 0
M  V30 1863 O 174.608 -1.01355 1.48752 0
M  V30 1864 H 170.983 -0.172255 0.732006 0
M  V30 1865 H 172.954 0.175615 2.97883 0
M  V30 1866 C 171.703 -1.5967 3.0887 0
M  V30 1867 H 171.026 -1.1475 3.82978 0
M  V30 1868 H 172.466 -2.16943 3.64296 0
M  V30 1869 C 170.925 -2.54682 2.20542 0
M  V30 1870 O 171.455 -3.57836 1.82527 0
M  V30 1871 N 169.661 -2.24183 1.84907 0
M  V30 1872 H 169.208 -1.40333 2.1602 0
M  V30 1873 H 169.166 -2.88006 1.26096 0
M  V30 1874 N 172.938 -1.57226 0.108567 0
M  V30 1875 C 174.163 -1.99604 -0.563303 0
M  V30 1876 C 174.588 -0.987563 -1.6009 0
M  V30 1877 O 173.946 0.0421687 -1.81251 0
M  V30 1878 C 173.994 -3.40902 -1.17552 0
M  V30 1879 O 173.098 -3.42896 -2.2912 0
M  V30 1880 H 172.439 -0.648704 -0.1417 0
M  V30 1881 H 174.969 -2.03679 0.193961 0
M  V30 1882 H 174.979 -3.78886 -1.51357 0
M  V30 1883 H 173.654 -4.1382 -0.415445 0
M  V30 1884 H 172.231 -3.1672 -1.96832 0
M  V30 1885 N 174.416 0.165178 -1.56732 0
M  V30 1886 C 175.346 1.20651 -1.99914 0
M  V30 1887 C 176.327 1.45827 -0.875705 0
M  V30 1888 O 177.512 1.57057 -1.14223 0
M  V30 1889 C 174.642 2.54401 -2.36427 0
M  V30 1890 C 173.596 2.43782 -3.51787 0
M  V30 1891 C 172.922 3.82078 -3.7406 0
M  V30 1892 C 174.222 1.93732 -4.85041 0
M  V30 1893 H 175.916 0.847534 -2.87154 0
M  V30 1894 H 173.462 0.40625 -1.38151 0
M  V30 1895 H 175.415 3.27458 -2.65234 0
M  V30 1896 H 174.139 2.92098 -1.46103 0
M  V30 1897 H 172.798 1.73178 -3.23117 0
M  V30 1898 H 172.446 4.17179 -2.81017 0
M  V30 1899 H 172.146 3.7584 -4.51684 0
M  V30 1900 H 173.67 4.56712 -4.05274 0
M  V30 1901 H 175.084 2.56569 -5.12684 0
M  V30 1902 H 173.481 1.98428 -5.66345 0
M  V30 1903 H 174.551 0.891962 -4.76626 0
M  V30 1904 N 175.894 1.51508 0.433938 0
M  V30 1905 C 176.826 1.69266 1.54537 0
M  V30 1906 C 177.839 0.573276 1.52373 0
M  V30 1907 O 179.028 0.847698 1.57087 0
M  V30 1908 C 176.128 1.69524 2.93453 0
M  V30 1909 C 175.301 2.98101 3.20085 0
M  V30 1910 C 174.36 2.90502 4.38742 0
M  V30 1911 O 173.386 3.64442 4.3723 0
M  V30 1912 N 174.588 2.06586 5.42496 0
M  V30 1913 H 177.353 2.65145 1.39708 0
M  V30 1914 H 174.914 1.49437 0.622922 0
M  V30 1915 H 176.906 1.62004 3.70859 0
M  V30 1916 H 175.476 0.812245 3.01863 0
M  V30 1917 H 174.696 3.19464 2.30947 0
M  V30 1918 H 175.984 3.83207 3.34708 0
M  V30 1919 H 175.382 1.45896 5.46563 0
M  V30 1920 H 173.939 2.04943 6.18742 0
M  V30 1921 N 177.372 -0.689602 1.41712 0
M  V30 1922 C 178.62 -1.4468 1.4111 0
M  V30 1923 C 178.941 -1.94986 0.0232196 0
M  V30 1924 O 178.211 -1.72097 -0.935913 0
M  V30 1925 H 176.791 -0.536847 0.519427 0
M  V30 1926 H 179.453 -0.815825 1.77004 0
M  V30 1927 H 178.549 -2.30706 2.10193 0
M  V30 1928 N 178.85 -1.27639 -0.924453 0
M  V30 1929 C 180.098 -1.13941 -1.66918 0
M  V30 1930 C 180.419 0.314589 -1.92446 0
M  V30 1931 O 179.689 1.21964 -1.53303 0
M  V30 1932 H 178.269 -0.418678 -0.618642 0
M  V30 1933 H 180.931 -1.60213 -1.10985 0
M  V30 1934 H 180.027 -1.67094 -2.63602 0
M  V30 1935 N 180.328 1.1314 -1.09713 0
M  V30 1936 C 181.553 1.88862 -0.857081 0
M  V30 1937 C 181.978 1.78729 0.586304 0
M  V30 1938 O 181.336 1.13692 1.41222 0
M  V30 1939 C 181.384 3.36325 -1.30069 0
M  V30 1940 O 180.488 4.09815 -0.461007 0
M  V30 1941 H 179.829 0.587108 -0.310162 0
M  V30 1942 H 182.359 1.43129 -1.46203 0
M  V30 1943 H 182.369 3.87157 -1.28738 0
M  V30 1944 H 181.044 3.43017 -2.35185 0
M  V30 1945 H 179.621 3.68986 -0.538888 0
M  V30 1946 N 181.806 0.884767 1.30421 0
M  V30 1947 C 183.034 0.518044 2.0031 0
M  V30 1948 C 183.449 -0.893408 1.66324 0
M  V30 1949 O 182.806 -1.5875 0.900262 0
M  V30 1950 C 182.857 0.682997 3.54989 0
M  V30 1951 O 182.578 2.03888 3.87764 0
M  V30 1952 C 184.079 0.31924 4.42149 0
M  V30 1953 H 181.299 0.200265 0.640418 0
M  V30 1954 H 183.843 1.19001 1.6631 0
M  V30 1955 H 181.998 0.0584052 3.87356 0
M  V30 1956 H 182.412 2.05735 4.82466 0
M  V30 1957 H 183.886 0.485555 5.4986 0
M  V30 1958 H 184.363 -0.742717 4.32875 0
M  V30 1959 H 184.969 0.920147 4.15227 0
M  V30 1960 N 183.284 -1.43765 0.645699 0
M  V30 1961 C 184.214 -2.33471 -0.0370477 0
M  V30 1962 C 185.195 -1.49042 -0.819779 0
M  V30 1963 O 186.38 -1.77726 -0.782758 0
M  V30 1964 C 183.51 -3.32311 -1.0093 0
M  V30 1965 C 182.464 -4.2667 -0.337201 0
M  V30 1966 C 181.79 -5.1549 -1.42037 0
M  V30 1967 C 183.09 -5.16657 0.765706 0
M  V30 1968 H 184.784 -2.90809 0.712069 0
M  V30 1969 H 182.33 -1.39834 0.343876 0
M  V30 1970 H 184.283 -3.9396 -1.49578 0
M  V30 1971 H 183.007 -2.73213 -1.78948 0
M  V30 1972 H 181.666 -3.66374 0.128771 0
M  V30 1973 H 181.314 -4.52735 -2.1918 0
M  V30 1974 H 181.014 -5.79438 -0.975966 0
M  V30 1975 H 182.538 -5.80012 -1.90838 0
M  V30 1976 H 183.952 -5.72158 0.361702 0
M  V30 1977 H 182.349 -5.89286 1.13413 0
M  V30 1978 H 183.419 -4.56796 1.62683 0
M  V30 1979 N 184.763 -0.387143 -1.52771 0
M  V30 1980 C 185.991 0.195869 -2.05971 0
M  V30 1981 C 186.406 1.40691 -1.25903 0
M  V30 1982 O 185.763 1.79931 -0.305134 0
M  V30 1983 C 185.814 0.56812 -3.57008 0
M  V30 1984 O 185.535 -0.594803 -4.34043 0
M  V30 1985 C 187.036 1.20723 -4.26545 0
M  V30 1986 H 184.256 0.0300578 -0.670326 0
M  V30 1987 H 186.8 -0.551749 -1.96916 0
M  V30 1988 H 184.955 1.26564 -3.66143 0
M  V30 1989 H 185.369 -0.289322 -5.23701 0
M  V30 1990 H 186.843 1.41807 -5.33474 0
M  V30 1991 H 187.32 2.17395 -3.81623 0
M  V30 1992 H 187.926 0.550535 -4.21722 0
M  V30 1993 N 186.241 1.57166 -0.116904 0
M  V30 1994 C 187.173 2.12271 0.864507 0
M  V30 1995 C 188.186 1.06494 1.23138 0
M  V30 1996 O 189.375 1.33873 1.18069 0
M  V30 1997 C 186.475 2.60564 2.16702 0
M  V30 1998 C 185.648 3.90416 1.97216 0
M  V30 1999 C 184.707 4.24329 3.11178 0
M  V30 2000 O 183.733 4.93182 2.84184 0
M  V30 2001 N 184.935 3.8148 4.37554 0
M  V30 2002 H 187.7 2.97102 0.393726 0
M  V30 2003 H 185.261 1.61759 0.0675805 0
M  V30 2004 H 187.253 2.80282 2.91932 0
M  V30 2005 H 185.823 1.80623 2.55135 0
M  V30 2006 H 185.043 3.79627 1.06192 0
M  V30 2007 H 186.331 4.75327 1.81499 0
M  V30 2008 H 185.729 3.25943 4.62361 0
M  V30 2009 H 184.286 4.06311 5.09661 0
M  V30 2010 N 187.719 -0.156864 1.56817 0
M  V30 2011 C 188.651 -1.21883 1.94106 0
M  V30 2012 C 189.664 -1.3971 0.835754 0
M  V30 2013 O 190.853 -1.39457 1.11418 0
M  V30 2014 C 187.953 -2.58527 2.19127 0
M  V30 2015 C 187.126 -2.61809 3.50393 0
M  V30 2016 C 186.185 -3.7992 3.64071 0
M  V30 2017 O 185.211 -3.65249 4.36557 0
M  V30 2018 N 186.413 -4.96973 2.99997 0
M  V30 2019 H 189.178 -0.901974 2.85805 0
M  V30 2020 H 186.739 -0.346513 1.58148 0
M  V30 2021 H 188.731 -3.36034 2.25529 0
M  V30 2022 H 187.301 -2.82545 1.33742 0
M  V30 2023 H 186.521 -1.7029 3.5552 0
M  V30 2024 H 187.809 -2.61024 4.36742 0
M  V30 2025 H 187.207 -5.11794 2.41004 0
M  V30 2026 H 185.764 -5.7229 3.11974 0
M  V30 2027 N 189.197 -1.51736 -0.425897 0
M  V30 2028 C 190.127 -1.76827 -1.52494 0
M  V30 2029 C 191.108 -0.618524 -1.58456 0
M  V30 2030 O 192.293 -0.862416 -1.74 0
M  V30 2031 C 189.423 -1.90374 -2.90474 0
M  V30 2032 C 188.377 -3.0588 -2.99369 0
M  V30 2033 C 187.703 -3.04625 -4.3944 0
M  V30 2034 C 189.003 -4.45644 -2.72394 0
M  V30 2035 H 190.697 -2.68855 -1.31748 0
M  V30 2036 H 188.243 -1.29372 -0.632362 0
M  V30 2037 H 190.196 -2.0651 -3.6733 0
M  V30 2038 H 188.92 -0.95004 -3.12477 0
M  V30 2039 H 187.579 -2.89467 -2.24954 0
M  V30 2040 H 187.227 -2.0701 -4.58428 0
M  V30 2041 H 186.927 -3.82195 -4.46319 0
M  V30 2042 H 188.451 -3.22869 -5.18255 0
M  V30 2043 H 189.865 -4.62348 -3.38979 0
M  V30 2044 H 188.262 -5.25006 -2.9067 0
M  V30 2045 H 189.332 -4.54893 -1.67929 0
M  V30 2046 N 190.675 0.682077 -1.42076 0
M  V30 2047 C 191.924 1.43786 -1.41451 0
M  V30 2048 C 192.237 1.95574 -0.0317074 0
M  V30 2049 O 193.443 2.71326 0.0971462 0
M  V30 2050 C 191.899 2.60071 -2.48779 0
M  V30 2051 C 191.507 2.15013 -3.93031 0
M  V30 2052 C 193.251 3.37626 -2.57311 0
M  V30 2053 C 191.158 3.28336 -4.91883 0
M  V30 2054 H 190.088 0.540143 -0.526082 0
M  V30 2055 H 192.739 0.739157 -1.67955 0
M  V30 2056 H 191.121 3.32275 -2.15429 0
M  V30 2057 H 192.295 1.5001 -4.35699 0
M  V30 2058 H 190.61 1.50416 -3.88284 0
M  V30 2059 H 193.207 4.22012 -3.28345 0
M  V30 2060 H 193.55 3.83727 -1.61429 0
M  V30 2061 H 194.083 2.72488 -2.89819 0
M  V30 2062 H 190.822 2.87234 -5.89217 0
M  V30 2063 H 190.342 3.92145 -4.53853 0
M  V30 2064 H 192.021 3.93913 -5.13265 0
M  V30 2065 N 192.153 1.28127 0.917671 0
M  V30 2066 C 193.1 1.11717 2.0196 0
M  V30 2067 C 194.07 0.0153929 1.66093 0
M  V30 2068 O 195.255 0.179596 1.89953 0
M  V30 2069 C 192.395 0.780927 3.36148 0
M  V30 2070 C 191.508 1.96135 3.84909 0
M  V30 2071 C 190.643 1.56609 5.0759 0
M  V30 2072 C 189.682 2.71339 5.48673 0
M  V30 2073 N 188.819 2.32332 6.62545 0
M  V30 2074 H 193.659 2.06003 2.15329 0
M  V30 2075 H 191.196 1.02535 1.05475 0
M  V30 2076 H 193.154 0.56675 4.13333 0
M  V30 2077 H 191.784 -0.124998 3.22558 0
M  V30 2078 H 190.836 2.28777 3.03916 0
M  V30 2079 H 192.148 2.82165 4.1132 0
M  V30 2080 H 191.302 1.31374 5.92305 0
M  V30 2081 H 190.041 0.677014 4.82978 0
M  V30 2082 H 189.046 2.97276 4.62501 0
M  V30 2083 H 190.271 3.60882 5.75274 0
M  V30 2084 H 188.217 1.45889 6.39572 0
M  V30 2085 H 188.134 3.11899 6.88662 0
M  V30 2086 H 189.402 2.10371 7.50576 0
M  V30 2087 N 193.631 -1.12557 1.10312 0
M  V30 2088 C 194.561 -2.20341 0.772798 0
M  V30 2089 C 195.542 -1.68198 -0.25365 0
M  V30 2090 O 196.727 -1.93831 -0.119699 0
M  V30 2091 C 193.857 -3.46709 0.202443 0
M  V30 2092 C 192.811 -4.11996 1.15943 0
M  V30 2093 C 192.137 -5.328 0.450345 0
M  V30 2094 C 193.437 -4.5828 2.50552 0
M  V30 2095 H 195.131 -2.48229 1.674 0
M  V30 2096 H 192.677 -1.19308 0.806326 0
M  V30 2097 H 194.63 -4.2138 -0.0407752 0
M  V30 2098 H 193.354 -3.18245 -0.734001 0
M  V30 2099 H 192.013 -3.39305 1.38808 0
M  V30 2100 H 191.661 -5.00602 -0.490531 0
M  V30 2101 H 191.361 -5.7743 1.08851 0
M  V30 2102 H 192.885 -6.10219 0.215642 0
M  V30 2103 H 194.299 -5.2433 2.31843 0
M  V30 2104 H 192.696 -5.13683 3.10242 0
M  V30 2105 H 193.766 -3.72329 3.10643 0
M  V30 2106 N 195.109 -0.891671 -1.2995 0
M  V30 2107 C 196.337 -0.52866 -2.00032 0
M  V30 2108 C 196.752 0.884574 -1.66795 0
M  V30 2109 O 196.109 1.5827 -0.908669 0
M  V30 2110 C 196.16 -0.701814 -3.54622 0
M  V30 2111 O 195.881 -2.05942 -3.86678 0
M  V30 2112 C 197.382 -0.342683 -4.41973 0
M  V30 2113 H 194.602 -0.203659 -0.639347 0
M  V30 2114 H 197.146 -1.19881 -1.65677 0
M  V30 2115 H 195.301 -0.0789468 -3.8732 0
M  V30 2116 H 195.715 -2.08291 -4.81368 0
M  V30 2117 H 197.189 -0.514709 -5.49595 0
M  V30 2118 H 197.666 0.71975 -4.33262 0
M  V30 2119 H 198.272 -0.942154 -4.14733 0
M  V30 2120 N 196.587 1.43421 -0.653314 0
M  V30 2121 C 197.817 2.05864 -0.174238 0
M  V30 2122 C 198.225 1.49052 1.16534 0
M  V30 2123 O 197.568 0.616481 1.73047 0
M  V30 2124 C 197.63 3.59499 -0.00875873 0
M  V30 2125 C 197.294 4.38893 -1.27364 0
M  V30 2126 C 198.291 4.70947 -2.20239 0
M  V30 2127 C 195.976 4.789 -1.51525 0
M  V30 2128 C 197.97 5.41916 -3.35568 0
M  V30 2129 C 195.657 5.49614 -2.67147 0
M  V30 2130 C 196.655 5.81044 -3.58994 0
M  V30 2131 O 196.343 6.50313 -4.72597 0
M  V30 2132 H 196.075 0.670345 -0.0872549 0
M  V30 2133 H 198.629 1.84913 -0.894226 0
M  V30 2134 H 196.859 3.79025 0.7666 0
M  V30 2135 H 198.548 4.0364 0.427687 0
M  V30 2136 H 199.314 4.40558 -2.02815 0
M  V30 2137 H 195.193 4.53843 -0.809158 0
M  V30 2138 H 198.737 5.66365 -4.07279 0
M  V30 2139 H 194.634 5.79419 -2.84505 0
M  V30 2140 H 195.402 6.68795 -4.71864 0
M  V30 2141 N 198.065 0.39524 1.52563 0
M  V30 2142 C 199.312 -0.185044 2.01653 0
M  V30 2143 C 199.64 -1.46317 1.28146 0
M  V30 2144 O 198.895 -1.9213 0.372074 0
M  V30 2145 C 199.194 -0.493444 3.53977 0
M  V30 2146 C 198.86 0.69384 4.4553 0
M  V30 2147 C 197.522 1.01954 4.70275 0
M  V30 2148 C 199.874 1.48785 4.99512 0
M  V30 2149 C 197.202 2.14069 5.46252 0
M  V30 2150 C 199.554 2.59965 5.76716 0
M  V30 2151 C 198.218 2.93037 5.99738 0
M  V30 2152 H 197.488 -0.0677123 0.7379 0
M  V30 2153 H 200.135 0.533807 1.8391 0
M  V30 2154 H 198.44 -1.29369 3.69825 0
M  V30 2155 H 200.137 -0.955163 3.89458 0
M  V30 2156 H 196.727 0.429987 4.26438 0
M  V30 2157 H 200.911 1.24946 4.80315 0
M  V30 2158 H 196.167 2.40056 5.62302 0
M  V30 2159 H 200.341 3.21887 6.17545 0
M  V30 2160 H 197.968 3.8003 6.58393 0
M  V30 2161 N 199.544 -1.57102 0.125237 0
M  V30 2162 C 200.769 -2.0019 -0.542101 0
M  V30 2163 C 201.194 -1.00449 -1.59034 0
M  V30 2164 O 200.552 0.0229423 -1.81285 0
M  V30 2165 C 200.6 -3.42129 -1.13929 0
M  V30 2166 O 199.704 -3.45307 -2.2547 0
M  V30 2167 H 199.045 -0.650171 -0.134812 0
M  V30 2168 H 201.575 -2.03461 0.215553 0
M  V30 2169 H 201.585 -3.80471 -1.4733 0
M  V30 2170 H 200.26 -4.14237 -0.371531 0
M  V30 2171 H 198.837 -3.1879 -1.93462 0
M  V30 2172 N 201.022 0.148545 -1.56898 0
M  V30 2173 C 202.25 0.876389 -1.87422 0
M  V30 2174 C 202.665 1.74809 -0.713256 0
M  V30 2175 O 202.022 1.79725 0.317025 0
M  V30 2176 C 202.073 1.73438 -3.17178 0
M  V30 2177 O 201.794 0.897809 -4.28802 0
M  V30 2178 C 203.295 2.56993 -3.61205 0
M  V30 2179 H 200.515 0.253489 -0.621277 0
M  V30 2180 H 203.059 0.141798 -2.04008 0
M  V30 2181 H 201.214 2.42205 -3.0235 0
M  V30 2182 H 201.628 1.48672 -5.02988 0
M  V30 2183 H 203.102 3.12773 -4.54838 0
M  V30 2184 H 203.579 3.32958 -2.86419 0
M  V30 2185 H 204.185 1.9352 -3.78722 0
M  V30 2186 N 202.5 1.5196 0.417844 0
M  V30 2187 C 203.725 1.69717 1.1921 0
M  V30 2188 C 204.15 0.402148 1.83751 0
M  V30 2189 O 203.508 -0.639593 1.69643 0
M  V30 2190 C 203.556 2.82794 2.2374 0
M  V30 2191 O 202.66 2.47756 3.29683 0
M  V30 2192 H 202.001 0.565263 0.348387 0
M  V30 2193 H 204.531 1.98621 0.490985 0
M  V30 2194 H 204.541 3.07452 2.68212 0
M  V30 2195 H 203.216 3.76756 1.76146 0
M  V30 2196 H 201.793 2.33739 2.90552 0
M  V30 2197 N 203.978 -0.674533 1.42435 0
M  V30 2198 C 205.206 -1.46283 1.46317 0
M  V30 2199 C 205.621 -1.88653 0.0745836 0
M  V30 2200 O 204.978 -1.58151 -0.91074 0
M  V30 2201 C 205.029 -2.71178 2.3905 0
M  V30 2202 O 204.75 -2.30586 3.72507 0
M  V30 2203 C 206.251 -3.64738 2.51955 0
M  V30 2204 H 203.471 -0.450104 0.497642 0
M  V30 2205 H 206.015 -0.828792 1.86953 0
M  V30 2206 H 204.17 -3.3077 2.01667 0
M  V30 2207 H 204.584 -3.11241 4.22172 0
M  V30 2208 H 206.058 -4.49096 3.20962 0
M  V30 2209 H 206.535 -4.10656 1.55752 0
M  V30 2210 H 207.141 -3.11038 2.90061 0
M  V30 2211 N 205.456 -1.28612 -0.910864 0
M  V30 2212 C 206.681 -1.1891 -1.69927 0
M  V30 2213 C 207.106 0.248372 -1.86453 0
M  V30 2214 O 206.464 1.17961 -1.37676 0
M  V30 2215 C 206.512 -1.89578 -3.06745 0
M  V30 2216 O 205.616 -1.20521 -3.94396 0
M  V30 2217 H 204.957 -0.412632 -0.520222 0
M  V30 2218 H 207.487 -1.69985 -1.1387 0
M  V30 2219 H 207.497 -1.97597 -3.56958 0
M  V30 2220 H 206.172 -2.94136 -2.94035 0
M  V30 2221 H 204.749 -1.20684 -3.52831 0
M  V30 2222 N 206.934 1.1197 -1.10907 0
M  V30 2223 C 208.211 1.79959 -0.766432 0
M  V30 2224 C 208.591 1.97466 0.746363 0
M  V30 2225 O 207.939 1.55491 1.67436 0
M  V30 2226 C 208.149 3.14009 -1.52314 0
M  V30 2227 C 209.497 3.89134 -1.69883 0
M  V30 2228 O 210.521 3.2368 -1.48692 0
M  V30 2229 O 209.38 5.06572 -2.05054 0
M  V30 2230 H 206.474 0.779208 -0.277062 0
M  V30 2231 H 209.02 1.18762 -1.21217 0
M  V30 2232 H 207.792 2.96587 -2.55249 0
M  V30 2233 H 207.415 3.82915 -1.07059 0
M  V30 2234 N 208.412 0.89855 1.29475 0
M  V30 2235 C 209.344 0.332726 2.26772 0
M  V30 2236 C 210.357 -0.520323 1.54261 0
M  V30 2237 O 211.546 -0.337668 1.75277 0
M  V30 2238 C 208.646 -0.544334 3.345 0
M  V30 2239 C 207.819 0.282728 4.36485 0
M  V30 2240 C 206.878 -0.526982 5.23555 0
M  V30 2241 O 205.904 0.0551165 5.69173 0
M  V30 2242 N 207.106 -1.83331 5.5079 0
M  V30 2243 H 209.871 1.16897 2.75962 0
M  V30 2244 H 207.432 0.762919 1.42798 0
M  V30 2245 H 209.424 -1.09239 3.89678 0
M  V30 2246 H 207.994 -1.28127 2.85136 0
M  V30 2247 H 207.214 1.01221 3.80983 0
M  V30 2248 H 208.502 0.84918 5.01664 0
M  V30 2249 H 207.9 -2.32898 5.15534 0
M  V30 2250 H 206.457 -2.32852 6.08788 0
M  V30 2251 N 209.89 -1.43072 0.660911 0
M  V30 2252 C 211.118 -2.06067 0.185422 0
M  V30 2253 C 211.533 -1.49582 -1.15198 0
M  V30 2254 O 210.89 -0.630134 -1.71276 0
M  V30 2255 C 210.941 -3.61371 0.0966523 0
M  V30 2256 O 210.662 -4.15758 1.38119 0
M  V30 2257 C 212.163 -4.41455 -0.403996 0
M  V30 2258 H 209.383 -0.664459 0.0934604 0
M  V30 2259 H 211.927 -1.83447 0.90373 0
M  V30 2260 H 210.082 -3.8315 -0.572259 0
M  V30 2261 H 210.496 -5.09499 1.24542 0
M  V30 2262 H 211.97 -5.50437 -0.415045 0
M  V30 2263 H 212.447 -4.15036 -1.43674 0
M  V30 2264 H 213.053 -4.24663 0.232691 0
M  V30 2265 N 211.368 -0.403325 -1.52352 0
M  V30 2266 C 212.617 0.175668 -2.00934 0
M  V30 2267 C 212.93 1.46718 -1.29356 0
M  V30 2268 O 214.136 2.12708 -1.68724 0
M  V30 2269 C 212.592 0.363612 -3.58058 0
M  V30 2270 C 212.2 -0.915472 -4.38547 0
M  V30 2271 C 213.944 0.89821 -4.14888 0
M  V30 2272 C 211.851 -0.695035 -5.87302 0
M  V30 2273 H 210.781 0.0694234 -0.750797 0
M  V30 2274 H 213.432 -0.527879 -1.75743 0
M  V30 2275 H 211.814 1.12935 -3.79555 0
M  V30 2276 H 212.988 -1.68691 -4.28812 0
M  V30 2277 H 211.303 -1.37606 -3.93006 0
M  V30 2278 H 213.9 1.07907 -5.23699 0
M  V30 2279 H 214.243 1.87126 -3.71873 0
M  V30 2280 H 214.776 0.191681 -3.97338 0
M  V30 2281 H 211.515 -1.63948 -6.34666 0
M  V30 2282 H 211.035 0.0372116 -5.99788 0
M  V30 2283 H 212.714 -0.33497 -6.46132 0
M  V30 2284 N 212.846 1.57033 -0.133567 0
M  V30 2285 C 214.071 2.00475 0.531477 0
M  V30 2286 C 214.496 1.01291 1.58499 0
M  V30 2287 O 213.854 -0.0133279 1.81295 0
M  V30 2288 C 213.902 3.42729 1.12113 0
M  V30 2289 O 213.006 3.46498 2.23636 0
M  V30 2290 H 212.347 0.650876 0.131362 0
M  V30 2291 H 214.877 2.03344 -0.22634 0
M  V30 2292 H 214.887 3.81246 1.4531 0
M  V30 2293 H 213.562 4.14428 0.349557 0
M  V30 2294 H 212.139 3.19811 1.91769 0
M  V30 2295 N 214.325 -0.140222 1.56975 0
M  V30 2296 C 215.741 -0.493088 1.51792 0
M  V30 2297 C 215.941 -1.83013 0.843116 0
M  V30 2298 O 214.997 -2.49041 0.416493 0
M  V30 2299 C 216.31 -0.497144 2.96562 0
M  V30 2300 C 217.858 -0.582186 3.07538 0
M  V30 2301 C 218.333 -0.616838 4.53827 0
M  V30 2302 N 219.824 -0.678873 4.58198 0
M  V30 2303 C 220.559 -0.726782 5.68775 0
M  V30 2304 N 220.055 -0.733623 6.88905 0
M  V30 2305 N 221.848 -0.768179 5.56826 0
M  V30 2306 H 213.999 0.736108 1.99237 0
M  V30 2307 H 216.262 0.269182 0.90898 0
M  V30 2308 H 215.968 0.417217 3.49217 0
M  V30 2309 H 215.842 -1.33263 3.52875 0
M  V30 2310 H 218.229 -1.48697 2.54899 0
M  V30 2311 H 218.31 0.280581 2.54257 0
M  V30 2312 H 217.954 0.283812 5.07106 0
M  V30 2313 H 217.884 -1.49619 5.04898 0
M  V30 2314 H 220.375 -0.68061 3.7172 0
M  V30 2315 H 220.688 -0.772215 7.68932 0
M  V30 2316 H 219.033 -0.701389 6.91452 0
M  V30 2317 H 222.224 -0.760051 4.61888 0
M  V30 2318 H 222.397 -0.80205 6.43017 0
M  V30 2319 N 215.803 -1.52179 -0.40978 0
M  V30 2320 C 216.75 -1.75475 -1.49924 0
M  V30 2321 C 217.72 -0.597175 -1.54994 0
M  V30 2322 O 218.905 -0.834655 -1.71575 0
M  V30 2323 C 216.045 -1.9107 -2.87378 0
M  V30 2324 C 215.158 -3.18717 -2.91622 0
M  V30 2325 C 214.293 -3.24747 -4.20372 0
M  V30 2326 C 213.332 -4.46598 -4.18588 0
M  V30 2327 N 212.469 -4.50025 -5.38908 0
M  V30 2328 H 217.309 -2.68458 -1.29361 0
M  V30 2329 H 214.846 -1.33024 -0.627934 0
M  V30 2330 H 216.804 -1.98096 -3.6717 0
M  V30 2331 H 215.434 -1.01469 -3.06437 0
M  V30 2332 H 214.486 -3.20866 -2.04326 0
M  V30 2333 H 215.798 -4.08544 -2.86169 0
M  V30 2334 H 214.952 -3.30841 -5.08556 0
M  V30 2335 H 213.691 -2.32857 -4.28519 0
M  V30 2336 H 212.696 -4.40652 -3.28794 0
M  V30 2337 H 213.921 -5.39783 -4.12081 0
M  V30 2338 H 211.867 -3.61017 -5.47725 0
M  V30 2339 H 211.784 -5.33697 -5.35447 0
M  V30 2340 H 213.052 -4.60347 -6.29048 0
M  V30 2341 N 217.281 0.66697 -1.42791 0
M  V30 2342 C 218.244 1.76211 -1.46568 0
M  V30 2343 C 219.244 1.56896 -0.352196 0
M  V30 2344 O 220.434 1.63044 -0.613364 0
M  V30 2345 C 217.566 3.14935 -1.30494 0
M  V30 2346 H 218.759 1.74247 -2.44086 0
M  V30 2347 H 216.312 0.877342 -1.29354 0
M  V30 2348 H 217.047 3.2252 -0.339301 0
M  V30 2349 H 216.832 3.30359 -2.11199 0
M  V30 2350 H 218.322 3.94821 -1.36038 0
M  V30 2351 N 218.759 1.29093 0.90403 0
M  V30 2352 C 219.691 1.09658 2.01266 0
M  V30 2353 C 220.704 0.0453729 1.62737 0
M  V30 2354 O 221.893 0.289446 1.76138 0
M  V30 2355 C 218.993 0.646278 3.32681 0
M  V30 2356 C 218.166 1.77505 3.99763 0
M  V30 2357 C 217.225 1.31649 5.09465 0
M  V30 2358 O 216.251 2.02045 5.32134 0
M  V30 2359 N 217.453 0.184997 5.80205 0
M  V30 2360 H 220.218 2.05135 2.18494 0
M  V30 2361 H 217.779 1.20975 1.07594 0
M  V30 2362 H 219.771 0.322906 4.0341 0
M  V30 2363 H 218.341 -0.215916 3.11853 0
M  V30 2364 H 217.561 2.26752 3.22455 0
M  V30 2365 H 218.849 2.53198 4.41325 0
M  V30 2366 H 218.247 -0.402021 5.6427 0
M  V30 2367 H 216.804 -0.0790358 6.51752 0
M  V30 2368 N 220.237 -1.11381 1.11499 0
M  V30 2369 C 221.147 -2.21019 0.786628 0
M  V30 2370 C 222.163 -1.72597 -0.220507 0
M  V30 2371 O 223.339 -2.01321 -0.0565251 0
M  V30 2372 C 220.404 -3.459 0.235333 0
M  V30 2373 C 219.465 -4.09107 1.30115 0
M  V30 2374 C 218.698 -5.28027 0.776068 0
M  V30 2375 O 218.921 -5.6904 -0.393661 0
M  V30 2376 O 217.855 -5.81835 1.54114 0
M  V30 2377 H 221.681 -2.51521 1.70209 0
M  V30 2378 H 219.266 -1.19928 0.890928 0
M  V30 2379 H 221.148 -4.21346 -0.067715 0
M  V30 2380 H 219.823 -3.17049 -0.652828 0
M  V30 2381 H 218.73 -3.35391 1.65722 0
M  V30 2382 H 220.063 -4.42139 2.16273 0
M  V30 2383 N 221.715 -0.905404 -1.28997 0
M  V30 2384 C 222.678 -0.392253 -2.25819 0
M  V30 2385 C 223.678 0.476753 -1.5357 0
M  V30 2386 O 224.868 0.280994 -1.71919 0
M  V30 2387 C 222 0.438588 -3.38067 0
M  V30 2388 H 223.193 -1.24743 -2.72725 0
M  V30 2389 H 220.746 -0.684051 -1.40536 0
M  V30 2390 H 221.481 1.31352 -2.96508 0
M  V30 2391 H 221.266 -0.184167 -3.91667 0
M  V30 2392 H 222.756 0.78873 -4.10084 0
M  V30 2393 N 223.193 1.4272 -0.668489 0
M  V30 2394 C 224.439 2.02443 -0.197076 0
M  V30 2395 C 224.794 1.51882 1.18109 0
M  V30 2396 O 224.087 0.708618 1.78015 0
M  V30 2397 C 224.281 3.57021 -0.164499 0
M  V30 2398 C 224.11 4.22583 -1.53797 0
M  V30 2399 C 222.88 4.58019 -2.13416 0
M  V30 2400 C 225.078 4.50588 -2.47941 0
M  V30 2401 N 223.06 5.08729 -3.4361 0
M  V30 2402 C 224.431 5.02782 -3.62782 0
M  V30 2403 C 226.486 4.32571 -2.46551 0
M  V30 2404 C 225.189 5.38852 -4.76478 0
M  V30 2405 C 227.215 4.69713 -3.59338 0
M  V30 2406 C 226.577 5.22053 -4.72906 0
M  V30 2407 H 222.676 0.773214 -0.116894 0
M  V30 2408 H 225.26 1.73673 -0.880108 0
M  V30 2409 H 223.431 3.85323 0.487925 0
M  V30 2410 H 225.163 4.03439 0.319207 0
M  V30 2411 H 221.918 4.43566 -1.65969 0
M  V30 2412 H 222.342 5.38521 -4.10273 0
M  V30 2413 H 226.984 3.91365 -1.59978 0
M  V30 2414 H 224.702 5.78993 -5.63731 0
M  V30 2415 H 228.288 4.57454 -3.59482 0
M  V30 2416 H 227.168 5.50258 -5.58736 0
M  V30 2417 N 224.671 0.411399 1.52136 0
M  V30 2418 C 225.601 -0.404015 2.29978 0
M  V30 2419 C 226.582 -1.04412 1.34284 0
M  V30 2420 O 227.767 -1.0527 1.63192 0
M  V30 2421 C 224.897 -1.5197 3.12286 0
M  V30 2422 C 223.851 -1.00448 4.16046 0
M  V30 2423 C 223.177 -2.21393 4.86712 0
M  V30 2424 C 224.477 -0.0569336 5.22269 0
M  V30 2425 H 226.171 0.245529 2.98392 0
M  V30 2426 H 223.717 0.119525 1.43503 0
M  V30 2427 H 225.67 -2.09715 3.6551 0
M  V30 2428 H 224.394 -2.19716 2.41646 0
M  V30 2429 H 223.053 -0.449421 3.63835 0
M  V30 2430 H 222.701 -2.87699 4.12599 0
M  V30 2431 H 222.401 -1.87571 5.56858 0
M  V30 2432 H 223.925 -2.7974 5.4275 0
M  V30 2433 H 225.339 -0.54325 5.7072 0
M  V30 2434 H 223.736 0.192594 5.99791 0
M  V30 2435 H 224.806 0.887663 4.76706 0
M  V30 2436 N 226.149 -1.5696 0.141893 0
M  V30 2437 C 227.112 -2.15316 -0.785587 0
M  V30 2438 C 228.112 -1.09366 -1.1788 0
M  V30 2439 O 229.302 -1.35031 -1.10056 0
M  V30 2440 C 226.434 -2.71211 -2.06537 0
M  V30 2441 H 227.627 -2.98608 -0.278041 0
M  V30 2442 H 225.18 -1.5593 -0.107519 0
M  V30 2443 H 225.915 -1.91571 -2.6167 0
M  V30 2444 H 225.7 -3.4872 -1.79268 0
M  V30 2445 H 227.19 -3.16189 -2.72789 0
M  V30 2446 N 227.627 0.131896 -1.57047 0
M  V30 2447 C 228.876 0.84044 -1.83356 0
M  V30 2448 C 229.189 1.81646 -0.725535 0
M  V30 2449 O 230.395 2.57025 -0.874659 0
M  V30 2450 C 228.851 1.54528 -3.25037 0
M  V30 2451 C 228.459 0.610902 -4.43815 0
M  V30 2452 C 230.203 2.23972 -3.60606 0
M  V30 2453 C 228.11 1.31823 -5.76521 0
M  V30 2454 H 227.04 0.317599 -0.683847 0
M  V30 2455 H 229.691 0.0931561 -1.83263 0
M  V30 2456 H 228.073 2.33873 -3.19561 0
M  V30 2457 H 229.247 -0.148407 -4.60561 0
M  V30 2458 H 227.562 0.0241016 -4.16393 0
M  V30 2459 H 230.159 2.77558 -4.57018 0
M  V30 2460 H 230.502 3.01173 -2.87403 0
M  V30 2461 H 231.035 1.51529 -3.6781 0
M  V30 2462 H 227.774 0.587771 -6.52859 0
M  V30 2463 H 227.294 2.04987 -5.63685 0
M  V30 2464 H 228.973 1.855 -6.19838 0
M  V30 2465 N 229.106 1.52395 0.401703 0
M  V30 2466 C 230.038 1.72505 1.50912 0
M  V30 2467 C 231.051 0.605468 1.51122 0
M  V30 2468 O 232.24 0.880828 1.55254 0
M  V30 2469 C 229.34 1.75711 2.89791 0
M  V30 2470 C 228.513 3.04824 3.1369 0
M  V30 2471 C 227.572 2.99743 4.32482 0
M  V30 2472 O 226.598 3.73635 4.29402 0
M  V30 2473 N 227.8 2.18047 5.37992 0
M  V30 2474 H 230.565 2.68049 1.34052 0
M  V30 2475 H 228.126 1.50724 0.591084 0
M  V30 2476 H 230.118 1.69834 3.6734 0
M  V30 2477 H 228.688 0.876092 3.00072 0
M  V30 2478 H 227.908 3.2429 2.24119 0
M  V30 2479 H 229.196 3.90221 3.26504 0
M  V30 2480 H 228.594 1.57456 5.43345 0
M  V30 2481 H 227.151 2.18021 6.14256 0
M  V30 2482 N 230.584 -0.659388 1.43143 0
M  V30 2483 C 231.514 -1.78422 1.50625 0
M  V30 2484 C 232.495 -1.66216 0.361443 0
M  V30 2485 O 233.68 -1.85404 0.577834 0
M  V30 2486 C 230.81 -3.16815 1.42287 0
M  V30 2487 C 229.764 -3.43777 2.54954 0
M  V30 2488 C 229.09 -4.81905 2.31671 0
M  V30 2489 C 230.39 -3.39134 3.97222 0
M  V30 2490 H 232.084 -1.72417 2.44771 0
M  V30 2491 H 229.63 -0.828084 1.17808 0
M  V30 2492 H 231.583 -3.95253 1.46127 0
M  V30 2493 H 230.307 -3.23534 0.446435 0
M  V30 2494 H 228.966 -2.67707 2.50457 0
M  V30 2495 H 228.614 -4.85294 1.32284 0
M  V30 2496 H 228.314 -5.00906 3.07192 0
M  V30 2497 H 229.838 -5.62609 2.37284 0
M  V30 2498 H 231.252 -4.07518 4.03239 0
M  V30 2499 H 229.649 -3.69671 4.72719 0
M  V30 2500 H 230.719 -2.37426 4.22797 0
M  V30 2501 N 232.062 -1.29571 -0.897171 0
M  V30 2502 C 232.972 -1.16808 -2.03453 0
M  V30 2503 C 233.988 -0.0907471 -1.73763 0
M  V30 2504 O 235.164 -0.303312 -1.99103 0
M  V30 2505 C 232.229 -0.848264 -3.36163 0
M  V30 2506 C 231.29 -2.0097 -3.79354 0
M  V30 2507 C 230.523 -1.70505 -5.05731 0
M  V30 2508 O 230.746 -0.62718 -5.66941 0
M  V30 2509 O 229.68 -2.5538 -5.45036 0
M  V30 2510 H 233.506 -2.12325 -2.17144 0
M  V30 2511 H 231.091 -1.09047 -1.02123 0
M  V30 2512 H 232.973 -0.684581 -4.15802 0
M  V30 2513 H 231.648 0.0771071 -3.23608 0
M  V30 2514 H 230.555 -2.22863 -3.00471 0
M  V30 2515 H 231.888 -2.91636 -3.96496 0
M  V30 2516 N 233.54 1.10788 -1.12088 0
M  V30 2517 C 234.472 2.16816 -0.743213 0
M  V30 2518 C 235.485 1.6119 0.228412 0
M  V30 2519 O 236.674 1.78497 0.0102931 0
M  V30 2520 C 233.774 3.38809 -0.0787313 0
M  V30 2521 C 232.947 4.23885 -1.0789 0
M  V30 2522 C 232.006 5.24334 -0.442713 0
M  V30 2523 O 231.032 5.58497 -1.09864 0
M  V30 2524 N 232.234 5.75079 0.791457 0
M  V30 2525 H 234.999 2.49825 -1.65552 0
M  V30 2526 H 232.56 1.26373 -1.012 0
M  V30 2527 H 234.552 4.03107 0.358766 0
M  V30 2528 H 233.122 3.03805 0.736275 0
M  V30 2529 H 232.342 3.55939 -1.69414 0
M  V30 2530 H 233.63 4.77562 -1.75533 0
M  V30 2531 H 233.028 5.49517 1.3434 0
M  V30 2532 H 231.585 6.4118 1.17183 0
M  V30 2533 N 235.018 0.912232 1.28515 0
M  V30 2534 C 235.965 0.397954 2.27343 0
M  V30 2535 C 236.935 -0.526766 1.57526 0
M  V30 2536 O 238.12 -0.449292 1.85435 0
M  V30 2537 C 235.26 -0.357263 3.43246 0
M  V30 2538 C 234.373 0.599788 4.27816 0
M  V30 2539 C 233.508 -0.173725 5.30916 0
M  V30 2540 C 232.547 0.777039 6.07148 0
M  V30 2541 N 231.684 0.0371398 7.0209 0
M  V30 2542 H 236.524 1.24577 2.70711 0
M  V30 2543 H 234.061 0.625612 1.33133 0
M  V30 2544 H 236.019 -0.8113 4.09236 0
M  V30 2545 H 234.649 -1.16943 3.00872 0
M  V30 2546 H 233.701 1.17235 3.61884 0
M  V30 2547 H 235.013 1.32704 4.80823 0
M  V30 2548 H 234.167 -0.688394 6.02782 0
M  V30 2549 H 232.906 -0.934041 4.78672 0
M  V30 2550 H 231.911 1.3031 5.34134 0
M  V30 2551 H 233.136 1.53689 6.61481 0
M  V30 2552 H 231.082 -0.705213 6.52198 0
M  V30 2553 H 230.999 0.704249 7.52713 0
M  V30 2554 H 232.267 -0.457383 7.78157 0
M  V30 2555 N 236.496 -1.42363 0.676048 0
M  V30 2556 C 237.459 -2.29199 0.00766941 0
M  V30 2557 C 238.459 -1.43389 -0.727745 0
M  V30 2558 O 239.649 -1.64764 -0.56556 0
M  V30 2559 C 236.781 -3.2591 -0.999785 0
M  V30 2560 H 237.974 -2.89794 0.771988 0
M  V30 2561 H 235.527 -1.50024 0.438468 0
M  V30 2562 H 236.262 -2.70256 -1.79255 0
M  V30 2563 H 236.047 -3.89202 -0.475829 0
M  V30 2564 H 237.537 -3.91028 -1.46583 0
M  V30 2565 N 237.974 -0.419461 -1.51915 0
M  V30 2566 C 239.202 0.152136 -2.0634 0
M  V30 2567 C 239.617 1.37988 -1.28859 0
M  V30 2568 O 238.974 1.79243 -0.343232 0
M  V30 2569 C 239.025 0.492266 -3.58133 0
M  V30 2570 O 238.746 -0.686736 -4.32684 0
M  V30 2571 C 240.247 1.11648 -4.2901 0
M  V30 2572 H 237.467 0.0158325 -0.670813 0
M  V30 2573 H 240.011 -0.593394 -1.95702 0
M  V30 2574 H 238.166 1.18769 -3.68745 0
M  V30 2575 H 238.58 -0.400341 -5.2297 0
M  V30 2576 H 240.054 1.3046 -5.36362 0
M  V30 2577 H 240.531 2.09251 -3.86148 0
M  V30 2578 H 241.137 0.460958 -4.22795 0
M  V30 2579 N 239.452 1.56882 -0.150215 0
M  V30 2580 C 240.399 2.16922 0.788244 0
M  V30 2581 C 241.369 1.10303 1.24187 0
M  V30 2582 O 242.554 1.38359 1.31383 0
M  V30 2583 C 239.694 2.79754 2.02068 0
M  V30 2584 C 238.807 4.00775 1.61257 0
M  V30 2585 C 237.942 4.51595 2.79705 0
M  V30 2586 C 236.981 5.65074 2.35282 0
M  V30 2587 N 236.118 6.10499 3.4675 0
M  V30 2588 H 240.958 2.96779 0.269444 0
M  V30 2589 H 238.495 1.46599 0.12128 0
M  V30 2590 H 240.453 3.14329 2.74323 0
M  V30 2591 H 239.083 2.02536 2.51354 0
M  V30 2592 H 238.135 3.72158 0.787553 0
M  V30 2593 H 239.447 4.82978 1.24633 0
M  V30 2594 H 238.601 4.88242 3.60145 0
M  V30 2595 H 237.34 3.68406 3.19576 0
M  V30 2596 H 236.345 5.28 1.53283 0
M  V30 2597 H 237.57 6.50052 1.96493 0
M  V30 2598 H 235.516 5.30243 3.86236 0
M  V30 2599 H 235.433 6.87637 3.14152 0
M  V30 2600 H 236.701 6.51791 4.27537 0
M  V30 2601 N 240.93 -0.123565 1.57115 0
M  V30 2602 C 241.862 -1.17739 1.96648 0
M  V30 2603 C 242.875 -1.37906 0.865201 0
M  V30 2604 O 244.064 -1.37062 1.14351 0
M  V30 2605 C 241.164 -2.53821 2.24562 0
M  V30 2606 C 240.337 -2.54317 3.55867 0
M  V30 2607 C 239.396 -3.72112 3.72047 0
M  V30 2608 O 238.422 -3.55907 4.44206 0
M  V30 2609 N 239.624 -4.90498 3.10471 0
M  V30 2610 H 242.389 -0.841147 2.87654 0
M  V30 2611 H 239.95 -0.31289 1.58848 0
M  V30 2612 H 241.942 -3.31175 2.32606 0
M  V30 2613 H 240.512 -2.79645 1.39705 0
M  V30 2614 H 239.732 -1.62711 3.59053 0
M  V30 2615 H 241.02 -2.51701 4.42181 0
M  V30 2616 H 240.418 -5.06567 2.51806 0
M  V30 2617 H 238.975 -5.65544 3.24043 0
M  V30 2618 N 242.408 -1.52605 -0.393616 0
M  V30 2619 C 243.318 -1.79971 -1.50492 0
M  V30 2620 C 244.334 -0.686181 -1.59899 0
M  V30 2621 O 245.51 -0.973274 -1.76322 0
M  V30 2622 C 242.575 -1.95867 -2.86072 0
M  V30 2623 C 241.636 -3.19781 -2.86424 0
M  V30 2624 C 240.869 -3.34909 -4.15538 0
M  V30 2625 O 241.092 -2.54948 -5.10253 0
M  V30 2626 O 240.026 -4.28141 -4.23059 0
M  V30 2627 H 243.852 -2.74328 -1.30299 0
M  V30 2628 H 241.437 -1.3764 -0.581005 0
M  V30 2629 H 243.319 -2.08056 -3.66457 0
M  V30 2630 H 241.994 -1.04699 -3.063 0
M  V30 2631 H 240.901 -3.13038 -2.04837 0
M  V30 2632 H 242.234 -4.1078 -2.71147 0
M  V30 2633 N 243.887 0.651787 -1.4349 0
M  V30 2634 C 245.136 1.40754 -1.44469 0
M  V30 2635 C 245.449 1.95463 -0.0731845 0
M  V30 2636 O 246.655 2.71471 0.0395721 0
M  V30 2637 C 245.111 2.54735 -2.5424 0
M  V30 2638 C 244.719 2.06628 -3.97504 0
M  V30 2639 C 246.463 3.32092 -2.64414 0
M  V30 2640 C 244.37 3.17829 -4.98737 0
M  V30 2641 H 243.3 0.528862 -0.53742 0
M  V30 2642 H 245.951 0.703365 -1.69485 0
M  V30 2643 H 244.333 3.2763 -2.22428 0
M  V30 2644 H 245.507 1.40734 -4.38783 0
M  V30 2645 H 243.822 1.42146 -3.91387 0
M  V30 2646 H 246.419 4.14952 -3.37223 0
M  V30 2647 H 246.762 3.80217 -1.69532 0
M  V30 2648 H 247.295 2.66279 -2.95534 0
M  V30 2649 H 244.034 2.74671 -5.95177 0
M  V30 2650 H 243.554 3.82429 -4.62069 0
M  V30 2651 H 245.233 3.82937 -5.21505 0
M  V30 2652 N 245.365 1.30045 0.890287 0
M  V30 2653 C 246.295 1.18541 2.01172 0
M  V30 2654 C 247.276 0.0773356 1.69924 0
M  V30 2655 O 248.461 0.25845 1.92473 0
M  V30 2656 C 245.591 0.870941 3.36202 0
M  V30 2657 C 244.545 1.93637 3.81692 0
M  V30 2658 C 243.871 1.475 5.13953 0
M  V30 2659 C 245.171 3.34666 4.00994 0
M  V30 2660 H 246.865 2.12359 2.11054 0
M  V30 2661 H 244.411 1.02238 1.01407 0
M  V30 2662 H 246.364 0.777141 4.14172 0
M  V30 2663 H 245.088 -0.102926 3.26438 0
M  V30 2664 H 243.747 2.01972 3.05946 0
M  V30 2665 H 243.395 0.489551 5.00612 0
M  V30 2666 H 243.095 2.1876 5.4536 0
M  V30 2667 H 244.619 1.39489 5.94454 0
M  V30 2668 H 246.033 3.2912 4.69417 0
M  V30 2669 H 244.43 4.03966 4.43769 0
M  V30 2670 H 245.5 3.76949 3.05021 0
M  V30 2671 N 246.843 -1.10192 1.12674 0
M  V30 2672 C 248.071 -1.85983 0.906527 0
M  V30 2673 C 248.486 -1.80783 -0.544333 0
M  V30 2674 O 247.843 -1.19834 -1.37645 0
M  V30 2675 C 247.894 -3.34281 1.37618 0
M  V30 2676 O 247.615 -3.39401 2.77017 0
M  V30 2677 C 249.116 -4.26938 1.19325 0
M  V30 2678 H 246.336 -0.587716 0.323775 0
M  V30 2679 H 248.88 -1.39284 1.49734 0
M  V30 2680 H 247.035 -3.78436 0.828539 0
M  V30 2681 H 247.449 -4.31838 2.97684 0
M  V30 2682 H 248.923 -5.29181 1.57071 0
M  V30 2683 H 249.4 -4.38995 0.134097 0
M  V30 2684 H 250.006 -3.8859 1.72852 0
M  V30 2685 N 248.321 -0.919034 -1.28029 0
M  V30 2686 C 249.551 -0.570143 -1.98577 0
M  V30 2687 C 249.959 0.854172 -1.68821 0
M  V30 2688 O 249.302 1.57807 -0.940351 0
M  V30 2689 C 249.364 -0.705734 -3.52505 0
M  V30 2690 C 249.028 -2.10057 -4.05863 0
M  V30 2691 C 250.025 -3.07385 -4.19298 0
M  V30 2692 C 247.71 -2.41517 -4.40426 0
M  V30 2693 C 249.704 -4.34287 -4.66555 0
M  V30 2694 C 247.391 -3.68657 -4.87376 0
M  V30 2695 C 248.389 -4.64856 -5.00398 0
M  V30 2696 O 248.077 -5.89735 -5.46322 0
M  V30 2697 H 247.809 -0.215592 -0.6407 0
M  V30 2698 H 250.363 -1.23583 -1.64062 0
M  V30 2699 H 248.593 0.0170414 -3.86696 0
M  V30 2700 H 250.282 -0.363172 -4.04272 0
M  V30 2701 H 251.048 -2.84398 -3.92865 0
M  V30 2702 H 246.927 -1.67389 -4.29537 0
M  V30 2703 H 250.471 -5.09377 -4.76635 0
M  V30 2704 H 246.368 -3.91466 -5.13249 0
M  V30 2705 H 247.136 -5.92599 -5.64596 0
M  V30 2706 N 249.799 1.42003 -0.683588 0
M  V30 2707 C 251.029 2.05448 -0.217866 0
M  V30 2708 C 251.437 1.51491 1.13346 0
M  V30 2709 O 250.78 0.653048 1.717 0
M  V30 2710 C 250.842 3.59399 -0.0850118 0
M  V30 2711 C 250.506 4.36093 -1.36645 0
M  V30 2712 C 251.503 4.66169 -2.30179 0
M  V30 2713 C 249.188 4.75578 -1.61649 0
M  V30 2714 C 251.182 5.34676 -3.46988 0
M  V30 2715 C 248.869 5.43824 -2.78745 0
M  V30 2716 C 249.867 5.73299 -3.71238 0
M  V30 2717 O 249.555 6.40142 -4.86285 0
M  V30 2718 H 249.287 0.668344 -0.101454 0
M  V30 2719 H 251.841 1.82974 -0.933248 0
M  V30 2720 H 250.071 3.80566 0.686031 0
M  V30 2721 H 251.76 4.04457 0.341973 0
M  V30 2722 H 252.526 4.36156 -2.12115 0
M  V30 2723 H 248.405 4.52025 -0.905243 0
M  V30 2724 H 251.949 5.57599 -4.19201 0
M  V30 2725 H 247.846 5.73254 -2.96732 0
M  V30 2726 H 248.614 6.58636 -4.85944 0
M  V30 2727 N 251.277 0.427512 1.51691 0
M  V30 2728 C 252.526 -0.143679 2.01188 0
M  V30 2729 C 252.839 -1.44642 1.31674 0
M  V30 2730 O 254.045 -2.09997 1.72086 0
M  V30 2731 C 252.501 -0.306602 3.58592 0
M  V30 2732 C 252.109 0.985125 4.37035 0
M  V30 2733 C 253.853 -0.832091 4.16265 0
M  V30 2734 C 251.76 0.788382 5.86122 0
M  V30 2735 H 250.69 -0.0574701 0.751807 0
M  V30 2736 H 253.341 0.555772 1.74881 0
M  V30 2737 H 251.723 -1.06882 3.81303 0
M  V30 2738 H 252.897 1.75492 4.26074 0
M  V30 2739 H 251.212 1.4384 3.90767 0
M  V30 2740 H 253.809 -0.995617 5.25349 0
M  V30 2741 H 254.152 -1.81186 3.74803 0
M  V30 2742 H 254.685 -0.128444 3.97593 0
M  V30 2743 H 251.424 1.74025 6.31978 0
M  V30 2744 H 250.944 0.0582143 5.99772 0
M  V30 2745 H 252.623 0.437722 6.45518 0
M  V30 2746 N 252.755 -1.56801 0.158532 0
M  V30 2747 C 253.703 -2.18638 -0.793729 0
M  V30 2748 C 254.697 -1.14669 -1.24689 0
M  V30 2749 O 255.903 -1.32895 -1.21403 0
M  V30 2750 H 252.278 -0.700226 -0.274204 0
M  V30 2751 H 254.249 -2.97367 -0.248095 0
M  V30 2752 C 252.998 -2.83139 -2.0181 0
M  V30 2753 H 252.321 -3.62863 -1.67841 0
M  V30 2754 H 253.761 -3.29894 -2.66357 0
M  V30 2755 C 252.22 -1.82244 -2.83353 0
M  V30 2756 O 252.75 -1.3 -3.80083 0
M  V30 2757 N 250.956 -1.51288 -2.48114 0
M  V30 2758 H 250.503 -1.93964 -1.69516 0
M  V30 2759 H 250.461 -0.840296 -3.02963 0
M  V30 2760 N 254.233 0.115231 -1.57178 0
M  V30 2761 C 255.18 1.14115 -2.00615 0
M  V30 2762 C 256.15 1.40939 -0.878941 0
M  V30 2763 O 257.335 1.52741 -1.14345 0
M  V30 2764 C 254.475 2.46156 -2.4187 0
M  V30 2765 C 253.588 2.26236 -3.68024 0
M  V30 2766 C 252.723 3.51534 -3.98243 0
M  V30 2767 C 251.762 3.26787 -5.17568 0
M  V30 2768 N 250.899 4.44298 -5.43639 0
M  V30 2769 H 255.739 0.763743 -2.88047 0
M  V30 2770 H 253.276 0.365615 -1.42484 0
M  V30 2771 H 255.234 3.23189 -2.63827 0
M  V30 2772 H 253.864 2.81783 -1.57475 0
M  V30 2773 H 252.916 1.40102 -3.5366 0
M  V30 2774 H 254.228 2.03929 -4.55208 0
M  V30 2775 H 253.382 4.36984 -4.20868 0
M  V30 2776 H 252.121 3.76876 -3.09541 0
M  V30 2777 H 251.126 2.39729 -4.94783 0
M  V30 2778 H 252.351 3.02812 -6.0785 0
M  V30 2779 H 250.297 4.69754 -4.57895 0
M  V30 2780 H 250.214 4.25109 -6.25154 0
M  V30 2781 H 251.482 5.3087 -5.70786 0
M  V30 2782 N 255.711 1.52812 0.385517 0
M  V30 2783 C 256.957 1.68275 1.13188 0
M  V30 2784 C 257.29 0.423179 1.89533 0
M  V30 2785 O 256.565 -0.579113 1.85679 0
M  V30 2786 C 256.848 2.92001 2.1073 0
M  V30 2787 C 256.701 4.28067 1.38125 0
M  V30 2788 C 258.02 3.11283 3.11113 0
M  V30 2789 H 255.139 0.612352 0.410115 0
M  V30 2790 H 257.781 1.85415 0.414869 0
M  V30 2791 H 255.931 2.77519 2.71874 0
M  V30 2792 H 257.603 4.54324 0.799187 0
M  V30 2793 H 255.846 4.28388 0.683092 0
M  V30 2794 H 256.517 5.10733 2.09417 0
M  V30 2795 H 258.993 3.2482 2.6006 0
M  V30 2796 H 257.869 3.99325 3.76605 0
M  V30 2797 H 258.13 2.25656 3.80173 0
M  V30 2798 N 257.189 -0.644168 1.43834 0
M  V30 2799 C 258.419 -1.42939 1.49171 0
M  V30 2800 C 258.827 -1.88874 0.111048 0
M  V30 2801 O 258.17 -1.60656 -0.8908 0
M  V30 2802 C 258.232 -2.69151 2.38324 0
M  V30 2803 C 257.896 -2.45097 3.85715 0
M  V30 2804 C 258.893 -2.07747 4.76589 0
M  V30 2805 C 256.578 -2.59141 4.30292 0
M  V30 2806 C 258.572 -1.8475 6.10038 0
M  V30 2807 C 256.259 -2.35759 5.63792 0
M  V30 2808 C 257.257 -1.9862 6.53482 0
M  V30 2809 O 256.945 -1.75489 7.84512 0
M  V30 2810 H 256.677 -0.445271 0.508635 0
M  V30 2811 H 259.231 -0.79621 1.8934 0
M  V30 2812 H 257.461 -3.3506 1.93058 0
M  V30 2813 H 259.15 -3.31123 2.3476 0
M  V30 2814 H 259.916 -1.96465 4.43426 0
M  V30 2815 H 255.795 -2.87022 3.60749 0
M  V30 2816 H 259.339 -1.55686 6.80006 0
M  V30 2817 H 255.236 -2.46646 5.9652 0
M  V30 2818 H 256.004 -1.89841 7.9618 0
M  V30 2819 N 258.668 -1.30515 -0.883378 0
M  V30 2820 C 259.601 -1.11359 -1.99184 0
M  V30 2821 C 260.579 -0.0207858 -1.62587 0
M  V30 2822 O 261.763 -0.174646 -1.87689 0
M  V30 2823 C 258.89 -0.69871 -3.31415 0
M  V30 2824 C 257.936 -1.79261 -3.86998 0
M  V30 2825 S 258.769 -3.39536 -4.14096 0
M  V30 2826 C 259.925 -2.99954 -5.49344 0
M  V30 2827 H 260.158 -2.052 -2.15128 0
M  V30 2828 H 257.691 -1.14847 -1.03196 0
M  V30 2829 H 259.649 -0.466075 -4.07846 0
M  V30 2830 H 258.31 0.220368 -3.13326 0
M  V30 2831 H 257.503 -1.45464 -4.82552 0
M  V30 2832 H 257.105 -1.97961 -3.17313 0
M  V30 2833 H 259.397 -2.48013 -6.30473 0
M  V30 2834 H 260.34 -3.9442 -5.8808 0
M  V30 2835 H 260.748 -2.37775 -5.1198 0
M  V30 2836 N 260.146 1.09593 -1.13257 0
M  V30 2837 C 261.371 1.8604 -0.916732 0
M  V30 2838 C 261.796 1.80504 0.529146 0
M  V30 2839 O 261.154 1.18127 1.37534 0
M  V30 2840 C 261.202 3.32017 -1.40703 0
M  V30 2841 O 260.306 4.08141 -0.591153 0
M  V30 2842 H 259.647 0.576943 -0.328683 0
M  V30 2843 H 262.177 1.38405 -1.50682 0
M  V30 2844 H 262.187 3.82865 -1.4099 0
M  V30 2845 H 260.862 3.35361 -2.45979 0
M  V30 2846 H 259.439 3.67084 -0.656005 0
M  V30 2847 N 261.624 0.925811 1.2754 0
M  V30 2848 C 262.572 0.413897 2.28888 0
M  V30 2849 C 263.566 -0.500779 1.61829 0
M  V30 2850 O 264.772 -0.38069 1.75928 0
M  V30 2851 H 261.147 0.115274 0.743112 0
M  V30 2852 H 263.118 1.28151 2.69481 0
M  V30 2853 C 261.867 -0.319792 3.46226 0
M  V30 2854 H 261.19 0.374846 3.98039 0
M  V30 2855 H 262.63 -0.642435 4.19105 0
M  V30 2856 C 261.089 -1.53209 3.00048 0
M  V30 2857 O 261.619 -2.6309 3.03557 0
M  V30 2858 N 259.825 -1.38326 2.55566 0
M  V30 2859 H 259.372 -0.489292 2.5291 0
M  V30 2860 H 259.33 -2.19564 2.25031 0
M  V30 2861 N 263.102 -1.41638 0.69111 0
M  V30 2862 C 264.35 -2.00902 0.219758 0
M  V30 2863 C 264.671 -1.54994 -1.18329 0
M  V30 2864 O 263.941 -0.778628 -1.79762 0
M  V30 2865 H 262.521 -0.74289 0.0782558 0
M  V30 2866 H 265.183 -1.73327 0.891271 0
M  V30 2867 H 264.279 -3.11224 0.233708 0
M  V30 2868 N 264.58 -0.43555 -1.51462 0
M  V30 2869 C 265.528 0.391205 -2.29287 0
M  V30 2870 C 266.522 1.02247 -1.35062 0
M  V30 2871 O 267.728 0.957646 -1.52411 0
M  V30 2872 H 264.103 0.144968 -0.737895 0
M  V30 2873 H 266.074 -0.286051 -2.97026 0
M  V30 2874 C 264.823 1.48096 -3.14583 0
M  V30 2875 H 264.146 1.00457 -3.86973 0
M  V30 2876 H 265.586 2.03273 -3.72097 0
M  V30 2877 C 264.045 2.46321 -2.29843 0
M  V30 2878 O 264.575 3.50815 -1.95682 0
M  V30 2879 N 262.781 2.17166 -1.931 0
M  V30 2880 H 262.328 1.32218 -2.21079 0
M  V30 2881 H 262.286 2.83127 -1.36698 0
M  V30 2882 N 266.058 1.56714 -0.166846 0
M  V30 2883 C 267.288 2.00828 0.48494 0
M  V30 2884 C 267.696 1.04612 1.57648 0
M  V30 2885 O 267.039 0.0383201 1.8366 0
M  V30 2886 C 267.101 3.4137 1.12723 0
M  V30 2887 C 266.765 4.56654 0.177886 0
M  V30 2888 C 267.762 5.16402 -0.60207 0
M  V30 2889 C 265.447 5.02244 0.0750139 0
M  V30 2890 C 267.441 6.20167 -1.47215 0
M  V30 2891 C 265.128 6.05859 -0.798649 0
M  V30 2892 C 266.126 6.64691 -1.57082 0
M  V30 2893 O 265.814 7.66297 -2.42989 0
M  V30 2894 H 265.546 0.663587 0.128953 0
M  V30 2895 H 268.1 2.03692 -0.264365 0
M  V30 2896 H 266.33 3.35406 1.92457 0
M  V30 2897 H 268.019 3.69466 1.68076 0
M  V30 2898 H 268.785 4.82065 -0.53274 0
M  V30 2899 H 264.664 4.56167 0.665812 0
M  V30 2900 H 268.208 6.66016 -2.07531 0
M  V30 2901 H 264.105 6.39621 -0.869199 0
M  V30 2902 H 264.873 7.83601 -2.36455 0
M  V30 2903 N 267.536 -0.106894 1.57237 0
M  V30 2904 C 268.784 -0.810921 1.85117 0
M  V30 2905 C 269.105 -1.7984 0.753827 0
M  V30 2906 O 268.375 -1.94649 -0.221056 0
M  V30 2907 H 266.955 -0.302466 0.683025 0
M  V30 2908 H 269.617 -0.0913324 1.94686 0
M  V30 2909 H 268.713 -1.34875 2.81452 0
M  V30 2910 N 269.014 -1.53014 -0.377408 0
M  V30 2911 C 269.947 -1.73382 -1.48371 0
M  V30 2912 C 270.925 -0.581879 -1.51832 0
M  V30 2913 O 272.109 -0.81307 -1.70063 0
M  V30 2914 C 269.236 -1.80192 -2.8679 0
M  V30 2915 C 268.282 -3.02056 -3.01105 0
M  V30 2916 S 269.115 -4.61811 -2.71093 0
M  V30 2917 C 270.271 -4.71453 -4.11683 0
M  V30 2918 H 270.504 -2.66946 -1.30872 0
M  V30 2919 H 268.037 -1.43453 -0.571012 0
M  V30 2920 H 269.995 -1.84802 -3.6655 0
M  V30 2921 H 268.656 -0.877008 -3.01608 0
M  V30 2922 H 267.849 -3.03396 -4.02451 0
M  V30 2923 H 267.451 -2.95498 -2.29253 0
M  V30 2924 H 269.743 -4.50781 -5.0577 0
M  V30 2925 H 270.686 -5.73487 -4.15353 0
M  V30 2926 H 271.094 -4.00189 -3.98132 0
M  V30 2927 N 270.492 0.636531 -1.44174 0
M  V30 2928 C 271.424 1.7618 -1.46606 0
M  V30 2929 C 272.437 1.58768 -0.360091 0
M  V30 2930 O 273.626 1.67181 -0.625518 0
M  V30 2931 C 270.726 3.13833 -1.27915 0
M  V30 2932 C 269.899 3.57753 -2.51658 0
M  V30 2933 C 268.958 4.74265 -2.27945 0
M  V30 2934 O 267.984 4.82852 -3.01401 0
M  V30 2935 N 269.186 5.65604 -1.30662 0
M  V30 2936 H 271.951 1.74567 -2.43612 0
M  V30 2937 H 269.512 0.820924 -1.39544 0
M  V30 2938 H 271.504 3.8949 -1.09907 0
M  V30 2939 H 270.074 3.10121 -0.39293 0
M  V30 2940 H 269.294 2.72362 -2.84978 0
M  V30 2941 H 270.582 3.83847 -3.33974 0
M  V30 2942 H 269.98 5.61354 -0.699844 0
M  V30 2943 H 268.537 6.40913 -1.18634 0
M  V30 2944 N 271.97 1.30982 0.876444 0
M  V30 2945 C 273.198 1.23242 1.6619 0
M  V30 2946 C 273.613 -0.203345 1.87702 0
M  V30 2947 O 272.97 -1.13317 1.43057 0
M  V30 2948 C 273.021 1.96623 3.03351 0
M  V30 2949 O 272.742 3.34594 2.82804 0
M  V30 2950 C 274.243 1.95644 3.97792 0
M  V30 2951 H 271.463 0.426126 0.518322 0
M  V30 2952 H 274.007 1.7275 1.09442 0
M  V30 2953 H 272.162 1.50892 3.56806 0
M  V30 2954 H 272.576 3.71873 3.69879 0
M  V30 2955 H 274.05 2.51511 4.91372 0
M  V30 2956 H 274.527 0.937395 4.2908 0
M  V30 2957 H 275.133 2.41225 3.50272 0
M  V30 2958 N 273.449 -1.08991 1.13837 0
M  V30 2959 C 274.412 -2.13925 0.822715 0
M  V30 2960 C 275.412 -1.599 -0.1699 0
M  V30 2961 O 276.602 -1.74104 0.0577251 0
M  V30 2962 C 273.734 -3.40155 0.225318 0
M  V30 2963 H 274.927 -2.43358 1.75262 0
M  V30 2964 H 272.48 -1.24603 0.943594 0
M  V30 2965 H 273.215 -3.16352 -0.713594 0
M  V30 2966 H 273 -3.80661 0.940193 0
M  V30 2967 H 274.49 -4.17594 0.0214784 0
M  V30 2968 N 274.927 -0.932562 -1.27047 0
M  V30 2969 C 275.89 -0.440064 -2.24936 0
M  V30 2970 C 276.89 0.444071 -1.54547 0
M  V30 2971 O 278.08 0.244465 -1.72476 0
M  V30 2972 C 275.212 0.36678 -3.38921 0
M  V30 2973 H 276.405 -1.305 -2.70018 0
M  V30 2974 H 273.958 -0.713707 -1.39054 0
M  V30 2975 H 274.693 1.25033 -2.99228 0
M  V30 2976 H 274.478 -0.267204 -3.91188 0
M  V30 2977 H 275.968 0.701567 -4.11665 0
M  V30 2978 N 276.405 1.4127 -0.698611 0
M  V30 2979 C 277.337 2.292 0.00399731 0
M  V30 2980 C 278.35 1.44944 0.741279 0
M  V30 2981 O 279.539 1.68416 0.591477 0
M  V30 2982 C 276.639 3.22875 1.02979 0
M  V30 2983 C 275.812 4.35904 0.36151 0
M  V30 2984 C 274.871 5.10134 1.29033 0
M  V30 2985 O 273.897 5.63809 0.781562 0
M  V30 2986 N 275.099 5.17885 2.6225 0
M  V30 2987 H 277.864 2.9014 -0.750921 0
M  V30 2988 H 275.425 1.52455 -0.544882 0
M  V30 2989 H 277.417 3.69404 1.65296 0
M  V30 2990 H 275.987 2.63221 1.68622 0
M  V30 2991 H 275.207 3.91719 -0.441584 0
M  V30 2992 H 276.495 5.08696 -0.103055 0
M  V30 2993 H 275.893 4.7573 3.061 0
M  V30 2994 H 274.45 5.6798 3.19754 0
M  V30 2995 N 277.883 0.443576 1.51229 0
M  V30 2996 C 278.831 -0.37904 2.29491 0
M  V30 2997 C 279.825 -1.0153 1.35603 0
M  V30 2998 O 281.031 -0.94955 1.52917 0
M  V30 2999 H 277.406 -0.141053 0.738653 0
M  V30 3000 H 279.377 0.301799 2.9687 0
M  V30 3001 C 278.126 -1.46426 3.15364 0
M  V30 3002 H 277.449 -0.984037 3.87501 0
M  V30 3003 H 278.889 -2.01297 3.7317 0
M  V30 3004 C 277.348 -2.45099 2.31146 0
M  V30 3005 O 277.878 -3.49773 1.9754 0
M  V30 3006 N 276.084 -2.16139 1.94249 0
M  V30 3007 H 275.631 -1.31044 2.21777 0
M  V30 3008 H 275.589 -2.82398 1.38198 0
M  V30 3009 N 279.361 -1.56624 0.175154 0
M  V30 3010 C 280.591 -2.01082 -0.474283 0
M  V30 3011 C 280.999 -1.05447 -1.57091 0
M  V30 3012 O 280.342 -0.0480595 -1.83637 0
M  V30 3013 C 280.404 -3.41963 -1.10911 0
M  V30 3014 C 280.068 -4.56742 -0.153666 0
M  V30 3015 C 281.065 -5.16076 0.629448 0
M  V30 3016 C 278.75 -5.02277 -0.0483776 0
M  V30 3017 C 280.744 -6.19377 1.50501 0
M  V30 3018 C 278.431 -6.05427 0.830768 0
M  V30 3019 C 279.429 -6.63849 1.60605 0
M  V30 3020 O 279.117 -7.64998 2.47049 0
M  V30 3021 H 278.849 -0.664261 -0.125432 0
M  V30 3022 H 281.403 -2.03549 0.275163 0
M  V30 3023 H 279.633 -3.36422 -1.90676 0
M  V30 3024 H 281.322 -3.70352 -1.66114 0
M  V30 3025 H 282.088 -4.81776 0.558297 0
M  V30 3026 H 277.967 -4.56513 -0.641611 0
M  V30 3027 H 281.511 -6.64906 2.1106 0
M  V30 3028 H 277.408 -6.39151 0.903107 0
M  V30 3029 H 278.176 -7.82336 2.40607 0
M  V30 3030 N 280.839 0.0985539 -1.57292 0
M  V30 3031 C 282.069 0.815135 -1.8984 0
M  V30 3032 C 282.477 1.7297 -0.766679 0
M  V30 3033 O 281.82 1.81698 0.270483 0
M  V30 3034 C 281.882 1.6842 -3.17608 0
M  V30 3035 C 281.546 0.94182 -4.4719 0
M  V30 3036 C 282.543 0.273212 -5.19182 0
M  V30 3037 C 280.228 0.916927 -4.9386 0
M  V30 3038 C 282.222 -0.410361 -6.36078 0
M  V30 3039 C 279.909 0.229567 -6.10669 0
M  V30 3040 C 280.907 -0.432902 -6.81627 0
M  V30 3041 O 280.595 -1.10925 -7.9621 0
M  V30 3042 H 280.327 0.238501 -0.632529 0
M  V30 3043 H 282.881 0.0812659 -2.05239 0
M  V30 3044 H 281.111 2.46022 -2.98345 0
M  V30 3045 H 282.8 2.27704 -3.36015 0
M  V30 3046 H 283.566 0.283927 -4.84168 0
M  V30 3047 H 279.445 1.42201 -4.3852 0
M  V30 3048 H 282.989 -0.928013 -6.914 0
M  V30 3049 H 278.886 0.216686 -6.45136 0
M  V30 3050 H 279.654 -1.01579 -8.12172 0
M  V30 3051 N 282.317 1.53212 0.369288 0
M  V30 3052 C 283.565 1.68881 1.11012 0
M  V30 3053 C 283.886 0.441285 1.89941 0
M  V30 3054 O 283.156 -0.544623 1.88177 0
M  V30 3055 H 281.736 0.622569 0.412816 0
M  V30 3056 H 284.398 1.90391 0.416802 0
M  V30 3057 H 283.494 2.54822 1.80201 0
M  V30 3058 N 283.795 -0.628877 1.44509 0
M  V30 3059 C 284.742 -1.74074 1.51549 0
M  V30 3060 C 285.712 -1.62084 0.363021 0
M  V30 3061 O 286.897 -1.81975 0.573567 0
M  V30 3062 C 284.037 -3.12328 1.46784 0
M  V30 3063 C 283.15 -3.35277 2.72422 0
M  V30 3064 C 282.285 -4.63515 2.59475 0
M  V30 3065 C 281.324 -4.7965 3.80266 0
M  V30 3066 N 280.461 -5.99168 3.65981 0
M  V30 3067 H 285.301 -1.67392 2.46544 0
M  V30 3068 H 282.838 -0.816527 1.22357 0
M  V30 3069 H 284.796 -3.92286 1.42012 0
M  V30 3070 H 283.426 -3.18018 0.553544 0
M  V30 3071 H 282.478 -2.49242 2.87372 0
M  V30 3072 H 283.79 -3.43078 3.62076 0
M  V30 3073 H 282.944 -5.51638 2.52548 0
M  V30 3074 H 281.683 -4.58076 1.67384 0
M  V30 3075 H 280.688 -3.89957 3.87574 0
M  V30 3076 H 281.913 -4.86902 4.73395 0
M  V30 3077 H 279.859 -5.94814 2.76644 0
M  V30 3078 H 279.776 -6.08035 4.49254 0
M  V30 3079 H 281.044 -6.89846 3.6295 0
M  V30 3080 N 285.273 -1.31445 -0.869486 0
M  V30 3081 C 286.55 -1.11795 -1.60503 0
M  V30 3082 C 286.93 0.327168 -2.08549 0
M  V30 3083 O 286.278 1.32135 -1.8642 0
M  V30 3084 C 286.488 -2.13258 -2.76265 0
M  V30 3085 C 287.836 -2.45805 -3.46215 0
M  V30 3086 O 288.86 -2.11688 -2.86473 0
M  V30 3087 O 287.719 -3.04228 -4.5399 0
M  V30 3088 H 284.813 -0.430421 -0.706163 0
M  V30 3089 H 287.359 -1.42925 -0.914907 0
M  V30 3090 H 286.131 -3.10461 -2.3818 0
M  V30 3091 H 285.754 -1.83035 -3.52964 0
M  V30 3092 N 286.751 1.08385 -1.14413 0
M  V30 3093 C 287.681 2.17321 -0.854044 0
M  V30 3094 C 288.662 1.69024 0.191049 0
M  V30 3095 O 289.847 1.94141 0.0476779 0
M  V30 3096 C 286.977 3.45719 -0.330983 0
M  V30 3097 C 285.931 4.07409 -1.31155 0
M  V30 3098 C 285.257 5.30762 -0.64778 0
M  V30 3099 C 286.557 4.48665 -2.67388 0
M  V30 3100 H 288.251 2.41845 -1.76498 0
M  V30 3101 H 285.797 1.16233 -0.850051 0
M  V30 3102 H 287.75 4.21241 -0.115645 0
M  V30 3103 H 286.474 3.2075 0.615381 0
M  V30 3104 H 285.133 3.33919 -1.51306 0
M  V30 3105 H 284.781 5.02078 0.304398 0
M  V30 3106 H 284.481 5.72992 -1.30207 0
M  V30 3107 H 286.005 6.08998 -0.441972 0
M  V30 3108 H 287.419 5.15364 -2.51143 0
M  V30 3109 H 285.816 5.01814 -3.29093 0
M  V30 3110 H 286.886 3.60543 -3.24248 0
M  V30 3111 N 288.23 0.939286 1.26551 0
M  V30 3112 C 289.178 0.43815 2.28436 0
M  V30 3113 C 290.172 -0.483587 1.62351 0
M  V30 3114 O 291.378 -0.362009 1.76322 0
M  V30 3115 H 287.753 0.123149 0.741848 0
M  V30 3116 H 289.724 1.31002 2.68106 0
M  V30 3117 C 288.473 -0.283052 3.46546 0
M  V30 3118 H 287.796 0.417043 3.97619 0
M  V30 3119 H 289.236 -0.597948 4.19763 0
M  V30 3120 C 287.695 -1.50018 3.01656 0
M  V30 3121 O 288.225 -2.59855 3.0633 0
M  V30 3122 N 286.431 -1.35608 2.57019 0
M  V30 3123 H 285.978 -0.46244 2.53415 0
M  V30 3124 H 285.936 -2.17165 2.27347 0
M  V30 3125 N 289.708 -1.40897 0.706093 0
M  V30 3126 C 290.656 -2.32572 0.0361893 0
M  V30 3127 C 291.65 -1.51532 -0.757266 0
M  V30 3128 O 292.856 -1.67396 -0.661703 0
M  V30 3129 H 289.231 -0.751966 -0.00709935 0
M  V30 3130 H 291.202 -2.86733 0.826249 0
M  V30 3131 C 289.951 -3.36418 -0.87854 0
M  V30 3132 H 289.274 -3.98836 -0.277401 0
M  V30 3133 H 290.714 -4.0308 -1.3154 0
M  V30 3134 C 289.173 -2.71141 -1.99961 0
M  V30 3135 O 289.703 -2.56735 -3.0895 0
M  V30 3136 N 287.909 -2.29671 -1.78043 0
M  V30 3137 H 287.456 -2.41588 -0.894042 0
M  V30 3138 H 287.414 -1.86332 -2.53235 0
M  V30 3139 N 291.186 -0.45159 -1.50991 0
M  V30 3140 C 292.116 0.342898 -2.30969 0
M  V30 3141 C 293.097 1.00815 -1.37005 0
M  V30 3142 O 294.282 1.00907 -1.65926 0
M  V30 3143 C 291.412 1.43637 -3.16205 0
M  V30 3144 C 290.366 0.893818 -4.18563 0
M  V30 3145 C 289.692 2.08411 -4.92411 0
M  V30 3146 C 290.992 -0.0815568 -5.22236 0
M  V30 3147 H 292.686 -0.324556 -2.97636 0
M  V30 3148 H 290.232 -0.157531 -1.43136 0
M  V30 3149 H 292.185 1.9995 -3.70942 0
M  V30 3150 H 290.909 2.13232 -2.47386 0
M  V30 3151 H 289.568 0.352798 -3.64898 0
M  V30 3152 H 289.216 2.76658 -4.20082 0
M  V30 3153 H 288.916 1.72741 -5.61636 0
M  V30 3154 H 290.44 2.65251 -5.49976 0
M  V30 3155 H 291.854 0.391742 -5.7196 0
M  V30 3156 H 290.251 -0.351551 -5.99069 0
M  V30 3157 H 291.321 -1.01374 -4.74185 0
M  V30 3158 N 292.664 1.56529 -0.183458 0
M  V30 3159 C 293.889 2.02064 0.467428 0
M  V30 3160 C 294.314 1.06282 1.55196 0
M  V30 3161 O 293.672 0.0443565 1.81246 0
M  V30 3162 C 293.72 3.46122 1.01153 0
M  V30 3163 O 292.824 3.53437 2.12499 0
M  V30 3164 H 292.165 0.654726 0.110588 0
M  V30 3165 H 294.695 2.02521 -0.290917 0
M  V30 3166 H 294.705 3.85676 1.33108 0
M  V30 3167 H 293.38 4.15331 0.217533 0
M  V30 3168 H 291.957 3.2575 1.81497 0
M  V30 3169 N 294.142 -0.090211 1.57342 0
M  V30 3170 C 295.072 -1.10976 2.05443 0
M  V30 3171 C 296.053 -1.41482 0.944284 0
M  V30 3172 O 297.238 -1.51428 1.21586 0
M  V30 3173 C 294.368 -2.42831 2.48295 0
M  V30 3174 C 293.322 -2.26721 3.63018 0
M  V30 3175 C 292.648 -3.63796 3.91863 0
M  V30 3176 C 293.948 -1.7037 4.93732 0
M  V30 3177 H 295.642 -0.709564 2.9087 0
M  V30 3178 H 293.188 -0.339874 1.39932 0
M  V30 3179 H 295.141 -3.14431 2.80555 0
M  V30 3180 H 293.865 -2.84795 1.59873 0
M  V30 3181 H 292.524 -1.57565 3.31012 0
M  V30 3182 H 292.172 -4.03297 3.00601 0
M  V30 3183 H 291.872 -3.53861 4.69101 0
M  V30 3184 H 293.396 -4.36855 4.26603 0
M  V30 3185 H 294.81 -2.31816 5.24342 0
M  V30 3186 H 293.207 -1.71181 5.75167 0
M  V30 3187 H 294.277 -0.663542 4.80339 0
M  V30 3188 N 295.62 -1.53406 -0.361157 0
M  V30 3189 C 297.031 -1.61442 -0.937728 0
M  V30 3190 C 297.382 -0.48461 -1.90121 0
M  V30 3191 O 296.507 0.388312 -2.12888 0
M  V30 3192 C 297.102 -2.92624 -1.70753 0
M  V30 3193 C 295.661 -3.02981 -2.23337 0
M  V30 3194 C 294.808 -2.5677 -1.04712 0
M  V30 3195 H 297.759 -1.58083 -0.139816 0
M  V30 3196 H 297.78 -2.80675 -2.56908 0
M  V30 3197 H 297.292 -3.74834 -1.00604 0
M  V30 3198 H 295.393 -2.25368 -2.96715 0
M  V30 3199 H 295.506 -4.0814 -2.50916 0
M  V30 3200 H 293.87 -2.11752 -1.41539 0
M  V30 3201 H 294.653 -3.41402 -0.360539 0
M  V30 3202 N 297.098 0.621204 -1.44841 0
M  V30 3203 C 298.03 1.74615 -1.48466 0
M  V30 3204 C 299.043 1.58377 -0.37691 0
M  V30 3205 O 300.232 1.66508 -0.643215 0
M  V30 3206 C 297.332 3.12459 -1.31236 0
M  V30 3207 C 296.505 3.55064 -2.55438 0
M  V30 3208 C 295.564 4.71821 -2.32963 0
M  V30 3209 O 294.59 4.79628 -3.06505 0
M  V30 3210 N 295.792 5.64186 -1.36654 0
M  V30 3211 H 298.557 1.71973 -2.45449 0
M  V30 3212 H 296.118 0.806077 -1.40407 0
M  V30 3213 H 298.11 3.88302 -1.14032 0
M  V30 3214 H 296.68 3.09686 -0.4258 0
M  V30 3215 H 295.9 2.69324 -2.87851 0
M  V30 3216 H 297.188 3.80284 -3.38026 0
M  V30 3217 H 296.586 5.6058 -0.759344 0
M  V30 3218 H 295.143 6.39618 -1.25425 0
M  V30 3219 N 298.576 1.31904 0.862503 0
M  V30 3220 C 299.506 1.22782 1.98612 0
M  V30 3221 C 300.487 0.113362 1.69722 0
M  V30 3222 O 301.672 0.299218 1.91881 0
M  V30 3223 C 298.802 0.942058 3.34279 0
M  V30 3224 C 297.756 2.0169 3.77499 0
M  V30 3225 C 297.082 1.58369 5.10709 0
M  V30 3226 C 298.382 3.43096 3.93805 0
M  V30 3227 H 300.076 2.16788 2.06502 0
M  V30 3228 H 297.622 1.04366 0.992154 0
M  V30 3229 H 299.575 0.864818 4.1243 0
M  V30 3230 H 298.299 -0.0336603 3.26583 0
M  V30 3231 H 296.958 2.08416 3.01593 0
M  V30 3232 H 296.606 0.595628 4.99461 0
M  V30 3233 H 296.306 2.30279 5.40597 0
M  V30 3234 H 297.83 1.52067 5.91361 0
M  V30 3235 H 299.244 3.39003 4.62331 0
M  V30 3236 H 297.641 4.13288 4.35101 0
M  V30 3237 H 298.711 3.83334 2.96957 0
M  V30 3238 N 300.054 -1.07777 1.14986 0
M  V30 3239 C 301.017 -2.13041 0.845358 0
M  V30 3240 C 302.017 -1.60071 -0.152931 0
M  V30 3241 O 303.207 -1.74033 0.0761879 0
M  V30 3242 C 300.339 -3.39896 0.261383 0
M  V30 3243 H 301.532 -2.41485 1.77834 0
M  V30 3244 H 299.085 -1.23595 0.956757 0
M  V30 3245 H 299.82 -3.17091 -0.68 0
M  V30 3246 H 299.605 -3.79642 0.980514 0
M  V30 3247 H 301.095 -4.17548 0.0657687 0
M  V30 3248 N 301.532 -0.945985 -1.26051 0
M  V30 3249 C 302.462 -0.477172 -2.28572 0
M  V30 3250 C 303.443 0.472032 -1.63419 0
M  V30 3251 O 304.628 0.372853 -1.90587 0
M  V30 3252 C 301.758 0.253975 -3.4637 0
M  V30 3253 C 300.712 -0.609135 -4.23643 0
M  V30 3254 C 300.038 0.252252 -5.34105 0
M  V30 3255 C 301.338 -1.8829 -4.8718 0
M  V30 3256 H 303.032 -1.33402 -2.68038 0
M  V30 3257 H 300.578 -0.642904 -1.28852 0
M  V30 3258 H 302.531 0.593016 -4.17207 0
M  V30 3259 H 301.255 1.145 -3.05871 0
M  V30 3260 H 299.914 -0.931138 -3.54578 0
M  V30 3261 H 299.562 1.14278 -4.89846 0
M  V30 3262 H 299.262 -0.32188 -5.86718 0
M  V30 3263 H 300.786 0.586454 -6.07777 0
M  V30 3264 H 302.2 -1.61081 -5.50205 0
M  V30 3265 H 300.597 -2.40199 -5.49931 0
M  V30 3266 H 301.667 -2.59134 -4.09851 0
M  V30 3267 N 303.011 1.40521 -0.713556 0
M  V30 3268 C 303.941 2.33381 -0.0743864 0
M  V30 3269 C 304.922 1.52784 0.747735 0
M  V30 3270 O 306.107 1.81258 0.697071 0
M  V30 3271 C 303.237 3.36748 0.849598 0
M  V30 3272 C 302.191 4.27793 0.133247 0
M  V30 3273 C 301.517 5.21679 1.17281 0
M  V30 3274 C 302.817 5.12415 -1.01134 0
M  V30 3275 H 304.511 2.87081 -0.850007 0
M  V30 3276 H 302.057 1.38034 -0.410201 0
M  V30 3277 H 304.01 4.00648 1.30612 0
M  V30 3278 H 302.734 2.81439 1.65709 0
M  V30 3279 H 301.393 3.65342 -0.303426 0
M  V30 3280 H 301.041 4.62677 1.9733 0
M  V30 3281 H 300.741 5.83435 0.698397 0
M  V30 3282 H 302.265 5.88456 1.62947 0
M  V30 3283 H 303.679 5.69781 -0.634274 0
M  V30 3284 H 302.076 5.83203 -1.41399 0
M  V30 3285 H 303.146 4.48514 -1.84292 0
M  V30 3286 N 304.489 0.459591 1.5075 0
M  V30 3287 C 305.452 -0.329093 2.26825 0
M  V30 3288 C 306.452 -0.930481 1.31144 0
M  V30 3289 O 307.642 -0.801453 1.54669 0
M  V30 3290 C 304.774 -1.46768 3.07688 0
M  V30 3291 H 305.967 0.337924 2.9799 0
M  V30 3292 H 303.52 0.213336 1.54837 0
M  V30 3293 H 304.255 -2.17009 2.40993 0
M  V30 3294 H 304.04 -1.04238 3.77991 0
M  V30 3295 H 305.53 -2.02433 3.65254 0
M  V30 3296 N 305.967 -1.56429 0.191757 0
M  V30 3297 C 307.215 -1.97095 -0.447006 0
M  V30 3298 C 307.536 -1.07967 -1.62383 0
M  V30 3299 O 306.806 -0.150248 -1.95323 0
M  V30 3300 H 305.386 -0.727832 -0.168135 0
M  V30 3301 H 308.048 -1.92911 0.27771 0
M  V30 3302 H 307.144 -3.01848 -0.793371 0
M  V30 3303 N 307.445 0.0818655 -1.57387 0
M  V30 3304 C 308.378 1.12986 -1.98266 0
M  V30 3305 C 309.356 1.38123 -0.857954 0
M  V30 3306 O 310.54 1.51663 -1.1194 0
M  V30 3307 C 307.667 2.47632 -2.31076 0
M  V30 3308 C 306.713 2.38693 -3.53452 0
M  V30 3309 S 307.546 1.79071 -5.04672 0
M  V30 3310 C 308.702 3.15316 -5.40673 0
M  V30 3311 H 308.935 0.781435 -2.86846 0
M  V30 3312 H 306.468 0.290034 -1.51651 0
M  V30 3313 H 308.426 3.25089 -2.50654 0
M  V30 3314 H 307.087 2.79638 -1.43043 0
M  V30 3315 H 306.28 3.37964 -3.73893 0
M  V30 3316 H 305.882 1.69369 -3.33452 0
M  V30 3317 H 308.174 4.11613 -5.38127 0
M  V30 3318 H 309.117 2.99664 -6.41566 0
M  V30 3319 H 309.525 3.15457 -4.68132 0
M  V30 3320 N 308.923 1.53595 0.353017 0
M  V30 3321 C 310.334 1.61937 0.929153 0
M  V30 3322 C 310.685 0.494686 1.89861 0
M  V30 3323 O 309.81 -0.377017 2.1309 0
M  V30 3324 C 310.405 2.93526 1.69199 0
M  V30 3325 C 308.964 3.04161 2.21727 0
M  V30 3326 C 308.111 2.57322 1.03348 0
M  V30 3327 H 311.062 1.58155 0.131431 0
M  V30 3328 H 311.083 2.82034 2.55416 0
M  V30 3329 H 310.595 3.75362 0.986144 0
M  V30 3330 H 308.696 2.26938 2.95516 0
M  V30 3331 H 308.809 4.09465 2.48748 0
M  V30 3332 H 307.173 2.12499 1.40414 0
M  V30 3333 H 307.956 3.41588 0.342428 0
M  V30 3334 N 310.401 -0.613514 1.45168 0
M  V30 3335 C 311.333 -1.73825 1.4939 0
M  V30 3336 C 312.346 -1.58175 0.385304 0
M  V30 3337 O 313.535 -1.66165 0.652036 0
M  V30 3338 C 310.635 -3.11758 1.32891 0
M  V30 3339 C 309.808 -3.53704 2.57317 0
M  V30 3340 C 308.867 -4.70579 2.35462 0
M  V30 3341 O 307.893 -4.77996 3.09044 0
M  V30 3342 N 309.095 -5.63454 1.39644 0
M  V30 3343 H 311.86 -1.70669 2.46358 0
M  V30 3344 H 309.421 -0.79862 1.40832 0
M  V30 3345 H 311.413 -3.87692 1.1609 0
M  V30 3346 H 309.983 -3.09456 0.442218 0
M  V30 3347 H 309.203 -2.67794 2.89275 0
M  V30 3348 H 310.491 -3.78486 3.40038 0
M  V30 3349 H 309.889 -5.6017 0.789062 0
M  V30 3350 H 308.446 -6.38944 1.28816 0
M  V30 3351 N 311.879 -1.3236 -0.855495 0
M  V30 3352 C 312.842 -1.21164 -1.94556 0
M  V30 3353 C 313.842 -0.134908 -1.60233 0
M  V30 3354 O 315.032 -0.385249 -1.69887 0
M  V30 3355 C 312.164 -0.863192 -3.29791 0
M  V30 3356 H 313.357 -2.18038 -2.05911 0
M  V30 3357 H 310.91 -1.16179 -1.04557 0
M  V30 3358 H 311.645 0.103769 -3.24134 0
M  V30 3359 H 311.43 -1.64166 -3.56078 0
M  V30 3360 H 312.92 -0.809156 -4.09686 0
M  V30 3361 N 313.357 1.07166 -1.15556 0
M  V30 3362 C 314.768 1.6127 -0.940693 0
M  V30 3363 C 315.119 1.89251 0.517551 0
M  V30 3364 O 314.244 1.65937 1.38903 0
M  V30 3365 C 314.839 2.92993 -1.7012 0
M  V30 3366 C 313.398 3.43832 -1.53156 0
M  V30 3367 C 312.545 2.1786 -1.71558 0
M  V30 3368 H 315.496 0.90229 -1.30554 0
M  V30 3369 H 315.517 3.62007 -1.17181 0
M  V30 3370 H 315.029 2.72596 -2.76248 0
M  V30 3371 H 313.13 3.69307 -0.494294 0
M  V30 3372 H 313.243 4.19747 -2.30975 0
M  V30 3373 H 311.607 2.2765 -1.14225 0
M  V30 3374 H 312.39 1.99956 -2.79056 0
M  V30 3375 N 314.835 0.952656 1.25548 0
M  V30 3376 C 315.783 0.462354 2.27958 0
M  V30 3377 C 316.777 -0.46634 1.62855 0
M  V30 3378 O 317.983 -0.343287 1.76696 0
M  V30 3379 H 314.358 0.13101 0.7405 0
M  V30 3380 H 316.329 1.33839 2.66702 0
M  V30 3381 C 315.078 -0.24628 3.46827 0
M  V30 3382 H 314.401 0.459192 3.97154 0
M  V30 3383 H 315.841 -0.553393 4.20373 0
M  V30 3384 C 314.3 -1.4681 3.0323 0
M  V30 3385 O 314.83 -2.56591 3.09069 0
M  V30 3386 N 313.036 -1.32874 2.58443 0
M  V30 3387 H 312.583 -0.435536 2.53891 0
M  V30 3388 H 312.541 -2.14742 2.29637 0
M  V30 3389 N 316.313 -1.40141 0.720998 0
M  V30 3390 C 317.245 -2.29177 0.0324669 0
M  V30 3391 C 318.258 -1.46105 -0.718126 0
M  V30 3392 O 319.447 -1.69335 -0.564608 0
M  V30 3393 C 316.547 -3.24473 -0.978292 0
M  V30 3394 C 315.72 -4.36423 -0.292115 0
M  V30 3395 C 314.779 -5.12122 -1.20901 0
M  V30 3396 O 313.805 -5.64981 -0.691766 0
M  V30 3397 N 315.007 -5.21992 -2.53978 0
M  V30 3398 H 317.772 -2.88909 0.796984 0
M  V30 3399 H 315.333 -1.51569 0.569068 0
M  V30 3400 H 317.325 -3.71987 -1.59398 0
M  V30 3401 H 315.895 -2.65871 -1.64413 0
M  V30 3402 H 315.115 -3.90967 0.503847 0
M  V30 3403 H 316.403 -5.08467 0.183971 0
M  V30 3404 H 315.801 -4.8054 -2.98493 0
M  V30 3405 H 314.358 -5.72995 -3.10677 0
M  V30 3406 N 317.792 -0.46758 -1.50504 0
M  V30 3407 C 319.022 0.086288 -2.0642 0
M  V30 3408 C 319.43 1.34369 -1.33197 0
M  V30 3409 O 318.773 1.79431 -0.393747 0
M  V30 3410 C 318.835 0.443846 -3.5675 0
M  V30 3411 C 318.499 -0.711035 -4.51435 0
M  V30 3412 C 319.496 -1.59205 -4.94924 0
M  V30 3413 C 317.181 -0.900363 -4.94165 0
M  V30 3414 C 319.175 -2.64683 -5.79846 0
M  V30 3415 C 316.862 -1.95837 -5.7887 0
M  V30 3416 C 317.86 -2.82997 -6.21612 0
M  V30 3417 O 317.548 -3.86977 -7.0463 0
M  V30 3418 H 317.28 -0.00217814 -0.675996 0
M  V30 3419 H 319.834 -0.654346 -1.94698 0
M  V30 3420 H 318.064 1.23762 -3.6636 0
M  V30 3421 H 319.753 0.932386 -3.95046 0
M  V30 3422 H 320.519 -1.45745 -4.62583 0
M  V30 3423 H 316.398 -0.231427 -4.60419 0
M  V30 3424 H 319.942 -3.32745 -6.13128 0
M  V30 3425 H 315.839 -2.09305 -6.10624 0
M  V30 3426 H 316.607 -3.83923 -7.22873 0
M  V30 3427 N 319.27 1.56325 -0.20005 0
M  V30 3428 C 320.547 1.89484 0.48529 0
M  V30 3429 C 320.927 1.1143 1.79294 0
M  V30 3430 O 320.275 0.216919 2.27468 0
M  V30 3431 C 320.485 3.41923 0.699243 0
M  V30 3432 C 321.833 4.12256 1.01638 0
M  V30 3433 O 322.857 3.47402 0.786792 0
M  V30 3434 O 321.716 5.26887 1.45095 0
M  V30 3435 H 318.81 0.787144 0.253639 0
M  V30 3436 H 321.356 1.67985 -0.240633 0
M  V30 3437 H 320.128 3.90658 -0.224008 0
M  V30 3438 H 319.751 3.69131 1.47744 0
M  V30 3439 N 320.748 -0.0735177 1.57428 0
M  V30 3440 C 322.159 -0.625551 1.75908 0
M  V30 3441 C 322.51 -1.78 0.825261 0
M  V30 3442 O 321.635 -2.16398 0.00893964 0
M  V30 3443 C 322.23 -1.14155 3.18989 0
M  V30 3444 C 320.789 -1.63946 3.38819 0
M  V30 3445 C 319.936 -0.558151 2.71625 0
M  V30 3446 H 322.887 0.152647 1.57964 0
M  V30 3447 H 322.908 -2.0104 3.23053 0
M  V30 3448 H 322.42 -0.301116 3.8693 0
M  V30 3449 H 320.521 -2.50321 2.7599 0
M  V30 3450 H 320.634 -1.71759 4.47253 0
M  V30 3451 H 318.998 -1.00278 2.34129 0
M  V30 3452 H 319.781 0.272071 3.4222 0
M  V30 3453 N 322.226 -1.5378 -0.344866 0
M  V30 3454 C 323.456 -1.74646 -1.10374 0
M  V30 3455 C 323.864 -0.48491 -1.8288 0
M  V30 3456 O 323.207 0.553062 -1.75177 0
M  V30 3457 C 323.269 -2.87145 -2.16306 0
M  V30 3458 C 322.933 -4.26795 -1.63386 0
M  V30 3459 C 323.93 -5.08412 -1.08688 0
M  V30 3460 C 321.615 -4.73276 -1.68272 0
M  V30 3461 C 323.609 -6.34609 -0.595792 0
M  V30 3462 C 321.296 -5.99446 -1.18776 0
M  V30 3463 C 322.294 -6.79946 -0.645215 0
M  V30 3464 O 321.982 -8.03745 -0.157626 0
M  V30 3465 H 321.714 -0.587112 -0.335075 0
M  V30 3466 H 324.268 -2.01403 -0.403252 0
M  V30 3467 H 322.498 -2.55909 -2.89909 0
M  V30 3468 H 324.187 -2.95992 -2.77747 0
M  V30 3469 H 324.953 -4.73666 -1.04236 0
M  V30 3470 H 320.832 -4.10677 -2.09442 0
M  V30 3471 H 324.376 -6.97389 -0.171654 0
M  V30 3472 H 320.273 -6.33687 -1.22928 0
M  V30 3473 H 321.041 -8.18038 -0.275037 0
M  V30 3474 N 323.704 0.605807 -1.45491 0
M  V30 3475 C 324.929 1.39625 -1.53361 0
M  V30 3476 C 325.354 1.87351 -0.167645 0
M  V30 3477 O 324.712 1.60243 0.848051 0
M  V30 3478 C 324.76 2.57559 -2.5238 0
M  V30 3479 O 323.864 3.58248 -2.04285 0
M  V30 3480 H 323.205 0.416771 -0.516912 0
M  V30 3481 H 325.735 0.737103 -1.90861 0
M  V30 3482 H 325.745 3.0478 -2.71244 0
M  V30 3483 H 324.42 2.22171 -3.51586 0
M  V30 3484 H 322.997 3.17664 -1.95305 0
M  V30 3485 N 325.182 1.32811 0.848464 0
M  V30 3486 C 326.132 1.18842 1.94578 0
M  V30 3487 C 327.116 0.0937517 1.60627 0
M  V30 3488 O 328.308 0.320887 1.74067 0
M  V30 3489 C 325.437 0.91999 3.30743 0
M  V30 3490 C 324.523 2.05665 3.70894 0
M  V30 3491 N 324.914 3.30579 3.8282 0
M  V30 3492 C 323.212 1.9612 4.00566 0
M  V30 3493 C 323.913 4.05067 4.17487 0
M  V30 3494 N 322.889 3.33419 4.2934 0
M  V30 3495 H 326.691 2.13536 2.0194 0
M  V30 3496 H 324.205 1.2468 1.0406 0
M  V30 3497 H 326.202 0.800859 4.09136 0
M  V30 3498 H 324.862 -0.0185076 3.24695 0
M  V30 3499 H 325.873 3.65441 3.66978 0
M  V30 3500 H 322.55 1.09871 4.02784 0
M  V30 3501 H 323.94 5.12815 4.34131 0
M  V30 3502 N 326.66 -1.06551 1.16123 0
M  V30 3503 C 328.071 -1.60768 0.949232 0
M  V30 3504 C 328.422 -1.89523 -0.507508 0
M  V30 3505 O 327.547 -1.66671 -1.38021 0
M  V30 3506 C 328.142 -2.92086 1.71671 0
M  V30 3507 C 326.701 -3.43015 1.54977 0
M  V30 3508 C 325.848 -2.16947 1.72711 0
M  V30 3509 H 328.799 -0.895354 1.31031 0
M  V30 3510 H 328.82 -3.6138 1.19099 0
M  V30 3511 H 328.332 -2.71127 2.7769 0
M  V30 3512 H 326.433 -3.69039 0.513873 0
M  V30 3513 H 326.546 -4.18516 2.33198 0
M  V30 3514 H 324.91 -2.27041 1.15431 0
M  V30 3515 H 325.693 -1.98473 2.80113 0
M  V30 3516 N 328.138 -0.959301 -1.25041 0
M  V30 3517 C 329.048 -0.489994 -2.29426 0
M  V30 3518 C 330.064 0.444944 -1.68215 0
M  V30 3519 O 331.24 0.320046 -1.98841 0
M  V30 3520 C 328.305 0.220309 -3.45999 0
M  V30 3521 C 327.366 -0.753418 -4.22637 0
M  V30 3522 C 326.599 -0.076918 -5.33645 0
M  V30 3523 O 326.822 1.13649 -5.58963 0
M  V30 3524 O 325.756 -0.764824 -5.97021 0
M  V30 3525 H 329.582 -1.35755 -2.71669 0
M  V30 3526 H 327.167 -0.725961 -1.30576 0
M  V30 3527 H 329.049 0.619677 -4.16819 0
M  V30 3528 H 327.724 1.06296 -3.0575 0
M  V30 3529 H 326.631 -1.20308 -3.54227 0
M  V30 3530 H 327.964 -1.56423 -4.66683 0
M  V30 3531 N 329.616 1.39756 -0.72842 0
M  V30 3532 C 330.579 2.29012 -0.0927297 0
M  V30 3533 C 331.579 1.45992 0.674025 0
M  V30 3534 O 332.769 1.66749 0.50402 0
M  V30 3535 C 329.901 3.29396 0.878137 0
M  V30 3536 H 331.094 2.86729 -0.879011 0
M  V30 3537 H 328.647 1.48293 -0.493847 0
M  V30 3538 H 329.382 2.76722 1.69101 0
M  V30 3539 H 329.167 3.907 0.331051 0
M  V30 3540 H 330.657 3.96199 1.3197 0
M  V30 3541 N 331.094 0.475555 1.50254 0
M  V30 3542 C 332.057 -0.305016 2.27161 0
M  V30 3543 C 333.057 -0.916519 1.32123 0
M  V30 3544 O 334.247 -0.785003 1.5551 0
M  V30 3545 C 331.379 -1.43496 3.09227 0
M  V30 3546 H 332.572 0.369511 2.97615 0
M  V30 3547 H 330.125 0.229747 1.54602 0
M  V30 3548 H 330.86 -2.14441 2.43281 0
M  V30 3549 H 330.645 -1.00223 3.79075 0
M  V30 3550 H 332.135 -1.98548 3.67381 0
M  V30 3551 N 332.573 -1.56217 0.208337 0
M  V30 3552 C 333.505 -2.1695 -0.739276 0
M  V30 3553 C 334.518 -1.13492 -1.1672 0
M  V30 3554 O 335.707 -1.40529 -1.10063 0
M  V30 3555 C 332.807 -2.72755 -2.01142 0
M  V30 3556 C 331.98 -4.0125 -1.74118 0
M  V30 3557 C 331.039 -4.41749 -2.85909 0
M  V30 3558 O 330.065 -5.08912 -2.54946 0
M  V30 3559 N 331.267 -4.06342 -4.14568 0
M  V30 3560 H 334.032 -2.98893 -0.219837 0
M  V30 3561 H 331.593 -1.61878 0.0268445 0
M  V30 3562 H 333.585 -2.96826 -2.75094 0
M  V30 3563 H 332.155 -1.95191 -2.4417 0
M  V30 3564 H 331.375 -3.85173 -0.838775 0
M  V30 3565 H 332.663 -4.851 -1.53477 0
M  V30 3566 H 332.061 -3.52345 -4.42571 0
M  V30 3567 H 330.618 -4.35335 -4.85105 0
M  V30 3568 N 334.051 0.0651679 -1.57465 0
M  V30 3569 C 335.328 0.79644 -1.78651 0
M  V30 3570 C 335.708 1.95454 -0.797566 0
M  V30 3571 O 335.056 2.27882 0.167946 0
M  V30 3572 C 335.266 1.26322 -3.25337 0
M  V30 3573 C 336.614 1.6939 -3.89348 0
M  V30 3574 O 337.638 1.35872 -3.29268 0
M  V30 3575 O 336.497 2.31471 -4.95059 0
M  V30 3576 H 333.591 0.382157 -0.733407 0
M  V30 3577 H 336.137 0.0447311 -1.69641 0
M  V30 3578 H 334.909 0.434859 -3.88876 0
M  V30 3579 H 334.532 2.07604 -3.39096 0
M  V30 3580 N 335.529 1.53961 0.336706 0
M  V30 3581 C 336.945 1.44378 0.680241 0
M  V30 3582 C 337.145 0.606034 1.9217 0
M  V30 3583 O 336.201 0.099688 2.52303 0
M  V30 3584 C 337.514 2.87945 0.8665 0
M  V30 3585 C 339.062 2.97763 0.964682 0
M  V30 3586 C 339.537 4.42453 1.18321 0
M  V30 3587 N 341.028 4.46008 1.25025 0
M  V30 3588 C 341.763 5.55102 1.43697 0
M  V30 3589 N 341.259 6.7419 1.59498 0
M  V30 3590 N 343.052 5.42727 1.463 0
M  V30 3591 H 335.203 2.06918 -0.479455 0
M  V30 3592 H 337.466 0.935634 -0.152619 0
M  V30 3593 H 337.172 3.51691 0.0256937 0
M  V30 3594 H 337.046 3.33293 1.76623 0
M  V30 3595 H 339.433 2.34153 1.796 0
M  V30 3596 H 339.514 2.55766 0.041708 0
M  V30 3597 H 339.158 5.06645 0.356788 0
M  V30 3598 H 339.088 4.82048 2.11985 0
M  V30 3599 H 341.579 3.60196 1.14312 0
M  V30 3600 H 341.892 7.53095 1.734 0
M  V30 3601 H 340.237 6.77123 1.56621 0
M  V30 3602 H 343.428 4.48647 1.33543 0
M  V30 3603 H 343.601 6.27806 1.6051 0
M  V30 3604 N 337.007 -0.598083 1.45811 0
M  V30 3605 C 338.423 -0.919847 1.30426 0
M  V30 3606 C 338.623 -1.99759 0.264303 0
M  V30 3607 O 337.679 -2.50221 -0.338472 0
M  V30 3608 C 338.992 -1.35176 2.68603 0
M  V30 3609 C 340.54 -1.46546 2.76574 0
M  V30 3610 C 341.015 -1.9311 4.15298 0
M  V30 3611 N 342.506 -2.00328 4.1764 0
M  V30 3612 C 343.241 -2.37599 5.21856 0
M  V30 3613 N 342.737 -2.73771 6.36413 0
M  V30 3614 N 344.53 -2.38021 5.09218 0
M  V30 3615 H 336.681 0.114111 2.12093 0
M  V30 3616 H 338.944 -0.0116121 0.947929 0
M  V30 3617 H 338.65 -0.633969 3.45939 0
M  V30 3618 H 338.524 -2.3164 2.97696 0
M  V30 3619 H 340.911 -2.17415 1.99537 0
M  V30 3620 H 340.992 -0.483727 2.51185 0
M  V30 3621 H 340.636 -1.22824 4.92825 0
M  V30 3622 H 340.566 -2.92213 4.38086 0
M  V30 3623 H 343.057 -1.74925 3.34977 0
M  V30 3624 H 343.37 -3.0112 7.11721 0
M  V30 3625 H 341.715 -2.71445 6.39799 0
M  V30 3626 H 344.906 -2.09174 4.18765 0
M  V30 3627 H 345.079 -2.66741 5.90554 0
M  V30 3628 N 338.485 -1.33259 -0.841409 0
M  V30 3629 C 339.433 -1.23279 -1.97244 0
M  V30 3630 C 340.427 -0.134706 -1.68864 0
M  V30 3631 O 341.633 -0.298501 -1.77508 0
M  V30 3632 H 338.008 -0.382497 -0.647457 0
M  V30 3633 H 339.979 -2.18906 -2.02787 0
M  V30 3634 C 338.728 -0.986268 -3.33419 0
M  V30 3635 H 338.051 -1.82347 -3.55794 0
M  V30 3636 H 339.491 -0.956728 -4.13065 0
M  V30 3637 C 337.95 0.310842 -3.35463 0
M  V30 3638 O 338.48 1.31838 -3.79449 0
M  V30 3639 N 336.686 0.337485 -2.88634 0
M  V30 3640 H 336.233 -0.482967 -2.53032 0
M  V30 3641 H 336.191 1.20518 -2.90384 0
M  V30 3642 N 339.963 1.05934 -1.16686 0
M  V30 3643 C 340.893 2.1546 -0.899949 0
M  V30 3644 C 341.874 1.69391 0.155154 0
M  V30 3645 O 343.059 1.94199 0.00648693 0
M  V30 3646 C 340.189 3.44939 -0.404241 0
M  V30 3647 C 339.143 4.04536 -1.39767 0
M  V30 3648 C 338.469 5.29268 -0.760216 0
M  V30 3649 C 339.769 4.42893 -2.76845 0
M  V30 3650 H 341.463 2.38046 -1.81588 0
M  V30 3651 H 339.009 1.14404 -0.874514 0
M  V30 3652 H 340.962 4.20901 -0.204971 0
M  V30 3653 H 339.686 3.21983 0.547206 0
M  V30 3654 H 338.345 3.30635 -1.58355 0
M  V30 3655 H 337.993 5.02611 0.197831 0
M  V30 3656 H 337.693 5.70101 -1.42332 0
M  V30 3657 H 339.217 6.07924 -0.57105 0
M  V30 3658 H 340.631 5.09921 -2.62019 0
M  V30 3659 H 339.028 4.94721 -3.39663 0
M  V30 3660 H 340.098 3.53584 -3.31823 0
M  V30 3661 N 341.441 0.965919 1.2453 0
M  V30 3662 C 342.687 0.62776 1.92839 0
M  V30 3663 C 343.02 -0.834694 1.75347 0
M  V30 3664 O 342.295 -1.60031 1.10546 0
M  V30 3665 C 342.578 1.00109 3.45905 0
M  V30 3666 C 342.431 2.52011 3.72573 0
M  V30 3667 C 343.75 0.53435 4.36844 0
M  V30 3668 H 340.869 0.229537 0.700344 0
M  V30 3669 H 343.511 1.2046 1.46933 0
M  V30 3670 H 341.661 0.510238 3.85135 0
M  V30 3671 H 343.333 3.08559 3.42912 0
M  V30 3672 H 341.576 2.95287 3.17786 0
M  V30 3673 H 342.247 2.73183 4.79661 0
M  V30 3674 H 344.723 0.955565 4.04979 0
M  V30 3675 H 343.599 0.824152 5.42678 0
M  V30 3676 H 343.86 -0.565589 4.38467 0
M  V30 3677 N 342.919 -1.39368 0.735821 0
M  V30 3678 C 343.849 -2.33234 0.111506 0
M  V30 3679 C 344.83 -1.53954 -0.723334 0
M  V30 3680 O 346.015 -1.82344 -0.668147 0
M  V30 3681 C 343.145 -3.38057 -0.795917 0
M  V30 3682 C 342.099 -4.2795 -0.065172 0
M  V30 3683 C 341.425 -5.23479 -1.08967 0
M  V30 3684 C 342.725 -5.10741 1.09273 0
M  V30 3685 H 344.419 -2.85692 0.895571 0
M  V30 3686 H 341.965 -1.37364 0.432109 0
M  V30 3687 H 343.918 -4.02675 -1.24221 0
M  V30 3688 H 342.642 -2.8404 -1.61211 0
M  V30 3689 H 341.301 -3.64813 0.361511 0
M  V30 3690 H 340.949 -4.65758 -1.89944 0
M  V30 3691 H 340.649 -5.84472 -0.605489 0
M  V30 3692 H 342.173 -5.90974 -1.53565 0
M  V30 3693 H 343.587 -5.68699 0.724841 0
M  V30 3694 H 341.984 -5.8088 1.50659 0
M  V30 3695 H 343.054 -4.45525 1.91404 0
M  V30 3696 N 344.397 -0.483516 -1.5 0
M  V30 3697 C 345.622 0.0667119 -2.07293 0
M  V30 3698 C 346.047 1.3164 -1.3436 0
M  V30 3699 O 345.405 1.76945 -0.394987 0
M  V30 3700 C 345.453 0.321126 -3.59167 0
M  V30 3701 O 344.557 1.39927 -3.87936 0
M  V30 3702 H 343.898 -0.0184758 -0.663743 0
M  V30 3703 H 346.428 -0.678125 -1.93035 0
M  V30 3704 H 346.438 0.557906 -4.04168 0
M  V30 3705 H 345.113 -0.592007 -4.11665 0
M  V30 3706 H 343.69 1.14882 -3.54763 0
M  V30 3707 N 345.875 1.56104 -0.216619 0
M  V30 3708 C 346.785 2.23694 0.706982 0
M  V30 3709 C 347.801 1.24295 1.21765 0
M  V30 3710 O 348.977 1.57094 1.2603 0
M  V30 3711 C 346.042 2.8998 1.90033 0
M  V30 3712 C 345.103 4.04708 1.43213 0
M  V30 3713 C 344.336 4.67824 2.56859 0
M  V30 3714 O 344.559 4.29913 3.74874 0
M  V30 3715 O 343.493 5.56905 2.28343 0
M  V30 3716 H 347.319 3.03272 0.161235 0
M  V30 3717 H 344.904 1.49394 0.0136177 0
M  V30 3718 H 346.786 3.31837 2.59735 0
M  V30 3719 H 345.461 2.13365 2.43428 0
M  V30 3720 H 344.368 3.6743 0.70327 0
M  V30 3721 H 345.701 4.83051 0.944615 0
M  V30 3722 N 347.353 -0.0568162 1.57498 0
M  V30 3723 C 348.286 -1.09817 2.00039 0
M  V30 3724 C 349.264 -1.3674 0.879819 0
M  V30 3725 O 350.448 -1.49863 1.14338 0
M  V30 3726 C 347.575 -2.43924 2.34986 0
M  V30 3727 C 346.621 -2.33039 3.57204 0
M  V30 3728 S 347.454 -1.7102 5.07457 0
M  V30 3729 C 348.61 -3.06674 5.45621 0
M  V30 3730 H 348.843 -0.735701 2.88053 0
M  V30 3731 H 346.376 -0.265871 1.52094 0
M  V30 3732 H 348.334 -3.2106 2.55795 0
M  V30 3733 H 346.995 -2.77327 1.47474 0
M  V30 3734 H 346.188 -3.31973 3.79223 0
M  V30 3735 H 345.79 -1.64043 3.36104 0
M  V30 3736 H 348.082 -4.03 5.44608 0
M  V30 3737 H 349.025 -2.8942 6.46252 0
M  V30 3738 H 349.433 -3.07969 4.73091 0
M  V30 3739 N 348.832 -1.54138 -0.328536 0
M  V30 3740 C 349.779 -1.83176 -1.40411 0
M  V30 3741 C 350.749 -0.678494 -1.5161 0
M  V30 3742 O 351.934 -0.92443 -1.6691 0
M  V30 3743 C 349.074 -2.06035 -2.76846 0
M  V30 3744 C 348.187 -3.33727 -2.74318 0
M  V30 3745 C 347.322 -3.46574 -4.02567 0
M  V30 3746 C 346.361 -4.68159 -3.94327 0
M  V30 3747 N 345.498 -4.77959 -5.14296 0
M  V30 3748 H 350.338 -2.74938 -1.14948 0
M  V30 3749 H 347.875 -1.36166 -0.556538 0
M  V30 3750 H 349.833 -2.1728 -3.56153 0
M  V30 3751 H 348.463 -1.1757 -3.00628 0
M  V30 3752 H 347.515 -3.31246 -1.8703 0
M  V30 3753 H 348.827 -4.23139 -2.64111 0
M  V30 3754 H 347.981 -3.57333 -4.90304 0
M  V30 3755 H 346.72 -2.55245 -4.15574 0
M  V30 3756 H 345.725 -4.57461 -3.04974 0
M  V30 3757 H 346.95 -5.60868 -3.82889 0
M  V30 3758 H 344.896 -3.89544 -5.27818 0
M  V30 3759 H 344.813 -5.6133 -5.06404 0
M  V30 3760 H 346.081 -4.93044 -6.03761 0
M  V30 3761 N 350.31 0.590341 -1.46126 0
M  V30 3762 C 351.258 1.72105 -1.5647 0
M  V30 3763 C 352.252 1.63756 -0.433612 0
M  V30 3764 O 353.458 1.69342 -0.610194 0
M  V30 3765 H 349.833 0.568889 -0.491802 0
M  V30 3766 H 351.804 1.6051 -2.51553 0
M  V30 3767 C 350.553 3.10493 -1.56491 0
M  V30 3768 H 349.876 3.17583 -2.4286 0
M  V30 3769 H 351.316 3.8939 -1.67785 0
M  V30 3770 C 349.775 3.3563 -0.292231 0
M  V30 3771 O 350.305 3.96875 0.620739 0
M  V30 3772 N 348.511 2.90026 -0.182523 0
M  V30 3773 H 348.058 2.40367 -0.926356 0
M  V30 3774 H 348.016 3.07218 0.668152 0
M  V30 3775 N 351.788 1.33704 0.83433 0
M  V30 3776 C 352.72 1.20172 1.9517 0
M  V30 3777 C 353.733 0.131572 1.62267 0
M  V30 3778 O 354.922 0.382406 1.74356 0
M  V30 3779 C 352.022 0.821716 3.28787 0
M  V30 3780 C 351.195 1.98446 3.89792 0
M  V30 3781 C 350.254 1.58469 5.01771 0
M  V30 3782 O 349.28 2.29968 5.20676 0
M  V30 3783 N 350.482 0.492291 5.78409 0
M  V30 3784 H 353.247 2.16429 2.07313 0
M  V30 3785 H 350.808 1.26509 1.0103 0
M  V30 3786 H 352.8 0.536291 4.01131 0
M  V30 3787 H 351.37 -0.0503058 3.1256 0
M  V30 3788 H 350.59 2.43526 3.09982 0
M  V30 3789 H 351.878 2.76236 4.27283 0
M  V30 3790 H 351.276 -0.102349 5.65607 0
M  V30 3791 H 349.833 0.266555 6.51255 0
M  V30 3792 N 353.266 -1.05314 1.17247 0
M  V30 3793 C 354.514 -1.77941 0.958194 0
M  V30 3794 C 354.835 -1.88089 -0.514556 0
M  V30 3795 O 354.105 -1.39676 -1.37359 0
M  V30 3796 H 352.685 -0.659116 0.351533 0
M  V30 3797 H 355.347 -1.27166 1.47699 0
M  V30 3798 H 354.443 -2.79663 1.38546 0
M  V30 3799 N 354.744 -0.972509 -1.24016 0
M  V30 3800 C 355.974 -0.653853 -1.9598 0
M  V30 3801 C 356.382 0.781801 -1.72292 0
M  V30 3802 O 355.725 1.53677 -1.00644 0
M  V30 3803 C 355.787 -0.854608 -3.49194 0
M  V30 3804 C 355.451 -2.27082 -3.96589 0
M  V30 3805 C 356.448 -3.24892 -4.05883 0
M  V30 3806 C 354.133 -2.5998 -4.29786 0
M  V30 3807 C 356.127 -4.53684 -4.47716 0
M  V30 3808 C 353.814 -3.88997 -4.71301 0
M  V30 3809 C 354.812 -4.85661 -4.80232 0
M  V30 3810 O 354.5 -6.12376 -5.20818 0
M  V30 3811 H 354.232 -0.242572 -0.630979 0
M  V30 3812 H 356.786 -1.30431 -1.58673 0
M  V30 3813 H 355.016 -0.146985 -3.86421 0
M  V30 3814 H 356.705 -0.534311 -4.02368 0
M  V30 3815 H 357.471 -3.00805 -3.80449 0
M  V30 3816 H 353.35 -1.85457 -4.22051 0
M  V30 3817 H 356.894 -5.29135 -4.54601 0
M  V30 3818 H 352.791 -4.12882 -4.96184 0
M  V30 3819 H 353.559 -6.16013 -5.38953 0
M  V30 3820 N 356.222 1.38976 -0.743202 0
M  V30 3821 C 357.471 1.99581 -0.291592 0
M  V30 3822 C 357.784 1.59656 1.13001 0
M  V30 3823 O 358.99 2.13157 1.68156 0
M  V30 3824 C 357.446 3.56813 -0.470391 0
M  V30 3825 C 357.054 4.05695 -1.90041 0
M  V30 3826 C 358.798 4.24423 -0.0809709 0
M  V30 3827 C 356.705 5.5553 -2.02832 0
M  V30 3828 H 355.635 0.746615 -0.105272 0
M  V30 3829 H 358.286 1.58872 -0.918258 0
M  V30 3830 H 356.668 3.95359 0.225299 0
M  V30 3831 H 357.842 3.78464 -2.62872 0
M  V30 3832 H 356.157 3.50775 -2.24379 0
M  V30 3833 H 358.754 5.34474 -0.155445 0
M  V30 3834 H 359.097 4.04962 0.96497 0
M  V30 3835 H 359.63 3.9108 -0.728124 0
M  V30 3836 H 356.369 5.79881 -3.05643 0
M  V30 3837 H 355.889 5.84537 -1.34448 0
M  V30 3838 H 357.568 6.21069 -1.81335 0
M  V30 3839 N 357.7 0.491464 1.49741 0
M  V30 3840 C 358.925 -0.0557177 2.07325 0
M  V30 3841 C 359.35 -1.30925 1.35056 0
M  V30 3842 O 358.708 -1.76733 0.404365 0
M  V30 3843 C 358.756 -0.302074 3.59333 0
M  V30 3844 O 357.86 -1.37868 3.88672 0
M  V30 3845 H 357.201 0.0219956 0.663636 0
M  V30 3846 H 359.731 0.688352 1.92673 0
M  V30 3847 H 359.741 -0.536464 4.04458 0
M  V30 3848 H 358.416 0.61383 4.11345 0
M  V30 3849 H 356.993 -1.12999 3.55367 0
M  V30 3850 N 359.178 -1.55987 0.224894 0
M  V30 3851 C 360.141 -2.19178 -0.670348 0
M  V30 3852 C 361.141 -1.15461 -1.11917 0
M  V30 3853 O 362.331 -1.40675 -1.02743 0
M  V30 3854 C 359.463 -2.81777 -1.9187 0
M  V30 3855 H 360.656 -2.99662 -0.119364 0
M  V30 3856 H 358.209 -1.5628 -0.0247128 0
M  V30 3857 H 358.944 -2.05172 -2.51147 0
M  V30 3858 H 358.729 -3.57732 -1.60531 0
M  V30 3859 H 360.219 -3.30205 -2.55645 0
M  V30 3860 N 360.656 0.0484629 -1.57525 0
M  V30 3861 C 361.566 1.07241 -2.08654 0
M  V30 3862 C 362.582 1.409 -1.02095 0
M  V30 3863 O 363.758 1.50609 -1.33712 0
M  V30 3864 C 360.823 2.36008 -2.5397 0
M  V30 3865 C 359.884 2.09108 -3.7493 0
M  V30 3866 C 359.117 3.31736 -4.18075 0
M  V30 3867 O 359.34 4.41714 -3.60895 0
M  V30 3868 O 358.274 3.18576 -5.10679 0
M  V30 3869 H 362.1 0.667965 -2.96263 0
M  V30 3870 H 359.685 0.26417 -1.47046 0
M  V30 3871 H 361.567 3.11747 -2.83535 0
M  V30 3872 H 360.242 2.75786 -1.69481 0
M  V30 3873 H 359.149 1.31 -3.50414 0
M  V30 3874 H 360.482 1.74198 -4.60343 0
M  V30 3875 N 362.134 1.5431 0.320358 0
M  V30 3876 C 363.066 1.80262 1.41556 0
M  V30 3877 C 364.079 0.684723 1.477 0
M  V30 3878 O 365.268 0.961886 1.50366 0
M  V30 3879 C 362.368 1.90825 2.8007 0
M  V30 3880 C 361.541 3.21023 2.97091 0
M  V30 3881 C 360.6 3.22247 4.15985 0
M  V30 3882 O 359.626 3.95871 4.08992 0
M  V30 3883 N 360.828 2.46258 5.25678 0
M  V30 3884 H 363.593 2.74778 1.19655 0
M  V30 3885 H 361.154 1.53646 0.510358 0
M  V30 3886 H 363.146 1.89067 3.57821 0
M  V30 3887 H 361.716 1.03392 2.95006 0
M  V30 3888 H 360.936 3.35715 2.06614 0
M  V30 3889 H 362.224 4.0698 3.05361 0
M  V30 3890 H 361.622 1.86037 5.34235 0
M  V30 3891 H 360.179 2.50275 6.01835 0
M  V30 3892 N 363.613 -0.582584 1.46437 0
M  V30 3893 C 364.843 -1.36484 1.55099 0
M  V30 3894 C 365.251 -1.88233 0.191056 0
M  V30 3895 O 364.594 -1.6429 -0.821858 0
M  V30 3896 C 364.656 -2.588 2.49525 0
M  V30 3897 C 364.32 -2.28517 3.95764 0
M  V30 3898 C 365.317 -1.87346 4.84972 0
M  V30 3899 C 363.002 -2.40658 4.40896 0
M  V30 3900 C 364.996 -1.5871 6.17325 0
M  V30 3901 C 362.683 -2.11635 5.73284 0
M  V30 3902 C 363.681 -1.70725 6.61318 0
M  V30 3903 O 363.369 -1.42057 7.91249 0
M  V30 3904 H 363.101 -0.423297 0.527063 0
M  V30 3905 H 365.655 -0.715188 1.92547 0
M  V30 3906 H 363.885 -3.26571 2.07095 0
M  V30 3907 H 365.574 -3.20868 2.48593 0
M  V30 3908 H 366.34 -1.77481 4.5136 0
M  V30 3909 H 362.219 -2.71463 3.72598 0
M  V30 3910 H 365.763 -1.26704 6.85997 0
M  V30 3911 H 361.66 -2.21124 6.06444 0
M  V30 3912 H 362.428 -1.55901 8.03515 0
M  V30 3913 N 365.091 -1.34144 -0.827227 0
M  V30 3914 C 366.001 -1.27428 -1.96975 0
M  V30 3915 C 367.017 -0.182728 -1.73038 0
M  V30 3916 O 368.193 -0.408426 -1.97215 0
M  V30 3917 C 365.258 -1.02526 -3.31194 0
M  V30 3918 C 364.319 -2.20796 -3.68168 0
M  V30 3919 C 363.552 -1.97073 -4.95982 0
M  V30 3920 O 363.775 -0.926822 -5.6282 0
M  V30 3921 O 362.709 -2.83912 -5.30733 0
M  V30 3922 H 366.535 -2.23537 -2.05584 0
M  V30 3923 H 364.12 -1.14307 -0.961989 0
M  V30 3924 H 366.002 -0.904026 -4.11589 0
M  V30 3925 H 364.677 -0.0945389 -3.23562 0
M  V30 3926 H 363.584 -2.38477 -2.88235 0
M  V30 3927 H 364.917 -3.12243 -3.8048 0
M  V30 3928 N 366.569 1.04691 -1.17803 0
M  V30 3929 C 367.516 2.12557 -0.899343 0
M  V30 3930 C 368.486 1.65339 0.158771 0
M  V30 3931 O 369.671 1.90789 0.0204797 0
M  V30 3932 C 366.811 3.42481 -0.424315 0
M  V30 3933 C 365.924 4.03346 -1.54713 0
M  V30 3934 C 365.059 5.21208 -1.02546 0
M  V30 3935 C 364.098 5.74089 -2.12339 0
M  V30 3936 N 363.235 6.83247 -1.61612 0
M  V30 3937 H 368.075 2.35734 -1.823 0
M  V30 3938 H 365.612 1.1564 -0.909159 0
M  V30 3939 H 367.57 4.16996 -0.130421 0
M  V30 3940 H 366.2 3.19471 0.462377 0
M  V30 3941 H 365.252 3.2622 -1.95664 0
M  V30 3942 H 366.564 4.38628 -2.37501 0
M  V30 3943 H 365.718 6.02812 -0.685718 0
M  V30 3944 H 364.457 4.87414 -0.167084 0
M  V30 3945 H 363.462 4.91111 -2.47165 0
M  V30 3946 H 364.687 6.0993 -2.98601 0
M  V30 3947 H 362.633 6.5134 -0.780533 0
M  V30 3948 H 362.55 7.17559 -2.38003 0
M  V30 3949 H 363.818 7.68491 -1.30545 0
M  V30 3950 N 368.047 0.979072 1.23499 0
M  V30 3951 C 369.01 0.523244 2.23147 0
M  V30 3952 C 370.01 -0.386406 1.56088 0
M  V30 3953 O 371.2 -0.180283 1.73265 0
M  V30 3954 C 368.332 -0.240739 3.40049 0
M  V30 3955 H 369.525 1.40432 2.64989 0
M  V30 3956 H 367.078 0.764824 1.36309 0
M  V30 3957 H 367.813 -1.13841 3.03662 0
M  V30 3958 H 367.598 0.412207 3.89927 0
M  V30 3959 H 369.088 -0.548297 4.13985 0
M  V30 3960 N 369.525 -1.3858 0.750561 0
M  V30 3961 C 370.771 -2.00481 0.305825 0
M  V30 3962 C 371.104 -1.5944 -1.10872 0
M  V30 3963 O 370.379 -0.83052 -1.75877 0
M  V30 3964 C 370.662 -3.5758 0.425287 0
M  V30 3965 C 370.515 -4.08594 1.88072 0
M  V30 3966 C 371.834 -4.39719 -0.183122 0
M  V30 3967 H 368.953 -0.728348 0.112598 0
M  V30 3968 H 371.595 -1.64566 0.949638 0
M  V30 3969 H 369.745 -3.88306 -0.122828 0
M  V30 3970 H 371.417 -3.88523 2.48691 0
M  V30 3971 H 369.66 -3.61574 2.39681 0
M  V30 3972 H 370.331 -5.177 1.91548 0
M  V30 3973 H 372.807 -4.15128 0.284303 0
M  V30 3974 H 371.683 -5.48856 -0.0692757 0
M  V30 3975 H 371.944 -4.23434 -1.27106 0
M  V30 3976 N 371.003 -0.499398 -1.49478 0
M  V30 3977 C 371.951 0.293604 -2.3074 0
M  V30 3978 C 372.945 0.96427 -1.39277 0
M  V30 3979 O 374.151 0.892141 -1.56336 0
M  V30 3980 H 370.526 0.113541 -0.743379 0
M  V30 3981 H 372.497 -0.411772 -2.95545 0
M  V30 3982 C 371.246 1.3462 -3.20582 0
M  V30 3983 H 370.569 0.83954 -3.90886 0
M  V30 3984 H 372.009 1.87308 -3.80384 0
M  V30 3985 C 370.468 2.36351 -2.40083 0
M  V30 3986 O 370.998 3.422 -2.10385 0
M  V30 3987 N 369.204 2.0878 -2.02137 0
M  V30 3988 H 368.751 1.22723 -2.26488 0
M  V30 3989 H 368.709 2.77075 -1.48583 0
M  V30 3990 N 372.481 1.55866 -0.233164 0
M  V30 3991 C 373.709 2.02998 0.399905 0
M  V30 3992 C 374.124 1.11274 1.52524 0
M  V30 3993 O 373.481 0.124528 1.82075 0
M  V30 3994 C 373.532 3.4958 0.920639 0
M  V30 3995 O 373.253 4.37808 -0.159834 0
M  V30 3996 C 374.754 4.12411 1.62578 0
M  V30 3997 H 371.974 0.664006 0.0966281 0
M  V30 3998 H 374.518 2.0143 -0.353013 0
M  V30 3999 H 372.673 3.51727 1.62379 0
M  V30 4000 H 373.087 5.23981 0.23337 0
M  V30 4001 H 374.561 5.16711 1.94201 0
M  V30 4002 H 375.038 3.5809 2.54299 0
M  V30 4003 H 375.644 4.14148 0.967553 0
M  V30 4004 N 373.959 -0.0401083 1.57549 0
M  V30 4005 C 375.37 -0.588097 1.77196 0
M  V30 4006 C 375.721 -1.76209 0.862832 0
M  V30 4007 O 374.846 -2.16331 0.0548389 0
M  V30 4008 C 375.441 -1.07363 3.21339 0
M  V30 4009 C 374 -1.56723 3.42221 0
M  V30 4010 C 373.147 -0.50041 2.72747 0
M  V30 4011 H 376.098 0.186119 1.57605 0
M  V30 4012 H 376.119 -1.94143 3.27244 0
M  V30 4013 H 375.631 -0.218975 3.87482 0
M  V30 4014 H 373.732 -2.4441 2.81237 0
M  V30 4015 H 373.845 -1.62234 4.50796 0
M  V30 4016 H 372.209 -0.952894 2.36203 0
M  V30 4017 H 372.992 0.344599 3.41566 0
M  V30 4018 N 375.437 -1.54477 -0.31217 0
M  V30 4019 C 376.686 -1.72438 -1.04633 0
M  V30 4020 C 376.999 -0.511163 -1.88803 0
M  V30 4021 O 378.205 -0.572341 -2.65399 0
M  V30 4022 C 376.661 -3.05043 -1.9099 0
M  V30 4023 C 376.269 -4.33806 -1.11877 0
M  V30 4024 C 378.013 -3.32364 -2.64073 0
M  V30 4025 C 375.92 -5.57467 -1.97445 0
M  V30 4026 H 374.85 -0.642647 -0.394361 0
M  V30 4027 H 377.501 -1.80966 -0.303929 0
M  V30 4028 H 375.883 -2.90451 -2.69173 0
M  V30 4029 H 377.057 -4.59199 -0.383843 0
M  V30 4030 H 375.372 -4.13336 -0.504252 0
M  V30 4031 H 377.969 -4.21951 -3.28423 0
M  V30 4032 H 378.312 -2.50745 -3.32314 0
M  V30 4033 H 378.845 -3.47875 -1.92944 0
M  V30 4034 H 375.584 -6.41722 -1.33692 0
M  V30 4035 H 375.104 -5.36277 -2.6864 0
M  V30 4036 H 376.783 -5.94303 -2.5576 0
M  V30 4037 N 376.915 0.57481 -1.46744 0
M  V30 4038 C 378.143 1.35856 -1.56047 0
M  V30 4039 C 378.558 1.87691 -0.204365 0
M  V30 4040 O 377.915 1.64049 0.79963 0
M  V30 4041 C 377.966 2.54066 -2.57163 0
M  V30 4042 O 377.687 2.04377 -3.87507 0
M  V30 4043 C 379.188 3.46514 -2.76483 0
M  V30 4044 H 376.408 0.414754 -0.527466 0
M  V30 4045 H 378.952 0.698035 -1.92218 0
M  V30 4046 H 377.107 3.16092 -2.23974 0
M  V30 4047 H 377.521 2.81419 -4.4261 0
M  V30 4048 H 378.995 4.25919 -3.51137 0
M  V30 4049 H 379.472 3.98951 -1.83671 0
M  V30 4050 H 380.078 2.90318 -3.10799 0
M  V30 4051 N 378.394 1.34581 0.820102 0
M  V30 4052 C 379.671 1.17675 1.56244 0
M  V30 4053 C 380.051 -0.249541 2.0962 0
M  V30 4054 O 379.399 -1.25125 1.91196 0
M  V30 4055 C 379.609 2.23364 2.6816 0
M  V30 4056 C 380.957 2.58485 3.36854 0
M  V30 4057 O 381.981 2.22175 2.78418 0
M  V30 4058 O 380.84 3.20868 4.42386 0
M  V30 4059 H 377.934 0.456333 0.689702 0
M  V30 4060 H 380.48 1.46222 0.861231 0
M  V30 4061 H 379.252 3.19087 2.26493 0
M  V30 4062 H 378.875 1.96009 3.45928 0
M  V30 4063 N 379.872 -1.04064 1.18357 0
M  V30 4064 C 381.12 -1.76915 0.977013 0
M  V30 4065 C 381.441 -1.88624 -0.494577 0
M  V30 4066 O 380.711 -1.41125 -1.3587 0
M  V30 4067 H 379.291 -0.65535 0.358504 0
M  V30 4068 H 381.953 -1.25592 1.49039 0
M  V30 4069 H 381.049 -2.78178 1.41504 0
M  V30 4070 N 381.35 -0.985608 -1.22978 0
M  V30 4071 C 382.28 -0.549649 -2.26939 0
M  V30 4072 C 383.261 0.419803 -1.64838 0
M  V30 4073 O 384.446 0.31203 -1.91677 0
M  V30 4074 C 381.576 0.143652 -3.47003 0
M  V30 4075 C 380.53 -0.743606 -4.21491 0
M  V30 4076 C 379.856 0.0822027 -5.34637 0
M  V30 4077 C 381.156 -2.03694 -4.80943 0
M  V30 4078 H 382.85 -1.41862 -2.63658 0
M  V30 4079 H 380.396 -0.683571 -1.26741 0
M  V30 4080 H 382.349 0.459985 -4.18882 0
M  V30 4081 H 381.073 1.04711 -3.09359 0
M  V30 4082 H 379.732 -1.04347 -3.51436 0
M  V30 4083 H 379.38 0.986359 -4.93234 0
M  V30 4084 H 379.08 -0.508377 -5.85397 0
M  V30 4085 H 380.604 0.392797 -6.09335 0
M  V30 4086 H 382.018 -1.78504 -5.44802 0
M  V30 4087 H 380.415 -2.57573 -5.42011 0
M  V30 4088 H 381.485 -2.72042 -4.01399 0
M  V30 4089 N 382.828 1.3818 -0.7579 0
M  V30 4090 C 383.76 2.2901 -0.0932177 0
M  V30 4091 C 384.773 1.47958 0.679136 0
M  V30 4092 O 385.962 1.70773 0.519514 0
M  V30 4093 C 383.062 3.26953 0.89192 0
M  V30 4094 C 382.235 4.37045 0.176303 0
M  V30 4095 C 381.294 5.15148 1.07281 0
M  V30 4096 O 380.32 5.66616 0.541728 0
M  V30 4097 N 381.522 5.28542 2.40049 0
M  V30 4098 H 384.287 2.86694 -0.873303 0
M  V30 4099 H 381.848 1.50007 -0.609054 0
M  V30 4100 H 383.84 3.76083 1.49479 0
M  V30 4101 H 382.41 2.70136 1.57306 0
M  V30 4102 H 381.63 3.89493 -0.607328 0
M  V30 4103 H 382.918 5.07801 -0.318718 0
M  V30 4104 H 382.316 4.88285 2.85647 0
M  V30 4105 H 380.873 5.8103 2.95376 0
M  V30 4106 N 384.306 0.507319 1.49211 0
M  V30 4107 C 385.531 -0.033725 2.07373 0
M  V30 4108 C 385.956 -1.29485 1.36437 0
M  V30 4109 O 385.314 -1.76294 0.423087 0
M  V30 4110 C 385.362 -0.263945 3.59633 0
M  V30 4111 O 384.466 -1.33737 3.90113 0
M  V30 4112 H 383.807 0.0290331 0.663365 0
M  V30 4113 H 386.337 0.708749 1.91932 0
M  V30 4114 H 386.347 -0.493536 4.05004 0
M  V30 4115 H 385.022 0.657424 4.10671 0
M  V30 4116 H 383.599 -1.09224 3.56545 0
M  V30 4117 N 385.784 -1.5574 0.241426 0
M  V30 4118 C 386.714 -2.24133 -0.654722 0
M  V30 4119 C 387.695 -1.21974 -1.1856 0
M  V30 4120 O 388.88 -1.50612 -1.22595 0
M  V30 4121 C 386.01 -2.93659 -1.85423 0
M  V30 4122 C 384.964 -4.0246 -1.45636 0
M  V30 4123 C 384.29 -4.59383 -2.73626 0
M  V30 4124 C 385.59 -5.18468 -0.631506 0
M  V30 4125 H 387.284 -2.99281 -0.0844353 0
M  V30 4126 H 384.83 -1.43947 -0.0391707 0
M  V30 4127 H 386.783 -3.40203 -2.48676 0
M  V30 4128 H 385.507 -2.15991 -2.44981 0
M  V30 4129 H 384.166 -3.56676 -0.847202 0
M  V30 4130 H 383.814 -3.78422 -3.3137 0
M  V30 4131 H 383.514 -5.32826 -2.4773 0
M  V30 4132 H 385.038 -5.08658 -3.37786 0
M  V30 4133 H 386.452 -5.61272 -1.1682 0
M  V30 4134 H 384.849 -5.98266 -0.468831 0
M  V30 4135 H 385.919 -4.8358 0.357506 0
M  V30 4136 N 387.262 0.0317525 -1.57568 0
M  V30 4137 C 388.209 1.0332 -2.06382 0
M  V30 4138 C 389.179 1.36082 -0.952414 0
M  V30 4139 O 390.364 1.46466 -1.2228 0
M  V30 4140 C 387.504 2.32989 -2.54578 0
M  V30 4141 C 386.617 2.0641 -3.79498 0
M  V30 4142 C 385.752 3.2993 -4.16317 0
M  V30 4143 C 384.791 2.98893 -5.34162 0
M  V30 4144 N 383.928 4.14857 -5.66426 0
M  V30 4145 H 388.768 0.609982 -2.9169 0
M  V30 4146 H 386.305 0.289573 -1.44222 0
M  V30 4147 H 388.263 3.0875 -2.80587 0
M  V30 4148 H 386.893 2.73039 -1.7219 0
M  V30 4149 H 385.945 1.21158 -3.6059 0
M  V30 4150 H 387.257 1.79513 -4.65378 0
M  V30 4151 H 386.411 4.1406 -4.4344 0
M  V30 4152 H 385.15 3.59938 -3.29083 0
M  V30 4153 H 384.155 2.13164 -5.06795 0
M  V30 4154 H 385.38 2.70165 -6.23047 0
M  V30 4155 H 383.326 4.44821 -4.82151 0
M  V30 4156 H 383.243 3.91374 -6.4681 0
M  V30 4157 H 384.511 4.99868 -5.98124 0
M  V30 4158 N 388.74 1.54641 0.303973 0
M  V30 4159 C 389.965 1.78092 1.06292 0
M  V30 4160 C 390.39 0.537342 1.80262 0
M  V30 4161 O 389.748 -0.511993 1.7392 0
M  V30 4162 C 389.796 2.98612 2.02147 0
M  V30 4163 O 388.9 2.71528 3.10397 0
M  V30 4164 H 388.241 0.589548 0.305497 0
M  V30 4165 H 390.771 2.01716 0.3423 0
M  V30 4166 H 390.781 3.265 2.44667 0
M  V30 4167 H 389.456 3.88785 1.47714 0
M  V30 4168 H 388.033 2.54648 2.72413 0
M  V30 4169 N 390.218 -0.567019 1.47046 0
M  V30 4170 C 391.181 -1.65696 1.58359 0
M  V30 4171 C 392.181 -1.54097 0.459441 0
M  V30 4172 O 393.371 -1.58432 0.724225 0
M  V30 4173 C 390.503 -3.05197 1.51879 0
M  V30 4174 H 391.696 -1.57019 2.5551 0
M  V30 4175 H 389.249 -0.786148 1.3509 0
M  V30 4176 H 389.984 -3.19417 0.560673 0
M  V30 4177 H 389.769 -3.15025 2.33455 0
M  V30 4178 H 391.259 -3.84511 1.62913 0
M  V30 4179 N 391.696 -1.35014 -0.812953 0
M  V30 4180 C 392.921 -1.31187 -1.60639 0
M  V30 4181 C 393.346 0.109382 -1.87782 0
M  V30 4182 O 392.704 1.07424 -1.46047 0
M  V30 4183 C 392.752 -2.11809 -2.91838 0
M  V30 4184 O 391.856 -1.49444 -3.8437 0
M  V30 4185 H 391.197 -0.450084 -0.488181 0
M  V30 4186 H 393.727 -1.77963 -1.00947 0
M  V30 4187 H 393.737 -2.23531 -3.41318 0
M  V30 4188 H 392.412 -3.15137 -2.71407 0
M  V30 4189 H 390.989 -1.46524 -3.42907 0
M  V30 4190 N 393.175 1.03435 -1.18907 0
M  V30 4191 C 394.123 2.13703 -0.918353 0
M  V30 4192 C 395.117 1.68947 0.123767 0
M  V30 4193 O 396.323 1.79983 -0.0249701 0
M  V30 4194 H 392.698 0.698112 -0.279542 0
M  V30 4195 H 394.669 2.33731 -1.85506 0
M  V30 4196 C 393.418 3.44542 -0.467532 0
M  V30 4197 H 392.741 3.79394 -1.26095 0
M  V30 4198 H 394.181 4.22812 -0.317164 0
M  V30 4199 C 392.64 3.26829 0.817588 0
M  V30 4200 O 393.17 3.54975 1.88031 0
M  V30 4201 N 391.376 2.80139 0.772677 0
M  V30 4202 H 390.923 2.57434 -0.0923883 0
M  V30 4203 H 390.881 2.68668 1.63294 0
M  V30 4204 N 394.653 0.992116 1.22453 0
M  V30 4205 C 395.883 0.684949 1.94915 0
M  V30 4206 C 396.291 -0.754292 1.73514 0
M  V30 4207 O 395.634 -1.52056 1.03076 0
M  V30 4208 C 395.696 0.910054 3.47791 0
M  V30 4209 C 395.36 2.33363 3.92926 0
M  V30 4210 C 396.357 3.31308 4.00663 0
M  V30 4211 C 394.042 2.66785 4.25595 0
M  V30 4212 C 396.036 4.6075 4.40441 0
M  V30 4213 C 393.723 3.96446 4.65053 0
M  V30 4214 C 394.721 4.9324 4.72444 0
M  V30 4215 O 394.409 6.20584 5.1101 0
M  V30 4216 H 394.141 0.25258 0.62704 0
M  V30 4217 H 396.695 1.32939 1.56577 0
M  V30 4218 H 394.925 0.208443 3.86138 0
M  V30 4219 H 396.614 0.598257 4.01467 0
M  V30 4220 H 397.38 3.0682 3.75615 0
M  V30 4221 H 393.259 1.92148 4.19047 0
M  V30 4222 H 396.803 5.363 4.46126 0
M  V30 4223 H 392.7 4.20724 4.89552 0
M  V30 4224 H 393.468 6.24509 5.29085 0
M  V30 4225 N 396.131 -1.37776 0.765217 0
M  V30 4226 C 397.542 -1.82521 0.392819 0
M  V30 4227 C 397.893 -1.63789 -1.08017 0
M  V30 4228 O 397.018 -1.14542 -1.83601 0
M  V30 4229 C 397.613 -3.31358 0.706214 0
M  V30 4230 C 396.172 -3.74406 0.386952 0
M  V30 4231 C 395.319 -2.60394 0.953422 0
M  V30 4232 H 398.27 -1.2634 0.960412 0
M  V30 4233 H 398.291 -3.80498 -0.0114706 0
M  V30 4234 H 397.803 -3.44959 1.77833 0
M  V30 4235 H 395.904 -3.66377 -0.678112 0
M  V30 4236 H 396.017 -4.70749 0.890636 0
M  V30 4237 H 394.381 -2.51878 0.378064 0
M  V30 4238 H 395.164 -2.76791 2.03081 0
M  V30 4239 N 397.609 -0.515225 -1.4894 0
M  V30 4240 C 398.572 0.244681 -2.2789 0
M  V30 4241 C 399.572 0.881166 -1.34507 0
M  V30 4242 O 400.762 0.743497 -1.57537 0
M  V30 4243 C 397.894 1.35247 -3.12923 0
M  V30 4244 H 399.087 -0.448289 -2.96531 0
M  V30 4245 H 396.64 -0.270656 -1.53939 0
M  V30 4246 H 397.375 2.07916 -2.48881 0
M  V30 4247 H 397.16 0.901374 -3.81599 0
M  V30 4248 H 398.65 1.88737 -3.72516 0
M  V30 4249 N 399.087 1.5561 -0.249682 0
M  V30 4250 C 400.317 2.03116 0.377803 0
M  V30 4251 C 400.725 1.12822 1.51881 0
M  V30 4252 O 400.068 0.13562 1.83199 0
M  V30 4253 C 400.13 3.46866 0.944693 0
M  V30 4254 C 399.794 4.56955 -0.0644259 0
M  V30 4255 C 400.791 5.12485 -0.874957 0
M  V30 4256 C 398.476 5.01936 -0.19132 0
M  V30 4257 C 400.47 6.11491 -1.79881 0
M  V30 4258 C 398.157 6.00773 -1.11868 0
M  V30 4259 C 399.155 6.5543 -1.92095 0
M  V30 4260 O 398.843 7.5234 -2.83267 0
M  V30 4261 H 398.575 0.669489 0.0935961 0
M  V30 4262 H 401.129 2.02004 -0.371966 0
M  V30 4263 H 399.359 3.45136 1.74407 0
M  V30 4264 H 401.048 3.77856 1.48255 0
M  V30 4265 H 401.814 4.78564 -0.787523 0
M  V30 4266 H 397.693 4.59055 0.423072 0
M  V30 4267 H 401.237 6.54078 -2.42543 0
M  V30 4268 H 397.134 6.34114 -1.20703 0
M  V30 4269 H 397.902 7.69966 -2.7766 0
M  V30 4270 N 400.565 -0.0233959 1.57583 0
M  V30 4271 C 401.498 -1.05549 2.02323 0
M  V30 4272 C 402.476 -1.34843 0.908626 0
M  V30 4273 O 403.66 -1.47404 1.17491 0
M  V30 4274 C 400.787 -2.38885 2.40108 0
M  V30 4275 C 399.833 -2.2541 3.62067 0
M  V30 4276 S 400.666 -1.60217 5.1097 0
M  V30 4277 C 401.822 -2.95032 5.52003 0
M  V30 4278 H 402.055 -0.674435 2.89549 0
M  V30 4279 H 399.588 -0.23355 1.52623 0
M  V30 4280 H 401.546 -3.15562 2.62547 0
M  V30 4281 H 400.207 -2.74137 1.53323 0
M  V30 4282 H 399.4 -3.23854 3.86179 0
M  V30 4283 H 399.002 -1.56876 3.39508 0
M  V30 4284 H 401.294 -3.91357 5.53033 0
M  V30 4285 H 402.237 -2.75646 6.52246 0
M  V30 4286 H 402.645 -2.97865 4.79517 0
M  V30 4287 N 402.043 -1.548 -0.295768 0
M  V30 4288 C 403.32 -1.65014 -1.05023 0
M  V30 4289 C 403.7 -0.501805 -2.05049 0
M  V30 4290 O 403.048 0.500869 -2.22943 0
M  V30 4291 C 403.258 -3.03252 -1.72741 0
M  V30 4292 C 404.606 -3.60242 -2.24746 0
M  V30 4293 O 405.63 -3.05737 -1.82765 0
M  V30 4294 O 404.489 -4.55687 -3.01681 0
M  V30 4295 H 401.583 -0.669314 -0.485744 0
M  V30 4296 H 404.129 -1.67144 -0.293438 0
M  V30 4297 H 402.901 -3.7827 -1.00138 0
M  V30 4298 H 402.524 -3.04922 -2.55163 0
M  V30 4299 N 403.521 0.559213 -1.47345 0
M  V30 4300 C 404.469 1.68747 -1.60085 0
M  V30 4301 C 405.463 1.628 -0.46825 0
M  V30 4302 O 406.669 1.68009 -0.645977 0
M  V30 4303 H 403.044 0.558329 -0.503759 0
M  V30 4304 H 405.015 1.55138 -2.54902 0
M  V30 4305 C 403.764 3.07103 -1.63042 0
M  V30 4306 H 403.087 3.12361 -2.49541 0
M  V30 4307 H 404.527 3.85743 -1.76006 0
M  V30 4308 C 402.986 3.34935 -0.363357 0
M  V30 4309 O 403.516 3.98102 0.536416 0
M  V30 4310 N 401.722 2.89574 -0.244 0
M  V30 4311 H 401.269 2.38348 -0.977133 0
M  V30 4312 H 401.227 3.08566 0.602836 0
M  V30 4313 N 404.999 1.35443 0.805782 0
M  V30 4314 C 406.229 1.31687 1.59192 0
M  V30 4315 C 406.637 -0.10756 1.88894 0
M  V30 4316 O 405.98 -1.07017 1.49309 0
M  V30 4317 C 406.042 2.05686 2.94845 0
M  V30 4318 C 405.706 3.54868 2.87954 0
M  V30 4319 C 406.703 4.49444 2.61335 0
M  V30 4320 C 404.388 3.97528 3.07046 0
M  V30 4321 C 406.382 5.84655 2.53885 0
M  V30 4322 C 404.069 5.32833 2.99219 0
M  V30 4323 C 405.067 6.26209 2.72674 0
M  V30 4324 O 404.755 7.59032 2.64811 0
M  V30 4325 H 404.487 0.453878 0.50097 0
M  V30 4326 H 407.041 1.78892 1.0093 0
M  V30 4327 H 405.271 1.5312 3.55093 0
M  V30 4328 H 406.96 1.94998 3.55993 0
M  V30 4329 H 407.726 4.17804 2.46303 0
M  V30 4330 H 403.605 3.25233 3.26718 0
M  V30 4331 H 407.149 6.57508 2.33086 0
M  V30 4332 H 403.046 5.64087 3.13809 0
M  V30 4333 H 403.814 7.68967 2.80413 0
M  V30 4334 N 406.477 -1.02803 1.19454 0
M  V30 4335 C 407.407 -2.12999 0.956758 0
M  V30 4336 C 408.388 -1.69743 -0.110188 0
M  V30 4337 O 409.573 -1.94148 0.0450038 0
M  V30 4338 C 406.703 -3.43746 0.495553 0
M  V30 4339 C 405.657 -4.00688 1.50443 0
M  V30 4340 C 404.983 -5.27067 0.900275 0
M  V30 4341 C 406.283 -4.35397 2.8849 0
M  V30 4342 H 407.977 -2.33148 1.87836 0
M  V30 4343 H 405.523 -1.12045 0.904539 0
M  V30 4344 H 407.476 -4.2021 0.316493 0
M  V30 4345 H 406.2 -3.23321 -0.461646 0
M  V30 4346 H 404.859 -3.2632 1.67065 0
M  V30 4347 H 404.507 -5.02959 -0.064503 0
M  V30 4348 H 404.207 -5.66127 1.57397 0
M  V30 4349 H 405.731 -6.06196 0.73203 0
M  V30 4350 H 407.145 -5.02795 2.75446 0
M  V30 4351 H 405.542 -4.85541 3.52661 0
M  V30 4352 H 406.612 -3.44662 3.41081 0
M  V30 4353 N 407.956 -0.998596 -1.21925 0
M  V30 4354 C 408.903 -0.553621 -2.24062 0
M  V30 4355 C 409.873 0.416999 -1.6078 0
M  V30 4356 O 411.058 0.320482 -1.88089 0
M  V30 4357 C 408.198 0.119959 -3.44891 0
M  V30 4358 C 407.311 -0.893077 -4.22668 0
M  V30 4359 C 406.446 -0.192424 -5.30851 0
M  V30 4360 C 405.485 -1.19344 -6.00353 0
M  V30 4361 N 404.622 -0.520707 -7.00166 0
M  V30 4362 H 409.462 -1.4293 -2.61486 0
M  V30 4363 H 406.999 -0.715838 -1.28507 0
M  V30 4364 H 408.957 0.527459 -4.13852 0
M  V30 4365 H 407.587 0.959389 -3.08214 0
M  V30 4366 H 406.639 -1.41886 -3.52948 0
M  V30 4367 H 407.951 -1.65512 -4.70539 0
M  V30 4368 H 407.105 0.271515 -6.06092 0
M  V30 4369 H 405.844 0.602075 -4.83969 0
M  V30 4370 H 404.849 -1.66795 -5.23889 0
M  V30 4371 H 406.074 -1.98891 -6.49322 0
M  V30 4372 H 404.02 0.254252 -6.55507 0
M  V30 4373 H 403.937 -1.2211 -7.46073 0
M  V30 4374 H 405.205 -0.0797596 -7.79459 0
M  V30 4375 N 409.434 1.37368 -0.772513 0
M  V30 4376 C 410.344 2.34053 -0.160081 0
M  V30 4377 C 411.36 1.60216 0.678728 0
M  V30 4378 O 412.536 1.92303 0.59847 0
M  V30 4379 C 409.601 3.3939 0.708182 0
M  V30 4380 C 408.662 4.29048 -0.147172 0
M  V30 4381 C 407.895 5.29354 0.679744 0
M  V30 4382 O 408.118 5.3723 1.91678 0
M  V30 4383 O 407.052 6.01835 0.0885444 0
M  V30 4384 H 410.878 2.88159 -0.959053 0
M  V30 4385 H 408.463 1.39543 -0.533685 0
M  V30 4386 H 410.345 4.03839 1.20384 0
M  V30 4387 H 409.02 2.8761 1.48533 0
M  V30 4388 H 407.927 3.67697 -0.689205 0
M  V30 4389 H 409.26 4.84134 -0.887423 0
M  V30 4390 N 410.912 0.523116 1.48665 0
M  V30 4391 C 412.158 -0.0134963 2.02796 0
M  V30 4392 C 412.491 -1.34582 1.40004 0
M  V30 4393 O 411.766 -1.86756 0.543381 0
M  V30 4394 C 412.049 -0.14276 3.59817 0
M  V30 4395 C 411.902 1.21425 4.331 0
M  V30 4396 C 413.221 -0.872856 4.31357 0
M  V30 4397 H 410.34 -0.00343074 0.736992 0
M  V30 4398 H 412.982 0.678816 1.7746 0
M  V30 4399 H 411.132 -0.732401 3.81534 0
M  V30 4400 H 412.804 1.84447 4.2282 0
M  V30 4401 H 411.047 1.79791 3.94788 0
M  V30 4402 H 411.718 1.07687 5.41394 0
M  V30 4403 H 414.194 -0.372555 4.14429 0
M  V30 4404 H 413.07 -0.932185 5.40927 0
M  V30 4405 H 413.331 -1.92161 3.98154 0
M  V30 4406 N 412.39 -1.55475 0.257931 0
M  V30 4407 C 413.639 -1.98383 -0.364275 0
M  V30 4408 C 413.952 -1.14952 -1.58258 0
M  V30 4409 O 415.158 -1.47924 -2.27664 0
M  V30 4410 C 413.614 -3.53037 -0.699479 0
M  V30 4411 C 413.222 -4.45223 0.498046 0
M  V30 4412 C 414.966 -4.04575 -1.28526 0
M  V30 4413 C 412.873 -5.91238 0.138383 0
M  V30 4414 H 411.803 -0.740911 -0.13988 0
M  V30 4415 H 414.454 -1.79936 0.359883 0
M  V30 4416 H 412.836 -3.6722 -1.48207 0
M  V30 4417 H 414.01 -4.42803 1.27522 0
M  V30 4418 H 412.325 -4.04226 0.999503 0
M  V30 4419 H 414.922 -5.11196 -1.56788 0
M  V30 4420 H 415.265 -3.5258 -2.21344 0
M  V30 4421 H 415.798 -3.93762 -0.565337 0
M  V30 4422 H 412.537 -6.47294 1.03398 0
M  V30 4423 H 412.057 -5.96768 -0.602374 0
M  V30 4424 H 413.736 -6.46413 -0.27553 0
M  V30 4425 N 413.868 0.0150385 -1.57593 0
M  V30 4426 C 414.816 1.02958 -2.08572 0
M  V30 4427 C 415.81 1.36554 -1.00246 0
M  V30 4428 O 417.016 1.35295 -1.18724 0
M  V30 4429 H 413.391 0.349619 -0.665786 0
M  V30 4430 H 415.362 0.573932 -2.92829 0
M  V30 4431 C 414.111 2.31752 -2.59203 0
M  V30 4432 H 413.434 2.06765 -3.42182 0
M  V30 4433 H 414.874 3.01053 -2.98568 0
M  V30 4434 C 413.333 3.01692 -1.49945 0
M  V30 4435 O 413.863 3.92083 -0.873704 0
M  V30 4436 N 412.069 2.6326 -1.23056 0
M  V30 4437 H 411.616 1.89838 -1.74125 0
M  V30 4438 H 411.574 3.10372 -0.501685 0
M  V30 4439 N 415.346 1.54954 0.287554 0
M  V30 4440 C 416.278 1.83224 1.37701 0
M  V30 4441 C 417.291 0.715898 1.46215 0
M  V30 4442 O 418.48 0.993565 1.48292 0
M  V30 4443 C 415.58 1.96723 2.75959 0
M  V30 4444 C 414.753 3.27253 2.90215 0
M  V30 4445 C 413.812 3.30998 4.09056 0
M  V30 4446 O 412.838 4.04457 4.00503 0
M  V30 4447 N 414.04 2.57353 5.20336 0
M  V30 4448 H 416.805 2.77254 1.138 0
M  V30 4449 H 414.366 1.54694 0.477652 0
M  V30 4450 H 416.358 1.96615 3.5373 0
M  V30 4451 H 414.928 1.09626 2.92747 0
M  V30 4452 H 414.148 3.40022 1.99447 0
M  V30 4453 H 415.436 4.13365 2.96659 0
M  V30 4454 H 414.834 1.97327 5.30169 0
M  V30 4455 H 413.391 2.62984 5.96391 0
M  V30 4456 N 416.824 -0.551391 1.4764 0
M  V30 4457 C 418.07 -1.31024 1.54792 0
M  V30 4458 C 418.403 -1.9304 0.211967 0
M  V30 4459 O 417.678 -1.78175 -0.77999 0
M  V30 4460 C 417.961 -2.41593 2.67029 0
M  V30 4461 C 417.814 -1.84408 4.10261 0
M  V30 4462 C 419.133 -3.43488 2.75143 0
M  V30 4463 H 416.252 -0.475031 0.563485 0
M  V30 4464 H 418.894 -0.616454 1.79722 0
M  V30 4465 H 417.044 -3.00772 2.45904 0
M  V30 4466 H 418.716 -1.29445 4.42766 0
M  V30 4467 H 416.959 -1.15051 4.18265 0
M  V30 4468 H 417.63 -2.64367 4.84576 0
M  V30 4469 H 420.106 -2.94236 2.94218 0
M  V30 4470 H 418.982 -4.18274 3.55441 0
M  V30 4471 H 419.243 -4.02703 1.82435 0
M  V30 4472 N 418.302 -1.35869 -0.798587 0
M  V30 4473 C 419.212 -1.31578 -1.94228 0
M  V30 4474 C 420.228 -0.21939 -1.72611 0
M  V30 4475 O 421.404 -0.450167 -1.96305 0
M  V30 4476 C 418.469 -1.09528 -3.28944 0
M  V30 4477 C 417.53 -2.28556 -3.63402 0
M  V30 4478 C 416.763 -2.07549 -4.9169 0
M  V30 4479 O 416.986 -1.046 -5.60727 0
M  V30 4480 O 415.92 -2.95106 -5.24591 0
M  V30 4481 H 419.746 -2.27847 -2.00796 0
M  V30 4482 H 417.331 -1.16322 -0.937526 0
M  V30 4483 H 419.213 -0.991127 -4.09579 0
M  V30 4484 H 417.888 -0.16315 -3.23289 0
M  V30 4485 H 416.795 -2.44538 -2.83112 0
M  V30 4486 H 418.128 -3.20244 -3.73771 0
M  V30 4487 N 419.78 1.02168 -1.19998 0
M  V30 4488 C 420.69 2.14069 -0.959774 0
M  V30 4489 C 421.706 1.73804 0.082655 0
M  V30 4490 O 422.882 2.01133 -0.103633 0
M  V30 4491 C 419.947 3.42936 -0.509459 0
M  V30 4492 C 419.008 3.97474 -1.62213 0
M  V30 4493 C 418.241 5.2019 -1.19321 0
M  V30 4494 O 418.464 5.70369 -0.0597726 0
M  V30 4495 O 417.398 5.67749 -1.99863 0
M  V30 4496 H 421.224 2.37199 -1.89658 0
M  V30 4497 H 418.809 1.12469 -0.983411 0
M  V30 4498 H 420.691 4.20551 -0.267322 0
M  V30 4499 H 419.366 3.21234 0.398821 0
M  V30 4500 H 418.273 3.21161 -1.9185 0
M  V30 4501 H 419.606 4.23555 -2.50723 0
M  V30 4502 N 421.258 1.00505 1.21394 0
M  V30 4503 C 422.168 0.574806 2.27449 0
M  V30 4504 C 423.184 -0.382206 1.6975 0
M  V30 4505 O 424.36 -0.246027 1.99892 0
M  V30 4506 C 421.425 -0.0917414 3.46579 0
M  V30 4507 C 420.486 0.909758 4.1955 0
M  V30 4508 C 419.719 0.274924 5.32991 0
M  V30 4509 O 419.942 -0.928254 5.62796 0
M  V30 4510 O 418.876 0.985877 5.93771 0
M  V30 4511 H 422.702 1.45744 2.66444 0
M  V30 4512 H 420.287 0.773923 1.27792 0
M  V30 4513 H 422.169 -0.464551 4.18832 0
M  V30 4514 H 420.844 -0.948755 3.09484 0
M  V30 4515 H 419.751 1.33372 3.49518 0
M  V30 4516 H 421.084 1.73636 4.60555 0
M  V30 4517 N 422.737 -1.36956 0.779787 0
M  V30 4518 C 423.965 -2.03755 0.359398 0
M  V30 4519 C 424.38 -1.58807 -1.02106 0
M  V30 4520 O 423.737 -0.773024 -1.6532 0
M  V30 4521 C 423.788 -3.59251 0.402568 0
M  V30 4522 O 423.509 -4.02557 1.72858 0
M  V30 4523 C 425.01 -4.43291 -0.0284068 0
M  V30 4524 H 422.23 -0.654148 0.149437 0
M  V30 4525 H 424.774 -1.75128 1.05595 0
M  V30 4526 H 422.929 -3.86621 -0.245478 0
M  V30 4527 H 423.343 -4.97111 1.67275 0
M  V30 4528 H 424.817 -5.51975 0.0529466 0
M  V30 4529 H 425.294 -4.25719 -1.07982 0
M  V30 4530 H 425.9 -4.21163 0.591758 0
M  V30 4531 N 424.215 -0.530993 -1.48385 0
M  V30 4532 C 425.463 0.00273189 -2.021 0
M  V30 4533 C 425.784 1.34672 -1.41027 0
M  V30 4534 O 425.054 1.8724 -0.576012 0
M  V30 4535 H 423.634 0.00399774 -0.746989 0
M  V30 4536 H 426.296 -0.695054 -1.82085 0
M  V30 4537 H 425.392 0.11031 -3.11905 0
M  V30 4538 N 425.693 1.55336 -0.266172 0
M  V30 4539 C 426.923 2.03506 0.356239 0
M  V30 4540 C 427.331 1.14426 1.50676 0
M  V30 4541 O 426.674 0.155043 1.83045 0
M  V30 4542 C 426.736 3.47848 0.90785 0
M  V30 4543 C 426.4 4.56861 -0.112888 0
M  V30 4544 C 427.397 5.11528 -0.929264 0
M  V30 4545 C 425.082 5.01704 -0.244546 0
M  V30 4546 C 427.076 6.09549 -1.86357 0
M  V30 4547 C 424.763 5.99553 -1.18234 0
M  V30 4548 C 425.761 6.53356 -1.99036 0
M  V30 4549 O 425.449 7.49293 -2.91231 0
M  V30 4550 H 425.181 0.670444 0.08649 0
M  V30 4551 H 427.735 2.01598 -0.39337 0
M  V30 4552 H 425.965 3.46967 1.70737 0
M  V30 4553 H 427.654 3.79407 1.44239 0
M  V30 4554 H 428.42 4.77701 -0.838237 0
M  V30 4555 H 424.299 4.59477 0.374359 0
M  V30 4556 H 427.843 6.51469 -2.49467 0
M  V30 4557 H 423.74 6.32799 -1.27421 0
M  V30 4558 H 424.508 7.66978 -2.8581 0
M  V30 4559 N 427.171 -0.0066808 1.57599 0
M  V30 4560 C 428.119 -1.01851 2.09115 0
M  V30 4561 C 429.113 -1.36021 1.00969 0
M  V30 4562 O 430.319 -1.34663 1.19439 0
M  V30 4563 H 426.694 -0.346083 0.667631 0
M  V30 4564 H 428.665 -0.558394 2.93129 0
M  V30 4565 C 427.414 -2.30374 2.60429 0
M  V30 4566 H 426.737 -2.04947 3.43273 0
M  V30 4567 H 428.177 -2.99466 3.00161 0
M  V30 4568 C 426.636 -3.00893 1.51542 0
M  V30 4569 O 427.166 -3.91614 0.894484 0
M  V30 4570 N 425.372 -2.62603 1.2445 0
M  V30 4571 H 424.919 -1.88911 1.75129 0
M  V30 4572 H 424.877 -3.10101 0.518137 0
M  V30 4573 N 428.649 -1.55105 -0.279332 0
M  V30 4574 C 429.579 -1.90557 -1.34945 0
M  V30 4575 C 430.56 -0.766738 -1.51839 0
M  V30 4576 O 431.745 -1.02434 -1.64988 0
M  V30 4577 C 428.875 -2.17193 -2.71006 0
M  V30 4578 C 427.829 -3.33021 -2.68851 0
M  V30 4579 C 427.155 -3.45123 -4.08405 0
M  V30 4580 C 428.455 -4.69578 -2.28678 0
M  V30 4581 H 430.149 -2.80188 -1.05522 0
M  V30 4582 H 427.695 -1.34811 -0.506173 0
M  V30 4583 H 429.648 -2.40581 -3.45975 0
M  V30 4584 H 428.372 -1.24355 -3.01999 0
M  V30 4585 H 427.031 -3.0959 -1.9634 0
M  V30 4586 H 426.679 -2.49762 -4.3661 0
M  V30 4587 H 426.379 -4.22995 -4.07859 0
M  V30 4588 H 427.903 -3.70796 -4.85121 0
M  V30 4589 H 429.317 -4.92553 -2.93368 0
M  V30 4590 H 427.714 -5.5032 -2.39306 0
M  V30 4591 H 428.784 -4.68828 -1.23807 0
M  V30 4592 N 430.127 0.543554 -1.4793 0
M  V30 4593 C 431.057 1.65888 -1.64327 0
M  V30 4594 C 432.038 1.62818 -0.492383 0
M  V30 4595 O 433.223 1.80226 -0.723338 0
M  V30 4596 C 430.353 3.04506 -1.67013 0
M  V30 4597 C 429.307 3.2243 -2.81466 0
M  V30 4598 C 428.633 4.61972 -2.69233 0
M  V30 4599 C 429.933 3.06496 -4.22915 0
M  V30 4600 H 431.627 1.52421 -2.57698 0
M  V30 4601 H 429.173 0.731849 -1.24016 0
M  V30 4602 H 431.126 3.82391 -1.77074 0
M  V30 4603 H 429.85 3.18964 -0.70212 0
M  V30 4604 H 428.509 2.46957 -2.70938 0
M  V30 4605 H 428.157 4.73247 -1.7043 0
M  V30 4606 H 427.857 4.74911 -3.46025 0
M  V30 4607 H 429.381 5.41974 -2.81242 0
M  V30 4608 H 430.795 3.74186 -4.34348 0
M  V30 4609 H 429.192 3.30938 -5.006 0
M  V30 4610 H 430.262 2.03077 -4.40327 0
M  V30 4611 N 431.605 1.3629 0.791371 0
M  V30 4612 C 432.833 1.33562 1.58016 0
M  V30 4613 C 433.248 -0.0835616 1.88615 0
M  V30 4614 O 432.605 -1.0399 1.49974 0
M  V30 4615 C 432.656 2.15517 2.90232 0
M  V30 4616 O 432.377 3.51902 2.60953 0
M  V30 4617 C 433.878 2.20546 3.84544 0
M  V30 4618 H 431.098 0.458226 0.490173 0
M  V30 4619 H 433.642 1.79361 0.982345 0
M  V30 4620 H 431.797 1.73278 3.46487 0
M  V30 4621 H 432.211 3.94644 3.4548 0
M  V30 4622 H 433.685 2.82252 4.74382 0
M  V30 4623 H 434.162 1.20838 4.2225 0
M  V30 4624 H 434.768 2.63013 3.34222 0
M  V30 4625 N 433.083 -1.0153 1.20538 0
M  V30 4626 C 434.311 -1.78746 1.04199 0
M  V30 4627 C 434.726 -1.84323 -0.408733 0
M  V30 4628 O 434.083 -1.29714 -1.28377 0
M  V30 4629 C 434.134 -3.23152 1.62035 0
M  V30 4630 O 433.855 -3.17918 3.0143 0
M  V30 4631 C 435.356 -4.16911 1.50666 0
M  V30 4632 H 432.576 -0.56208 0.366479 0
M  V30 4633 H 435.12 -1.27794 1.59653 0
M  V30 4634 H 433.275 -3.71248 1.10697 0
M  V30 4635 H 433.689 -4.08567 3.28897 0
M  V30 4636 H 435.163 -5.16072 1.95892 0
M  V30 4637 H 435.64 -4.36791 0.459363 0
M  V30 4638 H 436.246 -3.74698 2.01201 0
M  V30 4639 N 434.561 -1.01147 -1.20859 0
M  V30 4640 C 435.809 -0.696486 -1.89719 0
M  V30 4641 C 436.13 0.775788 -1.78904 0
M  V30 4642 O 435.4 1.55759 -1.18811 0
M  V30 4643 H 433.98 -0.254628 -0.702263 0
M  V30 4644 H 436.642 -1.28197 -1.46804 0
M  V30 4645 H 435.738 -0.975357 -2.96468 0
M  V30 4646 N 436.039 1.36541 -0.78704 0
M  V30 4647 C 436.972 2.27831 -0.129765 0
M  V30 4648 C 437.95 1.47105 0.692732 0
M  V30 4649 O 439.134 1.7641 0.664222 0
M  V30 4650 C 436.261 3.28577 0.821883 0
M  V30 4651 C 435.307 4.26422 0.0814771 0
M  V30 4652 S 436.14 5.20919 -1.24112 0
M  V30 4653 C 437.296 6.25212 -0.293409 0
M  V30 4654 H 437.529 2.83229 -0.903811 0
M  V30 4655 H 435.062 1.43046 -0.581144 0
M  V30 4656 H 437.02 3.87123 1.3655 0
M  V30 4657 H 435.681 2.72096 1.56916 0
M  V30 4658 H 434.874 4.97554 0.803485 0
M  V30 4659 H 434.476 3.71944 -0.391589 0
M  V30 4660 H 436.768 6.75435 0.528622 0
M  V30 4661 H 437.711 7.01378 -0.973344 0
M  V30 4662 H 438.119 5.64407 0.102196 0
M  V30 4663 N 437.518 0.538854 1.48102 0
M  V30 4664 C 438.795 -0.0568108 1.95517 0
M  V30 4665 C 439.175 -1.50408 1.48124 0
M  V30 4666 O 438.523 -2.17133 0.711727 0
M  V30 4667 C 438.733 0.0696262 3.48931 0
M  V30 4668 C 440.081 -0.0851202 4.24515 0
M  V30 4669 O 441.105 -0.0037347 3.562 0
M  V30 4670 O 439.964 -0.257025 5.45895 0
M  V30 4671 H 437.058 -0.0743695 0.823649 0
M  V30 4672 H 439.604 0.604081 1.58584 0
M  V30 4673 H 438.376 1.07744 3.76174 0
M  V30 4674 H 437.999 -0.629714 3.92582 0
M  V30 4675 N 438.996 -1.55193 0.274407 0
M  V30 4676 C 440.242 -1.99877 -0.343086 0
M  V30 4677 C 440.575 -1.16256 -1.55558 0
M  V30 4678 O 439.85 -0.232462 -1.93106 0
M  V30 4679 C 440.133 -3.52706 -0.725965 0
M  V30 4680 C 439.986 -4.47081 0.493818 0
M  V30 4681 C 441.305 -4.11422 -1.56268 0
M  V30 4682 H 438.424 -0.726625 -0.123229 0
M  V30 4683 H 441.066 -1.86136 0.38121 0
M  V30 4684 H 439.216 -3.64546 -1.34307 0
M  V30 4685 H 440.888 -4.47186 1.13237 0
M  V30 4686 H 439.131 -4.1877 1.13201 0
M  V30 4687 H 439.802 -5.51699 0.18217 0
M  V30 4688 H 442.278 -4.02855 -1.04151 0
M  V30 4689 H 441.154 -5.18568 -1.79939 0
M  V30 4690 H 441.415 -3.61607 -2.54348 0
M  V30 4691 N 440.474 -0.00167713 -1.576 0
M  V30 4692 C 441.704 0.692754 -1.94639 0
M  V30 4693 C 442.112 1.67744 -0.87513 0
M  V30 4694 O 441.455 1.8305 0.154382 0
M  V30 4695 C 441.517 1.47881 -3.27676 0
M  V30 4696 C 441.181 0.655518 -4.52274 0
M  V30 4697 C 442.178 -0.0575214 -5.19868 0
M  V30 4698 C 439.863 0.600994 -4.98692 0
M  V30 4699 C 441.857 -0.814052 -6.3218 0
M  V30 4700 C 439.544 -0.15926 -6.10892 0
M  V30 4701 C 440.542 -0.865515 -6.77494 0
M  V30 4702 O 440.23 -1.61336 -7.87544 0
M  V30 4703 H 439.962 0.197792 -0.646417 0
M  V30 4704 H 442.516 -0.049423 -2.05341 0
M  V30 4705 H 440.746 2.2655 -3.13388 0
M  V30 4706 H 442.435 2.05874 -3.49816 0
M  V30 4707 H 443.201 -0.0245611 -4.84994 0
M  V30 4708 H 439.08 1.14025 -4.46676 0
M  V30 4709 H 442.624 -1.36584 -6.84098 0
M  V30 4710 H 438.521 -0.194035 -6.45208 0
M  V30 4711 H 439.289 -1.53025 -8.04068 0
M  V30 4712 N 441.952 1.55251 0.271103 0
M  V30 4713 C 443.18 1.79974 1.02064 0
M  V30 4714 C 443.595 0.574003 1.79863 0
M  V30 4715 O 442.952 -0.456962 1.76686 0
M  V30 4716 C 443.003 3.02603 1.97772 0
M  V30 4717 O 442.724 4.20443 1.23124 0
M  V30 4718 C 444.225 3.39944 2.84522 0
M  V30 4719 H 441.445 0.599489 0.301419 0
M  V30 4720 H 443.989 2.02268 0.301313 0
M  V30 4721 H 442.144 2.8243 2.65165 0
M  V30 4722 H 442.558 4.89783 1.87651 0
M  V30 4723 H 444.032 4.28915 3.47471 0
M  V30 4724 H 444.509 2.59432 3.54389 0
M  V30 4725 H 445.115 3.62383 2.22618 0
M  V30 4726 N 443.43 -0.535701 1.48216 0
M  V30 4727 C 444.378 -1.66179 1.62749 0
M  V30 4728 C 445.372 -1.62034 0.49409 0
M  V30 4729 O 446.578 -1.6696 0.672624 0
M  V30 4730 H 442.953 -0.550244 0.512578 0
M  V30 4731 H 444.924 -1.51063 2.57337 0
M  V30 4732 C 443.673 -3.04471 1.67907 0
M  V30 4733 H 442.996 -3.08351 2.54479 0
M  V30 4734 H 444.436 -3.82894 1.82121 0
M  V30 4735 C 442.895 -3.34314 0.416596 0
M  V30 4736 O 443.425 -3.98905 -0.473014 0
M  V30 4737 N 441.631 -2.89149 0.290038 0
M  V30 4738 H 441.178 -2.36764 1.01493 0
M  V30 4739 H 441.136 -3.09486 -0.55367 0
M  V30 4740 N 444.908 -1.36708 -0.784132 0
M  V30 4741 C 446.154 -1.31426 -1.54451 0
M  V30 4742 C 446.487 0.10476 -1.93917 0
M  V30 4743 O 445.762 1.05934 -1.6312 0
M  V30 4744 C 446.045 -2.24189 -2.818 0
M  V30 4745 C 445.898 -3.74813 -2.48667 0
M  V30 4746 C 447.217 -2.15626 -3.83658 0
M  V30 4747 H 444.336 -0.478739 -0.560337 0
M  V30 4748 H 446.978 -1.67305 -0.900498 0
M  V30 4749 H 445.128 -1.93722 -3.36755 0
M  V30 4750 H 446.8 -4.15823 -1.99722 0
M  V30 4751 H 445.043 -3.93989 -1.81535 0
M  V30 4752 H 445.714 -4.35138 -3.39646 0
M  V30 4753 H 448.19 -2.42456 -3.38163 0
M  V30 4754 H 447.066 -2.82694 -4.70506 0
M  V30 4755 H 447.327 -1.14522 -4.27009 0
M  V30 4756 N 446.386 1.0089 -1.21074 0
M  V30 4757 C 447.663 1.71834 -0.934469 0
M  V30 4758 C 448.043 2.0368 0.554753 0
M  V30 4759 O 447.391 1.70742 1.51854 0
M  V30 4760 C 447.601 2.98061 -1.8155 0
M  V30 4761 C 448.949 3.7117 -2.06199 0
M  V30 4762 O 449.973 3.08034 -1.78867 0
M  V30 4763 O 448.832 4.84721 -2.52404 0
M  V30 4764 H 445.926 0.749253 -0.35007 0
M  V30 4765 H 448.472 1.06668 -1.31985 0
M  V30 4766 H 447.244 2.70908 -2.82355 0
M  V30 4767 H 446.867 3.70968 -1.43068 0
M  V30 4768 N 447.864 1.01787 1.20321 0
M  V30 4769 C 448.796 0.547357 2.22568 0
M  V30 4770 C 449.809 -0.370922 1.58518 0
M  V30 4771 O 450.998 -0.169067 1.77698 0
M  V30 4772 C 448.098 -0.223031 3.38165 0
M  V30 4773 C 447.271 0.697472 4.31803 0
M  V30 4774 C 446.33 -0.025562 5.26194 0
M  V30 4775 O 445.356 0.597367 5.66057 0
M  V30 4776 N 446.558 -1.29999 5.65757 0
M  V30 4777 H 449.323 1.42668 2.63564 0
M  V30 4778 H 446.884 0.895552 1.34876 0
M  V30 4779 H 448.876 -0.716002 3.98316 0
M  V30 4780 H 447.446 -1.00366 2.9605 0
M  V30 4781 H 446.666 1.37073 3.69601 0
M  V30 4782 H 447.954 1.32347 4.91286 0
M  V30 4783 H 447.352 -1.827 5.35385 0
M  V30 4784 H 445.909 -1.73766 6.28211 0
M  V30 4785 N 449.342 -1.36122 0.79427 0
M  V30 4786 C 450.252 -2.33769 0.197296 0
M  V30 4787 C 451.268 -1.61276 -0.653153 0
M  V30 4788 O 452.444 -1.9323 -0.5678 0
M  V30 4789 C 449.509 -3.40474 -0.654098 0
M  V30 4790 C 448.57 -4.28759 0.215411 0
M  V30 4791 C 447.803 -5.30368 -0.595443 0
M  V30 4792 O 448.026 -5.40211 -1.83107 0
M  V30 4793 O 446.96 -6.019 0.00721351 0
M  V30 4794 H 450.786 -2.86597 1.00478 0
M  V30 4795 H 448.371 -1.38676 0.555818 0
M  V30 4796 H 450.253 -4.05703 -1.13944 0
M  V30 4797 H 448.928 -2.89937 -1.43938 0
M  V30 4798 H 447.835 -3.66554 0.747615 0
M  V30 4799 H 449.168 -4.82661 0.964332 0
M  V30 4800 N 450.82 -0.546701 -1.47814 0
M  V30 4801 C 451.783 0.196287 -2.28358 0
M  V30 4802 C 452.783 0.852437 -1.36346 0
M  V30 4803 O 453.973 0.709913 -1.59078 0
M  V30 4804 C 451.105 1.28579 -3.15722 0
M  V30 4805 H 452.298 -0.511086 -2.95513 0
M  V30 4806 H 449.851 -0.303248 -1.5333 0
M  V30 4807 H 450.586 2.0259 -2.53235 0
M  V30 4808 H 450.371 0.820229 -3.83425 0
M  V30 4809 H 451.861 1.80793 -3.76435 0
M  V30 4810 N 452.299 1.55045 -0.282633 0
M  V30 4811 C 453.231 2.2023 0.634924 0
M  V30 4812 C 454.244 1.18931 1.11172 0
M  V30 4813 O 455.433 1.4562 1.03233 0
M  V30 4814 C 452.533 2.82041 1.87899 0
M  V30 4815 C 451.706 4.091 1.54776 0
M  V30 4816 C 450.765 4.54887 2.64507 0
M  V30 4817 O 449.791 5.20496 2.30375 0
M  V30 4818 N 450.993 4.25659 3.94709 0
M  V30 4819 H 453.758 2.99601 0.0769811 0
M  V30 4820 H 451.319 1.61565 -0.104048 0
M  V30 4821 H 453.311 3.09613 2.60619 0
M  V30 4822 H 451.881 2.06618 2.3458 0
M  V30 4823 H 451.101 3.88736 0.654049 0
M  V30 4824 H 452.389 4.9187 1.30158 0
M  V30 4825 H 451.787 3.7306 4.25256 0
M  V30 4826 H 450.344 4.57984 4.63782 0
M  V30 4827 N 453.777 0.010035 1.57597 0
M  V30 4828 C 454.724 -0.978122 2.09049 0
M  V30 4829 C 455.694 -1.33509 0.988159 0
M  V30 4830 O 456.879 -1.43172 1.26121 0
M  V30 4831 C 454.019 -2.26158 2.60666 0
M  V30 4832 C 453.132 -1.96275 3.84838 0
M  V30 4833 C 452.267 -3.18776 4.24918 0
M  V30 4834 C 451.306 -2.84625 5.41899 0
M  V30 4835 N 450.443 -3.99693 5.77226 0
M  V30 4836 H 455.283 -0.532431 2.93205 0
M  V30 4837 H 452.82 -0.251234 1.44939 0
M  V30 4838 H 454.778 -3.01202 2.88675 0
M  V30 4839 H 453.408 -2.68378 1.79369 0
M  V30 4840 H 452.46 -1.11555 3.63675 0
M  V30 4841 H 453.772 -1.67111 4.69974 0
M  V30 4842 H 452.926 -4.02157 4.54262 0
M  V30 4843 H 451.665 -3.51087 3.38511 0
M  V30 4844 H 450.67 -1.99653 5.12268 0
M  V30 4845 H 451.895 -2.53551 6.29991 0
M  V30 4846 H 449.841 -4.31882 4.93776 0
M  V30 4847 H 449.758 -3.74087 6.56959 0
M  V30 4848 H 451.026 -4.83834 6.11167 0
M  V30 4849 N 455.255 -1.55392 -0.262866 0
M  V30 4850 C 456.205 -1.85355 -1.32768 0
M  V30 4851 C 457.189 -0.713188 -1.44231 0
M  V30 4852 O 458.381 -0.974765 -1.47741 0
M  V30 4853 C 455.51 -2.13781 -2.68612 0
M  V30 4854 C 454.596 -3.34104 -2.61219 0
M  V30 4855 N 454.987 -4.53766 -2.2345 0
M  V30 4856 C 453.285 -3.36895 -2.92263 0
M  V30 4857 C 453.986 -5.35877 -2.26298 0
M  V30 4858 N 452.962 -4.74536 -2.65172 0
M  V30 4859 H 456.764 -2.75413 -1.02591 0
M  V30 4860 H 454.278 -1.55405 -0.471503 0
M  V30 4861 H 456.275 -2.33407 -3.45437 0
M  V30 4862 H 454.935 -1.25013 -2.99669 0
M  V30 4863 H 455.946 -4.79682 -1.95258 0
M  V30 4864 H 452.623 -2.58351 -3.27965 0
M  V30 4865 H 454.013 -6.41577 -1.99572 0
M  V30 4866 N 456.733 0.527833 -1.48498 0
M  V30 4867 C 457.663 1.64136 -1.66077 0
M  V30 4868 C 458.644 1.62286 -0.509625 0
M  V30 4869 O 459.829 1.79449 -0.742413 0
M  V30 4870 C 456.959 3.02717 -1.70234 0
M  V30 4871 C 455.913 3.19426 -2.8487 0
M  V30 4872 C 455.239 4.5909 -2.74118 0
M  V30 4873 C 456.539 3.01993 -4.26142 0
M  V30 4874 H 458.233 1.4968 -2.593 0
M  V30 4875 H 455.779 0.718654 -1.24785 0
M  V30 4876 H 457.732 3.80491 -1.8112 0
M  V30 4877 H 456.456 3.18201 -0.735911 0
M  V30 4878 H 455.115 2.4407 -2.73542 0
M  V30 4879 H 454.763 4.71413 -1.7544 0
M  V30 4880 H 454.463 4.71214 -3.51042 0
M  V30 4881 H 455.987 5.3896 -2.86974 0
M  V30 4882 H 457.401 3.69558 -4.38292 0
M  V30 4883 H 455.798 3.2561 -5.04082 0
M  V30 4884 H 456.868 1.98396 -4.42456 0
M  V30 4885 N 458.211 1.37122 0.776871 0
M  V30 4886 C 459.457 1.3325 1.53675 0
M  V30 4887 C 459.812 -0.0839891 1.92217 0
M  V30 4888 O 459.105 -1.04145 1.60824 0
M  V30 4889 C 459.299 2.20068 2.81611 0
M  V30 4890 C 459.128 3.70016 2.55574 0
M  V30 4891 C 457.898 4.39144 2.4996 0
M  V30 4892 C 460.096 4.62996 2.23917 0
M  V30 4893 N 458.078 5.74663 2.15953 0
M  V30 4894 C 459.449 5.86854 2.00005 0
M  V30 4895 C 461.504 4.51433 2.1003 0
M  V30 4896 C 460.207 7.00446 1.63609 0
M  V30 4897 C 462.233 5.64905 1.75033 0
M  V30 4898 C 461.595 6.8781 1.51977 0
M  V30 4899 H 457.694 0.542878 0.562856 0
M  V30 4900 H 460.278 1.72295 0.906784 0
M  V30 4901 H 458.449 1.83248 3.42454 0
M  V30 4902 H 460.181 2.07492 3.47461 0
M  V30 4903 H 456.936 3.92088 2.65639 0
M  V30 4904 H 457.36 6.46268 2.0166 0
M  V30 4905 H 462.002 3.56987 2.26539 0
M  V30 4906 H 459.72 7.94831 1.45837 0
M  V30 4907 H 463.306 5.57926 1.64952 0
M  V30 4908 H 462.186 7.74126 1.25296 0
M  V30 4909 N 459.689 -1.00246 1.21608 0
M  V30 4910 C 460.966 -1.71336 0.943568 0
M  V30 4911 C 461.346 -2.03972 -0.543943 0
M  V30 4912 O 460.694 -1.71545 -1.50946 0
M  V30 4913 C 460.904 -2.97094 1.83128 0
M  V30 4914 C 462.252 -3.70071 2.08165 0
M  V30 4915 O 463.276 -3.07081 1.80498 0
M  V30 4916 O 462.135 -4.83376 2.54971 0
M  V30 4917 H 459.229 -0.747386 0.354039 0
M  V30 4918 H 461.775 -1.05967 1.32549 0
M  V30 4919 H 460.547 -2.69407 2.83788 0
M  V30 4920 H 460.17 -3.70204 1.45034 0
M  V30 4921 N 461.167 -1.02423 -1.1978 0
M  V30 4922 C 462.416 -0.713265 -1.88667 0
M  V30 4923 C 462.729 0.7609 -1.80193 0
M  V30 4924 O 463.935 1.18473 -2.44288 0
M  V30 4925 C 462.391 -1.22545 -3.38394 0
M  V30 4926 C 461.999 -2.72706 -3.55437 0
M  V30 4927 C 463.743 -0.990257 -4.12788 0
M  V30 4928 C 461.65 -3.17367 -4.99031 0
M  V30 4929 H 460.58 -0.263105 -0.706606 0
M  V30 4930 H 463.231 -1.23792 -1.35454 0
M  V30 4931 H 461.613 -0.628732 -3.90977 0
M  V30 4932 H 462.787 -3.37993 -3.13205 0
M  V30 4933 H 461.102 -2.94453 -2.94425 0
M  V30 4934 H 463.699 -1.29926 -5.18675 0
M  V30 4935 H 464.042 0.0730761 -4.16236 0
M  V30 4936 H 464.575 -1.55074 -3.66329 0
M  V30 4937 H 461.314 -4.23009 -5.00743 0
M  V30 4938 H 460.834 -2.56805 -5.42044 0
M  V30 4939 H 462.513 -3.10441 -5.67658 0
M  V30 4940 N 462.645 1.35699 -0.801477 0
M  V30 4941 C 463.875 2.02862 -0.3912 0
M  V30 4942 C 464.283 1.60552 1.00099 0
M  V30 4943 O 463.626 0.796215 1.65548 0
M  V30 4944 C 463.688 3.57386 -0.389299 0
M  V30 4945 C 463.352 4.22943 -1.73113 0
M  V30 4946 C 464.349 4.44984 -2.68859 0
M  V30 4947 C 462.034 4.60167 -2.01373 0
M  V30 4948 C 464.028 5.03345 -3.91053 0
M  V30 4949 C 461.715 5.18243 -3.23832 0
M  V30 4950 C 462.713 5.39773 -4.1849 0
M  V30 4951 O 462.401 5.96626 -5.38788 0
M  V30 4952 H 462.133 0.657341 -0.157732 0
M  V30 4953 H 464.687 1.74407 -1.08496 0
M  V30 4954 H 462.917 3.85011 0.361031 0
M  V30 4955 H 464.606 4.059 -0.0020365 0
M  V30 4956 H 465.372 4.1661 -2.48316 0
M  V30 4957 H 461.251 4.42726 -1.28508 0
M  V30 4958 H 464.795 5.20065 -4.64949 0
M  V30 4959 H 460.692 5.46044 -3.44248 0
M  V30 4960 H 461.46 6.15082 -5.40015 0
M  V30 4961 N 464.123 0.554532 1.47522 0
M  V30 4962 C 465.071 -0.207765 2.3167 0
M  V30 4963 C 466.065 -0.911914 1.4276 0
M  V30 4964 O 467.271 -0.833504 1.59539 0
M  V30 4965 H 463.646 -0.0858726 0.747081 0
M  V30 4966 H 465.617 0.521178 2.93813 0
M  V30 4967 C 464.366 -1.2263 3.25357 0
M  V30 4968 H 463.689 -0.693887 3.93732 0
M  V30 4969 H 465.129 -1.73062 3.87073 0
M  V30 4970 C 463.588 -2.27278 2.4869 0
M  V30 4971 O 464.118 -3.34156 2.22941 0
M  V30 4972 N 462.324 -2.01134 2.09746 0
M  V30 4973 H 461.871 -1.14232 2.30887 0
M  V30 4974 H 461.829 -2.71369 1.58765 0
M  V30 4975 N 465.601 -1.54893 0.290851 0
M  V30 4976 C 466.829 -2.04343 -0.324288 0
M  V30 4977 C 467.244 -1.16859 -1.48289 0
M  V30 4978 O 466.601 -0.192018 -1.81487 0
M  V30 4979 C 466.652 -3.52756 -0.79026 0
M  V30 4980 O 466.373 -4.36913 0.322213 0
M  V30 4981 C 467.874 -4.18161 -1.4716 0
M  V30 4982 H 465.094 -0.667135 -0.0719173 0
M  V30 4983 H 467.638 -1.99981 0.427529 0
M  V30 4984 H 465.793 -3.57511 -1.49213 0
M  V30 4985 H 466.207 -5.24486 -0.0387372 0
M  V30 4986 H 467.681 -5.23562 -1.7489 0
M  V30 4987 H 468.158 -3.67282 -2.40834 0
M  V30 4988 H 468.764 -4.17454 -0.813178 0
M  V30 4989 N 467.08 -0.0183926 -1.57589 0
M  V30 4990 C 468.357 0.700621 -1.82622 0
M  V30 4991 C 468.737 1.90951 -0.90005 0
M  V30 4992 O 468.085 2.28452 0.0469145 0
M  V30 4993 C 468.295 1.08899 -3.31575 0
M  V30 4994 C 469.643 1.48514 -3.9778 0
M  V30 4995 O 470.667 1.18227 -3.36007 0
M  V30 4996 O 469.526 2.04903 -5.06633 0
M  V30 4997 H 466.62 0.342743 -0.752633 0
M  V30 4998 H 469.166 -0.0452548 -1.6964 0
M  V30 4999 H 467.938 0.228113 -3.90635 0
M  V30 5000 H 467.561 1.89338 -3.49624 0
M  V30 5001 N 468.558 1.5553 0.254621 0
M  V30 5002 C 469.468 1.92789 1.33677 0
M  V30 5003 C 470.484 0.827356 1.53071 0
M  V30 5004 O 471.66 1.12807 1.66843 0
M  V30 5005 C 468.725 2.20827 2.67275 0
M  V30 5006 C 467.786 3.4427 2.5647 0
M  V30 5007 C 467.019 3.70961 3.83697 0
M  V30 5008 O 467.242 2.99852 4.85227 0
M  V30 5009 O 466.176 4.64491 3.82794 0
M  V30 5010 H 470.002 2.84945 1.05071 0
M  V30 5011 H 467.587 1.42312 0.454723 0
M  V30 5012 H 469.469 2.40204 3.46237 0
M  V30 5013 H 468.144 1.31851 2.9563 0
M  V30 5014 H 467.051 3.30209 1.75821 0
M  V30 5015 H 468.384 4.33524 2.33062 0
M  V30 5016 N 470.036 -0.519951 1.48776 0
M  V30 5017 C 471.266 -1.29783 1.60748 0
M  V30 5018 C 471.674 -1.87253 0.27072 0
M  V30 5019 O 471.017 -1.67628 -0.751438 0
M  V30 5020 C 471.079 -2.47984 2.60277 0
M  V30 5021 C 470.743 -2.11526 4.051 0
M  V30 5022 C 471.74 -1.66608 4.92481 0
M  V30 5023 C 469.425 -2.21742 4.50706 0
M  V30 5024 C 471.419 -1.32384 6.23501 0
M  V30 5025 C 469.106 -1.87129 5.81744 0
M  V30 5026 C 470.104 -1.42523 6.67964 0
M  V30 5027 O 469.792 -1.0837 7.96562 0
M  V30 5028 H 469.524 -0.400562 0.544542 0
M  V30 5029 H 472.078 -0.632879 1.95407 0
M  V30 5030 H 470.308 -3.17493 2.2076 0
M  V30 5031 H 471.997 -3.10036 2.61978 0
M  V30 5032 H 472.763 -1.58178 4.58481 0
M  V30 5033 H 468.642 -2.55415 3.83776 0
M  V30 5034 H 472.186 -0.974949 6.90754 0
M  V30 5035 H 468.083 -1.95204 6.15277 0
M  V30 5036 H 468.851 -1.21681 8.09405 0
M  V30 5037 N 471.514 -1.37532 -0.769588 0
M  V30 5038 C 472.76 -1.33057 -1.53048 0
M  V30 5039 C 473.093 0.0841865 -1.94017 0
M  V30 5040 O 472.368 1.04198 -1.64235 0
M  V30 5041 C 472.651 -2.27166 -2.79406 0
M  V30 5042 C 472.504 -3.77429 -2.44677 0
M  V30 5043 C 473.823 -2.19683 -3.81349 0
M  V30 5044 H 470.942 -0.484655 -0.555228 0
M  V30 5045 H 473.584 -1.68251 -0.882702 0
M  V30 5046 H 471.734 -1.97283 -3.34682 0
M  V30 5047 H 473.406 -4.17918 -1.953 0
M  V30 5048 H 471.649 -3.95892 -1.77346 0
M  V30 5049 H 472.32 -4.38716 -3.35011 0
M  V30 5050 H 474.796 -2.46029 -3.35573 0
M  V30 5051 H 473.672 -2.87668 -4.67481 0
M  V30 5052 H 473.933 -1.19045 -4.25771 0
M  V30 5053 N 472.992 0.995999 -1.22138 0
M  V30 5054 C 473.955 2.06711 -0.990109 0
M  V30 5055 C 474.955 1.60744 0.0422978 0
M  V30 5056 O 476.145 1.73095 -0.195895 0
M  V30 5057 C 473.277 3.37288 -0.49491 0
M  V30 5058 H 474.47 2.28661 -1.94047 0
M  V30 5059 H 472.023 1.16711 -1.03963 0
M  V30 5060 H 472.758 3.21022 0.459948 0
M  V30 5061 H 472.543 3.71986 -1.23971 0
M  V30 5062 H 474.033 4.16103 -0.353253 0
M  V30 5063 N 474.47 1.03057 1.19235 0
M  V30 5064 C 475.7 0.746613 1.92638 0
M  V30 5065 C 476.108 -0.698708 1.75826 0
M  V30 5066 O 475.451 -1.487 1.07861 0
M  V30 5067 C 475.513 1.02024 3.44719 0
M  V30 5068 C 475.177 2.45745 3.85303 0
M  V30 5069 C 476.174 3.43887 3.8992 0
M  V30 5070 C 473.859 2.8019 4.16892 0
M  V30 5071 C 475.853 4.74529 4.2556 0
M  V30 5072 C 473.54 4.1104 4.52205 0
M  V30 5073 C 474.538 5.0802 4.56513 0
M  V30 5074 O 474.226 6.36527 4.91008 0
M  V30 5075 H 473.958 0.272401 0.618687 0
M  V30 5076 H 476.512 1.37853 1.52269 0
M  V30 5077 H 474.742 0.331184 3.85279 0
M  V30 5078 H 476.431 0.725677 3.9936 0
M  V30 5079 H 477.197 3.18614 3.65664 0
M  V30 5080 H 473.076 2.05382 4.12722 0
M  V30 5081 H 476.62 5.50222 4.28838 0
M  V30 5082 H 472.517 4.36086 4.7592 0
M  V30 5083 H 473.285 6.41025 5.08949 0
M  V30 5084 N 475.948 -1.35272 0.808662 0
M  V30 5085 C 477.359 -1.81179 0.450688 0
M  V30 5086 C 477.71 -1.67143 -1.02751 0
M  V30 5087 O 476.835 -1.20325 -1.79864 0
M  V30 5088 C 477.43 -3.28943 0.811275 0
M  V30 5089 C 475.989 -3.72985 0.505871 0
M  V30 5090 C 475.136 -2.57229 1.03578 0
M  V30 5091 H 478.087 -1.2322 1.00012 0
M  V30 5092 H 478.108 -3.80342 0.109588 0
M  V30 5093 H 477.62 -3.39127 1.88718 0
M  V30 5094 H 475.721 -3.68349 -0.561209 0
M  V30 5095 H 475.834 -4.67677 1.03995 0
M  V30 5096 H 474.198 -2.50548 0.458005 0
M  V30 5097 H 474.981 -2.7019 2.11784 0
M  V30 5098 N 477.426 -0.562348 -1.47226 0
M  V30 5099 C 478.703 0.0256985 -1.95583 0
M  V30 5100 C 479.083 1.48032 -1.50498 0
M  V30 5101 O 478.431 2.15973 -0.746181 0
M  V30 5102 C 478.641 -0.125129 -3.48776 0
M  V30 5103 C 479.989 0.0175728 -4.24596 0
M  V30 5104 O 481.013 -0.0529341 -3.56161 0
M  V30 5105 O 479.872 0.170145 -5.46235 0
M  V30 5106 H 476.966 0.0612565 -0.824728 0
M  V30 5107 H 479.512 -0.629233 -1.57603 0
M  V30 5108 H 478.284 -1.13715 -3.74412 0
M  V30 5109 H 477.907 0.567178 -3.93534 0
M  V30 5110 N 478.904 1.54736 -0.299062 0
M  V30 5111 C 480.181 1.92187 0.363802 0
M  V30 5112 C 480.561 1.22607 1.71845 0
M  V30 5113 O 479.909 0.361141 2.25628 0
M  V30 5114 C 480.119 3.45678 0.480377 0
M  V30 5115 C 481.467 4.17885 0.752147 0
M  V30 5116 O 482.491 3.51702 0.564264 0
M  V30 5117 O 481.35 5.35048 1.11294 0
M  V30 5118 H 478.444 0.801681 0.203066 0
M  V30 5119 H 480.99 1.66115 -0.346978 0
M  V30 5120 H 479.762 3.88443 -0.471999 0
M  V30 5121 H 479.385 3.77779 1.2397 0
M  V30 5122 N 480.382 0.0267497 1.57577 0
M  V30 5123 C 481.292 -0.971633 2.13533 0
M  V30 5124 C 482.308 -1.35868 1.08701 0
M  V30 5125 O 483.484 -1.44058 1.40746 0
M  V30 5126 C 480.549 -2.23622 2.64941 0
M  V30 5127 C 479.61 -1.90982 3.8448 0
M  V30 5128 C 478.843 -3.11411 4.33427 0
M  V30 5129 O 479.066 -4.23992 3.81558 0
M  V30 5130 O 478 -2.93848 5.25297 0
M  V30 5131 H 481.826 -0.525853 2.99113 0
M  V30 5132 H 479.411 -0.193712 1.48139 0
M  V30 5133 H 481.293 -2.97864 2.98086 0
M  V30 5134 H 479.968 -2.67386 1.82446 0
M  V30 5135 H 478.875 -1.14132 3.56265 0
M  V30 5136 H 480.208 -1.52036 4.6813 0
M  V30 5137 N 481.861 -1.55662 -0.24637 0
M  V30 5138 C 482.791 -1.93377 -1.30873 0
M  V30 5139 C 483.772 -0.798773 -1.50179 0
M  V30 5140 O 484.957 -1.0591 -1.62778 0
M  V30 5141 C 482.087 -2.22893 -2.66338 0
M  V30 5142 C 481.041 -3.38649 -2.61727 0
M  V30 5143 C 480.367 -3.53708 -4.00992 0
M  V30 5144 C 481.667 -4.74323 -2.18666 0
M  V30 5145 H 483.361 -2.82363 -0.995552 0
M  V30 5146 H 480.907 -1.35854 -0.477464 0
M  V30 5147 H 482.86 -2.47866 -3.40794 0
M  V30 5148 H 481.584 -1.30733 -2.99293 0
M  V30 5149 H 480.243 -3.13685 -1.89729 0
M  V30 5150 H 479.891 -2.58967 -4.31214 0
M  V30 5151 H 479.591 -4.31551 -3.98795 0
M  V30 5152 H 481.115 -3.81003 -4.77147 0
M  V30 5153 H 482.529 -4.98665 -2.82854 0
M  V30 5154 H 480.926 -5.55273 -2.27579 0
M  V30 5155 H 481.996 -4.71349 -1.13834 0
M  V30 5156 N 483.339 0.512053 -1.4905 0
M  V30 5157 C 484.271 1.63121 -1.6101 0
M  V30 5158 C 485.284 1.55145 -0.493352 0
M  V30 5159 O 486.473 1.61278 -0.764955 0
M  V30 5160 C 483.573 3.01863 -1.54052 0
M  V30 5161 C 482.746 3.35138 -2.81072 0
M  V30 5162 C 481.805 4.5324 -2.67319 0
M  V30 5163 O 480.831 4.55571 -3.41238 0
M  V30 5164 N 482.033 5.52495 -1.78127 0
M  V30 5165 H 484.798 1.53292 -2.5753 0
M  V30 5166 H 482.359 0.699706 -1.45999 0
M  V30 5167 H 484.351 3.78774 -1.42521 0
M  V30 5168 H 482.921 3.05675 -0.654345 0
M  V30 5169 H 482.141 2.4723 -3.07036 0
M  V30 5170 H 483.429 3.54162 -3.65304 0
M  V30 5171 H 482.827 5.53403 -1.17308 0
M  V30 5172 H 481.384 6.28553 -1.72525 0
M  V30 5173 N 484.817 1.37938 0.762283 0
M  V30 5174 C 486.063 1.33866 1.52341 0
M  V30 5175 C 486.396 -0.0738961 1.94059 0
M  V30 5176 O 485.671 -1.03326 1.64785 0
M  V30 5177 C 485.954 2.28644 2.78197 0
M  V30 5178 C 485.807 3.78722 2.42672 0
M  V30 5179 C 487.126 2.21702 3.80179 0
M  V30 5180 H 484.245 0.487593 0.55265 0
M  V30 5181 H 486.887 1.68717 0.873767 0
M  V30 5182 H 485.037 1.99055 3.33631 0
M  V30 5183 H 486.709 4.18948 1.93081 0
M  V30 5184 H 484.952 3.96827 1.75244 0
M  V30 5185 H 485.623 4.40486 3.3268 0
M  V30 5186 H 488.099 2.47805 3.34263 0
M  V30 5187 H 486.975 2.90143 4.65949 0
M  V30 5188 H 487.236 1.21301 4.25133 0
M  V30 5189 N 486.295 -0.989507 1.22664 0
M  V30 5190 C 487.258 -2.06183 1.00106 0
M  V30 5191 C 488.258 -1.60765 -0.0337726 0
M  V30 5192 O 489.448 -1.72989 0.205072 0
M  V30 5193 C 486.58 -3.37021 0.51279 0
M  V30 5194 H 487.773 -2.27629 1.95256 0
M  V30 5195 H 485.326 -1.16158 1.0458 0
M  V30 5196 H 486.061 -3.21261 -0.442917 0
M  V30 5197 H 485.846 -3.71323 1.25942 0
M  V30 5198 H 487.336 -4.1591 0.375315 0
M  V30 5199 N 487.773 -1.03688 -1.18687 0
M  V30 5200 C 488.998 -0.757819 -1.93059 0
M  V30 5201 C 489.423 0.678353 -1.75442 0
M  V30 5202 O 488.781 1.46938 -1.06203 0
M  V30 5203 C 488.829 -1.12423 -3.42627 0
M  V30 5204 O 487.933 -0.247505 -4.11657 0
M  V30 5205 H 487.274 -0.279245 -0.602427 0
M  V30 5206 H 489.804 -1.3857 -1.5053 0
M  V30 5207 H 489.814 -1.08454 -3.93322 0
M  V30 5208 H 488.489 -2.17049 -3.54771 0
M  V30 5209 H 487.066 -0.34649 -3.71287 0
M  V30 5210 N 489.251 1.34841 -0.815825 0
M  V30 5211 C 490.479 2.0273 -0.413294 0
M  V30 5212 C 490.894 1.61459 0.978599 0
M  V30 5213 O 490.251 0.816584 1.63212 0
M  V30 5214 C 490.302 3.58058 -0.497676 0
M  V30 5215 O 490.023 3.97832 -1.8347 0
M  V30 5216 C 491.524 4.4321 -0.0891339 0
M  V30 5217 H 488.744 0.649956 -0.166728 0
M  V30 5218 H 491.288 1.72267 -1.10201 0
M  V30 5219 H 489.443 3.87136 0.142886 0
M  V30 5220 H 489.857 4.92501 -1.80396 0
M  V30 5221 H 491.331 5.5164 -0.199274 0
M  V30 5222 H 491.808 4.28432 0.966571 0
M  V30 5223 H 492.414 4.19446 -0.703214 0
M  V30 5224 N 490.729 0.570148 1.46925 0
M  V30 5225 C 491.978 0.0487352 2.01641 0
M  V30 5226 C 492.291 -1.31433 1.44861 0
M  V30 5227 O 493.497 -1.92638 1.91318 0
M  V30 5228 C 491.953 0.0365817 3.59881 0
M  V30 5229 C 491.561 1.39719 4.25655 0
M  V30 5230 C 493.305 -0.431545 4.22301 0
M  V30 5231 C 491.212 1.34345 5.75939 0
M  V30 5232 H 490.142 0.0144492 0.753862 0
M  V30 5233 H 492.793 0.719928 1.68788 0
M  V30 5234 H 491.175 -0.700522 3.89755 0
M  V30 5235 H 492.349 2.15303 4.07408 0
M  V30 5236 H 490.664 1.80431 3.75278 0
M  V30 5237 H 493.261 -0.490354 5.32447 0
M  V30 5238 H 493.604 -1.44638 3.90366 0
M  V30 5239 H 494.137 0.251102 3.97007 0
M  V30 5240 H 490.876 2.33469 6.12513 0
M  V30 5241 H 490.396 0.629615 5.96486 0
M  V30 5242 H 492.075 1.051 6.38407 0
M  V30 5243 N 492.207 -1.54576 0.307264 0
M  V30 5244 C 493.453 -2.0056 -0.300612 0
M  V30 5245 C 493.786 -1.1953 -1.53057 0
M  V30 5246 O 493.061 -0.27337 -1.92569 0
M  V30 5247 C 493.344 -3.54167 -0.650987 0
M  V30 5248 C 493.197 -4.45933 0.588539 0
M  V30 5249 C 494.516 -4.14645 -1.47506 0
M  V30 5250 H 491.635 -0.729075 -0.107788 0
M  V30 5251 H 494.277 -1.85286 0.420606 0
M  V30 5252 H 492.427 -3.67313 -1.26544 0
M  V30 5253 H 494.099 -4.44683 1.22697 0
M  V30 5254 H 492.342 -4.16274 1.22058 0
M  V30 5255 H 493.013 -5.51189 0.299153 0
M  V30 5256 H 495.489 -4.04973 -0.955821 0
M  V30 5257 H 494.365 -5.22269 -1.68899 0
M  V30 5258 H 494.626 -3.66921 -2.4662 0
M  V30 5259 N 493.685 -0.035106 -1.57561 0
M  V30 5260 C 494.962 0.681212 -1.83354 0
M  V30 5261 C 495.342 1.89986 -0.920252 0
M  V30 5262 O 494.69 2.28489 0.0226815 0
M  V30 5263 C 494.9 1.05376 -3.32712 0
M  V30 5264 C 496.248 1.44286 -3.99333 0
M  V30 5265 O 497.272 1.14656 -3.37242 0
M  V30 5266 O 496.131 1.99518 -5.08778 0
M  V30 5267 H 493.225 0.334741 -0.756226 0
M  V30 5268 H 495.771 -0.0632448 -1.69582 0
M  V30 5269 H 494.543 0.186668 -3.90854 0
M  V30 5270 H 494.166 1.85619 -3.51613 0
M  V30 5271 N 495.163 1.55791 0.238111 0
M  V30 5272 C 496.409 1.78297 0.966337 0
M  V30 5273 C 496.742 0.601903 1.84637 0
M  V30 5274 O 496.017 -0.399499 1.90353 0
M  V30 5275 C 496.3 3.10758 1.81939 0
M  V30 5276 C 496.153 4.39283 0.966958 0
M  V30 5277 C 497.472 3.39519 2.80027 0
M  V30 5278 H 494.591 0.648654 0.349882 0
M  V30 5279 H 497.233 1.88525 0.236253 0
M  V30 5280 H 495.383 3.02168 2.44185 0
M  V30 5281 H 497.055 4.59873 0.362514 0
M  V30 5282 H 495.298 4.32948 0.271669 0
M  V30 5283 H 495.969 5.28368 1.59784 0
M  V30 5284 H 498.445 3.48128 2.27917 0
M  V30 5285 H 497.321 4.33402 3.36829 0
M  V30 5286 H 497.582 2.60864 3.56934 0
M  V30 5287 N 496.642 -0.504142 1.49319 0
M  V30 5288 C 497.867 -1.28729 1.62615 0
M  V30 5289 C 498.292 -1.85752 0.296309 0
M  V30 5290 O 497.65 -1.65704 -0.735649 0
M  V30 5291 C 497.698 -2.39561 2.69524 0
M  V30 5292 O 496.802 -3.43324 2.28478 0
M  V30 5293 H 496.143 -0.380172 0.544395 0
M  V30 5294 H 498.673 -0.603872 1.95485 0
M  V30 5295 H 498.683 -2.8537 2.91595 0
M  V30 5296 H 497.358 -1.97423 3.66056 0
M  V30 5297 H 495.935 -3.03455 2.16725 0
M  V30 5298 N 498.12 -1.38341 -0.754957 0
M  V30 5299 C 499.068 -1.35573 -1.89005 0
M  V30 5300 C 500.062 -0.241824 -1.67665 0
M  V30 5301 O 501.268 -0.410785 -1.7525 0
M  V30 5302 H 497.643 -0.422898 -0.621821 0
M  V30 5303 H 499.614 -2.31359 -1.88455 0
M  V30 5304 C 498.363 -1.19631 -3.26471 0
M  V30 5305 H 497.686 -2.04605 -3.43477 0
M  V30 5306 H 499.126 -1.21748 -4.06144 0
M  V30 5307 C 497.585 0.0968705 -3.36761 0
M  V30 5308 O 498.115 1.07439 -3.87066 0
M  V30 5309 N 496.321 0.153242 -2.90196 0
M  V30 5310 H 495.868 -0.642908 -2.49448 0
M  V30 5311 H 495.826 1.01807 -2.9746 0
M  V30 5312 N 499.598 0.982988 -1.23187 0
M  V30 5313 C 500.846 1.72052 -1.06031 0
M  V30 5314 C 501.167 1.90769 0.404019 0
M  V30 5315 O 500.437 1.47446 1.28982 0
M  V30 5316 H 499.017 0.637499 -0.389363 0
M  V30 5317 H 501.679 1.18338 -1.54862 0
M  V30 5318 H 500.775 2.7111 -1.54615 0
M  V30 5319 N 501.076 1.04316 1.18135 0
M  V30 5320 C 502.023 0.636398 2.21853 0
M  V30 5321 C 502.993 -0.357039 1.62217 0
M  V30 5322 O 504.178 -0.250453 1.89149 0
M  V30 5323 C 501.318 0.00812779 3.45099 0
M  V30 5324 C 500.431 1.04933 4.19062 0
M  V30 5325 C 499.566 0.389313 5.29771 0
M  V30 5326 C 498.605 1.41544 5.9551 0
M  V30 5327 N 497.742 0.78021 6.97751 0
M  V30 5328 H 502.582 1.52536 2.56002 0
M  V30 5329 H 500.119 0.76304 1.25762 0
M  V30 5330 H 502.077 -0.373497 4.15525 0
M  V30 5331 H 500.707 -0.844336 3.11562 0
M  V30 5332 H 499.759 1.54888 3.47439 0
M  V30 5333 H 501.071 1.82862 4.64072 0
M  V30 5334 H 500.225 -0.0463805 6.06682 0
M  V30 5335 H 498.964 -0.422038 4.8587 0
M  V30 5336 H 497.969 1.86124 5.17337 0
M  V30 5337 H 499.194 2.22854 6.41493 0
M  V30 5338 H 497.14 -0.0107899 6.55999 0
M  V30 5339 H 497.057 1.49716 7.41027 0
M  V30 5340 H 498.325 0.368996 7.78626 0
M  V30 5341 N 502.554 -1.34406 0.822964 0
M  V30 5342 C 503.8 -1.98578 0.411666 0
M  V30 5343 C 504.133 -1.65093 -1.02264 0
M  V30 5344 O 503.408 -0.92258 -1.71227 0
M  V30 5345 C 503.691 -3.54823 0.614235 0
M  V30 5346 C 503.544 -3.9805 2.09466 0
M  V30 5347 C 504.863 -4.40071 0.050221 0
M  V30 5348 H 501.982 -0.721355 0.151047 0
M  V30 5349 H 504.624 -1.59301 1.03554 0
M  V30 5350 H 502.774 -3.88411 0.0831774 0
M  V30 5351 H 504.446 -3.74795 2.68936 0
M  V30 5352 H 502.689 -3.4836 2.5851 0
M  V30 5353 H 503.36 -5.06819 2.18721 0
M  V30 5354 H 505.836 -4.13037 0.503953 0
M  V30 5355 H 504.712 -5.48452 0.221759 0
M  V30 5356 H 504.973 -4.29576 -1.04482 0
M  V30 5357 N 504.032 -0.577932 -1.46621 0
M  V30 5358 C 505.281 -0.0594281 -2.01612 0
M  V30 5359 C 505.594 1.30663 -1.45556 0
M  V30 5360 O 506.8 1.91621 -1.92337 0
M  V30 5361 C 505.256 -0.0556666 -3.59857 0
M  V30 5362 C 504.864 -1.41975 -4.24908 0
M  V30 5363 C 506.608 0.409143 -4.22524 0
M  V30 5364 C 504.515 -1.37397 -5.75218 0
M  V30 5365 H 503.445 -0.0184469 -0.753774 0
M  V30 5366 H 506.096 -0.728869 -1.68404 0
M  V30 5367 H 504.478 0.679843 -3.90121 0
M  V30 5368 H 505.652 -2.17461 -4.0626 0
M  V30 5369 H 503.967 -1.82419 -3.74316 0
M  V30 5370 H 506.564 0.46211 -5.32699 0
M  V30 5371 H 506.907 1.42565 -3.91128 0
M  V30 5372 H 507.44 -0.272152 -3.96868 0
M  V30 5373 H 504.179 -2.36714 -6.11267 0
M  V30 5374 H 503.699 -0.661239 -5.96144 0
M  V30 5375 H 505.378 -1.08484 -6.3784 0
M  V30 5376 N 505.51 1.54411 -0.315457 0
M  V30 5377 C 506.473 2.22713 0.54142 0
M  V30 5378 C 507.473 1.2179 1.04995 0
M  V30 5379 O 508.663 1.46426 0.943667 0
M  V30 5380 C 505.795 2.92485 1.75116 0
M  V30 5381 H 506.988 2.99849 -0.0555508 0
M  V30 5382 H 504.541 1.56159 -0.0664453 0
M  V30 5383 H 505.276 2.19466 2.38758 0
M  V30 5384 H 505.061 3.66483 1.39401 0
M  V30 5385 H 506.551 3.44548 2.35959 0
M  V30 5386 N 506.988 0.0434614 1.5754 0
M  V30 5387 C 507.92 -0.962586 2.08007 0
M  V30 5388 C 508.933 -1.27972 1.00634 0
M  V30 5389 O 510.122 -1.24186 1.28219 0
M  V30 5390 C 507.222 -2.28621 2.50171 0
M  V30 5391 C 506.395 -2.15214 3.80791 0
M  V30 5392 C 505.454 -3.30633 4.09351 0
M  V30 5393 O 504.48 -3.0688 4.79388 0
M  V30 5394 N 505.682 -4.54873 3.60654 0
M  V30 5395 H 508.447 -0.531891 2.94942 0
M  V30 5396 H 506.008 -0.142965 1.61268 0
M  V30 5397 H 508 -3.04689 2.66359 0
M  V30 5398 H 506.57 -2.63283 1.68525 0
M  V30 5399 H 505.79 -1.23785 3.74261 0
M  V30 5400 H 507.078 -2.03475 4.66343 0
M  V30 5401 H 506.476 -4.77063 3.04019 0
M  V30 5402 H 505.033 -5.2806 3.82094 0
M  V30 5403 N 508.466 -1.55915 -0.229846 0
M  V30 5404 C 509.396 -1.94754 -1.28815 0
M  V30 5405 C 510.377 -0.814657 -1.49323 0
M  V30 5406 O 511.562 -1.07631 -1.61645 0
M  V30 5407 C 508.692 -2.25705 -2.63959 0
M  V30 5408 C 507.646 -3.41406 -2.5812 0
M  V30 5409 C 506.972 -3.57941 -3.97218 0
M  V30 5410 C 508.272 -4.76616 -2.13623 0
M  V30 5411 H 509.966 -2.83404 -0.965547 0
M  V30 5412 H 507.512 -1.36353 -0.463028 0
M  V30 5413 H 509.465 -2.51467 -3.38146 0
M  V30 5414 H 508.189 -1.339 -2.9789 0
M  V30 5415 H 506.848 -3.1568 -1.86391 0
M  V30 5416 H 506.496 -2.63526 -4.28443 0
M  V30 5417 H 506.196 -4.35757 -3.94195 0
M  V30 5418 H 507.72 -3.86042 -4.73079 0
M  V30 5419 H 509.134 -5.01637 -2.77549 0
M  V30 5420 H 507.531 -5.57655 -2.21677 0
M  V30 5421 H 508.601 -4.7253 -1.08829 0
M  V30 5422 N 509.944 0.496216 -1.49584 0
M  V30 5423 C 511.192 1.24756 -1.58998 0
M  V30 5424 C 511.513 1.92968 -0.280775 0
M  V30 5425 O 510.783 1.82959 0.700198 0
M  V30 5426 H 509.363 0.463471 -0.585836 0
M  V30 5427 H 512.025 0.574678 -1.86235 0
M  V30 5428 H 511.121 2.00895 -2.38847 0
M  V30 5429 N 511.423 1.38739 0.74761 0
M  V30 5430 C 512.386 1.36241 1.84312 0
M  V30 5431 C 513.386 0.261811 1.58654 0
M  V30 5432 O 514.576 0.519031 1.66288 0
M  V30 5433 C 511.708 1.12253 3.21888 0
M  V30 5434 H 512.901 2.33712 1.87933 0
M  V30 5435 H 510.454 1.2412 0.949946 0
M  V30 5436 H 511.189 0.154133 3.23934 0
M  V30 5437 H 510.974 1.91943 3.41907 0
M  V30 5438 H 512.464 1.13215 4.0196 0
M  V30 5439 N 512.901 -0.976442 1.23707 0
M  V30 5440 C 514.317 -1.24341 1.00058 0
M  V30 5441 C 514.517 -1.99315 -0.295932 0
M  V30 5442 O 513.573 -2.3123 -1.01435 0
M  V30 5443 C 514.886 -2.03909 2.21001 0
M  V30 5444 C 516.434 -2.17034 2.25534 0
M  V30 5445 C 516.909 -2.99994 3.46075 0
M  V30 5446 N 518.4 -3.07578 3.46338 0
M  V30 5447 C 519.135 -3.72104 4.36264 0
M  V30 5448 N 518.631 -4.3842 5.36432 0
M  V30 5449 N 520.424 -3.69029 4.23998 0
M  V30 5450 H 512.575 -0.47428 2.07037 0
M  V30 5451 H 514.838 -0.272167 0.908091 0
M  V30 5452 H 514.544 -1.56198 3.15111 0
M  V30 5453 H 514.418 -3.04654 2.22409 0
M  V30 5454 H 516.805 -2.63951 1.31961 0
M  V30 5455 H 516.886 -1.15664 2.28156 0
M  V30 5456 H 516.53 -2.53772 4.39957 0
M  V30 5457 H 516.46 -4.01541 3.40694 0
M  V30 5458 H 518.951 -2.60397 2.73865 0
M  V30 5459 H 519.264 -4.85447 6.013 0
M  V30 5460 H 517.609 -4.37116 5.40328 0
M  V30 5461 H 520.8 -3.16392 3.44984 0
M  V30 5462 H 520.973 -4.19034 4.94282 0
M  V30 5463 N 514.379 -1.04941 -1.1758 0
M  V30 5464 C 515.329 -0.618378 -2.19454 0
M  V30 5465 C 516.313 0.343813 -1.57184 0
M  V30 5466 O 517.505 0.16145 -1.76262 0
M  V30 5467 C 514.634 0.00803847 -3.43299 0
M  V30 5468 C 513.72 -0.977827 -4.12673 0
M  V30 5469 N 514.111 -2.14826 -4.57912 0
M  V30 5470 C 512.409 -0.805748 -4.38661 0
M  V30 5471 C 513.11 -2.77174 -5.11419 0
M  V30 5472 N 512.086 -2.04989 -5.03468 0
M  V30 5473 H 515.888 -1.51018 -2.52132 0
M  V30 5474 H 513.402 -0.919201 -1.33882 0
M  V30 5475 H 515.399 0.334584 -4.15555 0
M  V30 5476 H 514.059 0.895272 -3.12114 0
M  V30 5477 H 515.07 -2.52673 -4.52081 0
M  V30 5478 H 511.747 0.0306506 -4.17489 0
M  V30 5479 H 513.137 -3.76416 -5.56562 0
M  V30 5480 N 515.857 1.33968 -0.830081 0
M  V30 5481 C 516.789 2.28194 -0.21448 0
M  V30 5482 C 517.802 1.5135 0.599752 0
M  V30 5483 O 518.991 1.73286 0.42826 0
M  V30 5484 C 516.091 3.31221 0.717356 0
M  V30 5485 C 515.264 4.37365 -0.055613 0
M  V30 5486 C 514.323 5.2011 0.798231 0
M  V30 5487 O 513.349 5.68691 0.240616 0
M  V30 5488 N 514.551 5.40523 2.11695 0
M  V30 5489 H 517.316 2.81662 -1.02405 0
M  V30 5490 H 514.877 1.46568 -0.687713 0
M  V30 5491 H 516.869 3.83477 1.29334 0
M  V30 5492 H 515.439 2.78095 1.42765 0
M  V30 5493 H 514.659 3.85727 -0.812936 0
M  V30 5494 H 515.947 5.05397 -0.587444 0
M  V30 5495 H 515.345 5.0274 2.59363 0
M  V30 5496 H 513.902 5.95871 2.64162 0
M  V30 5497 N 517.335 0.585699 1.46312 0
M  V30 5498 C 518.56 0.0762461 2.0726 0
M  V30 5499 C 518.985 -1.22071 1.43109 0
M  V30 5500 O 518.343 -1.73804 0.515942 0
M  V30 5501 C 518.391 -0.0729404 3.60526 0
M  V30 5502 O 517.495 -1.1287 3.96654 0
M  V30 5503 H 516.836 0.0641558 0.660893 0
M  V30 5504 H 519.366 0.809492 1.87905 0
M  V30 5505 H 519.376 -0.278158 4.07051 0
M  V30 5506 H 518.051 0.874188 4.06609 0
M  V30 5507 H 516.628 -0.901703 3.61834 0
M  V30 5508 N 518.813 -1.54241 0.323641 0
M  V30 5509 C 520.038 -2.05452 -0.283605 0
M  V30 5510 C 520.463 -1.19823 -1.44997 0
M  V30 5511 O 519.821 -0.207358 -1.8011 0
M  V30 5512 C 519.869 -3.53823 -0.695795 0
M  V30 5513 O 518.973 -3.71134 -1.79815 0
M  V30 5514 H 518.314 -0.662024 -0.0511917 0
M  V30 5515 H 520.844 -1.99079 0.472073 0
M  V30 5516 H 520.854 -3.96094 -0.978434 0
M  V30 5517 H 519.529 -4.15602 0.157287 0
M  V30 5518 H 518.106 -3.40768 -1.51431 0
M  V30 5519 N 520.291 -0.0518155 -1.57515 0
M  V30 5520 C 521.239 0.940195 -2.12751 0
M  V30 5521 C 522.233 1.3218 -1.05948 0
M  V30 5522 O 523.439 1.30138 -1.24355 0
M  V30 5523 H 519.814 0.321066 -0.680015 0
M  V30 5524 H 521.785 0.449217 -2.94999 0
M  V30 5525 C 520.534 2.2055 -2.68799 0
M  V30 5526 H 519.857 1.92066 -3.50643 0
M  V30 5527 H 521.297 2.88119 -3.11068 0
M  V30 5528 C 519.756 2.95061 -1.62605 0
M  V30 5529 O 520.286 3.88025 -1.03921 0
M  V30 5530 N 518.492 2.57804 -1.34111 0
M  V30 5531 H 518.039 1.82281 -1.8202 0
M  V30 5532 H 517.997 3.07964 -0.632872 0
M  V30 5533 N 521.769 1.56035 0.221574 0
M  V30 5534 C 523.015 1.79312 0.947372 0
M  V30 5535 C 523.348 0.621453 1.83988 0
M  V30 5536 O 522.623 -0.379287 1.90766 0
M  V30 5537 C 522.906 3.1267 1.78633 0
M  V30 5538 C 522.759 4.40284 0.920312 0
M  V30 5539 C 524.078 3.4247 2.7641 0
M  V30 5540 H 521.197 0.652328 0.342982 0
M  V30 5541 H 523.839 1.88765 0.216244 0
M  V30 5542 H 521.989 3.04741 2.40967 0
M  V30 5543 H 523.661 4.60232 0.313718 0
M  V30 5544 H 521.904 4.33212 0.225734 0
M  V30 5545 H 522.575 5.30033 1.54171 0
M  V30 5546 H 525.051 3.50526 2.24211 0
M  V30 5547 H 523.927 4.3695 3.32213 0
M  V30 5548 H 524.188 2.64635 3.54148 0
M  V30 5549 N 523.247 -0.488276 1.49845 0
M  V30 5550 C 524.472 -1.26997 1.63971 0
M  V30 5551 C 524.897 -1.85427 0.315994 0
M  V30 5552 O 524.255 -1.66475 -0.718032 0
M  V30 5553 C 524.303 -2.36689 2.72049 0
M  V30 5554 O 523.407 -3.40882 2.32107 0
M  V30 5555 H 522.748 -0.374376 0.548396 0
M  V30 5556 H 525.278 -0.583104 1.96115 0
M  V30 5557 H 525.288 -2.82262 2.94605 0
M  V30 5558 H 523.963 -1.93529 3.68129 0
M  V30 5559 H 522.54 -3.01139 2.19931 0
M  V30 5560 N 524.725 -1.39134 -0.740242 0
M  V30 5561 C 525.972 -1.36071 -1.49969 0
M  V30 5562 C 526.3 0.0450245 -1.94448 0
M  V30 5563 O 525.555 1.02482 -1.66721 0
M  V30 5564 C 525.854 -2.27457 -2.75678 0
M  V30 5565 C 525.52 -3.75185 -2.50094 0
M  V30 5566 C 524.182 -4.15439 -2.42825 0
M  V30 5567 C 526.534 -4.68643 -2.28086 0
M  V30 5568 C 523.862 -5.4722 -2.11584 0
M  V30 5569 C 526.214 -6.00695 -1.98363 0
M  V30 5570 C 524.878 -6.40018 -1.8956 0
M  V30 5571 H 524.148 -0.497921 -0.548777 0
M  V30 5572 H 526.795 -1.71599 -0.85007 0
M  V30 5573 H 525.1 -1.8503 -3.45356 0
M  V30 5574 H 526.797 -2.22384 -3.33686 0
M  V30 5575 H 523.387 -3.43279 -2.56627 0
M  V30 5576 H 527.571 -4.3838 -2.32672 0
M  V30 5577 H 522.827 -5.76615 -2.03287 0
M  V30 5578 H 527.001 -6.72644 -1.80341 0
M  V30 5579 H 524.628 -7.42051 -1.65117 0
M  V30 5580 N 526.204 0.969867 -1.24223 0
M  V30 5581 C 527.452 1.70918 -1.0785 0
M  V30 5582 C 527.773 1.91186 0.383763 0
M  V30 5583 O 527.043 1.48806 1.27411 0
M  V30 5584 H 525.623 0.633334 -0.396103 0
M  V30 5585 H 528.285 1.16689 -1.56108 0
M  V30 5586 H 527.381 2.69455 -1.57482 0
M  V30 5587 N 527.682 1.05563 1.17022 0
M  V30 5588 C 528.931 0.763036 1.8671 0
M  V30 5589 C 529.244 -0.712857 1.82147 0
M  V30 5590 O 530.45 -1.11955 2.47343 0
M  V30 5591 C 528.906 1.31474 3.35026 0
M  V30 5592 C 528.514 2.82034 3.48081 0
M  V30 5593 C 530.258 1.09935 4.10018 0
M  V30 5594 C 528.165 3.30486 4.90442 0
M  V30 5595 H 527.095 0.281747 0.699382 0
M  V30 5596 H 529.746 1.2734 1.32124 0
M  V30 5597 H 528.128 0.732171 3.89173 0
M  V30 5598 H 529.302 3.46178 3.04133 0
M  V30 5599 H 527.617 3.02156 2.86515 0
M  V30 5600 H 530.214 1.43632 5.15048 0
M  V30 5601 H 530.557 0.0373072 4.16283 0
M  V30 5602 H 531.09 1.64732 3.62089 0
M  V30 5603 H 527.829 4.36137 4.89352 0
M  V30 5604 H 527.349 2.71086 5.35044 0
M  V30 5605 H 529.028 3.25382 5.59227 0
M  V30 5606 N 529.16 -1.33526 0.837174 0
M  V30 5607 C 530.108 -2.31168 0.257698 0
M  V30 5608 C 531.102 -1.5806 -0.609388 0
M  V30 5609 O 532.308 -1.72941 -0.499139 0
M  V30 5610 H 528.683 -0.74922 0.0646058 0
M  V30 5611 H 530.654 -2.77552 1.09578 0
M  V30 5612 C 529.403 -3.4326 -0.553887 0
M  V30 5613 H 528.726 -3.99665 0.104008 0
M  V30 5614 H 530.166 -4.13782 -0.925219 0
M  V30 5615 C 528.625 -2.88965 -1.73207 0
M  V30 5616 O 529.155 -2.85013 -2.83073 0
M  V30 5617 N 527.361 -2.45596 -1.55342 0
M  V30 5618 H 526.908 -2.49009 -0.659705 0
M  V30 5619 H 526.866 -2.0962 -2.34322 0
M  V30 5620 N 530.638 -0.59345 -1.46 0
M  V30 5621 C 531.57 0.171569 -2.28557 0
M  V30 5622 C 532.583 0.845273 -1.39137 0
M  V30 5623 O 533.772 0.713033 -1.6364 0
M  V30 5624 C 530.872 1.26311 -3.14482 0
M  V30 5625 C 530.045 0.679258 -4.32094 0
M  V30 5626 C 529.104 1.65987 -4.99334 0
M  V30 5627 O 528.13 1.19171 -5.56585 0
M  V30 5628 N 529.332 2.99414 -4.97324 0
M  V30 5629 H 532.097 -0.536771 -2.94854 0
M  V30 5630 H 529.658 -0.431954 -1.56031 0
M  V30 5631 H 531.65 1.91863 -3.5633 0
M  V30 5632 H 530.22 1.87416 -2.50188 0
M  V30 5633 H 529.44 -0.153992 -3.93899 0
M  V30 5634 H 530.728 0.26916 -5.08088 0
M  V30 5635 H 530.126 3.40064 -4.52076 0
M  V30 5636 H 528.683 3.60426 -5.4308 0
M  V30 5637 N 532.116 1.54067 -0.331816 0
M  V30 5638 C 533.079 2.23275 0.517768 0
M  V30 5639 C 534.079 1.22897 1.03697 0
M  V30 5640 O 535.269 1.47419 0.928084 0
M  V30 5641 C 532.401 2.94326 1.72004 0
M  V30 5642 H 533.594 2.99773 -0.0873507 0
M  V30 5643 H 531.147 1.56079 -0.0830042 0
M  V30 5644 H 531.882 2.21986 2.36417 0
M  V30 5645 H 531.667 3.67941 1.35507 0
M  V30 5646 H 533.157 3.47031 2.32291 0
M  V30 5647 N 533.594 0.0601682 1.57485 0
M  V30 5648 C 534.84 -0.612501 1.93329 0
M  V30 5649 C 535.173 -1.6996 0.939526 0
M  V30 5650 O 534.448 -1.94472 -0.0330957 0
M  V30 5651 C 534.731 -1.20025 3.39508 0
M  V30 5652 C 534.584 -0.12059 4.49638 0
M  V30 5653 C 535.903 -2.10923 3.86264 0
M  V30 5654 H 533.022 -0.221185 0.703027 0
M  V30 5655 H 535.664 0.123768 1.89596 0
M  V30 5656 H 533.814 -1.82774 3.42821 0
M  V30 5657 H 535.486 0.51185 4.58452 0
M  V30 5658 H 533.729 0.550251 4.30296 0
M  V30 5659 H 534.4 -0.572019 5.49028 0
M  V30 5660 H 536.876 -1.58124 3.84884 0
M  V30 5661 H 535.752 -2.48987 4.8918 0
M  V30 5662 H 536.013 -3.01292 3.23536 0
M  V30 5663 N 535.072 -1.5615 -0.213296 0
M  V30 5664 C 535.982 -1.96265 -1.28519 0
M  V30 5665 C 536.998 -0.86765 -1.50824 0
M  V30 5666 O 538.174 -1.17191 -1.63793 0
M  V30 5667 C 535.239 -2.27836 -2.61327 0
M  V30 5668 C 534.3 -3.50949 -2.47252 0
M  V30 5669 C 533.533 -3.81004 -3.73727 0
M  V30 5670 O 533.756 -3.12612 -4.77106 0
M  V30 5671 O 532.69 -4.74477 -3.70344 0
M  V30 5672 H 536.516 -2.87631 -0.974795 0
M  V30 5673 H 534.101 -1.43467 -0.416832 0
M  V30 5674 H 535.983 -2.49299 -3.39747 0
M  V30 5675 H 534.658 -1.39643 -2.9203 0
M  V30 5676 H 533.565 -3.34754 -1.67004 0
M  V30 5677 H 534.898 -4.39551 -2.21486 0
M  V30 5678 N 536.55 0.480323 -1.50102 0
M  V30 5679 C 537.778 1.25657 -1.64371 0
M  V30 5680 C 538.193 1.86011 -0.323316 0
M  V30 5681 O 537.55 1.68803 0.693682 0
M  V30 5682 C 537.601 2.37197 -2.728 0
M  V30 5683 O 537.322 1.7932 -3.9972 0
M  V30 5684 C 538.823 3.2823 -2.9796 0
M  V30 5685 H 536.043 0.380369 -0.552775 0
M  V30 5686 H 538.587 0.574379 -1.96268 0
M  V30 5687 H 536.742 3.01208 -2.43623 0
M  V30 5688 H 537.156 2.52701 -4.59611 0
M  V30 5689 H 538.63 4.02725 -3.77513 0
M  V30 5690 H 539.107 3.86462 -2.08671 0
M  V30 5691 H 539.713 2.69964 -3.28633 0
M  V30 5692 N 538.028 1.39524 0.732853 0
M  V30 5693 C 538.976 1.38563 1.86824 0
M  V30 5694 C 539.97 0.268467 1.67259 0
M  V30 5695 O 541.176 0.438613 1.74574 0
M  V30 5696 H 537.551 0.432737 0.615014 0
M  V30 5697 H 539.522 2.34328 1.84751 0
M  V30 5698 C 538.271 1.2481 3.24527 0
M  V30 5699 H 537.594 2.10044 3.40179 0
M  V30 5700 H 539.034 1.28194 4.04156 0
M  V30 5701 C 537.493 -0.0432825 3.36872 0
M  V30 5702 O 538.023 -1.01268 3.88726 0
M  V30 5703 N 536.229 -0.107055 2.90403 0
M  V30 5704 H 535.776 0.682512 2.48394 0
M  V30 5705 H 535.734 -0.970618 2.99042 0
M  V30 5706 N 539.506 -0.963266 1.24736 0
M  V30 5707 C 540.922 -1.23273 1.01371 0
M  V30 5708 C 541.122 -1.99618 -0.274776 0
M  V30 5709 O 540.178 -2.32293 -0.989769 0
M  V30 5710 C 541.491 -2.01554 2.23152 0
M  V30 5711 C 543.039 -2.14629 2.27823 0
M  V30 5712 C 543.514 -2.96307 3.49237 0
M  V30 5713 N 545.005 -3.03887 3.49581 0
M  V30 5714 C 545.74 -3.67456 4.40186 0
M  V30 5715 N 545.236 -4.32706 5.41052 0
M  V30 5716 N 547.029 -3.64511 4.27888 0
M  V30 5717 H 539.18 -0.452294 2.07528 0
M  V30 5718 H 541.443 -0.262521 0.910926 0
M  V30 5719 H 541.149 -1.52847 3.1675 0
M  V30 5720 H 541.023 -3.02278 2.25628 0
M  V30 5721 H 543.41 -2.62537 1.34753 0
M  V30 5722 H 543.491 -1.13238 2.2937 0
M  V30 5723 H 543.135 -2.49091 4.42624 0
M  V30 5724 H 543.065 -3.97905 3.44933 0
M  V30 5725 H 545.556 -2.57477 2.76611 0
M  V30 5726 H 545.869 -4.79042 6.06415 0
M  V30 5727 H 544.214 -4.31361 5.44934 0
M  V30 5728 H 547.405 -3.12715 3.4832 0
M  V30 5729 H 547.578 -4.13768 4.98698 0
M  V30 5730 N 540.985 -1.06182 -1.16461 0
M  V30 5731 C 542.262 -0.691364 -1.82974 0
M  V30 5732 C 542.642 0.827377 -1.9421 0
M  V30 5733 O 541.99 1.73723 -1.48434 0
M  V30 5734 C 542.2 -1.39199 -3.20038 0
M  V30 5735 C 543.548 -1.53647 -3.95825 0
M  V30 5736 O 544.572 -1.35181 -3.29552 0
M  V30 5737 O 543.431 -1.83932 -5.14618 0
M  V30 5738 H 540.525 -0.244605 -0.789998 0
M  V30 5739 H 543.071 -1.16203 -1.23673 0
M  V30 5740 H 541.843 -2.42766 -3.06888 0
M  V30 5741 H 541.466 -0.911335 -3.87015 0
M  V30 5742 N 542.463 1.3308 -0.844243 0
M  V30 5743 C 543.709 1.98304 -0.452453 0
M  V30 5744 C 544.064 1.65645 0.978746 0
M  V30 5745 O 543.357 0.928849 1.6758 0
M  V30 5746 C 543.551 3.52045 -0.616354 0
M  V30 5747 C 543.38 3.99643 -2.06193 0
M  V30 5748 C 542.15 4.27224 -2.69829 0
M  V30 5749 C 544.348 4.15471 -3.03131 0
M  V30 5750 N 542.33 4.60998 -4.05406 0
M  V30 5751 C 543.701 4.52665 -4.23668 0
M  V30 5752 C 545.756 3.97776 -2.99465 0
M  V30 5753 C 544.459 4.74011 -5.41023 0
M  V30 5754 C 546.485 4.20301 -4.16055 0
M  V30 5755 C 545.847 4.57801 -5.35348 0
M  V30 5756 H 541.946 0.752122 -0.214096 0
M  V30 5757 H 544.53 1.61096 -1.09344 0
M  V30 5758 H 542.701 3.884 -0.00513205 0
M  V30 5759 H 544.433 4.04228 -0.19548 0
M  V30 5760 H 541.188 4.18911 -2.20931 0
M  V30 5761 H 541.612 4.82087 -4.75312 0
M  V30 5762 H 546.254 3.67893 -2.08362 0
M  V30 5763 H 543.972 5.02753 -6.32665 0
M  V30 5764 H 547.558 4.08122 -4.14641 0
M  V30 5765 H 546.438 4.74884 -6.24063 0
M  V30 5766 N 543.941 0.601185 1.45683 0
M  V30 5767 C 545.189 0.0936957 2.01883 0
M  V30 5768 C 545.51 -1.2779 1.47291 0
M  V30 5769 O 544.78 -1.84279 0.664691 0
M  V30 5770 H 543.36 0.0316466 0.746329 0
M  V30 5771 H 546.022 0.781137 1.78562 0
M  V30 5772 H 545.118 0.0386297 3.12076 0
M  V30 5773 N 545.419 -1.53889 0.339982 0
M  V30 5774 C 546.644 -2.05741 -0.261798 0
M  V30 5775 C 547.069 -1.21354 -1.43718 0
M  V30 5776 O 546.427 -0.22645 -1.7988 0
M  V30 5777 C 546.475 -3.54542 -0.658228 0
M  V30 5778 O 545.579 -3.7302 -1.75869 0
M  V30 5779 H 544.92 -0.662529 -0.0441672 0
M  V30 5780 H 547.45 -1.98568 0.493161 0
M  V30 5781 H 547.46 -3.9711 -0.936368 0
M  V30 5782 H 546.135 -4.15412 0.201358 0
M  V30 5783 H 544.712 -3.42355 -1.47809 0
M  V30 5784 N 546.897 -0.0685191 -1.57451 0
M  V30 5785 C 548.125 0.610462 -1.97689 0
M  V30 5786 C 548.54 1.63346 -0.946758 0
M  V30 5787 O 547.897 1.82377 0.0669868 0
M  V30 5788 C 547.948 1.28196 -3.38006 0
M  V30 5789 O 547.669 0.299906 -4.37072 0
M  V30 5790 C 549.17 2.04907 -3.931 0
M  V30 5791 H 546.39 0.165689 -0.650222 0
M  V30 5792 H 548.934 -0.139953 -2.04021 0
M  V30 5793 H 547.089 1.98348 -3.32771 0
M  V30 5794 H 547.503 0.78126 -5.18649 0
M  V30 5795 H 548.977 2.47287 -4.93511 0
M  V30 5796 H 549.454 2.9043 -3.29465 0
M  V30 5797 H 550.06 1.39629 -4.01726 0
M  V30 5798 N 548.375 1.56261 0.205012 0
M  V30 5799 C 549.308 1.88797 1.28183 0
M  V30 5800 C 550.286 0.747018 1.44424 0
M  V30 5801 O 551.47 0.997039 1.59973 0
M  V30 5802 C 548.597 2.10949 2.64987 0
M  V30 5803 C 547.643 3.33649 2.6567 0
M  V30 5804 S 548.476 4.89078 2.18088 0
M  V30 5805 C 549.632 5.14286 3.56736 0
M  V30 5806 H 549.865 2.79837 1.00393 0
M  V30 5807 H 547.398 1.48911 0.408042 0
M  V30 5808 H 549.356 2.24395 3.4374 0
M  V30 5809 H 548.017 1.20678 2.89993 0
M  V30 5810 H 547.21 3.46245 3.66239 0
M  V30 5811 H 546.812 3.19146 1.94992 0
M  V30 5812 H 549.104 5.04198 4.52537 0
M  V30 5813 H 550.047 6.16096 3.49043 0
M  V30 5814 H 550.455 4.41957 3.51189 0
M  V30 5815 N 549.853 -0.472356 1.50355 0
M  V30 5816 C 550.8 -1.57051 1.69126 0
M  V30 5817 C 551.77 -1.5733 0.532574 0
M  V30 5818 O 552.955 -1.7488 0.762994 0
M  V30 5819 C 550.095 -2.95033 1.79024 0
M  V30 5820 C 549.208 -3.04552 3.06386 0
M  V30 5821 C 548.343 -4.33441 3.07087 0
M  V30 5822 C 547.382 -4.36697 4.28908 0
M  V30 5823 N 546.519 -5.57056 4.27356 0
M  V30 5824 H 551.359 -1.40351 2.62879 0
M  V30 5825 H 548.896 -0.682403 1.30314 0
M  V30 5826 H 550.854 -3.75048 1.82744 0
M  V30 5827 H 549.484 -3.10371 0.887109 0
M  V30 5828 H 548.536 -2.17419 3.12143 0
M  V30 5829 H 549.848 -3.02818 3.96362 0
M  V30 5830 H 549.002 -5.21801 3.09529 0
M  V30 5831 H 547.741 -4.37782 2.14939 0
M  V30 5832 H 546.746 -3.46734 4.2668 0
M  V30 5833 H 547.971 -4.34049 5.22282 0
M  V30 5834 H 545.917 -5.62184 3.3806 0
M  V30 5835 H 545.834 -5.57058 5.111 0
M  V30 5836 H 547.102 -6.47545 4.33942 0
M  V30 5837 N 551.331 -1.39911 -0.725443 0
M  V30 5838 C 552.742 -1.33599 -1.30415 0
M  V30 5839 C 553.093 -0.00481792 -1.96199 0
M  V30 5840 O 552.218 0.897275 -1.96921 0
M  V30 5841 C 552.813 -2.41965 -2.37146 0
M  V30 5842 C 551.372 -2.39144 -2.90667 0
M  V30 5843 C 550.519 -2.23355 -1.64341 0
M  V30 5844 H 553.47 -1.4986 -0.522267 0
M  V30 5845 H 553.491 -2.09304 -3.17761 0
M  V30 5846 H 553.003 -3.38837 -1.89238 0
M  V30 5847 H 551.104 -1.4594 -3.4283 0
M  V30 5848 H 551.217 -3.34362 -3.43131 0
M  V30 5849 H 549.581 -1.70696 -1.89037 0
M  V30 5850 H 550.364 -3.2221 -1.18471 0
M  V30 5851 N 552.809 0.956637 -1.25245 0
M  V30 5852 C 554.058 1.69537 -1.0927 0
M  V30 5853 C 554.371 1.92136 0.366503 0
M  V30 5854 O 555.577 2.63687 0.64665 0
M  V30 5855 C 554.033 3.05211 -1.9072 0
M  V30 5856 C 553.641 2.90416 -3.41119 0
M  V30 5857 C 555.385 3.82882 -1.83308 0
M  V30 5858 C 553.292 4.21468 -4.14872 0
M  V30 5859 H 552.222 0.635804 -0.405302 0
M  V30 5860 H 554.873 1.06513 -1.49423 0
M  V30 5861 H 553.255 3.69128 -1.43389 0
M  V30 5862 H 554.429 2.35444 -3.9611 0
M  V30 5863 H 552.744 2.26203 -3.49602 0
M  V30 5864 H 555.341 4.79944 -2.35706 0
M  V30 5865 H 555.684 4.0853 -0.800572 0
M  V30 5866 H 556.217 3.25711 -2.28379 0
M  V30 5867 H 552.956 4.01009 -5.18529 0
M  V30 5868 H 552.476 4.76213 -3.64665 0
M  V30 5869 H 554.155 4.90022 -4.22478 0
M  V30 5870 N 554.287 1.06798 1.15896 0
M  V30 5871 C 555.515 0.808694 1.90441 0
M  V30 5872 C 555.93 -0.637506 1.77711 0
M  V30 5873 O 555.287 -1.43684 1.12522 0
M  V30 5874 C 555.338 1.20068 3.40978 0
M  V30 5875 O 555.059 2.59013 3.53333 0
M  V30 5876 C 556.56 0.96987 4.3256 0
M  V30 5877 H 553.78 0.292809 0.603742 0
M  V30 5878 H 556.324 1.42296 1.46874 0
M  V30 5879 H 554.479 0.630842 3.82229 0
M  V30 5880 H 554.893 2.7485 4.46719 0
M  V30 5881 H 556.367 1.29371 5.36626 0
M  V30 5882 H 556.844 -0.0941209 4.39099 0
M  V30 5883 H 557.45 1.52433 3.97044 0
M  V30 5884 N 555.766 -1.3263 0.851289 0
M  V30 5885 C 557.043 -1.91982 0.374448 0
M  V30 5886 C 557.423 -1.77568 -1.14161 0
M  V30 5887 O 556.771 -1.1717 -1.96172 0
M  V30 5888 C 556.981 -3.38862 0.835088 0
M  V30 5889 C 558.329 -4.15999 0.850309 0
M  V30 5890 O 559.353 -3.47566 0.779505 0
M  V30 5891 O 558.212 -5.38189 0.949481 0
M  V30 5892 H 555.306 -0.819846 0.10854 0
M  V30 5893 H 557.852 -1.41422 0.937966 0
M  V30 5894 H 556.624 -3.43281 1.87814 0
M  V30 5895 H 556.247 -3.96821 0.248833 0
M  V30 5896 N 557.244 -0.608902 -1.45362 0
M  V30 5897 C 558.474 -0.110852 -2.06302 0
M  V30 5898 C 558.882 1.21062 -1.45398 0
M  V30 5899 O 558.225 1.74861 -0.562976 0
M  V30 5900 C 558.287 0.101793 -3.59356 0
M  V30 5901 C 557.951 -1.13808 -4.42602 0
M  V30 5902 C 558.948 -2.05653 -4.77496 0
M  V30 5903 C 556.633 -1.36727 -4.83333 0
M  V30 5904 C 558.627 -3.18745 -5.51978 0
M  V30 5905 C 556.314 -2.5012 -5.57569 0
M  V30 5906 C 557.312 -3.40957 -5.91809 0
M  V30 5907 O 557 -4.52376 -6.64538 0
M  V30 5908 H 556.732 -0.0666001 -0.672711 0
M  V30 5909 H 559.286 -0.836942 -1.87575 0
M  V30 5910 H 557.516 0.88279 -3.76489 0
M  V30 5911 H 559.205 0.551607 -4.02134 0
M  V30 5912 H 559.971 -1.89172 -4.46586 0
M  V30 5913 H 555.85 -0.669216 -4.56117 0
M  V30 5914 H 559.394 -3.8967 -5.78622 0
M  V30 5915 H 555.291 -2.66553 -5.87894 0
M  V30 5916 H 556.059 -4.51075 -6.82989 0
M  V30 5917 N 558.722 1.53707 -0.348139 0
M  V30 5918 C 559.685 2.23812 0.494058 0
M  V30 5919 C 560.685 1.23989 1.02388 0
M  V30 5920 O 561.875 1.48395 0.912396 0
M  V30 5921 C 559.007 2.96133 1.68872 0
M  V30 5922 H 560.2 2.99663 -0.119141 0
M  V30 5923 H 557.753 1.55983 -0.0995539 0
M  V30 5924 H 558.488 2.24481 2.34049 0
M  V30 5925 H 558.273 3.69357 1.31596 0
M  V30 5926 H 559.763 3.49475 2.28597 0
M  V30 5927 N 560.2 0.0768682 1.57412 0
M  V30 5928 C 561.611 -0.455037 1.8107 0
M  V30 5929 C 561.962 -1.69323 0.991162 0
M  V30 5930 O 561.087 -2.15328 0.215156 0
M  V30 5931 C 561.682 -0.832316 3.28417 0
M  V30 5932 C 560.241 -1.30906 3.52903 0
M  V30 5933 C 559.388 -0.296714 2.75708 0
M  V30 5934 H 562.339 0.302514 1.5579 0
M  V30 5935 H 562.36 -1.69333 3.40744 0
M  V30 5936 H 561.872 0.0690532 3.88039 0
M  V30 5937 H 559.973 -2.22875 2.98592 0
M  V30 5938 H 560.086 -1.28348 4.61588 0
M  V30 5939 H 558.45 -0.775059 2.42621 0
M  V30 5940 H 559.233 0.597015 3.38069 0
M  V30 5941 N 561.678 -1.56367 -0.196722 0
M  V30 5942 C 562.641 -1.93561 -1.22746 0
M  V30 5943 C 563.641 -0.816566 -1.38524 0
M  V30 5944 O 564.831 -1.084 -1.36363 0
M  V30 5945 C 561.963 -2.20823 -2.59712 0
M  V30 5946 H 563.156 -2.85774 -0.909586 0
M  V30 5947 H 560.709 -1.50032 -0.438174 0
M  V30 5948 H 561.444 -1.31243 -2.96557 0
M  V30 5949 H 561.229 -3.02368 -2.49632 0
M  V30 5950 H 562.719 -2.50608 -3.34044 0
M  V30 5951 N 563.156 0.464375 -1.50603 0
M  V30 5952 C 564.086 1.56944 -1.72889 0
M  V30 5953 C 565.067 1.59979 -0.577997 0
M  V30 5954 O 566.252 1.76138 -0.817855 0
M  V30 5955 C 563.382 2.95225 -1.8292 0
M  V30 5956 C 562.336 3.07056 -2.98162 0
M  V30 5957 C 561.662 4.47051 -2.93343 0
M  V30 5958 C 562.962 2.83648 -4.38567 0
M  V30 5959 H 564.656 1.38547 -2.65415 0
M  V30 5960 H 562.202 0.665082 -1.27721 0
M  V30 5961 H 564.155 3.72467 -1.97095 0
M  V30 5962 H 562.879 3.14793 -0.870209 0
M  V30 5963 H 561.538 2.32248 -2.83648 0
M  V30 5964 H 561.186 4.63547 -1.95276 0
M  V30 5965 H 560.886 4.55902 -3.70712 0
M  V30 5966 H 562.41 5.26304 -3.09575 0
M  V30 5967 H 563.824 3.50636 -4.53572 0
M  V30 5968 H 562.221 3.03937 -5.17438 0
M  V30 5969 H 563.291 1.79451 -4.50472 0
M  V30 5970 N 564.634 1.40294 0.718013 0
M  V30 5971 C 565.544 1.42678 1.86226 0
M  V30 5972 C 566.56 0.319655 1.71039 0
M  V30 5973 O 567.736 0.563852 1.93346 0
M  V30 5974 C 564.801 1.2852 3.21999 0
M  V30 5975 C 563.862 2.49354 3.49458 0
M  V30 5976 C 563.095 2.35863 4.78753 0
M  V30 5977 O 563.318 1.37114 5.53675 0
M  V30 5978 O 562.252 3.25189 5.06494 0
M  V30 5979 H 566.078 2.39167 1.87171 0
M  V30 5980 H 563.663 1.2159 0.868112 0
M  V30 5981 H 565.545 1.22824 4.03103 0
M  V30 5982 H 564.22 0.351359 3.21787 0
M  V30 5983 H 563.127 2.60628 2.68373 0
M  V30 5984 H 564.46 3.41491 3.54464 0
M  V30 5985 N 566.112 -0.949982 1.2575 0
M  V30 5986 C 567.342 -1.72721 1.13363 0
M  V30 5987 C 567.75 -1.86562 -0.314842 0
M  V30 5988 O 567.093 -1.36621 -1.22803 0
M  V30 5989 C 567.155 -3.15695 1.7198 0
M  V30 5990 C 566.819 -3.25268 3.21014 0
M  V30 5991 C 567.816 -3.09222 4.17945 0
M  V30 5992 C 565.501 -3.4894 3.61312 0
M  V30 5993 C 567.495 -3.16701 5.53154 0
M  V30 5994 C 565.182 -3.56055 4.96657 0
M  V30 5995 C 566.18 -3.3995 5.92387 0
M  V30 5996 O 565.868 -3.46757 7.25269 0
M  V30 5997 H 565.6 -0.547888 0.395973 0
M  V30 5998 H 568.154 -1.20009 1.66694 0
M  V30 5999 H 566.384 -3.69791 1.13101 0
M  V30 6000 H 568.073 -3.75295 1.54624 0
M  V30 6001 H 568.839 -2.90798 3.88151 0
M  V30 6002 H 564.718 -3.60534 2.87291 0
M  V30 6003 H 568.262 -3.04048 6.27854 0
M  V30 6004 H 564.159 -3.73997 5.26115 0
M  V30 6005 H 564.927 -3.63358 7.33426 0
M  V30 6006 N 567.59 -1.07411 -1.15328 0
M  V30 6007 C 568.838 -0.796073 -1.85761 0
M  V30 6008 C 569.159 0.679864 -1.82764 0
M  V30 6009 O 568.429 1.49242 -1.269 0
M  V30 6010 H 567.009 -0.291495 -0.687779 0
M  V30 6011 H 569.671 -1.35799 -1.39802 0
M  V30 6012 H 568.767 -1.13114 -2.90881 0
M  V30 6013 N 569.068 1.32177 -0.85831 0
M  V30 6014 C 570.314 1.97417 -0.46417 0
M  V30 6015 C 570.647 1.67746 0.978514 0
M  V30 6016 O 569.922 0.967654 1.68721 0
M  V30 6017 C 570.205 3.53069 -0.708094 0
M  V30 6018 C 570.058 3.92357 -2.19946 0
M  V30 6019 C 571.377 4.39783 -0.166881 0
M  V30 6020 H 568.496 0.717097 -0.17012 0
M  V30 6021 H 571.138 1.56499 -1.07741 0
M  V30 6022 H 569.288 3.88054 -0.186128 0
M  V30 6023 H 570.96 3.67533 -2.78779 0
M  V30 6024 H 569.203 3.41384 -2.67656 0
M  V30 6025 H 569.874 5.00841 -2.32082 0
M  V30 6026 H 572.35 4.11556 -0.613285 0
M  V30 6027 H 571.226 5.47671 -0.367093 0
M  V30 6028 H 571.487 4.32196 0.930559 0
M  V30 6029 N 570.547 0.616602 1.45037 0
M  V30 6030 C 571.777 0.121791 2.06241 0
M  V30 6031 C 572.185 -1.20289 1.46038 0
M  V30 6032 O 571.528 -1.7456 0.572242 0
M  V30 6033 C 571.59 -0.0827345 3.59405 0
M  V30 6034 C 571.254 1.16153 4.41993 0
M  V30 6035 C 572.251 2.08183 4.76399 0
M  V30 6036 C 569.936 1.39288 4.82601 0
M  V30 6037 C 571.93 3.21668 5.5028 0
M  V30 6038 C 569.617 2.53073 5.56235 0
M  V30 6039 C 570.615 3.44091 5.89992 0
M  V30 6040 O 570.303 4.55894 6.6213 0
M  V30 6041 H 570.035 0.0701667 0.672349 0
M  V30 6042 H 572.589 0.846877 1.87129 0
M  V30 6043 H 570.819 -0.862812 3.76952 0
M  V30 6044 H 572.508 -0.530273 4.02421 0
M  V30 6045 H 573.274 1.91538 4.45576 0
M  V30 6046 H 569.153 0.693396 4.55755 0
M  V30 6047 H 572.697 3.92733 5.76547 0
M  V30 6048 H 568.594 2.69667 5.86472 0
M  V30 6049 H 569.362 4.5469 6.80587 0
M  V30 6050 N 572.025 -1.5352 0.356285 0
M  V30 6051 C 573.302 -1.93405 -0.292223 0
M  V30 6052 C 573.682 -1.28901 -1.67176 0
M  V30 6053 O 573.03 -0.444632 -2.24132 0
M  V30 6054 C 573.24 -3.47223 -0.35175 0
M  V30 6055 C 574.588 -4.20389 -0.596534 0
M  V30 6056 O 575.612 -3.53554 -0.433344 0
M  V30 6057 O 574.471 -5.3881 -0.913589 0
M  V30 6058 H 571.565 -0.808666 -0.173172 0
M  V30 6059 H 574.111 -1.64713 0.408391 0
M  V30 6060 H 572.883 -3.86423 0.615841 0
M  V30 6061 H 572.506 -3.8212 -1.09864 0
M  V30 6062 N 573.503 -0.0852151 -1.57369 0
M  V30 6063 C 574.728 0.592872 -1.98746 0
M  V30 6064 C 575.153 1.61538 -0.963689 0
M  V30 6065 O 574.511 1.81168 0.069071 0
M  V30 6066 C 574.559 1.22599 -3.39119 0
M  V30 6067 O 573.663 2.34185 -3.39457 0
M  V30 6068 H 573.004 0.151314 -0.646529 0
M  V30 6069 H 575.534 -0.163703 -2.03944 0
M  V30 6070 H 575.544 1.56965 -3.76598 0
M  V30 6071 H 574.219 0.476831 -4.13158 0
M  V30 6072 H 572.796 2.01512 -3.13763 0
M  V30 6073 N 574.981 1.5647 0.188427 0
M  V30 6074 C 576.209 1.85131 0.923803 0
M  V30 6075 C 576.624 0.668537 1.76567 0
M  V30 6076 O 575.981 -0.362662 1.7886 0
M  V30 6077 C 576.032 3.12661 1.81453 0
M  V30 6078 O 575.753 4.26378 1.00665 0
M  V30 6079 C 577.254 3.54548 2.66103 0
M  V30 6080 H 574.474 0.614624 0.269218 0
M  V30 6081 H 577.018 2.03581 0.193671 0
M  V30 6082 H 575.173 2.96088 2.49821 0
M  V30 6083 H 575.587 4.99041 1.61425 0
M  V30 6084 H 577.061 4.4673 3.24247 0
M  V30 6085 H 577.538 2.77853 3.40139 0
M  V30 6086 H 578.144 3.73674 2.03096 0
M  V30 6087 N 576.459 -0.456382 1.50847 0
M  V30 6088 C 577.422 -1.53493 1.70213 0
M  V30 6089 C 578.422 -1.50264 0.572481 0
M  V30 6090 O 579.612 -1.52623 0.839751 0
M  V30 6091 C 576.744 -2.93091 1.741 0
M  V30 6092 H 577.937 -1.37633 2.66453 0
M  V30 6093 H 575.49 -0.683776 1.4055 0
M  V30 6094 H 576.225 -3.14378 0.796063 0
M  V30 6095 H 576.01 -2.9684 2.5618 0
M  V30 6096 H 577.5 -3.71368 1.90987 0
M  V30 6097 N 577.937 -1.40673 -0.710563 0
M  V30 6098 C 579.165 -1.42547 -1.4996 0
M  V30 6099 C 579.58 -0.0265485 -1.88781 0
M  V30 6100 O 578.937 0.950694 -1.55782 0
M  V30 6101 C 578.988 -2.32071 -2.77173 0
M  V30 6102 O 578.709 -3.66518 -2.39992 0
M  V30 6103 C 580.21 -2.42591 -3.71032 0
M  V30 6104 H 577.43 -0.486025 -0.462623 0
M  V30 6105 H 579.974 -1.84783 -0.876102 0
M  V30 6106 H 578.129 -1.93184 -3.35795 0
M  V30 6107 H 578.543 -4.14115 -3.21884 0
M  V30 6108 H 580.017 -3.09429 -4.57119 0
M  V30 6109 H 580.494 -1.4525 -4.14486 0
M  V30 6110 H 581.1 -2.82051 -3.18319 0
M  V30 6111 N 579.415 0.9433 -1.26252 0
M  V30 6112 C 580.664 1.68369 -1.11062 0
M  V30 6113 C 580.977 1.92514 0.346104 0
M  V30 6114 O 582.183 2.64358 0.618646 0
M  V30 6115 C 580.639 3.03171 -1.93946 0
M  V30 6116 C 580.247 2.86782 -3.4418 0
M  V30 6117 C 581.991 3.80916 -1.87359 0
M  V30 6118 C 579.898 4.17044 -4.19319 0
M  V30 6119 H 578.828 0.631469 -0.412023 0
M  V30 6120 H 581.479 1.04922 -1.50544 0
M  V30 6121 H 579.861 3.67587 -1.47296 0
M  V30 6122 H 581.035 2.31229 -3.98585 0
M  V30 6123 H 579.35 2.22482 -3.51981 0
M  V30 6124 H 581.947 4.77417 -2.40784 0
M  V30 6125 H 582.29 4.07658 -0.843857 0
M  V30 6126 H 582.823 3.2327 -2.31821 0
M  V30 6127 H 579.562 3.95487 -5.22753 0
M  V30 6128 H 579.082 4.72319 -3.69696 0
M  V30 6129 H 580.761 4.85513 -4.27651 0
M  V30 6130 N 580.893 1.08022 1.14757 0
M  V30 6131 C 582.139 0.808705 1.85978 0
M  V30 6132 C 582.472 -0.663764 1.82504 0
M  V30 6133 O 581.747 -1.48765 1.25296 0
M  V30 6134 C 582.03 1.32623 3.34788 0
M  V30 6135 C 581.883 2.86375 3.46856 0
M  V30 6136 C 583.202 0.948291 4.29762 0
M  V30 6137 H 580.321 0.295244 0.675278 0
M  V30 6138 H 582.963 1.33917 1.34783 0
M  V30 6139 H 581.113 0.875002 3.78518 0
M  V30 6140 H 582.785 3.39839 3.11941 0
M  V30 6141 H 581.028 3.24232 2.88194 0
M  V30 6142 H 581.699 3.17658 4.51439 0
M  V30 6143 H 584.175 1.33722 3.94028 0
M  V30 6144 H 583.051 1.33765 5.32352 0
M  V30 6145 H 583.312 -0.145094 4.41862 0
M  V30 6146 N 582.371 -1.3172 0.865308 0
M  V30 6147 C 583.321 -2.26157 0.289305 0
M  V30 6148 C 584.305 -1.50428 -0.570977 0
M  V30 6149 O 585.497 -1.71978 -0.418617 0
M  V30 6150 C 582.626 -3.39457 -0.512237 0
M  V30 6151 C 581.712 -4.22561 0.361028 0
M  V30 6152 N 582.103 -4.84501 1.45231 0
M  V30 6153 C 580.401 -4.45739 0.152641 0
M  V30 6154 C 581.102 -5.46586 1.99043 0
M  V30 6155 N 580.078 -5.28119 1.28809 0
M  V30 6156 H 583.88 -2.71581 1.12344 0
M  V30 6157 H 581.394 -1.45932 0.712565 0
M  V30 6158 H 583.391 -4.06133 -0.941379 0
M  V30 6159 H 582.051 -2.95577 -1.34404 0
M  V30 6160 H 583.062 -4.84293 1.83524 0
M  V30 6161 H 579.739 -4.1251 -0.643583 0
M  V30 6162 H 581.129 -6.05817 2.90577 0
M  V30 6163 N 583.85 -0.624285 -1.44708 0
M  V30 6164 C 585.127 -0.0572781 -1.95516 0
M  V30 6165 C 585.507 1.41516 -1.56641 0
M  V30 6166 O 584.855 2.12614 -0.837111 0
M  V30 6167 C 585.065 -0.272944 -3.47931 0
M  V30 6168 C 586.413 -0.162529 -4.24289 0
M  V30 6169 O 587.437 -0.203946 -3.55616 0
M  V30 6170 O 586.296 -0.0616847 -5.46465 0
M  V30 6171 H 583.389 0.0262219 -0.826584 0
M  V30 6172 H 585.936 -0.695512 -1.54793 0
M  V30 6173 H 584.707 -1.29492 -3.69253 0
M  V30 6174 H 584.331 0.399756 -3.95585 0
M  V30 6175 N 585.328 1.53329 -0.364422 0
M  V30 6176 C 586.238 2.29414 0.490552 0
M  V30 6177 C 587.254 1.35335 1.09363 0
M  V30 6178 O 588.43 1.68391 1.10483 0
M  V30 6179 C 585.495 3.06772 1.61529 0
M  V30 6180 C 584.556 4.16516 1.03986 0
M  V30 6181 C 583.789 4.90176 2.111 0
M  V30 6182 O 584.012 4.63687 3.32191 0
M  V30 6183 O 582.946 5.76134 1.74222 0
M  V30 6184 H 586.772 3.03428 -0.12856 0
M  V30 6185 H 584.357 1.48843 -0.128837 0
M  V30 6186 H 586.239 3.55082 2.26924 0
M  V30 6187 H 584.914 2.35596 2.21983 0
M  V30 6188 H 583.821 3.7246 0.349856 0
M  V30 6189 H 585.154 4.89855 0.4799 0
M  V30 6190 N 586.806 0.0935595 1.57322 0
M  V30 6191 C 588.217 -0.435807 1.81542 0
M  V30 6192 C 588.568 -1.68263 1.00907 0
M  V30 6193 O 587.693 -2.15087 0.237983 0
M  V30 6194 C 588.288 -0.797436 3.29282 0
M  V30 6195 C 586.847 -1.27155 3.54272 0
M  V30 6196 C 585.994 -0.267455 2.76007 0
M  V30 6197 H 588.945 0.31902 1.5546 0
M  V30 6198 H 588.966 -1.6571 3.42521 0
M  V30 6199 H 588.478 0.110206 3.87943 0
M  V30 6200 H 586.579 -2.19696 3.00939 0
M  V30 6201 H 586.692 -1.23445 4.62923 0
M  V30 6202 H 585.056 -0.749282 2.43429 0
M  V30 6203 H 585.839 0.632839 3.37417 0
M  V30 6204 N 588.284 -1.56567 -0.180126 0
M  V30 6205 C 589.514 -1.85349 -0.912647 0
M  V30 6206 C 589.922 -0.675795 -1.76719 0
M  V30 6207 O 589.265 0.3645 -1.80047 0
M  V30 6208 C 589.327 -3.08431 -1.84691 0
M  V30 6209 C 588.991 -4.41694 -1.17284 0
M  V30 6210 C 589.988 -5.17062 -0.542532 0
M  V30 6211 C 587.673 -4.8843 -1.17223 0
M  V30 6212 C 589.667 -6.37351 0.0793953 0
M  V30 6213 C 587.354 -6.08652 -0.54647 0
M  V30 6214 C 588.352 -6.82955 0.0782458 0
M  V30 6215 O 588.04 -8.00897 0.694158 0
M  V30 6216 H 587.772 -0.619286 -0.271036 0
M  V30 6217 H 590.326 -2.0454 -0.187768 0
M  V30 6218 H 588.556 -2.85163 -2.61188 0
M  V30 6219 H 590.245 -3.23733 -2.44851 0
M  V30 6220 H 591.011 -4.8204 -0.535045 0
M  V30 6221 H 586.89 -4.30542 -1.64788 0
M  V30 6222 H 590.434 -6.95287 0.567612 0
M  V30 6223 H 586.331 -6.4314 -0.55151 0
M  V30 6224 H 587.099 -8.16352 0.592537 0
M  V30 6225 N 589.762 0.448376 -1.51087 0
M  V30 6226 C 590.71 1.56407 -1.72161 0
M  V30 6227 C 591.704 1.58878 -0.587721 0
M  V30 6228 O 592.91 1.62755 -0.768822 0
M  V30 6229 H 589.285 0.519423 -0.543786 0
M  V30 6230 H 591.256 1.35803 -2.65707 0
M  V30 6231 C 590.005 2.94163 -1.85373 0
M  V30 6232 H 589.328 2.9299 -2.72024 0
M  V30 6233 H 590.768 3.71625 -2.04135 0
M  V30 6234 C 589.227 3.31317 -0.610803 0
M  V30 6235 O 589.757 4.00985 0.239636 0
M  V30 6236 N 587.963 2.86966 -0.458127 0
M  V30 6237 H 587.51 2.30443 -1.15124 0
M  V30 6238 H 587.468 3.12188 0.372289 0
M  V30 6239 N 591.24 1.41047 0.703093 0
M  V30 6240 C 592.47 1.43133 1.48985 0
M  V30 6241 C 592.878 0.0328537 1.89171 0
M  V30 6242 O 592.221 -0.956469 1.56835 0
M  V30 6243 C 592.283 2.26991 2.78775 0
M  V30 6244 C 591.947 3.7525 2.60837 0
M  V30 6245 C 592.944 4.67591 2.27276 0
M  V30 6246 C 590.629 4.19208 2.76712 0
M  V30 6247 C 592.623 6.01877 2.09817 0
M  V30 6248 C 590.31 5.53561 2.5887 0
M  V30 6249 C 591.308 6.4471 2.25472 0
M  V30 6250 O 590.996 7.76584 2.07778 0
M  V30 6251 H 590.728 0.489788 0.465922 0
M  V30 6252 H 593.282 1.85886 0.873822 0
M  V30 6253 H 591.512 1.79038 3.42757 0
M  V30 6254 H 593.201 2.20867 3.40547 0
M  V30 6255 H 593.967 4.34923 2.14633 0
M  V30 6256 H 589.846 3.48572 3.01693 0
M  V30 6257 H 593.39 6.72986 1.83671 0
M  V30 6258 H 589.287 5.85811 2.71102 0
M  V30 6259 H 590.055 7.87649 2.22601 0
M  V30 6260 N 592.718 -0.936591 1.26751 0
M  V30 6261 C 594.129 -1.49816 1.1141 0
M  V30 6262 C 594.48 -1.9383 -0.304015 0
M  V30 6263 O 593.605 -1.80346 -1.196 0
M  V30 6264 C 594.2 -2.72271 2.01629 0
M  V30 6265 C 592.759 -3.2468 1.9042 0
M  V30 6266 C 591.906 -1.97444 1.94708 0
M  V30 6267 H 594.857 -0.751604 1.39773 0
M  V30 6268 H 594.878 -3.46741 1.56688 0
M  V30 6269 H 594.39 -2.40205 3.04833 0
M  V30 6270 H 592.491 -3.61525 0.901674 0
M  V30 6271 H 592.604 -3.91476 2.76195 0
M  V30 6272 H 590.968 -2.13545 1.38818 0
M  V30 6273 H 591.751 -1.67703 2.9955 0
M  V30 6274 N 594.196 -1.08629 -1.14182 0
M  V30 6275 C 595.444 -0.815731 -1.84906 0
M  V30 6276 C 595.765 0.660441 -1.83475 0
M  V30 6277 O 595.035 1.47888 -1.28476 0
M  V30 6278 H 593.615 -0.298773 -0.684648 0
M  V30 6279 H 596.277 -1.37274 -1.38354 0
M  V30 6280 H 595.373 -1.16193 -2.89665 0
M  V30 6281 N 595.674 1.31259 -0.872281 0
M  V30 6282 C 596.902 2.00795 -0.498907 0
M  V30 6283 C 597.317 1.65464 0.909238 0
M  V30 6284 O 596.674 0.885073 1.59602 0
M  V30 6285 C 596.725 3.55625 -0.649092 0
M  V30 6286 O 596.446 3.89692 -2.00179 0
M  V30 6287 C 597.947 4.42434 -0.277034 0
M  V30 6288 H 595.167 0.642299 -0.194145 0
M  V30 6289 H 597.711 1.67438 -1.17408 0
M  V30 6290 H 595.866 3.87394 -0.0214402 0
M  V30 6291 H 596.28 4.84407 -2.01122 0
M  V30 6292 H 597.754 5.50299 -0.433064 0
M  V30 6293 H 598.231 4.32146 0.783989 0
M  V30 6294 H 598.837 4.16086 -0.880483 0
M  V30 6295 N 597.152 0.631951 1.44375 0
M  V30 6296 C 598.1 -0.0846693 2.32446 0
M  V30 6297 C 599.094 -0.834957 1.47393 0
M  V30 6298 O 600.3 -0.747764 1.63733 0
M  V30 6299 H 596.675 -0.0461508 0.750583 0
M  V30 6300 H 598.646 0.67619 2.90638 0
M  V30 6301 C 597.395 -1.05211 3.314 0
M  V30 6302 H 596.718 -0.484203 3.96857 0
M  V30 6303 H 598.158 -1.523 3.95703 0
M  V30 6304 C 596.617 -2.13776 2.60387 0
M  V30 6305 O 597.147 -3.21869 2.4034 0
M  V30 6306 N 595.353 -1.89733 2.20113 0
M  V30 6307 H 594.9 -1.01833 2.36618 0
M  V30 6308 H 594.858 -2.62572 1.72926 0
M  V30 6309 N 598.631 -1.53133 0.372548 0
M  V30 6310 C 599.859 -2.05774 -0.215515 0
M  V30 6311 C 600.274 -1.24555 -1.41886 0
M  V30 6312 O 599.631 -0.287951 -1.80214 0
M  V30 6313 C 599.682 -3.5645 -0.602161 0
M  V30 6314 O 599.403 -4.34591 0.553359 0
M  V30 6315 C 600.904 -4.25374 -1.24787 0
M  V30 6316 H 598.124 -0.670009 -0.0364529 0
M  V30 6317 H 600.668 -1.97434 0.532934 0
M  V30 6318 H 598.823 -3.64918 -1.30052 0
M  V30 6319 H 599.237 -5.23954 0.239336 0
M  V30 6320 H 600.711 -5.32097 -1.46891 0
M  V30 6321 H 601.188 -3.79531 -2.21026 0
M  V30 6322 H 601.794 -4.21177 -0.590752 0
M  V30 6323 N 600.109 -0.101901 -1.5727 0
M  V30 6324 C 601.52 0.426173 -1.81771 0
M  V30 6325 C 601.871 1.67725 -1.01797 0
M  V30 6326 O 600.996 2.14958 -0.249386 0
M  V30 6327 C 601.591 0.779962 -3.297 0
M  V30 6328 C 600.15 1.25275 -3.54941 0
M  V30 6329 C 599.297 0.252814 -2.76145 0
M  V30 6330 H 602.248 -0.32726 -1.55289 0
M  V30 6331 H 602.269 1.63891 -3.43395 0
M  V30 6332 H 601.781 -0.130778 -3.8788 0
M  V30 6333 H 599.882 2.18097 -3.021 0
M  V30 6334 H 599.995 1.20988 -4.63572 0
M  V30 6335 H 598.359 0.736362 -2.43823 0
M  V30 6336 H 599.142 -0.650724 -3.37076 0
M  V30 6337 N 601.587 1.56661 0.17182 0
M  V30 6338 C 602.833 1.82235 0.889845 0
M  V30 6339 C 603.166 0.679673 1.81918 0
M  V30 6340 O 602.441 -0.318404 1.91876 0
M  V30 6341 C 602.724 3.18195 1.68595 0
M  V30 6342 C 602.577 4.42989 0.779773 0
M  V30 6343 C 603.896 3.5109 2.65375 0
M  V30 6344 H 601.015 0.66291 0.322056 0
M  V30 6345 H 603.657 1.89358 0.15608 0
M  V30 6346 H 601.807 3.12253 2.3115 0
M  V30 6347 H 603.479 4.60997 0.16714 0
M  V30 6348 H 601.722 4.33711 0.0877964 0
M  V30 6349 H 602.393 5.3467 1.3723 0
M  V30 6350 H 604.869 3.57482 2.12946 0
M  V30 6351 H 603.745 4.47298 3.18144 0
M  V30 6352 H 604.006 2.75768 3.45549 0
M  V30 6353 N 603.065 -0.440357 1.51323 0
M  V30 6354 C 604.295 -1.21079 1.67402 0
M  V30 6355 C 604.703 -1.85555 0.369599 0
M  V30 6356 O 604.046 -1.71375 -0.661525 0
M  V30 6357 C 604.108 -2.33839 2.73056 0
M  V30 6358 C 603.772 -1.89755 4.15743 0
M  V30 6359 C 604.769 -1.40268 5.0062 0
M  V30 6360 C 602.454 -1.97539 4.61826 0
M  V30 6361 C 604.448 -0.991474 6.29642 0
M  V30 6362 C 602.135 -1.56029 5.90845 0
M  V30 6363 C 603.133 -1.06915 6.7458 0
M  V30 6364 O 602.821 -0.659933 8.01187 0
M  V30 6365 H 602.553 -0.371133 0.56501 0
M  V30 6366 H 605.107 -0.528409 1.98487 0
M  V30 6367 H 603.337 -3.05345 2.37279 0
M  V30 6368 H 605.026 -2.95713 2.78044 0
M  V30 6369 H 605.792 -1.33652 4.66221 0
M  V30 6370 H 601.671 -2.34713 3.96776 0
M  V30 6371 H 605.215 -0.607425 6.9495 0
M  V30 6372 H 601.112 -1.62315 6.24759 0
M  V30 6373 H 601.88 -0.786052 8.14717 0
M  V30 6374 N 604.543 -1.41418 -0.695603 0
M  V30 6375 C 605.491 -1.43467 -1.83084 0
M  V30 6376 C 606.485 -0.312719 -1.66489 0
M  V30 6377 O 607.691 -0.484744 -1.7335 0
M  V30 6378 H 604.066 -0.448891 -0.603325 0
M  V30 6379 H 606.037 -2.39144 -1.78473 0
M  V30 6380 C 604.786 -1.3337 -3.21104 0
M  V30 6381 H 604.109 -2.18989 -3.3449 0
M  V30 6382 H 605.549 -1.38865 -4.00615 0
M  V30 6383 C 604.008 -0.0460484 -3.36869 0
M  V30 6384 O 604.538 0.909258 -3.91274 0
M  V30 6385 N 602.744 0.0300222 -2.90584 0
M  V30 6386 H 602.291 -0.748129 -2.46497 0
M  V30 6387 H 602.249 0.890991 -3.01511 0
M  V30 6388 N 606.021 0.929856 -1.27246 0
M  V30 6389 C 607.267 1.6802 -1.14634 0
M  V30 6390 C 607.622 1.89965 0.305151 0
M  V30 6391 O 606.915 1.47737 1.22001 0
M  V30 6392 C 607.109 3.05116 -1.86115 0
M  V30 6393 C 606.938 2.96549 -3.38066 0
M  V30 6394 C 605.708 2.98947 -4.0738 0
M  V30 6395 C 607.906 2.7583 -4.34077 0
M  V30 6396 N 605.888 2.80799 -5.45917 0
M  V30 6397 C 607.259 2.66364 -5.59866 0
M  V30 6398 C 609.314 2.60701 -4.24193 0
M  V30 6399 C 608.017 2.43313 -6.76898 0
M  V30 6400 C 610.043 2.39026 -5.40944 0
M  V30 6401 C 609.405 2.30302 -6.65688 0
M  V30 6402 H 605.504 0.62172 -0.474329 0
M  V30 6403 H 608.088 1.09947 -1.60685 0
M  V30 6404 H 606.259 3.61306 -1.42522 0
M  V30 6405 H 607.991 3.69076 -1.66027 0
M  V30 6406 H 604.746 3.09093 -3.58829 0
M  V30 6407 H 605.17 2.74861 -6.18692 0
M  V30 6408 H 609.812 2.66206 -3.28473 0
M  V30 6409 H 607.53 2.36548 -7.72704 0
M  V30 6410 H 611.116 2.28208 -5.35175 0
M  V30 6411 H 609.996 2.13756 -7.54505 0
M  V30 6412 N 607.499 1.09233 1.13605 0
M  V30 6413 C 608.776 0.739633 1.81077 0
M  V30 6414 C 609.156 -0.775595 1.96336 0
M  V30 6415 O 608.504 -1.69726 1.52988 0
M  V30 6416 C 608.714 1.47636 3.16235 0
M  V30 6417 C 610.062 1.64087 3.91613 0
M  V30 6418 O 611.086 1.43871 3.25852 0
M  V30 6419 O 609.945 1.97511 5.0956 0
M  V30 6420 H 607.039 0.265464 0.783236 0
M  V30 6421 H 609.585 1.19441 1.20549 0
M  V30 6422 H 608.357 2.50818 3.00344 0
M  V30 6423 H 607.98 1.01362 3.84462 0
M  V30 6424 N 608.977 -1.30795 0.87923 0
M  V30 6425 C 610.393 -1.48981 0.57243 0
M  V30 6426 C 610.593 -1.80719 -0.891236 0
M  V30 6427 O 609.649 -1.89136 -1.67283 0
M  V30 6428 C 610.962 -2.61721 1.48063 0
M  V30 6429 C 612.51 -2.75603 1.48365 0
M  V30 6430 C 612.985 -3.91449 2.37763 0
M  V30 6431 N 614.476 -3.98751 2.35695 0
M  V30 6432 C 615.211 -4.87684 3.01583 0
M  V30 6433 N 614.707 -5.81454 3.76674 0
M  V30 6434 N 616.5 -4.81005 2.90844 0
M  V30 6435 H 608.651 -1.08465 1.82617 0
M  V30 6436 H 610.914 -0.536813 0.781368 0
M  V30 6437 H 610.62 -2.45073 2.52254 0
M  V30 6438 H 610.494 -3.58071 1.18596 0
M  V30 6439 H 612.881 -2.9166 0.44927 0
M  V30 6440 H 612.962 -1.79891 1.81859 0
M  V30 6441 H 612.606 -3.76149 3.41283 0
M  V30 6442 H 612.536 -4.86487 2.01589 0
M  V30 6443 H 615.027 -3.31668 1.81121 0
M  V30 6444 H 615.34 -6.46063 4.24054 0
M  V30 6445 H 613.685 -5.81403 3.80782 0
M  V30 6446 H 616.876 -4.06728 2.31711 0
M  V30 6447 H 617.049 -5.50107 3.42471 0
M  V30 6448 N 610.455 -0.639598 -1.44038 0
M  V30 6449 C 611.703 -0.147188 -2.01563 0
M  V30 6450 C 612.024 1.2384 -1.50628 0
M  V30 6451 O 611.294 1.82452 -0.713316 0
M  V30 6452 H 609.874 -0.0514231 -0.745228 0
M  V30 6453 H 612.536 -0.828205 -1.76428 0
M  V30 6454 H 611.632 -0.121358 -3.11864 0
M  V30 6455 N 611.933 1.52934 -0.380664 0
M  V30 6456 C 613.163 2.05587 0.204302 0
M  V30 6457 C 613.571 1.25288 1.41773 0
M  V30 6458 O 612.914 0.290394 1.8139 0
M  V30 6459 C 612.976 3.53624 0.647324 0
M  V30 6460 C 612.64 4.54765 -0.451465 0
M  V30 6461 C 613.637 5.03226 -1.30614 0
M  V30 6462 C 611.322 4.98508 -0.616025 0
M  V30 6463 C 613.316 5.94046 -2.31058 0
M  V30 6464 C 611.003 5.89131 -1.62381 0
M  V30 6465 C 612.001 6.36792 -2.46952 0
M  V30 6466 O 611.689 7.25626 -3.46009 0
M  V30 6467 H 611.421 0.675013 0.0365198 0
M  V30 6468 H 613.975 1.98125 -0.541827 0
M  V30 6469 H 612.205 3.58676 1.44529 0
M  V30 6470 H 613.894 3.89061 1.15698 0
M  V30 6471 H 614.66 4.70167 -1.19027 0
M  V30 6472 H 610.539 4.60989 0.0324987 0
M  V30 6473 H 614.083 6.3117 -2.97104 0
M  V30 6474 H 609.98 6.21603 -1.7401 0
M  V30 6475 H 610.748 7.43664 -3.41916 0
M  V30 6476 N 613.412 0.11024 1.57214 0
M  V30 6477 C 614.659 -0.54987 1.94891 0
M  V30 6478 C 614.987 -1.67243 0.992984 0
M  V30 6479 O 614.242 -1.95694 0.0152703 0
M  V30 6480 C 614.541 -1.13102 3.39032 0
M  V30 6481 C 614.207 -0.130713 4.5071 0
M  V30 6482 C 612.869 0.14437 4.80983 0
M  V30 6483 C 615.221 0.551472 5.18274 0
M  V30 6484 C 612.549 1.10807 5.76141 0
M  V30 6485 C 614.901 1.50375 6.14467 0
M  V30 6486 C 613.565 1.78691 6.43138 0
M  V30 6487 H 612.835 -0.201212 0.713158 0
M  V30 6488 H 615.482 0.189288 1.90562 0
M  V30 6489 H 613.787 -1.94675 3.40013 0
M  V30 6490 H 615.484 -1.64973 3.65493 0
M  V30 6491 H 612.074 -0.355301 4.27125 0
M  V30 6492 H 616.258 0.35211 4.95049 0
M  V30 6493 H 611.514 1.3343 5.96663 0
M  V30 6494 H 615.688 2.03808 6.65909 0
M  V30 6495 H 613.315 2.53522 7.1668 0
M  V30 6496 N 614.89 -1.56749 -0.16351 0
M  V30 6497 C 616.138 -1.82074 -0.87713 0
M  V30 6498 C 616.459 -0.688503 -1.82441 0
M  V30 6499 O 615.729 0.291085 -1.93725 0
M  V30 6500 H 614.309 -0.671677 -0.326893 0
M  V30 6501 H 616.971 -1.9423 -0.161459 0
M  V30 6502 H 616.067 -2.76407 -1.44934 0
M  V30 6503 N 616.368 0.432326 -1.51554 0
M  V30 6504 C 617.316 1.54572 -1.73811 0
M  V30 6505 C 618.31 1.58246 -0.604539 0
M  V30 6506 O 619.516 1.6193 -0.786041 0
M  V30 6507 H 615.891 0.513626 -0.549265 0
M  V30 6508 H 617.862 1.32977 -2.67132 0
M  V30 6509 C 616.611 2.92181 -1.88483 0
M  V30 6510 H 615.934 2.90088 -2.75116 0
M  V30 6511 H 617.374 3.69439 -2.08065 0
M  V30 6512 C 615.833 3.3065 -0.645909 0
M  V30 6513 O 616.363 4.01216 0.197093 0
M  V30 6514 N 614.569 2.86464 -0.488538 0
M  V30 6515 H 614.116 2.29209 -1.17562 0
M  V30 6516 H 614.074 3.12565 0.339156 0
M  V30 6517 N 617.846 1.41785 0.688094 0
M  V30 6518 C 619.095 1.4084 1.44385 0
M  V30 6519 C 619.408 0.0234166 1.95586 0
M  V30 6520 O 620.614 -0.108647 2.71283 0
M  V30 6521 C 619.07 2.47675 2.61123 0
M  V30 6522 C 618.678 3.92116 2.16677 0
M  V30 6523 C 620.422 2.55877 3.38714 0
M  V30 6524 C 618.329 4.90487 3.30419 0
M  V30 6525 H 617.259 0.523787 0.542368 0
M  V30 6526 H 619.91 1.6764 0.74627 0
M  V30 6527 H 618.292 2.14018 3.33185 0
M  V30 6528 H 619.466 4.35059 1.51856 0
M  V30 6529 H 617.781 3.87642 1.5206 0
M  V30 6530 H 620.378 3.26553 4.234 0
M  V30 6531 H 620.721 1.59801 3.84408 0
M  V30 6532 H 621.254 2.88662 2.73714 0
M  V30 6533 H 617.993 5.87994 2.89729 0
M  V30 6534 H 617.513 4.52187 3.94065 0
M  V30 6535 H 619.192 5.11591 3.96085 0
M  V30 6536 N 619.324 -0.923095 1.27737 0
M  V30 6537 C 620.552 -1.70525 1.17171 0
M  V30 6538 C 620.967 -1.86847 -0.270881 0
M  V30 6539 O 620.324 -1.38879 -1.18401 0
M  V30 6540 C 620.375 -3.10242 1.85559 0
M  V30 6541 O 620.096 -2.94683 3.24182 0
M  V30 6542 C 621.597 -4.04586 1.81176 0
M  V30 6543 H 618.817 -0.533347 0.407163 0
M  V30 6544 H 621.361 -1.15599 1.68692 0
M  V30 6545 H 619.516 -3.62014 1.3793 0
M  V30 6546 H 619.93 -3.83045 3.58297 0
M  V30 6547 H 621.404 -5.00119 2.33633 0
M  V30 6548 H 621.881 -4.3218 0.782099 0
M  V30 6549 H 622.487 -3.58741 2.2844 0
M  V30 6550 N 620.802 -1.09834 -1.13024 0
M  V30 6551 C 621.732 -0.763451 -2.20666 0
M  V30 6552 C 622.713 0.260778 -1.68089 0
M  V30 6553 O 623.898 0.127915 -1.93778 0
M  V30 6554 C 621.028 -0.187744 -3.46792 0
M  V30 6555 C 619.982 -1.14196 -4.12484 0
M  V30 6556 C 619.308 -0.427755 -5.32986 0
M  V30 6557 C 620.608 -2.48607 -4.59338 0
M  V30 6558 H 622.302 -1.66347 -2.48936 0
M  V30 6559 H 619.848 -0.801261 -1.19649 0
M  V30 6560 H 621.801 0.0586375 -4.21359 0
M  V30 6561 H 620.525 0.747485 -3.17931 0
M  V30 6562 H 619.184 -1.37369 -3.3989 0
M  V30 6563 H 618.832 0.511747 -5.0039 0
M  V30 6564 H 618.532 -1.06403 -5.77886 0
M  V30 6565 H 620.056 -0.189772 -6.10305 0
M  V30 6566 H 621.47 -2.29618 -5.25308 0
M  V30 6567 H 619.867 -3.08062 -5.14993 0
M  V30 6568 H 620.937 -3.09062 -3.73642 0
M  V30 6569 N 622.28 1.30327 -0.886154 0
M  V30 6570 C 623.212 2.27079 -0.311072 0
M  V30 6571 C 624.225 1.53758 0.53502 0
M  V30 6572 O 625.414 1.74947 0.354378 0
M  V30 6573 C 622.514 3.33965 0.576228 0
M  V30 6574 C 621.687 4.36735 -0.241064 0
M  V30 6575 C 620.746 5.23028 0.576916 0
M  V30 6576 O 619.772 5.692 -0.000802231 0
M  V30 6577 N 620.974 5.49016 1.88579 0
M  V30 6578 H 623.739 2.77065 -1.14259 0
M  V30 6579 H 621.3 1.43519 -0.749258 0
M  V30 6580 H 623.292 3.88618 1.12953 0
M  V30 6581 H 621.862 2.839 1.30842 0
M  V30 6582 H 621.082 3.81932 -0.975805 0
M  V30 6583 H 622.37 5.02451 -0.801272 0
M  V30 6584 H 621.768 5.13288 2.37806 0
M  V30 6585 H 620.325 6.06539 2.38651 0
M  V30 6586 N 623.758 0.647228 1.43697 0
M  V30 6587 C 624.988 0.16551 2.05936 0
M  V30 6588 C 625.396 -1.17164 1.48557 0
M  V30 6589 O 624.739 -1.73307 0.60914 0
M  V30 6590 C 624.801 -0.00648082 3.59499 0
M  V30 6591 C 624.465 1.25503 4.39429 0
M  V30 6592 C 625.462 2.18241 4.71876 0
M  V30 6593 C 623.147 1.49494 4.79538 0
M  V30 6594 C 625.141 3.33268 5.43333 0
M  V30 6595 C 622.828 2.64815 5.50742 0
M  V30 6596 C 623.826 3.56528 5.82561 0
M  V30 6597 O 623.514 4.69836 6.52311 0
M  V30 6598 H 623.246 0.0844124 0.670709 0
M  V30 6599 H 625.8 0.88638 1.8529 0
M  V30 6600 H 624.03 -0.782661 3.78697 0
M  V30 6601 H 625.719 -0.444794 4.03456 0
M  V30 6602 H 626.485 2.00946 4.41413 0
M  V30 6603 H 622.364 0.789912 4.54182 0
M  V30 6604 H 625.908 4.04874 5.68087 0
M  V30 6605 H 621.805 2.82047 5.8062 0
M  V30 6606 H 622.573 4.69024 6.70789 0
M  V30 6607 N 625.236 -1.5273 0.388769 0
M  V30 6608 C 626.199 -2.25043 -0.434544 0
M  V30 6609 C 627.199 -1.26661 -0.990644 0
M  V30 6610 O 628.389 -1.50762 -0.872731 0
M  V30 6611 C 625.521 -3.00507 -1.60961 0
M  V30 6612 H 626.714 -2.99242 0.198549 0
M  V30 6613 H 624.267 -1.55664 0.140875 0
M  V30 6614 H 625.002 -2.30607 -2.28015 0
M  V30 6615 H 624.787 -3.72716 -1.21757 0
M  V30 6616 H 626.277 -3.55413 -2.19251 0
M  V30 6617 N 626.714 -0.118576 -1.57153 0
M  V30 6618 C 627.644 0.828436 -2.1831 0
M  V30 6619 C 628.625 1.27758 -1.12303 0
M  V30 6620 O 629.81 1.34026 -1.40537 0
M  V30 6621 C 626.94 2.07876 -2.78217 0
M  V30 6622 C 625.894 1.76742 -3.89803 0
M  V30 6623 C 625.22 3.08801 -4.36516 0
M  V30 6624 C 626.52 1.03606 -5.11921 0
M  V30 6625 H 628.214 0.318824 -2.97698 0
M  V30 6626 H 625.76 0.151911 -1.43196 0
M  V30 6627 H 627.713 2.74584 -3.19659 0
M  V30 6628 H 626.437 2.61161 -1.96118 0
M  V30 6629 H 625.096 1.12424 -3.48936 0
M  V30 6630 H 624.744 3.6002 -3.51276 0
M  V30 6631 H 624.444 2.88743 -5.11763 0
M  V30 6632 H 625.968 3.76627 -4.80608 0
M  V30 6633 H 627.382 1.60467 -5.50385 0
M  V30 6634 H 625.779 0.936454 -5.92748 0
M  V30 6635 H 626.849 0.0227421 -4.84895 0
M  V30 6636 N 628.193 1.56834 0.155195 0
M  V30 6637 C 629.125 1.94235 1.21677 0
M  V30 6638 C 630.138 0.83724 1.39621 0
M  V30 6639 O 631.327 1.11567 1.39338 0
M  V30 6640 C 628.427 2.19402 2.58294 0
M  V30 6641 C 627.6 3.50671 2.61436 0
M  V30 6642 C 626.659 3.64475 3.79532 0
M  V30 6643 O 625.685 4.36945 3.64784 0
M  V30 6644 N 626.887 3.00526 4.96653 0
M  V30 6645 H 629.652 2.85901 0.898932 0
M  V30 6646 H 627.213 1.58185 0.34483 0
M  V30 6647 H 629.205 2.25886 3.35794 0
M  V30 6648 H 627.775 1.34042 2.82403 0
M  V30 6649 H 626.995 3.55702 1.69912 0
M  V30 6650 H 628.283 4.3702 2.60559 0
M  V30 6651 H 627.681 2.41549 5.11538 0
M  V30 6652 H 626.238 3.12583 5.71958 0
M  V30 6653 N 629.671 -0.424282 1.51781 0
M  V30 6654 C 630.603 -1.53457 1.70246 0
M  V30 6655 C 631.616 -1.52004 0.582967 0
M  V30 6656 O 632.805 -1.56544 0.857683 0
M  V30 6657 C 629.905 -2.92368 1.71389 0
M  V30 6658 C 629.078 -3.1818 3.00133 0
M  V30 6659 C 628.137 -4.36884 2.9329 0
M  V30 6660 O 627.163 -4.34901 3.67219 0
M  V30 6661 N 628.365 -5.4117 2.10036 0
M  V30 6662 H 631.13 -1.38017 2.66029 0
M  V30 6663 H 628.691 -0.613394 1.4983 0
M  V30 6664 H 630.683 -3.6982 1.64362 0
M  V30 6665 H 629.253 -3.0134 0.831449 0
M  V30 6666 H 628.473 -2.28908 3.20928 0
M  V30 6667 H 629.761 -3.32261 3.85331 0
M  V30 6668 H 629.159 -5.45623 1.49373 0
M  V30 6669 H 627.716 -6.17425 2.08878 0
M  V30 6670 N 631.149 -1.42148 -0.680565 0
M  V30 6671 C 632.374 -1.45901 -1.47403 0
M  V30 6672 C 632.799 -0.0700985 -1.87969 0
M  V30 6673 O 632.157 0.930145 -1.55621 0
M  V30 6674 C 632.205 -2.38661 -2.70321 0
M  V30 6675 O 631.309 -1.85399 -3.68376 0
M  V30 6676 H 630.65 -0.494565 -0.443059 0
M  V30 6677 H 633.18 -1.86774 -0.835251 0
M  V30 6678 H 633.19 -2.55046 -3.18458 0
M  V30 6679 H 631.865 -3.39571 -2.40134 0
M  V30 6680 H 630.442 -1.78541 -3.2738 0
M  V30 6681 N 632.627 0.916307 -1.28225 0
M  V30 6682 C 634.043 1.19425 -1.05876 0
M  V30 6683 C 634.243 2.005 0.2005 0
M  V30 6684 O 633.299 2.35806 0.902873 0
M  V30 6685 C 634.612 1.93133 -2.30478 0
M  V30 6686 C 636.16 2.06026 -2.35632 0
M  V30 6687 C 636.635 2.83141 -3.59994 0
M  V30 6688 N 638.126 2.90704 -3.60618 0
M  V30 6689 C 638.861 3.50865 -4.53521 0
M  V30 6690 N 638.357 4.12327 -5.56739 0
M  V30 6691 N 640.15 3.48379 -4.41122 0
M  V30 6692 H 632.301 0.37496 -2.09064 0
M  V30 6693 H 634.564 0.228531 -0.920042 0
M  V30 6694 H 634.27 1.40985 -3.22205 0
M  V30 6695 H 634.144 2.93696 -2.36691 0
M  V30 6696 H 636.531 2.57355 -1.44404 0
M  V30 6697 H 636.612 1.04647 -2.33415 0
M  V30 6698 H 636.256 2.32492 -4.51564 0
M  V30 6699 H 636.186 3.84829 -3.59464 0
M  V30 6700 H 638.677 2.47034 -2.85977 0
M  V30 6701 H 638.99 4.56205 -6.23776 0
M  V30 6702 H 637.335 4.10839 -5.60568 0
M  V30 6703 H 640.526 2.99572 -3.59686 0
M  V30 6704 H 640.699 3.94974 -5.13712 0
M  V30 6705 N 634.105 1.10431 1.1244 0
M  V30 6706 C 635.053 0.747974 2.20246 0
M  V30 6707 C 636.047 -0.255848 1.67457 0
M  V30 6708 O 637.253 -0.116221 1.79624 0
M  V30 6709 H 633.628 0.223946 0.71788 0
M  V30 6710 H 635.599 1.6661 2.47556 0
M  V30 6711 C 634.348 0.195957 3.47147 0
M  V30 6712 H 633.671 0.959606 3.88113 0
M  V30 6713 H 635.111 -0.0153154 4.23997 0
M  V30 6714 C 633.57 -1.07132 3.19413 0
M  V30 6715 O 634.1 -2.15284 3.3914 0
M  V30 6716 N 632.306 -0.98994 2.73219 0
M  V30 6717 H 631.853 -0.109736 2.57366 0
M  V30 6718 H 631.811 -1.83856 2.55038 0
M  V30 6719 N 635.583 -1.29855 0.893053 0
M  V30 6720 C 636.829 -1.96116 0.516349 0
M  V30 6721 C 637.162 -1.70281 -0.933695 0
M  V30 6722 O 636.437 -1.01205 -1.66096 0
M  V30 6723 C 636.72 -3.51068 0.801455 0
M  V30 6724 C 636.573 -3.86387 2.30272 0
M  V30 6725 C 637.892 -4.39186 0.283423 0
M  V30 6726 H 635.011 -0.712335 0.189072 0
M  V30 6727 H 637.653 -1.53587 1.11852 0
M  V30 6728 H 635.803 -3.87424 0.288949 0
M  V30 6729 H 637.475 -3.60012 2.88425 0
M  V30 6730 H 635.718 -3.34167 2.76613 0
M  V30 6731 H 636.389 -4.94512 2.45279 0
M  V30 6732 H 638.865 -4.09785 0.722187 0
M  V30 6733 H 637.741 -5.46505 0.512169 0
M  V30 6734 H 638.002 -4.34511 -0.815643 0
M  V30 6735 N 637.061 -0.65484 -1.43351 0
M  V30 6736 C 638.472 -0.248506 -1.85039 0
M  V30 6737 C 638.823 1.20526 -1.54816 0
M  V30 6738 O 637.948 1.92016 -0.99794 0
M  V30 6739 C 638.543 -0.444241 -3.35875 0
M  V30 6740 C 637.102 -0.0922108 -3.76287 0
M  V30 6741 C 636.249 -0.746327 -2.67068 0
M  V30 6742 H 639.2 -0.8584 -1.33481 0
M  V30 6743 H 639.221 0.309762 -3.79237 0
M  V30 6744 H 638.733 -1.50239 -3.5784 0
M  V30 6745 H 636.834 0.96328 -3.59933 0
M  V30 6746 H 636.947 -0.518807 -4.76283 0
M  V30 6747 H 635.311 -0.179416 -2.54067 0
M  V30 6748 H 636.094 -1.80754 -2.91861 0
M  V30 6749 N 638.539 1.52521 -0.396863 0
M  V30 6750 C 639.502 2.2527 0.422604 0
M  V30 6751 C 640.502 1.27184 0.983913 0
M  V30 6752 O 641.692 1.51222 0.864723 0
M  V30 6753 C 638.824 3.01356 1.59365 0
M  V30 6754 H 640.017 2.99133 -0.214416 0
M  V30 6755 H 637.57 1.55587 -0.149128 0
M  V30 6756 H 638.305 2.31813 2.26789 0
M  V30 6757 H 638.09 3.73357 1.19779 0
M  V30 6758 H 639.58 3.56571 2.17363 0
M  V30 6759 N 640.017 0.126909 1.57088 0
M  V30 6760 C 641.263 -0.529952 1.95753 0
M  V30 6761 C 641.596 -1.65823 1.01077 0
M  V30 6762 O 640.871 -1.94437 0.0494162 0
M  V30 6763 C 641.154 -1.05517 3.44294 0
M  V30 6764 C 641.007 0.0702253 4.49745 0
M  V30 6765 C 642.326 -1.9435 3.94862 0
M  V30 6766 H 639.445 -0.191168 0.711775 0
M  V30 6767 H 642.087 0.204071 1.88901 0
M  V30 6768 H 640.237 -1.68069 3.50264 0
M  V30 6769 H 641.909 0.705834 4.55868 0
M  V30 6770 H 640.152 0.732259 4.27575 0
M  V30 6771 H 640.823 -0.338642 5.5096 0
M  V30 6772 H 643.299 -1.41658 3.91244 0
M  V30 6773 H 642.175 -2.28015 4.993 0
M  V30 6774 H 642.436 -2.87299 3.36024 0
M  V30 6775 N 641.495 -1.56914 -0.146875 0
M  V30 6776 C 642.405 -2.0154 -1.20079 0
M  V30 6777 C 643.421 -0.930838 -1.47008 0
M  V30 6778 O 644.597 -1.24032 -1.58676 0
M  V30 6779 C 641.662 -2.38715 -2.51428 0
M  V30 6780 C 640.723 -3.6112 -2.32145 0
M  V30 6781 C 639.956 -3.96512 -3.57231 0
M  V30 6782 O 640.179 -3.32566 -4.63418 0
M  V30 6783 O 639.113 -4.89758 -3.49887 0
M  V30 6784 H 642.939 -2.91506 -0.851924 0
M  V30 6785 H 640.524 -1.45106 -0.355607 0
M  V30 6786 H 642.406 -2.63485 -3.28867 0
M  V30 6787 H 641.081 -1.51903 -2.85845 0
M  V30 6788 H 639.988 -3.41536 -1.52656 0
M  V30 6789 H 641.321 -4.48549 -2.02644 0
M  V30 6790 N 642.974 0.416227 -1.52004 0
M  V30 6791 C 644.202 1.18573 -1.69553 0
M  V30 6792 C 644.617 1.84472 -0.401919 0
M  V30 6793 O 643.974 1.71593 0.621463 0
M  V30 6794 C 644.025 2.25413 -2.82615 0
M  V30 6795 O 643.746 1.62205 -4.06966 0
M  V30 6796 C 645.247 3.15297 -3.11613 0
M  V30 6797 H 642.467 0.356582 -0.56841 0
M  V30 6798 H 645.011 0.490618 -1.98528 0
M  V30 6799 H 643.166 2.90604 -2.56179 0
M  V30 6800 H 643.58 2.3298 -4.69916 0
M  V30 6801 H 645.054 3.86351 -3.94255 0
M  V30 6802 H 645.531 3.77264 -2.24874 0
M  V30 6803 H 646.137 2.55783 -3.39787 0
M  V30 6804 N 644.452 1.42507 0.673017 0
M  V30 6805 C 645.382 1.48916 1.79851 0
M  V30 6806 C 646.363 0.345566 1.66553 0
M  V30 6807 O 647.548 0.560116 1.85947 0
M  V30 6808 C 644.678 1.39258 3.18158 0
M  V30 6809 C 643.632 2.51662 3.46194 0
M  V30 6810 C 642.958 2.27062 4.84094 0
M  V30 6811 C 644.258 3.93968 3.42909 0
M  V30 6812 H 645.952 2.43114 1.74745 0
M  V30 6813 H 643.498 1.17013 0.839288 0
M  V30 6814 H 645.451 1.42349 3.96629 0
M  V30 6815 H 644.175 0.415542 3.23946 0
M  V30 6816 H 642.834 2.47891 2.70084 0
M  V30 6817 H 642.482 1.27648 4.86534 0
M  V30 6818 H 642.182 3.02398 5.03815 0
M  V30 6819 H 643.706 2.31905 5.64847 0
M  V30 6820 H 645.12 3.99332 4.11347 0
M  V30 6821 H 643.517 4.6917 3.74165 0
M  V30 6822 H 644.587 4.20512 2.41449 0
M  V30 6823 N 645.93 -0.909495 1.28709 0
M  V30 6824 C 646.878 -2.03381 1.12866 0
M  V30 6825 C 647.872 -1.69335 0.0468074 0
M  V30 6826 O 649.078 -1.78819 0.205891 0
M  V30 6827 H 645.453 -0.666452 0.348348 0
M  V30 6828 H 647.424 -2.13885 2.08077 0
M  V30 6829 C 646.173 -3.38092 0.811742 0
M  V30 6830 H 645.496 -3.64786 1.63619 0
M  V30 6831 H 646.936 -4.17477 0.740869 0
M  V30 6832 C 645.395 -3.33395 -0.484679 0
M  V30 6833 O 645.925 -3.72089 -1.5137 0
M  V30 6834 N 644.131 -2.86491 -0.486961 0
M  V30 6835 H 643.678 -2.55199 0.350877 0
M  V30 6836 H 643.636 -2.83731 -1.3544 0
M  V30 6837 N 647.408 -1.11026 -1.11852 0
M  V30 6838 C 648.355 -0.764662 -2.17765 0
M  V30 6839 C 649.325 0.261854 -1.64023 0
M  V30 6840 O 650.51 0.139748 -1.90288 0
M  V30 6841 C 647.65 -0.209317 -3.44465 0
M  V30 6842 C 646.763 -1.29187 -4.12231 0
M  V30 6843 C 645.898 -0.697523 -5.266 0
M  V30 6844 C 644.937 -1.76023 -5.86244 0
M  V30 6845 N 644.074 -1.18569 -6.92016 0
M  V30 6846 H 648.914 -1.67202 -2.46673 0
M  V30 6847 H 646.451 -0.835065 -1.21099 0
M  V30 6848 H 648.409 0.130599 -4.16996 0
M  V30 6849 H 647.039 0.661251 -3.15955 0
M  V30 6850 H 646.091 -1.74881 -3.37818 0
M  V30 6851 H 647.403 -2.09607 -4.52622 0
M  V30 6852 H 646.557 -0.307412 -6.05921 0
M  V30 6853 H 645.296 0.138044 -4.87505 0
M  V30 6854 H 644.301 -2.1597 -5.05606 0
M  V30 6855 H 645.526 -2.59875 -6.27409 0
M  V30 6856 H 643.472 -0.371695 -6.54946 0
M  V30 6857 H 643.389 -1.92666 -7.31038 0
M  V30 6858 H 644.657 -0.82233 -7.7515 0
M  V30 6859 N 648.886 1.2938 -0.899927 0
M  V30 6860 C 650.132 1.9584 -0.526742 0
M  V30 6861 C 650.465 1.70774 0.924651 0
M  V30 6862 O 649.74 1.02084 1.65557 0
M  V30 6863 C 650.023 3.50638 -0.820062 0
M  V30 6864 C 649.876 3.85161 -2.32317 0
M  V30 6865 C 651.195 4.3903 -0.30671 0
M  V30 6866 H 648.314 0.711322 -0.192848 0
M  V30 6867 H 650.956 1.52992 -1.12665 0
M  V30 6868 H 649.106 3.87265 -0.309491 0
M  V30 6869 H 650.778 3.58477 -2.9033 0
M  V30 6870 H 649.021 3.32696 -2.78381 0
M  V30 6871 H 649.692 4.93204 -2.47898 0
M  V30 6872 H 652.168 4.09396 -0.743908 0
M  V30 6873 H 651.044 5.46226 -0.541144 0
M  V30 6874 H 651.305 4.34937 0.792588 0
M  V30 6875 N 650.364 0.662433 1.43002 0
M  V30 6876 C 651.612 0.179237 2.01304 0
M  V30 6877 C 651.933 -1.21428 1.52579 0
M  V30 6878 O 651.203 -1.81294 0.742252 0
M  V30 6879 H 649.783 0.0632725 0.744316 0
M  V30 6880 H 652.445 0.856169 1.75088 0
M  V30 6881 H 651.541 0.170957 3.11631 0
M  V30 6882 N 651.842 -1.52309 0.404946 0
M  V30 6883 C 652.772 -2.29805 -0.41376 0
M  V30 6884 C 653.753 -1.3384 -1.0498 0
M  V30 6885 O 654.938 -1.62745 -1.05961 0
M  V30 6886 C 652.068 -3.11639 -1.53292 0
M  V30 6887 C 651.022 -4.15616 -1.02211 0
M  V30 6888 C 650.348 -4.8577 -2.23455 0
M  V30 6889 C 651.648 -5.2224 -0.0790725 0
M  V30 6890 H 653.342 -2.98493 0.232878 0
M  V30 6891 H 650.888 -1.43552 0.113441 0
M  V30 6892 H 652.841 -3.64618 -2.11262 0
M  V30 6893 H 651.565 -2.40712 -2.20738 0
M  V30 6894 H 650.224 -3.63641 -0.46484 0
M  V30 6895 H 649.872 -4.11376 -2.89445 0
M  V30 6896 H 649.572 -5.56058 -1.89929 0
M  V30 6897 H 651.096 -5.4156 -2.82038 0
M  V30 6898 H 652.51 -5.70485 -0.567438 0
M  V30 6899 H 650.907 -5.99867 0.167167 0
M  V30 6900 H 651.977 -4.77078 0.867447 0
M  V30 6901 N 653.32 -0.135238 -1.57019 0
M  V30 6902 C 654.268 0.826099 -2.17436 0
M  V30 6903 C 655.262 1.26378 -1.12805 0
M  V30 6904 O 656.468 1.23363 -1.31079 0
M  V30 6905 H 652.843 0.284568 -0.696078 0
M  V30 6906 H 654.814 0.292212 -2.96966 0
M  V30 6907 C 653.563 2.05991 -2.80112 0
M  V30 6908 H 652.886 1.73209 -3.60331 0
M  V30 6909 H 654.326 2.71225 -3.25903 0
M  V30 6910 C 652.785 2.86027 -1.78017 0
M  V30 6911 O 653.315 3.81971 -1.24344 0
M  V30 6912 N 651.521 2.50332 -1.47588 0
M  V30 6913 H 651.068 1.72377 -1.91426 0
M  V30 6914 H 651.026 3.04177 -0.795228 0
M  V30 6915 N 654.798 1.5699 0.138552 0
M  V30 6916 C 656.214 1.51844 0.491472 0
M  V30 6917 C 656.414 0.845063 1.82923 0
M  V30 6918 O 655.47 0.419143 2.48997 0
M  V30 6919 C 656.783 2.96615 0.493987 0
M  V30 6920 C 658.331 3.076 0.578913 0
M  V30 6921 C 658.806 4.53893 0.612009 0
M  V30 6922 N 660.297 4.5827 0.673997 0
M  V30 6923 C 661.032 5.68852 0.720729 0
M  V30 6924 N 660.528 6.88982 0.726292 0
M  V30 6925 N 662.321 5.56908 0.762253 0
M  V30 6926 H 654.472 1.99158 -0.738228 0
M  V30 6927 H 656.735 0.908693 -0.270149 0
M  V30 6928 H 656.441 3.49172 -0.420933 0
M  V30 6929 H 656.315 3.53017 1.32887 0
M  V30 6930 H 658.702 2.55057 1.48425 0
M  V30 6931 H 658.783 2.54227 -0.283286 0
M  V30 6932 H 658.427 5.07076 -0.289208 0
M  V30 6933 H 658.357 5.05057 1.49082 0
M  V30 6934 H 660.848 3.71793 0.676654 0
M  V30 6935 H 661.161 7.69014 0.764032 0
M  V30 6936 H 659.506 6.91526 0.69403 0
M  V30 6937 H 662.697 4.61969 0.755135 0
M  V30 6938 H 662.87 6.43102 0.795207 0
M  V30 6939 N 656.276 -0.40816 1.52223 0
M  V30 6940 C 657.239 -1.48 1.7501 0
M  V30 6941 C 658.239 -1.48367 0.619996 0
M  V30 6942 O 659.429 -1.49874 0.887881 0
M  V30 6943 C 656.561 -2.87403 1.83336 0
M  V30 6944 H 657.754 -1.29086 2.70697 0
M  V30 6945 H 655.307 -0.638715 1.42654 0
M  V30 6946 H 656.042 -3.11686 0.895677 0
M  V30 6947 H 655.827 -2.8854 2.65494 0
M  V30 6948 H 657.317 -3.65103 2.02705 0
M  V30 6949 N 657.755 -1.42862 -0.66545 0
M  V30 6950 C 658.702 -1.4707 -1.77874 0
M  V30 6951 C 659.672 -0.321654 -1.62956 0
M  V30 6952 O 660.857 -0.52707 -1.83376 0
M  V30 6953 C 657.997 -1.38788 -3.15962 0
M  V30 6954 C 657.11 -2.63801 -3.42101 0
M  V30 6955 C 656.245 -2.47594 -4.69969 0
M  V30 6956 C 655.284 -3.67936 -4.89172 0
M  V30 6957 N 654.421 -3.50614 -6.08288 0
M  V30 6958 H 659.261 -2.42204 -1.73613 0
M  V30 6959 H 656.798 -1.20239 -0.847401 0
M  V30 6960 H 658.756 -1.31982 -3.95773 0
M  V30 6961 H 657.386 -0.472431 -3.19324 0
M  V30 6962 H 656.438 -2.80935 -2.56475 0
M  V30 6963 H 657.75 -3.53228 -3.52181 0
M  V30 6964 H 656.904 -2.38427 -5.57886 0
M  V30 6965 H 655.643 -1.55672 -4.62188 0
M  V30 6966 H 654.648 -3.77525 -3.99694 0
M  V30 6967 H 655.873 -4.60851 -4.98792 0
M  V30 6968 H 653.819 -2.61417 -6.01662 0
M  V30 6969 H 653.736 -4.33634 -6.19272 0
M  V30 6970 H 655.004 -3.45276 -6.98859 0
M  V30 6971 N 659.233 0.902656 -1.29189 0
M  V30 6972 C 660.461 1.68639 -1.19869 0
M  V30 6973 C 660.876 1.87254 0.241121 0
M  V30 6974 O 660.233 1.40745 1.16177 0
M  V30 6975 C 660.284 3.07251 -1.90471 0
M  V30 6976 O 660.005 2.89488 -3.28829 0
M  V30 6977 C 661.506 4.01653 -1.8759 0
M  V30 6978 H 658.726 0.526802 -0.415596 0
M  V30 6979 H 661.27 1.12901 -1.7051 0
M  V30 6980 H 659.425 3.59774 -1.43672 0
M  V30 6981 H 659.839 3.77296 -3.64346 0
M  V30 6982 H 661.313 4.96339 -2.4156 0
M  V30 6983 H 661.79 4.30881 -0.850756 0
M  V30 6984 H 662.396 3.55061 -2.34119 0
M  V30 6985 N 660.711 1.11618 1.11262 0
M  V30 6986 C 661.958 0.86618 1.8304 0
M  V30 6987 C 662.286 -0.608149 1.84748 0
M  V30 6988 O 661.541 -1.46508 1.29745 0
M  V30 6989 C 661.84 1.37529 3.2988 0
M  V30 6990 C 661.506 2.86317 3.4833 0
M  V30 6991 C 660.168 3.26945 3.53073 0
M  V30 6992 C 662.52 3.82136 3.54431 0
M  V30 6993 C 659.848 4.62117 3.61475 0
M  V30 6994 C 662.2 5.17128 3.64365 0
M  V30 6995 C 660.864 5.57312 3.67369 0
M  V30 6996 H 660.134 0.316958 0.66979 0
M  V30 6997 H 662.781 1.3949 1.31205 0
M  V30 6998 H 661.086 0.766842 3.84222 0
M  V30 6999 H 662.783 1.15817 3.83911 0
M  V30 7000 H 659.373 2.53889 3.45309 0
M  V30 7001 H 663.557 3.51847 3.50025 0
M  V30 7002 H 658.813 4.92655 3.62079 0
M  V30 7003 H 662.987 5.91208 3.68029 0
M  V30 7004 H 660.614 6.62045 3.73632 0
M  V30 7005 N 662.189 -1.289 0.906776 0
M  V30 7006 C 663.119 -2.29932 0.406659 0
M  V30 7007 C 664.1 -1.6189 -0.522061 0
M  V30 7008 O 665.285 -1.8935 -0.431283 0
M  V30 7009 C 662.415 -3.45425 -0.360366 0
M  V30 7010 C 661.369 -4.25316 0.478574 0
M  V30 7011 C 660.695 -5.33076 -0.416373 0
M  V30 7012 C 661.995 -4.92739 1.7322 0
M  V30 7013 H 663.689 -2.72013 1.25097 0
M  V30 7014 H 661.235 -1.30768 0.602977 0
M  V30 7015 H 663.188 -4.15186 -0.721029 0
M  V30 7016 H 661.912 -3.02206 -1.23852 0
M  V30 7017 H 660.571 -3.57273 0.821662 0
M  V30 7018 H 660.219 -4.86101 -1.29287 0
M  V30 7019 H 659.919 -5.8743 0.141309 0
M  V30 7020 H 661.443 -6.05686 -0.773072 0
M  V30 7021 H 662.857 -5.54898 1.44086 0
M  V30 7022 H 661.254 -5.57057 2.23175 0
M  V30 7023 H 662.324 -4.17625 2.46408 0
M  V30 7024 N 663.667 -0.670007 -1.42649 0
M  V30 7025 C 664.615 0.0230106 -2.32589 0
M  V30 7026 C 665.609 0.795585 -1.49555 0
M  V30 7027 O 666.815 0.70409 -1.65658 0
M  V30 7028 H 663.19 0.0262342 -0.751542 0
M  V30 7029 H 665.161 -0.753009 -2.88743 0
M  V30 7030 C 663.91 0.963872 -3.34073 0
M  V30 7031 H 663.233 0.378813 -3.98001 0
M  V30 7032 H 664.673 1.41755 -3.99602 0
M  V30 7033 C 663.132 2.06797 -2.65964 0
M  V30 7034 O 663.662 3.15383 -2.48789 0
M  V30 7035 N 661.868 1.83831 -2.25066 0
M  V30 7036 H 661.415 0.955235 -2.39234 0
M  V30 7037 H 661.373 2.57895 -1.79827 0
M  V30 7038 N 665.145 1.52092 -0.413018 0
M  V30 7039 C 666.393 2.01456 0.161178 0
M  V30 7040 C 666.714 1.30034 1.45314 0
M  V30 7041 O 665.984 0.427435 1.9118 0
M  V30 7042 H 664.564 0.744376 0.0625526 0
M  V30 7043 H 667.226 1.86974 -0.550151 0
M  V30 7044 H 666.322 3.1008 0.354517 0
M  V30 7045 N 666.623 0.143563 1.56945 0
M  V30 7046 C 667.553 -0.7936 2.196 0
M  V30 7047 C 668.534 -1.25955 1.14321 0
M  V30 7048 O 669.719 -1.31773 1.42651 0
M  V30 7049 C 666.849 -2.03424 2.81489 0
M  V30 7050 C 665.803 -1.70519 3.92565 0
M  V30 7051 C 665.129 -3.01817 4.41373 0
M  V30 7052 C 666.429 -0.95449 5.13504 0
M  V30 7053 H 668.123 -0.271423 2.98167 0
M  V30 7054 H 665.669 -0.12911 1.4342 0
M  V30 7055 H 667.622 -2.69463 3.23987 0
M  V30 7056 H 666.346 -2.58008 2.00248 0
M  V30 7057 H 665.005 -1.06859 3.5068 0
M  V30 7058 H 664.653 -3.54386 3.56959 0
M  V30 7059 H 664.353 -2.80565 5.16292 0
M  V30 7060 H 665.877 -3.68934 4.86539 0
M  V30 7061 H 667.291 -1.5169 5.52868 0
M  V30 7062 H 665.688 -0.842035 5.94163 0
M  V30 7063 H 666.758 0.0544033 4.84869 0
M  V30 7064 N 668.101 -1.57061 -0.130224 0
M  V30 7065 C 669.349 -1.83893 -0.838313 0
M  V30 7066 C 669.67 -0.727046 -1.80939 0
M  V30 7067 O 668.94 0.249927 -1.94299 0
M  V30 7068 H 667.52 -0.67846 -0.312573 0
M  V30 7069 H 670.182 -1.94529 -0.120224 0
M  V30 7070 H 669.278 -2.79419 -1.39038 0
M  V30 7071 N 669.579 0.400081 -1.52437 0
M  V30 7072 C 670.828 1.14332 -1.66166 0
M  V30 7073 C 671.141 1.91419 -0.402253 0
M  V30 7074 O 672.347 2.6824 -0.419487 0
M  V30 7075 C 670.803 2.08137 -2.9361 0
M  V30 7076 C 670.411 1.36524 -4.26691 0
M  V30 7077 C 672.155 2.82664 -3.16703 0
M  V30 7078 C 670.062 2.29031 -5.45251 0
M  V30 7079 H 668.992 0.430499 -0.61902 0
M  V30 7080 H 671.643 0.407017 -1.78929 0
M  V30 7081 H 670.025 2.85358 -2.74567 0
M  V30 7082 H 671.199 0.646061 -4.56249 0
M  V30 7083 H 669.514 0.74002 -4.09771 0
M  V30 7084 H 672.111 3.52037 -4.0246 0
M  V30 7085 H 672.454 3.46122 -2.31312 0
M  V30 7086 H 672.987 2.12541 -3.36261 0
M  V30 7087 H 669.726 1.70206 -6.33017 0
M  V30 7088 H 669.246 2.98896 -5.2002 0
M  V30 7089 H 670.925 2.89359 -5.78689 0
M  V30 7090 N 671.057 1.43213 0.657864 0
M  V30 7091 C 672.334 1.35063 1.41483 0
M  V30 7092 C 672.714 -0.0038314 2.111 0
M  V30 7093 O 672.062 -1.02018 2.04462 0
M  V30 7094 C 672.272 2.53061 2.40335 0
M  V30 7095 C 673.62 2.9594 3.04474 0
M  V30 7096 O 674.644 2.53074 2.50663 0
M  V30 7097 O 673.503 3.70184 4.02027 0
M  V30 7098 H 670.597 0.533517 0.631893 0
M  V30 7099 H 673.143 1.55253 0.685162 0
M  V30 7100 H 671.915 3.43283 1.87809 0
M  V30 7101 H 671.538 2.34945 3.20759 0
M  V30 7102 N 672.536 -0.895792 1.29666 0
M  V30 7103 C 673.766 -1.67757 1.20586 0
M  V30 7104 C 674.174 -1.87729 -0.235432 0
M  V30 7105 O 673.517 -1.41706 -1.16898 0
M  V30 7106 C 673.579 -3.08117 1.85215 0
M  V30 7107 C 673.243 -3.1136 3.3452 0
M  V30 7108 C 674.24 -2.91217 4.30684 0
M  V30 7109 C 671.925 -3.33302 3.75786 0
M  V30 7110 C 673.919 -2.92955 5.66089 0
M  V30 7111 C 671.606 -3.3467 5.11311 0
M  V30 7112 C 672.604 -3.14519 6.06273 0
M  V30 7113 O 672.292 -3.15684 7.39323 0
M  V30 7114 H 672.024 -0.530601 0.418854 0
M  V30 7115 H 674.578 -1.12831 1.71634 0
M  V30 7116 H 672.808 -3.64661 1.28683 0
M  V30 7117 H 674.497 -3.68399 1.70403 0
M  V30 7118 H 675.263 -2.74074 4.00136 0
M  V30 7119 H 671.142 -3.48025 3.02324 0
M  V30 7120 H 674.686 -2.77145 6.40185 0
M  V30 7121 H 670.583 -3.51346 5.41504 0
M  V30 7122 H 671.351 -3.31924 7.48177 0
M  V30 7123 N 674.014 -1.12206 -1.10668 0
M  V30 7124 C 675.425 -0.890657 -1.64086 0
M  V30 7125 C 675.776 0.575502 -1.8757 0
M  V30 7126 O 674.901 1.4394 -1.61587 0
M  V30 7127 C 675.496 -1.61029 -2.98085 0
M  V30 7128 C 674.055 -1.4251 -3.48379 0
M  V30 7129 C 673.202 -1.64778 -2.23033 0
M  V30 7130 H 676.153 -1.27718 -0.94201 0
M  V30 7131 H 676.174 -1.05993 -3.65439 0
M  V30 7132 H 675.686 -2.67735 -2.80962 0
M  V30 7133 H 673.787 -0.380497 -3.70652 0
M  V30 7134 H 673.9 -2.17959 -4.26651 0
M  V30 7135 H 672.264 -1.07171 -2.31055 0
M  V30 7136 H 673.047 -2.72776 -2.08443 0
M  V30 7137 N 675.492 1.28418 -0.913599 0
M  V30 7138 C 676.717 1.99643 -0.561899 0
M  V30 7139 C 677.142 1.67819 0.849608 0
M  V30 7140 O 676.5 0.910503 1.56779 0
M  V30 7141 C 676.548 3.52116 -0.777622 0
M  V30 7142 O 675.652 4.12076 0.163457 0
M  V30 7143 H 674.993 0.627229 -0.217898 0
M  V30 7144 H 677.523 1.63575 -1.229 0
M  V30 7145 H 677.533 4.02163 -0.687666 0
M  V30 7146 H 676.208 3.74613 -1.8066 0
M  V30 7147 H 674.785 3.72892 0.0247827 0
M  V30 7148 N 676.97 0.677563 1.42291 0
M  V30 7149 C 678.219 0.198173 2.00724 0
M  V30 7150 C 678.532 -1.20325 1.54211 0
M  V30 7151 O 679.738 -1.77916 2.05081 0
M  V30 7152 C 678.194 0.303432 3.58619 0
M  V30 7153 C 677.802 1.70909 4.14119 0
M  V30 7154 C 679.546 -0.117103 4.24338 0
M  V30 7155 C 677.453 1.76696 5.64387 0
M  V30 7156 H 676.383 0.070329 0.750713 0
M  V30 7157 H 679.034 0.843147 1.62982 0
M  V30 7158 H 677.416 -0.409482 3.93877 0
M  V30 7159 H 678.59 2.44931 3.90315 0
M  V30 7160 H 676.905 2.07771 3.6086 0
M  V30 7161 H 679.502 -0.0940471 5.34617 0
M  V30 7162 H 679.845 -1.15283 4.00019 0
M  V30 7163 H 680.378 0.5449 3.9405 0
M  V30 7164 H 677.117 2.7826 5.93508 0
M  V30 7165 H 676.637 1.07034 5.90173 0
M  V30 7166 H 678.316 1.52166 6.28852 0
M  V30 7167 N 678.448 -1.51871 0.421078 0
M  V30 7168 C 679.398 -2.24171 -0.416111 0
M  V30 7169 C 680.382 -1.25763 -1.00362 0
M  V30 7170 O 681.574 -1.5094 -0.924452 0
M  V30 7171 C 678.703 -3.07533 -1.52571 0
M  V30 7172 C 677.789 -4.1336 -0.948399 0
M  V30 7173 N 678.18 -5.05704 -0.0987933 0
M  V30 7174 C 676.478 -4.29055 -1.21768 0
M  V30 7175 C 677.179 -5.8127 0.223705 0
M  V30 7176 N 676.155 -5.4221 -0.388524 0
M  V30 7177 H 679.957 -2.92925 0.239166 0
M  V30 7178 H 677.471 -1.60732 0.232191 0
M  V30 7179 H 679.468 -3.57893 -2.13819 0
M  V30 7180 H 678.128 -2.4032 -2.18349 0
M  V30 7181 H 679.139 -5.17214 0.266428 0
M  V30 7182 H 675.816 -3.73071 -1.87416 0
M  V30 7183 H 677.206 -6.65653 0.914076 0
M  V30 7184 N 679.926 -0.151884 -1.56866 0
M  V30 7185 C 681.156 0.504081 -2.00356 0
M  V30 7186 C 681.564 1.58639 -1.03103 0
M  V30 7187 O 680.907 1.83688 -0.0207931 0
M  V30 7188 C 680.969 1.15975 -3.40279 0
M  V30 7189 C 680.633 0.221453 -4.56463 0
M  V30 7190 C 681.63 -0.552766 -5.16953 0
M  V30 7191 C 679.315 0.122936 -5.0215 0
M  V30 7192 C 681.309 -1.4129 -6.21543 0
M  V30 7193 C 678.996 -0.740801 -6.06593 0
M  V30 7194 C 679.994 -1.50732 -6.6616 0
M  V30 7195 O 679.682 -2.35666 -7.68581 0
M  V30 7196 H 679.414 0.135279 -0.662326 0
M  V30 7197 H 681.968 -0.244916 -2.03935 0
M  V30 7198 H 680.198 1.95649 -3.33554 0
M  V30 7199 H 681.887 1.71594 -3.67846 0
M  V30 7200 H 682.653 -0.486716 -4.82552 0
M  V30 7201 H 678.532 0.70931 -4.5551 0
M  V30 7202 H 682.076 -2.01166 -6.67966 0
M  V30 7203 H 677.973 -0.808125 -6.40421 0
M  V30 7204 H 678.741 -2.28967 -7.85822 0
M  V30 7205 N 681.404 1.57128 0.121893 0
M  V30 7206 C 682.629 1.89254 0.848385 0
M  V30 7207 C 683.054 0.743527 1.72781 0
M  V30 7208 O 682.412 -0.306056 1.78698 0
M  V30 7209 C 682.46 3.20113 1.66012 0
M  V30 7210 O 681.564 3.05815 2.76679 0
M  V30 7211 H 680.905 0.621103 0.234793 0
M  V30 7212 H 683.435 2.0433 0.10516 0
M  V30 7213 H 683.445 3.52761 2.04996 0
M  V30 7214 H 682.12 4.03336 1.01452 0
M  V30 7215 H 680.697 2.84627 2.40918 0
M  V30 7216 N 682.882 -0.391992 1.52647 0
M  V30 7217 C 683.83 -1.4991 1.77848 0
M  V30 7218 C 684.824 -1.56587 0.646282 0
M  V30 7219 O 686.03 -1.59789 0.828698 0
M  V30 7220 H 682.405 -0.498883 0.56269 0
M  V30 7221 H 684.376 -1.25847 2.70564 0
M  V30 7222 C 683.125 -2.87081 1.96163 0
M  V30 7223 H 682.448 -2.82692 2.82711 0
M  V30 7224 H 683.888 -3.63792 2.17787 0
M  V30 7225 C 682.347 -3.28822 0.733348 0
M  V30 7226 O 682.877 -4.01598 -0.0906481 0
M  V30 7227 N 681.083 -2.85068 0.564317 0
M  V30 7228 H 680.63 -2.26012 1.23598 0
M  V30 7229 H 680.588 -3.13355 -0.256166 0
M  V30 7230 N 684.36 -1.4356 -0.65026 0
M  V30 7231 C 685.323 -1.48615 -1.74489 0
M  V30 7232 C 686.323 -0.370483 -1.56474 0
M  V30 7233 O 687.513 -0.632351 -1.62317 0
M  V30 7234 C 684.645 -1.34161 -3.13391 0
M  V30 7235 H 685.838 -2.46103 -1.71387 0
M  V30 7236 H 683.391 -1.30369 -0.862186 0
M  V30 7237 H 684.126 -0.376918 -3.22102 0
M  V30 7238 H 683.911 -2.1504 -3.27872 0
M  V30 7239 H 685.401 -1.40637 -3.93206 0
M  V30 7240 N 685.838 0.888903 -1.30139 0
M  V30 7241 C 687.087 1.63507 -1.18103 0
M  V30 7242 C 687.4 1.93808 0.264141 0
M  V30 7243 O 688.606 2.66744 0.505966 0
M  V30 7244 C 687.062 2.94673 -2.0663 0
M  V30 7245 C 686.67 2.71926 -3.56034 0
M  V30 7246 C 688.414 3.72626 -2.03346 0
M  V30 7247 C 686.321 3.98884 -4.3663 0
M  V30 7248 H 685.251 0.613426 -0.438435 0
M  V30 7249 H 687.902 0.984427 -1.54859 0
M  V30 7250 H 686.284 3.61009 -1.62754 0
M  V30 7251 H 687.458 2.14116 -4.08033 0
M  V30 7252 H 685.773 2.07353 -3.61101 0
M  V30 7253 H 688.37 4.66775 -2.60816 0
M  V30 7254 H 688.713 4.03712 -1.016 0
M  V30 7255 H 689.246 3.13147 -2.45324 0
M  V30 7256 H 685.985 3.72959 -5.39056 0
M  V30 7257 H 685.505 4.56214 -3.89396 0
M  V30 7258 H 687.184 4.66938 -4.47859 0
M  V30 7259 N 687.317 1.12792 1.10072 0
M  V30 7260 C 688.542 0.908838 1.86427 0
M  V30 7261 C 688.967 -0.536793 1.80278 0
M  V30 7262 O 688.325 -1.38033 1.17543 0
M  V30 7263 C 688.373 1.39295 3.3261 0
M  V30 7264 O 687.477 0.573846 4.08388 0
M  V30 7265 H 686.818 0.326234 0.578331 0
M  V30 7266 H 689.348 1.50094 1.39043 0
M  V30 7267 H 689.358 1.39366 3.83459 0
M  V30 7268 H 688.033 2.44555 3.36401 0
M  V30 7269 H 686.61 0.640438 3.67359 0
M  V30 7270 N 688.795 -1.27931 0.920396 0
M  V30 7271 C 690.02 -1.99343 0.572478 0
M  V30 7272 C 690.445 -1.68267 -0.840696 0
M  V30 7273 O 689.803 -0.918805 -1.56294 0
M  V30 7274 C 689.851 -3.51698 0.796284 0
M  V30 7275 O 688.955 -4.12157 -0.141602 0
M  V30 7276 H 688.296 -0.626065 0.221221 0
M  V30 7277 H 690.826 -1.62921 1.23765 0
M  V30 7278 H 690.836 -4.01793 0.708984 0
M  V30 7279 H 689.511 -3.73649 1.82644 0
M  V30 7280 H 688.088 -3.729 -0.005007 0
M  V30 7281 N 690.273 -0.685099 -1.4193 0
M  V30 7282 C 691.221 -0.00165985 -2.326 0
M  V30 7283 C 692.215 0.779678 -1.50391 0
M  V30 7284 O 693.421 0.68648 -1.66395 0
M  V30 7285 H 689.796 0.0182616 -0.751778 0
M  V30 7286 H 691.767 -0.783592 -2.87928 0
M  V30 7287 C 690.516 0.928385 -3.35077 0
M  V30 7288 H 689.839 0.336578 -3.98381 0
M  V30 7289 H 691.279 1.37509 -4.01083 0
M  V30 7290 C 689.738 2.03964 -2.68142 0
M  V30 7291 O 690.268 3.12727 -2.5212 0
M  V30 7292 N 688.474 1.81433 -2.27003 0
M  V30 7293 H 688.021 0.929807 -2.40234 0
M  V30 7294 H 687.979 2.55973 -1.82552 0
M  V30 7295 N 691.751 1.51645 -0.429126 0
M  V30 7296 C 692.979 2.06433 0.138994 0
M  V30 7297 C 693.394 1.29735 1.37165 0
M  V30 7298 O 692.751 0.354638 1.79021 0
M  V30 7299 C 692.802 3.58439 0.469452 0
M  V30 7300 O 692.523 4.32238 -0.714273 0
M  V30 7301 C 694.024 4.29712 1.08914 0
M  V30 7302 H 691.244 0.6709 0.0115608 0
M  V30 7303 H 693.788 1.9532 -0.605843 0
M  V30 7304 H 691.943 3.69494 1.16419 0
M  V30 7305 H 692.357 5.22704 -0.433633 0
M  V30 7306 H 693.831 5.37182 1.27042 0
M  V30 7307 H 694.308 3.87473 2.06788 0
M  V30 7308 H 694.914 4.2308 0.434028 0
M  V30 7309 N 693.229 0.160201 1.56784 0
M  V30 7310 C 694.457 -0.494165 2.00912 0
M  V30 7311 C 694.872 -1.57548 1.04038 0
M  V30 7312 O 694.229 -1.82457 0.0394581 0
M  V30 7313 C 694.28 -1.08271 3.44905 0
M  V30 7314 O 694.001 -0.0445704 4.38077 0
M  V30 7315 C 695.502 -1.8164 4.04378 0
M  V30 7316 H 692.722 -0.127498 0.658776 0
M  V30 7317 H 695.266 0.258665 2.02858 0
M  V30 7318 H 693.421 -1.78609 3.4377 0
M  V30 7319 H 693.835 -0.477544 5.22322 0
M  V30 7320 H 695.309 -2.18094 5.07089 0
M  V30 7321 H 695.786 -2.70727 3.45838 0
M  V30 7322 H 696.392 -1.15969 4.09184 0
M  V30 7323 N 694.707 -1.5719 -0.113559 0
M  V30 7324 C 695.617 -2.04041 -1.15777 0
M  V30 7325 C 696.633 -0.961812 -1.45001 0
M  V30 7326 O 697.809 -1.2737 -1.56009 0
M  V30 7327 C 694.874 -2.43994 -2.46308 0
M  V30 7328 C 693.935 -3.65962 -2.24433 0
M  V30 7329 C 693.168 -4.04 -3.4874 0
M  V30 7330 O 693.391 -3.42321 -4.56259 0
M  V30 7331 O 692.325 -4.97069 -3.3942 0
M  V30 7332 H 696.151 -2.93248 -0.789899 0
M  V30 7333 H 693.736 -1.45828 -0.324748 0
M  V30 7334 H 695.618 -2.70401 -3.23204 0
M  V30 7335 H 694.293 -1.57932 -2.82558 0
M  V30 7336 H 693.2 -3.44697 -1.45377 0
M  V30 7337 H 694.533 -4.52746 -1.93084 0
M  V30 7338 N 696.185 0.383891 -1.52853 0
M  V30 7339 C 697.41 1.154 -1.7233 0
M  V30 7340 C 697.835 1.82809 -0.44298 0
M  V30 7341 O 697.193 1.71026 0.601645 0
M  V30 7342 C 697.241 2.17386 -2.87708 0
M  V30 7343 O 696.345 3.24082 -2.55038 0
M  V30 7344 H 695.686 0.335709 -0.572883 0
M  V30 7345 H 698.216 0.44662 -1.99666 0
M  V30 7346 H 698.226 2.61296 -3.1335 0
M  V30 7347 H 696.901 1.6771 -3.80587 0
M  V30 7348 H 695.478 2.85273 -2.40153 0
M  V30 7349 N 697.663 1.43903 0.642637 0
M  V30 7350 C 698.94 1.36556 1.40043 0
M  V30 7351 C 699.32 0.0185588 2.11092 0
M  V30 7352 O 698.668 -0.998438 2.05532 0
M  V30 7353 C 698.878 2.55596 2.37638 0
M  V30 7354 C 700.226 2.99153 3.01318 0
M  V30 7355 O 701.25 2.55719 2.47965 0
M  V30 7356 O 700.109 3.74427 3.98078 0
M  V30 7357 H 697.203 0.540189 0.626198 0
M  V30 7358 H 699.749 1.55971 0.668657 0
M  V30 7359 H 698.521 3.45256 1.84158 0
M  V30 7360 H 698.144 2.38334 3.18249 0
M  V30 7361 N 699.141 -0.881989 1.30609 0
M  V30 7362 C 700.088 -1.98803 1.17244 0
M  V30 7363 C 701.058 -1.65987 0.0611905 0
M  V30 7364 O 702.243 -1.89385 0.231911 0
M  V30 7365 C 699.383 -3.33867 0.87333 0
M  V30 7366 C 698.496 -3.79354 2.06675 0
M  V30 7367 C 697.631 -5.03078 1.70547 0
M  V30 7368 C 696.67 -5.40981 2.86366 0
M  V30 7369 N 695.807 -6.55886 2.50514 0
M  V30 7370 H 700.647 -2.09566 2.11863 0
M  V30 7371 H 698.184 -1.02607 1.05405 0
M  V30 7372 H 700.142 -4.11612 0.680519 0
M  V30 7373 H 698.772 -3.2278 -0.0359983 0
M  V30 7374 H 697.824 -2.97492 2.37071 0
M  V30 7375 H 699.136 -4.03382 2.93401 0
M  V30 7376 H 698.29 -5.88457 1.47658 0
M  V30 7377 H 697.029 -4.80927 0.809947 0
M  V30 7378 H 696.034 -4.54127 3.09917 0
M  V30 7379 H 697.259 -5.65104 3.76609 0
M  V30 7380 H 695.205 -6.35306 1.63471 0
M  V30 7381 H 695.122 -6.79799 3.30771 0
M  V30 7382 H 696.39 -7.44489 2.30989 0
M  V30 7383 N 700.619 -1.13374 -1.09472 0
M  V30 7384 C 701.566 -0.810682 -2.16094 0
M  V30 7385 C 702.536 0.227003 -1.64541 0
M  V30 7386 O 703.721 0.0993538 -1.90541 0
M  V30 7387 C 700.861 -0.282336 -3.43943 0
M  V30 7388 C 699.974 -1.37902 -4.09398 0
M  V30 7389 C 699.109 -0.809066 -5.25002 0
M  V30 7390 C 698.148 -1.88419 -5.82379 0
M  V30 7391 N 697.285 -1.33221 -6.89345 0
M  V30 7392 H 702.125 -1.72397 -2.43071 0
M  V30 7393 H 699.662 -0.860564 -1.19301 0
M  V30 7394 H 701.62 0.0421189 -4.17179 0
M  V30 7395 H 700.25 0.594083 -3.17286 0
M  V30 7396 H 699.302 -1.82008 -3.34032 0
M  V30 7397 H 700.614 -2.19161 -4.48074 0
M  V30 7398 H 699.768 -0.435867 -6.05132 0
M  V30 7399 H 698.507 0.0346058 -4.87688 0
M  V30 7400 H 697.512 -2.26646 -5.00911 0
M  V30 7401 H 698.737 -2.73125 -6.21755 0
M  V30 7402 H 696.683 -0.510535 -6.5401 0
M  V30 7403 H 696.6 -2.08129 -7.26786 0
M  V30 7404 H 697.868 -0.986565 -7.73232 0
M  V30 7405 N 702.098 1.27442 -0.927168 0
M  V30 7406 C 703.328 1.9821 -0.582775 0
M  V30 7407 C 703.736 1.69361 0.843406 0
M  V30 7408 O 703.079 0.950381 1.57205 0
M  V30 7409 C 703.141 3.52048 -0.728165 0
M  V30 7410 C 702.805 4.04518 -2.12637 0
M  V30 7411 C 703.802 4.17332 -3.10048 0
M  V30 7412 C 701.487 4.38879 -2.44317 0
M  V30 7413 C 703.481 4.6378 -4.37249 0
M  V30 7414 C 701.168 4.85018 -3.71753 0
M  V30 7415 C 702.166 4.97428 -4.68033 0
M  V30 7416 O 701.854 5.42556 -5.93202 0
M  V30 7417 H 701.586 0.639314 -0.219667 0
M  V30 7418 H 704.14 1.63272 -1.24626 0
M  V30 7419 H 702.37 3.86699 -0.00758143 0
M  V30 7420 H 704.059 4.04033 -0.388906 0
M  V30 7421 H 704.825 3.91046 -2.86894 0
M  V30 7422 H 700.704 4.28462 -1.70121 0
M  V30 7423 H 704.248 4.73382 -5.12402 0
M  V30 7424 H 700.145 5.10746 -3.94726 0
M  V30 7425 H 700.913 5.60811 -5.96182 0
M  V30 7426 N 703.576 0.692616 1.41565 0
M  V30 7427 C 704.824 0.221896 2.00878 0
M  V30 7428 C 705.145 -1.18164 1.5512 0
M  V30 7429 O 704.415 -1.79679 0.78054 0
M  V30 7430 H 702.995 0.0790463 0.742806 0
M  V30 7431 H 705.657 0.893115 1.73232 0
M  V30 7432 H 704.753 0.23702 3.11199 0
M  V30 7433 N 705.054 -1.51416 0.437162 0
M  V30 7434 C 706.017 -2.26312 -0.362729 0
M  V30 7435 C 707.017 -1.29748 -0.949847 0
M  V30 7436 O 708.207 -1.53462 -0.824325 0
M  V30 7437 C 705.339 -3.05475 -1.5132 0
M  V30 7438 H 706.532 -2.98459 0.29365 0
M  V30 7439 H 704.085 -1.55137 0.190327 0
M  V30 7440 H 704.82 -2.37744 -2.20563 0
M  V30 7441 H 704.605 -3.76401 -1.09838 0
M  V30 7442 H 706.095 -3.62209 -2.07833 0
M  V30 7443 N 706.532 -0.168513 -1.56696 0
M  V30 7444 C 707.757 0.486688 -2.01609 0
M  V30 7445 C 708.182 1.56203 -1.04796 0
M  V30 7446 O 707.54 1.8128 -0.0270596 0
M  V30 7447 C 707.588 1.04451 -3.45141 0
M  V30 7448 O 706.692 2.15862 -3.51393 0
M  V30 7449 H 706.033 0.116831 -0.653641 0
M  V30 7450 H 708.563 -0.271579 -2.0279 0
M  V30 7451 H 708.573 1.36782 -3.84389 0
M  V30 7452 H 707.248 0.257155 -4.15104 0
M  V30 7453 H 705.825 1.84597 -3.24004 0
M  V30 7454 N 708.01 1.57248 0.105221 0
M  V30 7455 C 709.235 1.90143 0.828264 0
M  V30 7456 C 709.66 0.761811 1.71983 0
M  V30 7457 O 709.018 -0.287086 1.79013 0
M  V30 7458 C 709.066 3.21856 1.62608 0
M  V30 7459 O 708.17 3.08732 2.7342 0
M  V30 7460 H 707.511 0.623558 0.228192 0
M  V30 7461 H 710.041 2.0443 0.0834826 0
M  V30 7462 H 710.051 3.54916 2.01243 0
M  V30 7463 H 708.726 4.0439 0.971687 0
M  V30 7464 H 707.303 2.87167 2.37886 0
M  V30 7465 N 709.488 -0.375779 1.53054 0
M  V30 7466 C 710.398 -1.48381 1.81715 0
M  V30 7467 C 711.414 -1.59087 0.704795 0
M  V30 7468 O 712.59 -1.75174 0.993785 0
M  V30 7469 C 709.655 -2.83767 1.99192 0
M  V30 7470 C 708.716 -2.82673 3.23102 0
M  V30 7471 C 707.949 -4.11601 3.39736 0
M  V30 7472 O 708.172 -5.07243 2.60885 0
M  V30 7473 O 707.106 -4.18034 4.33049 0
M  V30 7474 H 710.932 -1.27089 2.7583 0
M  V30 7475 H 708.517 -0.564902 1.38308 0
M  V30 7476 H 710.399 -3.64004 2.12318 0
M  V30 7477 H 709.074 -3.05057 1.08267 0
M  V30 7478 H 707.981 -2.0117 3.15407 0
M  V30 7479 H 709.314 -2.66335 4.13916 0
M  V30 7480 N 710.966 -1.44241 -0.634997 0
M  V30 7481 C 711.913 -1.5081 -1.74714 0
M  V30 7482 C 712.883 -0.356147 -1.62237 0
M  V30 7483 O 714.068 -0.565848 -1.82216 0
M  V30 7484 C 711.208 -1.45458 -3.12947 0
M  V30 7485 C 710.321 -2.70998 -3.36428 0
M  V30 7486 C 709.456 -2.57507 -4.64611 0
M  V30 7487 C 708.495 -3.78229 -4.81258 0
M  V30 7488 N 707.632 -3.63438 -6.00714 0
M  V30 7489 H 712.472 -2.45832 -1.68436 0
M  V30 7490 H 710.009 -1.2201 -0.821706 0
M  V30 7491 H 711.967 -1.40347 -3.92885 0
M  V30 7492 H 710.597 -0.540058 -3.1825 0
M  V30 7493 H 709.649 -2.86312 -2.50458 0
M  V30 7494 H 710.961 -3.60619 -3.44609 0
M  V30 7495 H 710.115 -2.50207 -5.52703 0
M  V30 7496 H 708.854 -1.65441 -4.58782 0
M  V30 7497 H 707.859 -3.85918 -3.91596 0
M  V30 7498 H 709.084 -4.71327 -4.88904 0
M  V30 7499 H 707.03 -2.7412 -5.95982 0
M  V30 7500 H 706.947 -4.46672 -6.09934 0
M  V30 7501 H 708.215 -3.60022 -6.91378 0
M  V30 7502 N 712.444 0.87505 -1.31075 0
M  V30 7503 C 713.377 1.98471 -1.12625 0
M  V30 7504 C 714.355 1.6257 -0.0311379 0
M  V30 7505 O 715.539 1.87574 -0.186594 0
M  V30 7506 C 712.666 3.30963 -0.719799 0
M  V30 7507 C 711.712 3.85849 -1.81722 0
M  V30 7508 S 712.545 4.11926 -3.42165 0
M  V30 7509 C 713.701 5.47423 -3.03445 0
M  V30 7510 H 713.934 2.13817 -2.06566 0
M  V30 7511 H 711.467 1.02463 -1.15502 0
M  V30 7512 H 713.425 4.07541 -0.492035 0
M  V30 7513 H 712.086 3.1346 0.200413 0
M  V30 7514 H 711.279 4.81616 -1.48533 0
M  V30 7515 H 710.881 3.16046 -1.99977 0
M  V30 7516 H 713.173 6.28881 -2.52023 0
M  V30 7517 H 714.116 5.85557 -3.98157 0
M  V30 7518 H 714.524 5.10455 -2.41031 0
M  V30 7519 N 713.922 1.13953 1.08869 0
M  V30 7520 C 714.885 0.824991 2.13838 0
M  V30 7521 C 715.885 -0.168198 1.59918 0
M  V30 7522 O 717.075 0.0595778 1.74098 0
M  V30 7523 C 714.207 0.228938 3.4013 0
M  V30 7524 H 715.4 1.75521 2.43171 0
M  V30 7525 H 712.953 0.94492 1.24503 0
M  V30 7526 H 713.688 -0.710227 3.16427 0
M  V30 7527 H 713.473 0.944243 3.80561 0
M  V30 7528 H 714.963 0.0259223 4.17592 0
M  V30 7529 N 715.4 -1.26948 0.933913 0
M  V30 7530 C 716.363 -2.24889 0.442457 0
M  V30 7531 C 717.363 -1.54594 -0.442426 0
M  V30 7532 O 718.553 -1.72502 -0.242629 0
M  V30 7533 C 715.685 -3.3896 -0.363173 0
M  V30 7534 H 716.878 -2.69879 1.30787 0
M  V30 7535 H 714.431 -1.38978 0.715187 0
M  V30 7536 H 715.166 -2.99361 -1.24714 0
M  V30 7537 H 714.951 -3.9116 0.271366 0
M  V30 7538 H 716.441 -4.11739 -0.697186 0
M  V30 7539 N 716.879 -0.700114 -1.41195 0
M  V30 7540 C 717.842 -0.0465706 -2.29153 0
M  V30 7541 C 718.842 0.703302 -1.44604 0
M  V30 7542 O 720.032 0.537513 -1.657 0
M  V30 7543 C 717.164 0.944324 -3.2756 0
M  V30 7544 H 718.357 -0.821064 -2.88442 0
M  V30 7545 H 715.91 -0.463869 -1.49258 0
M  V30 7546 H 716.645 1.74642 -2.73259 0
M  V30 7547 H 716.43 0.409701 -3.89954 0
M  V30 7548 H 717.92 1.39925 -3.9346 0
M  V30 7549 N 718.357 1.51182 -0.445186 0
M  V30 7550 C 719.587 2.06269 0.116922 0
M  V30 7551 C 719.995 1.31188 1.36332 0
M  V30 7552 O 719.338 0.367067 1.79995 0
M  V30 7553 C 719.4 3.56051 0.496757 0
M  V30 7554 C 719.064 4.52441 -0.64394 0
M  V30 7555 C 720.061 4.97233 -1.5184 0
M  V30 7556 C 717.746 4.95447 -0.826905 0
M  V30 7557 C 719.74 5.83712 -2.56046 0
M  V30 7558 C 717.427 5.81714 -1.87222 0
M  V30 7559 C 718.425 6.25745 -2.73738 0
M  V30 7560 O 718.113 7.10298 -3.76474 0
M  V30 7561 H 717.845 0.675954 0.00785733 0
M  V30 7562 H 720.399 1.95648 -0.625371 0
M  V30 7563 H 718.629 3.64483 1.29187 0
M  V30 7564 H 720.318 3.93618 0.990928 0
M  V30 7565 H 721.084 4.64696 -1.38862 0
M  V30 7566 H 716.963 4.60712 -0.163052 0
M  V30 7567 H 720.507 6.18 -3.23607 0
M  V30 7568 H 716.404 6.13664 -2.00218 0
M  V30 7569 H 717.172 7.28493 -3.73149 0
M  V30 7570 N 719.835 0.176821 1.56605 0
M  V30 7571 C 720.798 -0.737429 2.17013 0
M  V30 7572 C 721.798 -1.15414 1.11965 0
M  V30 7573 O 722.988 -1.0702 1.37449 0
M  V30 7574 C 720.12 -2.00445 2.75744 0
M  V30 7575 H 721.313 -0.211455 2.99154 0
M  V30 7576 H 718.866 -0.0727582 1.56131 0
M  V30 7577 H 719.601 -2.57338 1.97352 0
M  V30 7578 H 719.386 -1.71456 3.52626 0
M  V30 7579 H 720.876 -2.65679 3.22187 0
M  V30 7580 N 721.313 -1.57302 -0.09688 0
M  V30 7581 C 722.276 -2.00976 -1.10188 0
M  V30 7582 C 723.276 -0.903009 -1.3305 0
M  V30 7583 O 724.466 -1.16853 -1.29194 0
M  V30 7584 C 721.598 -2.36893 -2.45142 0
M  V30 7585 H 722.791 -2.9098 -0.726003 0
M  V30 7586 H 720.344 -1.52515 -0.341872 0
M  V30 7587 H 721.079 -1.49837 -2.8761 0
M  V30 7588 H 720.864 -3.17632 -2.29897 0
M  V30 7589 H 722.354 -2.71345 -3.1743 0
M  V30 7590 N 722.791 0.367657 -1.53252 0
M  V30 7591 C 724.038 1.11052 -1.69333 0
M  V30 7592 C 724.366 1.89363 -0.444064 0
M  V30 7593 O 723.621 1.87094 0.573953 0
M  V30 7594 C 723.92 2.09825 -2.89324 0
M  V30 7595 C 723.586 1.4801 -4.25915 0
M  V30 7596 C 722.248 1.30879 -4.6306 0
M  V30 7597 C 724.6 1.03268 -5.10867 0
M  V30 7598 C 721.928 0.675868 -5.82794 0
M  V30 7599 C 724.28 0.41377 -6.31245 0
M  V30 7600 C 722.944 0.229939 -6.67104 0
M  V30 7601 H 722.214 0.406367 -0.619634 0
M  V30 7602 H 724.861 0.392558 -1.87433 0
M  V30 7603 H 723.166 2.87917 -2.65728 0
M  V30 7604 H 724.863 2.67252 -2.98961 0
M  V30 7605 H 721.453 1.62336 -3.96667 0
M  V30 7606 H 725.637 1.15297 -4.82722 0
M  V30 7607 H 720.893 0.521833 -6.09169 0
M  V30 7608 H 725.067 0.0588768 -6.96375 0
M  V30 7609 H 722.694 -0.262562 -7.59746 0
M  V30 7610 N 724.269 1.44576 0.627338 0
M  V30 7611 C 725.232 1.51372 1.72102 0
M  V30 7612 C 726.232 0.395329 1.55865 0
M  V30 7613 O 727.422 0.658094 1.61291 0
M  V30 7614 C 724.554 1.39129 3.11217 0
M  V30 7615 H 725.747 2.48798 1.6745 0
M  V30 7616 H 723.3 1.31724 0.841336 0
M  V30 7617 H 724.035 0.428114 3.21462 0
M  V30 7618 H 723.82 2.20229 3.24409 0
M  V30 7619 H 725.31 1.46874 3.90919 0
M  V30 7620 N 725.747 -0.868086 1.31537 0
M  V30 7621 C 726.695 -1.99688 1.1928 0
M  V30 7622 C 727.689 -1.69101 0.100656 0
M  V30 7623 O 728.895 -1.78073 0.262677 0
M  V30 7624 H 725.27 -0.655032 0.369374 0
M  V30 7625 H 727.241 -2.07157 2.14776 0
M  V30 7626 C 725.99 -3.35338 0.918892 0
M  V30 7627 H 725.313 -3.59396 1.75142 0
M  V30 7628 H 726.753 -4.14909 0.873311 0
M  V30 7629 C 725.212 -3.34769 -0.378366 0
M  V30 7630 O 725.742 -3.76716 -1.39456 0
M  V30 7631 N 723.948 -2.87895 -0.39557 0
M  V30 7632 H 723.495 -2.53954 0.431889 0
M  V30 7633 H 723.453 -2.87897 -1.26344 0
M  V30 7634 N 727.225 -1.14528 -1.08264 0
M  V30 7635 C 728.473 -0.912599 -1.80322 0
M  V30 7636 C 728.794 0.562256 -1.86718 0
M  V30 7637 O 728.064 1.40869 -1.36135 0
M  V30 7638 H 726.644 -0.334645 -0.667849 0
M  V30 7639 H 729.306 -1.44415 -1.30883 0
M  V30 7640 H 728.402 -1.31384 -2.83098 0
M  V30 7641 N 728.703 1.26451 -0.940633 0
M  V30 7642 C 729.951 1.93395 -0.586748 0
M  V30 7643 C 730.272 1.7417 0.876921 0
M  V30 7644 O 729.542 1.097 1.62304 0
M  V30 7645 H 728.122 0.715687 -0.214012 0
M  V30 7646 H 730.784 1.53902 -1.19584 0
M  V30 7647 H 729.88 3.01565 -0.804059 0
M  V30 7648 N 730.181 0.707592 1.40822 0
M  V30 7649 C 731.409 0.253073 2.05346 0
M  V30 7650 C 731.824 -1.10218 1.53289 0
M  V30 7651 O 731.181 -1.69112 0.686105 0
M  V30 7652 C 731.232 0.215411 3.60858 0
M  V30 7653 O 730.953 1.51714 4.10992 0
M  V30 7654 C 732.454 -0.258636 4.42545 0
M  V30 7655 H 729.674 0.115256 0.661027 0
M  V30 7656 H 732.218 0.963555 1.80377 0
M  V30 7657 H 730.373 -0.445978 3.84824 0
M  V30 7658 H 730.787 1.41226 5.05129 0
M  V30 7659 H 732.261 -0.233849 5.51504 0
M  V30 7660 H 732.738 -1.2995 4.19535 0
M  V30 7661 H 733.344 0.372186 4.23668 0
M  V30 7662 N 731.66 -1.50943 0.453197 0
M  V30 7663 C 732.89 -2.06328 -0.105981 0
M  V30 7664 C 733.298 -1.31909 -1.35634 0
M  V30 7665 O 732.641 -0.376607 -1.79798 0
M  V30 7666 C 732.703 -3.5631 -0.477868 0
M  V30 7667 C 732.367 -4.52093 0.667925 0
M  V30 7668 C 733.364 -4.96421 1.54475 0
M  V30 7669 C 731.049 -4.95001 0.853168 0
M  V30 7670 C 733.043 -5.82346 2.59138 0
M  V30 7671 C 730.73 -5.80713 1.90305 0
M  V30 7672 C 731.728 -6.24284 2.77053 0
M  V30 7673 O 731.416 -7.08291 3.80236 0
M  V30 7674 H 731.148 -0.675986 -0.00427247 0
M  V30 7675 H 733.702 -1.95314 0.635738 0
M  V30 7676 H 731.932 -3.65163 -1.27252 0
M  V30 7677 H 733.621 -3.94138 -0.970039 0
M  V30 7678 H 734.387 -4.63953 1.41324 0
M  V30 7679 H 730.266 -4.60619 0.187482 0
M  V30 7680 H 733.81 -6.16276 3.2688 0
M  V30 7681 H 729.707 -6.12593 2.03469 0
M  V30 7682 H 730.475 -7.26504 3.77007 0
M  V30 7683 N 733.138 -0.185124 -1.56509 0
M  V30 7684 C 734.368 0.461469 -2.0138 0
M  V30 7685 C 734.776 1.56417 -1.06445 0
M  V30 7686 O 734.119 1.83603 -0.0597515 0
M  V30 7687 C 734.181 1.08731 -3.42663 0
M  V30 7688 C 733.845 0.124581 -4.5683 0
M  V30 7689 C 734.842 -0.662295 -5.15664 0
M  V30 7690 C 732.527 0.0163947 -5.02297 0
M  V30 7691 C 734.521 -1.54442 -6.18406 0
M  V30 7692 C 732.208 -0.869301 -6.04885 0
M  V30 7693 C 733.206 -1.64828 -6.62813 0
M  V30 7694 O 732.894 -2.51915 -7.63409 0
M  V30 7695 H 732.626 0.1212 -0.665046 0
M  V30 7696 H 735.18 -0.288119 -2.03369 0
M  V30 7697 H 733.41 1.8853 -3.37629 0
M  V30 7698 H 735.099 1.63753 -3.71403 0
M  V30 7699 H 735.865 -0.588963 -4.81411 0
M  V30 7700 H 731.744 0.61253 -4.56913 0
M  V30 7701 H 735.288 -2.15289 -6.63548 0
M  V30 7702 H 731.185 -0.943786 -6.38563 0
M  V30 7703 H 731.953 -2.45584 -7.80789 0
M  V30 7704 N 734.616 1.57351 0.0885366 0
M  V30 7705 C 735.563 2.02523 1.10693 0
M  V30 7706 C 736.533 0.902736 1.39427 0
M  V30 7707 O 737.718 1.16921 1.50779 0
M  V30 7708 C 734.858 2.46013 2.42016 0
M  V30 7709 C 733.971 3.7181 2.19957 0
M  V30 7710 C 733.106 4.04152 3.44724 0
M  V30 7711 C 732.145 5.2304 3.17956 0
M  V30 7712 N 731.282 5.51102 4.35007 0
M  V30 7713 H 736.122 2.89302 0.714742 0
M  V30 7714 H 733.659 1.43084 0.341378 0
M  V30 7715 H 735.617 2.69274 3.18665 0
M  V30 7716 H 734.247 1.62235 2.79069 0
M  V30 7717 H 733.299 3.55987 1.34079 0
M  V30 7718 H 734.611 4.58604 1.96173 0
M  V30 7719 H 733.765 4.28225 4.29777 0
M  V30 7720 H 732.504 3.15893 3.71568 0
M  V30 7721 H 731.509 4.98781 2.31296 0
M  V30 7722 H 732.734 6.12902 2.92451 0
M  V30 7723 H 730.68 4.65802 4.61914 0
M  V30 7724 H 730.597 6.3228 4.14437 0
M  V30 7725 H 731.865 5.79714 5.21106 0
M  V30 7726 N 736.094 -0.359525 1.53444 0
M  V30 7727 C 737.505 -0.936009 1.61542 0
M  V30 7728 C 737.856 -1.90069 0.486633 0
M  V30 7729 O 736.981 -2.12929 -0.386047 0
M  V30 7730 C 737.576 -1.70441 2.92806 0
M  V30 7731 C 736.135 -2.23015 3.03218 0
M  V30 7732 C 735.282 -1.04438 2.56881 0
M  V30 7733 H 738.233 -0.138134 1.58098 0
M  V30 7734 H 738.254 -2.56609 2.80948 0
M  V30 7735 H 737.766 -1.00205 3.74941 0
M  V30 7736 H 735.867 -2.96475 2.25684 0
M  V30 7737 H 735.98 -2.50481 4.08407 0
M  V30 7738 H 734.344 -1.41314 2.11902 0
M  V30 7739 H 735.127 -0.356905 3.4144 0
M  V30 7740 N 737.572 -1.44907 -0.619662 0
M  V30 7741 C 738.505 -1.47133 -1.74434 0
M  V30 7742 C 739.483 -0.328933 -1.59238 0
M  V30 7743 O 740.667 -0.527632 -1.80965 0
M  V30 7744 C 737.794 -1.31491 -3.12134 0
M  V30 7745 C 736.84 -2.49441 -3.4595 0
M  V30 7746 S 737.673 -4.11945 -3.42142 0
M  V30 7747 C 738.829 -3.98747 -4.82443 0
M  V30 7748 H 739.062 -2.42295 -1.7228 0
M  V30 7749 H 736.595 -1.32343 -0.795276 0
M  V30 7750 H 738.553 -1.23153 -3.91591 0
M  V30 7751 H 737.214 -0.378203 -3.11815 0
M  V30 7752 H 736.407 -2.3439 -4.46181 0
M  V30 7753 H 736.009 -2.54577 -2.73982 0
M  V30 7754 H 738.301 -3.63145 -5.71954 0
M  V30 7755 H 739.244 -4.98848 -5.0255 0
M  V30 7756 H 739.652 -3.30608 -4.57557 0
M  V30 7757 N 739.05 0.861098 -1.31996 0
M  V30 7758 C 740.28 1.64501 -1.24992 0
M  V30 7759 C 740.688 1.88288 0.185576 0
M  V30 7760 O 740.031 1.44756 1.131 0
M  V30 7761 C 740.093 3.03098 -1.93319 0
M  V30 7762 C 739.757 3.02381 -3.42658 0
M  V30 7763 C 740.754 2.79696 -4.38254 0
M  V30 7764 C 738.439 3.23221 -3.84491 0
M  V30 7765 C 740.433 2.77843 -5.73657 0
M  V30 7766 C 738.12 3.20996 -5.20005 0
M  V30 7767 C 739.118 2.98335 -6.14398 0
M  V30 7768 O 738.806 2.95971 -7.47433 0
M  V30 7769 H 738.538 0.519309 -0.432775 0
M  V30 7770 H 741.092 1.08241 -1.74565 0
M  V30 7771 H 739.322 3.61121 -1.38306 0
M  V30 7772 H 741.011 3.63751 -1.8011 0
M  V30 7773 H 741.777 2.63368 -4.07262 0
M  V30 7774 H 737.656 3.39887 -3.11445 0
M  V30 7775 H 741.2 2.60074 -6.47308 0
M  V30 7776 H 737.097 3.36865 -5.50629 0
M  V30 7777 H 737.865 3.1197 -7.56714 0
M  V30 7778 N 740.528 1.15101 1.07655 0
M  V30 7779 C 741.777 0.918528 1.79572 0
M  V30 7780 C 742.09 -0.555922 1.87534 0
M  V30 7781 O 743.296 -0.905893 2.55941 0
M  V30 7782 C 741.752 1.59394 3.22679 0
M  V30 7783 C 741.36 3.1052 3.22927 0
M  V30 7784 C 743.104 1.44289 3.99225 0
M  V30 7785 C 741.011 3.70862 4.60668 0
M  V30 7786 H 739.941 0.340006 0.672987 0
M  V30 7787 H 742.592 1.38079 1.20857 0
M  V30 7788 H 740.974 1.05936 3.81567 0
M  V30 7789 H 742.148 3.70708 2.737 0
M  V30 7790 H 740.463 3.25351 2.59876 0
M  V30 7791 H 743.06 1.86766 5.01022 0
M  V30 7792 H 743.403 0.389975 4.14469 0
M  V30 7793 H 743.936 1.94826 3.46825 0
M  V30 7794 H 740.675 4.7604 4.50628 0
M  V30 7795 H 740.195 3.15456 5.10145 0
M  V30 7796 H 741.874 3.71607 5.29639 0
M  V30 7797 N 742.006 -1.2595 0.947325 0
M  V30 7798 C 742.956 -2.23859 0.432547 0
M  V30 7799 C 743.94 -1.53755 -0.474154 0
M  V30 7800 O 745.132 -1.74293 -0.308397 0
M  V30 7801 C 742.261 -3.42027 -0.295318 0
M  V30 7802 C 741.347 -4.19409 0.62903 0
M  V30 7803 N 741.738 -4.74284 1.7575 0
M  V30 7804 C 740.036 -4.43866 0.435805 0
M  V30 7805 C 740.737 -5.32821 2.33401 0
M  V30 7806 N 739.713 -5.18858 1.62135 0
M  V30 7807 H 743.515 -2.63886 1.29388 0
M  V30 7808 H 741.029 -1.41105 0.80393 0
M  V30 7809 H 743.026 -4.11297 -0.681188 0
M  V30 7810 H 741.686 -3.03526 -1.15334 0
M  V30 7811 H 742.697 -4.71641 2.13952 0
M  V30 7812 H 739.374 -4.15768 -0.37994 0
M  V30 7813 H 740.764 -5.86111 3.28517 0
M  V30 7814 N 743.484 -0.715051 -1.40445 0
M  V30 7815 C 744.431 -0.0621393 -2.30716 0
M  V30 7816 C 745.401 0.750871 -1.48159 0
M  V30 7817 O 746.586 0.714928 -1.76899 0
M  V30 7818 C 743.726 0.854036 -3.34365 0
M  V30 7819 C 742.839 0.0305565 -4.31989 0
M  V30 7820 C 741.974 0.946162 -5.22706 0
M  V30 7821 C 741.013 0.116741 -6.11989 0
M  V30 7822 N 740.15 0.987194 -6.95125 0
M  V30 7823 H 744.99 -0.83764 -2.85985 0
M  V30 7824 H 742.527 -0.424759 -1.40834 0
M  V30 7825 H 744.485 1.39946 -3.93028 0
M  V30 7826 H 743.115 1.59572 -2.806 0
M  V30 7827 H 742.167 -0.632044 -3.75112 0
M  V30 7828 H 743.479 -0.611615 -4.95036 0
M  V30 7829 H 742.633 1.56014 -5.86297 0
M  V30 7830 H 741.372 1.62216 -4.59932 0
M  V30 7831 H 740.377 -0.510176 -5.47428 0
M  V30 7832 H 741.602 -0.555742 -6.76822 0
M  V30 7833 H 739.548 1.64885 -6.3494 0
M  V30 7834 H 739.465 0.401046 -7.54936 0
M  V30 7835 H 740.733 1.58737 -7.63166 0
M  V30 7836 N 744.962 1.50701 -0.461195 0
M  V30 7837 C 746.208 2.02566 0.0973411 0
M  V30 7838 C 746.541 1.3432 1.40257 0
M  V30 7839 O 745.816 0.465692 1.88843 0
M  V30 7840 C 746.099 3.58919 0.291423 0
M  V30 7841 C 745.952 4.37751 -1.03413 0
M  V30 7842 C 747.271 4.27379 1.05048 0
M  V30 7843 H 744.39 0.73622 0.0339026 0
M  V30 7844 H 747.032 1.80115 -0.604855 0
M  V30 7845 H 745.182 3.78179 0.889539 0
M  V30 7846 H 746.854 4.30085 -1.66806 0
M  V30 7847 H 745.097 4.01885 -1.63313 0
M  V30 7848 H 745.768 5.45384 -0.852085 0
M  V30 7849 H 748.244 4.12534 0.543603 0
M  V30 7850 H 747.12 5.36609 1.15506 0
M  V30 7851 H 747.381 3.89868 2.0846 0
M  V30 7852 N 746.441 0.193421 1.56409 0
M  V30 7853 C 747.687 -0.446449 1.97825 0
M  V30 7854 C 748.02 -1.61386 1.08019 0
M  V30 7855 O 747.295 -1.94053 0.131839 0
M  V30 7856 C 747.578 -0.908199 3.48459 0
M  V30 7857 C 747.431 0.260914 4.49043 0
M  V30 7858 C 748.75 -1.77428 4.0275 0
M  V30 7859 H 745.869 -0.160807 0.719243 0
M  V30 7860 H 748.511 0.284006 1.87865 0
M  V30 7861 H 746.661 -1.53062 3.57077 0
M  V30 7862 H 748.333 0.898548 4.52464 0
M  V30 7863 H 746.576 0.912949 4.24085 0
M  V30 7864 H 747.247 -0.104657 5.51901 0
M  V30 7865 H 749.723 -1.24936 3.96901 0
M  V30 7866 H 748.599 -2.06633 5.08521 0
M  V30 7867 H 748.86 -2.72788 3.47907 0
M  V30 7868 N 747.919 -1.57396 -0.0801906 0
M  V30 7869 C 749.166 -1.86836 -0.780927 0
M  V30 7870 C 749.494 -0.784012 -1.77999 0
M  V30 7871 O 748.749 0.220881 -1.94449 0
M  V30 7872 C 749.048 -3.22915 -1.53169 0
M  V30 7873 C 748.714 -4.45843 -0.67339 0
M  V30 7874 C 747.376 -4.79213 -0.436829 0
M  V30 7875 C 749.728 -5.21142 -0.0776786 0
M  V30 7876 C 747.056 -5.853 0.405062 0
M  V30 7877 C 749.408 -6.28119 0.751619 0
M  V30 7878 C 748.072 -6.59995 0.998131 0
M  V30 7879 H 747.342 -0.683682 -0.285761 0
M  V30 7880 H 749.989 -1.91454 -0.0419435 0
M  V30 7881 H 748.294 -3.14049 -2.34265 0
M  V30 7882 H 749.991 -3.42926 -2.07853 0
M  V30 7883 H 746.581 -4.19721 -0.867891 0
M  V30 7884 H 750.765 -4.95682 -0.247572 0
M  V30 7885 H 746.021 -6.084 0.60488 0
M  V30 7886 H 750.195 -6.8563 1.22 0
M  V30 7887 H 747.822 -7.42027 1.65227 0
M  V30 7888 N 749.397 0.351382 -1.53633 0
M  V30 7889 C 750.622 1.11718 -1.74739 0
M  V30 7890 C 751.047 1.81829 -0.481657 0
M  V30 7891 O 750.405 1.72264 0.565233 0
M  V30 7892 C 750.453 2.11234 -2.92254 0
M  V30 7893 O 749.557 3.186 -2.61855 0
M  V30 7894 H 748.898 0.323482 -0.579875 0
M  V30 7895 H 751.428 0.404167 -2.00568 0
M  V30 7896 H 751.438 2.54591 -3.18822 0
M  V30 7897 H 750.113 1.59599 -3.84058 0
M  V30 7898 H 748.69 2.80115 -2.4615 0
M  V30 7899 N 750.875 1.45233 0.611969 0
M  V30 7900 C 752.152 1.39495 1.37115 0
M  V30 7901 C 752.532 0.0633303 2.11005 0
M  V30 7902 O 751.88 -0.954617 2.07604 0
M  V30 7903 C 752.09 2.60579 2.32163 0
M  V30 7904 C 753.438 3.05477 2.94905 0
M  V30 7905 O 754.462 2.60921 2.42485 0
M  V30 7906 O 753.321 3.82787 3.90047 0
M  V30 7907 H 750.415 0.55335 0.614599 0
M  V30 7908 H 752.961 1.57355 0.635423 0
M  V30 7909 H 751.733 3.49085 1.76793 0
M  V30 7910 H 751.356 2.45031 3.13122 0
M  V30 7911 N 752.353 -0.854086 1.3245 0
M  V30 7912 C 753.601 -1.60513 1.228 0
M  V30 7913 C 753.922 -1.93865 -0.210073 0
M  V30 7914 O 753.192 -1.59673 -1.13496 0
M  V30 7915 H 751.772 -0.595099 0.451516 0
M  V30 7916 H 754.434 -1.0216 1.6598 0
M  V30 7917 H 753.53 -2.54182 1.81102 0
M  V30 7918 N 753.831 -1.1567 -1.07043 0
M  V30 7919 C 755.056 -0.957946 -1.83952 0
M  V30 7920 C 755.481 0.488807 -1.81638 0
M  V30 7921 O 754.839 1.34869 -1.21162 0
M  V30 7922 C 754.887 -1.48064 -3.288 0
M  V30 7923 O 753.991 -0.681921 -4.06723 0
M  V30 7924 H 753.332 -0.341453 -0.569479 0
M  V30 7925 H 755.862 -1.53728 -1.35015 0
M  V30 7926 H 755.872 -1.49484 -3.7963 0
M  V30 7927 H 754.547 -2.53388 -3.29799 0
M  V30 7928 H 753.124 -0.737612 -3.65532 0
M  V30 7929 N 755.309 1.25446 -0.953992 0
M  V30 7930 C 756.219 2.29632 -0.480264 0
M  V30 7931 C 757.235 1.68025 0.452071 0
M  V30 7932 O 758.411 1.98703 0.328472 0
M  V30 7933 C 755.476 3.45903 0.234974 0
M  V30 7934 C 754.537 4.22953 -0.735495 0
M  V30 7935 C 753.77 5.33672 -0.0542957 0
M  V30 7936 O 753.993 5.58477 1.16018 0
M  V30 7937 O 752.927 5.9734 -0.739509 0
M  V30 7938 H 756.753 2.72242 -1.34602 0
M  V30 7939 H 754.338 1.30883 -0.720419 0
M  V30 7940 H 756.22 4.16552 0.637341 0
M  V30 7941 H 754.895 3.05296 1.07592 0
M  V30 7942 H 753.802 3.54734 -1.18806 0
M  V30 7943 H 755.135 4.67341 -1.54444 0
M  V30 7944 N 756.787 0.722489 1.40064 0
M  V30 7945 C 757.734 0.0743738 2.3068 0
M  V30 7946 C 758.704 -0.743004 1.48555 0
M  V30 7947 O 759.889 -0.705536 1.77276 0
M  V30 7948 C 757.029 -0.836292 3.34814 0
M  V30 7949 C 756.142 -0.00764663 4.31999 0
M  V30 7950 C 755.277 -0.918428 5.232 0
M  V30 7951 C 754.316 -0.0842838 6.12042 0
M  V30 7952 N 753.453 -0.950316 6.95639 0
M  V30 7953 H 758.293 0.852794 2.85537 0
M  V30 7954 H 755.83 0.432222 1.40607 0
M  V30 7955 H 757.788 -1.3786 3.93765 0
M  V30 7956 H 756.418 -1.58082 2.81443 0
M  V30 7957 H 755.47 0.651928 3.74772 0
M  V30 7958 H 756.782 0.63786 4.94705 0
M  V30 7959 H 755.936 -1.52902 5.87116 0
M  V30 7960 H 754.675 -1.59774 4.60786 0
M  V30 7961 H 753.68 0.5392 5.4715 0
M  V30 7962 H 754.905 0.591628 6.76518 0
M  V30 7963 H 752.851 -1.61515 6.35806 0
M  V30 7964 H 752.768 -0.361004 7.55138 0
M  V30 7965 H 754.036 -1.54687 7.63997 0
M  V30 7966 N 758.265 -1.50454 0.469181 0
M  V30 7967 C 759.175 -2.32248 -0.331349 0
M  V30 7968 C 760.191 -1.42548 -0.997807 0
M  V30 7969 O 761.367 -1.75602 -0.9862 0
M  V30 7970 C 758.432 -3.17171 -1.40012 0
M  V30 7971 C 757.493 -4.2269 -0.750463 0
M  V30 7972 C 756.726 -5.03554 -1.76831 0
M  V30 7973 O 756.949 -4.85469 -2.99459 0
M  V30 7974 O 755.883 -5.86767 -1.3412 0
M  V30 7975 H 759.709 -3.01821 0.337279 0
M  V30 7976 H 757.294 -1.47602 0.231066 0
M  V30 7977 H 759.176 -3.69871 -2.01924 0
M  V30 7978 H 757.851 -2.50328 -2.05226 0
M  V30 7979 H 756.758 -3.73986 -0.0924446 0
M  V30 7980 H 758.091 -4.91997 -0.14131 0
M  V30 7981 N 759.743 -0.201713 -1.56304 0
M  V30 7982 C 760.99 0.435307 -1.97766 0
M  V30 7983 C 761.318 1.61169 -1.0888 0
M  V30 7984 O 760.573 1.95272 -0.12934 0
M  V30 7985 C 760.872 0.931432 -3.45049 0
M  V30 7986 C 760.538 -0.132287 -4.50706 0
M  V30 7987 C 759.2 -0.424552 -4.79323 0
M  V30 7988 C 761.552 -0.852703 -5.14177 0
M  V30 7989 C 758.88 -1.4421 -5.68701 0
M  V30 7990 C 761.232 -1.85944 -6.04655 0
M  V30 7991 C 759.896 -2.15884 -6.31625 0
M  V30 7992 H 759.166 0.15929 -0.723676 0
M  V30 7993 H 761.813 -0.300069 -1.89134 0
M  V30 7994 H 760.118 1.7452 -3.50785 0
M  V30 7995 H 761.815 1.43383 -3.74489 0
M  V30 7996 H 758.405 0.105671 -4.2847 0
M  V30 7997 H 762.589 -0.640139 -4.92154 0
M  V30 7998 H 757.845 -1.6799 -5.87869 0
M  V30 7999 H 762.019 -2.42286 -6.52894 0
M  V30 8000 H 759.646 -2.94875 -7.0068 0
M  V30 8001 N 761.222 1.57436 0.0718424 0
M  V30 8002 C 762.447 1.91858 0.787745 0
M  V30 8003 C 762.872 0.798119 1.70328 0
M  V30 8004 O 762.23 -0.24905 1.79581 0
M  V30 8005 C 762.278 3.25232 1.55744 0
M  V30 8006 O 761.382 3.14462 2.6681 0
M  V30 8007 H 760.723 0.628258 0.214914 0
M  V30 8008 H 763.253 2.04561 0.0401012 0
M  V30 8009 H 763.263 3.59105 1.9367 0
M  V30 8010 H 761.938 4.0636 0.885691 0
M  V30 8011 H 760.515 2.92148 2.31741 0
M  V30 8012 N 762.7 -0.34323 1.53817 0
M  V30 8013 C 763.648 -1.44176 1.82527 0
M  V30 8014 C 764.642 -1.54452 0.695772 0
M  V30 8015 O 765.848 -1.57072 0.879114 0
M  V30 8016 H 762.223 -0.480729 0.578277 0
M  V30 8017 H 764.194 -1.17176 2.74431 0
M  V30 8018 C 762.943 -2.80695 2.05197 0
M  V30 8019 H 762.266 -2.73554 2.91561 0
M  V30 8020 H 763.706 -3.56679 2.29251 0
M  V30 8021 C 762.165 -3.26322 0.837589 0
M  V30 8022 O 762.695 -4.01683 0.0371631 0
M  V30 8023 N 760.901 -2.83128 0.654724 0
M  V30 8024 H 760.448 -2.21965 1.30725 0
M  V30 8025 H 760.406 -3.14011 -0.156345 0
M  V30 8026 N 764.178 -1.45556 -0.604258 0
M  V30 8027 C 765.424 -1.49968 -1.36519 0
M  V30 8028 C 765.757 -0.142236 -1.93678 0
M  V30 8029 O 765.032 0.843717 -1.75247 0
M  V30 8030 C 765.315 -2.58146 -2.51063 0
M  V30 8031 C 765.168 -4.03346 -1.99078 0
M  V30 8032 C 766.487 -2.62581 -3.53184 0
M  V30 8033 H 763.606 -0.545993 -0.495036 0
M  V30 8034 H 766.248 -1.77382 -0.680845 0
M  V30 8035 H 764.398 -2.34901 -3.09441 0
M  V30 8036 H 766.07 -4.37811 -1.45323 0
M  V30 8037 H 764.313 -4.13845 -1.30055 0
M  V30 8038 H 764.984 -4.74731 -2.81664 0
M  V30 8039 H 767.46 -2.83419 -3.04652 0
M  V30 8040 H 766.336 -3.40131 -4.30816 0
M  V30 8041 H 766.597 -1.67798 -4.09019 0
M  V30 8042 N 765.656 0.84705 -1.32902 0
M  V30 8043 C 766.904 1.5986 -1.2365 0
M  V30 8044 C 767.225 1.93974 0.199789 0
M  V30 8045 O 766.495 1.60273 1.12648 0
M  V30 8046 H 765.075 0.592696 -0.454665 0
M  V30 8047 H 767.737 1.01278 -1.66519 0
M  V30 8048 H 766.833 2.53218 -1.82448 0
M  V30 8049 N 767.134 1.16236 1.06428 0
M  V30 8050 C 768.362 0.967184 1.82902 0
M  V30 8051 C 768.777 -0.484601 1.82475 0
M  V30 8052 O 768.134 -1.33631 1.24294 0
M  V30 8053 C 768.185 1.48534 3.29576 0
M  V30 8054 O 767.906 2.88026 3.3011 0
M  V30 8055 C 769.407 1.33298 4.22784 0
M  V30 8056 H 766.627 0.342923 0.576754 0
M  V30 8057 H 769.171 1.54232 1.34286 0
M  V30 8058 H 767.326 0.952513 3.75508 0
M  V30 8059 H 767.74 3.11721 4.21818 0
M  V30 8060 H 769.214 1.74385 5.23731 0
M  V30 8061 H 769.691 0.278356 4.38317 0
M  V30 8062 H 770.297 1.85535 3.82697 0
M  V30 8063 N 768.612 -1.24939 0.960631 0
M  V30 8064 C 770.028 -1.45039 0.666018 0
M  V30 8065 C 770.228 -1.86021 -0.774501 0
M  V30 8066 O 769.284 -1.99392 -1.54916 0
M  V30 8067 C 770.597 -2.51775 1.64408 0
M  V30 8068 C 772.145 -2.6561 1.65592 0
M  V30 8069 C 772.62 -3.75536 2.62177 0
M  V30 8070 N 774.111 -3.82954 2.60577 0
M  V30 8071 C 774.846 -4.67517 3.31987 0
M  V30 8072 N 774.342 -5.56321 4.1289 0
M  V30 8073 N 776.135 -4.61535 3.20845 0
M  V30 8074 H 768.286 -0.96632 1.89145 0
M  V30 8075 H 770.549 -0.486034 0.813926 0
M  V30 8076 H 770.255 -2.28534 2.67329 0
M  V30 8077 H 770.129 -3.49804 1.41128 0
M  V30 8078 H 772.516 -2.88212 0.633846 0
M  V30 8079 H 772.597 -1.67962 1.92931 0
M  V30 8080 H 772.241 -3.53684 3.64514 0
M  V30 8081 H 772.171 -4.72682 2.32119 0
M  V30 8082 H 774.662 -3.19478 2.01847 0
M  V30 8083 H 774.975 -6.17787 4.64283 0
M  V30 8084 H 773.32 -5.5601 4.16987 0
M  V30 8085 H 776.511 -3.91169 2.57108 0
M  V30 8086 H 776.684 -5.27214 3.76762 0
M  V30 8087 N 770.09 -0.729906 -1.39679 0
M  V30 8088 C 771.053 -0.0951668 -2.29002 0
M  V30 8089 C 772.053 0.672471 -1.46063 0
M  V30 8090 O 773.243 0.502245 -1.66803 0
M  V30 8091 C 770.375 0.874631 -3.29489 0
M  V30 8092 H 771.568 -0.882062 -2.86635 0
M  V30 8093 H 769.121 -0.495424 -1.4824 0
M  V30 8094 H 769.856 1.68807 -2.76902 0
M  V30 8095 H 769.641 0.326893 -3.90735 0
M  V30 8096 H 771.131 1.31548 -3.96339 0
M  V30 8097 N 771.568 1.50203 -0.477153 0
M  V30 8098 C 772.501 2.25343 0.359983 0
M  V30 8099 C 773.479 1.28909 0.991022 0
M  V30 8100 O 774.663 1.58146 1.02578 0
M  V30 8101 C 771.79 3.03431 1.5049 0
M  V30 8102 C 770.836 4.14836 0.99063 0
M  V30 8103 S 771.669 5.35407 -0.0995413 0
M  V30 8104 C 772.825 6.17045 1.04911 0
M  V30 8105 H 773.058 2.95999 -0.277836 0
M  V30 8106 H 770.591 1.52159 -0.262115 0
M  V30 8107 H 772.549 3.49012 2.16105 0
M  V30 8108 H 771.21 2.32289 2.11425 0
M  V30 8109 H 770.403 4.689 1.84794 0
M  V30 8110 H 770.005 3.71723 0.412097 0
M  V30 8111 H 772.297 6.48546 1.95946 0
M  V30 8112 H 773.24 7.05979 0.547596 0
M  V30 8113 H 773.648 5.49193 1.30567 0
M  V30 8114 N 773.046 0.209999 1.56195 0
M  V30 8115 C 773.993 -0.704854 2.19774 0
M  V30 8116 C 774.963 -1.19886 1.14964 0
M  V30 8117 O 776.148 -1.26005 1.43274 0
M  V30 8118 C 773.288 -1.91241 2.87265 0
M  V30 8119 C 772.401 -1.45838 4.06639 0
M  V30 8120 C 771.536 -2.6226 4.61945 0
M  V30 8121 C 770.575 -2.13537 5.73645 0
M  V30 8122 N 769.712 -3.2319 6.23292 0
M  V30 8123 H 774.552 -0.155944 2.97592 0
M  V30 8124 H 772.089 -0.0652235 1.46955 0
M  V30 8125 H 774.047 -2.62123 3.24573 0
M  V30 8126 H 772.677 -2.43439 2.11985 0
M  V30 8127 H 771.729 -0.644897 3.74894 0
M  V30 8128 H 773.041 -1.06103 4.87384 0
M  V30 8129 H 772.195 -3.41243 5.01636 0
M  V30 8130 H 770.934 -3.05278 3.80338 0
M  V30 8131 H 769.939 -1.33013 5.33468 0
M  V30 8132 H 771.164 -1.71533 6.57079 0
M  V30 8133 H 769.11 -3.65711 5.44602 0
M  V30 8134 H 769.027 -2.8767 6.99129 0
M  V30 8135 H 770.295 -4.02342 6.67639 0
M  V30 8136 N 774.524 -1.57472 -0.0634922 0
M  V30 8137 C 775.434 -2.07621 -1.09227 0
M  V30 8138 C 776.45 -1.00746 -1.41867 0
M  V30 8139 O 777.626 -1.32269 -1.51878 0
M  V30 8140 C 774.691 -2.51707 -2.38421 0
M  V30 8141 C 773.752 -3.72917 -2.12676 0
M  V30 8142 C 772.985 -4.14891 -3.3571 0
M  V30 8143 O 773.208 -3.56663 -4.45137 0
M  V30 8144 O 772.142 -5.07616 -3.23434 0
M  V30 8145 H 775.968 -2.95612 -0.696205 0
M  V30 8146 H 773.553 -1.46787 -0.27819 0
M  V30 8147 H 775.435 -2.80547 -3.14438 0
M  V30 8148 H 774.11 -1.66842 -2.77391 0
M  V30 8149 H 773.017 -3.49148 -1.34337 0
M  V30 8150 H 774.35 -4.5866 -1.78583 0
M  V30 8151 N 776.003 0.335068 -1.53997 0
M  V30 8152 C 777.231 1.09418 -1.756 0
M  V30 8153 C 777.646 1.82083 -0.499138 0
M  V30 8154 O 777.003 1.74646 0.529631 0
M  V30 8155 C 777.054 2.10115 -2.94166 0
M  V30 8156 O 776.775 1.40404 -4.14992 0
M  V30 8157 C 778.276 2.98336 -3.27888 0
M  V30 8158 H 775.496 0.32595 -0.586513 0
M  V30 8159 H 778.04 0.384693 -2.00849 0
M  V30 8160 H 776.195 2.76616 -2.71224 0
M  V30 8161 H 776.609 2.07743 -4.81605 0
M  V30 8162 H 778.083 3.6491 -4.1418 0
M  V30 8163 H 778.56 3.64814 -2.44556 0
M  V30 8164 H 779.166 2.37412 -3.52868 0
M  V30 8165 N 777.481 1.45874 0.596531 0
M  V30 8166 C 778.709 1.54013 1.38158 0
M  V30 8167 C 779.124 0.17648 1.87973 0
M  V30 8168 O 778.481 -0.823895 1.62844 0
M  V30 8169 C 778.532 2.53363 2.57855 0
M  V30 8170 O 778.253 3.8443 2.10108 0
M  V30 8171 C 779.754 2.71308 3.50581 0
M  V30 8172 H 776.974 0.521251 0.422538 0
M  V30 8173 H 779.518 1.9116 0.726493 0
M  V30 8174 H 777.673 2.19257 3.19382 0
M  V30 8175 H 778.087 4.38384 2.87958 0
M  V30 8176 H 779.561 3.44776 4.31084 0
M  V30 8177 H 780.038 1.77728 4.01633 0
M  V30 8178 H 780.644 3.06455 2.94899 0
M  V30 8179 N 778.959 -0.83999 1.33349 0
M  V30 8180 C 779.922 -1.93128 1.23426 0
M  V30 8181 C 780.922 -1.60065 0.153599 0
M  V30 8182 O 782.112 -1.69425 0.405049 0
M  V30 8183 C 779.244 -3.28761 0.901622 0
M  V30 8184 H 780.437 -2.03352 2.20427 0
M  V30 8185 H 777.99 -1.03194 1.17391 0
M  V30 8186 H 778.725 -3.24233 -0.0659337 0
M  V30 8187 H 778.51 -3.54138 1.68311 0
M  V30 8188 H 780 -4.08714 0.856913 0
M  V30 8189 N 780.437 -1.16799 -1.0581 0
M  V30 8190 C 781.667 -0.975454 -1.82122 0
M  V30 8191 C 782.075 0.479584 -1.83021 0
M  V30 8192 O 781.418 1.34471 -1.25153 0
M  V30 8193 C 781.48 -1.43209 -3.29744 0
M  V30 8194 C 781.144 -2.908 -3.5254 0
M  V30 8195 C 782.141 -3.88775 -3.45181 0
M  V30 8196 C 779.826 -3.28832 -3.79703 0
M  V30 8197 C 781.82 -5.22782 -3.64661 0
M  V30 8198 C 779.507 -4.63007 -3.98832 0
M  V30 8199 C 780.505 -5.59791 -3.91309 0
M  V30 8200 O 780.193 -6.9154 -4.09911 0
M  V30 8201 H 779.925 -0.345655 -0.580947 0
M  V30 8202 H 782.479 -1.55355 -1.34365 0
M  V30 8203 H 780.709 -0.797504 -3.78387 0
M  V30 8204 H 782.398 -1.2062 -3.87564 0
M  V30 8205 H 783.164 -3.60738 -3.2418 0
M  V30 8206 H 779.043 -2.54073 -3.84666 0
M  V30 8207 H 782.587 -5.98312 -3.58705 0
M  V30 8208 H 778.484 -4.90752 -4.19324 0
M  V30 8209 H 779.252 -6.98188 -4.27172 0
M  V30 8210 N 781.915 1.24427 -0.967243 0
M  V30 8211 C 782.848 2.23885 -0.441683 0
M  V30 8212 C 783.826 1.55231 0.483963 0
M  V30 8213 O 785.01 1.83865 0.415445 0
M  V30 8214 C 782.137 3.36755 0.362458 0
M  V30 8215 C 781.183 4.23495 -0.505407 0
M  V30 8216 S 782.016 4.98916 -1.94534 0
M  V30 8217 C 783.172 6.15245 -1.14997 0
M  V30 8218 H 783.405 2.68118 -1.28453 0
M  V30 8219 H 780.938 1.337 -0.772243 0
M  V30 8220 H 782.896 4.02218 0.820445 0
M  V30 8221 H 781.557 2.91081 1.18027 0
M  V30 8222 H 780.75 5.03876 0.111979 0
M  V30 8223 H 780.352 3.63032 -0.899104 0
M  V30 8224 H 782.644 6.7629 -0.404769 0
M  V30 8225 H 783.587 6.81343 -1.92814 0
M  V30 8226 H 783.995 5.60455 -0.674543 0
M  V30 8227 N 783.393 0.737304 1.3929 0
M  V30 8228 C 784.326 0.0475454 2.2815 0
M  V30 8229 C 785.304 -0.745314 1.44512 0
M  V30 8230 O 786.488 -0.727387 1.739 0
M  V30 8231 C 783.615 -0.939803 3.254 0
M  V30 8232 C 782.661 -0.235153 4.25851 0
M  V30 8233 S 783.494 1.05252 5.25055 0
M  V30 8234 C 784.65 0.0678242 6.25863 0
M  V30 8235 H 784.883 0.801117 2.86303 0
M  V30 8236 H 782.416 0.529197 1.45048 0
M  V30 8237 H 784.374 -1.50417 3.81949 0
M  V30 8238 H 783.035 -1.66623 2.66262 0
M  V30 8239 H 782.228 -0.982336 4.94334 0
M  V30 8240 H 781.83 0.257245 3.73114 0
M  V30 8241 H 784.122 -0.771779 6.7309 0
M  V30 8242 H 785.065 0.719858 7.04431 0
M  V30 8243 H 785.473 -0.305604 5.63672 0
M  V30 8244 N 784.871 -1.49948 0.485112 0
M  V30 8245 C 786.099 -2.06806 -0.0622824 0
M  V30 8246 C 786.514 -1.34736 -1.32256 0
M  V30 8247 O 785.871 -0.420836 -1.77582 0
M  V30 8248 C 785.922 -3.59934 -0.336096 0
M  V30 8249 O 785.643 -4.29289 0.874203 0
M  V30 8250 C 787.144 -4.33459 -0.928903 0
M  V30 8251 H 784.364 -0.670867 0.0133472 0
M  V30 8252 H 786.908 -1.92937 0.677917 0
M  V30 8253 H 785.063 -3.7356 -1.02625 0
M  V30 8254 H 785.477 -5.20735 0.627332 0
M  V30 8255 H 786.951 -5.41527 -1.07017 0
M  V30 8256 H 787.428 -3.94881 -1.92265 0
M  V30 8257 H 788.034 -4.24399 -0.276705 0
M  V30 8258 N 786.349 -0.21828 -1.56081 0
M  V30 8259 C 787.626 0.463143 -1.90038 0
M  V30 8260 C 788.006 1.77982 -1.13515 0
M  V30 8261 O 787.354 2.27199 -0.24345 0
M  V30 8262 C 787.564 0.659292 -3.42716 0
M  V30 8263 C 788.912 0.968203 -4.13414 0
M  V30 8264 O 789.936 0.746195 -3.48296 0
M  V30 8265 O 788.795 1.38936 -5.28544 0
M  V30 8266 H 785.889 0.244435 -0.790051 0
M  V30 8267 H 788.435 -0.260221 -1.67693 0
M  V30 8268 H 787.207 -0.269584 -3.9037 0
M  V30 8269 H 786.83 1.43426 -3.7083 0
M  V30 8270 N 787.827 1.57504 0.0551401 0
M  V30 8271 C 788.76 2.00155 1.09604 0
M  V30 8272 C 789.738 0.881274 1.36647 0
M  V30 8273 O 790.922 1.14498 1.49742 0
M  V30 8274 C 788.049 2.35246 2.43674 0
M  V30 8275 C 787.095 3.57452 2.32659 0
M  V30 8276 S 787.928 5.07639 1.7048 0
M  V30 8277 C 789.084 5.45947 3.06093 0
M  V30 8278 H 789.317 2.88131 0.732635 0
M  V30 8279 H 786.85 1.52122 0.264252 0
M  V30 8280 H 788.808 2.56136 3.20787 0
M  V30 8281 H 787.469 1.47769 2.7717 0
M  V30 8282 H 786.662 3.79576 3.31569 0
M  V30 8283 H 786.264 3.36279 1.63685 0
M  V30 8284 H 788.556 5.45036 4.0242 0
M  V30 8285 H 789.499 6.4656 2.88732 0
M  V30 8286 H 789.907 4.73419 3.07466 0
M  V30 8287 N 789.305 -0.326896 1.54172 0
M  V30 8288 C 790.238 -1.42591 1.78166 0
M  V30 8289 C 791.216 -1.49837 0.631484 0
M  V30 8290 O 792.4 -1.67298 0.868544 0
M  V30 8291 C 789.527 -2.8071 1.89524 0
M  V30 8292 C 788.573 -2.91012 3.11792 0
M  V30 8293 S 789.406 -2.55763 4.70474 0
M  V30 8294 C 790.562 -3.9596 4.84733 0
M  V30 8295 H 790.795 -1.22024 2.71104 0
M  V30 8296 H 788.328 -0.523539 1.45253 0
M  V30 8297 H 790.286 -3.60276 1.96753 0
M  V30 8298 H 788.947 -2.98562 0.975696 0
M  V30 8299 H 788.14 -3.92258 3.16464 0
M  V30 8300 H 787.742 -2.19414 3.02876 0
M  V30 8301 H 790.034 -4.90676 4.67166 0
M  V30 8302 H 790.977 -3.96273 5.86833 0
M  V30 8303 H 791.385 -3.8476 4.13062 0
M  V30 8304 N 790.784 -1.46188 -0.588786 0
M  V30 8305 C 791.731 -1.56292 -1.69828 0
M  V30 8306 C 792.701 -0.407581 -1.61022 0
M  V30 8307 O 793.886 -0.623532 -1.80324 0
M  V30 8308 C 791.026 -1.55341 -3.08161 0
M  V30 8309 C 790.139 -2.81564 -3.27636 0
M  V30 8310 C 789.274 -2.72158 -4.56183 0
M  V30 8311 C 788.313 -3.93348 -4.68981 0
M  V30 8312 N 787.45 -3.82365 -5.88848 0
M  V30 8313 H 792.29 -2.51066 -1.6053 0
M  V30 8314 H 789.827 -1.24562 -0.782474 0
M  V30 8315 H 791.785 -1.52776 -3.88221 0
M  V30 8316 H 790.415 -0.641034 -3.16371 0
M  V30 8317 H 789.467 -2.94136 -2.41223 0
M  V30 8318 H 790.779 -3.714 -3.32962 0
M  V30 8319 H 789.933 -2.67665 -5.44464 0
M  V30 8320 H 788.672 -1.79953 -4.53286 0
M  V30 8321 H 787.677 -3.98181 -3.7912 0
M  V30 8322 H 788.902 -4.86643 -4.73662 0
M  V30 8323 H 786.848 -2.92942 -5.86959 0
M  V30 8324 H 786.765 -4.65851 -5.95415 0
M  V30 8325 H 788.033 -3.81836 -6.79575 0
M  V30 8326 N 792.262 0.832906 -1.33792 0
M  V30 8327 C 793.49 1.62048 -1.28639 0
M  V30 8328 C 793.905 1.88269 0.141522 0
M  V30 8329 O 793.262 1.46706 1.08553 0
M  V30 8330 C 793.313 2.96722 -2.0649 0
M  V30 8331 O 793.034 2.7165 -3.43712 0
M  V30 8332 C 794.535 3.91144 -2.08617 0
M  V30 8333 H 791.755 0.504032 -0.442937 0
M  V30 8334 H 794.299 1.03704 -1.76255 0
M  V30 8335 H 792.454 3.51652 -1.62541 0
M  V30 8336 H 792.868 3.57453 -3.83833 0
M  V30 8337 H 794.342 4.82837 -2.67531 0
M  V30 8338 H 794.819 4.25766 -1.07796 0
M  V30 8339 H 795.425 3.42152 -2.52611 0
M  V30 8340 N 793.74 1.17359 1.05189 0
M  V30 8341 C 794.986 0.963413 1.78455 0
M  V30 8342 C 795.319 -0.506703 1.87473 0
M  V30 8343 O 794.594 -1.37611 1.37453 0
M  V30 8344 C 794.877 1.60519 3.22344 0
M  V30 8345 C 794.73 3.14741 3.21338 0
M  V30 8346 C 796.049 1.3091 4.20179 0
M  V30 8347 H 793.168 0.351412 0.647826 0
M  V30 8348 H 795.81 1.44858 1.22948 0
M  V30 8349 H 793.96 1.19265 3.69741 0
M  V30 8350 H 795.632 3.65053 2.82017 0
M  V30 8351 H 793.875 3.4749 2.59679 0
M  V30 8352 H 794.546 3.54775 4.22894 0
M  V30 8353 H 797.022 1.66635 3.81277 0
M  V30 8354 H 795.898 1.784 5.191 0
M  V30 8355 H 796.159 0.229908 4.41502 0
M  V30 8356 N 795.218 -1.23913 0.973828 0
M  V30 8357 C 796.148 -2.27453 0.527969 0
M  V30 8358 C 797.129 -1.6443 -0.435513 0
M  V30 8359 O 798.314 -1.9137 -0.330306 0
M  V30 8360 C 795.444 -3.4685 -0.176757 0
M  V30 8361 C 794.398 -4.22181 0.703352 0
M  V30 8362 C 793.724 -5.34534 -0.133215 0
M  V30 8363 C 795.024 -4.82865 1.99096 0
M  V30 8364 H 796.718 -2.65 1.3934 0
M  V30 8365 H 794.264 -1.27388 0.671446 0
M  V30 8366 H 796.217 -4.18424 -0.499934 0
M  V30 8367 H 794.941 -3.08346 -1.07659 0
M  V30 8368 H 793.6 -3.52416 1.00989 0
M  V30 8369 H 793.248 -4.92271 -1.03338 0
M  V30 8370 H 792.948 -5.85855 0.452494 0
M  V30 8371 H 794.472 -6.08933 -0.450924 0
M  V30 8372 H 795.886 -5.46481 1.73297 0
M  V30 8373 H 794.283 -5.44444 2.52389 0
M  V30 8374 H 795.353 -4.03977 2.68199 0
M  V30 8375 N 796.696 -0.74468 -1.38897 0
M  V30 8376 C 797.924 -0.307428 -2.04603 0
M  V30 8377 C 798.339 1.06115 -1.56157 0
M  V30 8378 O 797.696 1.67233 -0.730701 0
M  V30 8379 C 797.747 -0.31101 -3.6016 0
M  V30 8380 O 797.468 -1.62557 -4.06825 0
M  V30 8381 C 798.969 0.141213 -4.43075 0
M  V30 8382 H 796.189 -0.132741 -0.657739 0
M  V30 8383 H 798.733 -1.01104 -1.77759 0
M  V30 8384 H 796.888 0.343792 -3.85872 0
M  V30 8385 H 797.302 -1.54569 -5.01207 0
M  V30 8386 H 798.776 0.0875449 -5.51931 0
M  V30 8387 H 799.253 1.18782 -4.22833 0
M  V30 8388 H 799.859 -0.484383 -4.22533 0
M  V30 8389 N 798.174 1.49689 -0.493057 0
M  V30 8390 C 799.404 2.06536 0.0512397 0
M  V30 8391 C 799.812 1.35459 1.32089 0
M  V30 8392 O 799.155 0.424145 1.78736 0
M  V30 8393 C 799.217 3.57452 0.383231 0
M  V30 8394 C 798.881 4.50163 -0.787555 0
M  V30 8395 C 799.878 4.92151 -1.67582 0
M  V30 8396 C 797.563 4.92565 -0.984109 0
M  V30 8397 C 799.557 5.7527 -2.74487 0
M  V30 8398 C 797.244 5.75463 -2.05634 0
M  V30 8399 C 798.242 6.16719 -2.93507 0
M  V30 8400 O 797.93 6.97961 -3.98881 0
M  V30 8401 H 797.662 0.675862 -0.0136516 0
M  V30 8402 H 800.216 1.9356 -0.687298 0
M  V30 8403 H 798.446 3.68408 1.17526 0
M  V30 8404 H 800.135 3.96572 0.8652 0
M  V30 8405 H 800.901 4.60043 -1.53575 0
M  V30 8406 H 796.78 4.5996 -0.309541 0
M  V30 8407 H 800.324 6.07392 -3.43104 0
M  V30 8408 H 796.221 6.06983 -2.19639 0
M  V30 8409 H 796.989 7.16253 -3.96137 0
M  V30 8410 N 799.652 0.226554 1.55963 0
M  V30 8411 C 800.9 -0.402991 1.98041 0
M  V30 8412 C 801.221 -1.59938 1.11557 0
M  V30 8413 O 800.491 -1.9494 0.193719 0
M  V30 8414 H 799.071 -0.15188 0.731397 0
M  V30 8415 H 801.733 0.320613 1.92245 0
M  V30 8416 H 800.829 -0.725937 3.0354 0
M  V30 8417 N 801.13 -1.57531 -0.0467866 0
M  V30 8418 C 802.358 -1.92696 -0.753371 0
M  V30 8419 C 802.773 -0.824792 -1.69831 0
M  V30 8420 O 802.13 0.200155 -1.81399 0
M  V30 8421 C 802.181 -3.27728 -1.52566 0
M  V30 8422 O 801.902 -4.3371 -0.618674 0
M  V30 8423 C 803.403 -3.77066 -2.33101 0
M  V30 8424 H 800.623 -0.636367 -0.212788 0
M  V30 8425 H 803.167 -2.04498 -0.00959361 0
M  V30 8426 H 801.322 -3.17378 -2.22148 0
M  V30 8427 H 801.736 -5.11548 -1.15839 0
M  V30 8428 H 803.21 -4.74109 -2.82709 0
M  V30 8429 H 803.687 -3.07348 -3.13741 0
M  V30 8430 H 804.293 -3.90442 -1.68628 0
M  V30 8431 N 802.608 0.318715 -1.54344 0
M  V30 8432 C 803.856 1.054 -1.72439 0
M  V30 8433 C 804.177 1.88388 -0.503495 0
M  V30 8434 O 803.447 1.89866 0.48246 0
M  V30 8435 H 802.027 0.392124 -0.635805 0
M  V30 8436 H 804.689 0.35398 -1.91659 0
M  V30 8437 H 803.785 1.71726 -2.60608 0
M  V30 8438 N 804.086 1.46499 0.581025 0
M  V30 8439 C 805.502 1.31491 0.904563 0
M  V30 8440 C 805.702 0.287598 1.99437 0
M  V30 8441 O 804.758 -0.309247 2.50599 0
M  V30 8442 C 806.071 2.70163 1.32032 0
M  V30 8443 C 807.619 2.78266 1.43308 0
M  V30 8444 C 808.094 4.17524 1.8825 0
M  V30 8445 N 809.585 4.19949 1.9544 0
M  V30 8446 C 810.32 5.24594 2.31493 0
M  V30 8447 N 809.816 6.39564 2.66326 0
M  V30 8448 N 811.609 5.11961 2.32062 0
M  V30 8449 H 803.76 2.11946 -0.138856 0
M  V30 8450 H 806.023 0.948 0.000548528 0
M  V30 8451 H 805.729 3.46655 0.593554 0
M  V30 8452 H 805.603 3.00379 2.2815 0
M  V30 8453 H 807.99 2.02061 2.15071 0
M  V30 8454 H 808.071 2.51732 0.45438 0
M  V30 8455 H 807.715 4.94225 1.17065 0
M  V30 8456 H 807.645 4.41466 2.87081 0
M  V30 8457 H 810.136 3.36996 1.71004 0
M  V30 8458 H 810.449 7.15187 2.92793 0
M  V30 8459 H 808.794 6.42923 2.6396 0
M  V30 8460 H 811.985 4.21177 2.04272 0
M  V30 8461 H 812.158 5.93626 2.5983 0
M  V30 8462 N 805.565 -0.825799 1.34232 0
M  V30 8463 C 806.513 -1.95792 1.25572 0
M  V30 8464 C 807.507 -1.68695 0.154404 0
M  V30 8465 O 808.713 -1.77147 0.319196 0
M  V30 8466 H 805.088 -0.642949 0.390027 0
M  V30 8467 H 807.059 -2.00219 2.21258 0
M  V30 8468 C 805.808 -3.32245 1.02511 0
M  V30 8469 H 805.131 -3.53642 1.86487 0
M  V30 8470 H 806.571 -4.1192 1.00487 0
M  V30 8471 C 805.03 -3.35803 -0.27167 0
M  V30 8472 O 805.56 -3.80962 -1.274 0
M  V30 8473 N 803.766 -2.89008 -0.303778 0
M  V30 8474 H 803.313 -2.52451 0.512464 0
M  V30 8475 H 803.271 -2.9177 -1.17121 0
M  V30 8476 N 807.043 -1.17915 -1.04565 0
M  V30 8477 C 808.006 -0.903787 -2.10628 0
M  V30 8478 C 809.006 0.10873 -1.60432 0
M  V30 8479 O 810.196 -0.124152 -1.73757 0
M  V30 8480 C 807.328 -0.355017 -3.39046 0
M  V30 8481 H 808.521 -1.84425 -2.3649 0
M  V30 8482 H 806.074 -0.990477 -1.2091 0
M  V30 8483 H 806.809 0.592297 -3.18845 0
M  V30 8484 H 806.594 -1.08484 -3.76794 0
M  V30 8485 H 808.084 -0.180891 -4.17208 0
M  V30 8486 N 808.521 1.23394 -0.980386 0
M  V30 8487 C 809.751 1.9556 -0.666319 0
M  V30 8488 C 810.159 1.72786 0.770815 0
M  V30 8489 O 809.502 1.0162 1.53033 0
M  V30 8490 C 809.564 3.48643 -0.876825 0
M  V30 8491 C 809.228 3.95135 -2.29602 0
M  V30 8492 C 810.225 4.03806 -3.2747 0
M  V30 8493 C 807.91 4.28122 -2.62711 0
M  V30 8494 C 809.904 4.44818 -4.56526 0
M  V30 8495 C 807.591 4.68814 -3.9199 0
M  V30 8496 C 808.589 4.77129 -4.88709 0
M  V30 8497 O 808.277 5.16908 -6.15679 0
M  V30 8498 H 808.009 0.629422 -0.246585 0
M  V30 8499 H 810.563 1.57839 -1.31438 0
M  V30 8500 H 808.793 3.86319 -0.171587 0
M  V30 8501 H 810.482 4.0202 -0.55992 0
M  V30 8502 H 811.248 3.78526 -3.03222 0
M  V30 8503 H 807.127 4.20861 -1.8814 0
M  V30 8504 H 810.671 4.51223 -5.32018 0
M  V30 8505 H 806.568 4.93545 -4.16033 0
M  V30 8506 H 807.336 5.3502 -6.19432 0
M  V30 8507 N 809.999 0.752036 1.385 0
M  V30 8508 C 810.929 0.138718 2.33088 0
M  V30 8509 C 811.91 -0.705318 1.54788 0
M  V30 8510 O 813.095 -0.646821 1.83112 0
M  V30 8511 C 810.225 -0.75641 3.38963 0
M  V30 8512 C 809.179 -0.0152239 4.27997 0
M  V30 8513 C 808.505 -1.0285 5.24715 0
M  V30 8514 C 809.805 1.15226 5.09431 0
M  V30 8515 H 811.499 0.928852 2.84627 0
M  V30 8516 H 809.045 0.448111 1.3685 0
M  V30 8517 H 810.998 -1.19513 4.04097 0
M  V30 8518 H 809.722 -1.57885 2.85902 0
M  V30 8519 H 808.381 0.404061 3.64366 0
M  V30 8520 H 808.029 -1.84496 4.67943 0
M  V30 8521 H 807.729 -0.537238 5.85139 0
M  V30 8522 H 809.253 -1.46657 5.92726 0
M  V30 8523 H 810.667 0.791161 5.67815 0
M  V30 8524 H 809.064 1.57428 5.79082 0
M  V30 8525 H 810.134 1.9659 4.43261 0
M  V30 8526 N 811.477 -1.49425 0.500989 0
M  V30 8527 C 812.44 -2.27646 -0.266416 0
M  V30 8528 C 813.44 -1.3366 -0.893961 0
M  V30 8529 O 814.63 -1.5682 -0.758495 0
M  V30 8530 C 811.762 -3.11618 -1.38227 0
M  V30 8531 H 812.955 -2.96945 0.419973 0
M  V30 8532 H 810.508 -1.5419 0.255954 0
M  V30 8533 H 811.243 -2.46885 -2.10281 0
M  V30 8534 H 811.028 -3.80721 -0.937746 0
M  V30 8535 H 812.518 -3.70698 -1.92283 0
M  V30 8536 N 812.955 -0.234822 -1.55841 0
M  V30 8537 C 814.201 0.387023 -1.99684 0
M  V30 8538 C 814.556 1.56439 -1.12003 0
M  V30 8539 O 813.849 1.90818 -0.172879 0
M  V30 8540 C 814.043 0.858032 -3.46947 0
M  V30 8541 C 813.872 -0.272152 -4.48876 0
M  V30 8542 C 812.642 -0.742896 -4.99809 0
M  V30 8543 C 814.84 -1.09501 -5.02508 0
M  V30 8544 N 812.822 -1.84675 -5.85464 0
M  V30 8545 C 814.193 -2.04748 -5.85217 0
M  V30 8546 C 816.248 -1.13295 -4.84839 0
M  V30 8547 C 814.951 -3.03483 -6.52143 0
M  V30 8548 C 816.977 -2.10854 -5.52535 0
M  V30 8549 C 816.339 -3.04838 -6.35022 0
M  V30 8550 H 812.438 0.107918 -0.774518 0
M  V30 8551 H 815.022 -0.349635 -1.91535 0
M  V30 8552 H 813.193 1.56401 -3.55518 0
M  V30 8553 H 814.925 1.45381 -3.77686 0
M  V30 8554 H 811.68 -0.32915 -4.72455 0
M  V30 8555 H 812.104 -2.40108 -6.32991 0
M  V30 8556 H 816.746 -0.420226 -4.20706 0
M  V30 8557 H 814.464 -3.7571 -7.15449 0
M  V30 8558 H 818.05 -2.1448 -5.40823 0
M  V30 8559 H 816.93 -3.79097 -6.8648 0
M  V30 8560 N 814.433 1.57553 0.0384317 0
M  V30 8561 C 815.363 2.0898 1.04161 0
M  V30 8562 C 816.344 0.99029 1.38301 0
M  V30 8563 O 817.529 1.26499 1.47349 0
M  V30 8564 C 814.659 2.56145 2.34536 0
M  V30 8565 C 813.613 3.70275 2.14663 0
M  V30 8566 C 812.939 4.03612 3.50715 0
M  V30 8567 C 814.239 4.99067 1.54045 0
M  V30 8568 H 815.933 2.93046 0.613548 0
M  V30 8569 H 813.479 1.40973 0.293684 0
M  V30 8570 H 815.432 2.90741 3.05037 0
M  V30 8571 H 814.156 1.6915 2.79385 0
M  V30 8572 H 812.815 3.36013 1.46597 0
M  V30 8573 H 812.463 3.13698 3.93195 0
M  V30 8574 H 812.163 4.80482 3.38247 0
M  V30 8575 H 813.687 4.40735 4.22593 0
M  V30 8576 H 815.101 5.3168 2.14451 0
M  V30 8577 H 813.498 5.80484 1.52178 0
M  V30 8578 H 814.568 4.8226 0.505259 0
M  V30 8579 N 815.911 -0.310526 1.54511 0
M  V30 8580 C 817.322 -0.884142 1.64438 0
M  V30 8581 C 817.673 -1.88425 0.546855 0
M  V30 8582 O 816.798 -2.14049 -0.31811 0
M  V30 8583 C 817.393 -1.6104 2.9808 0
M  V30 8584 C 815.952 -2.13255 3.1016 0
M  V30 8585 C 815.099 -0.96213 2.60074 0
M  V30 8586 H 818.05 -0.0877666 1.58457 0
M  V30 8587 H 818.071 -2.47541 2.8897 0
M  V30 8588 H 817.583 -0.882255 3.77939 0
M  V30 8589 H 815.684 -2.89145 2.35002 0
M  V30 8590 H 815.797 -2.37361 4.16169 0
M  V30 8591 H 814.161 -1.34501 2.16291 0
M  V30 8592 H 814.944 -0.248098 3.42402 0
M  V30 8593 N 817.389 -1.46805 -0.573248 0
M  V30 8594 C 818.321 -1.54127 -1.6964 0
M  V30 8595 C 819.334 -0.428778 -1.57052 0
M  V30 8596 O 820.523 -0.697612 -1.64303 0
M  V30 8597 C 817.623 -1.41438 -3.07975 0
M  V30 8598 C 816.796 -2.66974 -3.46474 0
M  V30 8599 C 815.855 -2.48349 -4.63906 0
M  V30 8600 O 814.881 -3.22109 -4.69292 0
M  V30 8601 N 816.083 -1.55129 -5.59388 0
M  V30 8602 H 818.848 -2.50971 -1.6381 0
M  V30 8603 H 816.409 -1.42981 -0.759479 0
M  V30 8604 H 818.401 -1.26737 -3.84343 0
M  V30 8605 H 816.971 -0.527388 -3.08119 0
M  V30 8606 H 816.191 -2.9655 -2.59715 0
M  V30 8607 H 817.479 -3.50347 -3.68964 0
M  V30 8608 H 816.877 -0.94324 -5.57781 0
M  V30 8609 H 815.434 -1.46387 -6.35149 0
M  V30 8610 N 818.867 0.818669 -1.34668 0
M  V30 8611 C 819.83 1.9114 -1.26483 0
M  V30 8612 C 820.83 1.598 -0.179044 0
M  V30 8613 O 822.02 1.6876 -0.431952 0
M  V30 8614 C 819.152 3.27285 -0.95381 0
M  V30 8615 H 820.345 1.9982 -2.23634 0
M  V30 8616 H 817.898 1.01314 -1.19018 0
M  V30 8617 H 818.633 3.24297 0.0143428 0
M  V30 8618 H 818.418 3.51416 -1.73924 0
M  V30 8619 H 819.908 4.07299 -0.921827 0
M  V30 8620 N 820.346 1.18468 1.03938 0
M  V30 8621 C 821.594 0.978895 1.76811 0
M  V30 8622 C 821.915 -0.49257 1.88676 0
M  V30 8623 O 821.185 -1.3572 1.41269 0
M  V30 8624 H 819.765 0.359201 0.654968 0
M  V30 8625 H 822.427 1.49173 1.25433 0
M  V30 8626 H 821.523 1.418 2.78027 0
M  V30 8627 N 821.824 -1.22873 0.986916 0
M  V30 8628 C 822.771 -2.2458 0.532215 0
M  V30 8629 C 823.741 -1.60375 -0.432322 0
M  V30 8630 O 824.926 -1.87775 -0.338416 0
M  V30 8631 C 822.066 -3.44761 -0.152864 0
M  V30 8632 C 821.179 -4.23501 0.852704 0
M  V30 8633 C 820.314 -5.31011 0.14176 0
M  V30 8634 C 819.353 -6.01464 1.1361 0
M  V30 8635 N 818.49 -7.00631 0.453871 0
M  V30 8636 H 823.33 -2.62838 1.40428 0
M  V30 8637 H 820.867 -1.29185 0.703543 0
M  V30 8638 H 822.825 -4.1333 -0.566926 0
M  V30 8639 H 821.455 -3.07284 -0.988756 0
M  V30 8640 H 820.507 -3.54286 1.38512 0
M  V30 8641 H 821.819 -4.72097 1.61014 0
M  V30 8642 H 820.973 -6.05805 -0.329337 0
M  V30 8643 H 819.712 -4.83373 -0.648229 0
M  V30 8644 H 818.717 -5.25456 1.61789 0
M  V30 8645 H 819.942 -6.5119 1.92686 0
M  V30 8646 H 817.888 -6.55235 -0.316791 0
M  V30 8647 H 817.805 -7.47204 1.14986 0
M  V30 8648 H 819.073 -7.795 0.00537823 0
M  V30 8649 N 823.302 -0.75937 -1.38099 0
M  V30 8650 C 824.53 -0.329111 -2.04266 0
M  V30 8651 C 824.945 1.04453 -1.57274 0
M  V30 8652 O 824.302 1.66449 -0.748397 0
M  V30 8653 C 824.353 -0.349192 -3.5981 0
M  V30 8654 O 824.074 -1.66863 -4.05078 0
M  V30 8655 C 825.575 0.0942106 -4.432 0
M  V30 8656 H 822.795 -0.13971 -0.656294 0
M  V30 8657 H 825.339 -1.02984 -1.76677 0
M  V30 8658 H 823.494 0.302846 -3.86214 0
M  V30 8659 H 823.908 -1.59877 -4.9954 0
M  V30 8660 H 825.382 0.0290004 -5.51992 0
M  V30 8661 H 825.859 1.1429 -4.24069 0
M  V30 8662 H 826.465 -0.529171 -4.21995 0
M  V30 8663 N 824.78 1.49157 -0.508906 0
M  V30 8664 C 826.028 2.02073 0.0327335 0
M  V30 8665 C 826.349 1.39012 1.3675 0
M  V30 8666 O 825.619 0.548153 1.88075 0
M  V30 8667 H 824.199 0.746848 0.0150864 0
M  V30 8668 H 826.861 1.83097 -0.667946 0
M  V30 8669 H 825.957 3.11707 0.1566 0
M  V30 8670 N 826.258 0.243083 1.55714 0
M  V30 8671 C 827.486 -0.386971 2.03249 0
M  V30 8672 C 827.901 -1.51812 1.12243 0
M  V30 8673 O 827.258 -1.81992 0.136119 0
M  V30 8674 C 827.309 -0.898361 3.5016 0
M  V30 8675 O 827.03 0.187708 4.37698 0
M  V30 8676 C 828.531 -1.59949 4.13438 0
M  V30 8677 H 825.751 -0.0923981 0.664608 0
M  V30 8678 H 828.295 0.365832 2.01201 0
M  V30 8679 H 826.45 -1.60136 3.52754 0
M  V30 8680 H 826.864 -0.200001 5.24119 0
M  V30 8681 H 828.338 -1.90907 5.17937 0
M  V30 8682 H 828.815 -2.52014 3.59702 0
M  V30 8683 H 829.421 -0.941163 4.14756 0
M  V30 8684 N 827.736 -1.57571 -0.0300757 0
M  V30 8685 C 828.961 -1.93879 -0.736601 0
M  V30 8686 C 829.386 -0.842998 -1.68152 0
M  V30 8687 O 828.744 0.20135 -1.80178 0
M  V30 8688 C 828.792 -3.29247 -1.47066 0
M  V30 8689 O 827.896 -3.21426 -2.58378 0
M  V30 8690 H 827.237 -0.633735 -0.198181 0
M  V30 8691 H 829.767 -2.04595 0.0141485 0
M  V30 8692 H 829.777 -3.64113 -1.84081 0
M  V30 8693 H 828.452 -4.08565 -0.77764 0
M  V30 8694 H 827.029 -2.98189 -2.23914 0
M  V30 8695 N 829.214 0.302327 -1.54673 0
M  V30 8696 C 830.162 1.39286 -1.86285 0
M  V30 8697 C 831.156 1.52553 -0.736478 0
M  V30 8698 O 832.362 1.54686 -0.92045 0
M  V30 8699 H 828.737 0.465228 -0.590819 0
M  V30 8700 H 830.708 1.09859 -2.77441 0
M  V30 8701 C 829.457 2.75155 -2.12567 0
M  V30 8702 H 828.78 2.65728 -2.98712 0
M  V30 8703 H 830.22 3.50476 -2.38627 0
M  V30 8704 C 828.679 3.23987 -0.923813 0
M  V30 8705 O 829.209 4.01443 -0.143649 0
M  V30 8706 N 827.415 2.81293 -0.72956 0
M  V30 8707 H 826.962 2.18421 -1.36565 0
M  V30 8708 H 826.92 3.14315 0.0730351 0
M  V30 8709 N 830.692 1.47107 0.565454 0
M  V30 8710 C 831.922 1.56681 1.34664 0
M  V30 8711 C 832.33 0.213011 1.87997 0
M  V30 8712 O 831.673 -0.802629 1.65238 0
M  V30 8713 C 831.735 2.52528 2.55871 0
M  V30 8714 C 831.399 3.98403 2.23883 0
M  V30 8715 C 832.396 4.87125 1.81673 0
M  V30 8716 C 830.081 4.43674 2.35496 0
M  V30 8717 C 832.075 6.19135 1.51494 0
M  V30 8718 C 829.762 5.75714 2.0493 0
M  V30 8719 C 830.76 6.63266 1.62996 0
M  V30 8720 O 830.448 7.92853 1.32813 0
M  V30 8721 H 830.18 0.531967 0.417117 0
M  V30 8722 H 832.734 1.93368 0.692669 0
M  V30 8723 H 830.964 2.10893 3.24131 0
M  V30 8724 H 832.653 2.5232 3.17945 0
M  V30 8725 H 833.419 4.534 1.72201 0
M  V30 8726 H 829.298 3.7574 2.67096 0
M  V30 8727 H 832.842 6.87429 1.1869 0
M  V30 8728 H 828.739 6.08983 2.14031 0
M  V30 8729 H 829.507 8.0528 1.46513 0
M  V30 8730 N 832.17 -0.811516 1.35101 0
M  V30 8731 C 833.398 -1.59981 1.31201 0
M  V30 8732 C 833.813 -1.8847 -0.111552 0
M  V30 8733 O 833.17 -1.48414 -1.06205 0
M  V30 8734 C 833.221 -2.934 2.11184 0
M  V30 8735 O 832.942 -2.66148 3.4799 0
M  V30 8736 C 834.443 -3.87776 2.14813 0
M  V30 8737 H 831.663 -0.496921 0.450899 0
M  V30 8738 H 834.207 -1.00886 1.77883 0
M  V30 8739 H 832.362 -3.49022 1.68115 0
M  V30 8740 H 832.776 -3.51301 3.89471 0
M  V30 8741 H 834.25 -4.7852 2.75178 0
M  V30 8742 H 834.727 -4.23997 1.14556 0
M  V30 8743 H 835.333 -3.3809 2.58022 0
M  V30 8744 N 833.648 -1.19017 -1.03309 0
M  V30 8745 C 834.925 -0.899659 -1.73682 0
M  V30 8746 C 835.305 0.595677 -2.02521 0
M  V30 8747 O 834.653 1.55263 -1.67648 0
M  V30 8748 C 834.863 -1.75508 -3.01659 0
M  V30 8749 C 836.211 -1.98679 -3.75249 0
M  V30 8750 O 837.235 -1.72624 -3.11576 0
M  V30 8751 O 836.094 -2.42587 -4.89708 0
M  V30 8752 H 833.188 -0.334903 -0.756154 0
M  V30 8753 H 835.734 -1.29809 -1.09305 0
M  V30 8754 H 834.506 -2.7684 -2.76542 0
M  V30 8755 H 834.129 -1.35565 -3.73775 0
M  V30 8756 N 835.127 1.22348 -0.993418 0
M  V30 8757 C 836.037 2.27987 -0.553076 0
M  V30 8758 C 837.053 1.69378 0.398386 0
M  V30 8759 O 838.229 1.99648 0.26509 0
M  V30 8760 C 835.294 3.46475 0.124809 0
M  V30 8761 C 834.355 4.20399 -0.869682 0
M  V30 8762 C 833.588 5.33229 -0.224052 0
M  V30 8763 O 833.811 5.61885 0.981915 0
M  V30 8764 O 832.745 5.94685 -0.929174 0
M  V30 8765 H 836.571 2.67822 -1.43195 0
M  V30 8766 H 834.156 1.28525 -0.761694 0
M  V30 8767 H 836.038 4.18369 0.504496 0
M  V30 8768 H 834.713 3.08565 0.978243 0
M  V30 8769 H 833.62 3.50774 -1.30031 0
M  V30 8770 H 834.953 4.62191 -1.69233 0
M  V30 8771 N 836.605 0.766683 1.37694 0
M  V30 8772 C 837.515 0.150158 2.34119 0
M  V30 8773 C 838.531 -0.685513 1.59927 0
M  V30 8774 O 839.707 -0.606616 1.92047 0
M  V30 8775 C 836.772 -0.722562 3.39087 0
M  V30 8776 C 835.833 0.128983 4.29106 0
M  V30 8777 C 835.066 -0.702178 5.29061 0
M  V30 8778 O 835.289 -1.93954 5.36412 0
M  V30 8779 O 834.223 -0.114056 6.01792 0
M  V30 8780 H 838.049 0.946829 2.88563 0
M  V30 8781 H 835.634 0.527765 1.39768 0
M  V30 8782 H 837.516 -1.22095 4.03325 0
M  V30 8783 H 836.191 -1.49751 2.86978 0
M  V30 8784 H 835.098 0.673612 3.67985 0
M  V30 8785 H 836.431 0.866892 4.84506 0
M  V30 8786 N 838.083 -1.48885 0.516809 0
M  V30 8787 C 839.332 -2.01686 -0.0239899 0
M  V30 8788 C 839.645 -1.40029 -1.3657 0
M  V30 8789 O 840.851 -1.84249 -1.9941 0
M  V30 8790 C 839.307 -3.59779 -0.0931825 0
M  V30 8791 C 838.915 -4.30416 1.24283 0
M  V30 8792 C 840.659 -4.20471 -0.583507 0
M  V30 8793 C 838.566 -5.80408 1.13494 0
M  V30 8794 H 837.496 -0.753892 -0.0127376 0
M  V30 8795 H 840.147 -1.71273 0.65861 0
M  V30 8796 H 838.529 -3.86976 -0.840577 0
M  V30 8797 H 839.703 -4.14905 2.00476 0
M  V30 8798 H 838.018 -3.81539 1.66785 0
M  V30 8799 H 840.615 -5.30333 -0.681987 0
M  V30 8800 H 840.958 -3.84898 -1.58617 0
M  V30 8801 H 841.491 -3.97654 0.107814 0
M  V30 8802 H 838.23 -6.20532 2.11235 0
M  V30 8803 H 837.75 -5.98368 0.414167 0
M  V30 8804 H 839.429 -6.41781 0.820162 0
M  V30 8805 N 839.561 -0.251338 -1.55583 0
M  V30 8806 C 840.471 0.656978 -2.25213 0
M  V30 8807 C 841.487 1.18966 -1.26977 0
M  V30 8808 O 842.663 1.22499 -1.59862 0
M  V30 8809 C 839.728 1.83527 -2.94141 0
M  V30 8810 C 838.789 1.34162 -4.07798 0
M  V30 8811 C 838.022 2.46375 -4.73429 0
M  V30 8812 O 838.245 3.65205 -4.38157 0
M  V30 8813 O 837.179 2.15881 -5.61853 0
M  V30 8814 H 841.005 0.0936395 -3.03556 0
M  V30 8815 H 838.59 -0.0196638 -1.49387 0
M  V30 8816 H 840.472 2.52279 -3.3754 0
M  V30 8817 H 839.147 2.38614 -2.18735 0
M  V30 8818 H 838.054 0.621249 -3.68906 0
M  V30 8819 H 839.387 0.836779 -4.85035 0
M  V30 8820 N 841.039 1.57585 0.0217189 0
M  V30 8821 C 841.987 2.08134 1.03842 0
M  V30 8822 C 842.981 0.996662 1.36978 0
M  V30 8823 O 844.187 1.18149 1.35797 0
M  V30 8824 H 840.562 0.664298 0.352438 0
M  V30 8825 H 842.533 2.92583 0.58634 0
M  V30 8826 C 841.282 2.58218 2.32849 0
M  V30 8827 H 840.605 3.41302 2.08214 0
M  V30 8828 H 842.045 2.97289 3.02316 0
M  V30 8829 C 840.504 1.48664 3.02325 0
M  V30 8830 O 841.034 0.857075 3.9245 0
M  V30 8831 N 839.24 1.21938 2.63779 0
M  V30 8832 H 838.787 1.73319 1.90574 0
M  V30 8833 H 838.745 0.488523 3.10581 0
M  V30 8834 N 842.517 -0.29412 1.54831 0
M  V30 8835 C 843.467 -1.36476 1.82643 0
M  V30 8836 C 844.451 -1.45638 0.683984 0
M  V30 8837 O 845.643 -1.49675 0.944801 0
M  V30 8838 C 842.772 -2.72865 2.08326 0
M  V30 8839 C 841.858 -2.67898 3.28773 0
M  V30 8840 N 842.249 -2.32547 4.49172 0
M  V30 8841 C 840.547 -2.98991 3.30939 0
M  V30 8842 C 841.248 -2.37048 5.31209 0
M  V30 8843 N 840.224 -2.74679 4.69097 0
M  V30 8844 H 844.026 -1.08119 2.7329 0
M  V30 8845 H 841.54 -0.502718 1.54423 0
M  V30 8846 H 843.537 -3.5007 2.264 0
M  V30 8847 H 842.197 -3.02127 1.1895 0
M  V30 8848 H 843.208 -2.04883 4.7565 0
M  V30 8849 H 839.885 -3.33104 2.51691 0
M  V30 8850 H 841.275 -2.12457 6.37426 0
M  V30 8851 N 843.995 -1.47404 -0.557645 0
M  V30 8852 C 845.244 -1.53268 -1.31118 0
M  V30 8853 C 845.557 -0.199414 -1.94581 0
M  V30 8854 O 846.763 -0.136039 -2.71159 0
M  V30 8855 C 845.219 -2.70178 -2.37764 0
M  V30 8856 C 844.827 -4.10032 -1.80493 0
M  V30 8857 C 846.571 -2.85334 -3.14301 0
M  V30 8858 C 844.478 -5.18244 -2.84916 0
M  V30 8859 H 843.408 -0.570491 -0.493007 0
M  V30 8860 H 846.059 -1.73678 -0.592308 0
M  V30 8861 H 844.441 -2.43147 -3.12563 0
M  V30 8862 H 845.615 -4.46964 -1.12069 0
M  V30 8863 H 843.93 -3.99759 -1.16542 0
M  V30 8864 H 846.527 -3.63347 -3.92279 0
M  V30 8865 H 846.87 -1.93761 -3.68459 0
M  V30 8866 H 847.403 -3.12133 -2.46613 0
M  V30 8867 H 844.142 -6.11691 -2.35614 0
M  V30 8868 H 843.662 -4.85829 -3.51753 0
M  V30 8869 H 845.341 -5.45174 -3.48417 0
M  V30 8870 N 845.473 0.80434 -1.35529 0
M  V30 8871 C 846.42 1.91629 -1.28635 0
M  V30 8872 C 847.39 1.65348 -0.157862 0
M  V30 8873 O 848.575 1.87711 -0.341934 0
M  V30 8874 C 845.715 3.28207 -1.0665 0
M  V30 8875 C 844.828 3.66659 -2.28441 0
M  V30 8876 C 843.963 4.92279 -1.99588 0
M  V30 8877 C 843.002 5.23365 -3.1742 0
M  V30 8878 N 842.139 6.40165 -2.88328 0
M  V30 8879 H 846.979 1.96858 -2.23721 0
M  V30 8880 H 844.516 0.962871 -1.11208 0
M  V30 8881 H 846.474 4.06945 -0.919343 0
M  V30 8882 H 845.104 3.22441 -0.152253 0
M  V30 8883 H 844.156 2.83164 -2.54013 0
M  V30 8884 H 845.468 3.8559 -3.1642 0
M  V30 8885 H 844.622 5.78847 -1.81715 0
M  V30 8886 H 843.361 4.75387 -1.08896 0
M  V30 8887 H 842.366 4.35285 -3.35867 0
M  V30 8888 H 843.591 5.42185 -4.08916 0
M  V30 8889 H 841.537 6.24694 -2.00233 0
M  V30 8890 H 841.454 6.59357 -3.69843 0
M  V30 8891 H 842.722 7.29755 -2.74002 0
M  V30 8892 N 846.951 1.19563 1.02676 0
M  V30 8893 C 848.179 1.02488 1.79732 0
M  V30 8894 C 848.594 -0.426302 1.83924 0
M  V30 8895 O 847.951 -1.29609 1.28483 0
M  V30 8896 C 848.002 1.58944 3.24683 0
M  V30 8897 O 847.723 2.98382 3.2078 0
M  V30 8898 C 849.224 1.46681 4.1833 0
M  V30 8899 H 846.444 0.361098 0.565552 0
M  V30 8900 H 848.988 1.58426 1.29311 0
M  V30 8901 H 847.143 1.0715 3.72287 0
M  V30 8902 H 847.557 3.24983 4.11687 0
M  V30 8903 H 849.031 1.90959 5.17918 0
M  V30 8904 H 849.508 0.417663 4.3721 0
M  V30 8905 H 850.114 1.97616 3.76601 0
M  V30 8906 N 848.429 -1.21819 0.999893 0
M  V30 8907 C 849.654 -1.95298 0.698094 0
M  V30 8908 C 850.079 -1.73273 -0.731982 0
M  V30 8909 O 849.437 -1.01634 -1.50134 0
M  V30 8910 C 849.485 -3.45922 1.01834 0
M  V30 8911 O 848.589 -4.12223 0.120801 0
M  V30 8912 H 847.93 -0.610729 0.260588 0
M  V30 8913 H 850.46 -1.5472 1.33876 0
M  V30 8914 H 850.47 -3.96471 0.963074 0
M  V30 8915 H 849.145 -3.61278 2.06037 0
M  V30 8916 H 847.722 -3.72177 0.232153 0
M  V30 8917 N 849.908 -0.773975 -1.37286 0
M  V30 8918 C 850.84 -0.119938 -2.28886 0
M  V30 8919 C 851.853 0.661822 -1.48741 0
M  V30 8920 O 853.042 0.499548 -1.71367 0
M  V30 8921 C 850.142 0.853703 -3.27971 0
M  V30 8922 C 849.315 0.125286 -4.37221 0
M  V30 8923 C 848.374 1.01261 -5.16365 0
M  V30 8924 O 847.4 0.475565 -5.6721 0
M  V30 8925 N 848.602 2.33864 -5.31308 0
M  V30 8926 H 851.367 -0.906702 -2.85655 0
M  V30 8927 H 848.928 -0.626519 -1.49286 0
M  V30 8928 H 850.92 1.4508 -3.77801 0
M  V30 8929 H 849.49 1.54142 -2.71954 0
M  V30 8930 H 848.71 -0.652742 -3.88758 0
M  V30 8931 H 849.998 -0.377959 -5.07394 0
M  V30 8932 H 849.396 2.79929 -4.91585 0
M  V30 8933 H 847.953 2.88575 -5.84438 0
M  V30 8934 N 851.386 1.48609 -0.524698 0
M  V30 8935 C 852.633 2.02497 0.0113214 0
M  V30 8936 C 852.961 1.40229 1.34781 0
M  V30 8937 O 852.216 0.53557 1.88229 0
M  V30 8938 C 852.515 3.56906 0.187873 0
M  V30 8939 C 852.181 4.37932 -1.07359 0
M  V30 8940 C 850.843 4.59792 -1.41933 0
M  V30 8941 C 853.195 4.84902 -1.911 0
M  V30 8942 C 850.523 5.25868 -2.60154 0
M  V30 8943 C 852.875 5.52281 -3.08495 0
M  V30 8944 C 851.539 5.7238 -3.4342 0
M  V30 8945 H 850.809 0.740988 0.0041428 0
M  V30 8946 H 853.456 1.78651 -0.689652 0
M  V30 8947 H 851.761 3.79563 0.971572 0
M  V30 8948 H 853.458 3.96218 0.617443 0
M  V30 8949 H 850.048 4.21175 -0.794331 0
M  V30 8950 H 854.232 4.67821 -1.65701 0
M  V30 8951 H 849.488 5.39628 -2.87422 0
M  V30 8952 H 853.662 5.87645 -3.73692 0
M  V30 8953 H 851.289 6.23354 -4.35126 0
M  V30 8954 N 852.864 0.259585 1.55447 0
M  V30 8955 C 854.11 -0.362143 1.9954 0
M  V30 8956 C 854.443 -1.5666 1.14767 0
M  V30 8957 O 853.718 -1.93319 0.214025 0
M  V30 8958 C 854.001 -0.759588 3.51998 0
M  V30 8959 C 853.854 0.451134 4.47532 0
M  V30 8960 C 855.173 -1.60186 4.09913 0
M  V30 8961 H 852.292 -0.130157 0.725416 0
M  V30 8962 H 854.934 0.363431 1.86492 0
M  V30 8963 H 853.084 -1.3778 3.63248 0
M  V30 8964 H 854.756 1.08965 4.48246 0
M  V30 8965 H 852.999 1.092 4.19831 0
M  V30 8966 H 853.67 0.129518 5.51848 0
M  V30 8967 H 856.146 -1.0799 4.01842 0
M  V30 8968 H 855.022 -1.84879 5.16828 0
M  V30 8969 H 855.283 -2.57787 3.59163 0
M  V30 8970 N 854.342 -1.57594 -0.0133615 0
M  V30 8971 C 855.305 -2.06534 -0.993799 0
M  V30 8972 C 856.305 -0.972267 -1.28077 0
M  V30 8973 O 857.495 -1.23537 -1.22818 0
M  V30 8974 C 854.627 -2.49554 -2.3224 0
M  V30 8975 H 855.82 -2.94419 -0.570741 0
M  V30 8976 H 853.373 -1.54113 -0.260546 0
M  V30 8977 H 854.108 -1.64872 -2.79263 0
M  V30 8978 H 853.893 -3.29371 -2.12737 0
M  V30 8979 H 855.383 -2.8779 -3.026 0
M  V30 8980 N 855.82 0.285905 -1.54985 0
M  V30 8981 C 857.231 0.857869 -1.65824 0
M  V30 8982 C 857.582 1.87531 -0.576763 0
M  V30 8983 O 856.707 2.14528 0.284016 0
M  V30 8984 C 857.302 1.56277 -3.00604 0
M  V30 8985 C 855.861 2.08294 -3.13513 0
M  V30 8986 C 855.008 0.920633 -2.61571 0
M  V30 8987 H 857.959 0.0625463 -1.58577 0
M  V30 8988 H 857.98 2.42912 -2.92872 0
M  V30 8989 H 857.492 0.822017 -3.79295 0
M  V30 8990 H 855.593 2.8537 -2.39572 0
M  V30 8991 H 855.706 2.3071 -4.19892 0
M  V30 8992 H 854.07 1.31043 -2.18403 0
M  V30 8993 H 854.853 0.193594 -3.42754 0
M  V30 8994 N 857.298 1.47698 0.54982 0
M  V30 8995 C 858.575 1.45185 1.31075 0
M  V30 8996 C 858.955 0.152768 2.10547 0
M  V30 8997 O 858.303 -0.865706 2.11466 0
M  V30 8998 C 858.513 2.70192 2.20902 0
M  V30 8999 C 859.861 3.1771 2.81683 0
M  V30 9000 O 860.885 2.70971 2.312 0
M  V30 9001 O 859.744 3.98986 3.7346 0
M  V30 9002 H 856.838 0.57892 0.590577 0
M  V30 9003 H 859.384 1.59908 0.568112 0
M  V30 9004 H 858.156 3.56269 1.61828 0
M  V30 9005 H 857.779 2.58091 3.02448 0
M  V30 9006 N 858.776 -0.797141 1.35954 0
M  V30 9007 C 859.686 -1.94088 1.31784 0
M  V30 9008 C 860.702 -1.72588 0.221227 0
M  V30 9009 O 861.878 -1.96256 0.452255 0
M  V30 9010 C 858.943 -3.28828 1.09878 0
M  V30 9011 C 858.004 -3.63158 2.28942 0
M  V30 9012 C 857.237 -4.91469 2.08072 0
M  V30 9013 O 857.46 -5.60616 1.05196 0
M  V30 9014 O 856.394 -5.24277 2.95664 0
M  V30 9015 H 860.22 -2.00554 2.28061 0
M  V30 9016 H 857.805 -0.936288 1.16422 0
M  V30 9017 H 859.687 -4.09473 0.995485 0
M  V30 9018 H 858.362 -3.23271 0.16659 0
M  V30 9019 H 857.269 -2.82851 2.44839 0
M  V30 9020 H 858.602 -3.7343 3.20641 0
M  V30 9021 N 860.254 -1.20106 -1.0204 0
M  V30 9022 C 861.184 -0.970301 -2.12385 0
M  V30 9023 C 862.165 0.099378 -1.69809 0
M  V30 9024 O 863.35 -0.057365 -1.94115 0
M  V30 9025 C 860.48 -0.517431 -3.43424 0
M  V30 9026 C 859.434 -1.52992 -3.99722 0
M  V30 9027 C 858.76 -0.933817 -5.26483 0
M  V30 9028 C 860.06 -2.91257 -4.33551 0
M  V30 9029 H 861.754 -1.89316 -2.31948 0
M  V30 9030 H 859.3 -0.911655 -1.11467 0
M  V30 9031 H 861.253 -0.343243 -4.2 0
M  V30 9032 H 859.977 0.441049 -3.23608 0
M  V30 9033 H 858.636 -1.6914 -3.2525 0
M  V30 9034 H 858.284 0.0324763 -5.0299 0
M  V30 9035 H 857.984 -1.60999 -5.65113 0
M  V30 9036 H 859.508 -0.770614 -6.05718 0
M  V30 9037 H 860.922 -2.78642 -5.0103 0
M  V30 9038 H 859.319 -3.55745 -4.83286 0
M  V30 9039 H 860.389 -3.43269 -3.42483 0
M  V30 9040 N 861.732 1.21287 -1.00634 0
M  V30 9041 C 862.979 1.90389 -0.6898 0
M  V30 9042 C 863.307 1.78193 0.779574 0
M  V30 9043 O 862.562 1.15358 1.58085 0
M  V30 9044 C 862.861 3.41374 -1.05824 0
M  V30 9045 C 862.527 3.73766 -2.5221 0
M  V30 9046 C 861.189 3.82317 -2.92211 0
M  V30 9047 C 863.541 3.88871 -3.47028 0
M  V30 9048 C 860.869 4.03423 -4.2599 0
M  V30 9049 C 863.221 4.11484 -4.80483 0
M  V30 9050 C 861.885 4.18263 -5.20204 0
M  V30 9051 H 861.155 0.696683 -0.252416 0
M  V30 9052 H 863.802 1.43769 -1.26502 0
M  V30 9053 H 862.107 3.8974 -0.401281 0
M  V30 9054 H 863.804 3.93118 -0.79116 0
M  V30 9055 H 860.394 3.67702 -2.20212 0
M  V30 9056 H 864.578 3.8163 -3.17289 0
M  V30 9057 H 859.834 4.06902 -4.56334 0
M  V30 9058 H 864.008 4.22115 -5.53888 0
M  V30 9059 H 861.635 4.34369 -6.23881 0
M  V30 9060 N 863.21 0.781244 1.36873 0
M  V30 9061 C 864.173 0.180094 2.28491 0
M  V30 9062 C 865.173 -0.617798 1.48458 0
M  V30 9063 O 866.363 -0.439991 1.68552 0
M  V30 9064 C 863.495 -0.751741 3.32508 0
M  V30 9065 H 864.688 0.987837 2.83164 0
M  V30 9066 H 862.241 0.550102 1.463 0
M  V30 9067 H 862.976 -1.58413 2.82977 0
M  V30 9068 H 862.761 -0.181649 3.91679 0
M  V30 9069 H 864.251 -1.16748 4.00949 0
M  V30 9070 N 864.689 -1.48329 0.532571 0
M  V30 9071 C 865.937 -2.021 -0.000581206 0
M  V30 9072 C 866.258 -1.4117 -1.34522 0
M  V30 9073 O 865.528 -0.578005 -1.87179 0
M  V30 9074 H 864.108 -0.746993 -0.00320281 0
M  V30 9075 H 866.77 -1.82011 0.696991 0
M  V30 9076 H 865.866 -3.11917 -0.106991 0
M  V30 9077 N 866.167 -0.267825 -1.55308 0
M  V30 9078 C 867.397 0.354073 -2.03543 0
M  V30 9079 C 867.805 1.50554 -1.14586 0
M  V30 9080 O 867.148 1.83028 -0.156991 0
M  V30 9081 C 867.21 0.904148 -3.47945 0
M  V30 9082 C 866.874 -0.11775 -4.56848 0
M  V30 9083 C 867.871 -0.934707 -5.11429 0
M  V30 9084 C 865.556 -0.249885 -5.01678 0
M  V30 9085 C 867.55 -1.87005 -6.0935 0
M  V30 9086 C 865.237 -1.18872 -5.99427 0
M  V30 9087 C 866.235 -1.99731 -6.53144 0
M  V30 9088 O 865.923 -2.92028 -7.48983 0
M  V30 9089 H 865.655 0.0857765 -0.670536 0
M  V30 9090 H 868.209 -0.395515 -2.01556 0
M  V30 9091 H 866.439 1.70368 -3.47148 0
M  V30 9092 H 868.128 1.43835 -3.79561 0
M  V30 9093 H 868.894 -0.84332 -4.77612 0
M  V30 9094 H 864.773 0.369469 -4.59517 0
M  V30 9095 H 868.317 -2.5016 -6.51203 0
M  V30 9096 H 864.214 -1.28095 -6.32663 0
M  V30 9097 H 864.982 -2.86627 -7.66673 0
M  V30 9098 N 867.645 1.57599 0.00500368 0
M  V30 9099 C 868.873 1.94626 0.702016 0
M  V30 9100 C 869.288 0.86953 1.67585 0
M  V30 9101 O 868.645 -0.15199 1.81866 0
M  V30 9102 C 868.696 3.31658 1.43824 0
M  V30 9103 O 868.417 4.35197 0.503467 0
M  V30 9104 C 869.918 3.83114 2.23021 0
M  V30 9105 H 867.138 0.641785 0.195841 0
M  V30 9106 H 869.682 2.04451 -0.0446287 0
M  V30 9107 H 867.837 3.23156 2.13655 0
M  V30 9108 H 868.251 5.1444 1.02235 0
M  V30 9109 H 869.725 4.81438 2.7004 0
M  V30 9110 H 870.202 3.15559 3.05482 0
M  V30 9111 H 870.808 3.94775 1.58216 0
M  V30 9112 N 869.123 -0.277682 1.55134 0
M  V30 9113 C 870.539 -0.624625 1.46869 0
M  V30 9114 C 870.739 -1.89717 0.678958 0
M  V30 9115 O 869.795 -2.51739 0.195939 0
M  V30 9116 C 871.108 -0.755937 2.91043 0
M  V30 9117 C 872.656 -0.850299 3.01229 0
M  V30 9118 C 873.131 -1.01343 4.46647 0
M  V30 9119 N 874.622 -1.07906 4.50456 0
M  V30 9120 C 875.357 -1.224 5.60184 0
M  V30 9121 N 874.853 -1.33642 6.79788 0
M  V30 9122 N 876.646 -1.25473 5.47917 0
M  V30 9123 H 868.797 0.558102 2.04937 0
M  V30 9124 H 871.06 0.188228 0.929125 0
M  V30 9125 H 870.766 0.108593 3.51532 0
M  V30 9126 H 870.64 -1.6377 3.39793 0
M  V30 9127 H 873.027 -1.7053 2.40839 0
M  V30 9128 H 873.108 0.0559681 2.55739 0
M  V30 9129 H 872.752 -0.163102 5.07638 0
M  V30 9130 H 872.682 -1.93427 4.89789 0
M  V30 9131 H 875.173 -1.00477 3.64298 0
M  V30 9132 H 875.486 -1.44522 7.59166 0
M  V30 9133 H 873.831 -1.30655 6.82608 0
M  V30 9134 H 877.022 -1.16317 4.53418 0
M  V30 9135 H 877.195 -1.36424 6.33476 0
M  V30 9136 N 870.601 -1.47988 -0.541979 0
M  V30 9137 C 871.548 -1.61615 -1.6477 0
M  V30 9138 C 872.518 -0.458602 -1.59644 0
M  V30 9139 O 873.703 -0.680585 -1.78249 0
M  V30 9140 C 870.843 -1.65066 -3.03063 0
M  V30 9141 C 869.956 -2.91845 -3.18513 0
M  V30 9142 C 869.091 -2.86534 -4.47294 0
M  V30 9143 C 868.13 -4.0807 -4.5623 0
M  V30 9144 N 867.267 -4.00905 -5.76385 0
M  V30 9145 H 872.107 -2.56046 -1.52461 0
M  V30 9146 H 869.644 -1.26989 -0.742449 0
M  V30 9147 H 871.602 -1.65049 -3.83164 0
M  V30 9148 H 870.232 -0.74136 -3.14171 0
M  V30 9149 H 869.284 -3.01661 -2.31743 0
M  V30 9150 H 870.596 -3.81804 -3.20978 0
M  V30 9151 H 869.75 -2.84851 -5.35672 0
M  V30 9152 H 868.489 -1.94283 -4.47332 0
M  V30 9153 H 867.494 -4.10041 -3.66261 0
M  V30 9154 H 868.719 -5.01465 -4.5794 0
M  V30 9155 H 866.665 -3.11467 -5.77342 0
M  V30 9156 H 866.582 -4.84557 -5.80293 0
M  V30 9157 H 867.85 -4.03263 -6.67083 0
M  V30 9158 N 872.079 0.78992 -1.36375 0
M  V30 9159 C 873.309 1.57644 -1.33536 0
M  V30 9160 C 873.717 1.89007 0.0855075 0
M  V30 9161 O 873.06 1.50547 1.05267 0
M  V30 9162 C 873.122 2.92424 -2.09113 0
M  V30 9163 C 872.786 2.83793 -3.58205 0
M  V30 9164 C 873.783 2.56072 -4.52464 0
M  V30 9165 C 871.468 3.02386 -4.01084 0
M  V30 9166 C 873.462 2.47044 -5.87578 0
M  V30 9167 C 871.149 2.9298 -5.36289 0
M  V30 9168 C 872.147 2.65347 -6.29349 0
M  V30 9169 O 871.835 2.55935 -7.62071 0
M  V30 9170 H 871.567 0.495639 -0.459694 0
M  V30 9171 H 874.121 0.988354 -1.80058 0
M  V30 9172 H 872.351 3.53282 -1.57254 0
M  V30 9173 H 874.04 3.53693 -1.99139 0
M  V30 9174 H 874.806 2.4141 -4.2065 0
M  V30 9175 H 870.685 3.229 -3.29023 0
M  V30 9176 H 874.229 2.25396 -6.60184 0
M  V30 9177 H 870.126 3.07204 -5.67711 0
M  V30 9178 H 870.894 2.7142 -7.72187 0
M  V30 9179 N 873.557 1.20646 1.01402 0
M  V30 9180 C 874.782 1.04462 1.79172 0
M  V30 9181 C 875.207 -0.401588 1.83763 0
M  V30 9182 O 874.565 -1.28934 1.27459 0
M  V30 9183 C 874.613 1.63583 3.21361 0
M  V30 9184 O 873.717 0.875198 4.03006 0
M  V30 9185 H 873.058 0.368235 0.552539 0
M  V30 9186 H 875.588 1.59994 1.27526 0
M  V30 9187 H 875.598 1.67426 3.72065 0
M  V30 9188 H 874.273 2.68835 3.17334 0
M  V30 9189 H 872.85 0.911172 3.61597 0
M  V30 9190 N 875.035 -1.20752 1.01276 0
M  V30 9191 C 875.968 -2.22091 0.524472 0
M  V30 9192 C 876.946 -1.5692 -0.426017 0
M  V30 9193 O 878.13 -1.8528 -0.346919 0
M  V30 9194 C 875.257 -3.37868 -0.237224 0
M  V30 9195 C 874.303 -4.21327 0.662236 0
M  V30 9196 S 875.136 -4.91352 2.12916 0
M  V30 9197 C 876.292 -6.10553 1.37752 0
M  V30 9198 H 876.525 -2.63166 1.38315 0
M  V30 9199 H 874.058 -1.30742 0.821332 0
M  V30 9200 H 876.016 -4.04985 -0.670599 0
M  V30 9201 H 874.677 -2.95261 -1.07143 0
M  V30 9202 H 873.87 -5.03944 0.0751085 0
M  V30 9203 H 873.472 -3.59445 1.03322 0
M  V30 9204 H 875.764 -6.74322 0.655491 0
M  V30 9205 H 876.707 -6.73717 2.17969 0
M  V30 9206 H 877.115 -5.57566 0.882088 0
M  V30 9207 N 876.513 -0.788492 -1.36457 0
M  V30 9208 C 877.476 -0.192209 -2.28393 0
M  V30 9209 C 878.476 0.609916 -1.48784 0
M  V30 9210 O 879.666 0.431046 -1.68783 0
M  V30 9211 C 876.798 0.734096 -3.32902 0
M  V30 9212 H 877.991 -1.00284 -2.82636 0
M  V30 9213 H 875.544 -0.557852 -1.46006 0
M  V30 9214 H 876.279 1.5691 -2.83813 0
M  V30 9215 H 876.064 0.160875 -3.9177 0
M  V30 9216 H 877.554 1.1462 -4.01562 0
M  V30 9217 N 877.991 1.48044 -0.54043 0
M  V30 9218 C 879.237 2.02797 -0.0101718 0
M  V30 9219 C 879.57 1.41565 1.32939 0
M  V30 9220 O 878.845 0.565139 1.86109 0
M  V30 9221 C 879.128 3.59959 0.100758 0
M  V30 9222 C 878.981 4.31654 -1.26471 0
M  V30 9223 C 880.3 4.32347 0.822455 0
M  V30 9224 H 877.419 0.736982 -0.00517052 0
M  V30 9225 H 880.061 1.76656 -0.69948 0
M  V30 9226 H 878.211 3.82363 0.687824 0
M  V30 9227 H 879.883 4.20639 -1.89369 0
M  V30 9228 H 878.126 3.92663 -1.84386 0
M  V30 9229 H 878.797 5.401 -1.13998 0
M  V30 9230 H 881.273 4.14835 0.324164 0
M  V30 9231 H 880.149 5.41978 0.868993 0
M  V30 9232 H 880.41 4.00369 1.87501 0
M  V30 9233 N 879.47 0.276058 1.55163 0
M  V30 9234 C 880.716 -0.333945 2.0064 0
M  V30 9235 C 881.071 -1.53414 1.16111 0
M  V30 9236 O 880.364 -1.90293 0.22341 0
M  V30 9237 C 880.558 -0.765744 3.491 0
M  V30 9238 C 880.387 0.391068 4.47996 0
M  V30 9239 C 879.157 0.875151 4.97664 0
M  V30 9240 C 881.355 1.22786 4.99428 0
M  V30 9241 N 879.337 2.00133 5.80362 0
M  V30 9242 C 880.708 2.20192 5.79582 0
M  V30 9243 C 882.763 1.26109 4.81665 0
M  V30 9244 C 881.466 3.20667 6.43868 0
M  V30 9245 C 883.492 2.2543 5.4675 0
M  V30 9246 C 882.854 3.21568 6.26716 0
M  V30 9247 H 878.953 -0.087345 0.777107 0
M  V30 9248 H 881.537 0.400294 1.90541 0
M  V30 9249 H 879.708 -1.46921 3.5954 0
M  V30 9250 H 881.44 -1.35316 3.81407 0
M  V30 9251 H 878.195 0.454297 4.71416 0
M  V30 9252 H 878.619 2.56806 6.26402 0
M  V30 9253 H 883.261 0.531622 4.19444 0
M  V30 9254 H 880.979 3.94547 7.05236 0
M  V30 9255 H 884.565 2.28744 5.34946 0
M  V30 9256 H 883.445 3.97164 6.76188 0
M  V30 9257 N 880.948 -1.576 0.00335426 0
M  V30 9258 C 882.176 -1.94996 -0.691685 0
M  V30 9259 C 882.591 -0.878405 -1.67121 0
M  V30 9260 O 881.948 0.142343 -1.81944 0
M  V30 9261 C 881.999 -3.32416 -1.42063 0
M  V30 9262 O 881.72 -4.35458 -0.48038 0
M  V30 9263 C 883.221 -3.84291 -2.20987 0
M  V30 9264 H 880.441 -0.642814 -0.192434 0
M  V30 9265 H 882.985 -2.04425 0.0554706 0
M  V30 9266 H 881.14 -3.24285 -2.11939 0
M  V30 9267 H 881.554 -5.14975 -0.995054 0
M  V30 9268 H 883.028 -4.82863 -2.67483 0
M  V30 9269 H 883.505 -3.17174 -3.03805 0
M  V30 9270 H 884.111 -3.95609 -1.56121 0
M  V30 9271 N 882.426 0.269451 -1.5528 0
M  V30 9272 C 883.674 0.998604 -1.75705 0
M  V30 9273 C 883.995 1.86691 -0.563175 0
M  V30 9274 O 883.265 1.91305 0.421811 0
M  V30 9275 H 881.845 0.371698 -0.647958 0
M  V30 9276 H 884.507 0.292826 -1.92688 0
M  V30 9277 H 883.603 1.63348 -2.6594 0
M  V30 9278 N 883.904 1.48273 0.534124 0
M  V30 9279 C 885.134 1.59503 1.31311 0
M  V30 9280 C 885.542 0.25284 1.87503 0
M  V30 9281 O 884.885 -0.767399 1.66903 0
M  V30 9282 C 884.947 2.57899 2.50456 0
M  V30 9283 C 884.611 4.03063 2.15382 0
M  V30 9284 C 885.608 4.90869 1.713 0
M  V30 9285 C 883.293 4.4857 2.26032 0
M  V30 9286 C 885.287 6.22209 1.38328 0
M  V30 9287 C 882.974 5.79932 1.92672 0
M  V30 9288 C 883.972 6.66574 1.4889 0
M  V30 9289 O 883.66 7.95492 1.15966 0
M  V30 9290 H 883.392 0.540695 0.405739 0
M  V30 9291 H 885.946 1.94794 0.651497 0
M  V30 9292 H 884.176 2.1772 3.19585 0
M  V30 9293 H 885.865 2.59008 3.12522 0
M  V30 9294 H 886.631 4.56951 1.62545 0
M  V30 9295 H 882.51 3.81321 2.59066 0
M  V30 9296 H 886.054 6.89792 1.04082 0
M  V30 9297 H 881.951 6.13386 2.01066 0
M  V30 9298 H 882.719 8.08207 1.29399 0
M  V30 9299 N 885.382 -0.782676 1.36792 0
M  V30 9300 C 886.607 -1.57676 1.34733 0
M  V30 9301 C 887.032 -1.87979 -0.0675253 0
M  V30 9302 O 886.39 -1.48404 -1.04144 0
M  V30 9303 C 886.438 -2.87047 2.18257 0
M  V30 9304 O 885.542 -3.80946 1.57969 0
M  V30 9305 H 884.883 -0.478034 0.460846 0
M  V30 9306 H 887.413 -0.969578 1.80168 0
M  V30 9307 H 887.423 -3.36254 2.31079 0
M  V30 9308 H 886.098 -2.64319 3.21104 0
M  V30 9309 H 884.675 -3.39558 1.54126 0
M  V30 9310 N 886.86 -1.21182 -1.00761 0
M  V30 9311 C 887.808 -0.965728 -2.11604 0
M  V30 9312 C 888.802 0.0861028 -1.69181 0
M  V30 9313 O 890.008 -0.0650558 -1.79882 0
M  V30 9314 H 886.383 -0.295023 -0.691712 0
M  V30 9315 H 888.354 -1.90667 -2.2954 0
M  V30 9316 C 887.103 -0.544164 -3.43415 0
M  V30 9317 H 886.426 -1.34515 -3.76491 0
M  V30 9318 H 887.866 -0.411268 -4.22001 0
M  V30 9319 C 886.325 0.744583 -3.28569 0
M  V30 9320 O 886.855 1.80078 -3.59075 0
M  V30 9321 N 885.061 0.710083 -2.81791 0
M  V30 9322 H 884.608 -0.14971 -2.57165 0
M  V30 9323 H 884.566 1.57268 -2.72239 0
M  V30 9324 N 888.338 1.20213 -1.01915 0
M  V30 9325 C 889.754 1.41696 -0.734459 0
M  V30 9326 C 889.954 1.89504 0.684867 0
M  V30 9327 O 889.01 2.06556 1.45227 0
M  V30 9328 C 890.323 2.43644 -1.76233 0
M  V30 9329 C 891.871 2.57406 -1.78076 0
M  V30 9330 C 892.346 3.626 -2.79796 0
M  V30 9331 N 893.837 3.70086 -2.78551 0
M  V30 9332 C 894.572 4.51145 -3.53915 0
M  V30 9333 N 894.068 5.35988 -4.38963 0
M  V30 9334 N 895.861 4.45702 -3.425 0
M  V30 9335 H 888.012 0.874976 -1.93541 0
M  V30 9336 H 890.275 0.446647 -0.836188 0
M  V30 9337 H 889.981 2.15519 -2.77929 0
M  V30 9338 H 889.855 3.42672 -1.57657 0
M  V30 9339 H 892.242 2.8486 -0.770634 0
M  V30 9340 H 892.323 1.58565 -2.00725 0
M  V30 9341 H 891.967 3.35889 -3.80973 0
M  V30 9342 H 891.897 4.61069 -2.54407 0
M  V30 9343 H 894.388 3.09484 -2.1686 0
M  V30 9344 H 894.701 5.94932 -4.9323 0
M  V30 9345 H 893.046 5.35482 -4.4304 0
M  V30 9346 H 896.237 3.78456 -2.75478 0
M  V30 9347 H 896.41 5.08637 -4.01487 0
M  V30 9348 N 889.816 0.795718 1.36037 0
M  V30 9349 C 890.746 0.212803 2.32528 0
M  V30 9350 C 891.727 -0.655716 1.56953 0
M  V30 9351 O 892.912 -0.588238 1.85077 0
M  V30 9352 C 890.042 -0.648189 3.41198 0
M  V30 9353 C 888.996 0.120948 4.27829 0
M  V30 9354 C 888.322 -0.861044 5.27722 0
M  V30 9355 C 889.622 1.31375 5.05508 0
M  V30 9356 H 891.316 1.01893 2.81528 0
M  V30 9357 H 888.862 0.491422 1.35355 0
M  V30 9358 H 890.815 -1.06597 4.07695 0
M  V30 9359 H 889.539 -1.48709 2.9078 0
M  V30 9360 H 888.198 0.519777 3.62897 0
M  V30 9361 H 887.846 -1.69515 4.73575 0
M  V30 9362 H 887.546 -0.350808 5.86552 0
M  V30 9363 H 889.07 -1.27726 5.97092 0
M  V30 9364 H 890.484 0.971406 5.6501 0
M  V30 9365 H 888.881 1.75772 5.73781 0
M  V30 9366 H 889.951 2.10593 4.36782 0
M  V30 9367 N 891.294 -1.47756 0.548274 0
M  V30 9368 C 892.522 -2.06884 0.0254873 0
M  V30 9369 C 892.937 -1.40225 -1.26422 0
M  V30 9370 O 892.294 -0.495776 -1.75637 0
M  V30 9371 C 892.345 -3.61036 -0.183134 0
M  V30 9372 O 892.066 -4.25195 1.05549 0
M  V30 9373 C 893.567 -4.37008 -0.744222 0
M  V30 9374 H 890.787 -0.669697 0.041789 0
M  V30 9375 H 893.331 -1.89888 0.759138 0
M  V30 9376 H 891.486 -3.77576 -0.866886 0
M  V30 9377 H 891.9 -5.17606 0.847629 0
M  V30 9378 H 893.374 -5.45579 -0.839529 0
M  V30 9379 H 893.851 -4.0268 -1.75344 0
M  V30 9380 H 894.457 -4.25191 -0.0964542 0
M  V30 9381 N 892.772 -0.284283 -1.55015 0
M  V30 9382 C 894.183 0.211681 -1.85496 0
M  V30 9383 C 894.534 1.54735 -1.2063 0
M  V30 9384 O 893.659 2.10594 -0.497918 0
M  V30 9385 C 894.254 0.390864 -3.36538 0
M  V30 9386 C 892.813 0.831055 -3.67111 0
M  V30 9387 C 891.96 -0.0703581 -2.77211 0
M  V30 9388 H 894.911 -0.505803 -1.50424 0
M  V30 9389 H 894.932 1.22803 -3.60138 0
M  V30 9390 H 894.444 -0.581409 -3.8372 0
M  V30 9391 H 892.545 1.81447 -3.25434 0
M  V30 9392 H 892.658 0.662026 -4.74504 0
M  V30 9393 H 891.022 0.447528 -2.50737 0
M  V30 9394 H 891.805 -1.03868 -3.2721 0
M  V30 9395 N 894.251 1.57596 -0.0117121 0
M  V30 9396 C 895.181 2.12188 0.9746 0
M  V30 9397 C 896.162 1.03379 1.35081 0
M  V30 9398 O 897.347 1.31123 1.4325 0
M  V30 9399 C 894.477 2.63477 2.26268 0
M  V30 9400 C 893.431 3.76917 2.02774 0
M  V30 9401 C 892.757 4.14566 3.37697 0
M  V30 9402 C 894.057 5.03715 1.38089 0
M  V30 9403 H 895.751 2.9485 0.520007 0
M  V30 9404 H 893.297 1.41836 0.248685 0
M  V30 9405 H 895.25 3.00299 2.95633 0
M  V30 9406 H 893.974 1.77953 2.73862 0
M  V30 9407 H 892.633 3.40507 1.35832 0
M  V30 9408 H 892.281 3.26048 3.83016 0
M  V30 9409 H 891.981 4.91 3.22789 0
M  V30 9410 H 893.505 4.53956 4.08358 0
M  V30 9411 H 894.919 5.38233 1.97428 0
M  V30 9412 H 893.316 5.85032 1.33634 0
M  V30 9413 H 894.386 4.83624 0.351575 0
M  V30 9414 N 895.729 -0.261212 1.5542 0
M  V30 9415 C 896.975 -0.992699 1.76843 0
M  V30 9416 C 897.308 -1.8551 0.574428 0
M  V30 9417 O 896.583 -1.89739 -0.427713 0
M  V30 9418 C 896.866 -1.86532 3.08022 0
M  V30 9419 C 896.719 -1.03206 4.378 0
M  V30 9420 C 898.038 -2.85036 3.35324 0
M  V30 9421 H 895.157 -0.359473 0.643388 0
M  V30 9422 H 897.799 -0.264214 1.88154 0
M  V30 9423 H 895.949 -2.48644 2.9851 0
M  V30 9424 H 897.621 -0.430743 4.59285 0
M  V30 9425 H 895.864 -0.335911 4.32497 0
M  V30 9426 H 896.535 -1.6761 5.25938 0
M  V30 9427 H 899.011 -2.3306 3.44706 0
M  V30 9428 H 897.887 -3.43226 4.28354 0
M  V30 9429 H 898.148 -3.60768 2.55537 0
M  V30 9430 N 897.207 -1.48554 -0.526253 0
M  V30 9431 C 898.455 -1.56452 -1.27935 0
M  V30 9432 C 898.776 -0.24184 -1.93495 0
M  V30 9433 O 898.046 0.736917 -1.81511 0
M  V30 9434 H 896.626 -0.576379 -0.47518 0
M  V30 9435 H 899.288 -1.85039 -0.612083 0
M  V30 9436 H 898.384 -2.34751 -2.05666 0
M  V30 9437 N 898.685 0.775411 -1.37205 0
M  V30 9438 C 899.633 1.90996 -1.32752 0
M  V30 9439 C 900.627 1.68006 -0.216907 0
M  V30 9440 O 901.833 1.7584 -0.384723 0
M  V30 9441 H 898.208 0.62803 -0.413621 0
M  V30 9442 H 900.179 1.91869 -2.28536 0
M  V30 9443 C 898.928 3.28211 -1.14772 0
M  V30 9444 H 898.251 3.46477 -1.99484 0
M  V30 9445 H 899.691 4.07907 -1.15706 0
M  V30 9446 C 898.15 3.3658 0.146852 0
M  V30 9447 O 898.68 3.85428 1.13173 0
M  V30 9448 N 896.886 2.89936 0.196305 0
M  V30 9449 H 896.433 2.50375 -0.605807 0
M  V30 9450 H 896.391 2.95916 1.06212 0
M  V30 9451 N 900.163 1.21714 1.00117 0
M  V30 9452 C 901.411 1.03465 1.73607 0
M  V30 9453 C 901.732 -0.432295 1.90148 0
M  V30 9454 O 901.002 -1.31157 1.45515 0
M  V30 9455 H 899.582 0.379857 0.643209 0
M  V30 9456 H 902.244 1.53088 1.20624 0
M  V30 9457 H 901.34 1.50574 2.73375 0
M  V30 9458 N 901.641 -1.19671 1.02551 0
M  V30 9459 C 902.571 -2.25009 0.623965 0
M  V30 9460 C 903.552 -1.66129 -0.36538 0
M  V30 9461 O 904.737 -1.92599 -0.248842 0
M  V30 9462 C 901.867 -3.47287 -0.0294869 0
M  V30 9463 C 900.821 -4.18818 0.881781 0
M  V30 9464 C 900.147 -5.34618 0.0936189 0
M  V30 9465 C 901.447 -4.73986 2.19396 0
M  V30 9466 H 903.141 -2.58851 1.50454 0
M  V30 9467 H 900.687 -1.24425 0.724872 0
M  V30 9468 H 902.64 -4.20168 -0.322016 0
M  V30 9469 H 901.364 -3.12635 -0.944838 0
M  V30 9470 H 900.023 -3.47815 1.15845 0
M  V30 9471 H 899.671 -4.9621 -0.823661 0
M  V30 9472 H 899.371 -5.83409 0.700568 0
M  V30 9473 H 900.895 -6.10297 -0.192249 0
M  V30 9474 H 902.309 -5.38639 1.96319 0
M  V30 9475 H 900.706 -5.3325 2.75254 0
M  V30 9476 H 901.776 -3.92238 2.85092 0
M  V30 9477 N 903.119 -0.802921 -1.35613 0
M  V30 9478 C 904.347 -0.39393 -2.03115 0
M  V30 9479 C 904.762 0.993961 -1.60517 0
M  V30 9480 O 904.119 1.63984 -0.800973 0
M  V30 9481 C 904.17 -0.463486 -3.58516 0
M  V30 9482 O 903.891 -1.79666 -3.99565 0
M  V30 9483 C 905.392 -0.0468377 -4.43275 0
M  V30 9484 H 902.612 -0.160519 -0.651517 0
M  V30 9485 H 905.156 -1.08552 -1.73311 0
M  V30 9486 H 903.311 0.179821 -3.86982 0
M  V30 9487 H 903.725 -1.75688 -4.942 0
M  V30 9488 H 905.199 -0.146626 -5.51805 0
M  V30 9489 H 905.676 1.00741 -4.2749 0
M  V30 9490 H 906.282 -0.663158 -4.20098 0
M  V30 9491 N 904.597 1.47463 -0.556102 0
M  V30 9492 C 905.843 2.02775 -0.0316806 0
M  V30 9493 C 906.176 1.42967 1.3143 0
M  V30 9494 O 905.451 0.584847 1.85499 0
M  V30 9495 C 905.734 3.60046 0.0625742 0
M  V30 9496 C 905.587 4.30288 -1.31043 0
M  V30 9497 C 906.906 4.33195 0.776553 0
M  V30 9498 H 904.025 0.736886 -0.0129869 0
M  V30 9499 H 906.667 1.75904 -0.718177 0
M  V30 9500 H 904.817 3.83071 0.647231 0
M  V30 9501 H 906.489 4.18607 -1.9382 0
M  V30 9502 H 904.732 3.90685 -1.8854 0
M  V30 9503 H 905.403 5.38861 -1.1972 0
M  V30 9504 H 907.879 4.15156 0.280147 0
M  V30 9505 H 906.755 5.42869 0.81146 0
M  V30 9506 H 907.016 4.02336 1.83244 0
M  V30 9507 N 906.075 0.2925 1.54862 0
M  V30 9508 C 907.038 -0.574423 2.21885 0
M  V30 9509 C 908.038 -1.06791 1.20218 0
M  V30 9510 O 909.228 -0.9653 1.45009 0
M  V30 9511 C 906.36 -1.79438 2.89853 0
M  V30 9512 H 907.553 0.0110319 2.99898 0
M  V30 9513 H 905.106 0.043256 1.5624 0
M  V30 9514 H 905.841 -2.4199 2.15897 0
M  V30 9515 H 905.626 -1.44827 3.64373 0
M  V30 9516 H 907.116 -2.41048 3.41007 0
M  V30 9517 N 907.553 -1.57587 0.0200696 0
M  V30 9518 C 908.516 -2.08595 -0.949767 0
M  V30 9519 C 909.516 -0.999215 -1.25985 0
M  V30 9520 O 910.706 -1.26115 -1.2017 0
M  V30 9521 C 907.838 -2.54424 -2.26895 0
M  V30 9522 H 909.031 -2.95563 -0.508161 0
M  V30 9523 H 906.584 -1.54631 -0.227798 0
M  V30 9524 H 907.319 -1.70758 -2.75703 0
M  V30 9525 H 907.104 -3.3381 -2.05702 0
M  V30 9526 H 908.594 -2.94144 -2.96427 0
M  V30 9527 N 909.032 0.252966 -1.55557 0
M  V30 9528 C 909.979 1.3131 -1.89806 0
M  V30 9529 C 910.949 1.48121 -0.751633 0
M  V30 9530 O 912.134 1.62202 -1.00474 0
M  V30 9531 C 909.274 2.66467 -2.19293 0
M  V30 9532 C 908.387 2.57714 -3.46709 0
M  V30 9533 C 907.522 3.85184 -3.65796 0
M  V30 9534 C 906.561 3.71023 -4.86835 0
M  V30 9535 N 905.698 4.90371 -5.02474 0
M  V30 9536 H 910.538 1.01402 -2.80217 0
M  V30 9537 H 908.075 0.489462 -1.38718 0
M  V30 9538 H 910.033 3.45132 -2.34392 0
M  V30 9539 H 908.663 2.94536 -1.32093 0
M  V30 9540 H 907.715 1.70651 -3.39974 0
M  V30 9541 H 909.027 2.43158 -4.35517 0
M  V30 9542 H 908.181 4.72292 -3.80822 0
M  V30 9543 H 906.92 4.0263 -2.7521 0
M  V30 9544 H 905.925 2.82299 -4.71792 0
M  V30 9545 H 907.15 3.55078 -5.78875 0
M  V30 9546 H 905.096 5.0819 -4.14824 0
M  V30 9547 H 905.013 4.78423 -5.85361 0
M  V30 9548 H 906.281 5.78995 -5.21905 0
M  V30 9549 N 910.51 1.48831 0.518367 0
M  V30 9550 C 911.756 1.57672 1.27543 0
M  V30 9551 C 912.089 0.254915 1.9252 0
M  V30 9552 O 911.364 -0.740107 1.79868 0
M  V30 9553 C 911.647 2.72345 2.35585 0
M  V30 9554 C 911.5 4.14267 1.75224 0
M  V30 9555 C 912.819 2.82726 3.37274 0
M  V30 9556 H 909.938 0.573926 0.462361 0
M  V30 9557 H 912.58 1.8105 0.576267 0
M  V30 9558 H 910.73 2.52543 2.95219 0
M  V30 9559 H 912.402 4.45539 1.19551 0
M  V30 9560 H 910.645 4.20724 1.05706 0
M  V30 9561 H 911.316 4.90345 2.53507 0
M  V30 9562 H 913.792 3.00699 2.8761 0
M  V30 9563 H 912.668 3.6467 4.10252 0
M  V30 9564 H 912.929 1.9136 3.9854 0
M  V30 9565 N 911.988 -0.768124 1.37614 0
M  V30 9566 C 913.218 -1.555 1.36027 0
M  V30 9567 C 913.626 -1.89119 -0.0554273 0
M  V30 9568 O 912.969 -1.52203 -1.02859 0
M  V30 9569 C 913.031 -2.8906 2.13739 0
M  V30 9570 C 912.695 -2.78058 3.62674 0
M  V30 9571 C 913.692 -2.48841 4.5648 0
M  V30 9572 C 911.377 -2.95966 4.05844 0
M  V30 9573 C 913.371 -2.37665 5.91434 0
M  V30 9574 C 911.058 -2.84411 5.40882 0
M  V30 9575 C 912.056 -2.55301 6.33491 0
M  V30 9576 O 911.744 -2.43779 7.66046 0
M  V30 9577 H 911.476 -0.488263 0.467521 0
M  V30 9578 H 914.03 -0.959583 1.81607 0
M  V30 9579 H 912.26 -3.50735 1.62854 0
M  V30 9580 H 913.949 -3.5048 2.04741 0
M  V30 9581 H 914.715 -2.34687 4.24437 0
M  V30 9582 H 910.594 -3.17625 3.34119 0
M  V30 9583 H 914.138 -2.14865 6.63686 0
M  V30 9584 H 910.035 -2.98134 5.72527 0
M  V30 9585 H 910.803 -2.59101 7.76408 0
M  V30 9586 N 913.466 -1.22244 -0.994698 0
M  V30 9587 C 914.882 -0.982006 -1.25813 0
M  V30 9588 C 915.082 0.325488 -1.98854 0
M  V30 9589 O 914.138 1.04857 -2.29698 0
M  V30 9590 C 915.451 -2.1795 -2.07167 0
M  V30 9591 C 916.999 -2.22287 -2.20358 0
M  V30 9592 C 917.474 -3.41583 -3.05098 0
M  V30 9593 N 918.965 -3.41734 -3.12686 0
M  V30 9594 C 919.7 -4.30692 -3.78539 0
M  V30 9595 N 919.196 -5.29865 -4.46335 0
M  V30 9596 N 920.989 -4.18473 -3.75283 0
M  V30 9597 H 913.14 -2.0631 -0.504963 0
M  V30 9598 H 915.403 -0.90395 -0.285618 0
M  V30 9599 H 915.109 -3.12758 -1.60858 0
M  V30 9600 H 914.983 -2.17862 -3.07922 0
M  V30 9601 H 917.37 -1.28028 -2.65881 0
M  V30 9602 H 917.451 -2.26414 -1.19039 0
M  V30 9603 H 917.095 -4.36141 -2.60275 0
M  V30 9604 H 917.025 -3.34695 -4.06555 0
M  V30 9605 H 919.516 -2.69969 -2.64433 0
M  V30 9606 H 919.829 -5.94027 -4.9432 0
M  V30 9607 H 918.174 -5.3378 -4.45089 0
M  V30 9608 H 921.365 -3.40249 -3.21478 0
M  V30 9609 H 921.538 -4.88007 -4.26326 0
M  V30 9610 N 914.944 1.19125 -1.03184 0
M  V30 9611 C 916.169 1.93379 -0.749628 0
M  V30 9612 C 916.594 1.75153 0.685785 0
M  V30 9613 O 915.952 1.05579 1.47386 0
M  V30 9614 C 916 3.43101 -1.1097 0
M  V30 9615 O 915.104 4.11758 -0.230053 0
M  V30 9616 H 914.445 0.603605 -0.276689 0
M  V30 9617 H 916.975 1.51116 -1.37931 0
M  V30 9618 H 916.985 3.93778 -1.06785 0
M  V30 9619 H 915.66 3.55688 -2.15544 0
M  V30 9620 H 914.237 3.7143 -0.330748 0
M  V30 9621 N 916.422 0.810101 1.35185 0
M  V30 9622 C 917.355 0.168416 2.27578 0
M  V30 9623 C 918.333 -0.667664 1.4826 0
M  V30 9624 O 919.517 -0.634184 1.77512 0
M  V30 9625 C 916.644 -0.765994 3.29925 0
M  V30 9626 C 915.69 -0.00908802 4.26499 0
M  V30 9627 S 916.523 1.32936 5.18737 0
M  V30 9628 C 917.679 0.399485 6.24624 0
M  V30 9629 H 917.912 0.951753 2.81654 0
M  V30 9630 H 915.445 0.60534 1.42039 0
M  V30 9631 H 917.403 -1.2996 3.89385 0
M  V30 9632 H 916.064 -1.52275 2.7472 0
M  V30 9633 H 915.257 -0.718919 4.98846 0
M  V30 9634 H 914.859 0.454663 3.71226 0
M  V30 9635 H 917.151 -0.413904 6.76234 0
M  V30 9636 H 918.094 1.09225 6.99625 0
M  V30 9637 H 918.502 -0.00638358 5.645 0
M  V30 9638 N 917.9 -1.47166 0.563914 0
M  V30 9639 C 918.833 -2.27058 -0.227989 0
M  V30 9640 C 919.811 -1.34468 -0.914179 0
M  V30 9641 O 920.995 -1.63857 -0.931829 0
M  V30 9642 C 918.122 -3.11689 -1.32543 0
M  V30 9643 C 917.168 -4.19906 -0.747084 0
M  V30 9644 S 918.001 -5.33916 0.41153 0
M  V30 9645 C 919.157 -6.22112 -0.687566 0
M  V30 9646 H 919.39 -2.93876 0.449939 0
M  V30 9647 H 916.923 -1.50372 0.350382 0
M  V30 9648 H 918.881 -3.61017 -1.95389 0
M  V30 9649 H 917.542 -2.44221 -1.97522 0
M  V30 9650 H 916.735 -4.78876 -1.57141 0
M  V30 9651 H 916.337 -3.73493 -0.194671 0
M  V30 9652 H 918.629 -6.58867 -1.578 0
M  V30 9653 H 919.572 -7.07971 -0.135058 0
M  V30 9654 H 919.98 -5.55871 -0.983255 0
M  V30 9655 N 919.378 -0.300708 -1.54705 0
M  V30 9656 C 920.606 0.31127 -2.04545 0
M  V30 9657 C 921.021 1.47542 -1.178 0
M  V30 9658 O 920.378 1.81361 -0.203571 0
M  V30 9659 C 920.429 0.767783 -3.53253 0
M  V30 9660 O 920.15 -0.350027 -4.36699 0
M  V30 9661 C 921.651 1.44494 -4.1909 0
M  V30 9662 H 918.871 0.067668 -0.667579 0
M  V30 9663 H 921.415 -0.440254 -1.99705 0
M  V30 9664 H 919.57 1.46933 -3.58454 0
M  V30 9665 H 919.984 0.00534038 -5.245 0
M  V30 9666 H 921.458 1.71553 -5.24665 0
M  V30 9667 H 921.935 2.3849 -3.68808 0
M  V30 9668 H 922.541 0.786581 -4.17963 0
M  V30 9669 N 920.856 1.57574 -0.0284266 0
M  V30 9670 C 922.086 1.95787 0.659617 0
M  V30 9671 C 922.494 0.903475 1.66235 0
M  V30 9672 O 921.837 -0.12329 1.83286 0
M  V30 9673 C 921.899 3.30139 1.42298 0
M  V30 9674 C 921.563 4.53322 0.578658 0
M  V30 9675 C 922.56 5.19696 -0.145751 0
M  V30 9676 C 920.245 4.9964 0.516264 0
M  V30 9677 C 922.239 6.30708 -0.921235 0
M  V30 9678 C 919.926 6.10534 -0.262925 0
M  V30 9679 C 920.924 6.75927 -0.980382 0
M  V30 9680 O 920.612 7.84692 -1.7468 0
M  V30 9681 H 920.344 0.649681 0.186792 0
M  V30 9682 H 922.898 2.05227 -0.0842687 0
M  V30 9683 H 921.128 3.17188 2.21199 0
M  V30 9684 H 922.817 3.53259 1.99906 0
M  V30 9685 H 923.583 4.84882 -0.106876 0
M  V30 9686 H 919.462 4.48547 1.06427 0
M  V30 9687 H 923.006 6.81682 -1.48176 0
M  V30 9688 H 918.903 6.44786 -0.303519 0
M  V30 9689 H 919.671 8.01355 -1.6665 0
M  V30 9690 N 922.334 -0.244713 1.55689 0
M  V30 9691 C 923.264 -1.30667 1.93516 0
M  V30 9692 C 924.245 -1.50094 0.800371 0
M  V30 9693 O 925.43 -1.62665 1.06083 0
M  V30 9694 C 922.56 -2.66101 2.23176 0
M  V30 9695 C 921.514 -2.61366 3.38927 0
M  V30 9696 C 920.84 -4.00616 3.54134 0
M  V30 9697 C 922.14 -2.18161 4.74555 0
M  V30 9698 H 923.834 -0.992546 2.82469 0
M  V30 9699 H 921.38 -0.476018 1.35905 0
M  V30 9700 H 923.333 -3.4053 2.48228 0
M  V30 9701 H 922.057 -2.99154 1.31051 0
M  V30 9702 H 920.716 -1.89395 3.13887 0
M  V30 9703 H 920.364 -4.30938 2.59426 0
M  V30 9704 H 920.064 -3.98335 4.31975 0
M  V30 9705 H 921.588 -4.76741 3.8151 0
M  V30 9706 H 923.002 -2.82323 4.98965 0
M  V30 9707 H 921.399 -2.26988 5.55515 0
M  V30 9708 H 922.469 -1.13333 4.7147 0
M  V30 9709 N 923.813 -1.49104 -0.510467 0
M  V30 9710 C 925.038 -1.62068 -1.29417 0
M  V30 9711 C 925.463 -0.288432 -1.85875 0
M  V30 9712 O 924.821 0.742667 -1.65391 0
M  V30 9713 C 924.869 -2.68506 -2.40701 0
M  V30 9714 O 923.973 -2.27021 -3.4429 0
M  V30 9715 H 923.314 -0.542778 -0.382476 0
M  V30 9716 H 925.844 -1.95228 -0.612154 0
M  V30 9717 H 925.854 -2.90383 -2.86604 0
M  V30 9718 H 924.529 -3.65216 -1.98973 0
M  V30 9719 H 923.106 -2.15436 -3.04371 0
M  V30 9720 N 925.291 0.760815 -1.38019 0
M  V30 9721 C 926.201 1.90526 -1.36884 0
M  V30 9722 C 927.217 1.71941 -0.266908 0
M  V30 9723 O 928.393 1.94988 -0.50413 0
M  V30 9724 C 925.458 3.25799 -1.18558 0
M  V30 9725 C 924.519 3.56961 -2.3849 0
M  V30 9726 C 923.752 4.8578 -2.21029 0
M  V30 9727 O 923.975 5.57629 -1.20023 0
M  V30 9728 O 922.909 5.16254 -3.0946 0
M  V30 9729 H 926.735 1.94437 -2.33298 0
M  V30 9730 H 924.32 0.905091 -1.18863 0
M  V30 9731 H 926.202 4.0669 -1.1037 0
M  V30 9732 H 924.877 3.22716 -0.252241 0
M  V30 9733 H 923.784 2.7626 -2.52252 0
M  V30 9734 H 925.117 3.64798 -3.30429 0
M  V30 9735 N 926.769 1.22769 0.988202 0
M  V30 9736 C 928.017 1.05301 1.725 0
M  V30 9737 C 928.338 -0.412103 1.90596 0
M  V30 9738 O 927.608 -1.29606 1.46898 0
M  V30 9739 H 926.188 0.386658 0.639144 0
M  V30 9740 H 928.85 1.54359 1.18993 0
M  V30 9741 H 927.946 1.53465 2.71763 0
M  V30 9742 N 928.247 -1.18576 1.03814 0
M  V30 9743 C 929.472 -1.92978 0.759873 0
M  V30 9744 C 929.897 -1.75514 -0.676486 0
M  V30 9745 O 929.255 -1.06359 -1.46824 0
M  V30 9746 C 929.303 -3.42507 1.12788 0
M  V30 9747 O 928.407 -4.1163 0.251886 0
M  V30 9748 H 927.748 -0.602129 0.279886 0
M  V30 9749 H 930.278 -1.50383 1.3873 0
M  V30 9750 H 930.288 -3.93206 1.08872 0
M  V30 9751 H 928.963 -3.5454 2.17427 0
M  V30 9752 H 927.54 -3.7125 0.350441 0
M  V30 9753 N 929.725 -0.817259 -1.34754 0
M  V30 9754 C 930.673 -0.223352 -2.31525 0
M  V30 9755 C 931.667 0.632785 -1.57137 0
M  V30 9756 O 932.873 0.524757 -1.72181 0
M  V30 9757 H 929.248 -0.0534765 -0.750096 0
M  V30 9758 H 931.219 -1.05446 -2.79148 0
M  V30 9759 C 929.968 0.604784 -3.424 0
M  V30 9760 H 929.291 -0.0446664 -3.99775 0
M  V30 9761 H 930.731 0.986543 -4.12363 0
M  V30 9762 C 929.19 1.77478 -2.86362 0
M  V30 9763 O 929.72 2.87273 -2.8078 0
M  V30 9764 N 927.926 1.58971 -2.43263 0
M  V30 9765 H 927.473 0.696598 -2.48003 0
M  V30 9766 H 927.431 2.37408 -2.06119 0
M  V30 9767 N 931.203 1.46865 -0.571711 0
M  V30 9768 C 932.614 1.86158 -0.142181 0
M  V30 9769 C 932.965 1.47663 1.2919 0
M  V30 9770 O 932.09 0.886393 1.97413 0
M  V30 9771 C 932.685 3.37867 -0.251256 0
M  V30 9772 C 931.244 3.76198 0.123329 0
M  V30 9773 C 930.391 2.70902 -0.592232 0
M  V30 9774 H 933.342 1.38176 -0.780587 0
M  V30 9775 H 933.363 3.76842 0.526331 0
M  V30 9776 H 932.875 3.65853 -1.2951 0
M  V30 9777 H 930.976 3.53829 1.16773 0
M  V30 9778 H 931.089 4.78471 -0.24533 0
M  V30 9779 H 929.453 2.54678 -0.0336927 0
M  V30 9780 H 930.236 3.01729 -1.63751 0
M  V30 9781 N 932.681 0.308908 1.54543 0
M  V30 9782 C 933.591 -0.572939 2.27496 0
M  V30 9783 C 934.607 -1.14171 1.31305 0
M  V30 9784 O 935.783 -1.16481 1.64299 0
M  V30 9785 C 932.848 -1.72483 3.0075 0
M  V30 9786 C 931.909 -1.18934 4.12496 0
M  V30 9787 C 931.142 -2.28634 4.82247 0
M  V30 9788 O 931.365 -3.48691 4.5141 0
M  V30 9789 O 930.299 -1.94879 5.69478 0
M  V30 9790 H 934.125 0.0190877 3.03694 0
M  V30 9791 H 931.71 0.0750943 1.49211 0
M  V30 9792 H 933.592 -2.39578 3.46671 0
M  V30 9793 H 932.267 -2.30332 2.2744 0
M  V30 9794 H 931.174 -0.483904 3.70957 0
M  V30 9795 H 932.507 -0.656185 4.87806 0
M  V30 9796 N 934.159 -1.57557 0.0367827 0
M  V30 9797 C 935.436 -1.83427 -0.679261 0
M  V30 9798 C 935.816 -0.922274 -1.89888 0
M  V30 9799 O 935.164 0.02025 -2.28491 0
M  V30 9800 C 935.374 -3.32823 -1.05022 0
M  V30 9801 C 936.722 -3.99486 -1.43861 0
M  V30 9802 O 937.746 -3.37364 -1.14297 0
M  V30 9803 O 936.605 -5.0899 -1.98977 0
M  V30 9804 H 933.699 -0.756581 -0.333936 0
M  V30 9805 H 936.245 -1.69575 0.0650494 0
M  V30 9806 H 935.017 -3.90874 -0.182509 0
M  V30 9807 H 934.64 -3.5181 -1.85244 0
M  V30 9808 N 935.637 0.236453 -1.55816 0
M  V30 9809 C 936.883 0.960127 -1.79313 0
M  V30 9810 C 937.238 1.8256 -0.607406 0
M  V30 9811 O 936.531 1.87398 0.399046 0
M  V30 9812 C 936.725 1.84549 -3.06066 0
M  V30 9813 C 936.554 1.06721 -4.36853 0
M  V30 9814 C 935.324 0.76811 -4.99428 0
M  V30 9815 C 937.522 0.439715 -5.12417 0
M  V30 9816 N 935.504 -0.0331365 -6.13891 0
M  V30 9817 C 936.875 -0.225616 -6.19589 0
M  V30 9818 C 938.93 0.351237 -4.9666 0
M  V30 9819 C 937.633 -0.970943 -7.12717 0
M  V30 9820 C 939.659 -0.380585 -5.90174 0
M  V30 9821 C 939.021 -1.03451 -6.96762 0
M  V30 9822 H 935.12 0.332095 -0.707981 0
M  V30 9823 H 937.704 0.232311 -1.93309 0
M  V30 9824 H 935.875 2.54525 -2.93379 0
M  V30 9825 H 937.607 2.50552 -3.17814 0
M  V30 9826 H 934.362 1.08248 -4.61063 0
M  V30 9827 H 934.786 -0.422159 -6.75682 0
M  V30 9828 H 939.428 0.842469 -4.14321 0
M  V30 9829 H 937.146 -1.47374 -7.94548 0
M  V30 9830 H 940.732 -0.449851 -5.80058 0
M  V30 9831 H 939.612 -1.59175 -7.67876 0
M  V30 9832 N 937.115 1.49373 0.502552 0
M  V30 9833 C 938.063 1.66411 1.62512 0
M  V30 9834 C 939.057 0.530062 1.60893 0
M  V30 9835 O 940.263 0.709648 1.65421 0
M  V30 9836 H 936.638 0.524707 0.538689 0
M  V30 9837 H 938.609 2.60639 1.45293 0
M  V30 9838 C 937.358 1.74648 3.00655 0
M  V30 9839 H 936.681 2.61285 3.02606 0
M  V30 9840 H 938.121 1.90605 3.78742 0
M  V30 9841 C 936.58 0.490963 3.33303 0
M  V30 9842 O 937.11 -0.384039 3.9986 0
M  V30 9843 N 935.316 0.354375 2.88431 0
M  V30 9844 H 934.863 1.06742 2.34444 0
M  V30 9845 H 934.821 -0.484593 3.10643 0
M  V30 9846 N 938.594 -0.753485 1.38421 0
M  V30 9847 C 939.843 -1.50797 1.33952 0
M  V30 9848 C 940.156 -1.95482 -0.0678464 0
M  V30 9849 O 941.362 -2.7048 -0.235078 0
M  V30 9850 C 939.818 -2.72393 2.35224 0
M  V30 9851 C 939.426 -2.34733 3.81582 0
M  V30 9852 C 941.17 -3.50281 2.39798 0
M  V30 9853 C 939.077 -3.52939 4.7454 0
M  V30 9854 H 938.007 -0.566211 0.497916 0
M  V30 9855 H 940.658 -0.823659 1.63976 0
M  V30 9856 H 939.04 -3.42806 1.98243 0
M  V30 9857 H 940.214 -1.71985 4.27502 0
M  V30 9858 H 938.529 -1.69978 3.80127 0
M  V30 9859 H 941.126 -4.38172 3.06447 0
M  V30 9860 H 941.469 -3.91444 1.41695 0
M  V30 9861 H 942.002 -2.86881 2.75579 0
M  V30 9862 H 938.741 -3.16843 5.73839 0
M  V30 9863 H 938.261 -4.1473 4.33312 0
M  V30 9864 H 939.94 -4.19519 4.92557 0
M  V30 9865 N 940.072 -1.23292 -0.981677 0
M  V30 9866 C 941.483 -1.05936 -1.53735 0
M  V30 9867 C 941.834 0.373695 -1.92608 0
M  V30 9868 O 940.959 1.26024 -1.75917 0
M  V30 9869 C 941.554 -1.91682 -2.79363 0
M  V30 9870 C 940.113 -1.78591 -3.31334 0
M  V30 9871 C 939.26 -1.87463 -2.04335 0
M  V30 9872 H 942.211 -1.36973 -0.801505 0
M  V30 9873 H 942.232 -1.44085 -3.52164 0
M  V30 9874 H 941.744 -2.95975 -2.51039 0
M  V30 9875 H 939.845 -0.770755 -3.64541 0
M  V30 9876 H 939.958 -2.61902 -4.01179 0
M  V30 9877 H 938.322 -1.3103 -2.18411 0
M  V30 9878 H 939.105 -2.9331 -1.78394 0
M  V30 9879 N 941.55 1.18024 -1.04442 0
M  V30 9880 C 942.46 2.25436 -0.649276 0
M  V30 9881 C 943.476 1.70915 0.326189 0
M  V30 9882 O 944.652 2.00592 0.180174 0
M  V30 9883 C 941.717 3.46693 -0.0222558 0
M  V30 9884 C 940.778 4.16332 -1.0472 0
M  V30 9885 C 940.011 5.31799 -0.450011 0
M  V30 9886 O 940.234 5.65544 0.742717 0
M  V30 9887 O 939.168 5.90209 -1.18056 0
M  V30 9888 H 942.994 2.61508 -1.54426 0
M  V30 9889 H 940.579 1.25178 -0.81552 0
M  V30 9890 H 942.461 4.20132 0.326597 0
M  V30 9891 H 941.136 3.12436 0.84649 0
M  V30 9892 H 940.043 3.44944 -1.44792 0
M  V30 9893 H 941.376 4.54598 -1.88684 0
M  V30 9894 N 943.028 0.824394 1.34319 0
M  V30 9895 C 944.276 0.41235 1.97849 0
M  V30 9896 C 944.597 -1.02841 1.65677 0
M  V30 9897 O 943.867 -1.71421 0.948245 0
M  V30 9898 H 942.447 0.149486 0.73189 0
M  V30 9899 H 945.109 1.05416 1.63931 0
M  V30 9900 H 944.205 0.532557 3.07523 0
M  V30 9901 N 944.506 -1.46559 0.579492 0
M  V30 9902 C 945.436 -2.33059 -0.143437 0
M  V30 9903 C 946.417 -1.4515 -0.886868 0
M  V30 9904 O 947.602 -1.73973 -0.862961 0
M  V30 9905 C 944.732 -3.27364 -1.15973 0
M  V30 9906 C 943.686 -4.24689 -0.531348 0
M  V30 9907 C 943.012 -5.08479 -1.65388 0
M  V30 9908 C 944.312 -5.1961 0.529391 0
M  V30 9909 H 946.006 -2.93753 0.578762 0
M  V30 9910 H 943.552 -1.41256 0.279775 0
M  V30 9911 H 945.505 -3.86732 -1.67382 0
M  V30 9912 H 944.229 -2.64771 -1.91217 0
M  V30 9913 H 942.888 -3.6658 -0.0383749 0
M  V30 9914 H 942.536 -4.42273 -2.3959 0
M  V30 9915 H 942.236 -5.74387 -1.23909 0
M  V30 9916 H 943.76 -5.70709 -2.17079 0
M  V30 9917 H 945.174 -5.73212 0.100506 0
M  V30 9918 H 943.571 -5.93843 0.86432 0
M  V30 9919 H 944.641 -4.63737 1.4169 0
M  V30 9920 N 945.984 -0.3171 -1.54377 0
M  V30 9921 C 947.214 0.289138 -2.04567 0
M  V30 9922 C 947.622 1.46833 -1.19318 0
M  V30 9923 O 946.965 1.82436 -0.215141 0
M  V30 9924 C 947.027 0.792994 -3.50645 0
M  V30 9925 C 946.691 -0.263033 -4.56242 0
M  V30 9926 C 947.688 -1.09694 -5.08196 0
M  V30 9927 C 945.373 -0.409364 -5.00629 0
M  V30 9928 C 947.367 -2.06297 -6.03092 0
M  V30 9929 C 945.054 -1.37882 -5.95342 0
M  V30 9930 C 946.052 -2.20409 -6.46459 0
M  V30 9931 O 945.74 -3.15708 -7.39313 0
M  V30 9932 H 945.472 0.0644005 -0.672925 0
M  V30 9933 H 948.026 -0.459438 -2.00196 0
M  V30 9934 H 946.256 1.59237 -3.52392 0
M  V30 9935 H 947.945 1.31687 -3.83944 0
M  V30 9936 H 948.711 -0.994842 -4.74687 0
M  V30 9937 H 944.59 0.223091 -4.6046 0
M  V30 9938 H 948.134 -2.70751 -6.42915 0
M  V30 9939 H 944.031 -1.48158 -6.28267 0
M  V30 9940 H 944.799 -3.10873 -7.57166 0
M  V30 9941 N 947.462 1.57535 -0.0451378 0
M  V30 9942 C 948.878 1.56533 0.311373 0
M  V30 9943 C 949.078 1.05225 1.71843 0
M  V30 9944 O 948.134 0.706144 2.42425 0
M  V30 9945 C 949.447 3.00349 0.145348 0
M  V30 9946 C 950.995 3.12248 0.216908 0
M  V30 9947 C 951.47 4.57931 0.0794834 0
M  V30 9948 N 952.961 4.63 0.135954 0
M  V30 9949 C 953.696 5.73375 0.0536426 0
M  V30 9950 N 953.192 6.92753 -0.0806725 0
M  V30 9951 N 954.985 5.61995 0.108789 0
M  V30 9952 H 947.136 1.89211 -0.965044 0
M  V30 9953 H 949.399 0.871068 -0.374091 0
M  V30 9954 H 949.105 3.41898 -0.824533 0
M  V30 9955 H 948.979 3.66086 0.908903 0
M  V30 9956 H 951.366 2.70601 1.17726 0
M  V30 9957 H 951.447 2.49201 -0.577299 0
M  V30 9958 H 951.091 5.00262 -0.877516 0
M  V30 9959 H 951.021 5.18977 0.892758 0
M  V30 9960 H 953.512 3.77142 0.23926 0
M  V30 9961 H 953.825 7.7268 -0.136351 0
M  V30 9962 H 952.17 6.94904 -0.115675 0
M  V30 9963 H 955.361 4.67619 0.212235 0
M  V30 9964 H 955.534 6.47987 0.0411822 0
M  V30 9965 N 948.94 -0.228186 1.55939 0
M  V30 9966 C 949.888 -1.30239 1.92719 0
M  V30 9967 C 950.882 -1.48865 0.808424 0
M  V30 9968 O 952.088 -1.50118 0.993204 0
M  V30 9969 H 948.463 -0.436509 0.612343 0
M  V30 9970 H 950.434 -0.964965 2.82367 0
M  V30 9971 C 949.183 -2.647 2.25453 0
M  V30 9972 H 948.506 -2.51173 3.1105 0
M  V30 9973 H 949.946 -3.38691 2.55077 0
M  V30 9974 C 948.405 -3.1921 1.07734 0
M  V30 9975 O 948.935 -4.00301 0.335019 0
M  V30 9976 N 947.141 -2.77492 0.862938 0
M  V30 9977 H 946.688 -2.11657 1.4683 0
M  V30 9978 H 946.646 -3.14306 0.0770119 0
M  V30 9979 N 950.418 -1.49637 -0.494624 0
M  V30 9980 C 951.666 -1.5913 -1.24587 0
M  V30 9981 C 951.987 -0.282828 -1.92938 0
M  V30 9982 O 951.257 0.69825 -1.83034 0
M  V30 9983 H 949.837 -0.586329 -0.462847 0
M  V30 9984 H 952.499 -1.86296 -0.572696 0
M  V30 9985 H 951.595 -2.3906 -2.00641 0
M  V30 9986 N 951.896 0.746133 -1.38819 0
M  V30 9987 C 952.806 1.89063 -1.38897 0
M  V30 9988 C 953.822 1.71648 -0.28513 0
M  V30 9989 O 954.998 1.94443 -0.524783 0
M  V30 9990 C 952.063 3.24523 -1.22007 0
M  V30 9991 C 951.124 3.54411 -2.42263 0
M  V30 9992 C 950.357 4.83408 -2.26169 0
M  V30 9993 O 950.58 5.56325 -1.25931 0
M  V30 9994 O 949.514 5.12943 -3.14918 0
M  V30 9995 H 953.34 1.91951 -2.35347 0
M  V30 9996 H 950.925 0.892433 -1.19816 0
M  V30 9997 H 952.807 4.05496 -1.14677 0
M  V30 9998 H 951.482 3.2243 -0.286455 0
M  V30 9999 H 950.389 2.73569 -2.55168 0
M  V30 10000 H 951.722 3.61273 -3.3428 0
M  V30 10001 N 953.375 1.23811 0.975125 0
M  V30 10002 C 954.622 1.07336 1.71712 0
M  V30 10003 C 954.95 -0.388954 1.90571 0
M  V30 10004 O 954.205 -1.30409 1.45918 0
M  V30 10005 C 954.504 1.74994 3.11628 0
M  V30 10006 C 954.17 3.24918 3.12632 0
M  V30 10007 C 952.832 3.65822 3.12614 0
M  V30 10008 C 955.184 4.20797 3.07538 0
M  V30 10009 C 952.512 5.01054 3.05224 0
M  V30 10010 C 954.864 5.56027 3.0169 0
M  V30 10011 C 953.528 5.96287 2.99996 0
M  V30 10012 H 952.798 0.392771 0.62834 0
M  V30 10013 H 955.445 1.53815 1.14075 0
M  V30 10014 H 953.75 1.20889 3.72684 0
M  V30 10015 H 955.447 1.5972 3.67819 0
M  V30 10016 H 952.037 2.92359 3.13407 0
M  V30 10017 H 956.221 3.902 3.06688 0
M  V30 10018 H 951.477 5.31454 3.02268 0
M  V30 10019 H 955.651 6.3003 2.96706 0
M  V30 10020 H 953.278 7.01037 2.94025 0
M  V30 10021 N 954.853 -1.17469 1.05066 0
M  V30 10022 C 956.099 -1.87976 0.761113 0
M  V30 10023 C 956.432 -1.80756 -0.709995 0
M  V30 10024 O 955.707 -1.21469 -1.51906 0
M  V30 10025 C 955.99 -3.38055 1.2406 0
M  V30 10026 C 955.843 -3.54032 2.77455 0
M  V30 10027 C 957.162 -4.32036 0.838612 0
M  V30 10028 H 954.281 -0.682573 0.277963 0
M  V30 10029 H 956.923 -1.38147 1.30443 0
M  V30 10030 H 955.073 -3.80622 0.778388 0
M  V30 10031 H 956.745 -3.20489 3.3179 0
M  V30 10032 H 954.988 -2.96352 3.16793 0
M  V30 10033 H 955.659 -4.59377 3.06066 0
M  V30 10034 H 958.135 -3.97303 1.23651 0
M  V30 10035 H 957.011 -5.35583 1.20173 0
M  V30 10036 H 957.272 -4.41349 -0.257498 0
M  V30 10037 N 956.331 -0.831506 -1.3388 0
M  V30 10038 C 957.578 -0.423674 -1.98018 0
M  V30 10039 C 957.906 1.01533 -1.65895 0
M  V30 10040 O 957.161 1.72342 -0.927183 0
M  V30 10041 C 957.46 -0.582733 -3.52617 0
M  V30 10042 C 957.126 -1.98874 -4.04673 0
M  V30 10043 C 955.788 -2.37334 -4.186 0
M  V30 10044 C 958.14 -2.90745 -4.3257 0
M  V30 10045 C 955.468 -3.66984 -4.57755 0
M  V30 10046 C 957.82 -4.19868 -4.73174 0
M  V30 10047 C 956.484 -4.58294 -4.85307 0
M  V30 10048 H 955.754 -0.155033 -0.7246 0
M  V30 10049 H 958.401 -1.05711 -1.59679 0
M  V30 10050 H 956.706 0.134052 -3.91571 0
M  V30 10051 H 958.403 -0.247576 -4.00235 0
M  V30 10052 H 954.993 -1.68001 -3.94301 0
M  V30 10053 H 959.177 -2.62272 -4.2134 0
M  V30 10054 H 954.433 -3.9657 -4.65341 0
M  V30 10055 H 958.607 -4.91138 -4.93717 0
M  V30 10056 H 956.234 -5.58805 -5.15404 0
M  V30 10057 N 957.809 1.4625 -0.587256 0
M  V30 10058 C 958.756 2.30354 0.143384 0
M  V30 10059 C 959.726 1.40891 0.879716 0
M  V30 10060 O 960.911 1.69837 0.869486 0
M  V30 10061 C 958.051 3.25441 1.14815 0
M  V30 10062 C 957.164 4.30004 0.414792 0
M  V30 10063 C 956.299 5.12214 1.40748 0
M  V30 10064 C 955.338 6.08523 0.660786 0
M  V30 10065 N 954.475 6.83585 1.60176 0
M  V30 10066 H 959.315 2.92304 -0.579866 0
M  V30 10067 H 956.852 1.44055 -0.29777 0
M  V30 10068 H 958.81 3.79018 1.7436 0
M  V30 10069 H 957.44 2.6529 1.83906 0
M  V30 10070 H 956.492 3.79248 -0.295787 0
M  V30 10071 H 957.804 4.98515 -0.168738 0
M  V30 10072 H 956.958 5.70091 2.0756 0
M  V30 10073 H 955.697 4.43675 2.02494 0
M  V30 10074 H 954.702 5.49796 -0.0210864 0
M  V30 10075 H 955.927 6.79083 0.0486551 0
M  V30 10076 H 953.873 6.17752 2.20724 0
M  V30 10077 H 953.79 7.48373 1.07115 0
M  V30 10078 H 955.058 7.46016 2.26009 0
M  V30 10079 N 959.287 0.325282 1.54207 0
M  V30 10080 C 960.235 -0.5554 2.25872 0
M  V30 10081 C 961.229 -1.11714 1.27344 0
M  V30 10082 O 962.435 -1.06498 1.45115 0
M  V30 10083 H 958.81 -0.19776 0.725531 0
M  V30 10084 H 960.781 0.0712858 2.98315 0
M  V30 10085 C 959.53 -1.70379 3.03095 0
M  V30 10086 H 958.853 -1.2808 3.78729 0
M  V30 10087 H 960.293 -2.29556 3.56483 0
M  V30 10088 C 958.752 -2.62242 2.11496 0
M  V30 10089 O 959.282 -3.64003 1.69895 0
M  V30 10090 N 957.488 -2.30515 1.7695 0
M  V30 10091 H 957.035 -1.47805 2.10978 0
M  V30 10092 H 956.993 -2.92241 1.15942 0
M  V30 10093 N 960.765 -1.57509 0.0534917 0
M  V30 10094 C 962.013 -1.92402 -0.618548 0
M  V30 10095 C 962.334 -0.93273 -1.71246 0
M  V30 10096 O 961.604 0.0220495 -1.95888 0
M  V30 10097 H 960.184 -0.710233 -0.23147 0
M  V30 10098 H 962.846 -1.94606 0.10704 0
M  V30 10099 H 961.942 -2.93704 -1.05566 0
M  V30 10100 N 962.243 0.219913 -1.56058 0
M  V30 10101 C 963.206 1.25606 -1.91718 0
M  V30 10102 C 964.206 1.39721 -0.795912 0
M  V30 10103 O 965.396 1.37958 -1.06364 0
M  V30 10104 C 962.528 2.62961 -2.16943 0
M  V30 10105 H 963.721 0.951909 -2.84392 0
M  V30 10106 H 961.274 0.460398 -1.49365 0
M  V30 10107 H 962.009 2.98472 -1.26826 0
M  V30 10108 H 961.794 2.54093 -2.98629 0
M  V30 10109 H 963.284 3.37727 -2.45622 0
M  V30 10110 N 963.721 1.49897 0.486681 0
M  V30 10111 C 965.137 1.36977 0.819109 0
M  V30 10112 C 965.337 0.41385 1.97204 0
M  V30 10113 O 964.393 -0.149249 2.52059 0
M  V30 10114 C 965.706 2.78013 1.14584 0
M  V30 10115 C 967.254 2.86816 1.25321 0
M  V30 10116 C 967.729 4.28651 1.61316 0
M  V30 10117 N 969.22 4.31528 1.68337 0
M  V30 10118 C 969.955 5.38254 1.97662 0
M  V30 10119 N 969.451 6.55207 2.25113 0
M  V30 10120 N 971.244 5.25683 1.99033 0
M  V30 10121 H 963.395 2.10634 -0.273364 0
M  V30 10122 H 965.658 0.946116 -0.0597418 0
M  V30 10123 H 965.364 3.49728 0.371892 0
M  V30 10124 H 965.238 3.1428 2.08585 0
M  V30 10125 H 967.625 2.15329 2.01785 0
M  V30 10126 H 967.706 2.54112 0.293368 0
M  V30 10127 H 967.35 5.00669 0.853968 0
M  V30 10128 H 967.28 4.5883 2.58424 0
M  V30 10129 H 969.771 3.47189 1.49226 0
M  V30 10130 H 970.084 7.32359 2.46717 0
M  V30 10131 H 968.429 6.58408 2.22538 0
M  V30 10132 H 971.62 4.33316 1.77074 0
M  V30 10133 H 971.793 6.08949 2.21552 0
M  V30 10134 N 965.199 -0.738761 1.39212 0
M  V30 10135 C 966.424 -1.5331 1.39681 0
M  V30 10136 C 966.849 -1.88098 -0.00768715 0
M  V30 10137 O 966.207 -1.51642 -0.993699 0
M  V30 10138 C 966.255 -2.79958 2.27279 0
M  V30 10139 O 965.359 -3.75727 1.70008 0
M  V30 10140 H 964.7 -0.463131 0.475821 0
M  V30 10141 H 967.23 -0.911768 1.83161 0
M  V30 10142 H 967.24 -3.28732 2.41659 0
M  V30 10143 H 965.915 -2.5397 3.29351 0
M  V30 10144 H 964.492 -3.34483 1.64851 0
M  V30 10145 N 966.677 -1.24326 -0.968545 0
M  V30 10146 C 967.905 -1.10947 -1.74638 0
M  V30 10147 C 968.32 0.338064 -1.85749 0
M  V30 10148 O 967.677 1.23331 -1.3452 0
M  V30 10149 C 967.728 -1.74254 -3.1673 0
M  V30 10150 O 967.449 -3.13347 -3.06178 0
M  V30 10151 C 968.95 -1.66473 -4.10855 0
M  V30 10152 H 966.17 -0.38767 -0.547679 0
M  V30 10153 H 968.714 -1.64415 -1.21605 0
M  V30 10154 H 966.869 -1.2479 -3.66751 0
M  V30 10155 H 967.283 -3.44255 -3.95713 0
M  V30 10156 H 968.757 -2.15452 -5.08217 0
M  V30 10157 H 969.234 -0.625785 -4.34719 0
M  V30 10158 H 969.84 -2.15359 -3.66743 0
M  V30 10159 N 968.156 1.1691 -1.05688 0
M  V30 10160 C 969.402 1.87814 -0.780871 0
M  V30 10161 C 969.757 1.79796 0.684926 0
M  V30 10162 O 969.05 1.19853 1.49485 0
M  V30 10163 C 969.244 3.36578 -1.20207 0
M  V30 10164 C 969.073 3.59078 -2.70727 0
M  V30 10165 C 967.843 3.75515 -3.38107 0
M  V30 10166 C 970.041 3.58307 -3.68946 0
M  V30 10167 N 968.023 3.85906 -4.77441 0
M  V30 10168 C 969.394 3.74608 -4.94033 0
M  V30 10169 C 971.449 3.41484 -3.62343 0
M  V30 10170 C 970.152 3.75828 -6.13307 0
M  V30 10171 C 972.178 3.43995 -4.81063 0
M  V30 10172 C 971.54 3.60809 -6.04976 0
M  V30 10173 H 967.639 0.705158 -0.338047 0
M  V30 10174 H 970.223 1.40315 -1.34981 0
M  V30 10175 H 968.394 3.82734 -0.661031 0
M  V30 10176 H 970.126 3.95119 -0.875377 0
M  V30 10177 H 966.881 3.7558 -2.88508 0
M  V30 10178 H 967.305 3.94886 -5.49904 0
M  V30 10179 H 971.947 3.27417 -2.67503 0
M  V30 10180 H 969.665 3.88679 -7.08487 0
M  V30 10181 H 973.251 3.3223 -4.77613 0
M  V30 10182 H 972.131 3.62663 -6.95302 0
M  V30 10183 N 969.634 0.838594 1.33437 0
M  V30 10184 C 970.582 0.260158 2.31141 0
M  V30 10185 C 971.576 -0.607706 1.58124 0
M  V30 10186 O 972.782 -0.497298 1.72994 0
M  V30 10187 H 969.157 0.0654031 0.74915 0
M  V30 10188 H 971.128 1.09874 2.77435 0
M  V30 10189 C 969.877 -0.550234 3.43319 0
M  V30 10190 H 969.2 0.108262 3.99653 0
M  V30 10191 H 970.64 -0.920815 4.1388 0
M  V30 10192 C 969.099 -1.729 2.89149 0
M  V30 10193 O 969.629 -2.82769 2.85315 0
M  V30 10194 N 967.835 -1.5508 2.45761 0
M  V30 10195 H 967.382 -0.657055 2.49079 0
M  V30 10196 H 967.34 -2.34099 2.0987 0
M  V30 10197 N 971.112 -1.45937 0.595003 0
M  V30 10198 C 972.337 -2.07207 0.0894416 0
M  V30 10199 C 972.762 -1.43884 -1.21157 0
M  V30 10200 O 972.12 -0.526998 -1.73472 0
M  V30 10201 C 972.168 -3.60565 -0.0499828 0
M  V30 10202 O 971.272 -3.97364 -1.10342 0
M  V30 10203 H 970.613 -0.660471 0.0683627 0
M  V30 10204 H 973.143 -1.87386 0.82144 0
M  V30 10205 H 973.153 -4.0722 -0.252234 0
M  V30 10206 H 971.828 -4.06044 0.90006 0
M  V30 10207 H 970.405 -3.62401 -0.878645 0
M  V30 10208 N 972.59 -0.333456 -1.54032 0
M  V30 10209 C 974.001 0.15256 -1.86076 0
M  V30 10210 C 974.352 1.50819 -1.25492 0
M  V30 10211 O 973.477 2.08903 -0.564665 0
M  V30 10212 C 974.072 0.283599 -3.37611 0
M  V30 10213 C 972.631 0.713841 -3.69569 0
M  V30 10214 C 971.778 -0.158515 -2.76847 0
M  V30 10215 H 974.729 -0.553404 -1.48738 0
M  V30 10216 H 974.75 1.11284 -3.63863 0
M  V30 10217 H 974.262 -0.703193 -3.81676 0
M  V30 10218 H 972.363 1.71002 -3.31042 0
M  V30 10219 H 972.476 0.510731 -4.7637 0
M  V30 10220 H 970.84 0.367531 -2.52034 0
M  V30 10221 H 971.623 -1.14226 -3.2374 0
M  V30 10222 N 974.068 1.57479 -0.061844 0
M  V30 10223 C 975.031 2.1104 0.894127 0
M  V30 10224 C 976.031 1.03227 1.23292 0
M  V30 10225 O 977.221 1.29256 1.16784 0
M  V30 10226 C 974.353 2.6035 2.20069 0
M  V30 10227 H 975.546 2.96807 0.429619 0
M  V30 10228 H 973.099 1.55181 0.18672 0
M  V30 10229 H 973.834 1.78008 2.71079 0
M  V30 10230 H 973.619 3.39146 1.9678 0
M  V30 10231 H 975.109 3.019 2.88525 0
M  V30 10232 N 975.546 -0.211634 1.56173 0
M  V30 10233 C 976.957 -0.777776 1.69728 0
M  V30 10234 C 977.308 -1.84566 0.66558 0
M  V30 10235 O 976.433 -2.15639 -0.181338 0
M  V30 10236 C 977.028 -1.41757 3.07718 0
M  V30 10237 C 975.587 -1.93098 3.23094 0
M  V30 10238 C 974.734 -0.794785 2.65666 0
M  V30 10239 H 977.685 0.0131839 1.58695 0
M  V30 10240 H 977.706 -2.28662 3.04128 0
M  V30 10241 H 977.218 -0.640114 3.82785 0
M  V30 10242 H 975.319 -2.73615 2.52914 0
M  V30 10243 H 975.432 -2.10414 4.30422 0
M  V30 10244 H 973.796 -1.20473 2.24407 0
M  V30 10245 H 974.579 -0.0298408 3.43287 0
M  V30 10246 N 977.024 -1.50153 -0.478725 0
M  V30 10247 C 977.956 -1.64603 -1.59494 0
M  V30 10248 C 978.969 -0.527789 -1.54007 0
M  V30 10249 O 980.158 -0.80069 -1.59534 0
M  V30 10250 C 977.258 -1.60738 -2.98356 0
M  V30 10251 C 976.431 -2.88468 -3.28794 0
M  V30 10252 C 975.49 -2.77349 -4.47173 0
M  V30 10253 O 974.516 -3.51302 -4.47857 0
M  V30 10254 N 975.718 -1.9039 -5.4839 0
M  V30 10255 H 978.483 -2.6088 -1.47518 0
M  V30 10256 H 976.044 -1.47521 -0.667011 0
M  V30 10257 H 978.036 -1.50923 -3.75505 0
M  V30 10258 H 976.606 -0.722273 -3.04141 0
M  V30 10259 H 975.826 -3.12467 -2.40329 0
M  V30 10260 H 977.114 -3.73102 -3.45937 0
M  V30 10261 H 976.512 -1.29606 -5.50653 0
M  V30 10262 H 975.069 -1.86484 -6.24553 0
M  V30 10263 N 978.502 0.731368 -1.39602 0
M  V30 10264 C 979.434 1.85575 -1.34516 0
M  V30 10265 C 980.447 1.60818 -0.253287 0
M  V30 10266 O 981.636 1.70984 -0.512505 0
M  V30 10267 C 978.736 3.21673 -1.06676 0
M  V30 10268 C 977.909 3.73757 -2.27211 0
M  V30 10269 C 976.968 4.88426 -1.95773 0
M  V30 10270 O 975.994 5.01898 -2.68491 0
M  V30 10271 N 977.196 5.73065 -0.926083 0
M  V30 10272 H 979.961 1.90442 -2.31413 0
M  V30 10273 H 977.522 0.912258 -1.33752 0
M  V30 10274 H 979.514 3.95959 -0.836577 0
M  V30 10275 H 978.084 3.12052 -0.185003 0
M  V30 10276 H 977.304 2.90781 -2.66158 0
M  V30 10277 H 978.592 4.05289 -3.07601 0
M  V30 10278 H 977.99 5.64774 -0.323497 0
M  V30 10279 H 976.547 6.47403 -0.755795 0
M  V30 10280 N 979.98 1.24838 0.961938 0
M  V30 10281 C 981.391 1.08369 1.5203 0
M  V30 10282 C 981.742 -0.343005 1.93178 0
M  V30 10283 O 980.867 -1.2321 1.779 0
M  V30 10284 C 981.462 1.96102 2.76278 0
M  V30 10285 C 980.021 1.8384 3.28451 0
M  V30 10286 C 979.168 1.9069 2.01327 0
M  V30 10287 H 982.119 1.38231 0.779613 0
M  V30 10288 H 982.14 1.4967 3.49827 0
M  V30 10289 H 981.652 2.99931 2.46298 0
M  V30 10290 H 979.753 0.828653 3.63269 0
M  V30 10291 H 979.866 2.68251 3.96961 0
M  V30 10292 H 978.23 1.34488 2.16299 0
M  V30 10293 H 979.013 2.96111 1.73705 0
M  V30 10294 N 981.458 -1.16348 1.06306 0
M  V30 10295 C 982.869 -1.68491 0.80422 0
M  V30 10296 C 983.22 -1.84327 -0.672159 0
M  V30 10297 O 982.345 -1.53892 -1.52139 0
M  V30 10298 C 982.94 -3.06048 1.45328 0
M  V30 10299 C 981.499 -3.55311 1.24221 0
M  V30 10300 C 980.646 -2.31291 1.5297 0
M  V30 10301 H 983.597 -1.00708 1.22652 0
M  V30 10302 H 983.618 -3.70451 0.868674 0
M  V30 10303 H 983.13 -2.9449 2.52779 0
M  V30 10304 H 981.231 -3.72128 0.187447 0
M  V30 10305 H 981.344 -4.37397 1.95502 0
M  V30 10306 H 979.708 -2.3631 0.950241 0
M  V30 10307 H 980.491 -2.22331 2.6158 0
M  V30 10308 N 982.937 -0.845659 -1.3299 0
M  V30 10309 C 984.162 -0.457435 -2.02293 0
M  V30 10310 C 984.587 0.935634 -1.63179 0
M  V30 10311 O 983.945 1.61297 -0.827835 0
M  V30 10312 C 983.993 -0.593665 -3.5568 0
M  V30 10313 O 983.097 0.37729 -4.10671 0
M  V30 10314 H 982.438 -0.185022 -0.637701 0
M  V30 10315 H 984.968 -1.14237 -1.69738 0
M  V30 10316 H 984.978 -0.477834 -4.05192 0
M  V30 10317 H 983.653 -1.60957 -3.83491 0
M  V30 10318 H 982.23 0.218448 -3.7226 0
M  V30 10319 N 984.415 1.45619 -0.602734 0
M  V30 10320 C 985.643 2.06647 -0.102253 0
M  V30 10321 C 986.058 1.4482 1.21131 0
M  V30 10322 O 985.415 0.560621 1.73676 0
M  V30 10323 C 985.466 3.61467 0.0490113 0
M  V30 10324 O 985.187 4.20985 -1.21257 0
M  V30 10325 C 986.688 4.39469 0.581517 0
M  V30 10326 H 983.908 0.667685 -0.0666155 0
M  V30 10327 H 986.452 1.86939 -0.829091 0
M  V30 10328 H 984.607 3.80534 0.726153 0
M  V30 10329 H 985.021 5.14103 -1.03915 0
M  V30 10330 H 986.495 5.48318 0.636462 0
M  V30 10331 H 986.972 4.0891 1.60277 0
M  V30 10332 H 987.578 4.25256 -0.061419 0
M  V30 10333 N 985.893 0.34162 1.53853 0
M  V30 10334 C 986.803 -0.524555 2.2866 0
M  V30 10335 C 987.819 -1.1136 1.33697 0
M  V30 10336 O 988.995 -1.1297 1.66732 0
M  V30 10337 C 986.06 -1.66065 3.04341 0
M  V30 10338 C 985.121 -1.10158 4.14926 0
M  V30 10339 C 984.354 -2.18353 4.86988 0
M  V30 10340 O 984.577 -3.39038 4.58704 0
M  V30 10341 O 983.511 -1.82756 5.73484 0
M  V30 10342 H 987.337 0.0835014 3.03585 0
M  V30 10343 H 984.922 0.106727 1.49018 0
M  V30 10344 H 986.804 -2.3217 3.51674 0
M  V30 10345 H 985.479 -2.25456 2.32275 0
M  V30 10346 H 984.386 -0.405109 3.719 0
M  V30 10347 H 985.719 -0.552567 4.89088 0
M  V30 10348 N 987.371 -1.57444 0.0701946 0
M  V30 10349 C 988.596 -1.98171 -0.61181 0
M  V30 10350 C 989.021 -0.94823 -1.62451 0
M  V30 10351 O 988.379 0.0863553 -1.81094 0
M  V30 10352 C 988.427 -3.37934 -1.2583 0
M  V30 10353 O 987.531 -3.37207 -2.37414 0
M  V30 10354 H 986.872 -0.645056 -0.157477 0
M  V30 10355 H 989.402 -2.04091 0.144235 0
M  V30 10356 H 989.412 -3.75083 -1.60552 0
M  V30 10357 H 988.087 -4.12684 -0.516234 0
M  V30 10358 H 986.664 -3.11826 -2.04497 0
M  V30 10359 N 988.849 0.203349 -1.56283 0
M  V30 10360 C 990.074 0.945548 -1.84592 0
M  V30 10361 C 990.499 1.7641 -0.652772 0
M  V30 10362 O 989.857 1.76867 0.398468 0
M  V30 10363 C 989.905 1.82416 -3.11057 0
M  V30 10364 O 989.009 2.92191 -2.9103 0
M  V30 10365 H 988.35 0.266739 -0.608068 0
M  V30 10366 H 990.88 0.211158 -2.03507 0
M  V30 10367 H 990.89 2.23044 -3.41636 0
M  V30 10368 H 989.565 1.22267 -3.97522 0
M  V30 10369 H 988.142 2.55378 -2.71728 0
M  V30 10370 N 990.327 1.50405 0.470755 0
M  V30 10371 C 991.552 1.65442 1.25075 0
M  V30 10372 C 991.977 0.337612 1.85045 0
M  V30 10373 O 991.335 -0.698555 1.67302 0
M  V30 10374 C 991.383 2.74793 2.33498 0
M  V30 10375 O 990.487 2.36069 3.3815 0
M  V30 10376 H 989.828 0.552728 0.367951 0
M  V30 10377 H 992.358 1.96782 0.560177 0
M  V30 10378 H 992.368 2.97879 2.78804 0
M  V30 10379 H 991.043 3.70363 1.8922 0
M  V30 10380 H 989.62 2.2343 2.98552 0
M  V30 10381 N 991.805 -0.723954 1.39988 0
M  V30 10382 C 993.03 -1.5182 1.41299 0
M  V30 10383 C 993.455 -1.88096 0.0122636 0
M  V30 10384 O 992.813 -1.52687 -0.977559 0
M  V30 10385 C 992.861 -2.77532 2.30235 0
M  V30 10386 O 991.965 -3.73903 1.73984 0
M  V30 10387 H 991.306 -0.458058 0.480707 0
M  V30 10388 H 993.836 -0.892291 1.84118 0
M  V30 10389 H 993.846 -3.2615 2.45132 0
M  V30 10390 H 992.521 -2.50462 3.32026 0
M  V30 10391 H 991.098 -3.32715 1.68389 0
M  V30 10392 N 993.283 -1.25346 -0.955304 0
M  V30 10393 C 994.508 -1.12892 -1.73983 0
M  V30 10394 C 994.933 0.313455 -1.8547 0
M  V30 10395 O 994.291 1.22706 -1.33465 0
M  V30 10396 C 994.339 -1.78729 -3.1319 0
M  V30 10397 O 993.443 -1.06648 -3.98372 0
M  V30 10398 H 992.784 -0.394178 -0.534341 0
M  V30 10399 H 995.314 -1.65897 -1.19747 0
M  V30 10400 H 995.324 -1.84987 -3.63653 0
M  V30 10401 H 993.999 -2.83669 -3.04146 0
M  V30 10402 H 992.576 -1.08266 -3.56837 0
M  V30 10403 N 994.761 1.15782 -1.06922 0
M  V30 10404 C 995.986 1.90896 -0.810771 0
M  V30 10405 C 996.411 1.77246 0.629714 0
M  V30 10406 O 995.769 1.10215 1.43953 0
M  V30 10407 C 995.817 3.39397 -1.21829 0
M  V30 10408 O 994.921 4.10818 -0.360934 0
M  V30 10409 H 994.262 0.594497 -0.295752 0
M  V30 10410 H 996.792 1.46652 -1.42669 0
M  V30 10411 H 996.802 3.90181 -1.19259 0
M  V30 10412 H 995.477 3.4865 -2.2675 0
M  V30 10413 H 994.054 3.7019 -0.448748 0
M  V30 10414 N 996.239 0.8527 1.3254 0
M  V30 10415 C 997.516 0.376491 1.91942 0
M  V30 10416 C 997.896 -1.13972 1.7769 0
M  V30 10417 O 997.244 -1.96047 1.17379 0
M  V30 10418 C 997.454 0.838694 3.38773 0
M  V30 10419 C 998.802 0.854736 4.15908 0
M  V30 10420 O 999.826 0.783203 3.47483 0
M  V30 10421 O 998.685 0.955207 5.38087 0
M  V30 10422 H 995.779 0.109412 0.81973 0
M  V30 10423 H 998.325 0.93947 1.41322 0
M  V30 10424 H 997.097 1.88179 3.43081 0
M  V30 10425 H 996.72 0.253055 3.96794 0
M  V30 10426 N 997.718 -1.45297 0.610449 0
M  V30 10427 C 998.943 -2.07101 0.111414 0
M  V30 10428 C 999.368 -1.45161 -1.19625 0
M  V30 10429 O 998.726 -0.545368 -1.72903 0
M  V30 10430 C 998.774 -3.60598 -0.0117372 0
M  V30 10431 O 997.878 -3.98512 -1.06122 0
M  V30 10432 H 997.219 -0.659709 0.075364 0
M  V30 10433 H 999.749 -1.86504 0.841269 0
M  V30 10434 H 999.759 -4.07464 -0.209028 0
M  V30 10435 H 998.434 -4.05067 0.943076 0
M  V30 10436 H 997.011 -3.63312 -0.840158 0
M  V30 10437 N 999.196 -0.349774 -1.5367 0
M  V30 10438 C 1000.42 0.248692 -2.05904 0
M  V30 10439 C 1000.85 1.42942 -1.22267 0
M  V30 10440 O 1000.2 1.79732 -0.237899 0
M  V30 10441 C 1000.25 0.635639 -3.54953 0
M  V30 10442 O 999.356 1.7349 -3.74132 0
M  V30 10443 H 998.697 0.0399477 -0.662797 0
M  V30 10444 H 1001.23 -0.505795 -1.9825 0
M  V30 10445 H 1001.24 0.911064 -3.97698 0
M  V30 10446 H 999.912 -0.227805 -4.15276 0
M  V30 10447 H 998.489 1.45626 -3.43289 0
M  V30 10448 N 1000.67 1.57404 -0.0785433 0
M  V30 10449 C 1001.9 1.98074 0.597862 0
M  V30 10450 C 1002.32 0.95714 1.6274 0
M  V30 10451 O 1001.67 -0.0553728 1.82416 0
M  V30 10452 C 1001.72 3.38815 1.26041 0
M  V30 10453 O 1001.45 4.37254 0.27207 0
M  V30 10454 C 1002.95 3.94397 2.024 0
M  V30 10455 H 1000.17 0.651263 0.161546 0
M  V30 10456 H 1002.71 2.03927 -0.152941 0
M  V30 10457 H 1000.87 3.34028 1.96225 0
M  V30 10458 H 1001.28 5.19136 0.74822 0
M  V30 10459 H 1002.75 4.95075 2.4414 0
M  V30 10460 H 1003.23 3.31308 2.88326 0
M  V30 10461 H 1003.84 4.02607 1.37068 0
M  V30 10462 N 1002.15 -0.195058 1.56388 0
M  V30 10463 C 1003.38 -0.935745 1.85091 0
M  V30 10464 C 1003.8 -1.76061 0.662118 0
M  V30 10465 O 1003.16 -1.77076 -0.389083 0
M  V30 10466 C 1003.21 -1.80764 3.1202 0
M  V30 10467 O 1002.31 -2.90643 2.92575 0
M  V30 10468 H 1001.65 -0.26351 0.609474 0
M  V30 10469 H 1004.18 -0.200362 2.03617 0
M  V30 10470 H 1004.19 -2.21229 3.42815 0
M  V30 10471 H 1002.87 -1.20157 3.98165 0
M  V30 10472 H 1001.44 -2.53934 2.73079 0
M  V30 10473 N 1003.63 -1.50653 -0.462772 0
M  V30 10474 C 1004.56 -1.66286 -1.5774 0
M  V30 10475 C 1005.57 -0.544094 -1.53439 0
M  V30 10476 O 1006.76 -0.817566 -1.58676 0
M  V30 10477 C 1003.86 -1.63893 -2.96635 0
M  V30 10478 C 1003.04 -2.91939 -3.25716 0
M  V30 10479 C 1002.1 -2.82076 -4.44206 0
M  V30 10480 O 1001.12 -3.56032 -4.44106 0
M  V30 10481 N 1002.32 -1.96196 -5.4634 0
M  V30 10482 H 1005.09 -2.6243 -1.44742 0
M  V30 10483 H 1002.65 -1.48221 -0.651326 0
M  V30 10484 H 1004.64 -1.54897 -3.73884 0
M  V30 10485 H 1003.21 -0.75449 -3.03358 0
M  V30 10486 H 1002.43 -3.14998 -2.37002 0
M  V30 10487 H 1003.72 -3.7675 -3.4196 0
M  V30 10488 H 1003.12 -1.35439 -5.49247 0
M  V30 10489 H 1001.67 -1.93097 -6.2254 0
M  V30 10490 N 1005.11 0.71652 -1.4037 0
M  V30 10491 C 1006.33 1.51069 -1.42102 0
M  V30 10492 C 1006.76 1.88087 -0.0222387 0
M  V30 10493 O 1006.12 1.53204 0.969448 0
M  V30 10494 C 1006.16 2.76307 -2.31704 0
M  V30 10495 O 1005.27 3.72975 -1.75964 0
M  V30 10496 H 1004.61 0.455502 -0.483129 0
M  V30 10497 H 1007.14 0.882514 -1.84588 0
M  V30 10498 H 1007.15 3.24846 -2.46859 0
M  V30 10499 H 1005.82 2.48698 -3.3335 0
M  V30 10500 H 1004.4 3.31818 -1.70151 0
M  V30 10501 N 1006.59 1.25851 0.948643 0
M  V30 10502 C 1007.81 1.13813 1.73382 0
M  V30 10503 C 1008.24 -0.303615 1.85633 0
M  V30 10504 O 1007.59 -1.21997 1.34114 0
M  V30 10505 C 1007.64 1.80388 3.12238 0
M  V30 10506 O 1006.75 1.08759 3.978 0
M  V30 10507 H 1006.09 0.397006 0.532243 0
M  V30 10508 H 1008.62 1.66529 1.18866 0
M  V30 10509 H 1008.63 1.86913 3.62667 0
M  V30 10510 H 1007.3 2.85278 3.02637 0
M  V30 10511 H 1005.88 1.10157 3.56258 0
M  V30 10512 N 1008.06 -1.15214 1.07534 0
M  V30 10513 C 1009.29 -1.90463 0.820883 0
M  V30 10514 C 1009.71 -1.77578 -0.620305 0
M  V30 10515 O 1009.07 -1.10976 -1.43366 0
M  V30 10516 C 1009.12 -3.38746 1.23627 0
M  V30 10517 O 1008.22 -4.1062 0.382715 0
M  V30 10518 H 1007.57 -0.59292 0.298901 0
M  V30 10519 H 1010.1 -1.45893 1.43445 0
M  V30 10520 H 1010.11 -3.89543 1.21327 0
M  V30 10521 H 1008.78 -3.47443 2.28596 0
M  V30 10522 H 1007.36 -3.69947 0.468374 0
M  V30 10523 N 1009.54 -0.859717 -1.32086 0
M  V30 10524 C 1010.77 -0.479724 -2.01262 0
M  V30 10525 C 1011.19 0.924985 -1.64589 0
M  V30 10526 O 1010.54 1.60439 -0.869803 0
M  V30 10527 C 1010.59 -0.615128 -3.56228 0
M  V30 10528 O 1010.31 -1.96451 -3.91585 0
M  V30 10529 C 1011.82 -0.234804 -4.42678 0
M  V30 10530 H 1009.04 -0.188007 -0.644123 0
M  V30 10531 H 1011.58 -1.15805 -1.68551 0
M  V30 10532 H 1009.73 0.0155268 -3.87397 0
M  V30 10533 H 1010.15 -1.96491 -4.86304 0
M  V30 10534 H 1011.62 -0.380534 -5.50687 0
M  V30 10535 H 1012.1 0.825189 -4.31378 0
M  V30 10536 H 1012.71 -0.840739 -4.16907 0
M  V30 10537 N 1011.02 1.44971 -0.618145 0
M  V30 10538 C 1012.25 2.06527 -0.124165 0
M  V30 10539 C 1012.66 1.46097 1.19588 0
M  V30 10540 O 1012.02 0.57901 1.73071 0
M  V30 10541 C 1012.07 3.61498 0.0106701 0
M  V30 10542 O 1011.79 4.19675 -1.25716 0
M  V30 10543 C 1013.29 4.40061 0.534872 0
M  V30 10544 H 1010.51 0.666941 -0.0736935 0
M  V30 10545 H 1013.06 1.8605 -0.848871 0
M  V30 10546 H 1011.21 3.81282 0.685752 0
M  V30 10547 H 1011.63 5.12972 -1.09362 0
M  V30 10548 H 1013.1 5.48963 0.57827 0
M  V30 10549 H 1013.58 4.10587 1.55931 0
M  V30 10550 H 1014.18 4.25167 -0.10652 0
M  V30 10551 N 1012.5 0.357919 1.53482 0
M  V30 10552 C 1013.91 -0.122938 1.86295 0
M  V30 10553 C 1014.26 -1.48803 1.27875 0
M  V30 10554 O 1013.39 -2.07978 0.597828 0
M  V30 10555 C 1013.98 -0.229853 3.38019 0
M  V30 10556 C 1012.54 -0.654955 3.70658 0
M  V30 10557 C 1011.69 0.202539 2.76559 0
M  V30 10558 H 1014.64 0.576997 1.47839 0
M  V30 10559 H 1014.66 -1.05481 3.65587 0
M  V30 10560 H 1014.17 0.763825 3.80509 0
M  V30 10561 H 1012.27 -1.65714 3.33721 0
M  V30 10562 H 1012.38 -0.43488 4.77122 0
M  V30 10563 H 1010.75 -0.327388 2.52587 0
M  V30 10564 H 1011.53 1.19361 3.21882 0
M  V30 10565 N 1013.98 -1.5736 0.0868897 0
M  V30 10566 C 1015.2 -1.98809 -0.590757 0
M  V30 10567 C 1015.63 -0.965407 -1.61436 0
M  V30 10568 O 1014.98 0.067143 -1.81176 0
M  V30 10569 C 1015.03 -3.39249 -1.22238 0
M  V30 10570 O 1014.14 -3.39706 -2.33824 0
M  V30 10571 H 1013.48 -0.64669 -0.150626 0
M  V30 10572 H 1016.01 -2.03927 0.165873 0
M  V30 10573 H 1016.02 -3.76765 -1.56564 0
M  V30 10574 H 1014.69 -4.13208 -0.472434 0
M  V30 10575 H 1013.27 -3.13977 -2.01178 0
M  V30 10576 N 1015.45 0.186762 -1.56489 0
M  V30 10577 C 1016.68 0.921832 -1.85229 0
M  V30 10578 C 1017.1 1.76496 -0.670416 0
M  V30 10579 O 1016.45 1.78899 0.360758 0
M  V30 10580 C 1016.51 1.81121 -3.12854 0
M  V30 10581 O 1016.23 1.00211 -4.26485 0
M  V30 10582 C 1017.73 2.65725 -3.54831 0
M  V30 10583 H 1014.95 0.268563 -0.61491 0
M  V30 10584 H 1017.49 0.191505 -2.03601 0
M  V30 10585 H 1015.65 2.49506 -2.96354 0
M  V30 10586 H 1016.06 1.60893 -4.99213 0
M  V30 10587 H 1017.53 3.23771 -4.47075 0
M  V30 10588 H 1018.01 3.39843 -2.78215 0
M  V30 10589 H 1018.62 2.02698 -3.7389 0
M  V30 10590 N 1016.93 1.50896 0.454776 0
M  V30 10591 C 1017.88 1.71497 1.57136 0
M  V30 10592 C 1018.87 0.58098 1.59126 0
M  V30 10593 O 1020.08 0.761916 1.63079 0
M  V30 10594 H 1016.46 0.54158 0.521724 0
M  V30 10595 H 1018.43 2.65129 1.36928 0
M  V30 10596 C 1017.18 1.84125 2.94947 0
M  V30 10597 H 1016.5 2.7078 2.9414 0
M  V30 10598 H 1017.94 2.02558 3.72487 0
M  V30 10599 C 1016.4 0.596752 3.31573 0
M  V30 10600 O 1016.93 -0.256632 4.00879 0
M  V30 10601 N 1015.13 0.445958 2.87158 0
M  V30 10602 H 1014.68 1.14146 2.30929 0
M  V30 10603 H 1014.64 -0.385519 3.12027 0
M  V30 10604 N 1018.41 -0.709066 1.40748 0
M  V30 10605 C 1019.36 -1.84445 1.41714 0
M  V30 10606 C 1020.35 -1.66779 0.296818 0
M  V30 10607 O 1021.56 -1.73805 0.468181 0
M  V30 10608 H 1017.93 -0.607581 0.443114 0
M  V30 10609 H 1019.9 -1.80747 2.3743 0
M  V30 10610 C 1018.65 -3.22362 1.303 0
M  V30 10611 H 1017.98 -3.36565 2.15787 0
M  V30 10612 H 1019.42 -4.01922 1.35036 0
M  V30 10613 C 1017.88 -3.36897 0.0139015 0
M  V30 10614 O 1018.41 -3.90389 -0.946553 0
M  V30 10615 N 1016.61 -2.90543 -0.0577491 0
M  V30 10616 H 1016.16 -2.472 0.724574 0
M  V30 10617 H 1016.12 -3.00647 -0.919721 0
M  V30 10618 N 1019.89 -1.26353 -0.941956 0
M  V30 10619 C 1021.11 -1.14731 -1.72776 0
M  V30 10620 C 1021.54 0.293766 -1.85792 0
M  V30 10621 O 1020.9 1.21284 -1.34759 0
M  V30 10622 C 1020.95 -1.82041 -3.11277 0
M  V30 10623 O 1020.05 -1.10867 -3.97218 0
M  V30 10624 H 1019.39 -0.399823 -0.53013 0
M  V30 10625 H 1021.92 -1.67157 -1.17981 0
M  V30 10626 H 1021.93 -1.88834 -3.61671 0
M  V30 10627 H 1020.61 -2.86879 -3.0112 0
M  V30 10628 H 1019.18 -1.12044 -3.55669 0
M  V30 10629 N 1021.37 1.14642 -1.08144 0
M  V30 10630 C 1022.6 1.89484 -0.830864 0
M  V30 10631 C 1023.01 1.78443 0.616722 0
M  V30 10632 O 1022.37 1.14191 1.42361 0
M  V30 10633 C 1022.42 3.39554 -1.24039 0
M  V30 10634 O 1022.14 3.50286 -2.63119 0
M  V30 10635 C 1023.64 4.31399 -1.02029 0
M  V30 10636 H 1020.86 0.600283 -0.299835 0
M  V30 10637 H 1023.4 1.45204 -1.44001 0
M  V30 10638 H 1021.56 3.81467 -0.675407 0
M  V30 10639 H 1021.97 4.43481 -2.80045 0
M  V30 10640 H 1023.45 5.35079 -1.35625 0
M  V30 10641 H 1023.92 4.39179 0.0428697 0
M  V30 10642 H 1024.53 3.95238 -1.57057 0
M  V30 10643 N 1022.85 0.866709 1.31628 0
M  V30 10644 C 1024.07 0.49039 2.01004 0
M  V30 10645 C 1024.49 -0.916244 1.65077 0
M  V30 10646 O 1023.85 -1.59975 0.8783 0
M  V30 10647 C 1023.9 0.634011 3.55897 0
M  V30 10648 O 1023.62 1.98525 3.90537 0
M  V30 10649 C 1025.12 0.258277 4.42547 0
M  V30 10650 H 1022.34 0.191421 0.643117 0
M  V30 10651 H 1024.88 1.16698 1.67934 0
M  V30 10652 H 1023.04 0.00501801 3.874 0
M  V30 10653 H 1023.45 1.99067 4.85255 0
M  V30 10654 H 1024.93 0.409733 5.50477 0
M  V30 10655 H 1025.4 -0.802301 4.3181 0
M  V30 10656 H 1026.01 0.862837 4.16456 0
M  V30 10657 N 1024.32 -1.44642 0.625825 0
M  V30 10658 C 1025.55 -2.06458 0.135116 0
M  V30 10659 C 1025.97 -1.46729 -1.18811 0
M  V30 10660 O 1025.32 -0.58818 -1.72762 0
M  V30 10661 C 1025.37 -3.61499 0.00850114 0
M  V30 10662 O 1025.1 -4.19002 1.2794 0
M  V30 10663 C 1026.6 -4.40339 -0.511527 0
M  V30 10664 H 1023.82 -0.666541 0.0772294 0
M  V30 10665 H 1026.36 -1.85597 0.858726 0
M  V30 10666 H 1024.52 -3.81641 -0.665522 0
M  V30 10667 H 1024.93 -5.12385 1.12081 0
M  V30 10668 H 1026.4 -5.49262 -0.549149 0
M  V30 10669 H 1026.88 -4.11409 -1.53752 0
M  V30 10670 H 1027.49 -4.25104 0.129066 0
M  V30 10671 N 1025.8 -0.366053 -1.5329 0
M  V30 10672 C 1026.75 0.495319 -2.27265 0
M  V30 10673 C 1027.74 1.08298 -1.30261 0
M  V30 10674 O 1028.95 1.02613 -1.47887 0
M  V30 10675 H 1025.32 0.178454 -0.730519 0
M  V30 10676 H 1027.3 -0.150354 -2.98021 0
M  V30 10677 C 1026.04 1.62283 -3.07505 0
M  V30 10678 H 1025.37 1.17993 -3.81992 0
M  V30 10679 H 1026.81 2.20024 -3.62444 0
M  V30 10680 C 1025.27 2.56542 -2.18375 0
M  V30 10681 O 1025.8 3.59371 -1.79486 0
M  V30 10682 N 1024 2.25742 -1.82999 0
M  V30 10683 H 1023.55 1.42159 -2.14822 0
M  V30 10684 H 1023.51 2.89064 -1.2365 0
M  V30 10685 N 1027.28 1.57312 -0.0952337 0
M  V30 10686 C 1028.69 1.81589 0.433875 0
M  V30 10687 C 1029.04 1.01086 1.68155 0
M  V30 10688 O 1028.17 0.240272 2.15062 0
M  V30 10689 C 1028.76 3.29366 0.793931 0
M  V30 10690 C 1027.32 3.54407 1.26778 0
M  V30 10691 C 1026.47 2.76035 0.264518 0
M  V30 10692 H 1029.42 1.55426 -0.320675 0
M  V30 10693 H 1029.44 3.42697 1.65345 0
M  V30 10694 H 1028.95 3.87932 -0.114334 0
M  V30 10695 H 1027.05 3.01173 2.19376 0
M  V30 10696 H 1027.17 4.63055 1.22952 0
M  V30 10697 H 1025.53 2.43509 0.746691 0
M  V30 10698 H 1026.31 3.37349 -0.636429 0
M  V30 10699 N 1028.76 -0.17846 1.56586 0
M  V30 10700 C 1029.71 -1.24042 1.96765 0
M  V30 10701 C 1030.7 -1.46218 0.855375 0
M  V30 10702 O 1031.91 -1.46882 1.04046 0
M  V30 10703 H 1028.28 -0.416807 0.62592 0
M  V30 10704 H 1030.25 -0.874644 2.85294 0
M  V30 10705 C 1029 -2.57394 2.3376 0
M  V30 10706 H 1028.32 -2.41151 3.18883 0
M  V30 10707 H 1029.76 -3.30405 2.65723 0
M  V30 10708 C 1028.22 -3.15621 1.17835 0
M  V30 10709 O 1028.75 -3.99032 0.462202 0
M  V30 10710 N 1026.96 -2.74606 0.950783 0
M  V30 10711 H 1026.51 -2.06878 1.5349 0
M  V30 10712 H 1026.46 -3.13902 0.176967 0
M  V30 10713 N 1030.24 -1.51135 -0.446768 0
M  V30 10714 C 1031.18 -1.72328 -1.56224 0
M  V30 10715 C 1032.18 -0.589411 -1.58815 0
M  V30 10716 O 1033.38 -0.770554 -1.62673 0
M  V30 10717 H 1029.76 -0.544339 -0.518844 0
M  V30 10718 H 1031.73 -2.65851 -1.3552 0
M  V30 10719 C 1030.48 -1.85686 -2.93966 0
M  V30 10720 H 1029.8 -2.72336 -2.927 0
M  V30 10721 H 1031.24 -2.0453 -3.71407 0
M  V30 10722 C 1029.7 -0.614328 -3.31252 0
M  V30 10723 O 1030.23 0.235369 -4.0101 0
M  V30 10724 N 1028.44 -0.461181 -2.86917 0
M  V30 10725 H 1027.98 -1.15369 -2.30321 0
M  V30 10726 H 1027.94 0.368966 -3.12227 0
M  V30 10727 N 1031.71 0.701592 -1.41122 0
M  V30 10728 C 1032.66 1.83691 -1.4269 0
M  V30 10729 C 1033.66 1.6662 -0.305658 0
M  V30 10730 O 1034.86 1.73554 -0.477392 0
M  V30 10731 H 1031.24 0.605222 -0.44633 0
M  V30 10732 H 1033.21 1.79485 -2.38386 0
M  V30 10733 C 1031.96 3.21666 -1.32008 0
M  V30 10734 H 1031.28 3.35416 -2.17569 0
M  V30 10735 H 1032.72 4.012 -1.37165 0
M  V30 10736 C 1031.18 3.36885 -0.0317678 0
M  V30 10737 O 1031.71 3.90885 0.925836 0
M  V30 10738 N 1029.91 2.90569 0.0423401 0
M  V30 10739 H 1029.46 2.46812 -0.737673 0
M  V30 10740 H 1029.42 3.0113 0.903764 0
M  V30 10741 N 1033.19 1.2685 0.935242 0
M  V30 10742 C 1034.42 1.15538 1.71635 0
M  V30 10743 C 1034.83 -0.288698 1.8658 0
M  V30 10744 O 1034.19 -1.19721 1.37743 0
M  V30 10745 C 1034.24 1.8259 3.11999 0
M  V30 10746 O 1033.96 3.21355 2.97763 0
M  V30 10747 C 1035.46 1.77307 4.06297 0
M  V30 10748 H 1032.68 0.402055 0.537208 0
M  V30 10749 H 1035.23 1.67582 1.17203 0
M  V30 10750 H 1033.38 1.3447 3.63313 0
M  V30 10751 H 1033.8 3.54626 3.86446 0
M  V30 10752 H 1035.27 2.28851 5.02326 0
M  V30 10753 H 1035.75 0.740823 4.32907 0
M  V30 10754 H 1036.35 2.25007 3.60904 0
M  V30 10755 N 1034.67 -1.14067 1.0875 0
M  V30 10756 C 1035.6 -2.18926 0.67852 0
M  V30 10757 C 1036.62 -1.60441 -0.276163 0
M  V30 10758 O 1037.8 -1.78388 -0.0632788 0
M  V30 10759 C 1034.9 -3.38893 -0.0218852 0
M  V30 10760 C 1034.08 -4.26901 0.952582 0
M  V30 10761 C 1033.14 -5.25418 0.286859 0
M  V30 10762 O 1032.16 -5.61512 0.932354 0
M  V30 10763 N 1033.36 -5.72476 -0.961831 0
M  V30 10764 H 1036.13 -2.54629 1.58063 0
M  V30 10765 H 1033.69 -1.29321 0.974042 0
M  V30 10766 H 1035.68 -4.01864 -0.478278 0
M  V30 10767 H 1034.25 -3.01486 -0.826141 0
M  V30 10768 H 1033.47 -3.60812 1.58772 0
M  V30 10769 H 1034.76 -4.82563 1.61279 0
M  V30 10770 H 1034.16 -5.45287 -1.50594 0
M  V30 10771 H 1032.72 -6.37418 -1.36166 0
M  V30 10772 N 1036.15 -0.873678 -1.31166 0
M  V30 10773 C 1037.08 -0.289389 -2.27366 0
M  V30 10774 C 1038.09 0.549667 -1.5324 0
M  V30 10775 O 1039.28 0.371056 -1.74601 0
M  V30 10776 C 1036.38 0.60807 -3.334 0
M  V30 10777 C 1035.56 -0.199379 -4.36945 0
M  V30 10778 C 1034.61 0.626798 -5.22454 0
M  V30 10779 O 1033.64 0.0535121 -5.69175 0
M  V30 10780 N 1034.84 1.93809 -5.47191 0
M  V30 10781 H 1037.61 -1.1161 -2.78143 0
M  V30 10782 H 1035.17 -0.735529 -1.44228 0
M  V30 10783 H 1037.16 1.16656 -3.87522 0
M  V30 10784 H 1035.73 1.33545 -2.82638 0
M  V30 10785 H 1034.95 -0.939316 -3.82845 0
M  V30 10786 H 1036.24 -0.75329 -5.03193 0
M  V30 10787 H 1035.64 2.42693 -5.10995 0
M  V30 10788 H 1034.19 2.44428 -6.04234 0
M  V30 10789 N 1037.63 1.44308 -0.633487 0
M  V30 10790 C 1038.85 2.06897 -0.144347 0
M  V30 10791 C 1039.28 1.47045 1.173 0
M  V30 10792 O 1038.63 0.572806 1.72013 0
M  V30 10793 C 1038.68 3.60571 -0.0456324 0
M  V30 10794 O 1037.79 4.0015 0.997682 0
M  V30 10795 H 1037.13 0.658427 -0.0858499 0
M  V30 10796 H 1039.66 1.85142 -0.870833 0
M  V30 10797 H 1039.67 4.07745 0.144178 0
M  V30 10798 H 1038.34 4.03515 -1.0074 0
M  V30 10799 H 1036.92 3.64603 0.782252 0
M  V30 10800 N 1039.1 0.374177 1.53094 0
M  V30 10801 C 1040.05 -0.48326 2.27524 0
M  V30 10802 C 1041.05 -1.07606 1.30833 0
M  V30 10803 O 1042.25 -1.01827 1.48429 0
M  V30 10804 H 1038.63 -0.174578 0.731455 0
M  V30 10805 H 1040.6 0.166156 2.97937 0
M  V30 10806 C 1039.35 -1.6065 3.08362 0
M  V30 10807 H 1038.67 -1.15966 3.82612 0
M  V30 10808 H 1040.11 -2.18099 3.63606 0
M  V30 10809 C 1038.57 -2.55381 2.19732 0
M  V30 10810 O 1039.1 -3.58414 1.8139 0
M  V30 10811 N 1037.31 -2.24769 1.84194 0
M  V30 10812 H 1036.85 -1.41018 2.15573 0
M  V30 10813 H 1036.81 -2.88404 1.25181 0
M  V30 10814 N 1040.58 -1.57259 0.103575 0
M  V30 10815 C 1041.81 -1.99 -0.566275 0
M  V30 10816 C 1042.23 -0.982909 -1.61197 0
M  V30 10817 O 1041.58 0.026345 -1.82481 0
M  V30 10818 C 1041.63 -3.40778 -1.20635 0
M  V30 10819 O 1041.35 -4.37632 -0.202472 0
M  V30 10820 C 1042.86 -3.97567 -1.961 0
M  V30 10821 H 1040.08 -0.653751 -0.151164 0
M  V30 10822 H 1042.62 -2.03658 0.185365 0
M  V30 10823 H 1040.77 -3.37107 -1.90886 0
M  V30 10824 H 1041.19 -5.2026 -0.665535 0
M  V30 10825 H 1042.66 -4.98897 -2.36233 0
M  V30 10826 H 1043.14 -3.35853 -2.83018 0
M  V30 10827 H 1043.75 -4.04737 -1.30645 0
M  V30 10828 N 1042.06 0.170153 -1.56679 0
M  V30 10829 C 1043.29 0.902134 -1.86197 0
M  V30 10830 C 1043.7 1.75775 -0.689098 0
M  V30 10831 O 1043.06 1.79271 0.341763 0
M  V30 10832 C 1043.11 1.77792 -3.14757 0
M  V30 10833 O 1042.83 0.956817 -4.27524 0
M  V30 10834 C 1044.33 2.61947 -3.57629 0
M  V30 10835 H 1041.55 0.262026 -0.617724 0
M  V30 10836 H 1044.1 0.169899 -2.03793 0
M  V30 10837 H 1042.25 2.46348 -2.98984 0
M  V30 10838 H 1042.67 1.5559 -5.00891 0
M  V30 10839 H 1044.14 3.19011 -4.50484 0
M  V30 10840 H 1044.62 3.36873 -2.81803 0
M  V30 10841 H 1045.22 1.98721 -3.76019 0
M  V30 10842 N 1043.54 1.5137 0.438746 0
M  V30 10843 C 1044.95 1.56462 1.01866 0
M  V30 10844 C 1045.3 0.387244 1.9234 0
M  V30 10845 O 1044.43 -0.496131 2.10636 0
M  V30 10846 C 1045.02 2.83557 1.85421 0
M  V30 10847 C 1043.58 2.91224 2.38464 0
M  V30 10848 C 1042.73 2.51109 1.17641 0
M  V30 10849 H 1045.68 1.57167 0.220072 0
M  V30 10850 H 1045.7 2.6724 2.70857 0
M  V30 10851 H 1045.21 3.69229 1.19546 0
M  V30 10852 H 1043.31 2.09979 3.07798 0
M  V30 10853 H 1043.42 3.94844 2.71358 0
M  V30 10854 H 1041.79 2.04276 1.5213 0
M  V30 10855 H 1042.57 3.39125 0.533785 0
M  V30 10856 N 1045.02 -0.694098 1.41492 0
M  V30 10857 C 1046.29 -1.44875 1.31418 0
M  V30 10858 C 1046.67 -2.11022 -0.0575538 0
M  V30 10859 O 1046.02 -2.01799 -1.07188 0
M  V30 10860 C 1046.23 -2.46698 2.46863 0
M  V30 10861 C 1047.58 -3.11907 2.88095 0
M  V30 10862 O 1048.6 -2.57022 2.46613 0
M  V30 10863 O 1047.46 -4.11318 3.59833 0
M  V30 10864 H 1044.56 -0.645266 0.517263 0
M  V30 10865 H 1047.1 -0.724452 1.53459 0
M  V30 10866 H 1045.87 -1.96485 3.38392 0
M  V30 10867 H 1045.5 -3.26634 2.26706 0
M  V30 10868 N 1046.49 -1.27344 -0.928501 0
M  V30 10869 C 1047.43 -1.05797 -2.03322 0
M  V30 10870 C 1048.44 -0.0143086 -1.62794 0
M  V30 10871 O 1049.63 -0.25578 -1.76658 0
M  V30 10872 C 1046.73 -0.582673 -3.33853 0
M  V30 10873 C 1045.9 -1.69844 -4.03078 0
M  V30 10874 C 1044.96 -1.21902 -5.11885 0
M  V30 10875 O 1043.99 -1.91853 -5.35893 0
M  V30 10876 N 1045.19 -0.0742392 -5.80453 0
M  V30 10877 H 1047.95 -2.00928 -2.22369 0
M  V30 10878 H 1045.51 -1.189 -1.09883 0
M  V30 10879 H 1047.51 -0.245862 -4.03952 0
M  V30 10880 H 1046.08 0.27539 -3.11385 0
M  V30 10881 H 1045.3 -2.20557 -3.26723 0
M  V30 10882 H 1046.58 -2.4473 -4.46077 0
M  V30 10883 H 1045.98 0.509631 -5.634 0
M  V30 10884 H 1044.54 0.203399 -6.51483 0
M  V30 10885 N 1047.97 1.13488 -1.09353 0
M  V30 10886 C 1048.9 2.18563 -0.69012 0
M  V30 10887 C 1049.92 1.60585 0.267651 0
M  V30 10888 O 1051.11 1.78419 0.0538176 0
M  V30 10889 C 1048.21 3.389 0.00391255 0
M  V30 10890 C 1047.38 4.2639 -0.975209 0
M  V30 10891 C 1046.44 5.25258 -0.314719 0
M  V30 10892 O 1045.46 5.6101 -0.962119 0
M  V30 10893 N 1046.67 5.72978 0.931458 0
M  V30 10894 H 1049.43 2.53788 -1.59411 0
M  V30 10895 H 1046.99 1.28803 -0.980886 0
M  V30 10896 H 1048.98 4.02112 0.45696 0
M  V30 10897 H 1047.55 3.0192 0.81014 0
M  V30 10898 H 1046.77 3.59964 -1.60684 0
M  V30 10899 H 1048.06 4.817 -1.63836 0
M  V30 10900 H 1047.46 5.46078 1.477 0
M  V30 10901 H 1046.02 6.38131 1.32784 0
M  V30 10902 N 1049.45 0.880621 1.30701 0
M  V30 10903 C 1050.4 0.333562 2.30196 0
M  V30 10904 C 1051.39 -0.557092 1.59978 0
M  V30 10905 O 1052.6 -0.442009 1.74489 0
M  V30 10906 H 1048.97 0.0892036 0.746691 0
M  V30 10907 H 1050.95 1.18644 2.73799 0
M  V30 10908 C 1049.69 -0.440731 3.44895 0
M  V30 10909 H 1049.02 0.235353 3.99107 0
M  V30 10910 H 1050.46 -0.788676 4.166 0
M  V30 10911 C 1048.92 -1.63613 2.94504 0
M  V30 10912 O 1049.45 -2.73549 2.94166 0
M  V30 10913 N 1047.65 -1.47183 2.5057 0
M  V30 10914 H 1047.2 -0.577479 2.51044 0
M  V30 10915 H 1047.16 -2.27303 2.17211 0
M  V30 10916 N 1050.93 -1.4397 0.641131 0
M  V30 10917 C 1051.86 -2.28997 -0.0963315 0
M  V30 10918 C 1052.87 -1.4184 -0.799071 0
M  V30 10919 O 1054.06 -1.65896 -0.658846 0
M  V30 10920 C 1051.16 -3.18465 -1.15903 0
M  V30 10921 C 1050.34 -4.34093 -0.536828 0
M  V30 10922 C 1049.4 -5.04522 -1.4948 0
M  V30 10923 O 1048.42 -5.60202 -1.00807 0
M  V30 10924 N 1049.62 -5.06899 -2.82901 0
M  V30 10925 H 1052.39 -2.9293 0.633422 0
M  V30 10926 H 1049.95 -1.54527 0.48302 0
M  V30 10927 H 1051.94 -3.62445 -1.80044 0
M  V30 10928 H 1050.51 -2.56214 -1.79089 0
M  V30 10929 H 1049.73 -3.9318 0.283414 0
M  V30 10930 H 1051.02 -5.08698 -0.101966 0
M  V30 10931 H 1050.42 -4.63012 -3.25017 0
M  V30 10932 H 1048.97 -5.54637 -3.42376 0
M  V30 10933 N 1052.41 -0.382291 -1.52893 0
M  V30 10934 C 1053.36 0.471187 -2.27778 0
M  V30 10935 C 1054.35 1.0691 -1.31402 0
M  V30 10936 O 1055.56 1.01038 -1.48967 0
M  V30 10937 H 1051.93 0.170696 -0.732371 0
M  V30 10938 H 1053.9 -0.181954 -2.97845 0
M  V30 10939 C 1052.65 1.59012 -3.09209 0
M  V30 10940 H 1051.97 1.13935 -3.83222 0
M  V30 10941 H 1053.41 2.16167 -3.64757 0
M  V30 10942 C 1051.87 2.54212 -2.21084 0
M  V30 10943 O 1052.4 3.57447 -1.83288 0
M  V30 10944 N 1050.61 2.23789 -1.85383 0
M  V30 10945 H 1050.16 1.39872 -2.16318 0
M  V30 10946 H 1050.11 2.87737 -1.26708 0
M  V30 10947 N 1053.89 1.57202 -0.111913 0
M  V30 10948 C 1055.3 1.82039 0.414591 0
M  V30 10949 C 1055.65 1.02863 1.67074 0
M  V30 10950 O 1054.77 0.263068 2.14795 0
M  V30 10951 C 1055.37 3.3019 0.758953 0
M  V30 10952 C 1053.93 3.55732 1.23012 0
M  V30 10953 C 1053.07 2.76301 0.235226 0
M  V30 10954 H 1056.02 1.55078 -0.337142 0
M  V30 10955 H 1056.05 3.44431 1.61701 0
M  V30 10956 H 1055.56 3.87788 -0.155473 0
M  V30 10957 H 1053.66 3.03483 2.16169 0
M  V30 10958 H 1053.77 4.64333 1.18034 0
M  V30 10959 H 1052.14 2.44287 0.720822 0
M  V30 10960 H 1052.92 3.36655 -0.672173 0
M  V30 10961 N 1055.36 -0.161842 1.56767 0
M  V30 10962 C 1056.3 -1.22499 1.93718 0
M  V30 10963 C 1057.31 -1.39975 0.831314 0
M  V30 10964 O 1058.5 -1.3981 1.10975 0
M  V30 10965 C 1055.6 -2.59222 2.18306 0
M  V30 10966 C 1054.77 -2.6292 3.4956 0
M  V30 10967 C 1053.83 -3.81074 3.62863 0
M  V30 10968 O 1052.86 -3.66633 4.35395 0
M  V30 10969 N 1054.06 -4.97923 2.98418 0
M  V30 10970 H 1056.82 -0.911043 2.85517 0
M  V30 10971 H 1054.38 -0.351533 1.58038 0
M  V30 10972 H 1056.38 -3.36749 2.24461 0
M  V30 10973 H 1054.95 -2.82969 1.32844 0
M  V30 10974 H 1054.17 -1.71418 3.54978 0
M  V30 10975 H 1055.45 -2.62409 4.35911 0
M  V30 10976 H 1054.85 -5.12557 2.39378 0
M  V30 10977 H 1053.41 -5.73277 3.10155 0
M  V30 10978 N 1056.84 -1.516 -0.430713 0
M  V30 10979 C 1058.25 -1.57 -1.01035 0
M  V30 10980 C 1058.6 -0.397439 -1.92132 0
M  V30 10981 O 1057.73 0.484954 -2.10896 0
M  V30 10982 C 1058.32 -2.84536 -1.83915 0
M  V30 10983 C 1056.88 -2.92485 -2.36917 0
M  V30 10984 C 1056.03 -2.5173 -1.16308 0
M  V30 10985 H 1058.98 -1.57281 -0.211734 0
M  V30 10986 H 1059 -2.68672 -2.69435 0
M  V30 10987 H 1058.51 -3.69858 -1.17586 0
M  V30 10988 H 1056.61 -2.11608 -3.0668 0
M  V30 10989 H 1056.73 -3.96277 -2.6926 0
M  V30 10990 H 1055.09 -2.05079 -1.51045 0
M  V30 10991 H 1055.87 -3.39403 -0.515793 0
M  V30 10992 N 1058.32 0.686584 -1.41858 0
M  V30 10993 C 1059.28 1.78214 -1.44126 0
M  V30 10994 C 1060.28 1.57366 -0.330541 0
M  V30 10995 O 1061.47 1.63874 -0.590837 0
M  V30 10996 C 1058.6 3.16704 -1.26142 0
M  V30 10997 H 1059.8 1.77594 -2.41661 0
M  V30 10998 H 1057.35 0.895085 -1.28132 0
M  V30 10999 H 1058.09 3.22957 -0.294823 0
M  V30 11000 H 1057.87 3.33238 -2.06627 0
M  V30 11001 H 1059.36 3.96658 -1.30584 0
M  V30 11002 N 1059.8 1.27835 0.921735 0
M  V30 11003 C 1060.73 1.06874 2.02758 0
M  V30 11004 C 1061.74 0.0229418 1.62784 0
M  V30 11005 O 1062.93 0.265145 1.7652 0
M  V30 11006 C 1060.03 0.60037 3.3354 0
M  V30 11007 C 1059.2 1.71979 4.02172 0
M  V30 11008 C 1058.26 1.24615 5.11231 0
M  V30 11009 O 1057.29 1.94692 5.34868 0
M  V30 11010 N 1058.49 0.105021 5.80405 0
M  V30 11011 H 1061.26 2.02105 2.213 0
M  V30 11012 H 1058.82 1.19481 1.09251 0
M  V30 11013 H 1060.81 0.267281 4.03816 0
M  V30 11014 H 1059.38 -0.258872 3.11526 0
M  V30 11015 H 1058.6 2.22287 3.25549 0
M  V30 11016 H 1059.89 2.47092 4.44773 0
M  V30 11017 H 1059.29 -0.479745 5.63662 0
M  V30 11018 H 1057.84 -0.168846 6.51581 0
M  V30 11019 N 1061.28 -1.12907 1.09954 0
M  V30 11020 C 1062.69 -1.65847 0.857417 0
M  V30 11021 C 1063.04 -1.86372 -0.613176 0
M  V30 11022 O 1062.16 -1.58654 -1.47166 0
M  V30 11023 C 1062.76 -3.01269 1.54991 0
M  V30 11024 C 1061.32 -3.51179 1.35462 0
M  V30 11025 C 1060.46 -2.26307 1.60251 0
M  V30 11026 H 1063.41 -0.96755 1.25794 0
M  V30 11027 H 1063.44 -3.675 0.986091 0
M  V30 11028 H 1062.95 -2.86299 2.6202 0
M  V30 11029 H 1061.05 -3.71343 0.305742 0
M  V30 11030 H 1061.16 -4.30955 2.09318 0
M  V30 11031 H 1059.53 -2.33167 1.02494 0
M  V30 11032 H 1060.31 -2.13896 2.68521 0
M  V30 11033 O 1062.79 -1.02045 -1.25176 0
M  V30 11034 H 1063.48 -0.682256 -1.81287 0
M  V30 END ATOM
M  V30 BEGIN BOND
M  V30 END BOND
M  V30 END CTAB
M  END
$$$$
