drugbank_drug|DB06043 Heavy Chain
 OpenBabel12092119123D

  0  0  0     0  0            999 V3000
M  V30 BEGIN CTAB
M  V30 COUNTS 7003 7104 0 0 0
M  V30 BEGIN ATOM
M  V30 1 H -0.908 1.98254 -0.117106 0
M  V30 2 N 0 1.576 0 0
M  V30 3 C 0.932 2.05273 1.01958 0
M  V30 4 C 1.945 0.970662 1.30698 0
M  V30 5 O 3.134 1.24746 1.27674 0
M  V30 6 C 0.234 2.43771 2.35433 0
M  V30 7 C -0.593 3.74711 2.25633 0
M  V30 8 C -1.534 4.00077 3.41796 0
M  V30 9 O -2.508 4.70743 3.19984 0
M  V30 10 N -1.306 3.47973 4.64645 0
M  V30 11 H 1.459 2.93363 0.613025 0
M  V30 12 H -0.98 1.60812 0.187383 0
M  V30 13 H 1.012 2.57855 3.11918 0
M  V30 14 H -0.418 1.612 2.67831 0
M  V30 15 H -1.198 3.70705 1.34059 0
M  V30 16 H 0.09 4.60554 2.16258 0
M  V30 17 H -0.512 2.90748 4.85265 0
M  V30 18 H -1.955 3.67386 5.38396 0
M  V30 19 N 1.4781 -0.272755 1.55222 0
M  V30 20 C 2.4081 -1.34136 1.91127 0
M  V30 21 C 3.3891 -1.51513 0.773168 0
M  V30 22 O 4.5741 -1.64552 1.03132 0
M  V30 23 C 1.7041 -2.70083 2.1834 0
M  V30 24 C 0.6581 -2.67437 3.34158 0
M  V30 25 C -0.0159 -4.06938 3.46851 0
M  V30 26 C 1.2841 -2.26686 4.70543 0
M  V30 27 H 2.9781 -1.04333 2.80633 0
M  V30 28 H 0.5241 -0.500454 1.35024 0
M  V30 29 H 2.4771 -3.44952 2.42046 0
M  V30 30 H 1.2011 -3.01469 1.25634 0
M  V30 31 H -0.1399 -1.95026 3.1042 0
M  V30 32 H -0.4919 -4.35547 2.51611 0
M  V30 33 H -0.7919 -4.06062 4.2472 0
M  V30 34 H 0.7321 -4.83545 3.72849 0
M  V30 35 H 2.1461 -2.91277 4.93792 0
M  V30 36 H 0.5431 -2.36971 5.5133 0
M  V30 37 H 1.6131 -1.21818 4.69349 0
M  V30 38 N 2.9562 -1.48159 -0.537278 0
M  V30 39 C 3.8882 -1.58218 -1.65831 0
M  V30 40 C 4.9012 -0.466948 -1.5596 0
M  V30 41 O 6.0902 -0.73747 -1.62553 0
M  V30 42 C 3.1902 -1.48906 -3.04434 0
M  V30 43 C 2.3632 -2.75343 -3.3986 0
M  V30 44 C 1.4222 -2.59588 -4.57712 0
M  V30 45 O 0.4482 -3.33457 -4.61297 0
M  V30 46 N 1.6502 -1.68724 -5.55439 0
M  V30 47 H 4.4152 -2.54891 -1.57641 0
M  V30 48 H 1.9762 -1.4479 -0.724386 0
M  V30 49 H 3.9682 -1.36072 -3.81139 0
M  V30 50 H 2.5382 -0.602368 -3.06741 0
M  V30 51 H 1.7582 -3.02795 -2.52406 0
M  V30 52 H 3.0462 -3.5924 -3.60311 0
M  V30 53 H 2.4442 -1.07898 -5.55315 0
M  V30 54 H 1.0012 -1.61832 -6.3139 0
M  V30 55 N 4.4343 0.785586 -1.36625 0
M  V30 56 C 5.3643 1.91259 -1.33949 0
M  V30 57 C 6.3453 1.68795 -0.210325 0
M  V30 58 O 7.5303 1.89854 -0.408561 0
M  V30 59 C 4.6603 3.28339 -1.13186 0
M  V30 60 C 3.6143 3.65335 -2.22967 0
M  V30 61 C 2.9403 5.00806 -1.87342 0
M  V30 62 C 4.2403 3.7352 -3.65075 0
M  V30 63 H 5.9343 1.93755 -2.28253 0
M  V30 64 H 3.4803 0.930788 -1.09874 0
M  V30 65 H 5.4333 4.06804 -1.09948 0
M  V30 66 H 4.1573 3.2624 -0.153332 0
M  V30 67 H 2.8163 2.89169 -2.25337 0
M  V30 68 H 2.4643 4.95233 -0.880545 0
M  V30 69 H 2.1643 5.26529 -2.60846 0
M  V30 70 H 3.6883 5.81687 -1.85667 0
M  V30 71 H 5.1023 4.42168 -3.64911 0
M  V30 72 H 3.4993 4.10731 -4.37516 0
M  V30 73 H 4.5693 2.74527 -3.99703 0
M  V30 74 N 5.9124 1.20967 1.01018 0
M  V30 75 C 6.8444 0.922059 2.09835 0
M  V30 76 C 7.8574 -0.0927106 1.62536 0
M  V30 77 O 9.0464 0.139127 1.77957 0
M  V30 78 C 6.1464 0.362004 3.36961 0
M  V30 79 C 5.3194 1.42986 4.13369 0
M  V30 80 C 4.3784 0.879976 5.1879 0
M  V30 81 O 3.4044 1.56219 5.47343 0
M  V30 82 N 4.6064 -0.307396 5.79686 0
M  V30 83 H 7.3714 1.8588 2.35093 0
M  V30 84 H 4.9324 1.11422 1.1746 0
M  V30 85 H 6.9244 -0.0201474 4.04695 0
M  V30 86 H 5.4944 -0.479437 3.08902 0
M  V30 87 H 4.7144 1.98608 3.40512 0
M  V30 88 H 6.0024 2.14885 4.61196 0
M  V30 89 H 5.4004 -0.878796 5.58832 0
M  V30 90 H 3.9574 -0.631115 6.48737 0
M  V30 91 N 7.3905 -1.2043 1.01659 0
M  V30 92 C 8.3005 -2.2689 0.596484 0
M  V30 93 C 9.3165 -1.70107 -0.36599 0
M  V30 94 O 10.4925 -2.00117 -0.226942 0
M  V30 95 C 7.5575 -3.4665 -0.0586659 0
M  V30 96 C 6.6185 -4.18662 0.949751 0
M  V30 97 C 5.8515 -5.32705 0.32577 0
M  V30 98 O 6.0745 -5.63656 -0.874509 0
M  V30 99 O 5.0085 -5.92803 1.04249 0
M  V30 100 H 8.8345 -2.65041 1.4828 0
M  V30 101 H 6.4195 -1.27048 0.786082 0
M  V30 102 H 8.3015 -4.19256 -0.424564 0
M  V30 103 H 6.9765 -3.10375 -0.91918 0
M  V30 104 H 5.8835 -3.48229 1.36702 0
M  V30 105 H 7.2165 -4.58878 1.78023 0
M  V30 106 N 8.8686 -0.792821 -1.36206 0
M  V30 107 C 10.0936 -0.377701 -2.03932 0
M  V30 108 C 10.5186 0.998947 -1.59382 0
M  V30 109 O 9.8766 1.64421 -0.763903 0
M  V30 110 C 9.9246 -0.453635 -3.57735 0
M  V30 111 O 9.0286 0.538151 -4.08874 0
M  V30 112 H 8.3696 -0.159855 -0.644471 0
M  V30 113 H 10.8996 -1.07488 -1.7409 0
M  V30 114 H 10.9096 -0.318464 -4.06755 0
M  V30 115 H 9.5846 -1.45784 -3.89512 0
M  V30 116 H 8.1616 0.364359 -3.71116 0
M  V30 117 N 10.3467 1.47872 -0.545128 0
M  V30 118 C 11.5947 2.02093 -0.016553 0
M  V30 119 C 11.9157 1.42305 1.3332 0
M  V30 120 O 11.1857 0.593853 1.86682 0
M  V30 121 H 9.7657 0.746993 -0.00313038 0
M  V30 122 H 12.4277 1.81414 -0.712397 0
M  V30 123 H 11.5237 3.11996 0.0805422 0
M  V30 124 N 11.8248 0.280983 1.55075 0
M  V30 125 C 13.2358 -0.215629 1.85451 0
M  V30 126 C 13.5868 -1.54991 1.203 0
M  V30 127 O 12.7118 -2.10699 0.493435 0
M  V30 128 C 13.3068 -0.398026 3.36454 0
M  V30 129 C 11.8658 -0.838866 3.66933 0
M  V30 130 C 11.0128 0.064458 2.77225 0
M  V30 131 H 13.9638 0.502601 1.50531 0
M  V30 132 H 13.9848 -1.23569 3.59876 0
M  V30 133 H 13.4968 0.573241 3.83843 0
M  V30 134 H 11.5978 -1.8214 3.25048 0
M  V30 135 H 11.7108 -0.672123 4.74362 0
M  V30 136 H 10.0748 -0.452863 2.50642 0
M  V30 137 H 10.8578 1.03172 3.2743 0
M  V30 138 N 13.3029 -1.57598 0.00835791 0
M  V30 139 C 14.5509 -1.90551 -0.6734 0
M  V30 140 C 14.8719 -0.883301 -1.73847 0
M  V30 141 O 14.1419 0.0781442 -1.95744 0
M  V30 142 H 12.7219 -0.703312 -0.251717 0
M  V30 143 H 15.3839 -1.94833 0.0512592 0
M  V30 144 H 14.4799 -2.9056 -1.13935 0
M  V30 145 N 14.781 0.264519 -1.55364 0
M  V30 146 C 15.711 1.33121 -1.91836 0
M  V30 147 C 16.692 1.51101 -0.781192 0
M  V30 148 O 17.877 1.64003 -1.04003 0
M  V30 149 C 15.007 2.68921 -2.19769 0
M  V30 150 C 13.961 2.65661 -3.35571 0
M  V30 151 C 13.287 4.05093 -3.49004 0
M  V30 152 C 14.587 2.24187 -4.71739 0
M  V30 153 H 16.281 1.02844 -2.81182 0
M  V30 154 H 13.827 0.493286 -1.35287 0
M  V30 155 H 15.78 3.43663 -2.43872 0
M  V30 156 H 14.504 3.00799 -1.27231 0
M  V30 157 H 13.163 1.93377 -3.1145 0
M  V30 158 H 12.811 4.34206 -2.53917 0
M  V30 159 H 12.511 4.03804 -4.26868 0
M  V30 160 H 14.035 4.81561 -3.75408 0
M  V30 161 H 15.449 2.88654 -4.9533 0
M  V30 162 H 13.846 2.34044 -5.52579 0
M  V30 163 H 14.916 1.19327 -4.69988 0
M  V30 164 N 16.2591 1.48442 0.529413 0
M  V30 165 C 17.5051 1.5672 1.28711 0
M  V30 166 C 17.8381 0.2406 1.92704 0
M  V30 167 O 17.1131 -0.753454 1.79313 0
M  V30 168 C 17.3961 2.70587 2.37603 0
M  V30 169 C 17.2491 4.12953 1.78297 0
M  V30 170 C 18.5681 2.80212 3.39366 0
M  V30 171 H 15.6871 0.570474 0.466613 0
M  V30 172 H 18.3291 1.80617 0.589706 0
M  V30 173 H 16.4791 2.50342 2.97088 0
M  V30 174 H 18.1511 4.44639 1.22858 0
M  V30 175 H 16.3941 4.19927 1.0883 0
M  V30 176 H 17.0651 4.88448 2.57144 0
M  V30 177 H 19.5411 2.98553 2.89836 0
M  V30 178 H 18.4171 3.61611 4.12951 0
M  V30 179 H 18.6781 1.88393 3.99951 0
M  V30 180 N 17.7372 -0.778329 1.37039 0
M  V30 181 C 18.6842 -1.89139 1.32269 0
M  V30 182 C 19.6542 -1.65017 0.189387 0
M  V30 183 O 20.8392 -1.87024 0.377693 0
M  V30 184 C 17.9792 -3.26112 1.12894 0
M  V30 185 C 17.0922 -3.62233 2.35396 0
M  V30 186 C 16.2272 -4.8838 2.08946 0
M  V30 187 C 15.2662 -5.17212 3.2735 0
M  V30 188 N 14.4032 -6.34546 3.00492 0
M  V30 189 H 19.2432 -1.92552 2.27437 0
M  V30 190 H 16.7802 -0.941473 1.13025 0
M  V30 191 H 18.7382 -4.05116 0.996835 0
M  V30 192 H 17.3682 -3.22091 0.213758 0
M  V30 193 H 16.4202 -2.78265 2.5937 0
M  V30 194 H 17.7322 -3.79481 3.23721 0
M  V30 195 H 16.8862 -5.75274 1.92729 0
M  V30 196 H 15.6252 -4.73222 1.17949 0
M  V30 197 H 14.6302 -4.28796 3.44113 0
M  V30 198 H 15.8552 -5.34283 4.19188 0
M  V30 199 H 13.8012 -6.20759 2.12118 0
M  V30 200 H 13.7182 -6.52179 3.82358 0
M  V30 201 H 14.9862 -7.24394 2.87879 0
M  V30 202 N 19.2153 -1.21501 -1.00376 0
M  V30 203 C 20.6263 -1.03146 -1.55621 0
M  V30 204 C 20.9773 0.408375 -1.91903 0
M  V30 205 O 20.1023 1.29177 -1.73616 0
M  V30 206 C 20.6973 -1.86612 -2.82775 0
M  V30 207 C 19.2563 -1.72586 -3.34501 0
M  V30 208 C 18.4033 -1.83747 -2.07683 0
M  V30 209 H 21.3543 -1.35505 -0.826081 0
M  V30 210 H 21.3753 -1.3771 -3.54706 0
M  V30 211 H 20.8873 -2.91399 -2.56336 0
M  V30 212 H 18.9883 -0.704877 -3.65872 0
M  V30 213 H 19.1013 -2.54623 -4.05837 0
M  V30 214 H 17.4653 -1.27069 -2.20739 0
M  V30 215 H 18.2483 -2.90044 -1.83655 0
M  V30 216 N 20.6934 1.19889 -1.02296 0
M  V30 217 C 21.9184 1.9393 -0.735237 0
M  V30 218 C 22.3434 1.74639 0.698782 0
M  V30 219 O 21.7014 1.04481 1.48167 0
M  V30 220 C 21.7494 3.43916 -1.08417 0
M  V30 221 O 20.8534 4.11917 -0.199446 0
M  V30 222 H 20.1944 0.605645 -0.272196 0
M  V30 223 H 22.7244 1.52137 -1.36804 0
M  V30 224 H 22.7344 3.9456 -1.03856 0
M  V30 225 H 21.4094 3.5728 -2.12894 0
M  V30 226 H 19.9864 3.71666 -0.303136 0
M  V30 227 N 22.1715 0.800033 1.35784 0
M  V30 228 C 23.0815 0.207204 2.33683 0
M  V30 229 C 24.0975 -0.64631 1.61551 0
M  V30 230 O 25.2735 -0.559604 1.93469 0
M  V30 231 C 22.3385 -0.639659 3.40748 0
M  V30 232 C 21.3995 0.233585 4.28664 0
M  V30 233 C 20.6325 -0.572954 5.30616 0
M  V30 234 O 20.8555 -1.80816 5.40982 0
M  V30 235 O 19.7895 0.0327285 6.01891 0
M  V30 236 H 23.6155 1.01692 2.86169 0
M  V30 237 H 21.2005 0.561691 1.38439 0
M  V30 238 H 23.0825 -1.12223 4.06182 0
M  V30 239 H 21.7575 -1.42708 2.90544 0
M  V30 240 H 20.6645 0.763147 3.66233 0
M  V30 241 H 21.9975 0.984784 4.82248 0
M  V30 242 N 23.6496 -1.47581 0.552962 0
M  V30 243 C 24.8776 -2.06875 0.0320556 0
M  V30 244 C 25.2926 -1.40625 -1.25976 0
M  V30 245 O 24.6496 -0.501349 -1.75479 0
M  V30 246 C 24.7006 -3.61092 -0.17167 0
M  V30 247 O 24.4216 -4.24858 1.06899 0
M  V30 248 C 25.9226 -4.37242 -0.730344 0
M  V30 249 H 23.1426 -0.669561 0.043915 0
M  V30 250 H 25.6866 -1.89646 0.765163 0
M  V30 251 H 23.8416 -3.7785 -0.854894 0
M  V30 252 H 24.2556 -5.17334 0.864059 0
M  V30 253 H 25.7296 -5.45842 -0.822203 0
M  V30 254 H 26.2066 -4.03235 -1.74064 0
M  V30 255 H 26.8126 -4.25219 -0.0829543 0
M  V30 256 N 25.1277 -0.289203 -1.54924 0
M  V30 257 C 26.0577 0.58549 -2.2604 0
M  V30 258 C 27.0387 1.14753 -1.25562 0
M  V30 259 O 28.2237 1.17906 -1.54311 0
M  V30 260 C 25.3537 1.76305 -2.99222 0
M  V30 261 C 24.3077 1.33191 -4.06748 0
M  V30 262 C 23.6337 2.5937 -4.6758 0
M  V30 263 C 24.9337 0.471775 -5.20165 0
M  V30 264 H 26.6277 -0.00763532 -2.99399 0
M  V30 265 H 24.1737 -0.00511229 -1.43999 0
M  V30 266 H 26.1267 2.38097 -3.47689 0
M  V30 267 H 24.8507 2.38223 -2.23422 0
M  V30 268 H 23.5097 0.737121 -3.59113 0
M  V30 269 H 23.1577 3.19576 -3.88433 0
M  V30 270 H 22.8577 2.31228 -5.40192 0
M  V30 271 H 24.3817 3.21985 -5.18804 0
M  V30 272 H 25.7957 0.995056 -5.64599 0
M  V30 273 H 24.1927 0.284639 -5.99425 0
M  V30 274 H 25.2627 -0.506041 -4.82252 0
M  V30 275 N 26.6058 1.57591 -0.0167156 0
M  V30 276 C 27.8308 1.9598 0.67872 0
M  V30 277 C 28.2558 0.892546 1.65575 0
M  V30 278 O 27.6138 -0.147772 1.80697 0
M  V30 279 C 27.6618 3.33468 1.37227 0
M  V30 280 O 26.7658 3.28954 2.48722 0
M  V30 281 H 26.1068 0.639339 0.17928 0
M  V30 282 H 28.6368 2.04463 -0.0748802 0
M  V30 283 H 28.6468 3.69417 1.7319 0
M  V30 284 H 27.3218 4.10694 0.656007 0
M  V30 285 H 25.8988 3.04705 2.14963 0
M  V30 286 N 28.0839 -0.256276 1.55502 0
M  V30 287 C 29.0139 -1.32102 1.92539 0
M  V30 288 C 29.9949 -1.50684 0.789194 0
M  V30 289 O 31.1799 -1.63449 1.04872 0
M  V30 290 C 28.3099 -2.67752 2.21192 0
M  V30 291 C 27.2639 -2.63878 3.36975 0
M  V30 292 C 26.5899 -4.03236 3.51147 0
M  V30 293 C 27.8899 -2.21682 4.72921 0
M  V30 294 H 29.5839 -1.01351 2.81724 0
M  V30 295 H 27.1299 -0.486105 1.35547 0
M  V30 296 H 29.0829 -3.42365 2.45691 0
M  V30 297 H 27.8069 -3.0012 1.28824 0
M  V30 298 H 26.4659 -1.91722 3.12471 0
M  V30 299 H 26.1139 -4.32854 2.56216 0
M  V30 300 H 25.8139 -4.01535 4.29003 0
M  V30 301 H 27.3379 -4.79563 3.77957 0
M  V30 302 H 28.7519 -2.86023 4.96854 0
M  V30 303 H 27.1489 -2.3111 5.53812 0
M  V30 304 H 28.2189 -1.16833 4.70615 0
M  V30 305 N 29.562 -1.4872 -0.521534 0
M  V30 306 C 30.79 -1.60843 -1.30142 0
M  V30 307 C 31.205 -0.271897 -1.86832 0
M  V30 308 O 30.562 0.739969 -1.66825 0
M  V30 309 C 30.613 -2.66155 -2.4463 0
M  V30 310 O 30.334 -3.94623 -1.90275 0
M  V30 311 C 31.835 -2.88795 -3.36322 0
M  V30 312 H 29.055 -0.542075 -0.395468 0
M  V30 313 H 31.599 -1.94609 -0.628285 0
M  V30 314 H 29.754 -2.35224 -3.07812 0
M  V30 315 H 30.168 -4.52468 -2.65279 0
M  V30 316 H 31.642 -3.66264 -4.12983 0
M  V30 317 H 32.119 -1.97934 -3.9207 0
M  V30 318 H 32.725 -3.21063 -2.78924 0
M  V30 319 N 31.0401 0.771051 -1.3745 0
M  V30 320 C 32.2801 1.54264 -1.34096 0
M  V30 321 C 32.6441 1.91858 0.0737639 0
M  V30 322 O 33.8451 2.67797 0.23203 0
M  V30 323 C 32.1161 2.77326 -2.25445 0
M  V30 324 S 33.6751 3.67383 -2.39948 0
M  V30 325 H 30.4931 0.528122 -0.476034 0
M  V30 326 H 33.0951 0.906633 -1.73206 0
M  V30 327 H 31.7991 2.47788 -3.27153 0
M  V30 328 H 31.3301 3.45886 -1.87421 0
M  V30 329 H 33.3451 4.69334 -1.61059 0
M  V30 330 N 32.5182 1.22032 0.997298 0
M  V30 331 C 33.7462 1.06841 1.7718 0
M  V30 332 C 34.1612 -0.381325 1.84909 0
M  V30 333 O 33.5182 -1.26437 1.31605 0
M  V30 334 C 33.5692 1.66814 3.20711 0
M  V30 335 O 33.2902 3.06116 3.13408 0
M  V30 336 C 34.7912 1.56838 4.14628 0
M  V30 337 H 32.0112 0.374782 0.556578 0
M  V30 338 H 34.5552 1.61532 1.2541 0
M  V30 339 H 32.7102 1.16196 3.69564 0
M  V30 340 H 33.1242 3.34926 4.0364 0
M  V30 341 H 34.5982 2.03532 5.13107 0
M  V30 342 H 35.0752 0.524155 4.36061 0
M  V30 343 H 35.6812 2.06741 3.7167 0
M  V30 344 N 33.9963 -1.19345 1.0293 0
M  V30 345 C 35.2423 -1.89318 0.727083 0
M  V30 346 C 35.5753 -1.79446 -0.742483 0
M  V30 347 O 34.8503 -1.1871 -1.54072 0
M  V30 348 C 35.1333 -3.40238 1.17942 0
M  V30 349 C 34.9863 -3.58979 2.71024 0
M  V30 350 C 36.3053 -4.33479 0.760548 0
M  V30 351 H 33.4243 -0.687475 0.265606 0
M  V30 352 H 36.0663 -1.40477 1.2793 0
M  V30 353 H 34.2163 -3.81964 0.709608 0
M  V30 354 H 35.8883 -3.26421 3.25955 0
M  V30 355 H 34.1313 -3.02018 3.11396 0
M  V30 356 H 34.8023 -4.64823 2.9773 0
M  V30 357 H 37.2783 -3.99469 1.16464 0
M  V30 358 H 36.1543 -5.37664 1.10493 0
M  V30 359 H 36.4153 -4.40813 -0.337063 0
M  V30 360 N 35.4744 -0.807222 -1.35358 0
M  V30 361 C 36.6994 -0.399309 -2.0352 0
M  V30 362 C 37.1244 0.981986 -1.60433 0
M  V30 363 O 36.4824 1.63601 -0.781299 0
M  V30 364 C 36.5304 -0.491552 -3.57234 0
M  V30 365 O 35.6344 0.494754 -4.09421 0
M  V30 366 H 34.9754 -0.166682 -0.642739 0
M  V30 367 H 37.5054 -1.09328 -1.72941 0
M  V30 368 H 37.5154 -0.361588 -4.06395 0
M  V30 369 H 36.1904 -1.49907 -3.87944 0
M  V30 370 H 34.7674 0.324977 -3.71481 0
M  V30 371 N 36.9525 1.47285 -0.560781 0
M  V30 372 C 38.2005 2.02064 -0.0379868 0
M  V30 373 C 38.5215 1.43711 1.31803 0
M  V30 374 O 37.7915 0.61362 1.86042 0
M  V30 375 H 36.3715 0.746918 -0.0110531 0
M  V30 376 H 39.0335 1.80648 -0.731598 0
M  V30 377 H 38.1295 3.12064 0.0474463 0
M  V30 378 N 38.4306 0.297415 1.54768 0
M  V30 379 C 39.6786 -0.312295 1.99673 0
M  V30 380 C 39.9996 -1.54686 1.18732 0
M  V30 381 O 39.2696 -1.93854 0.282382 0
M  V30 382 H 37.8496 -0.118381 0.73756 0
M  V30 383 H 40.5116 0.407915 1.90583 0
M  V30 384 H 39.6076 -0.586813 3.06534 0
M  V30 385 N 39.9087 -1.5758 0.0250728 0
M  V30 386 C 41.1337 -1.96337 -0.668317 0
M  V30 387 C 41.5587 -0.901314 -1.651 0
M  V30 388 O 40.9167 0.138187 -1.80773 0
M  V30 389 C 40.9647 -3.34191 -1.35457 0
M  V30 390 O 40.0687 -3.30269 -2.46974 0
M  V30 391 H 39.4097 -0.640281 -0.175887 0
M  V30 392 H 41.9397 -2.0442 0.0857224 0
M  V30 393 H 41.9497 -3.70331 -1.71228 0
M  V30 394 H 40.6247 -4.11036 -0.634218 0
M  V30 395 H 39.2017 -3.05841 -2.13344 0
M  V30 396 N 41.3868 0.248026 -1.55636 0
M  V30 397 C 42.6358 0.974134 -1.76617 0
M  V30 398 C 42.9488 1.86528 -0.588796 0
M  V30 399 O 44.1548 2.62805 -0.681594 0
M  V30 400 C 42.6108 1.78213 -3.12679 0
M  V30 401 C 42.2188 0.93843 -4.38061 0
M  V30 402 C 43.9628 2.50104 -3.42999 0
M  V30 403 C 41.8698 1.74225 -5.65155 0
M  V30 404 H 40.7998 0.36745 -0.658405 0
M  V30 405 H 43.4508 0.22884 -1.82067 0
M  V30 406 H 41.8328 2.56933 -3.01333 0
M  V30 407 H 43.0068 0.193635 -4.60393 0
M  V30 408 H 41.3218 0.332905 -4.15067 0
M  V30 409 H 43.9188 3.10694 -4.3517 0
M  V30 410 H 44.2618 3.21662 -2.64271 0
M  V30 411 H 44.7948 1.78395 -3.55556 0
M  V30 412 H 41.5338 1.07043 -6.46701 0
M  V30 413 H 41.0538 2.46235 -5.46926 0
M  V30 414 H 42.7328 2.30967 -6.0437 0
M  V30 415 N 42.8649 1.48995 0.513639 0
M  V30 416 C 43.8129 1.65199 1.63744 0
M  V30 417 C 44.8069 0.51809 1.61283 0
M  V30 418 O 46.0129 0.697335 1.65943 0
M  V30 419 H 42.3879 0.52069 0.542574 0
M  V30 420 H 44.3589 2.59552 1.47226 0
M  V30 421 C 43.1079 1.72409 3.01945 0
M  V30 422 H 42.4309 2.59029 3.04539 0
M  V30 423 H 43.8709 1.87785 3.80148 0
M  V30 424 C 42.3299 0.46618 3.33659 0
M  V30 425 O 42.8599 -0.413744 3.99564 0
M  V30 426 N 41.0659 0.332931 2.88687 0
M  V30 427 H 40.6129 1.04996 2.35231 0
M  V30 428 H 40.5709 -0.507665 3.10274 0
M  V30 429 N 44.343 -0.763751 1.37857 0
M  V30 430 C 45.568 -1.55805 1.36893 0
M  V30 431 C 45.993 -1.88054 -0.0416135 0
M  V30 432 O 45.351 -1.49825 -1.02089 0
M  V30 433 C 45.399 -2.84012 2.22192 0
M  V30 434 O 44.503 -3.78732 1.63204 0
M  V30 435 H 43.844 -0.471638 0.46739 0
M  V30 436 H 46.374 -0.944657 1.81487 0
M  V30 437 H 46.384 -3.33037 2.35691 0
M  V30 438 H 45.059 -2.59869 3.24716 0
M  V30 439 H 43.636 -3.37402 1.58791 0
M  V30 440 N 45.8211 -1.22559 -0.990812 0
M  V30 441 C 47.0461 -1.07862 -1.77145 0
M  V30 442 C 47.4711 0.366447 -1.84496 0
M  V30 443 O 46.8291 1.26478 -1.29896 0
M  V30 444 C 46.8771 -1.69686 -3.18181 0
M  V30 445 O 45.9811 -0.951946 -4.01263 0
M  V30 446 H 45.3221 -0.378712 -0.545411 0
M  V30 447 H 47.8521 -1.62399 -1.2445 0
M  V30 448 H 47.8621 -1.74496 -3.68802 0
M  V30 449 H 46.5371 -2.74841 -3.12146 0
M  V30 450 H 45.1141 -0.980011 -3.59792 0
M  V30 451 N 47.2992 1.18797 -1.03562 0
M  V30 452 C 48.5242 1.9314 -0.755764 0
M  V30 453 C 48.9492 1.7537 0.68022 0
M  V30 454 O 48.3072 1.06046 1.47051 0
M  V30 455 C 48.3552 3.42747 -1.12058 0
M  V30 456 O 47.4592 4.11683 -0.243124 0
M  V30 457 H 46.8002 0.602724 -0.278604 0
M  V30 458 H 49.3302 1.50678 -1.3841 0
M  V30 459 H 49.3402 3.93437 -1.08035 0
M  V30 460 H 48.0152 3.55002 -2.16672 0
M  V30 461 H 46.5922 3.71323 -0.342539 0
M  V30 462 N 48.7773 0.814389 1.34928 0
M  V30 463 C 50.0073 0.41054 2.0248 0
M  V30 464 C 50.4153 -0.985625 1.61499 0
M  V30 465 O 49.7583 -1.64781 0.811976 0
M  V30 466 C 49.8203 0.423384 3.56998 0
M  V30 467 C 49.4843 1.77141 4.21272 0
M  V30 468 C 50.4813 2.73093 4.42398 0
M  V30 469 C 48.1663 2.05755 4.58225 0
M  V30 470 C 50.1603 3.95838 4.9959 0
M  V30 471 C 47.8473 3.28762 5.1513 0
M  V30 472 C 48.8453 4.23621 5.35755 0
M  V30 473 O 48.5333 5.44456 5.91458 0
M  V30 474 H 48.2653 0.163997 0.655806 0
M  V30 475 H 50.8193 1.10155 1.73364 0
M  V30 476 H 49.0493 -0.324276 3.85338 0
M  V30 477 H 50.7383 0.0407683 4.0588 0
M  V30 478 H 51.5043 2.5228 4.14222 0
M  V30 479 H 47.3833 1.32727 4.4148 0
M  V30 480 H 50.9273 4.69891 5.15605 0
M  V30 481 H 46.8243 3.49443 5.42734 0
M  V30 482 H 47.5923 5.4586 6.09901 0
M  V30 483 N 50.2554 -1.46986 0.568584 0
M  V30 484 C 51.4854 -2.0653 0.0539173 0
M  V30 485 C 51.8934 -1.42004 -1.25026 0
M  V30 486 O 51.2364 -0.514541 -1.76347 0
M  V30 487 C 51.2984 -3.58938 -0.200854 0
M  V30 488 C 50.9624 -4.45572 1.01559 0
M  V30 489 C 51.9594 -4.82986 1.92407 0
M  V30 490 C 49.6444 -4.8692 1.23346 0
M  V30 491 C 51.6384 -5.60559 3.03402 0
M  V30 492 C 49.3254 -5.64255 2.34649 0
M  V30 493 C 50.3234 -6.00986 3.24507 0
M  V30 494 O 50.0114 -6.76761 4.33878 0
M  V30 495 H 49.7434 -0.674292 0.0480234 0
M  V30 496 H 52.2974 -1.89812 0.784896 0
M  V30 497 H 50.5274 -3.73911 -0.986279 0
M  V30 498 H 52.2164 -4.0046 -0.662294 0
M  V30 499 H 52.9824 -4.51633 1.76785 0
M  V30 500 H 48.8614 -4.57789 0.543178 0
M  V30 501 H 52.4054 -5.89147 3.73565 0
M  V30 502 H 48.3024 -5.95021 2.5024 0
M  V30 503 H 49.0704 -6.95168 4.32068 0
M  V30 504 N 51.7335 -0.305618 -1.54608 0
M  V30 505 C 52.9795 0.295595 -2.01241 0
M  V30 506 C 53.3345 1.51171 -1.19018 0
M  V30 507 O 52.6275 1.89832 -0.259684 0
M  V30 508 C 52.8215 0.698983 -3.50498 0
M  V30 509 C 52.6505 -0.476491 -4.47168 0
M  V30 510 C 51.4205 -0.969963 -4.95903 0
M  V30 511 C 53.6185 -1.32294 -4.96994 0
M  V30 512 N 51.6005 -2.11172 -5.76437 0
M  V30 513 C 52.9715 -2.31212 -5.75275 0
M  V30 514 C 55.0265 -1.35278 -4.7917 0
M  V30 515 C 53.7295 -3.32896 -6.37631 0
M  V30 516 C 55.7555 -2.35823 -5.42348 0
M  V30 517 C 55.1175 -3.33469 -6.20466 0
M  V30 518 H 51.2165 0.0724992 -0.778632 0
M  V30 519 H 53.8005 -0.436583 -1.89742 0
M  V30 520 H 51.9715 1.40032 -3.62278 0
M  V30 521 H 53.7035 1.28013 -3.8392 0
M  V30 522 H 50.4585 -0.544178 -4.70463 0
M  V30 523 H 50.8825 -2.68714 -6.21387 0
M  V30 524 H 55.5245 -0.61157 -4.18354 0
M  V30 525 H 53.2425 -4.07933 -6.97579 0
M  V30 526 H 56.8285 -2.38911 -5.30484 0
M  V30 527 H 55.7085 -4.09996 -6.68485 0
M  V30 528 N 53.2116 1.57565 -0.0334293 0
M  V30 529 C 54.4596 1.91598 0.642999 0
M  V30 530 C 54.7806 0.910847 1.7242 0
M  V30 531 O 54.0506 -0.0469931 1.95844 0
M  V30 532 H 52.6306 0.707228 0.240496 0
M  V30 533 H 55.2926 1.94726 -0.0822488 0
M  V30 534 H 54.3886 2.92336 1.09298 0
M  V30 535 N 54.6897 -0.239769 1.55765 0
M  V30 536 C 55.9357 -0.963942 1.79108 0
M  V30 537 C 56.2907 -1.82689 0.60352 0
M  V30 538 O 55.5837 -1.87313 -0.403033 0
M  V30 539 C 55.7777 -1.852 3.05672 0
M  V30 540 C 55.6067 -1.07651 4.36625 0
M  V30 541 C 54.3767 -0.778738 4.99263 0
M  V30 542 C 56.5747 -0.45062 5.12322 0
M  V30 543 N 54.5567 0.0200708 6.13897 0
M  V30 544 C 55.9277 0.212429 6.19636 0
M  V30 545 C 57.9827 -0.361806 4.96584 0
M  V30 546 C 56.6857 0.955772 7.12922 0
M  V30 547 C 58.7117 0.368023 5.90254 0
M  V30 548 C 58.0737 1.01968 6.96981 0
M  V30 549 H 54.1727 -0.333601 0.707272 0
M  V30 550 H 56.7567 -0.236425 1.93259 0
M  V30 551 H 54.9277 -2.55149 2.92837 0
M  V30 552 H 56.6597 -2.51228 3.1728 0
M  V30 553 H 53.4147 -1.09229 4.60832 0
M  V30 554 H 53.8387 0.407777 6.75771 0
M  V30 555 H 58.4807 -0.851286 4.14141 0
M  V30 556 H 56.1987 1.45683 7.9486 0
M  V30 557 H 59.7847 0.437504 5.80153 0
M  V30 558 H 58.6647 1.5754 7.68213 0
M  V30 559 N 56.1678 -1.49265 -0.50573 0
M  V30 560 C 57.0978 -1.68495 -1.61653 0
M  V30 561 C 58.0788 -0.53366 -1.61512 0
M  V30 562 O 59.2638 -0.76897 -1.78327 0
M  V30 563 C 56.3938 -1.74709 -3.00157 0
M  V30 564 C 55.3478 -2.89581 -3.15162 0
M  V30 565 C 54.6738 -2.80903 -4.5497 0
M  V30 566 C 55.9738 -4.30578 -2.95634 0
M  V30 567 H 57.6678 -2.61493 -1.45814 0
M  V30 568 H 55.2138 -1.25838 -0.70005 0
M  V30 569 H 57.1668 -1.86748 -3.77761 0
M  V30 570 H 55.8908 -0.783067 -3.17074 0
M  V30 571 H 54.5498 -2.77136 -2.39982 0
M  V30 572 H 54.1978 -1.82419 -4.68756 0
M  V30 573 H 53.8978 -3.57999 -4.65951 0
M  V30 574 H 55.4218 -2.94944 -5.34641 0
M  V30 575 H 56.8358 -4.4373 -3.63011 0
M  V30 576 H 55.2328 -5.0886 -3.18091 0
M  V30 577 H 56.3028 -4.45352 -1.91806 0
M  V30 578 N 57.6459 0.756429 -1.3826 0
M  V30 579 C 59.0619 1.0591 -1.19395 0
M  V30 580 C 59.2619 2.01459 -0.0406567 0
M  V30 581 O 58.3179 2.44909 0.614467 0
M  V30 582 C 59.6309 1.64191 -2.51916 0
M  V30 583 C 61.1789 1.76376 -2.58574 0
M  V30 584 C 61.6539 2.38069 -3.91264 0
M  V30 585 N 63.1449 2.45503 -3.92788 0
M  V30 586 C 63.8799 2.94126 -4.92217 0
M  V30 587 N 63.3759 3.42805 -6.02043 0
M  V30 588 N 65.1689 2.9314 -4.7961 0
M  V30 589 H 57.3199 0.122313 -2.12048 0
M  V30 590 H 59.5829 0.116892 -0.940766 0
M  V30 591 H 59.2889 1.01451 -3.3675 0
M  V30 592 H 59.1629 2.6329 -2.70108 0
M  V30 593 H 61.5499 2.38244 -1.74137 0
M  V30 594 H 61.6309 0.759894 -2.44252 0
M  V30 595 H 61.2749 1.76835 -4.76121 0
M  V30 596 H 61.2049 3.39091 -4.02895 0
M  V30 597 H 63.6959 2.1107 -3.13461 0
M  V30 598 H 64.0089 3.78354 -6.73846 0
M  V30 599 H 62.3539 3.4087 -6.05667 0
M  V30 600 H 65.5449 2.54419 -3.92923 0
M  V30 601 H 65.7179 3.30721 -5.5725 0
M  V30 602 N 59.124 1.23083 0.984299 0
M  V30 603 C 60.056 0.96636 2.07832 0
M  V30 604 C 61.069 -0.0582135 1.62696 0
M  V30 605 O 62.258 0.176843 1.77622 0
M  V30 606 C 59.358 0.433397 3.36117 0
M  V30 607 C 58.531 1.51722 4.10243 0
M  V30 608 C 57.59 0.989821 5.16807 0
M  V30 609 O 56.616 1.67794 5.43906 0
M  V30 610 N 57.818 -0.184367 5.80207 0
M  V30 611 H 60.583 1.90824 2.31098 0
M  V30 612 H 58.144 1.13888 1.1507 0
M  V30 613 H 60.136 0.065699 4.04647 0
M  V30 614 H 58.706 -0.413806 3.09849 0
M  V30 615 H 57.926 2.05786 3.36223 0
M  V30 616 H 59.214 2.24619 4.56534 0
M  V30 617 H 58.612 -0.760062 5.60571 0
M  V30 618 H 57.169 -0.493366 6.4993 0
M  V30 619 N 60.6021 -1.18246 1.0419 0
M  V30 620 C 61.8271 -1.92736 0.765996 0
M  V30 621 C 62.2521 -1.75728 -0.67091 0
M  V30 622 O 61.6101 -1.06825 -1.46486 0
M  V30 623 C 61.6581 -3.42148 1.13875 0
M  V30 624 O 60.7621 -4.11548 0.264954 0
M  V30 625 H 60.1031 -0.601238 0.281797 0
M  V30 626 H 62.6331 -1.49942 1.39207 0
M  V30 627 H 62.6431 -3.92858 1.1012 0
M  V30 628 H 61.3181 -3.53848 2.18551 0
M  V30 629 H 59.8951 -3.71137 0.362226 0
M  V30 630 N 62.0802 -0.821533 -1.34494 0
M  V30 631 C 63.4912 -0.467956 -1.8074 0
M  V30 632 C 63.8422 1.01151 -1.68116 0
M  V30 633 O 62.9672 1.78707 -1.22036 0
M  V30 634 C 63.5622 -0.842627 -3.28154 0
M  V30 635 C 62.1212 -0.541439 -3.72485 0
M  V30 636 C 61.2682 -1.06028 -2.56229 0
M  V30 637 H 64.2192 -1.01183 -1.22261 0
M  V30 638 H 64.2402 -0.145876 -3.8022 0
M  V30 639 H 63.7522 -1.91945 -3.37311 0
M  V30 640 H 61.8532 0.526034 -3.68868 0
M  V30 641 H 61.9662 -1.08453 -4.66663 0
M  V30 642 H 60.3302 -0.481892 -2.501 0
M  V30 643 H 61.1132 -2.14352 -2.68157 0
M  V30 644 N 63.5583 1.46682 -0.576371 0
M  V30 645 C 64.8063 2.02013 -0.0594163 0
M  V30 646 C 65.1273 1.45101 1.30271 0
M  V30 647 O 64.3973 0.633317 1.8538 0
M  V30 648 H 62.9773 0.746759 -0.0189745 0
M  V30 649 H 65.6393 1.79862 -0.750717 0
M  V30 650 H 64.7353 3.12097 0.014345 0
M  V30 651 N 65.0364 0.313813 1.54444 0
M  V30 652 C 65.9834 -0.55655 2.23989 0
M  V30 653 C 66.9534 -1.11943 1.22711 0
M  V30 654 O 68.1384 -1.16158 1.51367 0
M  V30 655 C 65.2784 -1.71635 2.99392 0
M  V30 656 C 64.3914 -1.18364 4.15468 0
M  V30 657 C 63.5264 -2.30834 4.78424 0
M  V30 658 C 62.5654 -1.74762 5.86622 0
M  V30 659 N 61.7024 -2.80855 6.43479 0
M  V30 660 H 66.5424 0.0430893 2.97969 0
M  V30 661 H 64.0794 0.0330359 1.47063 0
M  V30 662 H 66.0374 -2.39868 3.41349 0
M  V30 663 H 64.6674 -2.28742 2.27765 0
M  V30 664 H 63.7194 -0.393163 3.78363 0
M  V30 665 H 65.0314 -0.733262 4.93381 0
M  V30 666 H 64.1854 -3.0699 5.23299 0
M  V30 667 H 62.9244 -2.79204 3.99871 0
M  V30 668 H 61.9294 -0.970995 5.41158 0
M  V30 669 H 63.1544 -1.2728 6.67066 0
M  V30 670 H 61.1004 -3.28535 5.67804 0
M  V30 671 H 61.0174 -2.40351 7.16776 0
M  V30 672 H 62.2854 -3.5687 6.93011 0
M  V30 673 N 66.5145 -1.57545 0.0417849 0
M  V30 674 C 67.7625 -1.91937 -0.632829 0
M  V30 675 C 68.0835 -0.919978 -1.71934 0
M  V30 676 O 67.3535 0.0366064 -1.95866 0
M  V30 677 H 65.9335 -0.708493 -0.236742 0
M  V30 678 H 68.5955 -1.9468 0.0925745 0
M  V30 679 H 67.6915 -2.92912 -1.07746 0
M  V30 680 N 67.9926 0.231505 -1.5589 0
M  V30 681 C 68.9226 1.29022 -1.94617 0
M  V30 682 C 69.9036 1.4941 -0.813067 0
M  V30 683 O 71.0886 1.6176 -1.07459 0
M  V30 684 C 68.2186 2.64199 -2.25424 0
M  V30 685 C 67.1726 2.58484 -3.41131 0
M  V30 686 C 66.4986 3.97599 -3.57518 0
M  V30 687 C 67.7986 2.1413 -4.76388 0
M  V30 688 H 69.4926 0.968563 -2.83301 0
M  V30 689 H 67.0386 0.464479 -1.36303 0
M  V30 690 H 68.9916 3.38413 -2.51107 0
M  V30 691 H 67.7156 2.98032 -1.33583 0
M  V30 692 H 66.3746 1.86727 -3.15481 0
M  V30 693 H 66.0226 4.28723 -2.6307 0
M  V30 694 H 65.7226 3.94659 -4.35337 0
M  V30 695 H 67.2466 4.7349 -3.85538 0
M  V30 696 H 68.6606 2.78083 -5.01341 0
M  V30 697 H 67.0576 2.2227 -5.57419 0
M  V30 698 H 68.1276 1.09331 -4.72414 0
M  V30 699 N 69.4707 1.49531 0.497807 0
M  V30 700 C 70.3807 1.69176 1.62532 0
M  V30 701 C 71.3967 0.5744 1.64246 0
M  V30 702 O 72.5727 0.849497 1.82608 0
M  V30 703 C 69.6377 1.75695 2.98885 0
M  V30 704 C 68.6987 2.9929 3.07773 0
M  V30 705 C 67.9317 3.05488 4.37622 0
M  V30 706 O 68.1547 2.19192 5.26603 0
M  V30 707 O 67.0887 3.9798 4.51548 0
M  V30 708 H 70.9147 2.647 1.48887 0
M  V30 709 H 68.4997 1.3331 0.674441 0
M  V30 710 H 70.3817 1.82317 3.79919 0
M  V30 711 H 69.0567 0.8335 3.12785 0
M  V30 712 H 67.9637 2.98183 2.25915 0
M  V30 713 H 69.2967 3.91125 2.98801 0
M  V30 714 N 70.9488 -0.749086 1.3866 0
M  V30 715 C 72.1948 -1.50959 1.36319 0
M  V30 716 C 72.5498 -1.92347 -0.0452451 0
M  V30 717 O 71.8428 -1.6289 -1.00884 0
M  V30 718 C 72.0368 -2.7712 2.25697 0
M  V30 719 C 71.8658 -2.48067 3.7509 0
M  V30 720 C 70.6358 -2.41062 4.44091 0
M  V30 721 C 72.8338 -2.14544 4.67414 0
M  V30 722 N 70.8158 -2.04331 5.78897 0
M  V30 723 C 72.1868 -1.88141 5.90765 0
M  V30 724 C 74.2418 -2.00892 4.55573 0
M  V30 725 C 72.9448 -1.49463 7.036 0
M  V30 726 C 74.9708 -1.63616 5.68317 0
M  V30 727 C 74.3328 -1.38088 6.90732 0
M  V30 728 H 70.4318 -0.551804 0.554108 0
M  V30 729 H 73.0158 -0.871886 1.74087 0
M  V30 730 H 71.1868 -3.38693 1.9011 0
M  V30 731 H 72.9188 -3.4321 2.1445 0
M  V30 732 H 69.6738 -2.57685 3.9736 0
M  V30 733 H 70.0978 -1.88598 6.502 0
M  V30 734 H 74.7398 -2.19301 3.61479 0
M  V30 735 H 72.4578 -1.29794 7.97608 0
M  V30 736 H 76.0438 -1.53678 5.61137 0
M  V30 737 H 74.9238 -1.09674 7.76493 0
M  V30 738 N 72.4269 -1.23603 -0.977757 0
M  V30 739 C 73.6759 -1.06377 -1.71368 0
M  V30 740 C 73.9889 0.399062 -1.91486 0
M  V30 741 O 75.1949 0.691312 -2.62551 0
M  V30 742 C 73.6509 -1.85512 -3.08404 0
M  V30 743 C 73.2589 -3.36141 -2.96164 0
M  V30 744 C 75.0029 -1.76783 -3.85938 0
M  V30 745 C 72.9099 -4.07659 -4.28449 0
M  V30 746 H 71.8399 -0.394452 -0.642591 0
M  V30 747 H 74.4909 -1.47594 -1.09034 0
M  V30 748 H 72.8729 -1.37103 -3.71509 0
M  V30 749 H 74.0469 -3.92056 -2.42133 0
M  V30 750 H 72.3619 -3.45712 -2.32104 0
M  V30 751 H 74.9589 -2.27526 -4.83876 0
M  V30 752 H 75.3019 -0.731116 -4.0983 0
M  V30 753 H 75.8349 -2.22818 -3.2954 0
M  V30 754 H 72.5739 -5.11648 -4.09752 0
M  V30 755 H 72.0939 -3.5653 -4.82334 0
M  V30 756 H 73.7729 -4.141 -4.97122 0
M  V30 757 N 73.905 1.17692 -1.04816 0
M  V30 758 C 75.153 1.87488 -0.754497 0
M  V30 759 C 75.474 1.81205 0.720407 0
M  V30 760 O 74.744 1.23544 1.52032 0
M  V30 761 H 73.324 0.694101 -0.276102 0
M  V30 762 H 75.986 1.42793 -1.32651 0
M  V30 763 H 75.082 2.93328 -1.06606 0
M  V30 764 N 75.3831 0.828654 1.34056 0
M  V30 765 C 76.6081 0.431637 2.02859 0
M  V30 766 C 77.0331 -0.956339 1.61975 0
M  V30 767 O 76.3911 -1.62338 0.807228 0
M  V30 768 C 76.4391 0.548323 3.56407 0
M  V30 769 O 75.5431 -0.429556 4.10157 0
M  V30 770 H 74.8841 0.176886 0.640006 0
M  V30 771 H 77.4141 1.12066 1.71179 0
M  V30 772 H 77.4241 0.426196 4.05768 0
M  V30 773 H 76.0991 1.5606 3.8551 0
M  V30 774 H 74.6761 -0.265836 3.71951 0
M  V30 775 N 76.8612 -1.46375 0.584142 0
M  V30 776 C 78.1082 -2.02378 0.0702675 0
M  V30 777 C 78.4362 -1.45545 -1.29023 0
M  V30 778 O 77.6912 -0.610967 -1.85918 0
M  V30 779 C 77.9902 -3.57373 -0.0439342 0
M  V30 780 C 77.6562 -4.33252 1.24915 0
M  V30 781 C 76.3182 -4.53701 1.60341 0
M  V30 782 C 78.6702 -4.7681 2.1048 0
M  V30 783 C 75.9982 -5.1496 2.81128 0
M  V30 784 C 78.3502 -5.39404 3.30494 0
M  V30 785 C 77.0142 -5.5808 3.66201 0
M  V30 786 H 76.2842 -0.740554 0.0257127 0
M  V30 787 H 78.9312 -1.75727 0.761065 0
M  V30 788 H 77.2362 -3.83169 -0.817869 0
M  V30 789 H 78.9332 -3.98384 -0.457318 0
M  V30 790 H 75.5232 -4.17633 0.963364 0
M  V30 791 H 79.7072 -4.60766 1.84414 0
M  V30 792 H 74.9632 -5.27611 3.08928 0
M  V30 793 H 79.1372 -5.72114 3.97063 0
M  V30 794 H 76.7642 -6.05318 4.59885 0
M  V30 795 N 78.3393 -0.321999 -1.54275 0
M  V30 796 C 79.5863 0.281044 -2.0054 0
M  V30 797 C 79.9143 1.52265 -1.21019 0
M  V30 798 O 79.1693 1.93687 -0.279982 0
M  V30 799 C 79.4683 0.661769 -3.5122 0
M  V30 800 C 79.1343 -0.480482 -4.48333 0
M  V30 801 C 77.7963 -0.794005 -4.74604 0
M  V30 802 C 80.1483 -1.24783 -5.06042 0
M  V30 803 C 77.4763 -1.87763 -5.55844 0
M  V30 804 C 79.8283 -2.32153 -5.88462 0
M  V30 805 C 78.4923 -2.64089 -6.13036 0
M  V30 806 H 77.7623 0.102841 -0.733829 0
M  V30 807 H 80.4093 -0.445453 -1.86247 0
M  V30 808 H 78.7143 1.46867 -3.63232 0
M  V30 809 H 80.4113 1.13989 -3.84457 0
M  V30 810 H 77.0013 -0.226039 -4.28004 0
M  V30 811 H 81.1853 -1.01887 -4.85729 0
M  V30 812 H 76.4413 -2.12954 -5.73115 0
M  V30 813 H 80.6153 -2.92057 -6.32199 0
M  V30 814 H 78.2423 -3.48185 -6.75775 0
M  V30 815 N 79.8174 1.5752 -0.0501392 0
M  V30 816 C 81.0474 1.96678 0.632573 0
M  V30 817 C 81.4554 0.926298 1.64974 0
M  V30 818 O 80.7984 -0.09802 1.83438 0
M  V30 819 C 80.8604 3.32068 1.37735 0
M  V30 820 C 80.5244 4.54076 0.516131 0
M  V30 821 C 81.5214 5.19445 -0.217357 0
M  V30 822 C 79.2064 5.00304 0.44736 0
M  V30 823 C 81.2004 6.29378 -1.00807 0
M  V30 824 C 78.8874 6.10114 -0.347038 0
M  V30 825 C 79.8854 6.74512 -1.07344 0
M  V30 826 O 79.5734 7.82211 -1.85477 0
M  V30 827 H 79.3054 0.652193 0.177821 0
M  V30 828 H 81.8594 2.05091 -0.112543 0
M  V30 829 H 80.0894 3.20206 2.16807 0
M  V30 830 H 81.7784 3.55981 1.95019 0
M  V30 831 H 82.5444 4.84689 -0.173688 0
M  V30 832 H 78.4234 4.49971 1.00235 0
M  V30 833 H 81.9674 6.79575 -1.57556 0
M  V30 834 H 77.8644 6.44307 -0.392349 0
M  V30 835 H 78.6324 7.98982 -1.77678 0
M  V30 836 N 81.2955 -0.223234 1.56011 0
M  V30 837 C 82.5235 -0.964812 1.83027 0
M  V30 838 C 82.9385 -1.78013 0.62904 0
M  V30 839 O 82.2955 -1.78008 -0.402414 0
M  V30 840 C 82.3465 -1.88373 3.08542 0
M  V30 841 O 82.0675 -1.10137 4.2403 0
M  V30 842 C 83.5685 -2.73934 3.48533 0
M  V30 843 H 80.7885 -0.282842 0.608475 0
M  V30 844 H 83.3325 -0.238971 2.03099 0
M  V30 845 H 81.4875 -2.56354 2.9045 0
M  V30 846 H 81.9015 -1.72501 4.95322 0
M  V30 847 H 83.3755 -3.34117 4.39397 0
M  V30 848 H 83.8525 -3.46244 2.70207 0
M  V30 849 H 84.4585 -2.11369 3.69057 0
M  V30 850 N 82.7736 -1.49793 -0.48987 0
M  V30 851 C 84.0216 -1.59525 -1.24081 0
M  V30 852 C 84.3426 -0.288953 -1.92847 0
M  V30 853 O 83.6126 0.692436 -1.83254 0
M  V30 854 H 82.1926 -0.587796 -0.460983 0
M  V30 855 H 84.8546 -1.86477 -0.566778 0
M  V30 856 H 83.9506 -2.39696 -1.99881 0
M  V30 857 N 84.2517 0.741722 -1.39055 0
M  V30 858 C 85.4767 1.53607 -1.39354 0
M  V30 859 C 85.9017 1.88096 0.0116905 0
M  V30 860 O 85.2597 1.5143 0.996924 0
M  V30 861 C 85.3077 2.80441 -2.26682 0
M  V30 862 O 84.4117 3.76088 -1.69208 0
M  V30 863 H 83.7527 0.464142 -0.474835 0
M  V30 864 H 86.2827 0.915665 -1.82967 0
M  V30 865 H 86.2927 3.29246 -2.40959 0
M  V30 866 H 84.9677 2.5467 -3.2881 0
M  V30 867 H 83.5447 3.34833 -1.64138 0
M  V30 868 N 85.7298 1.2412 0.971189 0
M  V30 869 C 86.9578 1.10575 1.74874 0
M  V30 870 C 87.3728 -0.342017 1.85676 0
M  V30 871 O 86.7298 -1.23617 1.34258 0
M  V30 872 C 86.7808 1.73579 3.171 0
M  V30 873 O 86.5018 3.12695 3.06844 0
M  V30 874 C 88.0028 1.65598 4.11208 0
M  V30 875 H 85.2228 0.386504 0.548503 0
M  V30 876 H 87.7668 1.64156 1.21955 0
M  V30 877 H 85.9218 1.24009 3.67016 0
M  V30 878 H 86.3358 3.43412 3.96445 0
M  V30 879 H 87.8098 2.1437 5.08674 0
M  V30 880 H 88.2868 0.616532 4.34851 0
M  V30 881 H 88.8928 2.14578 3.67201 0
M  V30 882 N 87.2079 -1.17134 1.05439 0
M  V30 883 C 88.4379 -1.91094 0.785274 0
M  V30 884 C 88.8459 -1.77198 -0.663142 0
M  V30 885 O 88.1889 -1.10835 -1.46497 0
M  V30 886 C 88.2509 -3.42594 1.08949 0
M  V30 887 C 87.9149 -3.80274 2.53458 0
M  V30 888 C 88.9119 -3.82912 3.51673 0
M  V30 889 C 86.5969 -4.11162 2.88532 0
M  V30 890 C 88.5909 -4.15913 4.83006 0
M  V30 891 C 86.2779 -4.43831 4.20068 0
M  V30 892 C 87.2759 -4.46185 5.17115 0
M  V30 893 O 86.9639 -4.78083 6.46291 0
M  V30 894 H 86.6959 -0.613073 0.284811 0
M  V30 895 H 89.2499 -1.49461 1.40893 0
M  V30 896 H 87.4799 -3.84534 0.408741 0
M  V30 897 H 89.1689 -3.97817 0.805991 0
M  V30 898 H 89.9349 -3.5917 3.25917 0
M  V30 899 H 85.8139 -4.085 2.13656 0
M  V30 900 H 89.3579 -4.17665 5.5875 0
M  V30 901 H 85.2549 -4.67037 4.45586 0
M  V30 902 H 86.0229 -4.9593 6.51149 0
M  V30 903 N 88.686 -0.835752 -1.33615 0
M  V30 904 C 89.916 -0.442701 -2.01801 0
M  V30 905 C 90.324 0.959807 -1.63047 0
M  V30 906 O 89.667 1.63468 -0.838088 0
M  V30 907 C 89.729 -0.480125 -3.56279 0
M  V30 908 C 89.393 -1.8382 -4.18401 0
M  V30 909 C 90.39 -2.80097 -4.37998 0
M  V30 910 C 88.075 -2.13019 -4.54894 0
M  V30 911 C 90.069 -4.03736 -4.9323 0
M  V30 912 C 87.756 -3.36916 -5.09834 0
M  V30 913 C 88.754 -4.32091 -5.28948 0
M  V30 914 O 88.442 -5.53797 -5.82721 0
M  V30 915 H 88.174 -0.17441 -0.653114 0
M  V30 916 H 90.728 -1.129 -1.71589 0
M  V30 917 H 88.958 0.262931 -3.85805 0
M  V30 918 H 90.647 -0.105335 -4.05763 0
M  V30 919 H 91.413 -2.58838 -4.10156 0
M  V30 920 H 87.292 -1.39733 -4.39313 0
M  V30 921 H 90.836 -4.78034 -5.08064 0
M  V30 922 H 86.733 -3.58033 -5.37106 0
M  V30 923 H 87.501 -5.55494 -6.0114 0
M  V30 924 N 90.1641 1.46063 -0.591896 0
M  V30 925 C 91.1121 2.32124 0.148739 0
M  V30 926 C 92.1061 1.45035 0.875286 0
M  V30 927 O 93.3121 1.61609 0.792632 0
M  V30 928 H 89.6871 0.749024 0.066832 0
M  V30 929 H 91.6581 2.92392 -0.595783 0
M  V30 930 C 90.4071 3.28373 1.1431 0
M  V30 931 H 89.7301 3.95371 0.59346 0
M  V30 932 H 91.1701 3.91352 1.63155 0
M  V30 933 C 89.6291 2.54393 2.20875 0
M  V30 934 O 90.1591 2.31373 3.28374 0
M  V30 935 N 88.3651 2.14797 1.95731 0
M  V30 936 H 87.9121 2.33719 1.08319 0
M  V30 937 H 87.8701 1.65619 2.67241 0
M  V30 938 N 91.6422 0.330177 1.54103 0
M  V30 939 C 93.0532 -0.15652 1.86043 0
M  V30 940 C 93.4042 -1.51086 1.2517 0
M  V30 941 O 92.5292 -2.09023 0.560217 0
M  V30 942 C 93.1242 -0.290784 3.3755 0
M  V30 943 C 91.6832 -0.721705 3.69416 0
M  V30 944 C 90.8302 0.152622 2.7688 0
M  V30 945 H 93.7812 0.550237 1.48856 0
M  V30 946 H 93.8022 -1.12058 3.63625 0
M  V30 947 H 93.3142 0.695068 3.81825 0
M  V30 948 H 91.4152 -1.71706 3.30678 0
M  V30 949 H 91.5282 -0.520869 4.7626 0
M  V30 950 H 89.8922 -0.372894 2.51956 0
M  V30 951 H 90.6752 1.13536 3.23982 0
M  V30 952 N 93.1203 -1.57491 0.0584922 0
M  V30 953 C 94.3453 -1.97711 -0.62652 0
M  V30 954 C 94.7703 -0.936132 -1.63151 0
M  V30 955 O 94.1283 0.099811 -1.81025 0
M  V30 956 C 94.1763 -3.36989 -1.28338 0
M  V30 957 O 93.2803 -3.35433 -2.39913 0
M  V30 958 H 92.6213 -0.643868 -0.162266 0
M  V30 959 H 95.1513 -2.04193 0.129064 0
M  V30 960 H 95.1613 -3.73879 -1.63335 0
M  V30 961 H 93.8363 -4.12289 -0.546889 0
M  V30 962 H 92.4133 -3.10298 -2.06809 0
M  V30 963 N 94.5984 0.214957 -1.56127 0
M  V30 964 C 95.5284 1.2695 -1.95974 0
M  V30 965 C 96.5094 1.48539 -0.828868 0
M  V30 966 O 97.6944 1.60611 -1.09168 0
M  V30 967 C 94.8244 2.61794 -2.28214 0
M  V30 968 C 93.7784 2.54851 -3.43853 0
M  V30 969 C 93.1044 3.93785 -3.61715 0
M  V30 970 C 94.4044 2.09065 -4.78632 0
M  V30 971 H 96.0984 0.93846 -2.84312 0
M  V30 972 H 93.6444 0.449996 -1.36788 0
M  V30 973 H 95.5974 3.35731 -2.54682 0
M  V30 974 H 94.3214 2.96599 -1.36736 0
M  V30 975 H 92.9804 1.8337 -3.17444 0
M  V30 976 H 92.6284 4.25908 -2.67602 0
M  V30 977 H 92.3284 3.90019 -4.39498 0
M  V30 978 H 93.8524 4.69374 -3.90539 0
M  V30 979 H 95.2664 2.7275 -5.04262 0
M  V30 980 H 93.6634 2.16346 -5.59745 0
M  V30 981 H 94.7334 1.04315 -4.73547 0
M  V30 982 N 96.0765 1.50051 0.48192 0
M  V30 983 C 97.4925 1.37237 0.814756 0
M  V30 984 C 97.6925 0.420109 1.97072 0
M  V30 985 O 96.7485 -0.141246 2.52105 0
M  V30 986 C 98.0615 2.78375 1.13701 0
M  V30 987 C 99.6095 2.87213 1.2441 0
M  V30 988 C 100.084 4.29161 1.59954 0
M  V30 989 N 101.575 4.32061 1.66967 0
M  V30 990 C 102.31 5.38879 1.95952 0
M  V30 991 N 101.806 6.55918 2.23031 0
M  V30 992 N 103.599 5.26312 1.97363 0
M  V30 993 H 95.7505 2.10546 -0.28005 0
M  V30 994 H 98.0135 0.945921 -0.0627454 0
M  V30 995 H 97.7195 3.49845 0.360787 0
M  V30 996 H 97.5935 3.14941 2.07586 0
M  V30 997 H 99.9805 2.15969 2.01101 0
M  V30 998 H 100.061 2.54204 0.285299 0
M  V30 999 H 99.7055 5.00938 0.838067 0
M  V30 1000 H 99.6355 4.59648 2.56966 0
M  V30 1001 H 102.126 3.47661 1.48123 0
M  V30 1002 H 102.439 7.33139 2.44391 0
M  V30 1003 H 100.784 6.59112 2.20447 0
M  V30 1004 H 103.975 4.33876 1.75697 0
M  V30 1005 H 104.148 6.09649 2.19618 0
M  V30 1006 N 97.5546 -0.734337 1.39446 0
M  V30 1007 C 98.7796 -1.52866 1.40167 0
M  V30 1008 C 99.2046 -1.881 -0.00171513 0
M  V30 1009 O 98.5626 -1.51957 -0.988879 0
M  V30 1010 C 98.6106 -2.79235 2.28167 0
M  V30 1011 O 97.7146 -3.75185 1.71201 0
M  V30 1012 H 97.0556 -0.461618 0.477289 0
M  V30 1013 H 99.5856 -0.905949 1.8345 0
M  V30 1014 H 99.5956 -3.27963 2.42702 0
M  V30 1015 H 98.2706 -2.52923 3.30156 0
M  V30 1016 H 96.8476 -3.33958 1.65912 0
M  V30 1017 N 99.0327 -1.24633 -0.964593 0
M  V30 1018 C 100.449 -1.01239 -1.2338 0
M  V30 1019 C 100.649 0.2769 -1.99588 0
M  V30 1020 O 99.7047 0.992241 -2.32187 0
M  V30 1021 C 101.018 -2.22937 -2.01791 0
M  V30 1022 C 102.566 -2.27594 -2.14872 0
M  V30 1023 C 103.041 -3.48921 -2.96678 0
M  V30 1024 N 104.532 -3.49257 -3.04259 0
M  V30 1025 C 105.267 -4.39795 -3.67924 0
M  V30 1026 N 104.763 -5.40591 -4.33281 0
M  V30 1027 N 106.556 -4.275 -3.64966 0
M  V30 1028 H 98.7067 -2.0748 -0.454502 0
M  V30 1029 H 100.97 -0.910647 -0.26349 0
M  V30 1030 H 100.676 -3.16587 -1.53184 0
M  V30 1031 H 100.55 -2.25306 -3.02518 0
M  V30 1032 H 102.937 -1.34473 -2.6268 0
M  V30 1033 H 103.018 -2.2925 -1.13482 0
M  V30 1034 H 102.662 -4.42359 -2.49562 0
M  V30 1035 H 102.592 -3.4451 -3.98272 0
M  V30 1036 H 105.083 -2.76337 -2.57771 0
M  V30 1037 H 105.396 -6.05904 -4.79687 0
M  V30 1038 H 103.741 -5.44475 -4.3194 0
M  V30 1039 H 106.932 -3.47987 -3.13086 0
M  V30 1040 H 107.105 -4.98258 -4.14298 0
M  V30 1041 N 100.511 1.16574 -1.06058 0
M  V30 1042 C 101.441 2.23057 -0.690488 0
M  V30 1043 C 102.422 1.67141 0.315901 0
M  V30 1044 O 103.607 1.93253 0.191556 0
M  V30 1045 C 100.737 3.47222 -0.073625 0
M  V30 1046 C 99.6908 4.16016 -1.00573 0
M  V30 1047 C 99.0168 5.34104 -0.252289 0
M  V30 1048 C 100.317 4.67264 -2.33371 0
M  V30 1049 H 102.011 2.54271 -1.58072 0
M  V30 1050 H 99.5568 1.22218 -0.76149 0
M  V30 1051 H 101.51 4.20939 0.19714 0
M  V30 1052 H 100.234 3.15302 0.85161 0
M  V30 1053 H 98.8928 3.44223 -1.2612 0
M  V30 1054 H 98.5408 4.98437 0.675988 0
M  V30 1055 H 98.2408 5.81072 -0.873455 0
M  V30 1056 H 99.7648 6.10599 0.0109857 0
M  V30 1057 H 101.179 5.32573 -2.12223 0
M  V30 1058 H 99.5758 5.24843 -2.90963 0
M  V30 1059 H 100.646 3.83602 -2.96611 0
M  V30 1060 N 101.989 0.842826 1.3317 0
M  V30 1061 C 103.217 0.454055 2.01856 0
M  V30 1062 C 103.632 -0.94587 1.63397 0
M  V30 1063 O 102.989 -1.61534 0.849302 0
M  V30 1064 C 103.04 0.569715 3.56982 0
M  V30 1065 O 102.761 1.91448 3.94055 0
M  V30 1066 C 104.262 0.178412 4.42941 0
M  V30 1067 H 101.482 0.17979 0.646465 0
M  V30 1068 H 104.026 1.1365 1.70012 0
M  V30 1069 H 102.181 -0.0648587 3.87346 0
M  V30 1070 H 102.595 1.90282 4.88767 0
M  V30 1071 H 104.069 0.310376 5.51127 0
M  V30 1072 H 104.546 -0.880056 4.30293 0
M  V30 1073 H 105.152 0.787579 4.17944 0
M  V30 1074 N 103.467 -1.45747 0.599634 0
M  V30 1075 C 104.716 -2.01502 0.0893511 0
M  V30 1076 C 105.029 -1.4748 -1.28488 0
M  V30 1077 O 106.235 -1.95161 -1.88745 0
M  V30 1078 C 104.691 -3.59735 0.109082 0
M  V30 1079 C 104.299 -4.22754 1.48267 0
M  V30 1080 C 106.043 -4.23085 -0.346374 0
M  V30 1081 C 103.95 -5.73115 1.45921 0
M  V30 1082 H 102.88 -0.753417 0.0296347 0
M  V30 1083 H 105.531 -1.67303 0.753788 0
M  V30 1084 H 103.913 -3.91087 -0.621854 0
M  V30 1085 H 105.087 -4.02987 2.23468 0
M  V30 1086 H 103.402 -3.71567 1.87955 0
M  V30 1087 H 105.999 -5.33327 -0.38298 0
M  V30 1088 H 106.342 -3.93201 -1.36743 0
M  V30 1089 H 106.875 -3.9642 0.331038 0
M  V30 1090 H 103.614 -6.07685 2.45762 0
M  V30 1091 H 103.134 -5.95097 0.749665 0
M  V30 1092 H 104.813 -6.3616 1.17941 0
M  V30 1093 N 104.945 -0.338344 -1.53925 0
M  V30 1094 C 106.17 0.263987 -2.05713 0
M  V30 1095 C 106.595 1.43847 -1.21201 0
M  V30 1096 O 105.953 1.79904 -0.224535 0
M  V30 1097 C 106.001 0.662 -3.54471 0
M  V30 1098 O 105.105 1.76265 -3.72833 0
M  V30 1099 H 104.446 0.0448722 -0.662482 0
M  V30 1100 H 106.976 -0.491048 -1.9862 0
M  V30 1101 H 106.986 0.940594 -3.9701 0
M  V30 1102 H 105.661 -0.196937 -4.15433 0
M  V30 1103 H 104.238 1.48173 -3.42198 0
M  V30 1104 N 106.423 1.57458 -0.0668435 0
M  V30 1105 C 107.669 1.93587 0.6043 0
M  V30 1106 C 108.002 0.946722 1.69561 0
M  V30 1107 O 107.277 -0.0248516 1.94484 0
M  V30 1108 C 107.56 3.40014 1.18585 0
M  V30 1109 C 107.413 4.49685 0.101529 0
M  V30 1110 C 108.732 3.87154 2.09284 0
M  V30 1111 H 105.851 0.703958 0.218202 0
M  V30 1112 H 108.493 1.89542 -0.131804 0
M  V30 1113 H 106.643 3.43592 1.81319 0
M  V30 1114 H 108.315 4.5823 -0.531279 0
M  V30 1115 H 106.558 4.30059 -0.568487 0
M  V30 1116 H 107.229 5.49266 0.54874 0
M  V30 1117 H 109.705 3.85551 1.56491 0
M  V30 1118 H 108.581 4.90231 2.46911 0
M  V30 1119 H 108.842 3.2481 2.99918 0
M  V30 1120 N 107.901 -0.206675 1.56239 0
M  V30 1121 C 109.178 -0.954051 1.70755 0
M  V30 1122 C 109.558 -2.01841 0.618353 0
M  V30 1123 O 108.906 -2.25444 -0.372434 0
M  V30 1124 C 109.116 -1.551 3.12642 0
M  V30 1125 C 110.464 -2.03757 3.72516 0
M  V30 1126 O 111.488 -1.64965 3.15698 0
M  V30 1127 O 110.347 -2.75103 4.72208 0
M  V30 1128 H 107.441 -0.446636 0.696021 0
M  V30 1129 H 109.987 -0.197283 1.68549 0
M  V30 1130 H 108.759 -0.783212 3.83382 0
M  V30 1131 H 108.382 -2.37291 3.19028 0
M  V30 1132 N 109.379 -1.50304 -0.473955 0
M  V30 1133 C 110.607 -1.64902 -1.24959 0
M  V30 1134 C 111.022 -0.331198 -1.85872 0
M  V30 1135 O 110.379 0.68652 -1.69095 0
M  V30 1136 C 110.43 -2.73803 -2.36038 0
M  V30 1137 O 110.151 -4.00477 -1.77624 0
M  V30 1138 C 111.652 -2.99349 -3.26964 0
M  V30 1139 H 108.872 -0.554383 -0.378022 0
M  V30 1140 H 111.416 -1.9651 -0.566054 0
M  V30 1141 H 109.571 -2.44898 -3.00173 0
M  V30 1142 H 109.985 -4.60678 -2.5075 0
M  V30 1143 H 111.459 -3.79217 -4.01121 0
M  V30 1144 H 111.936 -2.10307 -3.85574 0
M  V30 1145 H 112.542 -3.29774 -2.68569 0
M  V30 1146 N 110.857 0.726932 -1.39834 0
M  V30 1147 C 112.082 1.52121 -1.40976 0
M  V30 1148 C 112.507 1.88098 -0.00826029 0
M  V30 1149 O 111.865 1.52479 0.980807 0
M  V30 1150 C 111.913 2.78021 -2.29644 0
M  V30 1151 O 111.017 3.74272 -1.73188 0
M  V30 1152 H 110.358 0.45908 -0.479731 0
M  V30 1153 H 112.888 0.896207 -1.83927 0
M  V30 1154 H 112.898 3.26671 -2.44438 0
M  V30 1155 H 111.573 2.51169 -3.31492 0
M  V30 1156 H 110.15 3.33073 -1.6768 0
M  V30 1157 N 112.336 1.25143 0.95797 0
M  V30 1158 C 113.283 1.05235 2.05412 0
M  V30 1159 C 114.253 -0.0374561 1.66058 0
M  V30 1160 O 115.438 0.119073 1.90428 0
M  V30 1161 C 112.578 0.673589 3.38462 0
M  V30 1162 C 111.691 1.8379 3.90954 0
M  V30 1163 C 110.826 1.40381 5.12315 0
M  V30 1164 C 109.865 2.53746 5.57027 0
M  V30 1165 N 109.002 2.11136 6.69601 0
M  V30 1166 H 113.842 1.99048 2.21774 0
M  V30 1167 H 111.379 0.991277 1.08683 0
M  V30 1168 H 113.337 0.434964 4.14926 0
M  V30 1169 H 111.967 -0.227554 3.21997 0
M  V30 1170 H 111.019 2.18992 3.11041 0
M  V30 1171 H 112.331 2.68937 4.20089 0
M  V30 1172 H 111.485 1.12464 5.96185 0
M  V30 1173 H 110.224 0.523015 4.84887 0
M  V30 1174 H 109.229 2.82412 4.71724 0
M  V30 1175 H 110.454 3.42398 5.86464 0
M  V30 1176 H 108.4 1.25468 6.4389 0
M  V30 1177 H 108.317 2.89832 6.98236 0
M  V30 1178 H 109.585 1.86385 7.56889 0
M  V30 1179 N 113.814 -1.1601 1.06675 0
M  V30 1180 C 114.762 -2.22586 0.675157 0
M  V30 1181 C 115.756 -1.66525 -0.310766 0
M  V30 1182 O 116.962 -1.79145 -0.175215 0
M  V30 1183 H 113.337 -0.724855 0.200223 0
M  V30 1184 H 115.308 -2.52899 1.58381 0
M  V30 1185 C 114.057 -3.47604 0.0817162 0
M  V30 1186 H 113.38 -3.91058 0.831484 0
M  V30 1187 H 114.82 -4.23718 -0.154708 0
M  V30 1188 C 113.279 -3.15718 -1.17576 0
M  V30 1189 O 113.809 -3.31878 -2.26318 0
M  V30 1190 N 112.015 -2.69816 -1.07923 0
M  V30 1191 H 111.562 -2.56866 -0.194293 0
M  V30 1192 H 111.52 -2.48855 -1.92141 0
M  V30 1193 N 115.292 -0.849877 -1.32721 0
M  V30 1194 C 116.224 -0.248332 -2.27851 0
M  V30 1195 C 117.237 0.577218 -1.52224 0
M  V30 1196 O 118.426 0.402489 -1.73903 0
M  V30 1197 C 115.526 0.668107 -3.32249 0
M  V30 1198 C 114.699 -0.120534 -4.37234 0
M  V30 1199 C 113.758 0.720932 -5.21238 0
M  V30 1200 O 112.784 0.156166 -5.68986 0
M  V30 1201 N 113.986 2.03647 -5.43607 0
M  V30 1202 H 116.751 -1.06575 -2.80111 0
M  V30 1203 H 114.312 -0.709395 -1.45531 0
M  V30 1204 H 116.304 1.23627 -3.85355 0
M  V30 1205 H 114.874 1.38621 -2.80184 0
M  V30 1206 H 114.094 -0.870108 -3.84477 0
M  V30 1207 H 115.382 -0.662406 -5.0447 0
M  V30 1208 H 114.78 2.51871 -5.06535 0
M  V30 1209 H 113.337 2.55287 -5.99727 0
M  V30 1210 N 116.77 1.45427 -0.607355 0
M  V30 1211 C 118.017 2.02241 -0.102455 0
M  V30 1212 C 118.345 1.4758 1.26691 0
M  V30 1213 O 117.6 0.640468 1.84923 0
M  V30 1214 C 117.899 3.57398 -0.0129263 0
M  V30 1215 C 117.565 4.3121 -1.31792 0
M  V30 1216 C 116.227 4.51092 -1.67539 0
M  V30 1217 C 118.579 4.73401 -2.18039 0
M  V30 1218 C 115.907 5.10422 -2.89285 0
M  V30 1219 C 118.259 5.34078 -3.39034 0
M  V30 1220 C 116.923 5.52184 -3.75033 0
M  V30 1221 H 116.193 0.740051 -0.037491 0
M  V30 1222 H 118.84 1.74494 -0.788926 0
M  V30 1223 H 117.145 3.84421 0.756806 0
M  V30 1224 H 118.842 3.99061 0.393881 0
M  V30 1225 H 115.432 4.16047 -1.02968 0
M  V30 1226 H 119.616 4.57774 -1.91721 0
M  V30 1227 H 114.872 5.22629 -3.17283 0
M  V30 1228 H 119.046 5.65724 -4.06115 0
M  V30 1229 H 116.673 5.97925 -4.69457 0
M  V30 1230 N 118.248 0.346503 1.53744 0
M  V30 1231 C 119.473 -0.253074 2.0585 0
M  V30 1232 C 119.898 -1.43202 1.21962 0
M  V30 1233 O 119.256 -1.79783 0.234073 0
M  V30 1234 C 119.304 -0.643193 3.54817 0
M  V30 1235 O 118.408 -1.74286 3.73762 0
M  V30 1236 H 117.749 -0.0413583 0.662711 0
M  V30 1237 H 120.279 0.501574 1.98357 0
M  V30 1238 H 120.289 -0.919526 3.97503 0
M  V30 1239 H 118.964 0.218966 4.15323 0
M  V30 1240 H 117.541 -1.46356 3.42979 0
M  V30 1241 N 119.726 -1.57421 0.075193 0
M  V30 1242 C 120.656 -2.15942 -0.888324 0
M  V30 1243 C 121.637 -1.08737 -1.30806 0
M  V30 1244 O 122.822 -1.36787 -1.37851 0
M  V30 1245 C 119.952 -2.72379 -2.1547 0
M  V30 1246 C 118.906 -3.8478 -1.87425 0
M  V30 1247 C 118.232 -4.27834 -3.20721 0
M  V30 1248 C 119.532 -5.08869 -1.17684 0
M  V30 1249 H 121.226 -2.96705 -0.400799 0
M  V30 1250 H 118.772 -1.42723 -0.191342 0
M  V30 1251 H 120.725 -3.11965 -2.83295 0
M  V30 1252 H 119.449 -1.88841 -2.6647 0
M  V30 1253 H 118.108 -3.45703 -1.22004 0
M  V30 1254 H 117.756 -3.41214 -3.6957 0
M  V30 1255 H 117.456 -5.03605 -3.02746 0
M  V30 1256 H 118.98 -4.70039 -3.89738 0
M  V30 1257 H 120.394 -5.4575 -1.75584 0
M  V30 1258 H 118.791 -5.8994 -1.09956 0
M  V30 1259 H 119.861 -4.84648 -0.156453 0
M  V30 1260 N 121.204 0.198386 -1.56346 0
M  V30 1261 C 122.137 1.27381 -1.89339 0
M  V30 1262 C 123.115 1.44106 -0.753134 0
M  V30 1263 O 124.299 1.59549 -1.00381 0
M  V30 1264 C 121.426 2.6409 -2.12071 0
M  V30 1265 C 120.472 2.64253 -3.34772 0
M  V30 1266 S 121.305 2.16013 -4.89999 0
M  V30 1267 C 122.461 3.54553 -5.15794 0
M  V30 1268 H 122.694 0.992058 -2.8026 0
M  V30 1269 H 120.227 0.401726 -1.49082 0
M  V30 1270 H 122.185 3.42786 -2.2585 0
M  V30 1271 H 120.846 2.89478 -1.21906 0
M  V30 1272 H 120.039 3.64768 -3.47794 0
M  V30 1273 H 119.641 1.93637 -3.1997 0
M  V30 1274 H 121.933 4.50396 -5.06112 0
M  V30 1275 H 122.876 3.46428 -6.1757 0
M  V30 1276 H 123.284 3.49313 -4.43442 0
M  V30 1277 N 122.682 1.50554 0.465978 0
M  V30 1278 C 123.612 1.72722 1.57128 0
M  V30 1279 C 124.593 0.576294 1.6004 0
M  V30 1280 O 125.778 0.81598 1.76225 0
M  V30 1281 C 122.908 1.82605 2.95419 0
M  V30 1282 C 121.862 2.97835 3.07373 0
M  V30 1283 C 121.188 2.92867 4.47363 0
M  V30 1284 C 122.488 4.38265 2.84114 0
M  V30 1285 H 124.182 2.65267 1.38829 0
M  V30 1286 H 121.728 1.2765 0.666441 0
M  V30 1287 H 123.681 1.96698 3.72677 0
M  V30 1288 H 122.405 0.866858 3.14886 0
M  V30 1289 H 121.064 2.83401 2.3255 0
M  V30 1290 H 120.712 1.94783 4.63755 0
M  V30 1291 H 120.412 3.70227 4.56296 0
M  V30 1292 H 121.936 3.09015 5.26633 0
M  V30 1293 H 123.35 4.53198 3.51118 0
M  V30 1294 H 121.747 5.17115 3.04487 0
M  V30 1295 H 122.817 4.50281 1.7993 0
M  V30 1296 N 124.16 -0.719506 1.40217 0
M  V30 1297 C 125.385 -1.51371 1.4178 0
M  V30 1298 C 125.81 -1.88091 0.0182355 0
M  V30 1299 O 125.168 -1.52997 -0.972707 0
M  V30 1300 C 125.216 -2.768 2.31115 0
M  V30 1301 O 124.32 -3.73349 1.7517 0
M  V30 1302 H 123.661 -0.456529 0.482159 0
M  V30 1303 H 126.191 -0.88644 1.844 0
M  V30 1304 H 126.201 -3.25371 2.46167 0
M  V30 1305 H 124.876 -2.49407 3.3282 0
M  V30 1306 H 123.453 -3.32179 1.69444 0
M  V30 1307 N 125.638 -1.25649 -0.95132 0
M  V30 1308 C 126.863 -1.13443 -1.73624 0
M  V30 1309 C 127.288 0.307565 -1.85568 0
M  V30 1310 O 126.646 1.22282 -1.33854 0
M  V30 1311 C 126.694 -1.79723 -3.12621 0
M  V30 1312 O 125.798 -1.07912 -3.98031 0
M  V30 1313 H 125.139 -0.395872 -0.533086 0
M  V30 1314 H 127.669 -1.66276 -1.1922 0
M  V30 1315 H 127.679 -1.86141 -3.63064 0
M  V30 1316 H 126.354 -2.84633 -3.03244 0
M  V30 1317 H 124.931 -1.09398 -3.56492 0
M  V30 1318 N 127.117 1.15442 -1.07289 0
M  V30 1319 C 128.363 1.86489 -0.796846 0
M  V30 1320 C 128.696 1.82078 0.675371 0
M  V30 1321 O 127.971 1.24346 1.4956 0
M  V30 1322 C 128.254 3.35626 -1.30489 0
M  V30 1323 C 128.107 3.48673 -2.84161 0
M  V30 1324 C 129.426 4.30357 -0.920907 0
M  V30 1325 H 126.545 0.677144 -0.290939 0
M  V30 1326 H 129.187 1.35633 -1.33056 0
M  V30 1327 H 127.337 3.79068 -0.850883 0
M  V30 1328 H 129.009 3.14099 -3.37846 0
M  V30 1329 H 127.252 2.90253 -3.22391 0
M  V30 1330 H 127.923 4.53453 -3.14777 0
M  V30 1331 H 130.399 3.94871 -1.3121 0
M  V30 1332 H 129.275 5.33193 -1.30372 0
M  V30 1333 H 129.536 4.4176 0.173226 0
M  V30 1334 N 128.595 0.856903 1.32268 0
M  V30 1335 C 129.823 0.475439 2.01363 0
M  V30 1336 C 130.238 -0.928486 1.64392 0
M  V30 1337 O 129.595 -1.60624 0.866387 0
M  V30 1338 C 129.646 0.607545 3.56358 0
M  V30 1339 O 129.367 1.95617 3.92002 0
M  V30 1340 C 130.868 0.225382 4.42727 0
M  V30 1341 H 128.088 0.186636 0.644521 0
M  V30 1342 H 130.632 1.15446 1.68797 0
M  V30 1343 H 128.787 -0.0237719 3.87393 0
M  V30 1344 H 129.201 1.95455 4.86721 0
M  V30 1345 H 130.675 0.368813 5.50767 0
M  V30 1346 H 131.152 -0.834369 4.31202 0
M  V30 1347 H 131.758 0.831864 4.17085 0
M  V30 1348 N 130.073 -1.45103 0.615059 0
M  V30 1349 C 131.036 -2.29025 -0.0895485 0
M  V30 1350 C 132.036 -1.40174 -0.787906 0
M  V30 1351 O 133.226 -1.62217 -0.634933 0
M  V30 1352 C 130.358 -3.21376 -1.13711 0
M  V30 1353 H 131.551 -2.92807 0.648382 0
M  V30 1354 H 129.104 -1.51749 0.374444 0
M  V30 1355 H 129.839 -2.6241 -1.90556 0
M  V30 1356 H 129.624 -3.86834 -0.640475 0
M  V30 1357 H 131.114 -3.84459 -1.63036 0
M  V30 1358 N 131.551 -0.354651 -1.53558 0
M  V30 1359 C 132.514 0.484566 -2.24019 0
M  V30 1360 C 133.514 1.01861 -1.24422 0
M  V30 1361 O 134.704 0.906097 -1.4878 0
M  V30 1362 C 131.836 1.67615 -2.96847 0
M  V30 1363 H 133.029 -0.131843 -2.9961 0
M  V30 1364 H 130.582 -0.106165 -1.55939 0
M  V30 1365 H 131.317 2.33095 -2.25471 0
M  V30 1366 H 131.102 1.30029 -3.69912 0
M  V30 1367 H 132.592 2.27114 -3.50441 0
M  V30 1368 N 133.029 1.57378 -0.0835403 0
M  V30 1369 C 134.306 1.85363 0.624507 0
M  V30 1370 C 134.686 0.978239 1.87066 0
M  V30 1371 O 134.034 0.0475908 2.2845 0
M  V30 1372 C 134.244 3.35795 0.950947 0
M  V30 1373 C 135.592 4.03581 1.31939 0
M  V30 1374 O 136.616 3.40609 1.04232 0
M  V30 1375 O 135.475 5.14672 1.83779 0
M  V30 1376 H 132.569 0.766162 0.311329 0
M  V30 1377 H 135.115 1.69307 -0.115362 0
M  V30 1378 H 133.887 3.91244 0.0663899 0
M  V30 1379 H 133.51 3.57154 1.74719 0
M  V30 1380 N 134.507 -0.190092 1.56449 0
M  V30 1381 C 135.735 -0.925772 1.85033 0
M  V30 1382 C 136.15 -1.76638 0.666658 0
M  V30 1383 O 135.507 -1.78822 -0.364565 0
M  V30 1384 C 135.558 -1.81786 3.12468 0
M  V30 1385 O 135.279 -1.01118 4.26271 0
M  V30 1386 C 136.78 -2.6648 3.54265 0
M  V30 1387 H 134 -0.269872 0.614337 0
M  V30 1388 H 136.544 -0.195837 2.0356 0
M  V30 1389 H 134.699 -2.50136 2.95822 0
M  V30 1390 H 135.113 -1.61956 4.98869 0
M  V30 1391 H 136.587 -3.24722 4.46385 0
M  V30 1392 H 137.064 -3.40434 2.77491 0
M  V30 1393 H 137.67 -2.03493 3.73458 0
M  V30 1394 N 135.985 -1.50799 -0.457987 0
M  V30 1395 C 136.948 -1.7005 -1.53674 0
M  V30 1396 C 137.948 -0.570881 -1.50325 0
M  V30 1397 O 139.138 -0.838126 -1.52712 0
M  V30 1398 C 136.27 -1.73788 -2.93276 0
M  V30 1399 H 137.463 -2.66306 -1.37917 0
M  V30 1400 H 135.016 -1.40477 -0.685271 0
M  V30 1401 H 135.751 -0.792717 -3.14462 0
M  V30 1402 H 135.536 -2.55864 -2.97113 0
M  V30 1403 H 137.026 -1.90591 -3.71571 0
M  V30 1404 N 137.463 0.71206 -1.40597 0
M  V30 1405 C 138.709 1.47416 -1.39271 0
M  V30 1406 C 139.042 1.942 0.00388791 0
M  V30 1407 O 138.317 1.68403 0.973179 0
M  V30 1408 C 138.6 2.69774 -2.38525 0
M  V30 1409 C 138.453 2.28861 -3.87224 0
M  V30 1410 C 139.772 3.71939 -2.35264 0
M  V30 1411 H 136.891 0.534713 -0.5072 0
M  V30 1412 H 139.533 0.812375 -1.71757 0
M  V30 1413 H 137.683 3.26238 -2.10953 0
M  V30 1414 H 139.355 1.77852 -4.25636 0
M  V30 1415 H 137.598 1.60824 -4.02887 0
M  V30 1416 H 138.269 3.16584 -4.52193 0
M  V30 1417 H 140.745 3.25113 -2.59694 0
M  V30 1418 H 139.621 4.55186 -3.06753 0
M  V30 1419 H 139.882 4.20484 -1.36549 0
M  V30 1420 N 138.941 1.26152 0.944643 0
M  V30 1421 C 140.171 1.14094 1.72239 0
M  V30 1422 C 140.579 -0.306931 1.86694 0
M  V30 1423 O 139.922 -1.22222 1.3714 0
M  V30 1424 C 139.984 1.73316 3.14963 0
M  V30 1425 C 139.648 3.2239 3.23904 0
M  V30 1426 C 140.645 4.19252 3.07447 0
M  V30 1427 C 138.33 3.62788 3.47405 0
M  V30 1428 C 140.324 5.54491 3.14353 0
M  V30 1429 C 138.011 4.98162 3.53947 0
M  V30 1430 C 139.009 5.93823 3.37436 0
M  V30 1431 O 138.697 7.26732 3.43679 0
M  V30 1432 H 138.429 0.398292 0.546205 0
M  V30 1433 H 140.983 1.67201 1.19301 0
M  V30 1434 H 139.213 1.14667 3.69308 0
M  V30 1435 H 140.902 1.56214 3.74636 0
M  V30 1436 H 141.668 3.8938 2.8915 0
M  V30 1437 H 137.547 2.88816 3.59313 0
M  V30 1438 H 141.091 6.29137 3.01384 0
M  V30 1439 H 136.988 5.27695 3.71763 0
M  V30 1440 H 137.756 7.3496 3.60245 0
M  V30 1441 N 140.419 -1.14872 1.07899 0
M  V30 1442 C 141.649 -1.89386 0.825631 0
M  V30 1443 C 142.057 -1.78565 -0.625406 0
M  V30 1444 O 141.4 -1.13918 -1.44113 0
M  V30 1445 C 141.462 -3.40206 1.16191 0
M  V30 1446 C 141.126 -3.74812 2.61467 0
M  V30 1447 C 142.123 -3.75367 3.59716 0
M  V30 1448 C 139.808 -4.0495 2.97189 0
M  V30 1449 C 141.802 -4.05574 4.9172 0
M  V30 1450 C 139.489 -4.34821 4.29388 0
M  V30 1451 C 140.487 -4.35116 5.26463 0
M  V30 1452 O 140.175 -4.64267 6.56286 0
M  V30 1453 H 139.907 -0.606894 0.297751 0
M  V30 1454 H 142.461 -1.46438 1.44031 0
M  V30 1455 H 140.691 -3.8358 0.490214 0
M  V30 1456 H 142.38 -3.96018 0.890193 0
M  V30 1457 H 143.146 -3.52176 3.33462 0
M  V30 1458 H 139.025 -4.03876 2.22273 0
M  V30 1459 H 142.569 -4.05719 5.67484 0
M  V30 1460 H 138.466 -4.5748 4.55392 0
M  V30 1461 H 139.234 -4.82007 6.61522 0
M  V30 1462 N 141.898 -0.863906 -1.31812 0
M  V30 1463 C 143.138 -0.47825 -1.98726 0
M  V30 1464 C 143.502 0.950397 -1.66828 0
M  V30 1465 O 144.703 1.44109 -2.26905 0
M  V30 1466 C 142.974 -0.721134 -3.50049 0
M  V30 1467 S 144.533 -0.434432 -4.36644 0
M  V30 1468 H 141.351 -0.178773 -0.688158 0
M  V30 1469 H 143.953 -1.11862 -1.60334 0
M  V30 1470 H 142.657 -1.75981 -3.70755 0
M  V30 1471 H 142.188 -0.0675315 -3.93342 0
M  V30 1472 H 144.203 0.735786 -4.90714 0
M  V30 1473 N 143.376 1.44774 -0.622745 0
M  V30 1474 C 144.339 2.29069 0.0774015 0
M  V30 1475 C 145.339 1.4059 0.780461 0
M  V30 1476 O 146.529 1.62551 0.626322 0
M  V30 1477 C 143.661 3.21974 1.12006 0
M  V30 1478 H 144.854 2.92459 -0.663901 0
M  V30 1479 H 142.407 1.51548 -0.382486 0
M  V30 1480 H 143.142 2.63417 1.89162 0
M  V30 1481 H 142.927 3.87168 0.619951 0
M  V30 1482 H 144.417 3.85318 1.60995 0
M  V30 1483 N 144.854 0.36279 1.53368 0
M  V30 1484 C 146.27 0.0116182 1.59596 0
M  V30 1485 C 146.47 -1.47012 1.37803 0
M  V30 1486 O 145.526 -2.23136 1.18181 0
M  V30 1487 C 146.839 0.465052 2.97082 0
M  V30 1488 C 148.387 0.419033 3.10182 0
M  V30 1489 C 148.862 0.848235 4.50077 0
M  V30 1490 N 150.353 0.803183 4.56183 0
M  V30 1491 C 151.088 1.107 5.62613 0
M  V30 1492 N 150.584 1.47996 6.76808 0
M  V30 1493 N 152.377 1.02998 5.52583 0
M  V30 1494 H 144.528 1.32775 1.65785 0
M  V30 1495 H 146.791 0.542518 0.777417 0
M  V30 1496 H 146.497 1.49892 3.18159 0
M  V30 1497 H 146.371 -0.149786 3.76902 0
M  V30 1498 H 148.758 -0.605696 2.88817 0
M  V30 1499 H 148.839 1.06933 2.32377 0
M  V30 1500 H 148.483 1.87107 4.7218 0
M  V30 1501 H 148.413 0.175218 5.26308 0
M  V30 1502 H 150.904 0.52838 3.74188 0
M  V30 1503 H 151.217 1.69613 7.53957 0
M  V30 1504 H 149.562 1.51859 6.78206 0
M  V30 1505 H 152.753 0.737817 4.62249 0
M  V30 1506 H 152.926 1.2701 6.35431 0
M  V30 1507 N 146.332 -1.57332 0.0918853 0
M  V30 1508 C 147.264 -2.10869 -0.898168 0
M  V30 1509 C 148.277 -1.04521 -1.24817 0
M  V30 1510 O 149.466 -1.31977 -1.20184 0
M  V30 1511 C 146.566 -2.57083 -2.2082 0
M  V30 1512 C 145.739 -3.87229 -2.03402 0
M  V30 1513 C 144.798 -4.19324 -3.17889 0
M  V30 1514 O 143.824 -4.88598 -2.91994 0
M  V30 1515 N 145.026 -3.74471 -4.43567 0
M  V30 1516 H 147.791 -2.96439 -0.440943 0
M  V30 1517 H 145.352 -1.61631 -0.0933064 0
M  V30 1518 H 147.344 -2.75602 -2.96354 0
M  V30 1519 H 145.914 -1.76541 -2.57977 0
M  V30 1520 H 145.134 -3.7789 -1.12218 0
M  V30 1521 H 146.422 -4.72379 -1.89038 0
M  V30 1522 H 145.82 -3.18546 -4.67488 0
M  V30 1523 H 144.377 -3.98151 -5.16061 0
M  V30 1524 N 147.81 0.181792 -1.56548 0
M  V30 1525 C 149.035 0.920019 -1.85877 0
M  V30 1526 C 149.46 1.75494 -0.677021 0
M  V30 1527 O 148.818 1.77399 0.374056 0
M  V30 1528 C 148.866 1.78112 -3.13542 0
M  V30 1529 O 147.97 2.88152 -2.95029 0
M  V30 1530 H 147.311 0.258334 -0.611686 0
M  V30 1531 H 149.841 0.183092 -2.03779 0
M  V30 1532 H 149.851 2.18314 -3.44678 0
M  V30 1533 H 148.526 1.16777 -3.99169 0
M  V30 1534 H 147.103 2.51609 -2.75222 0
M  V30 1535 N 149.288 1.51039 0.449983 0
M  V30 1536 C 150.516 1.66869 1.2232 0
M  V30 1537 C 150.931 0.360727 1.85322 0
M  V30 1538 O 150.288 -0.659531 1.70166 0
M  V30 1539 C 150.339 2.77524 2.31652 0
M  V30 1540 O 150.06 4.03252 1.7123 0
M  V30 1541 C 151.561 3.04512 3.2216 0
M  V30 1542 H 148.781 0.560326 0.369155 0
M  V30 1543 H 151.325 1.97385 0.534719 0
M  V30 1544 H 149.48 2.49642 2.96239 0
M  V30 1545 H 149.894 4.64609 2.43389 0
M  V30 1546 H 151.368 3.85551 3.95038 0
M  V30 1547 H 151.845 2.16415 3.8218 0
M  V30 1548 H 152.451 3.34005 2.63288 0
M  V30 1549 N 150.766 -0.704594 1.40972 0
M  V30 1550 C 151.996 -1.49138 1.42974 0
M  V30 1551 C 152.404 -1.89175 0.0308406 0
M  V30 1552 O 151.747 -1.56734 -0.958138 0
M  V30 1553 C 151.809 -2.79016 2.26694 0
M  V30 1554 C 151.473 -2.61236 3.74973 0
M  V30 1555 C 152.47 -2.27773 4.67349 0
M  V30 1556 C 150.155 -2.77158 4.18914 0
M  V30 1557 C 152.149 -2.10457 6.01653 0
M  V30 1558 C 149.836 -2.59459 5.53285 0
M  V30 1559 C 150.834 -2.26158 6.4447 0
M  V30 1560 O 150.522 -2.08605 7.76363 0
M  V30 1561 H 150.254 -0.466443 0.489292 0
M  V30 1562 H 152.808 -0.8758 1.85793 0
M  V30 1563 H 151.038 -3.42947 1.78673 0
M  V30 1564 H 152.727 -3.40782 2.20504 0
M  V30 1565 H 153.493 -2.15095 4.34694 0
M  V30 1566 H 149.372 -3.02064 3.48251 0
M  V30 1567 H 152.916 -1.84387 6.72791 0
M  V30 1568 H 148.813 -2.71725 5.85522 0
M  V30 1569 H 149.581 -2.23439 7.87412 0
M  V30 1570 N 152.244 -1.26651 -0.937939 0
M  V30 1571 C 153.474 -1.15006 -1.71631 0
M  V30 1572 C 153.882 0.297026 -1.86854 0
M  V30 1573 O 153.225 1.21493 -1.37786 0
M  V30 1574 C 153.287 -1.74984 -3.14039 0
M  V30 1575 C 152.951 -3.24103 -3.2219 0
M  V30 1576 C 153.948 -4.20877 -3.05219 0
M  V30 1577 C 151.633 -3.64625 -3.45476 0
M  V30 1578 C 153.627 -5.56151 -3.11408 0
M  V30 1579 C 151.314 -5.00032 -3.513 0
M  V30 1580 C 152.312 -5.95604 -3.34282 0
M  V30 1581 O 152 -7.28545 -3.3982 0
M  V30 1582 H 151.732 -0.401183 -0.544085 0
M  V30 1583 H 154.286 -1.67832 -1.18413 0
M  V30 1584 H 152.516 -1.16624 -3.68695 0
M  V30 1585 H 154.205 -1.58199 -3.73802 0
M  V30 1586 H 154.971 -3.90908 -2.87081 0
M  V30 1587 H 150.85 -2.90718 -3.57777 0
M  V30 1588 H 154.394 -6.30727 -2.98043 0
M  V30 1589 H 150.291 -5.29659 -3.68959 0
M  V30 1590 H 151.059 -7.3686 -3.56343 0
M  V30 1591 N 153.722 1.14298 -1.08507 0
M  V30 1592 C 154.952 1.88945 -0.835663 0
M  V30 1593 C 155.36 1.78894 0.615928 0
M  V30 1594 O 154.703 1.1468 1.43506 0
M  V30 1595 C 154.765 3.39585 -1.17994 0
M  V30 1596 C 154.429 3.7342 -2.63451 0
M  V30 1597 C 155.426 3.73454 -3.61702 0
M  V30 1598 C 153.111 4.03368 -2.99332 0
M  V30 1599 C 155.105 4.02961 -4.93864 0
M  V30 1600 C 152.792 4.32538 -4.31687 0
M  V30 1601 C 153.79 4.32318 -5.28763 0
M  V30 1602 O 153.478 4.6078 -6.58739 0
M  V30 1603 H 153.21 0.605307 -0.300965 0
M  V30 1604 H 155.764 1.45673 -1.44806 0
M  V30 1605 H 153.994 3.83315 -0.51055 0
M  V30 1606 H 155.683 3.9554 -0.911182 0
M  V30 1607 H 156.449 3.50403 -3.35325 0
M  V30 1608 H 152.328 4.02692 -2.24411 0
M  V30 1609 H 155.872 4.02704 -5.69627 0
M  V30 1610 H 151.769 4.55059 -4.57812 0
M  V30 1611 H 152.537 4.78492 -6.64069 0
M  V30 1612 N 155.201 0.870884 1.31352 0
M  V30 1613 C 156.449 0.48132 1.96285 0
M  V30 1614 C 156.77 -0.969813 1.69173 0
M  V30 1615 O 156.04 -1.67998 1.00764 0
M  V30 1616 H 154.62 0.175002 0.726212 0
M  V30 1617 H 157.282 1.11087 1.60143 0
M  V30 1618 H 156.378 0.639825 3.05471 0
M  V30 1619 N 156.679 -1.44442 0.630414 0
M  V30 1620 C 157.904 -2.06927 0.139944 0
M  V30 1621 C 158.329 -1.46795 -1.17613 0
M  V30 1622 O 157.687 -0.569144 -1.72135 0
M  V30 1623 C 157.735 -3.6058 0.0379581 0
M  V30 1624 O 156.839 -3.99937 -1.0062 0
M  V30 1625 H 156.18 -0.658608 0.0844483 0
M  V30 1626 H 158.71 -1.85327 0.866891 0
M  V30 1627 H 158.72 -4.07714 -0.152856 0
M  V30 1628 H 157.395 -4.03728 0.998809 0
M  V30 1629 H 155.972 -3.64436 -0.79001 0
M  V30 1630 N 158.157 -0.370918 -1.53173 0
M  V30 1631 C 159.405 0.216673 -2.00935 0
M  V30 1632 C 159.726 1.48845 -1.25977 0
M  V30 1633 O 158.996 1.92286 -0.374551 0
M  V30 1634 H 157.576 0.0830565 -0.742368 0
M  V30 1635 H 160.238 -0.49838 -1.8842 0
M  V30 1636 H 159.334 0.439893 -3.08984 0
M  V30 1637 N 159.635 1.57281 -0.100228 0
M  V30 1638 C 160.583 2.15542 0.874328 0
M  V30 1639 C 161.577 1.09962 1.28859 0
M  V30 1640 O 162.783 1.28298 1.26252 0
M  V30 1641 H 159.158 0.689567 0.300003 0
M  V30 1642 H 161.129 2.96241 0.35829 0
M  V30 1643 C 159.878 2.75454 2.1218 0
M  V30 1644 H 159.201 3.56384 1.81193 0
M  V30 1645 H 160.641 3.19781 2.78417 0
M  V30 1646 C 159.1 1.71602 2.89921 0
M  V30 1647 O 159.63 1.15804 3.84646 0
M  V30 1648 N 157.836 1.41975 2.53558 0
M  V30 1649 H 157.383 1.87539 1.76598 0
M  V30 1650 H 157.341 0.727274 3.05873 0
M  V30 1651 N 161.113 -0.173488 1.56642 0
M  V30 1652 C 162.343 -0.904781 1.85734 0
M  V30 1653 C 162.751 -1.76431 0.68328 0
M  V30 1654 O 162.094 -1.802 -0.356865 0
M  V30 1655 C 162.156 -1.83382 3.09211 0
M  V30 1656 C 161.82 -1.15411 4.42187 0
M  V30 1657 C 162.817 -0.520609 5.17287 0
M  V30 1658 C 160.502 -1.15151 4.88923 0
M  V30 1659 C 162.496 0.106412 6.37311 0
M  V30 1660 C 160.183 -0.520664 6.08878 0
M  V30 1661 C 161.181 0.107196 6.82916 0
M  V30 1662 O 160.869 0.728102 8.00596 0
M  V30 1663 H 160.601 -0.268408 0.62043 0
M  V30 1664 H 163.155 -0.179096 2.04618 0
M  V30 1665 H 161.385 -2.59976 2.86268 0
M  V30 1666 H 163.074 -2.43476 3.24768 0
M  V30 1667 H 163.84 -0.514606 4.82262 0
M  V30 1668 H 159.719 -1.62961 4.31236 0
M  V30 1669 H 163.263 0.597081 6.9504 0
M  V30 1670 H 159.16 -0.524242 6.43368 0
M  V30 1671 H 159.928 0.627138 8.16094 0
M  V30 1672 N 162.591 -1.51276 -0.441967 0
M  V30 1673 C 163.821 -1.67273 -1.21257 0
M  V30 1674 C 164.229 -0.367624 -1.85594 0
M  V30 1675 O 163.572 0.663349 -1.71305 0
M  V30 1676 C 163.634 -2.72807 -2.34129 0
M  V30 1677 C 163.298 -4.1554 -1.90198 0
M  V30 1678 C 164.295 -5.00471 -1.40801 0
M  V30 1679 C 161.98 -4.61616 -1.9803 0
M  V30 1680 C 163.974 -6.29536 -0.998174 0
M  V30 1681 C 161.661 -5.90679 -1.56658 0
M  V30 1682 C 162.659 -6.74466 -1.07633 0
M  V30 1683 O 162.347 -8.01116 -0.668459 0
M  V30 1684 H 162.079 -0.564614 -0.371734 0
M  V30 1685 H 164.633 -1.9843 -0.530521 0
M  V30 1686 H 162.863 -2.36954 -3.05597 0
M  V30 1687 H 164.552 -2.77729 -2.96009 0
M  V30 1688 H 165.318 -4.66079 -1.34148 0
M  V30 1689 H 161.197 -3.96526 -2.35135 0
M  V30 1690 H 164.741 -6.94885 -0.61482 0
M  V30 1691 H 160.638 -6.24586 -1.62979 0
M  V30 1692 H 161.406 -8.14633 -0.794722 0
M  V30 1693 N 164.069 0.697108 -1.41344 0
M  V30 1694 C 165.317 1.45426 -1.40341 0
M  V30 1695 C 165.638 1.94996 -0.0128787 0
M  V30 1696 O 164.908 1.71599 0.945027 0
M  V30 1697 H 163.488 0.539594 -0.516573 0
M  V30 1698 H 166.15 0.825201 -1.76569 0
M  V30 1699 H 165.246 2.31817 -2.08967 0
M  V30 1700 N 165.547 1.27147 0.931209 0
M  V30 1701 C 166.793 1.14455 1.68141 0
M  V30 1702 C 167.148 -0.307172 1.89932 0
M  V30 1703 O 166.441 -1.22158 1.47607 0
M  V30 1704 C 166.635 1.8579 3.05314 0
M  V30 1705 C 166.464 3.3775 2.96909 0
M  V30 1706 C 165.234 4.07062 2.99381 0
M  V30 1707 C 167.432 4.33783 2.76291 0
M  V30 1708 N 165.414 5.45618 2.8138 0
M  V30 1709 C 166.785 5.59582 2.6696 0
M  V30 1710 C 168.84 4.23915 2.61152 0
M  V30 1711 C 167.543 6.76639 2.44033 0
M  V30 1712 C 169.569 5.40689 2.39602 0
M  V30 1713 C 168.931 6.65443 2.3101 0
M  V30 1714 H 165.03 0.473667 0.622225 0
M  V30 1715 H 167.614 1.60568 1.10118 0
M  V30 1716 H 165.785 1.42138 3.61457 0
M  V30 1717 H 167.517 1.65634 3.69253 0
M  V30 1718 H 164.272 3.585 3.09475 0
M  V30 1719 H 164.696 6.184 2.75519 0
M  V30 1720 H 169.338 3.28189 2.66555 0
M  V30 1721 H 167.056 7.72451 2.3737 0
M  V30 1722 H 170.642 5.34932 2.28778 0
M  V30 1723 H 169.522 7.54277 2.14558 0
M  V30 1724 N 167.025 -1.13721 1.09112 0
M  V30 1725 C 168.272 -1.84924 0.825192 0
M  V30 1726 C 168.6 -1.83347 -0.649151 0
M  V30 1727 O 167.855 -1.26449 -1.49362 0
M  V30 1728 C 168.154 -3.32861 1.30146 0
M  V30 1729 C 167.82 -3.54621 2.78486 0
M  V30 1730 C 166.482 -3.60268 3.18999 0
M  V30 1731 C 168.834 -3.62855 3.74146 0
M  V30 1732 C 166.162 -3.71679 4.53951 0
M  V30 1733 C 168.514 -3.75793 5.08883 0
M  V30 1734 C 167.178 -3.79692 5.4899 0
M  V30 1735 H 166.448 -0.676684 0.301959 0
M  V30 1736 H 169.095 -1.3428 1.36533 0
M  V30 1737 H 167.4 -3.85835 0.681064 0
M  V30 1738 H 169.097 -3.86395 1.07236 0
M  V30 1739 H 165.687 -3.50879 2.46134 0
M  V30 1740 H 169.871 -3.57775 3.43963 0
M  V30 1741 H 165.127 -3.72963 4.84467 0
M  V30 1742 H 169.301 -3.81107 5.82864 0
M  V30 1743 H 166.928 -3.88287 6.53558 0
M  V30 1744 N 168.503 -0.877838 -1.30888 0
M  V30 1745 C 169.78 -0.413052 -1.91189 0
M  V30 1746 C 170.16 1.1056 -1.79832 0
M  V30 1747 O 169.508 1.93771 -1.21099 0
M  V30 1748 C 169.718 -0.903191 -3.3711 0
M  V30 1749 C 171.066 -0.93395 -4.14201 0
M  V30 1750 O 172.09 -0.849373 -3.45925 0
M  V30 1751 O 170.949 -1.05772 -5.36167 0
M  V30 1752 H 168.043 -0.125035 -0.817493 0
M  V30 1753 H 170.589 -0.966269 -1.39504 0
M  V30 1754 H 169.361 -1.94692 -3.39427 0
M  V30 1755 H 168.984 -0.328732 -3.96239 0
M  V30 1756 N 169.982 1.44106 -0.638065 0
M  V30 1757 C 171.398 1.56672 -0.304286 0
M  V30 1758 C 171.598 1.6244 1.19228 0
M  V30 1759 O 170.654 1.57121 1.9766 0
M  V30 1760 C 171.967 2.83503 -1.00231 0
M  V30 1761 C 173.515 2.97226 -0.981116 0
M  V30 1762 C 173.99 4.26868 -1.65974 0
M  V30 1763 N 175.481 4.33698 -1.62666 0
M  V30 1764 C 176.216 5.32745 -2.12063 0
M  V30 1765 N 175.712 6.38157 -2.6968 0
M  V30 1766 N 177.505 5.24299 -2.02651 0
M  V30 1767 H 169.656 1.38605 -1.60942 0
M  V30 1768 H 171.919 0.664661 -0.675965 0
M  V30 1769 H 171.625 2.85251 -2.0573 0
M  V30 1770 H 171.499 3.73251 -0.54439 0
M  V30 1771 H 173.886 2.95027 0.0654188 0
M  V30 1772 H 173.967 2.08808 -1.47759 0
M  V30 1773 H 173.611 4.29826 -2.70576 0
M  V30 1774 H 173.541 5.14156 -1.13804 0
M  V30 1775 H 176.032 3.58138 -1.20606 0
M  V30 1776 H 176.345 7.10029 -3.05087 0
M  V30 1777 H 174.69 6.38823 -2.73734 0
M  V30 1778 H 177.881 4.4086 -1.57353 0
M  V30 1779 H 178.054 6.01334 -2.41457 0
M  V30 1780 N 171.46 0.379036 1.52974 0
M  V30 1781 C 172.706 -0.199244 2.02422 0
M  V30 1782 C 173.061 -1.4532 1.26095 0
M  V30 1783 O 172.354 -1.88377 0.34996 0
M  V30 1784 C 172.548 -0.53096 3.53434 0
M  V30 1785 C 172.377 0.689298 4.44386 0
M  V30 1786 C 171.147 1.20546 4.9071 0
M  V30 1787 C 173.345 1.55856 4.90116 0
M  V30 1788 N 171.327 2.38434 5.65705 0
M  V30 1789 C 172.698 2.58396 5.63588 0
M  V30 1790 C 174.753 1.57986 4.7217 0
M  V30 1791 C 173.456 3.62939 6.21022 0
M  V30 1792 C 175.482 2.6143 5.30479 0
M  V30 1793 C 174.844 3.62693 6.03849 0
M  V30 1794 H 170.943 -0.0352671 0.781204 0
M  V30 1795 H 173.527 0.526614 1.87443 0
M  V30 1796 H 171.698 -1.22588 3.68547 0
M  V30 1797 H 173.43 -1.0955 3.89591 0
M  V30 1798 H 170.185 0.768022 4.67331 0
M  V30 1799 H 170.609 2.98055 6.07859 0
M  V30 1800 H 175.251 0.810475 4.14959 0
M  V30 1801 H 172.969 4.40751 6.77321 0
M  V30 1802 H 176.555 2.63949 5.18481 0
M  V30 1803 H 175.435 4.41424 6.48163 0
M  V30 1804 N 172.938 -1.57226 0.108567 0
M  V30 1805 C 174.215 -1.86333 -0.594939 0
M  V30 1806 C 174.595 -1.00788 -1.85486 0
M  V30 1807 O 173.943 -0.0839293 -2.28346 0
M  V30 1808 C 174.153 -3.37265 -0.897405 0
M  V30 1809 C 175.501 -4.05629 -1.25501 0
M  V30 1810 O 176.525 -3.42224 -0.987998 0
M  V30 1811 O 175.384 -5.17531 -1.75567 0
M  V30 1812 H 172.478 -0.771018 -0.2991 0
M  V30 1813 H 175.024 -1.69102 0.142283 0
M  V30 1814 H 173.796 -3.913 -0.00413806 0
M  V30 1815 H 173.419 -3.59889 -1.69014 0
M  V30 1816 N 174.416 0.165178 -1.56732 0
M  V30 1817 C 175.348 1.22911 -1.93457 0
M  V30 1818 C 176.361 1.40152 -0.828333 0
M  V30 1819 O 177.55 1.40046 -1.10677 0
M  V30 1820 C 174.65 2.59686 -2.17753 0
M  V30 1821 C 173.823 2.63663 -3.48999 0
M  V30 1822 C 172.882 3.81845 -3.62051 0
M  V30 1823 O 171.908 3.67559 -4.34613 0
M  V30 1824 N 173.11 4.98557 -2.97357 0
M  V30 1825 H 175.875 0.917118 -2.85323 0
M  V30 1826 H 173.436 0.354895 -1.57962 0
M  V30 1827 H 175.428 3.37225 -2.23743 0
M  V30 1828 H 173.998 2.83251 -1.32242 0
M  V30 1829 H 173.218 1.72173 -3.54612 0
M  V30 1830 H 174.506 2.63336 -4.35352 0
M  V30 1831 H 173.904 5.13065 -2.38287 0
M  V30 1832 H 172.461 5.73936 -3.08934 0
M  V30 1833 N 175.894 1.51508 0.433938 0
M  V30 1834 C 177.142 1.6402 1.18075 0
M  V30 1835 C 177.463 0.360328 1.91642 0
M  V30 1836 O 176.733 -0.623945 1.85698 0
M  V30 1837 H 175.313 0.6045 0.43885 0
M  V30 1838 H 177.975 1.88452 0.497178 0
M  V30 1839 H 177.071 2.46949 1.90847 0
M  V30 1840 N 177.372 -0.689602 1.41712 0
M  V30 1841 C 178.6 -1.47827 1.44758 0
M  V30 1842 C 179.015 -1.88721 0.0545703 0
M  V30 1843 O 178.372 -1.57176 -0.927463 0
M  V30 1844 C 178.423 -2.73698 2.3616 0
M  V30 1845 O 178.144 -2.34524 3.7004 0
M  V30 1846 C 179.645 -3.67389 2.48072 0
M  V30 1847 H 176.865 -0.455357 0.49284 0
M  V30 1848 H 179.409 -0.848574 1.86063 0
M  V30 1849 H 177.564 -3.32891 1.98148 0
M  V30 1850 H 177.978 -3.15701 4.18847 0
M  V30 1851 H 179.452 -4.52475 3.16181 0
M  V30 1852 H 179.929 -4.12284 1.51388 0
M  V30 1853 H 180.535 -3.14097 2.86746 0
M  V30 1854 N 178.85 -1.27639 -0.924453 0
M  V30 1855 C 179.78 -1.13166 -2.04244 0
M  V30 1856 C 180.761 -0.032256 -1.70069 0
M  V30 1857 O 181.946 -0.207328 -1.9309 0
M  V30 1858 C 179.076 -0.781496 -3.38393 0
M  V30 1859 C 178.03 -1.83449 -3.86692 0
M  V30 1860 C 177.356 -1.33822 -5.17683 0
M  V30 1861 C 178.656 -3.23917 -4.09726 0
M  V30 1862 H 180.35 -2.06689 -2.1661 0
M  V30 1863 H 177.896 -0.995136 -1.04082 0
M  V30 1864 H 179.849 -0.667057 -4.16087 0
M  V30 1865 H 178.573 0.189439 -3.2605 0
M  V30 1866 H 177.232 -1.93789 -3.11193 0
M  V30 1867 H 176.88 -0.35665 -5.01734 0
M  V30 1868 H 176.58 -2.04224 -5.50968 0
M  V30 1869 H 178.104 -1.23679 -5.97943 0
M  V30 1870 H 179.518 -3.16559 -4.77978 0
M  V30 1871 H 177.915 -3.92059 -4.54324 0
M  V30 1872 H 178.985 -3.68729 -3.14908 0
M  V30 1873 N 180.328 1.1314 -1.09713 0
M  V30 1874 C 181.574 1.84757 -0.836224 0
M  V30 1875 C 181.907 1.8347 0.636598 0
M  V30 1876 O 181.182 1.27491 1.46889 0
M  V30 1877 C 181.465 3.32782 -1.37578 0
M  V30 1878 C 181.318 3.42567 -2.91493 0
M  V30 1879 C 182.637 4.28307 -1.01198 0
M  V30 1880 H 179.756 0.67082 -0.305236 0
M  V30 1881 H 182.398 1.3278 -1.35903 0
M  V30 1882 H 180.548 3.77177 -0.931097 0
M  V30 1883 H 182.22 3.06862 -3.44432 0
M  V30 1884 H 180.463 2.83349 -3.28475 0
M  V30 1885 H 181.134 4.46674 -3.24324 0
M  V30 1886 H 183.61 3.91999 -1.39556 0
M  V30 1887 H 182.486 5.30307 -1.41653 0
M  V30 1888 H 182.747 4.42029 0.0794833 0
M  V30 1889 N 181.806 0.884767 1.30421 0
M  V30 1890 C 183.034 0.518044 2.0031 0
M  V30 1891 C 183.449 -0.893408 1.66324 0
M  V30 1892 O 182.806 -1.5875 0.900262 0
M  V30 1893 C 182.857 0.682997 3.54989 0
M  V30 1894 O 182.578 2.03888 3.87764 0
M  V30 1895 C 184.079 0.31924 4.42149 0
M  V30 1896 H 181.299 0.200265 0.640418 0
M  V30 1897 H 183.843 1.19001 1.6631 0
M  V30 1898 H 181.998 0.0584052 3.87356 0
M  V30 1899 H 182.412 2.05735 4.82466 0
M  V30 1900 H 183.886 0.485555 5.4986 0
M  V30 1901 H 184.363 -0.742717 4.32875 0
M  V30 1902 H 184.969 0.920147 4.15227 0
M  V30 1903 N 183.284 -1.43765 0.645699 0
M  V30 1904 C 184.53 -2.02197 0.156271 0
M  V30 1905 C 184.863 -1.50776 -1.22393 0
M  V30 1906 O 184.138 -0.697771 -1.81553 0
M  V30 1907 C 184.421 -3.59749 0.158872 0
M  V30 1908 C 184.274 -4.21419 1.57245 0
M  V30 1909 C 185.593 -4.37149 -0.50879 0
M  V30 1910 H 182.712 -0.734694 0.0582602 0
M  V30 1911 H 185.354 -1.71157 0.824951 0
M  V30 1912 H 183.504 -3.86325 -0.410525 0
M  V30 1913 H 185.176 -4.059 2.19186 0
M  V30 1914 H 183.419 -3.78356 2.122 0
M  V30 1915 H 184.09 -5.30482 1.52619 0
M  V30 1916 H 186.566 -4.16093 -0.024412 0
M  V30 1917 H 185.442 -5.4683 -0.476213 0
M  V30 1918 H 185.703 -4.12839 -1.58165 0
M  V30 1919 N 184.763 -0.387143 -1.52771 0
M  V30 1920 C 185.988 0.198407 -2.06449 0
M  V30 1921 C 186.413 1.39918 -1.25716 0
M  V30 1922 O 185.771 1.79099 -0.281657 0
M  V30 1923 C 185.819 0.548893 -3.56398 0
M  V30 1924 O 184.923 1.64315 -3.78252 0
M  V30 1925 H 184.264 0.0237731 -0.663574 0
M  V30 1926 H 186.794 -0.553989 -1.96957 0
M  V30 1927 H 186.804 0.813812 -3.99801 0
M  V30 1928 H 185.479 -0.329005 -4.14597 0
M  V30 1929 H 184.056 1.37211 -3.46738 0
M  V30 1930 N 186.241 1.57166 -0.116904 0
M  V30 1931 C 187.466 1.999 0.55271 0
M  V30 1932 C 187.891 0.996039 1.59564 0
M  V30 1933 O 187.249 -0.032556 1.81271 0
M  V30 1934 C 187.297 3.4152 1.15742 0
M  V30 1935 O 186.401 3.44106 2.27299 0
M  V30 1936 H 185.742 0.649447 0.138258 0
M  V30 1937 H 188.272 2.03573 -0.204759 0
M  V30 1938 H 188.282 3.79684 1.49346 0
M  V30 1939 H 186.957 4.14034 0.393493 0
M  V30 1940 H 185.534 3.17759 1.9515 0
M  V30 1941 N 187.719 -0.156864 1.56817 0
M  V30 1942 C 188.682 -1.17781 1.96622 0
M  V30 1943 C 189.682 -1.36401 0.851555 0
M  V30 1944 O 190.872 -1.33561 1.11836 0
M  V30 1945 C 188.004 -2.54008 2.27361 0
M  V30 1946 H 189.197 -0.836564 2.87996 0
M  V30 1947 H 186.75 -0.39985 1.51099 0
M  V30 1948 H 187.485 -2.9312 1.38748 0
M  V30 1949 H 187.27 -2.41856 3.08623 0
M  V30 1950 H 188.76 -3.27558 2.59029 0
M  V30 1951 N 189.197 -1.51736 -0.425897 0
M  V30 1952 C 190.422 -1.69082 -1.20108 0
M  V30 1953 C 190.847 -0.392398 -1.83962 0
M  V30 1954 O 190.205 0.64858 -1.69302 0
M  V30 1955 C 190.253 -2.81604 -2.25237 0
M  V30 1956 O 189.357 -2.46004 -3.30992 0
M  V30 1957 H 188.698 -0.563408 -0.35138 0
M  V30 1958 H 191.228 -1.98358 -0.501512 0
M  V30 1959 H 191.238 -3.06025 -2.69838 0
M  V30 1960 H 189.913 -3.75817 -1.78142 0
M  V30 1961 H 188.49 -2.32195 -2.91787 0
M  V30 1962 N 190.675 0.682077 -1.42076 0
M  V30 1963 C 191.903 1.47057 -1.4554 0
M  V30 1964 C 192.318 1.8869 -0.0645779 0
M  V30 1965 O 191.675 1.57666 0.919115 0
M  V30 1966 C 191.726 2.72442 -2.37609 0
M  V30 1967 O 191.447 2.32559 -3.71279 0
M  V30 1968 C 192.948 3.66069 -2.50017 0
M  V30 1969 H 190.168 0.452737 -0.495248 0
M  V30 1970 H 192.712 0.838695 -1.8651 0
M  V30 1971 H 190.867 3.31835 -1.9991 0
M  V30 1972 H 191.281 3.13475 -4.20516 0
M  V30 1973 H 192.755 4.50792 -3.18576 0
M  V30 1974 H 193.232 4.11476 -1.53572 0
M  V30 1975 H 193.838 3.12572 -2.88407 0
M  V30 1976 N 192.153 1.28127 0.917671 0
M  V30 1977 C 193.1 1.11717 2.0196 0
M  V30 1978 C 194.07 0.0153929 1.66093 0
M  V30 1979 O 195.255 0.179596 1.89953 0
M  V30 1980 C 192.395 0.780927 3.36148 0
M  V30 1981 C 191.508 1.96135 3.84909 0
M  V30 1982 C 190.643 1.56609 5.0759 0
M  V30 1983 C 189.682 2.71339 5.48673 0
M  V30 1984 N 188.819 2.32332 6.62545 0
M  V30 1985 H 193.659 2.06003 2.15329 0
M  V30 1986 H 191.196 1.02535 1.05475 0
M  V30 1987 H 193.154 0.56675 4.13333 0
M  V30 1988 H 191.784 -0.124998 3.22558 0
M  V30 1989 H 190.836 2.28777 3.03916 0
M  V30 1990 H 192.148 2.82165 4.1132 0
M  V30 1991 H 191.302 1.31374 5.92305 0
M  V30 1992 H 190.041 0.677014 4.82978 0
M  V30 1993 H 189.046 2.97276 4.62501 0
M  V30 1994 H 190.271 3.60882 5.75274 0
M  V30 1995 H 188.217 1.45889 6.39572 0
M  V30 1996 H 188.134 3.11899 6.88662 0
M  V30 1997 H 189.402 2.10371 7.50576 0
M  V30 1998 N 193.631 -1.12557 1.10312 0
M  V30 1999 C 194.879 -1.83675 0.843091 0
M  V30 2000 C 195.2 -1.84435 -0.633131 0
M  V30 2001 O 194.47 -1.30657 -1.45964 0
M  V30 2002 H 193.05 -0.680138 0.308904 0
M  V30 2003 H 195.712 -1.36301 1.39313 0
M  V30 2004 H 194.808 -2.87908 1.2048 0
M  V30 2005 N 195.109 -0.891671 -1.2995 0
M  V30 2006 C 196.52 -0.563104 -1.78006 0
M  V30 2007 C 196.871 0.920978 -1.73241 0
M  V30 2008 O 195.996 1.71987 -1.31337 0
M  V30 2009 C 196.591 -1.01539 -3.23226 0
M  V30 2010 C 195.15 -0.738124 -3.69092 0
M  V30 2011 C 194.297 -1.19461 -2.50249 0
M  V30 2012 H 197.248 -1.07522 -1.16725 0
M  V30 2013 H 197.269 -0.347217 -3.78912 0
M  V30 2014 H 196.781 -2.09555 -3.26662 0
M  V30 2015 H 194.882 0.329766 -3.71138 0
M  V30 2016 H 194.995 -1.33037 -4.60259 0
M  V30 2017 H 193.359 -0.613787 -2.47194 0
M  V30 2018 H 194.142 -2.28265 -2.56417 0
M  V30 2019 N 196.587 1.43421 -0.653314 0
M  V30 2020 C 197.812 2.06678 -0.172846 0
M  V30 2021 C 198.237 1.48648 1.15262 0
M  V30 2022 O 197.595 0.596457 1.71208 0
M  V30 2023 C 197.643 3.60474 -0.0953184 0
M  V30 2024 O 196.747 4.01487 0.942442 0
M  V30 2025 H 196.088 0.657181 -0.0949155 0
M  V30 2026 H 198.618 1.83925 -0.896265 0
M  V30 2027 H 198.628 4.07905 0.0879728 0
M  V30 2028 H 197.303 4.02088 -1.06291 0
M  V30 2029 H 195.88 3.65646 0.731932 0
M  V30 2030 N 198.065 0.39524 1.52563 0
M  V30 2031 C 199.311 -0.185318 2.01952 0
M  V30 2032 C 199.644 -1.45964 1.28095 0
M  V30 2033 O 198.919 -1.90689 0.38315 0
M  V30 2034 C 199.202 -0.447193 3.57312 0
M  V30 2035 C 199.055 0.842828 4.41833 0
M  V30 2036 C 200.374 -1.23529 4.22408 0
M  V30 2037 H 197.493 -0.0658788 0.73405 0
M  V30 2038 H 200.135 0.525975 1.82575 0
M  V30 2039 H 198.285 -1.05312 3.73954 0
M  V30 2040 H 199.957 1.4795 4.36931 0
M  V30 2041 H 198.2 1.45686 4.08605 0
M  V30 2042 H 198.871 0.614165 5.48573 0
M  V30 2043 H 201.347 -0.722445 4.0978 0
M  V30 2044 H 200.223 -1.38727 5.3108 0
M  V30 2045 H 200.484 -2.25213 3.80436 0
M  V30 2046 N 199.544 -1.57102 0.125237 0
M  V30 2047 C 200.791 -1.95407 -0.531248 0
M  V30 2048 C 201.119 -1.0089 -1.66287 0
M  V30 2049 O 200.374 -0.0339431 -1.95671 0
M  V30 2050 C 200.673 -3.40096 -1.09862 0
M  V30 2051 C 200.339 -4.50815 -0.0876989 0
M  V30 2052 C 199.001 -4.80824 0.19026 0
M  V30 2053 C 201.353 -5.17724 0.600902 0
M  V30 2054 C 198.681 -5.75058 1.163 0
M  V30 2055 C 201.033 -6.13005 1.56231 0
M  V30 2056 C 199.697 -6.41403 1.8482 0
M  V30 2057 H 198.967 -0.715046 -0.194397 0
M  V30 2058 H 201.614 -1.90373 0.207463 0
M  V30 2059 H 199.919 -3.41855 -1.91422 0
M  V30 2060 H 201.616 -3.6705 -1.61478 0
M  V30 2061 H 198.206 -4.27444 -0.314528 0
M  V30 2062 H 202.39 -4.94691 0.399333 0
M  V30 2063 H 197.646 -5.95362 1.39117 0
M  V30 2064 H 201.82 -6.63934 2.10153 0
M  V30 2065 H 199.447 -7.14229 2.60349 0
M  V30 2066 N 201.022 0.148545 -1.56898 0
M  V30 2067 C 202.433 0.708766 -1.72723 0
M  V30 2068 C 202.784 1.81734 -0.739395 0
M  V30 2069 O 201.909 2.16194 0.0943169 0
M  V30 2070 C 202.504 1.29245 -3.13179 0
M  V30 2071 C 201.063 1.79925 -3.30611 0
M  V30 2072 C 200.21 0.687111 -2.68652 0
M  V30 2073 H 203.161 -0.0771063 -1.58513 0
M  V30 2074 H 203.182 2.16224 -3.13093 0
M  V30 2075 H 202.694 0.485382 -3.85053 0
M  V30 2076 H 200.795 2.63203 -2.63732 0
M  V30 2077 H 200.908 1.92903 -4.38549 0
M  V30 2078 H 199.272 1.11335 -2.29078 0
M  V30 2079 H 200.055 -0.108483 -3.43129 0
M  V30 2080 N 202.5 1.5196 0.417844 0
M  V30 2081 C 203.43 1.77634 1.51554 0
M  V30 2082 C 204.411 0.626918 1.58126 0
M  V30 2083 O 205.596 0.871632 1.7354 0
M  V30 2084 C 202.726 1.91911 2.8946 0
M  V30 2085 C 201.68 3.07463 2.97743 0
M  V30 2086 C 201.006 3.06951 4.37819 0
M  V30 2087 C 202.306 4.47082 2.70027 0
M  V30 2088 H 204 2.6955 1.3032 0
M  V30 2089 H 201.546 1.29706 0.625492 0
M  V30 2090 H 203.499 2.08455 3.6623 0
M  V30 2091 H 202.223 0.966598 3.11969 0
M  V30 2092 H 200.882 2.90656 2.23416 0
M  V30 2093 H 200.53 2.09438 4.57323 0
M  V30 2094 H 200.23 3.84556 4.44286 0
M  V30 2095 H 201.754 3.25613 5.16535 0
M  V30 2096 H 203.168 4.6414 3.36522 0
M  V30 2097 H 201.565 5.2654 2.87881 0
M  V30 2098 H 202.635 4.55777 1.65514 0
M  V30 2099 N 203.978 -0.674533 1.42435 0
M  V30 2100 C 204.941 -1.76986 1.45632 0
M  V30 2101 C 205.941 -1.5708 0.343871 0
M  V30 2102 O 207.131 -1.63367 0.604709 0
M  V30 2103 C 204.263 -3.15623 1.28822 0
M  V30 2104 H 205.456 -1.75539 2.43158 0
M  V30 2105 H 203.009 -0.884189 1.28887 0
M  V30 2106 H 203.744 -3.22696 0.322193 0
M  V30 2107 H 203.529 -3.31475 2.09444 0
M  V30 2108 H 205.019 -3.95537 1.33942 0
M  V30 2109 N 205.456 -1.28612 -0.910864 0
M  V30 2110 C 206.867 -1.14406 -1.47541 0
M  V30 2111 C 207.218 0.264901 -1.94403 0
M  V30 2112 O 206.343 1.15942 -1.82719 0
M  V30 2113 C 206.938 -2.07073 -2.68153 0
M  V30 2114 C 205.497 -1.96923 -3.20778 0
M  V30 2115 C 204.644 -1.98646 -1.93481 0
M  V30 2116 H 207.595 -1.41259 -0.723291 0
M  V30 2117 H 207.616 -1.63642 -3.43514 0
M  V30 2118 H 207.128 -3.09611 -2.34015 0
M  V30 2119 H 205.229 -0.97433 -3.59635 0
M  V30 2120 H 205.342 -2.84026 -3.85832 0
M  V30 2121 H 203.706 -1.43093 -2.10705 0
M  V30 2122 H 204.489 -3.02868 -1.61634 0
M  V30 2123 N 206.934 1.1197 -1.10907 0
M  V30 2124 C 208.159 1.87942 -0.877064 0
M  V30 2125 C 208.584 1.79341 0.567314 0
M  V30 2126 O 207.942 1.15184 1.40009 0
M  V30 2127 C 207.99 3.34926 -1.33629 0
M  V30 2128 O 207.094 4.09303 -0.504447 0
M  V30 2129 H 206.435 0.583785 -0.316371 0
M  V30 2130 H 208.965 1.4157 -1.47712 0
M  V30 2131 H 208.975 3.8577 -1.32837 0
M  V30 2132 H 207.65 3.40504 -2.3881 0
M  V30 2133 H 206.227 3.68393 -0.577993 0
M  V30 2134 N 208.412 0.89855 1.29475 0
M  V30 2135 C 209.637 0.538561 2.00285 0
M  V30 2136 C 210.062 -0.869135 1.66816 0
M  V30 2137 O 209.42 -1.57831 0.892145 0
M  V30 2138 C 209.468 0.736475 3.52999 0
M  V30 2139 O 208.572 -0.211537 4.11857 0
M  V30 2140 H 207.913 0.210563 0.62973 0
M  V30 2141 H 210.443 1.20982 1.64998 0
M  V30 2142 H 210.453 0.640685 4.02938 0
M  V30 2143 H 209.128 1.76276 3.76696 0
M  V30 2144 H 207.705 -0.0682991 3.72837 0
M  V30 2145 N 209.89 -1.43072 0.660911 0
M  V30 2146 C 210.837 -2.30785 -0.0259884 0
M  V30 2147 C 211.807 -1.45184 -0.806888 0
M  V30 2148 O 212.992 -1.74041 -0.781943 0
M  V30 2149 C 210.132 -3.30861 -0.981067 0
M  V30 2150 C 209.245 -4.31558 -0.195458 0
M  V30 2151 C 208.38 -5.18712 -1.14503 0
M  V30 2152 C 207.419 -6.11097 -0.350299 0
M  V30 2153 N 206.556 -6.90849 -1.25186 0
M  V30 2154 H 211.396 -2.88975 0.727846 0
M  V30 2155 H 208.933 -1.42353 0.370682 0
M  V30 2156 H 210.891 -3.87399 -1.54849 0
M  V30 2157 H 209.521 -2.74304 -1.70169 0
M  V30 2158 H 208.573 -3.77252 0.488374 0
M  V30 2159 H 209.885 -4.9701 0.422176 0
M  V30 2160 H 209.039 -5.79914 -1.78284 0
M  V30 2161 H 207.778 -4.53404 -1.79656 0
M  V30 2162 H 206.783 -5.48976 0.300808 0
M  V30 2163 H 208.008 -6.7845 0.296941 0
M  V30 2164 H 205.954 -6.28182 -1.89005 0
M  V30 2165 H 205.871 -7.52854 -0.688971 0
M  V30 2166 H 207.139 -7.5655 -1.87757 0
M  V30 2167 N 211.368 -0.403325 -1.52352 0
M  V30 2168 C 212.593 0.176499 -2.06648 0
M  V30 2169 C 213.018 1.38577 -1.27193 0
M  V30 2170 O 212.376 1.7879 -0.300637 0
M  V30 2171 C 212.424 0.511061 -3.5696 0
M  V30 2172 O 211.528 1.60294 -3.79973 0
M  V30 2173 H 210.869 0.0167337 -0.663789 0
M  V30 2174 H 213.399 -0.574848 -1.96359 0
M  V30 2175 H 213.409 0.771362 -4.00642 0
M  V30 2176 H 212.084 -0.37296 -4.14224 0
M  V30 2177 H 210.661 1.33526 -3.48174 0
M  V30 2178 N 212.846 1.57033 -0.133567 0
M  V30 2179 C 214.074 2.00044 0.528195 0
M  V30 2180 C 214.489 1.01349 1.59291 0
M  V30 2181 O 213.846 0.00848369 1.82498 0
M  V30 2182 C 213.897 3.43018 1.1411 0
M  V30 2183 O 213.618 4.37939 0.11892 0
M  V30 2184 C 215.119 4.01237 1.88477 0
M  V30 2185 H 212.339 0.656517 0.138661 0
M  V30 2186 H 214.883 2.03267 -0.224196 0
M  V30 2187 H 213.038 3.40688 1.84418 0
M  V30 2188 H 213.452 5.21436 0.56613 0
M  V30 2189 H 214.926 5.03314 2.26669 0
M  V30 2190 H 215.403 3.41193 2.76558 0
M  V30 2191 H 216.009 4.07156 1.22898 0
M  V30 2192 N 214.325 -0.140222 1.56975 0
M  V30 2193 C 215.55 -0.870414 1.88251 0
M  V30 2194 C 215.975 -1.73637 0.723312 0
M  V30 2195 O 215.333 -1.78329 -0.32689 0
M  V30 2196 C 215.381 -1.69737 3.18154 0
M  V30 2197 O 214.485 -2.80229 3.02565 0
M  V30 2198 H 213.826 -0.242025 0.61832 0
M  V30 2199 H 216.356 -0.128999 2.04193 0
M  V30 2200 H 216.366 -2.09099 3.50345 0
M  V30 2201 H 215.041 -1.06152 4.02125 0
M  V30 2202 H 213.618 -2.44224 2.81796 0
M  V30 2203 N 215.803 -1.52179 -0.40978 0
M  V30 2204 C 217.051 -1.65878 -1.15451 0
M  V30 2205 C 217.372 -0.390771 -1.91044 0
M  V30 2206 O 216.642 0.594323 -1.86667 0
M  V30 2207 H 215.222 -0.611405 -0.429177 0
M  V30 2208 H 217.884 -1.89219 -0.467134 0
M  V30 2209 H 216.98 -2.49954 -1.86894 0
M  V30 2210 N 217.281 0.66697 -1.42791 0
M  V30 2211 C 218.529 1.42417 -1.43394 0
M  V30 2212 C 218.85 1.94925 -0.0542373 0
M  V30 2213 O 218.12 1.73564 0.908415 0
M  V30 2214 H 216.7 0.528515 -0.527902 0
M  V30 2215 H 219.362 0.787562 -1.78279 0
M  V30 2216 H 218.458 2.27333 -2.13837 0
M  V30 2217 N 218.759 1.29093 0.90403 0
M  V30 2218 C 219.987 1.19689 1.68766 0
M  V30 2219 C 220.402 -0.243113 1.87228 0
M  V30 2220 O 219.759 -1.16326 1.40621 0
M  V30 2221 C 219.81 1.90144 3.07453 0
M  V30 2222 O 219.531 3.2852 2.89838 0
M  V30 2223 C 221.032 1.87162 4.01852 0
M  V30 2224 H 218.252 0.415035 0.527244 0
M  V30 2225 H 220.796 1.7039 1.13082 0
M  V30 2226 H 218.951 1.43289 3.59926 0
M  V30 2227 H 219.365 3.63944 3.77684 0
M  V30 2228 H 220.839 2.41032 4.96596 0
M  V30 2229 H 221.316 0.84617 4.30972 0
M  V30 2230 H 221.922 2.33741 3.5531 0
M  V30 2231 N 220.237 -1.11381 1.11499 0
M  V30 2232 C 221.2 -2.15622 0.777153 0
M  V30 2233 C 222.2 -1.59504 -0.203779 0
M  V30 2234 O 223.39 -1.74188 0.020782 0
M  V30 2235 C 220.522 -3.40556 0.153116 0
M  V30 2236 H 221.715 -2.47021 1.70061 0
M  V30 2237 H 219.268 -1.26577 0.916952 0
M  V30 2238 H 220.003 -3.14767 -0.780536 0
M  V30 2239 H 219.788 -3.8257 0.859238 0
M  V30 2240 H 221.278 -4.17546 -0.0671044 0
M  V30 2241 N 221.715 -0.905404 -1.28997 0
M  V30 2242 C 222.678 -0.392253 -2.25819 0
M  V30 2243 C 223.678 0.476753 -1.5357 0
M  V30 2244 O 224.868 0.280994 -1.71919 0
M  V30 2245 C 222 0.438588 -3.38067 0
M  V30 2246 H 223.193 -1.24743 -2.72725 0
M  V30 2247 H 220.746 -0.684051 -1.40536 0
M  V30 2248 H 221.481 1.31352 -2.96508 0
M  V30 2249 H 221.266 -0.184167 -3.91667 0
M  V30 2250 H 222.756 0.78873 -4.10084 0
M  V30 2251 N 223.193 1.4272 -0.668489 0
M  V30 2252 C 224.123 2.335 -0.000100175 0
M  V30 2253 C 225.104 1.50328 0.795964 0
M  V30 2254 O 226.289 1.78949 0.754385 0
M  V30 2255 C 223.419 3.33874 0.956302 0
M  V30 2256 C 222.373 4.27152 0.269278 0
M  V30 2257 C 221.699 5.17684 1.33818 0
M  V30 2258 C 222.999 5.15373 -0.847805 0
M  V30 2259 H 224.693 2.89639 -0.758244 0
M  V30 2260 H 222.239 1.39269 -0.366079 0
M  V30 2261 H 224.192 3.9629 1.43292 0
M  V30 2262 H 222.916 2.76025 1.74579 0
M  V30 2263 H 221.575 3.66123 -0.187042 0
M  V30 2264 H 221.223 4.56165 2.1195 0
M  V30 2265 H 220.923 5.80918 0.883659 0
M  V30 2266 H 222.447 5.82974 1.81586 0
M  V30 2267 H 223.861 5.7151 -0.452681 0
M  V30 2268 H 222.258 5.87407 -1.22773 0
M  V30 2269 H 223.328 4.5415 -1.69929 0
M  V30 2270 N 224.671 0.411399 1.52136 0
M  V30 2271 C 225.919 -0.163322 2.01439 0
M  V30 2272 C 226.24 -1.45453 1.29879 0
M  V30 2273 O 225.51 -1.91225 0.4254 0
M  V30 2274 H 224.09 -0.0633447 0.744309 0
M  V30 2275 H 226.752 0.548161 1.87033 0
M  V30 2276 H 225.848 -0.357817 3.10042 0
M  V30 2277 N 226.149 -1.5696 0.141893 0
M  V30 2278 C 227.389 -1.9785 -0.513304 0
M  V30 2279 C 227.753 -1.02467 -1.62371 0
M  V30 2280 O 228.954 -1.32382 -2.33941 0
M  V30 2281 C 227.225 -3.42797 -1.01118 0
M  V30 2282 S 228.784 -4.05709 -1.67169 0
M  V30 2283 H 225.602 -0.691318 -0.166135 0
M  V30 2284 H 228.204 -1.94114 0.232398 0
M  V30 2285 H 226.908 -4.0995 -0.192179 0
M  V30 2286 H 226.439 -3.50235 -1.79162 0
M  V30 2287 H 228.454 -3.98342 -2.95868 0
M  V30 2288 N 227.627 0.131896 -1.57047 0
M  V30 2289 C 228.557 1.16384 -2.02428 0
M  V30 2290 C 229.538 1.43936 -0.90644 0
M  V30 2291 O 230.723 1.54599 -1.17528 0
M  V30 2292 C 227.853 2.49328 -2.4177 0
M  V30 2293 C 226.807 2.36266 -3.56879 0
M  V30 2294 C 226.133 3.74057 -3.8208 0
M  V30 2295 C 227.433 1.834 -4.89042 0
M  V30 2296 H 229.127 0.786433 -2.88887 0
M  V30 2297 H 226.673 0.376855 -1.38981 0
M  V30 2298 H 228.626 3.21759 -2.7212 0
M  V30 2299 H 227.35 2.88934 -1.52266 0
M  V30 2300 H 226.009 1.66286 -3.26718 0
M  V30 2301 H 225.657 4.11125 -2.89803 0
M  V30 2302 H 225.357 3.66174 -4.59554 0
M  V30 2303 H 226.881 4.48012 -4.1487 0
M  V30 2304 H 228.295 2.45636 -5.18011 0
M  V30 2305 H 226.692 1.8637 -5.70426 0
M  V30 2306 H 227.762 0.790662 -4.7841 0
M  V30 2307 N 229.106 1.52395 0.401703 0
M  V30 2308 C 230.352 1.67065 1.14966 0
M  V30 2309 C 230.685 0.403052 1.89971 0
M  V30 2310 O 229.96 -0.598774 1.85054 0
M  V30 2311 C 230.243 2.8975 2.13815 0
M  V30 2312 C 230.096 4.26578 1.42658 0
M  V30 2313 C 231.415 3.07965 3.14397 0
M  V30 2314 H 228.534 0.607968 0.416587 0
M  V30 2315 H 231.176 1.84965 0.434511 0
M  V30 2316 H 229.326 2.74619 2.74803 0
M  V30 2317 H 230.998 4.53451 0.847329 0
M  V30 2318 H 229.241 4.27639 0.72849 0
M  V30 2319 H 229.912 5.08483 2.14823 0
M  V30 2320 H 232.388 3.22043 2.63491 0
M  V30 2321 H 231.264 3.95308 3.80819 0
M  V30 2322 H 231.525 2.21611 3.82545 0
M  V30 2323 N 230.584 -0.659388 1.43143 0
M  V30 2324 C 231.531 -1.77249 1.47822 0
M  V30 2325 C 232.501 -1.62818 0.328558 0
M  V30 2326 O 233.686 -1.83151 0.534838 0
M  V30 2327 C 230.826 -3.15371 1.40126 0
M  V30 2328 C 229.939 -3.4098 2.65249 0
M  V30 2329 C 229.074 -4.68915 2.49584 0
M  V30 2330 C 228.113 -4.87608 3.70006 0
M  V30 2331 N 227.25 -6.06796 3.53189 0
M  V30 2332 H 232.09 -1.72584 2.42938 0
M  V30 2333 H 229.627 -0.842297 1.20598 0
M  V30 2334 H 231.585 -3.9521 1.33659 0
M  V30 2335 H 230.215 -3.19121 0.485964 0
M  V30 2336 H 229.267 -2.55282 2.8202 0
M  V30 2337 H 230.579 -3.50681 3.54717 0
M  V30 2338 H 229.733 -5.56871 2.4079 0
M  V30 2339 H 228.472 -4.61524 1.5763 0
M  V30 2340 H 227.477 -3.9809 3.79215 0
M  V30 2341 H 228.702 -4.96834 4.62961 0
M  V30 2342 H 226.648 -6.00549 2.63965 0
M  V30 2343 H 226.565 -6.17428 4.36255 0
M  V30 2344 H 227.833 -6.9739 3.48236 0
M  V30 2345 N 232.062 -1.29571 -0.897171 0
M  V30 2346 C 233.339 -1.08365 -1.62839 0
M  V30 2347 C 233.719 0.371331 -2.07808 0
M  V30 2348 O 233.067 1.3606 -1.83576 0
M  V30 2349 C 233.277 -2.0735 -2.80726 0
M  V30 2350 C 234.625 -2.38406 -3.51351 0
M  V30 2351 O 235.649 -2.05564 -2.90898 0
M  V30 2352 O 234.508 -2.9453 -4.60341 0
M  V30 2353 H 231.602 -0.415345 -0.715134 0
M  V30 2354 H 234.148 -1.40952 -0.945018 0
M  V30 2355 H 232.92 -3.05339 -2.44711 0
M  V30 2356 H 232.543 -1.75507 -3.56767 0
M  V30 2357 N 233.54 1.10788 -1.12088 0
M  V30 2358 C 234.77 1.86191 -0.895351 0
M  V30 2359 C 235.178 1.80763 0.558702 0
M  V30 2360 O 234.521 1.19188 1.39785 0
M  V30 2361 C 234.583 3.35659 -1.28737 0
M  V30 2362 C 234.247 3.64849 -2.75198 0
M  V30 2363 C 235.244 3.61757 -3.734 0
M  V30 2364 C 232.929 3.93641 -3.12013 0
M  V30 2365 C 234.923 3.87045 -5.06434 0
M  V30 2366 C 232.61 4.18585 -4.4523 0
M  V30 2367 C 233.608 4.15277 -5.42249 0
M  V30 2368 O 233.296 4.3959 -6.73065 0
M  V30 2369 H 233.028 0.595425 -0.32007 0
M  V30 2370 H 235.582 1.40992 -1.49367 0
M  V30 2371 H 233.812 3.81497 -0.63224 0
M  V30 2372 H 235.501 3.92441 -1.03656 0
M  V30 2373 H 236.267 3.39557 -3.46303 0
M  V30 2374 H 232.146 3.95348 -2.37109 0
M  V30 2375 H 235.69 3.84378 -5.82151 0
M  V30 2376 H 231.587 4.40264 -4.72057 0
M  V30 2377 H 232.355 4.57123 -6.78956 0
M  V30 2378 N 235.018 0.912232 1.28515 0
M  V30 2379 C 236.265 0.544599 1.95039 0
M  V30 2380 C 236.593 -0.911435 1.71823 0
M  V30 2381 O 235.848 -1.66317 1.03137 0
M  V30 2382 C 236.147 0.798392 3.48368 0
M  V30 2383 C 235.813 2.23374 3.91682 0
M  V30 2384 C 234.475 2.62617 4.03219 0
M  V30 2385 C 236.827 3.16786 4.13879 0
M  V30 2386 C 234.155 3.94429 4.3433 0
M  V30 2387 C 236.507 4.48161 4.46469 0
M  V30 2388 C 235.171 4.8726 4.56217 0
M  V30 2389 H 234.441 0.199283 0.7137 0
M  V30 2390 H 237.088 1.15327 1.52879 0
M  V30 2391 H 235.393 0.106908 3.91654 0
M  V30 2392 H 237.09 0.493141 3.97956 0
M  V30 2393 H 233.68 1.91922 3.83228 0
M  V30 2394 H 237.864 2.87677 4.0442 0
M  V30 2395 H 233.12 4.24426 4.40082 0
M  V30 2396 H 237.294 5.20559 4.62592 0
M  V30 2397 H 234.921 5.89431 4.80078 0
M  V30 2398 N 236.496 -1.42363 0.676048 0
M  V30 2399 C 237.907 -1.84649 0.275948 0
M  V30 2400 C 238.258 -1.56588 -1.18214 0
M  V30 2401 O 237.383 -1.02634 -1.90513 0
M  V30 2402 C 237.978 -3.35178 0.494053 0
M  V30 2403 C 236.537 -3.76109 0.148061 0
M  V30 2404 C 235.684 -2.65931 0.785891 0
M  V30 2405 H 238.635 -1.32192 0.878121 0
M  V30 2406 H 238.656 -3.79655 -0.25343 0
M  V30 2407 H 238.168 -3.55571 1.55535 0
M  V30 2408 H 236.269 -3.61323 -0.909742 0
M  V30 2409 H 236.382 -4.7546 0.589454 0
M  V30 2410 H 234.746 -2.53773 0.217113 0
M  V30 2411 H 235.529 -2.89146 1.85067 0
M  V30 2412 N 237.974 -0.419461 -1.51915 0
M  V30 2413 C 238.884 0.407528 -2.31033 0
M  V30 2414 C 239.9 1.04413 -1.3919 0
M  V30 2415 O 241.076 1.0434 -1.72265 0
M  V30 2416 C 238.141 1.50365 -3.12396 0
M  V30 2417 C 237.202 0.889029 -4.19994 0
M  V30 2418 C 236.435 1.93291 -4.97468 0
M  V30 2419 O 236.658 3.15259 -4.75361 0
M  V30 2420 O 235.592 1.53339 -5.8204 0
M  V30 2421 H 239.418 -0.237865 -3.02767 0
M  V30 2422 H 237.003 -0.182413 -1.48282 0
M  V30 2423 H 238.885 2.13975 -3.63032 0
M  V30 2424 H 237.56 2.13345 -2.43445 0
M  V30 2425 H 236.467 0.215353 -3.7348 0
M  V30 2426 H 237.8 0.302991 -4.91267 0
M  V30 2427 N 239.452 1.56882 -0.150215 0
M  V30 2428 C 240.863 1.82995 0.370076 0
M  V30 2429 C 241.214 1.06907 1.64515 0
M  V30 2430 O 240.339 0.315369 2.1409 0
M  V30 2431 C 240.934 3.31942 0.678208 0
M  V30 2432 C 239.493 3.58625 1.14301 0
M  V30 2433 C 238.64 2.76792 0.167778 0
M  V30 2434 H 241.591 1.54209 -0.374858 0
M  V30 2435 H 241.612 3.48272 1.53254 0
M  V30 2436 H 241.124 3.87294 -0.249991 0
M  V30 2437 H 239.225 3.08664 2.08704 0
M  V30 2438 H 239.338 4.67073 1.06676 0
M  V30 2439 H 237.702 2.45972 0.661037 0
M  V30 2440 H 238.485 3.34916 -0.754069 0
M  V30 2441 N 240.93 -0.123565 1.57115 0
M  V30 2442 C 242.176 -0.833386 1.84885 0
M  V30 2443 C 242.509 -1.79742 0.735292 0
M  V30 2444 O 241.784 -1.92764 -0.25925 0
M  V30 2445 C 242.067 -1.5873 3.23228 0
M  V30 2446 C 241.92 -0.643183 4.45178 0
M  V30 2447 C 243.239 -2.54453 3.59085 0
M  V30 2448 H 240.358 -0.301518 0.6725 0
M  V30 2449 H 243 -0.097778 1.89748 0
M  V30 2450 H 241.15 -2.21438 3.19214 0
M  V30 2451 H 242.822 -0.0253015 4.61293 0
M  V30 2452 H 241.065 0.0456139 4.33776 0
M  V30 2453 H 241.736 -1.20724 5.38637 0
M  V30 2454 H 244.212 -2.01853 3.63861 0
M  V30 2455 H 243.088 -3.04238 4.5687 0
M  V30 2456 H 243.349 -3.36906 2.86264 0
M  V30 2457 N 242.408 -1.52605 -0.393616 0
M  V30 2458 C 243.636 -1.71294 -1.16043 0
M  V30 2459 C 244.051 -0.429259 -1.83855 0
M  V30 2460 O 243.408 0.595921 -1.72496 0
M  V30 2461 C 243.459 -2.8593 -2.21193 0
M  V30 2462 O 243.18 -4.09329 -1.56146 0
M  V30 2463 C 244.681 -3.16259 -3.10636 0
M  V30 2464 H 241.901 -0.573641 -0.348104 0
M  V30 2465 H 244.445 -1.99234 -0.461092 0
M  V30 2466 H 242.6 -2.60465 -2.86769 0
M  V30 2467 H 243.014 -4.73323 -2.25978 0
M  V30 2468 H 244.488 -3.99946 -3.80456 0
M  V30 2469 H 244.965 -2.3045 -3.73884 0
M  V30 2470 H 245.571 -3.43547 -2.50711 0
M  V30 2471 N 243.887 0.651787 -1.4349 0
M  V30 2472 C 245.133 1.41376 -1.45398 0
M  V30 2473 C 245.466 1.94041 -0.0784823 0
M  V30 2474 O 244.741 1.72379 0.900878 0
M  V30 2475 C 245.024 2.59414 -2.49752 0
M  V30 2476 C 244.877 2.12232 -3.96582 0
M  V30 2477 C 246.196 3.61626 -2.50827 0
M  V30 2478 H 243.315 0.512719 -0.529422 0
M  V30 2479 H 245.957 0.738796 -1.75048 0
M  V30 2480 H 244.107 3.16997 -2.246 0
M  V30 2481 H 245.779 1.59639 -4.32797 0
M  V30 2482 H 244.022 1.43592 -4.09346 0
M  V30 2483 H 244.693 2.9712 -4.65214 0
M  V30 2484 H 247.169 3.13805 -2.7325 0
M  V30 2485 H 246.045 4.41766 -3.25783 0
M  V30 2486 H 246.306 4.14314 -1.5426 0
M  V30 2487 N 245.365 1.30045 0.890287 0
M  V30 2488 C 246.59 1.21598 1.68014 0
M  V30 2489 C 247.015 -0.218678 1.86825 0
M  V30 2490 O 246.373 -1.15756 1.39536 0
M  V30 2491 C 246.421 1.94434 3.03691 0
M  V30 2492 O 245.525 1.2678 3.92429 0
M  V30 2493 H 244.866 0.420856 0.513592 0
M  V30 2494 H 247.396 1.71775 1.11151 0
M  V30 2495 H 247.406 2.03251 3.5377 0
M  V30 2496 H 246.081 2.98777 2.89318 0
M  V30 2497 H 244.658 1.26282 3.50866 0
M  V30 2498 N 246.843 -1.10192 1.12674 0
M  V30 2499 C 248.089 -1.82658 0.894847 0
M  V30 2500 C 248.444 -1.83666 -0.573107 0
M  V30 2501 O 247.737 -1.28816 -1.41835 0
M  V30 2502 C 247.931 -3.28552 1.4067 0
M  V30 2503 C 247.76 -3.41756 2.92289 0
M  V30 2504 C 246.53 -3.54021 3.60551 0
M  V30 2505 C 248.728 -3.34949 3.90274 0
M  V30 2506 N 246.71 -3.55827 5.0026 0
M  V30 2507 C 248.081 -3.43531 5.16127 0
M  V30 2508 C 250.136 -3.18565 3.8265 0
M  V30 2509 C 248.839 -3.37416 6.3525 0
M  V30 2510 C 250.865 -3.13772 5.01299 0
M  V30 2511 C 250.227 -3.22938 6.26012 0
M  V30 2512 H 246.326 -0.683044 0.380756 0
M  V30 2513 H 248.91 -1.31752 1.43351 0
M  V30 2514 H 247.081 -3.77946 0.895055 0
M  V30 2515 H 248.813 -3.88991 1.11661 0
M  V30 2516 H 245.568 -3.57135 3.1105 0
M  V30 2517 H 245.992 -3.60335 5.73138 0
M  V30 2518 H 250.634 -3.10354 2.87124 0
M  V30 2519 H 248.352 -3.44391 7.3104 0
M  V30 2520 H 251.938 -3.02242 4.97133 0
M  V30 2521 H 250.818 -3.19235 7.16281 0
M  V30 2522 N 248.321 -0.919034 -1.28029 0
M  V30 2523 C 249.269 -0.401753 -2.29104 0
M  V30 2524 C 250.263 0.509354 -1.61561 0
M  V30 2525 O 251.469 0.390014 -1.75724 0
M  V30 2526 H 247.844 -0.111331 -0.743713 0
M  V30 2527 H 249.815 -1.2672 -2.70156 0
M  V30 2528 C 248.564 0.338148 -3.46052 0
M  V30 2529 H 247.887 -0.353732 -3.98232 0
M  V30 2530 H 249.327 0.664653 -4.18758 0
M  V30 2531 C 247.786 1.54798 -2.99231 0
M  V30 2532 O 248.316 2.64696 -3.02157 0
M  V30 2533 N 246.522 1.3968 -2.54829 0
M  V30 2534 H 246.069 0.502698 -2.52647 0
M  V30 2535 H 246.027 2.20755 -2.23863 0
M  V30 2536 N 249.799 1.42003 -0.683588 0
M  V30 2537 C 251.024 2.06265 -0.216647 0
M  V30 2538 C 251.449 1.51059 1.12083 0
M  V30 2539 O 250.807 0.632638 1.69904 0
M  V30 2540 C 250.855 3.60191 -0.171759 0
M  V30 2541 O 249.959 4.03396 0.857069 0
M  V30 2542 H 249.3 0.65502 -0.108834 0
M  V30 2543 H 251.83 1.81982 -0.935077 0
M  V30 2544 H 251.84 4.08 0.0014303 0
M  V30 2545 H 250.515 3.99743 -1.14796 0
M  V30 2546 H 249.092 3.67117 0.654208 0
M  V30 2547 N 251.277 0.427512 1.51691 0
M  V30 2548 C 252.525 -0.141948 2.01601 0
M  V30 2549 C 252.846 -1.44067 1.31414 0
M  V30 2550 O 252.116 -1.90763 0.445658 0
M  V30 2551 H 250.696 -0.0554468 0.744939 0
M  V30 2552 H 253.358 0.567968 1.86441 0
M  V30 2553 H 252.454 -0.324913 3.10404 0
M  V30 2554 N 252.755 -1.56801 0.158532 0
M  V30 2555 C 253.718 -2.16138 -0.762705 0
M  V30 2556 C 254.718 -1.1061 -1.16713 0
M  V30 2557 O 255.908 -1.36191 -1.08617 0
M  V30 2558 C 253.04 -2.73386 -2.03649 0
M  V30 2559 H 254.233 -2.98886 -0.246354 0
M  V30 2560 H 251.786 -1.56035 -0.0909744 0
M  V30 2561 H 252.521 -1.94335 -2.59623 0
M  V30 2562 H 252.306 -3.50601 -1.75559 0
M  V30 2563 H 253.796 -3.19065 -2.6942 0
M  V30 2564 N 254.233 0.115231 -1.57178 0
M  V30 2565 C 255.163 1.1423 -2.03651 0
M  V30 2566 C 256.144 1.42967 -0.921655 0
M  V30 2567 O 257.329 1.53343 -1.19162 0
M  V30 2568 C 254.459 2.4675 -2.44401 0
M  V30 2569 C 253.413 2.32467 -3.59365 0
M  V30 2570 C 252.739 3.69984 -3.86026 0
M  V30 2571 C 254.039 1.78203 -4.90959 0
M  V30 2572 H 255.733 0.755749 -2.89705 0
M  V30 2573 H 253.279 0.362093 -1.39373 0
M  V30 2574 H 255.232 3.18854 -2.75517 0
M  V30 2575 H 253.956 2.87302 -1.55322 0
M  V30 2576 H 252.615 1.62811 -3.28463 0
M  V30 2577 H 252.263 4.08028 -2.94147 0
M  V30 2578 H 251.963 3.61279 -4.63412 0
M  V30 2579 H 253.487 4.43587 -4.19599 0
M  V30 2580 H 254.901 2.40128 -5.20587 0
M  V30 2581 H 253.298 1.8031 -5.72371 0
M  V30 2582 H 254.368 0.739876 -4.79222 0
M  V30 2583 N 255.711 1.52812 0.385517 0
M  V30 2584 C 256.939 1.71907 1.15133 0
M  V30 2585 C 257.354 0.439004 1.83625 0
M  V30 2586 O 256.711 -0.586765 1.7281 0
M  V30 2587 C 256.762 2.87099 2.19673 0
M  V30 2588 O 256.483 4.10151 1.53973 0
M  V30 2589 C 257.984 3.17902 3.08955 0
M  V30 2590 H 255.204 0.575479 0.345057 0
M  V30 2591 H 257.748 1.99476 0.45052 0
M  V30 2592 H 255.903 2.61982 2.85384 0
M  V30 2593 H 256.317 4.74514 2.23465 0
M  V30 2594 H 257.791 4.01959 3.7833 0
M  V30 2595 H 258.268 2.3243 3.72657 0
M  V30 2596 H 258.874 3.44871 2.48885 0
M  V30 2597 N 257.189 -0.644168 1.43834 0
M  V30 2598 C 258.414 -1.43642 1.49605 0
M  V30 2599 C 258.839 -1.8773 0.117913 0
M  V30 2600 O 258.197 -1.57938 -0.890239 0
M  V30 2601 C 258.245 -2.6416 2.45463 0
M  V30 2602 O 257.349 -3.63538 1.94714 0
M  V30 2603 H 256.69 -0.430329 0.50568 0
M  V30 2604 H 259.22 -0.787448 1.8884 0
M  V30 2605 H 259.23 -3.11864 2.63068 0
M  V30 2606 H 257.905 -2.31414 3.45572 0
M  V30 2607 H 256.482 -3.2273 1.86814 0
M  V30 2608 N 258.668 -1.30515 -0.883378 0
M  V30 2609 C 259.916 -1.19194 -1.63209 0
M  V30 2610 C 260.237 0.253205 -1.93349 0
M  V30 2611 O 259.507 1.17025 -1.57105 0
M  V30 2612 H 258.087 -0.438148 -0.605009 0
M  V30 2613 H 260.749 -1.63663 -1.05832 0
M  V30 2614 H 259.845 -1.75396 -2.58153 0
M  V30 2615 N 260.146 1.09593 -1.13257 0
M  V30 2616 C 261.392 1.82003 -0.89458 0
M  V30 2617 C 261.725 1.85402 0.577906 0
M  V30 2618 O 261 1.32099 1.42759 0
M  V30 2619 C 261.283 3.28237 -1.48096 0
M  V30 2620 C 261.136 3.3312 -3.02244 0
M  V30 2621 C 262.455 4.24871 -1.14774 0
M  V30 2622 H 259.574 0.66077 -0.326424 0
M  V30 2623 H 262.216 1.28389 -1.40058 0
M  V30 2624 H 260.366 3.74024 -1.05062 0
M  V30 2625 H 262.038 2.95748 -3.54021 0
M  V30 2626 H 260.281 2.72756 -3.37323 0
M  V30 2627 H 260.952 4.3613 -3.38371 0
M  V30 2628 H 263.428 3.87361 -1.51957 0
M  V30 2629 H 262.304 5.25532 -1.58452 0
M  V30 2630 H 262.565 4.42058 -0.0611849 0
M  V30 2631 N 261.624 0.925811 1.2754 0
M  V30 2632 C 262.574 0.394488 2.24561 0
M  V30 2633 C 263.558 -0.500183 1.52928 0
M  V30 2634 O 264.75 -0.337936 1.73744 0
M  V30 2635 C 261.879 -0.353328 3.41477 0
M  V30 2636 C 260.965 0.557752 4.20416 0
M  V30 2637 N 261.356 1.67674 4.77199 0
M  V30 2638 C 259.654 0.360404 4.44541 0
M  V30 2639 C 260.355 2.24324 5.36706 0
M  V30 2640 N 259.331 1.53305 5.21535 0
M  V30 2641 H 263.133 1.2489 2.66045 0
M  V30 2642 H 260.647 0.779864 1.4245 0
M  V30 2643 H 262.644 -0.7509 4.10082 0
M  V30 2644 H 261.304 -1.20469 3.01525 0
M  V30 2645 H 262.315 2.05915 4.75204 0
M  V30 2646 H 258.992 -0.450454 4.15063 0
M  V30 2647 H 260.382 3.18521 5.91603 0
M  V30 2648 N 263.102 -1.41638 0.69111 0
M  V30 2649 C 264.33 -2.05628 0.22909 0
M  V30 2650 C 264.745 -1.51992 -1.11999 0
M  V30 2651 O 264.102 -0.666322 -1.69901 0
M  V30 2652 C 264.153 -3.61084 0.173283 0
M  V30 2653 O 263.874 -4.12735 1.46907 0
M  V30 2654 C 265.375 -4.42213 -0.310266 0
M  V30 2655 H 262.595 -0.662327 0.107534 0
M  V30 2656 H 265.139 -1.81489 0.942438 0
M  V30 2657 H 263.294 -3.84278 -0.490858 0
M  V30 2658 H 263.708 -5.06743 1.35322 0
M  V30 2659 H 265.182 -5.51194 -0.298196 0
M  V30 2660 H 265.659 -4.1799 -1.34838 0
M  V30 2661 H 266.265 -4.24074 0.322716 0
M  V30 2662 N 264.58 -0.43555 -1.51462 0
M  V30 2663 C 265.827 0.131514 -2.02072 0
M  V30 2664 C 266.155 1.42868 -1.31981 0
M  V30 2665 O 265.41 1.91076 -0.422883 0
M  V30 2666 C 265.709 0.39942 -3.55161 0
M  V30 2667 C 265.375 -0.81172 -4.43533 0
M  V30 2668 C 264.037 -1.14387 -4.67407 0
M  V30 2669 C 266.389 -1.61976 -4.95392 0
M  V30 2670 C 263.717 -2.28477 -5.40384 0
M  V30 2671 C 266.069 -2.75164 -5.6962 0
M  V30 2672 C 264.733 -3.08835 -5.91758 0
M  V30 2673 H 264.003 0.0481244 -0.739436 0
M  V30 2674 H 266.65 -0.58238 -1.8243 0
M  V30 2675 H 264.955 1.19519 -3.73125 0
M  V30 2676 H 266.652 0.85157 -3.91854 0
M  V30 2677 H 263.242 -0.542898 -4.25148 0
M  V30 2678 H 267.426 -1.37637 -4.76833 0
M  V30 2679 H 262.682 -2.5488 -5.55739 0
M  V30 2680 H 266.856 -3.38147 -6.08793 0
M  V30 2681 H 264.483 -3.97353 -6.48086 0
M  V30 2682 N 266.058 1.56714 -0.166846 0
M  V30 2683 C 267.469 1.83378 0.350646 0
M  V30 2684 C 267.82 1.08646 1.63372 0
M  V30 2685 O 266.945 0.338058 2.13743 0
M  V30 2686 C 267.54 3.32643 0.642963 0
M  V30 2687 C 266.099 3.59818 1.10491 0
M  V30 2688 C 265.246 2.76954 0.138411 0
M  V30 2689 H 268.197 1.53803 -0.391193 0
M  V30 2690 H 268.218 3.49878 1.49551 0
M  V30 2691 H 267.73 3.87007 -0.291055 0
M  V30 2692 H 265.831 3.1086 2.05418 0
M  V30 2693 H 265.944 4.68178 1.01716 0
M  V30 2694 H 264.308 2.4666 0.634911 0
M  V30 2695 H 265.091 3.34097 -0.789549 0
M  V30 2696 N 267.536 -0.106894 1.57237 0
M  V30 2697 C 268.499 -1.11466 2.0027 0
M  V30 2698 C 269.499 -1.33623 0.894519 0
M  V30 2699 O 270.689 -1.29935 1.16028 0
M  V30 2700 C 267.821 -2.46646 2.35327 0
M  V30 2701 H 269.014 -0.744516 2.90512 0
M  V30 2702 H 266.567 -0.351576 1.52295 0
M  V30 2703 H 267.302 -2.88558 1.48003 0
M  V30 2704 H 267.087 -2.31915 3.16161 0
M  V30 2705 H 268.577 -3.19151 2.69318 0
M  V30 2706 N 269.014 -1.53014 -0.377408 0
M  V30 2707 C 270.26 -1.68872 -1.12294 0
M  V30 2708 C 270.593 -0.433224 -1.89306 0
M  V30 2709 O 269.868 0.569258 -1.85983 0
M  V30 2710 C 270.151 -2.93115 -2.09179 0
M  V30 2711 C 270.004 -4.28794 -1.35853 0
M  V30 2712 C 271.323 -3.12928 -3.09458 0
M  V30 2713 H 268.442 -0.614518 -0.406862 0
M  V30 2714 H 271.084 -1.85633 -0.40503 0
M  V30 2715 H 269.234 -2.78956 -2.70399 0
M  V30 2716 H 270.906 -4.54742 -0.775082 0
M  V30 2717 H 269.149 -4.28744 -0.660364 0
M  V30 2718 H 269.82 -5.11837 -2.06706 0
M  V30 2719 H 272.296 -3.26194 -2.58334 0
M  V30 2720 H 271.172 -4.01316 -3.74482 0
M  V30 2721 H 271.433 -2.27669 -3.78971 0
M  V30 2722 N 270.492 0.636531 -1.44174 0
M  V30 2723 C 271.422 1.76003 -1.53444 0
M  V30 2724 C 272.403 1.65619 -0.387841 0
M  V30 2725 O 273.588 1.84461 -0.607257 0
M  V30 2726 C 270.718 3.14511 -1.4731 0
M  V30 2727 C 269.672 3.39677 -2.60391 0
M  V30 2728 C 268.998 4.78159 -2.39308 0
M  V30 2729 C 270.298 3.32772 -4.02567 0
M  V30 2730 H 271.992 1.68501 -2.47483 0
M  V30 2731 H 269.538 0.809237 -1.19111 0
M  V30 2732 H 271.491 3.92878 -1.52397 0
M  V30 2733 H 270.215 3.22783 -0.49785 0
M  V30 2734 H 268.874 2.63688 -2.54684 0
M  V30 2735 H 268.522 4.83128 -1.39988 0
M  V30 2736 H 268.222 4.95956 -3.15122 0
M  V30 2737 H 269.746 5.58762 -2.46205 0
M  V30 2738 H 271.16 4.01051 -4.09672 0
M  V30 2739 H 269.557 3.62104 -4.7854 0
M  V30 2740 H 270.627 2.30669 -4.2652 0
M  V30 2741 N 271.97 1.30982 0.876444 0
M  V30 2742 C 272.902 1.13902 1.98894 0
M  V30 2743 C 273.915 0.0798815 1.62604 0
M  V30 2744 O 275.104 0.326743 1.75484 0
M  V30 2745 C 272.204 0.716699 3.31235 0
M  V30 2746 C 271.377 1.85945 3.95908 0
M  V30 2747 C 270.436 1.42426 5.06558 0
M  V30 2748 O 269.462 2.13287 5.27729 0
M  V30 2749 N 270.664 0.308025 5.79682 0
M  V30 2750 H 273.429 2.09724 2.14094 0
M  V30 2751 H 270.99 1.2323 1.05004 0
M  V30 2752 H 272.982 0.408403 4.02634 0
M  V30 2753 H 271.552 -0.149719 3.12241 0
M  V30 2754 H 270.772 2.33541 3.17573 0
M  V30 2755 H 272.06 2.62503 4.35855 0
M  V30 2756 H 271.458 -0.282241 5.64995 0
M  V30 2757 H 270.015 0.0592282 6.51773 0
M  V30 2758 N 273.449 -1.08991 1.13837 0
M  V30 2759 C 274.674 -1.85551 0.926585 0
M  V30 2760 C 275.099 -1.80782 -0.519566 0
M  V30 2761 O 274.457 -1.18855 -1.36906 0
M  V30 2762 C 274.505 -3.31266 1.42462 0
M  V30 2763 O 273.609 -4.07822 0.612789 0
M  V30 2764 H 272.95 -0.575192 0.331738 0
M  V30 2765 H 275.48 -1.37604 1.51414 0
M  V30 2766 H 275.49 -3.82112 1.43019 0
M  V30 2767 H 274.165 -3.34052 2.47754 0
M  V30 2768 H 272.742 -3.66731 0.675463 0
M  V30 2769 N 274.927 -0.932562 -1.27047 0
M  V30 2770 C 276.152 -0.591474 -1.98787 0
M  V30 2771 C 276.577 0.824601 -1.69062 0
M  V30 2772 O 275.935 1.5541 -0.933677 0
M  V30 2773 C 275.983 -0.829808 -3.50922 0
M  V30 2774 O 275.087 0.102266 -4.12273 0
M  V30 2775 H 274.428 -0.227185 -0.623926 0
M  V30 2776 H 276.958 -1.25314 -1.61733 0
M  V30 2777 H 276.968 -0.747292 -4.01098 0
M  V30 2778 H 275.643 -1.86201 -3.7189 0
M  V30 2779 H 274.22 -0.0305761 -3.72887 0
M  V30 2780 N 276.405 1.4127 -0.698611 0
M  V30 2781 C 277.653 2.00782 -0.230409 0
M  V30 2782 C 277.974 1.5562 1.17505 0
M  V30 2783 O 277.244 0.78815 1.79346 0
M  V30 2784 H 275.824 0.742464 -0.0821944 0
M  V30 2785 H 278.486 1.72852 -0.90045 0
M  V30 2786 H 277.582 3.11095 -0.25021 0
M  V30 2787 N 277.883 0.443576 1.51229 0
M  V30 2788 C 278.813 -0.355142 2.30783 0
M  V30 2789 C 279.794 -1.0154 1.36468 0
M  V30 2790 O 280.979 -1.01785 1.65389 0
M  V30 2791 C 278.109 -1.45312 3.15439 0
M  V30 2792 C 277.063 -0.916002 4.18083 0
M  V30 2793 C 276.389 -2.1102 4.91299 0
M  V30 2794 C 277.689 0.0538602 5.22272 0
M  V30 2795 H 279.383 0.308767 2.97804 0
M  V30 2796 H 276.929 0.149937 1.43217 0
M  V30 2797 H 278.882 -2.01914 3.69876 0
M  V30 2798 H 277.606 -2.14541 2.46252 0
M  V30 2799 H 276.265 -0.372145 3.64706 0
M  V30 2800 H 275.913 -2.78882 4.18609 0
M  V30 2801 H 275.613 -1.75717 5.60712 0
M  V30 2802 H 277.137 -2.68164 5.48562 0
M  V30 2803 H 278.551 -0.422069 5.71744 0
M  V30 2804 H 276.948 0.319776 5.99247 0
M  V30 2805 H 278.018 0.98858 4.74716 0
M  V30 2806 N 279.361 -1.56624 0.175154 0
M  V30 2807 C 280.591 -2.01082 -0.474283 0
M  V30 2808 C 280.999 -1.05447 -1.57091 0
M  V30 2809 O 280.342 -0.0480595 -1.83637 0
M  V30 2810 C 280.404 -3.41963 -1.10911 0
M  V30 2811 C 280.068 -4.56742 -0.153666 0
M  V30 2812 C 281.065 -5.16076 0.629448 0
M  V30 2813 C 278.75 -5.02277 -0.0483776 0
M  V30 2814 C 280.744 -6.19377 1.50501 0
M  V30 2815 C 278.431 -6.05427 0.830768 0
M  V30 2816 C 279.429 -6.63849 1.60605 0
M  V30 2817 O 279.117 -7.64998 2.47049 0
M  V30 2818 H 278.849 -0.664261 -0.125432 0
M  V30 2819 H 281.403 -2.03549 0.275163 0
M  V30 2820 H 279.633 -3.36422 -1.90676 0
M  V30 2821 H 281.322 -3.70352 -1.66114 0
M  V30 2822 H 282.088 -4.81776 0.558297 0
M  V30 2823 H 277.967 -4.56513 -0.641611 0
M  V30 2824 H 281.511 -6.64906 2.1106 0
M  V30 2825 H 277.408 -6.39151 0.903107 0
M  V30 2826 H 278.176 -7.82336 2.40607 0
M  V30 2827 N 280.839 0.0985539 -1.57292 0
M  V30 2828 C 282.064 0.820196 -1.90493 0
M  V30 2829 C 282.489 1.71658 -0.769094 0
M  V30 2830 O 281.847 1.79133 0.279495 0
M  V30 2831 C 281.895 1.61242 -3.22542 0
M  V30 2832 O 280.999 2.72108 -3.09888 0
M  V30 2833 H 280.34 0.225547 -0.62452 0
M  V30 2834 H 282.87 0.0748159 -2.04463 0
M  V30 2835 H 282.88 1.99737 -3.55766 0
M  V30 2836 H 281.555 0.954535 -4.04798 0
M  V30 2837 H 280.132 2.36667 -2.88172 0
M  V30 2838 N 282.317 1.53212 0.369288 0
M  V30 2839 C 283.247 1.82365 1.45826 0
M  V30 2840 C 284.228 0.676907 1.56051 0
M  V30 2841 O 285.413 0.926401 1.70679 0
M  V30 2842 C 282.543 2.01023 2.83208 0
M  V30 2843 C 281.497 3.1678 2.8781 0
M  V30 2844 C 280.823 3.20724 4.27832 0
M  V30 2845 C 282.123 4.55447 2.55667 0
M  V30 2846 H 283.817 2.73559 1.21678 0
M  V30 2847 H 281.363 1.3163 0.583911 0
M  V30 2848 H 283.316 2.20001 3.59413 0
M  V30 2849 H 282.04 1.06536 3.08736 0
M  V30 2850 H 280.699 2.97616 2.14056 0
M  V30 2851 H 280.347 2.23882 4.50429 0
M  V30 2852 H 280.047 3.98496 4.31827 0
M  V30 2853 H 281.571 3.41881 5.05915 0
M  V30 2854 H 282.985 4.74611 3.21586 0
M  V30 2855 H 281.382 5.35432 2.70984 0
M  V30 2856 H 282.452 4.60812 1.5093 0
M  V30 2857 N 283.795 -0.628877 1.44509 0
M  V30 2858 C 285.02 -1.42048 1.5112 0
M  V30 2859 C 285.445 -1.87594 0.137818 0
M  V30 2860 O 284.803 -1.58873 -0.873437 0
M  V30 2861 C 284.851 -2.61541 2.48251 0
M  V30 2862 O 283.955 -3.61453 1.98559 0
M  V30 2863 H 283.296 -0.424942 0.510216 0
M  V30 2864 H 285.826 -0.767374 1.89664 0
M  V30 2865 H 285.836 -3.09057 2.66361 0
M  V30 2866 H 284.511 -2.27736 3.48007 0
M  V30 2867 H 283.088 -3.20731 1.90227 0
M  V30 2868 N 285.273 -1.31445 -0.869486 0
M  V30 2869 C 286.498 -1.24256 -1.66058 0
M  V30 2870 C 286.923 0.188928 -1.87149 0
M  V30 2871 O 286.281 1.13522 -1.4136 0
M  V30 2872 C 286.329 -1.9924 -3.00559 0
M  V30 2873 O 285.433 -1.33007 -3.90362 0
M  V30 2874 H 284.774 -0.428973 -0.506831 0
M  V30 2875 H 287.304 -1.73521 -1.08404 0
M  V30 2876 H 287.314 -2.08854 -3.50491 0
M  V30 2877 H 285.989 -3.03342 -2.84528 0
M  V30 2878 H 284.566 -1.31848 -3.48813 0
M  V30 2879 N 286.751 1.08385 -1.14413 0
M  V30 2880 C 287.997 1.81044 -0.913834 0
M  V30 2881 C 288.33 1.86004 0.558209 0
M  V30 2882 O 287.605 1.33606 1.4135 0
M  V30 2883 C 287.888 3.26648 -1.51569 0
M  V30 2884 C 287.741 3.29895 -3.0576 0
M  V30 2885 C 289.06 4.23629 -1.19273 0
M  V30 2886 H 286.179 0.65727 -0.333414 0
M  V30 2887 H 288.821 1.26896 -1.41412 0
M  V30 2888 H 286.971 3.72889 -1.09023 0
M  V30 2889 H 288.643 2.91977 -3.57137 0
M  V30 2890 H 286.886 2.69163 -3.40197 0
M  V30 2891 H 287.557 4.32516 -3.42977 0
M  V30 2892 H 290.033 3.85727 -1.56057 0
M  V30 2893 H 288.909 5.23822 -1.64017 0
M  V30 2894 H 289.17 4.41968 -0.108068 0
M  V30 2895 N 288.23 0.939286 1.26551 0
M  V30 2896 C 289.476 0.586715 1.94128 0
M  V30 2897 C 289.809 -0.8717 1.73537 0
M  V30 2898 O 289.084 -1.62339 1.07127 0
M  V30 2899 C 289.367 0.927497 3.4795 0
M  V30 2900 C 289.22 2.44052 3.77834 0
M  V30 2901 C 290.539 0.441569 4.37879 0
M  V30 2902 H 287.658 0.21463 0.705055 0
M  V30 2903 H 290.3 1.17316 1.49455 0
M  V30 2904 H 288.45 0.428431 3.8613 0
M  V30 2905 H 290.122 3.01216 3.4938 0
M  V30 2906 H 288.365 2.8848 3.23978 0
M  V30 2907 H 289.036 2.62947 4.85348 0
M  V30 2908 H 291.512 0.869448 4.06915 0
M  V30 2909 H 290.388 0.708856 5.44304 0
M  V30 2910 H 290.649 -0.658467 4.37169 0
M  V30 2911 N 289.708 -1.40897 0.706093 0
M  V30 2912 C 290.936 -2.05373 0.250887 0
M  V30 2913 C 291.351 -1.53172 -1.10381 0
M  V30 2914 O 290.708 -0.684305 -1.69185 0
M  V30 2915 C 290.759 -3.6088 0.211571 0
M  V30 2916 O 290.48 -4.11153 1.51276 0
M  V30 2917 C 291.981 -4.42517 -0.263346 0
M  V30 2918 H 289.201 -0.66115 0.114552 0
M  V30 2919 H 291.745 -1.80479 0.961635 0
M  V30 2920 H 289.9 -3.84777 -0.450073 0
M  V30 2921 H 290.314 -5.05279 1.40689 0
M  V30 2922 H 291.788 -5.51479 -0.239718 0
M  V30 2923 H 292.265 -4.19396 -1.30397 0
M  V30 2924 H 292.871 -4.23708 0.367677 0
M  V30 2925 N 291.186 -0.45159 -1.50991 0
M  V30 2926 C 292.432 0.110237 -2.025 0
M  V30 2927 C 292.765 1.41109 -1.33424 0
M  V30 2928 O 292.04 1.89135 -0.453659 0
M  V30 2929 C 292.323 0.314271 -3.58726 0
M  V30 2930 C 292.176 -1.00623 -4.38401 0
M  V30 2931 C 293.495 1.07767 -4.26702 0
M  V30 2932 H 290.614 0.0385897 -0.735989 0
M  V30 2933 H 293.256 -0.593374 -1.80497 0
M  V30 2934 H 291.406 0.913601 -3.77605 0
M  V30 2935 H 293.078 -1.64064 -4.31139 0
M  V30 2936 H 291.321 -1.6075 -4.02917 0
M  V30 2937 H 291.992 -0.817341 -5.45915 0
M  V30 2938 H 294.468 0.56986 -4.12179 0
M  V30 2939 H 293.344 1.18921 -5.35863 0
M  V30 2940 H 293.605 2.10939 -3.88532 0
M  V30 2941 N 292.664 1.56529 -0.183458 0
M  V30 2942 C 294.075 1.83739 0.331177 0
M  V30 2943 C 294.426 1.10373 1.62211 0
M  V30 2944 O 293.551 0.36071 2.13373 0
M  V30 2945 C 294.146 3.33306 0.607646 0
M  V30 2946 C 292.705 3.60969 1.06668 0
M  V30 2947 C 291.852 2.77086 0.109029 0
M  V30 2948 H 294.803 1.53379 -0.407484 0
M  V30 2949 H 294.824 3.51444 1.45832 0
M  V30 2950 H 294.336 3.86677 -0.332086 0
M  V30 2951 H 292.437 3.13021 2.0211 0
M  V30 2952 H 292.55 4.69231 0.967447 0
M  V30 2953 H 290.914 2.47319 0.608714 0
M  V30 2954 H 291.697 3.33241 -0.82494 0
M  V30 2955 N 294.142 -0.090211 1.57342 0
M  V30 2956 C 295.367 -0.810082 1.90925 0
M  V30 2957 C 295.792 -1.71248 0.778187 0
M  V30 2958 O 295.15 -1.79278 -0.269991 0
M  V30 2959 C 295.198 -1.59529 3.23393 0
M  V30 2960 O 294.302 -2.70461 3.11327 0
M  V30 2961 H 293.643 -0.222231 0.625707 0
M  V30 2962 H 296.173 -0.0639716 2.045 0
M  V30 2963 H 296.183 -1.97847 3.5682 0
M  V30 2964 H 294.858 -0.933055 4.05299 0
M  V30 2965 H 293.435 -2.35135 2.89423 0
M  V30 2966 N 295.62 -1.53406 -0.361157 0
M  V30 2967 C 296.845 -1.74024 -1.12829 0
M  V30 2968 C 297.27 -0.470069 -1.82132 0
M  V30 2969 O 296.628 0.57619 -1.719 0
M  V30 2970 C 296.676 -2.90903 -2.13091 0
M  V30 2971 O 295.78 -2.59821 -3.20261 0
M  V30 2972 H 295.121 -0.577804 -0.327168 0
M  V30 2973 H 297.651 -2.00307 -0.41693 0
M  V30 2974 H 297.661 -3.17194 -2.56616 0
M  V30 2975 H 296.336 -3.83034 -1.62042 0
M  V30 2976 H 294.913 -2.44362 -2.81677 0
M  V30 2977 N 297.098 0.621204 -1.44841 0
M  V30 2978 C 298.323 1.41244 -1.51871 0
M  V30 2979 C 298.748 1.87519 -0.147764 0
M  V30 2980 O 298.106 1.59334 0.865 0
M  V30 2981 C 298.154 2.60221 -2.49634 0
M  V30 2982 O 297.258 3.60395 -2.00473 0
M  V30 2983 H 296.599 0.42223 -0.512463 0
M  V30 2984 H 299.129 0.757305 -1.90069 0
M  V30 2985 H 299.139 3.0764 -2.67996 0
M  V30 2986 H 297.814 2.25887 -3.4921 0
M  V30 2987 H 296.391 3.19717 -1.91925 0
M  V30 2988 N 298.576 1.31904 0.862503 0
M  V30 2989 C 299.506 1.22782 1.98612 0
M  V30 2990 C 300.487 0.113362 1.69722 0
M  V30 2991 O 301.672 0.299218 1.91881 0
M  V30 2992 C 298.802 0.942058 3.34279 0
M  V30 2993 C 297.756 2.0169 3.77499 0
M  V30 2994 C 297.082 1.58369 5.10709 0
M  V30 2995 C 298.382 3.43096 3.93805 0
M  V30 2996 H 300.076 2.16788 2.06502 0
M  V30 2997 H 297.622 1.04366 0.992154 0
M  V30 2998 H 299.575 0.864818 4.1243 0
M  V30 2999 H 298.299 -0.0336603 3.26583 0
M  V30 3000 H 296.958 2.08416 3.01593 0
M  V30 3001 H 296.606 0.595628 4.99461 0
M  V30 3002 H 296.306 2.30279 5.40597 0
M  V30 3003 H 297.83 1.52067 5.91361 0
M  V30 3004 H 299.244 3.39003 4.62331 0
M  V30 3005 H 297.641 4.13288 4.35101 0
M  V30 3006 H 298.711 3.83334 2.96957 0
M  V30 3007 N 300.054 -1.07777 1.14986 0
M  V30 3008 C 301.302 -1.79934 0.920235 0
M  V30 3009 C 301.623 -1.86955 -0.554336 0
M  V30 3010 O 300.893 -1.36731 -1.40291 0
M  V30 3011 H 299.473 -0.666424 0.337473 0
M  V30 3012 H 302.135 -1.3027 1.44968 0
M  V30 3013 H 301.231 -2.82539 1.32583 0
M  V30 3014 N 301.532 -0.945985 -1.26051 0
M  V30 3015 C 302.76 -0.613025 -1.9761 0
M  V30 3016 C 303.175 0.813035 -1.70397 0
M  V30 3017 O 302.532 1.54274 -0.974979 0
M  V30 3018 C 302.583 -0.85159 -3.51326 0
M  V30 3019 O 302.304 -2.22157 -3.77595 0
M  V30 3020 C 303.805 -0.529831 -4.40122 0
M  V30 3021 H 301.025 -0.230593 -0.630133 0
M  V30 3022 H 303.569 -1.268 -1.60443 0
M  V30 3023 H 301.724 -0.243151 -3.86636 0
M  V30 3024 H 302.138 -2.2852 -4.721 0
M  V30 3025 H 303.612 -0.747348 -5.46917 0
M  V30 3026 H 304.089 0.535341 -4.35925 0
M  V30 3027 H 304.695 -1.11721 -4.10364 0
M  V30 3028 N 303.011 1.40521 -0.713556 0
M  V30 3029 C 303.943 2.29191 -0.0203126 0
M  V30 3030 C 304.956 1.45723 0.725864 0
M  V30 3031 O 306.145 1.69033 0.573581 0
M  V30 3032 C 303.245 3.2395 0.995486 0
M  V30 3033 C 302.418 4.36262 0.315256 0
M  V30 3034 C 301.477 5.11474 1.23616 0
M  V30 3035 O 300.503 5.64606 0.721719 0
M  V30 3036 N 301.705 5.20638 2.56743 0
M  V30 3037 H 304.47 2.89327 -0.781652 0
M  V30 3038 H 302.031 1.51869 -0.561022 0
M  V30 3039 H 304.023 3.71137 1.61368 0
M  V30 3040 H 302.593 2.64995 1.6582 0
M  V30 3041 H 301.813 3.91228 -0.483106 0
M  V30 3042 H 303.101 5.08558 -0.157004 0
M  V30 3043 H 302.499 4.7895 3.01037 0
M  V30 3044 H 301.056 5.71339 3.13712 0
M  V30 3045 N 304.489 0.459591 1.5075 0
M  V30 3046 C 305.717 -0.0973749 2.06671 0
M  V30 3047 C 306.132 -1.34524 1.32472 0
M  V30 3048 O 305.489 -1.7827 0.390634 0
M  V30 3049 C 305.54 -0.39714 3.59312 0
M  V30 3050 O 305.261 0.801214 4.30711 0
M  V30 3051 C 306.762 -1.00234 4.31819 0
M  V30 3052 H 303.982 0.00195854 0.670997 0
M  V30 3053 H 306.526 0.645072 1.94059 0
M  V30 3054 H 304.681 -1.08951 3.71764 0
M  V30 3055 H 305.095 0.538857 5.21725 0
M  V30 3056 H 306.569 -1.16193 5.39632 0
M  V30 3057 H 307.046 -1.98939 3.91561 0
M  V30 3058 H 307.652 -0.348699 4.23868 0
M  V30 3059 N 305.967 -1.56429 0.191757 0
M  V30 3060 C 307.197 -2.01574 -0.452928 0
M  V30 3061 C 307.605 -1.07107 -1.55964 0
M  V30 3062 O 306.948 -0.067534 -1.83576 0
M  V30 3063 C 307.01 -3.43121 -1.07278 0
M  V30 3064 C 306.674 -4.56879 -0.105214 0
M  V30 3065 C 307.671 -5.15379 0.684149 0
M  V30 3066 C 305.356 -5.023 0.00489824 0
M  V30 3067 C 307.35 -6.17746 1.57062 0
M  V30 3068 C 305.037 -6.04511 0.894935 0
M  V30 3069 C 306.035 -6.62108 1.67637 0
M  V30 3070 O 305.723 -7.62335 2.55149 0
M  V30 3071 H 305.455 -0.665554 -0.118379 0
M  V30 3072 H 308.009 -2.03245 0.296737 0
M  V30 3073 H 306.239 -3.38425 -1.87097 0
M  V30 3074 H 307.928 -3.72093 -1.62177 0
M  V30 3075 H 308.694 -4.81157 0.609365 0
M  V30 3076 H 304.573 -4.57168 -0.593156 0
M  V30 3077 H 308.117 -6.6263 2.181 0
M  V30 3078 H 304.014 -6.38157 0.970847 0
M  V30 3079 H 304.782 -7.79741 2.48892 0
M  V30 3080 N 307.445 0.0818655 -1.57387 0
M  V30 3081 C 308.694 0.781681 -1.85937 0
M  V30 3082 C 309.007 1.79246 -0.782957 0
M  V30 3083 O 310.213 2.54112 -0.955987 0
M  V30 3084 C 308.669 1.44109 -3.29789 0
M  V30 3085 C 308.277 0.469396 -4.45534 0
M  V30 3086 C 310.021 2.12386 -3.67549 0
M  V30 3087 C 307.928 1.13415 -5.80423 0
M  V30 3088 H 306.858 0.295682 -0.693605 0
M  V30 3089 H 309.509 0.0348051 -1.83467 0
M  V30 3090 H 307.891 2.23588 -3.2684 0
M  V30 3091 H 309.065 -0.294856 -4.59856 0
M  V30 3092 H 307.38 -0.108383 -4.16259 0
M  V30 3093 H 309.977 2.62878 -4.65617 0
M  V30 3094 H 310.32 2.91877 -2.96839 0
M  V30 3095 H 310.853 1.39751 -3.72444 0
M  V30 3096 H 307.592 0.379771 -6.54399 0
M  V30 3097 H 307.112 1.8695 -5.69921 0
M  V30 3098 H 308.791 1.65686 -6.25426 0
M  V30 3099 N 308.923 1.53595 0.353017 0
M  V30 3100 C 310.163 1.72094 1.10286 0
M  V30 3101 C 310.527 0.469217 1.86178 0
M  V30 3102 O 311.728 0.531083 2.63501 0
M  V30 3103 C 309.999 2.94386 2.02661 0
M  V30 3104 S 311.558 3.33651 2.84996 0
M  V30 3105 H 308.376 0.605433 0.372789 0
M  V30 3106 H 310.978 1.91722 0.38248 0
M  V30 3107 H 309.682 3.83669 1.45691 0
M  V30 3108 H 309.213 2.77197 2.79152 0
M  V30 3109 H 311.228 2.86645 4.0503 0
M  V30 3110 N 310.401 -0.613514 1.45168 0
M  V30 3111 C 311.349 -1.74572 1.53712 0
M  V30 3112 C 312.343 -1.64426 0.407505 0
M  V30 3113 O 313.549 -1.70291 0.583176 0
M  V30 3114 H 309.924 -0.576641 0.48269 0
M  V30 3115 H 311.895 -1.64492 2.48968 0
M  V30 3116 C 310.644 -3.12943 1.51532 0
M  V30 3117 H 309.967 -3.21407 2.37776 0
M  V30 3118 H 311.407 -3.9201 1.61569 0
M  V30 3119 C 309.866 -3.36053 0.238798 0
M  V30 3120 O 310.396 -3.95837 -0.6838 0
M  V30 3121 N 308.602 -2.9028 0.136359 0
M  V30 3122 H 308.149 -2.41811 0.887999 0
M  V30 3123 H 308.107 -3.06116 -0.716944 0
M  V30 3124 N 311.879 -1.3236 -0.855495 0
M  V30 3125 C 313.125 -1.23054 -1.612 0
M  V30 3126 C 313.458 0.207404 -1.93089 0
M  V30 3127 O 312.733 1.14432 -1.57275 0
M  V30 3128 C 313.016 -2.08937 -2.93287 0
M  V30 3129 C 312.869 -3.61105 -2.68185 0
M  V30 3130 C 314.188 -1.94986 -3.94549 0
M  V30 3131 H 311.307 -0.448364 -0.584926 0
M  V30 3132 H 313.949 -1.62297 -0.987917 0
M  V30 3133 H 312.099 -1.75599 -3.46551 0
M  V30 3134 H 313.771 -4.04652 -2.21483 0
M  V30 3135 H 312.014 -3.83813 -2.02164 0
M  V30 3136 H 312.685 -4.16522 -3.62234 0
M  V30 3137 H 315.161 -2.24189 -3.5054 0
M  V30 3138 H 314.037 -2.57356 -4.84829 0
M  V30 3139 H 314.298 -0.917263 -4.3248 0
M  V30 3140 N 313.357 1.07166 -1.15556 0
M  V30 3141 C 314.305 2.16517 -0.8499 0
M  V30 3142 C 315.299 1.68468 0.177454 0
M  V30 3143 O 316.505 1.79971 0.0323026 0
M  V30 3144 H 312.88 0.706652 -0.25719 0
M  V30 3145 H 314.851 2.39514 -1.77976 0
M  V30 3146 C 313.6 3.45855 -0.357682 0
M  V30 3147 H 312.923 3.83214 -1.13961 0
M  V30 3148 H 314.363 4.23607 -0.182489 0
M  V30 3149 C 312.822 3.24062 0.921152 0
M  V30 3150 O 313.352 3.48813 1.9923 0
M  V30 3151 N 311.558 2.77539 0.86141 0
M  V30 3152 H 311.105 2.57598 -0.0104408 0
M  V30 3153 H 311.063 2.63337 1.71758 0
M  V30 3154 N 314.835 0.952656 1.25548 0
M  V30 3155 C 315.785 0.442033 2.23674 0
M  V30 3156 C 316.769 -0.467632 1.53955 0
M  V30 3157 O 317.961 -0.301006 1.74422 0
M  V30 3158 C 315.09 -0.280816 3.4215 0
M  V30 3159 C 314.176 0.646803 4.19139 0
M  V30 3160 N 314.567 1.77759 4.73535 0
M  V30 3161 C 312.865 0.454617 4.43677 0
M  V30 3162 C 313.566 2.35658 5.31827 0
M  V30 3163 N 312.542 1.64333 5.18166 0
M  V30 3164 H 316.344 1.30505 2.63336 0
M  V30 3165 H 313.858 0.809904 1.40763 0
M  V30 3166 H 315.855 -0.663747 4.11582 0
M  V30 3167 H 314.515 -1.14046 3.04012 0
M  V30 3168 H 315.526 2.15949 4.7073 0
M  V30 3169 H 312.203 -0.362312 4.15925 0
M  V30 3170 H 313.593 3.30998 5.84713 0
M  V30 3171 N 316.313 -1.40141 0.720998 0
M  V30 3172 C 317.26 -2.30688 0.071919 0
M  V30 3173 C 318.23 -1.48476 -0.744584 0
M  V30 3174 O 319.415 -1.77201 -0.707423 0
M  V30 3175 C 316.555 -3.34724 -0.839855 0
M  V30 3176 C 315.668 -4.31998 -0.0122438 0
M  V30 3177 C 314.803 -5.23102 -0.923995 0
M  V30 3178 C 313.842 -6.12033 -0.0907969 0
M  V30 3179 N 312.979 -6.95537 -0.957718 0
M  V30 3180 H 317.819 -2.85628 0.849755 0
M  V30 3181 H 315.356 -1.40653 0.430726 0
M  V30 3182 H 317.314 -3.93618 -1.38279 0
M  V30 3183 H 315.944 -2.81274 -1.58381 0
M  V30 3184 H 314.996 -3.74841 0.64794 0
M  V30 3185 H 316.308 -4.94772 0.632595 0
M  V30 3186 H 315.462 -5.86953 -1.53527 0
M  V30 3187 H 314.201 -4.60615 -1.60264 0
M  V30 3188 H 313.206 -5.47207 0.533377 0
M  V30 3189 H 314.431 -6.76581 0.584428 0
M  V30 3190 H 312.377 -6.35633 -1.62192 0
M  V30 3191 H 312.294 -7.55099 -0.36904 0
M  V30 3192 H 313.562 -7.63832 -1.555 0
M  V30 3193 N 317.792 -0.46758 -1.50504 0
M  V30 3194 C 319.203 -0.0116166 -1.86696 0
M  V30 3195 C 319.554 1.39202 -1.38265 0
M  V30 3196 O 318.679 2.0313 -0.746132 0
M  V30 3197 C 319.274 -0.0143044 -3.38797 0
M  V30 3198 C 317.833 0.386175 -3.74414 0
M  V30 3199 C 316.98 -0.401287 -2.74381 0
M  V30 3200 H 319.931 -0.682022 -1.43297 0
M  V30 3201 H 319.952 0.788641 -3.72237 0
M  V30 3202 H 319.464 -1.03602 -3.74016 0
M  V30 3203 H 317.565 1.41237 -3.44794 0
M  V30 3204 H 317.678 0.0899596 -4.79016 0
M  V30 3205 H 316.042 0.144536 -2.5429 0
M  V30 3206 H 316.825 -1.42244 -3.12444 0
M  V30 3207 N 319.27 1.56325 -0.20005 0
M  V30 3208 C 320.495 2.02548 0.44597 0
M  V30 3209 C 320.92 1.07922 1.5406 0
M  V30 3210 O 320.278 0.0635775 1.81188 0
M  V30 3211 C 320.326 3.47175 0.974761 0
M  V30 3212 O 319.43 3.55671 2.08739 0
M  V30 3213 H 318.771 0.655862 0.103638 0
M  V30 3214 H 321.301 2.02201 -0.312381 0
M  V30 3215 H 321.311 3.87067 1.2901 0
M  V30 3216 H 319.986 4.15538 0.17347 0
M  V30 3217 H 318.563 3.27657 1.78032 0
M  V30 3218 N 320.748 -0.0735177 1.57428 0
M  V30 3219 C 321.696 -1.10628 2.04607 0
M  V30 3220 C 322.69 -1.40181 0.951088 0
M  V30 3221 O 323.896 -1.39608 1.1362 0
M  V30 3222 H 320.271 -0.374088 0.652351 0
M  V30 3223 H 322.242 -0.682218 2.90497 0
M  V30 3224 C 320.991 -2.41212 2.50423 0
M  V30 3225 H 320.314 -2.19322 3.34272 0
M  V30 3226 H 321.754 -3.11927 2.87189 0
M  V30 3227 C 320.213 -3.0705 1.38644 0
M  V30 3228 O 320.743 -3.95056 0.727582 0
M  V30 3229 N 318.949 -2.67645 1.132 0
M  V30 3230 H 318.496 -1.96169 1.66959 0
M  V30 3231 H 318.454 -3.1202 0.386147 0
M  V30 3232 N 322.226 -1.5378 -0.344866 0
M  V30 3233 C 323.454 -1.74899 -1.10534 0
M  V30 3234 C 323.869 -0.487534 -1.82397 0
M  V30 3235 O 323.226 0.540741 -1.74305 0
M  V30 3236 C 323.277 -2.92822 -2.11984 0
M  V30 3237 O 322.998 -4.14089 -1.43044 0
M  V30 3238 C 324.499 -3.25982 -3.00417 0
M  V30 3239 H 321.719 -0.584426 -0.329678 0
M  V30 3240 H 324.263 -2.006 -0.397474 0
M  V30 3241 H 322.418 -2.69457 -2.78338 0
M  V30 3242 H 322.832 -4.80272 -2.10805 0
M  V30 3243 H 324.306 -4.11848 -3.67539 0
M  V30 3244 H 324.783 -2.42228 -3.66363 0
M  V30 3245 H 325.389 -3.51349 -2.39654 0
M  V30 3246 N 323.704 0.605807 -1.45491 0
M  V30 3247 C 324.651 1.7164 -1.54299 0
M  V30 3248 C 325.621 1.61486 -0.388761 0
M  V30 3249 O 326.806 1.81039 -0.602445 0
M  V30 3250 C 323.946 3.09953 -1.51734 0
M  V30 3251 C 323.059 3.309 -2.77721 0
M  V30 3252 C 322.194 4.59329 -2.66816 0
M  V30 3253 C 321.233 4.7354 -3.87848 0
M  V30 3254 N 320.37 5.9327 -3.75467 0
M  V30 3255 H 325.21 1.63449 -2.49176 0
M  V30 3256 H 322.747 0.796957 -1.23641 0
M  V30 3257 H 324.705 3.89977 -1.48235 0
M  V30 3258 H 323.335 3.17098 -0.604068 0
M  V30 3259 H 322.387 2.44639 -2.913 0
M  V30 3260 H 323.699 3.37274 -3.67488 0
M  V30 3261 H 322.853 5.4755 -2.61292 0
M  V30 3262 H 321.592 4.55355 -1.74651 0
M  V30 3263 H 320.597 3.83741 -3.93729 0
M  V30 3264 H 321.822 4.79309 -4.81082 0
M  V30 3265 H 319.768 5.90338 -2.86072 0
M  V30 3266 H 319.685 6.00811 -4.5887 0
M  V30 3267 H 320.953 6.83984 -3.73879 0
M  V30 3268 N 325.182 1.32811 0.848464 0
M  V30 3269 C 326.428 1.23907 1.60546 0
M  V30 3270 C 326.761 -0.197161 1.93197 0
M  V30 3271 O 326.036 -1.13596 1.5788 0
M  V30 3272 C 326.319 2.10489 2.92175 0
M  V30 3273 C 326.172 3.62522 2.66266 0
M  V30 3274 C 327.491 1.97075 3.93509 0
M  V30 3275 H 324.61 0.451459 0.58254 0
M  V30 3276 H 327.252 1.62818 0.979296 0
M  V30 3277 H 325.402 1.77434 3.45614 0
M  V30 3278 H 327.074 4.05821 2.19334 0
M  V30 3279 H 325.317 3.84879 2.00126 0
M  V30 3280 H 325.988 4.18437 3.6002 0
M  V30 3281 H 328.464 2.26045 3.49346 0
M  V30 3282 H 327.34 2.59923 4.83457 0
M  V30 3283 H 327.601 0.940186 4.31987 0
M  V30 3284 N 326.66 -1.06551 1.16123 0
M  V30 3285 C 327.937 -1.76097 0.85142 0
M  V30 3286 C 328.317 -2.00802 -0.6513 0
M  V30 3287 O 327.665 -1.63302 -1.59827 0
M  V30 3288 C 327.875 -3.06384 1.67122 0
M  V30 3289 C 329.223 -3.80585 1.88255 0
M  V30 3290 O 330.247 -3.16218 1.63966 0
M  V30 3291 O 329.106 -4.96212 2.2899 0
M  V30 3292 H 326.2 -0.765102 0.313923 0
M  V30 3293 H 328.746 -1.12844 1.26745 0
M  V30 3294 H 327.518 -2.84071 2.69108 0
M  V30 3295 H 327.141 -3.77371 1.25206 0
M  V30 3296 N 328.138 -0.959301 -1.25041 0
M  V30 3297 C 329.085 -0.482057 -2.2571 0
M  V30 3298 C 330.055 0.467939 -1.59372 0
M  V30 3299 O 331.24 0.380159 -1.86974 0
M  V30 3300 C 328.38 0.229623 -3.44335 0
M  V30 3301 C 327.493 -0.758156 -4.25295 0
M  V30 3302 C 326.628 -0.0234403 -5.31195 0
M  V30 3303 C 325.667 -1.00184 -6.03846 0
M  V30 3304 N 324.804 -0.29769 -7.01469 0
M  V30 3305 H 329.644 -1.34538 -2.65901 0
M  V30 3306 H 327.181 -0.674592 -1.3072 0
M  V30 3307 H 329.139 0.658856 -4.11965 0
M  V30 3308 H 327.769 1.05696 -3.05005 0
M  V30 3309 H 326.821 -1.30586 -3.57284 0
M  V30 3310 H 328.133 -1.50458 -4.75567 0
M  V30 3311 H 327.287 0.464201 -6.04922 0
M  V30 3312 H 326.026 0.755741 -4.81809 0
M  V30 3313 H 325.031 -1.50044 -5.2893 0
M  V30 3314 H 326.256 -1.78133 -6.55321 0
M  V30 3315 H 324.202 0.462668 -6.54366 0
M  V30 3316 H 324.119 -0.983128 -7.4958 0
M  V30 3317 H 325.387 0.16826 -7.79318 0
M  V30 3318 N 329.616 1.39756 -0.72842 0
M  V30 3319 C 331.032 1.5442 -0.403308 0
M  V30 3320 C 331.232 1.69694 1.08656 0
M  V30 3321 O 330.288 1.69373 1.87267 0
M  V30 3322 C 331.601 2.76555 -1.18058 0
M  V30 3323 C 333.149 2.90384 -1.16815 0
M  V30 3324 C 333.624 4.15449 -1.92785 0
M  V30 3325 N 335.115 4.22475 -1.89918 0
M  V30 3326 C 335.85 5.1818 -2.45514 0
M  V30 3327 N 335.346 6.19714 -3.09719 0
M  V30 3328 N 337.139 5.1035 -2.35584 0
M  V30 3329 H 329.29 1.28089 -1.69431 0
M  V30 3330 H 331.553 0.620327 -0.716867 0
M  V30 3331 H 331.259 2.7159 -2.23455 0
M  V30 3332 H 331.133 3.69033 -0.780662 0
M  V30 3333 H 333.52 2.94846 -0.12234 0
M  V30 3334 H 333.601 1.98988 -1.6074 0
M  V30 3335 H 333.245 4.11749 -2.97364 0
M  V30 3336 H 333.175 5.05877 -1.46272 0
M  V30 3337 H 335.666 3.49743 -1.43138 0
M  V30 3338 H 335.979 6.8919 -3.49625 0
M  V30 3339 H 334.324 6.20121 -3.13807 0
M  V30 3340 H 337.515 4.2996 -1.85072 0
M  V30 3341 H 337.688 5.84761 -2.79211 0
M  V30 3342 N 331.094 0.475555 1.50254 0
M  V30 3343 C 332.34 -0.0780073 2.0265 0
M  V30 3344 C 332.673 -1.38968 1.35652 0
M  V30 3345 O 331.948 -1.8839 0.483691 0
M  V30 3346 C 332.231 -0.257161 3.59181 0
M  V30 3347 C 332.084 1.07585 4.36744 0
M  V30 3348 C 333.403 -1.00965 4.28362 0
M  V30 3349 H 330.522 -0.0268758 0.73651 0
M  V30 3350 H 333.164 0.622015 1.7953 0
M  V30 3351 H 331.314 -0.853412 3.79011 0
M  V30 3352 H 332.986 1.70902 4.28474 0
M  V30 3353 H 331.229 1.6714 4.00308 0
M  V30 3354 H 331.9 0.904088 5.44546 0
M  V30 3355 H 334.376 -0.504214 4.13034 0
M  V30 3356 H 333.252 -1.10381 5.37687 0
M  V30 3357 H 333.513 -2.04731 3.91839 0
M  V30 3358 N 332.573 -1.56217 0.208337 0
M  V30 3359 C 333.483 -2.23316 -0.718836 0
M  V30 3360 C 334.499 -1.23648 -1.22422 0
M  V30 3361 O 335.675 -1.56423 -1.26861 0
M  V30 3362 C 332.74 -2.88968 -1.91568 0
M  V30 3363 C 331.801 -4.03943 -1.45357 0
M  V30 3364 C 331.034 -4.66455 -2.59337 0
M  V30 3365 O 331.257 -4.27919 -3.77149 0
M  V30 3366 O 330.191 -5.55686 -2.31293 0
M  V30 3367 H 334.017 -3.03182 -0.177315 0
M  V30 3368 H 331.602 -1.49384 -0.0215402 0
M  V30 3369 H 333.484 -3.30455 -2.61491 0
M  V30 3370 H 332.159 -2.12071 -2.44556 0
M  V30 3371 H 331.066 -3.67052 -0.722746 0
M  V30 3372 H 332.399 -4.82543 -0.970219 0
M  V30 3373 N 334.051 0.0651679 -1.57465 0
M  V30 3374 C 335.462 0.616213 -1.76238 0
M  V30 3375 C 335.813 1.7756 -0.834689 0
M  V30 3376 O 334.938 2.1639 -0.0204156 0
M  V30 3377 C 335.533 1.12462 -3.1959 0
M  V30 3378 C 334.092 1.62147 -3.39684 0
M  V30 3379 C 333.239 0.543739 -2.71917 0
M  V30 3380 H 336.19 -0.161022 -1.57881 0
M  V30 3381 H 336.211 1.99324 -3.24114 0
M  V30 3382 H 335.723 0.280592 -3.87084 0
M  V30 3383 H 333.824 2.48854 -2.77313 0
M  V30 3384 H 333.937 1.69385 -4.48158 0
M  V30 3385 H 332.301 0.990352 -2.34657 0
M  V30 3386 H 333.084 -0.290216 -3.42071 0
M  V30 3387 N 335.529 1.53961 0.336706 0
M  V30 3388 C 336.476 1.82428 1.41381 0
M  V30 3389 C 337.446 0.670444 1.51968 0
M  V30 3390 O 338.631 0.915565 1.67398 0
M  V30 3391 C 335.771 2.04564 2.77934 0
M  V30 3392 C 334.884 3.32267 2.76084 0
M  V30 3393 C 334.019 3.44434 4.04399 0
M  V30 3394 C 333.058 4.66061 3.96804 0
M  V30 3395 N 332.195 4.75224 5.16823 0
M  V30 3396 H 337.035 2.74324 1.16405 0
M  V30 3397 H 334.572 1.35869 0.563752 0
M  V30 3398 H 336.53 2.15388 3.57301 0
M  V30 3399 H 335.16 1.15974 3.01247 0
M  V30 3400 H 334.212 3.3025 1.88784 0
M  V30 3401 H 335.524 4.21733 2.66351 0
M  V30 3402 H 334.678 3.54728 4.92192 0
M  V30 3403 H 333.417 2.53037 4.16921 0
M  V30 3404 H 332.422 4.55838 3.07396 0
M  V30 3405 H 333.647 5.58829 3.85858 0
M  V30 3406 H 331.593 3.86739 5.29876 0
M  V30 3407 H 331.51 5.58636 5.09374 0
M  V30 3408 H 332.778 4.89835 6.06367 0
M  V30 3409 N 337.007 -0.598083 1.45811 0
M  V30 3410 C 338.232 -1.3881 1.54099 0
M  V30 3411 C 338.657 -1.8726 0.177578 0
M  V30 3412 O 338.015 -1.6069 -0.839541 0
M  V30 3413 C 338.063 -2.56217 2.53743 0
M  V30 3414 O 337.167 -3.5716 2.06182 0
M  V30 3415 H 336.508 -0.414024 0.519115 0
M  V30 3416 H 339.038 -0.726971 1.91249 0
M  V30 3417 H 339.048 -3.03337 2.72856 0
M  V30 3418 H 337.723 -2.20303 3.5276 0
M  V30 3419 H 336.3 -3.16624 1.96987 0
M  V30 3420 N 338.485 -1.33259 -0.841409 0
M  V30 3421 C 339.725 -1.25902 -1.61022 0
M  V30 3422 C 340.089 0.173325 -1.91216 0
M  V30 3423 O 341.29 0.370824 -2.6623 0
M  V30 3424 C 339.561 -2.10735 -2.88662 0
M  V30 3425 S 341.12 -2.20541 -3.79351 0
M  V30 3426 H 337.938 -0.447958 -0.552137 0
M  V30 3427 H 340.54 -1.68263 -0.995382 0
M  V30 3428 H 339.244 -3.1384 -2.64448 0
M  V30 3429 H 338.775 -1.69201 -3.55154 0
M  V30 3430 H 340.79 -1.36462 -4.77067 0
M  V30 3431 N 339.963 1.05934 -1.16686 0
M  V30 3432 C 341.24 1.75643 -0.860747 0
M  V30 3433 C 341.62 2.01144 0.640641 0
M  V30 3434 O 340.968 1.64147 1.58959 0
M  V30 3435 C 341.178 3.05493 -1.68745 0
M  V30 3436 C 342.526 3.79581 -1.90271 0
M  V30 3437 O 343.55 3.15344 -1.65641 0
M  V30 3438 O 342.409 4.9499 -2.31618 0
M  V30 3439 H 339.503 0.763426 -0.317977 0
M  V30 3440 H 342.049 1.1217 -1.27342 0
M  V30 3441 H 340.821 2.8264 -2.70611 0
M  V30 3442 H 340.444 3.76702 -1.27206 0
M  V30 3443 N 341.441 0.965919 1.2453 0
M  V30 3444 C 342.388 0.49402 2.25451 0
M  V30 3445 C 343.358 -0.45948 1.59618 0
M  V30 3446 O 344.543 -0.370238 1.87173 0
M  V30 3447 C 341.683 -0.211359 3.44452 0
M  V30 3448 C 340.796 0.7807 4.24887 0
M  V30 3449 C 339.931 0.0516105 5.31175 0
M  V30 3450 C 338.97 1.03385 6.03306 0
M  V30 3451 N 338.107 0.334887 7.01301 0
M  V30 3452 H 342.947 1.35946 2.65184 0
M  V30 3453 H 340.484 0.681515 1.3036 0
M  V30 3454 H 342.442 -0.637 4.12308 0
M  V30 3455 H 341.072 -1.04077 3.05562 0
M  V30 3456 H 340.124 1.32479 3.56586 0
M  V30 3457 H 341.436 1.52978 4.74762 0
M  V30 3458 H 340.59 -0.432114 6.05159 0
M  V30 3459 H 339.329 -0.730179 4.82203 0
M  V30 3460 H 338.334 1.52847 5.28127 0
M  V30 3461 H 339.559 1.81606 6.54367 0
M  V30 3462 H 337.505 -0.427959 6.54603 0
M  V30 3463 H 337.422 1.02287 7.49048 0
M  V30 3464 H 338.69 -0.126928 7.79397 0
M  V30 3465 N 342.919 -1.39368 0.735821 0
M  V30 3466 C 344.147 -2.04795 0.294393 0
M  V30 3467 C 344.562 -1.55478 -1.07107 0
M  V30 3468 O 343.919 -0.720038 -1.67695 0
M  V30 3469 C 343.97 -3.6035 0.288071 0
M  V30 3470 O 343.691 -4.07852 1.59963 0
M  V30 3471 C 345.192 -4.42976 -0.169422 0
M  V30 3472 H 342.412 -0.658571 0.128551 0
M  V30 3473 H 344.956 -1.78399 0.999701 0
M  V30 3474 H 343.111 -3.85645 -0.368355 0
M  V30 3475 H 343.525 -5.02181 1.51375 0
M  V30 3476 H 344.999 -5.51864 -0.122687 0
M  V30 3477 H 345.476 -4.22068 -1.21472 0
M  V30 3478 H 346.082 -4.22832 0.457469 0
M  V30 3479 N 344.397 -0.483516 -1.5 0
M  V30 3480 C 345.347 0.32306 -2.257 0
M  V30 3481 C 346.331 0.950755 -1.29805 0
M  V30 3482 O 347.523 0.861247 -1.54634 0
M  V30 3483 C 344.652 1.39724 -3.13579 0
M  V30 3484 C 343.738 0.776663 -4.16928 0
M  V30 3485 N 344.129 -0.1104 -5.0568 0
M  V30 3486 C 342.427 1.03922 -4.33724 0
M  V30 3487 C 343.128 -0.46387 -5.79848 0
M  V30 3488 N 342.104 0.163987 -5.43353 0
M  V30 3489 H 345.906 -0.360086 -2.91686 0
M  V30 3490 H 343.42 -0.298456 -1.59634 0
M  V30 3491 H 345.417 1.98837 -3.66428 0
M  V30 3492 H 344.077 2.08225 -2.49143 0
M  V30 3493 H 345.088 -0.480069 -5.1567 0
M  V30 3494 H 341.765 1.71829 -3.80501 0
M  V30 3495 H 343.155 -1.18854 -6.61304 0
M  V30 3496 N 345.875 1.56104 -0.216619 0
M  V30 3497 C 347.103 2.02563 0.421413 0
M  V30 3498 C 347.518 1.0965 1.53695 0
M  V30 3499 O 346.875 0.10521 1.82196 0
M  V30 3500 C 346.926 3.48584 0.957665 0
M  V30 3501 O 346.647 4.37953 -0.113389 0
M  V30 3502 C 348.148 4.10664 1.66943 0
M  V30 3503 H 345.368 0.662944 0.103665 0
M  V30 3504 H 347.912 2.01793 -0.331629 0
M  V30 3505 H 346.067 3.49985 1.661 0
M  V30 3506 H 346.481 5.23704 0.288932 0
M  V30 3507 H 347.955 5.14622 1.99671 0
M  V30 3508 H 348.432 3.55373 2.58083 0
M  V30 3509 H 349.038 4.13098 1.01142 0
M  V30 3510 N 347.353 -0.0568162 1.57498 0
M  V30 3511 C 348.593 -0.758273 1.89815 0
M  V30 3512 C 348.957 -1.73978 0.812132 0
M  V30 3513 O 350.158 -2.48744 1.01881 0
M  V30 3514 C 348.429 -1.43465 3.27342 0
M  V30 3515 S 349.988 -2.1691 3.81439 0
M  V30 3516 H 346.806 -0.251836 0.664906 0
M  V30 3517 H 349.408 -0.0137997 1.95495 0
M  V30 3518 H 348.112 -0.706693 4.0427 0
M  V30 3519 H 347.643 -2.21825 3.24896 0
M  V30 3520 H 349.658 -3.43658 3.5793 0
M  V30 3521 N 348.832 -1.54138 -0.328536 0
M  V30 3522 C 350.243 -1.63395 -0.903272 0
M  V30 3523 C 350.594 -0.524828 -1.8905 0
M  V30 3524 O 349.719 0.343068 -2.13663 0
M  V30 3525 C 350.314 -2.9618 -1.64507 0
M  V30 3526 C 348.873 -3.0765 -2.1686 0
M  V30 3527 C 348.02 -2.58933 -0.992416 0
M  V30 3528 H 350.971 -1.58344 -0.106253 0
M  V30 3529 H 350.992 -2.86061 -2.50897 0
M  V30 3530 H 350.504 -3.76884 -0.926302 0
M  V30 3531 H 348.605 -2.31611 -2.91868 0
M  V30 3532 H 348.718 -4.1337 -2.42202 0
M  V30 3533 H 347.082 -2.14706 -1.37016 0
M  V30 3534 H 347.865 -3.42089 -0.288041 0
M  V30 3535 N 350.31 0.590341 -1.46126 0
M  V30 3536 C 351.721 1.17243 -1.45296 0
M  V30 3537 C 352.072 1.95281 -0.189723 0
M  V30 3538 O 351.197 2.04502 0.707674 0
M  V30 3539 C 351.792 2.13284 -2.6324 0
M  V30 3540 C 350.351 2.66832 -2.65476 0
M  V30 3541 C 349.498 1.42557 -2.3785 0
M  V30 3542 H 352.449 0.378692 -1.54116 0
M  V30 3543 H 352.47 2.96619 -2.38323 0
M  V30 3544 H 351.982 1.56459 -3.55165 0
M  V30 3545 H 350.083 3.27548 -1.77603 0
M  V30 3546 H 350.196 3.10088 -3.65215 0
M  V30 3547 H 348.56 1.72107 -1.87753 0
M  V30 3548 H 349.343 0.875741 -3.31942 0
M  V30 3549 N 351.788 1.33704 0.83433 0
M  V30 3550 C 353.028 1.26754 1.60352 0
M  V30 3551 C 353.392 -0.163182 1.91305 0
M  V30 3552 O 354.593 -0.3567 2.66423 0
M  V30 3553 C 352.864 2.12262 2.8754 0
M  V30 3554 S 354.423 2.22549 3.78176 0
M  V30 3555 H 351.241 0.450879 0.549753 0
M  V30 3556 H 353.843 1.68788 0.986444 0
M  V30 3557 H 352.547 3.15238 2.62779 0
M  V30 3558 H 352.078 1.71082 3.54252 0
M  V30 3559 H 354.093 1.3899 4.76336 0
M  V30 3560 N 353.266 -1.05314 1.17247 0
M  V30 3561 C 354.677 -1.59753 0.96623 0
M  V30 3562 C 355.028 -1.9005 -0.487378 0
M  V30 3563 O 354.153 -1.68126 -1.36245 0
M  V30 3564 C 354.748 -2.90249 1.74759 0
M  V30 3565 C 353.307 -3.41352 1.58606 0
M  V30 3566 C 352.454 -2.15103 1.75002 0
M  V30 3567 H 355.405 -0.881406 1.31973 0
M  V30 3568 H 355.426 -3.60097 1.22925 0
M  V30 3569 H 354.938 -2.68166 2.8055 0
M  V30 3570 H 353.039 -3.68474 0.552985 0
M  V30 3571 H 353.152 -4.16019 2.37624 0
M  V30 3572 H 351.516 -2.25804 1.17833 0
M  V30 3573 H 352.299 -1.95491 2.82202 0
M  V30 3574 N 354.744 -0.972509 -1.24016 0
M  V30 3575 C 355.707 -0.511403 -2.23422 0
M  V30 3576 C 356.707 0.394679 -1.55881 0
M  V30 3577 O 357.897 0.189469 -1.73167 0
M  V30 3578 C 355.029 0.258769 -3.39916 0
M  V30 3579 H 356.222 -1.39024 -2.6573 0
M  V30 3580 H 353.775 -0.757585 -1.36713 0
M  V30 3581 H 354.51 1.1545 -3.03054 0
M  V30 3582 H 354.295 -0.391522 -3.9014 0
M  V30 3583 H 355.785 0.570244 -4.13688 0
M  V30 3584 N 356.222 1.38976 -0.743202 0
M  V30 3585 C 357.633 1.83123 -0.363732 0
M  V30 3586 C 357.984 1.6205 1.10609 0
M  V30 3587 O 357.109 1.11606 1.854 0
M  V30 3588 C 357.704 3.32439 -0.653408 0
M  V30 3589 C 356.263 3.74974 -0.327338 0
M  V30 3590 C 355.41 2.61878 -0.911875 0
M  V30 3591 H 358.361 1.27852 -0.940191 0
M  V30 3592 H 358.382 3.80432 0.0720031 0
M  V30 3593 H 357.894 3.47745 -1.72323 0
M  V30 3594 H 355.995 3.65252 0.736314 0
M  V30 3595 H 356.108 4.72106 -0.815631 0
M  V30 3596 H 354.472 2.52448 -0.337944 0
M  V30 3597 H 355.255 2.79987 -1.98651 0
M  V30 3598 N 357.7 0.491464 1.49741 0
M  V30 3599 C 358.61 -0.296835 2.32715 0
M  V30 3600 C 359.626 -0.976536 1.44013 0
M  V30 3601 O 360.802 -0.960023 1.77047 0
M  V30 3602 C 357.867 -1.35288 3.19215 0
M  V30 3603 C 356.928 -0.687632 4.23757 0
M  V30 3604 C 356.161 -1.69336 5.06123 0
M  V30 3605 O 356.384 -2.92219 4.89861 0
M  V30 3606 O 355.318 -1.25394 5.88693 0
M  V30 3607 H 359.144 0.382048 3.01287 0
M  V30 3608 H 356.729 0.252953 1.47243 0
M  V30 3609 H 358.611 -1.96411 3.72828 0
M  V30 3610 H 357.286 -2.01487 2.53347 0
M  V30 3611 H 356.193 -0.0369159 3.74082 0
M  V30 3612 H 357.526 -0.0682566 4.92153 0
M  V30 3613 N 359.178 -1.55987 0.224894 0
M  V30 3614 C 360.108 -2.23426 -0.678457 0
M  V30 3615 C 361.089 -1.20709 -1.19847 0
M  V30 3616 O 362.274 -1.49304 -1.24186 0
M  V30 3617 C 359.404 -2.91676 -1.88527 0
M  V30 3618 C 358.358 -4.00893 -1.49896 0
M  V30 3619 C 357.684 -4.56455 -2.78483 0
M  V30 3620 C 358.984 -5.17769 -0.686461 0
M  V30 3621 H 360.678 -2.99175 -0.116173 0
M  V30 3622 H 358.224 -1.43897 -0.054436 0
M  V30 3623 H 360.177 -3.37547 -2.5227 0
M  V30 3624 H 358.901 -2.1338 -2.47258 0
M  V30 3625 H 357.56 -3.55758 -0.884985 0
M  V30 3626 H 357.208 -3.74886 -3.35365 0
M  V30 3627 H 356.908 -5.30169 -2.53368 0
M  V30 3628 H 358.432 -5.05047 -3.43162 0
M  V30 3629 H 359.846 -5.60001 -1.22767 0
M  V30 3630 H 358.243 -5.97735 -0.532259 0
M  V30 3631 H 359.313 -4.83932 0.306196 0
M  V30 3632 N 360.656 0.0484629 -1.57525 0
M  V30 3633 C 361.586 1.0549 -2.08313 0
M  V30 3634 C 362.567 1.38929 -0.981463 0
M  V30 3635 O 363.752 1.48151 -1.25558 0
M  V30 3636 C 360.882 2.36162 -2.54646 0
M  V30 3637 C 359.836 2.17016 -3.68901 0
M  V30 3638 C 359.162 3.53278 -4.01371 0
M  V30 3639 C 360.462 1.57219 -4.98076 0
M  V30 3640 H 362.156 0.632195 -2.92649 0
M  V30 3641 H 359.702 0.302654 -1.40784 0
M  V30 3642 H 361.655 3.06882 -2.88793 0
M  V30 3643 H 360.379 2.80456 -1.67368 0
M  V30 3644 H 359.038 1.48733 -3.35073 0
M  V30 3645 H 358.686 3.95185 -3.11188 0
M  V30 3646 H 358.386 3.41299 -4.78318 0
M  V30 3647 H 359.91 4.25391 -4.38035 0
M  V30 3648 H 361.324 2.17832 -5.30304 0
M  V30 3649 H 359.721 1.55871 -5.79503 0
M  V30 3650 H 360.791 0.535956 -4.81929 0
M  V30 3651 N 362.134 1.5431 0.320358 0
M  V30 3652 C 363.382 1.72327 1.05583 0
M  V30 3653 C 363.703 0.50149 1.88441 0
M  V30 3654 O 362.973 -0.48448 1.89815 0
M  V30 3655 H 361.553 0.635387 0.3928 0
M  V30 3656 H 364.215 1.91621 0.356019 0
M  V30 3657 H 363.311 2.60426 1.72003 0
M  V30 3658 N 363.613 -0.582584 1.46437 0
M  V30 3659 C 364.861 -1.33814 1.51453 0
M  V30 3660 C 365.182 -1.94277 0.167792 0
M  V30 3661 O 364.452 -1.78566 -0.805677 0
M  V30 3662 H 363.032 -0.496838 0.557818 0
M  V30 3663 H 365.694 -0.682281 1.82568 0
M  V30 3664 H 364.79 -2.14479 2.26728 0
M  V30 3665 N 365.091 -1.34144 -0.827227 0
M  V30 3666 C 366.502 -1.23557 -1.39966 0
M  V30 3667 C 366.853 0.140731 -1.95695 0
M  V30 3668 O 365.978 1.04087 -1.89723 0
M  V30 3669 C 366.573 -2.23708 -2.54441 0
M  V30 3670 C 365.132 -2.16924 -3.07605 0
M  V30 3671 C 364.279 -2.10549 -1.80456 0
M  V30 3672 H 367.23 -1.45573 -0.631991 0
M  V30 3673 H 367.251 -1.85157 -3.32411 0
M  V30 3674 H 366.763 -3.23866 -2.13851 0
M  V30 3675 H 364.864 -1.20107 -3.52711 0
M  V30 3676 H 364.977 -3.07988 -3.66988 0
M  V30 3677 H 363.341 -1.56203 -2.01178 0
M  V30 3678 H 364.124 -3.12535 -1.42046 0
M  V30 3679 N 366.569 1.04691 -1.17803 0
M  V30 3680 C 367.794 1.81984 -0.994813 0
M  V30 3681 C 368.219 1.82586 0.452112 0
M  V30 3682 O 367.577 1.23854 1.324 0
M  V30 3683 C 367.625 3.2575 -1.54659 0
M  V30 3684 O 366.729 4.05267 -0.763728 0
M  V30 3685 H 366.07 0.562483 -0.352857 0
M  V30 3686 H 368.6 1.3189 -1.56417 0
M  V30 3687 H 368.61 3.76541 -1.57102 0
M  V30 3688 H 367.285 3.24627 -2.59981 0
M  V30 3689 H 365.862 3.63972 -0.811108 0
M  V30 3690 N 368.047 0.979072 1.23499 0
M  V30 3691 C 369.293 0.648178 1.92163 0
M  V30 3692 C 369.626 -0.816049 1.76222 0
M  V30 3693 O 368.901 -1.58849 1.12237 0
M  V30 3694 C 369.184 1.03773 3.44824 0
M  V30 3695 C 369.037 2.55948 3.69879 0
M  V30 3696 C 370.356 0.580653 4.36253 0
M  V30 3697 H 367.475 0.236952 0.69787 0
M  V30 3698 H 370.117 1.22012 1.45647 0
M  V30 3699 H 368.267 0.551058 3.84572 0
M  V30 3700 H 369.939 3.12179 3.3962 0
M  V30 3701 H 368.182 2.98641 3.14636 0
M  V30 3702 H 368.853 2.78255 4.76737 0
M  V30 3703 H 371.329 0.998465 4.03943 0
M  V30 3704 H 370.205 0.881663 5.41773 0
M  V30 3705 H 370.466 -0.519052 4.39042 0
M  V30 3706 N 369.525 -1.3858 0.750561 0
M  V30 3707 C 370.772 -2.00184 0.305373 0
M  V30 3708 C 371.1 -1.59575 -1.11203 0
M  V30 3709 O 370.355 -0.823236 -1.77542 0
M  V30 3710 C 370.654 -3.55455 0.372373 0
M  V30 3711 C 370.32 -4.15765 1.745 0
M  V30 3712 C 368.982 -4.31951 2.12065 0
M  V30 3713 C 371.334 -4.49067 2.64553 0
M  V30 3714 C 368.662 -4.78734 3.39162 0
M  V30 3715 C 371.014 -4.97265 3.91038 0
M  V30 3716 C 369.678 -5.11658 4.28676 0
M  V30 3717 H 368.948 -0.732526 0.111744 0
M  V30 3718 H 371.595 -1.65673 0.960451 0
M  V30 3719 H 369.9 -3.90084 -0.366272 0
M  V30 3720 H 371.597 -4.00999 0.00953918 0
M  V30 3721 H 368.187 -4.03579 1.44297 0
M  V30 3722 H 372.371 -4.36166 2.36796 0
M  V30 3723 H 367.627 -4.88062 3.68246 0
M  V30 3724 H 371.801 -5.22003 4.60962 0
M  V30 3725 H 369.428 -5.47668 5.27222 0
M  V30 3726 N 371.003 -0.499398 -1.49478 0
M  V30 3727 C 371.933 0.269244 -2.31943 0
M  V30 3728 C 372.914 0.964054 -1.40143 0
M  V30 3729 O 374.099 0.955767 -1.69052 0
M  V30 3730 C 371.229 1.33504 -3.20615 0
M  V30 3731 C 370.183 0.760202 -4.21195 0
M  V30 3732 C 369.509 1.9264 -4.98792 0
M  V30 3733 C 370.809 -0.247661 -5.21712 0
M  V30 3734 H 372.503 -0.419082 -2.96452 0
M  V30 3735 H 370.049 -0.202988 -1.42562 0
M  V30 3736 H 372.002 1.88048 -3.77115 0
M  V30 3737 H 370.726 2.05253 -2.54045 0
M  V30 3738 H 369.385 0.23653 -3.65836 0
M  V30 3739 H 369.033 2.63154 -4.28671 0
M  V30 3740 H 368.733 1.54785 -5.66847 0
M  V30 3741 H 370.257 2.4762 -5.58137 0
M  V30 3742 H 371.671 0.209579 -5.72917 0
M  V30 3743 H 370.068 -0.541962 -5.97648 0
M  V30 3744 H 371.138 -1.16409 -4.7072 0
M  V30 3745 N 372.481 1.55866 -0.233164 0
M  V30 3746 C 373.728 1.98603 0.395374 0
M  V30 3747 C 374.056 1.12105 1.58942 0
M  V30 3748 O 373.311 0.168656 1.94972 0
M  V30 3749 C 373.61 3.46856 0.861724 0
M  V30 3750 C 373.276 4.50348 -0.223066 0
M  V30 3751 C 371.938 4.78371 -0.521038 0
M  V30 3752 C 374.29 5.12355 -0.956124 0
M  V30 3753 C 371.618 5.6568 -1.55638 0
M  V30 3754 C 373.97 6.00786 -1.98089 0
M  V30 3755 C 372.634 6.27148 -2.28565 0
M  V30 3756 H 371.904 0.726739 0.144677 0
M  V30 3757 H 374.551 1.88491 -0.338114 0
M  V30 3758 H 372.856 3.5423 1.67418 0
M  V30 3759 H 374.553 3.77302 1.35809 0
M  V30 3760 H 371.143 4.28596 0.0193234 0
M  V30 3761 H 375.327 4.90765 -0.739166 0
M  V30 3762 H 370.583 5.84365 -1.798 0
M  V30 3763 H 374.757 6.4788 -2.55391 0
M  V30 3764 H 372.384 6.94597 -3.08932 0
M  V30 3765 N 373.959 -0.0401083 1.57549 0
M  V30 3766 C 375.37 -0.588097 1.77196 0
M  V30 3767 C 375.721 -1.76209 0.862832 0
M  V30 3768 O 374.846 -2.16331 0.0548389 0
M  V30 3769 C 375.441 -1.07363 3.21339 0
M  V30 3770 C 374 -1.56723 3.42221 0
M  V30 3771 C 373.147 -0.50041 2.72747 0
M  V30 3772 H 376.098 0.186119 1.57605 0
M  V30 3773 H 376.119 -1.94143 3.27244 0
M  V30 3774 H 375.631 -0.218975 3.87482 0
M  V30 3775 H 373.732 -2.4441 2.81237 0
M  V30 3776 H 373.845 -1.62234 4.50796 0
M  V30 3777 H 372.209 -0.952894 2.36203 0
M  V30 3778 H 372.992 0.344599 3.41566 0
M  V30 3779 N 375.437 -1.54477 -0.31217 0
M  V30 3780 C 376.848 -1.64344 -0.885891 0
M  V30 3781 C 377.199 -0.54485 -1.88483 0
M  V30 3782 O 376.324 0.320387 -2.14015 0
M  V30 3783 C 376.919 -2.97908 -1.61357 0
M  V30 3784 C 375.478 -3.09933 -2.13585 0
M  V30 3785 C 374.625 -2.59971 -0.964897 0
M  V30 3786 H 377.576 -1.58448 -0.0894528 0
M  V30 3787 H 377.597 -2.88706 -2.47848 0
M  V30 3788 H 377.109 -3.77845 -0.886277 0
M  V30 3789 H 375.21 -2.34694 -2.89395 0
M  V30 3790 H 375.323 -4.15916 -2.37804 0
M  V30 3791 H 373.687 -2.16147 -1.34731 0
M  V30 3792 H 374.47 -3.42376 -0.251742 0
M  V30 3793 N 376.915 0.57481 -1.46744 0
M  V30 3794 C 377.862 1.68329 -1.57905 0
M  V30 3795 C 378.832 1.60625 -0.422927 0
M  V30 3796 O 380.017 1.79721 -0.640711 0
M  V30 3797 C 377.157 3.06665 -1.58274 0
M  V30 3798 C 376.27 3.24935 -2.84678 0
M  V30 3799 C 375.405 4.53566 -2.76499 0
M  V30 3800 C 374.444 4.65207 -3.97806 0
M  V30 3801 N 373.581 5.85172 -3.87967 0
M  V30 3802 H 378.421 1.58127 -2.52587 0
M  V30 3803 H 375.958 0.770552 -1.25303 0
M  V30 3804 H 377.916 3.86745 -1.56473 0
M  V30 3805 H 376.546 3.15745 -0.671194 0
M  V30 3806 H 375.598 2.38405 -2.96424 0
M  V30 3807 H 376.91 3.29403 -3.7456 0
M  V30 3808 H 376.064 5.41885 -2.72848 0
M  V30 3809 H 374.803 4.51548 -1.8427 0
M  V30 3810 H 373.808 3.75304 -4.0178 0
M  V30 3811 H 375.033 4.68997 -4.9114 0
M  V30 3812 H 372.979 5.84137 -2.98529 0
M  V30 3813 H 372.896 5.90943 -4.71511 0
M  V30 3814 H 374.164 6.759 -3.88303 0
M  V30 3815 N 378.394 1.34581 0.820102 0
M  V30 3816 C 379.805 1.24298 1.39309 0
M  V30 3817 C 380.156 -0.130351 1.95767 0
M  V30 3818 O 379.281 -1.0308 1.90272 0
M  V30 3819 C 379.876 2.25054 2.53251 0
M  V30 3820 C 378.435 2.18552 3.0645 0
M  V30 3821 C 377.582 2.11503 1.79337 0
M  V30 3822 H 380.533 1.45906 0.624262 0
M  V30 3823 H 380.554 1.86917 3.31425 0
M  V30 3824 H 380.066 3.24996 2.1213 0
M  V30 3825 H 378.167 1.21976 3.52069 0
M  V30 3826 H 378.28 3.0993 3.65349 0
M  V30 3827 H 376.644 1.57268 2.00347 0
M  V30 3828 H 377.427 3.13284 1.40386 0
M  V30 3829 N 379.872 -1.04064 1.18357 0
M  V30 3830 C 380.819 -2.12077 0.910603 0
M  V30 3831 C 381.789 -1.65421 -0.15 0
M  V30 3832 O 382.974 -1.90797 -0.0103614 0
M  V30 3833 C 380.114 -3.42252 0.442472 0
M  V30 3834 C 379.227 -4.0252 1.5685 0
M  V30 3835 C 378.362 -5.20657 1.05309 0
M  V30 3836 C 377.401 -5.72955 2.1538 0
M  V30 3837 N 376.538 -6.8238 1.65233 0
M  V30 3838 H 381.378 -2.34764 1.83548 0
M  V30 3839 H 378.915 -1.15157 0.915279 0
M  V30 3840 H 380.873 -4.16921 0.152534 0
M  V30 3841 H 379.503 -3.19712 -0.445428 0
M  V30 3842 H 378.555 -3.25178 1.97391 0
M  V30 3843 H 379.867 -4.37362 2.39824 0
M  V30 3844 H 379.021 -6.0244 0.717677 0
M  V30 3845 H 377.76 -4.87318 0.19293 0
M  V30 3846 H 376.765 -4.89793 2.49766 0
M  V30 3847 H 377.99 -6.08337 3.01832 0
M  V30 3848 H 375.936 -6.50917 0.815064 0
M  V30 3849 H 375.853 -7.16286 2.41805 0
M  V30 3850 H 377.121 -7.67788 1.34619 0
M  V30 3851 N 381.35 -0.985608 -1.22978 0
M  V30 3852 C 382.627 -0.573599 -1.87001 0
M  V30 3853 C 383.007 0.949213 -1.88555 0
M  V30 3854 O 382.355 1.82811 -1.37086 0
M  V30 3855 C 382.565 -1.18564 -3.28243 0
M  V30 3856 C 383.913 -1.28163 -4.04796 0
M  V30 3857 O 384.937 -1.13949 -3.37482 0
M  V30 3858 O 383.796 -1.50832 -5.25273 0
M  V30 3859 H 380.89 -0.193868 -0.803955 0
M  V30 3860 H 383.436 -1.08102 -1.30813 0
M  V30 3861 H 382.208 -2.22758 -3.21706 0
M  V30 3862 H 381.831 -0.663363 -3.92027 0
M  V30 3863 N 382.828 1.3818 -0.7579 0
M  V30 3864 C 384.056 2.04301 -0.326937 0
M  V30 3865 C 384.471 1.57163 1.0462 0
M  V30 3866 O 383.828 0.746626 1.66529 0
M  V30 3867 C 383.879 3.59846 -0.345363 0
M  V30 3868 O 383.6 4.05256 -1.66432 0
M  V30 3869 C 385.101 4.4319 0.098927 0
M  V30 3870 H 382.321 0.656443 -0.139012 0
M  V30 3871 H 384.865 1.76786 -1.02796 0
M  V30 3872 H 383.02 3.86182 0.306955 0
M  V30 3873 H 383.434 4.99709 -1.59345 0
M  V30 3874 H 384.908 5.51989 0.0348745 0
M  V30 3875 H 385.385 4.23947 1.14741 0
M  V30 3876 H 385.991 4.22051 -0.52468 0
M  V30 3877 N 384.306 0.507319 1.49211 0
M  V30 3878 C 385.236 -0.256939 2.32082 0
M  V30 3879 C 386.217 -0.956609 1.40652 0
M  V30 3880 O 387.402 -0.946788 1.69557 0
M  V30 3881 C 384.532 -1.31802 3.21318 0
M  V30 3882 C 383.486 -0.737855 4.21592 0
M  V30 3883 C 382.812 -1.89992 4.99807 0
M  V30 3884 C 384.112 0.275325 5.21574 0
M  V30 3885 H 385.806 0.434798 2.96226 0
M  V30 3886 H 383.352 0.210546 1.42452 0
M  V30 3887 H 385.305 -1.86045 3.78107 0
M  V30 3888 H 384.029 -2.03903 2.5513 0
M  V30 3889 H 382.688 -0.217126 3.65956 0
M  V30 3890 H 382.336 -2.60877 4.30061 0
M  V30 3891 H 382.036 -1.51777 5.6766 0
M  V30 3892 H 383.56 -2.44657 5.59442 0
M  V30 3893 H 384.974 -0.179193 5.7302 0
M  V30 3894 H 383.371 0.573649 5.97352 0
M  V30 3895 H 384.441 1.18903 4.70096 0
M  V30 3896 N 385.784 -1.5574 0.241426 0
M  V30 3897 C 386.717 -2.17168 -0.700935 0
M  V30 3898 C 387.695 -1.12206 -1.1768 0
M  V30 3899 O 388.879 -1.40565 -1.25593 0
M  V30 3900 C 386.006 -2.76796 -1.95196 0
M  V30 3901 C 385.052 -3.94764 -1.61442 0
M  V30 3902 S 385.885 -5.30613 -0.72182 0
M  V30 3903 C 387.041 -5.93691 -1.98197 0
M  V30 3904 H 387.274 -2.96761 -0.178882 0
M  V30 3905 H 384.807 -1.54378 0.0259299 0
M  V30 3906 H 386.765 -3.11787 -2.67019 0
M  V30 3907 H 385.426 -1.9716 -2.44514 0
M  V30 3908 H 384.619 -4.35057 -2.54443 0
M  V30 3909 H 384.221 -3.61022 -0.976672 0
M  V30 3910 H 386.513 -6.10874 -2.92983 0
M  V30 3911 H 387.456 -6.89258 -1.62262 0
M  V30 3912 H 387.864 -5.22709 -2.13156 0
M  V30 3913 N 387.262 0.0317525 -1.57568 0
M  V30 3914 C 388.511 0.722131 -1.8833 0
M  V30 3915 C 388.824 1.76664 -0.839587 0
M  V30 3916 O 390.03 2.50942 -1.03635 0
M  V30 3917 C 388.486 1.33544 -3.34207 0
M  V30 3918 C 388.094 0.327415 -4.46802 0
M  V30 3919 C 389.838 2.00585 -3.7412 0
M  V30 3920 C 387.745 0.948915 -5.83738 0
M  V30 3921 H 386.675 0.273466 -0.702661 0
M  V30 3922 H 389.326 -0.0235811 -1.83485 0
M  V30 3923 H 387.708 2.13077 -3.33788 0
M  V30 3924 H 388.882 -0.441006 -4.58685 0
M  V30 3925 H 387.197 -0.240758 -4.15703 0
M  V30 3926 H 389.794 2.47932 -4.73744 0
M  V30 3927 H 390.137 2.82285 -3.05975 0
M  V30 3928 H 390.67 1.27831 -3.76702 0
M  V30 3929 H 387.409 0.171387 -6.55276 0
M  V30 3930 H 386.929 1.68724 -5.7558 0
M  V30 3931 H 388.608 1.45705 -6.3038 0
M  V30 3932 N 388.74 1.54641 0.303973 0
M  V30 3933 C 389.965 1.78092 1.06292 0
M  V30 3934 C 390.39 0.537342 1.80262 0
M  V30 3935 O 389.748 -0.511993 1.7392 0
M  V30 3936 C 389.796 2.98612 2.02147 0
M  V30 3937 O 388.9 2.71528 3.10397 0
M  V30 3938 H 388.241 0.589548 0.305497 0
M  V30 3939 H 390.771 2.01716 0.3423 0
M  V30 3940 H 390.781 3.265 2.44667 0
M  V30 3941 H 389.456 3.88785 1.47714 0
M  V30 3942 H 388.033 2.54648 2.72413 0
M  V30 3943 N 390.218 -0.567019 1.47046 0
M  V30 3944 C 391.634 -0.891975 1.32348 0
M  V30 3945 C 391.834 -1.99154 0.306616 0
M  V30 3946 O 390.89 -2.50883 -0.28532 0
M  V30 3947 C 392.203 -1.29449 2.7141 0
M  V30 3948 C 393.751 -1.40646 2.79621 0
M  V30 3949 C 394.226 -1.84257 4.19301 0
M  V30 3950 N 395.717 -1.91424 4.21795 0
M  V30 3951 C 396.452 -2.26476 5.26779 0
M  V30 3952 N 395.948 -2.60211 6.42077 0
M  V30 3953 N 397.741 -2.27166 5.14152 0
M  V30 3954 H 389.892 0.159074 2.11803 0
M  V30 3955 H 392.155 0.00849752 0.947962 0
M  V30 3956 H 391.861 -0.560448 3.47206 0
M  V30 3957 H 391.735 -2.25273 3.02542 0
M  V30 3958 H 394.122 -2.13133 2.04104 0
M  V30 3959 H 394.203 -0.430339 2.52154 0
M  V30 3960 H 393.847 -1.12343 4.95319 0
M  V30 3961 H 393.777 -2.82855 4.44185 0
M  V30 3962 H 396.268 -1.6778 3.38612 0
M  V30 3963 H 396.581 -2.85956 7.17948 0
M  V30 3964 H 394.926 -2.57813 6.45413 0
M  V30 3965 H 398.117 -2.00244 4.23107 0
M  V30 3966 H 398.29 -2.54154 5.96079 0
M  V30 3967 N 391.696 -1.35014 -0.812953 0
M  V30 3968 C 392.924 -1.31031 -1.6012 0
M  V30 3969 C 393.339 0.113558 -1.88458 0
M  V30 3970 O 392.696 1.06363 -1.48301 0
M  V30 3971 C 392.747 -2.10872 -2.93624 0
M  V30 3972 O 392.468 -3.47706 -2.66518 0
M  V30 3973 C 393.969 -2.14401 -3.88004 0
M  V30 3974 H 391.189 -0.45037 -0.497401 0
M  V30 3975 H 393.733 -1.77775 -1.01076 0
M  V30 3976 H 391.888 -1.67744 -3.492 0
M  V30 3977 H 392.302 -3.89097 -3.51715 0
M  V30 3978 H 393.776 -2.74669 -4.78812 0
M  V30 3979 H 394.253 -1.14105 -4.24119 0
M  V30 3980 H 394.859 -2.57662 -3.38364 0
M  V30 3981 N 393.175 1.03435 -1.18907 0
M  V30 3982 C 394.586 1.58195 -0.991523 0
M  V30 3983 C 394.937 1.90801 0.457081 0
M  V30 3984 O 394.062 1.70272 1.33553 0
M  V30 3985 C 394.657 2.87432 -1.79355 0
M  V30 3986 C 393.216 3.38785 -1.64017 0
M  V30 3987 C 392.363 2.12292 -1.78402 0
M  V30 3988 H 395.314 0.860299 -1.33359 0
M  V30 3989 H 395.335 3.58096 -1.28638 0
M  V30 3990 H 394.847 2.63669 -2.84781 0
M  V30 3991 H 392.948 3.67547 -0.611536 0
M  V30 3992 H 393.061 4.12186 -2.44212 0
M  V30 3993 H 391.425 2.23901 -1.2141 0
M  V30 3994 H 392.208 1.90977 -2.85277 0
M  V30 3995 N 394.653 0.992116 1.22453 0
M  V30 3996 C 395.563 0.55065 2.28046 0
M  V30 3997 C 396.579 -0.400189 1.69335 0
M  V30 3998 O 397.755 -0.267215 1.99619 0
M  V30 3999 C 394.82 -0.128496 3.46462 0
M  V30 4000 C 393.881 0.865208 4.20491 0
M  V30 4001 C 393.114 0.218377 5.33253 0
M  V30 4002 O 393.337 -0.987894 5.6178 0
M  V30 4003 O 392.271 0.922845 5.94783 0
M  V30 4004 H 396.097 1.4291 2.67975 0
M  V30 4005 H 393.682 0.760326 1.28606 0
M  V30 4006 H 395.564 -0.508947 4.18315 0
M  V30 4007 H 394.239 -0.981526 3.0846 0
M  V30 4008 H 393.146 1.29658 3.50913 0
M  V30 4009 H 394.479 1.68741 4.62371 0
M  V30 4010 N 396.131 -1.37776 0.765217 0
M  V30 4011 C 397.377 -2.00145 0.327072 0
M  V30 4012 C 397.71 -1.60607 -1.09175 0
M  V30 4013 O 396.985 -0.849127 -1.74986 0
M  V30 4014 C 397.268 -3.57109 0.46319 0
M  V30 4015 C 397.121 -4.06576 1.92395 0
M  V30 4016 C 398.44 -4.39888 -0.136473 0
M  V30 4017 H 395.559 -0.727113 0.120316 0
M  V30 4018 H 398.201 -1.63549 0.967039 0
M  V30 4019 H 396.351 -3.88414 -0.0816358 0
M  V30 4020 H 398.023 -3.85864 2.52798 0
M  V30 4021 H 396.266 -3.59011 2.43503 0
M  V30 4022 H 396.937 -5.15639 1.97028 0
M  V30 4023 H 399.413 -4.14803 0.328317 0
M  V30 4024 H 398.289 -5.48899 -0.0110582 0
M  V30 4025 H 398.55 -4.24758 -1.22608 0
M  V30 4026 N 397.609 -0.515225 -1.4894 0
M  V30 4027 C 398.837 0.0206034 -2.0689 0
M  V30 4028 C 399.252 1.29514 -1.37374 0
M  V30 4029 O 398.609 1.76698 -0.456529 0
M  V30 4030 C 398.66 0.26351 -3.60538 0
M  V30 4031 O 398.381 -0.960517 -4.27441 0
M  V30 4032 C 399.882 0.841383 -4.35242 0
M  V30 4033 H 397.102 -0.0268608 -0.670462 0
M  V30 4034 H 399.646 -0.716651 -1.91532 0
M  V30 4035 H 397.801 0.950777 -3.75552 0
M  V30 4036 H 398.215 -0.73212 -5.19365 0
M  V30 4037 H 399.689 0.96085 -5.43573 0
M  V30 4038 H 400.166 1.8427 -3.98674 0
M  V30 4039 H 400.772 0.191143 -4.2487 0
M  V30 4040 N 399.087 1.5561 -0.249682 0
M  V30 4041 C 400.327 2.00916 0.37579 0
M  V30 4042 C 400.691 1.13409 1.54927 0
M  V30 4043 O 401.892 1.48183 2.24266 0
M  V30 4044 C 400.163 3.48949 0.772633 0
M  V30 4045 S 401.722 4.16261 1.38824 0
M  V30 4046 H 398.54 0.70112 0.118117 0
M  V30 4047 H 401.142 1.92052 -0.365567 0
M  V30 4048 H 399.846 4.103 -0.090683 0
M  V30 4049 H 399.377 3.61745 1.5461 0
M  V30 4050 H 401.392 4.17778 2.67724 0
M  V30 4051 N 400.565 -0.0233959 1.57583 0
M  V30 4052 C 401.811 -0.714119 1.89811 0
M  V30 4053 C 402.144 -1.74702 0.848113 0
M  V30 4054 O 401.419 -1.94023 -0.136135 0
M  V30 4055 C 401.702 -1.37853 3.32669 0
M  V30 4056 C 401.555 -0.358764 4.48367 0
M  V30 4057 C 402.874 -2.31101 3.7454 0
M  V30 4058 H 399.993 -0.25814 0.690314 0
M  V30 4059 H 402.635 0.0230927 1.89986 0
M  V30 4060 H 400.785 -2.00689 3.3265 0
M  V30 4061 H 402.457 0.268115 4.6052 0
M  V30 4062 H 400.7 0.321387 4.32608 0
M  V30 4063 H 401.371 -0.862242 5.45224 0
M  V30 4064 H 403.847 -1.78304 3.75961 0
M  V30 4065 H 402.723 -2.74567 4.75294 0
M  V30 4066 H 402.984 -3.18018 3.0711 0
M  V30 4067 N 402.043 -1.548 -0.295768 0
M  V30 4068 C 403.289 -1.74588 -1.03184 0
M  V30 4069 C 403.622 -0.532962 -1.86744 0
M  V30 4070 O 402.897 0.469872 -1.88739 0
M  V30 4071 C 403.18 -3.03791 -1.93347 0
M  V30 4072 C 403.033 -4.35392 -1.12933 0
M  V30 4073 C 404.352 -3.28892 -2.92435 0
M  V30 4074 H 401.471 -0.635221 -0.373715 0
M  V30 4075 H 404.113 -1.87519 -0.30606 0
M  V30 4076 H 402.263 -2.92898 -2.55232 0
M  V30 4077 H 403.935 -4.58211 -0.532943 0
M  V30 4078 H 402.178 -4.31642 -0.432168 0
M  V30 4079 H 402.849 -5.22074 -1.79284 0
M  V30 4080 H 405.325 -3.39429 -2.4068 0
M  V30 4081 H 404.201 -4.20603 -3.52682 0
M  V30 4082 H 404.462 -2.47437 -3.6637 0
M  V30 4083 N 403.521 0.559213 -1.47345 0
M  V30 4084 C 404.767 1.31843 -1.54095 0
M  V30 4085 C 405.1 1.93149 -0.201726 0
M  V30 4086 O 404.375 1.77759 0.789428 0
M  V30 4087 C 404.658 2.43006 -2.65744 0
M  V30 4088 C 404.511 1.86581 -4.09277 0
M  V30 4089 C 405.83 3.44943 -2.73318 0
M  V30 4090 H 402.949 0.478012 -0.560957 0
M  V30 4091 H 405.591 0.625977 -1.79392 0
M  V30 4092 H 403.741 3.02072 -2.44305 0
M  V30 4093 H 405.413 1.31792 -4.42073 0
M  V30 4094 H 403.656 1.17268 -4.17649 0
M  V30 4095 H 404.327 2.66933 -4.83168 0
M  V30 4096 H 406.803 2.95793 -2.92653 0
M  V30 4097 H 405.679 4.20153 -3.53218 0
M  V30 4098 H 405.94 4.03665 -1.80296 0
M  V30 4099 N 404.999 1.35443 0.805782 0
M  V30 4100 C 406.276 1.19325 1.54987 0
M  V30 4101 C 406.656 -0.227294 2.09873 0
M  V30 4102 O 406.004 -1.2309 1.92512 0
M  V30 4103 C 406.214 2.26196 2.65775 0
M  V30 4104 C 407.562 2.62043 3.34094 0
M  V30 4105 O 408.586 2.25115 2.76046 0
M  V30 4106 O 407.445 3.25542 4.38958 0
M  V30 4107 H 404.539 0.463623 0.684823 0
M  V30 4108 H 407.085 1.47127 0.845674 0
M  V30 4109 H 405.857 3.21471 2.23096 0
M  V30 4110 H 405.48 1.99667 3.43829 0
M  V30 4111 N 406.477 -1.02803 1.19454 0
M  V30 4112 C 407.723 -1.76478 0.999171 0
M  V30 4113 C 408.056 -1.88456 -0.468828 0
M  V30 4114 O 407.331 -1.40198 -1.34814 0
M  V30 4115 C 407.614 -3.19044 1.66981 0
M  V30 4116 C 407.467 -3.14932 3.21151 0
M  V30 4117 C 408.786 -4.17456 1.39349 0
M  V30 4118 H 405.905 -0.640614 0.364393 0
M  V30 4119 H 408.547 -1.20005 1.47305 0
M  V30 4120 H 406.697 -3.67263 1.2669 0
M  V30 4121 H 408.369 -2.74605 3.70661 0
M  V30 4122 H 406.612 -2.52625 3.52652 0
M  V30 4123 H 407.283 -4.1566 3.63223 0
M  V30 4124 H 409.759 -3.77842 1.74283 0
M  V30 4125 H 408.635 -5.154 1.88823 0
M  V30 4126 H 408.896 -4.40949 0.318813 0
M  V30 4127 N 407.956 -0.998596 -1.21925 0
M  V30 4128 C 409.181 -0.696015 -1.95372 0
M  V30 4129 C 409.606 0.733826 -1.73195 0
M  V30 4130 O 408.964 1.50242 -1.01474 0
M  V30 4131 C 409.012 -1.01466 -3.4603 0
M  V30 4132 O 408.116 -0.116415 -4.12236 0
M  V30 4133 H 407.457 -0.259938 -0.611006 0
M  V30 4134 H 409.987 -1.33711 -1.54863 0
M  V30 4135 H 409.997 -0.958855 -3.96573 0
M  V30 4136 H 408.672 -2.05653 -3.61497 0
M  V30 4137 H 407.249 -0.228193 -3.72201 0
M  V30 4138 N 409.434 1.37368 -0.772513 0
M  V30 4139 C 410.384 2.27613 -0.132823 0
M  V30 4140 C 411.368 1.46138 0.673247 0
M  V30 4141 O 412.56 1.68686 0.536095 0
M  V30 4142 C 409.689 3.35122 0.744864 0
M  V30 4143 C 408.775 4.24044 -0.0690771 0
M  V30 4144 N 409.166 4.93355 -1.1151 0
M  V30 4145 C 407.464 4.45731 0.154782 0
M  V30 4146 C 408.165 5.59 -1.60917 0
M  V30 4147 N 407.141 5.35737 -0.921222 0
M  V30 4148 H 410.943 2.78675 -0.933681 0
M  V30 4149 H 408.457 1.50494 -0.610342 0
M  V30 4150 H 410.454 3.98683 1.21892 0
M  V30 4151 H 409.114 2.85616 1.54446 0
M  V30 4152 H 410.125 4.95785 -1.49726 0
M  V30 4153 H 406.802 4.07096 0.926224 0
M  V30 4154 H 408.192 6.24395 -2.48153 0
M  V30 4155 N 410.912 0.523116 1.48665 0
M  V30 4156 C 411.822 -0.247406 2.33292 0
M  V30 4157 C 412.838 -0.945769 1.46052 0
M  V30 4158 O 414.014 -0.922253 1.79043 0
M  V30 4159 C 411.079 -1.28487 3.22012 0
M  V30 4160 C 410.14 -0.597592 4.2512 0
M  V30 4161 C 409.373 -1.58563 5.09601 0
M  V30 4162 O 409.596 -2.81763 4.95949 0
M  V30 4163 O 408.53 -1.12879 5.91221 0
M  V30 4164 H 412.356 0.445869 3.00409 0
M  V30 4165 H 409.941 0.284128 1.46673 0
M  V30 4166 H 411.823 -1.88459 3.7691 0
M  V30 4167 H 410.498 -1.96068 2.57564 0
M  V30 4168 H 409.405 0.0424407 3.74076 0
M  V30 4169 H 410.738 0.0361517 4.92187 0
M  V30 4170 N 412.39 -1.55475 0.257931 0
M  V30 4171 C 413.667 -1.91155 -0.414629 0
M  V30 4172 C 414.047 -1.18008 -1.75035 0
M  V30 4173 O 413.395 -0.301193 -2.26506 0
M  V30 4174 C 413.605 -3.44283 -0.571859 0
M  V30 4175 C 414.953 -4.15744 -0.862678 0
M  V30 4176 O 415.977 -3.50083 -0.657314 0
M  V30 4177 O 414.836 -5.31909 -1.2544 0
M  V30 4178 H 411.93 -0.796016 -0.22425 0
M  V30 4179 H 414.476 -1.66976 0.302814 0
M  V30 4180 H 413.248 -3.89558 0.368844 0
M  V30 4181 H 412.871 -3.7436 -1.33943 0
M  V30 4182 N 413.868 0.0150385 -1.57593 0
M  V30 4183 C 415.279 0.559832 -1.78109 0
M  V30 4184 C 415.63 1.74814 -0.890756 0
M  V30 4185 O 414.755 2.16216 -0.0892482 0
M  V30 4186 C 415.35 1.02238 -3.23006 0
M  V30 4187 C 413.909 1.51258 -3.44671 0
M  V30 4188 C 413.056 0.456955 -2.73509 0
M  V30 4189 H 416.007 -0.211169 -1.57289 0
M  V30 4190 H 416.028 1.88912 -3.30292 0
M  V30 4191 H 415.54 0.157302 -3.87781 0
M  V30 4192 H 413.641 2.39905 -2.8509 0
M  V30 4193 H 413.754 1.55042 -4.5332 0
M  V30 4194 H 412.118 0.915196 -2.37689 0
M  V30 4195 H 412.901 -0.398896 -3.40975 0
M  V30 4196 N 415.346 1.54954 0.287554 0
M  V30 4197 C 416.256 1.8991 1.37736 0
M  V30 4198 C 417.272 0.794701 1.54792 0
M  V30 4199 O 418.448 1.09243 1.69198 0
M  V30 4200 C 415.513 2.15108 2.71899 0
M  V30 4201 C 414.574 3.38752 2.63715 0
M  V30 4202 C 413.807 3.62739 3.91479 0
M  V30 4203 O 414.03 2.89492 4.91478 0
M  V30 4204 O 412.964 4.56267 3.92561 0
M  V30 4205 H 416.79 2.82652 1.11092 0
M  V30 4206 H 414.375 1.41315 0.484807 0
M  V30 4207 H 416.257 2.32806 3.51254 0
M  V30 4208 H 414.932 1.25551 2.9836 0
M  V30 4209 H 413.839 3.26405 1.82786 0
M  V30 4210 H 415.172 4.28483 2.42205 0
M  V30 4211 N 416.824 -0.551391 1.4764 0
M  V30 4212 C 418.07 -1.31024 1.54792 0
M  V30 4213 C 418.403 -1.9304 0.211967 0
M  V30 4214 O 417.678 -1.78175 -0.77999 0
M  V30 4215 C 417.961 -2.41593 2.67029 0
M  V30 4216 C 417.814 -1.84408 4.10261 0
M  V30 4217 C 419.133 -3.43488 2.75143 0
M  V30 4218 H 416.252 -0.475031 0.563485 0
M  V30 4219 H 418.894 -0.616454 1.79722 0
M  V30 4220 H 417.044 -3.00772 2.45904 0
M  V30 4221 H 418.716 -1.29445 4.42766 0
M  V30 4222 H 416.959 -1.15051 4.18265 0
M  V30 4223 H 417.63 -2.64367 4.84576 0
M  V30 4224 H 420.106 -2.94236 2.94218 0
M  V30 4225 H 418.982 -4.18274 3.55441 0
M  V30 4226 H 419.243 -4.02703 1.82435 0
M  V30 4227 N 418.302 -1.35869 -0.798587 0
M  V30 4228 C 419.249 -1.29446 -1.91082 0
M  V30 4229 C 420.219 -0.16487 -1.6528 0
M  V30 4230 O 421.404 -0.349888 -1.87564 0
M  V30 4231 C 418.544 -1.0804 -3.27752 0
M  V30 4232 C 417.657 -2.29993 -3.65687 0
M  V30 4233 C 416.792 -2.01673 -4.91428 0
M  V30 4234 C 415.831 -3.19636 -5.22015 0
M  V30 4235 N 414.968 -2.91039 -6.38937 0
M  V30 4236 H 419.808 -2.24553 -1.95907 0
M  V30 4237 H 417.345 -1.11615 -0.958148 0
M  V30 4238 H 419.303 -0.936586 -4.06551 0
M  V30 4239 H 417.933 -0.16592 -3.22373 0
M  V30 4240 H 416.985 -2.55211 -2.82085 0
M  V30 4241 H 418.297 -3.18052 -3.84245 0
M  V30 4242 H 417.451 -1.84168 -5.78072 0
M  V30 4243 H 416.19 -1.10911 -4.74921 0
M  V30 4244 H 415.195 -3.37709 -4.33858 0
M  V30 4245 H 416.42 -4.11211 -5.40447 0
M  V30 4246 H 414.366 -2.0288 -6.2384 0
M  V30 4247 H 414.283 -3.72635 -6.57784 0
M  V30 4248 H 415.551 -2.77093 -7.28587 0
M  V30 4249 N 419.78 1.02168 -1.19998 0
M  V30 4250 C 421.027 1.75685 -1.00702 0
M  V30 4251 C 421.355 1.88947 0.461426 0
M  V30 4252 O 420.61 1.40832 1.35885 0
M  V30 4253 C 420.909 3.18081 -1.62969 0
M  V30 4254 C 420.575 3.24809 -3.12746 0
M  V30 4255 C 419.237 3.26352 -3.53621 0
M  V30 4256 C 421.589 3.23379 -4.08749 0
M  V30 4257 C 418.917 3.2413 -4.89036 0
M  V30 4258 C 421.269 3.22698 -5.44104 0
M  V30 4259 C 419.933 3.22542 -5.84399 0
M  V30 4260 H 419.203 0.642877 -0.368496 0
M  V30 4261 H 421.85 1.19865 -1.49348 0
M  V30 4262 H 420.155 3.77027 -1.06573 0
M  V30 4263 H 421.852 3.73648 -1.45561 0
M  V30 4264 H 418.442 3.2434 -2.80181 0
M  V30 4265 H 422.626 3.21361 -3.78207 0
M  V30 4266 H 417.882 3.22338 -5.19527 0
M  V30 4267 H 422.056 3.20543 -6.18244 0
M  V30 4268 H 419.683 3.20575 -6.89301 0
M  V30 4269 N 421.258 1.00505 1.21394 0
M  V30 4270 C 422.206 0.558623 2.25792 0
M  V30 4271 C 423.2 -0.396848 1.64686 0
M  V30 4272 O 424.406 -0.268035 1.77993 0
M  V30 4273 H 420.781 0.1623 0.734277 0
M  V30 4274 H 422.752 1.4503 2.60785 0
M  V30 4275 C 421.501 -0.0989574 3.47559 0
M  V30 4276 H 420.824 0.627225 3.94849 0
M  V30 4277 H 422.264 -0.3746 4.22342 0
M  V30 4278 C 420.723 -1.33817 3.09184 0
M  V30 4279 O 421.253 -2.43252 3.19674 0
M  V30 4280 N 419.459 -1.21793 2.63846 0
M  V30 4281 H 419.006 -0.32746 2.5551 0
M  V30 4282 H 418.964 -2.04809 2.38539 0
M  V30 4283 N 422.737 -1.36956 0.779787 0
M  V30 4284 C 423.983 -2.00237 0.357324 0
M  V30 4285 C 424.338 -1.60787 -1.05666 0
M  V30 4286 O 423.631 -0.847836 -1.71821 0
M  V30 4287 C 423.825 -3.54585 0.447686 0
M  V30 4288 C 423.654 -4.09025 1.86891 0
M  V30 4289 C 422.424 -4.39612 2.49138 0
M  V30 4290 C 424.622 -4.29461 2.82963 0
M  V30 4291 N 422.604 -4.79816 3.82949 0
M  V30 4292 C 423.975 -4.72363 4.01588 0
M  V30 4293 C 426.03 -4.1161 2.80145 0
M  V30 4294 C 424.733 -4.99284 5.17791 0
M  V30 4295 C 426.759 -4.39672 3.95528 0
M  V30 4296 C 426.121 -4.82822 5.12896 0
M  V30 4297 H 422.22 -0.76148 0.177968 0
M  V30 4298 H 424.804 -1.6613 1.01533 0
M  V30 4299 H 422.975 -3.87982 -0.180184 0
M  V30 4300 H 424.707 -4.047 0.0023955 0
M  V30 4301 H 421.462 -4.28975 2.00693 0
M  V30 4302 H 421.886 -5.04216 4.51769 0
M  V30 4303 H 426.528 -3.77415 1.90572 0
M  V30 4304 H 424.246 -5.32365 6.07958 0
M  V30 4305 H 427.832 -4.27441 3.94697 0
M  V30 4306 H 426.712 -5.04118 6.00695 0
M  V30 4307 N 424.215 -0.530993 -1.48385 0
M  V30 4308 C 425.445 -0.00133928 -2.066 0
M  V30 4309 C 425.853 1.28599 -1.38777 0
M  V30 4310 O 425.196 1.77599 -0.469495 0
M  V30 4311 C 425.258 0.292137 -3.58311 0
M  V30 4312 C 424.922 -0.901864 -4.48013 0
M  V30 4313 C 425.919 -1.80053 -4.87726 0
M  V30 4314 C 423.604 -1.10915 -4.89901 0
M  V30 4315 C 425.598 -2.89038 -5.68098 0
M  V30 4316 C 423.285 -2.20213 -5.70043 0
M  V30 4317 C 424.283 -3.09107 -6.0905 0
M  V30 4318 O 423.971 -4.16514 -6.87583 0
M  V30 4319 H 423.703 -0.0308475 -0.675296 0
M  V30 4320 H 426.257 -0.736335 -1.91748 0
M  V30 4321 H 424.487 1.08112 -3.7128 0
M  V30 4322 H 426.176 0.763994 -3.98645 0
M  V30 4323 H 426.942 -1.65234 -4.55986 0
M  V30 4324 H 422.821 -0.426498 -4.59023 0
M  V30 4325 H 426.365 -3.58451 -5.98464 0
M  V30 4326 H 422.262 -2.35016 -6.01197 0
M  V30 4327 H 423.03 -4.14237 -7.05939 0
M  V30 4328 N 425.693 1.55336 -0.266172 0
M  V30 4329 C 426.939 1.99692 0.353681 0
M  V30 4330 C 427.272 1.1543 1.56172 0
M  V30 4331 O 426.547 0.222218 1.93226 0
M  V30 4332 C 426.83 3.52316 0.74466 0
M  V30 4333 C 426.683 4.47337 -0.470101 0
M  V30 4334 C 428.002 4.10588 1.58447 0
M  V30 4335 H 425.121 0.725961 0.12708 0
M  V30 4336 H 427.763 1.86336 -0.371333 0
M  V30 4337 H 425.913 3.63829 1.36239 0
M  V30 4338 H 427.585 4.4778 -1.10864 0
M  V30 4339 H 425.828 4.19364 -1.10978 0
M  V30 4340 H 426.499 5.51788 -0.15291 0
M  V30 4341 H 428.975 4.02297 1.06286 0
M  V30 4342 H 427.851 5.17607 1.82686 0
M  V30 4343 H 428.112 3.60253 2.56262 0
M  V30 4344 N 427.171 -0.0066808 1.57599 0
M  V30 4345 C 428.448 -0.729586 1.81484 0
M  V30 4346 C 428.828 -1.92359 0.869558 0
M  V30 4347 O 428.176 -2.28348 -0.0832533 0
M  V30 4348 C 428.386 -1.1416 3.29801 0
M  V30 4349 C 429.734 -1.54823 3.95367 0
M  V30 4350 O 430.758 -1.23558 3.34084 0
M  V30 4351 O 429.617 -2.12937 5.03309 0
M  V30 4352 H 426.711 -0.354674 0.747085 0
M  V30 4353 H 429.257 0.0182609 1.6969 0
M  V30 4354 H 428.029 -0.290231 3.90222 0
M  V30 4355 H 427.652 -1.94876 3.46568 0
M  V30 4356 N 428.649 -1.55105 -0.279332 0
M  V30 4357 C 429.897 -1.75066 -1.00977 0
M  V30 4358 C 430.218 -0.551276 -1.87045 0
M  V30 4359 O 429.488 0.433984 -1.91032 0
M  V30 4360 H 428.068 -0.645578 -0.375816 0
M  V30 4361 H 430.73 -1.92497 -0.305089 0
M  V30 4362 H 429.826 -2.64894 -1.65038 0
M  V30 4363 N 430.127 0.543554 -1.4793 0
M  V30 4364 C 431.373 1.30201 -1.55485 0
M  V30 4365 C 431.706 1.92925 -0.222201 0
M  V30 4366 O 430.981 1.78586 0.77053 0
M  V30 4367 C 431.264 2.40174 -2.68307 0
M  V30 4368 C 431.117 1.8223 -4.11233 0
M  V30 4369 C 432.436 3.42024 -2.76961 0
M  V30 4370 H 429.555 0.472036 -0.565996 0
M  V30 4371 H 432.197 0.606914 -1.80046 0
M  V30 4372 H 430.347 2.99463 -2.47495 0
M  V30 4373 H 432.019 1.27096 -4.43446 0
M  V30 4374 H 430.262 1.12832 -4.18869 0
M  V30 4375 H 430.933 2.61793 -4.85972 0
M  V30 4376 H 433.409 2.92672 -2.95774 0
M  V30 4377 H 432.285 4.16383 -3.57654 0
M  V30 4378 H 432.546 4.0173 -1.84568 0
M  V30 4379 N 431.605 1.3629 0.791371 0
M  V30 4380 C 432.515 1.32606 1.93527 0
M  V30 4381 C 433.531 0.228541 1.72493 0
M  V30 4382 O 434.707 0.460571 1.96063 0
M  V30 4383 C 431.772 1.11271 3.28359 0
M  V30 4384 C 430.833 2.3048 3.62185 0
M  V30 4385 C 430.066 2.10154 4.90583 0
M  V30 4386 O 430.289 1.07572 5.60165 0
M  V30 4387 O 429.223 2.97884 5.23019 0
M  V30 4388 H 433.049 2.28909 1.99585 0
M  V30 4389 H 430.634 1.16818 0.931344 0
M  V30 4390 H 432.516 1.01283 4.09047 0
M  V30 4391 H 431.191 0.180292 3.23198 0
M  V30 4392 H 430.098 2.46036 2.81811 0
M  V30 4393 H 431.431 3.22221 3.72068 0
M  V30 4394 N 433.083 -1.0153 1.20538 0
M  V30 4395 C 434.329 -1.75408 1.01783 0
M  V30 4396 C 434.662 -1.88943 -0.448814 0
M  V30 4397 O 433.937 -1.4162 -1.33319 0
M  V30 4398 C 434.22 -3.17255 1.70356 0
M  V30 4399 C 434.073 -3.11508 3.24473 0
M  V30 4400 C 435.392 -4.15955 1.43769 0
M  V30 4401 H 432.511 -0.636713 0.371167 0
M  V30 4402 H 435.153 -1.18436 1.4857 0
M  V30 4403 H 433.303 -3.65898 1.30578 0
M  V30 4404 H 434.975 -2.70658 3.73553 0
M  V30 4405 H 433.218 -2.4887 3.55311 0
M  V30 4406 H 433.889 -4.11784 3.67611 0
M  V30 4407 H 436.365 -3.75973 1.7828 0
M  V30 4408 H 435.241 -5.13368 1.94279 0
M  V30 4409 H 435.502 -4.40586 0.365564 0
M  V30 4410 N 434.561 -1.01147 -1.20859 0
M  V30 4411 C 435.511 -0.548247 -2.2131 0
M  V30 4412 C 436.495 0.393646 -1.5601 0
M  V30 4413 O 437.687 0.217445 -1.75659 0
M  V30 4414 C 434.816 0.117252 -3.431 0
M  V30 4415 C 433.902 -0.846043 -4.15575 0
M  V30 4416 N 434.293 -2.00149 -4.64515 0
M  V30 4417 C 432.591 -0.665783 -4.41003 0
M  V30 4418 C 433.292 -2.60764 -5.19978 0
M  V30 4419 N 432.268 -1.88868 -5.09735 0
M  V30 4420 H 436.07 -1.42921 -2.56809 0
M  V30 4421 H 433.584 -0.876142 -1.36739 0
M  V30 4422 H 435.581 0.46662 -4.1428 0
M  V30 4423 H 434.241 0.994115 -3.09107 0
M  V30 4424 H 435.252 -2.38162 -4.5989 0
M  V30 4425 H 431.929 0.163456 -4.1718 0
M  V30 4426 H 433.319 -3.58519 -5.68255 0
M  V30 4427 N 436.039 1.36541 -0.78704 0
M  V30 4428 C 436.987 2.31965 -0.171724 0
M  V30 4429 C 437.981 1.55689 0.667631 0
M  V30 4430 O 439.187 1.70969 0.562981 0
M  V30 4431 H 435.562 0.751101 -0.0367545 0
M  V30 4432 H 437.533 2.81428 -0.992017 0
M  V30 4433 C 436.282 3.40968 0.680904 0
M  V30 4434 H 435.605 3.99775 0.0443961 0
M  V30 4435 H 437.045 4.10063 1.07815 0
M  V30 4436 C 435.504 2.82338 1.83813 0
M  V30 4437 O 436.034 2.74311 2.93456 0
M  V30 4438 N 434.24 2.39661 1.6435 0
M  V30 4439 H 433.787 2.46389 0.751668 0
M  V30 4440 H 433.745 2.00779 2.4194 0
M  V30 4441 N 437.518 0.538854 1.48102 0
M  V30 4442 C 438.481 -0.208395 2.28251 0
M  V30 4443 C 439.481 -0.859656 1.35892 0
M  V30 4444 O 440.671 -0.71834 1.58699 0
M  V30 4445 C 437.803 -1.30252 3.15035 0
M  V30 4446 H 438.996 0.495407 2.9578 0
M  V30 4447 H 436.549 0.295112 1.53489 0
M  V30 4448 H 437.284 -2.0393 2.52157 0
M  V30 4449 H 437.069 -0.840551 3.82985 0
M  V30 4450 H 438.559 -1.82787 3.75471 0
M  V30 4451 N 438.996 -1.55193 0.274407 0
M  V30 4452 C 439.943 -2.225 -0.613374 0
M  V30 4453 C 440.913 -1.19823 -1.15029 0
M  V30 4454 O 442.098 -1.48362 -1.19973 0
M  V30 4455 C 439.238 -2.94927 -1.79199 0
M  V30 4456 C 438.351 -4.12322 -1.28899 0
M  V30 4457 C 437.486 -4.72394 -2.42934 0
M  V30 4458 C 436.525 -5.81984 -1.89634 0
M  V30 4459 N 435.662 -6.36123 -2.9714 0
M  V30 4460 H 440.502 -2.97982 -0.032756 0
M  V30 4461 H 438.039 -1.47099 -0.00440146 0
M  V30 4462 H 439.997 -3.35134 -2.48478 0
M  V30 4463 H 438.627 -2.2187 -2.34465 0
M  V30 4464 H 437.679 -3.7724 -0.489327 0
M  V30 4465 H 438.991 -4.91355 -0.858587 0
M  V30 4466 H 438.145 -5.15317 -3.20208 0
M  V30 4467 H 436.884 -3.92636 -2.8929 0
M  V30 4468 H 435.889 -5.38511 -1.1084 0
M  V30 4469 H 437.114 -6.6361 -1.44215 0
M  V30 4470 H 435.06 -5.59259 -3.42878 0
M  V30 4471 H 434.977 -7.10427 -2.58515 0
M  V30 4472 H 436.245 -6.83704 -3.74391 0
M  V30 4473 N 440.474 -0.00167713 -1.576 0
M  V30 4474 C 441.702 0.693759 -1.94922 0
M  V30 4475 C 442.117 1.67215 -0.876626 0
M  V30 4476 O 441.474 1.81929 0.144279 0
M  V30 4477 C 441.525 1.42416 -3.32265 0
M  V30 4478 O 441.246 0.485014 -4.35407 0
M  V30 4479 C 442.747 2.21395 -3.84056 0
M  V30 4480 H 439.967 0.193118 -0.642609 0
M  V30 4481 H 442.511 -0.0532952 -2.04431 0
M  V30 4482 H 440.666 2.12284 -3.24059 0
M  V30 4483 H 441.08 1.00053 -5.14868 0
M  V30 4484 H 442.554 2.67996 -4.82578 0
M  V30 4485 H 443.031 3.04142 -3.16851 0
M  V30 4486 H 443.637 1.56542 -3.95443 0
M  V30 4487 N 441.952 1.55251 0.271103 0
M  V30 4488 C 442.899 1.88261 1.33516 0
M  V30 4489 C 443.869 0.734296 1.48988 0
M  V30 4490 O 445.054 0.985741 1.63364 0
M  V30 4491 C 442.194 2.16168 2.69008 0
M  V30 4492 C 441.307 3.43678 2.61743 0
M  V30 4493 C 440.442 3.61276 3.89427 0
M  V30 4494 C 439.481 4.82472 3.7668 0
M  V30 4495 N 438.618 4.96717 4.96202 0
M  V30 4496 H 443.458 2.79015 1.04665 0
M  V30 4497 H 440.995 1.38137 0.505618 0
M  V30 4498 H 442.953 2.30349 3.47844 0
M  V30 4499 H 441.583 1.28646 2.96057 0
M  V30 4500 H 440.635 3.37959 1.74607 0
M  V30 4501 H 441.947 4.3265 2.48224 0
M  V30 4502 H 441.101 3.75284 4.76704 0
M  V30 4503 H 439.84 2.70492 4.05814 0
M  V30 4504 H 438.845 4.68465 2.87786 0
M  V30 4505 H 440.07 5.74692 3.61809 0
M  V30 4506 H 438.016 4.08865 5.12997 0
M  V30 4507 H 437.933 5.79738 4.85222 0
M  V30 4508 H 439.201 5.15113 5.85046 0
M  V30 4509 N 443.43 -0.535701 1.48216 0
M  V30 4510 C 444.841 -1.11769 1.49548 0
M  V30 4511 C 445.192 -1.94442 0.26207 0
M  V30 4512 O 444.317 -2.06987 -0.631287 0
M  V30 4513 C 444.912 -2.03367 2.70975 0
M  V30 4514 C 443.471 -2.56795 2.75196 0
M  V30 4515 C 442.618 -1.33631 2.42977 0
M  V30 4516 H 445.569 -0.321232 1.55415 0
M  V30 4517 H 445.59 -2.87569 2.49167 0
M  V30 4518 H 445.102 -1.43169 3.60727 0
M  V30 4519 H 443.203 -3.20731 1.89638 0
M  V30 4520 H 443.316 -2.9632 3.76472 0
M  V30 4521 H 441.68 -1.6502 1.94012 0
M  V30 4522 H 442.463 -0.75194 3.34964 0
M  V30 4523 N 444.908 -1.36708 -0.784132 0
M  V30 4524 C 446.324 -1.17237 -1.08294 0
M  V30 4525 C 446.524 -5.93947e-05 -2.015 0
M  V30 4526 O 445.58 0.663686 -2.43622 0
M  V30 4527 C 446.893 -2.48557 -1.69233 0
M  V30 4528 C 448.441 -2.54968 -1.8155 0
M  V30 4529 C 448.916 -3.86388 -2.45904 0
M  V30 4530 N 450.407 -3.87762 -2.53367 0
M  V30 4531 C 451.142 -4.86191 -3.03983 0
M  V30 4532 N 450.638 -5.95015 -3.54866 0
M  V30 4533 N 452.431 -4.73606 -3.02743 0
M  V30 4534 H 444.582 -2.11758 -0.16501 0
M  V30 4535 H 446.845 -0.93822 -0.135822 0
M  V30 4536 H 446.551 -3.34638 -1.08215 0
M  V30 4537 H 446.425 -2.64748 -2.68679 0
M  V30 4538 H 448.812 -1.69302 -2.41704 0
M  V30 4539 H 448.893 -2.42672 -0.80895 0
M  V30 4540 H 448.537 -4.72462 -1.86392 0
M  V30 4541 H 448.467 -3.95982 -3.4714 0
M  V30 4542 H 450.958 -3.09145 -2.17343 0
M  V30 4543 H 451.271 -6.66086 -3.91854 0
M  V30 4544 H 449.616 -5.98676 -3.53003 0
M  V30 4545 H 452.807 -3.87717 -2.62284 0
M  V30 4546 H 452.98 -5.50473 -3.41881 0
M  V30 4547 N 446.386 1.0089 -1.21074 0
M  V30 4548 C 447.296 2.13039 -0.982425 0
M  V30 4549 C 448.312 1.73881 0.0642161 0
M  V30 4550 O 449.488 2.01012 -0.12496 0
M  V30 4551 C 446.553 3.42377 -0.545803 0
M  V30 4552 C 445.614 3.95731 -1.6642 0
M  V30 4553 C 444.847 5.18896 -1.24832 0
M  V30 4554 O 445.07 5.70273 -0.120265 0
M  V30 4555 O 444.004 5.65597 -2.05873 0
M  V30 4556 H 447.83 2.35175 -1.92163 0
M  V30 4557 H 445.415 1.1142 -0.995285 0
M  V30 4558 H 447.297 4.20244 -0.311912 0
M  V30 4559 H 445.972 3.21639 0.364727 0
M  V30 4560 H 444.879 3.19108 -1.95246 0
M  V30 4561 H 446.212 4.20872 -2.55201 0
M  V30 4562 N 447.864 1.01787 1.20321 0
M  V30 4563 C 448.774 0.598898 2.26827 0
M  V30 4564 C 449.79 -0.36418 1.70146 0
M  V30 4565 O 450.966 -0.224812 2.00141 0
M  V30 4566 C 448.031 -0.0549769 3.46656 0
M  V30 4567 C 447.092 0.954205 4.18561 0
M  V30 4568 C 446.325 0.331439 5.3267 0
M  V30 4569 O 446.548 -0.86851 5.63749 0
M  V30 4570 O 445.482 1.0488 5.92692 0
M  V30 4571 H 449.308 1.48562 2.64883 0
M  V30 4572 H 446.893 0.787434 1.26964 0
M  V30 4573 H 448.775 -0.420102 4.19301 0
M  V30 4574 H 447.45 -0.915876 3.10473 0
M  V30 4575 H 446.357 1.37072 3.48083 0
M  V30 4576 H 447.69 1.78511 4.58688 0
M  V30 4577 N 449.342 -1.36122 0.79427 0
M  V30 4578 C 450.274 -2.28683 0.153903 0
M  V30 4579 C 451.287 -1.49707 -0.639669 0
M  V30 4580 O 452.476 -1.7209 -0.474054 0
M  V30 4581 C 449.576 -3.29202 -0.804921 0
M  V30 4582 C 448.749 -4.37358 -0.060366 0
M  V30 4583 C 447.808 -5.17811 -0.935849 0
M  V30 4584 O 446.834 -5.67853 -0.391309 0
M  V30 4585 N 448.036 -5.34721 -2.25951 0
M  V30 4586 H 450.801 -2.84278 0.949008 0
M  V30 4587 H 448.362 -1.4834 0.648611 0
M  V30 4588 H 450.354 -3.79914 -1.39455 0
M  V30 4589 H 448.924 -2.74212 -1.50088 0
M  V30 4590 H 448.144 -3.87746 0.710382 0
M  V30 4591 H 449.432 -5.06777 0.45324 0
M  V30 4592 H 448.83 -4.95687 -2.72601 0
M  V30 4593 H 447.387 -5.88657 -2.79867 0
M  V30 4594 N 450.82 -0.546701 -1.47814 0
M  V30 4595 C 452.05 -0.0232519 -2.06587 0
M  V30 4596 C 452.458 1.2712 -1.40133 0
M  V30 4597 O 451.801 1.77091 -0.488305 0
M  V30 4598 C 451.863 0.254117 -3.58601 0
M  V30 4599 C 451.527 -0.949331 -4.47031 0
M  V30 4600 C 452.524 -1.85216 -4.85789 0
M  V30 4601 C 450.209 -1.16104 -4.88697 0
M  V30 4602 C 452.203 -2.95047 -5.65001 0
M  V30 4603 C 449.89 -2.26247 -5.67676 0
M  V30 4604 C 450.888 -3.1555 -6.05737 0
M  V30 4605 O 450.576 -4.23784 -6.83127 0
M  V30 4606 H 450.308 -0.0380082 -0.674931 0
M  V30 4607 H 452.862 -0.756631 -1.90956 0
M  V30 4608 H 451.092 1.04168 -3.72406 0
M  V30 4609 H 452.781 0.72167 -3.99433 0
M  V30 4610 H 453.547 -1.70061 -4.54207 0
M  V30 4611 H 449.426 -0.475159 -4.58545 0
M  V30 4612 H 452.97 -3.64778 -5.94628 0
M  V30 4613 H 448.867 -2.41379 -5.98671 0
M  V30 4614 H 449.635 -4.21701 -7.01506 0
M  V30 4615 N 452.299 1.55045 -0.282633 0
M  V30 4616 C 453.247 2.24254 0.617478 0
M  V30 4617 C 454.241 1.24215 1.15183 0
M  V30 4618 O 455.447 1.42123 1.10459 0
M  V30 4619 H 451.822 0.719801 0.217693 0
M  V30 4620 H 453.793 2.98398 0.0110076 0
M  V30 4621 C 452.542 2.98281 1.78672 0
M  V30 4622 H 451.865 3.75053 1.38475 0
M  V30 4623 H 453.305 3.50017 2.393 0
M  V30 4624 C 451.764 2.04184 2.67975 0
M  V30 4625 O 452.294 1.59792 3.6855 0
M  V30 4626 N 450.5 1.70526 2.35307 0
M  V30 4627 H 450.047 2.06821 1.53567 0
M  V30 4628 H 450.005 1.07839 2.95327 0
M  V30 4629 N 453.777 0.010035 1.57597 0
M  V30 4630 C 455.002 -0.687021 1.95691 0
M  V30 4631 C 455.427 -1.65952 0.885519 0
M  V30 4632 O 454.785 -1.80633 -0.15543 0
M  V30 4633 C 454.833 -1.3864 3.32884 0
M  V30 4634 O 453.937 -2.50115 3.27897 0
M  V30 4635 H 453.278 -0.181989 0.638573 0
M  V30 4636 H 455.808 0.0662122 2.04493 0
M  V30 4637 H 455.818 -1.74754 3.6868 0
M  V30 4638 H 454.493 -0.673411 4.10412 0
M  V30 4639 H 453.07 -2.16253 3.03791 0
M  V30 4640 N 455.255 -1.55392 -0.262866 0
M  V30 4641 C 456.483 -1.80513 -1.01108 0
M  V30 4642 C 456.898 -0.583533 -1.79556 0
M  V30 4643 O 456.255 0.447585 -1.76926 0
M  V30 4644 C 456.306 -3.03648 -1.96164 0
M  V30 4645 O 456.027 -4.2109 -1.20893 0
M  V30 4646 C 457.528 -3.41448 -2.82715 0
M  V30 4647 H 454.748 -0.601079 -0.298236 0
M  V30 4648 H 457.292 -2.02425 -0.290582 0
M  V30 4649 H 455.447 -2.83832 -2.63663 0
M  V30 4650 H 455.861 -4.90771 -1.85051 0
M  V30 4651 H 457.335 -4.30751 -3.45192 0
M  V30 4652 H 457.812 -2.61308 -3.53008 0
M  V30 4653 H 458.418 -3.63559 -2.20693 0
M  V30 4654 N 456.733 0.527833 -1.48498 0
M  V30 4655 C 457.963 1.30633 -1.60058 0
M  V30 4656 C 458.371 1.87394 -0.260786 0
M  V30 4657 O 457.714 1.67227 0.760317 0
M  V30 4658 C 457.776 2.49361 -2.58958 0
M  V30 4659 C 457.44 2.13671 -4.03972 0
M  V30 4660 C 458.437 1.69217 -4.91591 0
M  V30 4661 C 456.122 2.24129 -4.49524 0
M  V30 4662 C 458.116 1.35689 -6.2279 0
M  V30 4663 C 455.803 1.90212 -5.80743 0
M  V30 4664 C 456.801 1.46063 -6.67199 0
M  V30 4665 O 456.489 1.12593 -7.95976 0
M  V30 4666 H 456.221 0.403444 -0.54241 0
M  V30 4667 H 458.775 0.643233 -1.95068 0
M  V30 4668 H 457.005 3.18659 -2.19073 0
M  V30 4669 H 458.694 3.11421 -2.6033 0
M  V30 4670 H 459.46 1.60607 -4.57636 0
M  V30 4671 H 455.339 2.57447 -3.82416 0
M  V30 4672 H 458.883 1.01157 -6.90227 0
M  V30 4673 H 454.78 1.98464 -6.14233 0
M  V30 4674 H 455.548 1.25972 -8.08748 0
M  V30 4675 N 458.211 1.37122 0.776871 0
M  V30 4676 C 459.627 1.1781 1.07671 0
M  V30 4677 C 459.827 0.0107454 2.01497 0
M  V30 4678 O 458.883 -0.650756 2.4397 0
M  V30 4679 C 460.196 2.49451 1.67913 0
M  V30 4680 C 461.744 2.55927 1.80195 0
M  V30 4681 C 462.219 3.87686 2.43851 0
M  V30 4682 N 463.71 3.891 2.51307 0
M  V30 4683 C 464.445 4.87797 3.014 0
M  V30 4684 N 463.941 5.96888 3.51705 0
M  V30 4685 N 465.734 4.75205 3.00227 0
M  V30 4686 H 457.885 2.11843 0.153778 0
M  V30 4687 H 460.148 0.938927 0.130844 0
M  V30 4688 H 459.854 3.35207 1.06439 0
M  V30 4689 H 459.728 2.66169 2.67271 0
M  V30 4690 H 462.115 1.70582 2.40803 0
M  V30 4691 H 462.196 2.43097 0.796069 0
M  V30 4692 H 461.84 4.73444 1.83884 0
M  V30 4693 H 461.77 3.97817 3.45035 0
M  V30 4694 H 464.261 3.10293 2.157 0
M  V30 4695 H 464.574 6.68155 3.88316 0
M  V30 4696 H 462.919 6.0054 3.49824 0
M  V30 4697 H 466.11 3.89103 2.60224 0
M  V30 4698 H 466.283 5.52279 3.38957 0
M  V30 4699 N 459.689 -1.00246 1.21608 0
M  V30 4700 C 460.935 -1.74319 1.03638 0
M  V30 4701 C 461.268 -1.89408 -0.428749 0
M  V30 4702 O 460.543 -1.43026 -1.3181 0
M  V30 4703 C 460.826 -3.15431 1.73711 0
M  V30 4704 C 460.679 -3.08049 3.27759 0
M  V30 4705 C 461.998 -4.14407 1.48173 0
M  V30 4706 H 459.117 -0.632741 0.377899 0
M  V30 4707 H 461.759 -1.16853 1.49818 0
M  V30 4708 H 459.909 -3.64493 1.34452 0
M  V30 4709 H 461.581 -2.66681 3.76403 0
M  V30 4710 H 459.824 -2.45088 3.57931 0
M  V30 4711 H 460.495 -4.07862 3.71958 0
M  V30 4712 H 462.971 -3.74061 1.82258 0
M  V30 4713 H 461.847 -5.11279 1.99713 0
M  V30 4714 H 462.108 -4.40174 0.412273 0
M  V30 4715 N 461.167 -1.02423 -1.1978 0
M  V30 4716 C 462.413 -0.719051 -1.89625 0
M  V30 4717 C 462.746 0.750083 -1.7913 0
M  V30 4718 O 462.021 1.54574 -1.18056 0
M  V30 4719 C 462.304 -1.16499 -3.40735 0
M  V30 4720 C 462.157 -2.695 -3.60125 0
M  V30 4721 C 463.476 -0.742166 -4.33797 0
M  V30 4722 H 460.595 -0.26269 -0.688595 0
M  V30 4723 H 463.237 -1.27333 -1.41018 0
M  V30 4724 H 461.387 -0.69341 -3.82262 0
M  V30 4725 H 463.059 -3.24569 -3.278 0
M  V30 4726 H 461.302 -3.10113 -3.03336 0
M  V30 4727 H 461.973 -2.95757 -4.66081 0
M  V30 4728 H 464.449 -1.1477 -3.99959 0
M  V30 4729 H 463.325 -1.08213 -5.38127 0
M  V30 4730 H 463.586 0.355747 -4.40666 0
M  V30 4731 N 462.645 1.35699 -0.801477 0
M  V30 4732 C 463.87 2.03687 -0.390678 0
M  V30 4733 C 464.295 1.60015 0.988778 0
M  V30 4734 O 463.653 0.774357 1.63931 0
M  V30 4735 C 463.701 3.57439 -0.476404 0
M  V30 4736 O 462.805 4.09208 0.512106 0
M  V30 4737 H 462.146 0.64344 -0.163956 0
M  V30 4738 H 464.676 1.73403 -1.08594 0
M  V30 4739 H 464.686 4.06544 -0.344357 0
M  V30 4740 H 463.361 3.88576 -1.48262 0
M  V30 4741 H 461.938 3.7134 0.340721 0
M  V30 4742 N 464.123 0.554532 1.47522 0
M  V30 4743 C 465.369 0.0295227 2.02779 0
M  V30 4744 C 465.702 -1.31582 1.42828 0
M  V30 4745 O 464.977 -1.85561 0.582872 0
M  V30 4746 C 465.26 -0.0664057 3.60039 0
M  V30 4747 C 465.113 1.30585 4.30427 0
M  V30 4748 C 466.432 -0.781162 4.33112 0
M  V30 4749 H 463.551 0.0122027 0.736899 0
M  V30 4750 H 466.193 0.716305 1.7598 0
M  V30 4751 H 464.343 -0.651307 3.83002 0
M  V30 4752 H 466.015 1.93374 4.18813 0
M  V30 4753 H 464.258 1.88125 3.90886 0
M  V30 4754 H 464.929 1.19147 5.38988 0
M  V30 4755 H 467.405 -0.284565 4.15126 0
M  V30 4756 H 466.281 -0.817237 5.42782 0
M  V30 4757 H 466.542 -1.83672 4.0214 0
M  V30 4758 N 465.601 -1.54893 0.290851 0
M  V30 4759 C 466.531 -2.26103 -0.583084 0
M  V30 4760 C 467.512 -1.25684 -1.14619 0
M  V30 4761 O 468.697 -1.54436 -1.17741 0
M  V30 4762 C 465.827 -2.99409 -1.75987 0
M  V30 4763 C 464.781 -4.0689 -1.32758 0
M  V30 4764 C 464.107 -4.67856 -2.58872 0
M  V30 4765 C 465.407 -5.20215 -0.46624 0
M  V30 4766 H 467.101 -2.99398 0.0108214 0
M  V30 4767 H 464.647 -1.43998 0.00664468 0
M  V30 4768 H 466.6 -3.47943 -2.37727 0
M  V30 4769 H 465.324 -2.23675 -2.37985 0
M  V30 4770 H 463.983 -3.59191 -0.733299 0
M  V30 4771 H 463.631 -3.88772 -3.19163 0
M  V30 4772 H 463.331 -5.40438 -2.30653 0
M  V30 4773 H 464.855 -5.19147 -3.21433 0
M  V30 4774 H 466.269 -5.64704 -0.989047 0
M  V30 4775 H 464.666 -5.99455 -0.27826 0
M  V30 4776 H 465.736 -4.82198 0.511173 0
M  V30 4777 N 467.08 -0.0183926 -1.57589 0
M  V30 4778 C 468.308 0.673046 -1.95647 0
M  V30 4779 C 468.723 1.66275 -0.894312 0
M  V30 4780 O 468.08 1.82072 0.124975 0
M  V30 4781 C 468.131 1.38884 -3.33756 0
M  V30 4782 O 467.852 0.438806 -4.35897 0
M  V30 4783 C 469.353 2.1731 -3.86383 0
M  V30 4784 H 466.573 0.186292 -0.644621 0
M  V30 4785 H 469.117 -0.0749748 -2.04363 0
M  V30 4786 H 467.272 2.08835 -3.26293 0
M  V30 4787 H 467.686 0.945869 -5.15901 0
M  V30 4788 H 469.16 2.62863 -4.85394 0
M  V30 4789 H 469.637 3.00764 -3.20059 0
M  V30 4790 H 470.243 1.52339 -3.97081 0
M  V30 4791 N 468.558 1.5553 0.254621 0
M  V30 4792 C 469.804 1.77262 0.985193 0
M  V30 4793 C 470.137 0.582286 1.85265 0
M  V30 4794 O 469.412 -0.419666 1.89919 0
M  V30 4795 C 469.695 3.0881 1.85225 0
M  V30 4796 C 469.548 4.38233 1.0135 0
M  V30 4797 C 470.867 3.3653 2.83612 0
M  V30 4798 H 467.986 0.644906 0.356742 0
M  V30 4799 H 470.628 1.88264 0.256236 0
M  V30 4800 H 468.778 2.99562 2.47376 0
M  V30 4801 H 470.45 4.59463 0.411269 0
M  V30 4802 H 468.693 4.32636 0.317574 0
M  V30 4803 H 469.364 5.26644 1.65379 0
M  V30 4804 H 471.84 3.45691 2.31596 0
M  V30 4805 H 470.716 4.29805 3.41407 0
M  V30 4806 H 470.977 2.57064 3.59681 0
M  V30 4807 N 470.036 -0.519951 1.48776 0
M  V30 4808 C 470.966 -1.63253 1.66945 0
M  V30 4809 C 471.947 -1.62014 0.518224 0
M  V30 4810 O 473.132 -1.79053 0.751919 0
M  V30 4811 C 470.262 -3.0181 1.71836 0
M  V30 4812 C 469.216 -3.17911 2.8656 0
M  V30 4813 C 468.542 -4.5763 2.76548 0
M  V30 4814 C 469.842 -2.99729 4.27738 0
M  V30 4815 H 471.536 -1.48302 2.6009 0
M  V30 4816 H 469.082 -0.712026 1.25165 0
M  V30 4817 H 471.035 -3.79525 1.83135 0
M  V30 4818 H 469.759 -3.17806 0.752775 0
M  V30 4819 H 468.418 -2.42616 2.74833 0
M  V30 4820 H 468.066 -4.70476 1.77937 0
M  V30 4821 H 467.766 -4.69346 3.53536 0
M  V30 4822 H 469.29 -5.37431 2.89828 0
M  V30 4823 H 470.704 -3.67228 4.40246 0
M  V30 4824 H 469.101 -3.22932 5.05801 0
M  V30 4825 H 470.171 -1.96047 4.43502 0
M  V30 4826 N 471.514 -1.37532 -0.769588 0
M  V30 4827 C 472.464 -1.29984 -1.87318 0
M  V30 4828 C 473.448 -0.187242 -1.59807 0
M  V30 4829 O 474.64 -0.421827 -1.719 0
M  V30 4830 C 471.769 -1.11126 -3.24817 0
M  V30 4831 C 470.855 -2.26939 -3.58273 0
M  V30 4832 N 471.246 -3.52336 -3.62895 0
M  V30 4833 C 469.544 -2.19141 -3.8845 0
M  V30 4834 C 470.245 -4.28719 -3.9316 0
M  V30 4835 N 469.221 -3.57884 -4.0917 0
M  V30 4836 H 473.023 -2.24946 -1.89147 0
M  V30 4837 H 470.537 -1.30535 -0.966143 0
M  V30 4838 H 472.534 -1.03803 -4.0377 0
M  V30 4839 H 471.194 -0.17083 -3.2425 0
M  V30 4840 H 472.205 -3.86216 -3.45048 0
M  V30 4841 H 468.882 -1.33167 -3.95693 0
M  V30 4842 H 470.272 -5.37254 -4.03494 0
M  V30 4843 N 472.992 0.995999 -1.22138 0
M  V30 4844 C 473.924 2.08745 -0.946485 0
M  V30 4845 C 474.937 1.62633 0.0737356 0
M  V30 4846 O 476.126 1.77782 -0.159886 0
M  V30 4847 C 473.226 3.36516 -0.401305 0
M  V30 4848 C 472.399 4.11672 -1.47801 0
M  V30 4849 C 471.458 5.17728 -0.940461 0
M  V30 4850 O 470.484 5.45482 -1.62596 0
M  V30 4851 N 471.686 5.80005 0.239723 0
M  V30 4852 H 474.451 2.32908 -1.88611 0
M  V30 4853 H 472.012 1.16152 -1.12785 0
M  V30 4854 H 474.004 4.04691 -0.0270837 0
M  V30 4855 H 472.574 3.0944 0.443354 0
M  V30 4856 H 471.794 3.38171 -2.02568 0
M  V30 4857 H 473.082 4.58657 -2.20253 0
M  V30 4858 H 472.48 5.5982 0.813518 0
M  V30 4859 H 471.037 6.4943 0.555361 0
M  V30 4860 N 474.47 1.03057 1.19235 0
M  V30 4861 C 475.747 0.642608 1.84743 0
M  V30 4862 C 476.127 -0.878577 1.91948 0
M  V30 4863 O 475.475 -1.77597 1.43776 0
M  V30 4864 C 475.685 1.30665 3.23616 0
M  V30 4865 C 477.033 1.43098 3.9976 0
M  V30 4866 O 478.057 1.26396 3.3302 0
M  V30 4867 O 476.916 1.70223 5.19313 0
M  V30 4868 H 474.01 0.223573 0.796206 0
M  V30 4869 H 476.556 1.12883 1.26711 0
M  V30 4870 H 475.328 2.34544 3.13217 0
M  V30 4871 H 474.951 0.808405 3.89295 0
M  V30 4872 N 475.948 -1.35272 0.808662 0
M  V30 4873 C 477.194 -1.99434 0.399717 0
M  V30 4874 C 477.549 -1.62992 -1.02232 0
M  V30 4875 O 476.842 -0.884091 -1.69983 0
M  V30 4876 C 477.036 -3.53556 0.522798 0
M  V30 4877 C 476.865 -4.04969 1.95525 0
M  V30 4878 C 475.635 -4.34228 2.58407 0
M  V30 4879 C 477.833 -4.23362 2.92009 0
M  V30 4880 N 475.815 -4.71585 3.93041 0
M  V30 4881 C 477.186 -4.63739 4.11517 0
M  V30 4882 C 479.241 -4.05576 2.88813 0
M  V30 4883 C 477.944 -4.88189 5.28265 0
M  V30 4884 C 479.97 -4.31184 4.04765 0
M  V30 4885 C 479.332 -4.71834 5.23022 0
M  V30 4886 H 475.431 -0.757534 0.19408 0
M  V30 4887 H 478.015 -1.63939 1.05034 0
M  V30 4888 H 476.186 -3.88277 -0.0978471 0
M  V30 4889 H 477.918 -4.04604 0.0882378 0
M  V30 4890 H 474.673 -4.24621 2.09747 0
M  V30 4891 H 475.097 -4.9452 4.62363 0
M  V30 4892 H 479.739 -3.73288 1.98535 0
M  V30 4893 H 477.457 -5.1935 6.19113 0
M  V30 4894 H 481.043 -4.18972 4.03675 0
M  V30 4895 H 479.923 -4.91263 6.11253 0
M  V30 4896 N 477.426 -0.562348 -1.47226 0
M  V30 4897 C 478.356 0.170627 -2.32876 0
M  V30 4898 C 479.337 0.903748 -1.44106 0
M  V30 4899 O 480.522 0.883206 -1.72954 0
M  V30 4900 C 477.652 1.19786 -3.25989 0
M  V30 4901 C 476.606 0.580875 -4.2404 0
M  V30 4902 C 475.932 1.71311 -5.06514 0
M  V30 4903 C 477.232 -0.468714 -5.20193 0
M  V30 4904 H 478.926 -0.544441 -2.94408 0
M  V30 4905 H 476.472 -0.263271 -1.41573 0
M  V30 4906 H 478.425 1.71884 -3.84752 0
M  V30 4907 H 477.149 1.94294 -2.62521 0
M  V30 4908 H 475.808 0.0811538 -3.6651 0
M  V30 4909 H 475.456 2.44736 -4.39447 0
M  V30 4910 H 475.156 1.30604 -5.72902 0
M  V30 4911 H 476.68 2.23725 -5.68137 0
M  V30 4912 H 478.094 -0.0336028 -5.7329 0
M  V30 4913 H 476.491 -0.794957 -5.94811 0
M  V30 4914 H 477.561 -1.36269 -4.65359 0
M  V30 4915 N 478.904 1.54736 -0.299062 0
M  V30 4916 C 479.852 2.24897 0.593658 0
M  V30 4917 C 480.846 1.25429 1.13859 0
M  V30 4918 O 482.052 1.43286 1.08945 0
M  V30 4919 H 478.427 0.72207 0.210046 0
M  V30 4920 H 480.398 2.98393 -0.0206421 0
M  V30 4921 C 479.147 3.00159 1.75499 0
M  V30 4922 H 478.47 3.76501 1.34489 0
M  V30 4923 H 479.91 3.52535 2.35574 0
M  V30 4924 C 478.369 2.07015 2.65794 0
M  V30 4925 O 478.899 1.63692 3.66835 0
M  V30 4926 N 477.105 1.73012 2.33485 0
M  V30 4927 H 476.652 2.08439 1.51364 0
M  V30 4928 H 476.61 1.10965 2.94167 0
M  V30 4929 N 480.382 0.0267497 1.57577 0
M  V30 4930 C 481.63 -0.651116 1.91324 0
M  V30 4931 C 481.951 -1.72804 0.90353 0
M  V30 4932 O 481.221 -1.95822 -0.0552946 0
M  V30 4933 H 479.801 -0.243491 0.706202 0
M  V30 4934 H 482.463 0.0739935 1.94759 0
M  V30 4935 H 481.559 -1.10536 2.9187 0
M  V30 4936 N 481.861 -1.55662 -0.24637 0
M  V30 4937 C 482.808 -1.90361 -1.30504 0
M  V30 4938 C 483.778 -0.757905 -1.47801 0
M  V30 4939 O 484.963 -1.01161 -1.61775 0
M  V30 4940 C 482.103 -2.2042 -2.65535 0
M  V30 4941 C 481.216 -3.47799 -2.56242 0
M  V30 4942 C 480.351 -3.67426 -3.8363 0
M  V30 4943 C 479.39 -4.88403 -3.68956 0
M  V30 4944 N 478.527 -5.04548 -4.88237 0
M  V30 4945 H 483.367 -2.80645 -1.00213 0
M  V30 4946 H 480.904 -1.38924 -0.483577 0
M  V30 4947 H 482.862 -2.35853 -3.44135 0
M  V30 4948 H 481.492 -1.3334 -2.93973 0
M  V30 4949 H 480.544 -3.40694 -1.69208 0
M  V30 4950 H 481.856 -4.36544 -2.4131 0
M  V30 4951 H 481.01 -3.82821 -4.70673 0
M  V30 4952 H 479.749 -2.76914 -4.01459 0
M  V30 4953 H 478.754 -4.72984 -2.80296 0
M  V30 4954 H 479.979 -5.80375 -3.52621 0
M  V30 4955 H 477.925 -4.16974 -5.06427 0
M  V30 4956 H 477.842 -5.87384 -4.75937 0
M  V30 4957 H 479.11 -5.24355 -5.76777 0
M  V30 4958 N 483.339 0.512053 -1.4905 0
M  V30 4959 C 484.249 1.64139 -1.67617 0
M  V30 4960 C 485.265 1.64786 -0.558701 0
M  V30 4961 O 486.441 1.8341 -0.832034 0
M  V30 4962 C 483.506 3.00548 -1.72835 0
M  V30 4963 C 482.567 3.10615 -2.96339 0
M  V30 4964 C 481.8 4.40517 -3.01298 0
M  V30 4965 O 482.023 5.28671 -2.14157 0
M  V30 4966 O 480.957 4.55325 -3.93653 0
M  V30 4967 H 484.783 1.51407 -2.63267 0
M  V30 4968 H 482.368 0.687131 -1.32661 0
M  V30 4969 H 484.25 3.81641 -1.78683 0
M  V30 4970 H 482.925 3.13566 -0.803616 0
M  V30 4971 H 481.832 2.2875 -2.96014 0
M  V30 4972 H 483.165 3.0252 -3.88256 0
M  V30 4973 N 484.817 1.37938 0.762283 0
M  V30 4974 C 486.047 1.36685 1.54922 0
M  V30 4975 C 486.455 -0.0474099 1.89141 0
M  V30 4976 O 485.798 -1.02213 1.52638 0
M  V30 4977 C 485.86 2.14963 2.88152 0
M  V30 4978 C 485.524 3.6385 2.76518 0
M  V30 4979 C 486.521 4.57531 2.46904 0
M  V30 4980 C 484.206 4.07095 2.94243 0
M  V30 4981 C 486.2 5.92436 2.35156 0
M  V30 4982 C 483.887 5.42083 2.82116 0
M  V30 4983 C 484.885 6.34567 2.52614 0
M  V30 4984 O 484.573 7.67073 2.40529 0
M  V30 4985 H 484.305 0.469586 0.486276 0
M  V30 4986 H 486.859 1.82012 0.951876 0
M  V30 4987 H 485.089 1.6434 3.50042 0
M  V30 4988 H 486.778 2.06224 3.49609 0
M  V30 4989 H 487.544 4.25428 2.32886 0
M  V30 4990 H 483.423 3.35462 3.16206 0
M  V30 4991 H 486.967 6.64591 2.12049 0
M  V30 4992 H 482.864 5.73785 2.95704 0
M  V30 4993 H 483.632 7.77499 2.55807 0
M  V30 4994 N 486.295 -0.989507 1.22664 0
M  V30 4995 C 487.242 -2.08024 0.999733 0
M  V30 4996 C 488.212 -1.65909 -0.0797047 0
M  V30 4997 O 489.397 -1.90669 0.0705715 0
M  V30 4998 C 486.537 -3.40067 0.587234 0
M  V30 4999 C 485.65 -3.95505 1.73781 0
M  V30 5000 C 484.785 -5.15722 1.27297 0
M  V30 5001 C 483.824 -5.63305 2.39488 0
M  V30 5002 N 482.961 -6.74758 1.94026 0
M  V30 5003 H 487.801 -2.26768 1.9334 0
M  V30 5004 H 485.338 -1.11171 0.963297 0
M  V30 5005 H 487.296 -4.15899 0.329227 0
M  V30 5006 H 485.926 -3.21314 -0.309426 0
M  V30 5007 H 484.978 -3.16513 2.11006 0
M  V30 5008 H 486.29 -4.26797 2.58158 0
M  V30 5009 H 485.444 -5.98854 0.972546 0
M  V30 5010 H 484.183 -4.86061 0.399445 0
M  V30 5011 H 483.188 -4.78759 2.70315 0
M  V30 5012 H 484.413 -5.94988 3.27362 0
M  V30 5013 H 482.359 -6.46874 1.09041 0
M  V30 5014 H 482.276 -7.05386 2.71968 0
M  V30 5015 H 483.544 -7.61387 1.67062 0
M  V30 5016 N 487.773 -1.03688 -1.18687 0
M  V30 5017 C 489.013 -0.746858 -1.90267 0
M  V30 5018 C 489.377 0.712075 -1.78307 0
M  V30 5019 O 490.578 1.11553 -2.44559 0
M  V30 5020 C 488.849 -1.19543 -3.36815 0
M  V30 5021 S 490.408 -1.03047 -4.26529 0
M  V30 5022 H 487.226 -0.271663 -0.657054 0
M  V30 5023 H 489.828 -1.32838 -1.43437 0
M  V30 5024 H 488.532 -2.2527 -3.43047 0
M  V30 5025 H 488.063 -0.607533 -3.88681 0
M  V30 5026 H 490.078 0.0543232 -4.9617 0
M  V30 5027 N 489.251 1.34841 -0.815825 0
M  V30 5028 C 490.198 2.29644 -0.230664 0
M  V30 5029 C 491.168 1.53253 0.640533 0
M  V30 5030 O 492.353 1.81653 0.583672 0
M  V30 5031 C 489.493 3.39715 0.607275 0
M  V30 5032 C 488.606 4.31056 -0.28538 0
M  V30 5033 C 487.741 5.28225 0.561446 0
M  V30 5034 C 486.78 6.11204 -0.331035 0
M  V30 5035 N 485.917 7.00483 0.476302 0
M  V30 5036 H 490.757 2.79095 -1.0445 0
M  V30 5037 H 488.294 1.37351 -0.526595 0
M  V30 5038 H 490.252 4.02208 1.10835 0
M  V30 5039 H 488.882 2.91517 1.38629 0
M  V30 5040 H 487.934 3.69487 -0.904621 0
M  V30 5041 H 489.246 4.89239 -0.97193 0
M  V30 5042 H 488.4 5.96135 1.12728 0
M  V30 5043 H 487.139 4.70562 1.28153 0
M  V30 5044 H 486.144 5.42232 -0.909069 0
M  V30 5045 H 487.369 6.70947 -1.04912 0
M  V30 5046 H 485.315 6.45296 1.18019 0
M  V30 5047 H 485.232 7.55847 -0.152008 0
M  V30 5048 H 486.5 7.7273 1.02512 0
M  V30 5049 N 490.729 0.570148 1.46925 0
M  V30 5050 C 491.975 0.0510284 2.02736 0
M  V30 5051 C 492.308 -1.3006 1.44215 0
M  V30 5052 O 491.583 -1.84932 0.602521 0
M  V30 5053 C 491.866 -0.028215 3.60089 0
M  V30 5054 C 491.719 1.35142 4.29018 0
M  V30 5055 C 493.038 -0.735181 4.33916 0
M  V30 5056 H 490.157 0.0200178 0.736728 0
M  V30 5057 H 492.799 0.73493 1.75211 0
M  V30 5058 H 490.949 -0.610648 3.83671 0
M  V30 5059 H 492.621 1.97806 4.16738 0
M  V30 5060 H 490.864 1.9226 3.88868 0
M  V30 5061 H 491.535 1.24857 5.37694 0
M  V30 5062 H 494.011 -0.240519 4.15404 0
M  V30 5063 H 492.887 -0.759622 5.43618 0
M  V30 5064 H 493.148 -1.79397 4.04066 0
M  V30 5065 N 492.207 -1.54576 0.307264 0
M  V30 5066 C 493.432 -2.05139 -0.305379 0
M  V30 5067 C 493.857 -1.18278 -1.46259 0
M  V30 5068 O 493.215 -0.188243 -1.8032 0
M  V30 5069 C 493.263 -3.53066 -0.733283 0
M  V30 5070 O 492.367 -3.69206 -1.83741 0
M  V30 5071 H 491.708 -0.661444 -0.0582105 0
M  V30 5072 H 494.238 -1.99569 0.450931 0
M  V30 5073 H 494.248 -3.95034 -1.02039 0
M  V30 5074 H 492.923 -4.15746 0.113198 0
M  V30 5075 H 491.5 -3.39143 -1.55037 0
M  V30 5076 N 493.685 -0.035106 -1.57561 0
M  V30 5077 C 494.633 0.962707 -2.11742 0
M  V30 5078 C 495.627 1.33296 -1.0454 0
M  V30 5079 O 496.833 1.31449 -1.22968 0
M  V30 5080 H 493.208 0.32826 -0.676572 0
M  V30 5081 H 495.179 0.48048 -2.94506 0
M  V30 5082 C 493.928 2.23388 -2.66445 0
M  V30 5083 H 493.251 1.95774 -3.48587 0
M  V30 5084 H 494.691 2.91402 -3.07995 0
M  V30 5085 C 493.15 2.96769 -1.59467 0
M  V30 5086 O 493.68 3.89105 -0.998 0
M  V30 5087 N 491.886 2.59212 -1.31369 0
M  V30 5088 H 491.433 1.84202 -1.80076 0
M  V30 5089 H 491.391 3.08618 -0.600173 0
M  V30 5090 N 495.163 1.55791 0.238111 0
M  V30 5091 C 496.11 1.9105 1.29493 0
M  V30 5092 C 497.08 0.765733 1.47397 0
M  V30 5093 O 498.265 1.02017 1.61236 0
M  V30 5094 C 495.405 2.21826 2.64362 0
M  V30 5095 C 494.518 3.49153 2.54394 0
M  V30 5096 C 493.653 3.69455 3.81676 0
M  V30 5097 C 492.692 4.90353 3.66361 0
M  V30 5098 N 491.829 5.07131 4.85554 0
M  V30 5099 H 496.669 2.81172 0.987233 0
M  V30 5100 H 494.206 1.39179 0.476203 0
M  V30 5101 H 496.164 2.37675 3.4288 0
M  V30 5102 H 494.794 1.34897 2.93262 0
M  V30 5103 H 493.846 3.41587 1.67399 0
M  V30 5104 H 495.158 4.37818 2.38991 0
M  V30 5105 H 494.312 3.85311 4.68636 0
M  V30 5106 H 493.051 2.7904 3.99985 0
M  V30 5107 H 492.056 4.74464 2.77784 0
M  V30 5108 H 493.281 5.82237 3.49538 0
M  V30 5109 H 491.227 4.19654 5.04209 0
M  V30 5110 H 491.144 5.89899 4.72816 0
M  V30 5111 H 492.412 5.27407 5.73988 0
M  V30 5112 N 496.642 -0.504142 1.49319 0
M  V30 5113 C 497.605 -1.5883 1.65244 0
M  V30 5114 C 498.605 -1.52009 0.524386 0
M  V30 5115 O 499.795 -1.55218 0.79077 0
M  V30 5116 C 496.927 -2.98481 1.64687 0
M  V30 5117 H 498.12 -1.4604 2.61939 0
M  V30 5118 H 495.673 -0.728144 1.38303 0
M  V30 5119 H 496.408 -3.16751 0.695644 0
M  V30 5120 H 496.193 -3.0484 2.46607 0
M  V30 5121 H 497.683 -3.77256 1.79075 0
M  V30 5122 N 498.12 -1.38341 -0.754957 0
M  V30 5123 C 499.05 -1.38176 -1.88227 0
M  V30 5124 C 500.031 -0.247873 -1.68284 0
M  V30 5125 O 501.216 -0.45075 -1.88896 0
M  V30 5126 C 498.346 -1.20471 -3.25736 0
M  V30 5127 C 497.3 -2.3105 -3.60278 0
M  V30 5128 C 496.626 -1.98452 -4.96509 0
M  V30 5129 C 497.926 -3.73305 -3.65295 0
M  V30 5130 H 499.62 -2.32512 -1.88622 0
M  V30 5131 H 497.166 -1.1192 -0.906082 0
M  V30 5132 H 499.119 -1.18982 -4.04254 0
M  V30 5133 H 497.843 -0.225965 -3.25817 0
M  V30 5134 H 496.502 -2.31723 -2.84078 0
M  V30 5135 H 496.15 -0.990641 -4.93148 0
M  V30 5136 H 495.85 -2.7251 -5.20588 0
M  V30 5137 H 497.374 -1.98578 -5.77407 0
M  V30 5138 H 498.788 -3.7467 -4.3393 0
M  V30 5139 H 497.185 -4.46557 -4.00883 0
M  V30 5140 H 498.255 -4.05719 -2.65556 0
M  V30 5141 N 499.598 0.982988 -1.23187 0
M  V30 5142 C 501.009 1.53847 -1.05773 0
M  V30 5143 C 501.36 1.92568 0.375744 0
M  V30 5144 O 500.485 1.75783 1.26211 0
M  V30 5145 C 501.08 2.79567 -1.91384 0
M  V30 5146 C 499.639 3.31524 -1.78238 0
M  V30 5147 C 498.786 2.04534 -1.87246 0
M  V30 5148 H 501.737 0.802962 -1.36888 0
M  V30 5149 H 501.758 3.52317 -1.43711 0
M  V30 5150 H 501.27 2.51353 -2.95708 0
M  V30 5151 H 499.371 3.64623 -0.766875 0
M  V30 5152 H 499.484 4.01457 -2.61475 0
M  V30 5153 H 497.848 2.1855 -1.30797 0
M  V30 5154 H 498.631 1.78706 -2.9312 0
M  V30 5155 N 501.076 1.04316 1.18135 0
M  V30 5156 C 502.039 0.640794 2.2006 0
M  V30 5157 C 503.039 -0.303124 1.57917 0
M  V30 5158 O 504.229 -0.0881855 1.73977 0
M  V30 5159 C 501.361 -0.060148 3.40847 0
M  V30 5160 H 502.554 1.54281 2.57172 0
M  V30 5161 H 500.107 0.836004 1.32063 0
M  V30 5162 H 500.842 -0.975845 3.0927 0
M  V30 5163 H 500.627 0.618319 3.87194 0
M  V30 5164 H 502.117 -0.328082 4.16309 0
M  V30 5165 N 502.554 -1.34406 0.822964 0
M  V30 5166 C 503.965 -1.8069 0.469879 0
M  V30 5167 C 504.316 -1.68223 -1.00972 0
M  V30 5168 O 503.441 -1.22226 -1.78577 0
M  V30 5169 C 504.036 -3.28064 0.846118 0
M  V30 5170 C 502.595 -3.72428 0.545402 0
M  V30 5171 C 501.742 -2.56116 1.06301 0
M  V30 5172 H 504.693 -1.22153 1.01313 0
M  V30 5173 H 504.714 -3.80205 0.149922 0
M  V30 5174 H 504.226 -3.37107 1.92304 0
M  V30 5175 H 502.327 -3.68924 -0.522109 0
M  V30 5176 H 502.44 -4.66548 1.0895 0
M  V30 5177 H 500.804 -2.50048 0.484554 0
M  V30 5178 H 501.587 -2.67928 2.14638 0
M  V30 5179 N 504.032 -0.577932 -1.46621 0
M  V30 5180 C 505.281 -0.0594281 -2.01612 0
M  V30 5181 C 505.594 1.30663 -1.45556 0
M  V30 5182 O 506.8 1.91621 -1.92337 0
M  V30 5183 C 505.256 -0.0556666 -3.59857 0
M  V30 5184 C 504.864 -1.41975 -4.24908 0
M  V30 5185 C 506.608 0.409143 -4.22524 0
M  V30 5186 C 504.515 -1.37397 -5.75218 0
M  V30 5187 H 503.445 -0.0184469 -0.753774 0
M  V30 5188 H 506.096 -0.728869 -1.68404 0
M  V30 5189 H 504.478 0.679843 -3.90121 0
M  V30 5190 H 505.652 -2.17461 -4.0626 0
M  V30 5191 H 503.967 -1.82419 -3.74316 0
M  V30 5192 H 506.564 0.46211 -5.32699 0
M  V30 5193 H 506.907 1.42565 -3.91128 0
M  V30 5194 H 507.44 -0.272152 -3.96868 0
M  V30 5195 H 504.179 -2.36714 -6.11267 0
M  V30 5196 H 503.699 -0.661239 -5.96144 0
M  V30 5197 H 505.378 -1.08484 -6.3784 0
M  V30 5198 N 505.51 1.54411 -0.315457 0
M  V30 5199 C 506.42 2.27737 0.56329 0
M  V30 5200 C 507.436 1.31787 1.13614 0
M  V30 5201 O 508.612 1.64791 1.15784 0
M  V30 5202 C 505.677 3.01478 1.71207 0
M  V30 5203 C 504.738 4.12997 1.17185 0
M  V30 5204 C 503.971 4.83212 2.26588 0
M  V30 5205 O 504.194 4.52884 3.46775 0
M  V30 5206 O 503.128 5.70299 1.92463 0
M  V30 5207 H 506.954 3.03683 -0.0319614 0
M  V30 5208 H 504.539 1.49178 -0.0814188 0
M  V30 5209 H 506.421 3.47683 2.38106 0
M  V30 5210 H 505.096 2.28414 2.29366 0
M  V30 5211 H 504.003 3.71159 0.468174 0
M  V30 5212 H 505.336 4.8808 0.635501 0
M  V30 5213 N 506.988 0.0434614 1.5754 0
M  V30 5214 C 507.935 -0.93356 2.11077 0
M  V30 5215 C 508.905 -1.31383 1.01626 0
M  V30 5216 O 510.09 -1.40465 1.29129 0
M  V30 5217 C 507.23 -2.20578 2.65404 0
M  V30 5218 C 506.343 -1.88068 3.88914 0
M  V30 5219 C 505.478 -3.09691 4.31584 0
M  V30 5220 C 504.517 -2.73067 5.47815 0
M  V30 5221 N 503.654 -3.87359 5.85574 0
M  V30 5222 H 508.494 -0.470118 2.94268 0
M  V30 5223 H 506.031 -0.220434 1.45439 0
M  V30 5224 H 507.989 -2.95011 2.94999 0
M  V30 5225 H 506.619 -2.64513 1.85021 0
M  V30 5226 H 505.671 -1.03816 3.6596 0
M  V30 5227 H 506.983 -1.57104 4.73413 0
M  V30 5228 H 506.137 -3.92431 4.62691 0
M  V30 5229 H 504.876 -3.43827 3.45882 0
M  V30 5230 H 503.881 -1.88742 5.16388 0
M  V30 5231 H 505.106 -2.40131 6.35227 0
M  V30 5232 H 503.052 -4.21311 5.02825 0
M  V30 5233 H 502.969 -3.60068 6.64746 0
M  V30 5234 H 504.237 -4.70761 6.21292 0
M  V30 5235 N 508.466 -1.55915 -0.229846 0
M  V30 5236 C 509.694 -1.82617 -0.972562 0
M  V30 5237 C 510.109 -0.621488 -1.78278 0
M  V30 5238 O 509.466 0.409956 -1.77836 0
M  V30 5239 C 509.517 -3.0774 -1.89679 0
M  V30 5240 O 509.238 -4.23559 -1.11934 0
M  V30 5241 C 510.739 -3.47368 -2.75409 0
M  V30 5242 H 507.959 -0.60727 -0.285419 0
M  V30 5243 H 510.503 -2.02996 -0.247579 0
M  V30 5244 H 508.658 -2.89361 -2.57583 0
M  V30 5245 H 509.072 -4.94586 -1.74599 0
M  V30 5246 H 510.546 -4.37977 -3.35977 0
M  V30 5247 H 511.023 -2.68737 -3.47386 0
M  V30 5248 H 511.629 -3.68158 -2.12931 0
M  V30 5249 N 509.944 0.496216 -1.49584 0
M  V30 5250 C 511.193 1.24668 -1.58558 0
M  V30 5251 C 511.506 1.9359 -0.279703 0
M  V30 5252 O 512.712 2.70365 -0.248048 0
M  V30 5253 C 511.168 2.26388 -2.79779 0
M  V30 5254 C 510.776 1.63384 -4.17145 0
M  V30 5255 C 512.52 3.02233 -2.98086 0
M  V30 5256 C 510.427 2.63243 -5.29582 0
M  V30 5257 H 509.357 0.468995 -0.590389 0
M  V30 5258 H 512.008 0.519985 -1.75978 0
M  V30 5259 H 510.39 3.02241 -2.55863 0
M  V30 5260 H 511.564 0.93491 -4.51216 0
M  V30 5261 H 509.879 0.999121 -4.04236 0
M  V30 5262 H 512.476 3.76919 -3.79257 0
M  V30 5263 H 512.819 3.60132 -2.08831 0
M  V30 5264 H 513.352 2.33495 -3.22063 0
M  V30 5265 H 510.091 2.10119 -6.20911 0
M  V30 5266 H 509.611 3.31363 -4.99959 0
M  V30 5267 H 511.29 3.25575 -5.59115 0
M  V30 5268 N 511.423 1.38739 0.74761 0
M  V30 5269 C 512.648 1.38702 1.54197 0
M  V30 5270 C 513.073 -0.019664 1.8809 0
M  V30 5271 O 512.431 -1.00333 1.51006 0
M  V30 5272 C 512.479 2.25492 2.814 0
M  V30 5273 O 511.583 1.67613 3.76802 0
M  V30 5274 H 510.924 0.472863 0.466151 0
M  V30 5275 H 513.454 1.82577 0.923413 0
M  V30 5276 H 513.464 2.39561 3.30264 0
M  V30 5277 H 512.139 3.27727 2.56062 0
M  V30 5278 H 510.716 1.62718 3.35526 0
M  V30 5279 N 512.901 -0.976442 1.23707 0
M  V30 5280 C 513.848 -2.06952 1.02174 0
M  V30 5281 C 514.818 -1.65984 -0.0621034 0
M  V30 5282 O 516.003 -1.90584 0.0907906 0
M  V30 5283 C 513.143 -3.39425 0.62327 0
M  V30 5284 C 512.256 -3.9364 1.77966 0
M  V30 5285 C 511.391 -5.14343 1.3276 0
M  V30 5286 C 510.43 -5.60733 2.45449 0
M  V30 5287 N 509.567 -6.72662 2.01172 0
M  V30 5288 H 514.407 -2.24704 1.95734 0
M  V30 5289 H 511.944 -1.10143 0.975034 0
M  V30 5290 H 513.902 -4.15526 0.37332 0
M  V30 5291 H 512.532 -3.21624 -0.275329 0
M  V30 5292 H 511.584 -3.14258 2.14351 0
M  V30 5293 H 512.896 -4.24035 2.62671 0
M  V30 5294 H 512.05 -5.97789 1.03601 0
M  V30 5295 H 510.789 -4.8561 0.450975 0
M  V30 5296 H 509.794 -4.75865 2.75378 0
M  V30 5297 H 511.019 -5.91483 3.33654 0
M  V30 5298 H 508.965 -6.45681 1.15895 0
M  V30 5299 H 508.882 -7.02462 2.79434 0
M  V30 5300 H 510.15 -7.59572 1.75129 0
M  V30 5301 N 514.379 -1.04941 -1.1758 0
M  V30 5302 C 515.342 -0.652456 -2.19717 0
M  V30 5303 C 516.342 0.294745 -1.58076 0
M  V30 5304 O 517.532 0.0789579 -1.74021 0
M  V30 5305 C 514.664 0.0420712 -3.40874 0
M  V30 5306 H 515.857 -1.55642 -2.5635 0
M  V30 5307 H 513.41 -0.842995 -1.31618 0
M  V30 5308 H 514.145 0.95943 -3.09783 0
M  V30 5309 H 513.93 -0.638844 -3.86861 0
M  V30 5310 H 515.42 0.306 -4.16477 0
M  V30 5311 N 515.857 1.33968 -0.830081 0
M  V30 5312 C 516.804 2.29387 -0.255008 0
M  V30 5313 C 517.774 1.53923 0.624243 0
M  V30 5314 O 518.959 1.82262 0.564372 0
M  V30 5315 C 516.099 3.4034 0.571209 0
M  V30 5316 C 515.212 4.30729 -0.331083 0
M  V30 5317 C 514.347 5.2879 0.505389 0
M  V30 5318 C 513.386 6.10819 -0.395843 0
M  V30 5319 N 512.523 7.00948 0.401979 0
M  V30 5320 H 517.363 2.77972 -1.07404 0
M  V30 5321 H 514.9 1.36785 -0.541133 0
M  V30 5322 H 516.858 4.03361 1.06562 0
M  V30 5323 H 515.488 2.9297 1.35529 0
M  V30 5324 H 514.54 3.68507 -0.943759 0
M  V30 5325 H 515.852 4.88181 -1.02377 0
M  V30 5326 H 515.006 5.97297 1.06399 0
M  V30 5327 H 513.745 4.71894 1.23155 0
M  V30 5328 H 512.75 5.41238 -0.966529 0
M  V30 5329 H 513.975 6.69797 -1.12023 0
M  V30 5330 H 511.921 6.46512 1.11168 0
M  V30 5331 H 511.838 7.55643 -0.232167 0
M  V30 5332 H 513.106 7.73774 0.943102 0
M  V30 5333 N 517.335 0.585699 1.46312 0
M  V30 5334 C 518.583 0.072278 2.01971 0
M  V30 5335 C 518.904 -1.29345 1.45928 0
M  V30 5336 O 518.174 -1.84973 0.645109 0
M  V30 5337 H 516.754 0.023729 0.746623 0
M  V30 5338 H 519.416 0.762155 1.7938 0
M  V30 5339 H 518.512 0.00552767 3.121 0
M  V30 5340 N 518.813 -1.54241 0.323641 0
M  V30 5341 C 519.745 -2.21836 -0.576311 0
M  V30 5342 C 520.758 -1.21837 -1.07979 0
M  V30 5343 O 521.947 -1.48306 -0.99336 0
M  V30 5344 C 519.047 -2.86923 -1.80356 0
M  V30 5345 C 518.22 -4.1306 -1.43875 0
M  V30 5346 C 517.279 -4.6174 -2.52353 0
M  V30 5347 O 516.305 -5.26421 -2.16494 0
M  V30 5348 N 517.507 -4.35974 -3.83284 0
M  V30 5349 H 520.272 -2.997 0.00247987 0
M  V30 5350 H 517.833 -1.61233 0.146848 0
M  V30 5351 H 519.825 -3.16414 -2.52318 0
M  V30 5352 H 518.395 -2.12765 -2.29019 0
M  V30 5353 H 517.615 -3.90334 -0.550752 0
M  V30 5354 H 518.903 -4.95148 -1.17071 0
M  V30 5355 H 518.301 -3.84203 -4.15216 0
M  V30 5356 H 516.858 -4.70119 -4.51477 0
M  V30 5357 N 520.291 -0.0518155 -1.57515 0
M  V30 5358 C 521.702 0.483787 -1.80323 0
M  V30 5359 C 522.053 1.70879 -0.964099 0
M  V30 5360 O 521.178 2.15643 -0.180872 0
M  V30 5361 C 521.773 0.884459 -3.27052 0
M  V30 5362 C 520.332 1.36504 -3.50776 0
M  V30 5363 C 519.479 0.340539 -2.75201 0
M  V30 5364 H 522.43 -0.277691 -1.56252 0
M  V30 5365 H 522.451 1.74733 -3.38007 0
M  V30 5366 H 521.963 -0.00731093 -3.88099 0
M  V30 5367 H 520.064 2.27598 -2.95009 0
M  V30 5368 H 520.177 1.35675 -4.59488 0
M  V30 5369 H 518.541 0.81356 -2.41357 0
M  V30 5370 H 519.324 -0.543156 -3.38976 0
M  V30 5371 N 521.769 1.56035 0.221574 0
M  V30 5372 C 523.185 1.49026 0.571271 0
M  V30 5373 C 523.385 0.746912 1.87146 0
M  V30 5374 O 522.441 0.286566 2.50869 0
M  V30 5375 C 523.754 2.93579 0.650522 0
M  V30 5376 C 525.302 3.04099 0.741151 0
M  V30 5377 C 525.777 4.5001 0.851747 0
M  V30 5378 N 527.268 4.54053 0.915968 0
M  V30 5379 C 528.003 5.64232 1.02125 0
M  V30 5380 N 527.499 6.84164 1.09049 0
M  V30 5381 N 529.292 5.52084 1.05639 0
M  V30 5382 H 521.443 2.02791 -0.63162 0
M  V30 5383 H 523.706 0.921736 -0.221602 0
M  V30 5384 H 523.412 3.50912 -0.235253 0
M  V30 5385 H 523.286 3.45476 1.51413 0
M  V30 5386 H 525.673 2.4683 1.61737 0
M  V30 5387 H 525.754 2.55371 -0.148128 0
M  V30 5388 H 525.398 5.07896 -0.0200117 0
M  V30 5389 H 525.328 4.96444 1.75644 0
M  V30 5390 H 527.819 3.67683 0.872782 0
M  V30 5391 H 528.132 7.63883 1.1706 0
M  V30 5392 H 526.477 6.86875 1.05962 0
M  V30 5393 H 529.668 4.57317 0.998953 0
M  V30 5394 H 529.841 6.37983 1.13498 0
M  V30 5395 N 523.247 -0.488276 1.49845 0
M  V30 5396 C 524.157 -1.61451 1.70207 0
M  V30 5397 C 525.173 -1.63877 0.584846 0
M  V30 5398 O 526.349 -1.82063 0.861107 0
M  V30 5399 C 523.414 -2.9776 1.77594 0
M  V30 5400 C 522.475 -3.05861 3.01243 0
M  V30 5401 C 521.708 -4.35668 3.08268 0
M  V30 5402 O 521.931 -5.25197 2.22541 0
M  V30 5403 O 520.865 -4.49005 4.00847 0
M  V30 5404 H 524.691 -1.47199 2.65643 0
M  V30 5405 H 522.276 -0.665939 1.33737 0
M  V30 5406 H 524.158 -3.7875 1.84732 0
M  V30 5407 H 522.833 -3.12248 0.8534 0
M  V30 5408 H 521.74 -2.24012 2.99616 0
M  V30 5409 H 523.073 -2.96304 3.9302 0
M  V30 5410 N 524.725 -1.39134 -0.740242 0
M  V30 5411 C 526.136 -1.32208 -1.31825 0
M  V30 5412 C 526.487 0.0159919 -1.96193 0
M  V30 5413 O 525.612 0.918111 -1.95958 0
M  V30 5414 C 526.207 -2.39436 -2.39699 0
M  V30 5415 C 524.766 -2.36048 -2.93187 0
M  V30 5416 C 523.913 -2.21599 -1.66701 0
M  V30 5417 H 526.864 -1.49298 -0.538133 0
M  V30 5418 H 526.885 -2.05922 -3.19963 0
M  V30 5419 H 526.397 -3.36811 -1.92821 0
M  V30 5420 H 524.498 -1.42295 -3.44359 0
M  V30 5421 H 524.611 -3.30704 -3.46658 0
M  V30 5422 H 522.975 -1.68681 -1.90837 0
M  V30 5423 H 523.758 -3.20936 -1.21882 0
M  V30 5424 N 526.204 0.969867 -1.24223 0
M  V30 5425 C 527.136 2.0669 -0.99055 0
M  V30 5426 C 528.149 1.62753 0.0392222 0
M  V30 5427 O 529.338 1.77403 -0.197561 0
M  V30 5428 C 526.438 3.35589 -0.472594 0
M  V30 5429 C 525.611 4.08444 -1.56499 0
M  V30 5430 C 524.67 5.15616 -1.05007 0
M  V30 5431 O 523.696 5.41911 -1.7413 0
M  V30 5432 N 524.898 5.80383 0.116641 0
M  V30 5433 H 527.663 2.28855 -1.93508 0
M  V30 5434 H 525.224 1.13733 -1.15223 0
M  V30 5435 H 527.216 4.04542 -0.112919 0
M  V30 5436 H 525.786 3.10311 0.377617 0
M  V30 5437 H 525.006 3.33798 -2.09696 0
M  V30 5438 H 526.294 4.53882 -2.29932 0
M  V30 5439 H 525.692 5.6142 0.694589 0
M  V30 5440 H 524.249 6.50462 0.417483 0
M  V30 5441 N 527.682 1.05563 1.17022 0
M  V30 5442 C 528.928 0.769074 1.87652 0
M  V30 5443 C 529.261 -0.702326 1.81055 0
M  V30 5444 O 528.536 -1.5139 1.22112 0
M  V30 5445 C 528.819 1.25492 3.37526 0
M  V30 5446 C 528.672 2.78953 3.52853 0
M  V30 5447 C 529.991 0.856919 4.31677 0
M  V30 5448 H 527.11 0.280854 0.681388 0
M  V30 5449 H 529.752 1.31027 1.37593 0
M  V30 5450 H 527.902 0.794516 3.80289 0
M  V30 5451 H 529.574 3.33146 3.19079 0
M  V30 5452 H 527.817 3.18046 2.95007 0
M  V30 5453 H 528.488 3.08011 4.58076 0
M  V30 5454 H 530.964 1.25334 3.96775 0
M  V30 5455 H 529.84 1.22443 5.35069 0
M  V30 5456 H 530.101 -0.238787 4.41455 0
M  V30 5457 N 529.16 -1.33526 0.837174 0
M  V30 5458 C 530.39 -2.01754 0.444848 0
M  V30 5459 C 530.798 -1.63149 -0.958072 0
M  V30 5460 O 530.141 -0.839827 -1.63379 0
M  V30 5461 C 530.203 -3.56228 0.483917 0
M  V30 5462 C 529.867 -4.18205 1.84265 0
M  V30 5463 C 530.864 -4.37699 2.80563 0
M  V30 5464 C 528.549 -4.54667 2.13503 0
M  V30 5465 C 530.543 -4.928 4.04261 0
M  V30 5466 C 528.23 -5.09475 3.37458 0
M  V30 5467 C 529.228 -5.28488 4.32654 0
M  V30 5468 O 528.916 -5.82132 5.54417 0
M  V30 5469 H 528.648 -0.652928 0.175104 0
M  V30 5470 H 531.202 -1.71469 1.13082 0
M  V30 5471 H 529.432 -3.85833 -0.258826 0
M  V30 5472 H 531.121 -4.05752 0.109653 0
M  V30 5473 H 531.887 -4.0988 2.59274 0
M  V30 5474 H 527.766 -4.39164 1.40201 0
M  V30 5475 H 531.31 -5.07555 4.78574 0
M  V30 5476 H 527.207 -5.36725 3.58604 0
M  V30 5477 H 527.975 -6.00548 5.56133 0
M  V30 5478 N 530.638 -0.59345 -1.46 0
M  V30 5479 C 531.866 -0.0890934 -2.06708 0
M  V30 5480 C 532.281 1.2205 -1.44046 0
M  V30 5481 O 531.638 1.74029 -0.549551 0
M  V30 5482 C 531.689 0.0720263 -3.61428 0
M  V30 5483 O 531.41 -1.18574 -4.21748 0
M  V30 5484 C 532.911 0.609487 -4.3909 0
M  V30 5485 H 530.131 -0.0623628 -0.668096 0
M  V30 5486 H 532.675 -0.817171 -1.87464 0
M  V30 5487 H 530.83 0.750369 -3.80063 0
M  V30 5488 H 531.244 -1.0064 -5.14754 0
M  V30 5489 H 532.718 0.671363 -5.47902 0
M  V30 5490 H 533.195 1.62878 -4.07882 0
M  V30 5491 H 533.801 -0.03434 -4.25286 0
M  V30 5492 N 532.116 1.54067 -0.331816 0
M  V30 5493 C 533.046 2.27569 0.522932 0
M  V30 5494 C 534.027 1.28679 1.11247 0
M  V30 5495 O 535.212 1.57504 1.13605 0
M  V30 5496 C 532.342 3.0397 1.67987 0
M  V30 5497 C 531.296 4.10267 1.21924 0
M  V30 5498 C 530.622 4.74555 2.46377 0
M  V30 5499 C 531.922 5.21268 0.32815 0
M  V30 5500 H 533.616 2.99264 -0.0901977 0
M  V30 5501 H 531.162 1.4393 -0.044821 0
M  V30 5502 H 533.115 3.54123 2.28418 0
M  V30 5503 H 531.839 2.29906 2.31971 0
M  V30 5504 H 530.498 3.61009 0.637809 0
M  V30 5505 H 530.146 3.97098 3.08743 0
M  V30 5506 H 529.846 5.46363 2.16243 0
M  V30 5507 H 531.37 5.27487 3.07555 0
M  V30 5508 H 532.784 5.67128 0.838978 0
M  V30 5509 H 531.181 5.99982 0.119228 0
M  V30 5510 H 532.251 4.80673 -0.638839 0
M  V30 5511 N 533.594 0.0601682 1.57485 0
M  V30 5512 C 535.005 -0.474217 1.80577 0
M  V30 5513 C 535.356 -1.70365 0.973147 0
M  V30 5514 O 534.481 -2.15544 0.192306 0
M  V30 5515 C 535.076 -0.867102 3.27516 0
M  V30 5516 C 533.635 -1.34642 3.51495 0
M  V30 5517 C 532.782 -0.32594 2.75378 0
M  V30 5518 H 535.733 0.285973 1.56102 0
M  V30 5519 H 535.754 -1.72938 3.38929 0
M  V30 5520 H 535.266 0.0278927 3.8809 0
M  V30 5521 H 533.367 -2.2603 2.96212 0
M  V30 5522 H 533.48 -1.33237 4.60201 0
M  V30 5523 H 531.844 -0.800749 2.41785 0
M  V30 5524 H 532.627 0.561125 3.38683 0
M  V30 5525 N 535.072 -1.5615 -0.213296 0
M  V30 5526 C 536.483 -1.69645 -0.779582 0
M  V30 5527 C 536.834 -0.663615 -1.84636 0
M  V30 5528 O 535.959 0.183633 -2.15619 0
M  V30 5529 C 536.554 -3.07567 -1.42084 0
M  V30 5530 C 535.113 -3.22889 -1.93442 0
M  V30 5531 C 534.26 -2.65581 -0.797612 0
M  V30 5532 H 537.211 -1.58696 0.0114951 0
M  V30 5533 H 537.232 -3.03884 -2.28986 0
M  V30 5534 H 536.744 -3.82716 -0.644187 0
M  V30 5535 H 534.845 -2.52623 -2.73884 0
M  V30 5536 H 534.958 -4.30197 -2.10872 0
M  V30 5537 H 533.322 -2.24278 -1.20712 0
M  V30 5538 H 534.105 -3.43284 -0.033494 0
M  V30 5539 N 536.55 0.480323 -1.50102 0
M  V30 5540 C 537.775 1.26126 -1.64642 0
M  V30 5541 C 538.2 1.85257 -0.325823 0
M  V30 5542 O 537.558 1.66854 0.709194 0
M  V30 5543 C 537.606 2.35243 -2.73301 0
M  V30 5544 O 536.71 3.39646 -2.33911 0
M  V30 5545 H 536.051 0.371463 -0.550374 0
M  V30 5546 H 538.581 0.572696 -1.96421 0
M  V30 5547 H 538.591 2.80695 -2.96098 0
M  V30 5548 H 537.266 1.91574 -3.6915 0
M  V30 5549 H 535.843 2.99969 -2.21525 0
M  V30 5550 N 538.028 1.39524 0.732853 0
M  V30 5551 C 539.444 1.21176 1.03868 0
M  V30 5552 C 539.644 0.0748448 2.01361 0
M  V30 5553 O 538.7 -0.57281 2.45917 0
M  V30 5554 C 540.013 2.54667 1.59892 0
M  V30 5555 C 541.561 2.6153 1.71962 0
M  V30 5556 C 542.036 3.95248 2.31394 0
M  V30 5557 N 543.527 3.96899 2.38801 0
M  V30 5558 C 544.262 4.97138 2.85729 0
M  V30 5559 N 543.758 6.07775 3.32537 0
M  V30 5560 N 545.551 4.84516 2.84957 0
M  V30 5561 H 537.702 2.12225 0.086304 0
M  V30 5562 H 539.965 0.942614 0.100907 0
M  V30 5563 H 539.671 3.38423 0.95721 0
M  V30 5564 H 539.545 2.74538 2.58668 0
M  V30 5565 H 541.932 1.78156 2.35254 0
M  V30 5566 H 542.013 2.45507 0.718327 0
M  V30 5567 H 541.657 4.79054 1.68729 0
M  V30 5568 H 541.587 4.08593 3.32204 0
M  V30 5569 H 544.078 3.16998 2.05719 0
M  V30 5570 H 544.391 6.8017 3.66862 0
M  V30 5571 H 542.736 6.11366 3.30541 0
M  V30 5572 H 545.927 3.97185 2.47713 0
M  V30 5573 H 546.1 5.62783 3.21215 0
M  V30 5574 N 539.506 -0.963266 1.24736 0
M  V30 5575 C 540.416 -2.09246 1.06082 0
M  V30 5576 C 541.432 -1.74 0.000363101 0
M  V30 5577 O 542.608 -2.0041 0.199479 0
M  V30 5578 C 539.673 -3.40115 0.672498 0
M  V30 5579 C 538.734 -3.89282 1.80993 0
M  V30 5580 C 537.967 -5.13905 1.44004 0
M  V30 5581 O 538.19 -5.69434 0.331835 0
M  V30 5582 O 537.124 -5.57566 2.26723 0
M  V30 5583 H 540.95 -2.27881 2.00759 0
M  V30 5584 H 538.535 -1.07649 1.03595 0
M  V30 5585 H 540.417 -4.18797 0.467668 0
M  V30 5586 H 539.092 -3.22771 -0.245102 0
M  V30 5587 H 537.999 -3.11642 2.06955 0
M  V30 5588 H 539.332 -4.1111 2.70646 0
M  V30 5589 N 540.985 -1.06182 -1.16461 0
M  V30 5590 C 541.895 -0.682671 -2.24448 0
M  V30 5591 C 542.911 0.30078 -1.71381 0
M  V30 5592 O 544.087 0.150376 -2.00838 0
M  V30 5593 C 541.152 -0.0737202 -3.46622 0
M  V30 5594 C 540.213 -1.10889 -4.14731 0
M  V30 5595 C 539.446 -0.528908 -5.31073 0
M  V30 5596 O 539.669 0.65868 -5.66584 0
M  V30 5597 O 538.603 -1.26805 -5.88391 0
M  V30 5598 H 542.429 -1.58291 -2.59187 0
M  V30 5599 H 540.014 -0.834013 -1.23954 0
M  V30 5600 H 541.896 0.264192 -4.20571 0
M  V30 5601 H 540.571 0.800015 -3.13658 0
M  V30 5602 H 539.478 -1.49896 -3.42756 0
M  V30 5603 H 540.811 -1.95412 -4.51747 0
M  V30 5604 N 542.463 1.3308 -0.844243 0
M  V30 5605 C 543.396 2.27075 -0.226279 0
M  V30 5606 C 544.374 1.49911 0.629716 0
M  V30 5607 O 545.558 1.79068 0.588803 0
M  V30 5608 C 542.685 3.31767 0.681782 0
M  V30 5609 C 541.731 4.26384 -0.0994565 0
M  V30 5610 S 542.564 5.15186 -1.46094 0
M  V30 5611 C 543.72 6.23405 -0.558319 0
M  V30 5612 H 543.953 2.79141 -1.02312 0
M  V30 5613 H 541.486 1.40452 -0.641292 0
M  V30 5614 H 543.444 3.92566 1.20008 0
M  V30 5615 H 542.105 2.78507 1.45234 0
M  V30 5616 H 541.298 5.00514 0.591733 0
M  V30 5617 H 540.9 3.69949 -0.548991 0
M  V30 5618 H 543.192 6.77069 0.241672 0
M  V30 5619 H 544.135 6.96619 -1.26995 0
M  V30 5620 H 544.543 5.64333 -0.13728 0
M  V30 5621 N 543.941 0.601185 1.45683 0
M  V30 5622 C 545.169 0.100054 2.06658 0
M  V30 5623 C 545.584 -1.21285 1.44691 0
M  V30 5624 O 544.941 -1.73735 0.558772 0
M  V30 5625 C 544.992 -0.0528579 3.61461 0
M  V30 5626 O 544.713 1.20809 4.21114 0
M  V30 5627 C 546.214 -0.586193 4.39407 0
M  V30 5628 H 543.434 0.065905 0.667756 0
M  V30 5629 H 545.978 0.827101 1.87028 0
M  V30 5630 H 544.133 -0.730203 3.80456 0
M  V30 5631 H 544.547 1.03368 5.14213 0
M  V30 5632 H 546.021 -0.642297 5.4825 0
M  V30 5633 H 546.498 -1.60713 4.0874 0
M  V30 5634 H 547.104 0.0568935 4.25262 0
M  V30 5635 N 545.419 -1.53889 0.339982 0
M  V30 5636 C 546.366 -2.24902 -0.518452 0
M  V30 5637 C 547.336 -1.24593 -1.09844 0
M  V30 5638 O 548.521 -1.53317 -1.13572 0
M  V30 5639 C 545.661 -3.02262 -1.66529 0
M  V30 5640 C 544.774 -4.17418 -1.11295 0
M  V30 5641 C 543.909 -4.82273 -2.2268 0
M  V30 5642 C 542.948 -5.89503 -1.6478 0
M  V30 5643 N 542.085 -6.48153 -2.69893 0
M  V30 5644 H 546.925 -2.97853 0.0936579 0
M  V30 5645 H 544.462 -1.46986 0.0579924 0
M  V30 5646 H 546.42 -3.45371 -2.3404 0
M  V30 5647 H 545.05 -2.31614 -2.24844 0
M  V30 5648 H 544.102 -3.78976 -0.328886 0
M  V30 5649 H 545.414 -4.94554 -0.649414 0
M  V30 5650 H 544.568 -5.28435 -2.98063 0
M  V30 5651 H 543.307 -4.04552 -2.72376 0
M  V30 5652 H 542.312 -5.42728 -0.879004 0
M  V30 5653 H 543.537 -6.6913 -1.1594 0
M  V30 5654 H 541.483 -5.73298 -3.1885 0
M  V30 5655 H 541.4 -7.20752 -2.28151 0
M  V30 5656 H 542.668 -6.98968 -3.45056 0
M  V30 5657 N 546.897 -0.0685191 -1.57451 0
M  V30 5658 C 547.845 0.917577 -2.13736 0
M  V30 5659 C 548.839 1.31049 -1.07344 0
M  V30 5660 O 550.045 1.28811 -1.25728 0
M  V30 5661 H 546.42 0.313835 -0.683382 0
M  V30 5662 H 548.391 0.417903 -2.95459 0
M  V30 5663 C 547.14 2.17686 -2.71123 0
M  V30 5664 H 546.463 1.88336 -3.52661 0
M  V30 5665 H 547.903 2.84803 -3.14107 0
M  V30 5666 C 546.362 2.9332 -1.65726 0
M  V30 5667 O 546.892 3.86901 -1.08031 0
M  V30 5668 N 545.098 2.56367 -1.36837 0
M  V30 5669 H 544.645 1.80341 -1.83943 0
M  V30 5670 H 544.603 3.07276 -0.665501 0
M  V30 5671 N 548.375 1.56261 0.205012 0
M  V30 5672 C 549.307 1.90266 1.27795 0
M  V30 5673 C 550.32 0.792397 1.42214 0
M  V30 5674 O 551.509 1.07077 1.42817 0
M  V30 5675 C 548.609 2.11074 2.65143 0
M  V30 5676 C 547.782 3.42176 2.7246 0
M  V30 5677 C 546.841 3.52216 3.90936 0
M  V30 5678 O 545.867 4.25119 3.78501 0
M  V30 5679 N 547.069 2.84573 5.05963 0
M  V30 5680 H 549.834 2.82896 0.989434 0
M  V30 5681 H 547.395 1.57008 0.394981 0
M  V30 5682 H 549.387 2.15089 3.4281 0
M  V30 5683 H 547.957 1.2499 2.86524 0
M  V30 5684 H 547.177 3.50116 1.81142 0
M  V30 5685 H 548.465 4.28509 2.74331 0
M  V30 5686 H 547.863 2.25152 5.18963 0
M  V30 5687 H 546.42 2.94228 5.81613 0
M  V30 5688 N 549.853 -0.472356 1.50355 0
M  V30 5689 C 551.099 -1.22634 1.6152 0
M  V30 5690 C 551.432 -1.91645 0.313995 0
M  V30 5691 O 550.707 -1.82059 -0.684446 0
M  V30 5692 C 550.99 -2.27099 2.7946 0
M  V30 5693 C 550.843 -1.62402 4.19459 0
M  V30 5694 C 552.162 -3.28421 2.92964 0
M  V30 5695 H 549.281 -0.444494 0.587873 0
M  V30 5696 H 551.923 -0.520321 1.82737 0
M  V30 5697 H 550.073 -2.87314 2.61501 0
M  V30 5698 H 551.745 -1.05793 4.49005 0
M  V30 5699 H 549.988 -0.927184 4.23776 0
M  V30 5700 H 550.659 -2.38309 4.97909 0
M  V30 5701 H 553.135 -2.78227 3.09401 0
M  V30 5702 H 552.011 -3.98845 3.77113 0
M  V30 5703 H 552.272 -3.92467 2.03525 0
M  V30 5704 N 551.331 -1.39911 -0.725443 0
M  V30 5705 C 552.556 -1.41137 -1.5197 0
M  V30 5706 C 552.981 -0.010262 -1.88097 0
M  V30 5707 O 552.339 0.979184 -1.52583 0
M  V30 5708 C 552.387 -2.2994 -2.77777 0
M  V30 5709 O 551.491 -1.73586 -3.74088 0
M  V30 5710 H 550.832 -0.480219 -0.458569 0
M  V30 5711 H 553.362 -1.84023 -0.894249 0
M  V30 5712 H 553.372 -2.44785 -3.26411 0
M  V30 5713 H 552.047 -3.31759 -2.50816 0
M  V30 5714 H 550.624 -1.68035 -3.32894 0
M  V30 5715 N 552.809 0.956637 -1.25245 0
M  V30 5716 C 553.739 2.07058 -1.07931 0
M  V30 5717 C 554.72 1.70096 0.0110361 0
M  V30 5718 O 555.905 1.93555 -0.158121 0
M  V30 5719 C 553.035 3.40272 -0.695124 0
M  V30 5720 C 551.989 3.91235 -1.73549 0
M  V30 5721 C 551.315 5.20921 -1.20604 0
M  V30 5722 C 552.615 4.17837 -3.13385 0
M  V30 5723 H 554.309 2.218 -2.01109 0
M  V30 5724 H 551.855 1.06581 -0.968326 0
M  V30 5725 H 553.808 4.1765 -0.560949 0
M  V30 5726 H 552.532 3.25462 0.272355 0
M  V30 5727 H 551.191 3.16025 -1.85807 0
M  V30 5728 H 550.839 5.02479 -0.228846 0
M  V30 5729 H 550.539 5.55987 -1.90136 0
M  V30 5730 H 552.063 6.00897 -1.08421 0
M  V30 5731 H 553.477 4.8588 -3.04292 0
M  V30 5732 H 551.874 4.64154 -3.80369 0
M  V30 5733 H 552.944 3.2419 -3.60595 0
M  V30 5734 N 554.287 1.06798 1.15896 0
M  V30 5735 C 555.515 0.808694 1.90441 0
M  V30 5736 C 555.93 -0.637506 1.77711 0
M  V30 5737 O 555.287 -1.43684 1.12522 0
M  V30 5738 C 555.338 1.20068 3.40978 0
M  V30 5739 O 555.059 2.59013 3.53333 0
M  V30 5740 C 556.56 0.96987 4.3256 0
M  V30 5741 H 553.78 0.292809 0.603742 0
M  V30 5742 H 556.324 1.42296 1.46874 0
M  V30 5743 H 554.479 0.630842 3.82229 0
M  V30 5744 H 554.893 2.7485 4.46719 0
M  V30 5745 H 556.367 1.29371 5.36626 0
M  V30 5746 H 556.844 -0.0941209 4.39099 0
M  V30 5747 H 557.45 1.52433 3.97044 0
M  V30 5748 N 555.766 -1.3263 0.851289 0
M  V30 5749 C 557.006 -1.99174 0.459266 0
M  V30 5750 C 557.37 -1.65913 -0.966273 0
M  V30 5751 O 558.571 -2.2552 -1.46267 0
M  V30 5752 C 556.842 -3.50721 0.687698 0
M  V30 5753 S 558.401 -4.37039 0.392746 0
M  V30 5754 H 555.219 -0.689832 0.172199 0
M  V30 5755 H 557.821 -1.61395 1.10327 0
M  V30 5756 H 556.525 -3.72417 1.72435 0
M  V30 5757 H 556.056 -3.93389 0.0299949 0
M  V30 5758 H 558.071 -4.8999 -0.782578 0
M  V30 5759 N 557.244 -0.608902 -1.45362 0
M  V30 5760 C 558.174 0.0964526 -2.33301 0
M  V30 5761 C 559.155 0.857444 -1.46908 0
M  V30 5762 O 560.34 0.827735 -1.75676 0
M  V30 5763 C 557.47 1.09354 -3.29635 0
M  V30 5764 C 556.424 0.445676 -4.25673 0
M  V30 5765 C 555.75 1.5511 -5.11708 0
M  V30 5766 C 557.05 -0.633972 -5.18438 0
M  V30 5767 H 558.744 -0.637829 -2.92527 0
M  V30 5768 H 556.29 -0.308178 -1.40664 0
M  V30 5769 H 558.243 1.59556 -3.90025 0
M  V30 5770 H 556.967 1.85843 -2.6857 0
M  V30 5771 H 555.626 -0.0354897 -3.66583 0
M  V30 5772 H 555.274 2.30631 -4.4701 0
M  V30 5773 H 554.974 1.12311 -5.76767 0
M  V30 5774 H 556.498 2.05537 -5.74967 0
M  V30 5775 H 557.912 -0.215974 -5.72893 0
M  V30 5776 H 556.309 -0.983789 -5.91981 0
M  V30 5777 H 557.379 -1.51005 -4.60788 0
M  V30 5778 N 558.722 1.53707 -0.348139 0
M  V30 5779 C 559.968 2.01286 0.247332 0
M  V30 5780 C 560.301 1.23546 1.49834 0
M  V30 5781 O 559.576 0.324331 1.91777 0
M  V30 5782 C 559.859 3.55768 0.556858 0
M  V30 5783 C 559.712 4.44216 -0.706564 0
M  V30 5784 C 561.031 4.1841 1.3646 0
M  V30 5785 H 558.15 0.731677 0.0884201 0
M  V30 5786 H 560.792 1.84106 -0.469584 0
M  V30 5787 H 558.942 3.70539 1.16761 0
M  V30 5788 H 560.614 4.41274 -1.34444 0
M  V30 5789 H 558.857 4.12892 -1.33052 0
M  V30 5790 H 559.528 5.50202 -0.445186 0
M  V30 5791 H 562.004 4.07365 0.848113 0
M  V30 5792 H 560.88 5.26563 1.54992 0
M  V30 5793 H 561.141 3.7333 2.36805 0
M  V30 5794 N 560.2 0.0768682 1.57412 0
M  V30 5795 C 561.147 -0.888577 2.13009 0
M  V30 5796 C 562.117 -1.29198 1.0439 0
M  V30 5797 O 563.302 -1.37694 1.3208 0
M  V30 5798 C 560.442 -2.14899 2.70023 0
M  V30 5799 C 559.555 -1.79777 3.92816 0
M  V30 5800 C 558.69 -3.00467 4.38056 0
M  V30 5801 C 557.729 -2.61385 5.53484 0
M  V30 5802 N 556.866 -3.74851 5.93659 0
M  V30 5803 H 561.706 -0.407593 2.95199 0
M  V30 5804 H 559.243 -0.189534 1.45874 0
M  V30 5805 H 561.201 -2.88688 3.0119 0
M  V30 5806 H 559.831 -2.60529 1.9059 0
M  V30 5807 H 558.883 -0.960301 3.68079 0
M  V30 5808 H 560.195 -1.47027 4.76639 0
M  V30 5809 H 559.349 -3.82529 4.7091 0
M  V30 5810 H 558.088 -3.36413 3.53097 0
M  V30 5811 H 557.093 -1.77746 5.20275 0
M  V30 5812 H 558.318 -2.26603 6.40178 0
M  V30 5813 H 556.264 -4.1055 5.11649 0
M  V30 5814 H 556.181 -3.45887 6.72234 0
M  V30 5815 H 557.449 -4.57477 6.31138 0
M  V30 5816 N 561.678 -1.56367 -0.196722 0
M  V30 5817 C 562.926 -1.80172 -0.915554 0
M  V30 5818 C 563.247 -0.649649 -1.8386 0
M  V30 5819 O 562.517 0.332111 -1.93064 0
M  V30 5820 H 561.097 -0.664592 -0.341067 0
M  V30 5821 H 563.759 -1.93844 -0.202622 0
M  V30 5822 H 562.855 -2.7327 -1.50764 0
M  V30 5823 N 563.156 0.464375 -1.50603 0
M  V30 5824 C 564.403 1.21596 -1.61928 0
M  V30 5825 C 564.731 1.91804 -0.322737 0
M  V30 5826 O 563.986 1.83065 0.691776 0
M  V30 5827 C 564.285 2.278 -2.75394 0
M  V30 5828 C 563.951 1.74797 -4.1564 0
M  V30 5829 C 562.613 1.60063 -4.53799 0
M  V30 5830 C 564.965 1.35548 -5.03266 0
M  V30 5831 C 562.293 1.04514 -5.77316 0
M  V30 5832 C 564.645 0.814381 -6.27336 0
M  V30 5833 C 563.309 0.653726 -6.64291 0
M  V30 5834 H 562.579 0.444951 -0.592536 0
M  V30 5835 H 565.226 0.510964 -1.84557 0
M  V30 5836 H 563.531 3.04233 -2.46879 0
M  V30 5837 H 565.228 2.85723 -2.81359 0
M  V30 5838 H 561.818 1.87234 -3.8554 0
M  V30 5839 H 566.002 1.45763 -4.74412 0
M  V30 5840 H 561.258 0.908186 -6.04617 0
M  V30 5841 H 565.432 0.501626 -6.94591 0
M  V30 5842 H 563.059 0.22114 -7.59878 0
M  V30 5843 N 564.634 1.40294 0.718013 0
M  V30 5844 C 565.864 1.41544 1.50495 0
M  V30 5845 C 566.272 0.0127877 1.89196 0
M  V30 5846 O 565.615 -0.97305 1.55812 0
M  V30 5847 C 565.677 2.24021 2.81167 0
M  V30 5848 C 565.341 3.72463 2.64803 0
M  V30 5849 C 566.338 4.65154 2.32223 0
M  V30 5850 C 564.023 4.1625 2.81143 0
M  V30 5851 C 566.017 5.99618 2.16189 0
M  V30 5852 C 563.704 5.50784 2.64727 0
M  V30 5853 C 564.702 6.42283 2.32297 0
M  V30 5854 O 564.39 7.74337 2.16004 0
M  V30 5855 H 564.122 0.484819 0.471091 0
M  V30 5856 H 566.676 1.84948 0.893488 0
M  V30 5857 H 564.906 1.75393 3.44636 0
M  V30 5858 H 566.595 2.17243 3.42871 0
M  V30 5859 H 567.361 4.32622 2.19234 0
M  V30 5860 H 563.24 3.45352 3.05373 0
M  V30 5861 H 566.784 6.71 1.90799 0
M  V30 5862 H 562.681 5.82902 2.773 0
M  V30 5863 H 563.449 7.85244 2.30942 0
M  V30 5864 N 566.112 -0.949982 1.2575 0
M  V30 5865 C 567.523 -1.50989 1.09815 0
M  V30 5866 C 567.874 -1.93497 -0.324556 0
M  V30 5867 O 566.999 -1.79068 -1.21506 0
M  V30 5868 C 567.594 -2.74394 1.98729 0
M  V30 5869 C 566.153 -3.26682 1.86965 0
M  V30 5870 C 565.3 -1.99498 1.92603 0
M  V30 5871 H 568.251 -0.766387 1.38968 0
M  V30 5872 H 568.272 -3.48383 1.53001 0
M  V30 5873 H 567.784 -2.43425 3.02268 0
M  V30 5874 H 565.885 -3.62461 0.863279 0
M  V30 5875 H 565.998 -3.94383 2.72027 0
M  V30 5876 H 564.362 -2.15005 1.36546 0
M  V30 5877 H 565.145 -1.70871 2.97755 0
M  V30 5878 N 567.59 -1.07411 -1.15328 0
M  V30 5879 C 568.815 -0.818856 -1.90551 0
M  V30 5880 C 569.24 0.622194 -1.77512 0
M  V30 5881 O 568.598 1.43484 -1.10824 0
M  V30 5882 C 568.646 -1.23267 -3.38877 0
M  V30 5883 O 567.75 -0.378345 -4.10661 0
M  V30 5884 H 567.091 -0.29827 -0.593238 0
M  V30 5885 H 569.621 -1.43289 -1.46046 0
M  V30 5886 H 569.631 -1.20912 -3.89672 0
M  V30 5887 H 568.306 -2.28226 -3.47686 0
M  V30 5888 H 566.883 -0.464437 -3.69996 0
M  V30 5889 N 569.068 1.32177 -0.85831 0
M  V30 5890 C 570.345 1.91781 -0.384624 0
M  V30 5891 C 570.725 1.78171 1.13217 0
M  V30 5892 O 570.073 1.18209 1.95548 0
M  V30 5893 C 570.283 3.38414 -0.853047 0
M  V30 5894 C 571.631 4.15542 -0.872359 0
M  V30 5895 O 572.655 3.47148 -0.797926 0
M  V30 5896 O 571.514 5.37678 -0.978009 0
M  V30 5897 H 568.608 0.819259 -0.112886 0
M  V30 5898 H 571.154 1.40923 -0.945453 0
M  V30 5899 H 569.926 3.4228 -1.89632 0
M  V30 5900 H 569.549 3.96683 -0.269874 0
M  V30 5901 N 570.547 0.616602 1.45037 0
M  V30 5902 C 571.796 0.112861 2.01384 0
M  V30 5903 C 572.109 -1.26758 1.48969 0
M  V30 5904 O 573.315 -1.86454 1.9735 0
M  V30 5905 C 571.771 0.151057 3.59583 0
M  V30 5906 C 571.379 1.53191 4.20995 0
M  V30 5907 C 573.123 -0.296974 4.2346 0
M  V30 5908 C 571.03 1.526 5.71373 0
M  V30 5909 H 569.96 0.0384254 0.75302 0
M  V30 5910 H 572.611 0.773262 1.66412 0
M  V30 5911 H 570.993 -0.57617 3.91786 0
M  V30 5912 H 572.167 2.28156 4.00352 0
M  V30 5913 H 570.482 1.92279 3.69348 0
M  V30 5914 H 573.079 -0.320712 5.33737 0
M  V30 5915 H 573.422 -1.32145 3.9477 0
M  V30 5916 H 573.955 0.377279 3.96007 0
M  V30 5917 H 570.694 2.52837 6.04776 0
M  V30 5918 H 570.214 0.819064 5.94181 0
M  V30 5919 H 571.893 1.25357 6.3474 0
M  V30 5920 N 572.025 -1.5352 0.356285 0
M  V30 5921 C 572.988 -2.24071 -0.482182 0
M  V30 5922 C 573.988 -1.24531 -1.01729 0
M  V30 5923 O 575.178 -1.48876 -0.904513 0
M  V30 5924 C 572.31 -2.97025 -1.67299 0
M  V30 5925 H 573.503 -2.99596 0.135031 0
M  V30 5926 H 571.056 -1.55928 0.107825 0
M  V30 5927 H 571.791 -2.25719 -2.32855 0
M  V30 5928 H 571.576 -3.7005 -1.29636 0
M  V30 5929 H 573.066 -3.50683 -2.26741 0
M  V30 5930 N 573.503 -0.0852151 -1.57369 0
M  V30 5931 C 574.749 0.581666 -1.94279 0
M  V30 5932 C 575.082 1.68444 -0.966446 0
M  V30 5933 O 574.357 1.945 0.00215277 0
M  V30 5934 C 574.64 1.14609 -3.41375 0
M  V30 5935 C 574.493 0.0490414 -4.49773 0
M  V30 5936 C 575.812 2.04751 -3.8957 0
M  V30 5937 H 572.931 0.209972 -0.706456 0
M  V30 5938 H 575.573 -0.153915 -1.89376 0
M  V30 5939 H 573.723 1.77297 -3.45685 0
M  V30 5940 H 575.395 -0.584721 -4.57579 0
M  V30 5941 H 573.638 -0.618638 -4.29366 0
M  V30 5942 H 574.309 0.484601 -5.49869 0
M  V30 5943 H 576.785 1.51981 -3.87351 0
M  V30 5944 H 575.661 2.41173 -4.93079 0
M  V30 5945 H 575.922 2.96107 -3.28288 0
M  V30 5946 N 574.981 1.5647 0.188427 0
M  V30 5947 C 575.891 1.98285 1.2538 0
M  V30 5948 C 576.907 0.891535 1.49424 0
M  V30 5949 O 578.083 1.19782 1.61908 0
M  V30 5950 C 575.148 2.31965 2.57669 0
M  V30 5951 C 574.209 3.54838 2.41638 0
M  V30 5952 C 573.442 3.86901 3.67618 0
M  V30 5953 O 573.665 3.20163 4.72072 0
M  V30 5954 O 572.599 4.80309 3.62749 0
M  V30 5955 H 576.425 2.89145 0.928912 0
M  V30 5956 H 574.01 1.44112 0.393955 0
M  V30 5957 H 575.892 2.54673 3.35737 0
M  V30 5958 H 574.567 1.44271 2.89771 0
M  V30 5959 H 573.474 3.37369 1.61658 0
M  V30 5960 H 574.807 4.43019 2.14465 0
M  V30 5961 N 576.459 -0.456382 1.50847 0
M  V30 5962 C 577.705 -1.20618 1.63777 0
M  V30 5963 C 578.06 -1.8936 0.340677 0
M  V30 5964 O 577.353 -1.79786 -0.662378 0
M  V30 5965 C 577.547 -2.26336 2.76599 0
M  V30 5966 C 577.376 -1.67968 4.17153 0
M  V30 5967 C 576.146 -1.47293 4.83356 0
M  V30 5968 C 578.344 -1.16643 5.00898 0
M  V30 5969 N 576.326 -0.843222 6.08081 0
M  V30 5970 C 577.697 -0.660843 6.16468 0
M  V30 5971 C 579.752 -1.05637 4.86565 0
M  V30 5972 C 578.455 -0.0560365 7.19278 0
M  V30 5973 C 580.481 -0.465485 5.89565 0
M  V30 5974 C 579.843 0.0296516 7.04394 0
M  V30 5975 H 575.942 -0.429725 0.653345 0
M  V30 5976 H 578.526 -0.505784 1.88016 0
M  V30 5977 H 576.697 -2.93785 2.54056 0
M  V30 5978 H 578.429 -2.9334 2.78808 0
M  V30 5979 H 575.184 -1.72934 4.40898 0
M  V30 5980 H 575.608 -0.546357 6.74792 0
M  V30 5981 H 580.25 -1.42508 3.98059 0
M  V30 5982 H 577.968 0.324845 8.07447 0
M  V30 5983 H 581.554 -0.382493 5.80541 0
M  V30 5984 H 580.434 0.479705 7.82731 0
M  V30 5985 N 577.937 -1.40673 -0.710563 0
M  V30 5986 C 578.847 -1.43663 -1.85467 0
M  V30 5987 C 579.863 -0.328721 -1.70867 0
M  V30 5988 O 581.039 -0.574098 -1.93044 0
M  V30 5989 C 578.104 -1.30226 -3.21313 0
M  V30 5990 C 577.165 -2.51204 -3.48131 0
M  V30 5991 C 576.398 -2.38398 -4.77495 0
M  V30 5992 O 576.621 -1.40048 -5.5294 0
M  V30 5993 O 575.555 -3.2787 -5.04762 0
M  V30 5994 H 579.381 -2.40156 -1.859 0
M  V30 5995 H 576.966 -1.22049 -0.861652 0
M  V30 5996 H 578.848 -1.2496 -4.02446 0
M  V30 5997 H 577.523 -0.368419 -3.21597 0
M  V30 5998 H 576.43 -2.62048 -2.66987 0
M  V30 5999 H 577.763 -3.43366 -3.52648 0
M  V30 6000 N 579.415 0.9433 -1.26252 0
M  V30 6001 C 580.64 1.72898 -1.14547 0
M  V30 6002 C 581.065 1.85761 0.295743 0
M  V30 6003 O 580.423 1.3463 1.21427 0
M  V30 6004 C 580.471 3.11471 -1.8171 0
M  V30 6005 O 579.575 3.97336 -1.10445 0
M  V30 6006 H 578.916 0.530555 -0.399259 0
M  V30 6007 H 581.446 1.18159 -1.67032 0
M  V30 6008 H 581.456 3.61872 -1.88449 0
M  V30 6009 H 580.131 3.01425 -2.86558 0
M  V30 6010 H 578.708 3.55788 -1.11666 0
M  V30 6011 N 580.893 1.08022 1.14757 0
M  V30 6012 C 581.841 0.701088 2.21783 0
M  V30 6013 C 582.835 -0.291311 1.66876 0
M  V30 6014 O 584.041 -0.154296 1.79337 0
M  V30 6015 H 580.416 0.208668 0.722469 0
M  V30 6016 H 582.387 1.61321 2.51034 0
M  V30 6017 C 581.136 0.122278 3.47485 0
M  V30 6018 H 580.459 0.877065 3.90061 0
M  V30 6019 H 581.899 -0.105248 4.23869 0
M  V30 6020 C 580.358 -1.13883 3.17068 0
M  V30 6021 O 580.888 -2.22429 3.34497 0
M  V30 6022 N 579.094 -1.04767 2.71058 0
M  V30 6023 H 578.641 -0.164302 2.57075 0
M  V30 6024 H 578.599 -1.89224 2.51081 0
M  V30 6025 N 582.371 -1.3172 0.865308 0
M  V30 6026 C 583.619 -1.96487 0.472995 0
M  V30 6027 C 583.94 -1.68761 -0.976975 0
M  V30 6028 O 583.21 -1.00051 -1.68424 0
M  V30 6029 H 581.79 -0.726947 0.171922 0
M  V30 6030 H 584.452 -1.60612 1.10407 0
M  V30 6031 H 583.548 -3.0574 0.62687 0
M  V30 6032 N 583.85 -0.624285 -1.44708 0
M  V30 6033 C 584.782 0.12305 -2.28869 0
M  V30 6034 C 585.795 0.81557 -1.40898 0
M  V30 6035 O 586.984 0.678162 -1.65116 0
M  V30 6036 C 584.084 1.19612 -3.1709 0
M  V30 6037 C 583.257 0.587452 -4.33437 0
M  V30 6038 C 582.316 1.55358 -5.02743 0
M  V30 6039 O 581.341 1.07338 -5.58988 0
M  V30 6040 N 582.543 2.88798 -5.03563 0
M  V30 6041 H 585.308 -0.599193 -2.93649 0
M  V30 6042 H 582.87 -0.464954 -1.5508 0
M  V30 6043 H 584.861 1.84261 -3.60319 0
M  V30 6044 H 583.432 1.82067 -2.54107 0
M  V30 6045 H 582.652 -0.237509 -3.93484 0
M  V30 6046 H 583.94 0.161326 -5.08544 0
M  V30 6047 H 583.338 3.30399 -4.59188 0
M  V30 6048 H 581.894 3.48826 -5.50603 0
M  V30 6049 N 585.328 1.53329 -0.364422 0
M  V30 6050 C 586.739 1.86345 0.115039 0
M  V30 6051 C 587.09 1.28505 1.4826 0
M  V30 6052 O 586.215 0.606639 2.07723 0
M  V30 6053 C 586.81 3.38114 0.215522 0
M  V30 6054 C 585.369 3.70932 0.639237 0
M  V30 6055 C 584.516 2.76471 -0.214261 0
M  V30 6056 H 587.467 1.47593 -0.583258 0
M  V30 6057 H 587.488 3.66031 1.0393 0
M  V30 6058 H 587 3.80182 -0.779948 0
M  V30 6059 H 585.101 3.3442 1.64298 0
M  V30 6060 H 585.214 4.77302 0.41465 0
M  V30 6061 H 583.578 2.52724 0.316678 0
M  V30 6062 H 584.361 3.21373 -1.20725 0
M  V30 6063 N 586.806 0.0935595 1.57322 0
M  V30 6064 C 587.716 -0.880192 2.17462 0
M  V30 6065 C 588.732 -1.31135 1.14366 0
M  V30 6066 O 589.908 -1.37958 1.46729 0
M  V30 6067 C 586.973 -2.12184 2.74188 0
M  V30 6068 C 586.034 -1.74503 3.92234 0
M  V30 6069 C 585.267 -2.92748 4.46245 0
M  V30 6070 O 585.49 -4.07427 3.99198 0
M  V30 6071 O 584.424 -2.71303 5.37288 0
M  V30 6072 H 588.25 -0.398516 3.01074 0
M  V30 6073 H 585.835 -0.130707 1.48827 0
M  V30 6074 H 587.717 -2.84953 3.10451 0
M  V30 6075 H 586.392 -2.59407 1.93623 0
M  V30 6076 H 585.299 -0.989186 3.60785 0
M  V30 6077 H 586.632 -1.32044 4.74157 0
M  V30 6078 N 588.284 -1.56567 -0.180126 0
M  V30 6079 C 589.232 -1.96632 -1.24251 0
M  V30 6080 C 590.226 -0.853818 -1.46309 0
M  V30 6081 O 591.432 -1.0389 -1.46993 0
M  V30 6082 H 587.807 -0.625476 -0.417473 0
M  V30 6083 H 589.778 -2.85201 -0.877679 0
M  V30 6084 C 588.527 -2.33486 -2.57642 0
M  V30 6085 H 587.85 -3.18626 -2.4149 0
M  V30 6086 H 589.29 -2.65371 -3.30688 0
M  V30 6087 C 587.749 -1.17499 -3.15746 0
M  V30 6088 O 588.279 -0.457956 -3.99081 0
M  V30 6089 N 586.485 -0.94786 -2.74707 0
M  V30 6090 H 586.032 -1.53269 -2.07042 0
M  V30 6091 H 585.99 -0.173626 -3.1392 0
M  V30 6092 N 589.762 0.448376 -1.51087 0
M  V30 6093 C 590.71 1.56407 -1.72161 0
M  V30 6094 C 591.704 1.58878 -0.587721 0
M  V30 6095 O 592.91 1.62755 -0.768822 0
M  V30 6096 H 589.285 0.519423 -0.543786 0
M  V30 6097 H 591.256 1.35803 -2.65707 0
M  V30 6098 C 590.005 2.94163 -1.85373 0
M  V30 6099 H 589.328 2.9299 -2.72024 0
M  V30 6100 H 590.768 3.71625 -2.04135 0
M  V30 6101 C 589.227 3.31317 -0.610803 0
M  V30 6102 O 589.757 4.00985 0.239636 0
M  V30 6103 N 587.963 2.86966 -0.458127 0
M  V30 6104 H 587.51 2.30443 -1.15124 0
M  V30 6105 H 587.468 3.12188 0.372289 0
M  V30 6106 N 591.24 1.41047 0.703093 0
M  V30 6107 C 592.47 1.43133 1.48985 0
M  V30 6108 C 592.878 0.0328537 1.89171 0
M  V30 6109 O 592.221 -0.956469 1.56835 0
M  V30 6110 C 592.283 2.26991 2.78775 0
M  V30 6111 C 591.947 3.7525 2.60837 0
M  V30 6112 C 592.944 4.67591 2.27276 0
M  V30 6113 C 590.629 4.19208 2.76712 0
M  V30 6114 C 592.623 6.01877 2.09817 0
M  V30 6115 C 590.31 5.53561 2.5887 0
M  V30 6116 C 591.308 6.4471 2.25472 0
M  V30 6117 O 590.996 7.76584 2.07778 0
M  V30 6118 H 590.728 0.489788 0.465922 0
M  V30 6119 H 593.282 1.85886 0.873822 0
M  V30 6120 H 591.512 1.79038 3.42757 0
M  V30 6121 H 593.201 2.20867 3.40547 0
M  V30 6122 H 593.967 4.34923 2.14633 0
M  V30 6123 H 589.846 3.48572 3.01693 0
M  V30 6124 H 593.39 6.72986 1.83671 0
M  V30 6125 H 589.287 5.85811 2.71102 0
M  V30 6126 H 590.055 7.87649 2.22601 0
M  V30 6127 N 592.718 -0.936591 1.26751 0
M  V30 6128 C 593.665 -2.03597 1.08706 0
M  V30 6129 C 594.635 -1.66097 -0.00926542 0
M  V30 6130 O 595.82 -1.90199 0.151377 0
M  V30 6131 C 592.96 -3.3727 0.73094 0
M  V30 6132 C 592.073 -3.87778 1.90399 0
M  V30 6133 C 591.208 -5.09859 1.49056 0
M  V30 6134 C 590.247 -5.5264 2.63164 0
M  V30 6135 N 589.384 -6.65921 2.22471 0
M  V30 6136 H 594.224 -2.18364 2.02784 0
M  V30 6137 H 591.761 -1.06985 1.00958 0
M  V30 6138 H 593.719 -4.14128 0.505328 0
M  V30 6139 H 592.349 -3.22337 -0.172868 0
M  V30 6140 H 591.401 -3.07279 2.2424 0
M  V30 6141 H 592.713 -4.15464 2.76028 0
M  V30 6142 H 591.867 -5.9419 1.22567 0
M  V30 6143 H 590.606 -4.8393 0.60524 0
M  V30 6144 H 589.611 -4.66863 2.90377 0
M  V30 6145 H 590.836 -5.80568 3.52303 0
M  V30 6146 H 588.782 -6.41667 1.36379 0
M  V30 6147 H 588.699 -6.93216 3.01641 0
M  V30 6148 H 589.967 -7.53616 1.99205 0
M  V30 6149 N 594.196 -1.08629 -1.14182 0
M  V30 6150 C 595.424 -0.838889 -1.8913 0
M  V30 6151 C 595.839 0.609153 -1.78703 0
M  V30 6152 O 595.196 1.41876 -1.14794 0
M  V30 6153 C 595.247 -1.25477 -3.39025 0
M  V30 6154 O 594.968 -2.64601 -3.49167 0
M  V30 6155 C 596.469 -1.03856 -4.30963 0
M  V30 6156 H 593.689 -0.302377 -0.599007 0
M  V30 6157 H 596.233 -1.44615 -1.44592 0
M  V30 6158 H 594.388 -0.691571 -3.81177 0
M  V30 6159 H 594.802 -2.81922 -4.42289 0
M  V30 6160 H 596.276 -1.37892 -5.345 0
M  V30 6161 H 596.753 0.0242522 -4.39193 0
M  V30 6162 H 597.359 -1.58731 -3.94569 0
M  V30 6163 N 595.674 1.31259 -0.872281 0
M  V30 6164 C 596.902 2.00795 -0.498907 0
M  V30 6165 C 597.317 1.65464 0.909238 0
M  V30 6166 O 596.674 0.885073 1.59602 0
M  V30 6167 C 596.725 3.55625 -0.649092 0
M  V30 6168 O 596.446 3.89692 -2.00179 0
M  V30 6169 C 597.947 4.42434 -0.277034 0
M  V30 6170 H 595.167 0.642299 -0.194145 0
M  V30 6171 H 597.711 1.67438 -1.17408 0
M  V30 6172 H 595.866 3.87394 -0.0214402 0
M  V30 6173 H 596.28 4.84407 -2.01122 0
M  V30 6174 H 597.754 5.50299 -0.433064 0
M  V30 6175 H 598.231 4.32146 0.783989 0
M  V30 6176 H 598.837 4.16086 -0.880483 0
M  V30 6177 N 597.152 0.631951 1.44375 0
M  V30 6178 C 598.563 0.219036 1.85411 0
M  V30 6179 C 598.914 -1.22974 1.52879 0
M  V30 6180 O 598.039 -1.93579 0.967266 0
M  V30 6181 C 598.634 0.39075 3.36539 0
M  V30 6182 C 597.193 0.0323351 3.76386 0
M  V30 6183 C 596.34 0.703744 2.68221 0
M  V30 6184 H 599.291 0.837056 1.3483 0
M  V30 6185 H 599.312 -0.370056 3.78696 0
M  V30 6186 H 598.824 1.44527 3.60185 0
M  V30 6187 H 596.925 -1.02042 3.58355 0
M  V30 6188 H 597.038 0.442969 4.77048 0
M  V30 6189 H 595.402 0.138974 2.54321 0
M  V30 6190 H 596.185 1.76088 2.947 0
M  V30 6191 N 598.631 -1.53133 0.372548 0
M  V30 6192 C 600.042 -1.86404 -0.105155 0
M  V30 6193 C 600.393 -1.29289 -1.47576 0
M  V30 6194 O 599.518 -0.617646 -2.07398 0
M  V30 6195 C 600.113 -3.38223 -0.197588 0
M  V30 6196 C 598.672 -3.71266 -0.619556 0
M  V30 6197 C 597.819 -2.76353 0.228919 0
M  V30 6198 H 600.77 -1.47282 0.591077 0
M  V30 6199 H 600.791 -3.66577 -1.01987 0
M  V30 6200 H 600.303 -3.79763 0.800099 0
M  V30 6201 H 598.404 -3.35287 -1.62522 0
M  V30 6202 H 598.517 -4.77515 -0.389332 0
M  V30 6203 H 596.881 -2.52888 -0.303271 0
M  V30 6204 H 597.664 -3.20728 1.22428 0
M  V30 6205 N 600.109 -0.101901 -1.5727 0
M  V30 6206 C 601.355 0.561027 -1.94885 0
M  V30 6207 C 601.688 1.6741 -0.984258 0
M  V30 6208 O 600.963 1.94491 -0.0184767 0
M  V30 6209 C 601.246 1.10982 -3.42571 0
M  V30 6210 C 601.099 0.00133418 -4.498 0
M  V30 6211 C 602.418 2.00608 -3.9172 0
M  V30 6212 H 599.537 0.202467 -0.708644 0
M  V30 6213 H 602.179 -0.173992 -1.89202 0
M  V30 6214 H 600.329 1.73621 -3.47546 0
M  V30 6215 H 602.001 -0.63322 -4.56933 0
M  V30 6216 H 600.244 -0.664143 -4.28686 0
M  V30 6217 H 600.915 0.426253 -5.50352 0
M  V30 6218 H 603.391 1.47864 -3.88941 0
M  V30 6219 H 602.267 2.3593 -4.95609 0
M  V30 6220 H 602.528 2.92608 -3.3141 0
M  V30 6221 N 601.587 1.56661 0.17182 0
M  V30 6222 C 602.517 1.99401 1.21498 0
M  V30 6223 C 603.498 0.869516 1.46197 0
M  V30 6224 O 604.683 1.13556 1.57539 0
M  V30 6225 C 601.813 2.35346 2.55401 0
M  V30 6226 C 600.767 3.5075 2.45272 0
M  V30 6227 C 600.093 3.72437 3.8366 0
M  V30 6228 C 601.393 4.84216 1.95787 0
M  V30 6229 H 603.087 2.86792 0.859699 0
M  V30 6230 H 600.633 1.37977 0.412103 0
M  V30 6231 H 602.586 2.63843 3.2858 0
M  V30 6232 H 601.31 1.44864 2.92715 0
M  V30 6233 H 599.969 3.2238 1.74547 0
M  V30 6234 H 599.617 2.79246 4.18367 0
M  V30 6235 H 599.317 4.50087 3.77751 0
M  V30 6236 H 600.841 4.03334 4.58426 0
M  V30 6237 H 602.255 5.11592 2.5874 0
M  V30 6238 H 600.652 5.65498 2.00827 0
M  V30 6239 H 601.722 4.76243 0.912159 0
M  V30 6240 N 603.065 -0.440357 1.51323 0
M  V30 6241 C 604.342 -1.20109 1.5438 0
M  V30 6242 C 604.722 -2.08866 0.306303 0
M  V30 6243 O 604.07 -2.1723 -0.708773 0
M  V30 6244 C 604.28 -2.00555 2.8562 0
M  V30 6245 C 605.628 -2.577 3.37455 0
M  V30 6246 O 606.652 -2.10769 2.8715 0
M  V30 6247 O 605.511 -3.43289 4.25224 0
M  V30 6248 H 602.605 -0.546668 0.620551 0
M  V30 6249 H 605.151 -0.449672 1.63634 0
M  V30 6250 H 603.923 -1.35346 3.67147 0
M  V30 6251 H 603.546 -2.82768 2.79514 0
M  V30 6252 N 604.543 -1.41418 -0.695603 0
M  V30 6253 C 605.768 -1.44329 -1.48942 0
M  V30 6254 C 606.193 -0.0501579 -1.88033 0
M  V30 6255 O 605.551 0.946598 -1.54626 0
M  V30 6256 C 605.599 -2.3578 -2.72837 0
M  V30 6257 O 604.703 -1.81482 -3.70322 0
M  V30 6258 H 604.044 -0.489838 -0.44828 0
M  V30 6259 H 606.574 -1.85878 -0.855014 0
M  V30 6260 H 606.584 -2.51654 -3.21145 0
M  V30 6261 H 605.259 -3.37005 -2.43722 0
M  V30 6262 H 603.836 -1.75058 -3.29255 0
M  V30 6263 N 606.021 0.929856 -1.27246 0
M  V30 6264 C 607.298 1.65544 -1.04186 0
M  V30 6265 C 607.678 2.06796 0.424097 0
M  V30 6266 O 607.026 1.80053 1.40688 0
M  V30 6267 C 607.236 2.85912 -2.00138 0
M  V30 6268 C 608.584 3.57305 -2.29387 0
M  V30 6269 O 609.608 2.96036 -1.98094 0
M  V30 6270 O 608.467 4.67688 -2.82719 0
M  V30 6271 H 605.561 0.725473 -0.397011 0
M  V30 6272 H 608.107 0.980583 -1.38501 0
M  V30 6273 H 606.879 2.52403 -2.99013 0
M  V30 6274 H 606.502 3.61118 -1.66371 0
M  V30 6275 N 607.499 1.09233 1.13605 0
M  V30 6276 C 608.747 0.825525 1.84471 0
M  V30 6277 C 609.068 -0.650702 1.83823 0
M  V30 6278 O 608.338 -1.47204 1.29259 0
M  V30 6279 H 606.918 0.3024 0.683054 0
M  V30 6280 H 609.58 1.38006 1.37624 0
M  V30 6281 H 608.676 1.17727 2.89045 0
M  V30 6282 N 608.977 -1.30795 0.87923 0
M  V30 6283 C 610.202 -2.01063 0.508769 0
M  V30 6284 C 610.627 -1.65508 -0.893803 0
M  V30 6285 O 609.985 -0.868616 -1.59138 0
M  V30 6286 C 610.033 -3.54054 0.683991 0
M  V30 6287 O 609.137 -4.11498 -0.272654 0
M  V30 6288 H 608.478 -0.632786 0.201191 0
M  V30 6289 H 611.008 -1.66776 1.18519 0
M  V30 6290 H 611.018 -4.03845 0.580798 0
M  V30 6291 H 609.693 -3.79271 1.70665 0
M  V30 6292 H 608.27 -3.72695 -0.12364 0
M  V30 6293 N 610.455 -0.639598 -1.44038 0
M  V30 6294 C 611.702 -0.14748 -2.01962 0
M  V30 6295 C 612.03 1.23372 -1.50365 0
M  V30 6296 O 611.285 1.8345 -0.681501 0
M  V30 6297 C 611.584 -0.0925348 -3.5728 0
M  V30 6298 C 611.25 -1.41365 -4.28167 0
M  V30 6299 C 609.912 -1.77545 -4.47248 0
M  V30 6300 C 612.264 -2.2853 -4.68427 0
M  V30 6301 C 609.592 -3.00583 -5.03852 0
M  V30 6302 C 611.944 -3.50846 -5.26393 0
M  V30 6303 C 610.608 -3.8724 -5.43692 0
M  V30 6304 H 609.878 -0.0539666 -0.739032 0
M  V30 6305 H 612.525 -0.827599 -1.72694 0
M  V30 6306 H 610.83 0.670987 -3.86012 0
M  V30 6307 H 612.527 0.304891 -3.99839 0
M  V30 6308 H 609.117 -1.1221 -4.13651 0
M  V30 6309 H 613.301 -2.0187 -4.5339 0
M  V30 6310 H 608.557 -3.28846 -5.15432 0
M  V30 6311 H 612.731 -4.18616 -5.56537 0
M  V30 6312 H 610.358 -4.8266 -5.87319 0
M  V30 6313 N 611.933 1.52934 -0.380664 0
M  V30 6314 C 613.18 2.01467 0.204278 0
M  V30 6315 C 613.508 1.26744 1.47533 0
M  V30 6316 O 612.763 0.353723 1.92477 0
M  V30 6317 C 613.062 3.5349 0.527199 0
M  V30 6318 C 612.728 4.46171 -0.651295 0
M  V30 6319 C 611.39 4.71227 -0.974619 0
M  V30 6320 C 613.742 5.00909 -1.44012 0
M  V30 6321 C 611.07 5.4827 -2.08847 0
M  V30 6322 C 613.422 5.7917 -2.5445 0
M  V30 6323 C 612.086 6.02507 -2.87301 0
M  V30 6324 H 611.356 0.73722 0.0747504 0
M  V30 6325 H 614.003 1.84411 -0.516234 0
M  V30 6326 H 612.308 3.68574 1.32892 0
M  V30 6327 H 614.005 3.88529 0.992283 0
M  V30 6328 H 610.595 4.26829 -0.389276 0
M  V30 6329 H 614.779 4.81485 -1.20357 0
M  V30 6330 H 610.035 5.64567 -2.34679 0
M  V30 6331 H 614.209 6.20588 -3.1598 0
M  V30 6332 H 611.836 6.61989 -3.7373 0
M  V30 6333 N 613.412 0.11024 1.57214 0
M  V30 6334 C 614.342 -0.840002 2.17867 0
M  V30 6335 C 615.323 -1.28352 1.11624 0
M  V30 6336 O 616.508 -1.3477 1.39824 0
M  V30 6337 C 613.638 -2.09349 2.77111 0
M  V30 6338 C 612.592 -1.78807 3.8886 0
M  V30 6339 C 611.918 -3.11112 4.34872 0
M  V30 6340 C 613.218 -1.0632 5.11364 0
M  V30 6341 H 614.912 -0.334608 2.97524 0
M  V30 6342 H 612.458 -0.159502 1.43114 0
M  V30 6343 H 614.411 -2.76275 3.18198 0
M  V30 6344 H 613.135 -2.62198 1.9473 0
M  V30 6345 H 611.794 -1.14273 3.48335 0
M  V30 6346 H 611.442 -3.61877 3.49362 0
M  V30 6347 H 611.142 -2.91453 5.10224 0
M  V30 6348 H 612.666 -3.79171 4.78604 0
M  V30 6349 H 614.08 -1.63383 5.49526 0
M  V30 6350 H 612.477 -0.967876 5.92243 0
M  V30 6351 H 613.547 -0.0484569 4.84876 0
M  V30 6352 N 614.89 -1.56749 -0.16351 0
M  V30 6353 C 616.12 -1.86307 -0.892936 0
M  V30 6354 C 616.528 -0.6945 -1.75992 0
M  V30 6355 O 615.871 0.345384 -1.80424 0
M  V30 6356 C 615.933 -3.10372 -1.81409 0
M  V30 6357 C 615.597 -4.42913 -1.12593 0
M  V30 6358 C 616.594 -5.17608 -0.487661 0
M  V30 6359 C 614.279 -4.89646 -1.12035 0
M  V30 6360 C 616.273 -6.3723 0.14699 0
M  V30 6361 C 613.96 -6.09197 -0.481883 0
M  V30 6362 C 614.958 -6.82834 0.150678 0
M  V30 6363 O 614.646 -8.00116 0.779065 0
M  V30 6364 H 614.378 -0.622126 -0.264452 0
M  V30 6365 H 616.932 -2.04728 -0.166063 0
M  V30 6366 H 615.162 -2.87917 -2.58148 0
M  V30 6367 H 616.851 -3.26312 -2.41403 0
M  V30 6368 H 617.617 -4.8258 -0.483888 0
M  V30 6369 H 613.496 -4.32265 -1.60212 0
M  V30 6370 H 617.04 -6.94646 0.641325 0
M  V30 6371 H 612.937 -6.43688 -0.483266 0
M  V30 6372 H 613.705 -8.15678 0.679089 0
M  V30 6373 N 616.368 0.432326 -1.51554 0
M  V30 6374 C 617.593 1.20824 -1.68571 0
M  V30 6375 C 618.018 1.84126 -0.384596 0
M  V30 6376 O 617.376 1.69025 0.655751 0
M  V30 6377 C 617.424 2.26429 -2.80646 0
M  V30 6378 O 616.528 3.32032 -2.44598 0
M  V30 6379 H 615.869 0.353765 -0.561913 0
M  V30 6380 H 618.399 0.509916 -1.98144 0
M  V30 6381 H 618.409 2.71133 -3.04878 0
M  V30 6382 H 617.084 1.79733 -3.75058 0
M  V30 6383 H 615.661 2.92769 -2.30956 0
M  V30 6384 N 617.846 1.41785 0.688094 0
M  V30 6385 C 618.793 1.44221 1.80191 0
M  V30 6386 C 619.763 0.295688 1.63447 0
M  V30 6387 O 620.948 0.49783 1.84191 0
M  V30 6388 C 618.088 1.33743 3.1813 0
M  V30 6389 C 617.201 2.58325 3.46254 0
M  V30 6390 C 616.336 2.40086 4.73848 0
M  V30 6391 C 615.375 3.60107 4.94964 0
M  V30 6392 N 614.512 3.40892 6.13789 0
M  V30 6393 H 619.352 2.39411 1.77444 0
M  V30 6394 H 616.889 1.18876 0.866423 0
M  V30 6395 H 618.847 1.25669 3.97823 0
M  V30 6396 H 617.477 0.42157 3.20035 0
M  V30 6397 H 616.529 2.7682 2.60912 0
M  V30 6398 H 617.841 3.4758 3.57756 0
M  V30 6399 H 616.995 2.29522 5.61609 0
M  V30 6400 H 615.734 1.483 4.64606 0
M  V30 6401 H 614.739 3.71118 4.05649 0
M  V30 6402 H 615.964 4.52857 5.06061 0
M  V30 6403 H 613.91 2.51812 6.05745 0
M  V30 6404 H 613.827 4.23727 6.26092 0
M  V30 6405 H 615.095 3.34114 7.04264 0
M  V30 6406 N 619.324 -0.923095 1.27737 0
M  V30 6407 C 620.254 -2.04124 1.13383 0
M  V30 6408 C 621.235 -1.70066 0.0340658 0
M  V30 6409 O 622.42 -1.93068 0.209383 0
M  V30 6410 C 619.55 -3.3831 0.785097 0
M  V30 6411 C 618.504 -3.86496 1.8386 0
M  V30 6412 C 617.83 -5.1754 1.34373 0
M  V30 6413 C 619.13 -4.09381 3.24353 0
M  V30 6414 H 620.824 -2.1639 2.06919 0
M  V30 6415 H 618.37 -1.03976 0.996243 0
M  V30 6416 H 620.323 -4.16016 0.671485 0
M  V30 6417 H 619.047 -3.2607 -0.185969 0
M  V30 6418 H 617.706 -3.10987 1.9412 0
M  V30 6419 H 617.354 -5.01696 0.361989 0
M  V30 6420 H 617.054 -5.50751 2.04811 0
M  V30 6421 H 618.578 -5.97811 1.24315 0
M  V30 6422 H 619.992 -4.77641 3.17067 0
M  V30 6423 H 618.389 -4.53906 3.92542 0
M  V30 6424 H 619.459 -3.14515 3.69064 0
M  V30 6425 N 620.802 -1.09834 -1.13024 0
M  V30 6426 C 622.03 -0.858902 -1.8823 0
M  V30 6427 C 622.445 0.590164 -1.79339 0
M  V30 6428 O 621.802 1.4065 -1.16292 0
M  V30 6429 C 621.853 -1.29066 -3.37675 0
M  V30 6430 O 621.574 -2.6829 -3.46341 0
M  V30 6431 C 623.075 -1.08421 -4.29837 0
M  V30 6432 H 620.295 -0.308713 -0.595766 0
M  V30 6433 H 622.839 -1.4614 -1.4305 0
M  V30 6434 H 620.994 -0.731961 -3.80422 0
M  V30 6435 H 621.408 -2.86598 -4.39274 0
M  V30 6436 H 622.882 -1.43553 -5.33007 0
M  V30 6437 H 623.359 -0.0223315 -4.39194 0
M  V30 6438 H 623.965 -1.62907 -3.92863 0
M  V30 6439 N 622.28 1.30327 -0.886154 0
M  V30 6440 C 623.526 1.96388 -0.505941 0
M  V30 6441 C 623.859 1.69784 0.942712 0
M  V30 6442 O 623.134 1.00322 1.6663 0
M  V30 6443 C 623.417 3.51488 -0.782826 0
M  V30 6444 C 623.27 3.87603 -2.28219 0
M  V30 6445 C 624.589 4.39331 -0.260128 0
M  V30 6446 H 621.708 0.713327 -0.185292 0
M  V30 6447 H 624.35 1.54178 -1.11036 0
M  V30 6448 H 622.5 3.87572 -0.268399 0
M  V30 6449 H 624.172 3.61537 -2.86512 0
M  V30 6450 H 622.415 3.3563 -2.74837 0
M  V30 6451 H 623.086 4.95806 -2.42653 0
M  V30 6452 H 625.562 4.10162 -0.700444 0
M  V30 6453 H 624.438 5.46769 -0.483179 0
M  V30 6454 H 624.699 4.34072 0.838674 0
M  V30 6455 N 623.758 0.647228 1.43697 0
M  V30 6456 C 625.035 0.0883758 1.954 0
M  V30 6457 C 625.415 -1.39006 1.58873 0
M  V30 6458 O 624.763 -2.11255 0.87083 0
M  V30 6459 C 624.973 0.328263 3.47453 0
M  V30 6460 C 626.321 0.230009 4.23977 0
M  V30 6461 O 627.345 0.260496 3.55246 0
M  V30 6462 O 626.204 0.148615 5.46298 0
M  V30 6463 H 623.298 -0.0130683 0.826897 0
M  V30 6464 H 625.844 0.72005 1.53666 0
M  V30 6465 H 624.616 1.3535 3.67146 0
M  V30 6466 H 624.239 -0.336772 3.96171 0
M  V30 6467 N 625.236 -1.5273 0.388769 0
M  V30 6468 C 626.183 -2.26437 -0.446639 0
M  V30 6469 C 627.153 -1.28025 -1.05824 0
M  V30 6470 O 628.338 -1.56852 -1.08637 0
M  V30 6471 C 625.478 -3.07407 -1.56828 0
M  V30 6472 C 624.591 -4.20747 -0.979589 0
M  V30 6473 C 623.726 -4.89113 -2.07224 0
M  V30 6474 C 622.765 -5.94447 -1.45942 0
M  V30 6475 N 621.902 -6.56411 -2.49135 0
M  V30 6476 H 626.742 -2.97404 0.18837 0
M  V30 6477 H 624.279 -1.46727 0.104725 0
M  V30 6478 H 626.237 -3.52642 -2.22934 0
M  V30 6479 H 624.867 -2.3865 -2.17361 0
M  V30 6480 H 623.919 -3.7983 -0.208151 0
M  V30 6481 H 625.231 -4.9637 -0.491747 0
M  V30 6482 H 624.385 -5.3765 -2.81101 0
M  V30 6483 H 623.124 -4.13013 -2.59368 0
M  V30 6484 H 622.129 -5.4525 -0.705894 0
M  V30 6485 H 623.354 -6.7248 -0.945932 0
M  V30 6486 H 621.3 -5.83152 -3.00449 0
M  V30 6487 H 621.217 -7.27645 -2.05105 0
M  V30 6488 H 622.485 -7.09592 -3.22644 0
M  V30 6489 N 626.714 -0.118576 -1.57153 0
M  V30 6490 C 627.939 0.550582 -1.99958 0
M  V30 6491 C 628.364 1.59458 -0.997736 0
M  V30 6492 O 627.722 1.81274 0.0306269 0
M  V30 6493 C 627.77 1.15379 -3.41643 0
M  V30 6494 O 626.874 2.26932 -3.44348 0
M  V30 6495 H 626.215 0.137567 -0.649593 0
M  V30 6496 H 628.745 -0.206926 -2.03551 0
M  V30 6497 H 628.755 1.48942 -3.79843 0
M  V30 6498 H 627.43 0.389087 -4.14076 0
M  V30 6499 H 626.007 1.94812 -3.17967 0
M  V30 6500 N 628.193 1.56834 0.155195 0
M  V30 6501 C 629.609 1.51315 0.50755 0
M  V30 6502 C 629.809 0.825614 1.83809 0
M  V30 6503 O 628.865 0.39271 2.49427 0
M  V30 6504 C 630.178 2.96074 0.52542 0
M  V30 6505 C 631.726 3.06968 0.611505 0
M  V30 6506 C 632.201 4.53218 0.660115 0
M  V30 6507 N 633.692 4.5753 0.722564 0
M  V30 6508 C 634.427 5.68056 0.781023 0
M  V30 6509 N 633.923 6.88173 0.799327 0
M  V30 6510 N 635.716 5.56068 0.821278 0
M  V30 6511 H 627.867 1.9993 -0.717063 0
M  V30 6512 H 630.13 0.911507 -0.260496 0
M  V30 6513 H 629.836 3.49599 -0.383875 0
M  V30 6514 H 629.71 3.51587 1.36624 0
M  V30 6515 H 632.097 2.53468 1.51122 0
M  V30 6516 H 632.178 2.54513 -0.256306 0
M  V30 6517 H 631.822 5.07354 -0.23541 0
M  V30 6518 H 631.752 5.03447 1.5443 0
M  V30 6519 H 634.243 3.71054 0.716049 0
M  V30 6520 H 634.556 7.6816 0.845553 0
M  V30 6521 H 632.901 6.90751 0.767337 0
M  V30 6522 H 636.092 4.61142 0.804091 0
M  V30 6523 H 636.265 6.42223 0.863372 0
M  V30 6524 N 629.671 -0.424282 1.51781 0
M  V30 6525 C 630.917 -1.17117 1.66298 0
M  V30 6526 C 631.272 -1.88595 0.380767 0
M  V30 6527 O 630.565 -1.81151 -0.624094 0
M  V30 6528 C 630.759 -2.20418 2.81337 0
M  V30 6529 C 630.588 -1.59081 4.20622 0
M  V30 6530 C 629.358 -1.37007 4.86371 0
M  V30 6531 C 631.556 -1.05992 5.0326 0
M  V30 6532 N 629.538 -0.714049 6.09733 0
M  V30 6533 C 630.909 -0.529933 6.17731 0
M  V30 6534 C 632.964 -0.952927 4.88696 0
M  V30 6535 C 631.667 0.0965457 7.19235 0
M  V30 6536 C 633.693 -0.340325 5.9042 0
M  V30 6537 C 633.055 0.179057 7.04172 0
M  V30 6538 H 629.154 -0.41577 0.662314 0
M  V30 6539 H 631.738 -0.46579 1.89046 0
M  V30 6540 H 629.909 -2.8833 2.60231 0
M  V30 6541 H 631.641 -2.8736 2.84968 0
M  V30 6542 H 628.396 -1.63543 4.44467 0
M  V30 6543 H 628.82 -0.403101 6.75799 0
M  V30 6544 H 633.462 -1.34033 4.00993 0
M  V30 6545 H 631.18 0.496044 8.06576 0
M  V30 6546 H 634.766 -0.259266 5.81222 0
M  V30 6547 H 633.646 0.645626 7.81538 0
M  V30 6548 N 631.149 -1.42148 -0.680565 0
M  V30 6549 C 632.081 -1.41119 -1.80605 0
M  V30 6550 C 633.094 -0.311099 -1.598 0
M  V30 6551 O 634.283 -0.573813 -1.69026 0
M  V30 6552 C 631.383 -1.18204 -3.17618 0
M  V30 6553 C 630.556 -2.40537 -3.65322 0
M  V30 6554 C 629.615 -2.13254 -4.8105 0
M  V30 6555 O 628.641 -2.8641 -4.91892 0
M  V30 6556 N 629.843 -1.13208 -5.69354 0
M  V30 6557 H 632.608 -2.38128 -1.81975 0
M  V30 6558 H 630.169 -1.36953 -0.863446 0
M  V30 6559 H 632.161 -0.97878 -3.92686 0
M  V30 6560 H 630.731 -0.29738 -3.11182 0
M  V30 6561 H 629.951 -2.76468 -2.80996 0
M  V30 6562 H 631.239 -3.22012 -3.93936 0
M  V30 6563 H 630.637 -0.526893 -5.63241 0
M  V30 6564 H 629.194 -0.988699 -6.44258 0
M  V30 6565 N 632.627 0.916307 -1.28225 0
M  V30 6566 C 633.559 2.02303 -1.07732 0
M  V30 6567 C 634.572 1.62773 -0.0298421 0
M  V30 6568 O 635.761 1.76406 -0.272626 0
M  V30 6569 C 632.861 3.33282 -0.614504 0
M  V30 6570 C 632.034 4.01439 -1.73682 0
M  V30 6571 C 631.093 5.10698 -1.26781 0
M  V30 6572 O 630.119 5.34038 -1.96958 0
M  V30 6573 N 631.321 5.80355 -0.129624 0
M  V30 6574 H 634.086 2.20442 -2.03041 0
M  V30 6575 H 631.647 1.08744 -1.19943 0
M  V30 6576 H 633.639 4.03699 -0.284397 0
M  V30 6577 H 632.209 3.11633 0.245664 0
M  V30 6578 H 631.429 3.24604 -2.23665 0
M  V30 6579 H 632.717 4.43721 -2.48976 0
M  V30 6580 H 632.115 5.6386 0.455847 0
M  V30 6581 H 630.672 6.51647 0.141224 0
M  V30 6582 N 634.105 1.10431 1.1244 0
M  V30 6583 C 635.353 0.845045 1.83585 0
M  V30 6584 C 635.674 -0.631168 1.84503 0
M  V30 6585 O 634.944 -1.45825 1.30813 0
M  V30 6586 H 633.524 0.309628 0.679809 0
M  V30 6587 H 636.186 1.39458 1.36153 0
M  V30 6588 H 635.282 1.20786 2.8778 0
M  V30 6589 N 635.583 -1.29855 0.893053 0
M  V30 6590 C 636.531 -2.29867 0.355512 0
M  V30 6591 C 637.525 -1.60502 -0.541801 0
M  V30 6592 O 638.731 -1.74902 -0.425339 0
M  V30 6593 H 635.106 -0.745805 0.0963247 0
M  V30 6594 H 637.077 -2.72655 1.21252 0
M  V30 6595 C 635.826 -3.453 -0.407801 0
M  V30 6596 H 635.149 -3.98864 0.273426 0
M  V30 6597 H 636.589 -4.17334 -0.748887 0
M  V30 6598 C 635.048 -2.96051 -1.60795 0
M  V30 6599 O 635.578 -2.96763 -2.7073 0
M  V30 6600 N 633.784 -2.51963 -1.44786 0
M  V30 6601 H 633.331 -2.51583 -0.553498 0
M  V30 6602 H 633.289 -2.1937 -2.2522 0
M  V30 6603 N 637.061 -0.65484 -1.43351 0
M  V30 6604 C 638.307 -0.169142 -2.02093 0
M  V30 6605 C 638.64 1.21431 -1.51553 0
M  V30 6606 O 637.915 1.81105 -0.709317 0
M  V30 6607 C 638.198 -0.181775 -3.59641 0
M  V30 6608 C 638.051 -1.59926 -4.20409 0
M  V30 6609 C 639.37 0.480945 -4.37464 0
M  V30 6610 H 636.489 -0.0629371 -0.734308 0
M  V30 6611 H 639.131 -0.835833 -1.70628 0
M  V30 6612 H 637.281 0.385918 -3.86578 0
M  V30 6613 H 638.953 -2.21766 -4.04497 0
M  V30 6614 H 637.196 -2.14605 -3.76998 0
M  V30 6615 H 637.867 -1.55994 -5.295 0
M  V30 6616 H 640.343 -0.00208273 -4.161 0
M  V30 6617 H 639.219 0.441384 -5.47122 0
M  V30 6618 H 639.48 1.55533 -4.13838 0
M  V30 6619 N 638.539 1.52521 -0.396863 0
M  V30 6620 C 639.786 2.01672 0.182898 0
M  V30 6621 C 640.114 1.28302 1.46181 0
M  V30 6622 O 639.369 0.374118 1.92091 0
M  V30 6623 C 639.668 3.5403 0.489677 0
M  V30 6624 C 639.334 4.45456 -0.698581 0
M  V30 6625 C 637.996 4.70166 -1.02454 0
M  V30 6626 C 640.348 4.99354 -1.49316 0
M  V30 6627 C 637.676 5.46024 -2.1465 0
M  V30 6628 C 640.028 5.76439 -2.60579 0
M  V30 6629 C 638.692 5.99426 -2.93675 0
M  V30 6630 H 637.962 0.737971 0.066927 0
M  V30 6631 H 640.609 1.83853 -0.535764 0
M  V30 6632 H 638.914 3.69963 1.28976 0
M  V30 6633 H 640.611 3.8956 0.951018 0
M  V30 6634 H 637.201 4.26392 -0.434525 0
M  V30 6635 H 641.385 4.80182 -1.25457 0
M  V30 6636 H 636.641 5.62046 -2.40654 0
M  V30 6637 H 640.815 6.17202 -3.22544 0
M  V30 6638 H 638.442 6.57988 -3.80731 0
M  V30 6639 N 640.017 0.126909 1.57088 0
M  V30 6640 C 641.242 -0.53997 2.00248 0
M  V30 6641 C 641.667 -1.58927 1.00618 0
M  V30 6642 O 641.025 -1.81288 -0.0210131 0
M  V30 6643 C 641.073 -1.13565 3.4225 0
M  V30 6644 O 640.177 -2.25103 3.45547 0
M  V30 6645 H 639.518 -0.13412 0.650314 0
M  V30 6646 H 642.048 0.217718 2.03438 0
M  V30 6647 H 642.058 -1.46925 3.80627 0
M  V30 6648 H 640.733 -0.367122 4.14277 0
M  V30 6649 H 639.31 -1.93123 3.18995 0
M  V30 6650 N 641.495 -1.56914 -0.146875 0
M  V30 6651 C 642.735 -1.85163 -0.86568 0
M  V30 6652 C 643.099 -0.711215 -1.78342 0
M  V30 6653 O 644.3 -0.874754 -2.54168 0
M  V30 6654 C 642.571 -3.18593 -1.61967 0
M  V30 6655 S 644.13 -3.68397 -2.38388 0
M  V30 6656 H 640.948 -0.6494 -0.289483 0
M  V30 6657 H 643.55 -1.95096 -0.125679 0
M  V30 6658 H 642.254 -3.99562 -0.93694 0
M  V30 6659 H 641.785 -3.11666 -2.40058 0
M  V30 6660 H 643.8 -3.37672 -3.63582 0
M  V30 6661 N 642.974 0.416227 -1.52004 0
M  V30 6662 C 644.199 1.19029 -1.69843 0
M  V30 6663 C 644.624 1.83708 -0.404103 0
M  V30 6664 O 643.982 1.69711 0.637787 0
M  V30 6665 C 644.03 2.23439 -2.83032 0
M  V30 6666 O 643.134 3.29419 -2.48106 0
M  V30 6667 H 642.475 0.347785 -0.565634 0
M  V30 6668 H 645.005 0.488871 -1.98674 0
M  V30 6669 H 645.015 2.67884 -3.07737 0
M  V30 6670 H 643.69 1.75745 -3.76944 0
M  V30 6671 H 642.267 2.90303 -2.34048 0
M  V30 6672 N 644.452 1.42507 0.673017 0
M  V30 6673 C 645.698 1.43284 1.43519 0
M  V30 6674 C 646.031 0.049668 1.94136 0
M  V30 6675 O 645.306 -0.926369 1.71022 0
M  V30 6676 C 645.589 2.45874 2.63093 0
M  V30 6677 C 645.442 3.93388 2.18096 0
M  V30 6678 C 646.761 2.45431 3.6531 0
M  V30 6679 H 643.88 0.521752 0.520522 0
M  V30 6680 H 646.522 1.73932 0.764701 0
M  V30 6681 H 644.672 2.19869 3.20296 0
M  V30 6682 H 646.344 4.30379 1.66046 0
M  V30 6683 H 644.587 4.07169 1.49652 0
M  V30 6684 H 645.258 4.60752 3.03993 0
M  V30 6685 H 647.734 2.68561 3.17827 0
M  V30 6686 H 646.61 3.19189 4.46553 0
M  V30 6687 H 646.871 1.48092 4.16559 0
M  V30 6688 N 645.93 -0.909495 1.28709 0
M  V30 6689 C 646.863 -2.01388 1.07323 0
M  V30 6690 C 647.841 -1.62596 -0.0119757 0
M  V30 6691 O 649.025 -1.88003 0.136796 0
M  V30 6692 C 646.152 -3.32755 0.631797 0
M  V30 6693 C 645.198 -3.90532 1.71428 0
M  V30 6694 S 646.031 -4.20853 3.31124 0
M  V30 6695 C 647.187 -5.55276 2.88825 0
M  V30 6696 H 647.42 -2.19219 2.00824 0
M  V30 6697 H 644.953 -1.05489 1.12745 0
M  V30 6698 H 646.911 -4.08702 0.38381 0
M  V30 6699 H 645.572 -3.12818 -0.283451 0
M  V30 6700 H 644.765 -4.85385 1.35712 0
M  V30 6701 H 644.367 -3.21237 1.91528 0
M  V30 6702 H 646.659 -6.35341 2.3526 0
M  V30 6703 H 647.602 -5.95907 3.82492 0
M  V30 6704 H 648.01 -5.16666 2.27412 0
M  V30 6705 N 647.408 -1.11026 -1.11852 0
M  V30 6706 C 648.358 -0.733836 -2.15868 0
M  V30 6707 C 649.342 0.26001 -1.58785 0
M  V30 6708 O 650.534 0.0677901 -1.7687 0
M  V30 6709 C 647.663 -0.173948 -3.42859 0
M  V30 6710 C 646.749 -1.1952 -4.0691 0
M  V30 6711 N 647.14 -2.38797 -4.45881 0
M  V30 6712 C 645.438 -1.03714 -4.33773 0
M  V30 6713 C 646.139 -3.03894 -4.96007 0
M  V30 6714 N 645.115 -2.31389 -4.91894 0
M  V30 6715 H 648.917 -1.64171 -2.43773 0
M  V30 6716 H 646.431 -0.988877 -1.28822 0
M  V30 6717 H 648.428 0.113836 -4.16745 0
M  V30 6718 H 647.088 0.728568 -3.16421 0
M  V30 6719 H 648.099 -2.76281 -4.38051 0
M  V30 6720 H 644.776 -0.190694 -4.17064 0
M  V30 6721 H 646.166 -4.05389 -5.35826 0
M  V30 6722 N 648.886 1.2938 -0.899927 0
M  V30 6723 C 649.796 2.31462 -0.382437 0
M  V30 6724 C 650.812 1.65956 0.522929 0
M  V30 6725 O 651.988 1.97131 0.412454 0
M  V30 6726 C 649.053 3.44595 0.381472 0
M  V30 6727 C 648.114 4.25692 -0.555444 0
M  V30 6728 C 647.347 5.33422 0.172102 0
M  V30 6729 O 647.57 5.53053 1.396 0
M  V30 6730 O 646.504 5.99939 -0.485491 0
M  V30 6731 H 650.33 2.77706 -1.22934 0
M  V30 6732 H 647.915 1.33821 -0.664259 0
M  V30 6733 H 649.797 4.13474 0.813442 0
M  V30 6734 H 648.472 3.00458 1.20443 0
M  V30 6735 H 647.379 3.59453 -1.03653 0
M  V30 6736 H 648.712 4.73471 -1.34483 0
M  V30 6737 N 650.364 0.662433 1.43002 0
M  V30 6738 C 651.327 -0.0142016 2.29196 0
M  V30 6739 C 652.327 -0.741394 1.42688 0
M  V30 6740 O 653.517 -0.581257 1.64216 0
M  V30 6741 C 650.649 -1.03084 3.24941 0
M  V30 6742 H 651.842 0.7443 2.90517 0
M  V30 6743 H 649.395 0.424133 1.50435 0
M  V30 6744 H 650.13 -1.81826 2.68533 0
M  V30 6745 H 649.915 -0.512946 3.8873 0
M  V30 6746 H 651.405 -1.50308 3.89612 0
M  V30 6747 N 651.842 -1.52309 0.404946 0
M  V30 6748 C 652.772 -2.29805 -0.41376 0
M  V30 6749 C 653.753 -1.3384 -1.0498 0
M  V30 6750 O 654.938 -1.62745 -1.05961 0
M  V30 6751 C 652.068 -3.11639 -1.53292 0
M  V30 6752 C 651.022 -4.15616 -1.02211 0
M  V30 6753 C 650.348 -4.8577 -2.23455 0
M  V30 6754 C 651.648 -5.2224 -0.0790725 0
M  V30 6755 H 653.342 -2.98493 0.232878 0
M  V30 6756 H 650.888 -1.43552 0.113441 0
M  V30 6757 H 652.841 -3.64618 -2.11262 0
M  V30 6758 H 651.565 -2.40712 -2.20738 0
M  V30 6759 H 650.224 -3.63641 -0.46484 0
M  V30 6760 H 649.872 -4.11376 -2.89445 0
M  V30 6761 H 649.572 -5.56058 -1.89929 0
M  V30 6762 H 651.096 -5.4156 -2.82038 0
M  V30 6763 H 652.51 -5.70485 -0.567438 0
M  V30 6764 H 650.907 -5.99867 0.167167 0
M  V30 6765 H 651.977 -4.77078 0.867447 0
M  V30 6766 N 653.32 -0.135238 -1.57019 0
M  V30 6767 C 654.27 0.820408 -2.12728 0
M  V30 6768 C 655.254 1.21735 -1.05211 0
M  V30 6769 O 656.446 1.18574 -1.31413 0
M  V30 6770 C 653.575 2.06414 -2.74314 0
M  V30 6771 C 652.661 1.69083 -3.88937 0
M  V30 6772 N 653.052 1.0251 -4.95303 0
M  V30 6773 C 651.35 1.98434 -3.99425 0
M  V30 6774 C 652.051 0.846749 -5.75504 0
M  V30 6775 N 651.027 1.3769 -5.25873 0
M  V30 6776 H 654.829 0.302426 -2.9234 0
M  V30 6777 H 652.343 0.0667009 -1.62263 0
M  V30 6778 H 654.34 2.75863 -3.12579 0
M  V30 6779 H 653 2.58741 -1.96171 0
M  V30 6780 H 654.011 0.687207 -5.1332 0
M  V30 6781 H 650.688 2.52693 -3.32344 0
M  V30 6782 H 652.078 0.322949 -6.71123 0
M  V30 6783 N 654.798 1.5699 0.138552 0
M  V30 6784 C 655.746 1.99858 1.18994 0
M  V30 6785 C 656.74 0.89231 1.43994 0
M  V30 6786 O 657.946 1.0775 1.44187 0
M  V30 6787 H 654.321 0.636325 0.400743 0
M  V30 6788 H 656.292 2.87427 0.801755 0
M  V30 6789 C 655.041 2.40235 2.51361 0
M  V30 6790 H 654.364 3.24917 2.32957 0
M  V30 6791 H 655.804 2.74045 3.23535 0
M  V30 6792 C 654.263 1.25829 3.1252 0
M  V30 6793 O 654.793 0.563604 3.97727 0
M  V30 6794 N 652.999 1.02036 2.72097 0
M  V30 6795 H 652.546 1.58705 2.02905 0
M  V30 6796 H 652.504 0.256796 3.1335 0
M  V30 6797 N 656.276 -0.40816 1.52223 0
M  V30 6798 C 657.226 -1.49648 1.72016 0
M  V30 6799 C 658.21 -1.50311 0.574069 0
M  V30 6800 O 659.402 -1.56271 0.831173 0
M  V30 6801 C 656.531 -2.87566 1.87512 0
M  V30 6802 C 655.617 -2.91547 3.07995 0
M  V30 6803 N 656.008 -2.65225 4.30685 0
M  V30 6804 C 654.306 -3.22715 3.07849 0
M  V30 6805 C 655.007 -2.75799 5.12162 0
M  V30 6806 N 653.983 -3.08719 4.4743 0
M  V30 6807 H 657.785 -1.28093 2.64517 0
M  V30 6808 H 655.299 -0.61588 1.50269 0
M  V30 6809 H 657.296 -3.65899 1.99809 0
M  V30 6810 H 655.956 -3.10118 0.962114 0
M  V30 6811 H 656.967 -2.39601 4.59142 0
M  V30 6812 H 653.644 -3.50856 2.26289 0
M  V30 6813 H 655.034 -2.59155 6.1991 0
M  V30 6814 N 657.755 -1.42862 -0.66545 0
M  V30 6815 C 658.985 -1.47032 -1.45138 0
M  V30 6816 C 659.393 -0.0829977 -1.89018 0
M  V30 6817 O 658.736 0.914551 -1.59316 0
M  V30 6818 C 658.798 -2.34302 -2.72659 0
M  V30 6819 C 658.462 -3.82034 -2.50796 0
M  V30 6820 C 659.459 -4.73453 -2.14799 0
M  V30 6821 C 657.144 -4.26397 -2.655 0
M  V30 6822 C 659.138 -6.07228 -1.93785 0
M  V30 6823 C 656.825 -5.6023 -2.44103 0
M  V30 6824 C 657.823 -6.50462 -2.08299 0
M  V30 6825 O 657.511 -7.8182 -1.87116 0
M  V30 6826 H 657.243 -0.501969 -0.452772 0
M  V30 6827 H 659.797 -1.88137 -0.82423 0
M  V30 6828 H 658.027 -1.88063 -3.37889 0
M  V30 6829 H 659.716 -2.29818 -3.34572 0
M  V30 6830 H 660.482 -4.4046 -2.03026 0
M  V30 6831 H 656.361 -3.56448 -2.92345 0
M  V30 6832 H 659.905 -6.7762 -1.65763 0
M  V30 6833 H 655.802 -5.92793 -2.55475 0
M  V30 6834 H 656.57 -7.93274 -2.01639 0
M  V30 6835 N 659.233 0.902656 -1.29189 0
M  V30 6836 C 660.461 1.68639 -1.19869 0
M  V30 6837 C 660.876 1.87254 0.241121 0
M  V30 6838 O 660.233 1.40745 1.16177 0
M  V30 6839 C 660.284 3.07251 -1.90471 0
M  V30 6840 O 660.005 2.89488 -3.28829 0
M  V30 6841 C 661.506 4.01653 -1.8759 0
M  V30 6842 H 658.726 0.526802 -0.415596 0
M  V30 6843 H 661.27 1.12901 -1.7051 0
M  V30 6844 H 659.425 3.59774 -1.43672 0
M  V30 6845 H 659.839 3.77296 -3.64346 0
M  V30 6846 H 661.313 4.96339 -2.4156 0
M  V30 6847 H 661.79 4.30881 -0.850756 0
M  V30 6848 H 662.396 3.55061 -2.34119 0
M  V30 6849 N 660.711 1.11618 1.11262 0
M  V30 6850 C 661.643 0.734015 2.17129 0
M  V30 6851 C 662.656 -0.235243 1.61091 0
M  V30 6852 O 663.845 -0.0178597 1.78491 0
M  V30 6853 C 660.945 0.0643682 3.38839 0
M  V30 6854 C 660.118 1.06092 4.24339 0
M  V30 6855 C 659.177 0.420482 5.24517 0
M  V30 6856 O 658.203 1.07495 5.58957 0
M  V30 6857 N 659.405 -0.815828 5.74739 0
M  V30 6858 H 662.17 1.64492 2.50524 0
M  V30 6859 H 659.731 1.00664 1.26801 0
M  V30 6860 H 661.723 -0.375851 4.02951 0
M  V30 6861 H 660.293 -0.749147 3.03491 0
M  V30 6862 H 659.513 1.67903 3.56654 0
M  V30 6863 H 660.801 1.73507 4.78302 0
M  V30 6864 H 660.199 -1.36668 5.48943 0
M  V30 6865 H 658.756 -1.199 6.40677 0
M  V30 6866 N 662.189 -1.289 0.906776 0
M  V30 6867 C 663.136 -2.2751 0.388313 0
M  V30 6868 C 664.106 -1.57301 -0.533439 0
M  V30 6869 O 665.291 -1.85243 -0.457148 0
M  V30 6870 C 662.431 -3.43091 -0.37181 0
M  V30 6871 C 661.544 -4.28066 0.581647 0
M  V30 6872 C 660.679 -5.30837 -0.19623 0
M  V30 6873 C 659.718 -6.07472 0.751294 0
M  V30 6874 N 658.855 -7.021 0.00737727 0
M  V30 6875 H 663.695 -2.71237 1.23428 0
M  V30 6876 H 661.232 -1.33397 0.619962 0
M  V30 6877 H 663.19 -4.08888 -0.828641 0
M  V30 6878 H 661.82 -3.00374 -1.18218 0
M  V30 6879 H 660.872 -3.62378 1.157 0
M  V30 6880 H 662.184 -4.81382 1.30665 0
M  V30 6881 H 661.338 -6.02485 -0.71394 0
M  V30 6882 H 660.077 -4.78272 -0.954324 0
M  V30 6883 H 659.082 -5.34682 1.28044 0
M  V30 6884 H 660.307 -6.62126 1.50883 0
M  V30 6885 H 658.253 -6.51894 -0.732854 0
M  V30 6886 H 658.17 -7.53004 0.672334 0
M  V30 6887 H 659.438 -7.77956 -0.490365 0
M  V30 6888 N 663.667 -0.670007 -1.42649 0
M  V30 6889 C 664.892 -0.196955 -2.06463 0
M  V30 6890 C 665.317 1.1352 -1.49983 0
M  V30 6891 O 664.675 1.705 -0.616397 0
M  V30 6892 C 664.723 -0.137381 -3.60338 0
M  V30 6893 O 663.827 0.895523 -4.02559 0
M  V30 6894 H 663.168 -0.102579 -0.656029 0
M  V30 6895 H 665.698 -0.917669 -1.82866 0
M  V30 6896 H 665.708 0.0403625 -4.0798 0
M  V30 6897 H 664.383 -1.10977 -4.0082 0
M  V30 6898 H 662.96 0.689209 -3.66476 0
M  V30 6899 N 665.145 1.52092 -0.413018 0
M  V30 6900 C 666.075 2.30021 0.401567 0
M  V30 6901 C 667.056 1.34395 1.04269 0
M  V30 6902 O 668.241 1.63304 1.05097 0
M  V30 6903 C 665.371 3.12447 1.51638 0
M  V30 6904 C 664.325 4.16153 1.00005 0
M  V30 6905 C 663.651 4.86948 2.20875 0
M  V30 6906 C 664.951 5.22275 0.0513757 0
M  V30 6907 H 666.645 2.98365 -0.248704 0
M  V30 6908 H 664.191 1.4349 -0.121052 0
M  V30 6909 H 666.144 3.65733 2.09326 0
M  V30 6910 H 664.868 2.41879 2.19458 0
M  V30 6911 H 663.527 3.63882 0.445549 0
M  V30 6912 H 663.175 4.12905 2.8726 0
M  V30 6913 H 662.875 5.57057 1.86978 0
M  V30 6914 H 664.399 5.43048 2.79162 0
M  V30 6915 H 665.813 5.70778 0.537176 0
M  V30 6916 H 664.21 5.9977 -0.198977 0
M  V30 6917 H 665.28 4.76611 -0.892736 0
M  V30 6918 N 666.623 0.143563 1.56945 0
M  V30 6919 C 667.848 -0.518701 2.00809 0
M  V30 6920 C 668.273 -1.5785 1.02298 0
M  V30 6921 O 667.631 -1.813 -0.0017839 0
M  V30 6922 C 667.679 -1.09929 3.43436 0
M  V30 6923 O 666.783 -2.21425 3.47915 0
M  V30 6924 H 666.124 -0.127215 0.6517 0
M  V30 6925 H 668.654 0.239283 2.03196 0
M  V30 6926 H 668.664 -1.4288 3.82164 0
M  V30 6927 H 667.339 -0.323162 4.14643 0
M  V30 6928 H 665.916 -1.89728 3.21026 0
M  V30 6929 N 668.101 -1.57061 -0.130224 0
M  V30 6930 C 669.031 -2.02552 -1.16168 0
M  V30 6931 C 670.012 -0.907971 -1.4384 0
M  V30 6932 O 671.197 -1.17693 -1.54473 0
M  V30 6933 C 668.327 -2.42035 -2.49071 0
M  V30 6934 C 667.281 -3.5713 -2.35886 0
M  V30 6935 C 666.607 -3.82478 -3.7365 0
M  V30 6936 C 667.907 -4.89236 -1.8288 0
M  V30 6937 H 669.601 -2.8897 -0.783359 0
M  V30 6938 H 667.147 -1.39021 -0.375376 0
M  V30 6939 H 669.1 -2.72462 -3.21469 0
M  V30 6940 H 667.824 -1.52573 -2.88771 0
M  V30 6941 H 666.483 -3.26895 -1.65938 0
M  V30 6942 H 666.131 -2.9024 -4.10816 0
M  V30 6943 H 665.831 -4.59944 -3.65685 0
M  V30 6944 H 667.355 -4.15347 -4.47571 0
M  V30 6945 H 668.769 -5.18272 -2.45085 0
M  V30 6946 H 667.166 -5.70624 -1.85763 0
M  V30 6947 H 668.236 -4.78494 -0.785571 0
M  V30 6948 N 669.579 0.400081 -1.52437 0
M  V30 6949 C 670.804 1.17221 -1.71096 0
M  V30 6950 C 671.229 1.83269 -0.423565 0
M  V30 6951 O 670.587 1.70378 0.619751 0
M  V30 6952 C 670.635 2.20425 -2.85386 0
M  V30 6953 O 669.739 3.26769 -2.51586 0
M  V30 6954 H 669.08 0.341766 -0.569291 0
M  V30 6955 H 671.61 0.467772 -1.99181 0
M  V30 6956 H 671.62 2.64605 -3.10561 0
M  V30 6957 H 670.295 1.71737 -3.78786 0
M  V30 6958 H 668.872 2.87804 -2.37114 0
M  V30 6959 N 671.057 1.43213 0.657864 0
M  V30 6960 C 672.468 1.39669 1.23893 0
M  V30 6961 C 672.819 0.0984217 1.95953 0
M  V30 6962 O 671.944 -0.8023 2.00978 0
M  V30 6963 C 672.539 2.53004 2.25332 0
M  V30 6964 C 671.098 2.5274 2.78926 0
M  V30 6965 C 670.245 2.30941 1.53497 0
M  V30 6966 H 673.196 1.52181 0.450172 0
M  V30 6967 H 673.217 2.24226 3.07413 0
M  V30 6968 H 672.729 3.4748 1.72856 0
M  V30 6969 H 670.83 1.6213 3.35477 0
M  V30 6970 H 670.943 3.50352 3.26787 0
M  V30 6971 H 669.307 1.7952 1.80678 0
M  V30 6972 H 670.09 3.27496 1.02963 0
M  V30 6973 N 672.536 -0.895792 1.29666 0
M  V30 6974 C 673.784 -1.64339 1.17631 0
M  V30 6975 C 674.105 -1.93099 -0.271643 0
M  V30 6976 O 673.375 -1.55981 -1.18518 0
M  V30 6977 H 671.955 -0.609162 0.432354 0
M  V30 6978 H 674.617 -1.07389 1.62646 0
M  V30 6979 H 673.713 -2.59815 1.72924 0
M  V30 6980 N 674.014 -1.12206 -1.10668 0
M  V30 6981 C 674.961 -0.787716 -2.16942 0
M  V30 6982 C 675.931 0.244442 -1.64291 0
M  V30 6983 O 677.116 0.119558 -1.90425 0
M  V30 6984 C 674.256 -0.24584 -3.44223 0
M  V30 6985 C 673.369 -1.33552 -4.10838 0
M  V30 6986 C 672.504 -0.753337 -5.25831 0
M  V30 6987 C 671.543 -1.82231 -5.84344 0
M  V30 6988 N 670.68 -1.25902 -6.90719 0
M  V30 6989 H 675.52 -1.69809 -2.44885 0
M  V30 6990 H 673.057 -0.847862 -1.20207 0
M  V30 6991 H 675.015 0.0863639 -4.17111 0
M  V30 6992 H 673.645 0.627702 -3.16638 0
M  V30 6993 H 672.697 -1.78454 -3.35944 0
M  V30 6994 H 674.009 -2.14396 -4.50373 0
M  V30 6995 H 673.163 -0.37166 -6.05561 0
M  V30 6996 H 671.902 0.0863297 -4.87624 0
M  V30 6997 H 670.907 -2.2132 -5.03287 0
M  V30 6998 H 672.132 -2.66515 -6.24617 0
M  V30 6999 H 670.078 -0.44114 -6.54515 0
M  V30 7000 H 669.995 -2.00408 -7.28953 0
M  V30 7001 H 671.263 -0.904498 -7.74235 0
M  V30 7002 O 675.531 1.23095 -1.04546 0
M  V30 7003 H 676.222 1.79876 -0.718642 0
M  V30 END ATOM
M  V30 BEGIN BOND
M  V30 END BOND
M  V30 END CTAB
M  END
$$$$
