drugbank_target|Q16816 Phosphorylase b kinase gamma catalytic chain, skeletal muscle/heart isoform (DB12010)
 OpenBabel12092121183D

  0  0  0     0  0            999 V3000
M  V30 BEGIN CTAB
M  V30 COUNTS 6337 6411 0 0 0
M  V30 BEGIN ATOM
M  V30 1 H -0.908 1.98254 -0.117106 0
M  V30 2 N 0 1.576 0 0
M  V30 3 C 0.933 2.03868 1.02534 0
M  V30 4 C 1.911 0.928543 1.3348 0
M  V30 5 O 3.095 1.19667 1.45644 0
M  V30 6 C 0.222 2.43627 2.35294 0
M  V30 7 C -0.732 3.65373 2.2001 0
M  V30 8 S 0.101 5.13292 1.52614 0
M  V30 9 C 1.257 5.56322 2.86805 0
M  V30 10 H 1.49 2.90518 0.631377 0
M  V30 11 H -0.977 1.52953 0.210867 0
M  V30 12 H 0.981 2.67203 3.11629 0
M  V30 13 H -0.358 1.57376 2.7183 0
M  V30 14 H -1.165 3.90944 3.18086 0
M  V30 15 H -1.563 3.418 1.51819 0
M  V30 16 H 0.729 5.58782 3.83104 0
M  V30 17 H 1.672 6.56266 2.65933 0
M  V30 18 H 2.08 4.83886 2.90714 0
M  V30 19 N 1.4781 -0.272755 1.55222 0
M  V30 20 C 2.7061 -1.02255 1.79865 0
M  V30 21 C 3.1211 -1.79924 0.572088 0
M  V30 22 O 2.4781 -1.76638 -0.458842 0
M  V30 23 C 2.5291 -1.98094 3.02392 0
M  V30 24 O 2.2501 -1.23572 4.20311 0
M  V30 25 C 3.7511 -2.84884 3.39641 0
M  V30 26 H 0.9711 -0.302057 0.599168 0
M  V30 27 H 3.5151 -0.303465 2.02236 0
M  V30 28 H 1.6701 -2.65465 2.82147 0
M  V30 29 H 2.0841 -1.88172 4.89583 0
M  V30 30 H 3.5581 -3.47927 4.28545 0
M  V30 31 H 4.0351 -3.54665 2.59055 0
M  V30 32 H 4.6411 -2.23003 3.62146 0
M  V30 33 N 2.9562 -1.48159 -0.537278 0
M  V30 34 C 4.3722 -1.34118 -0.865129 0
M  V30 35 C 4.5722 -0.346678 -1.98495 0
M  V30 36 O 3.6282 0.234715 -2.51407 0
M  V30 37 C 4.9412 -2.73963 -1.23954 0
M  V30 38 C 6.4892 -2.82397 -1.34984 0
M  V30 39 C 6.9642 -4.22928 -1.75772 0
M  V30 40 N 8.4552 -4.25566 -1.82887 0
M  V30 41 C 9.1902 -5.31235 -2.15817 0
M  V30 42 N 8.6862 -6.47189 -2.47222 0
M  V30 43 N 10.4792 -5.18624 -2.16761 0
M  V30 44 H 2.6302 -2.1144 0.201715 0
M  V30 45 H 4.8932 -0.947598 0.0275949 0
M  V30 46 H 4.5992 -3.48264 -0.490381 0
M  V30 47 H 4.4732 -3.0702 -2.19132 0
M  V30 48 H 6.8602 -2.08356 -2.08978 0
M  V30 49 H 6.9412 -2.5297 -0.379448 0
M  V30 50 H 6.5852 -4.97482 -1.02341 0
M  V30 51 H 6.5152 -4.49794 -2.73848 0
M  V30 52 H 9.0062 -3.41924 -1.60924 0
M  V30 53 H 9.3192 -7.23564 -2.71433 0
M  V30 54 H 7.6642 -6.50476 -2.44757 0
M  V30 55 H 10.8552 -4.27056 -1.91679 0
M  V30 56 H 11.0282 -6.01078 -2.42093 0
M  V30 57 N 4.4343 0.785586 -1.36625 0
M  V30 58 C 5.7113 1.53198 -1.21613 0
M  V30 59 C 6.0913 2.10187 0.196113 0
M  V30 60 O 5.4393 1.94318 1.20219 0
M  V30 61 C 5.6493 2.62388 -2.30116 0
M  V30 62 C 6.9973 3.30167 -2.66974 0
M  V30 63 O 8.0213 2.72674 -2.29188 0
M  V30 64 O 6.8803 4.34077 -3.32023 0
M  V30 65 H 3.9743 0.677865 -0.473738 0
M  V30 66 H 6.5203 0.823739 -1.48367 0
M  V30 67 H 5.2923 2.18299 -3.24748 0
M  V30 68 H 4.9153 3.40827 -2.0475 0
M  V30 69 N 5.9124 1.20967 1.01018 0
M  V30 70 C 6.8224 0.980157 2.13143 0
M  V30 71 C 7.8384 -0.0660665 1.73875 0
M  V30 72 O 9.0144 0.122821 2.01025 0
M  V30 73 C 6.0794 0.54216 3.42435 0
M  V30 74 C 5.1404 1.65999 3.95908 0
M  V30 75 C 4.3734 1.2428 5.19028 0
M  V30 76 O 4.5964 0.114196 5.70286 0
M  V30 77 O 3.5304 2.05271 5.65816 0
M  V30 78 H 7.3564 1.91913 2.35379 0
M  V30 79 H 4.9414 0.994099 1.11526 0
M  V30 80 H 6.8234 0.30744 4.20277 0
M  V30 81 H 5.4984 -0.36815 3.216 0
M  V30 82 H 4.4054 1.94906 3.19316 0
M  V30 83 H 5.7384 2.54753 4.21143 0
M  V30 84 N 7.3905 -1.2043 1.01659 0
M  V30 85 C 8.3535 -2.21433 0.591616 0
M  V30 86 C 9.3535 -1.57203 -0.338226 0
M  V30 87 O 10.5435 -1.73737 -0.126918 0
M  V30 88 C 7.6755 -3.40628 -0.136058 0
M  V30 89 H 8.8685 -2.60545 1.48514 0
M  V30 90 H 6.4215 -1.33893 0.806379 0
M  V30 91 H 7.1565 -3.07019 -1.04449 0
M  V30 92 H 6.9415 -3.88475 0.531917 0
M  V30 93 H 8.4315 -4.15475 -0.420735 0
M  V30 94 N 8.8686 -0.792821 -1.36206 0
M  V30 95 C 9.7986 -0.207853 -2.32573 0
M  V30 96 C 10.7796 0.659055 -1.56813 0
M  V30 97 O 11.9646 0.592176 -1.84951 0
M  V30 98 C 9.0946 0.655449 -3.41059 0
M  V30 99 C 8.0486 -0.111842 -4.27854 0
M  V30 100 C 7.3746 0.872274 -5.27537 0
M  V30 101 C 8.6746 -1.30299 -5.05786 0
M  V30 102 H 10.3686 -1.01294 -2.81744 0
M  V30 103 H 7.9146 -0.48854 -1.3546 0
M  V30 104 H 9.8676 1.07464 -4.07467 0
M  V30 105 H 8.5916 1.49328 -2.90463 0
M  V30 106 H 7.2506 -0.512053 -3.63006 0
M  V30 107 H 6.8986 1.70523 -4.73214 0
M  V30 108 H 6.5986 0.363291 -5.86476 0
M  V30 109 H 8.1226 1.28996 -5.96818 0
M  V30 110 H 9.5366 -0.959379 -5.65216 0
M  V30 111 H 7.9336 -1.7455 -5.74154 0
M  V30 112 H 9.0036 -2.09663 -4.37229 0
M  V30 113 N 10.3467 1.47872 -0.545128 0
M  V30 114 C 11.7577 1.86384 -0.108581 0
M  V30 115 C 12.1087 1.45309 1.31832 0
M  V30 116 O 11.2337 0.850641 1.9898 0
M  V30 117 C 11.8287 3.38265 -0.190274 0
M  V30 118 C 10.3877 3.75914 0.191164 0
M  V30 119 C 9.5347 2.71926 -0.543273 0
M  V30 120 H 12.4857 1.39561 -0.755537 0
M  V30 121 H 12.5067 3.75831 0.594217 0
M  V30 122 H 12.0187 3.6813 -1.2289 0
M  V30 123 H 10.1197 3.51665 1.23136 0
M  V30 124 H 10.2327 4.78836 -0.158987 0
M  V30 125 H 8.5967 2.54697 0.0122495 0
M  V30 126 H 9.3797 3.04634 -1.58282 0
M  V30 127 N 11.8248 0.280983 1.55075 0
M  V30 128 C 13.1018 -0.386207 1.91749 0
M  V30 129 C 13.4818 -1.73264 1.20594 0
M  V30 130 O 12.8298 -2.26034 0.334784 0
M  V30 131 C 13.0398 -0.520687 3.45094 0
M  V30 132 C 14.3878 -0.800865 4.16979 0
M  V30 133 O 15.4118 -0.605271 3.5102 0
M  V30 134 O 14.2708 -1.1753 5.33712 0
M  V30 135 H 11.3648 -0.212408 0.799257 0
M  V30 136 H 13.9108 0.327568 1.66509 0
M  V30 137 H 12.6828 0.426633 3.88967 0
M  V30 138 H 12.3058 -1.2837 3.76307 0
M  V30 139 N 13.3029 -1.57598 0.00835791 0
M  V30 140 C 14.5279 -1.95617 -0.689103 0
M  V30 141 C 14.9529 -0.883753 -1.66046 0
M  V30 142 O 14.3109 0.157352 -1.80616 0
M  V30 143 C 14.3589 -3.32736 -1.38994 0
M  V30 144 O 13.4629 -3.27631 -2.50463 0
M  V30 145 H 12.8039 -0.638379 -0.182668 0
M  V30 146 H 15.3339 -2.045 0.064036 0
M  V30 147 H 15.3439 -3.68494 -1.75147 0
M  V30 148 H 14.0189 -4.1034 -0.677778 0
M  V30 149 H 12.5959 -3.03561 -2.16576 0
M  V30 150 N 14.781 0.264519 -1.55364 0
M  V30 151 C 15.731 1.32966 -1.85214 0
M  V30 152 C 16.715 1.44306 -0.711653 0
M  V30 153 O 17.907 1.47844 -0.973192 0
M  V30 154 C 15.036 2.68839 -2.13495 0
M  V30 155 C 14.122 2.61575 -3.33825 0
M  V30 156 N 14.513 2.23933 -4.53528 0
M  V30 157 C 12.811 2.92621 -3.36584 0
M  V30 158 C 13.512 2.26868 -5.35636 0
M  V30 159 N 12.488 2.65677 -4.74254 0
M  V30 160 H 16.29 1.02884 -2.75304 0
M  V30 161 H 13.804 0.473157 -1.55354 0
M  V30 162 H 15.801 3.45685 -2.33039 0
M  V30 163 H 14.461 2.99802 -1.24694 0
M  V30 164 H 15.472 1.95769 -4.79474 0
M  V30 165 H 12.149 3.2824 -2.58002 0
M  V30 166 H 13.539 2.00254 -6.41364 0
M  V30 167 N 16.2591 1.48442 0.529413 0
M  V30 168 C 17.4841 1.60406 1.31471 0
M  V30 169 C 17.9091 0.264738 1.86228 0
M  V30 170 O 17.2671 -0.763668 1.64432 0
M  V30 171 C 17.3151 2.65419 2.44101 0
M  V30 172 O 16.4191 2.22618 3.47153 0
M  V30 173 H 15.7601 0.537863 0.389357 0
M  V30 174 H 18.2901 1.94432 0.636965 0
M  V30 175 H 18.3001 2.86709 2.90279 0
M  V30 176 H 16.9751 3.62652 2.03608 0
M  V30 177 H 15.5521 2.11543 3.0709 0
M  V30 178 N 17.7372 -0.778329 1.37039 0
M  V30 179 C 18.7002 -1.87301 1.32102 0
M  V30 180 C 19.7002 -1.59198 0.226405 0
M  V30 181 O 20.8902 -1.67403 0.481861 0
M  V30 182 C 18.0222 -3.24309 1.05055 0
M  V30 183 H 19.2152 -1.93093 2.29467 0
M  V30 184 H 16.7682 -0.977358 1.21973 0
M  V30 185 H 17.5032 -3.24196 0.0819373 0
M  V30 186 H 17.2882 -3.46098 1.84279 0
M  V30 187 H 18.7782 -4.04382 1.04234 0
M  V30 188 N 19.2153 -1.21501 -1.00376 0
M  V30 189 C 20.1473 -0.933174 -2.09343 0
M  V30 190 C 21.1603 0.0840896 -1.62583 0
M  V30 191 O 22.3493 -0.148563 -1.77881 0
M  V30 192 C 19.4493 -0.379869 -3.36764 0
M  V30 193 C 18.6223 -1.45176 -4.12605 0
M  V30 194 C 17.6813 -0.907476 -5.18316 0
M  V30 195 O 16.7073 -1.5912 -5.46507 0
M  V30 196 N 17.9093 0.276649 -5.7984 0
M  V30 197 H 20.6743 -1.87124 -2.34104 0
M  V30 198 H 18.2353 -1.12043 -1.16867 0
M  V30 199 H 20.2273 -0.00131488 -4.047 0
M  V30 200 H 18.7973 0.463048 -3.09151 0
M  V30 201 H 18.0173 -2.00411 -3.39454 0
M  V30 202 H 19.3053 -2.17328 -4.6005 0
M  V30 203 H 18.7033 0.849147 -5.59291 0
M  V30 204 H 17.2603 0.596702 -6.49063 0
M  V30 205 N 20.6934 1.19889 -1.02296 0
M  V30 206 C 21.9704 1.85148 -0.630832 0
M  V30 207 C 22.3504 1.91385 0.890782 0
M  V30 208 O 21.6984 1.42642 1.78509 0
M  V30 209 C 21.9084 3.24442 -1.28602 0
M  V30 210 C 23.2564 4.00663 -1.4055 0
M  V30 211 O 24.2804 3.33818 -1.24273 0
M  V30 212 O 23.1394 5.20387 -1.66913 0
M  V30 213 H 20.2334 0.797613 -0.218499 0
M  V30 214 H 22.7794 1.27427 -1.12074 0
M  V30 215 H 21.5514 3.14704 -2.32545 0
M  V30 216 H 21.1744 3.89802 -0.7836 0
M  V30 217 N 22.1715 0.800033 1.35784 0
M  V30 218 C 23.4185 0.377342 1.98953 0
M  V30 219 C 23.7465 -1.05378 1.6348 0
M  V30 220 O 23.0015 -1.74459 0.886707 0
M  V30 221 C 23.3005 0.500276 3.53881 0
M  V30 222 C 22.9665 1.89375 4.09204 0
M  V30 223 C 21.6285 2.27499 4.24025 0
M  V30 224 C 23.9805 2.8057 4.39238 0
M  V30 225 C 21.3085 3.562 4.66195 0
M  V30 226 C 23.6605 4.0871 4.82844 0
M  V30 227 C 22.3245 4.46843 4.95871 0
M  V30 228 H 21.5945 0.138079 0.728021 0
M  V30 229 H 24.2415 1.01955 1.62103 0
M  V30 230 H 22.5465 -0.225405 3.91151 0
M  V30 231 H 24.2435 0.154097 4.00704 0
M  V30 232 H 20.8335 1.58753 3.98115 0
M  V30 233 H 25.0175 2.52367 4.27346 0
M  V30 234 H 20.2735 3.85602 4.74469 0
M  V30 235 H 24.4475 4.79481 5.05046 0
M  V30 236 H 22.0745 5.46623 5.28306 0
M  V30 237 N 23.6496 -1.47581 0.552962 0
M  V30 238 C 24.8796 -2.06575 0.0320091 0
M  V30 239 C 25.2876 -1.4067 -1.26525 0
M  V30 240 O 24.6306 -0.495808 -1.76883 0
M  V30 241 C 24.6926 -3.58705 -0.238913 0
M  V30 242 C 24.3566 -4.46625 0.968272 0
M  V30 243 C 25.3536 -4.85 1.87274 0
M  V30 244 C 23.0386 -4.88201 1.18175 0
M  V30 245 C 25.0326 -5.63745 2.9744 0
M  V30 246 C 22.7196 -5.66712 2.28651 0
M  V30 247 C 23.7176 -6.04394 3.18114 0
M  V30 248 O 23.4056 -6.81324 4.26676 0
M  V30 249 H 23.1376 -0.674763 0.0408689 0
M  V30 250 H 25.6916 -1.90634 0.764719 0
M  V30 251 H 23.9216 -3.72844 -1.02588 0
M  V30 252 H 25.6106 -3.99735 -0.704731 0
M  V30 253 H 26.3766 -4.53482 1.71984 0
M  V30 254 H 22.2556 -4.58339 0.494593 0
M  V30 255 H 25.7996 -5.93077 3.67296 0
M  V30 256 H 21.6966 -5.97642 2.43915 0
M  V30 257 H 22.4646 -6.99712 4.24671 0
M  V30 258 N 25.1277 -0.289203 -1.54924 0
M  V30 259 C 26.0377 0.601863 -2.26748 0
M  V30 260 C 27.0537 1.15834 -1.2984 0
M  V30 261 O 28.2297 1.18564 -1.62802 0
M  V30 262 C 25.2947 1.76299 -2.98529 0
M  V30 263 C 24.3557 1.24178 -4.10948 0
M  V30 264 C 23.5887 2.34757 -4.79296 0
M  V30 265 O 23.8117 3.54411 -4.46933 0
M  V30 266 O 22.7457 2.02115 -5.66951 0
M  V30 267 H 26.5717 0.0195879 -3.03694 0
M  V30 268 H 24.1567 -0.0560868 -1.49295 0
M  V30 269 H 26.0387 2.43973 -3.43592 0
M  V30 270 H 24.7137 2.33209 -2.24488 0
M  V30 271 H 23.6207 0.531104 -3.70311 0
M  V30 272 H 24.9537 0.718252 -4.86931 0
M  V30 273 N 26.6058 1.57591 -0.0167156 0
M  V30 274 C 27.5538 2.10604 0.987353 0
M  V30 275 C 28.5478 1.02977 1.34507 0
M  V30 276 O 29.7538 1.21425 1.32875 0
M  V30 277 H 26.1288 0.672695 0.336134 0
M  V30 278 H 28.0998 2.93925 0.514817 0
M  V30 279 C 26.8488 2.6382 2.26483 0
M  V30 280 H 26.1718 3.46278 1.99829 0
M  V30 281 H 27.6118 3.04573 2.94977 0
M  V30 282 C 26.0708 1.55992 2.9861 0
M  V30 283 O 26.6008 0.952521 3.90243 0
M  V30 284 N 24.8068 1.28335 2.60727 0
M  V30 285 H 24.3538 1.77914 1.86291 0
M  V30 286 H 24.3118 0.564115 3.09298 0
M  V30 287 N 28.0839 -0.256276 1.55502 0
M  V30 288 C 29.3139 -1.00196 1.80677 0
M  V30 289 C 29.7219 -1.79805 0.588797 0
M  V30 290 O 29.0649 -1.78055 -0.451883 0
M  V30 291 C 29.1269 -1.99515 2.99055 0
M  V30 292 C 28.7909 -1.38688 4.35448 0
M  V30 293 C 29.7879 -0.794079 5.138 0
M  V30 294 C 27.4729 -1.40906 4.82132 0
M  V30 295 C 29.4669 -0.231562 6.36979 0
M  V30 296 C 27.1539 -0.842684 6.05262 0
M  V30 297 C 28.1519 -0.254953 6.82524 0
M  V30 298 O 27.8399 0.3027 8.0333 0
M  V30 299 H 27.5719 -0.300919 0.60533 0
M  V30 300 H 30.1259 -0.287307 2.03381 0
M  V30 301 H 28.3559 -2.74785 2.72084 0
M  V30 302 H 30.0449 -2.60349 3.11405 0
M  V30 303 H 30.8109 -0.769519 4.78856 0
M  V30 304 H 26.6899 -1.85591 4.21992 0
M  V30 305 H 30.2339 0.227816 6.97228 0
M  V30 306 H 26.1309 -0.86454 6.39684 0
M  V30 307 H 26.8989 0.193662 8.18271 0
M  V30 308 N 29.562 -1.4872 -0.521534 0
M  V30 309 C 30.472 -1.66569 -1.65203 0
M  V30 310 C 31.488 -0.548197 -1.65139 0
M  V30 311 O 32.664 -0.820339 -1.83936 0
M  V30 312 C 29.729 -1.70917 -3.01642 0
M  V30 313 C 28.79 -2.94356 -3.12495 0
M  V30 314 C 28.023 -2.98487 -4.42426 0
M  V30 315 O 28.246 -2.10786 -5.30024 0
M  V30 316 O 27.18 -3.90746 -4.57822 0
M  V30 317 H 31.006 -2.62298 -1.5308 0
M  V30 318 H 28.591 -1.3222 -0.695565 0
M  V30 319 H 30.473 -1.7625 -3.82771 0
M  V30 320 H 29.148 -0.783633 -3.14071 0
M  V30 321 H 28.055 -2.94552 -2.3063 0
M  V30 322 H 29.388 -3.86322 -3.04986 0
M  V30 323 N 31.0401 0.771051 -1.3745 0
M  V30 324 C 32.4511 1.34737 -1.29239 0
M  V30 325 C 32.8021 1.96109 0.0596908 0
M  V30 326 O 31.9271 1.93865 0.961534 0
M  V30 327 C 32.5221 2.44973 -2.34037 0
M  V30 328 C 31.0811 2.98372 -2.29458 0
M  V30 329 C 30.2281 1.71595 -2.17831 0
M  V30 330 H 33.1791 0.571256 -1.48062 0
M  V30 331 H 33.2001 3.24471 -1.98744 0
M  V30 332 H 32.7121 2.00276 -3.32432 0
M  V30 333 H 30.8131 3.47443 -1.34589 0
M  V30 334 H 30.9261 3.53939 -3.229 0
M  V30 335 H 29.2901 1.94547 -1.64388 0
M  V30 336 H 30.0731 1.29001 -3.18141 0
M  V30 337 N 32.5182 1.22032 0.997298 0
M  V30 338 C 33.4652 0.986467 2.08656 0
M  V30 339 C 34.4352 -0.0902671 1.65855 0
M  V30 340 O 35.6202 0.0584294 1.90711 0
M  V30 341 C 32.7602 0.565569 3.40434 0
M  V30 342 C 31.8732 1.71259 3.96604 0
M  V30 343 C 31.0082 1.24011 5.16522 0
M  V30 344 C 30.0472 2.35896 5.64818 0
M  V30 345 N 29.1842 1.89726 6.7598 0
M  V30 346 H 34.0242 1.91892 2.27994 0
M  V30 347 H 31.5612 0.956199 1.11782 0
M  V30 348 H 33.5192 0.302738 4.161 0
M  V30 349 H 32.1492 -0.329879 3.2111 0
M  V30 350 H 31.2012 2.08986 3.17851 0
M  V30 351 H 32.5132 2.55436 4.28432 0
M  V30 352 H 31.6672 0.934395 5.99461 0
M  V30 353 H 30.4062 0.368487 4.86306 0
M  V30 354 H 29.4112 2.67261 4.8047 0
M  V30 355 H 30.6362 3.23567 5.97061 0
M  V30 356 H 28.5822 1.0492 6.47555 0
M  V30 357 H 28.4992 2.67471 7.07103 0
M  V30 358 H 29.7672 1.62211 7.62435 0
M  V30 359 N 33.9963 -1.19345 1.0293 0
M  V30 360 C 34.9063 -2.26245 0.620515 0
M  V30 361 C 35.9223 -1.70486 -0.347928 0
M  V30 362 O 37.0983 -2.00347 -0.205704 0
M  V30 363 C 34.1633 -3.46693 -0.0218957 0
M  V30 364 C 33.2243 -4.17632 0.994102 0
M  V30 365 C 32.4573 -5.32329 0.382253 0
M  V30 366 O 32.6803 -5.64552 -0.814676 0
M  V30 367 O 31.6143 -5.91664 1.10531 0
M  V30 368 H 35.4403 -2.63453 1.51083 0
M  V30 369 H 33.0253 -1.26207 0.799513 0
M  V30 370 H 34.9073 -4.19683 -0.380072 0
M  V30 371 H 33.5823 -3.11333 -0.886209 0
M  V30 372 H 32.4893 -3.4676 1.40387 0
M  V30 373 H 33.8223 -4.56964 1.8288 0
M  V30 374 N 35.4744 -0.807222 -1.35358 0
M  V30 375 C 36.7234 -0.384376 -1.98004 0
M  V30 376 C 37.0364 1.0543 -1.64754 0
M  V30 377 O 38.2424 1.58029 -2.20769 0
M  V30 378 C 36.6984 -0.636326 -3.5423 0
M  V30 379 C 36.3064 -2.08759 -3.96388 0
M  V30 380 C 38.0504 -0.278869 -4.23583 0
M  V30 381 C 35.9574 -2.28525 -5.45463 0
M  V30 382 H 34.8874 -0.139986 -0.740891 0
M  V30 383 H 37.5384 -0.991369 -1.54415 0
M  V30 384 H 35.9204 0.0406256 -3.95979 0
M  V30 385 H 37.0944 -2.8024 -3.6579 0
M  V30 386 H 35.4094 -2.40497 -3.39926 0
M  V30 387 H 38.0064 -0.404599 -5.33167 0
M  V30 388 H 38.3494 0.775012 -4.09022 0
M  V30 389 H 38.8824 -0.909764 -3.87257 0
M  V30 390 H 35.6214 -3.32361 -5.64992 0
M  V30 391 H 35.1414 -1.61569 -5.77629 0
M  V30 392 H 36.8204 -2.10109 -6.11934 0
M  V30 393 N 36.9525 1.47285 -0.560781 0
M  V30 394 C 37.8825 2.32857 0.173105 0
M  V30 395 C 38.8635 1.44009 0.905281 0
M  V30 396 O 40.0485 1.7286 0.885046 0
M  V30 397 C 37.1785 3.25861 1.20133 0
M  V30 398 C 36.1325 4.23978 0.585388 0
M  V30 399 C 35.4585 5.06332 1.7185 0
M  V30 400 C 36.7585 5.20242 -0.463178 0
M  V30 401 H 38.4525 2.94466 -0.541307 0
M  V30 402 H 35.9985 1.41601 -0.261764 0
M  V30 403 H 37.9515 3.84569 1.72293 0
M  V30 404 H 36.6755 2.62315 1.94573 0
M  V30 405 H 35.3345 3.66501 0.085054 0
M  V30 406 H 34.9825 4.39186 2.45203 0
M  V30 407 H 34.6825 5.72762 1.31213 0
M  V30 408 H 36.2065 5.67899 2.24329 0
M  V30 409 H 37.6205 5.73293 -0.027502 0
M  V30 410 H 36.0175 5.94896 -0.788627 0
M  V30 411 H 37.0875 4.65504 -1.35773 0
M  V30 412 N 38.4306 0.297415 1.54768 0
M  V30 413 C 39.6786 -0.312295 1.99673 0
M  V30 414 C 39.9996 -1.54686 1.18732 0
M  V30 415 O 39.2696 -1.93854 0.282382 0
M  V30 416 H 37.8496 -0.118381 0.73756 0
M  V30 417 H 40.5116 0.407915 1.90583 0
M  V30 418 H 39.6076 -0.586813 3.06534 0
M  V30 419 N 39.9087 -1.5758 0.0250728 0
M  V30 420 C 41.3247 -1.56124 -0.331282 0
M  V30 421 C 41.5247 -1.03029 -1.73169 0
M  V30 422 O 40.5807 -0.675215 -2.43305 0
M  V30 423 C 41.8937 -3.00139 -0.183584 0
M  V30 424 C 43.4417 -3.11946 -0.256654 0
M  V30 425 C 43.9167 -4.57793 -0.137792 0
M  V30 426 N 45.4077 -4.6279 -0.194904 0
M  V30 427 C 46.1427 -5.7326 -0.126655 0
M  V30 428 N 45.6387 -6.928 -0.00755288 0
M  V30 429 N 47.4317 -5.61811 -0.180348 0
M  V30 430 H 39.5827 -1.90424 0.94087 0
M  V30 431 H 41.8457 -0.875761 0.362968 0
M  V30 432 H 41.5517 -3.4292 0.780927 0
M  V30 433 H 41.4257 -3.64899 -0.955448 0
M  V30 434 H 43.8127 -2.69079 -1.21162 0
M  V30 435 H 43.8937 -2.49915 0.545517 0
M  V30 436 H 43.5377 -5.01339 0.813739 0
M  V30 437 H 43.4677 -5.17798 -0.958775 0
M  V30 438 H 45.9587 -3.76807 -0.287267 0
M  V30 439 H 46.2717 -7.72791 0.0379428 0
M  V30 440 H 44.6167 -6.94995 0.0271731 0
M  V30 441 H 47.8077 -4.6731 -0.271767 0
M  V30 442 H 47.9807 -6.47882 -0.123697 0
M  V30 443 N 41.3868 0.248026 -1.55636 0
M  V30 444 C 42.6348 0.974295 -1.77065 0
M  V30 445 C 42.9558 1.85897 -0.588849 0
M  V30 446 O 42.2258 1.91868 0.395407 0
M  V30 447 H 40.8058 0.362733 -0.653019 0
M  V30 448 H 43.4678 0.266244 -1.93073 0
M  V30 449 H 42.5638 1.59667 -2.68166 0
M  V30 450 N 42.8649 1.48995 0.513639 0
M  V30 451 C 44.1109 1.58076 1.27042 0
M  V30 452 C 44.4439 0.261026 1.92438 0
M  V30 453 O 43.7189 -0.734393 1.80103 0
M  V30 454 C 44.0019 2.73091 2.34719 0
M  V30 455 C 43.8549 4.14821 1.73907 0
M  V30 456 C 45.1739 2.83796 3.36375 0
M  V30 457 H 42.2929 0.575391 0.460536 0
M  V30 458 H 44.9349 1.81232 0.570516 0
M  V30 459 H 43.0849 2.53479 2.94416 0
M  V30 460 H 44.7569 4.45917 1.18135 0
M  V30 461 H 42.9999 4.21058 1.0437 0
M  V30 462 H 43.6709 4.91147 2.51949 0
M  V30 463 H 46.1469 3.01611 2.86653 0
M  V30 464 H 45.0229 3.65971 4.09093 0
M  V30 465 H 45.2839 1.92624 3.9793 0
M  V30 466 N 44.343 -0.763751 1.37857 0
M  V30 467 C 45.568 -1.55805 1.36893 0
M  V30 468 C 45.993 -1.88054 -0.0416135 0
M  V30 469 O 45.351 -1.49825 -1.02089 0
M  V30 470 C 45.399 -2.84012 2.22192 0
M  V30 471 O 44.503 -3.78732 1.63204 0
M  V30 472 H 43.844 -0.471638 0.46739 0
M  V30 473 H 46.374 -0.944657 1.81487 0
M  V30 474 H 46.384 -3.33037 2.35691 0
M  V30 475 H 45.059 -2.59869 3.24716 0
M  V30 476 H 43.636 -3.37402 1.58791 0
M  V30 477 N 45.8211 -1.22559 -0.990812 0
M  V30 478 C 47.0461 -1.07862 -1.77145 0
M  V30 479 C 47.4711 0.366447 -1.84496 0
M  V30 480 O 46.8291 1.26478 -1.29896 0
M  V30 481 C 46.8771 -1.69686 -3.18181 0
M  V30 482 O 45.9811 -0.951946 -4.01263 0
M  V30 483 H 45.3221 -0.378712 -0.545411 0
M  V30 484 H 47.8521 -1.62399 -1.2445 0
M  V30 485 H 47.8621 -1.74496 -3.68802 0
M  V30 486 H 46.5371 -2.74841 -3.12146 0
M  V30 487 H 45.1141 -0.980011 -3.59792 0
M  V30 488 N 47.2992 1.18797 -1.03562 0
M  V30 489 C 48.5452 1.8893 -0.737113 0
M  V30 490 C 48.8782 1.79837 0.732956 0
M  V30 491 O 48.1532 1.19525 1.5344 0
M  V30 492 C 48.4362 3.39607 -1.19745 0
M  V30 493 C 48.2892 3.57537 -2.72924 0
M  V30 494 C 49.6082 4.33069 -0.783526 0
M  V30 495 H 46.7272 0.686057 -0.269249 0
M  V30 496 H 49.3692 1.39797 -1.28673 0
M  V30 497 H 47.5192 3.81583 -0.729855 0
M  V30 498 H 49.1912 3.24688 -3.27682 0
M  V30 499 H 47.4342 3.00363 -3.12993 0
M  V30 500 H 48.1052 4.63238 -3.00191 0
M  V30 501 H 50.5812 3.98846 -1.18581 0
M  V30 502 H 49.4572 5.3707 -1.13343 0
M  V30 503 H 49.7182 4.40986 0.313681 0
M  V30 504 N 48.7773 0.814389 1.34928 0
M  V30 505 C 50.0233 0.399013 1.98836 0
M  V30 506 C 50.3563 -1.03314 1.64438 0
M  V30 507 O 49.6313 -1.71811 0.911659 0
M  V30 508 C 49.9143 0.591629 3.55207 0
M  V30 509 C 49.7673 2.06928 3.99376 0
M  V30 510 C 51.0863 0.022199 4.40094 0
M  V30 511 H 48.2053 0.146451 0.722303 0
M  V30 512 H 50.8473 1.02537 1.59957 0
M  V30 513 H 48.9973 0.0584441 3.88456 0
M  V30 514 H 50.6693 2.66544 3.76499 0
M  V30 515 H 48.9123 2.56287 3.49999 0
M  V30 516 H 49.5833 2.1549 5.08201 0
M  V30 517 H 52.0593 0.477643 4.13349 0
M  V30 518 H 50.9353 0.186832 5.48582 0
M  V30 519 H 51.1963 -1.07215 4.28902 0
M  V30 520 N 50.2554 -1.46986 0.568584 0
M  V30 521 C 51.6714 -1.57946 0.229189 0
M  V30 522 C 51.8714 -1.56567 -1.26843 0
M  V30 523 O 50.9274 -1.47511 -2.04931 0
M  V30 524 C 52.2404 -2.87963 0.865909 0
M  V30 525 C 53.7884 -3.01568 0.838188 0
M  V30 526 C 54.2634 -4.34301 1.45419 0
M  V30 527 N 55.7544 -4.40965 1.41788 0
M  V30 528 C 56.4894 -5.42256 1.86403 0
M  V30 529 N 55.9854 -6.50297 2.38926 0
M  V30 530 N 57.7784 -5.3337 1.77405 0
M  V30 531 H 49.9294 -1.46126 1.54146 0
M  V30 532 H 52.1924 -0.696156 0.643484 0
M  V30 533 H 51.8984 -2.94742 1.91886 0
M  V30 534 H 51.7724 -3.75423 0.365687 0
M  V30 535 H 54.1594 -2.94379 -0.206106 0
M  V30 536 H 54.2404 -2.1562 1.37629 0
M  V30 537 H 53.8844 -4.42247 2.49761 0
M  V30 538 H 53.8144 -5.19 0.891435 0
M  V30 539 H 56.3054 -3.63484 1.03381 0
M  V30 540 H 56.6184 -7.23777 2.70863 0
M  V30 541 H 54.9634 -6.51155 2.42944 0
M  V30 542 H 58.1544 -4.47865 1.3614 0
M  V30 543 H 58.3274 -6.12169 2.12492 0
M  V30 544 N 51.7335 -0.305618 -1.54608 0
M  V30 545 C 53.1495 0.0476228 -1.59529 0
M  V30 546 C 53.3495 1.52025 -1.32252 0
M  V30 547 O 52.4055 2.27368 -1.09818 0
M  V30 548 C 53.7185 -0.354471 -2.98603 0
M  V30 549 C 55.2665 -0.303622 -3.11524 0
M  V30 550 C 55.7415 -0.680608 -4.52915 0
M  V30 551 N 57.2325 -0.63332 -4.5885 0
M  V30 552 C 57.9675 -0.897432 -5.66334 0
M  V30 553 N 57.4635 -1.22775 -6.81834 0
M  V30 554 N 59.2565 -0.824186 -5.56025 0
M  V30 555 H 51.4075 -1.2653 -1.70599 0
M  V30 556 H 53.6705 -0.513291 -0.797017 0
M  V30 557 H 53.3765 -1.3798 -3.23503 0
M  V30 558 H 53.2505 0.289568 -3.76087 0
M  V30 559 H 55.6375 0.712472 -2.8637 0
M  V30 560 H 55.7185 -0.982348 -2.36185 0
M  V30 561 H 55.3625 -1.69453 -4.78799 0
M  V30 562 H 55.2925 0.0202385 -5.26596 0
M  V30 563 H 57.7835 -0.389138 -3.75891 0
M  V30 564 H 58.0965 -1.41513 -7.59733 0
M  V30 565 H 56.4415 -1.26583 -6.83375 0
M  V30 566 H 59.6325 -0.565748 -4.64669 0
M  V30 567 H 59.8055 -1.03338 -6.39707 0
M  V30 568 N 53.2116 1.57565 -0.0334293 0
M  V30 569 C 54.4516 1.93844 0.648379 0
M  V30 570 C 54.8156 0.910387 1.69044 0
M  V30 571 O 56.0166 1.15952 2.42505 0
M  V30 572 C 54.2876 3.35017 1.24492 0
M  V30 573 S 55.8466 3.93229 1.94721 0
M  V30 574 H 52.6646 0.678231 0.213364 0
M  V30 575 H 55.2666 1.95254 -0.0981253 0
M  V30 576 H 53.9706 4.07652 0.474128 0
M  V30 577 H 53.5016 3.37061 2.02864 0
M  V30 578 H 55.5166 3.77014 3.22606 0
M  V30 579 N 54.6897 -0.239769 1.55765 0
M  V30 580 C 55.9387 -0.964754 1.77131 0
M  V30 581 C 56.2517 -1.86213 0.59868 0
M  V30 582 O 57.4577 -2.6244 0.695522 0
M  V30 583 C 55.9137 -1.76552 3.1362 0
M  V30 584 C 55.5217 -0.915185 4.38553 0
M  V30 585 C 57.2657 -2.48281 3.44321 0
M  V30 586 C 55.1727 -1.71225 5.66071 0
M  V30 587 H 54.1027 -0.363953 0.660344 0
M  V30 588 H 56.7537 -0.219181 1.82186 0
M  V30 589 H 55.1357 -2.55331 3.02691 0
M  V30 590 H 56.3097 -0.169217 4.60489 0
M  V30 591 H 54.6247 -0.310889 4.15238 0
M  V30 592 H 57.2217 -3.08382 4.36812 0
M  V30 593 H 57.5647 -3.20256 2.65973 0
M  V30 594 H 58.0977 -1.76507 3.56497 0
M  V30 595 H 54.8367 -1.03612 6.4726 0
M  V30 596 H 54.3567 -2.43331 5.48224 0
M  V30 597 H 56.0357 -2.27758 6.05587 0
M  V30 598 N 56.1678 -1.49265 -0.50573 0
M  V30 599 C 57.1178 -1.6198 -1.60457 0
M  V30 600 C 58.1018 -0.47568 -1.53708 0
M  V30 601 O 59.2938 -0.728392 -1.61318 0
M  V30 602 C 56.4228 -1.68526 -2.99089 0
M  V30 603 C 55.5088 -2.885 -3.10852 0
M  V30 604 N 55.8998 -4.12635 -2.92517 0
M  V30 605 C 54.1978 -2.86338 -3.41945 0
M  V30 606 C 54.8988 -4.93258 -3.08337 0
M  V30 607 N 53.8748 -4.26533 -3.37003 0
M  V30 608 H 57.6768 -2.55681 -1.44928 0
M  V30 609 H 55.1908 -1.45972 -0.711752 0
M  V30 610 H 57.1878 -1.75732 -3.78053 0
M  V30 611 H 55.8478 -0.759584 -3.1569 0
M  V30 612 H 56.8588 -4.42689 -2.68787 0
M  V30 613 H 53.5358 -2.03129 -3.64753 0
M  V30 614 H 54.9258 -6.01856 -2.98695 0
M  V30 615 N 57.6459 0.756429 -1.3826 0
M  V30 616 C 58.5929 1.87011 -1.35261 0
M  V30 617 C 59.5629 1.64695 -0.215616 0
M  V30 618 O 60.7479 1.864 -0.407399 0
M  V30 619 C 57.8879 3.24275 -1.18068 0
M  V30 620 C 57.0009 3.58442 -2.41129 0
M  V30 621 C 56.1359 4.84994 -2.16689 0
M  V30 622 C 55.1749 5.11939 -3.35537 0
M  V30 623 N 54.3119 6.29685 -3.10549 0
M  V30 624 H 59.1519 1.8891 -2.30472 0
M  V30 625 H 56.6889 0.923373 -1.14509 0
M  V30 626 H 58.6469 4.03479 -1.06116 0
M  V30 627 H 57.2769 3.21711 -0.264973 0
M  V30 628 H 56.3289 2.74103 -2.63764 0
M  V30 629 H 57.6409 3.74283 -3.29717 0
M  V30 630 H 56.7949 5.72135 -2.01857 0
M  V30 631 H 55.5339 4.71286 -1.25462 0
M  V30 632 H 54.5389 4.23268 -3.50891 0
M  V30 633 H 55.7639 5.27546 -4.27635 0
M  V30 634 H 53.7099 6.17306 -2.21967 0
M  V30 635 H 53.6269 6.46014 -3.92686 0
M  V30 636 H 54.8949 7.19722 -2.99367 0
M  V30 637 N 59.124 1.23083 0.984299 0
M  V30 638 C 60.535 1.05609 1.5396 0
M  V30 639 C 60.886 -0.377793 1.92528 0
M  V30 640 O 60.011 -1.26398 1.75649 0
M  V30 641 C 60.606 1.91087 2.7977 0
M  V30 642 C 59.165 1.77885 3.31713 0
M  V30 643 C 58.312 1.87028 2.04733 0
M  V30 644 H 61.263 1.36802 0.804419 0
M  V30 645 H 61.284 1.43336 3.5247 0
M  V30 646 H 60.796 2.9544 2.51668 0
M  V30 647 H 58.897 0.762995 3.64704 0
M  V30 648 H 59.01 2.61047 4.01735 0
M  V30 649 H 57.374 1.30565 2.18689 0
M  V30 650 H 58.157 2.92929 1.79017 0
M  V30 651 N 60.6021 -1.18246 1.0419 0
M  V30 652 C 61.8301 -1.92195 0.766072 0
M  V30 653 C 62.2451 -1.76247 -0.676933 0
M  V30 654 O 61.6021 -1.09293 -1.46155 0
M  V30 655 C 61.6531 -3.43568 1.12442 0
M  V30 656 O 61.3741 -3.59015 2.51078 0
M  V30 657 C 62.8751 -4.34613 0.873275 0
M  V30 658 H 60.0951 -0.610114 0.279288 0
M  V30 659 H 62.6391 -1.50007 1.38989 0
M  V30 660 H 60.7941 -3.8354 0.545542 0
M  V30 661 H 61.2081 -4.5273 2.64831 0
M  V30 662 H 62.6821 -5.39374 1.17385 0
M  V30 663 H 63.1591 -4.38781 -0.191909 0
M  V30 664 H 63.7651 -4.00341 1.43551 0
M  V30 665 N 62.0802 -0.821533 -1.34494 0
M  V30 666 C 63.3052 -0.420873 -2.03085 0
M  V30 667 C 63.7302 0.964915 -1.61465 0
M  V30 668 O 63.0882 1.62763 -0.798607 0
M  V30 669 C 63.1362 -0.529414 -3.56693 0
M  V30 670 O 62.2402 0.451302 -4.09923 0
M  V30 671 H 61.5812 -0.173489 -0.640935 0
M  V30 672 H 64.1112 -1.11157 -1.71771 0
M  V30 673 H 64.1212 -0.404671 -4.05988 0
M  V30 674 H 62.7962 -1.54014 -3.86332 0
M  V30 675 H 61.3732 0.285558 -3.71805 0
M  V30 676 N 63.5583 1.46682 -0.576371 0
M  V30 677 C 64.4903 2.28341 0.198231 0
M  V30 678 C 65.5033 1.38141 0.861453 0
M  V30 679 O 66.6923 1.62797 0.732082 0
M  V30 680 C 63.7923 3.12986 1.29972 0
M  V30 681 C 62.9653 4.31271 0.729639 0
M  V30 682 C 62.0243 4.97363 1.71803 0
M  V30 683 O 61.0503 5.55156 1.25658 0
M  V30 684 N 62.2523 4.93796 3.05198 0
M  V30 685 H 65.0173 2.9546 -0.502324 0
M  V30 686 H 62.5783 1.56525 -0.413715 0
M  V30 687 H 64.5703 3.54066 1.96008 0
M  V30 688 H 63.1403 2.47984 1.90323 0
M  V30 689 H 62.3603 3.94052 -0.108012 0
M  V30 690 H 63.6483 5.07739 0.328438 0
M  V30 691 H 63.0463 4.48077 3.45317 0
M  V30 692 H 61.6033 5.38837 3.6674 0
M  V30 693 N 65.0364 0.313813 1.54444 0
M  V30 694 C 65.9464 -0.565714 2.27677 0
M  V30 695 C 66.9624 -1.13754 1.31666 0
M  V30 696 O 68.1384 -1.15959 1.64668 0
M  V30 697 C 65.2034 -1.71528 3.01296 0
M  V30 698 C 64.2644 -1.17624 4.12872 0
M  V30 699 C 63.4974 -2.27102 4.8297 0
M  V30 700 O 63.7204 -3.47256 4.52514 0
M  V30 701 O 62.6544 -1.9307 5.70094 0
M  V30 702 H 66.4804 0.0287296 3.03686 0
M  V30 703 H 64.0654 0.0798312 1.49187 0
M  V30 704 H 65.9474 -2.38476 3.4743 0
M  V30 705 H 64.6224 -2.29608 2.2817 0
M  V30 706 H 63.5294 -0.472124 3.71109 0
M  V30 707 H 64.8624 -0.640695 4.88012 0
M  V30 708 N 66.5145 -1.57545 0.0417849 0
M  V30 709 C 67.7445 -1.96339 -0.642995 0
M  V30 710 C 68.1525 -0.917536 -1.65463 0
M  V30 711 O 67.4955 0.107747 -1.83384 0
M  V30 712 C 67.5575 -3.31333 -1.39494 0
M  V30 713 C 67.2215 -4.53796 -0.540204 0
M  V30 714 C 68.2185 -5.19553 0.189806 0
M  V30 715 C 65.9035 -5.0006 -0.473886 0
M  V30 716 C 67.8975 -6.29904 0.974674 0
M  V30 717 C 65.5845 -6.10289 0.314677 0
M  V30 718 C 66.5825 -6.75072 1.03765 0
M  V30 719 O 66.2705 -7.83183 1.81327 0
M  V30 720 H 66.0025 -0.651241 -0.181277 0
M  V30 721 H 68.5565 -2.05148 0.101665 0
M  V30 722 H 66.7865 -3.19052 -2.18502 0
M  V30 723 H 68.4755 -3.54942 -1.96904 0
M  V30 724 H 69.2415 -4.84774 0.147981 0
M  V30 725 H 65.1205 -4.49433 -1.0262 0
M  V30 726 H 68.6645 -6.80401 1.5395 0
M  V30 727 H 64.5615 -6.44506 0.358174 0
M  V30 728 H 65.3295 -7.99913 1.73438 0
M  V30 729 N 67.9926 0.231505 -1.5589 0
M  V30 730 C 68.9556 1.27028 -1.90779 0
M  V30 731 C 69.9556 1.40308 -0.785507 0
M  V30 732 O 71.1456 1.38744 -1.05336 0
M  V30 733 C 68.2776 2.64566 -2.14983 0
M  V30 734 H 69.4706 0.973017 -2.83677 0
M  V30 735 H 67.0236 0.471486 -1.49019 0
M  V30 736 H 67.7586 2.99406 -1.24604 0
M  V30 737 H 67.5436 2.56305 -2.96732 0
M  V30 738 H 69.0336 3.39543 -2.43105 0
M  V30 739 N 69.4707 1.49531 0.497807 0
M  V30 740 C 70.7167 1.59415 1.25358 0
M  V30 741 C 71.0497 0.281422 1.9215 0
M  V30 742 O 70.3247 -0.715249 1.80871 0
M  V30 743 C 70.6077 2.75566 2.3181 0
M  V30 744 C 70.4607 4.16642 1.69498 0
M  V30 745 C 71.7797 2.87347 3.33346 0
M  V30 746 H 68.8987 0.580244 0.454408 0
M  V30 747 H 71.5407 1.81827 0.551262 0
M  V30 748 H 69.6907 2.56587 2.91711 0
M  V30 749 H 71.3627 4.47145 1.13399 0
M  V30 750 H 69.6057 4.22141 0.998978 0
M  V30 751 H 70.2767 4.93792 2.46725 0
M  V30 752 H 72.7527 3.04634 2.83438 0
M  V30 753 H 71.6287 3.70289 4.05188 0
M  V30 754 H 71.8897 1.96834 3.95865 0
M  V30 755 N 70.9488 -0.749086 1.3866 0
M  V30 756 C 71.8958 -1.86291 1.36251 0
M  V30 757 C 72.8658 -1.64578 0.224347 0
M  V30 758 O 74.0508 -1.86181 0.417279 0
M  V30 759 C 71.1908 -3.23644 1.19786 0
M  V30 760 C 70.3038 -3.57158 2.43027 0
M  V30 761 C 69.4388 -4.83838 2.19258 0
M  V30 762 C 68.4778 -5.10152 3.38247 0
M  V30 763 N 67.6148 -6.28029 3.13884 0
M  V30 764 H 72.4548 -1.87685 2.3147 0
M  V30 765 H 69.9918 -0.917287 1.14997 0
M  V30 766 H 71.9498 -4.0291 1.08254 0
M  V30 767 H 70.5798 -3.21566 0.282031 0
M  V30 768 H 69.6318 -2.72701 2.65214 0
M  V30 769 H 70.9438 -3.7253 3.31697 0
M  V30 770 H 70.0978 -5.71057 2.04888 0
M  V30 771 H 68.8368 -4.70614 1.2796 0
M  V30 772 H 67.8418 -4.21401 3.53131 0
M  V30 773 H 69.0668 -5.25271 4.30427 0
M  V30 774 H 67.0128 -6.1612 2.25238 0
M  V30 775 H 66.9298 -6.43922 3.96106 0
M  V30 776 H 68.1978 -7.18124 3.03179 0
M  V30 777 N 72.4269 -1.23603 -0.977757 0
M  V30 778 C 73.6729 -1.07129 -1.72195 0
M  V30 779 C 74.0059 0.390501 -1.90233 0
M  V30 780 O 73.2809 1.28902 -1.45653 0
M  V30 781 C 73.5639 -1.80031 -3.11867 0
M  V30 782 C 73.4169 -3.33899 -3.01383 0
M  V30 783 C 74.7359 -1.56492 -4.11337 0
M  V30 784 H 71.8549 -0.390571 -0.624999 0
M  V30 785 H 74.4969 -1.52142 -1.13811 0
M  V30 786 H 72.6469 -1.41768 -3.6171 0
M  V30 787 H 74.3189 -3.81699 -2.59043 0
M  V30 788 H 72.5619 -3.62796 -2.37827 0
M  V30 789 H 73.2329 -3.801 -4.00285 0
M  V30 790 H 75.7089 -1.89757 -3.70313 0
M  V30 791 H 74.5849 -2.09973 -5.07151 0
M  V30 792 H 74.8459 -0.500874 -4.39254 0
M  V30 793 N 73.905 1.17692 -1.04816 0
M  V30 794 C 75.154 1.87192 -0.751132 0
M  V30 795 C 75.467 1.8169 0.724441 0
M  V30 796 O 76.673 2.46625 1.13527 0
M  V30 797 C 75.129 3.35857 -1.29338 0
M  V30 798 C 74.737 3.4987 -2.79812 0
M  V30 799 C 76.481 4.10709 -1.07322 0
M  V30 800 C 74.388 4.92536 -3.27356 0
M  V30 801 H 73.318 0.701162 -0.277288 0
M  V30 802 H 75.969 1.32932 -1.26496 0
M  V30 803 H 74.351 3.89631 -0.707376 0
M  V30 804 H 75.525 3.06332 -3.44235 0
M  V30 805 H 73.84 2.88433 -3.00325 0
M  V30 806 H 76.437 5.15952 -1.4035 0
M  V30 807 H 76.78 4.16299 -0.0108001 0
M  V30 808 H 77.313 3.6313 -1.62423 0
M  V30 809 H 74.052 4.92119 -4.33012 0
M  V30 810 H 73.572 5.3676 -2.67673 0
M  V30 811 H 75.251 5.61288 -3.21815 0
M  V30 812 N 75.3831 0.828654 1.34056 0
M  V30 813 C 76.6601 0.341809 1.9259 0
M  V30 814 C 77.0401 -1.17158 1.75605 0
M  V30 815 O 76.3881 -1.98132 1.13824 0
M  V30 816 C 76.5981 0.777453 3.4023 0
M  V30 817 C 77.9461 0.779579 4.17382 0
M  V30 818 O 78.9701 0.7204 3.48839 0
M  V30 819 O 77.8291 0.857996 5.39723 0
M  V30 820 H 74.9231 0.0946085 0.821571 0
M  V30 821 H 77.4691 0.913827 1.42994 0
M  V30 822 H 76.2411 1.8196 3.46419 0
M  V30 823 H 75.8641 0.181444 3.97186 0
M  V30 824 N 76.8612 -1.46375 0.584142 0
M  V30 825 C 78.1072 -2.02678 0.0703716 0
M  V30 826 C 78.4402 -1.4545 -1.28678 0
M  V30 827 O 77.7152 -0.62014 -1.84349 0
M  V30 828 C 77.9982 -3.60099 0.00614674 0
M  V30 829 C 77.8512 -4.27709 1.3923 0
M  V30 830 C 79.1702 -4.34598 -0.693742 0
M  V30 831 H 76.2892 -0.736504 0.027047 0
M  V30 832 H 78.9312 -1.74501 0.751615 0
M  V30 833 H 77.0812 -3.84236 -0.574009 0
M  V30 834 H 78.7532 -4.14832 2.01773 0
M  V30 835 H 76.9962 -3.87016 1.95962 0
M  V30 836 H 77.6672 -5.36478 1.29982 0
M  V30 837 H 80.1432 -4.15615 -0.200869 0
M  V30 838 H 79.0192 -5.44318 -0.707714 0
M  V30 839 H 79.2802 -4.05759 -1.75533 0
M  V30 840 N 78.3393 -0.321999 -1.54275 0
M  V30 841 C 79.5673 0.283052 -2.04955 0
M  V30 842 C 79.9823 1.45904 -1.19823 0
M  V30 843 O 79.3393 1.81063 -0.228545 0
M  V30 844 C 79.3903 0.719028 -3.54277 0
M  V30 845 O 79.1113 -0.410175 -4.36176 0
M  V30 846 C 80.6123 1.38705 -4.21041 0
M  V30 847 H 77.8323 0.0584616 -0.668448 0
M  V30 848 H 80.3763 -0.467734 -1.99079 0
M  V30 849 H 78.5313 1.41979 -3.60445 0
M  V30 850 H 78.9453 -0.0669416 -5.24457 0
M  V30 851 H 80.4193 1.64306 -5.2698 0
M  V30 852 H 80.8963 2.33385 -3.72059 0
M  V30 853 H 81.5023 0.728906 -4.19007 0
M  V30 854 N 79.8174 1.5752 -0.0501392 0
M  V30 855 C 81.0654 1.9227 0.622642 0
M  V30 856 C 81.3864 0.929083 1.71444 0
M  V30 857 O 80.6564 -0.0262186 1.95882 0
M  V30 858 H 79.2364 0.709739 0.232981 0
M  V30 859 H 81.8984 1.94628 -0.102898 0
M  V30 860 H 80.9944 2.93479 1.06191 0
M  V30 861 N 81.2955 -0.223234 1.56011 0
M  V30 862 C 82.5435 -0.946003 1.78592 0
M  V30 863 C 82.8645 -1.84936 0.618349 0
M  V30 864 O 82.1345 -1.92473 -0.364833 0
M  V30 865 H 80.7145 -0.352298 0.658707 0
M  V30 866 H 83.3765 -0.235494 1.93472 0
M  V30 867 H 82.4725 -1.55381 2.70672 0
M  V30 868 N 82.7736 -1.49793 -0.48987 0
M  V30 869 C 84.0216 -1.59525 -1.24081 0
M  V30 870 C 84.3426 -0.288953 -1.92847 0
M  V30 871 O 83.6126 0.692436 -1.83254 0
M  V30 872 H 82.1926 -0.587796 -0.460983 0
M  V30 873 H 84.8546 -1.86477 -0.566778 0
M  V30 874 H 83.9506 -2.39696 -1.99881 0
M  V30 875 N 84.2517 0.741722 -1.39055 0
M  V30 876 C 85.4767 1.53607 -1.39354 0
M  V30 877 C 85.9017 1.88096 0.0116905 0
M  V30 878 O 85.2597 1.5143 0.996924 0
M  V30 879 C 85.3077 2.80441 -2.26682 0
M  V30 880 O 84.4117 3.76088 -1.69208 0
M  V30 881 H 83.7527 0.464142 -0.474835 0
M  V30 882 H 86.2827 0.915665 -1.82967 0
M  V30 883 H 86.2927 3.29246 -2.40959 0
M  V30 884 H 84.9677 2.5467 -3.2881 0
M  V30 885 H 83.5447 3.34833 -1.64138 0
M  V30 886 N 85.7298 1.2412 0.971189 0
M  V30 887 C 86.9768 1.07881 1.71371 0
M  V30 888 C 87.3048 -0.382901 1.90694 0
M  V30 889 O 86.5598 -1.29945 1.46331 0
M  V30 890 C 86.8588 1.75983 3.11071 0
M  V30 891 C 86.5248 3.25909 3.11599 0
M  V30 892 C 85.1868 3.66813 3.11451 0
M  V30 893 C 87.5388 4.21771 3.062 0
M  V30 894 C 84.8668 5.02021 3.03631 0
M  V30 895 C 87.2188 5.56982 2.99923 0
M  V30 896 C 85.8828 5.97237 2.98102 0
M  V30 897 H 85.1528 0.394764 0.62709 0
M  V30 898 H 87.7998 1.54176 1.13587 0
M  V30 899 H 86.1048 1.22072 3.72298 0
M  V30 900 H 87.8018 1.60887 3.6731 0
M  V30 901 H 84.3918 2.93353 3.12477 0
M  V30 902 H 88.5758 3.91172 3.05447 0
M  V30 903 H 83.8318 5.32411 3.0058 0
M  V30 904 H 88.0058 6.30969 2.94704 0
M  V30 905 H 85.6328 7.01967 2.91798 0
M  V30 906 N 87.2079 -1.17134 1.05439 0
M  V30 907 C 88.4329 -1.91913 0.786396 0
M  V30 908 C 88.8579 -1.7643 -0.652234 0
M  V30 909 O 88.2159 -1.08372 -1.45345 0
M  V30 910 C 88.2639 -3.40921 1.17497 0
M  V30 911 O 87.3679 -4.11244 0.308589 0
M  V30 912 H 86.7089 -0.598215 0.288158 0
M  V30 913 H 89.2389 -1.48457 1.4079 0
M  V30 914 H 89.2489 -3.91668 1.14281 0
M  V30 915 H 87.9239 -3.5151 2.22292 0
M  V30 916 H 86.5009 -3.70731 0.40157 0
M  V30 917 N 88.686 -0.835752 -1.33615 0
M  V30 918 C 90.097 -0.487099 -1.80234 0
M  V30 919 C 90.448 0.993627 -1.69179 0
M  V30 920 O 89.573 1.77403 -1.23924 0
M  V30 921 C 90.168 -0.877385 -3.27242 0
M  V30 922 C 88.727 -0.580915 -3.7189 0
M  V30 923 C 87.874 -1.0874 -2.5509 0
M  V30 924 H 90.825 -1.02474 -1.2118 0
M  V30 925 H 90.846 -0.186195 -3.80044 0
M  V30 926 H 90.358 -1.95512 -3.35256 0
M  V30 927 H 88.459 0.486881 -3.69405 0
M  V30 928 H 88.572 -1.13396 -4.65487 0
M  V30 929 H 86.936 -0.508392 -2.49575 0
M  V30 930 H 87.719 -2.17184 -2.65868 0
M  V30 931 N 90.1641 1.46063 -0.591896 0
M  V30 932 C 91.0741 2.34192 0.13831 0
M  V30 933 C 92.0901 1.50305 0.876608 0
M  V30 934 O 93.2661 1.8315 0.837728 0
M  V30 935 C 90.3311 3.27656 1.13326 0
M  V30 936 C 89.3921 4.27445 0.39863 0
M  V30 937 C 88.6251 5.16443 1.34618 0
M  V30 938 O 88.8481 5.08553 2.58321 0
M  V30 939 O 87.7821 5.95843 0.851768 0
M  V30 940 H 91.6081 2.98002 -0.58552 0
M  V30 941 H 89.1931 1.45188 -0.352239 0
M  V30 942 H 91.0751 3.85291 1.70671 0
M  V30 943 H 89.7501 2.6643 1.83839 0
M  V30 944 H 88.6571 3.73471 -0.216895 0
M  V30 945 H 89.9901 4.91482 -0.265709 0
M  V30 946 N 91.6422 0.330177 1.54103 0
M  V30 947 C 92.5522 -0.541534 2.28264 0
M  V30 948 C 93.5682 -1.12351 1.32866 0
M  V30 949 O 94.7442 -1.14206 1.65888 0
M  V30 950 C 91.8092 -1.68322 3.03098 0
M  V30 951 C 90.8702 -1.13238 4.14096 0
M  V30 952 C 90.1032 -2.21966 4.85352 0
M  V30 953 O 90.3262 -3.42437 4.56172 0
M  V30 954 O 89.2602 -1.87013 5.7211 0
M  V30 955 H 93.0862 0.060938 3.03639 0
M  V30 956 H 90.6712 0.09565 1.49093 0
M  V30 957 H 92.5532 -2.34777 3.49939 0
M  V30 958 H 91.2282 -2.27176 2.30593 0
M  V30 959 H 90.1352 -0.432736 3.71589 0
M  V30 960 H 91.4682 -0.588898 4.88664 0
M  V30 961 N 93.1203 -1.57491 0.0584922 0
M  V30 962 C 94.3663 -1.93264 -0.614558 0
M  V30 963 C 94.6993 -0.937717 -1.7006 0
M  V30 964 O 93.9743 0.0351652 -1.94468 0
M  V30 965 C 94.2573 -3.3938 -1.20386 0
M  V30 966 C 94.1103 -4.49625 -0.125375 0
M  V30 967 C 95.4293 -3.86039 -2.11334 0
M  V30 968 H 92.5483 -0.702791 -0.221933 0
M  V30 969 H 95.1903 -1.8961 0.12175 0
M  V30 970 H 93.3403 -3.42626 -1.83139 0
M  V30 971 H 95.0123 -4.58506 0.506971 0
M  V30 972 H 93.2553 -4.30354 0.545672 0
M  V30 973 H 93.9263 -5.48967 -0.577861 0
M  V30 974 H 96.4023 -3.84716 -1.58534 0
M  V30 975 H 95.2783 -4.88914 -2.49507 0
M  V30 976 H 95.5393 -3.23215 -3.01636 0
M  V30 977 N 94.5984 0.214957 -1.56127 0
M  V30 978 C 96.0144 0.564948 -1.49267 0
M  V30 979 C 96.2144 1.86827 -0.754838 0
M  V30 980 O 95.2704 2.50745 -0.297198 0
M  V30 981 C 96.5834 0.638071 -2.93852 0
M  V30 982 C 98.1314 0.728253 -3.0441 0
M  V30 983 C 98.6064 0.832663 -4.50367 0
M  V30 984 N 100.097 0.896712 -4.54437 0
M  V30 985 C 100.832 0.997324 -5.6466 0
M  V30 986 N 100.328 1.06147 -6.8462 0
M  V30 987 N 102.121 1.03297 -5.52527 0
M  V30 988 H 94.2724 -0.640211 -2.02522 0
M  V30 989 H 96.5354 -0.225507 -0.920788 0
M  V30 990 H 96.2414 -0.250126 -3.50809 0
M  V30 991 H 96.1154 1.49947 -3.46115 0
M  V30 992 H 98.5024 1.60689 -2.47514 0
M  V30 993 H 98.5834 -0.158952 -2.55306 0
M  V30 994 H 98.2274 -0.0415417 -5.07883 0
M  V30 995 H 98.1574 1.73538 -4.97184 0
M  V30 996 H 100.648 0.857188 -3.6805 0
M  V30 997 H 100.961 1.1382 -7.64372 0
M  V30 998 H 99.3064 1.03049 -6.87318 0
M  V30 999 H 102.497 0.979558 -4.57736 0
M  V30 1000 H 102.67 1.10793 -6.38458 0
M  V30 1001 N 96.0765 1.50051 0.48192 0
M  V30 1002 C 96.9865 1.7089 1.60728 0
M  V30 1003 C 98.0025 0.591788 1.63627 0
M  V30 1004 O 99.1785 0.868817 1.81696 0
M  V30 1005 C 96.2435 1.78855 2.97005 0
M  V30 1006 C 95.3045 3.02537 3.04581 0
M  V30 1007 C 94.5375 3.10112 4.34357 0
M  V30 1008 O 94.7605 2.24765 5.24249 0
M  V30 1009 O 93.6945 4.02747 4.47301 0
M  V30 1010 H 97.5205 2.66264 1.46072 0
M  V30 1011 H 95.1055 1.34018 0.660264 0
M  V30 1012 H 96.9875 1.86336 3.77964 0
M  V30 1013 H 95.6625 0.866628 3.11883 0
M  V30 1014 H 94.5695 3.00563 2.22739 0
M  V30 1015 H 95.9025 3.94272 2.94636 0
M  V30 1016 N 97.5546 -0.734337 1.39446 0
M  V30 1017 C 98.4846 -1.86155 1.40955 0
M  V30 1018 C 99.4656 -1.67898 0.272827 0
M  V30 1019 O 100.651 -1.88207 0.478743 0
M  V30 1020 C 97.7806 -3.23912 1.25294 0
M  V30 1021 C 96.7346 -3.56808 2.36373 0
M  V30 1022 C 96.0606 -4.93508 2.058 0
M  V30 1023 C 97.3606 -3.59713 3.78687 0
M  V30 1024 H 99.0546 -1.8515 2.35287 0
M  V30 1025 H 96.6006 -0.889367 1.13253 0
M  V30 1026 H 98.5536 -4.02443 1.2497 0
M  V30 1027 H 97.2776 -3.25446 0.274308 0
M  V30 1028 H 95.9366 -2.80606 2.35914 0
M  V30 1029 H 95.5846 -4.91623 1.06374 0
M  V30 1030 H 95.2846 -5.16486 2.80208 0
M  V30 1031 H 96.8086 -5.74396 2.07128 0
M  V30 1032 H 98.2226 -4.2832 3.81071 0
M  V30 1033 H 96.6196 -3.94209 4.52459 0
M  V30 1034 H 97.6896 -2.59504 4.09617 0
M  V30 1035 N 99.0327 -1.24633 -0.964593 0
M  V30 1036 C 100.449 -1.01239 -1.2338 0
M  V30 1037 C 100.649 0.2769 -1.99588 0
M  V30 1038 O 99.7047 0.992241 -2.32187 0
M  V30 1039 C 101.018 -2.22937 -2.01791 0
M  V30 1040 C 102.566 -2.27594 -2.14872 0
M  V30 1041 C 103.041 -3.48921 -2.96678 0
M  V30 1042 N 104.532 -3.49257 -3.04259 0
M  V30 1043 C 105.267 -4.39795 -3.67924 0
M  V30 1044 N 104.763 -5.40591 -4.33281 0
M  V30 1045 N 106.556 -4.275 -3.64966 0
M  V30 1046 H 98.7067 -2.0748 -0.454502 0
M  V30 1047 H 100.97 -0.910647 -0.26349 0
M  V30 1048 H 100.676 -3.16587 -1.53184 0
M  V30 1049 H 100.55 -2.25306 -3.02518 0
M  V30 1050 H 102.937 -1.34473 -2.6268 0
M  V30 1051 H 103.018 -2.2925 -1.13482 0
M  V30 1052 H 102.662 -4.42359 -2.49562 0
M  V30 1053 H 102.592 -3.4451 -3.98272 0
M  V30 1054 H 105.083 -2.76337 -2.57771 0
M  V30 1055 H 105.396 -6.05904 -4.79687 0
M  V30 1056 H 103.741 -5.44475 -4.3194 0
M  V30 1057 H 106.932 -3.47987 -3.13086 0
M  V30 1058 H 107.105 -4.98258 -4.14298 0
M  V30 1059 N 100.511 1.16574 -1.06058 0
M  V30 1060 C 101.421 2.2452 -0.680282 0
M  V30 1061 C 102.437 1.71348 0.302604 0
M  V30 1062 O 103.613 2.00822 0.152513 0
M  V30 1063 C 100.678 3.46629 -0.0700315 0
M  V30 1064 C 99.7388 4.14849 -1.10448 0
M  V30 1065 C 98.9718 5.31129 -0.523256 0
M  V30 1066 O 99.1948 5.66514 0.664709 0
M  V30 1067 O 98.1288 5.88526 -1.26179 0
M  V30 1068 H 101.955 2.59355 -1.58015 0
M  V30 1069 H 99.5398 1.24043 -0.832694 0
M  V30 1070 H 101.422 4.20543 0.268667 0
M  V30 1071 H 100.097 3.13573 0.803353 0
M  V30 1072 H 99.0038 3.42916 -1.49532 0
M  V30 1073 H 100.337 4.51954 -1.94931 0
M  V30 1074 N 101.989 0.842826 1.3317 0
M  V30 1075 C 102.952 0.284065 2.27433 0
M  V30 1076 C 103.952 -0.54948 1.5112 0
M  V30 1077 O 105.142 -0.362699 1.70382 0
M  V30 1078 C 102.274 -0.599384 3.35589 0
M  V30 1079 H 103.467 1.11589 2.78366 0
M  V30 1080 H 101.02 0.616221 1.4364 0
M  V30 1081 H 101.755 -1.45349 2.89904 0
M  V30 1082 H 101.54 -0.00291266 3.921 0
M  V30 1083 H 103.03 -0.983488 4.05854 0
M  V30 1084 N 103.467 -1.45747 0.599634 0
M  V30 1085 C 104.695 -2.06668 0.0978551 0
M  V30 1086 C 105.11 -1.44562 -1.21439 0
M  V30 1087 O 104.467 -0.556923 -1.73795 0
M  V30 1088 C 104.518 -3.61456 -0.0567044 0
M  V30 1089 O 104.239 -4.21242 1.20361 0
M  V30 1090 C 105.74 -4.39345 -0.590869 0
M  V30 1091 H 102.96 -0.667825 0.0651943 0
M  V30 1092 H 105.504 -1.87115 0.82511 0
M  V30 1093 H 103.659 -3.80378 -0.734251 0
M  V30 1094 H 104.073 -5.14323 1.02821 0
M  V30 1095 H 105.547 -5.48182 -0.648131 0
M  V30 1096 H 106.024 -4.08568 -1.61147 0
M  V30 1097 H 106.63 -4.25268 0.0523679 0
M  V30 1098 N 104.945 -0.338344 -1.53925 0
M  V30 1099 C 105.875 0.51328 -2.27789 0
M  V30 1100 C 106.856 1.107 -1.29149 0
M  V30 1101 O 108.041 1.12937 -1.57984 0
M  V30 1102 C 105.171 1.66697 -3.04679 0
M  V30 1103 C 104.125 1.20183 -4.1078 0
M  V30 1104 C 103.451 2.44363 -4.75595 0
M  V30 1105 C 104.751 0.30605 -5.21403 0
M  V30 1106 H 106.445 -0.102883 -2.99223 0
M  V30 1107 H 103.991 -0.0509219 -1.4391 0
M  V30 1108 H 105.944 2.26915 -3.55088 0
M  V30 1109 H 104.668 2.30995 -2.30887 0
M  V30 1110 H 103.327 0.622499 -3.61276 0
M  V30 1111 H 102.975 3.07057 -3.98403 0
M  V30 1112 H 102.675 2.13925 -5.47275 0
M  V30 1113 H 104.199 3.05317 -5.28786 0
M  V30 1114 H 105.613 0.814929 -5.67478 0
M  V30 1115 H 104.01 0.0937929 -6.00027 0
M  V30 1116 H 105.08 -0.65921 -4.80398 0
M  V30 1117 N 106.423 1.57458 -0.0668435 0
M  V30 1118 C 107.37 2.12439 0.902122 0
M  V30 1119 C 108.34 1.03565 1.2986 0
M  V30 1120 O 109.525 1.312 1.38532 0
M  V30 1121 C 106.665 2.6865 2.16614 0
M  V30 1122 C 105.778 3.91663 1.82274 0
M  V30 1123 C 104.913 4.36134 3.0325 0
M  V30 1124 C 103.952 5.51808 2.64904 0
M  V30 1125 N 103.089 5.9126 3.78624 0
M  V30 1126 H 107.929 2.94934 0.426382 0
M  V30 1127 H 105.466 1.4575 0.198819 0
M  V30 1128 H 107.424 2.99346 2.90599 0
M  V30 1129 H 106.054 1.88928 2.61737 0
M  V30 1130 H 105.106 3.6746 0.983719 0
M  V30 1131 H 106.418 4.75693 1.50059 0
M  V30 1132 H 105.572 4.68465 3.85519 0
M  V30 1133 H 104.311 3.50948 3.38655 0
M  V30 1134 H 103.316 5.19133 1.81055 0
M  V30 1135 H 104.541 6.38722 2.30675 0
M  V30 1136 H 102.487 5.09024 4.138 0
M  V30 1137 H 102.404 6.70018 3.5016 0
M  V30 1138 H 103.672 6.28212 4.61486 0
M  V30 1139 N 107.901 -0.206675 1.56239 0
M  V30 1140 C 108.811 -1.27686 1.96808 0
M  V30 1141 C 109.827 -1.50455 0.874035 0
M  V30 1142 O 111.003 -1.63295 1.17884 0
M  V30 1143 C 108.068 -2.60358 2.28942 0
M  V30 1144 C 107.129 -2.45762 3.51994 0
M  V30 1145 C 106.362 -3.72108 3.82585 0
M  V30 1146 O 106.585 -4.75776 3.14631 0
M  V30 1147 O 105.519 -3.6833 4.76043 0
M  V30 1148 H 109.345 -0.962593 2.88041 0
M  V30 1149 H 106.93 -0.410746 1.43643 0
M  V30 1150 H 108.812 -3.38687 2.50737 0
M  V30 1151 H 107.487 -2.91435 1.4088 0
M  V30 1152 H 106.394 -1.65584 3.35459 0
M  V30 1153 H 107.727 -2.19621 4.40486 0
M  V30 1154 N 109.379 -1.50304 -0.473955 0
M  V30 1155 C 110.625 -1.61389 -1.22806 0
M  V30 1156 C 110.958 -0.311955 -1.91678 0
M  V30 1157 O 110.233 0.686384 -1.81986 0
M  V30 1158 C 110.516 -2.79219 -2.27396 0
M  V30 1159 C 110.369 -4.19286 -1.62848 0
M  V30 1160 C 111.688 -2.92614 -3.28732 0
M  V30 1161 H 108.807 -0.587399 -0.445119 0
M  V30 1162 H 111.449 -1.82681 -0.522265 0
M  V30 1163 H 109.599 -2.61195 -2.87592 0
M  V30 1164 H 111.271 -4.48892 -1.06271 0
M  V30 1165 H 109.514 -4.23677 -0.931693 0
M  V30 1166 H 110.185 -4.97655 -2.38838 0
M  V30 1167 H 112.661 -3.09105 -2.78556 0
M  V30 1168 H 111.537 -3.76688 -3.99246 0
M  V30 1169 H 111.798 -2.03107 -3.92683 0
M  V30 1170 N 110.857 0.726932 -1.39834 0
M  V30 1171 C 112.134 1.47902 -1.28001 0
M  V30 1172 C 112.514 2.1083 0.106789 0
M  V30 1173 O 111.862 1.99242 1.11869 0
M  V30 1174 C 112.072 2.52392 -2.41038 0
M  V30 1175 C 113.42 3.18546 -2.80737 0
M  V30 1176 O 114.444 2.62708 -2.40547 0
M  V30 1177 O 113.303 4.19604 -3.50135 0
M  V30 1178 H 110.397 0.657163 -0.502062 0
M  V30 1179 H 112.943 0.760071 -1.51727 0
M  V30 1180 H 111.715 2.04329 -3.33715 0
M  V30 1181 H 111.338 3.31837 -2.19021 0
M  V30 1182 N 112.336 1.25143 0.95797 0
M  V30 1183 C 113.585 1.0909 1.69654 0
M  V30 1184 C 113.898 -0.368548 1.92097 0
M  V30 1185 O 115.104 -0.649455 2.63618 0
M  V30 1186 C 113.56 1.90395 3.05414 0
M  V30 1187 C 113.168 3.4081 2.90779 0
M  V30 1188 C 114.912 1.82901 3.83076 0
M  V30 1189 C 112.819 4.14423 4.21909 0
M  V30 1190 H 111.749 0.404625 0.636235 0
M  V30 1191 H 114.4 1.4931 1.06672 0
M  V30 1192 H 112.782 1.42996 3.69281 0
M  V30 1193 H 113.956 3.95859 2.35865 0
M  V30 1194 H 112.271 3.49361 2.26575 0
M  V30 1195 H 114.868 2.35196 4.80195 0
M  V30 1196 H 115.211 0.796224 4.08615 0
M  V30 1197 H 115.744 2.28033 3.25954 0
M  V30 1198 H 112.483 5.18102 4.01561 0
M  V30 1199 H 112.003 3.64159 4.76601 0
M  V30 1200 H 113.682 4.21956 4.90471 0
M  V30 1201 N 113.814 -1.1601 1.06675 0
M  V30 1202 C 114.744 -2.22688 0.702307 0
M  V30 1203 C 115.725 -1.67306 -0.307032 0
M  V30 1204 O 116.91 -1.93352 -0.181305 0
M  V30 1205 C 114.04 -3.47178 0.092038 0
M  V30 1206 C 112.994 -4.15477 1.02777 0
M  V30 1207 C 112.32 -5.33963 0.28061 0
M  V30 1208 C 113.62 -4.66019 2.35846 0
M  V30 1209 H 115.314 -2.53429 1.59419 0
M  V30 1210 H 112.86 -1.21813 0.767961 0
M  V30 1211 H 114.813 -4.21037 -0.174814 0
M  V30 1212 H 113.537 -3.15749 -0.834877 0
M  V30 1213 H 112.196 -3.43549 1.27944 0
M  V30 1214 H 111.844 -4.98788 -0.649545 0
M  V30 1215 H 111.544 -5.806 0.904258 0
M  V30 1216 H 113.068 -6.10596 0.021396 0
M  V30 1217 H 114.482 -5.3144 2.15045 0
M  V30 1218 H 112.879 -5.23293 2.93743 0
M  V30 1219 H 113.949 -3.82023 2.98641 0
M  V30 1220 N 115.292 -0.849877 -1.32721 0
M  V30 1221 C 116.708 -0.539102 -1.50219 0
M  V30 1222 C 116.908 0.931271 -1.78689 0
M  V30 1223 O 115.964 1.71455 -1.85363 0
M  V30 1224 C 117.277 -1.42196 -2.64954 0
M  V30 1225 C 118.825 -1.42189 -2.78839 0
M  V30 1226 C 119.3 -2.28985 -3.96648 0
M  V30 1227 N 120.791 -2.26754 -4.03902 0
M  V30 1228 C 121.526 -2.90644 -4.94281 0
M  V30 1229 N 121.022 -3.63629 -5.897 0
M  V30 1230 N 122.815 -2.80057 -4.87365 0
M  V30 1231 H 114.966 -1.80156 -1.12506 0
M  V30 1232 H 117.229 -0.769217 -0.554085 0
M  V30 1233 H 116.935 -2.46733 -2.50631 0
M  V30 1234 H 116.809 -1.10591 -3.60624 0
M  V30 1235 H 119.196 -0.38419 -2.92588 0
M  V30 1236 H 119.277 -1.77807 -1.83898 0
M  V30 1237 H 118.921 -3.32819 -3.83658 0
M  V30 1238 H 118.851 -1.90702 -4.90857 0
M  V30 1239 H 121.342 -1.73688 -3.3562 0
M  V30 1240 H 121.655 -4.09558 -6.55349 0
M  V30 1241 H 120 -3.67737 -5.89741 0
M  V30 1242 H 123.191 -2.22593 -4.11789 0
M  V30 1243 H 123.364 -3.30132 -5.57599 0
M  V30 1244 N 116.77 1.45427 -0.607355 0
M  V30 1245 C 117.717 2.3053 0.111625 0
M  V30 1246 C 118.687 1.4209 0.860216 0
M  V30 1247 O 119.872 1.71019 0.845998 0
M  V30 1248 C 117.012 3.26992 1.10319 0
M  V30 1249 C 116.125 4.30535 0.355493 0
M  V30 1250 C 115.26 5.14105 1.33676 0
M  V30 1251 C 114.299 6.09376 0.576862 0
M  V30 1252 N 113.436 6.85727 1.5074 0
M  V30 1253 H 118.276 2.91477 -0.620093 0
M  V30 1254 H 115.813 1.43631 -0.317594 0
M  V30 1255 H 117.771 3.81385 1.6912 0
M  V30 1256 H 116.401 2.67799 1.80232 0
M  V30 1257 H 115.453 3.78805 -0.348023 0
M  V30 1258 H 116.765 4.98235 -0.237423 0
M  V30 1259 H 115.919 5.72897 1.99684 0
M  V30 1260 H 114.658 4.46423 1.9636 0
M  V30 1261 H 113.663 5.49715 -0.0968519 0
M  V30 1262 H 114.888 6.79085 -0.0449341 0
M  V30 1263 H 112.834 6.20735 2.12189 0
M  V30 1264 H 112.751 7.49778 0.967913 0
M  V30 1265 H 114.019 7.4906 2.15706 0
M  V30 1266 N 118.248 0.346503 1.53744 0
M  V30 1267 C 119.494 -0.249473 2.0126 0
M  V30 1268 C 119.827 -1.49965 1.23386 0
M  V30 1269 O 119.102 -1.91811 0.32229 0
M  V30 1270 C 119.385 -0.560643 3.55709 0
M  V30 1271 C 119.238 0.701836 4.44291 0
M  V30 1272 C 120.557 -1.36905 4.18264 0
M  V30 1273 H 117.676 -0.0891987 0.731582 0
M  V30 1274 H 120.318 0.467624 1.84156 0
M  V30 1275 H 118.468 -1.17156 3.70414 0
M  V30 1276 H 120.14 1.33974 4.41417 0
M  V30 1277 H 118.383 1.32612 4.13033 0
M  V30 1278 H 119.054 0.43933 5.50249 0
M  V30 1279 H 121.53 -0.852448 4.07275 0
M  V30 1280 H 120.406 -1.55553 5.26398 0
M  V30 1281 H 120.667 -2.37203 3.73078 0
M  V30 1282 N 119.726 -1.57421 0.075193 0
M  V30 1283 C 120.951 -1.98364 -0.605515 0
M  V30 1284 C 121.376 -0.953383 -1.62149 0
M  V30 1285 O 120.734 0.0806053 -1.81121 0
M  V30 1286 C 120.782 -3.38332 -1.24756 0
M  V30 1287 O 119.886 -3.37959 -2.36342 0
M  V30 1288 H 119.227 -0.645553 -0.155428 0
M  V30 1289 H 121.757 -2.04044 0.150714 0
M  V30 1290 H 121.767 -3.75591 -1.5936 0
M  V30 1291 H 120.442 -4.12846 -0.503129 0
M  V30 1292 H 119.019 -3.12474 -2.03506 0
M  V30 1293 N 121.204 0.198386 -1.56346 0
M  V30 1294 C 122.452 0.91747 -1.80075 0
M  V30 1295 C 122.773 1.83929 -0.647692 0
M  V30 1296 O 122.043 1.93029 0.334166 0
M  V30 1297 H 120.623 0.341774 -0.664228 0
M  V30 1298 H 123.285 0.204684 -1.93822 0
M  V30 1299 H 122.381 1.51055 -2.7311 0
M  V30 1300 N 122.682 1.50554 0.465978 0
M  V30 1301 C 123.632 1.66177 1.56106 0
M  V30 1302 C 124.616 0.516265 1.52393 0
M  V30 1303 O 125.808 0.770906 1.5933 0
M  V30 1304 C 122.937 1.76396 2.94515 0
M  V30 1305 C 122.023 2.9664 3.03093 0
M  V30 1306 N 122.414 4.20245 2.81474 0
M  V30 1307 C 120.712 2.95304 3.34233 0
M  V30 1308 C 121.413 5.01259 2.95151 0
M  V30 1309 N 120.389 4.35318 3.25576 0
M  V30 1310 H 124.191 2.59434 1.38099 0
M  V30 1311 H 121.705 1.47808 0.6728 0
M  V30 1312 H 123.702 1.85694 3.73261 0
M  V30 1313 H 122.362 0.843017 3.13565 0
M  V30 1314 H 123.373 4.4966 2.56956 0
M  V30 1315 H 120.05 2.12729 3.59239 0
M  V30 1316 H 121.44 6.09564 2.82632 0
M  V30 1317 N 124.16 -0.719506 1.40217 0
M  V30 1318 C 125.571 -1.29848 1.34151 0
M  V30 1319 C 125.922 -1.96196 0.0131349 0
M  V30 1320 O 125.047 -1.973 -0.88892 0
M  V30 1321 C 125.642 -2.36118 2.42968 0
M  V30 1322 C 124.201 -2.8965 2.40374 0
M  V30 1323 C 123.348 -1.63393 2.24049 0
M  V30 1324 H 126.299 -0.51591 1.5008 0
M  V30 1325 H 126.32 -3.16871 2.10649 0
M  V30 1326 H 125.832 -1.878 3.39636 0
M  V30 1327 H 123.933 -3.42208 1.47392 0
M  V30 1328 H 124.046 -3.4171 3.35814 0
M  V30 1329 H 122.41 -1.88312 1.71495 0
M  V30 1330 H 123.193 -1.17104 3.2271 0
M  V30 1331 N 125.638 -1.25649 -0.95132 0
M  V30 1332 C 126.586 -1.06118 -2.06982 0
M  V30 1333 C 127.58 0.00889169 -1.69398 0
M  V30 1334 O 128.786 -0.146988 -1.79399 0
M  V30 1335 H 125.161 -0.326248 -0.677544 0
M  V30 1336 H 127.132 -2.00932 -2.2061 0
M  V30 1337 C 125.881 -0.700145 -3.40578 0
M  V30 1338 H 125.204 -1.51537 -3.69968 0
M  V30 1339 H 126.644 -0.603211 -4.19687 0
M  V30 1340 C 125.103 0.59403 -3.31622 0
M  V30 1341 O 125.633 1.63522 -3.66911 0
M  V30 1342 N 123.839 0.58089 -2.84735 0
M  V30 1343 H 123.386 -0.266783 -2.56215 0
M  V30 1344 H 123.344 1.44695 -2.79125 0
M  V30 1345 N 127.117 1.15442 -1.07289 0
M  V30 1346 C 128.366 1.85557 -0.790669 0
M  V30 1347 C 128.679 1.83186 0.685739 0
M  V30 1348 O 129.885 2.48977 1.0827 0
M  V30 1349 C 128.341 3.33038 -1.36433 0
M  V30 1350 C 127.949 3.43856 -2.8717 0
M  V30 1351 C 129.693 4.0834 -1.1601 0
M  V30 1352 C 127.6 4.85482 -3.3773 0
M  V30 1353 H 126.53 0.695122 -0.292098 0
M  V30 1354 H 129.181 1.30219 -1.29287 0
M  V30 1355 H 127.563 3.88043 -0.789864 0
M  V30 1356 H 128.737 2.98961 -3.50655 0
M  V30 1357 H 127.052 2.81998 -3.06376 0
M  V30 1358 H 129.649 5.12859 -1.51262 0
M  V30 1359 H 129.992 4.16182 -0.0991007 0
M  V30 1360 H 130.525 3.59603 -1.70089 0
M  V30 1361 H 127.264 4.82823 -4.43353 0
M  V30 1362 H 126.784 5.30961 -2.78999 0
M  V30 1363 H 128.463 5.54335 -3.33648 0
M  V30 1364 N 128.595 0.856903 1.32268 0
M  V30 1365 C 129.844 0.457599 1.96441 0
M  V30 1366 C 130.157 -0.992426 1.68553 0
M  V30 1367 O 131.363 -1.49727 2.26482 0
M  V30 1368 C 129.819 0.767358 3.51624 0
M  V30 1369 C 129.427 2.23326 3.88367 0
M  V30 1370 C 131.171 0.435887 4.22256 0
M  V30 1371 C 129.078 2.48613 5.36606 0
M  V30 1372 H 128.008 0.167387 0.735185 0
M  V30 1373 H 130.659 1.048 1.5063 0
M  V30 1374 H 129.041 0.106367 3.95857 0
M  V30 1375 H 130.215 2.93623 3.55137 0
M  V30 1376 H 128.53 2.52948 3.30766 0
M  V30 1377 H 131.127 0.602202 5.31298 0
M  V30 1378 H 131.47 -0.622672 4.11617 0
M  V30 1379 H 132.003 1.05286 3.83614 0
M  V30 1380 H 128.742 3.53101 5.52268 0
M  V30 1381 H 128.262 1.82896 5.71235 0
M  V30 1382 H 129.941 2.32676 6.03714 0
M  V30 1383 N 130.073 -1.45103 0.615059 0
M  V30 1384 C 131.005 -2.28786 -0.13762 0
M  V30 1385 C 132.018 -1.40376 -0.824525 0
M  V30 1386 O 133.207 -1.64681 -0.688662 0
M  V30 1387 C 130.307 -3.16322 -1.21628 0
M  V30 1388 C 129.48 -4.33054 -0.615039 0
M  V30 1389 C 128.539 -5.01743 -1.58556 0
M  V30 1390 O 127.565 -5.58293 -1.10895 0
M  V30 1391 N 128.767 -5.01714 -2.91998 0
M  V30 1392 H 131.532 -2.94025 0.580483 0
M  V30 1393 H 129.093 -1.55373 0.45507 0
M  V30 1394 H 131.085 -3.59139 -1.86552 0
M  V30 1395 H 129.655 -2.52943 -1.83681 0
M  V30 1396 H 128.875 -3.93627 0.21245 0
M  V30 1397 H 130.163 -5.08431 -0.193704 0
M  V30 1398 H 129.561 -4.57075 -3.33316 0
M  V30 1399 H 128.118 -5.48371 -3.52325 0
M  V30 1400 N 131.551 -0.354651 -1.53558 0
M  V30 1401 C 132.481 0.489091 -2.2832 0
M  V30 1402 C 133.462 1.09324 -1.30316 0
M  V30 1403 O 134.647 1.11255 -1.59173 0
M  V30 1404 C 131.777 1.63456 -3.0643 0
M  V30 1405 C 130.731 1.1582 -4.12031 0
M  V30 1406 C 130.057 2.39305 -4.7816 0
M  V30 1407 C 131.357 0.250731 -5.21698 0
M  V30 1408 H 133.051 -0.134614 -2.99097 0
M  V30 1409 H 130.597 -0.0661826 -1.43848 0
M  V30 1410 H 132.55 2.23136 -3.57475 0
M  V30 1411 H 131.274 2.28533 -2.33325 0
M  V30 1412 H 129.933 0.584146 -3.61916 0
M  V30 1413 H 129.581 3.02814 -4.01637 0
M  V30 1414 H 129.281 2.08109 -5.49513 0
M  V30 1415 H 130.805 2.99691 -5.31994 0
M  V30 1416 H 132.219 0.754695 -5.68311 0
M  V30 1417 H 130.616 0.0301468 -6.00092 0
M  V30 1418 H 131.686 -0.710125 -4.79672 0
M  V30 1419 N 133.029 1.57378 -0.0835403 0
M  V30 1420 C 133.976 2.13384 0.879539 0
M  V30 1421 C 134.946 1.04936 1.28754 0
M  V30 1422 O 136.131 1.32662 1.37133 0
M  V30 1423 C 133.271 2.70932 2.13752 0
M  V30 1424 C 132.384 3.93575 1.7811 0
M  V30 1425 C 131.519 4.39326 2.98607 0
M  V30 1426 C 130.558 5.54587 2.59037 0
M  V30 1427 N 129.695 5.95243 3.72331 0
M  V30 1428 H 134.535 2.9537 0.395076 0
M  V30 1429 H 132.072 1.45953 0.183349 0
M  V30 1430 H 134.03 3.02411 2.87408 0
M  V30 1431 H 132.66 1.91693 2.59718 0
M  V30 1432 H 131.712 3.68483 0.94469 0
M  V30 1433 H 133.024 4.77258 1.45005 0
M  V30 1434 H 132.178 4.72528 3.80529 0
M  V30 1435 H 130.917 3.5452 3.34913 0
M  V30 1436 H 129.922 5.21024 1.75539 0
M  V30 1437 H 131.147 6.41133 2.23887 0
M  V30 1438 H 129.093 5.13385 4.08378 0
M  V30 1439 H 129.01 6.73694 3.43034 0
M  V30 1440 H 130.278 6.33072 4.54797 0
M  V30 1441 N 134.507 -0.190092 1.56449 0
M  V30 1442 C 135.784 -0.935886 1.71757 0
M  V30 1443 C 136.164 -2.01173 0.639726 0
M  V30 1444 O 135.512 -2.25827 -0.348502 0
M  V30 1445 C 135.722 -1.51775 3.1427 0
M  V30 1446 C 137.07 -1.99794 3.74656 0
M  V30 1447 O 138.094 -1.61607 3.1743 0
M  V30 1448 O 136.953 -2.70079 4.751 0
M  V30 1449 H 134.047 -0.439229 0.700719 0
M  V30 1450 H 136.593 -0.179395 1.68749 0
M  V30 1451 H 135.365 -0.742505 3.84191 0
M  V30 1452 H 134.988 -2.33894 3.21527 0
M  V30 1453 N 135.985 -1.50799 -0.457987 0
M  V30 1454 C 137.213 -1.66218 -1.23203 0
M  V30 1455 C 137.628 -0.350894 -1.85511 0
M  V30 1456 O 136.985 0.668546 -1.69814 0
M  V30 1457 C 137.036 -2.76291 -2.33121 0
M  V30 1458 O 136.757 -4.02338 -1.73366 0
M  V30 1459 C 138.258 -3.028 -3.2377 0
M  V30 1460 H 135.478 -0.558361 -0.372121 0
M  V30 1461 H 138.022 -1.97099 -0.545179 0
M  V30 1462 H 136.177 -2.48068 -2.97558 0
M  V30 1463 H 136.591 -4.63312 -2.4585 0
M  V30 1464 H 138.065 -3.8345 -3.97077 0
M  V30 1465 H 138.542 -2.14385 -3.83322 0
M  V30 1466 H 139.148 -3.32604 -2.65056 0
M  V30 1467 N 137.463 0.71206 -1.40597 0
M  V30 1468 C 138.693 1.49894 -1.42181 0
M  V30 1469 C 139.101 1.89189 -0.0208078 0
M  V30 1470 O 138.444 1.56223 0.966436 0
M  V30 1471 C 138.506 2.80215 -2.25211 0
M  V30 1472 C 138.17 2.63221 -3.73582 0
M  V30 1473 C 139.167 2.30249 -4.66135 0
M  V30 1474 C 136.852 2.79376 -4.17438 0
M  V30 1475 C 138.846 2.13645 -6.00529 0
M  V30 1476 C 136.533 2.6239 -5.51901 0
M  V30 1477 C 137.531 2.29573 -6.43262 0
M  V30 1478 O 137.219 2.12719 -7.75246 0
M  V30 1479 H 136.951 0.469031 -0.486812 0
M  V30 1480 H 139.505 0.88564 -1.85326 0
M  V30 1481 H 137.735 3.4389 -1.76852 0
M  V30 1482 H 139.424 3.41947 -2.18694 0
M  V30 1483 H 140.19 2.17398 -4.33547 0
M  V30 1484 H 136.069 3.03906 -3.46644 0
M  V30 1485 H 139.613 1.87953 -6.71803 0
M  V30 1486 H 135.51 2.74826 -5.84073 0
M  V30 1487 H 136.278 2.27611 -7.86216 0
M  V30 1488 N 138.941 1.26152 0.944643 0
M  V30 1489 C 139.851 1.09176 2.07648 0
M  V30 1490 C 140.867 0.0261935 1.7398 0
M  V30 1491 O 142.043 0.229208 2.00091 0
M  V30 1492 C 139.108 0.722915 3.39079 0
M  V30 1493 C 138.169 1.86752 3.86552 0
M  V30 1494 C 137.402 1.51617 5.11711 0
M  V30 1495 O 137.625 0.416331 5.68879 0
M  V30 1496 O 136.559 2.34975 5.54139 0
M  V30 1497 H 140.385 2.0412 2.24875 0
M  V30 1498 H 137.97 1.05182 1.061 0
M  V30 1499 H 139.852 0.529787 4.18056 0
M  V30 1500 H 138.527 -0.197159 3.23099 0
M  V30 1501 H 137.434 2.11558 3.08535 0
M  V30 1502 H 138.767 2.76719 4.07047 0
M  V30 1503 N 140.419 -1.14872 1.07899 0
M  V30 1504 C 141.647 -1.89661 0.82683 0
M  V30 1505 C 142.062 -1.78312 -0.620519 0
M  V30 1506 O 141.419 -1.13888 -1.42604 0
M  V30 1507 C 141.47 -3.39817 1.23316 0
M  V30 1508 O 141.191 -3.50845 2.62372 0
M  V30 1509 C 142.692 -4.31615 1.0111 0
M  V30 1510 H 139.912 -0.60092 0.298557 0
M  V30 1511 H 142.456 -1.4551 1.43691 0
M  V30 1512 H 140.611 -3.8161 0.667286 0
M  V30 1513 H 141.025 -4.44076 2.79101 0
M  V30 1514 H 142.499 -5.35367 1.34486 0
M  V30 1515 H 142.976 -4.39169 -0.0522168 0
M  V30 1516 H 143.582 -3.95572 1.56215 0
M  V30 1517 N 141.898 -0.863906 -1.31812 0
M  V30 1518 C 142.846 -0.30422 -2.30602 0
M  V30 1519 C 143.84 0.577419 -1.59255 0
M  V30 1520 O 145.046 0.464194 -1.73912 0
M  V30 1521 H 141.421 -0.0796877 -0.747766 0
M  V30 1522 H 143.392 -1.15148 -2.75288 0
M  V30 1523 C 142.141 0.484617 -3.44306 0
M  V30 1524 H 141.464 -0.18451 -3.99374 0
M  V30 1525 H 142.904 0.841664 -4.15562 0
M  V30 1526 C 141.363 1.6735 -2.92396 0
M  V30 1527 O 141.893 2.77273 -2.90659 0
M  V30 1528 N 140.099 1.50362 -2.48676 0
M  V30 1529 H 139.646 0.609402 -2.50288 0
M  V30 1530 H 139.604 2.30051 -2.14299 0
M  V30 1531 N 143.376 1.44774 -0.622745 0
M  V30 1532 C 144.604 2.06487 -0.130722 0
M  V30 1533 C 145.019 1.46476 1.19123 0
M  V30 1534 O 144.376 0.584502 1.72887 0
M  V30 1535 C 144.427 3.615 -0.000807207 0
M  V30 1536 O 144.148 4.19274 -1.27048 0
M  V30 1537 C 145.649 4.40229 0.520898 0
M  V30 1538 H 142.869 0.666704 -0.0758106 0
M  V30 1539 H 145.413 1.85779 -0.854774 0
M  V30 1540 H 143.568 3.81498 0.673643 0
M  V30 1541 H 143.982 5.12622 -1.1099 0
M  V30 1542 H 145.456 5.49144 0.560838 0
M  V30 1543 H 145.933 4.1108 1.54627 0
M  V30 1544 H 146.539 4.25131 -0.120018 0
M  V30 1545 N 144.854 0.36279 1.53368 0
M  V30 1546 C 146.101 -0.227776 2.01215 0
M  V30 1547 C 146.429 -1.49003 1.25014 0
M  V30 1548 O 145.684 -1.92876 0.331236 0
M  V30 1549 C 145.983 -0.568417 3.52851 0
M  V30 1550 C 145.649 0.59918 4.46901 0
M  V30 1551 C 144.311 0.919559 4.72332 0
M  V30 1552 C 146.663 1.38156 5.02556 0
M  V30 1553 C 143.991 2.02434 5.5067 0
M  V30 1554 C 146.343 2.47674 5.821 0
M  V30 1555 C 145.007 2.8025 6.05819 0
M  V30 1556 H 144.277 -0.083349 0.736297 0
M  V30 1557 H 146.924 0.494677 1.85001 0
M  V30 1558 H 145.229 -1.37185 3.66998 0
M  V30 1559 H 146.926 -1.03756 3.87344 0
M  V30 1560 H 143.516 0.339437 4.27254 0
M  V30 1561 H 147.7 1.14729 4.82857 0
M  V30 1562 H 142.956 2.28075 5.67267 0
M  V30 1563 H 147.13 3.08716 6.24234 0
M  V30 1564 H 144.757 3.65979 6.66306 0
M  V30 1565 N 146.332 -1.57332 0.0918853 0
M  V30 1566 C 147.579 -1.94236 -0.572577 0
M  V30 1567 C 147.907 -0.973398 -1.6839 0
M  V30 1568 O 147.162 0.00756912 -1.95699 0
M  V30 1569 C 147.461 -3.37689 -1.17051 0
M  V30 1570 C 147.127 -4.50527 -0.183304 0
M  V30 1571 C 145.789 -4.81119 0.0882276 0
M  V30 1572 C 148.141 -5.18883 0.49095 0
M  V30 1573 C 145.469 -5.77395 1.04076 0
M  V30 1574 C 147.821 -6.1618 1.43193 0
M  V30 1575 C 146.485 -6.45179 1.71173 0
M  V30 1576 H 145.755 -0.710762 -0.209521 0
M  V30 1577 H 148.402 -1.9077 0.167036 0
M  V30 1578 H 146.707 -3.37718 -1.9863 0
M  V30 1579 H 148.404 -3.63543 -1.69227 0
M  V30 1580 H 144.994 -4.26681 -0.405124 0
M  V30 1581 H 149.178 -4.95427 0.294312 0
M  V30 1582 H 144.434 -5.98179 1.26457 0
M  V30 1583 H 148.608 -6.68243 1.96023 0
M  V30 1584 H 146.235 -7.1959 2.4514 0
M  V30 1585 N 147.81 0.181792 -1.56548 0
M  V30 1586 C 149.057 0.900097 -1.81396 0
M  V30 1587 C 149.385 1.82695 -0.667281 0
M  V30 1588 O 148.64 1.92614 0.346146 0
M  V30 1589 C 148.939 1.73728 -3.12335 0
M  V30 1590 C 148.605 0.960255 -4.40556 0
M  V30 1591 C 147.267 0.745766 -4.75386 0
M  V30 1592 C 149.619 0.414477 -5.19549 0
M  V30 1593 C 146.947 -0.0257694 -5.86694 0
M  V30 1594 C 149.299 -0.343916 -6.31664 0
M  V30 1595 C 147.963 -0.569301 -6.65068 0
M  V30 1596 H 147.233 0.329369 -0.663775 0
M  V30 1597 H 149.88 0.165647 -1.90782 0
M  V30 1598 H 148.185 2.54081 -2.98245 0
M  V30 1599 H 149.882 2.29591 -3.28769 0
M  V30 1600 H 146.472 1.13746 -4.13231 0
M  V30 1601 H 150.656 0.567554 -4.93044 0
M  V30 1602 H 145.912 -0.210233 -6.11038 0
M  V30 1603 H 150.086 -0.774133 -6.92084 0
M  V30 1604 H 147.713 -1.16903 -7.51158 0
M  V30 1605 N 149.288 1.51039 0.449983 0
M  V30 1606 C 150.218 1.74379 1.55288 0
M  V30 1607 C 151.199 0.593236 1.5942 0
M  V30 1608 O 152.384 0.834625 1.7535 0
M  V30 1609 C 149.514 1.85728 2.93466 0
M  V30 1610 C 148.468 3.01078 3.04197 0
M  V30 1611 C 147.794 2.97595 4.44231 0
M  V30 1612 C 149.094 4.41254 2.7945 0
M  V30 1613 H 150.788 2.66725 1.36008 0
M  V30 1614 H 148.334 1.2835 0.652864 0
M  V30 1615 H 150.287 2.0064 3.70569 0
M  V30 1616 H 149.011 0.900207 3.13949 0
M  V30 1617 H 147.67 2.85851 2.29531 0
M  V30 1618 H 147.318 1.99691 4.61663 0
M  V30 1619 H 147.018 3.75046 4.52343 0
M  V30 1620 H 148.542 3.14583 5.23326 0
M  V30 1621 H 149.956 4.56897 3.46292 0
M  V30 1622 H 148.353 5.20315 2.98985 0
M  V30 1623 H 149.423 4.52164 1.75144 0
M  V30 1624 N 150.766 -0.704594 1.40972 0
M  V30 1625 C 152.012 -1.46675 1.40051 0
M  V30 1626 C 152.345 -1.94199 0.00641102 0
M  V30 1627 O 151.62 -1.68916 -0.964235 0
M  V30 1628 C 151.903 -2.68505 2.39952 0
M  V30 1629 C 151.756 -2.26805 3.88432 0
M  V30 1630 C 153.075 -3.70686 2.37233 0
M  V30 1631 H 150.194 -0.532015 0.510028 0
M  V30 1632 H 152.836 -0.803255 1.72185 0
M  V30 1633 H 150.986 -3.25114 2.1268 0
M  V30 1634 H 152.658 -1.75592 4.26574 0
M  V30 1635 H 150.901 -1.58685 4.03734 0
M  V30 1636 H 151.572 -3.14181 4.53866 0
M  V30 1637 H 154.048 -3.23731 2.61415 0
M  V30 1638 H 152.924 -4.53553 3.09162 0
M  V30 1639 H 153.185 -4.19754 1.38777 0
M  V30 1640 N 152.244 -1.26651 -0.937939 0
M  V30 1641 C 153.491 -1.12387 -1.6845 0
M  V30 1642 C 153.819 0.332208 -1.91642 0
M  V30 1643 O 153.074 1.2602 -1.49725 0
M  V30 1644 C 153.373 -1.84168 -3.06295 0
M  V30 1645 C 153.039 -3.34056 -3.02849 0
M  V30 1646 C 151.701 -3.74942 -3.01616 0
M  V30 1647 C 154.053 -4.29741 -2.9491 0
M  V30 1648 C 151.381 -5.09894 -2.90215 0
M  V30 1649 C 153.733 -5.64738 -2.8505 0
M  V30 1650 C 152.397 -6.0493 -2.82162 0
M  V30 1651 H 151.667 -0.411252 -0.616403 0
M  V30 1652 H 154.314 -1.57134 -1.09459 0
M  V30 1653 H 152.619 -1.319 -3.6893 0
M  V30 1654 H 154.316 -1.70569 -3.62915 0
M  V30 1655 H 150.906 -3.01534 -3.0459 0
M  V30 1656 H 155.09 -3.99133 -2.94969 0
M  V30 1657 H 150.346 -5.40194 -2.86358 0
M  V30 1658 H 154.52 -6.38561 -2.77872 0
M  V30 1659 H 152.147 -7.09457 -2.73084 0
M  V30 1660 N 153.722 1.14298 -1.08507 0
M  V30 1661 C 154.999 1.81544 -0.728088 0
M  V30 1662 C 155.379 1.95838 0.78808 0
M  V30 1663 O 154.727 1.51904 1.70697 0
M  V30 1664 C 154.937 3.17169 -1.45619 0
M  V30 1665 C 156.285 3.9265 -1.61591 0
M  V30 1666 O 157.309 3.26762 -1.41793 0
M  V30 1667 O 156.168 5.10807 -1.94263 0
M  V30 1668 H 153.262 0.78491 -0.260471 0
M  V30 1669 H 155.808 1.21307 -1.18671 0
M  V30 1670 H 154.58 3.01934 -2.489 0
M  V30 1671 H 154.203 3.851 -0.989124 0
M  V30 1672 N 155.201 0.870884 1.31352 0
M  V30 1673 C 156.131 0.343096 2.30966 0
M  V30 1674 C 157.112 -0.566507 1.60389 0
M  V30 1675 O 158.297 -0.483336 1.88089 0
M  V30 1676 C 155.427 -0.455487 3.443 0
M  V30 1677 C 154.381 0.361103 4.26474 0
M  V30 1678 C 153.707 -0.563221 5.31725 0
M  V30 1679 C 155.007 1.59566 4.97329 0
M  V30 1680 H 156.701 1.17548 2.75359 0
M  V30 1681 H 154.247 0.566686 1.32381 0
M  V30 1682 H 156.2 -0.83525 4.13039 0
M  V30 1683 H 154.924 -1.32139 2.98675 0
M  V30 1684 H 153.583 0.722825 3.59403 0
M  V30 1685 H 153.231 -1.42643 4.82351 0
M  V30 1686 H 152.931 -0.0207409 5.87596 0
M  V30 1687 H 154.455 -0.939808 6.03324 0
M  V30 1688 H 155.869 1.28728 5.58661 0
M  V30 1689 H 154.266 2.07728 5.63 0
M  V30 1690 H 155.336 2.34798 4.24262 0
M  V30 1691 N 156.679 -1.44442 0.630414 0
M  V30 1692 C 157.612 -2.27862 -0.124247 0
M  V30 1693 C 158.59 -1.38495 -0.851931 0
M  V30 1694 O 159.774 -1.67935 -0.856166 0
M  V30 1695 C 156.901 -3.17407 -1.18197 0
M  V30 1696 C 155.947 -4.22875 -0.554892 0
M  V30 1697 S 156.78 -5.31485 0.654489 0
M  V30 1698 C 157.936 -6.246 -0.40326 0
M  V30 1699 H 158.169 -2.91519 0.583435 0
M  V30 1700 H 155.702 -1.48618 0.418565 0
M  V30 1701 H 157.66 -3.69549 -1.78728 0
M  V30 1702 H 156.321 -2.52971 -1.86184 0
M  V30 1703 H 155.514 -4.85542 -1.35148 0
M  V30 1704 H 155.116 -3.73992 -0.0242105 0
M  V30 1705 H 157.408 -6.65375 -1.27602 0
M  V30 1706 H 158.351 -7.07851 0.187813 0
M  V30 1707 H 158.759 -5.59775 -0.728837 0
M  V30 1708 N 158.157 -0.370918 -1.53173 0
M  V30 1709 C 159.104 0.473035 -2.259 0
M  V30 1710 C 160.074 1.07311 -1.26781 0
M  V30 1711 O 161.259 1.1046 -1.55574 0
M  V30 1712 C 158.399 1.60405 -3.05556 0
M  V30 1713 C 157.512 1.02863 -4.19575 0
M  V30 1714 C 156.647 2.12918 -4.86661 0
M  V30 1715 C 155.686 1.52869 -5.92704 0
M  V30 1716 N 154.823 2.56779 -6.53459 0
M  V30 1717 H 159.663 -0.153649 -2.97604 0
M  V30 1718 H 157.2 -0.0875946 -1.46839 0
M  V30 1719 H 159.158 2.27034 -3.50016 0
M  V30 1720 H 157.788 2.20131 -2.36097 0
M  V30 1721 H 156.84 0.252465 -3.79561 0
M  V30 1722 H 158.152 0.549642 -4.95762 0
M  V30 1723 H 157.306 2.87356 -5.34333 0
M  V30 1724 H 156.045 2.6417 -4.09958 0
M  V30 1725 H 155.05 0.769479 -5.44389 0
M  V30 1726 H 156.275 1.02435 -6.7133 0
M  V30 1727 H 154.221 3.07235 -5.79606 0
M  V30 1728 H 154.138 2.13583 -7.25202 0
M  V30 1729 H 155.406 3.30903 -7.05779 0
M  V30 1730 N 159.635 1.57281 -0.100228 0
M  V30 1731 C 161.051 1.57527 0.256416 0
M  V30 1732 C 161.251 1.11173 1.68056 0
M  V30 1733 O 160.307 0.79053 2.39806 0
M  V30 1734 C 161.62 3.00673 0.0401747 0
M  V30 1735 C 163.168 3.12815 0.107528 0
M  V30 1736 C 163.643 4.57929 -0.0807834 0
M  V30 1737 N 165.134 4.63193 -0.0261207 0
M  V30 1738 C 165.869 5.73212 -0.146999 0
M  V30 1739 N 165.365 6.92047 -0.322999 0
M  V30 1740 N 167.158 5.62031 -0.0879044 0
M  V30 1741 H 159.309 1.85718 -1.03065 0
M  V30 1742 H 161.572 0.857446 -0.404339 0
M  V30 1743 H 161.278 3.38804 -0.943649 0
M  V30 1744 H 161.152 3.69042 0.780262 0
M  V30 1745 H 163.539 2.74554 1.08186 0
M  V30 1746 H 163.62 2.47028 -0.664134 0
M  V30 1747 H 163.264 4.96886 -1.05201 0
M  V30 1748 H 163.194 5.21783 0.710635 0
M  V30 1749 H 165.685 3.77748 0.107161 0
M  V30 1750 H 165.998 7.7173 -0.406608 0
M  V30 1751 H 164.343 6.94074 -0.358733 0
M  V30 1752 H 167.534 4.68075 0.048498 0
M  V30 1753 H 167.707 6.47734 -0.185557 0
M  V30 1754 N 161.113 -0.173488 1.56642 0
M  V30 1755 C 162.361 -0.888706 1.81512 0
M  V30 1756 C 162.682 -1.82875 0.676872 0
M  V30 1757 O 161.952 -1.93536 -0.303414 0
M  V30 1758 H 160.532 -0.331164 0.669582 0
M  V30 1759 H 163.194 -0.173823 1.94123 0
M  V30 1760 H 162.29 -1.46691 2.75478 0
M  V30 1761 N 162.591 -1.51276 -0.441967 0
M  V30 1762 C 163.501 -1.75092 -1.56141 0
M  V30 1763 C 164.517 -0.634963 -1.62001 0
M  V30 1764 O 165.693 -0.916686 -1.79329 0
M  V30 1765 C 162.758 -1.86666 -2.92158 0
M  V30 1766 C 161.819 -3.10506 -2.96453 0
M  V30 1767 C 161.052 -3.21519 -4.25982 0
M  V30 1768 O 161.275 -2.38586 -5.18105 0
M  V30 1769 O 160.209 -4.14465 -4.36466 0
M  V30 1770 H 164.035 -2.70044 -1.38961 0
M  V30 1771 H 161.62 -1.35722 -0.624499 0
M  V30 1772 H 163.502 -1.96292 -3.72891 0
M  V30 1773 H 162.177 -0.949014 -3.09476 0
M  V30 1774 H 161.084 -3.06363 -2.14692 0
M  V30 1775 H 162.417 -4.01945 -2.84079 0
M  V30 1776 N 164.069 0.697108 -1.41344 0
M  V30 1777 C 164.999 1.82353 -1.45841 0
M  V30 1778 C 165.98 1.67115 -0.317247 0
M  V30 1779 O 167.165 1.86871 -0.528474 0
M  V30 1780 C 164.295 3.20476 -1.33838 0
M  V30 1781 C 163.249 3.50415 -2.4575 0
M  V30 1782 C 162.575 4.87878 -2.18813 0
M  V30 1783 C 163.875 3.49546 -3.88091 0
M  V30 1784 H 165.569 1.78846 -2.40113 0
M  V30 1785 H 163.115 0.859028 -1.15571 0
M  V30 1786 H 165.068 3.98988 -1.35596 0
M  V30 1787 H 163.792 3.24604 -0.360498 0
M  V30 1788 H 162.451 2.74253 -2.43271 0
M  V30 1789 H 162.099 4.8863 -1.19371 0
M  V30 1790 H 161.799 5.08875 -2.93803 0
M  V30 1791 H 163.323 5.68702 -2.22284 0
M  V30 1792 H 164.737 4.18066 -3.92293 0
M  V30 1793 H 163.134 3.82075 -4.62751 0
M  V30 1794 H 164.204 2.48552 -4.16353 0
M  V30 1795 N 165.547 1.27147 0.931209 0
M  V30 1796 C 166.794 1.13278 1.67852 0
M  V30 1797 C 167.122 -0.32204 1.91815 0
M  V30 1798 O 166.377 -1.25224 1.50391 0
M  V30 1799 C 166.676 1.8579 3.05314 0
M  V30 1800 C 166.342 3.35657 3.01073 0
M  V30 1801 C 165.004 3.76536 2.99623 0
M  V30 1802 C 167.356 4.31299 2.92627 0
M  V30 1803 C 164.684 5.11426 2.87506 0
M  V30 1804 C 167.036 5.66242 2.82051 0
M  V30 1805 C 165.7 6.06418 2.7895 0
M  V30 1806 H 164.97 0.414515 0.614214 0
M  V30 1807 H 167.617 1.57712 1.08624 0
M  V30 1808 H 165.922 1.33854 3.68226 0
M  V30 1809 H 167.619 1.72491 3.62005 0
M  V30 1810 H 164.209 3.03146 3.02986 0
M  V30 1811 H 168.393 4.00692 2.92848 0
M  V30 1812 H 163.649 5.41705 2.83489 0
M  V30 1813 H 167.823 6.40026 2.74481 0
M  V30 1814 H 165.45 7.10895 2.69318 0
M  V30 1815 N 167.025 -1.13721 1.09112 0
M  V30 1816 C 168.302 -1.81155 0.737706 0
M  V30 1817 C 168.682 -1.96253 -0.777683 0
M  V30 1818 O 168.03 -1.52807 -1.69889 0
M  V30 1819 C 168.24 -3.16392 1.47299 0
M  V30 1820 C 169.588 -3.91787 1.63671 0
M  V30 1821 O 170.612 -3.26005 1.43524 0
M  V30 1822 O 169.471 -5.0977 1.96969 0
M  V30 1823 H 166.565 -0.783518 0.26463 0
M  V30 1824 H 169.111 -1.20676 1.19312 0
M  V30 1825 H 167.883 -3.0061 2.50498 0
M  V30 1826 H 167.506 -3.8457 1.00953 0
M  V30 1827 N 168.503 -0.877838 -1.30888 0
M  V30 1828 C 169.733 -0.506678 -2.00291 0
M  V30 1829 C 170.141 0.907449 -1.66018 0
M  V30 1830 O 169.484 1.60719 -0.88967 0
M  V30 1831 C 169.546 -0.59323 -3.54572 0
M  V30 1832 C 169.21 -1.97038 -4.12341 0
M  V30 1833 C 170.207 -2.93889 -4.28865 0
M  V30 1834 C 167.892 -2.27383 -4.47886 0
M  V30 1835 C 169.886 -4.19224 -4.80136 0
M  V30 1836 C 167.573 -3.52965 -4.98857 0
M  V30 1837 C 168.571 -4.48701 -5.14934 0
M  V30 1838 O 168.259 -5.72056 -5.64808 0
M  V30 1839 H 167.991 -0.1951 -0.647234 0
M  V30 1840 H 170.545 -1.18301 -1.6791 0
M  V30 1841 H 168.775 0.140057 -3.86446 0
M  V30 1842 H 170.464 -0.234372 -4.05223 0
M  V30 1843 H 171.23 -2.71756 -4.01714 0
M  V30 1844 H 167.109 -1.53639 -4.34645 0
M  V30 1845 H 170.653 -4.93956 -4.92599 0
M  V30 1846 H 166.55 -3.74939 -5.25443 0
M  V30 1847 H 167.318 -5.74337 -5.83163 0
M  V30 1848 N 169.982 1.44106 -0.638065 0
M  V30 1849 C 170.912 2.33448 0.0494287 0
M  V30 1850 C 171.893 1.48606 0.827672 0
M  V30 1851 O 173.078 1.77308 0.792173 0
M  V30 1852 C 170.208 3.31771 1.02691 0
M  V30 1853 C 169.162 4.26485 0.359823 0
M  V30 1854 C 168.488 5.14729 1.44769 0
M  V30 1855 C 169.788 5.17056 -0.738296 0
M  V30 1856 H 171.482 2.91183 -0.696636 0
M  V30 1857 H 169.028 1.40014 -0.336456 0
M  V30 1858 H 170.981 3.93161 1.51666 0
M  V30 1859 H 169.705 2.7226 1.80395 0
M  V30 1860 H 168.364 3.66437 -0.10934 0
M  V30 1861 H 168.012 4.51566 2.21578 0
M  V30 1862 H 167.712 5.78913 1.00668 0
M  V30 1863 H 169.236 5.78991 1.93911 0
M  V30 1864 H 170.65 5.72342 -0.331354 0
M  V30 1865 H 169.047 5.89879 -1.10286 0
M  V30 1866 H 170.117 4.57652 -1.60258 0
M  V30 1867 N 171.46 0.379036 1.52974 0
M  V30 1868 C 172.688 -0.20679 2.05864 0
M  V30 1869 C 173.103 -1.41356 1.25155 0
M  V30 1870 O 172.46 -1.8009 0.295588 0
M  V30 1871 C 172.511 -0.587045 3.56702 0
M  V30 1872 O 172.232 0.571776 4.34353 0
M  V30 1873 C 173.733 -1.22983 4.25899 0
M  V30 1874 H 170.953 -0.0336123 0.670158 0
M  V30 1875 H 173.497 0.541298 1.97206 0
M  V30 1876 H 171.652 -1.28504 3.65466 0
M  V30 1877 H 172.066 0.261544 5.23847 0
M  V30 1878 H 173.54 -1.44635 5.32715 0
M  V30 1879 H 174.017 -2.19416 3.80465 0
M  V30 1880 H 174.623 -0.572892 4.21424 0
M  V30 1881 N 172.938 -1.57226 0.108567 0
M  V30 1882 C 173.848 -2.18292 -0.859401 0
M  V30 1883 C 174.864 -1.15612 -1.30038 0
M  V30 1884 O 176.04 -1.48039 -1.36552 0
M  V30 1885 C 173.105 -2.762 -2.09558 0
M  V30 1886 C 172.166 -3.93881 -1.70752 0
M  V30 1887 C 171.399 -4.49018 -2.88477 0
M  V30 1888 O 171.622 -4.03068 -4.036 0
M  V30 1889 O 170.556 -5.39852 -2.66164 0
M  V30 1890 H 174.382 -3.01441 -0.369769 0
M  V30 1891 H 171.967 -1.48945 -0.1165 0
M  V30 1892 H 173.849 -3.13156 -2.81978 0
M  V30 1893 H 172.524 -1.96089 -2.57548 0
M  V30 1894 H 171.431 -3.61713 -0.954714 0
M  V30 1895 H 172.764 -4.75396 -1.27513 0
M  V30 1896 N 174.416 0.165178 -1.56732 0
M  V30 1897 C 175.363 1.2044 -1.96883 0
M  V30 1898 C 176.333 1.43664 -0.833657 0
M  V30 1899 O 177.518 1.56302 -1.09427 0
M  V30 1900 C 174.658 2.53727 -2.33916 0
M  V30 1901 C 173.771 2.3783 -3.6064 0
M  V30 1902 C 172.906 3.64026 -3.86857 0
M  V30 1903 C 171.945 3.43088 -5.06909 0
M  V30 1904 N 171.082 4.61369 -5.29229 0
M  V30 1905 H 175.922 0.854996 -2.85471 0
M  V30 1906 H 173.459 0.41076 -1.41249 0
M  V30 1907 H 175.417 3.31419 -2.53411 0
M  V30 1908 H 174.047 2.8665 -1.48431 0
M  V30 1909 H 173.099 1.51282 -3.49024 0
M  V30 1910 H 174.411 2.18308 -4.4849 0
M  V30 1911 H 173.565 4.50152 -4.06753 0
M  V30 1912 H 172.304 3.86533 -2.97394 0
M  V30 1913 H 171.309 2.55349 -4.86906 0
M  V30 1914 H 172.534 3.21997 -5.97909 0
M  V30 1915 H 170.48 4.84084 -4.42718 0
M  V30 1916 H 170.397 4.44783 -6.11313 0
M  V30 1917 H 171.665 5.48761 -5.53608 0
M  V30 1918 N 175.894 1.51508 0.433938 0
M  V30 1919 C 177.14 1.64588 1.18484 0
M  V30 1920 C 177.473 0.362666 1.90784 0
M  V30 1921 O 176.748 -0.637892 1.83742 0
M  V30 1922 C 177.031 2.85149 2.19913 0
M  V30 1923 C 176.884 4.23456 1.51674 0
M  V30 1924 C 178.203 3.01227 3.20858 0
M  V30 1925 H 175.322 0.598994 0.429389 0
M  V30 1926 H 177.964 1.84002 0.473647 0
M  V30 1927 H 176.114 2.68729 2.80566 0
M  V30 1928 H 177.786 4.51552 0.943322 0
M  V30 1929 H 176.029 4.25998 0.819035 0
M  V30 1930 H 176.7 5.03812 2.2556 0
M  V30 1931 H 179.176 3.16382 2.70263 0
M  V30 1932 H 178.052 3.87141 3.89118 0
M  V30 1933 H 178.313 2.13447 3.8716 0
M  V30 1934 N 177.372 -0.689602 1.41712 0
M  V30 1935 C 178.6 -1.47827 1.44758 0
M  V30 1936 C 179.015 -1.88721 0.0545703 0
M  V30 1937 O 178.372 -1.57176 -0.927463 0
M  V30 1938 C 178.423 -2.73698 2.3616 0
M  V30 1939 O 178.144 -2.34524 3.7004 0
M  V30 1940 C 179.645 -3.67389 2.48072 0
M  V30 1941 H 176.865 -0.455357 0.49284 0
M  V30 1942 H 179.409 -0.848574 1.86063 0
M  V30 1943 H 177.564 -3.32891 1.98148 0
M  V30 1944 H 177.978 -3.15701 4.18847 0
M  V30 1945 H 179.452 -4.52475 3.16181 0
M  V30 1946 H 179.929 -4.12284 1.51388 0
M  V30 1947 H 180.535 -3.14097 2.86746 0
M  V30 1948 N 178.85 -1.27639 -0.924453 0
M  V30 1949 C 179.78 -1.13166 -2.04244 0
M  V30 1950 C 180.761 -0.032256 -1.70069 0
M  V30 1951 O 181.946 -0.207328 -1.9309 0
M  V30 1952 C 179.076 -0.781496 -3.38393 0
M  V30 1953 C 178.03 -1.83449 -3.86692 0
M  V30 1954 C 177.356 -1.33822 -5.17683 0
M  V30 1955 C 178.656 -3.23917 -4.09726 0
M  V30 1956 H 180.35 -2.06689 -2.1661 0
M  V30 1957 H 177.896 -0.995136 -1.04082 0
M  V30 1958 H 179.849 -0.667057 -4.16087 0
M  V30 1959 H 178.573 0.189439 -3.2605 0
M  V30 1960 H 177.232 -1.93789 -3.11193 0
M  V30 1961 H 176.88 -0.35665 -5.01734 0
M  V30 1962 H 176.58 -2.04224 -5.50968 0
M  V30 1963 H 178.104 -1.23679 -5.97943 0
M  V30 1964 H 179.518 -3.16559 -4.77978 0
M  V30 1965 H 177.915 -3.92059 -4.54324 0
M  V30 1966 H 178.985 -3.68729 -3.14908 0
M  V30 1967 N 180.328 1.1314 -1.09713 0
M  V30 1968 C 181.553 1.88862 -0.857081 0
M  V30 1969 C 181.978 1.78729 0.586304 0
M  V30 1970 O 181.336 1.13692 1.41222 0
M  V30 1971 C 181.384 3.36325 -1.30069 0
M  V30 1972 O 180.488 4.09815 -0.461007 0
M  V30 1973 H 179.829 0.587108 -0.310162 0
M  V30 1974 H 182.359 1.43129 -1.46203 0
M  V30 1975 H 182.369 3.87157 -1.28738 0
M  V30 1976 H 181.044 3.43017 -2.35185 0
M  V30 1977 H 179.621 3.68986 -0.538888 0
M  V30 1978 N 181.806 0.884767 1.30421 0
M  V30 1979 C 182.716 0.355398 2.31892 0
M  V30 1980 C 183.732 -0.542261 1.65335 0
M  V30 1981 O 184.908 -0.435432 1.96637 0
M  V30 1982 C 181.973 -0.421661 3.44126 0
M  V30 1983 C 181.034 0.505727 4.26311 0
M  V30 1984 C 180.267 -0.234343 5.33185 0
M  V30 1985 O 180.49 -1.46045 5.51386 0
M  V30 1986 O 179.424 0.415443 6.00465 0
M  V30 1987 H 183.25 1.19685 2.79122 0
M  V30 1988 H 180.835 0.648596 1.34587 0
M  V30 1989 H 182.717 -0.861641 4.12497 0
M  V30 1990 H 181.392 -1.23942 2.99032 0
M  V30 1991 H 180.299 0.994513 3.60639 0
M  V30 1992 H 181.632 1.28948 4.75009 0
M  V30 1993 N 183.284 -1.43765 0.645699 0
M  V30 1994 C 184.231 -2.30745 -0.0504648 0
M  V30 1995 C 185.201 -1.4432 -0.822241 0
M  V30 1996 O 186.386 -1.73202 -0.800358 0
M  V30 1997 C 183.526 -3.29802 -1.0161 0
M  V30 1998 C 182.639 -4.31326 -0.241219 0
M  V30 1999 C 181.774 -5.17469 -1.19998 0
M  V30 2000 C 180.813 -6.10691 -0.415094 0
M  V30 2001 N 179.95 -6.89483 -1.32506 0
M  V30 2002 H 184.79 -2.8973 0.697155 0
M  V30 2003 H 182.327 -1.42738 0.355563 0
M  V30 2004 H 184.285 -3.85734 -1.58949 0
M  V30 2005 H 182.915 -2.72483 -1.73069 0
M  V30 2006 H 181.967 -3.77749 0.448334 0
M  V30 2007 H 183.279 -4.9743 0.369437 0
M  V30 2008 H 182.433 -5.7799 -1.84424 0
M  V30 2009 H 181.172 -4.51473 -1.84455 0
M  V30 2010 H 180.177 -5.49265 0.242565 0
M  V30 2011 H 181.402 -6.78727 0.224966 0
M  V30 2012 H 179.348 -6.26142 -1.95657 0
M  V30 2013 H 179.265 -7.52081 -0.768783 0
M  V30 2014 H 180.533 -7.54516 -1.9577 0
M  V30 2015 N 184.763 -0.387143 -1.52771 0
M  V30 2016 C 185.673 0.456442 -2.30117 0
M  V30 2017 C 186.689 1.07342 -1.36944 0
M  V30 2018 O 187.865 1.07971 -1.70013 0
M  V30 2019 C 184.93 1.56957 -3.09136 0
M  V30 2020 C 183.991 0.977916 -4.18014 0
M  V30 2021 C 183.224 2.038 -4.93256 0
M  V30 2022 O 183.447 3.25271 -4.68567 0
M  V30 2023 O 182.381 1.6565 -5.78657 0
M  V30 2024 H 186.207 -0.17359 -3.03203 0
M  V30 2025 H 183.792 -0.150919 -1.48636 0
M  V30 2026 H 185.674 2.21628 -3.58412 0
M  V30 2027 H 184.349 2.18461 -2.38865 0
M  V30 2028 H 183.256 0.294525 -3.72939 0
M  V30 2029 H 184.589 0.407128 -4.90513 0
M  V30 2030 N 186.241 1.57166 -0.116904 0
M  V30 2031 C 187.469 1.99473 0.549383 0
M  V30 2032 C 187.884 0.996541 1.60357 0
M  V30 2033 O 187.241 -0.0108731 1.82497 0
M  V30 2034 C 187.292 3.41788 1.17741 0
M  V30 2035 O 187.013 4.37788 0.165362 0
M  V30 2036 C 188.514 3.99216 1.92722 0
M  V30 2037 H 185.734 0.655009 0.145616 0
M  V30 2038 H 188.278 2.03494 -0.202625 0
M  V30 2039 H 186.433 3.38713 1.88021 0
M  V30 2040 H 186.847 5.20806 0.621403 0
M  V30 2041 H 188.321 5.00882 2.31995 0
M  V30 2042 H 188.798 3.3824 2.80161 0
M  V30 2043 H 189.404 4.0583 1.27209 0
M  V30 2044 N 187.719 -0.156864 1.56817 0
M  V30 2045 C 189.135 -0.50916 1.5126 0
M  V30 2046 C 189.335 -1.83897 0.823658 0
M  V30 2047 O 188.391 -2.49469 0.390055 0
M  V30 2048 C 189.704 -0.52857 2.96018 0
M  V30 2049 C 191.252 -0.614771 3.06903 0
M  V30 2050 C 191.727 -0.664938 4.53147 0
M  V30 2051 N 193.218 -0.727433 4.57452 0
M  V30 2052 C 193.953 -0.787067 5.67973 0
M  V30 2053 N 193.449 -0.806649 6.88088 0
M  V30 2054 N 195.242 -0.827195 5.5598 0
M  V30 2055 H 187.393 0.714935 2.00006 0
M  V30 2056 H 189.656 0.259526 0.911784 0
M  V30 2057 H 189.362 0.380154 3.49639 0
M  V30 2058 H 189.236 -1.36998 3.51442 0
M  V30 2059 H 191.623 -1.51392 2.53307 0
M  V30 2060 H 191.704 0.253597 2.5454 0
M  V30 2061 H 191.348 0.230011 5.07379 0
M  V30 2062 H 191.278 -1.54966 5.03282 0
M  V30 2063 H 193.769 -0.719998 3.70978 0
M  V30 2064 H 194.082 -0.853727 7.6807 0
M  V30 2065 H 192.427 -0.774687 6.90669 0
M  V30 2066 H 195.618 -0.808998 4.61056 0
M  V30 2067 H 195.791 -0.870206 6.4213 0
M  V30 2068 N 189.197 -1.51736 -0.425897 0
M  V30 2069 C 190.144 -1.73875 -1.51776 0
M  V30 2070 C 191.114 -0.580702 -1.55618 0
M  V30 2071 O 192.299 -0.81641 -1.72451 0
M  V30 2072 C 189.439 -1.88012 -2.89388 0
M  V30 2073 C 188.552 -3.15606 -2.94986 0
M  V30 2074 C 187.687 -3.20271 -4.23793 0
M  V30 2075 C 186.726 -4.42134 -4.23302 0
M  V30 2076 N 185.863 -4.44284 -5.43651 0
M  V30 2077 H 190.703 -2.67071 -1.32201 0
M  V30 2078 H 188.24 -1.32351 -0.642008 0
M  V30 2079 H 190.198 -1.9419 -3.69251 0
M  V30 2080 H 188.828 -0.98213 -3.07496 0
M  V30 2081 H 187.88 -3.18681 -2.07717 0
M  V30 2082 H 189.192 -4.05486 -2.90486 0
M  V30 2083 H 188.346 -3.25428 -5.12036 0
M  V30 2084 H 187.085 -2.28299 -4.30965 0
M  V30 2085 H 186.09 -4.3714 -3.3345 0
M  V30 2086 H 187.315 -5.35382 -4.17783 0
M  V30 2087 H 185.261 -3.55188 -5.51523 0
M  V30 2088 H 185.178 -5.27988 -5.41078 0
M  V30 2089 H 186.446 -4.53649 -6.33895 0
M  V30 2090 N 190.675 0.682077 -1.42076 0
M  V30 2091 C 191.924 1.43786 -1.41451 0
M  V30 2092 C 192.237 1.95574 -0.0317074 0
M  V30 2093 O 193.443 2.71326 0.0971462 0
M  V30 2094 C 191.899 2.60071 -2.48779 0
M  V30 2095 C 191.507 2.15013 -3.93031 0
M  V30 2096 C 193.251 3.37626 -2.57311 0
M  V30 2097 C 191.158 3.28336 -4.91883 0
M  V30 2098 H 190.088 0.540143 -0.526082 0
M  V30 2099 H 192.739 0.739157 -1.67955 0
M  V30 2100 H 191.121 3.32275 -2.15429 0
M  V30 2101 H 192.295 1.5001 -4.35699 0
M  V30 2102 H 190.61 1.50416 -3.88284 0
M  V30 2103 H 193.207 4.22012 -3.28345 0
M  V30 2104 H 193.55 3.83727 -1.61429 0
M  V30 2105 H 194.083 2.72488 -2.89819 0
M  V30 2106 H 190.822 2.87234 -5.89217 0
M  V30 2107 H 190.342 3.92145 -4.53853 0
M  V30 2108 H 192.021 3.93913 -5.13265 0
M  V30 2109 N 192.153 1.28127 0.917671 0
M  V30 2110 C 193.086 1.06039 2.02067 0
M  V30 2111 C 194.064 -0.0223285 1.62585 0
M  V30 2112 O 195.248 0.124823 1.88086 0
M  V30 2113 C 192.375 0.610596 3.33151 0
M  V30 2114 C 191.421 1.68937 3.91615 0
M  V30 2115 S 192.254 3.28437 4.22953 0
M  V30 2116 C 193.41 2.85283 5.57103 0
M  V30 2117 H 193.643 1.99425 2.20493 0
M  V30 2118 H 191.176 1.12071 1.06205 0
M  V30 2119 H 193.134 0.357778 4.08938 0
M  V30 2120 H 191.795 -0.303364 3.12632 0
M  V30 2121 H 190.988 1.32619 4.86239 0
M  V30 2122 H 190.59 1.89478 3.2245 0
M  V30 2123 H 192.882 2.3121 6.36827 0
M  V30 2124 H 193.825 3.7869 5.98331 0
M  V30 2125 H 194.233 2.24118 5.18104 0
M  V30 2126 N 193.631 -1.12557 1.10312 0
M  V30 2127 C 195.047 -1.36036 0.834649 0
M  V30 2128 C 195.247 -1.93946 -0.546539 0
M  V30 2129 O 194.303 -2.16484 -1.29966 0
M  V30 2130 C 195.616 -2.30312 1.9333 0
M  V30 2131 C 197.164 -2.43906 1.9616 0
M  V30 2132 C 197.639 -3.41496 3.05195 0
M  V30 2133 N 199.13 -3.49053 3.04494 0
M  V30 2134 C 199.865 -4.24471 3.85502 0
M  V30 2135 N 199.361 -5.02966 4.76442 0
M  V30 2136 N 201.154 -4.19864 3.73725 0
M  V30 2137 H 193.305 -0.733246 1.99342 0
M  V30 2138 H 195.568 -0.385234 0.866198 0
M  V30 2139 H 195.274 -1.94933 2.92735 0
M  V30 2140 H 195.148 -3.30421 1.81939 0
M  V30 2141 H 197.535 -2.78567 0.973886 0
M  V30 2142 H 197.616 -1.4369 2.11629 0
M  V30 2143 H 197.26 -3.07565 4.04186 0
M  V30 2144 H 197.19 -4.41539 2.86968 0
M  V30 2145 H 199.681 -2.93053 2.38596 0
M  V30 2146 H 199.994 -5.57846 5.34815 0
M  V30 2147 H 198.339 -5.02167 4.80472 0
M  V30 2148 H 201.53 -3.57623 3.02032 0
M  V30 2149 H 201.703 -4.78386 4.37093 0
M  V30 2150 N 195.109 -0.891671 -1.2995 0
M  V30 2151 C 196.072 -0.36828 -2.26222 0
M  V30 2152 C 197.072 0.493014 -1.53056 0
M  V30 2153 O 198.262 0.299213 -1.71611 0
M  V30 2154 C 195.394 0.47442 -3.37583 0
M  V30 2155 H 196.587 -1.21844 -2.74033 0
M  V30 2156 H 194.14 -0.669107 -1.41254 0
M  V30 2157 H 194.875 1.34489 -2.95099 0
M  V30 2158 H 194.66 -0.142615 -3.91841 0
M  V30 2159 H 196.15 0.83218 -4.09224 0
M  V30 2160 N 196.587 1.43421 -0.653314 0
M  V30 2161 C 197.517 2.33487 0.0246656 0
M  V30 2162 C 198.498 1.49475 0.811863 0
M  V30 2163 O 199.683 1.78139 0.773322 0
M  V30 2164 C 196.813 3.32841 0.99166 0
M  V30 2165 C 195.767 4.26842 0.314568 0
M  V30 2166 C 195.093 5.16236 1.39302 0
M  V30 2167 C 196.393 5.16243 -0.793095 0
M  V30 2168 H 198.087 2.90427 -0.727481 0
M  V30 2169 H 195.633 1.39649 -0.351287 0
M  V30 2170 H 197.586 3.94747 1.47487 0
M  V30 2171 H 196.31 2.74158 1.77497 0
M  V30 2172 H 194.969 3.663 -0.148199 0
M  V30 2173 H 194.617 4.53891 2.16776 0
M  V30 2174 H 194.317 5.79948 0.945223 0
M  V30 2175 H 195.841 5.81015 1.87759 0
M  V30 2176 H 197.255 5.71958 -0.392039 0
M  V30 2177 H 195.652 5.88676 -1.16536 0
M  V30 2178 H 196.722 4.55927 -1.65103 0
M  V30 2179 N 198.065 0.39524 1.52563 0
M  V30 2180 C 198.995 -0.428384 2.29537 0
M  V30 2181 C 199.976 -1.05831 1.33169 0
M  V30 2182 O 201.161 -1.06995 1.62067 0
M  V30 2183 C 198.291 -1.55274 3.10656 0
M  V30 2184 C 197.245 -1.04855 4.14957 0
M  V30 2185 C 196.571 -2.26543 4.84337 0
M  V30 2186 C 197.871 -0.112324 5.22179 0
M  V30 2187 H 199.565 0.213867 2.98635 0
M  V30 2188 H 197.111 0.104298 1.43622 0
M  V30 2189 H 199.064 -2.1358 3.63265 0
M  V30 2190 H 197.788 -2.22266 2.39302 0
M  V30 2191 H 196.447 -0.487985 3.63338 0
M  V30 2192 H 196.095 -2.92059 4.09525 0
M  V30 2193 H 195.795 -1.93466 5.54837 0
M  V30 2194 H 197.319 -2.85481 5.39753 0
M  V30 2195 H 198.733 -0.603752 5.70112 0
M  V30 2196 H 197.13 0.128968 5.99961 0
M  V30 2197 H 198.2 0.837052 4.77621 0
M  V30 2198 N 199.544 -1.57102 0.125237 0
M  V30 2199 C 200.454 -2.19191 -0.8362 0
M  V30 2200 C 201.47 -1.16985 -1.28805 0
M  V30 2201 O 202.646 -1.49479 -1.34974 0
M  V30 2202 C 199.711 -2.78407 -2.06617 0
M  V30 2203 C 198.772 -3.9567 -1.66565 0
M  V30 2204 C 198.005 -4.52052 -2.83698 0
M  V30 2205 O 198.228 -4.07326 -3.99302 0
M  V30 2206 O 197.162 -5.42645 -2.60423 0
M  V30 2207 H 200.988 -3.01816 -0.337776 0
M  V30 2208 H 198.573 -1.4906 -0.100695 0
M  V30 2209 H 200.455 -3.16129 -2.7864 0
M  V30 2210 H 199.13 -1.9881 -2.55453 0
M  V30 2211 H 198.037 -3.62705 -0.916296 0
M  V30 2212 H 199.37 -4.76722 -1.22464 0
M  V30 2213 N 201.022 0.148545 -1.56898 0
M  V30 2214 C 202.268 0.862694 -1.83536 0
M  V30 2215 C 202.601 1.80889 -0.706604 0
M  V30 2216 O 201.876 1.92328 0.289885 0
M  V30 2217 C 202.159 1.63853 -3.20662 0
M  V30 2218 C 202.012 0.713925 -4.44098 0
M  V30 2219 C 203.331 2.60133 -3.54991 0
M  V30 2220 H 200.45 0.312179 -0.667618 0
M  V30 2221 H 203.092 0.127953 -1.89569 0
M  V30 2222 H 201.242 2.26489 -3.1565 0
M  V30 2223 H 202.914 0.098686 -4.61194 0
M  V30 2224 H 201.157 0.0234019 -4.33794 0
M  V30 2225 H 201.828 1.29278 -5.36648 0
M  V30 2226 H 204.304 2.07616 -3.60603 0
M  V30 2227 H 203.18 3.11468 -4.51972 0
M  V30 2228 H 203.441 3.41417 -2.80868 0
M  V30 2229 N 202.5 1.5196 0.417844 0
M  V30 2230 C 203.749 1.6482 1.16264 0
M  V30 2231 C 204.062 0.379886 1.91876 0
M  V30 2232 O 205.268 0.388154 2.68711 0
M  V30 2233 C 203.724 2.91161 2.1155 0
M  V30 2234 C 203.332 4.25068 1.41495 0
M  V30 2235 C 205.076 3.13383 2.86341 0
M  V30 2236 C 202.983 5.42541 2.35379 0
M  V30 2237 H 201.913 0.613954 0.437694 0
M  V30 2238 H 204.564 1.78442 0.427871 0
M  V30 2239 H 202.946 2.71218 2.88543 0
M  V30 2240 H 204.12 4.55463 0.699263 0
M  V30 2241 H 202.435 4.0888 0.787792 0
M  V30 2242 H 205.032 3.98324 3.5671 0
M  V30 2243 H 205.375 2.27256 3.48798 0
M  V30 2244 H 205.908 3.33757 2.1645 0
M  V30 2245 H 202.647 6.30987 1.77582 0
M  V30 2246 H 202.167 5.16497 3.04945 0
M  V30 2247 H 203.846 5.75272 2.96093 0
M  V30 2248 N 203.978 -0.674533 1.42435 0
M  V30 2249 C 205.218 -1.4466 1.44405 0
M  V30 2250 C 205.582 -1.91911 0.0585784 0
M  V30 2251 O 206.783 -2.68759 -0.0469991 0
M  V30 2252 C 205.054 -2.61136 2.44013 0
M  V30 2253 S 206.613 -3.49981 2.64687 0
M  V30 2254 H 203.431 -0.494074 0.511284 0
M  V30 2255 H 206.033 -0.785162 1.7904 0
M  V30 2256 H 204.737 -2.24662 3.43446 0
M  V30 2257 H 204.268 -3.32153 2.10803 0
M  V30 2258 H 206.283 -4.57124 1.93007 0
M  V30 2259 N 205.456 -1.28612 -0.910864 0
M  V30 2260 C 206.684 -1.18792 -1.69399 0
M  V30 2261 C 207.099 0.253039 -1.87097 0
M  V30 2262 O 206.456 1.17071 -1.40003 0
M  V30 2263 C 206.507 -1.88511 -3.08457 0
M  V30 2264 O 206.228 -3.26979 -2.91576 0
M  V30 2265 C 207.729 -1.85029 -4.02839 0
M  V30 2266 H 204.949 -0.412233 -0.529438 0
M  V30 2267 H 207.493 -1.69788 -1.13984 0
M  V30 2268 H 205.648 -1.41379 -3.60681 0
M  V30 2269 H 206.062 -3.61936 -3.79608 0
M  V30 2270 H 207.536 -2.38395 -4.97867 0
M  V30 2271 H 208.013 -0.823303 -4.31414 0
M  V30 2272 H 208.619 -2.31853 -3.56545 0
M  V30 2273 N 206.934 1.1197 -1.10907 0
M  V30 2274 C 207.864 2.19928 -0.784473 0
M  V30 2275 C 208.845 1.6833 0.244726 0
M  V30 2276 O 210.03 1.93892 0.109418 0
M  V30 2277 C 207.16 3.46597 -0.220827 0
M  V30 2278 C 206.114 4.11376 -1.18127 0
M  V30 2279 C 205.44 5.32554 -0.478594 0
M  V30 2280 C 206.74 4.56945 -2.52979 0
M  V30 2281 H 208.434 2.47337 -1.68715 0
M  V30 2282 H 205.98 1.18879 -0.812642 0
M  V30 2283 H 207.933 4.21396 0.0184278 0
M  V30 2284 H 206.657 3.1863 0.717113 0
M  V30 2285 H 205.316 3.38564 -1.40606 0
M  V30 2286 H 204.964 5.00856 0.463976 0
M  V30 2287 H 204.664 5.76844 -1.11912 0
M  V30 2288 H 206.188 6.10096 -0.248 0
M  V30 2289 H 207.602 5.23093 -2.3462 0
M  V30 2290 H 205.999 5.1203 -3.12962 0
M  V30 2291 H 207.069 3.70676 -3.12614 0
M  V30 2292 N 208.412 0.89855 1.29475 0
M  V30 2293 C 209.362 0.346767 2.25348 0
M  V30 2294 C 210.346 -0.532509 1.51833 0
M  V30 2295 O 211.538 -0.374714 1.72988 0
M  V30 2296 C 208.667 -0.425681 3.40651 0
M  V30 2297 C 207.753 0.46845 4.21505 0
M  V30 2298 N 208.144 1.57514 4.80648 0
M  V30 2299 C 206.442 0.26603 4.45206 0
M  V30 2300 C 207.143 2.12889 5.41344 0
M  V30 2301 N 206.119 1.42208 5.24669 0
M  V30 2302 H 209.921 1.19219 2.68634 0
M  V30 2303 H 207.435 0.749473 1.44072 0
M  V30 2304 H 209.432 -0.837716 4.08397 0
M  V30 2305 H 208.092 -1.26838 2.98902 0
M  V30 2306 H 209.103 1.95789 4.79465 0
M  V30 2307 H 205.78 -0.538394 4.14014 0
M  V30 2308 H 207.17 3.05901 5.98226 0
M  V30 2309 N 209.89 -1.43072 0.660911 0
M  V30 2310 C 210.837 -2.30785 -0.0259884 0
M  V30 2311 C 211.807 -1.45184 -0.806888 0
M  V30 2312 O 212.992 -1.74041 -0.781943 0
M  V30 2313 C 210.132 -3.30861 -0.981067 0
M  V30 2314 C 209.245 -4.31558 -0.195458 0
M  V30 2315 C 208.38 -5.18712 -1.14503 0
M  V30 2316 C 207.419 -6.11097 -0.350299 0
M  V30 2317 N 206.556 -6.90849 -1.25186 0
M  V30 2318 H 211.396 -2.88975 0.727846 0
M  V30 2319 H 208.933 -1.42353 0.370682 0
M  V30 2320 H 210.891 -3.87399 -1.54849 0
M  V30 2321 H 209.521 -2.74304 -1.70169 0
M  V30 2322 H 208.573 -3.77252 0.488374 0
M  V30 2323 H 209.885 -4.9701 0.422176 0
M  V30 2324 H 209.039 -5.79914 -1.78284 0
M  V30 2325 H 207.778 -4.53404 -1.79656 0
M  V30 2326 H 206.783 -5.48976 0.300808 0
M  V30 2327 H 208.008 -6.7845 0.296941 0
M  V30 2328 H 205.954 -6.28182 -1.89005 0
M  V30 2329 H 205.871 -7.52854 -0.688971 0
M  V30 2330 H 207.139 -7.5655 -1.87757 0
M  V30 2331 N 211.368 -0.403325 -1.52352 0
M  V30 2332 C 212.298 0.416205 -2.29761 0
M  V30 2333 C 213.279 1.05123 -1.33728 0
M  V30 2334 O 214.464 1.06134 -1.62632 0
M  V30 2335 C 211.594 1.53624 -3.11475 0
M  V30 2336 C 210.548 1.02653 -4.15507 0
M  V30 2337 C 209.874 2.23971 -4.85532 0
M  V30 2338 C 211.174 0.08463 -5.22231 0
M  V30 2339 H 212.868 -0.229701 -2.98518 0
M  V30 2340 H 210.414 -0.111913 -1.43564 0
M  V30 2341 H 212.367 2.1165 -3.64393 0
M  V30 2342 H 211.091 2.20994 -2.40477 0
M  V30 2343 H 209.75 0.46871 -3.63591 0
M  V30 2344 H 209.398 2.89883 -4.11068 0
M  V30 2345 H 209.098 1.90521 -5.55856 0
M  V30 2346 H 210.622 2.82614 -5.41259 0
M  V30 2347 H 212.036 0.573509 -5.70424 0
M  V30 2348 H 210.433 -0.160783 -5.99885 0
M  V30 2349 H 211.503 -0.86237 -4.7717 0
M  V30 2350 N 212.846 1.57033 -0.133567 0
M  V30 2351 C 213.794 2.17348 0.828412 0
M  V30 2352 C 214.788 1.12671 1.26498 0
M  V30 2353 O 215.994 1.30947 1.23502 0
M  V30 2354 H 212.369 0.695775 0.285309 0
M  V30 2355 H 214.34 2.96935 0.295372 0
M  V30 2356 C 213.089 2.79893 2.06289 0
M  V30 2357 H 212.412 3.60147 1.73592 0
M  V30 2358 H 213.852 3.25615 2.71572 0
M  V30 2359 C 212.311 1.77713 2.86216 0
M  V30 2360 O 212.841 1.23937 3.82103 0
M  V30 2361 N 211.047 1.47321 2.50489 0
M  V30 2362 H 210.594 1.91243 1.7258 0
M  V30 2363 H 210.552 0.79199 3.04261 0
M  V30 2364 N 214.325 -0.140222 1.56975 0
M  V30 2365 C 215.574 -0.850152 1.82908 0
M  V30 2366 C 215.887 -1.82028 0.715892 0
M  V30 2367 O 217.093 -2.57485 0.861016 0
M  V30 2368 C 215.549 -1.5625 3.24213 0
M  V30 2369 C 215.157 -0.63443 4.43485 0
M  V30 2370 C 216.901 -2.25881 3.59413 0
M  V30 2371 C 214.808 -1.34879 5.75814 0
M  V30 2372 H 213.738 -0.321221 0.682153 0
M  V30 2373 H 216.389 -0.102874 1.83211 0
M  V30 2374 H 214.771 -2.35565 3.18316 0
M  V30 2375 H 215.945 0.12398 4.60633 0
M  V30 2376 H 214.26 -0.0461836 4.16374 0
M  V30 2377 H 216.857 -2.79978 4.5554 0
M  V30 2378 H 217.2 -3.02693 2.85802 0
M  V30 2379 H 217.733 -1.53477 3.67001 0
M  V30 2380 H 214.472 -0.622385 6.52539 0
M  V30 2381 H 213.992 -2.07974 5.6259 0
M  V30 2382 H 215.671 -1.88784 6.18845 0
M  V30 2383 N 215.803 -1.52179 -0.40978 0
M  V30 2384 C 217.049 -1.66453 -1.15851 0
M  V30 2385 C 217.382 -0.392972 -1.90182 0
M  V30 2386 O 216.657 0.608579 -1.84734 0
M  V30 2387 C 216.94 -2.88612 -2.15349 0
M  V30 2388 C 216.793 -4.25815 -1.44918 0
M  V30 2389 C 218.112 -3.06294 -3.16026 0
M  V30 2390 H 215.231 -0.60575 -0.419805 0
M  V30 2391 H 217.873 -1.84732 -0.444314 0
M  V30 2392 H 216.023 -2.73158 -2.76255 0
M  V30 2393 H 217.695 -4.52995 -0.871365 0
M  V30 2394 H 215.938 -4.27247 -0.751159 0
M  V30 2395 H 216.609 -5.07337 -2.17516 0
M  V30 2396 H 219.085 -3.20641 -2.65195 0
M  V30 2397 H 217.961 -3.93283 -3.8291 0
M  V30 2398 H 218.222 -2.19579 -3.83715 0
M  V30 2399 N 217.281 0.66697 -1.42791 0
M  V30 2400 C 218.231 1.77313 -1.43332 0
M  V30 2401 C 219.215 1.5801 -0.303586 0
M  V30 2402 O 220.407 1.68356 -0.546385 0
M  V30 2403 C 217.536 3.15822 -1.34578 0
M  V30 2404 C 216.622 3.40721 -2.52528 0
M  V30 2405 N 217.013 3.36162 -3.77927 0
M  V30 2406 C 215.311 3.71387 -2.46956 0
M  V30 2407 C 216.012 3.60762 -4.56318 0
M  V30 2408 N 214.988 3.81908 -3.86843 0
M  V30 2409 H 218.79 1.72193 -2.38174 0
M  V30 2410 H 216.304 0.868114 -1.3725 0
M  V30 2411 H 218.301 3.951 -1.33048 0
M  V30 2412 H 216.961 3.22133 -0.407453 0
M  V30 2413 H 217.972 3.15885 -4.10411 0
M  V30 2414 H 214.649 3.84897 -1.61743 0
M  V30 2415 H 216.039 3.63132 -5.65318 0
M  V30 2416 N 218.759 1.29093 0.90403 0
M  V30 2417 C 220.175 1.07011 1.1841 0
M  V30 2418 C 220.375 -0.181358 2.00682 0
M  V30 2419 O 219.431 -0.880331 2.36657 0
M  V30 2420 C 220.744 2.32311 1.90924 0
M  V30 2421 C 222.292 2.37587 2.03768 0
M  V30 2422 C 222.767 3.62679 2.79693 0
M  V30 2423 N 224.258 3.63376 2.87249 0
M  V30 2424 C 224.993 4.56848 3.46522 0
M  V30 2425 N 224.489 5.60648 4.06996 0
M  V30 2426 N 226.282 4.44426 3.44154 0
M  V30 2427 H 218.433 2.09412 0.354993 0
M  V30 2428 H 220.696 0.922181 0.219742 0
M  V30 2429 H 220.402 3.23536 1.37905 0
M  V30 2430 H 220.276 2.39483 2.91424 0
M  V30 2431 H 222.663 1.46853 2.55965 0
M  V30 2432 H 222.744 2.34403 1.02415 0
M  V30 2433 H 222.388 4.53762 2.28173 0
M  V30 2434 H 222.318 3.63119 3.81381 0
M  V30 2435 H 224.809 2.88321 2.44293 0
M  V30 2436 H 225.122 6.28101 4.50232 0
M  V30 2437 H 223.467 5.64463 4.05471 0
M  V30 2438 H 226.658 3.62529 2.96126 0
M  V30 2439 H 226.831 5.17457 3.90054 0
M  V30 2440 N 220.237 -1.11381 1.11499 0
M  V30 2441 C 221.514 -1.7955 0.775965 0
M  V30 2442 C 221.894 -1.97859 -0.73588 0
M  V30 2443 O 221.242 -1.56376 -1.66609 0
M  V30 2444 C 221.452 -3.13196 1.53977 0
M  V30 2445 C 222.8 -3.88227 1.71944 0
M  V30 2446 O 223.824 -3.22887 1.50407 0
M  V30 2447 O 222.683 -5.05477 2.07738 0
M  V30 2448 H 219.777 -0.777728 0.28119 0
M  V30 2449 H 222.323 -1.18118 1.21845 0
M  V30 2450 H 221.095 -2.95229 2.56818 0
M  V30 2451 H 220.718 -3.82342 1.09088 0
M  V30 2452 N 221.715 -0.905404 -1.28997 0
M  V30 2453 C 222.645 -0.404212 -2.29975 0
M  V30 2454 C 223.626 0.523784 -1.61835 0
M  V30 2455 O 224.811 0.433298 -1.89304 0
M  V30 2456 C 221.941 0.364042 -3.45387 0
M  V30 2457 C 220.895 -0.474048 -4.25367 0
M  V30 2458 C 220.221 0.422045 -5.33032 0
M  V30 2459 C 221.521 -1.72696 -4.92923 0
M  V30 2460 H 223.215 -1.24807 -2.72146 0
M  V30 2461 H 220.761 -0.601585 -1.30832 0
M  V30 2462 H 222.714 0.725447 -4.15109 0
M  V30 2463 H 221.438 1.24174 -3.02074 0
M  V30 2464 H 220.097 -0.81786 -3.57361 0
M  V30 2465 H 219.745 1.29804 -4.85963 0
M  V30 2466 H 219.445 -0.135057 -5.87445 0
M  V30 2467 H 220.969 0.779517 -6.05604 0
M  V30 2468 H 222.383 -1.43495 -5.55051 0
M  V30 2469 H 220.78 -2.22582 -5.57295 0
M  V30 2470 H 221.85 -2.45964 -4.17887 0
M  V30 2471 N 223.193 1.4272 -0.668489 0
M  V30 2472 C 224.14 2.30796 0.0137489 0
M  V30 2473 C 225.11 1.4561 0.799177 0
M  V30 2474 O 226.295 1.74453 0.772702 0
M  V30 2475 C 223.435 3.31377 0.963507 0
M  V30 2476 C 222.548 4.31655 0.172569 0
M  V30 2477 C 221.683 5.19312 1.1175 0
M  V30 2478 C 220.722 6.11274 0.317886 0
M  V30 2479 N 219.859 6.91504 1.2152 0
M  V30 2480 H 224.699 2.88585 -0.743161 0
M  V30 2481 H 222.236 1.42154 -0.378226 0
M  V30 2482 H 224.194 3.88214 1.52792 0
M  V30 2483 H 222.824 2.75202 1.68712 0
M  V30 2484 H 221.876 3.76988 -0.508374 0
M  V30 2485 H 223.188 4.96779 -0.448527 0
M  V30 2486 H 222.342 5.80851 1.75206 0
M  V30 2487 H 221.081 4.5435 1.77249 0
M  V30 2488 H 220.086 5.48809 -0.329918 0
M  V30 2489 H 221.311 6.78283 -0.332917 0
M  V30 2490 H 219.257 6.29176 1.85671 0
M  V30 2491 H 219.174 7.53209 0.649036 0
M  V30 2492 H 220.442 7.57535 1.83742 0
M  V30 2493 N 224.671 0.411399 1.52136 0
M  V30 2494 C 226.082 -0.0576826 1.86611 0
M  V30 2495 C 226.433 -1.44238 1.33003 0
M  V30 2496 O 225.558 -2.05759 0.670228 0
M  V30 2497 C 226.153 -0.111448 3.38617 0
M  V30 2498 C 224.712 -0.52487 3.72723 0
M  V30 2499 C 223.859 0.299176 2.75681 0
M  V30 2500 H 226.81 0.628368 1.4573 0
M  V30 2501 H 226.831 -0.926252 3.69054 0
M  V30 2502 H 226.343 0.896488 3.77604 0
M  V30 2503 H 224.444 -1.53936 3.39315 0
M  V30 2504 H 224.557 -0.267681 4.78352 0
M  V30 2505 H 222.921 -0.238814 2.53578 0
M  V30 2506 H 223.704 1.3055 3.17508 0
M  V30 2507 N 226.149 -1.5696 0.141893 0
M  V30 2508 C 227.059 -2.20066 -0.812905 0
M  V30 2509 C 228.075 -1.18344 -1.27557 0
M  V30 2510 O 229.251 -1.50902 -1.33381 0
M  V30 2511 C 226.316 -2.80583 -2.03652 0
M  V30 2512 C 225.377 -3.97414 -1.62359 0
M  V30 2513 C 224.61 -4.55036 -2.78887 0
M  V30 2514 O 224.833 -4.11538 -3.94959 0
M  V30 2515 O 223.767 -5.45376 -2.54653 0
M  V30 2516 H 227.593 -3.02157 -0.305746 0
M  V30 2517 H 225.178 -1.49159 -0.0848799 0
M  V30 2518 H 227.06 -3.19067 -2.75272 0
M  V30 2519 H 225.735 -2.01508 -2.5333 0
M  V30 2520 H 224.642 -3.63656 -0.877775 0
M  V30 2521 H 225.975 -4.77994 -1.17401 0
M  V30 2522 N 227.627 0.131896 -1.57047 0
M  V30 2523 C 228.575 1.18146 -2.0036 0
M  V30 2524 C 229.569 1.43614 -0.898406 0
M  V30 2525 O 230.775 1.43729 -1.08361 0
M  V30 2526 H 227.15 0.398042 -0.638018 0
M  V30 2527 H 229.121 0.789564 -2.87765 0
M  V30 2528 C 227.87 2.50341 -2.41298 0
M  V30 2529 H 227.193 2.31578 -3.25902 0
M  V30 2530 H 228.633 3.22371 -2.75414 0
M  V30 2531 C 227.092 3.11984 -1.27153 0
M  V30 2532 O 227.622 3.97484 -0.580459 0
M  V30 2533 N 225.828 2.71662 -1.03189 0
M  V30 2534 H 225.375 2.02231 -1.59564 0
M  V30 2535 H 225.333 3.13238 -0.270077 0
M  V30 2536 N 229.106 1.52395 0.401703 0
M  V30 2537 C 230.355 1.66044 1.14509 0
M  V30 2538 C 230.668 0.400216 1.91462 0
M  V30 2539 O 231.874 0.416632 2.68284 0
M  V30 2540 C 230.33 2.93388 2.0845 0
M  V30 2541 C 229.938 4.26545 1.36978 0
M  V30 2542 C 231.682 3.16402 2.83001 0
M  V30 2543 C 229.589 5.45007 2.29611 0
M  V30 2544 H 228.519 0.618562 0.431158 0
M  V30 2545 H 231.17 1.78886 0.40892 0
M  V30 2546 H 229.552 2.74263 2.8565 0
M  V30 2547 H 230.726 4.56179 0.650916 0
M  V30 2548 H 229.041 4.09692 0.74438 0
M  V30 2549 H 231.638 4.02085 3.52465 0
M  V30 2550 H 231.981 2.30943 3.46368 0
M  V30 2551 H 232.514 3.36034 2.12898 0
M  V30 2552 H 229.253 6.32835 1.70879 0
M  V30 2553 H 228.773 5.19702 2.9945 0
M  V30 2554 H 230.452 5.7838 2.89974 0
M  V30 2555 N 230.584 -0.659388 1.43143 0
M  V30 2556 C 231.514 -1.78422 1.50625 0
M  V30 2557 C 232.495 -1.66216 0.361443 0
M  V30 2558 O 233.68 -1.85404 0.577834 0
M  V30 2559 C 230.81 -3.16815 1.42287 0
M  V30 2560 C 229.764 -3.43777 2.54954 0
M  V30 2561 C 229.09 -4.81905 2.31671 0
M  V30 2562 C 230.39 -3.39134 3.97222 0
M  V30 2563 H 232.084 -1.72417 2.44771 0
M  V30 2564 H 229.63 -0.828084 1.17808 0
M  V30 2565 H 231.583 -3.95253 1.46127 0
M  V30 2566 H 230.307 -3.23534 0.446435 0
M  V30 2567 H 228.966 -2.67707 2.50457 0
M  V30 2568 H 228.614 -4.85294 1.32284 0
M  V30 2569 H 228.314 -5.00906 3.07192 0
M  V30 2570 H 229.838 -5.62609 2.37284 0
M  V30 2571 H 231.252 -4.07518 4.03239 0
M  V30 2572 H 229.649 -3.69671 4.72719 0
M  V30 2573 H 230.719 -2.37426 4.22797 0
M  V30 2574 N 232.062 -1.29571 -0.897171 0
M  V30 2575 C 232.992 -1.17473 -2.01798 0
M  V30 2576 C 233.973 -0.068323 -1.69963 0
M  V30 2577 O 235.158 -0.248239 -1.92607 0
M  V30 2578 C 232.288 -0.853099 -3.36659 0
M  V30 2579 C 231.242 -1.9161 -3.82713 0
M  V30 2580 C 230.568 -1.44773 -5.14728 0
M  V30 2581 C 231.868 -3.32535 -4.02763 0
M  V30 2582 H 233.562 -2.11237 -2.12177 0
M  V30 2583 H 231.108 -1.01699 -1.01948 0
M  V30 2584 H 233.061 -0.755165 -4.14578 0
M  V30 2585 H 231.785 0.120236 -3.26379 0
M  V30 2586 H 230.444 -2.00346 -3.07013 0
M  V30 2587 H 230.092 -0.462995 -5.00865 0
M  V30 2588 H 229.792 -2.15865 -5.46513 0
M  V30 2589 H 231.316 -1.36334 -5.95185 0
M  V30 2590 H 232.73 -3.26626 -4.71156 0
M  V30 2591 H 231.127 -4.01607 -4.45905 0
M  V30 2592 H 232.197 -3.75326 -3.07016 0
M  V30 2593 N 233.54 1.10788 -1.12088 0
M  V30 2594 C 234.817 1.79136 -0.785476 0
M  V30 2595 C 235.197 1.98246 0.725377 0
M  V30 2596 O 234.545 1.57258 1.65778 0
M  V30 2597 C 234.755 3.12375 -1.55636 0
M  V30 2598 C 236.103 3.8731 -1.74001 0
M  V30 2599 O 237.127 3.22085 -1.52117 0
M  V30 2600 O 235.986 5.04369 -2.10415 0
M  V30 2601 H 233.08 0.776226 -0.285311 0
M  V30 2602 H 235.626 1.1747 -1.2247 0
M  V30 2603 H 234.398 2.93863 -2.5838 0
M  V30 2604 H 234.021 3.81758 -1.11114 0
M  V30 2605 N 235.018 0.912232 1.28515 0
M  V30 2606 C 236.295 0.463597 1.90027 0
M  V30 2607 C 236.675 -1.05753 1.82701 0
M  V30 2608 O 236.023 -1.90492 1.26194 0
M  V30 2609 C 236.233 0.992253 3.34597 0
M  V30 2610 C 237.581 1.04344 4.11579 0
M  V30 2611 O 238.605 0.94079 3.43551 0
M  V30 2612 O 237.464 1.1995 5.33174 0
M  V30 2613 H 234.558 0.146666 0.813891 0
M  V30 2614 H 237.104 1.00292 1.36893 0
M  V30 2615 H 235.876 2.03623 3.34146 0
M  V30 2616 H 235.499 0.433672 3.95228 0
M  V30 2617 N 236.496 -1.42363 0.676048 0
M  V30 2618 C 237.444 -2.32596 -0.0131507 0
M  V30 2619 C 238.438 -1.49891 -0.789238 0
M  V30 2620 O 239.644 -1.65955 -0.697061 0
M  V30 2621 H 236.019 -0.751647 -0.0230481 0
M  V30 2622 H 237.99 -2.88421 0.765243 0
M  V30 2623 C 236.739 -3.34479 -0.949702 0
M  V30 2624 H 236.062 -3.98158 -0.361938 0
M  V30 2625 H 237.502 -4.00199 -1.4006 0
M  V30 2626 C 235.961 -2.66838 -2.05667 0
M  V30 2627 O 236.491 -2.50124 -3.14326 0
M  V30 2628 N 234.697 -2.25843 -1.82875 0
M  V30 2629 H 234.244 -2.39637 -0.945085 0
M  V30 2630 H 234.202 -1.80918 -2.5713 0
M  V30 2631 N 237.974 -0.419461 -1.51915 0
M  V30 2632 C 238.907 0.445751 -2.23804 0
M  V30 2633 C 239.885 1.03951 -1.25031 0
M  V30 2634 O 241.069 1.08541 -1.54114 0
M  V30 2635 C 238.196 1.61964 -2.97465 0
M  V30 2636 C 237.242 1.14828 -4.10751 0
M  V30 2637 S 238.075 0.104938 -5.35397 0
M  V30 2638 C 239.231 1.28391 -6.1259 0
M  V30 2639 H 239.464 -0.164627 -2.96844 0
M  V30 2640 H 236.997 -0.203833 -1.53049 0
M  V30 2641 H 238.955 2.29271 -3.40507 0
M  V30 2642 H 237.616 2.20139 -2.24048 0
M  V30 2643 H 236.809 2.02561 -4.61503 0
M  V30 2644 H 236.411 0.553712 -3.69878 0
M  V30 2645 H 238.703 2.20563 -6.40592 0
M  V30 2646 H 239.646 0.816724 -7.03374 0
M  V30 2647 H 240.054 1.51439 -5.43807 0
M  V30 2648 N 239.452 1.56882 -0.150215 0
M  V30 2649 C 240.4 2.18214 0.805313 0
M  V30 2650 C 241.394 1.14006 1.25296 0
M  V30 2651 O 242.6 1.3225 1.22107 0
M  V30 2652 H 238.975 0.698762 0.277913 0
M  V30 2653 H 240.946 2.97231 0.263862 0
M  V30 2654 C 239.695 2.82065 2.03309 0
M  V30 2655 H 239.018 3.61968 1.69763 0
M  V30 2656 H 240.458 3.28477 2.68103 0
M  V30 2657 C 238.917 1.80739 2.84315 0
M  V30 2658 O 239.447 1.27983 3.80767 0
M  V30 2659 N 237.653 1.4997 2.48913 0
M  V30 2660 H 237.2 1.93062 1.70542 0
M  V30 2661 H 237.158 0.824217 3.03404 0
M  V30 2662 N 240.93 -0.123565 1.57115 0
M  V30 2663 C 242.179 -0.830704 1.83799 0
M  V30 2664 C 242.492 -1.81259 0.735158 0
M  V30 2665 O 243.698 -2.56558 0.888278 0
M  V30 2666 C 242.154 -1.52802 3.25852 0
M  V30 2667 C 241.762 -0.587356 4.44133 0
M  V30 2668 C 243.506 -2.22056 3.61789 0
M  V30 2669 C 241.413 -1.28764 5.77212 0
M  V30 2670 H 240.343 -0.313967 0.685522 0
M  V30 2671 H 242.994 -0.0834359 1.8331 0
M  V30 2672 H 241.376 -2.32175 3.20797 0
M  V30 2673 H 242.55 0.172829 4.60476 0
M  V30 2674 H 240.865 -0.00201892 4.164 0
M  V30 2675 H 243.462 -2.75131 4.58483 0
M  V30 2676 H 243.805 -2.99644 2.88997 0
M  V30 2677 H 244.338 -1.49576 3.68608 0
M  V30 2678 H 241.077 -0.55314 6.53162 0
M  V30 2679 H 240.597 -2.01995 5.64764 0
M  V30 2680 H 242.276 -1.8221 6.20813 0
M  V30 2681 N 242.408 -1.52605 -0.393616 0
M  V30 2682 C 243.355 -1.77055 -1.48054 0
M  V30 2683 C 244.325 -0.61358 -1.54352 0
M  V30 2684 O 245.51 -0.852806 -1.70681 0
M  V30 2685 C 242.65 -1.94108 -2.85335 0
M  V30 2686 C 241.763 -3.21792 -2.88226 0
M  V30 2687 C 240.898 -3.29188 -4.16904 0
M  V30 2688 C 239.937 -4.51013 -4.13828 0
M  V30 2689 N 239.074 -4.55716 -5.34105 0
M  V30 2690 H 243.914 -2.69815 -1.26506 0
M  V30 2691 H 241.451 -1.33683 -0.61379 0
M  V30 2692 H 243.409 -2.01979 -3.65049 0
M  V30 2693 H 242.039 -1.04713 -3.05344 0
M  V30 2694 H 241.091 -3.23015 -2.00911 0
M  V30 2695 H 242.403 -4.11557 -2.8182 0
M  V30 2696 H 241.557 -3.36216 -5.05018 0
M  V30 2697 H 240.296 -2.37389 -4.26026 0
M  V30 2698 H 239.301 -4.44115 -3.24102 0
M  V30 2699 H 240.526 -5.44123 -4.06333 0
M  V30 2700 H 238.472 -3.66807 -5.43865 0
M  V30 2701 H 238.389 -5.39346 -5.29756 0
M  V30 2702 H 239.657 -4.66993 -6.2413 0
M  V30 2703 N 243.887 0.651787 -1.4349 0
M  V30 2704 C 244.817 1.77621 -1.51569 0
M  V30 2705 C 245.798 1.66022 -0.370253 0
M  V30 2706 O 246.983 1.85095 -0.587658 0
M  V30 2707 C 244.113 3.16056 -1.43966 0
M  V30 2708 C 243.067 3.4242 -2.56774 0
M  V30 2709 C 242.393 4.8067 -2.34223 0
M  V30 2710 C 243.693 3.37023 -3.99015 0
M  V30 2711 H 245.387 1.71117 -2.45681 0
M  V30 2712 H 242.933 0.821825 -1.18246 0
M  V30 2713 H 244.886 3.94472 -1.48221 0
M  V30 2714 H 243.61 3.23293 -0.463586 0
M  V30 2715 H 242.269 2.66375 -2.51873 0
M  V30 2716 H 241.917 4.84585 -1.34856 0
M  V30 2717 H 241.617 4.9927 -3.09844 0
M  V30 2718 H 243.141 5.61342 -2.40265 0
M  V30 2719 H 244.555 4.05374 -4.05395 0
M  V30 2720 H 242.952 3.67159 -4.74673 0
M  V30 2721 H 244.022 2.3518 -4.2405 0
M  V30 2722 N 245.365 1.30045 0.890287 0
M  V30 2723 C 246.593 1.21472 1.67487 0
M  V30 2724 C 247.008 -0.223241 1.87476 0
M  V30 2725 O 246.365 -1.14828 1.41847 0
M  V30 2726 C 246.416 1.93394 3.05419 0
M  V30 2727 O 246.137 3.31576 2.86337 0
M  V30 2728 C 247.638 1.91414 3.99844 0
M  V30 2729 H 244.858 0.420604 0.522813 0
M  V30 2730 H 247.402 1.7158 1.11268 0
M  V30 2731 H 245.557 1.47099 3.58386 0
M  V30 2732 H 245.971 3.67929 3.73802 0
M  V30 2733 H 247.445 2.46285 4.94012 0
M  V30 2734 H 247.922 0.891833 4.3005 0
M  V30 2735 H 248.528 2.37496 3.52811 0
M  V30 2736 N 246.843 -1.10192 1.12674 0
M  V30 2737 C 248.12 -1.78717 0.794965 0
M  V30 2738 C 248.5 -1.98628 -0.714853 0
M  V30 2739 O 247.848 -1.58135 -1.64941 0
M  V30 2740 C 248.058 -3.11546 1.5729 0
M  V30 2741 C 249.406 -3.86382 1.76052 0
M  V30 2742 O 250.43 -3.21274 1.53823 0
M  V30 2743 O 249.289 -5.03246 2.13087 0
M  V30 2744 H 246.383 -0.774702 0.289423 0
M  V30 2745 H 248.929 -1.16819 1.23091 0
M  V30 2746 H 247.701 -2.92489 2.59935 0
M  V30 2747 H 247.324 -3.81164 1.13137 0
M  V30 2748 N 248.321 -0.919034 -1.28029 0
M  V30 2749 C 249.568 -0.554934 -1.94748 0
M  V30 2750 C 249.896 0.90231 -1.72304 0
M  V30 2751 O 249.151 1.65767 -1.04018 0
M  V30 2752 C 249.45 -0.816855 -3.4794 0
M  V30 2753 C 249.116 -2.25448 -3.90492 0
M  V30 2754 C 247.778 -2.64752 -4.01821 0
M  V30 2755 C 250.13 -3.18977 -4.12193 0
M  V30 2756 C 247.458 -3.96727 -4.32232 0
M  V30 2757 C 249.81 -4.50523 -4.44086 0
M  V30 2758 C 248.474 -4.89673 -4.53626 0
M  V30 2759 H 247.744 -0.203065 -0.712633 0
M  V30 2760 H 250.391 -1.16136 -1.52265 0
M  V30 2761 H 248.696 -0.127677 -3.91592 0
M  V30 2762 H 250.393 -0.514238 -3.97689 0
M  V30 2763 H 246.983 -1.93952 -3.82205 0
M  V30 2764 H 251.167 -2.89817 -4.02889 0
M  V30 2765 H 246.423 -4.26754 -4.37825 0
M  V30 2766 H 250.597 -5.23005 -4.59825 0
M  V30 2767 H 248.224 -5.91969 -4.76946 0
M  V30 2768 N 249.799 1.42003 -0.683588 0
M  V30 2769 C 251.047 2.01015 -0.209101 0
M  V30 2770 C 251.368 1.54365 1.19149 0
M  V30 2771 O 250.638 0.769083 1.80172 0
M  V30 2772 H 249.218 0.743294 -0.074315 0
M  V30 2773 H 251.88 1.73798 -0.882066 0
M  V30 2774 H 250.976 3.11343 -0.2172 0
M  V30 2775 N 251.277 0.427512 1.51691 0
M  V30 2776 C 252.524 -0.142229 2.02 0
M  V30 2777 C 252.852 -1.43566 1.31221 0
M  V30 2778 O 252.107 -1.91298 0.412744 0
M  V30 2779 C 252.406 -0.418249 3.54944 0
M  V30 2780 C 252.072 0.788187 4.43958 0
M  V30 2781 C 250.734 1.11906 4.68007 0
M  V30 2782 C 253.086 1.59347 4.96244 0
M  V30 2783 C 250.414 2.25608 5.41588 0
M  V30 2784 C 252.766 2.7214 5.71072 0
M  V30 2785 C 251.43 3.05692 5.93387 0
M  V30 2786 H 250.7 -0.0520451 0.73917 0
M  V30 2787 H 253.347 0.572697 1.82736 0
M  V30 2788 H 251.652 -1.21496 3.72486 0
M  V30 2789 H 253.349 -0.872339 3.91397 0
M  V30 2790 H 249.939 0.520344 4.2543 0
M  V30 2791 H 254.123 1.35106 4.77556 0
M  V30 2792 H 249.379 2.51929 5.57083 0
M  V30 2793 H 253.553 3.34914 6.10578 0
M  V30 2794 H 251.18 3.9391 6.50184 0
M  V30 2795 N 252.755 -1.56801 0.158532 0
M  V30 2796 C 253.98 -2.01295 -0.499516 0
M  V30 2797 C 254.405 -1.03799 -1.56867 0
M  V30 2798 O 253.763 -0.0155162 -1.81293 0
M  V30 2799 C 253.811 -3.44469 -1.06647 0
M  V30 2800 O 252.915 -3.50012 -2.18095 0
M  V30 2801 H 252.256 -0.652884 -0.12099 0
M  V30 2802 H 254.786 -2.02958 0.258661 0
M  V30 2803 H 254.796 -3.8351 -1.39227 0
M  V30 2804 H 253.471 -4.14932 -0.283581 0
M  V30 2805 H 252.048 -3.22822 -1.86656 0
M  V30 2806 N 254.233 0.115231 -1.57178 0
M  V30 2807 C 255.473 0.828199 -1.8687 0
M  V30 2808 C 255.837 1.76873 -0.747002 0
M  V30 2809 O 257.038 2.52354 -0.925785 0
M  V30 2810 C 255.309 1.55515 -3.21792 0
M  V30 2811 S 256.868 2.30917 -3.73125 0
M  V30 2812 H 253.686 0.27634 -0.655101 0
M  V30 2813 H 256.288 0.0863469 -1.95309 0
M  V30 2814 H 254.992 0.856248 -4.01368 0
M  V30 2815 H 254.523 2.3373 -3.16439 0
M  V30 2816 H 256.538 3.56705 -3.44929 0
M  V30 2817 N 255.711 1.52812 0.385517 0
M  V30 2818 C 256.643 1.74096 1.49074 0
M  V30 2819 C 257.656 0.621462 1.50472 0
M  V30 2820 O 258.845 0.897245 1.54311 0
M  V30 2821 C 255.945 1.78774 2.87911 0
M  V30 2822 C 255.118 3.08134 3.10439 0
M  V30 2823 C 254.177 3.04313 4.29278 0
M  V30 2824 O 253.203 3.78168 4.25415 0
M  V30 2825 N 254.405 2.23741 5.35649 0
M  V30 2826 H 257.17 2.69455 1.31202 0
M  V30 2827 H 254.731 1.51343 0.575065 0
M  V30 2828 H 256.723 1.73721 3.65518 0
M  V30 2829 H 255.293 0.907869 2.99126 0
M  V30 2830 H 254.513 3.26649 2.20667 0
M  V30 2831 H 255.801 3.93662 3.22347 0
M  V30 2832 H 255.199 1.63211 5.41645 0
M  V30 2833 H 253.756 2.24524 6.11909 0
M  V30 2834 N 257.189 -0.644168 1.43834 0
M  V30 2835 C 258.119 -1.76814 1.52509 0
M  V30 2836 C 259.1 -1.65823 0.379052 0
M  V30 2837 O 260.285 -1.84781 0.597466 0
M  V30 2838 C 257.415 -3.15288 1.4564 0
M  V30 2839 C 256.369 -3.41053 2.58586 0
M  V30 2840 C 255.695 -4.79421 2.36769 0
M  V30 2841 C 256.995 -3.34902 4.00797 0
M  V30 2842 H 258.689 -1.69812 2.46586 0
M  V30 2843 H 256.235 -0.815542 1.1868 0
M  V30 2844 H 258.188 -3.93681 1.50311 0
M  V30 2845 H 256.912 -3.23043 0.480725 0
M  V30 2846 H 255.571 -2.65035 2.53282 0
M  V30 2847 H 255.219 -4.83863 1.37424 0
M  V30 2848 H 254.919 -4.9762 3.12487 0
M  V30 2849 H 256.443 -5.6006 2.43238 0
M  V30 2850 H 257.857 -4.03218 4.07539 0
M  V30 2851 H 256.254 -3.64637 4.76613 0
M  V30 2852 H 257.324 -2.32928 4.25291 0
M  V30 2853 N 258.668 -1.30515 -0.883378 0
M  V30 2854 C 259.578 -1.18959 -2.02203 0
M  V30 2855 C 260.594 -0.109172 -1.73657 0
M  V30 2856 O 261.77 -0.324413 -1.9877 0
M  V30 2857 C 258.835 -0.883871 -3.35244 0
M  V30 2858 C 257.896 -2.04982 -3.77201 0
M  V30 2859 C 257.129 -1.75859 -5.03894 0
M  V30 2860 O 257.352 -0.687276 -5.66244 0
M  V30 2861 O 256.286 -2.61146 -5.42297 0
M  V30 2862 H 260.112 -2.14616 -2.1488 0
M  V30 2863 H 257.697 -1.10124 -1.0096 0
M  V30 2864 H 259.579 -0.728644 -4.15053 0
M  V30 2865 H 258.254 0.0427798 -3.23672 0
M  V30 2866 H 257.161 -2.26038 -2.9809 0
M  V30 2867 H 258.494 -2.95825 -3.93381 0
M  V30 2868 N 260.146 1.09593 -1.13257 0
M  V30 2869 C 261.557 1.63229 -0.906274 0
M  V30 2870 C 261.908 1.8811 0.557578 0
M  V30 2871 O 261.033 1.62953 1.42391 0
M  V30 2872 C 261.628 2.96535 -1.63867 0
M  V30 2873 C 260.187 3.47003 -1.45828 0
M  V30 2874 C 259.334 2.2145 -1.66898 0
M  V30 2875 H 262.285 0.92978 -1.28611 0
M  V30 2876 H 262.306 3.64411 -1.09476 0
M  V30 2877 H 261.818 2.78394 -2.70404 0
M  V30 2878 H 259.919 3.70272 -0.415848 0
M  V30 2879 H 260.032 4.24551 -2.2202 0
M  V30 2880 H 258.396 2.30022 -1.09371 0
M  V30 2881 H 259.179 2.0583 -2.74752 0
M  V30 2882 N 261.624 0.925811 1.2754 0
M  V30 2883 C 262.872 0.564138 1.94067 0
M  V30 2884 C 263.193 -0.897188 1.73134 0
M  V30 2885 O 262.463 -1.63573 1.07799 0
M  V30 2886 H 261.043 0.205645 0.718136 0
M  V30 2887 H 263.705 1.1778 1.55287 0
M  V30 2888 H 262.801 0.76881 3.02483 0
M  V30 2889 N 263.102 -1.41638 0.69111 0
M  V30 2890 C 264.012 -2.34588 0.0233487 0
M  V30 2891 C 265.028 -1.55987 -0.770984 0
M  V30 2892 O 266.204 -1.88486 -0.709569 0
M  V30 2893 C 263.269 -3.34684 -0.904851 0
M  V30 2894 C 262.33 -4.29176 -0.103225 0
M  V30 2895 C 261.563 -5.2449 -0.987216 0
M  V30 2896 O 261.786 -5.2514 -2.22674 0
M  V30 2897 O 260.72 -6.00295 -0.439281 0
M  V30 2898 H 264.546 -2.93261 0.789416 0
M  V30 2899 H 262.131 -1.42417 0.45142 0
M  V30 2900 H 264.013 -3.96133 -1.43724 0
M  V30 2901 H 262.688 -2.78461 -1.65049 0
M  V30 2902 H 261.595 -3.71089 0.473655 0
M  V30 2903 H 262.928 -4.88484 0.60365 0
M  V30 2904 N 264.58 -0.43555 -1.51462 0
M  V30 2905 C 265.996 -0.0877501 -1.59359 0
M  V30 2906 C 266.196 1.4027 -1.4466 0
M  V30 2907 O 265.252 2.17243 -1.28693 0
M  V30 2908 C 266.565 -0.606264 -2.94525 0
M  V30 2909 C 268.113 -0.566548 -3.0783 0
M  V30 2910 C 268.588 -1.06201 -4.45517 0
M  V30 2911 N 270.079 -1.01992 -4.51832 0
M  V30 2912 C 270.814 -1.37417 -5.5669 0
M  V30 2913 N 270.31 -1.80119 -6.68976 0
M  V30 2914 N 272.103 -1.29245 -5.47039 0
M  V30 2915 H 264.254 -1.40533 -1.59261 0
M  V30 2916 H 266.517 -0.578992 -0.750648 0
M  V30 2917 H 266.223 -1.64901 -3.10645 0
M  V30 2918 H 266.097 -0.0302097 -3.77188 0
M  V30 2919 H 268.484 0.467208 -2.91378 0
M  V30 2920 H 268.565 -1.17898 -2.2701 0
M  V30 2921 H 268.209 -2.09422 -4.62715 0
M  V30 2922 H 268.139 -0.426127 -5.24873 0
M  V30 2923 H 270.63 -0.706308 -3.71241 0
M  V30 2924 H 270.943 -2.05392 -7.45006 0
M  V30 2925 H 269.288 -1.84044 -6.70189 0
M  V30 2926 H 272.479 -0.957522 -4.58202 0
M  V30 2927 H 272.652 -1.57182 -6.28648 0
M  V30 2928 N 266.058 1.56714 -0.166846 0
M  V30 2929 C 266.988 2.20754 0.760913 0
M  V30 2930 C 267.969 1.16178 1.24244 0
M  V30 2931 O 269.154 1.44592 1.29641 0
M  V30 2932 C 266.284 2.84478 1.99223 0
M  V30 2933 C 265.238 3.95053 1.64672 0
M  V30 2934 C 264.564 4.45805 2.95232 0
M  V30 2935 C 265.864 5.14865 0.878155 0
M  V30 2936 H 267.558 2.98537 0.22713 0
M  V30 2937 H 265.104 1.43596 0.107805 0
M  V30 2938 H 267.057 3.27951 2.64624 0
M  V30 2939 H 265.781 2.04056 2.55007 0
M  V30 2940 H 264.44 3.52228 1.01641 0
M  V30 2941 H 264.088 3.62181 3.49047 0
M  V30 2942 H 263.788 5.204 2.7287 0
M  V30 2943 H 265.312 4.91962 3.6167 0
M  V30 2944 H 266.726 5.55059 1.43466 0
M  V30 2945 H 265.123 5.95348 0.753738 0
M  V30 2946 H 266.193 4.84735 -0.126377 0
M  V30 2947 N 267.536 -0.106894 1.57237 0
M  V30 2948 C 268.952 -0.46078 1.52804 0
M  V30 2949 C 269.152 -1.81184 0.881746 0
M  V30 2950 O 268.208 -2.48102 0.469224 0
M  V30 2951 C 269.521 -0.434127 2.9755 0
M  V30 2952 C 271.069 -0.516821 3.08704 0
M  V30 2953 C 271.544 -0.520436 4.55033 0
M  V30 2954 N 273.035 -0.58153 4.59535 0
M  V30 2955 C 273.77 -0.605973 5.70189 0
M  V30 2956 N 273.266 -0.587331 6.90306 0
M  V30 2957 N 275.059 -0.649895 5.5833 0
M  V30 2958 H 267.21 0.778203 1.9763 0
M  V30 2959 H 269.473 0.288403 0.903066 0
M  V30 2960 H 269.179 0.491197 3.48253 0
M  V30 2961 H 269.053 -1.25748 3.55622 0
M  V30 2962 H 271.44 -1.43256 2.57995 0
M  V30 2963 H 271.521 0.334449 2.53604 0
M  V30 2964 H 271.165 0.391313 5.0639 0
M  V30 2965 H 271.095 -1.38876 5.07958 0
M  V30 2966 H 273.586 -0.60161 3.73081 0
M  V30 2967 H 273.899 -0.60894 7.70397 0
M  V30 2968 H 272.244 -0.554564 6.92784 0
M  V30 2969 H 275.435 -0.661907 4.63397 0
M  V30 2970 H 275.608 -0.665476 6.44574 0
M  V30 2971 N 269.014 -1.53014 -0.377408 0
M  V30 2972 C 269.924 -1.81557 -1.48574 0
M  V30 2973 C 270.94 -0.703102 -1.59162 0
M  V30 2974 O 272.116 -0.99192 -1.75279 0
M  V30 2975 C 269.181 -1.9889 -2.83978 0
M  V30 2976 C 268.242 -3.22801 -2.83016 0
M  V30 2977 C 267.475 -3.39298 -4.11962 0
M  V30 2978 O 267.698 -2.60345 -5.0752 0
M  V30 2979 O 266.632 -4.32604 -4.18494 0
M  V30 2980 H 270.458 -2.75695 -1.27382 0
M  V30 2981 H 268.043 -1.38248 -0.566373 0
M  V30 2982 H 269.925 -2.11931 -3.6423 0
M  V30 2983 H 268.6 -1.07942 -3.05172 0
M  V30 2984 H 267.507 -3.15193 -2.01505 0
M  V30 2985 H 268.84 -4.13632 -2.66775 0
M  V30 2986 N 270.492 0.636531 -1.44174 0
M  V30 2987 C 271.738 1.39826 -1.4689 0
M  V30 2988 C 272.071 1.93947 -0.0990585 0
M  V30 2989 O 271.346 1.73325 0.882544 0
M  V30 2990 C 271.629 2.56751 -2.5249 0
M  V30 2991 C 271.482 2.08014 -3.98811 0
M  V30 2992 C 272.801 3.58946 -2.54649 0
M  V30 2993 H 269.92 0.507075 -0.53483 0
M  V30 2994 H 272.562 0.720188 -1.75822 0
M  V30 2995 H 270.712 3.14597 -2.2795 0
M  V30 2996 H 272.384 1.5504 -4.34466 0
M  V30 2997 H 270.627 1.39242 -4.10846 0
M  V30 2998 H 271.298 2.92169 -4.68339 0
M  V30 2999 H 273.774 3.1089 -2.76563 0
M  V30 3000 H 272.65 4.38286 -3.3045 0
M  V30 3001 H 272.911 4.12655 -1.58646 0
M  V30 3002 N 271.97 1.30982 0.876444 0
M  V30 3003 C 273.21 1.21589 1.64303 0
M  V30 3004 C 273.574 -0.223962 1.90689 0
M  V30 3005 O 274.775 -0.44128 2.65153 0
M  V30 3006 C 273.046 2.03007 2.94148 0
M  V30 3007 S 274.605 2.10405 3.85065 0
M  V30 3008 H 271.423 0.433161 0.563819 0
M  V30 3009 H 274.025 1.65565 1.03964 0
M  V30 3010 H 272.729 3.06719 2.72675 0
M  V30 3011 H 272.26 1.59725 3.59515 0
M  V30 3012 H 274.275 1.23765 4.80517 0
M  V30 3013 N 273.449 -1.08991 1.13837 0
M  V30 3014 C 274.697 -1.80899 0.901098 0
M  V30 3015 C 275.018 -1.86356 -0.574134 0
M  V30 3016 O 274.288 -1.35235 -1.41733 0
M  V30 3017 H 272.868 -0.669966 0.330386 0
M  V30 3018 H 275.53 -1.318 1.43578 0
M  V30 3019 H 274.626 -2.83929 1.29578 0
M  V30 3020 N 274.927 -0.932562 -1.27047 0
M  V30 3021 C 276.155 -0.592031 -1.98249 0
M  V30 3022 C 276.57 0.831062 -1.69525 0
M  V30 3023 O 275.927 1.55299 -0.958561 0
M  V30 3024 C 275.978 -0.814279 -3.5221 0
M  V30 3025 O 275.699 -2.18139 -3.7993 0
M  V30 3026 C 277.2 -0.483121 -4.4066 0
M  V30 3027 H 274.42 -0.223896 -0.632544 0
M  V30 3028 H 276.964 -1.25091 -1.61779 0
M  V30 3029 H 275.119 -0.20213 -3.86872 0
M  V30 3030 H 275.533 -2.235 -4.74498 0
M  V30 3031 H 277.007 -0.689298 -5.47679 0
M  V30 3032 H 277.484 0.581546 -4.35333 0
M  V30 3033 H 278.09 -1.07362 -4.11526 0
M  V30 3034 N 276.405 1.4127 -0.698611 0
M  V30 3035 C 277.816 1.84187 -0.305289 0
M  V30 3036 C 278.167 1.58449 1.15708 0
M  V30 3037 O 277.292 1.05651 1.88856 0
M  V30 3038 C 277.887 3.3435 -0.547314 0
M  V30 3039 C 276.446 3.75826 -0.207878 0
M  V30 3040 C 275.593 2.64647 -0.828099 0
M  V30 3041 H 278.544 1.30778 -0.89904 0
M  V30 3042 H 278.565 3.8001 0.192998 0
M  V30 3043 H 278.077 3.53051 -1.61172 0
M  V30 3044 H 276.178 3.62725 0.852143 0
M  V30 3045 H 276.291 4.74462 -0.665021 0
M  V30 3046 H 274.655 2.53395 -0.257458 0
M  V30 3047 H 275.438 2.86165 -1.89643 0
M  V30 3048 N 277.883 0.443576 1.51229 0
M  V30 3049 C 279.108 -0.121648 2.07043 0
M  V30 3050 C 279.533 -1.35156 1.30823 0
M  V30 3051 O 278.891 -1.7793 0.347934 0
M  V30 3052 C 278.939 -0.41624 3.5819 0
M  V30 3053 O 278.043 -1.50163 3.8409 0
M  V30 3054 H 277.384 0.000871367 0.663999 0
M  V30 3055 H 279.914 0.626706 1.94765 0
M  V30 3056 H 279.924 -0.664867 4.02546 0
M  V30 3057 H 278.599 0.482653 4.1309 0
M  V30 3058 H 277.176 -1.24248 3.51592 0
M  V30 3059 N 279.361 -1.56624 0.175154 0
M  V30 3060 C 280.591 -2.01082 -0.474283 0
M  V30 3061 C 280.999 -1.05447 -1.57091 0
M  V30 3062 O 280.342 -0.0480595 -1.83637 0
M  V30 3063 C 280.404 -3.41963 -1.10911 0
M  V30 3064 C 280.068 -4.56742 -0.153666 0
M  V30 3065 C 281.065 -5.16076 0.629448 0
M  V30 3066 C 278.75 -5.02277 -0.0483776 0
M  V30 3067 C 280.744 -6.19377 1.50501 0
M  V30 3068 C 278.431 -6.05427 0.830768 0
M  V30 3069 C 279.429 -6.63849 1.60605 0
M  V30 3070 O 279.117 -7.64998 2.47049 0
M  V30 3071 H 278.849 -0.664261 -0.125432 0
M  V30 3072 H 281.403 -2.03549 0.275163 0
M  V30 3073 H 279.633 -3.36422 -1.90676 0
M  V30 3074 H 281.322 -3.70352 -1.66114 0
M  V30 3075 H 282.088 -4.81776 0.558297 0
M  V30 3076 H 277.967 -4.56513 -0.641611 0
M  V30 3077 H 281.511 -6.64906 2.1106 0
M  V30 3078 H 277.408 -6.39151 0.903107 0
M  V30 3079 H 278.176 -7.82336 2.40607 0
M  V30 3080 N 280.839 0.0985539 -1.57292 0
M  V30 3081 C 281.769 1.12064 -2.04851 0
M  V30 3082 C 282.75 1.41981 -0.936767 0
M  V30 3083 O 283.935 1.52071 -1.20781 0
M  V30 3084 C 281.065 2.44144 -2.47004 0
M  V30 3085 C 280.019 2.28643 -3.6181 0
M  V30 3086 C 279.345 3.65869 -3.89929 0
M  V30 3087 C 280.645 1.72986 -4.92822 0
M  V30 3088 H 282.339 0.724979 -2.9049 0
M  V30 3089 H 279.885 0.34729 -1.39749 0
M  V30 3090 H 281.838 3.15914 -2.78884 0
M  V30 3091 H 280.562 2.85639 -1.5836 0
M  V30 3092 H 279.221 1.59318 -3.30172 0
M  V30 3093 H 278.869 4.04885 -2.98458 0
M  V30 3094 H 278.569 3.56344 -4.67218 0
M  V30 3095 H 280.093 4.39112 -4.2428 0
M  V30 3096 H 281.507 2.34593 -5.23105 0
M  V30 3097 H 279.904 1.74229 -5.74251 0
M  V30 3098 H 280.974 0.689007 -4.7998 0
M  V30 3099 N 282.317 1.53212 0.369288 0
M  V30 3100 C 283.28 1.7872 1.43498 0
M  V30 3101 C 284.28 0.657554 1.46741 0
M  V30 3102 O 285.47 0.925736 1.47566 0
M  V30 3103 C 282.602 1.90591 2.82645 0
M  V30 3104 H 283.795 2.73894 1.22156 0
M  V30 3105 H 281.348 1.44233 0.602203 0
M  V30 3106 H 282.083 0.974709 3.09306 0
M  V30 3107 H 281.868 2.72751 2.8169 0
M  V30 3108 H 283.358 2.11931 3.59826 0
M  V30 3109 N 283.795 -0.628877 1.44509 0
M  V30 3110 C 285.206 -1.21054 1.42137 0
M  V30 3111 C 285.557 -1.95715 0.137881 0
M  V30 3112 O 284.682 -2.02554 -0.761645 0
M  V30 3113 C 285.277 -2.20189 2.57493 0
M  V30 3114 C 283.836 -2.73777 2.58308 0
M  V30 3115 C 282.983 -1.48813 2.33987 0
M  V30 3116 H 285.934 -0.41942 1.53057 0
M  V30 3117 H 285.955 -3.02833 2.30375 0
M  V30 3118 H 285.467 -1.6582 3.50892 0
M  V30 3119 H 283.568 -3.32142 1.68856 0
M  V30 3120 H 283.681 -3.19662 3.56865 0
M  V30 3121 H 282.045 -1.77024 1.83124 0
M  V30 3122 H 282.828 -0.963442 3.29504 0
M  V30 3123 N 285.273 -1.31445 -0.869486 0
M  V30 3124 C 286.183 -1.21097 -2.0093 0
M  V30 3125 C 287.199 -0.127584 -1.73532 0
M  V30 3126 O 288.375 -0.345477 -1.98415 0
M  V30 3127 C 285.44 -0.919378 -3.34288 0
M  V30 3128 C 284.501 -2.08971 -3.75006 0
M  V30 3129 C 283.734 -1.81194 -5.02001 0
M  V30 3130 O 283.957 -0.747296 -5.65484 0
M  V30 3131 O 282.891 -2.66883 -5.39497 0
M  V30 3132 H 286.717 -2.16883 -2.12592 0
M  V30 3133 H 284.302 -1.11189 -0.997868 0
M  V30 3134 H 286.184 -0.772625 -4.14257 0
M  V30 3135 H 284.859 0.00844772 -3.23699 0
M  V30 3136 H 283.766 -2.29187 -2.95676 0
M  V30 3137 H 285.099 -2.9998 -3.90221 0
M  V30 3138 N 286.751 1.08385 -1.14413 0
M  V30 3139 C 288 1.80153 -0.907076 0
M  V30 3140 C 288.313 1.87176 0.567851 0
M  V30 3141 O 289.519 2.55359 0.922172 0
M  V30 3142 C 287.975 3.23687 -1.57336 0
M  V30 3143 C 287.583 3.24897 -3.08457 0
M  V30 3144 C 289.327 4.00136 -1.41744 0
M  V30 3145 C 287.234 4.6302 -3.67921 0
M  V30 3146 H 286.164 0.675139 -0.335714 0
M  V30 3147 H 288.815 1.21733 -1.37307 0
M  V30 3148 H 287.197 3.82234 -1.03505 0
M  V30 3149 H 288.371 2.76055 -3.68958 0
M  V30 3150 H 286.686 2.61943 -3.2369 0
M  V30 3151 H 289.283 5.02201 -1.83572 0
M  V30 3152 H 289.626 4.14709 -0.363576 0
M  V30 3153 H 290.159 3.48058 -1.92614 0
M  V30 3154 H 286.898 4.5365 -4.73161 0
M  V30 3155 H 286.418 5.12143 -3.12201 0
M  V30 3156 H 288.097 5.31994 -3.68227 0
M  V30 3157 N 288.23 0.939286 1.26551 0
M  V30 3158 C 289.479 0.581601 1.93133 0
M  V30 3159 C 289.792 -0.883224 1.74524 0
M  V30 3160 O 290.998 -1.3502 2.35546 0
M  V30 3161 C 289.454 0.989425 3.46032 0
M  V30 3162 C 289.062 2.47573 3.73379 0
M  V30 3163 C 290.806 0.703544 4.18629 0
M  V30 3164 C 288.713 2.82235 5.19709 0
M  V30 3165 H 287.643 0.213803 0.723052 0
M  V30 3166 H 290.294 1.14167 1.4366 0
M  V30 3167 H 288.676 0.357902 3.94379 0
M  V30 3168 H 289.85 3.15614 3.35744 0
M  V30 3169 H 288.165 2.73471 3.1401 0
M  V30 3170 H 290.762 0.938869 5.26393 0
M  V30 3171 H 291.105 -0.359639 4.14744 0
M  V30 3172 H 291.638 1.2947 3.76141 0
M  V30 3173 H 288.377 3.87509 5.28694 0
M  V30 3174 H 287.897 2.18854 5.58447 0
M  V30 3175 H 289.576 2.70599 5.87695 0
M  V30 3176 N 289.708 -1.40897 0.706093 0
M  V30 3177 C 290.618 -2.3455 0.0482286 0
M  V30 3178 C 291.634 -1.56796 -0.754396 0
M  V30 3179 O 292.81 -1.89228 -0.689538 0
M  V30 3180 C 289.875 -3.35625 -0.869303 0
M  V30 3181 C 288.936 -4.29261 -0.0576994 0
M  V30 3182 C 288.169 -5.25508 -0.931531 0
M  V30 3183 O 288.392 -5.27472 -2.17092 0
M  V30 3184 O 287.326 -6.00727 -0.375587 0
M  V30 3185 H 291.152 -2.92407 0.820476 0
M  V30 3186 H 288.737 -1.4193 0.4665 0
M  V30 3187 H 290.619 -3.97635 -1.39514 0
M  V30 3188 H 289.294 -2.80196 -1.62086 0
M  V30 3189 H 288.201 -3.70566 0.512988 0
M  V30 3190 H 289.534 -4.87817 0.655426 0
M  V30 3191 N 291.186 -0.45159 -1.50991 0
M  V30 3192 C 292.426 0.109066 -2.04109 0
M  V30 3193 C 292.79 1.38716 -1.32747 0
M  V30 3194 O 293.991 2.02896 -1.76314 0
M  V30 3195 C 292.262 0.308354 -3.56067 0
M  V30 3196 S 293.821 0.830369 -4.30872 0
M  V30 3197 H 290.639 0.0251531 -0.710555 0
M  V30 3198 H 293.241 -0.614264 -1.85599 0
M  V30 3199 H 291.945 -0.627962 -4.05567 0
M  V30 3200 H 291.476 1.05836 -3.78896 0
M  V30 3201 H 293.491 2.10626 -4.49279 0
M  V30 3202 N 292.664 1.56529 -0.183458 0
M  V30 3203 C 293.889 2.02064 0.467428 0
M  V30 3204 C 294.314 1.06282 1.55196 0
M  V30 3205 O 293.672 0.0443565 1.81246 0
M  V30 3206 C 293.72 3.46122 1.01153 0
M  V30 3207 O 292.824 3.53437 2.12499 0
M  V30 3208 H 292.165 0.654726 0.110588 0
M  V30 3209 H 294.695 2.02521 -0.290917 0
M  V30 3210 H 294.705 3.85676 1.33108 0
M  V30 3211 H 293.38 4.15331 0.217533 0
M  V30 3212 H 291.957 3.2575 1.81497 0
M  V30 3213 N 294.142 -0.090211 1.57342 0
M  V30 3214 C 295.075 -1.14035 1.97664 0
M  V30 3215 C 296.053 -1.38576 0.850616 0
M  V30 3216 O 297.237 -1.52255 1.11134 0
M  V30 3217 C 294.364 -2.48854 2.2976 0
M  V30 3218 C 293.41 -2.40564 3.52181 0
M  V30 3219 S 294.243 -1.81745 5.03715 0
M  V30 3220 C 295.399 -3.18178 5.38993 0
M  V30 3221 H 295.632 -0.796636 2.86428 0
M  V30 3222 H 293.165 -0.298072 1.51496 0
M  V30 3223 H 295.123 -3.26413 2.48927 0
M  V30 3224 H 293.784 -2.80393 1.41558 0
M  V30 3225 H 292.977 -3.39942 3.72096 0
M  V30 3226 H 292.579 -1.71135 3.32549 0
M  V30 3227 H 294.871 -4.14461 5.35937 0
M  V30 3228 H 295.814 -3.03062 6.39968 0
M  V30 3229 H 296.222 -3.17935 4.66452 0
M  V30 3230 N 295.62 -1.53406 -0.361157 0
M  V30 3231 C 296.568 -1.80832 -1.46296 0
M  V30 3232 C 297.562 -0.677699 -1.55253 0
M  V30 3233 O 298.768 -0.860723 -1.58087 0
M  V30 3234 H 295.143 -0.572627 -0.487445 0
M  V30 3235 H 297.114 -2.73045 -1.20371 0
M  V30 3236 C 295.863 -2.01907 -2.8307 0
M  V30 3237 H 295.186 -2.88349 -2.76938 0
M  V30 3238 H 296.626 -2.25072 -3.59331 0
M  V30 3239 C 295.085 -0.799449 -3.27277 0
M  V30 3240 O 295.615 0.00971761 -4.01699 0
M  V30 3241 N 293.821 -0.621637 -2.83873 0
M  V30 3242 H 293.368 -1.28126 -2.23476 0
M  V30 3243 H 293.326 0.19298 -3.13807 0
M  V30 3244 N 297.098 0.621204 -1.44841 0
M  V30 3245 C 298.008 1.7612 -1.5498 0
M  V30 3246 C 299.024 1.68477 -0.434927 0
M  V30 3247 O 300.2 1.89076 -0.693693 0
M  V30 3248 C 297.265 3.1254 -1.50065 0
M  V30 3249 C 296.326 3.31741 -2.72482 0
M  V30 3250 C 295.559 4.61653 -2.67792 0
M  V30 3251 O 295.782 5.431 -1.74352 0
M  V30 3252 O 294.716 4.83271 -3.58794 0
M  V30 3253 H 298.542 1.70518 -2.51311 0
M  V30 3254 H 296.127 0.783643 -1.27198 0
M  V30 3255 H 298.009 3.93844 -1.49882 0
M  V30 3256 H 296.684 3.18663 -0.568806 0
M  V30 3257 H 295.591 2.50077 -2.7823 0
M  V30 3258 H 296.924 3.30486 -3.64746 0
M  V30 3259 N 298.576 1.31904 0.862503 0
M  V30 3260 C 299.853 1.12644 1.59908 0
M  V30 3261 C 300.233 -0.316104 2.0872 0
M  V30 3262 O 299.581 -1.31145 1.87118 0
M  V30 3263 C 299.791 2.1472 2.7513 0
M  V30 3264 C 301.139 2.47637 3.44907 0
M  V30 3265 O 302.163 2.13205 2.85346 0
M  V30 3266 O 301.022 3.06632 4.52371 0
M  V30 3267 H 298.116 0.43416 0.703871 0
M  V30 3268 H 300.662 1.43408 0.907314 0
M  V30 3269 H 299.434 3.1172 2.3653 0
M  V30 3270 H 299.057 1.84905 3.51989 0
M  V30 3271 N 300.054 -1.07777 1.14986 0
M  V30 3272 C 301.004 -2.13082 0.811181 0
M  V30 3273 C 301.988 -1.59619 -0.202597 0
M  V30 3274 O 303.18 -1.77 -0.00398275 0
M  V30 3275 C 300.309 -3.42009 0.297439 0
M  V30 3276 C 299.395 -4.02337 1.34112 0
M  V30 3277 N 299.786 -4.36982 2.54716 0
M  V30 3278 C 298.084 -4.29752 1.19285 0
M  V30 3279 C 298.785 -4.84729 3.21578 0
M  V30 3280 N 297.761 -4.83233 2.48972 0
M  V30 3281 H 301.563 -2.37696 1.72853 0
M  V30 3282 H 299.077 -1.25173 1.03468 0
M  V30 3283 H 301.074 -4.16884 0.0364777 0
M  V30 3284 H 299.734 -3.18841 -0.614022 0
M  V30 3285 H 300.745 -4.27807 2.91894 0
M  V30 3286 H 297.422 -4.16106 0.340926 0
M  V30 3287 H 298.812 -5.20863 4.24442 0
M  V30 3288 N 301.532 -0.945985 -1.26051 0
M  V30 3289 C 302.943 -0.638096 -1.75457 0
M  V30 3290 C 303.294 0.846672 -1.76991 0
M  V30 3291 O 302.419 1.66262 -1.38513 0
M  V30 3292 C 303.014 -1.15157 -3.18629 0
M  V30 3293 C 301.573 -0.894004 -3.65629 0
M  V30 3294 C 300.72 -1.29967 -2.44957 0
M  V30 3295 H 303.671 -1.12376 -1.1206 0
M  V30 3296 H 303.692 -0.507615 -3.77099 0
M  V30 3297 H 303.204 -2.23222 -3.1748 0
M  V30 3298 H 301.305 0.172057 -3.72203 0
M  V30 3299 H 301.418 -1.52439 -4.54202 0
M  V30 3300 H 299.782 -0.718078 -2.44368 0
M  V30 3301 H 300.565 -2.38935 -2.46505 0
M  V30 3302 N 303.011 1.40521 -0.713556 0
M  V30 3303 C 304.259 2.00527 -0.251692 0
M  V30 3304 C 304.58 1.56857 1.15848 0
M  V30 3305 O 303.85 0.807127 1.785 0
M  V30 3306 H 302.43 0.741551 -0.0900646 0
M  V30 3307 H 305.092 1.71887 -0.918733 0
M  V30 3308 H 304.188 3.10813 -0.283192 0
M  V30 3309 N 304.489 0.459591 1.5075 0
M  V30 3310 C 305.719 -0.0972338 2.06371 0
M  V30 3311 C 306.127 -1.35074 1.32483 0
M  V30 3312 O 305.47 -1.79637 0.384226 0
M  V30 3313 C 305.532 -0.462759 3.56509 0
M  V30 3314 C 305.196 0.687084 4.51805 0
M  V30 3315 C 306.193 1.56578 4.95761 0
M  V30 3316 C 303.878 0.874144 4.94635 0
M  V30 3317 C 305.872 2.61604 5.81242 0
M  V30 3318 C 303.559 1.92765 5.79901 0
M  V30 3319 C 304.557 2.79697 6.23104 0
M  V30 3320 O 304.245 3.83235 7.06673 0
M  V30 3321 H 303.977 -0.00140687 0.675999 0
M  V30 3322 H 306.531 0.644011 1.95043 0
M  V30 3323 H 304.761 -1.25703 3.65699 0
M  V30 3324 H 306.45 -0.953323 3.94546 0
M  V30 3325 H 307.216 1.4329 4.6335 0
M  V30 3326 H 303.095 0.207006 4.60535 0
M  V30 3327 H 306.639 3.29489 6.14884 0
M  V30 3328 H 302.536 2.06064 6.11725 0
M  V30 3329 H 303.304 3.80084 7.24899 0
M  V30 3330 N 305.967 -1.56429 0.191757 0
M  V30 3331 C 307.215 -1.97095 -0.447006 0
M  V30 3332 C 307.536 -1.07967 -1.62383 0
M  V30 3333 O 306.806 -0.150248 -1.95323 0
M  V30 3334 H 305.386 -0.727832 -0.168135 0
M  V30 3335 H 308.048 -1.92911 0.27771 0
M  V30 3336 H 307.144 -3.01848 -0.793371 0
M  V30 3337 N 307.445 0.0818655 -1.57387 0
M  V30 3338 C 308.392 1.09834 -2.0299 0
M  V30 3339 C 309.362 1.39043 -0.908639 0
M  V30 3340 O 310.547 1.50282 -1.17559 0
M  V30 3341 C 307.687 2.40971 -2.47037 0
M  V30 3342 C 306.8 2.18379 -3.7274 0
M  V30 3343 C 305.935 3.43008 -4.0561 0
M  V30 3344 C 304.974 3.15736 -5.24383 0
M  V30 3345 N 304.111 4.32667 -5.52941 0
M  V30 3346 H 308.951 0.702472 -2.89602 0
M  V30 3347 H 306.488 0.33531 -1.43227 0
M  V30 3348 H 308.446 3.1752 -2.70623 0
M  V30 3349 H 307.076 2.78379 -1.63417 0
M  V30 3350 H 306.128 1.32569 -3.56552 0
M  V30 3351 H 307.44 1.94227 -4.59431 0
M  V30 3352 H 306.594 4.27958 -4.30043 0
M  V30 3353 H 305.333 3.70225 -3.17466 0
M  V30 3354 H 304.338 2.2918 -4.99757 0
M  V30 3355 H 305.563 2.8985 -6.14136 0
M  V30 3356 H 303.509 4.59935 -4.67756 0
M  V30 3357 H 303.426 4.11753 -6.34031 0
M  V30 3358 H 304.694 5.18644 -5.81918 0
M  V30 3359 N 308.923 1.53595 0.353017 0
M  V30 3360 C 309.833 1.83897 1.45667 0
M  V30 3361 C 310.849 0.728334 1.58023 0
M  V30 3362 O 312.025 1.01968 1.73679 0
M  V30 3363 C 309.09 2.03383 2.80778 0
M  V30 3364 C 308.151 3.27262 2.77845 0
M  V30 3365 C 307.384 3.45809 4.06512 0
M  V30 3366 O 307.607 2.68387 5.03314 0
M  V30 3367 O 306.541 4.39207 4.11559 0
M  V30 3368 H 310.367 2.77686 1.2298 0
M  V30 3369 H 307.952 1.39132 0.544308 0
M  V30 3370 H 309.834 2.17698 3.60812 0
M  V30 3371 H 308.509 1.12783 3.03417 0
M  V30 3372 H 307.416 3.18359 1.96465 0
M  V30 3373 H 308.749 4.17824 2.60161 0
M  V30 3374 N 310.401 -0.613514 1.45168 0
M  V30 3375 C 311.647 -1.37471 1.49096 0
M  V30 3376 C 311.98 -1.93765 0.129901 0
M  V30 3377 O 311.255 -1.74707 -0.854858 0
M  V30 3378 C 311.538 -2.52701 2.56542 0
M  V30 3379 C 311.391 -2.01643 4.0207 0
M  V30 3380 C 312.71 -3.54849 2.60327 0
M  V30 3381 H 309.829 -0.498502 0.54283 0
M  V30 3382 H 312.471 -0.692125 1.76945 0
M  V30 3383 H 310.621 -3.10931 2.32926 0
M  V30 3384 H 312.293 -1.48108 4.36877 0
M  V30 3385 H 310.536 -1.32688 4.13009 0
M  V30 3386 H 311.207 -2.84681 4.72928 0
M  V30 3387 H 313.683 -3.0645 2.81474 0
M  V30 3388 H 312.559 -4.32973 3.37381 0
M  V30 3389 H 312.82 -4.10079 1.6519 0
M  V30 3390 N 311.879 -1.3236 -0.855495 0
M  V30 3391 C 313.156 -1.13491 -1.59309 0
M  V30 3392 C 313.536 0.30503 -2.08885 0
M  V30 3393 O 312.884 1.30151 -1.87811 0
M  V30 3394 C 313.094 -2.16176 -2.73987 0
M  V30 3395 C 314.442 -2.49463 -3.43589 0
M  V30 3396 O 315.466 -2.14715 -2.84211 0
M  V30 3397 O 314.325 -3.09027 -4.50738 0
M  V30 3398 H 311.419 -0.437887 -0.701559 0
M  V30 3399 H 313.965 -1.43887 -0.899696 0
M  V30 3400 H 312.737 -3.1297 -2.34873 0
M  V30 3401 H 312.36 -1.86769 -3.51003 0
M  V30 3402 N 313.357 1.07166 -1.15556 0
M  V30 3403 C 314.29 2.13808 -0.797593 0
M  V30 3404 C 315.268 1.6101 0.226812 0
M  V30 3405 O 316.452 1.88161 0.112932 0
M  V30 3406 C 313.579 3.38187 -0.186371 0
M  V30 3407 C 312.625 4.09766 -1.18297 0
M  V30 3408 S 313.458 4.60932 -2.72584 0
M  V30 3409 C 314.614 5.88583 -2.12886 0
M  V30 3410 H 314.847 2.43843 -1.70083 0
M  V30 3411 H 312.38 1.19467 -0.978106 0
M  V30 3412 H 314.338 4.10189 0.159837 0
M  V30 3413 H 312.999 3.06326 0.694489 0
M  V30 3414 H 312.192 4.99065 -0.703562 0
M  V30 3415 H 311.794 3.43736 -1.47381 0
M  V30 3416 H 314.086 6.60866 -1.49208 0
M  V30 3417 H 315.029 6.41241 -3.0036 0
M  V30 3418 H 315.437 5.42194 -1.57116 0
M  V30 3419 N 314.835 0.952656 1.25548 0
M  V30 3420 C 316.081 0.616826 1.93822 0
M  V30 3421 C 316.436 -0.836684 1.73255 0
M  V30 3422 O 315.729 -1.59218 1.06584 0
M  V30 3423 C 315.923 0.908818 3.45652 0
M  V30 3424 C 315.752 2.38916 3.80984 0
M  V30 3425 C 314.522 3.04637 4.03143 0
M  V30 3426 C 316.72 3.36838 3.88645 0
M  V30 3427 N 314.702 4.42565 4.25453 0
M  V30 3428 C 316.073 4.60065 4.1562 0
M  V30 3429 C 318.128 3.31704 3.71318 0
M  V30 3430 C 316.831 5.78795 4.2707 0
M  V30 3431 C 318.857 4.4977 3.84006 0
M  V30 3432 C 318.219 5.71783 4.11392 0
M  V30 3433 H 314.318 0.27629 0.731565 0
M  V30 3434 H 316.902 1.22443 1.5138 0
M  V30 3435 H 315.073 0.330166 3.86994 0
M  V30 3436 H 316.805 0.533093 4.01174 0
M  V30 3437 H 313.56 2.55215 3.98952 0
M  V30 3438 H 313.984 5.1399 4.40617 0
M  V30 3439 H 318.626 2.3842 3.49164 0
M  V30 3440 H 316.344 6.72521 4.48041 0
M  V30 3441 H 319.93 4.47342 3.71989 0
M  V30 3442 H 318.81 6.61617 4.2099 0
M  V30 3443 N 316.313 -1.40141 0.720998 0
M  V30 3444 C 317.538 -2.05618 0.271258 0
M  V30 3445 C 317.963 -1.53978 -1.08039 0
M  V30 3446 O 317.321 -0.677463 -1.68167 0
M  V30 3447 C 317.369 -3.59609 0.267197 0
M  V30 3448 O 316.473 -4.05526 -0.749814 0
M  V30 3449 H 315.814 -0.651904 0.126162 0
M  V30 3450 H 318.344 -1.79439 0.982997 0
M  V30 3451 H 318.354 -4.0786 0.106744 0
M  V30 3452 H 317.029 -3.96559 1.25354 0
M  V30 3453 H 315.606 -3.68722 -0.556644 0
M  V30 3454 N 317.792 -0.46758 -1.50504 0
M  V30 3455 C 319.02 0.0864133 -2.06719 0
M  V30 3456 C 319.435 1.33819 -1.33184 0
M  V30 3457 O 318.792 1.78061 -0.400083 0
M  V30 3458 C 318.843 0.378079 -3.59517 0
M  V30 3459 O 318.564 -0.824044 -4.3028 0
M  V30 3460 C 320.065 0.979426 -4.32345 0
M  V30 3461 H 317.285 -0.00551697 -0.670977 0
M  V30 3462 H 319.829 -0.655354 -1.93715 0
M  V30 3463 H 317.984 1.06977 -3.72337 0
M  V30 3464 H 318.398 -0.566518 -5.21432 0
M  V30 3465 H 319.872 1.1333 -5.40241 0
M  V30 3466 H 320.349 1.9686 -3.9261 0
M  V30 3467 H 320.955 0.326216 -4.24047 0
M  V30 3468 N 319.27 1.56325 -0.20005 0
M  V30 3469 C 320.518 1.97329 0.436547 0
M  V30 3470 C 320.839 1.08826 1.61808 0
M  V30 3471 O 320.109 0.160604 1.95241 0
M  V30 3472 H 318.689 0.728714 0.164272 0
M  V30 3473 H 321.351 1.92761 -0.287937 0
M  V30 3474 H 320.447 3.02264 0.777353 0
M  V30 3475 N 320.748 -0.0735177 1.57428 0
M  V30 3476 C 321.994 -0.774145 1.87443 0
M  V30 3477 C 322.327 -1.77311 0.792103 0
M  V30 3478 O 321.602 -1.93492 -0.197793 0
M  V30 3479 C 321.885 -1.48367 3.28115 0
M  V30 3480 C 321.738 -0.501227 4.46999 0
M  V30 3481 C 323.057 -2.429 3.66998 0
M  V30 3482 H 320.176 -0.279971 0.681752 0
M  V30 3483 H 322.818 -0.0373616 1.89963 0
M  V30 3484 H 320.968 -2.11171 3.26097 0
M  V30 3485 H 322.64 0.121468 4.6114 0
M  V30 3486 H 320.883 0.183593 4.33411 0
M  V30 3487 H 321.554 -1.03526 5.42205 0
M  V30 3488 H 324.03 -1.90175 3.70098 0
M  V30 3489 H 322.906 -2.89549 4.66318 0
M  V30 3490 H 323.167 -3.27628 2.96837 0
M  V30 3491 N 322.226 -1.5378 -0.344866 0
M  V30 3492 C 323.475 -1.7018 -1.08267 0
M  V30 3493 C 323.788 -0.471 -1.89845 0
M  V30 3494 O 324.994 -0.515917 -2.66553 0
M  V30 3495 C 323.45 -3.00923 -1.97417 0
M  V30 3496 C 323.058 -4.31335 -1.21053 0
M  V30 3497 C 324.802 -3.26688 -2.71063 0
M  V30 3498 C 322.709 -5.53153 -2.09225 0
M  V30 3499 H 321.639 -0.634138 -0.407903 0
M  V30 3500 H 324.29 -1.8028 -0.342246 0
M  V30 3501 H 322.672 -2.84676 -2.75274 0
M  V30 3502 H 323.846 -4.58281 -0.481159 0
M  V30 3503 H 322.161 -4.12173 -0.591813 0
M  V30 3504 H 324.758 -4.1489 -3.37299 0
M  V30 3505 H 325.101 -2.43639 -3.37558 0
M  V30 3506 H 325.634 -3.43705 -2.0028 0
M  V30 3507 H 322.373 -6.38741 -1.47274 0
M  V30 3508 H 321.893 -5.30458 -2.79955 0
M  V30 3509 H 323.572 -5.88744 -2.68308 0
M  V30 3510 N 323.704 0.605807 -1.45491 0
M  V30 3511 C 324.637 1.73022 -1.48791 0
M  V30 3512 C 325.615 1.58917 -0.344112 0
M  V30 3513 O 326.799 1.80453 -0.544876 0
M  V30 3514 C 323.926 3.10865 -1.34463 0
M  V30 3515 C 322.972 3.43554 -2.5273 0
M  V30 3516 S 323.805 3.38196 -4.15191 0
M  V30 3517 C 324.961 4.78616 -4.03333 0
M  V30 3518 H 325.194 1.69961 -2.43928 0
M  V30 3519 H 322.727 0.782611 -1.33096 0
M  V30 3520 H 324.685 3.90398 -1.26884 0
M  V30 3521 H 323.346 3.1144 -0.40794 0
M  V30 3522 H 322.539 4.43924 -2.38637 0
M  V30 3523 H 322.141 2.71541 -2.5718 0
M  V30 3524 H 324.433 5.68463 -3.68587 0
M  V30 3525 H 325.376 4.97767 -5.03621 0
M  V30 3526 H 325.784 4.54381 -3.34959 0
M  V30 3527 N 325.182 1.32811 0.848464 0
M  V30 3528 C 326.412 1.26556 1.63301 0
M  V30 3529 C 326.82 -0.1676 1.88456 0
M  V30 3530 O 326.163 -1.11713 1.45828 0
M  V30 3531 C 326.225 1.96202 3.01239 0
M  V30 3532 C 325.889 3.45528 2.99098 0
M  V30 3533 C 326.886 4.40903 2.75501 0
M  V30 3534 C 324.571 3.87558 3.19537 0
M  V30 3535 C 326.565 5.76282 2.72356 0
M  V30 3536 C 324.252 5.23044 3.16019 0
M  V30 3537 C 325.25 6.17217 2.92458 0
M  V30 3538 O 324.938 7.50223 2.88825 0
M  V30 3539 H 324.67 0.43771 0.515156 0
M  V30 3540 H 327.224 1.7559 1.0657 0
M  V30 3541 H 325.454 1.41746 3.59785 0
M  V30 3542 H 327.143 1.83573 3.62016 0
M  V30 3543 H 327.909 4.09756 2.5947 0
M  V30 3544 H 323.788 3.14674 3.369 0
M  V30 3545 H 327.332 6.4976 2.53886 0
M  V30 3546 H 323.229 5.53818 3.31596 0
M  V30 3547 H 323.997 7.59657 3.04735 0
M  V30 3548 N 326.66 -1.06551 1.16123 0
M  V30 3549 C 327.888 -1.83005 0.965237 0
M  V30 3550 C 328.303 -1.82423 -0.486542 0
M  V30 3551 O 327.66 -1.24152 -1.33763 0
M  V30 3552 C 327.711 -3.29733 1.48183 0
M  V30 3553 O 327.432 -3.30416 2.87674 0
M  V30 3554 C 328.933 -4.22926 1.32848 0
M  V30 3555 H 326.153 -0.577118 0.342309 0
M  V30 3556 H 328.697 -1.3445 1.54089 0
M  V30 3557 H 326.852 -3.75609 0.948517 0
M  V30 3558 H 327.266 -4.22149 3.11272 0
M  V30 3559 H 328.74 -5.23916 1.73827 0
M  V30 3560 H 329.217 -4.38346 0.273692 0
M  V30 3561 H 329.823 -3.82894 1.85127 0
M  V30 3562 N 328.138 -0.959301 -1.25041 0
M  V30 3563 C 329.068 -0.501388 -2.28053 0
M  V30 3564 C 330.049 0.454673 -1.63911 0
M  V30 3565 O 331.234 0.352618 -1.90972 0
M  V30 3566 C 328.364 0.217224 -3.4662 0
M  V30 3567 C 327.318 -0.654034 -4.22973 0
M  V30 3568 C 326.644 0.195589 -5.34342 0
M  V30 3569 C 327.944 -1.93447 -4.85155 0
M  V30 3570 H 329.638 -1.36238 -2.66608 0
M  V30 3571 H 327.184 -0.656534 -1.28163 0
M  V30 3572 H 329.137 0.548732 -4.17812 0
M  V30 3573 H 327.861 1.1125 -3.07068 0
M  V30 3574 H 326.52 -0.968693 -3.5357 0
M  V30 3575 H 326.168 1.09076 -4.91031 0
M  V30 3576 H 325.868 -0.384091 -5.86343 0
M  V30 3577 H 327.392 0.521958 -6.08365 0
M  V30 3578 H 328.806 -1.66908 -5.48466 0
M  V30 3579 H 327.203 -2.46018 -5.47353 0
M  V30 3580 H 328.273 -2.63466 -4.07079 0
M  V30 3581 N 329.616 1.39756 -0.72842 0
M  V30 3582 C 330.546 2.33289 -0.0991354 0
M  V30 3583 C 331.527 1.53568 0.731489 0
M  V30 3584 O 332.712 1.81987 0.677807 0
M  V30 3585 C 329.842 3.3763 0.813834 0
M  V30 3586 C 328.796 4.2791 0.0878663 0
M  V30 3587 C 328.122 5.22894 1.11741 0
M  V30 3588 C 329.422 5.11314 -1.06563 0
M  V30 3589 H 331.116 2.86163 -0.880408 0
M  V30 3590 H 328.662 1.37591 -0.424819 0
M  V30 3591 H 330.615 4.0201 1.26355 0
M  V30 3592 H 329.339 2.83181 1.62715 0
M  V30 3593 H 327.998 3.65 -0.342159 0
M  V30 3594 H 327.646 4.64744 1.92412 0
M  V30 3595 H 327.346 5.84143 0.636477 0
M  V30 3596 H 328.87 5.90151 1.56697 0
M  V30 3597 H 330.284 5.69076 -0.694671 0
M  V30 3598 H 328.681 5.81671 -1.47577 0
M  V30 3599 H 329.751 4.46534 -1.89038 0
M  V30 3600 N 331.094 0.475555 1.50254 0
M  V30 3601 C 332.057 -0.305016 2.27161 0
M  V30 3602 C 333.057 -0.916519 1.32123 0
M  V30 3603 O 334.247 -0.785003 1.5551 0
M  V30 3604 C 331.379 -1.43496 3.09227 0
M  V30 3605 H 332.572 0.369511 2.97615 0
M  V30 3606 H 330.125 0.229747 1.54602 0
M  V30 3607 H 330.86 -2.14441 2.43281 0
M  V30 3608 H 330.645 -1.00223 3.79075 0
M  V30 3609 H 332.135 -1.98548 3.67381 0
M  V30 3610 N 332.573 -1.56217 0.208337 0
M  V30 3611 C 333.821 -1.97558 -0.426076 0
M  V30 3612 C 334.142 -1.09683 -1.61229 0
M  V30 3613 O 333.412 -0.170956 -1.95153 0
M  V30 3614 H 331.992 -0.729575 -0.160405 0
M  V30 3615 H 334.654 -1.92606 0.298155 0
M  V30 3616 H 333.75 -3.02672 -0.761312 0
M  V30 3617 N 334.051 0.0651679 -1.57465 0
M  V30 3618 C 335.276 0.779605 -1.9219 0
M  V30 3619 C 335.701 1.69988 -0.805333 0
M  V30 3620 O 335.059 1.79685 0.241435 0
M  V30 3621 C 335.107 1.54364 -3.2589 0
M  V30 3622 O 334.211 2.65474 -3.1559 0
M  V30 3623 H 333.552 0.212249 -0.629163 0
M  V30 3624 H 336.082 0.0314294 -2.04576 0
M  V30 3625 H 336.092 1.92146 -3.59922 0
M  V30 3626 H 334.767 0.868457 -4.06732 0
M  V30 3627 H 333.344 2.30501 -2.93128 0
M  V30 3628 N 335.529 1.53961 0.336706 0
M  V30 3629 C 336.94 1.62914 0.911925 0
M  V30 3630 C 337.291 0.514795 1.89326 0
M  V30 3631 O 336.416 -0.354395 2.13478 0
M  V30 3632 C 337.011 2.95304 1.66076 0
M  V30 3633 C 335.57 3.06496 2.18489 0
M  V30 3634 C 334.717 2.58403 1.00613 0
M  V30 3635 H 337.668 1.58285 0.114649 0
M  V30 3636 H 337.689 2.84727 2.5241 0
M  V30 3637 H 337.201 3.76387 0.946276 0
M  V30 3638 H 335.302 2.3006 2.93092 0
M  V30 3639 H 335.415 4.1208 2.44391 0
M  V30 3640 H 333.779 2.13977 1.38152 0
M  V30 3641 H 334.562 3.41932 0.306179 0
M  V30 3642 N 337.007 -0.598083 1.45811 0
M  V30 3643 C 338.418 -1.18011 1.44673 0
M  V30 3644 C 338.769 -1.95378 0.179364 0
M  V30 3645 O 337.894 -2.04124 -0.718509 0
M  V30 3646 C 338.489 -2.14677 2.62105 0
M  V30 3647 C 337.048 -2.68236 2.64057 0
M  V30 3648 C 336.195 -1.43816 2.37091 0
M  V30 3649 H 339.146 -0.38686 1.53913 0
M  V30 3650 H 339.167 -2.97878 2.36746 0
M  V30 3651 H 338.679 -1.5834 3.5433 0
M  V30 3652 H 336.78 -3.28486 1.75864 0
M  V30 3653 H 336.893 -3.12021 3.63566 0
M  V30 3654 H 335.257 -1.731 1.86838 0
M  V30 3655 H 336.04 -0.893333 3.31473 0
M  V30 3656 N 338.485 -1.33259 -0.841409 0
M  V30 3657 C 339.732 -1.24572 -1.5965 0
M  V30 3658 C 340.06 0.189137 -1.93578 0
M  V30 3659 O 339.315 1.14566 -1.5866 0
M  V30 3660 C 339.614 -2.06381 -2.9179 0
M  V30 3661 C 339.28 -3.556 -2.77235 0
M  V30 3662 C 337.942 -3.96282 -2.72973 0
M  V30 3663 C 340.294 -4.50433 -2.62221 0
M  V30 3664 C 337.622 -5.30017 -2.51592 0
M  V30 3665 C 339.974 -5.84327 -2.42374 0
M  V30 3666 C 338.638 -6.24194 -2.36512 0
M  V30 3667 H 337.908 -0.455842 -0.5842 0
M  V30 3668 H 340.555 -1.6482 -0.975016 0
M  V30 3669 H 338.86 -1.58903 -3.5813 0
M  V30 3670 H 340.557 -1.97019 -3.49263 0
M  V30 3671 H 337.147 -3.23298 -2.81384 0
M  V30 3672 H 341.331 -4.19914 -2.64549 0
M  V30 3673 H 336.587 -5.59947 -2.45499 0
M  V30 3674 H 340.761 -6.57414 -2.29739 0
M  V30 3675 H 338.388 -7.27759 -2.19706 0
M  V30 3676 N 339.963 1.05934 -1.16686 0
M  V30 3677 C 341.209 1.79211 -0.962023 0
M  V30 3678 C 341.564 1.85667 0.504545 0
M  V30 3679 O 340.857 1.33991 1.36956 0
M  V30 3680 C 341.051 3.23105 -1.52767 0
M  V30 3681 C 340.88 3.30673 -3.04771 0
M  V30 3682 C 339.65 3.40395 -3.73442 0
M  V30 3683 C 341.848 3.20234 -4.02436 0
M  V30 3684 N 339.83 3.37015 -5.13122 0
M  V30 3685 C 341.201 3.24138 -5.28521 0
M  V30 3686 C 343.256 3.04143 -3.9421 0
M  V30 3687 C 341.959 3.13607 -6.47336 0
M  V30 3688 C 343.985 2.94951 -5.12599 0
M  V30 3689 C 343.347 2.99481 -6.37566 0
M  V30 3690 H 339.446 0.668442 -0.405844 0
M  V30 3691 H 342.03 1.26341 -1.48142 0
M  V30 3692 H 340.201 3.74364 -1.03471 0
M  V30 3693 H 341.933 3.84579 -1.26021 0
M  V30 3694 H 338.688 3.45344 -3.2409 0
M  V30 3695 H 339.112 3.38815 -5.86117 0
M  V30 3696 H 343.754 2.99484 -2.98445 0
M  V30 3697 H 341.472 3.17022 -7.43319 0
M  V30 3698 H 345.058 2.83583 -5.08008 0
M  V30 3699 H 343.938 2.92431 -7.27636 0
M  V30 3700 N 341.441 0.965919 1.2453 0
M  V30 3701 C 342.391 0.465731 2.23193 0
M  V30 3702 C 343.375 -0.451277 1.54442 0
M  V30 3703 O 344.567 -0.282489 1.74731 0
M  V30 3704 C 341.696 -0.244511 3.42428 0
M  V30 3705 C 340.782 0.691222 4.18429 0
M  V30 3706 N 341.173 1.82771 4.71623 0
M  V30 3707 C 339.471 0.501649 4.4317 0
M  V30 3708 C 340.172 2.41285 5.29298 0
M  V30 3709 N 339.148 1.69819 5.16394 0
M  V30 3710 H 342.95 1.33291 2.61937 0
M  V30 3711 H 340.464 0.824789 1.39896 0
M  V30 3712 H 342.461 -0.620056 4.12263 0
M  V30 3713 H 341.121 -1.10815 3.05205 0
M  V30 3714 H 342.132 2.20929 4.68413 0
M  V30 3715 H 338.809 -0.318177 4.16286 0
M  V30 3716 H 340.199 3.37181 5.8117 0
M  V30 3717 N 342.919 -1.39368 0.735821 0
M  V30 3718 C 344.335 -1.54204 0.411492 0
M  V30 3719 C 344.535 -1.70268 -1.07755 0
M  V30 3720 O 343.591 -1.70364 -1.86366 0
M  V30 3721 C 344.904 -2.75925 1.19523 0
M  V30 3722 C 346.452 -2.89761 1.18354 0
M  V30 3723 C 346.927 -4.14421 1.94986 0
M  V30 3724 N 348.418 -4.21462 1.92156 0
M  V30 3725 C 349.153 -5.16871 2.48258 0
M  V30 3726 N 348.649 -6.18063 3.13001 0
M  V30 3727 N 350.442 -5.09093 2.38287 0
M  V30 3728 H 342.593 -1.27189 1.70108 0
M  V30 3729 H 344.856 -0.616517 0.720147 0
M  V30 3730 H 344.562 -2.70401 2.24892 0
M  V30 3731 H 344.436 -3.68614 0.800222 0
M  V30 3732 H 346.823 -2.94777 0.137975 0
M  V30 3733 H 346.904 -1.98133 1.61793 0
M  V30 3734 H 346.548 -4.10166 2.99543 0
M  V30 3735 H 346.478 -5.05095 1.48953 0
M  V30 3736 H 348.969 -3.48979 1.44991 0
M  V30 3737 H 349.282 -6.87326 3.53275 0
M  V30 3738 H 347.627 -6.18448 3.17091 0
M  V30 3739 H 350.818 -4.28973 1.8735 0
M  V30 3740 H 350.991 -5.83272 2.82308 0
M  V30 3741 N 344.397 -0.483516 -1.5 0
M  V30 3742 C 345.344 0.304164 -2.28787 0
M  V30 3743 C 346.314 0.976114 -1.34392 0
M  V30 3744 O 347.499 0.986156 -1.63339 0
M  V30 3745 C 344.639 1.37298 -3.16612 0
M  V30 3746 C 343.752 0.714561 -4.26049 0
M  V30 3747 C 342.887 1.76232 -5.01114 0
M  V30 3748 C 341.926 1.08483 -6.0241 0
M  V30 3749 N 341.063 2.076 -6.70706 0
M  V30 3750 H 345.903 -0.373981 -2.95644 0
M  V30 3751 H 343.44 -0.196275 -1.45785 0
M  V30 3752 H 345.398 2.00445 -3.65893 0
M  V30 3753 H 344.028 2.02012 -2.51776 0
M  V30 3754 H 343.08 -0.0297798 -3.80388 0
M  V30 3755 H 344.392 0.180383 -4.98474 0
M  V30 3756 H 343.546 2.46929 -5.54176 0
M  V30 3757 H 342.285 2.33033 -4.28424 0
M  V30 3758 H 341.29 0.363545 -5.48597 0
M  V30 3759 H 342.515 0.523551 -6.77079 0
M  V30 3760 H 340.461 2.63394 -6.00799 0
M  V30 3761 H 340.378 1.59201 -7.39047 0
M  V30 3762 H 341.646 2.77639 -7.2838 0
M  V30 3763 N 345.875 1.56104 -0.216619 0
M  V30 3764 C 346.807 2.17339 0.72776 0
M  V30 3765 C 347.82 1.14109 1.16116 0
M  V30 3766 O 349.009 1.4111 1.09317 0
M  V30 3767 C 346.109 2.73818 1.99693 0
M  V30 3768 C 345.282 4.02168 1.71988 0
M  V30 3769 C 344.341 4.43259 2.83562 0
M  V30 3770 O 343.367 5.10257 2.52244 0
M  V30 3771 N 344.569 4.08535 4.12407 0
M  V30 3772 H 347.334 2.99005 0.203983 0
M  V30 3773 H 344.895 1.61861 -0.0354289 0
M  V30 3774 H 346.887 2.9828 2.73516 0
M  V30 3775 H 345.457 1.96483 2.43132 0
M  V30 3776 H 344.677 3.85612 0.818337 0
M  V30 3777 H 345.965 4.85907 1.50903 0
M  V30 3778 H 345.363 3.54687 4.40696 0
M  V30 3779 H 343.92 4.37901 4.8279 0
M  V30 3780 N 347.353 -0.0568162 1.57498 0
M  V30 3781 C 348.286 -1.09817 2.00039 0
M  V30 3782 C 349.264 -1.3674 0.879819 0
M  V30 3783 O 350.448 -1.49863 1.14338 0
M  V30 3784 C 347.575 -2.43924 2.34986 0
M  V30 3785 C 346.621 -2.33039 3.57204 0
M  V30 3786 S 347.454 -1.7102 5.07457 0
M  V30 3787 C 348.61 -3.06674 5.45621 0
M  V30 3788 H 348.843 -0.735701 2.88053 0
M  V30 3789 H 346.376 -0.265871 1.52094 0
M  V30 3790 H 348.334 -3.2106 2.55795 0
M  V30 3791 H 346.995 -2.77327 1.47474 0
M  V30 3792 H 346.188 -3.31973 3.79223 0
M  V30 3793 H 345.79 -1.64043 3.36104 0
M  V30 3794 H 348.082 -4.03 5.44608 0
M  V30 3795 H 349.025 -2.8942 6.46252 0
M  V30 3796 H 349.433 -3.07969 4.73091 0
M  V30 3797 N 348.832 -1.54138 -0.328536 0
M  V30 3798 C 349.762 -1.86167 -1.40939 0
M  V30 3799 C 350.743 -0.718044 -1.54202 0
M  V30 3800 O 351.928 -0.971328 -1.68163 0
M  V30 3801 C 349.058 -2.08461 -2.77779 0
M  V30 3802 C 348.012 -3.24299 -2.7931 0
M  V30 3803 C 347.338 -3.31955 -4.19178 0
M  V30 3804 C 348.638 -4.62065 -2.43502 0
M  V30 3805 H 350.332 -2.76689 -1.14383 0
M  V30 3806 H 347.878 -1.33132 -0.548806 0
M  V30 3807 H 349.831 -2.29453 -3.53454 0
M  V30 3808 H 348.555 -1.14684 -3.05802 0
M  V30 3809 H 347.214 -3.03187 -2.0609 0
M  V30 3810 H 346.862 -2.35745 -4.44335 0
M  V30 3811 H 346.562 -4.09805 -4.2111 0
M  V30 3812 H 348.086 -3.55175 -4.96672 0
M  V30 3813 H 349.5 -4.8297 -3.08889 0
M  V30 3814 H 347.897 -5.42429 -2.56693 0
M  V30 3815 H 348.967 -4.64652 -1.38659 0
M  V30 3816 N 350.31 0.590341 -1.46126 0
M  V30 3817 C 351.243 1.71434 -1.50617 0
M  V30 3818 C 352.221 1.58543 -0.360948 0
M  V30 3819 O 353.405 1.79865 -0.563985 0
M  V30 3820 C 350.532 3.09422 -1.37753 0
M  V30 3821 C 349.578 3.40854 -2.5636 0
M  V30 3822 S 350.411 3.33773 -4.18755 0
M  V30 3823 C 351.567 4.74312 -4.08386 0
M  V30 3824 H 351.8 1.67364 -2.45717 0
M  V30 3825 H 349.333 0.76845 -1.33919 0
M  V30 3826 H 351.291 3.8903 -1.31018 0
M  V30 3827 H 349.952 3.10989 -0.440949 0
M  V30 3828 H 349.145 4.41368 -2.43332 0
M  V30 3829 H 348.747 2.68798 -2.60046 0
M  V30 3830 H 351.039 5.64522 -3.74595 0
M  V30 3831 H 351.982 4.92397 -5.08872 0
M  V30 3832 H 352.39 4.50803 -3.3976 0
M  V30 3833 N 351.788 1.33704 0.83433 0
M  V30 3834 C 352.718 1.26967 1.95963 0
M  V30 3835 C 353.699 0.149337 1.69443 0
M  V30 3836 O 354.884 0.339852 1.91203 0
M  V30 3837 C 352.014 1.01275 3.32206 0
M  V30 3838 C 350.968 2.09652 3.73136 0
M  V30 3839 C 350.294 1.69166 5.07235 0
M  V30 3840 C 351.594 3.51372 3.86439 0
M  V30 3841 H 353.288 2.2112 2.01857 0
M  V30 3842 H 350.834 1.06447 0.969793 0
M  V30 3843 H 352.787 0.952106 4.10503 0
M  V30 3844 H 351.511 0.0356203 3.26581 0
M  V30 3845 H 350.17 2.14766 2.97104 0
M  V30 3846 H 349.818 0.701437 4.98085 0
M  V30 3847 H 349.518 2.41694 5.35591 0
M  V30 3848 H 351.042 1.64576 5.88003 0
M  V30 3849 H 352.456 3.48734 4.55036 0
M  V30 3850 H 350.853 4.22425 4.26236 0
M  V30 3851 H 351.923 3.89546 2.88759 0
M  V30 3852 N 353.266 -1.05314 1.17247 0
M  V30 3853 C 354.682 -1.30452 0.919473 0
M  V30 3854 C 354.882 -1.9703 -0.42209 0
M  V30 3855 O 353.938 -2.24311 -1.15935 0
M  V30 3856 C 355.251 -2.17551 2.07586 0
M  V30 3857 C 356.799 -2.30937 2.11275 0
M  V30 3858 C 357.274 -3.21396 3.26296 0
M  V30 3859 N 358.765 -3.28981 3.26076 0
M  V30 3860 C 359.5 -3.99095 4.11716 0
M  V30 3861 N 358.996 -4.71648 5.07465 0
M  V30 3862 N 360.789 -3.95247 3.9967 0
M  V30 3863 H 352.94 -0.604988 2.03602 0
M  V30 3864 H 355.203 -0.329368 0.888944 0
M  V30 3865 H 354.909 -1.75921 3.0454 0
M  V30 3866 H 354.783 -3.18182 2.02584 0
M  V30 3867 H 357.17 -2.71809 1.14907 0
M  V30 3868 H 357.251 -1.2994 2.20339 0
M  V30 3869 H 356.895 -2.81238 4.22927 0
M  V30 3870 H 356.825 -4.22395 3.14467 0
M  V30 3871 H 359.316 -2.77286 2.5675 0
M  V30 3872 H 359.629 -5.22705 5.6921 0
M  V30 3873 H 357.974 -4.70594 5.11435 0
M  V30 3874 H 361.165 -3.37691 3.24164 0
M  V30 3875 H 361.338 -4.4962 4.66632 0
M  V30 3876 N 354.744 -0.972509 -1.24016 0
M  V30 3877 C 355.677 -0.45117 -2.23696 0
M  V30 3878 C 356.655 0.477378 -1.55434 0
M  V30 3879 O 357.839 0.407647 -1.84039 0
M  V30 3880 C 354.966 0.34818 -3.36906 0
M  V30 3881 C 354.012 -0.523355 -4.23277 0
M  V30 3882 S 354.845 -1.96647 -4.98087 0
M  V30 3883 C 356.001 -1.17604 -6.14752 0
M  V30 3884 H 356.234 -1.29588 -2.67571 0
M  V30 3885 H 353.767 -0.777903 -1.33372 0
M  V30 3886 H 355.725 0.803387 -4.02562 0
M  V30 3887 H 354.386 1.16792 -2.91579 0
M  V30 3888 H 353.579 0.0906181 -5.03919 0
M  V30 3889 H 353.181 -0.914485 -3.62647 0
M  V30 3890 H 355.473 -0.433434 -6.76112 0
M  V30 3891 H 356.416 -1.95701 -6.8052 0
M  V30 3892 H 356.824 -0.698295 -5.60164 0
M  V30 3893 N 356.222 1.38976 -0.743202 0
M  V30 3894 C 357.471 1.99581 -0.291592 0
M  V30 3895 C 357.784 1.59656 1.13001 0
M  V30 3896 O 358.99 2.13157 1.68156 0
M  V30 3897 C 357.446 3.56813 -0.470391 0
M  V30 3898 C 357.054 4.05695 -1.90041 0
M  V30 3899 C 358.798 4.24423 -0.0809709 0
M  V30 3900 C 356.705 5.5553 -2.02832 0
M  V30 3901 H 355.635 0.746615 -0.105272 0
M  V30 3902 H 358.286 1.58872 -0.918258 0
M  V30 3903 H 356.668 3.95359 0.225299 0
M  V30 3904 H 357.842 3.78464 -2.62872 0
M  V30 3905 H 356.157 3.50775 -2.24379 0
M  V30 3906 H 358.754 5.34474 -0.155445 0
M  V30 3907 H 359.097 4.04962 0.96497 0
M  V30 3908 H 359.63 3.9108 -0.728124 0
M  V30 3909 H 356.369 5.79881 -3.05643 0
M  V30 3910 H 355.889 5.84537 -1.34448 0
M  V30 3911 H 357.568 6.21069 -1.81335 0
M  V30 3912 N 357.7 0.491464 1.49741 0
M  V30 3913 C 358.633 -0.338464 2.25676 0
M  V30 3914 C 359.611 -0.978676 1.29849 0
M  V30 3915 O 360.795 -1.01064 1.59117 0
M  V30 3916 C 357.922 -1.47588 3.04853 0
M  V30 3917 C 356.968 -0.951 4.15762 0
M  V30 3918 S 357.801 0.150626 5.35288 0
M  V30 3919 C 358.957 -0.990178 6.18018 0
M  V30 3920 H 359.19 0.306068 2.9572 0
M  V30 3921 H 356.723 0.276622 1.51902 0
M  V30 3922 H 358.681 -2.12764 3.51058 0
M  V30 3923 H 357.342 -2.09199 2.34296 0
M  V30 3924 H 356.535 -1.80311 4.70642 0
M  V30 3925 H 356.137 -0.376607 3.72099 0
M  V30 3926 H 358.429 -1.89748 6.50386 0
M  V30 3927 H 359.372 -0.480205 7.0647 0
M  V30 3928 H 359.78 -1.25321 5.50413 0
M  V30 3929 N 359.178 -1.55987 0.224894 0
M  V30 3930 C 360.403 -2.03232 -0.41369 0
M  V30 3931 C 360.828 -1.10359 -1.52323 0
M  V30 3932 O 360.186 -0.092395 -1.81064 0
M  V30 3933 C 360.234 -3.48682 -0.919405 0
M  V30 3934 O 359.338 -3.58947 -2.03054 0
M  V30 3935 H 358.679 -0.657428 -0.0931903 0
M  V30 3936 H 361.209 -2.01679 0.34451 0
M  V30 3937 H 361.219 -3.8907 -1.22835 0
M  V30 3938 H 359.894 -4.15761 -0.107339 0
M  V30 3939 H 358.471 -3.30448 -1.72796 0
M  V30 3940 N 360.656 0.0484629 -1.57525 0
M  V30 3941 C 361.904 0.741657 -1.88 0
M  V30 3942 C 362.225 1.76918 -0.820054 0
M  V30 3943 O 361.495 1.95335 0.148661 0
M  V30 3944 H 360.075 0.276908 -0.69378 0
M  V30 3945 H 362.737 0.019013 -1.94891 0
M  V30 3946 H 361.833 1.24336 -2.86264 0
M  V30 3947 N 362.134 1.5431 0.320358 0
M  V30 3948 C 363.082 1.84647 1.4145 0
M  V30 3949 C 364.076 0.718624 1.53402 0
M  V30 3950 O 365.282 0.902335 1.5575 0
M  V30 3951 H 361.657 0.585349 0.472091 0
M  V30 3952 H 363.628 2.7614 1.13089 0
M  V30 3953 C 362.377 2.09341 2.77617 0
M  V30 3954 H 361.7 2.9559 2.69196 0
M  V30 3955 H 363.14 2.3452 3.53237 0
M  V30 3956 C 361.599 0.885939 3.25043 0
M  V30 3957 O 362.129 0.0967891 4.01583 0
M  V30 3958 N 360.335 0.696682 2.82125 0
M  V30 3959 H 359.882 1.34006 2.2 0
M  V30 3960 H 359.84 -0.109712 3.14209 0
M  V30 3961 N 363.613 -0.582584 1.46437 0
M  V30 3962 C 364.843 -1.36484 1.55099 0
M  V30 3963 C 365.251 -1.88233 0.191056 0
M  V30 3964 O 364.594 -1.6429 -0.821858 0
M  V30 3965 C 364.656 -2.588 2.49525 0
M  V30 3966 C 364.32 -2.28517 3.95764 0
M  V30 3967 C 365.317 -1.87346 4.84972 0
M  V30 3968 C 363.002 -2.40658 4.40896 0
M  V30 3969 C 364.996 -1.5871 6.17325 0
M  V30 3970 C 362.683 -2.11635 5.73284 0
M  V30 3971 C 363.681 -1.70725 6.61318 0
M  V30 3972 O 363.369 -1.42057 7.91249 0
M  V30 3973 H 363.101 -0.423297 0.527063 0
M  V30 3974 H 365.655 -0.715188 1.92547 0
M  V30 3975 H 363.885 -3.26571 2.07095 0
M  V30 3976 H 365.574 -3.20868 2.48593 0
M  V30 3977 H 366.34 -1.77481 4.5136 0
M  V30 3978 H 362.219 -2.71463 3.72598 0
M  V30 3979 H 365.763 -1.26704 6.85997 0
M  V30 3980 H 361.66 -2.21124 6.06444 0
M  V30 3981 H 362.428 -1.55901 8.03515 0
M  V30 3982 N 365.091 -1.34144 -0.827227 0
M  V30 3983 C 366.023 -1.21206 -1.9453 0
M  V30 3984 C 367.036 -0.140176 -1.62195 0
M  V30 3985 O 368.225 -0.391647 -1.7415 0
M  V30 3986 C 365.325 -0.839141 -3.28347 0
M  V30 3987 C 364.498 -2.0051 -3.88734 0
M  V30 3988 C 363.557 -1.61128 -5.00923 0
M  V30 3989 O 362.583 -2.32726 -5.19449 0
M  V30 3990 N 363.785 -0.522958 -5.7814 0
M  V30 3991 H 366.55 -2.17525 -2.06162 0
M  V30 3992 H 364.111 -1.27043 -1.00358 0
M  V30 3993 H 366.103 -0.557556 -4.00841 0
M  V30 3994 H 364.673 0.0337293 -3.12582 0
M  V30 3995 H 363.893 -2.45166 -3.08686 0
M  V30 3996 H 365.181 -2.78498 -4.25812 0
M  V30 3997 H 364.579 0.0723518 -5.65654 0
M  V30 3998 H 363.136 -0.301089 -6.51104 0
M  V30 3999 N 366.569 1.04691 -1.17803 0
M  V30 4000 C 367.816 1.77782 -0.969532 0
M  V30 4001 C 368.144 1.87926 0.501401 0
M  V30 4002 O 367.399 1.37918 1.38842 0
M  V30 4003 C 367.698 3.21467 -1.56186 0
M  V30 4004 C 367.364 3.3137 -3.05786 0
M  V30 4005 C 366.026 3.3378 -3.46619 0
M  V30 4006 C 368.378 3.31976 -4.01797 0
M  V30 4007 C 365.706 3.34431 -4.82051 0
M  V30 4008 C 368.058 3.34167 -5.37136 0
M  V30 4009 C 366.722 3.34866 -5.77426 0
M  V30 4010 H 365.992 0.650549 -0.354777 0
M  V30 4011 H 368.639 1.23006 -1.46772 0
M  V30 4012 H 366.944 3.79203 -0.985515 0
M  V30 4013 H 368.641 3.76652 -1.37602 0
M  V30 4014 H 365.231 3.3021 -2.73238 0
M  V30 4015 H 369.415 3.29311 -3.71306 0
M  V30 4016 H 364.671 3.33285 -5.12573 0
M  V30 4017 H 368.845 3.33585 -6.11305 0
M  V30 4018 H 366.472 3.35124 -6.82346 0
M  V30 4019 N 368.047 0.979072 1.23499 0
M  V30 4020 C 369.295 0.645941 1.91499 0
M  V30 4021 C 369.616 -0.822948 1.76784 0
M  V30 4022 O 368.886 -1.58854 1.14639 0
M  V30 4023 H 367.466 0.235919 0.708767 0
M  V30 4024 H 370.128 1.2426 1.50152 0
M  V30 4025 H 369.224 0.896411 2.9895 0
M  V30 4026 N 369.525 -1.3858 0.750561 0
M  V30 4027 C 370.75 -2.04997 0.314812 0
M  V30 4028 C 371.175 -1.56235 -1.04749 0
M  V30 4029 O 370.533 -0.712981 -1.66692 0
M  V30 4030 C 370.581 -3.58961 0.343415 0
M  V30 4031 O 369.685 -4.07025 -0.663628 0
M  V30 4032 H 369.026 -0.649081 0.139962 0
M  V30 4033 H 371.556 -1.77313 1.02084 0
M  V30 4034 H 371.566 -4.07542 0.193233 0
M  V30 4035 H 370.241 -3.93811 1.33738 0
M  V30 4036 H 368.818 -3.6982 -0.478307 0
M  V30 4037 N 371.003 -0.499398 -1.49478 0
M  V30 4038 C 372.414 -0.051215 -1.8663 0
M  V30 4039 C 372.765 1.36238 -1.41186 0
M  V30 4040 O 371.89 2.01502 -0.789051 0
M  V30 4041 C 372.485 -0.0861651 -3.3869 0
M  V30 4042 C 371.044 0.30667 -3.75149 0
M  V30 4043 C 370.191 -0.459397 -2.73468 0
M  V30 4044 H 373.142 -0.712264 -1.41818 0
M  V30 4045 H 373.163 0.709507 -3.73826 0
M  V30 4046 H 372.675 -1.11512 -3.71735 0
M  V30 4047 H 370.776 1.33892 -3.47712 0
M  V30 4048 H 370.889 -0.0116669 -4.79099 0
M  V30 4049 H 369.253 0.0905645 -2.54539 0
M  V30 4050 H 370.036 -1.4884 -3.09357 0
M  V30 4051 N 372.481 1.55866 -0.233164 0
M  V30 4052 C 373.391 2.24431 0.683217 0
M  V30 4053 C 374.407 1.2558 1.2044 0
M  V30 4054 O 375.583 1.58422 1.24356 0
M  V30 4055 C 372.648 2.91979 1.86947 0
M  V30 4056 C 371.709 4.06204 1.38912 0
M  V30 4057 C 370.942 4.70522 2.51883 0
M  V30 4058 O 371.165 4.33865 3.70293 0
M  V30 4059 O 370.099 5.59296 2.22423 0
M  V30 4060 H 373.925 3.03426 0.129059 0
M  V30 4061 H 371.51 1.494 -0.0022283 0
M  V30 4062 H 373.392 3.34573 2.56201 0
M  V30 4063 H 372.067 2.15935 2.41151 0
M  V30 4064 H 370.974 3.68155 0.664259 0
M  V30 4065 H 372.307 4.84025 0.893328 0
M  V30 4066 N 373.959 -0.0401083 1.57549 0
M  V30 4067 C 375.205 -0.728793 1.89895 0
M  V30 4068 C 375.56 -1.73551 0.830535 0
M  V30 4069 O 374.853 -1.90914 -0.162007 0
M  V30 4070 C 375.047 -1.44902 3.26708 0
M  V30 4071 C 374.876 -0.513568 4.46758 0
M  V30 4072 C 373.646 -0.138698 5.0511 0
M  V30 4073 C 375.844 0.203341 5.13898 0
M  V30 4074 N 373.826 0.799159 6.08676 0
M  V30 4075 C 375.197 0.997246 6.11927 0
M  V30 4076 C 377.252 0.271459 4.97159 0
M  V30 4077 C 375.955 1.85299 6.95023 0
M  V30 4078 C 377.981 1.11429 5.80808 0
M  V30 4079 C 377.343 1.89615 6.78399 0
M  V30 4080 H 373.442 -0.241125 0.743897 0
M  V30 4081 H 376.026 0.0108016 1.94697 0
M  V30 4082 H 374.197 -2.15914 3.22856 0
M  V30 4083 H 375.929 -2.08921 3.46603 0
M  V30 4084 H 372.684 -0.498496 4.70969 0
M  V30 4085 H 373.108 1.26227 6.65128 0
M  V30 4086 H 377.75 -0.318709 4.21597 0
M  V30 4087 H 375.468 2.454 7.69938 0
M  V30 4088 H 379.054 1.17038 5.69906 0
M  V30 4089 H 377.934 2.53779 7.42001 0
M  V30 4090 N 375.437 -1.54477 -0.31217 0
M  V30 4091 C 376.714 -1.63891 -1.06767 0
M  V30 4092 C 377.094 -0.480028 -2.0557 0
M  V30 4093 O 376.442 0.524487 -2.22399 0
M  V30 4094 C 376.652 -3.01402 -1.75948 0
M  V30 4095 C 378 -3.57838 -2.28554 0
M  V30 4096 O 379.024 -3.03782 -1.85998 0
M  V30 4097 O 377.883 -4.52462 -3.06497 0
M  V30 4098 H 374.977 -0.664125 -0.492816 0
M  V30 4099 H 377.523 -1.66823 -0.311149 0
M  V30 4100 H 376.295 -3.77187 -1.04144 0
M  V30 4101 H 375.918 -3.02199 -2.58383 0
M  V30 4102 N 376.915 0.57481 -1.46744 0
M  V30 4103 C 378.192 1.3352 -1.4294 0
M  V30 4104 C 378.572 2.10775 -0.117009 0
M  V30 4105 O 377.92 2.09966 0.901474 0
M  V30 4106 C 378.13 2.25456 -2.66403 0
M  V30 4107 C 379.478 2.87035 -3.12883 0
M  V30 4108 O 380.502 2.35766 -2.67007 0
M  V30 4109 O 379.361 3.80179 -3.92589 0
M  V30 4110 H 376.455 0.600318 -0.568812 0
M  V30 4111 H 379.001 0.595171 -1.58921 0
M  V30 4112 H 377.773 1.67851 -3.53471 0
M  V30 4113 H 377.396 3.06785 -2.52921 0
M  V30 4114 N 378.394 1.34581 0.820102 0
M  V30 4115 C 379.624 1.29991 1.6058 0
M  V30 4116 C 380.032 -0.127588 1.88769 0
M  V30 4117 O 379.375 -1.08595 1.48165 0
M  V30 4118 C 379.437 2.02548 2.9701 0
M  V30 4119 C 379.101 3.51794 2.91701 0
M  V30 4120 C 380.098 4.46647 2.66087 0
M  V30 4121 C 377.783 3.94249 3.11245 0
M  V30 4122 C 379.777 5.81929 2.60071 0
M  V30 4123 C 377.464 5.2963 3.04853 0
M  V30 4124 C 378.462 6.23282 2.793 0
M  V30 4125 O 378.15 7.56181 2.72847 0
M  V30 4126 H 377.882 0.448539 0.505756 0
M  V30 4127 H 380.436 1.77811 1.02822 0
M  V30 4128 H 378.666 1.49345 3.56697 0
M  V30 4129 H 380.355 1.91211 3.58041 0
M  V30 4130 H 381.121 4.15168 2.5072 0
M  V30 4131 H 377 3.21749 3.30149 0
M  V30 4132 H 380.544 6.54999 2.40046 0
M  V30 4133 H 376.441 5.60727 3.19774 0
M  V30 4134 H 377.209 7.6595 2.88553 0
M  V30 4135 N 379.872 -1.04064 1.18357 0
M  V30 4136 C 381.097 -1.81454 1.00445 0
M  V30 4137 C 381.522 -1.82823 -0.442423 0
M  V30 4138 O 380.88 -1.24555 -1.31741 0
M  V30 4139 C 380.928 -3.24925 1.56384 0
M  V30 4140 O 380.032 -4.04856 0.785209 0
M  V30 4141 H 379.373 -0.560604 0.355835 0
M  V30 4142 H 381.903 -1.31059 1.57114 0
M  V30 4143 H 381.913 -3.75702 1.59097 0
M  V30 4144 H 380.588 -3.23244 2.61699 0
M  V30 4145 H 379.165 -3.63537 0.830399 0
M  V30 4146 N 381.35 -0.985608 -1.22978 0
M  V30 4147 C 382.627 -0.573599 -1.87001 0
M  V30 4148 C 383.007 0.949213 -1.88555 0
M  V30 4149 O 382.355 1.82811 -1.37086 0
M  V30 4150 C 382.565 -1.18564 -3.28243 0
M  V30 4151 C 383.913 -1.28163 -4.04796 0
M  V30 4152 O 384.937 -1.13949 -3.37482 0
M  V30 4153 O 383.796 -1.50832 -5.25273 0
M  V30 4154 H 380.89 -0.193868 -0.803955 0
M  V30 4155 H 383.436 -1.08102 -1.30813 0
M  V30 4156 H 382.208 -2.22758 -3.21706 0
M  V30 4157 H 381.831 -0.663363 -3.92027 0
M  V30 4158 N 382.828 1.3818 -0.7579 0
M  V30 4159 C 384.056 2.04301 -0.326937 0
M  V30 4160 C 384.471 1.57163 1.0462 0
M  V30 4161 O 383.828 0.746626 1.66529 0
M  V30 4162 C 383.879 3.59846 -0.345363 0
M  V30 4163 O 383.6 4.05256 -1.66432 0
M  V30 4164 C 385.101 4.4319 0.098927 0
M  V30 4165 H 382.321 0.656443 -0.139012 0
M  V30 4166 H 384.865 1.76786 -1.02796 0
M  V30 4167 H 383.02 3.86182 0.306955 0
M  V30 4168 H 383.434 4.99709 -1.59345 0
M  V30 4169 H 384.908 5.51989 0.0348745 0
M  V30 4170 H 385.385 4.23947 1.14741 0
M  V30 4171 H 385.991 4.22051 -0.52468 0
M  V30 4172 N 384.306 0.507319 1.49211 0
M  V30 4173 C 385.552 -0.0350047 2.0277 0
M  V30 4174 C 385.885 -1.3606 1.38569 0
M  V30 4175 O 385.16 -1.87321 0.523542 0
M  V30 4176 C 385.443 -0.180916 3.59645 0
M  V30 4177 C 385.296 1.16825 4.34364 0
M  V30 4178 C 386.615 -0.918558 4.30407 0
M  V30 4179 H 383.734 -0.0112473 0.736914 0
M  V30 4180 H 386.376 0.659956 1.7817 0
M  V30 4181 H 384.526 -0.772826 3.80736 0
M  V30 4182 H 386.198 1.79952 4.24753 0
M  V30 4183 H 384.441 1.75594 3.96673 0
M  V30 4184 H 385.112 1.01939 5.42506 0
M  V30 4185 H 387.588 -0.41649 4.1401 0
M  V30 4186 H 386.464 -0.989505 5.39907 0
M  V30 4187 H 386.725 -1.96373 3.96093 0
M  V30 4188 N 385.784 -1.5574 0.241426 0
M  V30 4189 C 386.731 -2.21149 -0.660432 0
M  V30 4190 C 387.701 -1.17356 -1.17545 0
M  V30 4191 O 388.886 -1.45784 -1.23093 0
M  V30 4192 C 386.026 -2.91059 -1.85414 0
M  V30 4193 C 385.139 -4.09495 -1.37616 0
M  V30 4194 C 384.274 -4.67135 -2.529 0
M  V30 4195 C 383.313 -5.77831 -2.01936 0
M  V30 4196 N 382.45 -6.29677 -3.10566 0
M  V30 4197 H 387.29 -2.97845 -0.095955 0
M  V30 4198 H 384.827 -1.47057 -0.0356024 0
M  V30 4199 H 386.785 -3.29788 -2.5553 0
M  V30 4200 H 385.415 -2.16846 -2.39118 0
M  V30 4201 H 384.467 -3.76117 -0.569235 0
M  V30 4202 H 385.779 -4.89423 -0.962618 0
M  V30 4203 H 384.933 -5.08409 -3.31067 0
M  V30 4204 H 383.672 -3.86411 -2.97553 0
M  V30 4205 H 382.677 -5.36039 -1.22238 0
M  V30 4206 H 383.902 -6.60402 -1.58259 0
M  V30 4207 H 381.848 -5.5186 -3.54664 0
M  V30 4208 H 381.765 -7.04783 -2.73526 0
M  V30 4209 H 383.033 -6.75609 -3.88809 0
M  V30 4210 N 387.262 0.0317525 -1.57568 0
M  V30 4211 C 388.539 0.758366 -1.803 0
M  V30 4212 C 388.919 1.93718 -0.838845 0
M  V30 4213 O 388.267 2.28187 0.119571 0
M  V30 4214 C 388.477 1.19392 -3.27943 0
M  V30 4215 C 389.825 1.61094 -3.92854 0
M  V30 4216 O 390.849 1.28857 -3.32076 0
M  V30 4217 O 389.708 2.20918 -4.99858 0
M  V30 4218 H 386.802 0.366514 -0.741348 0
M  V30 4219 H 389.348 0.00873765 -1.69698 0
M  V30 4220 H 388.12 0.352275 -3.89711 0
M  V30 4221 H 387.743 2.00365 -3.43424 0
M  V30 4222 N 388.74 1.54641 0.303973 0
M  V30 4223 C 389.67 1.88386 1.3796 0
M  V30 4224 C 390.651 0.742485 1.5304 0
M  V30 4225 O 391.836 0.997959 1.66597 0
M  V30 4226 C 388.966 2.12854 2.74427 0
M  V30 4227 C 387.92 3.28702 2.74115 0
M  V30 4228 C 387.246 3.38582 4.13844 0
M  V30 4229 C 388.546 4.65881 2.3612 0
M  V30 4230 H 390.24 2.78474 1.09966 0
M  V30 4231 H 387.786 1.33988 0.527556 0
M  V30 4232 H 389.739 2.35047 3.49758 0
M  V30 4233 H 388.463 1.19535 3.03939 0
M  V30 4234 H 387.122 3.06428 2.0124 0
M  V30 4235 H 386.77 2.42784 4.40528 0
M  V30 4236 H 386.47 4.16453 4.14537 0
M  V30 4237 H 387.994 3.63031 4.90959 0
M  V30 4238 H 389.408 4.87823 3.01167 0
M  V30 4239 H 387.805 5.46444 2.48031 0
M  V30 4240 H 388.875 4.66799 1.3125 0
M  V30 4241 N 390.218 -0.567019 1.47046 0
M  V30 4242 C 391.464 -1.32658 1.53394 0
M  V30 4243 C 391.797 -1.93254 0.19148 0
M  V30 4244 O 391.072 -1.77338 -0.798844 0
M  V30 4245 C 391.355 -2.44412 2.64452 0
M  V30 4246 C 391.208 -1.88749 4.08282 0
M  V30 4247 C 392.527 -3.46387 2.71485 0
M  V30 4248 H 389.646 -0.48098 0.558415 0
M  V30 4249 H 392.288 -0.635481 1.79058 0
M  V30 4250 H 390.438 -3.03363 2.427 0
M  V30 4251 H 392.11 -1.34134 4.41368 0
M  V30 4252 H 390.353 -1.19481 4.17021 0
M  V30 4253 H 391.024 -2.69491 4.81745 0
M  V30 4254 H 393.5 -2.9734 2.91081 0
M  V30 4255 H 392.376 -4.2202 3.50985 0
M  V30 4256 H 392.637 -4.04616 1.78153 0
M  V30 4257 N 391.696 -1.35014 -0.812953 0
M  V30 4258 C 392.921 -1.31187 -1.60639 0
M  V30 4259 C 393.346 0.109382 -1.87782 0
M  V30 4260 O 392.704 1.07424 -1.46047 0
M  V30 4261 C 392.752 -2.11809 -2.91838 0
M  V30 4262 O 391.856 -1.49444 -3.8437 0
M  V30 4263 H 391.197 -0.450084 -0.488181 0
M  V30 4264 H 393.727 -1.77963 -1.00947 0
M  V30 4265 H 393.737 -2.23531 -3.41318 0
M  V30 4266 H 392.412 -3.15137 -2.71407 0
M  V30 4267 H 390.989 -1.46524 -3.42907 0
M  V30 4268 N 393.175 1.03435 -1.18907 0
M  V30 4269 C 394.591 1.28973 -0.940111 0
M  V30 4270 C 394.791 1.97676 0.390691 0
M  V30 4271 O 393.847 2.26127 1.12352 0
M  V30 4272 C 395.16 2.14221 -2.11021 0
M  V30 4273 C 396.708 2.27547 -2.14922 0
M  V30 4274 C 397.183 3.16164 -3.31367 0
M  V30 4275 N 398.674 3.23752 -3.31269 0
M  V30 4276 C 399.409 3.92495 -4.18014 0
M  V30 4277 N 398.905 4.63515 -5.14904 0
M  V30 4278 N 400.698 3.88838 -4.05908 0
M  V30 4279 H 392.849 0.57252 -2.04538 0
M  V30 4280 H 395.112 0.315184 -0.894071 0
M  V30 4281 H 394.818 1.71054 -3.073 0
M  V30 4282 H 394.692 3.14919 -2.0762 0
M  V30 4283 H 397.079 2.69947 -1.19217 0
M  V30 4284 H 397.16 1.26418 -2.22378 0
M  V30 4285 H 396.804 2.74474 -4.27348 0
M  V30 4286 H 396.734 4.17339 -3.21148 0
M  V30 4287 H 399.225 2.73167 -2.61129 0
M  V30 4288 H 399.538 5.13583 -5.77453 0
M  V30 4289 H 397.883 4.62398 -5.18857 0
M  V30 4290 H 401.074 3.32491 -3.29495 0
M  V30 4291 H 401.247 4.4214 -4.73726 0
M  V30 4292 N 394.653 0.992116 1.22453 0
M  V30 4293 C 395.9 0.667534 1.91181 0
M  V30 4294 C 396.228 -0.800317 1.77271 0
M  V30 4295 O 395.483 -1.59421 1.13505 0
M  V30 4296 C 395.782 1.01832 3.42586 0
M  V30 4297 C 395.448 2.47831 3.76684 0
M  V30 4298 C 394.11 2.87729 3.85701 0
M  V30 4299 C 396.462 3.42466 3.92895 0
M  V30 4300 C 393.79 4.21252 4.08367 0
M  V30 4301 C 396.142 4.75648 4.17064 0
M  V30 4302 C 394.806 5.15288 4.24305 0
M  V30 4303 H 394.076 0.244268 0.699581 0
M  V30 4304 H 396.723 1.24816 1.45235 0
M  V30 4305 H 395.028 0.355769 3.90181 0
M  V30 4306 H 396.725 0.745228 3.94014 0
M  V30 4307 H 393.315 2.15905 3.70247 0
M  V30 4308 H 397.499 3.12814 3.85307 0
M  V30 4309 H 392.755 4.51554 4.122 0
M  V30 4310 H 396.929 5.48924 4.2855 0
M  V30 4311 H 394.556 6.18769 4.41621 0
M  V30 4312 N 396.131 -1.37776 0.765217 0
M  V30 4313 C 397.061 -2.32945 0.160953 0
M  V30 4314 C 398.042 -1.55454 -0.690516 0
M  V30 4315 O 399.227 -1.83721 -0.629318 0
M  V30 4316 C 396.357 -3.39669 -0.724031 0
M  V30 4317 C 395.311 -4.27992 0.0256173 0
M  V30 4318 C 394.637 -5.25673 -0.978383 0
M  V30 4319 C 395.937 -5.08309 1.20082 0
M  V30 4320 H 397.631 -2.83728 0.955969 0
M  V30 4321 H 395.177 -1.36416 0.461149 0
M  V30 4322 H 397.13 -4.05219 -1.15652 0
M  V30 4323 H 395.854 -2.87396 -1.5515 0
M  V30 4324 H 394.513 -3.63964 0.438812 0
M  V30 4325 H 394.161 -4.69682 -1.80022 0
M  V30 4326 H 393.861 -5.85625 -0.481378 0
M  V30 4327 H 395.385 -5.94098 -1.40995 0
M  V30 4328 H 396.799 -5.67034 0.845307 0
M  V30 4329 H 395.196 -5.77554 1.62947 0
M  V30 4330 H 396.266 -4.41365 2.00811 0
M  V30 4331 N 397.609 -0.515225 -1.4894 0
M  V30 4332 C 398.855 0.0242508 -2.02785 0
M  V30 4333 C 399.188 1.35323 -1.39289 0
M  V30 4334 O 398.463 1.87041 -0.533469 0
M  V30 4335 C 398.746 0.16184 -3.59736 0
M  V30 4336 C 398.599 -1.19127 -4.33738 0
M  V30 4337 C 399.918 0.895719 -4.30888 0
M  V30 4338 H 397.037 0.00733914 -0.736963 0
M  V30 4339 H 399.679 -0.669395 -1.77818 0
M  V30 4340 H 397.829 0.752624 -3.8114 0
M  V30 4341 H 399.501 -1.82202 -4.23792 0
M  V30 4342 H 397.744 -1.77695 -3.95736 0
M  V30 4343 H 398.415 -1.04815 -5.41957 0
M  V30 4344 H 400.891 0.394528 -4.14225 0
M  V30 4345 H 399.767 0.960859 -5.40425 0
M  V30 4346 H 400.028 1.9427 -3.97129 0
M  V30 4347 N 399.087 1.5561 -0.249682 0
M  V30 4348 C 400.333 1.99306 0.374841 0
M  V30 4349 C 400.666 1.13767 1.57387 0
M  V30 4350 O 399.941 0.201711 1.93451 0
M  V30 4351 C 400.224 3.51507 0.781986 0
M  V30 4352 C 400.077 4.4781 -0.422629 0
M  V30 4353 C 401.396 4.08884 1.62793 0
M  V30 4354 H 398.515 0.724572 0.134773 0
M  V30 4355 H 401.157 1.86719 -0.351549 0
M  V30 4356 H 399.307 3.62363 1.4009 0
M  V30 4357 H 400.979 4.48931 -1.06108 0
M  V30 4358 H 399.222 4.20518 -1.06524 0
M  V30 4359 H 399.893 5.51919 -0.0943766 0
M  V30 4360 H 402.369 4.01147 1.10547 0
M  V30 4361 H 401.245 5.1564 1.88166 0
M  V30 4362 H 401.506 3.57515 2.60068 0
M  V30 4363 N 400.565 -0.0233959 1.57583 0
M  V30 4364 C 401.497 -1.04994 2.03737 0
M  V30 4365 C 402.51 -1.32125 0.951152 0
M  V30 4366 O 403.699 -1.29512 1.22837 0
M  V30 4367 C 400.799 -2.39026 2.40249 0
M  V30 4368 C 399.972 -2.31171 3.7132 0
M  V30 4369 C 399.031 -3.47698 3.94959 0
M  V30 4370 O 398.057 -3.26937 4.65941 0
M  V30 4371 N 399.259 -4.6976 3.41037 0
M  V30 4372 H 402.024 -0.656507 2.92421 0
M  V30 4373 H 399.585 -0.211235 1.60516 0
M  V30 4374 H 401.577 -3.15712 2.53196 0
M  V30 4375 H 400.147 -2.70194 1.57207 0
M  V30 4376 H 399.367 -1.39547 3.68674 0
M  V30 4377 H 400.655 -2.23071 4.57293 0
M  V30 4378 H 400.053 -4.89528 2.83512 0
M  V30 4379 H 398.61 -5.43791 3.59353 0
M  V30 4380 N 402.043 -1.548 -0.295768 0
M  V30 4381 C 403.454 -1.65274 -0.868411 0
M  V30 4382 C 403.805 -0.56481 -1.87894 0
M  V30 4383 O 402.93 0.29767 -2.14343 0
M  V30 4384 C 403.525 -2.99603 -1.58188 0
M  V30 4385 C 402.084 -3.12181 -2.10286 0
M  V30 4386 C 401.231 -2.6098 -0.93727 0
M  V30 4387 H 404.182 -1.58534 -0.0726422 0
M  V30 4388 H 404.203 -2.91319 -2.44772 0
M  V30 4389 H 403.715 -3.78764 -0.846151 0
M  V30 4390 H 401.816 -2.3775 -2.8689 0
M  V30 4391 H 401.929 -4.18415 -2.33379 0
M  V30 4392 H 400.293 -2.17564 -1.32431 0
M  V30 4393 H 401.076 -3.42623 -0.215414 0
M  V30 4394 N 403.521 0.559213 -1.47345 0
M  V30 4395 C 404.453 1.68161 -1.55738 0
M  V30 4396 C 405.466 1.56636 -0.443744 0
M  V30 4397 O 406.655 1.6363 -0.713258 0
M  V30 4398 C 403.755 3.06611 -1.4437 0
M  V30 4399 C 402.928 3.4391 -2.70268 0
M  V30 4400 C 401.987 4.61515 -2.52765 0
M  V30 4401 O 401.013 4.66197 -3.26572 0
M  V30 4402 N 402.215 5.57883 -1.6046 0
M  V30 4403 H 404.98 1.61408 -2.52522 0
M  V30 4404 H 402.541 0.7458 -1.43699 0
M  V30 4405 H 404.533 3.83117 -1.30398 0
M  V30 4406 H 403.103 3.07602 -0.556766 0
M  V30 4407 H 402.323 2.56873 -2.99015 0
M  V30 4408 H 403.611 3.65605 -3.53851 0
M  V30 4409 H 403.009 5.56855 -0.996422 0
M  V30 4410 H 401.566 6.33723 -1.52441 0
M  V30 4411 N 404.999 1.35443 0.805782 0
M  V30 4412 C 405.947 1.28465 1.93906 0
M  V30 4413 C 406.941 0.17943 1.68447 0
M  V30 4414 O 408.147 0.345459 1.76654 0
M  V30 4415 H 404.522 0.399528 0.637088 0
M  V30 4416 H 406.493 2.24206 1.96912 0
M  V30 4417 C 405.242 1.07432 3.30687 0
M  V30 4418 H 404.565 1.91716 3.50835 0
M  V30 4419 H 406.005 1.06591 4.10383 0
M  V30 4420 C 404.464 -0.22179 3.36169 0
M  V30 4421 O 404.994 -1.21731 3.82811 0
M  V30 4422 N 403.2 -0.260841 2.89427 0
M  V30 4423 H 402.747 0.549884 2.51663 0
M  V30 4424 H 402.705 -1.12777 2.93477 0
M  V30 4425 N 406.477 -1.02803 1.19454 0
M  V30 4426 C 407.893 -1.28473 0.946937 0
M  V30 4427 C 408.093 -1.97881 -0.380202 0
M  V30 4428 O 407.149 -2.26719 -1.11151 0
M  V30 4429 C 408.462 -2.13099 2.12154 0
M  V30 4430 C 410.01 -2.26404 2.16126 0
M  V30 4431 C 410.485 -3.14402 3.33039 0
M  V30 4432 N 411.976 -3.21991 3.32981 0
M  V30 4433 C 412.711 -3.90272 4.20089 0
M  V30 4434 N 412.207 -4.60777 5.17355 0
M  V30 4435 N 414 -3.8668 4.07964 0
M  V30 4436 H 406.151 -0.561665 2.04839 0
M  V30 4437 H 408.414 -0.310438 0.89573 0
M  V30 4438 H 408.12 -1.69422 3.08203 0
M  V30 4439 H 407.994 -3.13813 2.09287 0
M  V30 4440 H 410.381 -2.69311 1.20647 0
M  V30 4441 H 410.462 -1.25237 2.23045 0
M  V30 4442 H 410.106 -2.72204 4.28798 0
M  V30 4443 H 410.036 -4.1563 3.23356 0
M  V30 4444 H 412.527 -2.71778 2.62574 0
M  V30 4445 H 412.84 -5.10513 5.80169 0
M  V30 4446 H 411.185 -4.5964 5.21302 0
M  V30 4447 H 414.376 -3.30739 3.31254 0
M  V30 4448 H 414.549 -4.39621 4.76064 0
M  V30 4449 N 407.956 -0.998596 -1.21925 0
M  V30 4450 C 409.186 -0.695276 -1.94549 0
M  V30 4451 C 409.594 0.745079 -1.73911 0
M  V30 4452 O 408.937 1.51507 -1.03881 0
M  V30 4453 C 408.999 -0.928485 -3.47303 0
M  V30 4454 C 408.663 -2.35443 -3.91683 0
M  V30 4455 C 409.66 -3.33428 -3.98901 0
M  V30 4456 C 407.345 -2.69038 -4.24174 0
M  V30 4457 C 409.339 -4.63079 -4.37992 0
M  V30 4458 C 407.026 -3.98906 -4.62944 0
M  V30 4459 C 408.024 -4.95738 -4.69822 0
M  V30 4460 O 407.712 -6.23285 -5.07711 0
M  V30 4461 H 407.444 -0.255902 -0.625692 0
M  V30 4462 H 409.998 -1.33767 -1.5587 0
M  V30 4463 H 408.228 -0.228917 -3.86022 0
M  V30 4464 H 409.917 -0.619539 -4.01144 0
M  V30 4465 H 410.683 -3.08807 -3.73983 0
M  V30 4466 H 406.562 -1.94367 -4.18022 0
M  V30 4467 H 410.106 -5.38658 -4.43275 0
M  V30 4468 H 406.003 -4.23314 -4.87314 0
M  V30 4469 H 406.771 -6.27306 -5.25766 0
M  V30 4470 N 409.434 1.37368 -0.772513 0
M  V30 4471 C 410.662 2.03942 -0.348588 0
M  V30 4472 C 411.077 1.58264 1.02947 0
M  V30 4473 O 410.434 0.764246 1.65727 0
M  V30 4474 C 410.485 3.5946 -0.38351 0
M  V30 4475 O 410.206 4.03468 -1.70721 0
M  V30 4476 C 411.707 4.4327 0.0519152 0
M  V30 4477 H 408.927 0.654931 -0.145966 0
M  V30 4478 H 411.471 1.75686 -1.04665 0
M  V30 4479 H 409.626 3.86486 0.265978 0
M  V30 4480 H 410.04 4.97991 -1.64636 0
M  V30 4481 H 411.514 5.51995 -0.0236733 0
M  V30 4482 H 411.991 4.2514 1.10238 0
M  V30 4483 H 412.597 4.21471 -0.569415 0
M  V30 4484 N 410.912 0.523116 1.48665 0
M  V30 4485 C 411.875 -0.232592 2.28017 0
M  V30 4486 C 412.875 -0.874021 1.34972 0
M  V30 4487 O 414.065 -0.735132 1.57929 0
M  V30 4488 C 411.197 -1.33586 3.13636 0
M  V30 4489 H 412.39 0.464008 2.96289 0
M  V30 4490 H 409.943 0.278816 1.53793 0
M  V30 4491 H 410.678 -2.06593 2.4998 0
M  V30 4492 H 410.463 -0.881125 3.82071 0
M  V30 4493 H 411.953 -1.86759 3.73511 0
M  V30 4494 N 412.39 -1.55475 0.257931 0
M  V30 4495 C 413.3 -2.2549 -0.647425 0
M  V30 4496 C 414.316 -1.2748 -1.18427 0
M  V30 4497 O 415.492 -1.6038 -1.2182 0
M  V30 4498 C 412.557 -2.94916 -1.82278 0
M  V30 4499 C 411.618 -4.08363 -1.32432 0
M  V30 4500 C 410.851 -4.74469 -2.44366 0
M  V30 4501 O 411.074 -4.39701 -3.63344 0
M  V30 4502 O 410.008 -5.62763 -2.13497 0
M  V30 4503 H 413.834 -3.03593 -0.0807707 0
M  V30 4504 H 411.419 -1.49377 0.0259962 0
M  V30 4505 H 413.301 -3.38606 -2.50846 0
M  V30 4506 H 411.976 -2.19744 -2.37685 0
M  V30 4507 H 410.883 -3.69166 -0.605605 0
M  V30 4508 H 412.216 -4.85385 -0.816211 0
M  V30 4509 N 413.868 0.0150385 -1.57593 0
M  V30 4510 C 414.778 1.02791 -2.10882 0
M  V30 4511 C 415.794 1.38702 -1.0506 0
M  V30 4512 O 416.97 1.47739 -1.36877 0
M  V30 4513 C 414.035 2.30568 -2.58919 0
M  V30 4514 C 413.096 2.01108 -3.79281 0
M  V30 4515 C 412.329 3.22794 -4.25018 0
M  V30 4516 O 412.552 4.33959 -3.70183 0
M  V30 4517 O 411.486 3.07672 -5.17322 0
M  V30 4518 H 415.312 0.604973 -2.97613 0
M  V30 4519 H 412.897 0.23292 -1.47573 0
M  V30 4520 H 414.779 3.05662 -2.90084 0
M  V30 4521 H 413.454 2.72129 -1.75293 0
M  V30 4522 H 412.361 1.23537 -3.53114 0
M  V30 4523 H 413.694 1.64394 -4.63935 0
M  V30 4524 N 415.346 1.54954 0.287554 0
M  V30 4525 C 416.309 1.86076 1.33823 0
M  V30 4526 C 417.309 0.734414 1.43049 0
M  V30 4527 O 418.499 1.00266 1.42452 0
M  V30 4528 C 415.631 2.05305 2.72144 0
M  V30 4529 H 416.824 2.79984 1.07465 0
M  V30 4530 H 414.377 1.47223 0.524902 0
M  V30 4531 H 415.112 1.1373 3.03704 0
M  V30 4532 H 414.897 2.873 2.66836 0
M  V30 4533 H 416.387 2.30706 3.48087 0
M  V30 4534 N 416.824 -0.551391 1.4764 0
M  V30 4535 C 417.754 -1.66757 1.63445 0
M  V30 4536 C 418.735 -1.63077 0.483742 0
M  V30 4537 O 419.92 -1.80607 0.71377 0
M  V30 4538 C 417.05 -3.05387 1.65396 0
M  V30 4539 C 416.004 -3.23918 2.79752 0
M  V30 4540 C 415.33 -4.63393 2.66779 0
M  V30 4541 C 416.63 -3.08735 4.21284 0
M  V30 4542 H 418.324 -1.53786 2.56886 0
M  V30 4543 H 415.87 -0.738415 1.23626 0
M  V30 4544 H 417.823 -3.83325 1.75043 0
M  V30 4545 H 416.547 -3.19332 0.685195 0
M  V30 4546 H 415.206 -2.48391 2.69625 0
M  V30 4547 H 414.854 -4.74144 1.67918 0
M  V30 4548 H 414.554 -4.7674 3.43501 0
M  V30 4549 H 416.078 -5.43458 2.78364 0
M  V30 4550 H 417.492 -3.76484 4.32357 0
M  V30 4551 H 415.889 -3.33588 4.98838 0
M  V30 4552 H 416.959 -2.0541 4.39243 0
M  V30 4553 N 418.302 -1.35869 -0.798587 0
M  V30 4554 C 419.265 -1.29307 -1.89242 0
M  V30 4555 C 420.265 -0.202747 -1.59517 0
M  V30 4556 O 421.455 -0.456957 -1.681 0
M  V30 4557 C 418.587 -1.00229 -3.25833 0
M  V30 4558 H 419.78 -2.26576 -1.96478 0
M  V30 4559 H 417.333 -1.20509 -0.995358 0
M  V30 4560 H 418.068 -0.033801 -3.24282 0
M  V30 4561 H 417.853 -1.79121 -3.48795 0
M  V30 4562 H 419.343 -0.98219 -4.05885 0
M  V30 4563 N 419.78 1.02168 -1.19998 0
M  V30 4564 C 420.73 2.08969 -0.911921 0
M  V30 4565 C 421.714 1.60404 0.12621 0
M  V30 4566 O 422.906 1.76817 -0.0804706 0
M  V30 4567 C 420.035 3.402 -0.460277 0
M  V30 4568 C 419.121 3.9548 -1.53155 0
M  V30 4569 N 419.512 4.24332 -2.75275 0
M  V30 4570 C 417.81 4.23572 -1.39653 0
M  V30 4571 C 418.511 4.68834 -3.44339 0
M  V30 4572 N 417.487 4.70804 -2.71744 0
M  V30 4573 H 421.289 2.29178 -1.83997 0
M  V30 4574 H 418.803 1.20094 -1.09322 0
M  V30 4575 H 420.8 4.16235 -0.235337 0
M  V30 4576 H 419.46 3.21408 0.4612 0
M  V30 4577 H 420.471 4.13393 -3.11973 0
M  V30 4578 H 417.148 4.14005 -0.539067 0
M  V30 4579 H 418.538 5.00019 -4.4881 0
M  V30 4580 N 421.258 1.00505 1.21394 0
M  V30 4581 C 422.669 0.721082 1.72213 0
M  V30 4582 C 423.02 -0.761263 1.80829 0
M  V30 4583 O 422.145 -1.59464 1.46288 0
M  V30 4584 C 422.74 1.30228 3.12772 0
M  V30 4585 C 421.299 1.06743 3.60947 0
M  V30 4586 C 420.446 1.41507 2.38477 0
M  V30 4587 H 423.397 1.17594 1.06571 0
M  V30 4588 H 423.418 0.686955 3.74247 0
M  V30 4589 H 422.93 2.38115 3.06468 0
M  V30 4590 H 421.031 0.00572162 3.726 0
M  V30 4591 H 421.144 1.73936 4.46411 0
M  V30 4592 H 419.508 0.833852 2.40664 0
M  V30 4593 H 420.291 2.50424 2.34824 0
M  V30 4594 N 422.737 -1.36956 0.779787 0
M  V30 4595 C 423.984 -1.99491 0.347766 0
M  V30 4596 C 424.312 -1.61898 -1.07793 0
M  V30 4597 O 423.567 -0.86071 -1.75756 0
M  V30 4598 C 423.866 -3.54585 0.447686 0
M  V30 4599 C 423.532 -4.1197 1.83279 0
M  V30 4600 C 422.194 -4.27356 2.2118 0
M  V30 4601 C 424.546 -4.43354 2.74019 0
M  V30 4602 C 421.874 -4.71432 3.4924 0
M  V30 4603 C 424.226 -4.88858 4.01497 0
M  V30 4604 C 422.89 -5.0245 4.39432 0
M  V30 4605 H 422.16 -0.729991 0.127257 0
M  V30 4606 H 424.807 -1.63599 0.995376 0
M  V30 4607 H 423.112 -3.90773 -0.283447 0
M  V30 4608 H 424.809 -4.00888 0.0945948 0
M  V30 4609 H 421.399 -4.00428 1.52825 0
M  V30 4610 H 425.583 -4.31045 2.45995 0
M  V30 4611 H 420.839 -4.80141 3.78516 0
M  V30 4612 H 425.013 -5.12108 4.71931 0
M  V30 4613 H 422.64 -5.36362 5.38721 0
M  V30 4614 N 424.215 -0.530993 -1.48385 0
M  V30 4615 C 425.462 0.0027373 -2.025 0
M  V30 4616 C 425.79 1.34186 -1.40799 0
M  V30 4617 O 425.045 1.88 -0.543544 0
M  V30 4618 C 425.344 0.172742 -3.56982 0
M  V30 4619 C 425.01 -1.09215 -4.37473 0
M  V30 4620 C 423.672 -1.43881 -4.59186 0
M  V30 4621 C 426.024 -1.93153 -4.84088 0
M  V30 4622 C 423.352 -2.62381 -5.2476 0
M  V30 4623 C 425.704 -3.10833 -5.50968 0
M  V30 4624 C 424.368 -3.45843 -5.70919 0
M  V30 4625 H 423.638 0.00100165 -0.740999 0
M  V30 4626 H 426.285 -0.697219 -1.78357 0
M  V30 4627 H 424.59 0.955473 -3.79971 0
M  V30 4628 H 426.287 0.600642 -3.96476 0
M  V30 4629 H 422.877 -0.812177 -4.20834 0
M  V30 4630 H 427.061 -1.67683 -4.67115 0
M  V30 4631 H 422.317 -2.89707 -5.38405 0
M  V30 4632 H 426.491 -3.7618 -5.86056 0
M  V30 4633 H 424.118 -4.37764 -6.21503 0
M  V30 4634 N 425.693 1.55336 -0.266172 0
M  V30 4635 C 426.625 2.19544 0.658247 0
M  V30 4636 C 427.638 1.17746 1.12427 0
M  V30 4637 O 428.827 1.44517 1.04772 0
M  V30 4638 C 425.927 2.80032 1.9088 0
M  V30 4639 C 425.1 4.07436 1.59106 0
M  V30 4640 C 424.159 4.52056 2.69317 0
M  V30 4641 O 423.185 5.18023 2.35883 0
M  V30 4642 N 424.387 4.21448 3.99201 0
M  V30 4643 H 427.152 2.99503 0.108754 0
M  V30 4644 H 424.713 1.61667 -0.0869059 0
M  V30 4645 H 426.705 3.06831 2.63888 0
M  V30 4646 H 425.275 2.04119 2.36758 0
M  V30 4647 H 424.495 3.88021 0.695243 0
M  V30 4648 H 425.783 4.90462 1.35367 0
M  V30 4649 H 425.181 3.68528 4.29189 0
M  V30 4650 H 423.738 4.53039 4.68614 0
M  V30 4651 N 427.171 -0.0066808 1.57599 0
M  V30 4652 C 428.103 -1.02827 2.04839 0
M  V30 4653 C 429.116 -1.31108 0.965113 0
M  V30 4654 O 430.305 -1.28202 1.24203 0
M  V30 4655 C 427.405 -2.36464 2.42771 0
M  V30 4656 C 426.578 -2.27219 3.73751 0
M  V30 4657 C 425.637 -3.43489 3.98625 0
M  V30 4658 O 424.663 -3.21976 4.69382 0
M  V30 4659 N 425.865 -4.66116 3.46 0
M  V30 4660 H 428.63 -0.625455 2.93101 0
M  V30 4661 H 426.191 -0.194198 1.60731 0
M  V30 4662 H 428.183 -3.13008 2.56531 0
M  V30 4663 H 426.753 -2.68512 1.60063 0
M  V30 4664 H 425.973 -1.35629 3.70133 0
M  V30 4665 H 427.261 -2.18208 4.59633 0
M  V30 4666 H 426.659 -4.86493 2.88688 0
M  V30 4667 H 425.216 -5.39949 3.65101 0
M  V30 4668 N 428.649 -1.55105 -0.279332 0
M  V30 4669 C 429.879 -1.7917 -1.02867 0
M  V30 4670 C 430.287 -0.56204 -1.80659 0
M  V30 4671 O 429.63 0.478266 -1.77365 0
M  V30 4672 C 429.692 -2.96061 -2.03932 0
M  V30 4673 C 429.356 -4.33341 -1.45137 0
M  V30 4674 C 430.353 -5.12565 -0.870266 0
M  V30 4675 C 428.038 -4.79987 -1.48048 0
M  V30 4676 C 430.032 -6.36565 -0.326097 0
M  V30 4677 C 427.719 -6.03944 -0.932443 0
M  V30 4678 C 428.717 -6.8207 -0.356247 0
M  V30 4679 O 428.405 -8.03691 0.183412 0
M  V30 4680 H 428.137 -0.600796 -0.309872 0
M  V30 4681 H 430.691 -2.02932 -0.317468 0
M  V30 4682 H 428.921 -2.67975 -2.78794 0
M  V30 4683 H 430.61 -3.07506 -2.64943 0
M  V30 4684 H 431.376 -4.77661 -0.840521 0
M  V30 4685 H 427.255 -4.1919 -1.91835 0
M  V30 4686 H 430.799 -6.97489 0.124286 0
M  V30 4687 H 426.696 -6.3833 -0.959407 0
M  V30 4688 H 427.464 -8.18468 0.0721681 0
M  V30 4689 N 430.127 0.543554 -1.4793 0
M  V30 4690 C 431.057 1.65888 -1.64327 0
M  V30 4691 C 432.038 1.62818 -0.492383 0
M  V30 4692 O 433.223 1.80226 -0.723338 0
M  V30 4693 C 430.353 3.04506 -1.67013 0
M  V30 4694 C 429.307 3.2243 -2.81466 0
M  V30 4695 C 428.633 4.61972 -2.69233 0
M  V30 4696 C 429.933 3.06496 -4.22915 0
M  V30 4697 H 431.627 1.52421 -2.57698 0
M  V30 4698 H 429.173 0.731849 -1.24016 0
M  V30 4699 H 431.126 3.82391 -1.77074 0
M  V30 4700 H 429.85 3.18964 -0.70212 0
M  V30 4701 H 428.509 2.46957 -2.70938 0
M  V30 4702 H 428.157 4.73247 -1.7043 0
M  V30 4703 H 427.857 4.74911 -3.46025 0
M  V30 4704 H 429.381 5.41974 -2.81242 0
M  V30 4705 H 430.795 3.74186 -4.34348 0
M  V30 4706 H 429.192 3.30938 -5.006 0
M  V30 4707 H 430.262 2.03077 -4.40327 0
M  V30 4708 N 431.605 1.3629 0.791371 0
M  V30 4709 C 432.851 1.30605 1.55146 0
M  V30 4710 C 433.184 -0.115042 1.93859 0
M  V30 4711 O 432.459 -1.06798 1.62556 0
M  V30 4712 C 432.742 2.22692 2.82985 0
M  V30 4713 C 432.595 3.73489 2.50651 0
M  V30 4714 C 433.914 2.13588 3.84796 0
M  V30 4715 H 431.033 0.475761 0.562868 0
M  V30 4716 H 433.675 1.66825 0.909358 0
M  V30 4717 H 431.825 1.91933 3.37778 0
M  V30 4718 H 433.497 4.14758 2.01924 0
M  V30 4719 H 431.74 3.93021 1.83622 0
M  V30 4720 H 432.411 4.3333 3.41949 0
M  V30 4721 H 434.887 2.40659 3.39445 0
M  V30 4722 H 433.763 2.80195 4.71998 0
M  V30 4723 H 434.024 1.12256 4.27611 0
M  V30 4724 N 433.083 -1.0153 1.20538 0
M  V30 4725 C 433.993 -2.13557 0.971113 0
M  V30 4726 C 435.009 -1.73845 -0.0734366 0
M  V30 4727 O 436.185 -2.01075 0.114299 0
M  V30 4728 C 433.25 -3.42661 0.527639 0
M  V30 4729 C 432.311 -3.96608 1.64319 0
M  V30 4730 C 431.544 -5.1955 1.22078 0
M  V30 4731 O 431.767 -5.70329 0.0900198 0
M  V30 4732 O 430.701 -5.66681 2.02871 0
M  V30 4733 H 434.527 -2.3619 1.90913 0
M  V30 4734 H 432.112 -1.11946 0.989362 0
M  V30 4735 H 433.994 -4.20404 0.289621 0
M  V30 4736 H 432.669 -3.21441 -0.381779 0
M  V30 4737 H 431.576 -3.20139 1.93551 0
M  V30 4738 H 432.909 -4.22219 2.52966 0
M  V30 4739 N 434.561 -1.01147 -1.20859 0
M  V30 4740 C 435.471 -0.58686 -2.27141 0
M  V30 4741 C 436.487 0.373198 -1.69951 0
M  V30 4742 O 437.663 0.235423 -2.00019 0
M  V30 4743 C 434.728 0.0733602 -3.46622 0
M  V30 4744 C 433.789 -0.931995 -4.19061 0
M  V30 4745 C 433.022 -0.303186 -5.32838 0
M  V30 4746 O 433.245 0.898395 -5.63281 0
M  V30 4747 O 432.179 -1.01735 -5.9324 0
M  V30 4748 H 436.005 -1.47155 -2.65667 0
M  V30 4749 H 433.59 -0.780689 -1.2738 0
M  V30 4750 H 435.472 0.442333 -4.19072 0
M  V30 4751 H 434.147 0.932329 -3.09983 0
M  V30 4752 H 433.054 -1.35224 -3.48805 0
M  V30 4753 H 434.387 -1.76076 -4.59628 0
M  V30 4754 N 436.039 1.36541 -0.78704 0
M  V30 4755 C 437.285 1.99599 -0.358872 0
M  V30 4756 C 437.618 1.62323 1.06606 0
M  V30 4757 O 436.893 0.876858 1.73613 0
M  V30 4758 C 437.176 3.56327 -0.519944 0
M  V30 4759 C 437.029 4.03464 -1.98839 0
M  V30 4760 C 438.348 4.4005 0.0664737 0
M  V30 4761 H 435.467 0.725107 -0.131869 0
M  V30 4762 H 438.109 1.6199 -0.992936 0
M  V30 4763 H 436.259 3.88495 0.0198321 0
M  V30 4764 H 437.931 3.81793 -2.58905 0
M  V30 4765 H 436.174 3.55092 -2.49183 0
M  V30 4766 H 436.845 5.12439 -2.05207 0
M  V30 4767 H 439.321 4.14228 -0.394267 0
M  V30 4768 H 438.197 5.48847 -0.0762682 0
M  V30 4769 H 438.458 4.26655 1.15835 0
M  V30 4770 N 437.518 0.538854 1.48102 0
M  V30 4771 C 438.934 0.19732 1.58376 0
M  V30 4772 C 439.134 -1.29971 1.5398 0
M  V30 4773 O 438.19 -2.07861 1.43352 0
M  V30 4774 C 439.503 0.807716 2.89649 0
M  V30 4775 C 441.051 0.77726 3.03196 0
M  V30 4776 C 441.526 1.36639 4.37143 0
M  V30 4777 N 443.017 1.32875 4.43732 0
M  V30 4778 C 443.752 1.7544 5.45901 0
M  V30 4779 N 443.248 2.25776 6.54979 0
M  V30 4780 N 445.041 1.66623 5.36836 0
M  V30 4781 H 437.192 1.5117 1.49202 0
M  V30 4782 H 439.455 0.629327 0.708979 0
M  V30 4783 H 439.161 1.85909 2.98548 0
M  V30 4784 H 439.035 0.289975 3.76084 0
M  V30 4785 H 441.422 -0.265374 2.93904 0
M  V30 4786 H 441.503 1.33256 2.18349 0
M  V30 4787 H 441.147 2.408 4.47189 0
M  V30 4788 H 441.077 0.786689 5.20691 0
M  V30 4789 H 443.568 0.96037 3.65493 0
M  V30 4790 H 443.881 2.56226 7.29087 0
M  V30 4791 H 442.226 2.29775 6.55918 0
M  V30 4792 H 445.417 1.27089 4.50517 0
M  V30 4793 H 445.59 2.00115 6.16326 0
M  V30 4794 N 438.996 -1.55193 0.274407 0
M  V30 4795 C 439.946 -2.19184 -0.627882 0
M  V30 4796 C 440.93 -1.15625 -1.11892 0
M  V30 4797 O 442.122 -1.41441 -1.06411 0
M  V30 4798 C 439.251 -2.91591 -1.81189 0
M  V30 4799 C 438.337 -4.02438 -1.33807 0
M  V30 4800 N 438.728 -5.0246 -0.580349 0
M  V30 4801 C 437.026 -4.15496 -1.62109 0
M  V30 4802 C 437.727 -5.80756 -0.331344 0
M  V30 4803 N 436.703 -5.36038 -0.903556 0
M  V30 4804 H 440.505 -2.93871 -0.0411216 0
M  V30 4805 H 438.019 -1.62213 0.0779348 0
M  V30 4806 H 440.016 -3.35883 -2.46957 0
M  V30 4807 H 438.676 -2.18414 -2.40261 0
M  V30 4808 H 439.687 -5.17399 -0.227762 0
M  V30 4809 H 436.364 -3.53509 -2.22121 0
M  V30 4810 H 437.754 -6.71335 0.275454 0
M  V30 4811 N 440.474 -0.00167713 -1.576 0
M  V30 4812 C 441.721 0.68282 -1.90641 0
M  V30 4813 C 442.049 1.73686 -0.875415 0
M  V30 4814 O 441.304 1.95334 0.119575 0
M  V30 4815 C 441.603 1.36189 -3.30435 0
M  V30 4816 C 441.269 0.440887 -4.48739 0
M  V30 4817 C 439.931 0.187312 -4.80835 0
M  V30 4818 C 442.283 -0.193134 -5.20842 0
M  V30 4819 C 439.611 -0.70855 -5.82406 0
M  V30 4820 C 441.963 -1.07688 -6.23367 0
M  V30 4821 C 440.627 -1.33962 -6.53919 0
M  V30 4822 H 439.897 0.249862 -0.697603 0
M  V30 4823 H 442.544 -0.0575642 -1.91413 0
M  V30 4824 H 440.849 2.17636 -3.25794 0
M  V30 4825 H 442.546 1.89759 -3.5326 0
M  V30 4826 H 439.136 0.648694 -4.23663 0
M  V30 4827 H 443.32 -0.0102445 -4.96299 0
M  V30 4828 H 438.576 -0.920097 -6.04437 0
M  V30 4829 H 442.75 -1.57451 -6.78367 0
M  V30 4830 H 440.377 -2.03549 -7.32442 0
M  V30 4831 N 441.952 1.55251 0.271103 0
M  V30 4832 C 443.177 1.80306 1.02491 0
M  V30 4833 C 443.602 0.575457 1.79081 0
M  V30 4834 O 442.96 -0.474987 1.74967 0
M  V30 4835 C 443.008 3.02832 1.95768 0
M  V30 4836 O 442.112 2.78051 3.04568 0
M  V30 4837 H 441.453 0.595896 0.292923 0
M  V30 4838 H 443.983 2.02397 0.299436 0
M  V30 4839 H 443.993 3.31616 2.37686 0
M  V30 4840 H 442.668 3.9183 1.39434 0
M  V30 4841 H 441.245 2.60369 2.66951 0
M  V30 4842 N 443.43 -0.535701 1.48216 0
M  V30 4843 C 444.841 -1.11769 1.49548 0
M  V30 4844 C 445.192 -1.94442 0.26207 0
M  V30 4845 O 444.317 -2.06987 -0.631287 0
M  V30 4846 C 444.912 -2.03367 2.70975 0
M  V30 4847 C 443.471 -2.56795 2.75196 0
M  V30 4848 C 442.618 -1.33631 2.42977 0
M  V30 4849 H 445.569 -0.321232 1.55415 0
M  V30 4850 H 445.59 -2.87569 2.49167 0
M  V30 4851 H 445.102 -1.43169 3.60727 0
M  V30 4852 H 443.203 -3.20731 1.89638 0
M  V30 4853 H 443.316 -2.9632 3.76472 0
M  V30 4854 H 441.68 -1.6502 1.94012 0
M  V30 4855 H 442.463 -0.75194 3.34964 0
M  V30 4856 N 444.908 -1.36708 -0.784132 0
M  V30 4857 C 446.324 -1.17237 -1.08294 0
M  V30 4858 C 446.524 -5.93947e-05 -2.015 0
M  V30 4859 O 445.58 0.663686 -2.43622 0
M  V30 4860 C 446.893 -2.48557 -1.69233 0
M  V30 4861 C 448.441 -2.54968 -1.8155 0
M  V30 4862 C 448.916 -3.86388 -2.45904 0
M  V30 4863 N 450.407 -3.87762 -2.53367 0
M  V30 4864 C 451.142 -4.86191 -3.03983 0
M  V30 4865 N 450.638 -5.95015 -3.54866 0
M  V30 4866 N 452.431 -4.73606 -3.02743 0
M  V30 4867 H 444.582 -2.11758 -0.16501 0
M  V30 4868 H 446.845 -0.93822 -0.135822 0
M  V30 4869 H 446.551 -3.34638 -1.08215 0
M  V30 4870 H 446.425 -2.64748 -2.68679 0
M  V30 4871 H 448.812 -1.69302 -2.41704 0
M  V30 4872 H 448.893 -2.42672 -0.80895 0
M  V30 4873 H 448.537 -4.72462 -1.86392 0
M  V30 4874 H 448.467 -3.95982 -3.4714 0
M  V30 4875 H 450.958 -3.09145 -2.17343 0
M  V30 4876 H 451.271 -6.66086 -3.91854 0
M  V30 4877 H 449.616 -5.98676 -3.53003 0
M  V30 4878 H 452.807 -3.87717 -2.62284 0
M  V30 4879 H 452.98 -5.50473 -3.41881 0
M  V30 4880 N 446.386 1.0089 -1.21074 0
M  V30 4881 C 447.634 1.74262 -1.02358 0
M  V30 4882 C 447.955 1.89869 0.444393 0
M  V30 4883 O 447.225 1.44677 1.32081 0
M  V30 4884 H 445.805 0.645615 -0.375754 0
M  V30 4885 H 448.467 1.21596 -1.52317 0
M  V30 4886 H 447.563 2.74328 -1.4883 0
M  V30 4887 N 447.864 1.01787 1.20321 0
M  V30 4888 C 448.811 0.589197 2.23153 0
M  V30 4889 C 449.781 -0.391367 1.61423 0
M  V30 4890 O 450.966 -0.290518 1.88575 0
M  V30 4891 C 448.106 -0.0650747 3.45039 0
M  V30 4892 C 447.219 0.960207 4.21194 0
M  V30 4893 C 446.354 0.276854 5.30478 0
M  V30 4894 C 445.393 1.2888 5.98378 0
M  V30 4895 N 444.53 0.632031 6.99249 0
M  V30 4896 H 449.37 1.47071 2.59179 0
M  V30 4897 H 446.907 0.736192 1.27352 0
M  V30 4898 H 448.865 -0.461552 4.14639 0
M  V30 4899 H 447.495 -0.910233 3.09701 0
M  V30 4900 H 446.547 1.47484 3.50646 0
M  V30 4901 H 447.859 1.72977 4.67847 0
M  V30 4902 H 447.013 -0.175056 6.06447 0
M  V30 4903 H 445.752 -0.525004 4.84866 0
M  V30 4904 H 444.757 1.75109 5.21169 0
M  V30 4905 H 445.982 2.09196 6.46076 0
M  V30 4906 H 443.928 -0.149935 6.55829 0
M  V30 4907 H 443.845 1.33964 7.44036 0
M  V30 4908 H 445.113 0.203755 7.79234 0
M  V30 4909 N 449.342 -1.36122 0.79427 0
M  V30 4910 C 450.589 -1.99111 0.368905 0
M  V30 4911 C 450.917 -1.63032 -1.0607 0
M  V30 4912 O 450.172 -0.879303 -1.74833 0
M  V30 4913 C 450.471 -3.5409 0.48527 0
M  V30 4914 C 450.137 -4.10003 1.87638 0
M  V30 4915 C 448.799 -4.24986 2.257 0
M  V30 4916 C 451.151 -4.40423 2.78706 0
M  V30 4917 C 448.479 -4.67701 3.54221 0
M  V30 4918 C 450.831 -4.84573 4.0666 0
M  V30 4919 C 449.495 -4.97761 4.44737 0
M  V30 4920 H 448.765 -0.7286 0.134992 0
M  V30 4921 H 451.412 -1.62534 1.01267 0
M  V30 4922 H 449.717 -3.91052 -0.241984 0
M  V30 4923 H 451.414 -4.00766 0.137109 0
M  V30 4924 H 448.004 -3.98784 1.57064 0
M  V30 4925 H 452.188 -4.28412 2.50553 0
M  V30 4926 H 447.444 -4.761 3.83587 0
M  V30 4927 H 451.618 -5.07074 4.77336 0
M  V30 4928 H 449.245 -5.30618 5.44379 0
M  V30 4929 N 450.82 -0.546701 -1.47814 0
M  V30 4930 C 451.767 0.206854 -2.29871 0
M  V30 4931 C 452.737 0.918235 -1.38411 0
M  V30 4932 O 453.922 0.915991 -1.67375 0
M  V30 4933 C 451.062 1.23746 -3.22151 0
M  V30 4934 C 450.175 0.533216 -4.28697 0
M  V30 4935 C 449.31 1.5482 -5.08138 0
M  V30 4936 C 448.349 0.828347 -6.06469 0
M  V30 4937 N 447.486 1.78966 -6.78908 0
M  V30 4938 H 452.326 -0.499037 -2.93792 0
M  V30 4939 H 449.863 -0.25793 -1.44821 0
M  V30 4940 H 451.821 1.84746 -3.74065 0
M  V30 4941 H 450.451 1.91151 -2.60117 0
M  V30 4942 H 449.503 -0.191089 -3.7992 0
M  V30 4943 H 450.815 -0.0311987 -4.9879 0
M  V30 4944 H 449.969 2.23202 -5.6415 0
M  V30 4945 H 448.708 2.14652 -4.37922 0
M  V30 4946 H 447.713 0.130539 -5.49645 0
M  V30 4947 H 448.938 0.235907 -6.7869 0
M  V30 4948 H 446.884 2.37675 -6.1143 0
M  V30 4949 H 446.801 1.27712 -7.45135 0
M  V30 4950 H 448.069 2.46496 -7.395 0
M  V30 4951 N 452.299 1.55045 -0.282633 0
M  V30 4952 C 453.545 2.00056 0.332481 0
M  V30 4953 C 453.878 1.1708 1.54939 0
M  V30 4954 O 453.153 0.2427 1.9298 0
M  V30 4955 C 453.436 3.53086 0.70725 0
M  V30 4956 C 453.289 4.46813 -0.517521 0
M  V30 4957 C 454.608 4.12245 1.54084 0
M  V30 4958 H 451.727 0.727268 0.119373 0
M  V30 4959 H 454.369 1.85932 -0.391076 0
M  V30 4960 H 452.519 3.65253 1.32372 0
M  V30 4961 H 454.191 4.46579 -1.15607 0
M  V30 4962 H 452.434 4.18163 -1.1542 0
M  V30 4963 H 453.105 5.51595 -0.211426 0
M  V30 4964 H 455.581 4.03401 1.02013 0
M  V30 4965 H 454.457 5.19515 1.77186 0
M  V30 4966 H 454.718 3.62951 2.52427 0
M  V30 4967 N 453.777 0.010035 1.57597 0
M  V30 4968 C 455.026 -0.671945 1.90178 0
M  V30 4969 C 455.339 -1.74376 0.886131 0
M  V30 4970 O 456.545 -2.48107 1.10252 0
M  V30 4971 C 455.001 -1.24636 3.3763 0
M  V30 4972 C 454.609 -0.208838 4.47513 0
M  V30 4973 C 456.353 -1.90595 3.79307 0
M  V30 4974 C 454.26 -0.793814 5.86048 0
M  V30 4975 H 453.19 -0.25474 0.709665 0
M  V30 4976 H 455.841 0.0722206 1.83358 0
M  V30 4977 H 454.223 -2.04152 3.3932 0
M  V30 4978 H 455.397 0.562463 4.57354 0
M  V30 4979 H 453.712 0.350889 4.14919 0
M  V30 4980 H 456.309 -2.35284 4.80151 0
M  V30 4981 H 456.652 -2.74074 3.13352 0
M  V30 4982 H 457.185 -1.17798 3.79958 0
M  V30 4983 H 453.924 0.00240855 6.555 0
M  V30 4984 H 453.444 -1.53404 5.79851 0
M  V30 4985 H 455.123 -1.2894 6.34022 0
M  V30 4986 N 455.255 -1.55392 -0.262866 0
M  V30 4987 C 456.218 -1.88181 -1.30846 0
M  V30 4988 C 457.218 -0.757079 -1.41862 0
M  V30 4989 O 458.408 -1.02519 -1.40838 0
M  V30 4990 C 455.54 -2.09609 -2.68844 0
M  V30 4991 H 456.733 -2.81659 -1.02997 0
M  V30 4992 H 454.286 -1.48039 -0.501414 0
M  V30 4993 H 455.021 -1.18547 -3.01856 0
M  V30 4994 H 454.806 -2.91508 -2.62231 0
M  V30 4995 H 456.296 -2.36215 -3.44372 0
M  V30 4996 N 456.733 0.527833 -1.48498 0
M  V30 4997 C 457.663 1.64136 -1.66077 0
M  V30 4998 C 458.644 1.62286 -0.509625 0
M  V30 4999 O 459.829 1.79449 -0.742413 0
M  V30 5000 C 456.959 3.02717 -1.70234 0
M  V30 5001 C 455.913 3.19426 -2.8487 0
M  V30 5002 C 455.239 4.5909 -2.74118 0
M  V30 5003 C 456.539 3.01993 -4.26142 0
M  V30 5004 H 458.233 1.4968 -2.593 0
M  V30 5005 H 455.779 0.718654 -1.24785 0
M  V30 5006 H 457.732 3.80491 -1.8112 0
M  V30 5007 H 456.456 3.18201 -0.735911 0
M  V30 5008 H 455.115 2.4407 -2.73542 0
M  V30 5009 H 454.763 4.71413 -1.7544 0
M  V30 5010 H 454.463 4.71214 -3.51042 0
M  V30 5011 H 455.987 5.3896 -2.86974 0
M  V30 5012 H 457.401 3.69558 -4.38292 0
M  V30 5013 H 455.798 3.2561 -5.04082 0
M  V30 5014 H 456.868 1.98396 -4.42456 0
M  V30 5015 N 458.211 1.37122 0.776871 0
M  V30 5016 C 459.439 1.3523 1.5659 0
M  V30 5017 C 459.854 -0.0635518 1.88693 0
M  V30 5018 O 459.211 -1.02394 1.51069 0
M  V30 5019 C 459.262 2.18583 2.8793 0
M  V30 5020 O 458.983 3.5465 2.57206 0
M  V30 5021 C 460.484 2.24612 3.82183 0
M  V30 5022 H 457.704 0.4634 0.485285 0
M  V30 5023 H 460.248 1.80392 0.963266 0
M  V30 5024 H 458.403 1.76943 3.4463 0
M  V30 5025 H 458.817 3.98286 3.41275 0
M  V30 5026 H 460.291 2.87267 4.71361 0
M  V30 5027 H 460.768 1.25309 4.20944 0
M  V30 5028 H 461.374 2.66543 3.31414 0
M  V30 5029 N 459.689 -1.00246 1.21608 0
M  V30 5030 C 460.935 -1.74319 1.03638 0
M  V30 5031 C 461.268 -1.89408 -0.428749 0
M  V30 5032 O 460.543 -1.43026 -1.3181 0
M  V30 5033 C 460.826 -3.15431 1.73711 0
M  V30 5034 C 460.679 -3.08049 3.27759 0
M  V30 5035 C 461.998 -4.14407 1.48173 0
M  V30 5036 H 459.117 -0.632741 0.377899 0
M  V30 5037 H 461.759 -1.16853 1.49818 0
M  V30 5038 H 459.909 -3.64493 1.34452 0
M  V30 5039 H 461.581 -2.66681 3.76403 0
M  V30 5040 H 459.824 -2.45088 3.57931 0
M  V30 5041 H 460.495 -4.07862 3.71958 0
M  V30 5042 H 462.971 -3.74061 1.82258 0
M  V30 5043 H 461.847 -5.11279 1.99713 0
M  V30 5044 H 462.108 -4.40174 0.412273 0
M  V30 5045 N 461.167 -1.02423 -1.1978 0
M  V30 5046 C 462.097 -0.62157 -2.25075 0
M  V30 5047 C 463.078 0.367148 -1.6609 0
M  V30 5048 O 464.263 0.250892 -1.92573 0
M  V30 5049 C 461.393 0.0331826 -3.47284 0
M  V30 5050 C 460.347 -0.877323 -4.18912 0
M  V30 5051 C 459.673 -0.0879296 -5.34628 0
M  V30 5052 C 460.973 -2.18892 -4.74219 0
M  V30 5053 H 462.667 -1.50179 -2.59011 0
M  V30 5054 H 460.213 -0.723547 -1.24502 0
M  V30 5055 H 462.166 0.326488 -4.20133 0
M  V30 5056 H 460.89 0.948164 -3.12534 0
M  V30 5057 H 459.549 -1.15475 -3.47938 0
M  V30 5058 H 459.197 0.828941 -4.96123 0
M  V30 5059 H 458.897 -0.694359 -5.83483 0
M  V30 5060 H 460.421 0.198743 -6.10276 0
M  V30 5061 H 461.835 -1.95746 -5.38847 0
M  V30 5062 H 460.232 -2.74686 -5.33542 0
M  V30 5063 H 461.302 -2.84674 -3.92541 0
M  V30 5064 N 462.645 1.35699 -0.801477 0
M  V30 5065 C 463.608 2.28199 -0.213994 0
M  V30 5066 C 464.608 1.49359 0.595691 0
M  V30 5067 O 465.798 1.69186 0.414921 0
M  V30 5068 C 462.93 3.33587 0.702297 0
M  V30 5069 H 464.123 2.81666 -1.02976 0
M  V30 5070 H 461.676 1.45467 -0.571759 0
M  V30 5071 H 462.411 2.85297 1.54195 0
M  V30 5072 H 462.196 3.91906 0.123484 0
M  V30 5073 H 463.686 4.02638 1.10783 0
M  V30 5074 N 464.123 0.554532 1.47522 0
M  V30 5075 C 465.348 0.0322661 2.07375 0
M  V30 5076 C 465.773 -1.25079 1.40488 0
M  V30 5077 O 465.131 -1.74859 0.47896 0
M  V30 5078 C 465.179 -0.149397 3.6029 0
M  V30 5079 O 464.283 -1.21259 3.9417 0
M  V30 5080 H 463.624 0.0501228 0.662106 0
M  V30 5081 H 466.154 0.769452 1.8958 0
M  V30 5082 H 466.164 -0.364437 4.06369 0
M  V30 5083 H 464.839 0.787743 4.08372 0
M  V30 5084 H 463.416 -0.97825 3.5984 0
M  V30 5085 N 465.601 -1.54893 0.290851 0
M  V30 5086 C 466.847 -2.0023 -0.321867 0
M  V30 5087 C 467.18 -1.179 -1.54316 0
M  V30 5088 O 466.455 -0.25293 -1.92848 0
M  V30 5089 C 466.738 -3.53456 -0.688515 0
M  V30 5090 C 466.591 -4.46532 0.541209 0
M  V30 5091 C 467.91 -4.13057 -1.51895 0
M  V30 5092 H 465.029 -0.727891 -0.115515 0
M  V30 5093 H 467.671 -1.85722 0.400931 0
M  V30 5094 H 465.821 -3.6595 -1.30433 0
M  V30 5095 H 467.493 -4.4596 1.17973 0
M  V30 5096 H 465.736 -4.17545 1.17636 0
M  V30 5097 H 466.407 -5.51475 0.240675 0
M  V30 5098 H 468.883 -4.03937 -0.99872 0
M  V30 5099 H 467.759 -5.20448 -1.74429 0
M  V30 5100 H 468.02 -3.64284 -2.50498 0
M  V30 5101 N 467.08 -0.0183926 -1.57589 0
M  V30 5102 C 468.496 0.337897 -1.55982 0
M  V30 5103 C 468.696 1.73604 -1.02294 0
M  V30 5104 O 467.752 2.43589 -0.664895 0
M  V30 5105 C 469.065 0.196305 -3.00059 0
M  V30 5106 C 470.613 0.269875 -3.11834 0
M  V30 5107 C 471.088 0.157197 -4.5773 0
M  V30 5108 N 472.579 0.214521 -4.62703 0
M  V30 5109 C 473.314 0.150955 -5.73201 0
M  V30 5110 N 472.81 0.0369212 -6.9279 0
M  V30 5111 N 474.603 0.204162 -5.61729 0
M  V30 5112 H 466.754 -0.93279 -1.90821 0
M  V30 5113 H 469.017 -0.359253 -0.877292 0
M  V30 5114 H 468.723 -0.766383 -3.43248 0
M  V30 5115 H 468.597 0.970908 -3.6449 0
M  V30 5116 H 470.984 1.22302 -2.68563 0
M  V30 5117 H 471.065 -0.534918 -2.50144 0
M  V30 5118 H 470.709 -0.792479 -5.01679 0
M  V30 5119 H 470.639 0.980717 -5.17387 0
M  V30 5120 H 473.13 0.303238 -3.76681 0
M  V30 5121 H 473.443 -0.00518321 -7.728 0
M  V30 5122 H 471.788 0.0022886 -6.95 0
M  V30 5123 H 474.979 0.291575 -4.67191 0
M  V30 5124 H 475.152 0.15116 -6.47824 0
M  V30 5125 N 468.558 1.5553 0.254621 0
M  V30 5126 C 469.807 1.76202 0.981612 0
M  V30 5127 C 470.12 0.580883 1.86776 0
M  V30 5128 O 471.326 0.670448 2.63092 0
M  V30 5129 C 469.782 3.11921 1.79537 0
M  V30 5130 C 469.39 4.37659 0.956991 0
M  V30 5131 C 471.134 3.41936 2.51555 0
M  V30 5132 C 469.041 5.64411 1.76619 0
M  V30 5133 H 467.971 0.656841 0.370237 0
M  V30 5134 H 470.622 1.81969 0.236556 0
M  V30 5135 H 469.004 3.00241 2.58208 0
M  V30 5136 H 470.178 4.60307 0.21315 0
M  V30 5137 H 468.493 4.14922 0.350497 0
M  V30 5138 H 471.09 4.33849 3.12536 0
M  V30 5139 H 471.433 2.62905 3.22779 0
M  V30 5140 H 471.966 3.54797 1.799 0
M  V30 5141 H 468.705 6.46241 1.09783 0
M  V30 5142 H 468.225 5.45877 2.48551 0
M  V30 5143 H 469.904 6.03386 2.33527 0
M  V30 5144 N 470.036 -0.519951 1.48776 0
M  V30 5145 C 471.266 -1.29783 1.60748 0
M  V30 5146 C 471.674 -1.87253 0.27072 0
M  V30 5147 O 471.017 -1.67628 -0.751438 0
M  V30 5148 C 471.079 -2.47984 2.60277 0
M  V30 5149 C 470.743 -2.11526 4.051 0
M  V30 5150 C 471.74 -1.66608 4.92481 0
M  V30 5151 C 469.425 -2.21742 4.50706 0
M  V30 5152 C 471.419 -1.32384 6.23501 0
M  V30 5153 C 469.106 -1.87129 5.81744 0
M  V30 5154 C 470.104 -1.42523 6.67964 0
M  V30 5155 O 469.792 -1.0837 7.96562 0
M  V30 5156 H 469.524 -0.400562 0.544542 0
M  V30 5157 H 472.078 -0.632879 1.95407 0
M  V30 5158 H 470.308 -3.17493 2.2076 0
M  V30 5159 H 471.997 -3.10036 2.61978 0
M  V30 5160 H 472.763 -1.58178 4.58481 0
M  V30 5161 H 468.642 -2.55415 3.83776 0
M  V30 5162 H 472.186 -0.974949 6.90754 0
M  V30 5163 H 468.083 -1.95204 6.15277 0
M  V30 5164 H 468.851 -1.21681 8.09405 0
M  V30 5165 N 471.514 -1.37532 -0.769588 0
M  V30 5166 C 472.744 -1.35861 -1.55645 0
M  V30 5167 C 473.152 0.0574398 -1.89113 0
M  V30 5168 O 472.495 1.03021 -1.52093 0
M  V30 5169 C 472.557 -2.13431 -2.89288 0
M  V30 5170 C 472.221 -3.62378 -2.78444 0
M  V30 5171 C 473.218 -4.56215 -2.49326 0
M  V30 5172 C 470.903 -4.05529 -2.96398 0
M  V30 5173 C 472.897 -5.91181 -2.38294 0
M  V30 5174 C 470.584 -5.40579 -2.84987 0
M  V30 5175 C 471.582 -6.33218 -2.55975 0
M  V30 5176 O 471.27 -7.65787 -2.44594 0
M  V30 5177 H 471.002 -0.467001 -0.48876 0
M  V30 5178 H 473.556 -1.81505 -0.961515 0
M  V30 5179 H 471.786 -1.62481 -3.50909 0
M  V30 5180 H 473.475 -2.04368 -3.50697 0
M  V30 5181 H 474.241 -4.24187 -2.35139 0
M  V30 5182 H 470.12 -3.33781 -3.1798 0
M  V30 5183 H 473.664 -6.63457 -2.15571 0
M  V30 5184 H 469.561 -5.72209 -2.98743 0
M  V30 5185 H 470.329 -7.76132 -2.59927 0
M  V30 5186 N 472.992 0.995999 -1.22138 0
M  V30 5187 C 473.924 2.08745 -0.946485 0
M  V30 5188 C 474.937 1.62633 0.0737356 0
M  V30 5189 O 476.126 1.77782 -0.159886 0
M  V30 5190 C 473.226 3.36516 -0.401305 0
M  V30 5191 C 472.399 4.11672 -1.47801 0
M  V30 5192 C 471.458 5.17728 -0.940461 0
M  V30 5193 O 470.484 5.45482 -1.62596 0
M  V30 5194 N 471.686 5.80005 0.239723 0
M  V30 5195 H 474.451 2.32908 -1.88611 0
M  V30 5196 H 472.012 1.16152 -1.12785 0
M  V30 5197 H 474.004 4.04691 -0.0270837 0
M  V30 5198 H 472.574 3.0944 0.443354 0
M  V30 5199 H 471.794 3.38171 -2.02568 0
M  V30 5200 H 473.082 4.58657 -2.20253 0
M  V30 5201 H 472.48 5.5982 0.813518 0
M  V30 5202 H 471.037 6.4943 0.555361 0
M  V30 5203 N 474.47 1.03057 1.19235 0
M  V30 5204 C 475.7 0.746613 1.92638 0
M  V30 5205 C 476.108 -0.698708 1.75826 0
M  V30 5206 O 475.451 -1.487 1.07861 0
M  V30 5207 C 475.513 1.02024 3.44719 0
M  V30 5208 C 475.177 2.45745 3.85303 0
M  V30 5209 C 476.174 3.43887 3.8992 0
M  V30 5210 C 473.859 2.8019 4.16892 0
M  V30 5211 C 475.853 4.74529 4.2556 0
M  V30 5212 C 473.54 4.1104 4.52205 0
M  V30 5213 C 474.538 5.0802 4.56513 0
M  V30 5214 O 474.226 6.36527 4.91008 0
M  V30 5215 H 473.958 0.272401 0.618687 0
M  V30 5216 H 476.512 1.37853 1.52269 0
M  V30 5217 H 474.742 0.331184 3.85279 0
M  V30 5218 H 476.431 0.725677 3.9936 0
M  V30 5219 H 477.197 3.18614 3.65664 0
M  V30 5220 H 473.076 2.05382 4.12722 0
M  V30 5221 H 476.62 5.50222 4.28838 0
M  V30 5222 H 472.517 4.36086 4.7592 0
M  V30 5223 H 473.285 6.41025 5.08949 0
M  V30 5224 N 475.948 -1.35272 0.808662 0
M  V30 5225 C 477.364 -1.51806 0.492653 0
M  V30 5226 C 477.564 -1.7574 -0.985778 0
M  V30 5227 O 476.62 -1.80003 -1.77074 0
M  V30 5228 C 477.933 -2.69202 1.33981 0
M  V30 5229 C 479.481 -2.8308 1.33547 0
M  V30 5230 C 479.956 -4.03502 2.16679 0
M  V30 5231 N 481.447 -4.10684 2.14227 0
M  V30 5232 C 482.182 -5.02984 2.75308 0
M  V30 5233 N 481.678 -6.00603 3.45323 0
M  V30 5234 N 483.471 -4.95746 2.64938 0
M  V30 5235 H 475.622 -1.17993 1.76611 0
M  V30 5236 H 477.885 -0.577476 0.751814 0
M  V30 5237 H 477.591 -2.581 2.38909 0
M  V30 5238 H 477.465 -3.63854 0.994491 0
M  V30 5239 H 479.852 -2.93631 0.294036 0
M  V30 5240 H 479.933 -1.89278 1.72068 0
M  V30 5241 H 479.577 -3.93711 3.20864 0
M  V30 5242 H 479.507 -4.96489 1.75517 0
M  V30 5243 H 481.998 -3.40802 1.63285 0
M  V30 5244 H 482.311 -6.67633 3.89212 0
M  V30 5245 H 480.656 -6.0077 3.49428 0
M  V30 5246 H 483.847 -4.18439 2.09825 0
M  V30 5247 H 484.02 -5.67487 3.12829 0
M  V30 5248 N 477.426 -0.562348 -1.47226 0
M  V30 5249 C 478.842 -0.222492 -1.58042 0
M  V30 5250 C 479.042 1.27505 -1.56028 0
M  V30 5251 O 478.098 2.05555 -1.46641 0
M  V30 5252 C 479.411 -0.853694 -2.88327 0
M  V30 5253 C 480.959 -0.825397 -3.01921 0
M  V30 5254 C 481.434 -1.43576 -4.34914 0
M  V30 5255 N 482.925 -1.39918 -4.41562 0
M  V30 5256 C 483.66 -1.84103 -5.43041 0
M  V30 5257 N 483.156 -2.36167 -6.51304 0
M  V30 5258 N 484.949 -1.75142 -5.34118 0
M  V30 5259 H 477.1 -1.53525 -1.46778 0
M  V30 5260 H 479.363 -0.640527 -0.698877 0
M  V30 5261 H 479.069 -1.90635 -2.95552 0
M  V30 5262 H 478.943 -0.34977 -3.75575 0
M  V30 5263 H 481.33 0.218583 -2.94289 0
M  V30 5264 H 481.411 -1.36713 -2.16202 0
M  V30 5265 H 481.055 -2.47884 -4.43301 0
M  V30 5266 H 480.985 -0.869427 -5.19373 0
M  V30 5267 H 483.476 -1.0184 -3.63919 0
M  V30 5268 H 483.789 -2.67793 -7.24919 0
M  V30 5269 H 482.134 -2.40181 -6.52179 0
M  V30 5270 H 485.325 -1.34241 -4.48439 0
M  V30 5271 H 485.498 -2.09895 -6.13065 0
M  V30 5272 N 478.904 1.54736 -0.299062 0
M  V30 5273 C 480.15 2.00397 0.311244 0
M  V30 5274 C 480.483 1.18716 1.53688 0
M  V30 5275 O 479.758 0.263154 1.92712 0
M  V30 5276 C 480.041 3.53817 0.669761 0
M  V30 5277 C 479.894 4.46239 -0.564882 0
M  V30 5278 C 481.213 4.13856 1.49702 0
M  V30 5279 H 478.332 0.728493 0.111653 0
M  V30 5280 H 480.974 1.85506 -0.410774 0
M  V30 5281 H 479.124 3.66637 1.28491 0
M  V30 5282 H 480.796 4.45328 -1.20337 0
M  V30 5283 H 479.039 4.16916 -1.19849 0
M  V30 5284 H 479.71 5.5134 -0.269918 0
M  V30 5285 H 482.186 4.04461 0.977284 0
M  V30 5286 H 481.062 5.21365 1.71666 0
M  V30 5287 H 481.323 3.65608 2.48563 0
M  V30 5288 N 480.382 0.0267497 1.57577 0
M  V30 5289 C 481.329 -0.955894 2.10075 0
M  V30 5290 C 482.299 -1.32453 1.00226 0
M  V30 5291 O 483.484 -1.41826 1.27632 0
M  V30 5292 C 480.624 -2.2338 2.6305 0
M  V30 5293 C 479.737 -1.92183 3.86898 0
M  V30 5294 C 478.872 -3.14251 4.28275 0
M  V30 5295 C 477.911 -2.78862 5.44888 0
M  V30 5296 N 477.048 -3.93548 5.81433 0
M  V30 5297 H 481.888 -0.501303 2.93753 0
M  V30 5298 H 479.425 -0.235847 1.45197 0
M  V30 5299 H 481.383 -2.98124 2.91853 0
M  V30 5300 H 480.013 -2.6646 1.82205 0
M  V30 5301 H 479.065 -1.07692 3.64838 0
M  V30 5302 H 480.377 -1.62117 4.7172 0
M  V30 5303 H 479.531 -3.97317 4.58502 0
M  V30 5304 H 478.27 -3.47476 3.42215 0
M  V30 5305 H 477.275 -1.94208 5.14357 0
M  V30 5306 H 478.5 -2.46855 6.32645 0
M  V30 5307 H 476.446 -4.2662 4.98328 0
M  V30 5308 H 476.363 -3.67098 6.6089 0
M  V30 5309 H 477.631 -4.77325 6.16264 0
M  V30 5310 N 481.861 -1.55662 -0.24637 0
M  V30 5311 C 483.272 -1.67953 -0.81539 0
M  V30 5312 C 483.623 -0.624302 -1.86002 0
M  V30 5313 O 482.748 0.229328 -2.15181 0
M  V30 5314 C 483.343 -3.04484 -1.48576 0
M  V30 5315 C 481.902 -3.18713 -2.00248 0
M  V30 5316 C 481.049 -2.6383 -0.853766 0
M  V30 5317 H 484 -1.58685 -0.0221692 0
M  V30 5318 H 484.021 -2.98959 -2.3538 0
M  V30 5319 H 483.533 -3.81264 -0.725222 0
M  V30 5320 H 481.634 -2.46757 -2.79181 0
M  V30 5321 H 481.747 -4.25628 -2.1995 0
M  V30 5322 H 480.111 -2.21667 -1.25442 0
M  V30 5323 H 480.894 -3.43135 -0.106302 0
M  V30 5324 N 483.339 0.512053 -1.4905 0
M  V30 5325 C 484.585 1.26874 -1.58212 0
M  V30 5326 C 484.918 1.9241 -0.263073 0
M  V30 5327 O 484.193 1.80181 0.732476 0
M  V30 5328 C 484.476 2.34428 -2.73341 0
M  V30 5329 C 484.329 1.73466 -4.15006 0
M  V30 5330 C 485.648 3.36073 -2.84154 0
M  V30 5331 H 482.767 0.459924 -0.575881 0
M  V30 5332 H 485.409 0.568587 -1.81293 0
M  V30 5333 H 483.559 2.94146 -2.53792 0
M  V30 5334 H 485.231 1.17661 -4.46042 0
M  V30 5335 H 483.474 1.03921 -4.21168 0
M  V30 5336 H 484.145 2.51426 -4.91415 0
M  V30 5337 H 486.621 2.86332 -3.01916 0
M  V30 5338 H 485.497 4.08703 -3.66406 0
M  V30 5339 H 485.758 3.97725 -1.93048 0
M  V30 5340 N 484.817 1.37938 0.762283 0
M  V30 5341 C 486.045 1.36883 1.55147 0
M  V30 5342 C 486.46 -0.0435348 1.8875 0
M  V30 5343 O 485.817 -1.00786 1.52146 0
M  V30 5344 C 485.868 2.21624 2.85596 0
M  V30 5345 O 485.589 3.57358 2.5343 0
M  V30 5346 C 487.09 2.28653 3.7978 0
M  V30 5347 H 484.31 0.468521 0.480343 0
M  V30 5348 H 486.854 1.81404 0.944079 0
M  V30 5349 H 485.009 1.80588 3.42734 0
M  V30 5350 H 485.423 4.01883 3.37032 0
M  V30 5351 H 486.897 2.9225 4.68288 0
M  V30 5352 H 487.374 1.29767 4.19592 0
M  V30 5353 H 487.98 2.70043 3.28568 0
M  V30 5354 N 486.295 -0.989507 1.22664 0
M  V30 5355 C 487.711 -1.25395 0.987331 0
M  V30 5356 C 487.911 -1.9899 -0.317056 0
M  V30 5357 O 486.967 -2.30141 -1.03882 0
M  V30 5358 C 488.28 -2.06242 2.18826 0
M  V30 5359 C 489.828 -2.19413 2.23219 0
M  V30 5360 C 490.303 -3.03648 3.42873 0
M  V30 5361 N 491.794 -3.11234 3.43056 0
M  V30 5362 C 492.529 -3.7671 4.32293 0
M  V30 5363 N 492.025 -4.44085 5.31752 0
M  V30 5364 N 493.818 -3.73505 4.2006 0
M  V30 5365 H 485.969 -0.496212 2.06522 0
M  V30 5366 H 488.232 -0.281784 0.905153 0
M  V30 5367 H 487.938 -1.59531 3.13437 0
M  V30 5368 H 487.812 -3.06996 2.19165 0
M  V30 5369 H 490.199 -2.65336 1.29154 0
M  V30 5370 H 490.28 -1.18078 2.26917 0
M  V30 5371 H 489.924 -2.58424 4.37241 0
M  V30 5372 H 489.854 -4.05132 3.36416 0
M  V30 5373 H 492.345 -2.63287 2.71088 0
M  V30 5374 H 492.658 -4.91797 5.96117 0
M  V30 5375 H 491.003 -4.42822 5.35662 0
M  V30 5376 H 494.194 -3.20033 3.41609 0
M  V30 5377 H 494.367 -4.24253 4.8981 0
M  V30 5378 N 487.773 -1.03688 -1.18687 0
M  V30 5379 C 488.683 -0.634908 -2.25845 0
M  V30 5380 C 489.699 0.337065 -1.70704 0
M  V30 5381 O 490.875 0.192943 -2.00474 0
M  V30 5382 C 487.94 -0.000180054 -3.467 0
M  V30 5383 C 487.001 -1.02067 -4.1699 0
M  V30 5384 C 486.234 -0.41614 -5.32075 0
M  V30 5385 O 486.457 0.778712 -5.65059 0
M  V30 5386 O 485.391 -1.14296 -5.90948 0
M  V30 5387 H 489.217 -1.52757 -2.62486 0
M  V30 5388 H 486.802 -0.807533 -1.25695 0
M  V30 5389 H 488.684 0.353342 -4.19916 0
M  V30 5390 H 487.359 0.866367 -3.11891 0
M  V30 5391 H 486.266 -1.42592 -3.45859 0
M  V30 5392 H 487.599 -1.85786 -4.5579 0
M  V30 5393 N 489.251 1.34841 -0.815825 0
M  V30 5394 C 490.5 1.97755 -0.396976 0
M  V30 5395 C 490.813 1.65422 1.04379 0
M  V30 5396 O 492.019 2.21771 1.5662 0
M  V30 5397 C 490.475 3.53818 -0.658869 0
M  V30 5398 C 490.083 3.95051 -2.11278 0
M  V30 5399 C 491.827 4.23397 -0.305834 0
M  V30 5400 C 489.734 5.43997 -2.31994 0
M  V30 5401 H 488.664 0.739985 -0.1447 0
M  V30 5402 H 491.315 1.53781 -1.00118 0
M  V30 5403 H 489.697 3.95997 0.0154112 0
M  V30 5404 H 490.871 3.63998 -2.82564 0
M  V30 5405 H 489.186 3.38388 -2.42657 0
M  V30 5406 H 491.783 5.32899 -0.43854 0
M  V30 5407 H 492.126 4.09508 0.748952 0
M  V30 5408 H 492.659 3.8667 -0.934403 0
M  V30 5409 H 489.398 5.62865 -3.35952 0
M  V30 5410 H 488.918 5.76589 -1.65244 0
M  V30 5411 H 490.597 6.10584 -2.14001 0
M  V30 5412 N 490.729 0.570148 1.46925 0
M  V30 5413 C 491.975 0.0510284 2.02736 0
M  V30 5414 C 492.308 -1.3006 1.44215 0
M  V30 5415 O 491.583 -1.84932 0.602521 0
M  V30 5416 C 491.866 -0.028215 3.60089 0
M  V30 5417 C 491.719 1.35142 4.29018 0
M  V30 5418 C 493.038 -0.735181 4.33916 0
M  V30 5419 H 490.157 0.0200178 0.736728 0
M  V30 5420 H 492.799 0.73493 1.75211 0
M  V30 5421 H 490.949 -0.610648 3.83671 0
M  V30 5422 H 492.621 1.97806 4.16738 0
M  V30 5423 H 490.864 1.9226 3.88868 0
M  V30 5424 H 491.535 1.24857 5.37694 0
M  V30 5425 H 494.011 -0.240519 4.15404 0
M  V30 5426 H 492.887 -0.759622 5.43618 0
M  V30 5427 H 493.148 -1.79397 4.04066 0
M  V30 5428 N 492.207 -1.54576 0.307264 0
M  V30 5429 C 493.456 -1.99442 -0.300976 0
M  V30 5430 C 493.769 -1.19928 -1.5452 0
M  V30 5431 O 494.975 -1.55092 -2.22842 0
M  V30 5432 C 493.431 -3.55084 -0.586809 0
M  V30 5433 C 493.039 -4.43413 0.639438 0
M  V30 5434 C 494.783 -4.0846 -1.1559 0
M  V30 5435 C 492.69 -5.90499 0.326411 0
M  V30 5436 H 491.62 -0.744986 -0.116238 0
M  V30 5437 H 494.271 -1.787 0.416947 0
M  V30 5438 H 492.653 -3.71749 -1.36449 0
M  V30 5439 H 493.827 -4.38522 1.41545 0
M  V30 5440 H 492.142 -4.00842 1.1276 0
M  V30 5441 H 494.739 -5.15926 -1.40445 0
M  V30 5442 H 495.082 -3.59443 -2.10015 0
M  V30 5443 H 495.615 -3.95362 -0.439778 0
M  V30 5444 H 492.354 -6.43676 1.23939 0
M  V30 5445 H 491.874 -5.98382 -0.412212 0
M  V30 5446 H 493.553 -6.46962 -0.0697393 0
M  V30 5447 N 493.685 -0.035106 -1.57561 0
M  V30 5448 C 495.101 0.321334 -1.56332 0
M  V30 5449 C 495.301 1.72509 -1.04129 0
M  V30 5450 O 494.357 2.4287 -0.690694 0
M  V30 5451 C 495.67 0.164469 -3.0025 0
M  V30 5452 C 497.218 0.236786 -3.12103 0
M  V30 5453 C 497.693 0.10864 -4.57871 0
M  V30 5454 N 499.184 0.165433 -4.62904 0
M  V30 5455 C 499.919 0.0901506 -5.73329 0
M  V30 5456 N 499.415 -0.0365606 -6.9279 0
M  V30 5457 N 501.208 0.144572 -5.61914 0
M  V30 5458 H 493.359 -0.952976 -1.89821 0
M  V30 5459 H 495.622 -0.368537 -0.873432 0
M  V30 5460 H 495.328 -0.802746 -3.42416 0
M  V30 5461 H 495.202 0.932194 -3.655 0
M  V30 5462 H 497.589 1.19446 -2.69845 0
M  V30 5463 H 497.67 -0.561419 -2.49563 0
M  V30 5464 H 497.314 -0.845644 -5.00811 0
M  V30 5465 H 497.244 0.925786 -5.18398 0
M  V30 5466 H 499.735 0.263269 -3.76982 0
M  V30 5467 H 500.048 -0.0871487 -7.72751 0
M  V30 5468 H 498.393 -0.0714256 -6.94963 0
M  V30 5469 H 501.584 0.242006 -4.67474 0
M  V30 5470 H 501.757 0.0824413 -6.47948 0
M  V30 5471 N 495.163 1.55791 0.238111 0
M  V30 5472 C 496.44 1.68798 0.98826 0
M  V30 5473 C 496.82 0.577562 2.03045 0
M  V30 5474 O 496.168 -0.41778 2.24648 0
M  V30 5475 C 496.378 3.09454 1.61367 0
M  V30 5476 C 497.726 3.68335 2.11221 0
M  V30 5477 O 498.75 3.1231 1.71292 0
M  V30 5478 O 497.609 4.6657 2.84561 0
M  V30 5479 H 494.703 0.686881 0.460568 0
M  V30 5480 H 497.249 1.68118 0.231202 0
M  V30 5481 H 496.021 3.81726 0.860295 0
M  V30 5482 H 495.644 3.14182 2.4367 0
M  V30 5483 N 496.642 -0.504142 1.49319 0
M  V30 5484 C 498.053 -1.08572 1.51885 0
M  V30 5485 C 498.404 -1.93842 0.303255 0
M  V30 5486 O 497.529 -2.0828 -0.58724 0
M  V30 5487 C 498.124 -1.97574 2.75227 0
M  V30 5488 C 496.683 -2.509 2.80581 0
M  V30 5489 C 495.83 -1.28447 2.45757 0
M  V30 5490 H 498.781 -0.288194 1.56061 0
M  V30 5491 H 498.802 -2.82219 2.55211 0
M  V30 5492 H 498.314 -1.35486 3.63683 0
M  V30 5493 H 496.415 -3.16636 1.96398 0
M  V30 5494 H 496.528 -2.88268 3.82673 0
M  V30 5495 H 494.892 -1.60868 1.97468 0
M  V30 5496 H 495.675 -0.68072 3.36483 0
M  V30 5497 N 498.12 -1.38341 -0.754957 0
M  V30 5498 C 499.35 -1.37504 -1.54195 0
M  V30 5499 C 499.758 0.0373787 -1.89163 0
M  V30 5500 O 499.101 1.01402 -1.53178 0
M  V30 5501 C 499.163 -2.16488 -2.87008 0
M  V30 5502 C 498.827 -3.65311 -2.74585 0
M  V30 5503 C 499.824 -4.58834 -2.44474 0
M  V30 5504 C 497.509 -4.08649 -2.9208 0
M  V30 5505 C 499.503 -5.93675 -2.32011 0
M  V30 5506 C 497.19 -5.43571 -2.79237 0
M  V30 5507 C 498.188 -6.35898 -2.49245 0
M  V30 5508 O 497.876 -7.68338 -2.36458 0
M  V30 5509 H 497.608 -0.472159 -0.483779 0
M  V30 5510 H 500.162 -1.82515 -0.94221 0
M  V30 5511 H 498.392 -1.66194 -3.49166 0
M  V30 5512 H 500.081 -2.08076 -3.4851 0
M  V30 5513 H 500.847 -4.26657 -2.30627 0
M  V30 5514 H 496.726 -3.37134 -3.14422 0
M  V30 5515 H 500.27 -6.65706 -2.08522 0
M  V30 5516 H 496.167 -5.75345 -2.92657 0
M  V30 5517 H 496.935 -7.78845 -2.5168 0
M  V30 5518 N 499.598 0.982988 -1.23187 0
M  V30 5519 C 500.561 2.05649 -1.01198 0
M  V30 5520 C 501.561 1.6078 0.0252464 0
M  V30 5521 O 502.751 1.72878 -0.214243 0
M  V30 5522 C 499.883 3.36744 -0.530656 0
M  V30 5523 H 501.076 2.2659 -1.96461 0
M  V30 5524 H 498.629 1.15602 -1.05195 0
M  V30 5525 H 499.364 3.21492 0.425873 0
M  V30 5526 H 499.149 3.7065 -1.2791 0
M  V30 5527 H 500.639 4.15705 -0.397366 0
M  V30 5528 N 501.076 1.04316 1.18135 0
M  V30 5529 C 502.006 0.657299 2.24058 0
M  V30 5530 C 502.987 -0.340678 1.66654 0
M  V30 5531 O 504.172 -0.220223 1.92947 0
M  V30 5532 C 501.302 0.0220715 3.47293 0
M  V30 5533 C 500.256 0.943857 4.17463 0
M  V30 5534 C 499.582 0.172973 5.3442 0
M  V30 5535 C 500.882 2.26409 4.70677 0
M  V30 5536 H 502.576 1.5428 2.56589 0
M  V30 5537 H 500.122 0.743263 1.23335 0
M  V30 5538 H 502.075 -0.259607 4.206 0
M  V30 5539 H 500.799 -0.898323 3.14003 0
M  V30 5540 H 499.458 1.20996 3.46057 0
M  V30 5541 H 499.106 -0.749907 4.97379 0
M  V30 5542 H 498.806 0.787098 5.82304 0
M  V30 5543 H 500.33 -0.101628 6.10515 0
M  V30 5544 H 501.744 2.04294 5.35665 0
M  V30 5545 H 500.141 2.8314 5.29105 0
M  V30 5546 H 501.211 2.90883 3.87962 0
M  V30 5547 N 502.554 -1.34406 0.822964 0
M  V30 5548 C 503.97 -1.51275 0.508727 0
M  V30 5549 C 504.17 -1.76776 -0.967083 0
M  V30 5550 O 503.226 -1.81871 -1.75155 0
M  V30 5551 C 504.539 -2.67765 1.36829 0
M  V30 5552 C 506.087 -2.81647 1.36542 0
M  V30 5553 C 506.562 -4.01181 2.20947 0
M  V30 5554 N 508.053 -4.08388 2.18571 0
M  V30 5555 C 508.788 -5.00036 2.80627 0
M  V30 5556 N 508.284 -5.96906 3.51674 0
M  V30 5557 N 510.077 -4.92908 2.70181 0
M  V30 5558 H 502.228 -1.16113 1.77852 0
M  V30 5559 H 504.491 -0.56947 0.757897 0
M  V30 5560 H 504.197 -2.55551 2.41633 0
M  V30 5561 H 504.071 -3.62779 1.03303 0
M  V30 5562 H 506.458 -2.93303 0.325163 0
M  V30 5563 H 506.539 -1.87443 1.74066 0
M  V30 5564 H 506.183 -3.90286 3.25022 0
M  V30 5565 H 506.113 -4.94599 1.80774 0
M  V30 5566 H 508.604 -3.39051 1.66891 0
M  V30 5567 H 508.917 -6.63468 3.96271 0
M  V30 5568 H 507.262 -5.9703 3.5578 0
M  V30 5569 H 510.453 -4.1619 2.14251 0
M  V30 5570 H 510.626 -5.64137 3.18831 0
M  V30 5571 N 504.032 -0.577932 -1.46621 0
M  V30 5572 C 505.443 -0.150071 -1.86096 0
M  V30 5573 C 505.794 1.28563 -1.48209 0
M  V30 5574 O 504.919 1.97036 -0.894754 0
M  V30 5575 C 505.514 -0.265576 -3.37758 0
M  V30 5576 C 504.073 0.10738 -3.76247 0
M  V30 5577 C 503.22 -0.603711 -2.70649 0
M  V30 5578 H 506.171 -0.786438 -1.37844 0
M  V30 5579 H 506.192 0.510352 -3.77062 0
M  V30 5580 H 505.704 -1.3106 -3.65301 0
M  V30 5581 H 503.805 1.15272 -3.54321 0
M  V30 5582 H 503.918 -0.26561 -4.78363 0
M  V30 5583 H 502.282 -0.0444884 -2.54661 0
M  V30 5584 H 503.065 -1.65029 -3.01032 0
M  V30 5585 N 505.51 1.54411 -0.315457 0
M  V30 5586 C 506.44 2.27002 0.547039 0
M  V30 5587 C 507.421 1.27492 1.12605 0
M  V30 5588 O 508.606 1.5629 1.15269 0
M  V30 5589 C 505.736 3.02171 1.71201 0
M  V30 5590 C 504.69 4.0895 1.26268 0
M  V30 5591 C 504.016 4.71915 2.51396 0
M  V30 5592 C 505.316 5.20891 0.383419 0
M  V30 5593 H 507.01 2.99343 -0.0584517 0
M  V30 5594 H 504.556 1.4397 -0.0295527 0
M  V30 5595 H 506.509 3.51681 2.32161 0
M  V30 5596 H 505.233 2.27433 2.34397 0
M  V30 5597 H 503.892 3.60312 0.676062 0
M  V30 5598 H 503.54 3.93801 3.12937 0
M  V30 5599 H 503.24 5.44039 2.22026 0
M  V30 5600 H 504.764 5.24195 3.13133 0
M  V30 5601 H 506.178 5.66206 0.899082 0
M  V30 5602 H 504.575 5.99821 0.182857 0
M  V30 5603 H 505.645 4.81324 -0.587821 0
M  V30 5604 N 506.988 0.0434614 1.5754 0
M  V30 5605 C 508.404 -0.313039 1.565 0
M  V30 5606 C 508.604 -1.71954 1.05043 0
M  V30 5607 O 507.66 -2.425 0.703564 0
M  V30 5608 C 508.973 -0.148544 3.00333 0
M  V30 5609 C 510.521 -0.220231 3.12224 0
M  V30 5610 C 510.996 -0.0843565 4.57922 0
M  V30 5611 N 512.487 -0.140881 4.62986 0
M  V30 5612 C 513.222 -0.0597443 5.73369 0
M  V30 5613 N 512.718 0.0733004 6.92761 0
M  V30 5614 N 514.511 -0.11477 5.61983 0
M  V30 5615 H 506.662 0.96303 1.89313 0
M  V30 5616 H 508.925 0.373164 0.871466 0
M  V30 5617 H 508.631 0.820894 3.41986 0
M  V30 5618 H 508.505 -0.912798 3.65989 0
M  V30 5619 H 510.892 -1.18014 2.70475 0
M  V30 5620 H 510.973 0.574646 2.49262 0
M  V30 5621 H 510.617 0.872192 5.00355 0
M  V30 5622 H 510.547 -0.898281 5.18882 0
M  V30 5623 H 513.038 -0.243273 3.77116 0
M  V30 5624 H 513.351 0.128128 7.72694 0
M  V30 5625 H 511.696 0.10828 6.94916 0
M  V30 5626 H 514.887 -0.217212 4.67596 0
M  V30 5627 H 515.06 -0.0480779 6.47982 0
M  V30 5628 N 508.466 -1.55915 -0.229846 0
M  V30 5629 C 509.882 -1.48721 -0.579166 0
M  V30 5630 C 510.082 -0.736976 -1.87539 0
M  V30 5631 O 509.138 -0.273258 -2.51017 0
M  V30 5632 C 510.451 -2.9323 -0.666082 0
M  V30 5633 C 511.999 -3.03701 -0.757267 0
M  V30 5634 C 512.474 -4.49552 -0.8756 0
M  V30 5635 N 513.965 -4.53561 -0.940035 0
M  V30 5636 C 514.7 -5.63683 -1.05116 0
M  V30 5637 N 514.196 -6.83576 -1.12675 0
M  V30 5638 N 515.989 -5.51516 -1.08565 0
M  V30 5639 H 508.14 -2.03123 0.620857 0
M  V30 5640 H 510.403 -0.922898 0.21671 0
M  V30 5641 H 510.109 -3.51032 0.21664 0
M  V30 5642 H 509.983 -3.44668 -1.53243 0
M  V30 5643 H 512.37 -2.45969 -1.63043 0
M  V30 5644 H 512.451 -2.55446 0.134583 0
M  V30 5645 H 512.095 -5.079 -0.00692351 0
M  V30 5646 H 512.025 -4.95506 -1.78274 0
M  V30 5647 H 514.516 -3.67215 -0.892269 0
M  V30 5648 H 514.829 -7.63251 -1.21109 0
M  V30 5649 H 513.174 -6.86303 -1.09603 0
M  V30 5650 H 516.365 -4.5678 -1.02319 0
M  V30 5651 H 516.538 -6.37372 -1.1688 0
M  V30 5652 N 509.944 0.496216 -1.49584 0
M  V30 5653 C 510.874 1.60576 -1.69521 0
M  V30 5654 C 511.855 1.61169 -0.543933 0
M  V30 5655 O 513.04 1.77834 -0.78031 0
M  V30 5656 C 510.17 2.99038 -1.76616 0
M  V30 5657 C 509.124 3.13312 -2.91581 0
M  V30 5658 C 508.45 4.53172 -2.83794 0
M  V30 5659 C 509.75 2.92886 -4.32452 0
M  V30 5660 H 511.444 1.44146 -2.62416 0
M  V30 5661 H 508.99 0.692024 -1.26282 0
M  V30 5662 H 510.943 3.76564 -1.8915 0
M  V30 5663 H 509.667 3.16568 -0.80324 0
M  V30 5664 H 508.326 2.38213 -2.78658 0
M  V30 5665 H 507.974 4.67585 -1.854 0
M  V30 5666 H 507.674 4.63662 -3.60958 0
M  V30 5667 H 509.198 5.32752 -2.98342 0
M  V30 5668 H 510.612 3.60178 -4.46032 0
M  V30 5669 H 509.009 3.14844 -5.10875 0
M  V30 5670 H 510.079 1.88966 -4.46565 0
M  V30 5671 N 511.423 1.38739 0.74761 0
M  V30 5672 C 512.672 1.3459 1.50228 0
M  V30 5673 C 512.985 -0.0595592 1.95509 0
M  V30 5674 O 514.191 -0.22361 2.70578 0
M  V30 5675 C 512.647 2.36377 2.71393 0
M  V30 5676 C 512.255 3.82573 2.33113 0
M  V30 5677 C 513.999 2.41281 3.49262 0
M  V30 5678 C 511.906 4.76032 3.50924 0
M  V30 5679 H 510.836 0.500312 0.564096 0
M  V30 5680 H 513.487 1.64324 0.8167 0
M  V30 5681 H 511.869 1.99694 3.41962 0
M  V30 5682 H 513.043 4.28227 1.70171 0
M  V30 5683 H 511.358 3.80844 1.68365 0
M  V30 5684 H 513.955 3.08301 4.36869 0
M  V30 5685 H 514.298 1.43353 3.9084 0
M  V30 5686 H 514.831 2.76793 2.85711 0
M  V30 5687 H 511.57 5.75177 3.14408 0
M  V30 5688 H 511.09 4.35066 4.12889 0
M  V30 5689 H 512.769 4.94331 4.17427 0
M  V30 5690 N 512.901 -0.976442 1.23707 0
M  V30 5691 C 514.178 -1.69296 0.979699 0
M  V30 5692 C 514.558 -2.0508 -0.500555 0
M  V30 5693 O 513.906 -1.74708 -1.47273 0
M  V30 5694 C 514.116 -2.93143 1.89389 0
M  V30 5695 C 515.464 -3.65572 2.15968 0
M  V30 5696 O 516.488 -3.03184 1.86971 0
M  V30 5697 O 515.347 -4.77859 2.65167 0
M  V30 5698 H 512.441 -0.739708 0.369812 0
M  V30 5699 H 514.987 -1.03131 1.34767 0
M  V30 5700 H 513.759 -2.63327 2.89439 0
M  V30 5701 H 513.382 -3.67044 1.52854 0
M  V30 5702 N 514.379 -1.04941 -1.1758 0
M  V30 5703 C 515.342 -0.652456 -2.19717 0
M  V30 5704 C 516.342 0.294745 -1.58076 0
M  V30 5705 O 517.532 0.0789579 -1.74021 0
M  V30 5706 C 514.664 0.0420712 -3.40874 0
M  V30 5707 H 515.857 -1.55642 -2.5635 0
M  V30 5708 H 513.41 -0.842995 -1.31618 0
M  V30 5709 H 514.145 0.95943 -3.09783 0
M  V30 5710 H 513.93 -0.638844 -3.86861 0
M  V30 5711 H 515.42 0.306 -4.16477 0
M  V30 5712 N 515.857 1.33968 -0.830081 0
M  V30 5713 C 517.087 2.01987 -0.434142 0
M  V30 5714 C 517.495 1.62639 0.96671 0
M  V30 5715 O 516.838 0.831151 1.63822 0
M  V30 5716 C 516.9 3.5648 -0.465018 0
M  V30 5717 C 516.564 4.19176 -1.82045 0
M  V30 5718 C 517.561 4.39181 -2.78237 0
M  V30 5719 C 515.246 4.55792 -2.11089 0
M  V30 5720 C 517.24 4.94937 -4.01642 0
M  V30 5721 C 514.927 5.11258 -3.34752 0
M  V30 5722 C 515.925 5.30775 -4.29845 0
M  V30 5723 O 515.613 5.85064 -5.51322 0
M  V30 5724 H 515.345 0.653847 -0.171639 0
M  V30 5725 H 517.899 1.72066 -1.12171 0
M  V30 5726 H 516.129 3.8569 0.279284 0
M  V30 5727 H 517.818 4.05804 -0.0881334 0
M  V30 5728 H 518.584 4.11249 -2.57097 0
M  V30 5729 H 514.463 4.39901 -1.3787 0
M  V30 5730 H 518.007 5.10086 -4.75876 0
M  V30 5731 H 513.904 5.38619 -3.55753 0
M  V30 5732 H 514.672 6.03489 -5.5294 0
M  V30 5733 N 517.335 0.585699 1.46312 0
M  V30 5734 C 518.298 -0.135673 2.28798 0
M  V30 5735 C 519.298 -0.815988 1.38558 0
M  V30 5736 O 520.488 -0.667487 1.60904 0
M  V30 5737 C 517.62 -1.20163 3.1902 0
M  V30 5738 H 518.813 0.589257 2.94054 0
M  V30 5739 H 516.366 0.343794 1.52472 0
M  V30 5740 H 517.101 -1.95804 2.58517 0
M  V30 5741 H 516.886 -0.718282 3.85465 0
M  V30 5742 H 518.376 -1.70749 3.81096 0
M  V30 5743 N 518.813 -1.54241 0.323641 0
M  V30 5744 C 520.06 -2.0057 -0.27891 0
M  V30 5745 C 520.388 -1.21181 -1.52136 0
M  V30 5746 O 519.643 -0.282043 -1.93657 0
M  V30 5747 C 519.942 -3.5129 -0.658031 0
M  V30 5748 C 519.608 -4.48281 0.485252 0
M  V30 5749 C 518.27 -4.74519 0.799055 0
M  V30 5750 C 520.622 -5.05909 1.25322 0
M  V30 5751 C 517.95 -5.55643 1.88354 0
M  V30 5752 C 520.302 -5.88215 2.32779 0
M  V30 5753 C 518.966 -6.12755 2.64741 0
M  V30 5754 H 518.236 -0.733938 -0.10206 0
M  V30 5755 H 520.883 -1.862 0.447435 0
M  V30 5756 H 519.188 -3.63388 -1.4648 0
M  V30 5757 H 520.885 -3.84578 -1.1358 0
M  V30 5758 H 517.475 -4.27979 0.230593 0
M  V30 5759 H 521.659 -4.8562 1.02404 0
M  V30 5760 H 516.915 -5.72888 2.13564 0
M  V30 5761 H 521.089 -6.31888 2.92729 0
M  V30 5762 H 518.716 -6.75404 3.48904 0
M  V30 5763 N 520.291 -0.0518155 -1.57515 0
M  V30 5764 C 521.707 0.304735 -1.56664 0
M  V30 5765 C 521.907 1.71395 -1.05953 0
M  V30 5766 O 520.963 2.42123 -0.716414 0
M  V30 5767 C 522.276 0.132614 -3.00407 0
M  V30 5768 C 523.824 0.20367 -3.12337 0
M  V30 5769 C 524.299 0.0600706 -4.57961 0
M  V30 5770 N 525.79 0.116326 -4.63054 0
M  V30 5771 C 526.525 0.0293363 -5.73392 0
M  V30 5772 N 526.021 -0.110038 -6.92713 0
M  V30 5773 N 527.814 0.0849651 -5.62036 0
M  V30 5774 H 519.965 -0.973056 -1.888 0
M  V30 5775 H 522.228 -0.377781 -0.869474 0
M  V30 5776 H 521.934 -0.839019 -3.41546 0
M  V30 5777 H 521.808 0.893376 -3.66468 0
M  V30 5778 H 524.195 1.16578 -2.71097 0
M  V30 5779 H 524.276 -0.587857 -2.48954 0
M  V30 5780 H 523.92 -0.898715 -4.99886 0
M  V30 5781 H 523.85 0.87075 -5.19351 0
M  V30 5782 H 526.341 0.22327 -3.7724 0
M  V30 5783 H 526.654 -0.169104 -7.72615 0
M  V30 5784 H 524.999 -0.145132 -6.94848 0
M  V30 5785 H 528.19 0.192411 -4.67704 0
M  V30 5786 H 528.363 0.0137131 -6.47999 0
M  V30 5787 N 521.769 1.56035 0.221574 0
M  V30 5788 C 523.018 1.78245 0.944016 0
M  V30 5789 C 523.331 0.620371 1.85501 0
M  V30 5790 O 524.537 0.726103 2.6161 0
M  V30 5791 C 522.993 3.15659 1.7288 0
M  V30 5792 C 522.601 4.39591 0.863942 0
M  V30 5793 C 524.345 3.47195 2.44246 0
M  V30 5794 C 522.252 5.6803 1.64607 0
M  V30 5795 H 521.182 0.664547 0.356222 0
M  V30 5796 H 523.833 1.8243 0.197904 0
M  V30 5797 H 522.215 3.0565 2.51781 0
M  V30 5798 H 523.389 4.60655 0.115464 0
M  V30 5799 H 521.704 4.15572 0.262407 0
M  V30 5800 H 524.301 4.40381 3.03263 0
M  V30 5801 H 524.644 2.69693 3.1713 0
M  V30 5802 H 525.177 3.58533 1.72334 0
M  V30 5803 H 521.916 6.48425 0.960507 0
M  V30 5804 H 521.436 5.51027 2.36917 0
M  V30 5805 H 523.115 6.08203 2.20675 0
M  V30 5806 N 523.247 -0.488276 1.49845 0
M  V30 5807 C 524.477 -1.26344 1.63465 0
M  V30 5808 C 524.885 -1.86637 0.310379 0
M  V30 5809 O 524.228 -1.69184 -0.715712 0
M  V30 5810 C 524.29 -2.42407 2.65479 0
M  V30 5811 C 523.954 -2.02886 4.09495 0
M  V30 5812 C 524.951 -1.56124 4.95904 0
M  V30 5813 C 522.636 -2.12131 4.55308 0
M  V30 5814 C 524.63 -1.19129 6.26169 0
M  V30 5815 C 522.317 -1.74747 5.85582 0
M  V30 5816 C 523.315 -1.28322 6.70837 0
M  V30 5817 O 523.003 -0.914491 7.98682 0
M  V30 5818 H 522.735 -0.388921 0.552916 0
M  V30 5819 H 525.289 -0.591288 1.96705 0
M  V30 5820 H 523.519 -3.12739 2.27445 0
M  V30 5821 H 525.208 -3.04409 2.68495 0
M  V30 5822 H 525.974 -1.48417 4.61733 0
M  V30 5823 H 521.853 -2.47217 3.89107 0
M  V30 5824 H 525.397 -0.828211 6.92666 0
M  V30 5825 H 521.294 -1.82109 6.19279 0
M  V30 5826 H 522.062 -1.04485 8.11804 0
M  V30 5827 N 524.725 -1.39134 -0.740242 0
M  V30 5828 C 525.973 -1.35803 -1.49673 0
M  V30 5829 C 526.294 0.0470897 -1.94943 0
M  V30 5830 O 525.564 0.997347 -1.68611 0
M  V30 5831 H 524.144 -0.499736 -0.555224 0
M  V30 5832 H 526.806 -1.73947 -0.879107 0
M  V30 5833 H 525.902 -2.0174 -2.38133 0
M  V30 5834 N 526.204 0.969867 -1.24223 0
M  V30 5835 C 527.154 2.04913 -0.999732 0
M  V30 5836 C 528.138 1.60795 0.0580636 0
M  V30 5837 O 529.33 1.76317 -0.155392 0
M  V30 5838 C 526.459 3.37942 -0.604154 0
M  V30 5839 C 525.545 3.88628 -1.69791 0
M  V30 5840 N 525.936 4.12274 -2.93025 0
M  V30 5841 C 524.234 4.17268 -1.57492 0
M  V30 5842 C 524.935 4.53808 -3.63914 0
M  V30 5843 N 523.911 4.58855 -2.91468 0
M  V30 5844 H 527.713 2.21168 -1.93551 0
M  V30 5845 H 525.227 1.15349 -1.14317 0
M  V30 5846 H 527.224 4.14863 -0.411665 0
M  V30 5847 H 525.884 3.23075 0.324465 0
M  V30 5848 H 526.895 3.99789 -3.29225 0
M  V30 5849 H 523.572 4.11346 -0.714175 0
M  V30 5850 H 524.962 4.80534 -4.69614 0
M  V30 5851 N 527.682 1.05563 1.17022 0
M  V30 5852 C 528.928 0.778872 1.87897 0
M  V30 5853 C 529.283 -0.686839 1.79723 0
M  V30 5854 O 528.576 -1.49612 1.19694 0
M  V30 5855 C 528.77 1.19849 3.36706 0
M  V30 5856 C 528.599 2.70345 3.59366 0
M  V30 5857 C 527.369 3.37707 3.75875 0
M  V30 5858 C 529.567 3.68564 3.58699 0
M  V30 5859 N 527.549 4.7703 3.86414 0
M  V30 5860 C 528.92 4.93634 3.75134 0
M  V30 5861 C 530.975 3.6198 3.4187 0
M  V30 5862 C 529.678 6.12907 3.76481 0
M  V30 5863 C 531.704 4.80697 3.44507 0
M  V30 5864 C 531.066 6.04592 3.61453 0
M  V30 5865 H 527.165 0.337297 0.705517 0
M  V30 5866 H 529.749 1.34832 1.40458 0
M  V30 5867 H 527.92 0.656958 3.82804 0
M  V30 5868 H 529.652 0.871172 3.95212 0
M  V30 5869 H 526.407 2.88108 3.75887 0
M  V30 5870 H 526.831 5.49483 3.95471 0
M  V30 5871 H 531.473 2.67154 3.27702 0
M  V30 5872 H 529.191 7.08073 3.89432 0
M  V30 5873 H 532.777 4.77259 3.32738 0
M  V30 5874 H 531.657 6.94916 3.63403 0
M  V30 5875 N 529.16 -1.33526 0.837174 0
M  V30 5876 C 530.406 -1.9813 0.432704 0
M  V30 5877 C 530.739 -1.66168 -1.00508 0
M  V30 5878 O 530.014 -0.94069 -1.70239 0
M  V30 5879 C 530.297 -3.54151 0.651834 0
M  V30 5880 C 530.15 -3.95806 2.13676 0
M  V30 5881 C 531.469 -4.39993 0.0968937 0
M  V30 5882 H 528.588 -0.719713 0.15869 0
M  V30 5883 H 531.23 -1.58193 1.05237 0
M  V30 5884 H 529.38 -3.88301 0.124369 0
M  V30 5885 H 531.052 -3.71921 2.72896 0
M  V30 5886 H 529.295 -3.45599 2.62191 0
M  V30 5887 H 529.966 -5.0447 2.24084 0
M  V30 5888 H 532.442 -4.12479 0.547733 0
M  V30 5889 H 531.318 -5.48186 0.279917 0
M  V30 5890 H 531.579 -4.3066 -0.9992 0
M  V30 5891 N 530.638 -0.59345 -1.46 0
M  V30 5892 C 531.585 0.133618 -2.30413 0
M  V30 5893 C 532.555 0.873736 -1.41262 0
M  V30 5894 O 533.74 0.862279 -1.70204 0
M  V30 5895 C 530.88 1.13434 -3.25924 0
M  V30 5896 C 529.993 0.39656 -4.30176 0
M  V30 5897 C 529.128 1.38575 -5.12806 0
M  V30 5898 C 528.167 0.634984 -6.08797 0
M  V30 5899 N 527.304 1.57276 -6.84258 0
M  V30 5900 H 532.144 -0.592252 -2.92055 0
M  V30 5901 H 529.681 -0.303874 -1.43927 0
M  V30 5902 H 531.639 1.72752 -3.79753 0
M  V30 5903 H 530.269 1.82779 -2.66067 0
M  V30 5904 H 529.321 -0.311861 -3.79119 0
M  V30 5905 H 530.633 -0.189869 -4.98438 0
M  V30 5906 H 529.787 2.05141 -5.70966 0
M  V30 5907 H 528.526 2.00611 -4.44529 0
M  V30 5908 H 527.531 -0.0443925 -5.49782 0
M  V30 5909 H 528.756 0.0198678 -6.79097 0
M  V30 5910 H 526.702 2.18103 -6.18682 0
M  V30 5911 H 526.619 1.03941 -7.48821 0
M  V30 5912 H 527.887 2.22844 -7.46968 0
M  V30 5913 N 532.116 1.54067 -0.331816 0
M  V30 5914 C 533.063 2.24623 0.530372 0
M  V30 5915 C 534.033 1.24009 1.10503 0
M  V30 5916 O 535.218 1.52712 1.14384 0
M  V30 5917 C 532.358 3.01374 1.68129 0
M  V30 5918 C 531.471 4.16821 1.13507 0
M  V30 5919 C 530.606 4.81085 2.25234 0
M  V30 5920 C 529.645 5.88621 1.67903 0
M  V30 5921 N 528.782 6.46713 2.73326 0
M  V30 5922 H 533.622 2.97898 -0.0778607 0
M  V30 5923 H 531.159 1.47014 -0.0501965 0
M  V30 5924 H 533.117 3.44125 2.35868 0
M  V30 5925 H 531.747 2.30419 2.26069 0
M  V30 5926 H 530.799 3.78796 0.348979 0
M  V30 5927 H 532.111 4.94203 0.675633 0
M  V30 5928 H 531.265 5.26846 3.00862 0
M  V30 5929 H 530.004 4.03102 2.74518 0
M  V30 5930 H 529.009 5.42254 0.907773 0
M  V30 5931 H 530.234 6.68506 1.19487 0
M  V30 5932 H 528.18 5.71599 3.21886 0
M  V30 5933 H 528.097 7.19532 2.3197 0
M  V30 5934 H 529.365 6.97129 3.48758 0
M  V30 5935 N 533.594 0.0601682 1.57485 0
M  V30 5936 C 534.842 -0.610386 1.92662 0
M  V30 5937 C 535.163 -1.70849 0.939981 0
M  V30 5938 O 534.433 -1.95895 -0.0137455 0
M  V30 5939 H 533.013 -0.228457 0.711208 0
M  V30 5940 H 535.675 0.115288 1.94559 0
M  V30 5941 H 534.771 -1.0432 2.94149 0
M  V30 5942 N 535.072 -1.5615 -0.213296 0
M  V30 5943 C 536.004 -1.89586 -1.28802 0
M  V30 5944 C 537.017 -0.784844 -1.42633 0
M  V30 5945 O 538.206 -1.06319 -1.43383 0
M  V30 5946 C 535.306 -2.09665 -2.66259 0
M  V30 5947 C 534.479 -3.40726 -2.7427 0
M  V30 5948 C 533.538 -3.50137 -3.92798 0
M  V30 5949 O 532.564 -4.23105 -3.8075 0
M  V30 5950 N 533.766 -2.81886 -5.07465 0
M  V30 5951 H 536.531 -2.82368 -1.00442 0
M  V30 5952 H 534.092 -1.56796 -0.403302 0
M  V30 5953 H 536.084 -2.13268 -3.43946 0
M  V30 5954 H 534.654 -1.23469 -2.87183 0
M  V30 5955 H 533.874 -3.4915 -1.82997 0
M  V30 5956 H 535.162 -4.27048 -2.76599 0
M  V30 5957 H 534.56 -2.22397 -5.2015 0
M  V30 5958 H 533.117 -2.91139 -5.83165 0
M  V30 5959 N 536.55 0.480323 -1.50102 0
M  V30 5960 C 537.482 1.59669 -1.64433 0
M  V30 5961 C 538.495 1.54063 -0.52615 0
M  V30 5962 O 539.684 1.59619 -0.798992 0
M  V30 5963 C 536.784 2.98527 -1.6042 0
M  V30 5964 C 535.957 3.291 -2.88117 0
M  V30 5965 C 535.016 4.47468 -2.76873 0
M  V30 5966 O 534.042 4.4823 -3.50825 0
M  V30 5967 N 535.244 5.48593 -1.89806 0
M  V30 5968 H 538.009 1.47795 -2.60723 0
M  V30 5969 H 535.57 0.66858 -1.4745 0
M  V30 5970 H 537.562 3.75666 -1.50523 0
M  V30 5971 H 536.132 3.04218 -0.719036 0
M  V30 5972 H 535.352 2.40662 -3.12211 0
M  V30 5973 H 536.64 3.46334 -3.72734 0
M  V30 5974 H 536.038 5.50791 -1.2902 0
M  V30 5975 H 534.595 6.24752 -1.85819 0
M  V30 5976 N 538.028 1.39524 0.732853 0
M  V30 5977 C 538.96 1.34318 1.85718 0
M  V30 5978 C 539.973 0.251576 1.60844 0
M  V30 5979 O 541.162 0.510685 1.71039 0
M  V30 5980 C 538.262 1.06334 3.21786 0
M  V30 5981 C 537.435 2.26813 3.73998 0
M  V30 5982 C 536.494 1.95253 4.88634 0
M  V30 5983 O 535.52 2.67957 5.02183 0
M  V30 5984 N 536.722 0.919984 5.73164 0
M  V30 5985 H 539.487 2.3121 1.90688 0
M  V30 5986 H 537.048 1.33654 0.91368 0
M  V30 5987 H 539.04 0.832363 3.96048 0
M  V30 5988 H 537.61 0.181682 3.12072 0
M  V30 5989 H 536.83 2.65849 2.91064 0
M  V30 5990 H 538.118 3.0717 4.05616 0
M  V30 5991 H 537.516 0.317487 5.64808 0
M  V30 5992 H 536.073 0.748905 6.47483 0
M  V30 5993 N 539.506 -0.963266 1.24736 0
M  V30 5994 C 540.454 -2.07985 1.04139 0
M  V30 5995 C 541.448 -1.69381 -0.0250556 0
M  V30 5996 O 542.654 -1.79531 0.129863 0
M  V30 5997 H 539.029 -0.680627 0.319768 0
M  V30 5998 H 541 -2.22517 1.98818 0
M  V30 5999 C 539.749 -3.4123 0.667615 0
M  V30 6000 H 539.072 -3.71397 1.48 0
M  V30 6001 H 540.512 -4.20244 0.563136 0
M  V30 6002 C 538.971 -3.3104 -0.625647 0
M  V30 6003 O 539.501 -3.65334 -1.67016 0
M  V30 6004 N 537.707 -2.84168 -0.608033 0
M  V30 6005 H 537.254 -2.56458 0.242323 0
M  V30 6006 H 537.212 -2.77732 -1.47352 0
M  V30 6007 N 540.985 -1.06182 -1.16461 0
M  V30 6008 C 542.401 -0.785065 -1.38956 0
M  V30 6009 C 542.601 0.616103 -1.9185 0
M  V30 6010 O 541.657 1.37686 -2.11657 0
M  V30 6011 C 542.97 -1.84902 -2.37132 0
M  V30 6012 C 544.518 -1.8724 -2.50819 0
M  V30 6013 C 544.993 -2.92686 -3.52277 0
M  V30 6014 N 546.484 -2.91712 -3.59803 0
M  V30 6015 C 547.219 -3.69949 -4.38093 0
M  V30 6016 N 546.715 -4.58 -5.19815 0
M  V30 6017 N 548.508 -3.58346 -4.33064 0
M  V30 6018 H 540.659 -1.96569 -0.804634 0
M  V30 6019 H 542.922 -0.851747 -0.416211 0
M  V30 6020 H 542.628 -2.85518 -2.0536 0
M  V30 6021 H 542.502 -1.69908 -3.36766 0
M  V30 6022 H 544.889 -0.872827 -2.81897 0
M  V30 6023 H 544.97 -2.06311 -1.51226 0
M  V30 6024 H 544.614 -3.92835 -3.21937 0
M  V30 6025 H 544.544 -2.70864 -4.51598 0
M  V30 6026 H 547.035 -2.27876 -3.01464 0
M  V30 6027 H 547.348 -5.14357 -5.76764 0
M  V30 6028 H 545.693 -4.62056 -5.19162 0
M  V30 6029 H 548.884 -2.88943 -3.68279 0
M  V30 6030 H 549.057 -4.19563 -4.93833 0
M  V30 6031 N 542.463 1.3308 -0.844243 0
M  V30 6032 C 543.426 2.27403 -0.286485 0
M  V30 6033 C 544.426 1.51179 0.547872 0
M  V30 6034 O 545.616 1.70421 0.360886 0
M  V30 6035 C 542.748 3.35653 0.595813 0
M  V30 6036 H 543.941 2.78248 -1.11885 0
M  V30 6037 H 541.494 1.43574 -0.617749 0
M  V30 6038 H 542.229 2.90058 1.4504 0
M  V30 6039 H 542.014 3.921 -0.00125994 0
M  V30 6040 H 543.504 4.05958 0.979168 0
M  V30 6041 N 543.941 0.601185 1.45683 0
M  V30 6042 C 544.904 -0.111398 2.28929 0
M  V30 6043 C 545.904 -0.801246 1.39416 0
M  V30 6044 O 547.094 -0.650383 1.61603 0
M  V30 6045 C 544.226 -1.16773 3.20276 0
M  V30 6046 H 545.419 0.620412 2.93413 0
M  V30 6047 H 542.972 0.359946 1.52099 0
M  V30 6048 H 543.707 -1.93051 2.60579 0
M  V30 6049 H 543.492 -0.677358 3.86205 0
M  V30 6050 H 544.982 -1.66698 3.82886 0
M  V30 6051 N 545.419 -1.53889 0.339982 0
M  V30 6052 C 546.349 -2.27843 -0.510856 0
M  V30 6053 C 547.33 -1.29267 -1.10563 0
M  V30 6054 O 548.515 -1.58104 -1.12768 0
M  V30 6055 C 545.645 -3.04857 -1.66372 0
M  V30 6056 C 544.599 -4.10907 -1.19746 0
M  V30 6057 C 543.925 -4.75855 -2.43857 0
M  V30 6058 C 545.225 -5.21435 -0.300501 0
M  V30 6059 H 546.919 -2.99212 0.106067 0
M  V30 6060 H 544.465 -1.43904 0.0524533 0
M  V30 6061 H 546.418 -3.5533 -2.26537 0
M  V30 6062 H 545.142 -2.31133 -2.30749 0
M  V30 6063 H 543.801 -3.61342 -0.618654 0
M  V30 6064 H 543.449 -3.9873 -3.06633 0
M  V30 6065 H 543.149 -5.47502 -2.13343 0
M  V30 6066 H 544.673 -5.2911 -3.04754 0
M  V30 6067 H 546.087 -5.67565 -0.80889 0
M  V30 6068 H 544.484 -6.00036 -0.0874076 0
M  V30 6069 H 545.554 -4.80328 0.664321 0
M  V30 6070 N 546.897 -0.0685191 -1.57451 0
M  V30 6071 C 548.144 0.601348 -1.93365 0
M  V30 6072 C 548.472 1.69816 -0.948294 0
M  V30 6073 O 547.727 1.95666 0.0366199 0
M  V30 6074 C 548.026 1.22051 -3.35914 0
M  V30 6075 C 547.692 0.250165 -4.50205 0
M  V30 6076 C 546.354 -0.0167954 -4.81197 0
M  V30 6077 C 548.706 -0.413867 -5.19554 0
M  V30 6078 C 546.034 -0.95493 -5.78876 0
M  V30 6079 C 548.386 -1.3403 -6.18238 0
M  V30 6080 C 547.05 -1.61576 -6.47649 0
M  V30 6081 H 546.32 0.220049 -0.707573 0
M  V30 6082 H 548.967 -0.138697 -1.90997 0
M  V30 6083 H 547.272 2.03622 -3.34732 0
M  V30 6084 H 548.969 1.74605 -3.6099 0
M  V30 6085 H 545.559 0.468421 -4.26033 0
M  V30 6086 H 549.743 -0.220733 -4.95809 0
M  V30 6087 H 544.999 -1.17563 -5.99991 0
M  V30 6088 H 549.173 -1.86081 -6.71079 0
M  V30 6089 H 546.8 -2.34431 -7.2315 0
M  V30 6090 N 548.375 1.56261 0.205012 0
M  V30 6091 C 549.285 1.96944 1.27476 0
M  V30 6092 C 550.301 0.875636 1.50362 0
M  V30 6093 O 551.477 1.18058 1.6317 0
M  V30 6094 C 548.542 2.29219 2.60115 0
M  V30 6095 C 547.603 3.52255 2.45387 0
M  V30 6096 C 546.836 3.8298 3.71701 0
M  V30 6097 O 547.059 3.15138 4.75441 0
M  V30 6098 O 545.993 4.76435 3.67823 0
M  V30 6099 H 549.819 2.88144 0.959527 0
M  V30 6100 H 547.404 1.43686 0.409217 0
M  V30 6101 H 549.286 2.51098 3.3842 0
M  V30 6102 H 547.961 1.4119 2.91285 0
M  V30 6103 H 546.868 3.35635 1.65227 0
M  V30 6104 H 548.201 4.40719 2.19152 0
M  V30 6105 N 549.853 -0.472356 1.50355 0
M  V30 6106 C 550.801 -1.59126 1.69651 0
M  V30 6107 C 551.795 -1.59793 0.56237 0
M  V30 6108 O 553.001 -1.63957 0.742832 0
M  V30 6109 H 549.376 -0.528008 0.535454 0
M  V30 6110 H 551.347 -1.40013 2.63513 0
M  V30 6111 C 550.096 -2.97075 1.8067 0
M  V30 6112 H 549.419 -2.9728 2.67329 0
M  V30 6113 H 550.859 -3.74825 1.98197 0
M  V30 6114 C 549.318 -3.32247 0.558016 0
M  V30 6115 O 549.848 -4.00553 -0.303399 0
M  V30 6116 N 548.054 -2.87659 0.412415 0
M  V30 6117 H 547.601 -2.32246 1.11443 0
M  V30 6118 H 547.559 -3.11556 -0.421908 0
M  V30 6119 N 551.331 -1.39911 -0.725443 0
M  V30 6120 C 552.559 -1.40949 -1.51463 0
M  V30 6121 C 552.974 -0.0065242 -1.88799 0
M  V30 6122 O 552.331 0.967163 -1.54765 0
M  V30 6123 C 552.382 -2.29119 -2.79619 0
M  V30 6124 O 552.103 -3.63952 -2.43866 0
M  V30 6125 C 553.604 -2.38642 -3.73584 0
M  V30 6126 H 550.824 -0.481091 -0.467752 0
M  V30 6127 H 553.368 -1.83843 -0.895651 0
M  V30 6128 H 551.523 -1.89612 -3.37826 0
M  V30 6129 H 551.937 -4.10677 -3.26258 0
M  V30 6130 H 553.411 -3.04563 -4.60375 0
M  V30 6131 H 553.888 -1.40846 -4.16004 0
M  V30 6132 H 554.494 -2.78659 -3.21293 0
M  V30 6133 N 552.809 0.956637 -1.25245 0
M  V30 6134 C 554.22 1.51569 -1.09012 0
M  V30 6135 C 554.571 1.93322 0.334813 0
M  V30 6136 O 553.696 1.78421 1.22454 0
M  V30 6137 C 554.291 2.75444 -1.97271 0
M  V30 6138 C 552.85 3.27669 -1.8523 0
M  V30 6139 C 551.997 2.00517 -1.91542 0
M  V30 6140 H 554.948 0.773746 -1.3856 0
M  V30 6141 H 554.969 3.4919 -1.51151 0
M  V30 6142 H 554.481 2.45024 -3.00973 0
M  V30 6143 H 552.582 3.62914 -0.844045 0
M  V30 6144 H 552.695 3.9582 -2.69932 0
M  V30 6145 H 551.059 2.15727 -1.35404 0
M  V30 6146 H 551.842 1.72448 -2.96844 0
M  V30 6147 N 554.287 1.06798 1.15896 0
M  V30 6148 C 555.234 0.683314 2.20453 0
M  V30 6149 C 556.204 -0.32255 1.62938 0
M  V30 6150 O 557.389 -0.210276 1.89638 0
M  V30 6151 C 554.529 0.0813266 3.45004 0
M  V30 6152 C 553.642 1.13799 4.16742 0
M  V30 6153 C 552.777 0.501598 5.28826 0
M  V30 6154 C 551.816 1.54144 5.92373 0
M  V30 6155 N 550.953 0.928038 6.9594 0
M  V30 6156 H 555.793 1.57932 2.52708 0
M  V30 6157 H 553.33 0.789544 1.24115 0
M  V30 6158 H 555.288 -0.285274 4.16224 0
M  V30 6159 H 553.918 -0.77806 3.13283 0
M  V30 6160 H 552.97 1.62223 3.44075 0
M  V30 6161 H 554.282 1.92664 4.60089 0
M  V30 6162 H 553.436 0.0823162 6.06644 0
M  V30 6163 H 552.175 -0.318883 4.86656 0
M  V30 6164 H 551.18 1.97056 5.13273 0
M  V30 6165 H 552.405 2.3641 6.36621 0
M  V30 6166 H 550.351 0.12836 6.55874 0
M  V30 6167 H 550.268 1.65401 7.37685 0
M  V30 6168 H 551.536 0.534071 7.77668 0
M  V30 6169 N 555.766 -1.3263 0.851289 0
M  V30 6170 C 556.729 -2.27247 0.298541 0
M  V30 6171 C 557.729 -1.51467 -0.539847 0
M  V30 6172 O 558.919 -1.7061 -0.351843 0
M  V30 6173 C 556.051 -3.35964 -0.578004 0
M  V30 6174 H 557.244 -2.7765 1.13359 0
M  V30 6175 H 554.797 -1.43245 0.625354 0
M  V30 6176 H 555.532 -2.90823 -1.435 0
M  V30 6177 H 555.317 -3.92094 0.0220539 0
M  V30 6178 H 556.807 -4.06472 -0.957626 0
M  V30 6179 N 557.244 -0.608902 -1.45362 0
M  V30 6180 C 558.49 -0.104762 -2.02529 0
M  V30 6181 C 558.823 1.26191 -1.47613 0
M  V30 6182 O 558.098 1.8327 -0.65134 0
M  V30 6183 C 558.381 -0.0672661 -3.60037 0
M  V30 6184 C 558.234 -1.4647 -4.25284 0
M  V30 6185 C 559.553 0.619877 -4.35713 0
M  V30 6186 H 556.672 -0.0395438 -0.735938 0
M  V30 6187 H 559.314 -0.781126 -1.73201 0
M  V30 6188 H 557.464 0.50871 -3.85155 0
M  V30 6189 H 559.136 -2.08785 -4.11347 0
M  V30 6190 H 557.379 -2.02502 -3.83634 0
M  V30 6191 H 558.05 -1.39069 -5.34195 0
M  V30 6192 H 560.526 0.130297 -4.15896 0
M  V30 6193 H 559.402 0.615224 -5.45441 0
M  V30 6194 H 559.663 1.68621 -4.0868 0
M  V30 6195 N 558.722 1.53707 -0.348139 0
M  V30 6196 C 559.652 2.28111 0.498766 0
M  V30 6197 C 560.633 1.29851 1.09876 0
M  V30 6198 O 561.818 1.587 1.11928 0
M  V30 6199 C 558.948 3.05735 1.64753 0
M  V30 6200 C 557.902 4.11537 1.17565 0
M  V30 6201 C 557.228 4.77142 2.4133 0
M  V30 6202 C 558.528 5.21587 0.272844 0
M  V30 6203 H 560.222 2.99152 -0.121934 0
M  V30 6204 H 557.768 1.43875 -0.0600842 0
M  V30 6205 H 559.721 3.56526 2.24649 0
M  V30 6206 H 558.445 2.32354 2.2952 0
M  V30 6207 H 557.104 3.61665 0.599483 0
M  V30 6208 H 556.752 4.0035 3.04514 0
M  V30 6209 H 556.452 5.48626 2.10436 0
M  V30 6210 H 557.976 5.30719 3.01943 0
M  V30 6211 H 559.39 5.67986 0.778779 0
M  V30 6212 H 557.787 6.00074 0.0555849 0
M  V30 6213 H 558.857 4.79969 -0.689785 0
M  V30 6214 N 560.2 0.0768682 1.57412 0
M  V30 6215 C 561.13 -0.886026 2.16037 0
M  V30 6216 C 562.111 -1.30691 1.08876 0
M  V30 6217 O 563.296 -1.37705 1.36934 0
M  V30 6218 C 560.426 -2.1518 2.72608 0
M  V30 6219 C 559.38 -1.87015 3.8498 0
M  V30 6220 C 558.706 -3.20266 4.28175 0
M  V30 6221 C 560.006 -1.17143 5.08994 0
M  V30 6222 H 561.7 -0.397642 2.96748 0
M  V30 6223 H 559.246 -0.189823 1.42743 0
M  V30 6224 H 561.199 -2.82962 3.12266 0
M  V30 6225 H 559.923 -2.66269 1.89125 0
M  V30 6226 H 558.582 -1.21636 3.45833 0
M  V30 6227 H 558.23 -3.69207 3.41607 0
M  V30 6228 H 557.93 -3.0221 5.03927 0
M  V30 6229 H 559.454 -3.89237 4.70454 0
M  V30 6230 H 560.868 -1.75003 5.45937 0
M  V30 6231 H 559.265 -1.09328 5.90057 0
M  V30 6232 H 560.335 -0.151295 4.84664 0
M  V30 6233 N 561.678 -1.56367 -0.196722 0
M  V30 6234 C 562.903 -1.84991 -0.937714 0
M  V30 6235 C 563.328 -0.660244 -1.76132 0
M  V30 6236 O 562.686 0.390967 -1.77034 0
M  V30 6237 C 562.734 -3.11828 -1.81096 0
M  V30 6238 O 561.838 -2.92266 -2.90955 0
M  V30 6239 H 561.179 -0.609193 -0.264159 0
M  V30 6240 H 563.709 -2.03595 -0.202529 0
M  V30 6241 H 563.719 -3.42579 -2.21594 0
M  V30 6242 H 562.394 -3.98037 -1.2058 0
M  V30 6243 H 560.971 -2.72809 -2.54224 0
M  V30 6244 N 563.156 0.464375 -1.50603 0
M  V30 6245 C 564.086 1.56944 -1.72889 0
M  V30 6246 C 565.067 1.59979 -0.577997 0
M  V30 6247 O 566.252 1.76138 -0.817855 0
M  V30 6248 C 563.382 2.95225 -1.8292 0
M  V30 6249 C 562.336 3.07056 -2.98162 0
M  V30 6250 C 561.662 4.47051 -2.93343 0
M  V30 6251 C 562.962 2.83648 -4.38567 0
M  V30 6252 H 564.656 1.38547 -2.65415 0
M  V30 6253 H 562.202 0.665082 -1.27721 0
M  V30 6254 H 564.155 3.72467 -1.97095 0
M  V30 6255 H 562.879 3.14793 -0.870209 0
M  V30 6256 H 561.538 2.32248 -2.83648 0
M  V30 6257 H 561.186 4.63547 -1.95276 0
M  V30 6258 H 560.886 4.55902 -3.70712 0
M  V30 6259 H 562.41 5.26304 -3.09575 0
M  V30 6260 H 563.824 3.50636 -4.53572 0
M  V30 6261 H 562.221 3.03937 -5.17438 0
M  V30 6262 H 563.291 1.79451 -4.50472 0
M  V30 6263 N 564.634 1.40294 0.718013 0
M  V30 6264 C 565.597 1.4012 1.81381 0
M  V30 6265 C 566.597 0.295405 1.58063 0
M  V30 6266 O 567.787 0.554187 1.6515 0
M  V30 6267 C 564.919 1.19056 3.19435 0
M  V30 6268 H 566.112 2.37645 1.82933 0
M  V30 6269 H 563.665 1.26107 0.923405 0
M  V30 6270 H 564.4 0.222809 3.23534 0
M  V30 6271 H 564.185 1.99152 3.37758 0
M  V30 6272 H 565.675 1.21716 3.99468 0
M  V30 6273 N 566.112 -0.949982 1.2575 0
M  V30 6274 C 567.022 -2.08109 1.08295 0
M  V30 6275 C 568.038 -1.7399 0.0188181 0
M  V30 6276 O 569.214 -2.00187 0.220724 0
M  V30 6277 C 566.279 -3.39383 0.708534 0
M  V30 6278 C 565.34 -3.8734 1.85111 0
M  V30 6279 C 564.573 -5.12349 1.49447 0
M  V30 6280 O 564.796 -5.6905 0.392212 0
M  V30 6281 O 563.73 -5.5513 2.32624 0
M  V30 6282 H 567.556 -2.25738 2.03165 0
M  V30 6283 H 565.141 -1.06545 1.04731 0
M  V30 6284 H 567.023 -4.18277 0.512061 0
M  V30 6285 H 565.698 -3.23013 -0.210854 0
M  V30 6286 H 564.605 -3.09429 2.10248 0
M  V30 6287 H 565.938 -4.08216 2.74991 0
M  V30 6288 N 567.59 -1.07411 -1.15328 0
M  V30 6289 C 568.5 -0.706438 -2.23711 0
M  V30 6290 C 569.516 0.282586 -1.7169 0
M  V30 6291 O 570.692 0.129066 -2.00986 0
M  V30 6292 C 567.757 -0.11048 -3.46524 0
M  V30 6293 C 566.818 -1.15282 -4.13532 0
M  V30 6294 C 566.051 -0.585205 -5.30482 0
M  V30 6295 O 566.274 0.598549 -5.67251 0
M  V30 6296 O 565.208 -1.33039 -5.87013 0
M  V30 6297 H 569.034 -1.61031 -2.57493 0
M  V30 6298 H 566.619 -0.847113 -1.23062 0
M  V30 6299 H 568.501 0.21957 -4.20828 0
M  V30 6300 H 567.176 0.766703 -3.14489 0
M  V30 6301 H 566.083 -1.53523 -3.41147 0
M  V30 6302 H 567.416 -2.00192 -4.49649 0
M  V30 6303 N 569.068 1.32177 -0.85831 0
M  V30 6304 C 570.345 1.91781 -0.384624 0
M  V30 6305 C 570.725 1.78171 1.13217 0
M  V30 6306 O 570.073 1.18209 1.95548 0
M  V30 6307 C 570.283 3.38414 -0.853047 0
M  V30 6308 C 571.631 4.15542 -0.872359 0
M  V30 6309 O 572.655 3.47148 -0.797926 0
M  V30 6310 O 571.514 5.37678 -0.978009 0
M  V30 6311 H 568.608 0.819259 -0.112886 0
M  V30 6312 H 571.154 1.40923 -0.945453 0
M  V30 6313 H 569.926 3.4228 -1.89632 0
M  V30 6314 H 569.549 3.96683 -0.269874 0
M  V30 6315 N 570.547 0.616602 1.45037 0
M  V30 6316 C 571.777 0.121791 2.06241 0
M  V30 6317 C 572.185 -1.20289 1.46038 0
M  V30 6318 O 571.528 -1.7456 0.572242 0
M  V30 6319 C 571.59 -0.0827345 3.59405 0
M  V30 6320 C 571.254 1.16153 4.41993 0
M  V30 6321 C 572.251 2.08183 4.76399 0
M  V30 6322 C 569.936 1.39288 4.82601 0
M  V30 6323 C 571.93 3.21668 5.5028 0
M  V30 6324 C 569.617 2.53073 5.56235 0
M  V30 6325 C 570.615 3.44091 5.89992 0
M  V30 6326 O 570.303 4.55894 6.6213 0
M  V30 6327 H 570.035 0.0701667 0.672349 0
M  V30 6328 H 572.589 0.846877 1.87129 0
M  V30 6329 H 570.819 -0.862812 3.76952 0
M  V30 6330 H 572.508 -0.530273 4.02421 0
M  V30 6331 H 573.274 1.91538 4.45576 0
M  V30 6332 H 569.153 0.693396 4.55755 0
M  V30 6333 H 572.697 3.92733 5.76547 0
M  V30 6334 H 568.594 2.69667 5.86472 0
M  V30 6335 H 569.362 4.5469 6.80587 0
M  V30 6336 O 572.064 -1.53615 0.498481 0
M  V30 6337 H 572.755 -1.9369 -0.0197948 0
M  V30 END ATOM
M  V30 BEGIN BOND
M  V30 END BOND
M  V30 END CTAB
M  END
$$$$
