drugbank_target|Q81ZL8 Integrase, catalytic core (DB05414)
 OpenBabel12092120313D

  0  0  0     0  0            999 V3000
M  V30 BEGIN CTAB
M  V30 COUNTS 5245 5313 0 0 0
M  V30 BEGIN ATOM
M  V30 1 H -0.908 1.98254 -0.117106 0
M  V30 2 N 0 1.576 0 0
M  V30 3 C 0.933 2.03868 1.02534 0
M  V30 4 C 1.911 0.928543 1.3348 0
M  V30 5 O 3.095 1.19667 1.45644 0
M  V30 6 C 0.222 2.43627 2.35294 0
M  V30 7 C -0.732 3.65373 2.2001 0
M  V30 8 S 0.101 5.13292 1.52614 0
M  V30 9 C 1.257 5.56322 2.86805 0
M  V30 10 H 1.49 2.90518 0.631377 0
M  V30 11 H -0.977 1.52953 0.210867 0
M  V30 12 H 0.981 2.67203 3.11629 0
M  V30 13 H -0.358 1.57376 2.7183 0
M  V30 14 H -1.165 3.90944 3.18086 0
M  V30 15 H -1.563 3.418 1.51819 0
M  V30 16 H 0.729 5.58782 3.83104 0
M  V30 17 H 1.672 6.56266 2.65933 0
M  V30 18 H 2.08 4.83886 2.90714 0
M  V30 19 N 1.4781 -0.272755 1.55222 0
M  V30 20 C 2.7261 -1.00234 1.75492 0
M  V30 21 C 3.0471 -1.8681 0.5592 0
M  V30 22 O 2.3171 -1.91215 -0.425882 0
M  V30 23 H 0.8971 -0.373076 0.647166 0
M  V30 24 H 3.5591 -0.296926 1.92625 0
M  V30 25 H 2.6551 -1.63913 2.65592 0
M  V30 26 N 2.9562 -1.48159 -0.537278 0
M  V30 27 C 3.8882 -1.58218 -1.65831 0
M  V30 28 C 4.9012 -0.466948 -1.5596 0
M  V30 29 O 6.0902 -0.73747 -1.62553 0
M  V30 30 C 3.1902 -1.48906 -3.04434 0
M  V30 31 C 2.3632 -2.75343 -3.3986 0
M  V30 32 C 1.4222 -2.59588 -4.57712 0
M  V30 33 O 0.4482 -3.33457 -4.61297 0
M  V30 34 N 1.6502 -1.68724 -5.55439 0
M  V30 35 H 4.4152 -2.54891 -1.57641 0
M  V30 36 H 1.9762 -1.4479 -0.724386 0
M  V30 37 H 3.9682 -1.36072 -3.81139 0
M  V30 38 H 2.5382 -0.602368 -3.06741 0
M  V30 39 H 1.7582 -3.02795 -2.52406 0
M  V30 40 H 3.0462 -3.5924 -3.60311 0
M  V30 41 H 2.4442 -1.07898 -5.55315 0
M  V30 42 H 1.0012 -1.61832 -6.3139 0
M  V30 43 N 4.4343 0.785586 -1.36625 0
M  V30 44 C 5.6833 1.53883 -1.30396 0
M  V30 45 C 5.9963 1.95271 0.113452 0
M  V30 46 O 7.2023 2.69858 0.298142 0
M  V30 47 C 5.6583 2.77808 -2.28802 0
M  V30 48 C 5.2663 2.43574 -3.75999 0
M  V30 49 C 7.0103 3.55783 -2.31558 0
M  V30 50 C 4.9173 3.63919 -4.66173 0
M  V30 51 H 3.8473 0.577678 -0.484566 0
M  V30 52 H 6.4983 0.861705 -1.62009 0
M  V30 53 H 4.8803 3.47339 -1.90188 0
M  V30 54 H 6.0543 1.81916 -4.23371 0
M  V30 55 H 4.3693 1.78803 -3.76056 0
M  V30 56 H 6.9663 4.45205 -2.96137 0
M  V30 57 H 7.3093 3.94644 -1.3252 0
M  V30 58 H 7.8423 2.93235 -2.68809 0
M  V30 59 H 4.5813 3.3015 -5.66287 0
M  V30 60 H 4.1013 4.2473 -4.23515 0
M  V30 61 H 5.7803 4.30901 -4.82632 0
M  V30 62 N 5.9124 1.20967 1.01018 0
M  V30 63 C 6.8424 0.988272 2.11555 0
M  V30 64 C 7.8234 -0.0849778 1.69888 0
M  V30 65 O 9.0084 0.0738202 1.9406 0
M  V30 66 C 6.1384 0.546528 3.42973 0
M  V30 67 C 5.0924 1.56375 3.9841 0
M  V30 68 C 4.4184 0.97842 5.25672 0
M  V30 69 C 5.7184 2.94922 4.31066 0
M  V30 70 H 7.4124 1.91276 2.30334 0
M  V30 71 H 4.9584 0.921073 1.1069 0
M  V30 72 H 6.9114 0.378839 4.19694 0
M  V30 73 H 5.6354 -0.413598 3.23971 0
M  V30 74 H 4.2944 1.71891 3.23804 0
M  V30 75 H 3.9424 0.0101688 5.02999 0
M  V30 76 H 3.6424 1.65784 5.63728 0
M  V30 77 H 5.1664 0.821939 6.05043 0
M  V30 78 H 6.5804 2.8288 4.9865 0
M  V30 79 H 4.9774 3.5983 4.80253 0
M  V30 80 H 6.0474 3.4616 3.39561 0
M  V30 81 N 7.3905 -1.2043 1.01659 0
M  V30 82 C 8.3405 -2.21076 0.557623 0
M  V30 83 C 9.3245 -1.56176 -0.387029 0
M  V30 84 O 10.5165 -1.7575 -0.209996 0
M  V30 85 C 7.6455 -3.43146 -0.102707 0
M  V30 86 C 6.7315 -4.15213 0.863652 0
M  V30 87 N 7.1225 -4.63662 2.02117 0
M  V30 88 C 5.4205 -4.40716 0.684472 0
M  V30 89 C 6.1215 -5.18868 2.62966 0
M  V30 90 N 5.0975 -5.0893 1.91027 0
M  V30 91 H 8.8995 -2.56201 1.44008 0
M  V30 92 H 6.4135 -1.36366 0.881931 0
M  V30 93 H 8.4105 -4.14475 -0.449054 0
M  V30 94 H 7.0705 -3.09526 -0.981003 0
M  V30 95 H 8.0815 -4.58877 2.40109 0
M  V30 96 H 4.7585 -4.17245 -0.14577 0
M  V30 97 H 6.1485 -5.6673 3.60924 0
M  V30 98 N 8.8686 -0.792821 -1.36206 0
M  V30 99 C 10.1166 -0.366062 -1.98757 0
M  V30 100 C 10.4376 1.0668 -1.63231 0
M  V30 101 O 9.7076 1.73587 -0.907978 0
M  V30 102 H 8.2876 -0.132364 -0.735179 0
M  V30 103 H 10.9496 -1.01562 -1.66347 0
M  V30 104 H 10.0456 -0.460638 -3.08682 0
M  V30 105 N 10.3467 1.47872 -0.545128 0
M  V30 106 C 11.5717 2.07391 -0.0190611 0
M  V30 107 C 11.9967 1.39688 1.25971 0
M  V30 108 O 11.3547 0.467816 1.7516 0
M  V30 109 C 11.4027 3.60188 0.172335 0
M  V30 110 O 10.5067 3.9339 1.23766 0
M  V30 111 H 9.8477 0.662411 -0.0459059 0
M  V30 112 H 12.3777 1.90066 -0.757365 0
M  V30 113 H 12.3877 4.06129 0.390305 0
M  V30 114 H 11.0627 4.08865 -0.761725 0
M  V30 115 H 9.6397 3.5921 1.00114 0
M  V30 116 N 11.8248 0.280983 1.55075 0
M  V30 117 C 12.7878 -0.590896 2.21452 0
M  V30 118 C 13.7878 -1.07682 1.19421 0
M  V30 119 O 14.9778 -0.97605 1.44288 0
M  V30 120 C 12.1098 -1.81587 2.88511 0
M  V30 121 H 13.3028 -0.0112554 2.99898 0
M  V30 122 H 10.8558 0.0316438 1.56268 0
M  V30 123 H 11.5908 -2.43587 2.14093 0
M  V30 124 H 11.3758 -1.4753 3.63287 0
M  V30 125 H 12.8658 -2.43575 3.39206 0
M  V30 126 N 13.3029 -1.57598 0.00835791 0
M  V30 127 C 14.7189 -1.55764 -0.347822 0
M  V30 128 C 14.9189 -1.01186 -1.74252 0
M  V30 129 O 13.9749 -0.649371 -2.44007 0
M  V30 130 C 15.2879 -2.99927 -0.215407 0
M  V30 131 C 16.8359 -3.11656 -0.289725 0
M  V30 132 C 17.3109 -4.57621 -0.18634 0
M  V30 133 N 18.8019 -4.62557 -0.243978 0
M  V30 134 C 19.5369 -5.73094 -0.18745 0
M  V30 135 N 19.0329 -6.92753 -0.0810331 0
M  V30 136 N 20.8259 -5.61588 -0.239925 0
M  V30 137 H 12.9769 -1.91411 0.92062 0
M  V30 138 H 15.2399 -0.879562 0.353659 0
M  V30 139 H 14.9459 -3.43729 0.744512 0
M  V30 140 H 14.8199 -3.63865 -0.994097 0
M  V30 141 H 17.2069 -2.67779 -1.24009 0
M  V30 142 H 17.2879 -2.5048 0.51898 0
M  V30 143 H 16.9319 -5.02174 0.760519 0
M  V30 144 H 16.8619 -5.16752 -1.01364 0
M  V30 145 H 19.3529 -3.76481 -0.327217 0
M  V30 146 H 19.6659 -7.72787 -0.0440241 0
M  V30 147 H 18.0109 -6.94984 -0.0465419 0
M  V30 148 H 21.2019 -4.66996 -0.321317 0
M  V30 149 H 21.3749 -6.47714 -0.192407 0
M  V30 150 N 14.781 0.264519 -1.55364 0
M  V30 151 C 16.009 1.013 -1.80405 0
M  V30 152 C 16.424 1.79618 -0.581622 0
M  V30 153 O 15.781 1.76879 0.449468 0
M  V30 154 C 15.832 1.96487 -3.03439 0
M  V30 155 O 15.553 1.21341 -4.20961 0
M  V30 156 C 17.054 2.83079 -3.41147 0
M  V30 157 H 14.274 0.298875 -0.600762 0
M  V30 158 H 16.818 0.292736 -2.02394 0
M  V30 159 H 14.973 2.63965 -2.83551 0
M  V30 160 H 15.387 1.85573 -4.90574 0
M  V30 161 H 16.861 3.4565 -4.30384 0
M  V30 162 H 17.338 3.53286 -2.60932 0
M  V30 163 H 17.944 2.2108 -3.63323 0
M  V30 164 N 16.2591 1.48442 0.529413 0
M  V30 165 C 17.4871 1.60151 1.30994 0
M  V30 166 C 17.9021 0.261985 1.86973 0
M  V30 167 O 17.2591 -0.748805 1.66431 0
M  V30 168 C 17.3101 2.64854 2.46038 0
M  V30 169 O 17.0311 3.93608 1.92365 0
M  V30 170 C 18.5321 2.87007 3.37849 0
M  V30 171 H 15.7521 0.539971 0.398338 0
M  V30 172 H 18.2961 1.94273 0.638597 0
M  V30 173 H 16.4511 2.33589 3.09055 0
M  V30 174 H 16.8651 4.51055 2.67675 0
M  V30 175 H 18.3391 3.64068 4.14919 0
M  V30 176 H 18.8161 1.95852 3.93114 0
M  V30 177 H 19.4221 3.19579 2.80623 0
M  V30 178 N 17.7372 -0.778329 1.37039 0
M  V30 179 C 18.7002 -1.87301 1.32102 0
M  V30 180 C 19.7002 -1.59198 0.226405 0
M  V30 181 O 20.8902 -1.67403 0.481861 0
M  V30 182 C 18.0222 -3.24309 1.05055 0
M  V30 183 H 19.2152 -1.93093 2.29467 0
M  V30 184 H 16.7682 -0.977358 1.21973 0
M  V30 185 H 17.5032 -3.24196 0.0819373 0
M  V30 186 H 17.2882 -3.46098 1.84279 0
M  V30 187 H 18.7782 -4.04382 1.04234 0
M  V30 188 N 19.2153 -1.21501 -1.00376 0
M  V30 189 C 20.1783 -0.976927 -2.07337 0
M  V30 190 C 21.1783 0.0525322 -1.60714 0
M  V30 191 O 22.3683 -0.184869 -1.73216 0
M  V30 192 C 19.5003 -0.473423 -3.37597 0
M  V30 193 H 20.6933 -1.92587 -2.29892 0
M  V30 194 H 18.2463 -1.03217 -1.17371 0
M  V30 195 H 18.9813 0.480379 -3.20722 0
M  V30 196 H 18.7663 -1.216 -3.72768 0
M  V30 197 H 20.2563 -0.32675 -4.1632 0
M  V30 198 N 20.6934 1.19889 -1.02296 0
M  V30 199 C 21.9394 1.89701 -0.717033 0
M  V30 200 C 22.2724 1.7905 0.751989 0
M  V30 201 O 21.5474 1.17891 1.547 0
M  V30 202 C 21.8304 3.40858 -1.16136 0
M  V30 203 C 21.6834 3.60411 -2.69117 0
M  V30 204 C 23.0024 4.33876 -0.737549 0
M  V30 205 H 20.1214 0.688874 -0.261957 0
M  V30 206 H 22.7634 1.41154 -1.27183 0
M  V30 207 H 20.9134 3.82335 -0.689342 0
M  V30 208 H 22.5854 3.28145 -3.2422 0
M  V30 209 H 20.8284 3.03665 -3.0979 0
M  V30 210 H 21.4994 4.66396 -2.95261 0
M  V30 211 H 23.9754 4.00081 -1.14344 0
M  V30 212 H 22.8514 5.38242 -1.0764 0
M  V30 213 H 23.1124 4.40628 0.360436 0
M  V30 214 N 22.1715 0.800033 1.35784 0
M  V30 215 C 23.5875 0.482977 1.52117 0
M  V30 216 C 23.7875 -0.996948 1.75109 0
M  V30 217 O 22.8435 -1.78216 1.78872 0
M  V30 218 C 24.1565 1.32264 2.70049 0
M  V30 219 C 25.7045 1.31742 2.83924 0
M  V30 220 C 26.1795 2.14106 4.04874 0
M  V30 221 N 27.6705 2.11607 4.12039 0
M  V30 222 C 28.4055 2.72099 5.04727 0
M  V30 223 N 27.9015 3.41492 6.02789 0
M  V30 224 N 29.6945 2.61776 4.97423 0
M  V30 225 H 21.8455 1.75856 1.19115 0
M  V30 226 H 24.1085 0.748122 0.582252 0
M  V30 227 H 23.8145 2.37261 2.59616 0
M  V30 228 H 23.6885 0.971303 3.6448 0
M  V30 229 H 26.0755 0.275333 2.93813 0
M  V30 230 H 26.1565 1.70859 1.9037 0
M  V30 231 H 25.8005 3.18351 3.95746 0
M  V30 232 H 25.7305 1.72353 4.97596 0
M  V30 233 H 28.2215 1.61112 3.41835 0
M  V30 234 H 28.5345 3.84953 6.70098 0
M  V30 235 H 26.8795 3.45596 6.02983 0
M  V30 236 H 30.0705 2.07157 4.19766 0
M  V30 237 H 30.2435 3.0921 5.69468 0
M  V30 238 N 23.6496 -1.47581 0.552962 0
M  V30 239 C 25.0656 -1.5818 0.212424 0
M  V30 240 C 25.2656 -1.55213 -1.28496 0
M  V30 241 O 24.3216 -1.45329 -2.06484 0
M  V30 242 C 25.6346 -2.88865 0.835318 0
M  V30 243 C 27.1826 -3.0244 0.806156 0
M  V30 244 C 27.6576 -4.35819 1.40804 0
M  V30 245 N 29.1486 -4.42444 1.37103 0
M  V30 246 C 29.8836 -5.44202 1.80641 0
M  V30 247 N 29.3796 -6.52795 2.32015 0
M  V30 248 N 31.1726 -5.35222 1.71738 0
M  V30 249 H 23.3236 -1.47753 1.52587 0
M  V30 250 H 25.5866 -0.702941 0.636064 0
M  V30 251 H 25.2926 -2.9676 1.88749 0
M  V30 252 H 25.1666 -3.7579 0.325848 0
M  V30 253 H 27.5536 -2.94144 -0.237317 0
M  V30 254 H 27.6346 -2.17068 1.35334 0
M  V30 255 H 27.2786 -4.44871 2.45056 0
M  V30 256 H 27.2086 -5.19916 0.836338 0
M  V30 257 H 29.6996 -3.6456 0.995202 0
M  V30 258 H 30.0126 -7.26609 2.63171 0
M  V30 259 H 28.3576 -6.53696 2.36023 0
M  V30 260 H 31.5486 -4.49284 1.31382 0
M  V30 261 H 31.7216 -6.14389 2.05987 0
M  V30 262 N 25.1277 -0.289203 -1.54924 0
M  V30 263 C 26.0907 0.579144 -2.21762 0
M  V30 264 C 27.0907 1.07047 -1.1999 0
M  V30 265 O 28.2807 0.968384 -1.44803 0
M  V30 266 C 25.4127 1.80055 -2.8947 0
M  V30 267 H 26.6057 -0.00464908 -2.999 0
M  V30 268 H 24.1587 -0.0399306 -1.56249 0
M  V30 269 H 24.8937 2.42449 -2.15381 0
M  V30 270 H 24.6787 1.45602 -3.64064 0
M  V30 271 H 26.1687 2.41773 -3.40493 0
M  V30 272 N 26.6058 1.57591 -0.0167156 0
M  V30 273 C 27.8548 1.90461 0.663877 0
M  V30 274 C 28.1678 0.893515 1.73999 0
M  V30 275 O 29.3738 1.11302 2.47637 0
M  V30 276 C 27.8298 3.38155 1.23204 0
M  V30 277 C 27.4378 4.47597 0.189866 0
M  V30 278 C 29.1818 3.80111 1.88986 0
M  V30 279 C 27.0888 5.86379 0.768964 0
M  V30 280 H 26.0188 0.710738 0.251729 0
M  V30 281 H 28.6698 1.83326 -0.0799926 0
M  V30 282 H 27.0518 3.40182 2.02712 0
M  V30 283 H 28.2258 4.57112 -0.581846 0
M  V30 284 H 26.5408 4.14766 -0.368475 0
M  V30 285 H 29.1378 4.81145 2.33247 0
M  V30 286 H 29.4808 3.14511 2.72743 0
M  V30 287 H 30.0138 3.80454 1.16187 0
M  V30 288 H 26.7528 6.55493 -0.0301957 0
M  V30 289 H 26.2728 5.80496 1.50945 0
M  V30 290 H 27.9518 6.34563 1.26251 0
M  V30 291 N 28.0839 -0.256276 1.55502 0
M  V30 292 C 29.0159 -1.33981 1.85962 0
M  V30 293 C 30.0289 -1.44743 0.745212 0
M  V30 294 O 31.2179 -1.4626 1.02324 0
M  V30 295 C 28.3179 -2.7194 2.02242 0
M  V30 296 C 27.4909 -2.83562 3.33033 0
M  V30 297 C 26.5499 -4.02304 3.39172 0
M  V30 298 O 25.5759 -3.92273 4.12444 0
M  V30 299 N 26.7779 -5.15045 2.67784 0
M  V30 300 H 29.5429 -1.08191 2.7949 0
M  V30 301 H 27.1039 -0.446388 1.55624 0
M  V30 302 H 29.0959 -3.49697 2.03701 0
M  V30 303 H 27.6659 -2.90479 1.15502 0
M  V30 304 H 26.8859 -1.92555 3.43971 0
M  V30 305 H 28.1739 -2.88271 4.19258 0
M  V30 306 H 27.5719 -5.26085 2.07968 0
M  V30 307 H 26.1289 -5.90972 2.74947 0
M  V30 308 N 29.562 -1.4872 -0.521534 0
M  V30 309 C 30.512 -1.60269 -1.62166 0
M  V30 310 C 31.496 -0.45935 -1.54204 0
M  V30 311 O 32.688 -0.711241 -1.62081 0
M  V30 312 C 29.817 -1.65344 -3.00859 0
M  V30 313 C 28.903 -2.85187 -3.13894 0
M  V30 314 N 29.294 -4.09509 -2.96877 0
M  V30 315 C 27.592 -2.82695 -3.44963 0
M  V30 316 C 28.293 -4.89959 -3.13552 0
M  V30 317 N 27.269 -4.22934 -3.41508 0
M  V30 318 H 31.071 -2.5413 -1.47632 0
M  V30 319 H 28.585 -1.45209 -0.727194 0
M  V30 320 H 30.582 -1.71713 -3.79895 0
M  V30 321 H 29.242 -0.726058 -3.16478 0
M  V30 322 H 30.253 -4.39814 -2.73467 0
M  V30 323 H 26.93 -1.99249 -3.66887 0
M  V30 324 H 28.32 -5.98654 -3.05061 0
M  V30 325 N 31.0401 0.771051 -1.3745 0
M  V30 326 C 32.2651 1.56529 -1.36065 0
M  V30 327 C 32.6901 1.88029 0.0515859 0
M  V30 328 O 32.0481 1.49282 1.02882 0
M  V30 329 C 32.0961 2.85187 -2.20683 0
M  V30 330 O 31.2001 3.79593 -1.61193 0
M  V30 331 H 30.5411 0.47411 -0.464883 0
M  V30 332 H 33.0711 0.954269 -1.80983 0
M  V30 333 H 33.0811 3.34283 -2.33921 0
M  V30 334 H 31.7561 2.61588 -3.23334 0
M  V30 335 H 30.3331 3.38239 -1.56999 0
M  V30 336 N 32.5182 1.22032 0.997298 0
M  V30 337 C 33.4282 1.00271 2.12092 0
M  V30 338 C 34.4442 -0.047621 1.73935 0
M  V30 339 O 35.6202 0.144136 2.00884 0
M  V30 340 C 32.6852 0.578449 3.4184 0
M  V30 341 C 31.7462 1.70189 3.94125 0
M  V30 342 C 30.9792 1.29778 5.17681 0
M  V30 343 O 31.2022 0.174676 5.70132 0
M  V30 344 O 30.1362 2.11261 5.63607 0
M  V30 345 H 33.9622 1.94398 2.3333 0
M  V30 346 H 31.5472 1.00587 1.10465 0
M  V30 347 H 33.4292 0.351998 4.19927 0
M  V30 348 H 32.1042 -0.334019 3.21972 0
M  V30 349 H 31.0112 1.98282 3.1723 0
M  V30 350 H 32.3442 2.59206 4.18417 0
M  V30 351 N 33.9963 -1.19345 1.0293 0
M  V30 352 C 34.9063 -2.26245 0.620515 0
M  V30 353 C 35.9223 -1.70486 -0.347928 0
M  V30 354 O 37.0983 -2.00347 -0.205704 0
M  V30 355 C 34.1633 -3.46693 -0.0218957 0
M  V30 356 C 33.2243 -4.17632 0.994102 0
M  V30 357 C 32.4573 -5.32329 0.382253 0
M  V30 358 O 32.6803 -5.64552 -0.814676 0
M  V30 359 O 31.6143 -5.91664 1.10531 0
M  V30 360 H 35.4403 -2.63453 1.51083 0
M  V30 361 H 33.0253 -1.26207 0.799513 0
M  V30 362 H 34.9073 -4.19683 -0.380072 0
M  V30 363 H 33.5823 -3.11333 -0.886209 0
M  V30 364 H 32.4893 -3.4676 1.40387 0
M  V30 365 H 33.8223 -4.56964 1.8288 0
M  V30 366 N 35.4744 -0.807222 -1.35358 0
M  V30 367 C 36.6994 -0.399309 -2.0352 0
M  V30 368 C 37.1244 0.981986 -1.60433 0
M  V30 369 O 36.4824 1.63601 -0.781299 0
M  V30 370 C 36.5304 -0.491552 -3.57234 0
M  V30 371 O 35.6344 0.494754 -4.09421 0
M  V30 372 H 34.9754 -0.166682 -0.642739 0
M  V30 373 H 37.5054 -1.09328 -1.72941 0
M  V30 374 H 37.5154 -0.361588 -4.06395 0
M  V30 375 H 36.1904 -1.49907 -3.87944 0
M  V30 376 H 34.7674 0.324977 -3.71481 0
M  V30 377 N 36.9525 1.47285 -0.560781 0
M  V30 378 C 37.8825 2.32857 0.173105 0
M  V30 379 C 38.8635 1.44009 0.905281 0
M  V30 380 O 40.0485 1.7286 0.885046 0
M  V30 381 C 37.1785 3.25861 1.20133 0
M  V30 382 C 36.1325 4.23978 0.585388 0
M  V30 383 C 35.4585 5.06332 1.7185 0
M  V30 384 C 36.7585 5.20242 -0.463178 0
M  V30 385 H 38.4525 2.94466 -0.541307 0
M  V30 386 H 35.9985 1.41601 -0.261764 0
M  V30 387 H 37.9515 3.84569 1.72293 0
M  V30 388 H 36.6755 2.62315 1.94573 0
M  V30 389 H 35.3345 3.66501 0.085054 0
M  V30 390 H 34.9825 4.39186 2.45203 0
M  V30 391 H 34.6825 5.72762 1.31213 0
M  V30 392 H 36.2065 5.67899 2.24329 0
M  V30 393 H 37.6205 5.73293 -0.027502 0
M  V30 394 H 36.0175 5.94896 -0.788627 0
M  V30 395 H 37.0875 4.65504 -1.35773 0
M  V30 396 N 38.4306 0.297415 1.54768 0
M  V30 397 C 39.3786 -0.596051 2.24833 0
M  V30 398 C 40.3726 -1.13992 1.25308 0
M  V30 399 O 41.5786 -1.09098 1.4317 0
M  V30 400 H 37.9536 -0.210814 0.721846 0
M  V30 401 H 39.9246 0.0174667 2.98395 0
M  V30 402 C 38.6736 -1.75818 2.99972 0
M  V30 403 H 37.9966 -1.3489 3.76357 0
M  V30 404 H 39.4366 -2.35949 3.52284 0
M  V30 405 C 37.8956 -2.66014 2.06732 0
M  V30 406 O 38.4256 -3.67009 1.63302 0
M  V30 407 N 36.6316 -2.33669 1.72763 0
M  V30 408 H 36.1786 -1.51586 2.08277 0
M  V30 409 H 36.1366 -2.94285 1.10652 0
M  V30 410 N 39.9087 -1.5758 0.0250728 0
M  V30 411 C 41.1547 -1.91917 -0.655413 0
M  V30 412 C 41.4877 -0.901433 -1.72011 0
M  V30 413 O 40.7627 0.0764069 -1.9435 0
M  V30 414 C 41.0457 -3.36751 -1.27558 0
M  V30 415 C 40.8987 -4.49258 -0.220719 0
M  V30 416 C 42.2177 -3.81469 -2.19475 0
M  V30 417 H 39.3367 -0.697925 -0.23679 0
M  V30 418 H 41.9787 -1.89825 0.0815036 0
M  V30 419 H 40.1287 -3.38664 -1.90365 0
M  V30 420 H 41.8007 -4.59478 0.409601 0
M  V30 421 H 40.0437 -4.31415 0.454264 0
M  V30 422 H 40.7147 -5.47618 -0.694175 0
M  V30 423 H 43.1907 -3.81266 -1.66659 0
M  V30 424 H 42.0667 -4.83512 -2.59822 0
M  V30 425 H 42.3277 -3.16744 -3.08424 0
M  V30 426 N 41.3868 0.248026 -1.55636 0
M  V30 427 C 42.3168 1.31079 -1.93237 0
M  V30 428 C 43.2978 1.50264 -0.797174 0
M  V30 429 O 44.4828 1.62891 -1.05737 0
M  V30 430 C 41.6128 2.66575 -2.22609 0
M  V30 431 C 40.5668 2.62087 -3.3837 0
M  V30 432 C 39.8928 4.01369 -3.53281 0
M  V30 433 C 41.1928 2.19171 -4.7409 0
M  V30 434 H 42.8868 0.998556 -2.82257 0
M  V30 435 H 40.4328 0.47891 -1.35803 0
M  V30 436 H 42.3858 3.41057 -2.47503 0
M  V30 437 H 41.1098 2.99432 -1.30414 0
M  V30 438 H 39.7688 1.90063 -3.13483 0
M  V30 439 H 39.4168 4.31489 -2.58508 0
M  V30 440 H 39.1168 3.99254 -4.31127 0
M  V30 441 H 40.6408 4.77552 -3.80495 0
M  V30 442 H 42.0548 2.83384 -4.98363 0
M  V30 443 H 40.4518 2.2817 -5.5503 0
M  V30 444 H 41.5218 1.14336 -4.71227 0
M  V30 445 N 42.8649 1.48995 0.513639 0
M  V30 446 C 43.8279 1.64229 1.59879 0
M  V30 447 C 44.8279 0.514696 1.5234 0
M  V30 448 O 46.0179 0.78087 1.55718 0
M  V30 449 C 43.1499 1.62783 2.99524 0
M  V30 450 H 44.3429 2.61004 1.47705 0
M  V30 451 H 41.8959 1.37837 0.736936 0
M  V30 452 H 42.6309 0.675461 3.17188 0
M  V30 453 H 42.4159 2.4466 3.06404 0
M  V30 454 H 43.9059 1.76669 3.78388 0
M  V30 455 N 44.343 -0.763751 1.37857 0
M  V30 456 C 45.759 -1.06542 1.18832 0
M  V30 457 C 45.959 -2.01478 0.0299722 0
M  V30 458 O 45.015 -2.4458 -0.627447 0
M  V30 459 C 46.328 -1.65525 2.51042 0
M  V30 460 C 47.876 -1.77745 2.57635 0
M  V30 461 C 48.351 -2.4014 3.89996 0
M  V30 462 N 49.842 -2.47582 3.91481 0
M  V30 463 C 50.577 -2.96732 4.9065 0
M  V30 464 N 50.073 -3.45993 6.00217 0
M  V30 465 N 51.866 -2.95679 4.78048 0
M  V30 466 H 44.017 -0.133556 2.1198 0
M  V30 467 H 46.28 -0.121879 0.940133 0
M  V30 468 H 45.986 -1.03236 3.36207 0
M  V30 469 H 45.86 -2.64719 2.68707 0
M  V30 470 H 48.247 -2.39164 1.72872 0
M  V30 471 H 48.328 -0.772836 2.43846 0
M  V30 472 H 47.972 -1.79358 4.75177 0
M  V30 473 H 47.902 -3.41223 4.01092 0
M  V30 474 H 50.393 -2.1273 3.12337 0
M  V30 475 H 50.706 -3.81922 6.7183 0
M  V30 476 H 49.051 -3.44077 6.03851 0
M  V30 477 H 52.242 -2.56499 3.91568 0
M  V30 478 H 52.415 -3.33672 5.55488 0
M  V30 479 N 45.8211 -1.22559 -0.990812 0
M  V30 480 C 47.2371 -0.985996 -1.255 0
M  V30 481 C 47.4371 0.319173 -1.98956 0
M  V30 482 O 46.4931 1.04127 -2.3003 0
M  V30 483 C 47.8061 -2.18607 -2.06474 0
M  V30 484 C 49.3541 -2.22985 -2.19651 0
M  V30 485 C 49.8291 -3.4255 -3.04012 0
M  V30 486 N 51.3201 -3.42725 -3.11599 0
M  V30 487 C 52.0551 -4.31892 -3.7717 0
M  V30 488 N 51.5511 -5.31279 -4.44651 0
M  V30 489 N 53.3441 -4.19662 -3.73952 0
M  V30 490 H 45.4951 -2.06469 -0.49841 0
M  V30 491 H 47.7581 -0.904853 -0.282747 0
M  V30 492 H 47.4641 -3.13267 -1.59865 0
M  V30 493 H 47.3381 -2.18838 -3.07229 0
M  V30 494 H 49.7251 -1.28871 -2.65474 0
M  V30 495 H 49.8061 -2.26791 -1.18319 0
M  V30 496 H 49.4501 -4.36965 -2.58889 0
M  V30 497 H 49.3801 -3.35984 -4.0549 0
M  V30 498 H 51.8711 -2.70807 -2.63575 0
M  V30 499 H 52.1841 -5.95593 -4.92431 0
M  V30 500 H 50.5291 -5.3519 -4.43392 0
M  V30 501 H 53.7201 -3.41268 -3.20396 0
M  V30 502 H 53.8931 -4.89358 -4.24774 0
M  V30 503 N 47.2992 1.18797 -1.03562 0
M  V30 504 C 48.5292 1.92319 -0.754773 0
M  V30 505 C 48.9372 1.7612 0.691248 0
M  V30 506 O 48.2802 1.08491 1.48241 0
M  V30 507 C 48.3422 3.44284 -1.03484 0
M  V30 508 C 48.0062 3.84258 -2.47376 0
M  V30 509 C 49.0032 3.88459 -3.45537 0
M  V30 510 C 46.6882 4.15701 -2.81954 0
M  V30 511 C 48.6822 4.23545 -4.76328 0
M  V30 512 C 46.3692 4.50458 -4.12954 0
M  V30 513 C 47.3672 4.54356 -5.09951 0
M  V30 514 O 47.0552 4.88305 -6.38603 0
M  V30 515 H 46.7872 0.617527 -0.275021 0
M  V30 516 H 49.3412 1.51683 -1.38497 0
M  V30 517 H 47.5712 3.85135 -0.347513 0
M  V30 518 H 49.2602 3.99049 -0.7426 0
M  V30 519 H 50.0262 3.6431 -3.20162 0
M  V30 520 H 45.9052 4.11847 -2.0713 0
M  V30 521 H 49.4492 4.26502 -5.52035 0
M  V30 522 H 45.3462 4.74067 -4.38099 0
M  V30 523 H 46.1142 5.06227 -6.43177 0
M  V30 524 N 48.7773 0.814389 1.34928 0
M  V30 525 C 49.7403 0.235759 2.27984 0
M  V30 526 C 50.7403 -0.581412 1.49921 0
M  V30 527 O 51.9303 -0.398758 1.69575 0
M  V30 528 C 49.0623 -0.670433 3.34242 0
M  V30 529 H 50.2553 1.05659 2.80671 0
M  V30 530 H 47.8083 0.585614 1.44915 0
M  V30 531 H 48.5433 -1.51466 2.86755 0
M  V30 532 H 48.3283 -0.0860822 3.92005 0
M  V30 533 H 49.8183 -1.06935 4.03676 0
M  V30 534 N 50.2554 -1.46986 0.568584 0
M  V30 535 C 51.5044 -2.01646 0.0465894 0
M  V30 536 C 51.8174 -1.44721 -1.31587 0
M  V30 537 O 53.0234 -1.91113 -1.92842 0
M  V30 538 C 51.4794 -3.59885 0.032752 0
M  V30 539 C 51.0874 -4.25804 1.39266 0
M  V30 540 C 52.8314 -4.22255 -0.436038 0
M  V30 541 C 50.7384 -5.76081 1.33732 0
M  V30 542 H 49.6684 -0.753876 0.013647 0
M  V30 543 H 52.3194 -1.68864 0.718131 0
M  V30 544 H 50.7014 -3.8968 -0.704669 0
M  V30 545 H 51.8754 -4.07637 2.1487 0
M  V30 546 H 50.1904 -3.7547 1.80032 0
M  V30 547 H 52.7874 -5.32394 -0.49602 0
M  V30 548 H 53.1304 -3.90212 -1.45053 0
M  V30 549 H 53.6634 -3.97033 0.246877 0
M  V30 550 H 50.4024 -6.12761 2.32817 0
M  V30 551 H 49.9224 -5.96553 0.623267 0
M  V30 552 H 51.6014 -6.38518 1.0442 0
M  V30 553 N 51.7335 -0.305618 -1.54608 0
M  V30 554 C 52.6815 0.584119 -2.25146 0
M  V30 555 C 53.6755 1.13326 -1.25911 0
M  V30 556 O 54.8815 1.08337 -1.43747 0
M  V30 557 H 51.2565 0.206983 -0.722954 0
M  V30 558 H 53.2275 -0.033291 -2.98381 0
M  V30 559 C 51.9765 1.74225 -3.009 0
M  V30 560 H 51.2995 1.32892 -3.77067 0
M  V30 561 H 52.7395 2.34077 -3.53531 0
M  V30 562 C 51.1985 2.64914 -2.0814 0
M  V30 563 O 51.7285 3.66137 -1.65246 0
M  V30 564 N 49.9345 2.3275 -1.74 0
M  V30 565 H 49.4815 1.50479 -2.09078 0
M  V30 566 H 49.4395 2.93694 -1.12211 0
M  V30 567 N 53.2116 1.57565 -0.0334293 0
M  V30 568 C 54.6226 1.79746 0.504798 0
M  V30 569 C 54.9736 0.944091 1.71992 0
M  V30 570 O 54.0986 0.155694 2.15839 0
M  V30 571 C 54.6936 3.25997 0.922567 0
M  V30 572 C 53.2526 3.49159 1.40588 0
M  V30 573 C 52.3996 2.74785 0.372633 0
M  V30 574 H 55.3506 1.56565 -0.259436 0
M  V30 575 H 55.3716 3.35945 1.78666 0
M  V30 576 H 54.8836 3.88081 0.0379825 0
M  V30 577 H 52.9846 2.92332 2.31025 0
M  V30 578 H 53.0976 4.57873 1.41028 0
M  V30 579 H 51.4616 2.40391 0.841672 0
M  V30 580 H 52.2446 3.39587 -0.503559 0
M  V30 581 N 54.6897 -0.239769 1.55765 0
M  V30 582 C 55.6367 -1.29696 1.90913 0
M  V30 583 C 56.6067 -1.47478 0.764164 0
M  V30 584 O 57.7917 -1.61345 1.01845 0
M  V30 585 C 54.9317 -2.64598 2.21544 0
M  V30 586 C 54.0447 -2.54765 3.48882 0
M  V30 587 C 53.1797 -3.82069 3.69049 0
M  V30 588 C 52.2187 -3.66883 4.89963 0
M  V30 589 N 51.3557 -4.86094 5.06614 0
M  V30 590 H 56.1957 -0.990224 2.81067 0
M  V30 591 H 53.7327 -0.477684 1.39128 0
M  V30 592 H 55.6907 -3.43132 2.3731 0
M  V30 593 H 54.3207 -2.93405 1.34585 0
M  V30 594 H 53.3727 -1.67763 3.41409 0
M  V30 595 H 54.6847 -2.39457 4.37563 0
M  V30 596 H 53.8387 -4.69046 3.84812 0
M  V30 597 H 52.5777 -4.00282 2.78614 0
M  V30 598 H 51.5827 -2.78289 4.74168 0
M  V30 599 H 52.8077 -3.50157 5.81865 0
M  V30 600 H 50.7537 -5.04655 4.19117 0
M  V30 601 H 50.6707 -4.73443 5.89396 0
M  V30 602 H 51.9387 -5.74549 5.26795 0
M  V30 603 N 56.1678 -1.49265 -0.50573 0
M  V30 604 C 57.3958 -1.62215 -1.28429 0
M  V30 605 C 57.8108 -0.291697 -1.86533 0
M  V30 606 O 57.1678 0.722233 -1.67601 0
M  V30 607 C 57.2188 -2.68735 -2.41793 0
M  V30 608 O 56.9398 -3.96619 -1.86078 0
M  V30 609 C 58.4408 -2.92346 -3.3324 0
M  V30 610 H 55.6608 -0.546239 -0.389697 0
M  V30 611 H 58.2048 -1.95265 -0.607609 0
M  V30 612 H 56.3598 -2.38476 -3.053 0
M  V30 613 H 56.7738 -4.55256 -2.60465 0
M  V30 614 H 58.2478 -3.70623 -4.09075 0
M  V30 615 H 58.7248 -2.02081 -3.89948 0
M  V30 616 H 59.3308 -3.24003 -2.75503 0
M  V30 617 N 57.6459 0.756429 -1.3826 0
M  V30 618 C 58.8919 1.51772 -1.34511 0
M  V30 619 C 59.2249 1.94089 0.0656691 0
M  V30 620 O 58.4999 1.65221 1.02626 0
M  V30 621 C 58.7829 2.77226 -2.29821 0
M  V30 622 C 58.6359 2.41065 -3.79747 0
M  V30 623 C 59.9549 3.79236 -2.23312 0
M  V30 624 H 57.0739 0.550578 -0.489931 0
M  V30 625 H 59.7159 0.866607 -1.69086 0
M  V30 626 H 57.8659 3.32784 -2.00467 0
M  V30 627 H 59.5379 1.91303 -4.19763 0
M  V30 628 H 57.7809 1.7356 -3.97567 0
M  V30 629 H 58.4519 3.3081 -4.41892 0
M  V30 630 H 60.9279 3.3321 -2.49219 0
M  V30 631 H 59.8039 4.64714 -2.92116 0
M  V30 632 H 60.0649 4.24615 -1.23102 0
M  V30 633 N 59.124 1.23083 0.984299 0
M  V30 634 C 60.087 1.00979 2.05757 0
M  V30 635 C 61.087 -0.0269573 1.60777 0
M  V30 636 O 62.277 0.212403 1.729 0
M  V30 637 C 59.409 0.527072 3.36801 0
M  V30 638 H 60.602 1.9622 2.26799 0
M  V30 639 H 58.155 1.05072 1.15714 0
M  V30 640 H 58.89 -0.429294 3.21446 0
M  V30 641 H 58.675 1.27515 3.70786 0
M  V30 642 H 60.165 0.392942 4.15747 0
M  V30 643 N 60.6021 -1.18246 1.0419 0
M  V30 644 C 61.5491 -2.2192 0.634037 0
M  V30 645 C 62.5191 -1.62179 -0.358765 0
M  V30 646 O 63.7041 -1.89122 -0.252466 0
M  V30 647 C 60.8441 -3.451 0.00445535 0
M  V30 648 C 59.9571 -4.19174 1.04487 0
M  V30 649 C 59.0921 -5.29813 0.383676 0
M  V30 650 C 58.1311 -5.9566 1.4091 0
M  V30 651 N 57.2681 -6.97834 0.772784 0
M  V30 652 H 62.1081 -2.56164 1.52263 0
M  V30 653 H 59.6451 -1.25843 0.761701 0
M  V30 654 H 61.6031 -4.15485 -0.377919 0
M  V30 655 H 60.2331 -3.11472 -0.847652 0
M  V30 656 H 59.2851 -3.47604 1.54518 0
M  V30 657 H 60.5971 -4.64267 1.82368 0
M  V30 658 H 59.7511 -6.06677 -0.0528366 0
M  V30 659 H 58.4901 -4.85825 -0.427208 0
M  V30 660 H 57.4951 -5.17535 1.85574 0
M  V30 661 H 58.7201 -6.4173 2.22171 0
M  V30 662 H 56.6661 -6.55998 -0.0177708 0
M  V30 663 H 56.5831 -7.41186 1.48928 0
M  V30 664 H 57.8511 -7.78665 0.36071 0
M  V30 665 N 62.0802 -0.821533 -1.34494 0
M  V30 666 C 63.3262 -0.418729 -1.99043 0
M  V30 667 C 63.6812 1.00672 -1.6396 0
M  V30 668 O 62.9742 1.69132 -0.900271 0
M  V30 669 C 63.1682 -0.556512 -3.53041 0
M  V30 670 C 62.9972 -1.9938 -4.03085 0
M  V30 671 C 61.7672 -2.62539 -4.31742 0
M  V30 672 C 63.9652 -2.96035 -4.20556 0
M  V30 673 N 61.9472 -3.97523 -4.67813 0
M  V30 674 C 63.3182 -4.15924 -4.59791 0
M  V30 675 C 65.3732 -2.9267 -4.02801 0
M  V30 676 C 64.0762 -5.32899 -4.83126 0
M  V30 677 C 66.1022 -4.08861 -4.27302 0
M  V30 678 C 65.4642 -5.275 -4.66822 0
M  V30 679 H 61.5632 -0.201299 -0.755647 0
M  V30 680 H 64.1472 -1.06594 -1.62929 0
M  V30 681 H 62.3182 0.0607924 -3.88352 0
M  V30 682 H 64.0502 -0.126842 -4.04501 0
M  V30 683 H 60.8052 -2.13789 -4.22601 0
M  V30 684 H 61.2292 -4.67061 -4.90085 0
M  V30 685 H 65.8712 -2.02088 -3.71376 0
M  V30 686 H 63.5892 -6.24041 -5.13418 0
M  V30 687 H 67.1752 -4.07654 -4.15101 0
M  V30 688 H 66.0552 -6.15913 -4.85408 0
M  V30 689 N 63.5583 1.46682 -0.576371 0
M  V30 690 C 64.5053 2.30241 0.160499 0
M  V30 691 C 65.4753 1.40233 0.890162 0
M  V30 692 O 66.6603 1.69186 0.882084 0
M  V30 693 C 63.8003 3.24578 1.1723 0
M  V30 694 C 62.9133 4.29684 0.446736 0
M  V30 695 C 62.0483 5.11154 1.44551 0
M  V30 696 C 61.0873 6.08015 0.70599 0
M  V30 697 N 60.2243 6.82376 1.65251 0
M  V30 698 H 65.0643 2.92727 -0.558127 0
M  V30 699 H 62.6013 1.44272 -0.287056 0
M  V30 700 H 64.5593 3.77711 1.77172 0
M  V30 701 H 63.1893 2.63916 1.85872 0
M  V30 702 H 62.2413 3.79458 -0.267594 0
M  V30 703 H 63.5533 4.98626 -0.131686 0
M  V30 704 H 62.7073 5.68533 2.11791 0
M  V30 705 H 61.4463 4.42158 2.05786 0
M  V30 706 H 60.4513 5.49796 0.0197725 0
M  V30 707 H 61.6763 6.79028 0.09912 0
M  V30 708 H 59.6223 6.16094 2.25308 0
M  V30 709 H 59.5393 7.47556 1.12673 0
M  V30 710 H 60.8073 7.44316 2.31546 0
M  V30 711 N 65.0364 0.313813 1.54444 0
M  V30 712 C 65.9834 -0.55655 2.23989 0
M  V30 713 C 66.9534 -1.11943 1.22711 0
M  V30 714 O 68.1384 -1.16158 1.51367 0
M  V30 715 C 65.2784 -1.71635 2.99392 0
M  V30 716 C 64.3914 -1.18364 4.15468 0
M  V30 717 C 63.5264 -2.30834 4.78424 0
M  V30 718 C 62.5654 -1.74762 5.86622 0
M  V30 719 N 61.7024 -2.80855 6.43479 0
M  V30 720 H 66.5424 0.0430893 2.97969 0
M  V30 721 H 64.0794 0.0330359 1.47063 0
M  V30 722 H 66.0374 -2.39868 3.41349 0
M  V30 723 H 64.6674 -2.28742 2.27765 0
M  V30 724 H 63.7194 -0.393163 3.78363 0
M  V30 725 H 65.0314 -0.733262 4.93381 0
M  V30 726 H 64.1854 -3.0699 5.23299 0
M  V30 727 H 62.9244 -2.79204 3.99871 0
M  V30 728 H 61.9294 -0.970995 5.41158 0
M  V30 729 H 63.1544 -1.2728 6.67066 0
M  V30 730 H 61.1004 -3.28535 5.67804 0
M  V30 731 H 61.0174 -2.40351 7.16776 0
M  V30 732 H 62.2854 -3.5687 6.93011 0
M  V30 733 N 66.5145 -1.57545 0.0417849 0
M  V30 734 C 67.9305 -1.56467 -0.314704 0
M  V30 735 C 68.1305 -1.04859 -1.72066 0
M  V30 736 O 67.1865 -0.700983 -2.42575 0
M  V30 737 C 68.4995 -3.00317 -0.15174 0
M  V30 738 C 70.0475 -3.12201 -0.223553 0
M  V30 739 C 70.5225 -4.57913 -0.0892295 0
M  V30 740 N 72.0135 -4.6297 -0.145808 0
M  V30 741 C 72.7485 -5.73362 -0.0658459 0
M  V30 742 N 72.2445 -6.92769 0.0659282 0
M  V30 743 N 74.0375 -5.6197 -0.12075 0
M  V30 744 H 66.1885 -1.89416 0.961014 0
M  V30 745 H 68.4515 -0.871862 0.372237 0
M  V30 746 H 68.1575 -3.42073 0.817254 0
M  V30 747 H 68.0315 -3.65892 -0.916692 0
M  V30 748 H 70.4185 -2.70349 -1.18301 0
M  V30 749 H 70.4995 -2.49323 0.571994 0
M  V30 750 H 70.1435 -5.00448 0.866867 0
M  V30 751 H 70.0735 -5.18786 -0.903802 0
M  V30 752 H 72.5645 -3.7709 -0.247286 0
M  V30 753 H 72.8775 -7.72707 0.119905 0
M  V30 754 H 71.2225 -6.94927 0.100885 0
M  V30 755 H 74.4135 -4.67572 -0.222187 0
M  V30 756 H 74.5865 -6.47977 -0.0549735 0
M  V30 757 N 67.9926 0.231505 -1.5589 0
M  V30 758 C 68.9406 1.30649 -1.92441 0
M  V30 759 C 69.9346 1.49037 -0.805254 0
M  V30 760 O 71.1406 1.50329 -0.990007 0
M  V30 761 H 67.5156 0.437812 -0.611412 0
M  V30 762 H 69.4866 0.970973 -2.82161 0
M  V30 763 C 68.2356 2.65179 -2.24889 0
M  V30 764 H 67.5586 2.51835 -3.10514 0
M  V30 765 H 68.9986 3.39234 -2.54355 0
M  V30 766 C 67.4576 3.19439 -1.07054 0
M  V30 767 O 67.9876 4.00371 -0.326499 0
M  V30 768 N 66.1936 2.77675 -0.85703 0
M  V30 769 H 65.7406 2.11969 -1.46379 0
M  V30 770 H 65.6986 3.14321 -0.0703223 0
M  V30 771 N 69.4707 1.49531 0.497807 0
M  V30 772 C 70.7177 1.59179 1.25173 0
M  V30 773 C 71.0457 0.279932 1.92475 0
M  V30 774 O 70.3007 -0.732383 1.81479 0
M  V30 775 C 70.5997 2.70252 2.33878 0
M  V30 776 C 70.2657 4.11644 1.84012 0
M  V30 777 C 68.9277 4.50121 1.70132 0
M  V30 778 C 71.2797 5.00121 1.46725 0
M  V30 779 C 68.6077 5.74845 1.17348 0
M  V30 780 C 70.9597 6.25366 0.95392 0
M  V30 781 C 69.6237 6.6267 0.801538 0
M  V30 782 H 68.8937 0.582478 0.45804 0
M  V30 783 H 71.5407 1.83373 0.551948 0
M  V30 784 H 69.8457 2.40041 3.09657 0
M  V30 785 H 71.5427 2.74925 2.9192 0
M  V30 786 H 68.1327 3.81274 1.95775 0
M  V30 787 H 72.3167 4.71048 1.56294 0
M  V30 788 H 67.5727 6.02444 1.04264 0
M  V30 789 H 71.7467 6.93301 0.656225 0
M  V30 790 H 69.3737 7.59197 0.390351 0
M  V30 791 N 70.9488 -0.749086 1.3866 0
M  V30 792 C 72.1768 -1.53834 1.38358 0
M  V30 793 C 72.5918 -1.88783 -0.0255219 0
M  V30 794 O 71.9488 -1.53101 -0.993292 0
M  V30 795 C 71.9998 -2.83468 2.2434 0
M  V30 796 O 71.7208 -2.50008 3.5976 0
M  V30 797 C 73.2218 -3.7758 2.32267 0
M  V30 798 H 70.4418 -0.47585 0.473083 0
M  V30 799 H 72.9858 -0.926726 1.82297 0
M  V30 800 H 71.1408 -3.40995 1.83851 0
M  V30 801 H 71.5548 -3.33182 4.05081 0
M  V30 802 H 73.0288 -4.65478 2.96706 0
M  V30 803 H 73.5058 -4.18334 1.33765 0
M  V30 804 H 74.1118 -3.25976 2.73166 0
M  V30 805 N 72.4269 -1.23603 -0.977757 0
M  V30 806 C 73.3769 -0.986664 -2.05545 0
M  V30 807 C 74.3609 0.0683009 -1.60755 0
M  V30 808 O 75.5529 -0.144162 -1.76412 0
M  V30 809 C 72.6819 -0.582623 -3.3832 0
M  V30 810 C 71.7679 -1.67313 -3.89701 0
M  V30 811 N 72.1589 -2.90394 -4.14132 0
M  V30 812 C 70.4569 -1.54832 -4.18262 0
M  V30 813 C 71.1579 -3.61017 -4.56116 0
M  V30 814 N 70.1339 -2.8854 -4.60701 0
M  V30 815 H 73.9359 -1.92139 -2.22396 0
M  V30 816 H 71.4499 -1.1358 -1.16074 0
M  V30 817 H 73.4469 -0.38524 -4.15116 0
M  V30 818 H 72.1069 0.34503 -3.22862 0
M  V30 819 H 73.1179 -3.26673 -4.01877 0
M  V30 820 H 69.7949 -0.687969 -4.11793 0
M  V30 821 H 71.1849 -4.66544 -4.83514 0
M  V30 822 N 73.905 1.17692 -1.04816 0
M  V30 823 C 75.182 1.83768 -0.669963 0
M  V30 824 C 75.562 1.93232 0.849986 0
M  V30 825 O 74.91 1.46397 1.75443 0
M  V30 826 C 75.12 3.21641 -1.35455 0
M  V30 827 C 76.468 3.97592 -1.49017 0
M  V30 828 O 77.492 3.31107 -1.31326 0
M  V30 829 O 76.351 5.16729 -1.77914 0
M  V30 830 H 73.445 0.792799 -0.235368 0
M  V30 831 H 75.991 1.25021 -1.14751 0
M  V30 832 H 74.763 3.097 -2.39168 0
M  V30 833 H 74.386 3.88052 -0.866107 0
M  V30 834 N 75.3831 0.828654 1.34056 0
M  V30 835 C 76.3461 0.259927 2.27721 0
M  V30 836 C 77.3461 -0.565478 1.50529 0
M  V30 837 O 78.5361 -0.38075 1.69988 0
M  V30 838 C 75.6681 -0.634944 3.34935 0
M  V30 839 H 76.8611 1.0863 2.79534 0
M  V30 840 H 74.4141 0.600951 1.44285 0
M  V30 841 H 75.1491 -1.48416 2.88346 0
M  V30 842 H 74.9341 -0.0444999 3.92075 0
M  V30 843 H 76.4241 -1.02648 4.04788 0
M  V30 844 N 76.8612 -1.46375 0.584142 0
M  V30 845 C 78.2772 -1.57694 0.245929 0
M  V30 846 C 78.4772 -1.57903 -1.25175 0
M  V30 847 O 77.5332 -1.49676 -2.03355 0
M  V30 848 C 78.8462 -2.87028 0.896402 0
M  V30 849 C 80.3942 -3.00662 0.870127 0
M  V30 850 C 80.8692 -4.32734 1.50017 0
M  V30 851 N 82.3602 -4.39436 1.46458 0
M  V30 852 C 83.0952 -5.40248 1.92144 0
M  V30 853 N 82.5912 -6.47726 2.4581 0
M  V30 854 N 84.3842 -5.31459 1.83052 0
M  V30 855 H 76.5352 -1.44483 1.55687 0
M  V30 856 H 78.7982 -0.689291 0.650831 0
M  V30 857 H 78.5042 -2.9269 1.95002 0
M  V30 858 H 78.3782 -3.75014 0.405486 0
M  V30 859 H 80.7652 -2.94581 -0.174871 0
M  V30 860 H 80.8462 -2.14148 1.39908 0
M  V30 861 H 80.4902 -4.39573 2.54437 0
M  V30 862 H 80.4202 -5.18025 0.946432 0
M  V30 863 H 82.9112 -3.62367 1.07231 0
M  V30 864 H 83.2242 -7.20863 2.78525 0
M  V30 865 H 81.5692 -6.48542 2.49836 0
M  V30 866 H 84.7602 -4.46396 1.40883 0
M  V30 867 H 84.9332 -6.09881 2.18973 0
M  V30 868 N 78.3393 -0.321999 -1.54275 0
M  V30 869 C 79.2723 0.58718 -2.20516 0
M  V30 870 C 80.2503 1.11693 -1.18167 0
M  V30 871 O 81.4343 1.18122 -1.46899 0
M  V30 872 C 78.5613 1.80554 -2.86562 0
M  V30 873 C 77.6073 1.40718 -4.02617 0
M  V30 874 S 78.4403 0.445218 -5.33646 0
M  V30 875 C 79.5963 1.6709 -6.03185 0
M  V30 876 H 79.8293 0.0244875 -2.9729 0
M  V30 877 H 77.3623 -0.106087 -1.54035 0
M  V30 878 H 79.3203 2.50462 -3.25237 0
M  V30 879 H 77.9813 2.33942 -2.09595 0
M  V30 880 H 77.1743 2.31501 -4.47687 0
M  V30 881 H 76.7763 0.78782 -3.65608 0
M  V30 882 H 79.0683 2.60856 -6.25268 0
M  V30 883 H 80.0113 1.26239 -6.96756 0
M  V30 884 H 80.4193 1.85716 -5.33076 0
M  V30 885 N 79.8174 1.5752 -0.0501392 0
M  V30 886 C 81.0654 1.9227 0.622642 0
M  V30 887 C 81.3864 0.929083 1.71444 0
M  V30 888 O 80.6564 -0.0262186 1.95882 0
M  V30 889 H 79.2364 0.709739 0.232981 0
M  V30 890 H 81.8984 1.94628 -0.102898 0
M  V30 891 H 80.9944 2.93479 1.06191 0
M  V30 892 N 81.2955 -0.223234 1.56011 0
M  V30 893 C 82.7065 -0.790368 1.69145 0
M  V30 894 C 83.0575 -1.85055 0.651845 0
M  V30 895 O 82.1825 -2.15498 -0.197359 0
M  V30 896 C 82.7775 -1.4404 3.06656 0
M  V30 897 C 81.3365 -1.95494 3.2165 0
M  V30 898 C 80.4835 -0.814506 2.65068 0
M  V30 899 H 83.4345 0.00139011 1.587 0
M  V30 900 H 83.4555 -2.30916 3.0242 0
M  V30 901 H 82.9675 -0.668543 3.82298 0
M  V30 902 H 81.0685 -2.75487 2.50874 0
M  V30 903 H 81.1815 -2.13607 4.28846 0
M  V30 904 H 79.5455 -1.22137 2.23505 0
M  V30 905 H 80.3285 -0.0553515 3.43255 0
M  V30 906 N 82.7736 -1.49793 -0.48987 0
M  V30 907 C 83.7206 -1.67281 -1.59014 0
M  V30 908 C 84.6906 -0.514177 -1.57941 0
M  V30 909 O 85.8756 -0.742533 -1.75759 0
M  V30 910 C 83.0156 -1.75569 -2.97102 0
M  V30 911 C 82.1286 -3.0281 -3.08107 0
M  V30 912 C 81.2636 -3.02008 -4.36995 0
M  V30 913 C 80.3026 -4.23782 -4.41673 0
M  V30 914 N 79.4396 -4.20826 -5.62005 0
M  V30 915 H 84.2796 -2.61224 -1.43409 0
M  V30 916 H 81.8166 -1.29508 -0.697565 0
M  V30 917 H 83.7746 -1.78354 -3.77155 0
M  V30 918 H 82.4046 -0.850827 -3.11385 0
M  V30 919 H 81.4566 -3.09584 -2.21047 0
M  V30 920 H 82.7686 -3.92801 -3.07423 0
M  V30 921 H 81.9226 -3.03418 -5.25378 0
M  V30 922 H 80.6616 -2.09815 -4.4026 0
M  V30 923 H 79.6666 -4.22604 -3.5169 0
M  V30 924 H 80.8916 -5.17181 -4.40115 0
M  V30 925 H 78.8376 -3.31476 -5.66091 0
M  V30 926 H 78.7546 -5.04564 -5.62984 0
M  V30 927 H 80.0226 -4.26355 -6.52565 0
M  V30 928 N 84.2517 0.741722 -1.39055 0
M  V30 929 C 85.1617 1.88621 -1.39496 0
M  V30 930 C 86.1777 1.71557 -0.290578 0
M  V30 931 O 87.3537 1.94275 -0.530954 0
M  V30 932 C 84.4187 3.24134 -1.23037 0
M  V30 933 C 83.4797 3.5364 -2.43387 0
M  V30 934 C 82.7127 4.82687 -2.27703 0
M  V30 935 O 82.9357 5.55922 -1.27696 0
M  V30 936 O 81.8697 5.1194 -3.16545 0
M  V30 937 H 85.6957 1.91203 -2.35956 0
M  V30 938 H 83.2807 0.888625 -1.20099 0
M  V30 939 H 85.1627 4.0513 -1.15964 0
M  V30 940 H 83.8377 3.22337 -0.296691 0
M  V30 941 H 82.7447 2.72758 -2.56035 0
M  V30 942 H 84.0777 3.60209 -3.35425 0
M  V30 943 N 85.7298 1.2412 0.971189 0
M  V30 944 C 87.1408 1.07236 1.52831 0
M  V30 945 C 87.4918 -0.357352 1.92918 0
M  V30 946 O 86.6168 -1.24528 1.76979 0
M  V30 947 C 87.2118 1.94043 2.77728 0
M  V30 948 C 85.7708 1.81394 3.29808 0
M  V30 949 C 84.9178 1.89189 2.02738 0
M  V30 950 H 87.8688 1.37648 0.789864 0
M  V30 951 H 87.8898 1.47066 3.5093 0
M  V30 952 H 87.4018 2.98093 2.4852 0
M  V30 953 H 85.5028 0.801634 3.63874 0
M  V30 954 H 85.6158 2.65294 3.98944 0
M  V30 955 H 83.9798 1.32877 2.17292 0
M  V30 956 H 84.7628 2.94812 1.759 0
M  V30 957 N 87.2079 -1.17134 1.05439 0
M  V30 958 C 88.6239 -1.39454 0.776201 0
M  V30 959 C 88.8239 -1.91454 -0.628307 0
M  V30 960 O 87.8799 -2.10777 -1.39031 0
M  V30 961 C 89.1929 -2.38305 1.83388 0
M  V30 962 C 90.7409 -2.52006 1.85639 0
M  V30 963 C 91.2159 -3.54133 2.90437 0
M  V30 964 N 92.7069 -3.61653 2.89415 0
M  V30 965 C 93.4419 -4.4044 3.67152 0
M  V30 966 N 92.9379 -5.22721 4.54681 0
M  V30 967 N 94.7309 -4.35337 3.55581 0
M  V30 968 H 86.8819 -0.817134 1.96053 0
M  V30 969 H 89.1449 -0.421626 0.849079 0
M  V30 970 H 88.8509 -2.07173 2.84204 0
M  V30 971 H 88.7249 -3.37841 1.67761 0
M  V30 972 H 91.1119 -2.82447 0.85486 0
M  V30 973 H 91.1929 -1.52537 2.05344 0
M  V30 974 H 90.8369 -3.24431 3.90777 0
M  V30 975 H 90.7669 -4.53313 2.67983 0
M  V30 976 H 93.2579 -3.02909 2.25952 0
M  V30 977 H 93.5709 -5.80027 5.10674 0
M  V30 978 H 91.9159 -5.22093 4.58741 0
M  V30 979 H 95.1069 -3.70112 2.86592 0
M  V30 980 H 95.2799 -4.96494 4.1641 0
M  V30 981 N 88.686 -0.835752 -1.33615 0
M  V30 982 C 89.911 -0.442389 -2.02627 0
M  V30 983 C 90.336 0.947735 -1.62479 0
M  V30 984 O 89.694 1.61907 -0.815826 0
M  V30 985 C 89.742 -0.567216 -3.56111 0
M  V30 986 O 88.846 0.407799 -4.10379 0
M  V30 987 H 88.187 -0.180278 -0.639059 0
M  V30 988 H 90.717 -1.12972 -1.70583 0
M  V30 989 H 90.727 -0.447708 -4.05536 0
M  V30 990 H 89.402 -1.58103 -3.84677 0
M  V30 991 H 87.979 0.246107 -3.72087 0
M  V30 992 N 90.1641 1.46063 -0.591896 0
M  V30 993 C 91.3921 2.06717 -0.0868936 0
M  V30 994 C 91.8071 1.43916 1.22203 0
M  V30 995 O 91.1641 0.547698 1.74088 0
M  V30 996 C 91.2151 3.6142 0.0758725 0
M  V30 997 O 90.9361 4.21874 -1.18126 0
M  V30 998 C 92.4371 4.39025 0.61416 0
M  V30 999 H 89.6571 0.668162 -0.0616518 0
M  V30 1000 H 92.2011 1.8755 -0.815175 0
M  V30 1001 H 90.3561 3.79983 0.754413 0
M  V30 1002 H 90.7701 5.14861 -1.00092 0
M  V30 1003 H 92.2441 5.4783 0.677193 0
M  V30 1004 H 92.7211 4.07708 1.63312 0
M  V30 1005 H 93.3271 4.2529 -0.0298142 0
M  V30 1006 N 91.6422 0.330177 1.54103 0
M  V30 1007 C 92.8882 -0.270806 2.00984 0
M  V30 1008 C 93.2212 -1.51265 1.21789 0
M  V30 1009 O 92.4962 -1.92142 0.301927 0
M  V30 1010 C 92.7792 -0.598339 3.55094 0
M  V30 1011 C 92.6322 0.654674 4.4501 0
M  V30 1012 C 93.9512 -1.41334 4.16789 0
M  V30 1013 H 91.0702 -0.0969531 0.730595 0
M  V30 1014 H 93.7122 0.448066 1.84641 0
M  V30 1015 H 91.8622 -1.21078 3.69151 0
M  V30 1016 H 93.5342 1.29285 4.42813 0
M  V30 1017 H 91.7772 1.28224 4.14416 0
M  V30 1018 H 92.4482 0.380944 5.50684 0
M  V30 1019 H 94.9242 -0.895597 4.06347 0
M  V30 1020 H 93.8002 -1.61127 5.24718 0
M  V30 1021 H 94.0612 -2.41146 3.70541 0
M  V30 1022 N 93.1203 -1.57491 0.0584922 0
M  V30 1023 C 94.0503 -2.14988 -0.911178 0
M  V30 1024 C 95.0313 -1.07343 -1.31952 0
M  V30 1025 O 96.2163 -1.35318 -1.39294 0
M  V30 1026 C 93.3463 -2.70078 -2.18347 0
M  V30 1027 C 92.3003 -3.82771 -1.91495 0
M  V30 1028 C 91.6263 -4.24408 -3.25241 0
M  V30 1029 C 92.9263 -5.07592 -1.23075 0
M  V30 1030 H 94.6203 -2.96263 -0.432246 0
M  V30 1031 H 92.1663 -1.42512 -0.206469 0
M  V30 1032 H 94.1193 -3.08943 -2.86587 0
M  V30 1033 H 92.8433 -1.86005 -2.68458 0
M  V30 1034 H 91.5023 -3.44389 -1.25664 0
M  V30 1035 H 91.1503 -3.37275 -3.73168 0
M  V30 1036 H 90.8503 -5.00366 -3.08071 0
M  V30 1037 H 92.3743 -4.65879 -3.94701 0
M  V30 1038 H 93.7883 -5.43857 -1.81362 0
M  V30 1039 H 92.1853 -5.88741 -1.16207 0
M  V30 1040 H 93.2553 -4.84454 -0.207847 0
M  V30 1041 N 94.5984 0.214957 -1.56127 0
M  V30 1042 C 95.8264 0.955092 -1.83536 0
M  V30 1043 C 96.2414 1.77677 -0.638472 0
M  V30 1044 O 95.5984 1.78219 0.392968 0
M  V30 1045 C 95.6494 1.86734 -3.09536 0
M  V30 1046 O 95.3704 1.07887 -4.24608 0
M  V30 1047 C 96.8714 2.72082 -3.4998 0
M  V30 1048 H 94.0914 0.279611 -0.609966 0
M  V30 1049 H 96.6354 0.228197 -2.03223 0
M  V30 1050 H 94.7904 2.5481 -2.91806 0
M  V30 1051 H 95.2044 1.69872 -4.9623 0
M  V30 1052 H 96.6784 3.31782 -4.41163 0
M  V30 1053 H 97.1554 3.44806 -2.7204 0
M  V30 1054 H 97.7614 2.09409 -3.70173 0
M  V30 1055 N 96.0765 1.50051 0.48192 0
M  V30 1056 C 97.4875 1.5348 1.06305 0
M  V30 1057 C 97.8385 0.331997 1.93371 0
M  V30 1058 O 96.9635 -0.556256 2.09129 0
M  V30 1059 C 97.5585 2.7813 1.93466 0
M  V30 1060 C 96.1175 2.84275 2.46707 0
M  V30 1061 C 95.2645 2.47637 1.24785 0
M  V30 1062 H 98.2155 1.56472 0.264995 0
M  V30 1063 H 98.2365 2.59372 2.78399 0
M  V30 1064 H 97.7485 3.65654 1.30072 0
M  V30 1065 H 95.8495 2.01077 3.13686 0
M  V30 1066 H 95.9625 3.8691 2.82555 0
M  V30 1067 H 94.3265 1.99835 1.57918 0
M  V30 1068 H 95.1095 3.37457 0.630694 0
M  V30 1069 N 97.5546 -0.734337 1.39446 0
M  V30 1070 C 98.4646 -1.87879 1.40495 0
M  V30 1071 C 99.4806 -1.714 0.299672 0
M  V30 1072 O 100.657 -1.93991 0.541249 0
M  V30 1073 C 97.7216 -3.23477 1.24754 0
M  V30 1074 C 96.7826 -3.52344 2.45259 0
M  V30 1075 C 96.0156 -4.81473 2.30259 0
M  V30 1076 O 96.2386 -5.55237 1.30643 0
M  V30 1077 O 95.1726 -5.10254 3.19256 0
M  V30 1078 H 98.9986 -1.89949 2.36966 0
M  V30 1079 H 96.5836 -0.882243 1.20569 0
M  V30 1080 H 98.4656 -4.04509 1.18111 0
M  V30 1081 H 97.1406 -3.22176 0.313781 0
M  V30 1082 H 96.0476 -2.71396 2.57478 0
M  V30 1083 H 97.3806 -3.58426 3.37331 0
M  V30 1084 N 99.0327 -1.24633 -0.964593 0
M  V30 1085 C 99.9647 -0.999302 -2.06268 0
M  V30 1086 C 100.978 0.0323226 -1.62768 0
M  V30 1087 O 102.167 -0.205079 -1.77318 0
M  V30 1088 C 99.2667 -0.486816 -3.35385 0
M  V30 1089 C 98.4397 -1.5823 -4.07777 0
M  V30 1090 C 97.4987 -1.07191 -5.15166 0
M  V30 1091 O 96.5247 -1.76426 -5.41168 0
M  V30 1092 N 97.7267 0.0920373 -5.80427 0
M  V30 1093 H 100.492 -1.94477 -2.28033 0
M  V30 1094 H 98.0527 -1.15704 -1.13244 0
M  V30 1095 H 100.045 -0.130066 -4.04491 0
M  V30 1096 H 98.6147 0.364459 -3.10468 0
M  V30 1097 H 97.8347 -2.11109 -3.32906 0
M  V30 1098 H 99.1227 -2.31854 -4.52903 0
M  V30 1099 H 98.5207 0.670784 -5.61709 0
M  V30 1100 H 97.0777 0.389905 -6.50633 0
M  V30 1101 N 100.511 1.16574 -1.06058 0
M  V30 1102 C 101.421 2.2452 -0.680282 0
M  V30 1103 C 102.437 1.71348 0.302604 0
M  V30 1104 O 103.613 2.00822 0.152513 0
M  V30 1105 C 100.678 3.46629 -0.0700315 0
M  V30 1106 C 99.7388 4.14849 -1.10448 0
M  V30 1107 C 98.9718 5.31129 -0.523256 0
M  V30 1108 O 99.1948 5.66514 0.664709 0
M  V30 1109 O 98.1288 5.88526 -1.26179 0
M  V30 1110 H 101.955 2.59355 -1.58015 0
M  V30 1111 H 99.5398 1.24043 -0.832694 0
M  V30 1112 H 101.422 4.20543 0.268667 0
M  V30 1113 H 100.097 3.13573 0.803353 0
M  V30 1114 H 99.0038 3.42916 -1.49532 0
M  V30 1115 H 100.337 4.51954 -1.94931 0
M  V30 1116 N 101.989 0.842826 1.3317 0
M  V30 1117 C 102.952 0.284065 2.27433 0
M  V30 1118 C 103.952 -0.54948 1.5112 0
M  V30 1119 O 105.142 -0.362699 1.70382 0
M  V30 1120 C 102.274 -0.599384 3.35589 0
M  V30 1121 H 103.467 1.11589 2.78366 0
M  V30 1122 H 101.02 0.616221 1.4364 0
M  V30 1123 H 101.755 -1.45349 2.89904 0
M  V30 1124 H 101.54 -0.00291266 3.921 0
M  V30 1125 H 103.03 -0.983488 4.05854 0
M  V30 1126 N 103.467 -1.45747 0.599634 0
M  V30 1127 C 104.43 -2.28917 -0.113835 0
M  V30 1128 C 105.43 -1.3933 -0.802729 0
M  V30 1129 O 106.62 -1.61534 -0.652103 0
M  V30 1130 C 103.752 -3.20152 -1.17114 0
M  V30 1131 H 104.945 -2.93478 0.617289 0
M  V30 1132 H 102.498 -1.52137 0.358327 0
M  V30 1133 H 103.233 -2.60374 -1.93329 0
M  V30 1134 H 103.018 -3.86133 -0.681468 0
M  V30 1135 H 104.508 -3.82708 -1.67105 0
M  V30 1136 N 104.945 -0.338344 -1.53925 0
M  V30 1137 C 106.185 0.260168 -2.02737 0
M  V30 1138 C 106.549 1.48181 -1.22092 0
M  V30 1139 O 107.75 2.15416 -1.60777 0
M  V30 1140 C 106.021 0.571627 -3.52799 0
M  V30 1141 S 107.58 1.14769 -4.23525 0
M  V30 1142 H 104.398 0.077791 -0.706732 0
M  V30 1143 H 107 -0.474899 -1.89644 0
M  V30 1144 H 105.704 -0.325392 -4.09108 0
M  V30 1145 H 105.235 1.3365 -3.70002 0
M  V30 1146 H 107.25 2.43372 -4.32417 0
M  V30 1147 N 106.423 1.57458 -0.0668435 0
M  V30 1148 C 107.669 1.93587 0.6043 0
M  V30 1149 C 108.002 0.946722 1.69561 0
M  V30 1150 O 107.277 -0.0248516 1.94484 0
M  V30 1151 C 107.56 3.40014 1.18585 0
M  V30 1152 C 107.413 4.49685 0.101529 0
M  V30 1153 C 108.732 3.87154 2.09284 0
M  V30 1154 H 105.851 0.703958 0.218202 0
M  V30 1155 H 108.493 1.89542 -0.131804 0
M  V30 1156 H 106.643 3.43592 1.81319 0
M  V30 1157 H 108.315 4.5823 -0.531279 0
M  V30 1158 H 106.558 4.30059 -0.568487 0
M  V30 1159 H 107.229 5.49266 0.54874 0
M  V30 1160 H 109.705 3.85551 1.56491 0
M  V30 1161 H 108.581 4.90231 2.46911 0
M  V30 1162 H 108.842 3.2481 2.99918 0
M  V30 1163 N 107.901 -0.206675 1.56239 0
M  V30 1164 C 108.864 -1.23976 1.92776 0
M  V30 1165 C 109.864 -1.39041 0.807729 0
M  V30 1166 O 111.054 -1.37051 1.0753 0
M  V30 1167 C 108.186 -2.61112 2.19165 0
M  V30 1168 H 109.379 -0.927764 2.85189 0
M  V30 1169 H 106.932 -0.447718 1.4975 0
M  V30 1170 H 107.667 -2.97386 1.29352 0
M  V30 1171 H 107.452 -2.51552 3.00772 0
M  V30 1172 H 108.942 -3.35633 2.48476 0
M  V30 1173 N 109.379 -1.50304 -0.473955 0
M  V30 1174 C 110.626 -1.6115 -1.22625 0
M  V30 1175 C 110.954 -0.310517 -1.92005 0
M  V30 1176 O 110.209 0.703419 -1.82621 0
M  V30 1177 C 110.508 -2.73938 -2.29549 0
M  V30 1178 C 110.174 -4.14519 -1.7744 0
M  V30 1179 C 108.836 -4.5277 -1.62949 0
M  V30 1180 C 111.188 -5.02392 -1.3875 0
M  V30 1181 C 108.516 -5.76639 -1.08187 0
M  V30 1182 C 110.868 -6.26805 -0.854309 0
M  V30 1183 C 109.532 -6.63861 -0.696011 0
M  V30 1184 H 108.802 -0.589691 -0.448715 0
M  V30 1185 H 111.449 -1.84228 -0.522705 0
M  V30 1186 H 109.754 -2.44937 -3.05799 0
M  V30 1187 H 111.451 -2.79534 -2.87509 0
M  V30 1188 H 108.041 -3.8434 -1.89685 0
M  V30 1189 H 112.225 -4.73474 -1.4878 0
M  V30 1190 H 107.481 -6.04027 -0.946666 0
M  V30 1191 H 111.655 -6.94258 -0.545843 0
M  V30 1192 H 109.282 -7.59722 -0.26952 0
M  V30 1193 N 110.857 0.726932 -1.39834 0
M  V30 1194 C 112.273 1.03354 -1.21615 0
M  V30 1195 C 112.473 2.01327 -0.08338 0
M  V30 1196 O 111.529 2.46158 0.56238 0
M  V30 1197 C 112.842 1.58811 -2.55342 0
M  V30 1198 C 114.39 1.70851 -2.62257 0
M  V30 1199 C 114.865 2.29716 -3.96225 0
M  V30 1200 N 116.356 2.37116 -3.97907 0
M  V30 1201 C 117.091 2.83619 -4.98345 0
M  V30 1202 N 116.587 3.29958 -6.09179 0
M  V30 1203 N 118.38 2.82901 -4.8572 0
M  V30 1204 H 110.531 0.0773069 -2.12259 0
M  V30 1205 H 112.794 0.0969102 -0.943034 0
M  V30 1206 H 112.5 0.942855 -3.38826 0
M  V30 1207 H 112.374 2.57502 -2.75632 0
M  V30 1208 H 114.761 2.34497 -1.79152 0
M  V30 1209 H 114.842 0.707913 -2.45809 0
M  V30 1210 H 114.486 1.66696 -4.79765 0
M  V30 1211 H 114.416 3.30469 -4.09997 0
M  V30 1212 H 116.907 2.04374 -3.17868 0
M  V30 1213 H 117.22 3.63976 -6.8172 0
M  V30 1214 H 115.565 3.27946 -6.12761 0
M  V30 1215 H 118.756 2.46027 -3.98231 0
M  V30 1216 H 118.929 3.18827 -5.6414 0
M  V30 1217 N 112.336 1.25143 0.95797 0
M  V30 1218 C 113.283 1.05235 2.05412 0
M  V30 1219 C 114.253 -0.0374561 1.66058 0
M  V30 1220 O 115.438 0.119073 1.90428 0
M  V30 1221 C 112.578 0.673589 3.38462 0
M  V30 1222 C 111.691 1.8379 3.90954 0
M  V30 1223 C 110.826 1.40381 5.12315 0
M  V30 1224 C 109.865 2.53746 5.57027 0
M  V30 1225 N 109.002 2.11136 6.69601 0
M  V30 1226 H 113.842 1.99048 2.21774 0
M  V30 1227 H 111.379 0.991277 1.08683 0
M  V30 1228 H 113.337 0.434964 4.14926 0
M  V30 1229 H 111.967 -0.227554 3.21997 0
M  V30 1230 H 111.019 2.18992 3.11041 0
M  V30 1231 H 112.331 2.68937 4.20089 0
M  V30 1232 H 111.485 1.12464 5.96185 0
M  V30 1233 H 110.224 0.523015 4.84887 0
M  V30 1234 H 109.229 2.82412 4.71724 0
M  V30 1235 H 110.454 3.42398 5.86464 0
M  V30 1236 H 108.4 1.25468 6.4389 0
M  V30 1237 H 108.317 2.89832 6.98236 0
M  V30 1238 H 109.585 1.86385 7.56889 0
M  V30 1239 N 113.814 -1.1601 1.06675 0
M  V30 1240 C 114.764 -2.18512 0.650888 0
M  V30 1241 C 115.748 -1.57677 -0.320441 0
M  V30 1242 O 116.94 -1.76482 -0.135266 0
M  V30 1243 C 114.069 -3.43273 0.0429255 0
M  V30 1244 C 113.155 -4.11176 1.03898 0
M  V30 1245 N 113.546 -4.54672 2.216 0
M  V30 1246 C 111.844 -4.37417 0.870779 0
M  V30 1247 C 112.545 -5.07248 2.84736 0
M  V30 1248 N 111.521 -5.0037 2.12441 0
M  V30 1249 H 115.323 -2.49863 1.54745 0
M  V30 1250 H 112.837 -1.32503 0.938975 0
M  V30 1251 H 114.834 -4.16006 -0.272857 0
M  V30 1252 H 113.494 -3.13408 -0.84884 0
M  V30 1253 H 114.505 -4.4828 2.59356 0
M  V30 1254 H 111.182 -4.17488 0.0313293 0
M  V30 1255 H 112.572 -5.50912 3.84636 0
M  V30 1256 N 115.292 -0.849877 -1.32721 0
M  V30 1257 C 116.52 -0.464754 -2.01613 0
M  V30 1258 C 116.935 0.937191 -1.63897 0
M  V30 1259 O 116.292 1.61081 -0.857856 0
M  V30 1260 C 116.343 -0.588638 -3.56675 0
M  V30 1261 O 116.064 -1.93535 -3.93034 0
M  V30 1262 C 117.565 -0.2019 -4.4284 0
M  V30 1263 H 114.785 -0.183215 -0.645502 0
M  V30 1264 H 117.329 -1.1455 -1.69407 0
M  V30 1265 H 115.484 0.0443159 -3.87375 0
M  V30 1266 H 115.898 -1.92871 -4.87751 0
M  V30 1267 H 117.372 -0.339599 -5.50954 0
M  V30 1268 H 117.849 0.857224 -4.30753 0
M  V30 1269 H 118.455 -0.809733 -4.17521 0
M  V30 1270 N 116.77 1.45427 -0.607355 0
M  V30 1271 C 117.7 2.3329 0.0989352 0
M  V30 1272 C 118.681 1.46816 0.859007 0
M  V30 1273 O 119.866 1.75588 0.829604 0
M  V30 1274 C 116.996 3.29518 1.09705 0
M  V30 1275 C 115.95 4.25626 0.450206 0
M  V30 1276 C 115.276 5.11542 1.55655 0
M  V30 1277 C 116.576 5.18505 -0.628455 0
M  V30 1278 H 118.27 2.92595 -0.634716 0
M  V30 1279 H 115.816 1.40696 -0.306681 0
M  V30 1280 H 117.769 3.89855 1.59971 0
M  V30 1281 H 116.493 2.68372 1.86129 0
M  V30 1282 H 115.152 3.66586 -0.0315886 0
M  V30 1283 H 114.8 4.46765 2.31107 0
M  V30 1284 H 114.5 5.76647 1.12925 0
M  V30 1285 H 116.024 5.74748 2.06148 0
M  V30 1286 H 117.438 5.72916 -0.209877 0
M  V30 1287 H 115.835 5.92085 -0.977489 0
M  V30 1288 H 116.905 4.60948 -1.50514 0
M  V30 1289 N 118.248 0.346503 1.53744 0
M  V30 1290 C 119.178 -0.501193 2.28058 0
M  V30 1291 C 120.159 -1.10014 1.29734 0
M  V30 1292 O 121.344 -1.12097 1.58581 0
M  V30 1293 C 118.474 -1.65078 3.05559 0
M  V30 1294 C 117.428 -1.18003 4.11411 0
M  V30 1295 C 116.754 -2.41837 4.76884 0
M  V30 1296 C 118.054 -0.278394 5.21558 0
M  V30 1297 H 119.748 0.11875 2.99164 0
M  V30 1298 H 117.294 0.0585531 1.43881 0
M  V30 1299 H 119.247 -2.25028 3.56287 0
M  V30 1300 H 117.971 -2.29767 2.32109 0
M  V30 1301 H 116.63 -0.603331 3.61601 0
M  V30 1302 H 116.278 -3.0494 4.00026 0
M  V30 1303 H 115.978 -2.1102 5.48402 0
M  V30 1304 H 117.502 -3.02508 5.30397 0
M  V30 1305 H 118.916 -0.784823 5.67903 0
M  V30 1306 H 117.313 -0.0619707 6.00068 0
M  V30 1307 H 118.383 0.684677 4.80042 0
M  V30 1308 N 119.726 -1.57421 0.075193 0
M  V30 1309 C 121.137 -1.81021 -0.456964 0
M  V30 1310 C 121.488 -0.98936 -1.69429 0
M  V30 1311 O 120.613 -0.212865 -2.15351 0
M  V30 1312 C 121.208 -3.28329 -0.83581 0
M  V30 1313 C 119.767 -3.52764 -1.31281 0
M  V30 1314 C 118.914 -2.75676 -0.299648 0
M  V30 1315 H 121.865 -1.55822 0.300856 0
M  V30 1316 H 121.886 -3.40564 -1.69696 0
M  V30 1317 H 121.398 -3.88046 0.0649238 0
M  V30 1318 H 119.499 -2.98355 -2.23193 0
M  V30 1319 H 119.612 -4.61451 -1.28839 0
M  V30 1320 H 117.976 -2.42538 -0.777641 0
M  V30 1321 H 118.759 -3.38132 0.593417 0
M  V30 1322 N 121.204 0.198386 -1.56346 0
M  V30 1323 C 122.134 1.24865 -1.9731 0
M  V30 1324 C 123.115 1.47651 -0.844576 0
M  V30 1325 O 124.3 1.59444 -1.10866 0
M  V30 1326 C 121.43 2.59358 -2.30977 0
M  V30 1327 C 120.384 2.5119 -3.46537 0
M  V30 1328 C 119.71 3.89926 -3.65871 0
M  V30 1329 C 121.01 2.03977 -4.80823 0
M  V30 1330 H 122.704 0.908252 -2.85291 0
M  V30 1331 H 120.25 0.435462 -1.37258 0
M  V30 1332 H 122.203 3.33011 -2.58228 0
M  V30 1333 H 120.927 2.95132 -1.39874 0
M  V30 1334 H 119.586 1.79993 -3.19371 0
M  V30 1335 H 119.234 4.23046 -2.72105 0
M  V30 1336 H 118.934 3.85336 -4.4361 0
M  V30 1337 H 120.458 4.65205 -3.95495 0
M  V30 1338 H 121.872 2.67386 -5.07127 0
M  V30 1339 H 120.269 2.10397 -5.62008 0
M  V30 1340 H 121.339 0.992861 -4.74626 0
M  V30 1341 N 122.682 1.50554 0.465978 0
M  V30 1342 C 123.959 1.5232 1.22712 0
M  V30 1343 C 124.339 0.270807 2.09356 0
M  V30 1344 O 123.687 -0.745541 2.15995 0
M  V30 1345 C 123.897 2.82175 2.05374 0
M  V30 1346 C 125.245 3.33033 2.6339 0
M  V30 1347 O 126.269 2.83531 2.15612 0
M  V30 1348 O 125.128 4.19336 3.50456 0
M  V30 1349 H 122.222 0.611183 0.557122 0
M  V30 1350 H 124.768 1.62847 0.477381 0
M  V30 1351 H 123.54 3.64797 1.41558 0
M  V30 1352 H 123.163 2.74675 2.87471 0
M  V30 1353 N 124.16 -0.719506 1.40217 0
M  V30 1354 C 125.437 -1.47221 1.28784 0
M  V30 1355 C 125.817 -2.10883 -0.0956067 0
M  V30 1356 O 125.165 -1.99833 -1.10811 0
M  V30 1357 C 125.375 -2.5111 2.42373 0
M  V30 1358 C 126.723 -3.17053 2.82423 0
M  V30 1359 O 127.747 -2.61429 2.41937 0
M  V30 1360 O 126.606 -4.17742 3.52355 0
M  V30 1361 H 123.7 -0.654491 0.50554 0
M  V30 1362 H 126.246 -0.752014 1.52128 0
M  V30 1363 H 125.018 -2.02556 3.34793 0
M  V30 1364 H 124.641 -3.3067 2.20778 0
M  V30 1365 N 125.638 -1.25649 -0.95132 0
M  V30 1366 C 126.878 -1.11802 -1.71113 0
M  V30 1367 C 127.242 0.334758 -1.89059 0
M  V30 1368 O 128.443 0.595121 -2.62129 0
M  V30 1369 C 126.714 -1.85512 -3.05483 0
M  V30 1370 S 128.273 -1.87597 -3.96677 0
M  V30 1371 H 125.091 -0.399552 -0.588115 0
M  V30 1372 H 127.693 -1.59222 -1.1344 0
M  V30 1373 H 126.397 -2.90299 -2.90094 0
M  V30 1374 H 125.928 -1.38493 -3.68216 0
M  V30 1375 H 127.943 -0.955389 -4.86916 0
M  V30 1376 N 127.117 1.15442 -1.07289 0
M  V30 1377 C 128.047 2.22312 -0.714107 0
M  V30 1378 C 129.028 1.67467 0.298155 0
M  V30 1379 O 130.213 1.93445 0.171048 0
M  V30 1380 C 127.343 3.47124 -0.110448 0
M  V30 1381 C 126.297 4.14926 -1.04979 0
M  V30 1382 C 125.623 5.33807 -0.308924 0
M  V30 1383 C 126.923 4.64762 -2.38314 0
M  V30 1384 H 128.617 2.5258 -1.6076 0
M  V30 1385 H 126.163 1.21404 -0.77441 0
M  V30 1386 H 128.116 4.21124 0.152482 0
M  V30 1387 H 126.84 3.16187 0.81812 0
M  V30 1388 H 125.499 3.42866 -1.29764 0
M  V30 1389 H 125.147 4.99126 0.623084 0
M  V30 1390 H 124.847 5.80113 -0.935036 0
M  V30 1391 H 126.371 6.10576 -0.0537771 0
M  V30 1392 H 127.785 5.30292 -2.1786 0
M  V30 1393 H 126.182 5.21728 -2.96514 0
M  V30 1394 H 127.252 3.80434 -3.00663 0
M  V30 1395 N 128.595 0.856903 1.32268 0
M  V30 1396 C 129.825 0.47475 2.01071 0
M  V30 1397 C 130.233 -0.933746 1.64553 0
M  V30 1398 O 129.576 -1.62114 0.863989 0
M  V30 1399 C 129.638 0.536746 3.55471 0
M  V30 1400 C 129.302 1.90453 4.15423 0
M  V30 1401 C 130.299 2.87029 4.33486 0
M  V30 1402 C 127.984 2.20229 4.51447 0
M  V30 1403 C 129.978 4.11532 4.86744 0
M  V30 1404 C 127.665 3.44984 5.0441 0
M  V30 1405 C 128.663 4.40452 5.22007 0
M  V30 1406 O 128.351 5.62998 5.73837 0
M  V30 1407 H 128.083 0.184778 0.650256 0
M  V30 1408 H 130.637 1.15615 1.69771 0
M  V30 1409 H 128.867 -0.20152 3.86175 0
M  V30 1410 H 130.556 0.169875 4.05544 0
M  V30 1411 H 131.322 2.6533 4.05986 0
M  V30 1412 H 127.201 1.46705 4.37034 0
M  V30 1413 H 130.745 4.86056 5.00395 0
M  V30 1414 H 126.642 3.66532 5.31342 0
M  V30 1415 H 127.41 5.64987 5.92226 0
M  V30 1416 N 130.073 -1.45103 0.615059 0
M  V30 1417 C 131.036 -2.29025 -0.0895485 0
M  V30 1418 C 132.036 -1.40174 -0.787906 0
M  V30 1419 O 133.226 -1.62217 -0.634933 0
M  V30 1420 C 130.358 -3.21376 -1.13711 0
M  V30 1421 H 131.551 -2.92807 0.648382 0
M  V30 1422 H 129.104 -1.51749 0.374444 0
M  V30 1423 H 129.839 -2.6241 -1.90556 0
M  V30 1424 H 129.624 -3.86834 -0.640475 0
M  V30 1425 H 131.114 -3.84459 -1.63036 0
M  V30 1426 N 131.551 -0.354651 -1.53558 0
M  V30 1427 C 132.481 0.489091 -2.2832 0
M  V30 1428 C 133.462 1.09324 -1.30316 0
M  V30 1429 O 134.647 1.11255 -1.59173 0
M  V30 1430 C 131.777 1.63456 -3.0643 0
M  V30 1431 C 130.731 1.1582 -4.12031 0
M  V30 1432 C 130.057 2.39305 -4.7816 0
M  V30 1433 C 131.357 0.250731 -5.21698 0
M  V30 1434 H 133.051 -0.134614 -2.99097 0
M  V30 1435 H 130.597 -0.0661826 -1.43848 0
M  V30 1436 H 132.55 2.23136 -3.57475 0
M  V30 1437 H 131.274 2.28533 -2.33325 0
M  V30 1438 H 129.933 0.584146 -3.61916 0
M  V30 1439 H 129.581 3.02814 -4.01637 0
M  V30 1440 H 129.281 2.08109 -5.49513 0
M  V30 1441 H 130.805 2.99691 -5.31994 0
M  V30 1442 H 132.219 0.754695 -5.68311 0
M  V30 1443 H 130.616 0.0301468 -6.00092 0
M  V30 1444 H 131.686 -0.710125 -4.79672 0
M  V30 1445 N 133.029 1.57378 -0.0835403 0
M  V30 1446 C 133.961 2.10389 0.909338 0
M  V30 1447 C 134.974 1.03858 1.25369 0
M  V30 1448 O 136.163 1.31338 1.20882 0
M  V30 1449 C 133.263 2.55908 2.2218 0
M  V30 1450 C 132.436 3.86145 2.05453 0
M  V30 1451 C 131.495 4.17633 3.20108 0
M  V30 1452 O 130.521 4.87043 2.94581 0
M  V30 1453 N 131.723 3.72113 4.45547 0
M  V30 1454 H 134.488 2.962 0.456657 0
M  V30 1455 H 132.049 1.61579 0.101877 0
M  V30 1456 H 134.041 2.74027 2.97811 0
M  V30 1457 H 132.611 1.75171 2.58909 0
M  V30 1458 H 131.831 3.7729 1.1422 0
M  V30 1459 H 133.119 4.7137 1.91541 0
M  V30 1460 H 132.517 3.16062 4.69171 0
M  V30 1461 H 131.074 3.95409 5.18165 0
M  V30 1462 N 134.507 -0.190092 1.56449 0
M  V30 1463 C 135.732 -0.929864 1.85387 0
M  V30 1464 C 136.157 -1.7585 0.667704 0
M  V30 1465 O 135.515 -1.77198 -0.383459 0
M  V30 1466 C 135.563 -1.79773 3.12593 0
M  V30 1467 O 134.667 -2.89713 2.93496 0
M  V30 1468 H 134.008 -0.261574 0.610307 0
M  V30 1469 H 136.538 -0.193896 2.03679 0
M  V30 1470 H 136.548 -2.20139 3.43515 0
M  V30 1471 H 135.223 -1.18892 3.98544 0
M  V30 1472 H 133.8 -2.53065 2.73884 0
M  V30 1473 N 135.985 -1.50799 -0.457987 0
M  V30 1474 C 137.21 -1.66496 -1.23668 0
M  V30 1475 C 137.635 -0.353288 -1.84752 0
M  V30 1476 O 136.993 0.684346 -1.67888 0
M  V30 1477 C 137.041 -2.76763 -2.3116 0
M  V30 1478 O 136.145 -2.38928 -3.36136 0
M  V30 1479 H 135.486 -0.555828 -0.363252 0
M  V30 1480 H 138.016 -1.9725 -0.543474 0
M  V30 1481 H 138.026 -3.00232 -2.76269 0
M  V30 1482 H 136.701 -3.71954 -1.86073 0
M  V30 1483 H 135.278 -2.25953 -2.96647 0
M  V30 1484 N 137.463 0.71206 -1.40597 0
M  V30 1485 C 138.712 1.46754 -1.38369 0
M  V30 1486 C 139.025 1.95598 0.0097839 0
M  V30 1487 O 140.231 2.71059 0.154677 0
M  V30 1488 C 138.687 2.65289 -2.43207 0
M  V30 1489 C 138.295 2.23301 -3.88382 0
M  V30 1490 C 140.039 3.43008 -2.50091 0
M  V30 1491 C 137.946 3.38696 -4.84808 0
M  V30 1492 H 136.876 0.55118 -0.514506 0
M  V30 1493 H 139.527 0.774616 -1.66349 0
M  V30 1494 H 137.909 3.36769 -2.08332 0
M  V30 1495 H 139.083 1.59218 -4.32419 0
M  V30 1496 H 137.398 1.58618 -3.85006 0
M  V30 1497 H 139.995 4.28881 -3.1932 0
M  V30 1498 H 140.338 3.87065 -1.53253 0
M  V30 1499 H 140.871 2.78574 -2.83974 0
M  V30 1500 H 137.61 2.99668 -5.82992 0
M  V30 1501 H 137.13 4.01683 -4.45433 0
M  V30 1502 H 138.809 4.04712 -5.04794 0
M  V30 1503 N 138.941 1.26152 0.944643 0
M  V30 1504 C 140.352 1.10454 1.50522 0
M  V30 1505 C 140.703 -0.31635 1.93633 0
M  V30 1506 O 139.828 -1.20746 1.79581 0
M  V30 1507 C 140.423 1.99891 2.73549 0
M  V30 1508 C 138.982 1.88348 3.25886 0
M  V30 1509 C 138.129 1.93447 1.9868 0
M  V30 1510 H 141.08 1.39292 0.760489 0
M  V30 1511 H 141.101 1.54477 3.47732 0
M  V30 1512 H 140.613 3.03297 2.42141 0
M  V30 1513 H 138.714 0.878636 3.62092 0
M  V30 1514 H 138.827 2.73696 3.93227 0
M  V30 1515 H 137.191 1.37456 2.14425 0
M  V30 1516 H 137.974 2.98476 1.69607 0
M  V30 1517 N 140.419 -1.14872 1.07899 0
M  V30 1518 C 141.647 -1.89661 0.82683 0
M  V30 1519 C 142.062 -1.78312 -0.620519 0
M  V30 1520 O 141.419 -1.13888 -1.42604 0
M  V30 1521 C 141.47 -3.39817 1.23316 0
M  V30 1522 O 141.191 -3.50845 2.62372 0
M  V30 1523 C 142.692 -4.31615 1.0111 0
M  V30 1524 H 139.912 -0.60092 0.298557 0
M  V30 1525 H 142.456 -1.4551 1.43691 0
M  V30 1526 H 140.611 -3.8161 0.667286 0
M  V30 1527 H 141.025 -4.44076 2.79101 0
M  V30 1528 H 142.499 -5.35367 1.34486 0
M  V30 1529 H 142.976 -4.39169 -0.0522168 0
M  V30 1530 H 143.582 -3.95572 1.56215 0
M  V30 1531 N 141.898 -0.863906 -1.31812 0
M  V30 1532 C 142.828 -0.330843 -2.31144 0
M  V30 1533 C 143.809 0.575005 -1.60087 0
M  V30 1534 O 144.994 0.493304 -1.8783 0
M  V30 1535 C 142.124 0.47374 -3.44054 0
M  V30 1536 C 141.078 -0.338481 -4.26659 0
M  V30 1537 C 140.404 0.591412 -5.31419 0
M  V30 1538 C 141.704 -1.56926 -4.98168 0
M  V30 1539 H 143.398 -1.16086 -2.75979 0
M  V30 1540 H 140.944 -0.559657 -1.32679 0
M  V30 1541 H 142.897 0.857143 -4.12591 0
M  V30 1542 H 141.621 1.33721 -2.9797 0
M  V30 1543 H 140.28 -0.703754 -3.59782 0
M  V30 1544 H 139.928 1.45199 -4.81587 0
M  V30 1545 H 139.628 0.0519022 -5.87577 0
M  V30 1546 H 141.152 0.97179 -6.02817 0
M  V30 1547 H 142.566 -1.25764 -5.59336 0
M  V30 1548 H 140.963 -2.04739 -5.64094 0
M  V30 1549 H 142.033 -2.32544 -4.25501 0
M  V30 1550 N 143.376 1.44774 -0.622745 0
M  V30 1551 C 144.604 2.06487 -0.130722 0
M  V30 1552 C 145.019 1.46476 1.19123 0
M  V30 1553 O 144.376 0.584502 1.72887 0
M  V30 1554 C 144.427 3.615 -0.000807207 0
M  V30 1555 O 144.148 4.19274 -1.27048 0
M  V30 1556 C 145.649 4.40229 0.520898 0
M  V30 1557 H 142.869 0.666704 -0.0758106 0
M  V30 1558 H 145.413 1.85779 -0.854774 0
M  V30 1559 H 143.568 3.81498 0.673643 0
M  V30 1560 H 143.982 5.12622 -1.1099 0
M  V30 1561 H 145.456 5.49144 0.560838 0
M  V30 1562 H 145.933 4.1108 1.54627 0
M  V30 1563 H 146.539 4.25131 -0.120018 0
M  V30 1564 N 144.854 0.36279 1.53368 0
M  V30 1565 C 146.27 0.0116182 1.59596 0
M  V30 1566 C 146.47 -1.47012 1.37803 0
M  V30 1567 O 145.526 -2.23136 1.18181 0
M  V30 1568 C 146.839 0.465052 2.97082 0
M  V30 1569 C 148.387 0.419033 3.10182 0
M  V30 1570 C 148.862 0.848235 4.50077 0
M  V30 1571 N 150.353 0.803183 4.56183 0
M  V30 1572 C 151.088 1.107 5.62613 0
M  V30 1573 N 150.584 1.47996 6.76808 0
M  V30 1574 N 152.377 1.02998 5.52583 0
M  V30 1575 H 144.528 1.32775 1.65785 0
M  V30 1576 H 146.791 0.542518 0.777417 0
M  V30 1577 H 146.497 1.49892 3.18159 0
M  V30 1578 H 146.371 -0.149786 3.76902 0
M  V30 1579 H 148.758 -0.605696 2.88817 0
M  V30 1580 H 148.839 1.06933 2.32377 0
M  V30 1581 H 148.483 1.87107 4.7218 0
M  V30 1582 H 148.413 0.175218 5.26308 0
M  V30 1583 H 150.904 0.52838 3.74188 0
M  V30 1584 H 151.217 1.69613 7.53957 0
M  V30 1585 H 149.562 1.51859 6.78206 0
M  V30 1586 H 152.753 0.737817 4.62249 0
M  V30 1587 H 152.926 1.2701 6.35431 0
M  V30 1588 N 146.332 -1.57332 0.0918853 0
M  V30 1589 C 147.557 -1.98995 -0.584442 0
M  V30 1590 C 147.982 -0.970528 -1.61128 0
M  V30 1591 O 147.34 0.0613904 -1.81196 0
M  V30 1592 C 147.388 -3.39636 -1.21161 0
M  V30 1593 O 146.492 -3.40447 -2.32744 0
M  V30 1594 H 145.833 -0.647165 -0.148572 0
M  V30 1595 H 148.363 -2.03873 0.172347 0
M  V30 1596 H 148.373 -3.7726 -1.55367 0
M  V30 1597 H 147.048 -4.13356 -0.459313 0
M  V30 1598 H 145.625 -3.14614 -2.0018 0
M  V30 1599 N 147.81 0.181792 -1.56548 0
M  V30 1600 C 149.035 0.920019 -1.85877 0
M  V30 1601 C 149.46 1.75494 -0.677021 0
M  V30 1602 O 148.818 1.77399 0.374056 0
M  V30 1603 C 148.866 1.78112 -3.13542 0
M  V30 1604 O 147.97 2.88152 -2.95029 0
M  V30 1605 H 147.311 0.258334 -0.611686 0
M  V30 1606 H 149.841 0.183092 -2.03779 0
M  V30 1607 H 149.851 2.18314 -3.44678 0
M  V30 1608 H 148.526 1.16777 -3.99169 0
M  V30 1609 H 147.103 2.51609 -2.75222 0
M  V30 1610 N 149.288 1.51039 0.449983 0
M  V30 1611 C 150.218 1.74379 1.55288 0
M  V30 1612 C 151.199 0.593236 1.5942 0
M  V30 1613 O 152.384 0.834625 1.7535 0
M  V30 1614 C 149.514 1.85728 2.93466 0
M  V30 1615 C 148.468 3.01078 3.04197 0
M  V30 1616 C 147.794 2.97595 4.44231 0
M  V30 1617 C 149.094 4.41254 2.7945 0
M  V30 1618 H 150.788 2.66725 1.36008 0
M  V30 1619 H 148.334 1.2835 0.652864 0
M  V30 1620 H 150.287 2.0064 3.70569 0
M  V30 1621 H 149.011 0.900207 3.13949 0
M  V30 1622 H 147.67 2.85851 2.29531 0
M  V30 1623 H 147.318 1.99691 4.61663 0
M  V30 1624 H 147.018 3.75046 4.52343 0
M  V30 1625 H 148.542 3.14583 5.23326 0
M  V30 1626 H 149.956 4.56897 3.46292 0
M  V30 1627 H 148.353 5.20315 2.98985 0
M  V30 1628 H 149.423 4.52164 1.75144 0
M  V30 1629 N 150.766 -0.704594 1.40972 0
M  V30 1630 C 151.716 -1.81051 1.38581 0
M  V30 1631 C 152.7 -1.58759 0.261585 0
M  V30 1632 O 153.892 -1.69745 0.501556 0
M  V30 1633 C 151.021 -3.19279 1.26157 0
M  V30 1634 C 150.107 -3.47296 2.43405 0
M  V30 1635 N 150.498 -3.46064 3.68881 0
M  V30 1636 C 148.796 -3.77804 2.37023 0
M  V30 1637 C 149.497 -3.72733 4.46592 0
M  V30 1638 N 148.473 -3.9203 3.76581 0
M  V30 1639 H 152.275 -1.78448 2.33525 0
M  V30 1640 H 149.789 -0.904198 1.349 0
M  V30 1641 H 151.786 -3.98488 1.22526 0
M  V30 1642 H 150.446 -3.231 0.321902 0
M  V30 1643 H 151.457 -3.26656 4.01891 0
M  V30 1644 H 148.134 -3.8905 1.51481 0
M  V30 1645 H 149.524 -3.77993 5.55492 0
M  V30 1646 N 152.244 -1.26651 -0.937939 0
M  V30 1647 C 153.66 -1.03834 -1.21205 0
M  V30 1648 C 153.86 0.234502 -2.00131 0
M  V30 1649 O 152.916 0.942767 -2.3424 0
M  V30 1650 C 154.229 -2.27167 -1.97017 0
M  V30 1651 C 155.777 -2.32101 -2.09996 0
M  V30 1652 C 156.252 -3.55136 -2.8921 0
M  V30 1653 N 157.743 -3.55632 -2.96783 0
M  V30 1654 C 158.478 -4.475 -3.58512 0
M  V30 1655 N 157.974 -5.4966 -4.21717 0
M  V30 1656 N 159.767 -4.35145 -3.55816 0
M  V30 1657 H 151.918 -2.08398 -0.410391 0
M  V30 1658 H 154.181 -0.916031 -0.244114 0
M  V30 1659 H 153.887 -3.19765 -1.46434 0
M  V30 1660 H 153.761 -2.31672 -2.97671 0
M  V30 1661 H 156.148 -1.40015 -2.59769 0
M  V30 1662 H 156.229 -2.31605 -1.08594 0
M  V30 1663 H 155.873 -4.47553 -2.40123 0
M  V30 1664 H 155.803 -3.5288 -3.90875 0
M  V30 1665 H 158.294 -2.81743 -2.51852 0
M  V30 1666 H 158.607 -6.15943 -4.66727 0
M  V30 1667 H 156.952 -5.53514 -4.20294 0
M  V30 1668 H 160.143 -3.5455 -3.05634 0
M  V30 1669 H 160.316 -5.06934 -4.03636 0
M  V30 1670 N 153.722 1.14298 -1.08507 0
M  V30 1671 C 154.652 2.21542 -0.737646 0
M  V30 1672 C 155.633 1.67773 0.280377 0
M  V30 1673 O 156.818 1.93616 0.150521 0
M  V30 1674 C 153.948 3.46988 -0.147259 0
M  V30 1675 C 152.902 4.13789 -1.09374 0
M  V30 1676 C 152.228 5.33449 -0.365524 0
M  V30 1677 C 153.528 4.62208 -2.4323 0
M  V30 1678 H 155.222 2.5086 -1.6343 0
M  V30 1679 H 152.768 1.20576 -0.787243 0
M  V30 1680 H 154.721 4.21262 0.107808 0
M  V30 1681 H 153.445 3.17037 0.784538 0
M  V30 1682 H 152.104 3.4147 -1.33393 0
M  V30 1683 H 151.752 4.99759 0.57011 0
M  V30 1684 H 151.452 5.79088 -0.996512 0
M  V30 1685 H 152.976 6.10485 -0.118534 0
M  V30 1686 H 154.39 5.27952 -2.23472 0
M  V30 1687 H 152.787 5.18553 -3.02031 0
M  V30 1688 H 153.857 3.77224 -3.04681 0
M  V30 1689 N 155.201 0.870884 1.31352 0
M  V30 1690 C 156.448 0.482273 1.96673 0
M  V30 1691 C 156.776 -0.965638 1.68836 0
M  V30 1692 O 156.031 -1.69514 0.977937 0
M  V30 1693 C 156.33 0.687157 3.50732 0
M  V30 1694 C 155.996 2.108 3.9859 0
M  V30 1695 C 154.658 2.49656 4.1137 0
M  V30 1696 C 157.01 3.03459 4.23748 0
M  V30 1697 C 154.338 3.80412 4.46659 0
M  V30 1698 C 156.69 4.3373 4.60501 0
M  V30 1699 C 155.354 4.725 4.71487 0
M  V30 1700 H 154.624 0.176476 0.719679 0
M  V30 1701 H 157.271 1.10405 1.56471 0
M  V30 1702 H 155.576 -0.0177476 3.91796 0
M  V30 1703 H 157.273 0.366284 3.99324 0
M  V30 1704 H 153.863 1.79633 3.8914 0
M  V30 1705 H 158.047 2.74665 4.13368 0
M  V30 1706 H 153.303 4.1021 4.53362 0
M  V30 1707 H 157.477 5.05578 4.78919 0
M  V30 1708 H 155.104 5.73859 4.98588 0
M  V30 1709 N 156.679 -1.44442 0.630414 0
M  V30 1710 C 157.611 -2.2892 -0.113347 0
M  V30 1711 C 158.624 -1.41243 -0.80959 0
M  V30 1712 O 159.813 -1.65402 -0.671156 0
M  V30 1713 C 156.913 -3.17594 -1.18266 0
M  V30 1714 C 156.086 -4.33682 -0.569073 0
M  V30 1715 C 155.145 -5.03397 -1.53226 0
M  V30 1716 O 154.171 -5.59438 -1.04967 0
M  V30 1717 N 155.373 -5.04783 -2.86661 0
M  V30 1718 H 158.138 -2.93392 0.611636 0
M  V30 1719 H 155.699 -1.54881 0.471523 0
M  V30 1720 H 157.691 -3.61097 -1.82732 0
M  V30 1721 H 156.261 -2.54876 -1.80988 0
M  V30 1722 H 155.481 -3.9338 0.254187 0
M  V30 1723 H 156.769 -5.08608 -0.139767 0
M  V30 1724 H 156.167 -4.60584 -3.28449 0
M  V30 1725 H 154.724 -5.52077 -3.46489 0
M  V30 1726 N 158.157 -0.370918 -1.53173 0
M  V30 1727 C 159.573 -0.0200818 -1.59587 0
M  V30 1728 C 159.773 1.46279 -1.38581 0
M  V30 1729 O 158.829 2.22506 -1.19363 0
M  V30 1730 C 160.142 -0.4808 -2.96831 0
M  V30 1731 C 161.69 -0.435477 -3.09956 0
M  V30 1732 C 162.165 -0.872092 -4.4962 0
M  V30 1733 N 163.656 -0.827364 -4.55751 0
M  V30 1734 C 164.391 -1.13683 -5.62018 0
M  V30 1735 N 163.887 -1.51584 -6.76014 0
M  V30 1736 N 165.68 -1.05927 -5.52029 0
M  V30 1737 H 157.831 -1.33652 -1.65079 0
M  V30 1738 H 160.094 -0.546634 -0.774529 0
M  V30 1739 H 159.8 -1.51577 -3.1736 0
M  V30 1740 H 159.674 0.129796 -3.76977 0
M  V30 1741 H 162.061 0.590371 -2.89134 0
M  V30 1742 H 162.142 -1.08164 -2.31806 0
M  V30 1743 H 161.786 -1.89608 -4.71181 0
M  V30 1744 H 161.716 -0.203127 -5.26208 0
M  V30 1745 H 164.207 -0.548216 -3.73902 0
M  V30 1746 H 164.52 -1.73609 -7.53047 0
M  V30 1747 H 162.865 -1.55454 -6.77391 0
M  V30 1748 H 166.056 -0.762321 -4.61851 0
M  V30 1749 H 166.229 -1.30378 -6.34749 0
M  V30 1750 N 159.635 1.57281 -0.100228 0
M  V30 1751 C 160.585 2.10848 0.86759 0
M  V30 1752 C 161.569 1.02473 1.24049 0
M  V30 1753 O 162.761 1.28739 1.21471 0
M  V30 1754 C 159.89 2.69648 2.12474 0
M  V30 1755 C 158.976 3.85074 1.77704 0
M  V30 1756 N 159.367 4.92897 1.13518 0
M  V30 1757 C 157.665 3.94905 2.07282 0
M  V30 1758 C 158.366 5.73475 0.974735 0
M  V30 1759 N 157.342 5.22675 1.4937 0
M  V30 1760 H 161.144 2.91594 0.367471 0
M  V30 1761 H 158.658 1.62074 0.102829 0
M  V30 1762 H 160.655 3.06356 2.82757 0
M  V30 1763 H 159.315 1.90359 2.63047 0
M  V30 1764 H 160.326 5.11662 0.801381 0
M  V30 1765 H 157.003 3.26633 2.60033 0
M  V30 1766 H 158.393 6.70238 0.472364 0
M  V30 1767 N 161.113 -0.173488 1.56642 0
M  V30 1768 C 162.061 -1.23417 1.97157 0
M  V30 1769 C 163.055 -1.45946 0.860013 0
M  V30 1770 O 164.261 -1.46551 1.04512 0
M  V30 1771 H 160.636 -0.414818 0.62724 0
M  V30 1772 H 162.607 -0.865582 2.8557 0
M  V30 1773 C 161.356 -2.5665 2.34576 0
M  V30 1774 H 160.679 -2.40137 3.19647 0
M  V30 1775 H 162.119 -3.2956 2.6677 0
M  V30 1776 C 160.578 -3.15245 1.18836 0
M  V30 1777 O 161.108 -3.98883 0.474869 0
M  V30 1778 N 159.314 -2.74303 0.959497 0
M  V30 1779 H 158.861 -2.0639 1.54146 0
M  V30 1780 H 158.819 -3.13844 0.186932 0
M  V30 1781 N 162.591 -1.51276 -0.441967 0
M  V30 1782 C 163.84 -1.6295 -1.18871 0
M  V30 1783 C 164.153 -0.349312 -1.92456 0
M  V30 1784 O 165.359 -0.345355 -2.69295 0
M  V30 1785 C 163.815 -2.87759 -2.16155 0
M  V30 1786 C 163.423 -4.22764 -1.48239 0
M  V30 1787 C 165.167 -3.08788 -2.91291 0
M  V30 1788 C 163.074 -5.38728 -2.4398 0
M  V30 1789 H 162.004 -0.606913 -0.447406 0
M  V30 1790 H 164.655 -1.77739 -0.456205 0
M  V30 1791 H 163.037 -2.66593 -2.92821 0
M  V30 1792 H 164.211 -4.54293 -0.771635 0
M  V30 1793 H 162.526 -4.07575 -0.852741 0
M  V30 1794 H 165.123 -3.92599 -3.63002 0
M  V30 1795 H 165.466 -2.21679 -3.5237 0
M  V30 1796 H 165.999 -3.30272 -2.21733 0
M  V30 1797 H 162.738 -6.28082 -1.87598 0
M  V30 1798 H 162.258 -5.1158 -3.13123 0
M  V30 1799 H 163.937 -5.70489 -3.05207 0
M  V30 1800 N 164.069 0.697108 -1.41344 0
M  V30 1801 C 165.294 1.49096 -1.44171 0
M  V30 1802 C 165.719 1.88038 -0.0481568 0
M  V30 1803 O 165.077 1.54525 0.948243 0
M  V30 1804 C 165.125 2.73088 -2.3549 0
M  V30 1805 O 164.229 3.70514 -1.81088 0
M  V30 1806 H 163.57 0.448801 -0.489361 0
M  V30 1807 H 166.1 0.856992 -1.85787 0
M  V30 1808 H 166.11 3.21413 -2.51312 0
M  V30 1809 H 164.785 2.44081 -3.36745 0
M  V30 1810 H 163.362 3.29441 -1.74708 0
M  V30 1811 N 165.547 1.27147 0.931209 0
M  V30 1812 C 166.963 1.04475 1.20653 0
M  V30 1813 C 167.163 -0.223885 2.00252 0
M  V30 1814 O 166.219 -0.930332 2.34736 0
M  V30 1815 C 167.532 2.28209 1.95809 0
M  V30 1816 C 169.08 2.33211 2.08762 0
M  V30 1817 C 169.555 3.56665 2.87323 0
M  V30 1818 N 171.046 3.57201 2.94892 0
M  V30 1819 C 171.781 4.49395 3.56134 0
M  V30 1820 N 171.277 5.51889 4.18796 0
M  V30 1821 N 173.07 4.37026 3.53504 0
M  V30 1822 H 165.221 2.08612 0.399333 0
M  V30 1823 H 167.484 0.917312 0.239253 0
M  V30 1824 H 167.19 3.20538 1.44736 0
M  V30 1825 H 167.064 2.33247 2.96438 0
M  V30 1826 H 169.451 1.41391 2.59023 0
M  V30 1827 H 169.532 2.32178 1.07364 0
M  V30 1828 H 169.176 4.4882 2.37746 0
M  V30 1829 H 169.106 3.54948 3.88998 0
M  V30 1830 H 171.597 2.83074 2.50354 0
M  V30 1831 H 171.91 6.18409 4.63454 0
M  V30 1832 H 170.255 5.55735 4.17353 0
M  V30 1833 H 173.446 3.56166 3.03749 0
M  V30 1834 H 173.619 5.09067 4.00942 0
M  V30 1835 N 167.025 -1.13721 1.09112 0
M  V30 1836 C 167.955 -2.21148 0.749385 0
M  V30 1837 C 168.936 -1.6792 -0.271475 0
M  V30 1838 O 170.121 -1.93693 -0.140251 0
M  V30 1839 C 167.251 -3.46905 0.165659 0
M  V30 1840 C 166.205 -4.13203 1.11567 0
M  V30 1841 C 165.531 -5.33248 0.393809 0
M  V30 1842 C 166.831 -4.60912 2.45678 0
M  V30 1843 H 168.525 -2.4999 1.64758 0
M  V30 1844 H 166.071 -1.20156 0.793626 0
M  V30 1845 H 168.024 -4.21313 -0.085466 0
M  V30 1846 H 166.748 -3.17449 -0.767714 0
M  V30 1847 H 165.407 -3.40758 1.35202 0
M  V30 1848 H 165.055 -5.00054 -0.543599 0
M  V30 1849 H 164.755 -5.78552 1.02721 0
M  V30 1850 H 166.279 -6.10413 0.150908 0
M  V30 1851 H 167.693 -5.26759 2.26269 0
M  V30 1852 H 166.09 -5.16944 3.04776 0
M  V30 1853 H 167.16 -3.75603 3.06677 0
M  V30 1854 N 168.503 -0.877838 -1.30888 0
M  V30 1855 C 169.914 -0.544193 -1.78593 0
M  V30 1856 C 170.265 0.939301 -1.72254 0
M  V30 1857 O 169.39 1.7337 -1.29505 0
M  V30 1858 C 169.985 -0.98105 -3.24285 0
M  V30 1859 C 168.544 -0.698935 -3.69854 0
M  V30 1860 C 167.691 -1.168 -2.51502 0
M  V30 1861 H 170.642 -1.06278 -1.17859 0
M  V30 1862 H 170.663 -0.307009 -3.79259 0
M  V30 1863 H 170.175 -2.06079 -3.28866 0
M  V30 1864 H 168.276 0.369112 -3.70767 0
M  V30 1865 H 168.389 -1.28148 -4.61644 0
M  V30 1866 H 166.753 -0.587535 -2.47831 0
M  V30 1867 H 167.536 -2.25533 -2.58824 0
M  V30 1868 N 169.982 1.44106 -0.638065 0
M  V30 1869 C 170.892 2.34513 0.0637334 0
M  V30 1870 C 171.908 1.53018 0.828346 0
M  V30 1871 O 173.084 1.85723 0.779036 0
M  V30 1872 C 170.149 3.31095 1.02844 0
M  V30 1873 C 169.21 4.28497 0.26244 0
M  V30 1874 C 168.443 5.20465 1.1812 0
M  V30 1875 O 168.666 5.16514 2.42011 0
M  V30 1876 O 167.6 5.98251 0.661774 0
M  V30 1877 H 171.426 2.95989 -0.68003 0
M  V30 1878 H 169.011 1.43994 -0.398252 0
M  V30 1879 H 170.893 3.90526 1.58327 0
M  V30 1880 H 169.568 2.72144 1.7527 0
M  V30 1881 H 168.475 3.72592 -0.335602 0
M  V30 1882 H 169.808 4.90388 -0.421936 0
M  V30 1883 N 171.46 0.379036 1.52974 0
M  V30 1884 C 172.706 -0.206727 2.01744 0
M  V30 1885 C 173.039 -1.47314 1.26539 0
M  V30 1886 O 172.314 -1.91084 0.362903 0
M  V30 1887 C 172.597 -0.485066 3.56818 0
M  V30 1888 C 172.45 0.795919 4.42702 0
M  V30 1889 C 173.769 -1.28003 4.21074 0
M  V30 1890 H 170.888 -0.0736607 0.73331 0
M  V30 1891 H 173.53 0.506581 1.83122 0
M  V30 1892 H 171.68 -1.09272 3.72816 0
M  V30 1893 H 173.352 1.43307 4.38476 0
M  V30 1894 H 171.595 1.41344 4.10127 0
M  V30 1895 H 172.266 0.555947 5.49193 0
M  V30 1896 H 174.742 -0.765867 4.08991 0
M  V30 1897 H 173.618 -1.44352 5.29579 0
M  V30 1898 H 173.879 -2.29236 3.78026 0
M  V30 1899 N 172.938 -1.57226 0.108567 0
M  V30 1900 C 173.848 -2.18292 -0.859401 0
M  V30 1901 C 174.864 -1.15612 -1.30038 0
M  V30 1902 O 176.04 -1.48039 -1.36552 0
M  V30 1903 C 173.105 -2.762 -2.09558 0
M  V30 1904 C 172.166 -3.93881 -1.70752 0
M  V30 1905 C 171.399 -4.49018 -2.88477 0
M  V30 1906 O 171.622 -4.03068 -4.036 0
M  V30 1907 O 170.556 -5.39852 -2.66164 0
M  V30 1908 H 174.382 -3.01441 -0.369769 0
M  V30 1909 H 171.967 -1.48945 -0.1165 0
M  V30 1910 H 173.849 -3.13156 -2.81978 0
M  V30 1911 H 172.524 -1.96089 -2.57548 0
M  V30 1912 H 171.431 -3.61713 -0.954714 0
M  V30 1913 H 172.764 -4.75396 -1.27513 0
M  V30 1914 N 174.416 0.165178 -1.56732 0
M  V30 1915 C 175.664 0.879068 -1.8198 0
M  V30 1916 C 175.985 1.82514 -0.686561 0
M  V30 1917 O 175.255 1.93694 0.293146 0
M  V30 1918 H 173.835 0.327608 -0.671329 0
M  V30 1919 H 176.497 0.163526 -1.94213 0
M  V30 1920 H 175.593 1.45228 -2.76252 0
M  V30 1921 N 175.894 1.51508 0.433938 0
M  V30 1922 C 176.804 1.75917 1.5521 0
M  V30 1923 C 177.82 0.643545 1.61662 0
M  V30 1924 O 178.996 0.926183 1.7884 0
M  V30 1925 C 176.061 1.88213 2.91164 0
M  V30 1926 C 175.122 3.12074 2.94802 0
M  V30 1927 C 174.355 3.23774 4.24271 0
M  V30 1928 O 174.578 2.4133 5.16833 0
M  V30 1929 O 173.512 4.16774 4.34262 0
M  V30 1930 H 177.338 2.70777 1.37527 0
M  V30 1931 H 174.923 1.36051 0.617293 0
M  V30 1932 H 176.805 1.98267 3.71845 0
M  V30 1933 H 175.48 0.965413 3.08968 0
M  V30 1934 H 174.387 3.07497 2.13065 0
M  V30 1935 H 175.72 4.03446 2.81943 0
M  V30 1936 N 177.372 -0.689602 1.41712 0
M  V30 1937 C 178.319 -1.80345 1.44029 0
M  V30 1938 C 179.289 -1.63478 0.293948 0
M  V30 1939 O 180.474 -1.84244 0.495869 0
M  V30 1940 C 177.614 -3.18272 1.33405 0
M  V30 1941 C 176.727 -3.46529 2.57956 0
M  V30 1942 C 175.862 -4.74103 2.39582 0
M  V30 1943 C 174.901 -4.95347 3.5958 0
M  V30 1944 N 174.038 -6.14151 3.40239 0
M  V30 1945 H 178.878 -1.77698 2.39222 0
M  V30 1946 H 176.415 -0.867688 1.18784 0
M  V30 1947 H 178.373 -3.97956 1.25246 0
M  V30 1948 H 177.003 -3.2008 0.418164 0
M  V30 1949 H 176.055 -2.61207 2.76542 0
M  V30 1950 H 177.367 -3.58126 3.47199 0
M  V30 1951 H 176.521 -5.61853 2.28924 0
M  V30 1952 H 175.26 -4.64763 1.47805 0
M  V30 1953 H 174.265 -4.06044 3.70686 0
M  V30 1954 H 175.49 -5.06542 4.52318 0
M  V30 1955 H 173.436 -6.06013 2.51167 0
M  V30 1956 H 173.353 -6.26543 4.23061 0
M  V30 1957 H 174.621 -7.04619 3.33365 0
M  V30 1958 N 178.85 -1.27639 -0.924453 0
M  V30 1959 C 180.261 -1.12834 -1.48746 0
M  V30 1960 C 180.612 0.285505 -1.94112 0
M  V30 1961 O 179.737 1.17874 -1.81479 0
M  V30 1962 C 180.332 -2.04217 -2.70334 0
M  V30 1963 C 178.891 -1.93509 -3.22848 0
M  V30 1964 C 178.038 -1.96583 -1.95577 0
M  V30 1965 H 180.989 -1.40484 -0.738233 0
M  V30 1966 H 181.01 -1.59989 -3.4523 0
M  V30 1967 H 180.522 -3.07111 -2.37285 0
M  V30 1968 H 178.623 -0.936131 -3.60649 0
M  V30 1969 H 178.736 -2.79917 -3.88823 0
M  V30 1970 H 177.1 -1.4085 -2.12211 0
M  V30 1971 H 177.883 -3.01137 -1.64837 0
M  V30 1972 N 180.328 1.1314 -1.09713 0
M  V30 1973 C 181.291 2.16831 -0.742751 0
M  V30 1974 C 182.291 1.59159 0.229129 0
M  V30 1975 O 183.481 1.74199 0.00693237 0
M  V30 1976 C 180.613 3.40756 -0.0989168 0
M  V30 1977 H 181.806 2.49695 -1.66109 0
M  V30 1978 H 179.359 1.2802 -0.896699 0
M  V30 1979 H 180.094 3.13485 0.830514 0
M  V30 1980 H 179.879 3.83888 -0.798265 0
M  V30 1981 H 181.369 4.17386 0.133524 0
M  V30 1982 N 181.806 0.884767 1.30421 0
M  V30 1983 C 183.222 0.57874 1.48737 0
M  V30 1984 C 183.422 -0.883567 1.81095 0
M  V30 1985 O 182.478 -1.6648 1.89844 0
M  V30 1986 C 183.791 1.49171 2.61091 0
M  V30 1987 C 185.339 1.49532 2.74971 0
M  V30 1988 C 185.814 2.39421 3.90438 0
M  V30 1989 N 187.305 2.37383 3.97748 0
M  V30 1990 C 188.04 3.03647 4.86401 0
M  V30 1991 N 187.536 3.79136 5.79852 0
M  V30 1992 N 189.329 2.9288 4.79768 0
M  V30 1993 H 181.48 1.83075 1.0769 0
M  V30 1994 H 183.743 0.783637 0.533495 0
M  V30 1995 H 183.449 2.53291 2.44001 0
M  V30 1996 H 183.323 1.20113 3.57565 0
M  V30 1997 H 185.71 0.46163 2.91467 0
M  V30 1998 H 185.791 1.8262 1.79119 0
M  V30 1999 H 185.435 3.42874 3.74699 0
M  V30 2000 H 185.365 2.03649 4.85628 0
M  V30 2001 H 187.856 1.82525 3.30897 0
M  V30 2002 H 188.169 4.26789 6.4426 0
M  V30 2003 H 186.514 3.83243 5.79784 0
M  V30 2004 H 189.705 2.33433 4.05742 0
M  V30 2005 H 189.878 3.448 5.4865 0
M  V30 2006 N 183.284 -1.43765 0.645699 0
M  V30 2007 C 184.231 -2.30745 -0.0504648 0
M  V30 2008 C 185.201 -1.4432 -0.822241 0
M  V30 2009 O 186.386 -1.73202 -0.800358 0
M  V30 2010 C 183.526 -3.29802 -1.0161 0
M  V30 2011 C 182.639 -4.31326 -0.241219 0
M  V30 2012 C 181.774 -5.17469 -1.19998 0
M  V30 2013 C 180.813 -6.10691 -0.415094 0
M  V30 2014 N 179.95 -6.89483 -1.32506 0
M  V30 2015 H 184.79 -2.8973 0.697155 0
M  V30 2016 H 182.327 -1.42738 0.355563 0
M  V30 2017 H 184.285 -3.85734 -1.58949 0
M  V30 2018 H 182.915 -2.72483 -1.73069 0
M  V30 2019 H 181.967 -3.77749 0.448334 0
M  V30 2020 H 183.279 -4.9743 0.369437 0
M  V30 2021 H 182.433 -5.7799 -1.84424 0
M  V30 2022 H 181.172 -4.51473 -1.84455 0
M  V30 2023 H 180.177 -5.49265 0.242565 0
M  V30 2024 H 181.402 -6.78727 0.224966 0
M  V30 2025 H 179.348 -6.26142 -1.95657 0
M  V30 2026 H 179.265 -7.52081 -0.768783 0
M  V30 2027 H 180.533 -7.54516 -1.9577 0
M  V30 2028 N 184.763 -0.387143 -1.52771 0
M  V30 2029 C 185.71 0.449048 -2.26389 0
M  V30 2030 C 186.68 1.05961 -1.27912 0
M  V30 2031 O 187.865 1.08804 -1.56737 0
M  V30 2032 C 185.005 1.57155 -3.0724 0
M  V30 2033 C 184.118 0.984066 -4.20643 0
M  V30 2034 C 183.253 2.07745 -4.88892 0
M  V30 2035 C 182.292 1.46574 -5.94292 0
M  V30 2036 N 181.429 2.49834 -6.56146 0
M  V30 2037 H 186.269 -0.185205 -2.97424 0
M  V30 2038 H 183.806 -0.103164 -1.46738 0
M  V30 2039 H 185.764 2.23309 -3.52405 0
M  V30 2040 H 184.394 2.17615 -2.38419 0
M  V30 2041 H 183.446 0.212193 -3.79808 0
M  V30 2042 H 184.758 0.497029 -4.96318 0
M  V30 2043 H 183.912 2.81673 -5.3735 0
M  V30 2044 H 182.651 2.59807 -4.12737 0
M  V30 2045 H 181.656 0.711696 -5.45174 0
M  V30 2046 H 182.881 0.953088 -6.72379 0
M  V30 2047 H 180.827 3.0107 -5.82832 0
M  V30 2048 H 180.744 2.05879 -7.27427 0
M  V30 2049 H 182.012 3.23399 -7.09249 0
M  V30 2050 N 186.241 1.57166 -0.116904 0
M  V30 2051 C 187.488 1.95123 0.541603 0
M  V30 2052 C 187.816 1.00006 1.6682 0
M  V30 2053 O 187.071 0.0235658 1.95686 0
M  V30 2054 C 187.37 3.39508 1.11664 0
M  V30 2055 C 187.036 4.50762 0.111606 0
M  V30 2056 C 185.698 4.80918 -0.164758 0
M  V30 2057 C 188.05 5.18036 -0.573438 0
M  V30 2058 C 185.378 5.75666 -1.13249 0
M  V30 2059 C 187.73 6.13824 -1.52978 0
M  V30 2060 C 186.394 6.42374 -1.81415 0
M  V30 2061 H 185.664 0.714005 0.198187 0
M  V30 2062 H 188.311 1.9048 -0.197365 0
M  V30 2063 H 186.616 3.40835 1.93232 0
M  V30 2064 H 188.313 3.66189 1.63422 0
M  V30 2065 H 184.903 4.27272 0.337192 0
M  V30 2066 H 189.087 4.94896 -0.373092 0
M  V30 2067 H 184.343 5.96092 -1.35958 0
M  V30 2068 H 188.517 6.65039 -2.06629 0
M  V30 2069 H 186.144 7.15599 -2.56557 0
M  V30 2070 N 187.719 -0.156864 1.56817 0
M  V30 2071 C 188.682 -1.17781 1.96622 0
M  V30 2072 C 189.682 -1.36401 0.851555 0
M  V30 2073 O 190.872 -1.33561 1.11836 0
M  V30 2074 C 188.004 -2.54008 2.27361 0
M  V30 2075 H 189.197 -0.836564 2.87996 0
M  V30 2076 H 186.75 -0.39985 1.51099 0
M  V30 2077 H 187.485 -2.9312 1.38748 0
M  V30 2078 H 187.27 -2.41856 3.08623 0
M  V30 2079 H 188.76 -3.27558 2.59029 0
M  V30 2080 N 189.197 -1.51736 -0.425897 0
M  V30 2081 C 190.129 -1.70083 -1.53638 0
M  V30 2082 C 191.142 -0.581349 -1.52066 0
M  V30 2083 O 192.331 -0.856017 -1.56635 0
M  V30 2084 C 189.431 -1.71078 -2.9255 0
M  V30 2085 C 188.604 -2.99795 -3.185 0
M  V30 2086 C 187.663 -2.92825 -4.37196 0
M  V30 2087 O 186.689 -3.66756 -4.35291 0
M  V30 2088 N 187.891 -2.0946 -5.41393 0
M  V30 2089 H 190.656 -2.65882 -1.383 0
M  V30 2090 H 188.217 -1.49765 -0.614988 0
M  V30 2091 H 190.209 -1.63969 -3.69995 0
M  V30 2092 H 188.779 -0.828242 -3.01428 0
M  V30 2093 H 187.999 -3.20684 -2.2925 0
M  V30 2094 H 189.287 -3.84977 -3.32671 0
M  V30 2095 H 188.685 -1.48792 -5.45781 0
M  V30 2096 H 187.242 -2.08221 -6.17647 0
M  V30 2097 N 190.675 0.682077 -1.42076 0
M  V30 2098 C 191.905 1.46844 -1.45329 0
M  V30 2099 C 192.313 1.89102 -0.0609328 0
M  V30 2100 O 191.656 1.58238 0.933082 0
M  V30 2101 C 191.718 2.75375 -2.31104 0
M  V30 2102 C 191.382 2.55238 -3.79081 0
M  V30 2103 C 192.379 2.20309 -4.70914 0
M  V30 2104 C 190.064 2.70459 -4.2327 0
M  V30 2105 C 192.058 2.00859 -6.04925 0
M  V30 2106 C 189.745 2.50624 -5.57343 0
M  V30 2107 C 190.743 2.15876 -6.47986 0
M  V30 2108 O 190.431 1.96227 -7.79583 0
M  V30 2109 H 190.163 0.4586 -0.496651 0
M  V30 2110 H 192.717 0.846131 -1.87162 0
M  V30 2111 H 190.947 3.40061 -1.84107 0
M  V30 2112 H 192.636 3.37231 -2.25898 0
M  V30 2113 H 193.402 2.08153 -4.38061 0
M  V30 2114 H 189.281 2.96485 -3.53012 0
M  V30 2115 H 192.825 1.7366 -6.75639 0
M  V30 2116 H 188.722 2.62375 -5.89771 0
M  V30 2117 H 189.49 2.10883 -7.90867 0
M  V30 2118 N 192.153 1.28127 0.917671 0
M  V30 2119 C 193.564 1.13622 1.48145 0
M  V30 2120 C 193.915 -0.275207 1.9426 0
M  V30 2121 O 193.04 -1.1691 1.82102 0
M  V30 2122 C 193.635 2.05648 2.69248 0
M  V30 2123 C 192.194 1.95219 3.21818 0
M  V30 2124 C 191.341 1.97618 1.94532 0
M  V30 2125 H 194.292 1.40874 0.730772 0
M  V30 2126 H 194.313 1.61818 3.44377 0
M  V30 2127 H 193.825 3.08365 2.35653 0
M  V30 2128 H 191.926 0.955244 3.60147 0
M  V30 2129 H 192.039 2.81976 3.87333 0
M  V30 2130 H 190.403 1.41973 2.11461 0
M  V30 2131 H 191.186 3.02007 1.63238 0
M  V30 2132 N 193.631 -1.12557 1.10312 0
M  V30 2133 C 194.88 -1.83395 0.839588 0
M  V30 2134 C 195.193 -1.84939 -0.636929 0
M  V30 2135 O 196.399 -2.51761 -1.01631 0
M  V30 2136 C 194.855 -3.29303 1.45215 0
M  V30 2137 C 194.463 -3.36122 2.96186 0
M  V30 2138 C 196.207 -4.05121 1.26796 0
M  V30 2139 C 194.114 -4.76357 3.50483 0
M  V30 2140 H 193.044 -0.687133 0.310425 0
M  V30 2141 H 195.695 -1.26746 1.32694 0
M  V30 2142 H 194.077 -3.85812 0.892469 0
M  V30 2143 H 195.251 -2.89559 3.58458 0
M  V30 2144 H 193.566 -2.73776 3.13745 0
M  V30 2145 H 196.163 -5.08668 1.64806 0
M  V30 2146 H 196.506 -4.15773 0.209409 0
M  V30 2147 H 197.039 -3.54967 1.79563 0
M  V30 2148 H 193.778 -4.70899 4.55998 0
M  V30 2149 H 193.298 -5.23377 2.92978 0
M  V30 2150 H 194.977 -5.45294 3.48228 0
M  V30 2151 N 195.109 -0.891671 -1.2995 0
M  V30 2152 C 196.357 -0.512486 -1.95494 0
M  V30 2153 C 196.678 0.942776 -1.70695 0
M  V30 2154 O 195.948 1.66374 -1.03424 0
M  V30 2155 H 194.528 -0.186533 -0.723336 0
M  V30 2156 H 197.19 -1.13621 -1.58355 0
M  V30 2157 H 196.286 -0.688342 -3.04415 0
M  V30 2158 N 196.587 1.43421 -0.653314 0
M  V30 2159 C 197.817 2.05864 -0.174238 0
M  V30 2160 C 198.225 1.49052 1.16534 0
M  V30 2161 O 197.568 0.616481 1.73047 0
M  V30 2162 C 197.63 3.59499 -0.00875873 0
M  V30 2163 C 197.294 4.38893 -1.27364 0
M  V30 2164 C 198.291 4.70947 -2.20239 0
M  V30 2165 C 195.976 4.789 -1.51525 0
M  V30 2166 C 197.97 5.41916 -3.35568 0
M  V30 2167 C 195.657 5.49614 -2.67147 0
M  V30 2168 C 196.655 5.81044 -3.58994 0
M  V30 2169 O 196.343 6.50313 -4.72597 0
M  V30 2170 H 196.075 0.670345 -0.0872549 0
M  V30 2171 H 198.629 1.84913 -0.894226 0
M  V30 2172 H 196.859 3.79025 0.7666 0
M  V30 2173 H 198.548 4.0364 0.427687 0
M  V30 2174 H 199.314 4.40558 -2.02815 0
M  V30 2175 H 195.193 4.53843 -0.809158 0
M  V30 2176 H 198.737 5.66365 -4.07279 0
M  V30 2177 H 194.634 5.79419 -2.84505 0
M  V30 2178 H 195.402 6.68795 -4.71864 0
M  V30 2179 N 198.065 0.39524 1.52563 0
M  V30 2180 C 199.312 -0.185044 2.01653 0
M  V30 2181 C 199.64 -1.46317 1.28146 0
M  V30 2182 O 198.895 -1.9213 0.372074 0
M  V30 2183 C 199.194 -0.493444 3.53977 0
M  V30 2184 C 198.86 0.69384 4.4553 0
M  V30 2185 C 197.522 1.01954 4.70275 0
M  V30 2186 C 199.874 1.48785 4.99512 0
M  V30 2187 C 197.202 2.14069 5.46252 0
M  V30 2188 C 199.554 2.59965 5.76716 0
M  V30 2189 C 198.218 2.93037 5.99738 0
M  V30 2190 H 197.488 -0.0677123 0.7379 0
M  V30 2191 H 200.135 0.533807 1.8391 0
M  V30 2192 H 198.44 -1.29369 3.69825 0
M  V30 2193 H 200.137 -0.955163 3.89458 0
M  V30 2194 H 196.727 0.429987 4.26438 0
M  V30 2195 H 200.911 1.24946 4.80315 0
M  V30 2196 H 196.167 2.40056 5.62302 0
M  V30 2197 H 200.341 3.21887 6.17545 0
M  V30 2198 H 197.968 3.8003 6.58393 0
M  V30 2199 N 199.544 -1.57102 0.125237 0
M  V30 2200 C 200.494 -2.12202 -0.833936 0
M  V30 2201 C 201.478 -1.04433 -1.22403 0
M  V30 2202 O 202.67 -1.30655 -1.19408 0
M  V30 2203 C 199.799 -2.72994 -2.08157 0
M  V30 2204 C 198.885 -3.87852 -1.71556 0
M  V30 2205 N 199.276 -4.9464 -1.05662 0
M  V30 2206 C 197.574 -3.98153 -2.00973 0
M  V30 2207 C 198.275 -5.74953 -0.883376 0
M  V30 2208 N 197.251 -5.24985 -1.41036 0
M  V30 2209 H 201.053 -2.92141 -0.321035 0
M  V30 2210 H 198.567 -1.62217 -0.0770315 0
M  V30 2211 H 200.564 -3.10816 -2.77847 0
M  V30 2212 H 199.224 -1.9452 -2.59985 0
M  V30 2213 H 200.235 -5.12872 -0.719878 0
M  V30 2214 H 196.912 -3.30728 -2.54804 0
M  V30 2215 H 198.302 -6.70904 -0.365675 0
M  V30 2216 N 201.022 0.148545 -1.56898 0
M  V30 2217 C 202.271 0.85984 -1.82454 0
M  V30 2218 C 202.584 1.82406 -0.706229 0
M  V30 2219 O 203.79 2.57938 -0.847349 0
M  V30 2220 C 202.246 1.57967 -3.2338 0
M  V30 2221 C 201.854 0.65794 -4.43142 0
M  V30 2222 C 203.598 2.27784 -3.58211 0
M  V30 2223 C 201.505 1.3793 -5.75091 0
M  V30 2224 H 200.435 0.324834 -0.68044 0
M  V30 2225 H 203.086 0.112588 -1.83154 0
M  V30 2226 H 201.468 2.37249 -3.17063 0
M  V30 2227 H 202.642 -0.0995497 -4.60692 0
M  V30 2228 H 200.957 0.0682643 -4.16344 0
M  V30 2229 H 203.554 2.8239 -4.54048 0
M  V30 2230 H 203.897 3.04204 -2.84193 0
M  V30 2231 H 204.43 1.55421 -3.66182 0
M  V30 2232 H 201.169 0.656982 -6.52199 0
M  V30 2233 H 200.689 2.10954 -5.61479 0
M  V30 2234 H 202.368 1.92063 -6.17835 0
M  V30 2235 N 202.5 1.5196 0.417844 0
M  V30 2236 C 203.777 1.56146 1.17803 0
M  V30 2237 C 204.157 0.337275 2.08388 0
M  V30 2238 O 203.505 -0.676447 2.18258 0
M  V30 2239 C 203.715 2.88566 1.96293 0
M  V30 2240 C 205.063 3.41244 2.52662 0
M  V30 2241 O 206.087 2.90247 2.06483 0
M  V30 2242 O 204.946 4.30273 3.36938 0
M  V30 2243 H 202.04 0.628598 0.537395 0
M  V30 2244 H 204.586 1.64283 0.425331 0
M  V30 2245 H 203.358 3.69116 1.2988 0
M  V30 2246 H 202.981 2.83681 2.78587 0
M  V30 2247 N 203.978 -0.674533 1.42435 0
M  V30 2248 C 205.227 -1.43034 1.42212 0
M  V30 2249 C 205.54 -1.95555 0.0420788 0
M  V30 2250 O 206.746 -2.71374 -0.0827558 0
M  V30 2251 C 205.202 -2.58748 2.50155 0
M  V30 2252 C 204.81 -2.12925 3.94166 0
M  V30 2253 C 206.554 -3.36257 2.59098 0
M  V30 2254 C 204.461 -3.25723 4.93618 0
M  V30 2255 H 203.391 -0.537345 0.528939 0
M  V30 2256 H 206.042 -0.73024 1.68344 0
M  V30 2257 H 204.424 -3.31128 2.17188 0
M  V30 2258 H 205.598 -1.47697 4.36488 0
M  V30 2259 H 203.913 -1.48354 3.89076 0
M  V30 2260 H 206.51 -4.20264 3.30578 0
M  V30 2261 H 206.853 -3.82866 1.63461 0
M  V30 2262 H 207.386 -2.70947 2.9126 0
M  V30 2263 H 204.125 -2.84105 5.90732 0
M  V30 2264 H 203.645 -3.89732 4.55926 0
M  V30 2265 H 205.324 -3.91186 5.15347 0
M  V30 2266 N 205.456 -1.28612 -0.910864 0
M  V30 2267 C 206.419 -1.12803 -1.9952 0
M  V30 2268 C 207.419 -0.0668264 -1.60661 0
M  V30 2269 O 208.609 -0.312847 -1.71368 0
M  V30 2270 C 205.741 -0.72254 -3.33155 0
M  V30 2271 H 206.934 -2.09109 -2.14973 0
M  V30 2272 H 204.487 -1.11639 -1.09391 0
M  V30 2273 H 205.222 0.241152 -3.23402 0
M  V30 2274 H 205.007 -1.48916 -3.62721 0
M  V30 2275 H 206.497 -0.634666 -4.12749 0
M  V30 2276 N 206.934 1.1197 -1.10907 0
M  V30 2277 C 207.844 2.21433 -0.774896 0
M  V30 2278 C 208.86 1.72478 0.229657 0
M  V30 2279 O 210.036 2.01288 0.0672008 0
M  V30 2280 C 207.101 3.4602 -0.216986 0
M  V30 2281 C 206.162 4.09791 -1.27944 0
M  V30 2282 C 205.395 5.28431 -0.748055 0
M  V30 2283 O 205.618 5.68823 0.423833 0
M  V30 2284 O 204.552 5.82644 -1.51027 0
M  V30 2285 H 208.378 2.5242 -1.68873 0
M  V30 2286 H 205.963 1.20399 -0.884555 0
M  V30 2287 H 207.845 4.21304 0.090059 0
M  V30 2288 H 206.52 3.16698 0.669633 0
M  V30 2289 H 205.427 3.36265 -1.63941 0
M  V30 2290 H 206.76 4.4328 -2.13925 0
M  V30 2291 N 208.412 0.89855 1.29475 0
M  V30 2292 C 209.658 0.524658 1.95896 0
M  V30 2293 C 209.991 -0.926468 1.70676 0
M  V30 2294 O 209.266 -1.65665 1.01908 0
M  V30 2295 C 209.549 0.81633 3.50725 0
M  V30 2296 C 209.402 2.31907 3.85408 0
M  V30 2297 C 210.721 0.302038 4.39062 0
M  V30 2298 H 207.84 0.19209 0.711527 0
M  V30 2299 H 210.482 1.12502 1.53112 0
M  V30 2300 H 208.632 0.305369 3.87298 0
M  V30 2301 H 210.304 2.89949 3.58786 0
M  V30 2302 H 208.547 2.78027 3.32992 0
M  V30 2303 H 209.218 2.47373 4.93468 0
M  V30 2304 H 211.694 0.739551 4.09475 0
M  V30 2305 H 210.57 0.535331 5.46283 0
M  V30 2306 H 210.831 -0.797216 4.34853 0
M  V30 2307 N 209.89 -1.43072 0.660911 0
M  V30 2308 C 211.306 -1.56169 0.329173 0
M  V30 2309 C 211.506 -1.64317 -1.16629 0
M  V30 2310 O 210.562 -1.60245 -1.95135 0
M  V30 2311 C 211.875 -2.81873 1.04729 0
M  V30 2312 C 213.423 -2.95627 1.02828 0
M  V30 2313 C 213.898 -4.24174 1.72744 0
M  V30 2314 N 215.389 -4.31055 1.69545 0
M  V30 2315 C 216.124 -5.29304 2.20511 0
M  V30 2316 N 215.62 -6.33786 2.79799 0
M  V30 2317 N 217.413 -5.21008 2.10966 0
M  V30 2318 H 209.564 -1.36027 1.63127 0
M  V30 2319 H 211.827 -0.653823 0.686454 0
M  V30 2320 H 211.533 -2.81942 2.10242 0
M  V30 2321 H 211.407 -3.72338 0.603702 0
M  V30 2322 H 213.794 -2.95094 -0.0184742 0
M  V30 2323 H 213.875 -2.06431 1.51063 0
M  V30 2324 H 213.519 -4.25467 2.7738 0
M  V30 2325 H 213.449 -5.1228 1.2197 0
M  V30 2326 H 215.94 -3.56174 1.26288 0
M  V30 2327 H 216.253 -7.05086 3.16344 0
M  V30 2328 H 214.598 -6.34387 2.83863 0
M  V30 2329 H 217.789 -4.38301 1.64347 0
M  V30 2330 H 217.962 -5.97416 2.50993 0
M  V30 2331 N 211.368 -0.403325 -1.52352 0
M  V30 2332 C 212.596 0.174012 -2.06167 0
M  V30 2333 C 213.011 1.39347 -1.27388 0
M  V30 2334 O 212.368 1.79597 -0.324201 0
M  V30 2335 C 212.419 0.530223 -3.5759 0
M  V30 2336 O 212.14 -0.640806 -4.33388 0
M  V30 2337 C 213.641 1.16192 -4.27802 0
M  V30 2338 H 210.861 0.0229464 -0.670608 0
M  V30 2339 H 213.405 -0.572604 -1.9632 0
M  V30 2340 H 211.56 1.22673 -3.67464 0
M  V30 2341 H 211.974 -0.344851 -5.23365 0
M  V30 2342 H 213.448 1.36141 -5.34948 0
M  V30 2343 H 213.925 2.13335 -3.83907 0
M  V30 2344 H 214.531 0.505775 -4.22282 0
M  V30 2345 N 212.846 1.57033 -0.133567 0
M  V30 2346 C 213.756 2.19632 0.824564 0
M  V30 2347 C 214.772 1.17666 1.28182 0
M  V30 2348 O 215.948 1.50193 1.3418 0
M  V30 2349 C 213.013 2.79499 2.05137 0
M  V30 2350 C 212.074 3.96548 1.64464 0
M  V30 2351 C 211.307 4.5355 2.81297 0
M  V30 2352 O 211.53 4.09438 3.97136 0
M  V30 2353 O 210.464 5.44018 2.57542 0
M  V30 2354 H 214.29 3.01991 0.321766 0
M  V30 2355 H 211.875 1.49112 0.0927889 0
M  V30 2356 H 213.757 3.17602 2.7696 0
M  V30 2357 H 212.432 2.00162 2.54395 0
M  V30 2358 H 211.339 3.63186 0.897048 0
M  V30 2359 H 212.672 4.77364 1.19934 0
M  V30 2360 N 214.325 -0.140222 1.56975 0
M  V30 2361 C 215.235 -1.19223 2.02047 0
M  V30 2362 C 216.251 -1.46612 0.937062 0
M  V30 2363 O 217.427 -1.58148 1.24704 0
M  V30 2364 C 214.492 -2.50414 2.39778 0
M  V30 2365 C 213.553 -2.30612 3.621 0
M  V30 2366 C 212.786 -3.55547 3.98023 0
M  V30 2367 O 213.009 -4.62004 3.34528 0
M  V30 2368 O 211.943 -3.47808 4.91237 0
M  V30 2369 H 215.769 -0.839559 2.91865 0
M  V30 2370 H 213.354 -0.349453 1.45256 0
M  V30 2371 H 215.236 -3.27747 2.64877 0
M  V30 2372 H 213.911 -2.85198 1.53114 0
M  V30 2373 H 212.818 -1.51207 3.4218 0
M  V30 2374 H 214.151 -2.00741 4.49404 0
M  V30 2375 N 215.803 -1.52179 -0.40978 0
M  V30 2376 C 217.051 -1.65878 -1.15451 0
M  V30 2377 C 217.372 -0.390771 -1.91044 0
M  V30 2378 O 216.642 0.594323 -1.86667 0
M  V30 2379 H 215.222 -0.611405 -0.429177 0
M  V30 2380 H 217.884 -1.89219 -0.467134 0
M  V30 2381 H 216.98 -2.49954 -1.86894 0
M  V30 2382 N 217.281 0.66697 -1.42791 0
M  V30 2383 C 218.228 1.7803 -1.4688 0
M  V30 2384 C 219.198 1.6299 -0.319919 0
M  V30 2385 O 220.383 1.83432 -0.525118 0
M  V30 2386 C 217.523 3.1611 -1.38451 0
M  V30 2387 C 216.636 3.42381 -2.63437 0
M  V30 2388 C 215.771 4.70232 -2.47094 0
M  V30 2389 C 214.81 4.89564 -3.67415 0
M  V30 2390 N 213.947 6.08661 -3.49966 0
M  V30 2391 H 218.787 1.7387 -2.42019 0
M  V30 2392 H 216.324 0.84868 -1.20149 0
M  V30 2393 H 218.282 3.95914 -1.31561 0
M  V30 2394 H 216.912 3.19374 -0.469033 0
M  V30 2395 H 215.964 2.56774 -2.80662 0
M  V30 2396 H 217.276 3.52557 -3.52853 0
M  V30 2397 H 216.43 5.5814 -2.37834 0
M  V30 2398 H 215.169 4.62353 -1.5518 0
M  V30 2399 H 214.174 4.00096 -3.77099 0
M  V30 2400 H 215.399 4.99282 -4.6032 0
M  V30 2401 H 213.345 6.0194 -2.60776 0
M  V30 2402 H 213.262 6.19733 -4.32975 0
M  V30 2403 H 214.53 6.99226 -3.44532 0
M  V30 2404 N 218.759 1.29093 0.90403 0
M  V30 2405 C 219.689 1.16401 2.02418 0
M  V30 2406 C 220.67 0.0593085 1.69997 0
M  V30 2407 O 221.855 0.238021 1.92736 0
M  V30 2408 C 218.985 0.835233 3.37107 0
M  V30 2409 C 217.939 1.89578 3.83724 0
M  V30 2410 C 217.265 1.42041 5.15489 0
M  V30 2411 C 218.565 3.30394 4.04521 0
M  V30 2412 H 220.259 2.10109 2.13295 0
M  V30 2413 H 217.805 1.01157 1.02486 0
M  V30 2414 H 219.758 0.733169 4.14973 0
M  V30 2415 H 218.482 -0.137543 3.2631 0
M  V30 2416 H 217.141 1.98715 3.08071 0
M  V30 2417 H 216.789 0.436426 5.01103 0
M  V30 2418 H 216.489 2.12964 5.4765 0
M  V30 2419 H 218.013 1.33176 5.959 0
M  V30 2420 H 219.427 3.24123 4.72882 0
M  V30 2421 H 217.824 3.99237 4.48029 0
M  V30 2422 H 218.894 3.73692 3.09002 0
M  V30 2423 N 220.237 -1.11381 1.11499 0
M  V30 2424 C 221.467 -1.86663 0.885464 0
M  V30 2425 C 221.875 -1.80464 -0.568281 0
M  V30 2426 O 221.218 -1.18445 -1.40415 0
M  V30 2427 C 221.28 -3.36337 1.26956 0
M  V30 2428 C 220.944 -3.66304 2.73259 0
M  V30 2429 C 221.941 -3.63733 3.71476 0
M  V30 2430 C 219.626 -3.9529 3.09921 0
M  V30 2431 C 221.62 -3.89725 5.04374 0
M  V30 2432 C 219.307 -4.20941 4.43004 0
M  V30 2433 C 220.305 -4.18147 5.40039 0
M  V30 2434 O 219.993 -4.43153 6.70724 0
M  V30 2435 H 219.725 -0.597114 0.316908 0
M  V30 2436 H 222.279 -1.41782 1.48617 0
M  V30 2437 H 220.509 -3.81826 0.611999 0
M  V30 2438 H 222.198 -3.92986 1.01573 0
M  V30 2439 H 222.964 -3.41389 3.44498 0
M  V30 2440 H 218.843 -3.966 2.35009 0
M  V30 2441 H 222.387 -3.8746 5.80104 0
M  V30 2442 H 218.284 -4.42761 4.69716 0
M  V30 2443 H 219.052 -4.60717 6.76522 0
M  V30 2444 N 221.715 -0.905404 -1.28997 0
M  V30 2445 C 222.645 -0.404212 -2.29975 0
M  V30 2446 C 223.626 0.523784 -1.61835 0
M  V30 2447 O 224.811 0.433298 -1.89304 0
M  V30 2448 C 221.941 0.364042 -3.45387 0
M  V30 2449 C 220.895 -0.474048 -4.25367 0
M  V30 2450 C 220.221 0.422045 -5.33032 0
M  V30 2451 C 221.521 -1.72696 -4.92923 0
M  V30 2452 H 223.215 -1.24807 -2.72146 0
M  V30 2453 H 220.761 -0.601585 -1.30832 0
M  V30 2454 H 222.714 0.725447 -4.15109 0
M  V30 2455 H 221.438 1.24174 -3.02074 0
M  V30 2456 H 220.097 -0.81786 -3.57361 0
M  V30 2457 H 219.745 1.29804 -4.85963 0
M  V30 2458 H 219.445 -0.135057 -5.87445 0
M  V30 2459 H 220.969 0.779517 -6.05604 0
M  V30 2460 H 222.383 -1.43495 -5.55051 0
M  V30 2461 H 220.78 -2.22582 -5.57295 0
M  V30 2462 H 221.85 -2.45964 -4.17887 0
M  V30 2463 N 223.193 1.4272 -0.668489 0
M  V30 2464 C 224.44 2.01624 -0.18814 0
M  V30 2465 C 224.768 1.5282 1.20317 0
M  V30 2466 O 224.023 0.718323 1.8204 0
M  V30 2467 C 224.322 3.57021 -0.164499 0
M  V30 2468 C 223.988 4.25232 -1.49962 0
M  V30 2469 C 222.65 4.4358 -1.8652 0
M  V30 2470 C 225.002 4.63727 -2.37921 0
M  V30 2471 C 222.33 4.97694 -3.10674 0
M  V30 2472 C 224.682 5.19218 -3.6138 0
M  V30 2473 C 223.346 5.3578 -3.98115 0
M  V30 2474 H 222.616 0.737795 -0.0688454 0
M  V30 2475 H 225.263 1.70991 -0.862225 0
M  V30 2476 H 223.568 3.87285 0.593079 0
M  V30 2477 H 225.265 4.00372 0.224271 0
M  V30 2478 H 221.855 4.11306 -1.20522 0
M  V30 2479 H 226.039 4.4923 -2.10964 0
M  V30 2480 H 221.295 5.08702 -3.39164 0
M  V30 2481 H 225.469 5.4799 -4.29743 0
M  V30 2482 H 223.096 5.77475 -4.94395 0
M  V30 2483 N 224.671 0.411399 1.52136 0
M  V30 2484 C 225.917 -0.163888 2.02137 0
M  V30 2485 C 226.25 -1.44597 1.29636 0
M  V30 2486 O 225.525 -1.90272 0.403353 0
M  V30 2487 C 225.808 -0.40927 3.57767 0
M  V30 2488 C 225.661 0.889643 4.40914 0
M  V30 2489 C 226.98 -1.19042 4.23694 0
M  V30 2490 H 224.099 -0.0580896 0.734707 0
M  V30 2491 H 226.741 0.54531 1.82007 0
M  V30 2492 H 224.891 -1.0134 3.7505 0
M  V30 2493 H 226.563 1.52575 4.35337 0
M  V30 2494 H 224.806 1.50011 4.07037 0
M  V30 2495 H 225.477 0.672314 5.4789 0
M  V30 2496 H 227.953 -0.678942 4.10524 0
M  V30 2497 H 226.829 -1.33086 5.32522 0
M  V30 2498 H 227.09 -2.21166 3.82803 0
M  V30 2499 N 226.149 -1.5696 0.141893 0
M  V30 2500 C 227.112 -2.15316 -0.785587 0
M  V30 2501 C 228.112 -1.09366 -1.1788 0
M  V30 2502 O 229.302 -1.35031 -1.10056 0
M  V30 2503 C 226.434 -2.71211 -2.06537 0
M  V30 2504 H 227.627 -2.98608 -0.278041 0
M  V30 2505 H 225.18 -1.5593 -0.107519 0
M  V30 2506 H 225.915 -1.91571 -2.6167 0
M  V30 2507 H 225.7 -3.4872 -1.79268 0
M  V30 2508 H 227.19 -3.16189 -2.72789 0
M  V30 2509 N 227.627 0.131896 -1.57047 0
M  V30 2510 C 228.876 0.84044 -1.83356 0
M  V30 2511 C 229.189 1.81646 -0.725535 0
M  V30 2512 O 230.395 2.57025 -0.874659 0
M  V30 2513 C 228.851 1.54528 -3.25037 0
M  V30 2514 C 228.459 0.610902 -4.43815 0
M  V30 2515 C 230.203 2.23972 -3.60606 0
M  V30 2516 C 228.11 1.31823 -5.76521 0
M  V30 2517 H 227.04 0.317599 -0.683847 0
M  V30 2518 H 229.691 0.0931561 -1.83263 0
M  V30 2519 H 228.073 2.33873 -3.19561 0
M  V30 2520 H 229.247 -0.148407 -4.60561 0
M  V30 2521 H 227.562 0.0241016 -4.16393 0
M  V30 2522 H 230.159 2.77558 -4.57018 0
M  V30 2523 H 230.502 3.01173 -2.87403 0
M  V30 2524 H 231.035 1.51529 -3.6781 0
M  V30 2525 H 227.774 0.587771 -6.52859 0
M  V30 2526 H 227.294 2.04987 -5.63685 0
M  V30 2527 H 228.973 1.855 -6.19838 0
M  V30 2528 N 229.106 1.52395 0.401703 0
M  V30 2529 C 230.383 1.57387 1.16141 0
M  V30 2530 C 230.763 0.359359 2.08019 0
M  V30 2531 O 230.111 -0.65326 2.18963 0
M  V30 2532 C 230.321 2.90631 1.93221 0
M  V30 2533 C 231.669 3.43904 2.49028 0
M  V30 2534 O 232.693 2.92421 2.03393 0
M  V30 2535 O 231.552 4.33823 3.32356 0
M  V30 2536 H 228.646 0.634262 0.530698 0
M  V30 2537 H 231.192 1.64725 0.407883 0
M  V30 2538 H 229.964 3.70473 1.25958 0
M  V30 2539 H 229.587 2.8662 2.75563 0
M  V30 2540 N 230.584 -0.659388 1.43143 0
M  V30 2541 C 232 -0.974337 1.26407 0
M  V30 2542 C 232.2 -2.007 0.179341 0
M  V30 2543 O 231.256 -2.4856 -0.444295 0
M  V30 2544 C 232.569 -1.46447 2.62628 0
M  V30 2545 C 234.117 -1.58144 2.7011 0
M  V30 2546 C 234.592 -2.1055 4.06734 0
M  V30 2547 N 236.083 -2.17861 4.08767 0
M  V30 2548 C 236.818 -2.59519 5.1131 0
M  V30 2549 N 236.314 -3.00518 6.24228 0
M  V30 2550 N 238.107 -2.59404 4.98664 0
M  V30 2551 H 230.258 0.0240528 2.12386 0
M  V30 2552 H 232.521 -0.0518065 0.946583 0
M  V30 2553 H 232.227 -0.780123 3.42939 0
M  V30 2554 H 232.101 -2.44058 2.87603 0
M  V30 2555 H 234.488 -2.25682 1.90136 0
M  V30 2556 H 234.569 -0.589828 2.48907 0
M  V30 2557 H 234.213 -1.43616 4.87172 0
M  V30 2558 H 234.143 -3.10531 4.25298 0
M  V30 2559 H 236.634 -1.88975 3.27257 0
M  V30 2560 H 236.947 -3.31036 6.98309 0
M  V30 2561 H 235.292 -2.98337 6.2771 0
M  V30 2562 H 238.483 -2.26747 4.09516 0
M  V30 2563 H 238.656 -2.91548 5.78709 0
M  V30 2564 N 232.062 -1.29571 -0.897171 0
M  V30 2565 C 233.29 -1.20583 -1.68129 0
M  V30 2566 C 233.705 0.233181 -1.87354 0
M  V30 2567 O 233.062 1.15579 -1.41236 0
M  V30 2568 C 233.113 -1.91772 -3.06441 0
M  V30 2569 O 232.834 -3.30053 -2.88091 0
M  V30 2570 C 234.335 -1.89291 -4.00854 0
M  V30 2571 H 231.555 -0.417826 -0.525036 0
M  V30 2572 H 234.099 -1.70987 -1.12177 0
M  V30 2573 H 232.254 -1.45196 -3.59161 0
M  V30 2574 H 232.668 -3.65942 -3.75748 0
M  V30 2575 H 234.142 -2.43662 -4.95311 0
M  V30 2576 H 234.619 -0.869014 -4.30517 0
M  V30 2577 H 235.225 -2.35622 -3.54066 0
M  V30 2578 N 233.54 1.10788 -1.12088 0
M  V30 2579 C 234.765 1.87002 -0.896949 0
M  V30 2580 C 235.19 1.79933 0.548261 0
M  V30 2581 O 234.548 1.16662 1.38779 0
M  V30 2582 C 234.596 3.3349 -1.37174 0
M  V30 2583 O 233.7 4.08745 -0.547831 0
M  V30 2584 H 233.041 0.580397 -0.322545 0
M  V30 2585 H 235.571 1.39996 -1.49206 0
M  V30 2586 H 235.581 3.84339 -1.36922 0
M  V30 2587 H 234.256 3.37951 -2.42408 0
M  V30 2588 H 232.833 3.6776 -0.617034 0
M  V30 2589 N 235.018 0.912232 1.28515 0
M  V30 2590 C 235.965 0.397954 2.27343 0
M  V30 2591 C 236.935 -0.526766 1.57526 0
M  V30 2592 O 238.12 -0.449292 1.85435 0
M  V30 2593 C 235.26 -0.357263 3.43246 0
M  V30 2594 C 234.373 0.599788 4.27816 0
M  V30 2595 C 233.508 -0.173725 5.30916 0
M  V30 2596 C 232.547 0.777039 6.07148 0
M  V30 2597 N 231.684 0.0371398 7.0209 0
M  V30 2598 H 236.524 1.24577 2.70711 0
M  V30 2599 H 234.061 0.625612 1.33133 0
M  V30 2600 H 236.019 -0.8113 4.09236 0
M  V30 2601 H 234.649 -1.16943 3.00872 0
M  V30 2602 H 233.701 1.17235 3.61884 0
M  V30 2603 H 235.013 1.32704 4.80823 0
M  V30 2604 H 234.167 -0.688394 6.02782 0
M  V30 2605 H 232.906 -0.934041 4.78672 0
M  V30 2606 H 231.911 1.3031 5.34134 0
M  V30 2607 H 233.136 1.53689 6.61481 0
M  V30 2608 H 231.082 -0.705213 6.52198 0
M  V30 2609 H 230.999 0.704249 7.52713 0
M  V30 2610 H 232.267 -0.457383 7.78157 0
M  V30 2611 N 236.496 -1.42363 0.676048 0
M  V30 2612 C 237.743 -2.01522 0.19883 0
M  V30 2613 C 238.071 -1.53456 -1.19505 0
M  V30 2614 O 237.326 -0.727967 -1.81657 0
M  V30 2615 C 237.625 -3.56929 0.183431 0
M  V30 2616 C 237.291 -4.24431 1.52215 0
M  V30 2617 C 235.953 -4.42585 1.8887 0
M  V30 2618 C 238.305 -4.62459 2.40377 0
M  V30 2619 C 235.633 -4.96039 3.13309 0
M  V30 2620 C 237.985 -5.17294 3.64129 0
M  V30 2621 C 236.649 -5.33661 4.00951 0
M  V30 2622 H 235.919 -0.737419 0.0727571 0
M  V30 2623 H 238.566 -1.70531 0.871281 0
M  V30 2624 H 236.871 -3.87594 -0.572532 0
M  V30 2625 H 238.568 -4.00486 -0.203035 0
M  V30 2626 H 235.158 -4.10661 1.22701 0
M  V30 2627 H 239.342 -4.48105 2.13343 0
M  V30 2628 H 234.598 -5.06896 3.41857 0
M  V30 2629 H 238.772 -5.45704 4.32644 0
M  V30 2630 H 236.399 -5.74845 4.9745 0
M  V30 2631 N 237.974 -0.419461 -1.51915 0
M  V30 2632 C 238.937 0.389116 -2.25873 0
M  V30 2633 C 239.937 0.964924 -1.28631 0
M  V30 2634 O 241.127 0.842179 -1.52489 0
M  V30 2635 C 238.259 1.54874 -3.03689 0
M  V30 2636 H 239.452 -0.258799 -2.98781 0
M  V30 2637 H 237.005 -0.172209 -1.55348 0
M  V30 2638 H 237.74 2.23323 -2.35154 0
M  V30 2639 H 237.525 1.14223 -3.75094 0
M  V30 2640 H 239.015 2.12046 -3.59759 0
M  V30 2641 N 239.452 1.56882 -0.150215 0
M  V30 2642 C 240.682 2.00302 0.506213 0
M  V30 2643 C 241.09 1.02934 1.58749 0
M  V30 2644 O 240.433 0.0188384 1.8369 0
M  V30 2645 C 240.495 3.40156 1.16337 0
M  V30 2646 C 240.159 4.56439 0.226311 0
M  V30 2647 C 241.156 5.17012 -0.547265 0
M  V30 2648 C 238.841 5.02136 0.128279 0
M  V30 2649 C 240.835 6.21693 -1.40629 0
M  V30 2650 C 238.522 6.06672 -0.734345 0
M  V30 2651 C 239.52 6.6632 -1.50023 0
M  V30 2652 O 239.208 7.68831 -2.34848 0
M  V30 2653 H 238.94 0.662182 0.135984 0
M  V30 2654 H 241.494 2.03961 -0.242746 0
M  V30 2655 H 239.724 3.33346 1.96004 0
M  V30 2656 H 241.413 3.67663 1.71985 0
M  V30 2657 H 242.179 4.82603 -0.48158 0
M  V30 2658 H 238.058 4.55435 0.714157 0
M  V30 2659 H 241.602 6.68179 -2.00455 0
M  V30 2660 H 237.499 6.40507 -0.801309 0
M  V30 2661 H 238.267 7.86065 -2.28131 0
M  V30 2662 N 240.93 -0.123565 1.57115 0
M  V30 2663 C 241.893 -1.13583 1.99076 0
M  V30 2664 C 242.893 -1.34564 0.880296 0
M  V30 2665 O 244.083 -1.31158 1.14644 0
M  V30 2666 C 241.215 -2.49128 2.32698 0
M  V30 2667 H 242.408 -0.775287 2.89706 0
M  V30 2668 H 239.961 -0.36771 1.51913 0
M  V30 2669 H 240.696 -2.90111 1.44934 0
M  V30 2670 H 240.481 -2.35255 3.13684 0
M  V30 2671 H 241.971 -3.2199 2.65918 0
M  V30 2672 N 242.408 -1.52605 -0.393616 0
M  V30 2673 C 243.318 -1.79971 -1.50492 0
M  V30 2674 C 244.334 -0.686181 -1.59899 0
M  V30 2675 O 245.51 -0.973274 -1.76322 0
M  V30 2676 C 242.575 -1.95867 -2.86072 0
M  V30 2677 C 241.636 -3.19781 -2.86424 0
M  V30 2678 C 240.869 -3.34909 -4.15538 0
M  V30 2679 O 241.092 -2.54948 -5.10253 0
M  V30 2680 O 240.026 -4.28141 -4.23059 0
M  V30 2681 H 243.852 -2.74328 -1.30299 0
M  V30 2682 H 241.437 -1.3764 -0.581005 0
M  V30 2683 H 243.319 -2.08056 -3.66457 0
M  V30 2684 H 241.994 -1.04699 -3.063 0
M  V30 2685 H 240.901 -3.13038 -2.04837 0
M  V30 2686 H 242.234 -4.1078 -2.71147 0
M  V30 2687 N 243.887 0.651787 -1.4349 0
M  V30 2688 C 244.817 1.77621 -1.51569 0
M  V30 2689 C 245.798 1.66022 -0.370253 0
M  V30 2690 O 246.983 1.85095 -0.587658 0
M  V30 2691 C 244.113 3.16056 -1.43966 0
M  V30 2692 C 243.067 3.4242 -2.56774 0
M  V30 2693 C 242.393 4.8067 -2.34223 0
M  V30 2694 C 243.693 3.37023 -3.99015 0
M  V30 2695 H 245.387 1.71117 -2.45681 0
M  V30 2696 H 242.933 0.821825 -1.18246 0
M  V30 2697 H 244.886 3.94472 -1.48221 0
M  V30 2698 H 243.61 3.23293 -0.463586 0
M  V30 2699 H 242.269 2.66375 -2.51873 0
M  V30 2700 H 241.917 4.84585 -1.34856 0
M  V30 2701 H 241.617 4.9927 -3.09844 0
M  V30 2702 H 243.141 5.61342 -2.40265 0
M  V30 2703 H 244.555 4.05374 -4.05395 0
M  V30 2704 H 242.952 3.67159 -4.74673 0
M  V30 2705 H 244.022 2.3518 -4.2405 0
M  V30 2706 N 245.365 1.30045 0.890287 0
M  V30 2707 C 246.295 1.18541 2.01172 0
M  V30 2708 C 247.276 0.0773356 1.69924 0
M  V30 2709 O 248.461 0.25845 1.92473 0
M  V30 2710 C 245.591 0.870941 3.36202 0
M  V30 2711 C 244.545 1.93637 3.81692 0
M  V30 2712 C 243.871 1.475 5.13953 0
M  V30 2713 C 245.171 3.34666 4.00994 0
M  V30 2714 H 246.865 2.12359 2.11054 0
M  V30 2715 H 244.411 1.02238 1.01407 0
M  V30 2716 H 246.364 0.777141 4.14172 0
M  V30 2717 H 245.088 -0.102926 3.26438 0
M  V30 2718 H 243.747 2.01972 3.05946 0
M  V30 2719 H 243.395 0.489551 5.00612 0
M  V30 2720 H 243.095 2.1876 5.4536 0
M  V30 2721 H 244.619 1.39489 5.94454 0
M  V30 2722 H 246.033 3.2912 4.69417 0
M  V30 2723 H 244.43 4.03966 4.43769 0
M  V30 2724 H 245.5 3.76949 3.05021 0
M  V30 2725 N 246.843 -1.10192 1.12674 0
M  V30 2726 C 248.254 -1.63707 0.897604 0
M  V30 2727 C 248.605 -1.87812 -0.567546 0
M  V30 2728 O 247.73 -1.62196 -1.43253 0
M  V30 2729 C 248.325 -2.974 1.62292 0
M  V30 2730 C 246.884 -3.47772 1.43986 0
M  V30 2731 C 246.031 -2.22332 1.65722 0
M  V30 2732 H 248.982 -0.936587 1.28116 0
M  V30 2733 H 249.003 -3.64986 1.07541 0
M  V30 2734 H 248.515 -2.79824 2.68924 0
M  V30 2735 H 246.616 -3.70487 0.396206 0
M  V30 2736 H 246.729 -4.25723 2.19765 0
M  V30 2737 H 245.093 -2.30599 1.08149 0
M  V30 2738 H 245.876 -2.07285 2.73657 0
M  V30 2739 N 248.321 -0.919034 -1.28029 0
M  V30 2740 C 249.268 -0.410005 -2.27129 0
M  V30 2741 C 250.238 0.518405 -1.57803 0
M  V30 2742 O 251.423 0.439451 -1.8567 0
M  V30 2743 C 248.563 0.339054 -3.4343 0
M  V30 2744 C 247.676 -0.622468 -4.27492 0
M  V30 2745 C 246.811 0.145567 -5.31001 0
M  V30 2746 C 245.85 -0.809226 -6.06727 0
M  V30 2747 N 244.987 -0.0743728 -7.02061 0
M  V30 2748 H 249.827 -1.26011 -2.70047 0
M  V30 2749 H 247.364 -0.632663 -1.328 0
M  V30 2750 H 249.322 0.789586 -4.0966 0
M  V30 2751 H 247.952 1.15346 -3.01488 0
M  V30 2752 H 247.004 -1.19153 -3.61257 0
M  V30 2753 H 248.316 -1.35252 -4.80113 0
M  V30 2754 H 247.47 0.656417 -6.03139 0
M  V30 2755 H 246.209 0.908643 -4.79161 0
M  V30 2756 H 245.214 -1.3314 -5.33436 0
M  V30 2757 H 246.439 -1.57194 -6.60656 0
M  V30 2758 H 244.385 0.670616 -6.52563 0
M  V30 2759 H 244.302 -0.744157 -7.52329 0
M  V30 2760 H 245.57 0.416109 -7.78389 0
M  V30 2761 N 249.799 1.42003 -0.683588 0
M  V30 2762 C 251.029 2.05448 -0.217866 0
M  V30 2763 C 251.437 1.51491 1.13346 0
M  V30 2764 O 250.78 0.653048 1.717 0
M  V30 2765 C 250.842 3.59399 -0.0850118 0
M  V30 2766 C 250.506 4.36093 -1.36645 0
M  V30 2767 C 251.503 4.66169 -2.30179 0
M  V30 2768 C 249.188 4.75578 -1.61649 0
M  V30 2769 C 251.182 5.34676 -3.46988 0
M  V30 2770 C 248.869 5.43824 -2.78745 0
M  V30 2771 C 249.867 5.73299 -3.71238 0
M  V30 2772 O 249.555 6.40142 -4.86285 0
M  V30 2773 H 249.287 0.668344 -0.101454 0
M  V30 2774 H 251.841 1.82974 -0.933248 0
M  V30 2775 H 250.071 3.80566 0.686031 0
M  V30 2776 H 251.76 4.04457 0.341973 0
M  V30 2777 H 252.526 4.36156 -2.12115 0
M  V30 2778 H 248.405 4.52025 -0.905243 0
M  V30 2779 H 251.949 5.57599 -4.19201 0
M  V30 2780 H 247.846 5.73254 -2.96732 0
M  V30 2781 H 248.614 6.58636 -4.85944 0
M  V30 2782 N 251.277 0.427512 1.51691 0
M  V30 2783 C 252.525 -0.141948 2.01601 0
M  V30 2784 C 252.846 -1.44067 1.31414 0
M  V30 2785 O 252.116 -1.90763 0.445658 0
M  V30 2786 H 250.696 -0.0554468 0.744939 0
M  V30 2787 H 253.358 0.567968 1.86441 0
M  V30 2788 H 252.454 -0.324913 3.10404 0
M  V30 2789 N 252.755 -1.56801 0.158532 0
M  V30 2790 C 253.702 -2.17337 -0.776729 0
M  V30 2791 C 254.672 -1.1096 -1.23601 0
M  V30 2792 O 255.857 -1.39054 -1.30647 0
M  V30 2793 C 252.997 -2.80822 -2.00582 0
M  V30 2794 C 252.11 -4.01624 -1.59129 0
M  V30 2795 C 251.245 -4.53072 -2.77306 0
M  V30 2796 C 250.284 -5.66314 -2.32282 0
M  V30 2797 N 249.421 -6.12329 -3.43508 0
M  V30 2798 H 254.261 -2.96918 -0.253701 0
M  V30 2799 H 251.798 -1.46661 -0.113504 0
M  V30 2800 H 253.756 -3.15779 -2.72652 0
M  V30 2801 H 252.386 -2.03866 -2.50277 0
M  V30 2802 H 251.438 -3.72571 -0.767806 0
M  V30 2803 H 252.75 -4.83633 -1.2207 0
M  V30 2804 H 251.904 -4.90145 -3.57551 0
M  V30 2805 H 250.643 -3.70095 -3.17617 0
M  V30 2806 H 249.648 -5.28806 -1.5048 0
M  V30 2807 H 250.873 -6.51085 -1.93043 0
M  V30 2808 H 248.819 -5.32284 -3.83418 0
M  V30 2809 H 248.736 -6.89293 -3.105 0
M  V30 2810 H 250.004 -6.5405 -4.24075 0
M  V30 2811 N 254.233 0.115231 -1.57178 0
M  V30 2812 C 255.166 1.17166 -1.95825 0
M  V30 2813 C 256.144 1.39912 -0.828463 0
M  V30 2814 O 257.328 1.54004 -1.08697 0
M  V30 2815 C 254.455 2.52478 -2.25771 0
M  V30 2816 C 253.501 2.46136 -3.48309 0
M  V30 2817 S 254.334 1.89736 -5.0076 0
M  V30 2818 C 255.49 3.26713 -5.33863 0
M  V30 2819 H 255.723 0.842103 -2.85124 0
M  V30 2820 H 253.256 0.322136 -1.51002 0
M  V30 2821 H 255.214 3.30332 -2.43702 0
M  V30 2822 H 253.875 2.82609 -1.37079 0
M  V30 2823 H 253.068 3.45819 -3.66641 0
M  V30 2824 H 252.67 1.76404 -3.29784 0
M  V30 2825 H 254.962 4.22935 -5.29275 0
M  V30 2826 H 255.905 3.13205 -6.35065 0
M  V30 2827 H 256.313 3.25316 -4.61335 0
M  V30 2828 N 255.711 1.52812 0.385517 0
M  V30 2829 C 256.621 1.80766 1.49535 0
M  V30 2830 C 257.637 0.694651 1.59532 0
M  V30 2831 O 258.813 0.982611 1.75803 0
M  V30 2832 C 255.878 1.97381 2.85029 0
M  V30 2833 C 254.939 3.21295 2.84724 0
M  V30 2834 C 254.172 3.37108 4.13756 0
M  V30 2835 O 254.395 2.5765 5.08893 0
M  V30 2836 O 253.329 4.30378 4.20783 0
M  V30 2837 H 257.155 2.75015 1.28842 0
M  V30 2838 H 254.74 1.37946 0.573697 0
M  V30 2839 H 256.622 2.09996 3.65349 0
M  V30 2840 H 255.297 1.06322 3.05741 0
M  V30 2841 H 254.204 3.1412 2.03174 0
M  V30 2842 H 255.537 4.12212 2.68965 0
M  V30 2843 N 257.189 -0.644168 1.43834 0
M  V30 2844 C 258.152 -1.73857 1.49353 0
M  V30 2845 C 259.152 -1.56315 0.377112 0
M  V30 2846 O 260.342 -1.62048 0.639226 0
M  V30 2847 C 257.474 -3.12819 1.35488 0
M  V30 2848 H 258.667 -1.70342 2.46827 0
M  V30 2849 H 256.22 -0.856652 1.30733 0
M  V30 2850 H 256.955 -3.2194 0.390569 0
M  V30 2851 H 256.74 -3.26958 2.16428 0
M  V30 2852 H 258.23 -3.92606 1.42302 0
M  V30 2853 N 258.668 -1.30515 -0.883378 0
M  V30 2854 C 259.631 -1.1701 -1.97082 0
M  V30 2855 C 260.631 -0.10089 -1.60483 0
M  V30 2856 O 261.821 -0.349127 -1.70666 0
M  V30 2857 C 258.953 -0.793045 -3.31547 0
M  V30 2858 H 260.146 -2.13622 -2.10489 0
M  V30 2859 H 257.699 -1.13935 -1.06998 0
M  V30 2860 H 258.434 0.172499 -3.23841 0
M  V30 2861 H 258.219 -1.56576 -3.5948 0
M  V30 2862 H 259.709 -0.722073 -4.1131 0
M  V30 2863 N 260.146 1.09593 -1.13257 0
M  V30 2864 C 261.078 2.16015 -0.766167 0
M  V30 2865 C 262.091 1.61423 0.211303 0
M  V30 2866 O 263.28 1.78498 -0.00863946 0
M  V30 2867 C 260.38 3.38706 -0.114662 0
M  V30 2868 C 259.553 4.22717 -1.12379 0
M  V30 2869 C 258.612 5.23835 -0.498301 0
M  V30 2870 O 257.638 5.573 -1.15781 0
M  V30 2871 N 258.84 5.75886 0.730417 0
M  V30 2872 H 261.605 2.48055 -1.68193 0
M  V30 2873 H 259.166 1.25292 -1.02535 0
M  V30 2874 H 261.158 4.03464 0.315991 0
M  V30 2875 H 259.728 3.04569 0.704011 0
M  V30 2876 H 258.948 3.54122 -1.73179 0
M  V30 2877 H 260.236 4.75673 -1.80589 0
M  V30 2878 H 259.634 5.50911 1.28504 0
M  V30 2879 H 258.191 6.42387 1.10376 0
M  V30 2880 N 261.624 0.925811 1.2754 0
M  V30 2881 C 262.871 0.565255 1.94451 0
M  V30 2882 C 263.199 -0.89316 1.7278 0
M  V30 2883 O 262.454 -1.65213 1.04895 0
M  V30 2884 C 262.753 0.835296 3.47502 0
M  V30 2885 C 262.419 2.27515 3.89291 0
M  V30 2886 C 261.081 2.66879 4.00411 0
M  V30 2887 C 263.433 3.21158 4.10496 0
M  V30 2888 C 260.761 3.99014 4.30122 0
M  V30 2889 C 263.113 4.52871 4.4169 0
M  V30 2890 C 261.777 4.92072 4.51023 0
M  V30 2891 H 261.047 0.206841 0.711546 0
M  V30 2892 H 263.694 1.16942 1.51647 0
M  V30 2893 H 261.999 0.148442 3.91519 0
M  V30 2894 H 263.696 0.535322 3.97411 0
M  V30 2895 H 260.286 1.95976 3.81171 0
M  V30 2896 H 264.47 2.9195 4.01346 0
M  V30 2897 H 259.726 4.2907 4.35556 0
M  V30 2898 H 263.9 5.25436 4.57045 0
M  V30 2899 H 261.527 5.9449 4.738 0
M  V30 2900 N 263.102 -1.41638 0.69111 0
M  V30 2901 C 264.032 -2.3347 0.037248 0
M  V30 2902 C 265.013 -1.51575 -0.771947 0
M  V30 2903 O 266.198 -1.80126 -0.72582 0
M  V30 2904 C 263.328 -3.35354 -0.903064 0
M  V30 2905 C 262.282 -4.27526 -0.201288 0
M  V30 2906 C 261.608 -5.19747 -1.25565 0
M  V30 2907 C 262.908 -5.13959 0.929689 0
M  V30 2908 H 264.602 -2.88397 0.804227 0
M  V30 2909 H 262.148 -1.38669 0.388189 0
M  V30 2910 H 264.101 -3.98519 -1.36969 0
M  V30 2911 H 262.825 -2.78767 -1.70166 0
M  V30 2912 H 261.484 -3.65779 0.245265 0
M  V30 2913 H 261.132 -4.59479 -2.04666 0
M  V30 2914 H 260.832 -5.8225 -0.791128 0
M  V30 2915 H 262.356 -5.85789 -1.72288 0
M  V30 2916 H 263.77 -5.70718 0.543546 0
M  V30 2917 H 262.167 -5.85379 1.32103 0
M  V30 2918 H 263.237 -4.51389 1.77133 0
M  V30 2919 N 264.58 -0.43555 -1.51462 0
M  V30 2920 C 265.996 -0.0877501 -1.59359 0
M  V30 2921 C 266.196 1.4027 -1.4466 0
M  V30 2922 O 265.252 2.17243 -1.28693 0
M  V30 2923 C 266.565 -0.606264 -2.94525 0
M  V30 2924 C 268.113 -0.566548 -3.0783 0
M  V30 2925 C 268.588 -1.06201 -4.45517 0
M  V30 2926 N 270.079 -1.01992 -4.51832 0
M  V30 2927 C 270.814 -1.37417 -5.5669 0
M  V30 2928 N 270.31 -1.80119 -6.68976 0
M  V30 2929 N 272.103 -1.29245 -5.47039 0
M  V30 2930 H 264.254 -1.40533 -1.59261 0
M  V30 2931 H 266.517 -0.578992 -0.750648 0
M  V30 2932 H 266.223 -1.64901 -3.10645 0
M  V30 2933 H 266.097 -0.0302097 -3.77188 0
M  V30 2934 H 268.484 0.467208 -2.91378 0
M  V30 2935 H 268.565 -1.17898 -2.2701 0
M  V30 2936 H 268.209 -2.09422 -4.62715 0
M  V30 2937 H 268.139 -0.426127 -5.24873 0
M  V30 2938 H 270.63 -0.706308 -3.71241 0
M  V30 2939 H 270.943 -2.05392 -7.45006 0
M  V30 2940 H 269.288 -1.84044 -6.70189 0
M  V30 2941 H 272.479 -0.957522 -4.58202 0
M  V30 2942 H 272.652 -1.57182 -6.28648 0
M  V30 2943 N 266.058 1.56714 -0.166846 0
M  V30 2944 C 267.006 2.19056 0.782123 0
M  V30 2945 C 268 1.15328 1.24079 0
M  V30 2946 O 269.206 1.33537 1.20697 0
M  V30 2947 H 265.581 0.70167 0.270486 0
M  V30 2948 H 267.552 2.97494 0.232322 0
M  V30 2949 C 266.301 2.84206 2.00306 0
M  V30 2950 H 265.624 3.63748 1.65914 0
M  V30 2951 H 267.064 3.31302 2.64604 0
M  V30 2952 C 265.523 1.83744 2.82382 0
M  V30 2953 O 266.053 1.32014 3.79388 0
M  V30 2954 N 264.259 1.52601 2.47308 0
M  V30 2955 H 263.806 1.9486 1.68485 0
M  V30 2956 H 263.764 0.856351 3.02513 0
M  V30 2957 N 267.536 -0.106894 1.57237 0
M  V30 2958 C 268.466 -1.13148 2.04254 0
M  V30 2959 C 269.447 -1.42476 0.929224 0
M  V30 2960 O 270.632 -1.52709 1.19973 0
M  V30 2961 C 267.762 -2.4545 2.45706 0
M  V30 2962 C 266.716 -2.30558 3.60592 0
M  V30 2963 C 266.042 -3.67931 3.87983 0
M  V30 2964 C 267.342 -1.75597 4.91897 0
M  V30 2965 H 269.036 -0.740374 2.90101 0
M  V30 2966 H 266.582 -0.354696 1.39563 0
M  V30 2967 H 268.535 -3.17389 2.77205 0
M  V30 2968 H 267.259 -2.86475 1.56843 0
M  V30 2969 H 265.918 -1.61067 3.29322 0
M  V30 2970 H 265.566 -4.06462 2.96306 0
M  V30 2971 H 265.266 -3.58817 4.65322 0
M  V30 2972 H 266.79 -4.41356 4.21945 0
M  V30 2973 H 268.204 -2.37364 5.21854 0
M  V30 2974 H 266.601 -1.77272 5.73319 0
M  V30 2975 H 267.671 -0.714451 4.79608 0
M  V30 2976 N 269.014 -1.53014 -0.377408 0
M  V30 2977 C 270.263 -1.67845 -1.11853 0
M  V30 2978 C 270.576 -0.430625 -1.90801 0
M  V30 2979 O 271.782 -0.459261 -2.67587 0
M  V30 2980 C 270.238 -2.96668 -2.03756 0
M  V30 2981 C 269.846 -4.28671 -1.30175 0
M  V30 2982 C 271.59 -3.20865 -2.77932 0
M  V30 2983 C 269.497 -5.48591 -2.20911 0
M  V30 2984 H 268.427 -0.625343 -0.421263 0
M  V30 2985 H 271.078 -1.79514 -0.380409 0
M  V30 2986 H 269.46 -2.78773 -2.8125 0
M  V30 2987 H 270.634 -4.57157 -0.578259 0
M  V30 2988 H 268.949 -4.10825 -0.679108 0
M  V30 2989 H 271.546 -4.07642 -3.46024 0
M  V30 2990 H 271.889 -2.36424 -3.4265 0
M  V30 2991 H 272.422 -3.39379 -2.07525 0
M  V30 2992 H 269.161 -6.35474 -1.6079 0
M  V30 2993 H 268.681 -5.244 -2.91144 0
M  V30 2994 H 270.36 -5.8292 -2.80736 0
M  V30 2995 N 270.492 0.636531 -1.44174 0
M  V30 2996 C 271.455 1.73063 -1.50273 0
M  V30 2997 C 272.455 1.56113 -0.385397 0
M  V30 2998 O 273.645 1.61707 -0.64781 0
M  V30 2999 C 270.777 3.12096 -1.37145 0
M  V30 3000 H 271.97 1.69031 -2.47727 0
M  V30 3001 H 269.523 0.849706 -1.31186 0
M  V30 3002 H 270.258 3.21728 -0.407636 0
M  V30 3003 H 270.043 3.25805 -2.18159 0
M  V30 3004 H 271.533 3.91846 -1.44382 0
M  V30 3005 N 271.97 1.30982 0.876444 0
M  V30 3006 C 272.933 1.18054 1.96459 0
M  V30 3007 C 273.933 0.109399 1.60427 0
M  V30 3008 O 275.123 0.358173 1.70478 0
M  V30 3009 C 272.255 0.810616 3.31122 0
M  V30 3010 H 273.448 2.14735 2.09354 0
M  V30 3011 H 271.001 1.145 1.06392 0
M  V30 3012 H 271.736 -0.155322 3.23928 0
M  V30 3013 H 271.521 1.58481 3.58645 0
M  V30 3014 H 273.011 0.743876 4.10921 0
M  V30 3015 N 273.449 -1.08991 1.13837 0
M  V30 3016 C 274.695 -1.81526 0.90422 0
M  V30 3017 C 275.028 -1.85706 -0.568066 0
M  V30 3018 O 274.303 -1.32855 -1.42056 0
M  V30 3019 C 274.586 -3.27447 1.49835 0
M  V30 3020 C 274.439 -3.31512 3.04006 0
M  V30 3021 C 275.758 -4.24256 1.17025 0
M  V30 3022 H 272.877 -0.659029 0.329923 0
M  V30 3023 H 275.519 -1.27644 1.40737 0
M  V30 3024 H 273.669 -3.73462 1.07044 0
M  V30 3025 H 275.341 -2.93867 3.55584 0
M  V30 3026 H 273.584 -2.70963 3.38765 0
M  V30 3027 H 274.255 -4.34329 3.40679 0
M  V30 3028 H 276.731 -3.86549 1.54009 0
M  V30 3029 H 275.607 -5.24684 1.61237 0
M  V30 3030 H 275.868 -4.42019 0.0846274 0
M  V30 3031 N 274.927 -0.932562 -1.27047 0
M  V30 3032 C 276.338 -0.619451 -1.76124 0
M  V30 3033 C 276.689 0.865397 -1.76083 0
M  V30 3034 O 275.814 1.67722 -1.36742 0
M  V30 3035 C 276.409 -1.11771 -3.19832 0
M  V30 3036 C 274.968 -0.855174 -3.66557 0
M  V30 3037 C 274.115 -1.27362 -2.46321 0
M  V30 3038 H 277.066 -1.11181 -1.13245 0
M  V30 3039 H 277.087 -0.46759 -3.77616 0
M  V30 3040 H 276.599 -2.19842 -3.1983 0
M  V30 3041 H 274.7 0.211524 -3.71999 0
M  V30 3042 H 274.813 -1.47613 -4.55793 0
M  V30 3043 H 273.177 -0.692119 -2.45116 0
M  V30 3044 H 273.96 -2.36307 -2.49025 0
M  V30 3045 N 276.405 1.4127 -0.698611 0
M  V30 3046 C 277.635 2.05205 -0.239644 0
M  V30 3047 C 278.043 1.52684 1.11733 0
M  V30 3048 O 277.386 0.671222 1.70998 0
M  V30 3049 C 277.448 3.59289 -0.123126 0
M  V30 3050 C 277.112 4.34619 -1.41263 0
M  V30 3051 C 278.109 4.63701 -2.35111 0
M  V30 3052 C 275.794 4.73837 -1.66684 0
M  V30 3053 C 277.788 5.30966 -3.52639 0
M  V30 3054 C 275.475 5.40837 -2.84498 0
M  V30 3055 C 276.473 5.69329 -3.77298 0
M  V30 3056 O 276.161 6.34949 -4.93047 0
M  V30 3057 H 275.893 0.66723 -0.108537 0
M  V30 3058 H 278.447 1.81974 -0.952602 0
M  V30 3059 H 276.677 3.81272 0.645628 0
M  V30 3060 H 278.366 4.04797 0.299056 0
M  V30 3061 H 279.132 4.33882 -2.16729 0
M  V30 3062 H 275.011 4.51039 -0.953135 0
M  V30 3063 H 278.555 5.53121 -4.25091 0
M  V30 3064 H 274.452 5.70075 -3.02795 0
M  V30 3065 H 275.22 6.53445 -4.92902 0
M  V30 3066 N 277.883 0.443576 1.51229 0
M  V30 3067 C 278.83 -0.364716 2.279 0
M  V30 3068 C 279.8 -1.0114 1.31757 0
M  V30 3069 O 280.985 -1.02912 1.60667 0
M  V30 3070 C 278.125 -1.45644 3.12861 0
M  V30 3071 C 277.238 -0.827269 4.24005 0
M  V30 3072 C 276.373 -1.89456 4.96266 0
M  V30 3073 C 275.412 -1.24416 5.99322 0
M  V30 3074 N 274.549 -2.25309 6.64966 0
M  V30 3075 H 279.389 0.295464 2.96532 0
M  V30 3076 H 276.926 0.157554 1.46254 0
M  V30 3077 H 278.884 -2.10076 3.6045 0
M  V30 3078 H 277.514 -2.08616 2.46331 0
M  V30 3079 H 276.566 -0.0710839 3.80334 0
M  V30 3080 H 277.878 -0.312481 4.9782 0
M  V30 3081 H 277.032 -2.61535 5.47434 0
M  V30 3082 H 275.771 -2.4431 4.22095 0
M  V30 3083 H 274.776 -0.508868 5.4744 0
M  V30 3084 H 276.001 -0.702882 6.75453 0
M  V30 3085 H 273.947 -2.79231 5.93604 0
M  V30 3086 H 273.864 -1.78739 7.34567 0
M  V30 3087 H 275.132 -2.96853 7.20763 0
M  V30 3088 N 279.361 -1.56624 0.175154 0
M  V30 3089 C 280.61 -1.96173 -0.468921 0
M  V30 3090 C 280.923 -1.06401 -1.64128 0
M  V30 3091 O 282.129 -1.35648 -2.35185 0
M  V30 3092 C 280.585 -3.48833 -0.885633 0
M  V30 3093 C 280.193 -4.47237 0.261343 0
M  V30 3094 C 281.937 -3.97194 -1.49791 0
M  V30 3095 C 279.844 -5.9114 -0.175214 0
M  V30 3096 H 278.774 -0.732455 -0.178958 0
M  V30 3097 H 281.425 -1.81591 0.263997 0
M  V30 3098 H 279.807 -3.58848 -1.67464 0
M  V30 3099 H 280.981 -4.4894 1.03871 0
M  V30 3100 H 279.296 -4.08956 0.783827 0
M  V30 3101 H 281.893 -5.02167 -1.83665 0
M  V30 3102 H 282.236 -3.40351 -2.39722 0
M  V30 3103 H 282.769 -3.90212 -0.773267 0
M  V30 3104 H 279.508 -6.51865 0.689414 0
M  V30 3105 H 279.028 -5.92735 -0.91786 0
M  V30 3106 H 280.707 -6.44044 -0.617792 0
M  V30 3107 N 280.839 0.0985539 -1.57292 0
M  V30 3108 C 281.789 1.1261 -1.9825 0
M  V30 3109 C 282.773 1.35961 -0.860426 0
M  V30 3110 O 283.965 1.36711 -1.12424 0
M  V30 3111 C 281.094 2.44727 -2.40757 0
M  V30 3112 C 280.18 2.24764 -3.59642 0
M  V30 3113 N 280.571 1.74661 -4.74687 0
M  V30 3114 C 278.869 2.55344 -3.65672 0
M  V30 3115 C 279.57 1.68887 -5.56644 0
M  V30 3116 N 278.546 2.13976 -4.99715 0
M  V30 3117 H 282.348 0.731604 -2.84648 0
M  V30 3118 H 279.862 0.306029 -1.59491 0
M  V30 3119 H 281.859 3.19072 -2.68326 0
M  V30 3120 H 280.519 2.84917 -1.55733 0
M  V30 3121 H 281.53 1.43908 -4.97505 0
M  V30 3122 H 278.207 2.99081 -2.91302 0
M  V30 3123 H 279.597 1.3123 -6.5896 0
M  V30 3124 N 282.317 1.53212 0.369288 0
M  V30 3125 C 283.545 1.73119 1.13303 0
M  V30 3126 C 283.96 0.458455 1.83149 0
M  V30 3127 O 283.317 -0.568403 1.73423 0
M  V30 3128 C 283.368 2.89413 2.16616 0
M  V30 3129 O 283.089 4.11761 1.49614 0
M  V30 3130 C 284.59 3.21161 3.05566 0
M  V30 3131 H 281.81 0.579107 0.338934 0
M  V30 3132 H 284.354 1.99942 0.429338 0
M  V30 3133 H 282.509 2.64994 2.82589 0
M  V30 3134 H 282.923 4.76858 2.18419 0
M  V30 3135 H 284.397 4.05949 3.74045 0
M  V30 3136 H 284.874 2.36369 3.70171 0
M  V30 3137 H 285.48 3.47492 2.45213 0
M  V30 3138 N 283.795 -0.628877 1.44509 0
M  V30 3139 C 285.044 -1.38437 1.4669 0
M  V30 3140 C 285.357 -1.95322 0.104272 0
M  V30 3141 O 286.563 -2.715 0.00362163 0
M  V30 3142 C 285.019 -2.50659 2.5826 0
M  V30 3143 C 284.627 -2.00277 4.0074 0
M  V30 3144 C 286.371 -3.27844 2.69664 0
M  V30 3145 C 284.278 -3.09854 5.0373 0
M  V30 3146 H 283.208 -0.520245 0.545766 0
M  V30 3147 H 285.859 -0.676313 1.70582 0
M  V30 3148 H 284.241 -3.2405 2.27612 0
M  V30 3149 H 285.415 -1.33736 4.40966 0
M  V30 3150 H 283.73 -1.35901 3.93599 0
M  V30 3151 H 286.327 -4.09534 3.43781 0
M  V30 3152 H 286.67 -3.77471 1.75559 0
M  V30 3153 H 287.203 -2.61543 2.99733 0
M  V30 3154 H 283.942 -2.65168 5.99472 0
M  V30 3155 H 283.462 -3.7503 4.68095 0
M  V30 3156 H 285.141 -3.74592 5.27532 0
M  V30 3157 N 285.273 -1.31445 -0.869486 0
M  V30 3158 C 286.203 -1.21727 -1.99261 0
M  V30 3159 C 287.184 -0.104359 -1.6978 0
M  V30 3160 O 288.369 -0.289038 -1.92037 0
M  V30 3161 C 285.499 -0.924317 -3.34774 0
M  V30 3162 C 284.453 -1.99685 -3.78563 0
M  V30 3163 C 283.779 -1.55658 -5.11541 0
M  V30 3164 C 285.079 -3.41003 -3.95619 0
M  V30 3165 H 286.773 -2.1569 -2.07649 0
M  V30 3166 H 284.319 -1.03839 -0.997675 0
M  V30 3167 H 286.272 -0.842934 -4.12883 0
M  V30 3168 H 284.996 0.0509793 -3.2656 0
M  V30 3169 H 283.655 -2.06813 -3.02694 0
M  V30 3170 H 283.303 -0.569132 -4.9977 0
M  V30 3171 H 283.003 -2.27409 -5.41811 0
M  V30 3172 H 284.527 -1.48928 -5.92159 0
M  V30 3173 H 285.941 -3.36547 -4.64122 0
M  V30 3174 H 284.338 -4.10975 -4.37286 0
M  V30 3175 H 285.408 -3.81754 -2.98985 0
M  V30 3176 N 286.751 1.08385 -1.14413 0
M  V30 3177 C 287.979 1.84517 -0.936001 0
M  V30 3178 C 288.394 1.81626 0.515503 0
M  V30 3179 O 287.751 1.22008 1.35721 0
M  V30 3180 C 287.802 3.32049 -1.42918 0
M  V30 3181 O 287.523 3.34951 -2.82381 0
M  V30 3182 C 289.024 4.24986 -1.26103 0
M  V30 3183 H 286.244 0.582491 -0.333084 0
M  V30 3184 H 288.788 1.36885 -1.5193 0
M  V30 3185 H 286.943 3.7707 -0.888641 0
M  V30 3186 H 287.357 4.27048 -3.04517 0
M  V30 3187 H 288.831 5.26615 -1.6547 0
M  V30 3188 H 289.308 4.38726 -0.20392 0
M  V30 3189 H 289.914 3.85791 -1.79012 0
M  V30 3190 N 288.23 0.939286 1.26551 0
M  V30 3191 C 289.507 0.5038 1.89001 0
M  V30 3192 C 289.887 -1.01854 1.84903 0
M  V30 3193 O 289.235 -1.87773 1.30206 0
M  V30 3194 C 289.445 1.063 3.32417 0
M  V30 3195 C 290.793 1.13051 4.09273 0
M  V30 3196 O 291.817 1.01345 3.41479 0
M  V30 3197 O 290.676 1.31233 5.30509 0
M  V30 3198 H 287.77 0.163897 0.810597 0
M  V30 3199 H 290.316 1.03173 1.34735 0
M  V30 3200 H 289.088 2.10665 3.29752 0
M  V30 3201 H 288.711 0.517408 3.94219 0
M  V30 3202 N 289.708 -1.40897 0.706093 0
M  V30 3203 C 290.656 -2.32572 0.0361893 0
M  V30 3204 C 291.65 -1.51532 -0.757266 0
M  V30 3205 O 292.856 -1.67396 -0.661703 0
M  V30 3206 H 289.231 -0.751966 -0.00709935 0
M  V30 3207 H 291.202 -2.86733 0.826249 0
M  V30 3208 C 289.951 -3.36418 -0.87854 0
M  V30 3209 H 289.274 -3.98836 -0.277401 0
M  V30 3210 H 290.714 -4.0308 -1.3154 0
M  V30 3211 C 289.173 -2.71141 -1.99961 0
M  V30 3212 O 289.703 -2.56735 -3.0895 0
M  V30 3213 N 287.909 -2.29671 -1.78043 0
M  V30 3214 H 287.456 -2.41588 -0.894042 0
M  V30 3215 H 287.414 -1.86332 -2.53235 0
M  V30 3216 N 291.186 -0.45159 -1.50991 0
M  V30 3217 C 292.434 0.109857 -2.01801 0
M  V30 3218 C 292.755 1.41958 -1.3369 0
M  V30 3219 O 292.025 1.9003 -0.475951 0
M  V30 3220 H 290.605 0.0435884 -0.745727 0
M  V30 3221 H 293.267 -0.597557 -1.85514 0
M  V30 3222 H 292.363 0.275489 -3.10882 0
M  V30 3223 N 292.664 1.56529 -0.183458 0
M  V30 3224 C 293.913 1.96419 0.458511 0
M  V30 3225 C 294.226 1.0727 1.63562 0
M  V30 3226 O 295.432 1.36893 2.34462 0
M  V30 3227 C 293.888 3.49298 0.867122 0
M  V30 3228 C 293.496 4.47092 -0.285057 0
M  V30 3229 C 295.24 3.97983 1.47683 0
M  V30 3230 C 293.147 5.91225 0.143862 0
M  V30 3231 H 292.077 0.733394 0.175071 0
M  V30 3232 H 294.728 1.81448 -0.273624 0
M  V30 3233 H 293.11 3.59731 1.65559 0
M  V30 3234 H 294.284 4.48383 -1.0625 0
M  V30 3235 H 292.599 4.08535 -0.805503 0
M  V30 3236 H 295.196 5.03134 1.80999 0
M  V30 3237 H 295.539 3.41618 2.37914 0
M  V30 3238 H 296.072 3.90617 0.752562 0
M  V30 3239 H 292.811 6.5149 -0.723974 0
M  V30 3240 H 292.331 5.93214 0.886413 0
M  V30 3241 H 294.01 6.44362 0.583628 0
M  V30 3242 N 294.142 -0.090211 1.57342 0
M  V30 3243 C 295.074 -1.13541 1.99101 0
M  V30 3244 C 296.087 -1.3604 0.894258 0
M  V30 3245 O 297.276 -1.34606 1.17233 0
M  V30 3246 C 294.376 -2.49001 2.29895 0
M  V30 3247 C 293.549 -2.46712 3.61182 0
M  V30 3248 C 292.608 -3.64136 3.79857 0
M  V30 3249 O 291.634 -3.46405 4.51655 0
M  V30 3250 N 292.836 -4.83802 3.20806 0
M  V30 3251 H 295.601 -0.779942 2.89373 0
M  V30 3252 H 293.162 -0.279125 1.59476 0
M  V30 3253 H 295.154 -3.26166 2.39578 0
M  V30 3254 H 293.724 -2.76619 1.45605 0
M  V30 3255 H 292.944 -1.55058 3.62423 0
M  V30 3256 H 294.232 -2.42265 4.4742 0
M  V30 3257 H 293.63 -5.01112 2.62494 0
M  V30 3258 H 292.187 -5.58543 3.35966 0
M  V30 3259 N 295.62 -1.53406 -0.361157 0
M  V30 3260 C 296.867 -1.69802 -1.10333 0
M  V30 3261 C 297.195 -0.452087 -1.89173 0
M  V30 3262 O 296.45 0.566017 -1.87336 0
M  V30 3263 C 296.749 -2.90211 -2.08596 0
M  V30 3264 C 296.415 -4.26539 -1.46203 0
M  V30 3265 C 295.077 -4.6361 -1.28915 0
M  V30 3266 C 297.429 -5.113 -1.01101 0
M  V30 3267 C 294.757 -5.83075 -0.651157 0
M  V30 3268 C 297.109 -6.31415 -0.387007 0
M  V30 3269 C 295.773 -6.67195 -0.201657 0
M  V30 3270 H 295.043 -0.621351 -0.403737 0
M  V30 3271 H 297.69 -1.87598 -0.384609 0
M  V30 3272 H 295.995 -2.66946 -2.86788 0
M  V30 3273 H 297.692 -3.00091 -2.65982 0
M  V30 3274 H 294.282 -3.97352 -1.60653 0
M  V30 3275 H 298.466 -4.83206 -1.13249 0
M  V30 3276 H 293.722 -6.09385 -0.496006 0
M  V30 3277 H 297.896 -6.96394 -0.0293563 0
M  V30 3278 H 295.523 -7.59628 0.294766 0
M  V30 3279 N 297.098 0.621204 -1.44841 0
M  V30 3280 C 298.326 1.40752 -1.51646 0
M  V30 3281 C 298.741 1.88246 -0.144549 0
M  V30 3282 O 298.098 1.61422 0.851416 0
M  V30 3283 C 298.149 2.62119 -2.4895 0
M  V30 3284 O 297.87 2.16602 -3.80808 0
M  V30 3285 C 299.371 3.55135 -2.65319 0
M  V30 3286 H 296.591 0.431325 -0.514004 0
M  V30 3287 H 299.135 0.758835 -1.899 0
M  V30 3288 H 297.29 3.23058 -2.13805 0
M  V30 3289 H 297.704 2.95358 -4.33433 0
M  V30 3290 H 299.178 4.36874 -3.37409 0
M  V30 3291 H 299.655 4.04592 -1.70886 0
M  V30 3292 H 300.261 3.00058 -3.01405 0
M  V30 3293 N 298.576 1.31904 0.862503 0
M  V30 3294 C 299.526 1.16772 1.95827 0
M  V30 3295 C 300.51 0.0767098 1.60717 0
M  V30 3296 O 301.702 0.302407 1.74398 0
M  V30 3297 C 298.831 0.884858 3.317 0
M  V30 3298 C 297.917 2.0172 3.73055 0
M  V30 3299 N 298.308 3.265 3.86305 0
M  V30 3300 C 296.606 1.91861 4.02623 0
M  V30 3301 C 297.307 4.00616 4.2176 0
M  V30 3302 N 296.283 3.28847 4.32852 0
M  V30 3303 H 300.085 2.11382 2.04193 0
M  V30 3304 H 297.599 1.2357 1.05377 0
M  V30 3305 H 299.596 0.757419 4.09962 0
M  V30 3306 H 298.256 -0.0529448 3.24657 0
M  V30 3307 H 299.267 3.61529 3.70833 0
M  V30 3308 H 295.944 1.05593 4.03926 0
M  V30 3309 H 297.334 5.08182 4.39546 0
M  V30 3310 N 300.054 -1.07777 1.14986 0
M  V30 3311 C 301.47 -1.32373 0.891596 0
M  V30 3312 C 301.67 -1.9609 -0.463788 0
M  V30 3313 O 300.726 -2.21801 -1.20667 0
M  V30 3314 C 302.039 -2.21905 2.02925 0
M  V30 3315 C 303.587 -2.35367 2.06329 0
M  V30 3316 C 304.062 -3.28245 3.19405 0
M  V30 3317 N 305.553 -3.35824 3.19024 0
M  V30 3318 C 306.288 -4.07739 4.03158 0
M  V30 3319 N 305.784 -4.82306 4.97346 0
M  V30 3320 N 307.577 -4.03635 3.91197 0
M  V30 3321 H 299.728 -0.648039 2.02273 0
M  V30 3322 H 301.991 -0.348149 0.881757 0
M  V30 3323 H 301.697 -1.82342 3.0074 0
M  V30 3324 H 301.571 -3.22407 1.95789 0
M  V30 3325 H 303.958 -2.74186 1.09116 0
M  V30 3326 H 304.039 -1.34585 2.17533 0
M  V30 3327 H 303.683 -2.90146 4.16867 0
M  V30 3328 H 303.613 -4.28971 3.05437 0
M  V30 3329 H 306.104 -2.8267 2.50811 0
M  V30 3330 H 306.417 -5.34661 5.57994 0
M  V30 3331 H 304.762 -4.81337 5.01338 0
M  V30 3332 H 307.953 -3.44491 3.16928 0
M  V30 3333 H 308.126 -4.59417 4.5699 0
M  V30 3334 N 301.532 -0.945985 -1.26051 0
M  V30 3335 C 302.479 -0.45809 -2.26208 0
M  V30 3336 C 303.449 0.484816 -1.58867 0
M  V30 3337 O 304.634 0.399969 -1.86561 0
M  V30 3338 C 301.774 0.266131 -3.44072 0
M  V30 3339 C 300.887 -0.713005 -4.26075 0
M  V30 3340 C 300.022 0.0329013 -5.3119 0
M  V30 3341 C 299.061 -0.93774 -6.04874 0
M  V30 3342 N 298.198 -0.223274 -7.01745 0
M  V30 3343 H 303.038 -1.3171 -2.67313 0
M  V30 3344 H 300.575 -0.66069 -1.31428 0
M  V30 3345 H 302.533 0.702514 -4.11243 0
M  V30 3346 H 301.163 1.08925 -3.03867 0
M  V30 3347 H 300.215 -1.26789 -3.58648 0
M  V30 3348 H 301.527 -1.45406 -4.77136 0
M  V30 3349 H 300.681 0.528335 -6.04395 0
M  V30 3350 H 299.42 0.806801 -4.8098 0
M  V30 3351 H 298.425 -1.44425 -5.30492 0
M  V30 3352 H 299.65 -1.71172 -6.57173 0
M  V30 3353 H 297.596 0.532046 -6.53839 0
M  V30 3354 H 297.513 -0.90357 -7.50581 0
M  V30 3355 H 298.781 0.250907 -7.79096 0
M  V30 3356 N 303.011 1.40521 -0.713556 0
M  V30 3357 C 304.239 2.05237 -0.261775 0
M  V30 3358 C 304.654 1.53755 1.09567 0
M  V30 3359 O 304.011 0.693268 1.6882 0
M  V30 3360 C 304.062 3.60763 -0.230706 0
M  V30 3361 O 303.783 4.10345 -1.53455 0
M  V30 3362 C 305.284 4.42651 0.239874 0
M  V30 3363 H 302.504 0.660533 -0.118057 0
M  V30 3364 H 305.048 1.79967 -0.971192 0
M  V30 3365 H 303.203 3.8501 0.429661 0
M  V30 3366 H 303.617 5.04526 -1.43366 0
M  V30 3367 H 305.091 5.51599 0.210468 0
M  V30 3368 H 305.568 4.20082 1.28171 0
M  V30 3369 H 306.174 4.23507 -0.390142 0
M  V30 3370 N 304.489 0.459591 1.5075 0
M  V30 3371 C 305.766 -0.160371 1.94941 0
M  V30 3372 C 306.146 -1.58048 1.39943 0
M  V30 3373 O 305.494 -2.206 0.595629 0
M  V30 3374 C 305.704 -0.115432 3.48809 0
M  V30 3375 C 307.052 -0.310026 4.23467 0
M  V30 3376 O 308.076 -0.192543 3.55679 0
M  V30 3377 O 306.935 -0.546031 5.43765 0
M  V30 3378 H 304.029 -0.117925 0.818549 0
M  V30 3379 H 306.575 0.519169 1.61563 0
M  V30 3380 H 305.347 0.87652 3.81357 0
M  V30 3381 H 304.97 -0.836928 3.88692 0
M  V30 3382 N 305.967 -1.56429 0.191757 0
M  V30 3383 C 307.383 -1.58754 -0.164137 0
M  V30 3384 C 307.583 -1.20782 -1.61288 0
M  V30 3385 O 306.639 -0.928999 -2.34789 0
M  V30 3386 C 307.952 -3.00396 0.135195 0
M  V30 3387 C 309.5 -3.1291 0.0750351 0
M  V30 3388 C 309.975 -4.56679 0.347632 0
M  V30 3389 N 311.466 -4.62252 0.296131 0
M  V30 3390 C 312.201 -5.71379 0.480948 0
M  V30 3391 N 311.697 -6.88986 0.725933 0
M  V30 3392 N 313.49 -5.60563 0.415435 0
M  V30 3393 H 305.641 -1.79393 1.13718 0
M  V30 3394 H 307.904 -0.832414 0.453643 0
M  V30 3395 H 307.61 -3.32726 1.13958 0
M  V30 3396 H 307.484 -3.72963 -0.563773 0
M  V30 3397 H 309.871 -2.80394 -0.919948 0
M  V30 3398 H 309.952 -2.42736 0.807029 0
M  V30 3399 H 309.596 -4.89907 1.33992 0
M  V30 3400 H 309.526 -5.25039 -0.405212 0
M  V30 3401 H 312.017 -3.7773 0.113259 0
M  V30 3402 H 312.33 -7.68046 0.855857 0
M  V30 3403 H 310.675 -6.90801 0.762788 0
M  V30 3404 H 313.866 -4.67561 0.224486 0
M  V30 3405 H 314.039 -6.45551 0.562889 0
M  V30 3406 N 307.445 0.0818655 -1.57387 0
M  V30 3407 C 308.395 1.10501 -1.99433 0
M  V30 3408 C 309.379 1.35041 -0.874798 0
M  V30 3409 O 310.571 1.35511 -1.13868 0
M  V30 3410 C 307.7 2.42159 -2.43339 0
M  V30 3411 C 306.786 2.20937 -3.62005 0
M  V30 3412 N 307.177 1.69616 -4.76512 0
M  V30 3413 C 305.475 2.51451 -3.68359 0
M  V30 3414 C 306.176 1.62973 -5.58404 0
M  V30 3415 N 305.152 2.08664 -5.01956 0
M  V30 3416 H 308.954 0.701373 -2.85408 0
M  V30 3417 H 306.468 0.289096 -1.59806 0
M  V30 3418 H 308.465 3.16208 -2.71695 0
M  V30 3419 H 307.125 2.83249 -1.58746 0
M  V30 3420 H 308.136 1.38624 -4.99003 0
M  V30 3421 H 304.813 2.95975 -2.94457 0
M  V30 3422 H 306.203 1.24233 -6.60315 0
M  V30 3423 N 308.923 1.53595 0.353017 0
M  V30 3424 C 309.886 1.80232 1.41594 0
M  V30 3425 C 310.886 0.673081 1.46035 0
M  V30 3426 O 312.076 0.941335 1.46576 0
M  V30 3427 C 309.208 1.93578 2.80607 0
M  V30 3428 H 310.401 2.75174 1.19244 0
M  V30 3429 H 307.954 1.44864 0.586872 0
M  V30 3430 H 308.689 1.00746 3.08254 0
M  V30 3431 H 308.474 2.75724 2.78781 0
M  V30 3432 H 309.964 2.15735 3.57558 0
M  V30 3433 N 310.401 -0.613514 1.45168 0
M  V30 3434 C 311.648 -1.37268 1.48875 0
M  V30 3435 C 311.976 -1.94077 0.128161 0
M  V30 3436 O 311.231 -1.75178 -0.872416 0
M  V30 3437 C 311.53 -2.54347 2.51083 0
M  V30 3438 C 311.196 -2.1572 3.95949 0
M  V30 3439 C 309.858 -2.04899 4.35396 0
M  V30 3440 C 312.21 -1.85485 4.87078 0
M  V30 3441 C 309.538 -1.62057 5.63875 0
M  V30 3442 C 311.89 -1.4413 6.15962 0
M  V30 3443 C 310.554 -1.31863 6.54346 0
M  V30 3444 H 309.824 -0.502299 0.544773 0
M  V30 3445 H 312.471 -0.694021 1.78481 0
M  V30 3446 H 310.776 -3.27524 2.15024 0
M  V30 3447 H 312.473 -3.12577 2.51191 0
M  V30 3448 H 309.063 -2.25066 3.64751 0
M  V30 3449 H 313.247 -1.92745 4.57343 0
M  V30 3450 H 308.503 -1.51177 5.92415 0
M  V30 3451 H 312.677 -1.19778 6.86022 0
M  V30 3452 H 310.304 -0.984392 7.538 0
M  V30 3453 N 311.879 -1.3236 -0.855495 0
M  V30 3454 C 312.809 -1.23833 -1.97958 0
M  V30 3455 C 313.79 -0.122361 -1.69659 0
M  V30 3456 O 314.975 -0.30939 -1.9172 0
M  V30 3457 C 312.105 -0.959772 -3.33775 0
M  V30 3458 C 311.059 -2.03689 -3.76424 0
M  V30 3459 C 310.385 -1.61075 -5.09862 0
M  V30 3460 C 311.685 -3.4518 -3.9198 0
M  V30 3461 H 313.379 -2.1788 -2.0535 0
M  V30 3462 H 310.925 -1.04891 -0.986605 0
M  V30 3463 H 312.878 -0.886678 -4.11966 0
M  V30 3464 H 311.602 0.0163404 -3.26596 0
M  V30 3465 H 310.261 -2.10012 -3.00484 0
M  V30 3466 H 309.909 -0.622107 -4.99138 0
M  V30 3467 H 309.609 -2.33143 -5.39368 0
M  V30 3468 H 311.133 -1.55201 -5.90546 0
M  V30 3469 H 312.547 -3.4145 -4.60526 0
M  V30 3470 H 310.944 -4.1559 -4.32903 0
M  V30 3471 H 312.014 -3.84903 -2.94919 0
M  V30 3472 N 313.357 1.07166 -1.15556 0
M  V30 3473 C 314.307 2.12649 -0.82247 0
M  V30 3474 C 315.291 1.59725 0.194129 0
M  V30 3475 O 316.483 1.76999 -0.00540402 0
M  V30 3476 C 313.612 3.41847 -0.315572 0
M  V30 3477 C 312.698 4.0162 -1.36244 0
M  V30 3478 N 313.089 4.35625 -2.5703 0
M  V30 3479 C 311.387 4.29114 -1.21562 0
M  V30 3480 C 312.088 4.83017 -3.24144 0
M  V30 3481 N 311.064 4.81906 -2.51531 0
M  V30 3482 H 314.866 2.36776 -1.74111 0
M  V30 3483 H 312.38 1.24622 -1.0413 0
M  V30 3484 H 314.377 4.16859 -0.0585855 0
M  V30 3485 H 313.037 3.19163 0.597105 0
M  V30 3486 H 314.048 4.26253 -2.94158 0
M  V30 3487 H 310.725 4.15919 -0.362988 0
M  V30 3488 H 312.115 5.18605 -4.27198 0
M  V30 3489 N 314.835 0.952656 1.25548 0
M  V30 3490 C 316.084 0.602053 1.92505 0
M  V30 3491 C 316.397 -0.864663 1.75451 0
M  V30 3492 O 317.603 -1.32514 2.36965 0
M  V30 3493 C 316.059 1.02607 3.44963 0
M  V30 3494 C 315.667 2.51519 3.70732 0
M  V30 3495 C 317.411 0.747905 4.1786 0
M  V30 3496 C 315.318 2.87732 5.16686 0
M  V30 3497 H 314.248 0.22146 0.720744 0
M  V30 3498 H 316.899 1.15684 1.42441 0
M  V30 3499 H 315.281 0.399712 3.93978 0
M  V30 3500 H 316.455 3.19157 3.32378 0
M  V30 3501 H 314.77 2.76786 3.11092 0
M  V30 3502 H 317.367 0.994647 5.25367 0
M  V30 3503 H 317.71 -0.315629 4.15102 0
M  V30 3504 H 318.243 1.33452 3.74747 0
M  V30 3505 H 314.982 3.93095 5.24554 0
M  V30 3506 H 314.502 2.24765 5.56094 0
M  V30 3507 H 316.181 2.76817 5.84792 0
M  V30 3508 N 316.313 -1.40141 0.720998 0
M  V30 3509 C 317.56 -2.00787 0.262842 0
M  V30 3510 C 317.888 -1.5718 -1.14563 0
M  V30 3511 O 317.143 -0.785391 -1.79249 0
M  V30 3512 C 317.442 -3.56165 0.296892 0
M  V30 3513 C 317.108 -4.19373 1.65641 0
M  V30 3514 C 315.77 -4.36352 2.02855 0
M  V30 3515 C 318.122 -4.54578 2.54968 0
M  V30 3516 C 315.45 -4.8582 3.28931 0
M  V30 3517 C 317.802 -5.05447 3.80402 0
M  V30 3518 C 316.466 -5.20635 4.17726 0
M  V30 3519 H 315.736 -0.734731 0.0961807 0
M  V30 3520 H 318.383 -1.67673 0.925093 0
M  V30 3521 H 316.688 -3.8922 -0.448932 0
M  V30 3522 H 318.385 -4.00929 -0.0755208 0
M  V30 3523 H 314.975 -4.06549 1.35704 0
M  V30 3524 H 319.159 -4.41091 2.27491 0
M  V30 3525 H 314.415 -4.95764 3.57811 0
M  V30 3526 H 318.589 -5.31663 4.49786 0
M  V30 3527 H 316.216 -5.58728 5.15487 0
M  V30 3528 N 317.792 -0.46758 -1.50504 0
M  V30 3529 C 319.069 0.15003 -1.95024 0
M  V30 3530 C 319.449 1.57304 -1.40779 0
M  V30 3531 O 318.797 2.20281 -0.607319 0
M  V30 3532 C 319.007 0.0969324 -3.48865 0
M  V30 3533 C 320.355 0.287565 -4.23625 0
M  V30 3534 O 321.379 0.173678 -3.55776 0
M  V30 3535 O 320.238 0.517186 -5.44047 0
M  V30 3536 H 317.332 0.113582 -0.819163 0
M  V30 3537 H 319.878 -0.52773 -1.61286 0
M  V30 3538 H 318.65 -0.896732 -3.80886 0
M  V30 3539 H 318.273 0.816303 -3.8913 0
M  V30 3540 N 319.27 1.56325 -0.20005 0
M  V30 3541 C 320.686 1.58839 0.155716 0
M  V30 3542 C 320.886 1.21636 1.60645 0
M  V30 3543 O 319.942 0.941437 2.34293 0
M  V30 3544 C 321.255 3.0032 -0.151124 0
M  V30 3545 C 322.803 3.12866 -0.0916284 0
M  V30 3546 C 323.278 4.56488 -0.371845 0
M  V30 3547 N 324.769 4.62089 -0.320641 0
M  V30 3548 C 325.504 5.71116 -0.511243 0
M  V30 3549 N 325 6.88592 -0.762461 0
M  V30 3550 N 326.793 5.60335 -0.445157 0
M  V30 3551 H 318.944 1.78788 -1.14668 0
M  V30 3552 H 321.207 0.829996 -0.458051 0
M  V30 3553 H 320.913 3.32117 -1.15721 0
M  V30 3554 H 320.787 3.73257 0.543986 0
M  V30 3555 H 323.174 2.80878 0.905065 0
M  V30 3556 H 323.255 2.42304 -0.81989 0
M  V30 3557 H 322.899 4.89189 -1.36588 0
M  V30 3558 H 322.829 5.25246 0.377362 0
M  V30 3559 H 325.32 3.77665 -0.13329 0
M  V30 3560 H 325.633 7.67581 -0.896576 0
M  V30 3561 H 323.978 6.90387 -0.799412 0
M  V30 3562 H 327.169 4.67436 -0.249278 0
M  V30 3563 H 327.342 6.45243 -0.597116 0
M  V30 3564 N 320.748 -0.0735177 1.57428 0
M  V30 3565 C 321.994 -0.774145 1.87443 0
M  V30 3566 C 322.327 -1.77311 0.792103 0
M  V30 3567 O 321.602 -1.93492 -0.197793 0
M  V30 3568 C 321.885 -1.48367 3.28115 0
M  V30 3569 C 321.738 -0.501227 4.46999 0
M  V30 3570 C 323.057 -2.429 3.66998 0
M  V30 3571 H 320.176 -0.279971 0.681752 0
M  V30 3572 H 322.818 -0.0373616 1.89963 0
M  V30 3573 H 320.968 -2.11171 3.26097 0
M  V30 3574 H 322.64 0.121468 4.6114 0
M  V30 3575 H 320.883 0.183593 4.33411 0
M  V30 3576 H 321.554 -1.03526 5.42205 0
M  V30 3577 H 324.03 -1.90175 3.70098 0
M  V30 3578 H 322.906 -2.89549 4.66318 0
M  V30 3579 H 323.167 -3.27628 2.96837 0
M  V30 3580 N 322.226 -1.5378 -0.344866 0
M  V30 3581 C 323.466 -1.72677 -1.09371 0
M  V30 3582 C 323.83 -0.479084 -1.85927 0
M  V30 3583 O 325.031 -0.54505 -2.63216 0
M  V30 3584 C 323.302 -2.95457 -2.01097 0
M  V30 3585 S 324.861 -3.35158 -2.83222 0
M  V30 3586 H 321.679 -0.607402 -0.369573 0
M  V30 3587 H 324.281 -1.91922 -0.372307 0
M  V30 3588 H 322.985 -3.84437 -1.43655 0
M  V30 3589 H 322.516 -2.78673 -2.77678 0
M  V30 3590 H 324.531 -2.88789 -4.03504 0
M  V30 3591 N 323.704 0.605807 -1.45491 0
M  V30 3592 C 324.634 1.72709 -1.57143 0
M  V30 3593 C 325.615 1.6476 -0.422884 0
M  V30 3594 O 326.8 1.83132 -0.646247 0
M  V30 3595 C 323.93 3.11316 -1.53948 0
M  V30 3596 C 322.884 3.34077 -2.67537 0
M  V30 3597 C 322.21 4.72975 -2.49397 0
M  V30 3598 C 323.51 3.24158 -4.09535 0
M  V30 3599 H 325.204 1.63214 -2.51001 0
M  V30 3600 H 322.75 0.78379 -1.208 0
M  V30 3601 H 324.703 3.89557 -1.60696 0
M  V30 3602 H 323.427 3.21655 -0.566205 0
M  V30 3603 H 322.086 2.58227 -2.6022 0
M  V30 3604 H 321.734 4.8005 -1.50205 0
M  V30 3605 H 321.434 4.8916 -3.25571 0
M  V30 3606 H 322.958 5.53414 -2.58002 0
M  V30 3607 H 324.372 3.92271 -4.18086 0
M  V30 3608 H 322.769 3.51872 -4.86113 0
M  V30 3609 H 323.839 2.2157 -4.31317 0
M  V30 3610 N 325.182 1.32811 0.848464 0
M  V30 3611 C 326.092 1.24278 1.98978 0
M  V30 3612 C 327.108 0.155176 1.73307 0
M  V30 3613 O 328.284 0.376999 1.9784 0
M  V30 3614 C 325.349 0.972444 3.32783 0
M  V30 3615 C 324.41 2.14911 3.71634 0
M  V30 3616 C 323.643 1.89157 4.99054 0
M  V30 3617 O 323.866 0.837165 5.64223 0
M  V30 3618 O 322.8 2.75433 5.35183 0
M  V30 3619 H 326.626 2.20238 2.09115 0
M  V30 3620 H 324.211 1.12762 0.980052 0
M  V30 3621 H 326.093 0.838432 4.12975 0
M  V30 3622 H 324.768 0.043051 3.23671 0
M  V30 3623 H 323.675 2.33862 2.91992 0
M  V30 3624 H 325.008 3.06151 3.85399 0
M  V30 3625 N 326.66 -1.06551 1.16123 0
M  V30 3626 C 327.608 -2.16063 0.861371 0
M  V30 3627 C 328.602 -1.6856 -0.168517 0
M  V30 3628 O 329.808 -1.79986 -0.0227579 0
M  V30 3629 H 326.183 -0.705278 0.260934 0
M  V30 3630 H 328.154 -2.38567 1.79244 0
M  V30 3631 C 326.903 -3.45661 0.376018 0
M  V30 3632 H 326.226 -3.82604 1.15992 0
M  V30 3633 H 327.666 -4.23504 0.204951 0
M  V30 3634 C 326.125 -3.24546 -0.903954 0
M  V30 3635 O 326.655 -3.49865 -1.97377 0
M  V30 3636 N 324.861 -2.77992 -0.846679 0
M  V30 3637 H 324.408 -2.57589 0.0241017 0
M  V30 3638 H 324.366 -2.64244 -1.70359 0
M  V30 3639 N 328.138 -0.959301 -1.25041 0
M  V30 3640 C 329.386 -0.615393 -1.92503 0
M  V30 3641 C 329.707 0.850969 -1.75452 0
M  V30 3642 O 328.977 1.60658 -1.12098 0
M  V30 3643 H 327.557 -0.224613 -0.712431 0
M  V30 3644 H 330.219 -1.21855 -1.5211 0
M  V30 3645 H 329.315 -0.848738 -3.00338 0
M  V30 3646 N 329.616 1.39756 -0.72842 0
M  V30 3647 C 330.844 2.04948 -0.283528 0
M  V30 3648 C 331.259 1.54908 1.0793 0
M  V30 3649 O 330.616 0.711135 1.68075 0
M  V30 3650 C 330.667 3.60498 -0.268957 0
M  V30 3651 O 330.388 4.08695 -1.57798 0
M  V30 3652 C 331.889 4.4288 0.192912 0
M  V30 3653 H 329.109 0.659243 -0.125056 0
M  V30 3654 H 331.653 1.78927 -0.990226 0
M  V30 3655 H 329.808 3.85444 0.388801 0
M  V30 3656 H 330.222 5.02977 -1.48709 0
M  V30 3657 H 331.696 5.51791 0.151952 0
M  V30 3658 H 332.173 4.21418 1.23708 0
M  V30 3659 H 332.779 4.23069 -0.435039 0
M  V30 3660 N 331.094 0.475555 1.50254 0
M  V30 3661 C 332.004 -0.321501 2.32387 0
M  V30 3662 C 333.02 -0.991755 1.42969 0
M  V30 3663 O 334.196 -0.978747 1.76018 0
M  V30 3664 C 331.261 -1.38667 3.17762 0
M  V30 3665 C 330.322 -0.732538 4.23004 0
M  V30 3666 C 329.555 -1.74695 5.04299 0
M  V30 3667 O 329.778 -2.97399 4.86734 0
M  V30 3668 O 328.712 -1.31631 5.8733 0
M  V30 3669 H 332.538 0.350071 3.01676 0
M  V30 3670 H 330.123 0.237321 1.47503 0
M  V30 3671 H 332.005 -2.00354 3.70724 0
M  V30 3672 H 330.68 -2.04163 2.51196 0
M  V30 3673 H 329.587 -0.0765902 3.74022 0
M  V30 3674 H 330.92 -0.120452 4.92053 0
M  V30 3675 N 332.573 -1.56217 0.208337 0
M  V30 3676 C 333.523 -2.16324 -0.720281 0
M  V30 3677 C 334.507 -1.10775 -1.16695 0
M  V30 3678 O 335.699 -1.36801 -1.12314 0
M  V30 3679 C 332.828 -2.83644 -1.93393 0
M  V30 3680 C 331.914 -3.96401 -1.50755 0
M  V30 3681 N 332.305 -4.99546 -0.792937 0
M  V30 3682 C 330.603 -4.08246 -1.79585 0
M  V30 3683 C 331.304 -5.78828 -0.577364 0
M  V30 3684 N 330.28 -5.31723 -1.1301 0
M  V30 3685 H 334.082 -2.93432 -0.165725 0
M  V30 3686 H 331.596 -1.62397 0.00906463 0
M  V30 3687 H 333.593 -3.25107 -2.60981 0
M  V30 3688 H 332.253 -2.08027 -2.49308 0
M  V30 3689 H 333.264 -5.15967 -0.447004 0
M  V30 3690 H 329.941 -3.4377 -2.36915 0
M  V30 3691 H 331.331 -6.71899 -0.00952956 0
M  V30 3692 N 334.051 0.0651679 -1.57465 0
M  V30 3693 C 335.467 0.420105 -1.53972 0
M  V30 3694 C 335.667 1.78782 -0.929474 0
M  V30 3695 O 334.723 2.46771 -0.534839 0
M  V30 3696 C 336.036 0.355084 -2.98596 0
M  V30 3697 C 337.584 0.434792 -3.09965 0
M  V30 3698 C 338.059 0.399609 -4.56253 0
M  V30 3699 N 339.55 0.459488 -4.60915 0
M  V30 3700 C 340.285 0.454584 -5.71595 0
M  V30 3701 N 339.781 0.404102 -6.9162 0
M  V30 3702 N 341.574 0.501635 -5.59857 0
M  V30 3703 H 333.725 -0.830328 -1.95498 0
M  V30 3704 H 335.988 -0.312244 -0.895102 0
M  V30 3705 H 335.694 -0.583357 -3.46828 0
M  V30 3706 H 335.568 1.16275 -3.58831 0
M  V30 3707 H 337.955 1.36366 -2.61703 0
M  V30 3708 H 338.036 -0.40157 -2.52628 0
M  V30 3709 H 337.68 -0.525436 -5.05175 0
M  V30 3710 H 337.61 1.25359 -5.11461 0
M  V30 3711 H 340.101 0.502482 -3.74544 0
M  V30 3712 H 340.414 0.404468 -7.71741 0
M  V30 3713 H 338.759 0.37069 -6.94011 0
M  V30 3714 H 341.95 0.538812 -4.64989 0
M  V30 3715 H 342.123 0.494345 -6.46112 0
M  V30 3716 N 335.529 1.53961 0.336706 0
M  V30 3717 C 336.459 1.85417 1.41925 0
M  V30 3718 C 337.44 0.709856 1.5458 0
M  V30 3719 O 338.625 0.962396 1.68676 0
M  V30 3720 C 335.755 2.06985 2.78881 0
M  V30 3721 C 334.709 3.22813 2.81026 0
M  V30 3722 C 334.035 3.29727 4.20932 0
M  V30 3723 C 335.335 4.60767 2.45949 0
M  V30 3724 H 337.029 2.76079 1.15848 0
M  V30 3725 H 334.575 1.32839 0.555859 0
M  V30 3726 H 336.528 2.27575 3.54665 0
M  V30 3727 H 335.252 1.13061 3.06406 0
M  V30 3728 H 333.911 3.0209 2.07695 0
M  V30 3729 H 333.559 2.33385 4.45579 0
M  V30 3730 H 333.259 4.07566 4.23277 0
M  V30 3731 H 334.783 3.52536 4.98549 0
M  V30 3732 H 336.197 4.81325 3.11446 0
M  V30 3733 H 334.594 5.4106 2.59566 0
M  V30 3734 H 335.664 4.6391 1.41122 0
M  V30 3735 N 337.007 -0.598083 1.45811 0
M  V30 3736 C 338.235 -1.38322 1.53866 0
M  V30 3737 C 338.65 -1.87992 0.174479 0
M  V30 3738 O 338.007 -1.62756 -0.825627 0
M  V30 3739 C 338.058 -2.58125 2.53089 0
M  V30 3740 O 337.779 -2.10516 3.84206 0
M  V30 3741 C 339.28 -3.50869 2.70935 0
M  V30 3742 H 336.5 -0.423093 0.520801 0
M  V30 3743 H 339.044 -0.728527 1.91083 0
M  V30 3744 H 337.199 -3.19615 2.18917 0
M  V30 3745 H 337.613 -2.88425 4.38077 0
M  V30 3746 H 339.087 -4.31451 3.44317 0
M  V30 3747 H 339.564 -4.01822 1.77301 0
M  V30 3748 H 340.17 -2.95225 3.06141 0
M  V30 3749 N 338.485 -1.33259 -0.841409 0
M  V30 3750 C 339.417 -1.19136 -1.95804 0
M  V30 3751 C 340.43 -0.122965 -1.62335 0
M  V30 3752 O 341.619 -0.373154 -1.74556 0
M  V30 3753 C 338.719 -0.804268 -3.29218 0
M  V30 3754 C 337.892 -1.96376 -3.90839 0
M  V30 3755 C 336.951 -1.55806 -5.02604 0
M  V30 3756 O 335.977 -2.27203 -5.21888 0
M  V30 3757 N 337.179 -0.461609 -5.78662 0
M  V30 3758 H 339.944 -2.15326 -2.08458 0
M  V30 3759 H 337.505 -1.25971 -1.017 0
M  V30 3760 H 339.497 -0.51501 -4.0141 0
M  V30 3761 H 338.067 0.0668809 -3.12528 0
M  V30 3762 H 337.287 -2.41879 -3.11269 0
M  V30 3763 H 338.575 -2.73966 -4.28742 0
M  V30 3764 H 337.973 0.132343 -5.65545 0
M  V30 3765 H 336.53 -0.232013 -6.51387 0
M  V30 3766 N 339.963 1.05934 -1.16686 0
M  V30 3767 C 341.374 1.60263 -0.957745 0
M  V30 3768 C 341.725 1.89789 0.49745 0
M  V30 3769 O 340.85 1.67401 1.37135 0
M  V30 3770 C 341.445 2.91172 -1.73218 0
M  V30 3771 C 340.004 3.42188 -1.56794 0
M  V30 3772 C 339.151 2.16028 -1.73859 0
M  V30 3773 H 342.102 0.888392 -1.31504 0
M  V30 3774 H 342.123 3.60744 -1.21014 0
M  V30 3775 H 341.635 2.6965 -2.79124 0
M  V30 3776 H 339.736 3.68762 -0.533437 0
M  V30 3777 H 339.849 4.17273 -2.35414 0
M  V30 3778 H 338.213 2.26426 -1.16633 0
M  V30 3779 H 338.996 1.96985 -2.81161 0
M  V30 3780 N 341.441 0.965919 1.2453 0
M  V30 3781 C 342.389 0.486506 2.27455 0
M  V30 3782 C 343.383 -0.449041 1.6334 0
M  V30 3783 O 344.589 -0.324527 1.7705 0
M  V30 3784 H 340.964 0.138857 0.739069 0
M  V30 3785 H 342.935 1.3666 2.65267 0
M  V30 3786 C 341.684 -0.209481 3.47068 0
M  V30 3787 H 341.007 0.50129 3.96645 0
M  V30 3788 H 342.447 -0.508775 4.20936 0
M  V30 3789 C 340.906 -1.43586 3.0477 0
M  V30 3790 O 341.436 -2.53299 3.11773 0
M  V30 3791 N 339.642 -1.30126 2.59838 0
M  V30 3792 H 339.189 -0.408583 2.54339 0
M  V30 3793 H 339.147 -2.12294 2.31902 0
M  V30 3794 N 342.919 -1.39368 0.735821 0
M  V30 3795 C 343.869 -2.27885 0.0724287 0
M  V30 3796 C 344.853 -1.44301 -0.711756 0
M  V30 3797 O 346.045 -1.67206 -0.58063 0
M  V30 3798 C 343.174 -3.33029 -0.833454 0
M  V30 3799 C 342.26 -4.24078 -0.0433749 0
M  V30 3800 N 342.651 -4.96138 0.983903 0
M  V30 3801 C 340.949 -4.45164 -0.272905 0
M  V30 3802 C 341.65 -5.63069 1.4604 0
M  V30 3803 N 340.626 -5.37991 0.778857 0
M  V30 3804 H 344.428 -2.81052 0.859467 0
M  V30 3805 H 341.942 -1.5206 0.570227 0
M  V30 3806 H 343.939 -3.95311 -1.32419 0
M  V30 3807 H 342.599 -2.81421 -1.61964 0
M  V30 3808 H 343.61 -4.9958 1.36528 0
M  V30 3809 H 340.287 -4.04497 -1.03383 0
M  V30 3810 H 341.677 -6.30755 2.31511 0
M  V30 3811 N 344.397 -0.483516 -1.5 0
M  V30 3812 C 345.808 -0.0314176 -1.86674 0
M  V30 3813 C 346.159 1.37728 -1.39733 0
M  V30 3814 O 345.284 2.02327 -0.767635 0
M  V30 3815 C 345.879 -0.0502376 -3.38763 0
M  V30 3816 C 344.438 0.346442 -3.74802 0
M  V30 3817 C 343.585 -0.430366 -2.7394 0
M  V30 3818 H 346.536 -0.697182 -1.42566 0
M  V30 3819 H 346.557 0.749116 -3.73053 0
M  V30 3820 H 346.069 -1.07563 -3.72897 0
M  V30 3821 H 344.17 1.37572 -3.46273 0
M  V30 3822 H 344.283 0.0391486 -4.79084 0
M  V30 3823 H 342.647 0.117557 -2.54429 0
M  V30 3824 H 343.43 -1.4555 -3.10918 0
M  V30 3825 N 345.875 1.56104 -0.216619 0
M  V30 3826 C 347.121 1.99219 0.410301 0
M  V30 3827 C 347.476 1.10169 1.57735 0
M  V30 3828 O 346.769 0.150598 1.91007 0
M  V30 3829 C 346.963 3.45923 0.898464 0
M  V30 3830 C 346.792 4.49163 -0.219748 0
M  V30 3831 C 345.562 5.00642 -0.684516 0
M  V30 3832 C 347.76 5.03751 -1.03629 0
M  V30 3833 N 345.742 5.87579 -1.7783 0
M  V30 3834 C 347.113 5.87566 -1.97904 0
M  V30 3835 C 349.168 4.86128 -1.07629 0
M  V30 3836 C 347.871 6.5564 -2.95851 0
M  V30 3837 C 349.897 5.54958 -2.04392 0
M  V30 3838 C 349.259 6.38536 -2.97407 0
M  V30 3839 H 345.358 0.773206 0.11695 0
M  V30 3840 H 347.942 1.9193 -0.327258 0
M  V30 3841 H 346.113 3.53669 1.6054 0
M  V30 3842 H 347.845 3.75963 1.49779 0
M  V30 3843 H 344.6 4.72807 -0.27399 0
M  V30 3844 H 345.024 6.3575 -2.32705 0
M  V30 3845 H 349.666 4.21168 -0.371099 0
M  V30 3846 H 347.384 7.19785 -3.67335 0
M  V30 3847 H 350.97 5.43289 -2.08154 0
M  V30 3848 H 349.85 6.90858 -3.71059 0
M  V30 3849 N 347.353 -0.0568162 1.57498 0
M  V30 3850 C 348.581 -0.765626 1.92213 0
M  V30 3851 C 348.996 -1.70353 0.813961 0
M  V30 3852 O 348.353 -1.81268 -0.211701 0
M  V30 3853 C 348.404 -1.5465 3.2675 0
M  V30 3854 O 348.125 -0.646278 4.33307 0
M  V30 3855 C 349.626 -2.35497 3.75574 0
M  V30 3856 H 346.846 -0.216835 0.634999 0
M  V30 3857 H 349.39 -0.0226146 2.04487 0
M  V30 3858 H 347.545 -2.24165 3.15957 0
M  V30 3859 H 347.959 -1.19093 5.108 0
M  V30 3860 H 349.433 -2.85722 4.72299 0
M  V30 3861 H 349.91 -3.15692 3.05344 0
M  V30 3862 H 350.516 -1.7111 3.8936 0
M  V30 3863 N 348.832 -1.54138 -0.328536 0
M  V30 3864 C 349.78 -1.83894 -1.42428 0
M  V30 3865 C 350.774 -0.710478 -1.53781 0
M  V30 3866 O 351.98 -0.894062 -1.56226 0
M  V30 3867 H 348.355 -0.582837 -0.475189 0
M  V30 3868 H 350.326 -2.75537 -1.14552 0
M  V30 3869 C 349.075 -2.07866 -2.78724 0
M  V30 3870 H 348.398 -2.94158 -2.7076 0
M  V30 3871 H 349.838 -2.32644 -3.54476 0
M  V30 3872 C 348.297 -0.868689 -3.25508 0
M  V30 3873 O 348.827 -0.0754908 -4.01629 0
M  V30 3874 N 347.033 -0.681711 -2.82491 0
M  V30 3875 H 346.58 -1.32838 -2.20708 0
M  V30 3876 H 346.538 0.126374 -3.14146 0
M  V30 3877 N 350.31 0.590341 -1.46126 0
M  V30 3878 C 351.558 1.34616 -1.50742 0
M  V30 3879 C 351.879 1.94363 -0.157486 0
M  V30 3880 O 351.149 1.78136 0.815136 0
M  V30 3881 H 349.729 0.499789 -0.555175 0
M  V30 3882 H 352.391 0.691953 -1.82203 0
M  V30 3883 H 351.487 2.15678 -2.25587 0
M  V30 3884 N 351.788 1.33704 0.83433 0
M  V30 3885 C 352.72 1.20172 1.9517 0
M  V30 3886 C 353.733 0.131572 1.62267 0
M  V30 3887 O 354.922 0.382406 1.74356 0
M  V30 3888 C 352.022 0.821716 3.28787 0
M  V30 3889 C 351.195 1.98446 3.89792 0
M  V30 3890 C 350.254 1.58469 5.01771 0
M  V30 3891 O 349.28 2.29968 5.20676 0
M  V30 3892 N 350.482 0.492291 5.78409 0
M  V30 3893 H 353.247 2.16429 2.07313 0
M  V30 3894 H 350.808 1.26509 1.0103 0
M  V30 3895 H 352.8 0.536291 4.01131 0
M  V30 3896 H 351.37 -0.0503058 3.1256 0
M  V30 3897 H 350.59 2.43526 3.09982 0
M  V30 3898 H 351.878 2.76236 4.27283 0
M  V30 3899 H 351.276 -0.102349 5.65607 0
M  V30 3900 H 349.833 0.266555 6.51255 0
M  V30 3901 N 353.266 -1.05314 1.17247 0
M  V30 3902 C 354.512 -1.78557 0.961513 0
M  V30 3903 C 354.845 -1.87419 -0.508697 0
M  V30 3904 O 354.12 -1.37307 -1.37757 0
M  V30 3905 C 354.403 -3.22514 1.60176 0
M  V30 3906 C 354.256 -3.21673 3.14399 0
M  V30 3907 C 355.575 -4.20318 1.30463 0
M  V30 3908 H 352.694 -0.6482 0.350723 0
M  V30 3909 H 355.336 -1.23102 1.44727 0
M  V30 3910 H 353.486 -3.69867 1.18871 0
M  V30 3911 H 355.158 -2.82405 3.64753 0
M  V30 3912 H 353.401 -2.60048 3.47214 0
M  V30 3913 H 354.072 -4.23271 3.54324 0
M  V30 3914 H 356.548 -3.81454 1.66229 0
M  V30 3915 H 355.424 -5.19289 1.77848 0
M  V30 3916 H 355.685 -4.41526 0.22521 0
M  V30 3917 N 354.744 -0.972509 -1.24016 0
M  V30 3918 C 355.654 -0.5143 -2.28893 0
M  V30 3919 C 356.67 0.427078 -1.68677 0
M  V30 3920 O 357.846 0.298939 -1.99169 0
M  V30 3921 C 354.911 0.183598 -3.46214 0
M  V30 3922 C 353.972 -0.798202 -4.21814 0
M  V30 3923 C 353.205 -0.133514 -5.33533 0
M  V30 3924 O 353.428 1.07714 -5.60137 0
M  V30 3925 O 352.362 -0.828103 -5.96176 0
M  V30 3926 H 356.188 -1.38629 -2.70214 0
M  V30 3927 H 353.773 -0.739769 -1.29799 0
M  V30 3928 H 355.655 0.575433 -4.17453 0
M  V30 3929 H 354.33 1.03048 -3.0686 0
M  V30 3930 H 353.237 -1.24059 -3.52931 0
M  V30 3931 H 354.57 -1.61364 -4.64997 0
M  V30 3932 N 356.222 1.38976 -0.743202 0
M  V30 3933 C 357.638 1.53984 -0.419664 0
M  V30 3934 C 357.838 1.70837 1.0685 0
M  V30 3935 O 356.894 1.7135 1.8546 0
M  V30 3936 C 358.207 2.75287 -1.20985 0
M  V30 3937 C 359.755 2.89129 -1.19889 0
M  V30 3938 C 360.23 4.13381 -1.97181 0
M  V30 3939 N 361.721 4.20437 -1.94389 0
M  V30 3940 C 362.456 5.15547 -2.50996 0
M  V30 3941 N 361.952 6.16395 -3.16274 0
M  V30 3942 N 363.745 5.07822 -2.40984 0
M  V30 3943 H 355.896 1.26285 -1.7078 0
M  V30 3944 H 358.159 0.612689 -0.723406 0
M  V30 3945 H 357.865 2.69204 -2.26323 0
M  V30 3946 H 357.739 3.68184 -0.819759 0
M  V30 3947 H 360.126 2.947 -0.153606 0
M  V30 3948 H 360.207 1.97272 -1.62841 0
M  V30 3949 H 359.851 4.08572 -3.01714 0
M  V30 3950 H 359.781 5.04298 -1.51629 0
M  V30 3951 H 362.272 3.48205 -1.46839 0
M  V30 3952 H 362.585 6.85443 -3.56915 0
M  V30 3953 H 360.93 6.16758 -3.20367 0
M  V30 3954 H 364.121 4.27973 -1.89622 0
M  V30 3955 H 364.294 5.81767 -2.85397 0
M  V30 3956 N 357.7 0.491464 1.49741 0
M  V30 3957 C 358.633 -0.338464 2.25676 0
M  V30 3958 C 359.611 -0.978676 1.29849 0
M  V30 3959 O 360.795 -1.01064 1.59117 0
M  V30 3960 C 357.922 -1.47588 3.04853 0
M  V30 3961 C 356.968 -0.951 4.15762 0
M  V30 3962 S 357.801 0.150626 5.35288 0
M  V30 3963 C 358.957 -0.990178 6.18018 0
M  V30 3964 H 359.19 0.306068 2.9572 0
M  V30 3965 H 356.723 0.276622 1.51902 0
M  V30 3966 H 358.681 -2.12764 3.51058 0
M  V30 3967 H 357.342 -2.09199 2.34296 0
M  V30 3968 H 356.535 -1.80311 4.70642 0
M  V30 3969 H 356.137 -0.376607 3.72099 0
M  V30 3970 H 358.429 -1.89748 6.50386 0
M  V30 3971 H 359.372 -0.480205 7.0647 0
M  V30 3972 H 359.78 -1.25321 5.50413 0
M  V30 3973 N 359.178 -1.55987 0.224894 0
M  V30 3974 C 360.126 -2.21808 -0.700283 0
M  V30 3975 C 361.12 -1.19854 -1.19714 0
M  V30 3976 O 362.326 -1.37925 -1.15658 0
M  V30 3977 H 358.701 -0.711226 -0.244258 0
M  V30 3978 H 360.672 -2.98152 -0.121749 0
M  V30 3979 C 359.421 -2.91444 -1.8962 0
M  V30 3980 H 358.744 -3.69655 -1.52299 0
M  V30 3981 H 360.184 -3.40894 -2.52125 0
M  V30 3982 C 358.643 -1.94098 -2.75368 0
M  V30 3983 O 359.173 -1.46004 -3.74227 0
M  V30 3984 N 357.379 -1.61675 -2.41474 0
M  V30 3985 H 356.926 -2.00979 -1.61137 0
M  V30 3986 H 356.884 -0.968036 -2.99126 0
M  V30 3987 N 360.656 0.0484629 -1.57525 0
M  V30 3988 C 362.072 0.40375 -1.54409 0
M  V30 3989 C 362.272 1.77786 -0.948384 0
M  V30 3990 O 361.328 2.46189 -0.560983 0
M  V30 3991 C 362.641 0.323394 -2.98956 0
M  V30 3992 C 364.189 0.401892 -3.10409 0
M  V30 3993 C 364.664 0.351195 -4.56652 0
M  V30 3994 N 366.155 0.410576 -4.61377 0
M  V30 3995 C 366.89 0.393933 -5.72045 0
M  V30 3996 N 366.386 0.330724 -6.9201 0
M  V30 3997 N 368.179 0.442227 -5.60358 0
M  V30 3998 H 360.33 -0.851016 -1.94606 0
M  V30 3999 H 362.593 -0.321721 -0.89174 0
M  V30 4000 H 362.299 -0.62011 -3.4619 0
M  V30 4001 H 362.173 1.12463 -3.60044 0
M  V30 4002 H 364.56 1.33582 -2.63134 0
M  V30 4003 H 364.641 -0.428342 -2.52188 0
M  V30 4004 H 364.285 -0.578987 -5.04589 0
M  V30 4005 H 364.215 1.19928 -5.12762 0
M  V30 4006 H 366.706 0.462729 -3.75056 0
M  V30 4007 H 367.019 0.322592 -7.72126 0
M  V30 4008 H 365.364 0.29706 -6.94365 0
M  V30 4009 H 368.555 0.489464 -4.65534 0
M  V30 4010 H 368.728 0.425788 -6.466 0
M  V30 4011 N 362.134 1.5431 0.320358 0
M  V30 4012 C 363.362 1.76636 1.07738 0
M  V30 4013 C 363.777 0.51649 1.81598 0
M  V30 4014 O 363.134 -0.512942 1.75143 0
M  V30 4015 C 363.185 2.96158 2.07299 0
M  V30 4016 O 362.906 4.16313 1.36438 0
M  V30 4017 C 364.407 3.3072 2.95193 0
M  V30 4018 H 361.627 0.589597 0.320339 0
M  V30 4019 H 364.171 2.01207 0.36551 0
M  V30 4020 H 362.326 2.73851 2.74016 0
M  V30 4021 H 362.74 4.83565 2.03138 0
M  V30 4022 H 364.214 4.17643 3.60941 0
M  V30 4023 H 364.691 2.48026 3.62463 0
M  V30 4024 H 365.297 3.55117 2.34034 0
M  V30 4025 N 363.613 -0.582584 1.46437 0
M  V30 4026 C 364.543 -1.70187 1.59871 0
M  V30 4027 C 365.524 -1.64066 0.449042 0
M  V30 4028 O 366.709 -1.82081 0.6753 0
M  V30 4029 C 363.839 -3.08827 1.58881 0
M  V30 4030 C 362.793 -3.29779 2.72819 0
M  V30 4031 C 362.119 -4.68947 2.5689 0
M  V30 4032 C 363.419 -3.17601 4.1464 0
M  V30 4033 H 365.113 -1.592 2.53566 0
M  V30 4034 H 362.659 -0.764472 1.22032 0
M  V30 4035 H 364.612 -3.86951 1.66873 0
M  V30 4036 H 363.336 -3.20713 0.617306 0
M  V30 4037 H 361.995 -2.54054 2.64296 0
M  V30 4038 H 361.643 -4.77599 1.57823 0
M  V30 4039 H 361.343 -4.83919 3.33312 0
M  V30 4040 H 362.867 -5.4924 2.66773 0
M  V30 4041 H 364.281 -3.8557 4.24274 0
M  V30 4042 H 362.678 -3.44094 4.9165 0
M  V30 4043 H 363.748 -2.14681 4.34788 0
M  V30 4044 N 365.091 -1.34144 -0.827227 0
M  V30 4045 C 366.038 -1.25364 -1.93785 0
M  V30 4046 C 367.008 -0.129774 -1.65592 0
M  V30 4047 O 368.193 -0.310024 -1.88264 0
M  V30 4048 C 365.333 -1.01064 -3.2997 0
M  V30 4049 C 364.446 -2.22185 -3.70484 0
M  V30 4050 C 363.581 -1.91203 -4.95595 0
M  V30 4051 C 362.62 -3.08491 -5.28677 0
M  V30 4052 N 361.757 -2.77421 -6.44967 0
M  V30 4053 H 366.597 -2.20347 -2.00627 0
M  V30 4054 H 364.134 -1.09558 -0.981608 0
M  V30 4055 H 366.092 -0.850139 -4.08446 0
M  V30 4056 H 364.722 -0.0975026 -3.22653 0
M  V30 4057 H 363.774 -2.4917 -2.87434 0
M  V30 4058 H 365.086 -3.0983 -3.90905 0
M  V30 4059 H 364.24 -1.71864 -5.81848 0
M  V30 4060 H 362.979 -1.00812 -4.77167 0
M  V30 4061 H 361.984 -3.28431 -4.40923 0
M  V30 4062 H 363.209 -3.99655 -5.49047 0
M  V30 4063 H 361.155 -1.89601 -6.28003 0
M  V30 4064 H 361.072 -3.58598 -6.6554 0
M  V30 4065 H 362.34 -2.61577 -7.34301 0
M  V30 4066 N 366.569 1.04691 -1.17803 0
M  V30 4067 C 367.479 2.16057 -0.914151 0
M  V30 4068 C 368.495 1.73589 0.119503 0
M  V30 4069 O 369.671 2.01308 -0.0609468 0
M  V30 4070 C 366.736 3.4394 -0.436603 0
M  V30 4071 C 365.797 4.00825 -1.53746 0
M  V30 4072 C 365.03 5.22604 -1.0826 0
M  V30 4073 O 365.253 5.70367 0.0612244 0
M  V30 4074 O 364.187 5.7186 -1.87775 0
M  V30 4075 H 368.013 2.41169 -1.84584 0
M  V30 4076 H 365.598 1.1453 -0.959334 0
M  V30 4077 H 367.48 4.21024 -0.178057 0
M  V30 4078 H 366.155 3.20316 0.466869 0
M  V30 4079 H 365.062 3.25158 -1.84995 0
M  V30 4080 H 366.395 4.28778 -2.41683 0
M  V30 4081 N 368.047 0.979072 1.23499 0
M  V30 4082 C 369.01 0.523244 2.23147 0
M  V30 4083 C 370.01 -0.386406 1.56088 0
M  V30 4084 O 371.2 -0.180283 1.73265 0
M  V30 4085 C 368.332 -0.240739 3.40049 0
M  V30 4086 H 369.525 1.40432 2.64989 0
M  V30 4087 H 367.078 0.764824 1.36309 0
M  V30 4088 H 367.813 -1.13841 3.03662 0
M  V30 4089 H 367.598 0.412207 3.89927 0
M  V30 4090 H 369.088 -0.548297 4.13985 0
M  V30 4091 N 369.525 -1.3858 0.750561 0
M  V30 4092 C 370.753 -2.04471 0.316098 0
M  V30 4093 C 371.168 -1.56606 -1.05452 0
M  V30 4094 O 370.525 -0.737784 -1.66922 0
M  V30 4095 C 370.576 -3.60025 0.326275 0
M  V30 4096 O 370.297 -4.06133 1.6428 0
M  V30 4097 C 371.798 -4.43131 -0.122429 0
M  V30 4098 H 369.018 -0.65717 0.135528 0
M  V30 4099 H 371.562 -1.77329 1.01857 0
M  V30 4100 H 369.717 -3.86014 -0.327431 0
M  V30 4101 H 370.131 -5.00547 1.56693 0
M  V30 4102 H 371.605 -5.51963 -0.0641473 0
M  V30 4103 H 372.082 -4.23333 -1.16988 0
M  V30 4104 H 372.688 -4.22323 0.50229 0
M  V30 4105 N 371.003 -0.499398 -1.49478 0
M  V30 4106 C 372.249 0.0457576 -2.02748 0
M  V30 4107 C 372.582 1.36793 -1.37846 0
M  V30 4108 O 371.857 1.87596 -0.513601 0
M  V30 4109 C 372.14 0.199986 -3.59544 0
M  V30 4110 C 371.993 -1.1452 -4.34977 0
M  V30 4111 C 373.312 0.94137 -4.29914 0
M  V30 4112 H 370.431 0.0151552 -0.736844 0
M  V30 4113 H 373.073 -0.650498 -1.78518 0
M  V30 4114 H 371.223 0.793007 -3.8032 0
M  V30 4115 H 372.895 -1.77697 -4.25701 0
M  V30 4116 H 371.138 -1.73488 -3.97598 0
M  V30 4117 H 371.809 -0.990607 -5.43039 0
M  V30 4118 H 374.285 0.43844 -4.13784 0
M  V30 4119 H 373.161 1.01812 -5.39375 0
M  V30 4120 H 373.422 1.98471 -3.95046 0
M  V30 4121 N 372.481 1.55866 -0.233164 0
M  V30 4122 C 373.428 2.20796 0.67215 0
M  V30 4123 C 374.398 1.16731 1.18166 0
M  V30 4124 O 375.583 1.45129 1.23864 0
M  V30 4125 C 372.723 2.90072 1.86955 0
M  V30 4126 C 371.836 4.08759 1.39786 0
M  V30 4127 C 370.971 4.65787 2.55374 0
M  V30 4128 C 370.01 5.76752 2.04998 0
M  V30 4129 N 369.147 6.28021 3.13901 0
M  V30 4130 H 373.987 2.9779 0.111749 0
M  V30 4131 H 371.524 1.47036 0.0434007 0
M  V30 4132 H 373.482 3.28428 2.57276 0
M  V30 4133 H 372.112 2.15575 2.40265 0
M  V30 4134 H 371.164 3.7581 0.589173 0
M  V30 4135 H 372.476 4.88906 0.98856 0
M  V30 4136 H 371.63 5.06646 3.33758 0
M  V30 4137 H 370.369 3.84828 2.99598 0
M  V30 4138 H 369.374 5.35383 1.25079 0
M  V30 4139 H 370.599 6.59553 1.61759 0
M  V30 4140 H 368.545 5.49971 3.57586 0
M  V30 4141 H 368.462 7.03323 2.7726 0
M  V30 4142 H 369.73 6.73538 3.92386 0
M  V30 4143 N 373.959 -0.0401083 1.57549 0
M  V30 4144 C 375.375 -0.395556 1.54621 0
M  V30 4145 C 375.575 -1.77281 0.957799 0
M  V30 4146 O 374.631 -2.45888 0.574031 0
M  V30 4147 C 375.944 -0.307535 2.99123 0
M  V30 4148 C 377.492 -0.385425 3.10618 0
M  V30 4149 C 377.967 -0.326973 4.56831 0
M  V30 4150 N 379.458 -0.386102 4.61588 0
M  V30 4151 C 380.193 -0.363591 5.72246 0
M  V30 4152 N 379.689 -0.29402 6.92176 0
M  V30 4153 N 381.482 -0.412503 5.60584 0
M  V30 4154 H 373.633 0.861325 1.94152 0
M  V30 4155 H 375.896 0.326445 0.890021 0
M  V30 4156 H 375.602 0.638461 3.45856 0
M  V30 4157 H 375.476 -1.10552 3.60636 0
M  V30 4158 H 377.863 -1.32185 2.63839 0
M  V30 4159 H 377.944 0.44171 2.51957 0
M  V30 4160 H 377.588 0.605738 5.04275 0
M  V30 4161 H 377.518 -1.17207 5.13391 0
M  V30 4162 H 380.009 -0.442832 3.75296 0
M  V30 4163 H 380.322 -0.28164 7.72287 0
M  V30 4164 H 378.667 -0.260232 6.94513 0
M  V30 4165 H 381.858 -0.464769 4.65787 0
M  V30 4166 H 382.031 -0.391492 6.46816 0
M  V30 4167 N 375.437 -1.54477 -0.31217 0
M  V30 4168 C 376.667 -1.76948 -1.06645 0
M  V30 4169 C 377.075 -0.523593 -1.81811 0
M  V30 4170 O 376.418 0.51578 -1.76311 0
M  V30 4171 C 376.48 -2.91668 -2.10166 0
M  V30 4172 C 376.144 -4.30165 -1.54296 0
M  V30 4173 C 377.141 -5.10603 -0.978793 0
M  V30 4174 C 374.826 -4.76738 -1.58196 0
M  V30 4175 C 376.82 -6.3573 -0.461048 0
M  V30 4176 C 374.507 -6.01831 -1.06034 0
M  V30 4177 C 375.505 -6.81161 -0.500844 0
M  V30 4178 O 375.193 -8.03899 0.0128958 0
M  V30 4179 H 374.925 -0.594088 -0.322546 0
M  V30 4180 H 377.479 -2.02213 -0.360441 0
M  V30 4181 H 375.709 -2.62001 -2.84416 0
M  V30 4182 H 377.398 -3.01817 -2.71406 0
M  V30 4183 H 378.164 -4.75771 -0.941651 0
M  V30 4184 H 374.043 -4.15027 -2.00683 0
M  V30 4185 H 377.587 -6.97596 -0.0236894 0
M  V30 4186 H 373.484 -6.36152 -1.09459 0
M  V30 4187 H 374.252 -8.18437 -0.101457 0
M  V30 4188 N 376.915 0.57481 -1.46744 0
M  V30 4189 C 377.865 1.67838 -1.54319 0
M  V30 4190 C 378.849 1.55759 -0.40346 0
M  V30 4191 O 380.041 1.6454 -0.652347 0
M  V30 4192 C 377.17 3.06624 -1.5439 0
M  V30 4193 C 376.256 3.23971 -2.73685 0
M  V30 4194 N 376.647 3.11447 -3.9854 0
M  V30 4195 C 374.945 3.5493 -2.70075 0
M  V30 4196 C 375.646 3.31011 -4.78337 0
M  V30 4197 N 374.622 3.56533 -4.10348 0
M  V30 4198 H 378.424 1.56698 -2.48642 0
M  V30 4199 H 375.938 0.779071 -1.42493 0
M  V30 4200 H 377.935 3.85839 -1.57905 0
M  V30 4201 H 376.595 3.1889 -0.611493 0
M  V30 4202 H 377.606 2.89145 -4.29669 0
M  V30 4203 H 374.283 3.73832 -1.85893 0
M  V30 4204 H 375.673 3.26445 -5.87268 0
M  V30 4205 N 378.394 1.34581 0.820102 0
M  V30 4206 C 379.624 1.29991 1.6058 0
M  V30 4207 C 380.032 -0.127588 1.88769 0
M  V30 4208 O 379.375 -1.08595 1.48165 0
M  V30 4209 C 379.437 2.02548 2.9701 0
M  V30 4210 C 379.101 3.51794 2.91701 0
M  V30 4211 C 380.098 4.46647 2.66087 0
M  V30 4212 C 377.783 3.94249 3.11245 0
M  V30 4213 C 379.777 5.81929 2.60071 0
M  V30 4214 C 377.464 5.2963 3.04853 0
M  V30 4215 C 378.462 6.23282 2.793 0
M  V30 4216 O 378.15 7.56181 2.72847 0
M  V30 4217 H 377.882 0.448539 0.505756 0
M  V30 4218 H 380.436 1.77811 1.02822 0
M  V30 4219 H 378.666 1.49345 3.56697 0
M  V30 4220 H 380.355 1.91211 3.58041 0
M  V30 4221 H 381.121 4.15168 2.5072 0
M  V30 4222 H 377 3.21749 3.30149 0
M  V30 4223 H 380.544 6.54999 2.40046 0
M  V30 4224 H 376.441 5.60727 3.19774 0
M  V30 4225 H 377.209 7.6595 2.88553 0
M  V30 4226 N 379.872 -1.04064 1.18357 0
M  V30 4227 C 380.782 -2.15569 0.925596 0
M  V30 4228 C 381.798 -1.7365 -0.110295 0
M  V30 4229 O 382.974 -2.01273 0.0716218 0
M  V30 4230 C 380.039 -3.43704 0.454836 0
M  V30 4231 C 379.1 -4.00004 1.55869 0
M  V30 4232 C 378.333 -5.22023 1.1103 0
M  V30 4233 O 378.556 -5.70392 -0.0309756 0
M  V30 4234 O 377.49 -5.70856 1.90805 0
M  V30 4235 H 381.316 -2.40187 1.8586 0
M  V30 4236 H 378.901 -1.1402 0.965394 0
M  V30 4237 H 380.783 -4.20923 0.200382 0
M  V30 4238 H 379.458 -3.20559 -0.449876 0
M  V30 4239 H 378.365 -3.24172 1.86716 0
M  V30 4240 H 379.698 -4.2749 2.43953 0
M  V30 4241 N 381.35 -0.985608 -1.22978 0
M  V30 4242 C 382.298 -0.522631 -2.26652 0
M  V30 4243 C 383.292 0.422998 -1.64034 0
M  V30 4244 O 384.498 0.296319 -1.77544 0
M  V30 4245 H 380.873 -0.150597 -0.736766 0
M  V30 4246 H 382.844 -1.40863 -2.63059 0
M  V30 4247 C 381.593 0.154238 -3.47358 0
M  V30 4248 H 380.916 -0.564329 -3.95797 0
M  V30 4249 H 382.356 0.441744 -4.21693 0
M  V30 4250 C 380.815 1.38719 -3.07016 0
M  V30 4251 O 381.345 2.48307 -3.15764 0
M  V30 4252 N 379.551 1.25975 -2.61875 0
M  V30 4253 H 379.098 0.368068 -2.54957 0
M  V30 4254 H 379.056 2.08578 -2.3525 0
M  V30 4255 N 382.828 1.3818 -0.7579 0
M  V30 4256 C 383.778 2.27741 -0.108674 0
M  V30 4257 C 384.762 1.45415 0.688709 0
M  V30 4258 O 385.954 1.68108 0.553956 0
M  V30 4259 C 383.083 3.34313 0.780367 0
M  V30 4260 C 382.169 4.24093 -0.0240977 0
M  V30 4261 N 382.56 4.9451 -1.06271 0
M  V30 4262 C 380.858 4.45542 0.202049 0
M  V30 4263 C 381.559 5.60675 -1.54979 0
M  V30 4264 N 380.535 5.36684 -0.864348 0
M  V30 4265 H 384.337 2.79649 -0.904071 0
M  V30 4266 H 381.851 1.51133 -0.594346 0
M  V30 4267 H 383.848 3.97368 1.26114 0
M  V30 4268 H 382.508 2.83962 1.57467 0
M  V30 4269 H 383.519 4.97345 -1.44459 0
M  V30 4270 H 380.196 4.06091 0.96935 0
M  V30 4271 H 381.586 6.26992 -2.41517 0
M  V30 4272 N 384.306 0.507319 1.49211 0
M  V30 4273 C 385.238 -0.304532 2.27168 0
M  V30 4274 C 386.251 -0.924956 1.33972 0
M  V30 4275 O 387.44 -0.807227 1.59205 0
M  V30 4276 C 384.54 -1.44431 3.06583 0
M  V30 4277 C 383.713 -0.930026 4.27398 0
M  V30 4278 C 382.772 -1.94817 4.88807 0
M  V30 4279 O 381.798 -1.51418 5.4869 0
M  V30 4280 N 383 -3.279 4.79022 0
M  V30 4281 H 385.765 0.36395 2.97482 0
M  V30 4282 H 383.326 0.340249 1.58284 0
M  V30 4283 H 385.318 -2.12311 3.44537 0
M  V30 4284 H 383.888 -2.01684 2.38835 0
M  V30 4285 H 383.108 -0.0759244 3.94127 0
M  V30 4286 H 384.396 -0.564932 5.05654 0
M  V30 4287 H 383.794 -3.65843 4.3148 0
M  V30 4288 H 382.351 -3.91476 5.21142 0
M  V30 4289 N 385.784 -1.5574 0.241426 0
M  V30 4290 C 386.716 -2.18469 -0.693091 0
M  V30 4291 C 387.729 -1.15942 -1.14286 0
M  V30 4292 O 388.918 -1.42832 -1.07058 0
M  V30 4293 C 386.018 -2.7696 -1.95311 0
M  V30 4294 C 385.191 -4.04853 -1.65568 0
M  V30 4295 C 384.25 -4.47715 -2.76474 0
M  V30 4296 O 383.276 -5.14205 -2.44094 0
M  V30 4297 N 384.478 -4.15044 -4.05855 0
M  V30 4298 H 387.243 -2.99292 -0.156388 0
M  V30 4299 H 384.804 -1.61784 0.0611752 0
M  V30 4300 H 386.796 -3.02594 -2.68736 0
M  V30 4301 H 385.366 -2.00326 -2.39975 0
M  V30 4302 H 384.586 -3.86865 -0.756886 0
M  V30 4303 H 385.874 -4.88246 -1.43153 0
M  V30 4304 H 385.272 -3.61654 -4.34998 0
M  V30 4305 H 383.829 -4.45526 -4.75762 0
M  V30 4306 N 387.262 0.0317525 -1.57568 0
M  V30 4307 C 388.192 1.03274 -2.0942 0
M  V30 4308 C 389.173 1.3788 -0.996143 0
M  V30 4309 O 390.358 1.46811 -1.27122 0
M  V30 4310 C 387.488 2.33448 -2.57137 0
M  V30 4311 C 386.442 2.13091 -3.71182 0
M  V30 4312 C 385.768 3.49001 -4.05095 0
M  V30 4313 C 387.068 1.51928 -4.99715 0
M  V30 4314 H 388.762 0.60112 -2.93303 0
M  V30 4315 H 386.308 0.287705 -1.41097 0
M  V30 4316 H 388.261 3.03802 -2.92032 0
M  V30 4317 H 386.985 2.78665 -1.70333 0
M  V30 4318 H 385.644 1.45171 -3.36632 0
M  V30 4319 H 385.292 3.91862 -3.15362 0
M  V30 4320 H 384.992 3.36207 -4.81911 0
M  V30 4321 H 386.516 4.20721 -4.42522 0
M  V30 4322 H 387.93 2.12196 -5.32584 0
M  V30 4323 H 386.327 1.49716 -5.81124 0
M  V30 4324 H 387.397 0.484811 -4.8247 0
M  V30 4325 N 388.74 1.54641 0.303973 0
M  V30 4326 C 390.156 1.45788 0.649463 0
M  V30 4327 C 390.356 0.64666 1.90842 0
M  V30 4328 O 389.412 0.153183 2.52035 0
M  V30 4329 C 390.725 2.89718 0.805227 0
M  V30 4330 C 392.273 2.99742 0.901305 0
M  V30 4331 C 392.748 4.44863 1.08909 0
M  V30 4332 N 394.239 4.48559 1.15536 0
M  V30 4333 C 394.974 5.58026 1.3189 0
M  V30 4334 N 394.47 6.77422 1.45161 0
M  V30 4335 N 396.263 5.45708 1.34755 0
M  V30 4336 H 388.414 2.05854 -0.523237 0
M  V30 4337 H 390.677 0.932186 -0.172431 0
M  V30 4338 H 390.383 3.51666 -0.0489108 0
M  V30 4339 H 390.257 3.36964 1.69513 0
M  V30 4340 H 392.644 2.3791 1.74593 0
M  V30 4341 H 392.725 2.55797 -0.0125531 0
M  V30 4342 H 392.369 5.07288 0.249241 0
M  V30 4343 H 392.299 4.86436 2.01713 0
M  V30 4344 H 394.79 3.6254 1.06646 0
M  V30 4345 H 395.103 7.56604 1.57387 0
M  V30 4346 H 393.448 6.80292 1.42223 0
M  V30 4347 H 396.639 4.51378 1.23996 0
M  V30 4348 H 396.812 6.3107 1.47157 0
M  V30 4349 N 390.218 -0.567019 1.47046 0
M  V30 4350 C 391.128 -1.70247 1.6141 0
M  V30 4351 C 392.144 -1.66746 0.497157 0
M  V30 4352 O 393.32 -1.86371 0.763389 0
M  V30 4353 C 390.385 -3.06756 1.61561 0
M  V30 4354 C 389.446 -3.21399 2.84607 0
M  V30 4355 C 388.679 -4.51396 2.84741 0
M  V30 4356 O 388.902 -5.36255 1.94388 0
M  V30 4357 O 387.836 -4.69621 3.76483 0
M  V30 4358 H 391.662 -1.61073 2.57467 0
M  V30 4359 H 389.247 -0.735894 1.30019 0
M  V30 4360 H 391.129 -3.8801 1.64396 0
M  V30 4361 H 389.804 -3.16333 0.686684 0
M  V30 4362 H 388.711 -2.39579 2.8732 0
M  V30 4363 H 390.044 -3.16721 3.76761 0
M  V30 4364 N 391.696 -1.35014 -0.812953 0
M  V30 4365 C 392.646 -1.23959 -1.91359 0
M  V30 4366 C 393.63 -0.136306 -1.60322 0
M  V30 4367 O 394.822 -0.366925 -1.73155 0
M  V30 4368 C 391.951 -1.00736 -3.28188 0
M  V30 4369 C 391.037 -2.15426 -3.65311 0
M  V30 4370 N 391.428 -3.40612 -3.73921 0
M  V30 4371 C 389.726 -2.06672 -3.95225 0
M  V30 4372 C 390.427 -4.15994 -4.06601 0
M  V30 4373 N 389.403 -3.44685 -4.20349 0
M  V30 4374 H 393.205 -2.18815 -1.96208 0
M  V30 4375 H 390.719 -1.27395 -1.00718 0
M  V30 4376 H 392.716 -0.909052 -4.06868 0
M  V30 4377 H 391.376 -0.067586 -3.2463 0
M  V30 4378 H 392.387 -3.75043 -3.5716 0
M  V30 4379 H 389.064 -1.20511 -3.99729 0
M  V30 4380 H 390.454 -5.24145 -4.20382 0
M  V30 4381 N 393.175 1.03435 -1.18907 0
M  V30 4382 C 394.105 2.13503 -0.945448 0
M  V30 4383 C 395.086 1.69682 0.119189 0
M  V30 4384 O 396.271 1.94169 -0.034707 0
M  V30 4385 C 393.401 3.44004 -0.477316 0
M  V30 4386 C 392.355 4.0148 -1.48316 0
M  V30 4387 C 391.681 5.27537 -0.872311 0
M  V30 4388 C 392.981 4.36921 -2.86177 0
M  V30 4389 H 394.675 2.34141 -1.86597 0
M  V30 4390 H 392.221 1.12523 -0.898584 0
M  V30 4391 H 394.174 4.20372 -0.294204 0
M  V30 4392 H 392.898 3.23072 0.478786 0
M  V30 4393 H 391.557 3.27201 -1.65332 0
M  V30 4394 H 391.205 5.02917 0.0911752 0
M  V30 4395 H 390.905 5.66954 -1.54393 0
M  V30 4396 H 392.429 6.06576 -0.699871 0
M  V30 4397 H 393.843 5.04248 -2.72776 0
M  V30 4398 H 392.24 4.87405 -3.50081 0
M  V30 4399 H 393.31 3.46466 -3.39248 0
M  V30 4400 N 394.653 0.992116 1.22453 0
M  V30 4401 C 395.883 0.684949 1.94915 0
M  V30 4402 C 396.291 -0.754292 1.73514 0
M  V30 4403 O 395.634 -1.52056 1.03076 0
M  V30 4404 C 395.696 0.910054 3.47791 0
M  V30 4405 C 395.36 2.33363 3.92926 0
M  V30 4406 C 396.357 3.31308 4.00663 0
M  V30 4407 C 394.042 2.66785 4.25595 0
M  V30 4408 C 396.036 4.6075 4.40441 0
M  V30 4409 C 393.723 3.96446 4.65053 0
M  V30 4410 C 394.721 4.9324 4.72444 0
M  V30 4411 O 394.409 6.20584 5.1101 0
M  V30 4412 H 394.141 0.25258 0.62704 0
M  V30 4413 H 396.695 1.32939 1.56577 0
M  V30 4414 H 394.925 0.208443 3.86138 0
M  V30 4415 H 396.614 0.598257 4.01467 0
M  V30 4416 H 397.38 3.0682 3.75615 0
M  V30 4417 H 393.259 1.92148 4.19047 0
M  V30 4418 H 396.803 5.363 4.46126 0
M  V30 4419 H 392.7 4.20724 4.89552 0
M  V30 4420 H 393.468 6.24509 5.29085 0
M  V30 4421 N 396.131 -1.37776 0.765217 0
M  V30 4422 C 397.356 -2.04651 0.336537 0
M  V30 4423 C 397.781 -1.57337 -1.03086 0
M  V30 4424 O 397.139 -0.730621 -1.65927 0
M  V30 4425 C 397.187 -3.58577 0.381468 0
M  V30 4426 O 396.291 -4.07706 -0.62042 0
M  V30 4427 H 395.632 -0.64756 0.146838 0
M  V30 4428 H 398.162 -1.76221 1.03959 0
M  V30 4429 H 398.172 -4.07314 0.236448 0
M  V30 4430 H 396.847 -3.9237 1.37907 0
M  V30 4431 H 395.424 -3.70306 -0.439056 0
M  V30 4432 N 397.609 -0.515225 -1.4894 0
M  V30 4433 C 398.856 0.024215 -2.02486 0
M  V30 4434 C 399.184 1.35671 -1.39368 0
M  V30 4435 O 398.439 1.88566 -0.523574 0
M  V30 4436 C 398.738 0.210595 -3.56779 0
M  V30 4437 C 398.404 -1.04569 -4.38607 0
M  V30 4438 C 397.066 -1.39002 -4.60686 0
M  V30 4439 C 399.418 -1.88008 -4.86109 0
M  V30 4440 C 396.746 -2.568 -5.27514 0
M  V30 4441 C 399.098 -3.04972 -5.54234 0
M  V30 4442 C 397.762 -3.39768 -5.74555 0
M  V30 4443 H 397.032 0.00886088 -0.740947 0
M  V30 4444 H 399.679 -0.678263 -1.79086 0
M  V30 4445 H 397.984 0.99572 -3.78936 0
M  V30 4446 H 399.681 0.642659 -3.95817 0
M  V30 4447 H 396.271 -0.767497 -4.21672 0
M  V30 4448 H 400.455 -1.62719 -4.68867 0
M  V30 4449 H 395.711 -2.8398 -5.41447 0
M  V30 4450 H 399.885 -3.69943 -5.90013 0
M  V30 4451 H 397.512 -4.31148 -6.26112 0
M  V30 4452 N 399.087 1.5561 -0.249682 0
M  V30 4453 C 400.017 2.24477 0.642826 0
M  V30 4454 C 400.998 1.22601 1.17911 0
M  V30 4455 O 402.183 1.5126 1.21795 0
M  V30 4456 C 399.313 2.94638 1.83863 0
M  V30 4457 C 398.267 4.03227 1.435 0
M  V30 4458 C 397.593 4.60828 2.71186 0
M  V30 4459 C 398.893 5.18796 0.604002 0
M  V30 4460 H 400.587 2.99321 0.0685625 0
M  V30 4461 H 398.133 1.43965 0.0315363 0
M  V30 4462 H 400.086 3.41517 2.46868 0
M  V30 4463 H 398.81 2.17287 2.43832 0
M  V30 4464 H 397.469 3.57121 0.828275 0
M  V30 4465 H 397.117 3.80174 3.29358 0
M  V30 4466 H 396.817 5.34132 2.44901 0
M  V30 4467 H 398.341 5.10442 3.35084 0
M  V30 4468 H 399.755 5.61883 1.13842 0
M  V30 4469 H 398.152 5.98506 0.437097 0
M  V30 4470 H 399.222 4.83384 -0.383147 0
M  V30 4471 N 400.565 -0.0233959 1.57583 0
M  V30 4472 C 401.513 -1.04063 2.08023 0
M  V30 4473 C 402.507 -1.37084 0.995204 0
M  V30 4474 O 403.713 -1.35923 1.18004 0
M  V30 4475 H 400.088 -0.353144 0.663922 0
M  V30 4476 H 402.059 -0.589453 2.9252 0
M  V30 4477 C 400.808 -2.33123 2.57971 0
M  V30 4478 H 400.131 -2.08577 3.4108 0
M  V30 4479 H 401.571 -3.02632 2.96967 0
M  V30 4480 C 400.03 -3.02483 1.48342 0
M  V30 4481 O 400.56 -3.92541 0.852898 0
M  V30 4482 N 398.766 -2.63909 1.21658 0
M  V30 4483 H 398.313 -1.90758 1.73116 0
M  V30 4484 H 398.271 -3.10633 0.485218 0
M  V30 4485 N 402.043 -1.548 -0.295768 0
M  V30 4486 C 403.006 -1.85363 -1.34808 0
M  V30 4487 C 404.006 -0.726817 -1.43436 0
M  V30 4488 O 405.196 -0.995088 -1.42981 0
M  V30 4489 C 402.328 -2.03859 -2.73229 0
M  V30 4490 H 403.521 -2.7941 -1.08949 0
M  V30 4491 H 401.074 -1.46942 -0.532702 0
M  V30 4492 H 401.809 -1.12117 -3.04303 0
M  V30 4493 H 401.594 -2.8588 -2.68356 0
M  V30 4494 H 403.084 -2.28857 -3.49305 0
M  V30 4495 N 403.521 0.559213 -1.47345 0
M  V30 4496 C 404.751 1.33999 -1.57251 0
M  V30 4497 C 405.159 1.87905 -0.220978 0
M  V30 4498 O 404.502 1.65577 0.795617 0
M  V30 4499 C 404.564 2.54798 -2.53611 0
M  V30 4500 C 404.228 2.22192 -3.99349 0
M  V30 4501 C 405.225 1.79607 -4.87891 0
M  V30 4502 C 402.91 2.33613 -4.44669 0
M  V30 4503 C 404.904 1.48868 -6.19772 0
M  V30 4504 C 402.591 2.02487 -5.76578 0
M  V30 4505 C 403.589 1.60183 -6.63951 0
M  V30 4506 O 403.277 1.29451 -7.93409 0
M  V30 4507 H 403.009 0.414858 -0.533731 0
M  V30 4508 H 405.563 0.684465 -1.9366 0
M  V30 4509 H 403.793 3.23235 -2.12265 0
M  V30 4510 H 405.482 3.16873 -2.53666 0
M  V30 4511 H 406.248 1.70278 -4.54126 0
M  V30 4512 H 402.127 2.65501 -3.76869 0
M  V30 4513 H 405.671 1.15775 -6.87926 0
M  V30 4514 H 401.568 2.11448 -6.09885 0
M  V30 4515 H 402.336 1.43098 -8.05894 0
M  V30 4516 N 404.999 1.35443 0.805782 0
M  V30 4517 C 405.947 1.28465 1.93906 0
M  V30 4518 C 406.941 0.17943 1.68447 0
M  V30 4519 O 408.147 0.345459 1.76654 0
M  V30 4520 H 404.522 0.399528 0.637088 0
M  V30 4521 H 406.493 2.24206 1.96912 0
M  V30 4522 C 405.242 1.07432 3.30687 0
M  V30 4523 H 404.565 1.91716 3.50835 0
M  V30 4524 H 406.005 1.06591 4.10383 0
M  V30 4525 C 404.464 -0.22179 3.36169 0
M  V30 4526 O 404.994 -1.21731 3.82811 0
M  V30 4527 N 403.2 -0.260841 2.89427 0
M  V30 4528 H 402.747 0.549884 2.51663 0
M  V30 4529 H 402.705 -1.12777 2.93477 0
M  V30 4530 N 406.477 -1.02803 1.19454 0
M  V30 4531 C 407.724 -1.76217 0.997693 0
M  V30 4532 C 408.052 -1.887 -0.47144 0
M  V30 4533 O 407.307 -1.4011 -1.3663 0
M  V30 4534 C 407.606 -3.18941 1.6128 0
M  V30 4535 C 407.272 -3.26463 3.11019 0
M  V30 4536 C 405.934 -3.28223 3.51885 0
M  V30 4537 C 408.286 -3.25542 4.07028 0
M  V30 4538 C 405.614 -3.26719 4.8731 0
M  V30 4539 C 407.966 -3.25579 5.42385 0
M  V30 4540 C 406.63 -3.25637 5.82681 0
M  V30 4541 H 405.9 -0.644823 0.365082 0
M  V30 4542 H 408.547 -1.20655 1.4871 0
M  V30 4543 H 406.852 -3.77587 1.04572 0
M  V30 4544 H 408.549 -3.74415 1.43577 0
M  V30 4545 H 405.139 -3.25822 2.78457 0
M  V30 4546 H 409.323 -3.23362 3.76498 0
M  V30 4547 H 404.579 -3.25089 5.1781 0
M  V30 4548 H 408.753 -3.23817 6.16535 0
M  V30 4549 H 406.38 -3.24226 6.87591 0
M  V30 4550 N 407.956 -0.998596 -1.21925 0
M  V30 4551 C 408.919 -0.558679 -2.22287 0
M  V30 4552 C 409.919 0.361525 -1.56683 0
M  V30 4553 O 411.109 0.152695 -1.73529 0
M  V30 4554 C 408.241 0.18661 -3.40389 0
M  V30 4555 H 409.434 -1.4463 -2.62721 0
M  V30 4556 H 406.987 -0.786413 -1.35075 0
M  V30 4557 H 407.722 1.08996 -3.05435 0
M  V30 4558 H 407.507 -0.474188 -3.89222 0
M  V30 4559 H 408.997 0.482367 -4.14805 0
M  V30 4560 N 409.434 1.37368 -0.772513 0
M  V30 4561 C 410.85 1.53059 -0.452231 0
M  V30 4562 C 411.05 1.73065 1.03203 0
M  V30 4563 O 410.106 1.75245 1.81784 0
M  V30 4564 C 411.419 2.72659 -1.26797 0
M  V30 4565 C 412.967 2.86521 -1.25995 0
M  V30 4566 C 413.442 4.09105 -2.05905 0
M  V30 4567 N 414.933 4.16219 -2.03263 0
M  V30 4568 C 415.668 5.10107 -2.61875 0
M  V30 4569 N 415.164 6.09547 -3.29278 0
M  V30 4570 N 416.957 5.02596 -2.51701 0
M  V30 4571 H 409.108 1.22634 -1.7342 0
M  V30 4572 H 411.371 0.597206 -0.736239 0
M  V30 4573 H 411.077 2.64343 -2.31982 0
M  V30 4574 H 410.951 3.66363 -0.897672 0
M  V30 4575 H 413.338 2.94308 -0.216081 0
M  V30 4576 H 413.419 1.93774 -1.66989 0
M  V30 4577 H 413.063 4.0208 -3.10313 0
M  V30 4578 H 412.993 5.00968 -1.62292 0
M  V30 4579 H 415.484 3.45012 -1.54192 0
M  V30 4580 H 415.797 6.77718 -3.71374 0
M  V30 4581 H 414.142 6.09824 -3.33377 0
M  V30 4582 H 417.333 4.23855 -1.98657 0
M  V30 4583 H 417.506 5.75582 -2.97673 0
M  V30 4584 N 410.912 0.523116 1.48665 0
M  V30 4585 C 412.328 0.180511 1.58576 0
M  V30 4586 C 412.528 -1.31597 1.52592 0
M  V30 4587 O 411.584 -2.0937 1.4114 0
M  V30 4588 C 412.897 0.776949 2.90489 0
M  V30 4589 C 414.445 0.745058 3.04003 0
M  V30 4590 C 414.92 1.31995 4.38567 0
M  V30 4591 N 416.411 1.28162 4.45117 0
M  V30 4592 C 417.146 1.6964 5.47731 0
M  V30 4593 N 416.642 2.18816 6.57337 0
M  V30 4594 N 418.435 1.6092 5.38573 0
M  V30 4595 H 410.586 1.4958 1.50797 0
M  V30 4596 H 412.849 0.621772 0.715614 0
M  V30 4597 H 412.555 1.82732 3.00503 0
M  V30 4598 H 412.429 0.25007 3.7637 0
M  V30 4599 H 414.816 -0.296532 2.93606 0
M  V30 4600 H 414.897 1.30933 2.1975 0
M  V30 4601 H 414.541 2.36043 4.49718 0
M  V30 4602 H 414.471 0.731418 5.21496 0
M  V30 4603 H 416.962 0.92155 3.66491 0
M  V30 4604 H 417.275 2.48478 7.31764 0
M  V30 4605 H 415.62 2.22805 6.58318 0
M  V30 4606 H 418.811 1.22304 4.5184 0
M  V30 4607 H 418.984 1.93567 6.18414 0
M  V30 4608 N 412.39 -1.55475 0.257931 0
M  V30 4609 C 413.32 -2.24815 -0.630912 0
M  V30 4610 C 414.301 -1.23224 -1.17259 0
M  V30 4611 O 415.486 -1.51904 -1.20991 0
M  V30 4612 C 412.616 -2.95609 -1.82298 0
M  V30 4613 C 411.57 -4.03982 -1.41359 0
M  V30 4614 C 410.896 -4.6226 -2.68738 0
M  V30 4615 C 412.196 -5.19109 -0.57648 0
M  V30 4616 H 413.89 -2.99354 -0.0526878 0
M  V30 4617 H 411.436 -1.4398 -0.023901 0
M  V30 4618 H 413.389 -3.42822 -2.45054 0
M  V30 4619 H 412.113 -2.18577 -2.42676 0
M  V30 4620 H 410.772 -3.57555 -0.809324 0
M  V30 4621 H 410.42 -3.81915 -3.27338 0
M  V30 4622 H 410.12 -5.35424 -2.42065 0
M  V30 4623 H 411.644 -5.12212 -3.32372 0
M  V30 4624 H 413.058 -5.62479 -1.10861 0
M  V30 4625 H 411.455 -5.98729 -0.405351 0
M  V30 4626 H 412.525 -4.83174 0.408776 0
M  V30 4627 N 413.868 0.0150385 -1.57593 0
M  V30 4628 C 414.815 1.01126 -2.07466 0
M  V30 4629 C 415.785 1.35064 -0.966794 0
M  V30 4630 O 416.97 1.4516 -1.23827 0
M  V30 4631 C 414.11 2.30276 -2.57035 0
M  V30 4632 C 413.223 2.02373 -3.81666 0
M  V30 4633 C 412.358 3.25496 -4.19793 0
M  V30 4634 C 411.397 2.93211 -5.37303 0
M  V30 4635 N 410.534 4.08826 -5.70794 0
M  V30 4636 H 415.374 0.57901 -2.92321 0
M  V30 4637 H 412.911 0.27426 -1.44521 0
M  V30 4638 H 414.869 3.05757 -2.83846 0
M  V30 4639 H 413.499 2.71197 -1.75077 0
M  V30 4640 H 412.551 1.17327 -3.61854 0
M  V30 4641 H 413.863 1.74567 -4.67256 0
M  V30 4642 H 413.017 4.09333 -4.47807 0
M  V30 4643 H 411.756 3.56428 -3.32882 0
M  V30 4644 H 410.761 2.07777 -5.09027 0
M  V30 4645 H 411.986 2.63542 -6.25877 0
M  V30 4646 H 409.932 4.39682 -4.86842 0
M  V30 4647 H 409.849 3.84491 -6.50924 0
M  V30 4648 H 411.117 4.93496 -6.03392 0
M  V30 4649 N 415.346 1.54954 0.287554 0
M  V30 4650 C 416.574 1.78881 1.03967 0
M  V30 4651 C 416.989 0.554894 1.80462 0
M  V30 4652 O 416.346 -0.475676 1.76192 0
M  V30 4653 C 416.397 3.00488 2.0097 0
M  V30 4654 O 416.118 4.19113 1.27577 0
M  V30 4655 C 417.619 3.36907 2.88112 0
M  V30 4656 H 414.839 0.596259 0.307761 0
M  V30 4657 H 417.383 2.01937 0.322749 0
M  V30 4658 H 415.538 2.79601 2.68145 0
M  V30 4659 H 415.952 4.87765 1.92835 0
M  V30 4660 H 417.426 4.25205 3.52001 0
M  V30 4661 H 417.903 2.55659 3.57121 0
M  V30 4662 H 418.509 3.60001 2.26449 0
M  V30 4663 N 416.824 -0.551391 1.4764 0
M  V30 4664 C 417.754 -1.66757 1.63445 0
M  V30 4665 C 418.735 -1.63077 0.483742 0
M  V30 4666 O 419.92 -1.80607 0.71377 0
M  V30 4667 C 417.05 -3.05387 1.65396 0
M  V30 4668 C 416.004 -3.23918 2.79752 0
M  V30 4669 C 415.33 -4.63393 2.66779 0
M  V30 4670 C 416.63 -3.08735 4.21284 0
M  V30 4671 H 418.324 -1.53786 2.56886 0
M  V30 4672 H 415.87 -0.738415 1.23626 0
M  V30 4673 H 417.823 -3.83325 1.75043 0
M  V30 4674 H 416.547 -3.19332 0.685195 0
M  V30 4675 H 415.206 -2.48391 2.69625 0
M  V30 4676 H 414.854 -4.74144 1.67918 0
M  V30 4677 H 414.554 -4.7674 3.43501 0
M  V30 4678 H 416.078 -5.43458 2.78364 0
M  V30 4679 H 417.492 -3.76484 4.32357 0
M  V30 4680 H 415.889 -3.33588 4.98838 0
M  V30 4681 H 416.959 -2.0541 4.39243 0
M  V30 4682 N 418.302 -1.35869 -0.798587 0
M  V30 4683 C 419.718 -1.16082 -1.09532 0
M  V30 4684 C 419.918 0.0213124 -2.01489 0
M  V30 4685 O 418.974 0.689488 -2.42904 0
M  V30 4686 C 420.287 -2.46748 -1.7186 0
M  V30 4687 C 421.835 -2.53028 -1.84244 0
M  V30 4688 C 422.31 -3.83758 -2.49988 0
M  V30 4689 N 423.801 -3.85053 -2.57465 0
M  V30 4690 C 424.536 -4.8294 -3.09122 0
M  V30 4691 N 424.032 -5.91217 -3.61157 0
M  V30 4692 N 425.825 -4.70369 -3.0775 0
M  V30 4693 H 417.976 -2.11571 -0.187461 0
M  V30 4694 H 420.239 -0.936726 -0.145765 0
M  V30 4695 H 419.945 -3.33471 -1.11759 0
M  V30 4696 H 419.819 -2.61883 -2.71472 0
M  V30 4697 H 422.206 -1.66729 -2.43486 0
M  V30 4698 H 422.287 -2.418 -0.834643 0
M  V30 4699 H 421.931 -4.70459 -1.91393 0
M  V30 4700 H 421.861 -3.92278 -3.5132 0
M  V30 4701 H 424.352 -3.06822 -2.20609 0
M  V30 4702 H 424.665 -6.61892 -3.98896 0
M  V30 4703 H 423.01 -5.94899 -3.59333 0
M  V30 4704 H 426.201 -3.84914 -2.66381 0
M  V30 4705 H 426.374 -5.46816 -3.47701 0
M  V30 4706 N 419.78 1.02168 -1.19998 0
M  V30 4707 C 421.028 1.75338 -1.00504 0
M  V30 4708 C 421.349 1.89387 0.464506 0
M  V30 4709 O 420.619 1.43268 1.33608 0
M  V30 4710 H 419.199 0.649564 -0.368885 0
M  V30 4711 H 421.861 1.23205 -1.51018 0
M  V30 4712 H 420.957 2.75892 -1.45912 0
M  V30 4713 N 421.258 1.00505 1.21394 0
M  V30 4714 C 422.188 0.585684 2.26035 0
M  V30 4715 C 423.169 -0.393525 1.65485 0
M  V30 4716 O 424.354 -0.281497 1.92149 0
M  V30 4717 C 421.484 -0.0884283 3.47187 0
M  V30 4718 C 420.438 0.810567 4.20254 0
M  V30 4719 C 419.764 0.00286382 5.347 0
M  V30 4720 C 421.064 2.1132 4.77641 0
M  V30 4721 H 422.758 1.46039 2.61368 0
M  V30 4722 H 420.304 0.703648 1.25638 0
M  V30 4723 H 422.257 -0.393286 4.19561 0
M  V30 4724 H 420.981 -0.997766 3.10986 0
M  V30 4725 H 419.64 1.09925 3.49731 0
M  V30 4726 H 419.288 -0.907765 4.94741 0
M  V30 4727 H 418.988 0.601444 5.84514 0
M  V30 4728 H 420.512 -0.295808 6.09883 0
M  V30 4729 H 421.926 1.87148 5.41893 0
M  V30 4730 H 420.323 2.66164 5.37845 0
M  V30 4731 H 421.393 2.78393 3.9702 0
M  V30 4732 N 422.737 -1.36956 0.779787 0
M  V30 4733 C 423.965 -2.03755 0.359398 0
M  V30 4734 C 424.38 -1.58807 -1.02106 0
M  V30 4735 O 423.737 -0.773024 -1.6532 0
M  V30 4736 C 423.788 -3.59251 0.402568 0
M  V30 4737 O 423.509 -4.02557 1.72858 0
M  V30 4738 C 425.01 -4.43291 -0.0284068 0
M  V30 4739 H 422.23 -0.654148 0.149437 0
M  V30 4740 H 424.774 -1.75128 1.05595 0
M  V30 4741 H 422.929 -3.86621 -0.245478 0
M  V30 4742 H 423.343 -4.97111 1.67275 0
M  V30 4743 H 424.817 -5.51975 0.0529466 0
M  V30 4744 H 425.294 -4.25719 -1.07982 0
M  V30 4745 H 425.9 -4.21163 0.591758 0
M  V30 4746 N 424.215 -0.530993 -1.48385 0
M  V30 4747 C 425.626 -0.0907905 -1.86479 0
M  V30 4748 C 425.977 1.33213 -1.44044 0
M  V30 4749 O 425.102 1.99783 -0.831615 0
M  V30 4750 C 425.697 -0.157987 -3.38431 0
M  V30 4751 C 424.256 0.227026 -3.75715 0
M  V30 4752 C 423.403 -0.5173 -2.72432 0
M  V30 4753 H 426.354 -0.742186 -1.40276 0
M  V30 4754 H 426.375 0.630053 -3.75247 0
M  V30 4755 H 425.887 -1.19372 -3.69286 0
M  V30 4756 H 423.988 1.26486 -3.50474 0
M  V30 4757 H 424.101 -0.113288 -4.78966 0
M  V30 4758 H 422.465 0.0365527 -2.54674 0
M  V30 4759 H 423.248 -1.55368 -3.0613 0
M  V30 4760 N 425.693 1.55336 -0.266172 0
M  V30 4761 C 426.923 2.03506 0.356239 0
M  V30 4762 C 427.331 1.14426 1.50676 0
M  V30 4763 O 426.674 0.155043 1.83045 0
M  V30 4764 C 426.736 3.47848 0.90785 0
M  V30 4765 C 426.4 4.56861 -0.112888 0
M  V30 4766 C 427.397 5.11528 -0.929264 0
M  V30 4767 C 425.082 5.01704 -0.244546 0
M  V30 4768 C 427.076 6.09549 -1.86357 0
M  V30 4769 C 424.763 5.99553 -1.18234 0
M  V30 4770 C 425.761 6.53356 -1.99036 0
M  V30 4771 O 425.449 7.49293 -2.91231 0
M  V30 4772 H 425.181 0.670444 0.08649 0
M  V30 4773 H 427.735 2.01598 -0.39337 0
M  V30 4774 H 425.965 3.46967 1.70737 0
M  V30 4775 H 427.654 3.79407 1.44239 0
M  V30 4776 H 428.42 4.77701 -0.838237 0
M  V30 4777 H 424.299 4.59477 0.374359 0
M  V30 4778 H 427.843 6.51469 -2.49467 0
M  V30 4779 H 423.74 6.32799 -1.27421 0
M  V30 4780 H 424.508 7.66978 -2.8581 0
M  V30 4781 N 427.171 -0.0066808 1.57599 0
M  V30 4782 C 428.081 -1.01671 2.11424 0
M  V30 4783 C 429.097 -1.38143 1.05795 0
M  V30 4784 O 430.273 -1.47011 1.37658 0
M  V30 4785 C 427.338 -2.29192 2.60139 0
M  V30 4786 C 426.399 -1.99094 3.80342 0
M  V30 4787 C 425.632 -3.20535 4.26724 0
M  V30 4788 O 425.855 -4.3199 3.72479 0
M  V30 4789 O 424.789 -3.04924 5.18946 0
M  V30 4790 H 428.615 -0.589181 2.9793 0
M  V30 4791 H 426.2 -0.225091 1.47695 0
M  V30 4792 H 428.082 -3.0412 2.917 0
M  V30 4793 H 426.757 -2.71195 1.76733 0
M  V30 4794 H 425.664 -1.21663 3.53764 0
M  V30 4795 H 426.997 -1.61931 4.648 0
M  V30 4796 N 428.649 -1.55105 -0.279332 0
M  V30 4797 C 429.879 -1.7917 -1.02867 0
M  V30 4798 C 430.287 -0.56204 -1.80659 0
M  V30 4799 O 429.63 0.478266 -1.77365 0
M  V30 4800 C 429.692 -2.96061 -2.03932 0
M  V30 4801 C 429.356 -4.33341 -1.45137 0
M  V30 4802 C 430.353 -5.12565 -0.870266 0
M  V30 4803 C 428.038 -4.79987 -1.48048 0
M  V30 4804 C 430.032 -6.36565 -0.326097 0
M  V30 4805 C 427.719 -6.03944 -0.932443 0
M  V30 4806 C 428.717 -6.8207 -0.356247 0
M  V30 4807 O 428.405 -8.03691 0.183412 0
M  V30 4808 H 428.137 -0.600796 -0.309872 0
M  V30 4809 H 430.691 -2.02932 -0.317468 0
M  V30 4810 H 428.921 -2.67975 -2.78794 0
M  V30 4811 H 430.61 -3.07506 -2.64943 0
M  V30 4812 H 431.376 -4.77661 -0.840521 0
M  V30 4813 H 427.255 -4.1919 -1.91835 0
M  V30 4814 H 430.799 -6.97489 0.124286 0
M  V30 4815 H 426.696 -6.3833 -0.959407 0
M  V30 4816 H 427.464 -8.18468 0.0721681 0
M  V30 4817 N 430.127 0.543554 -1.4793 0
M  V30 4818 C 431.376 1.29649 -1.54512 0
M  V30 4819 C 431.689 1.94382 -0.217973 0
M  V30 4820 O 432.895 2.71017 -0.161908 0
M  V30 4821 C 431.351 2.35175 -2.72435 0
M  V30 4822 C 430.959 1.76572 -4.11736 0
M  V30 4823 C 432.703 3.11564 -2.8832 0
M  V30 4824 C 430.61 2.79958 -5.20939 0
M  V30 4825 H 429.54 0.487541 -0.57517 0
M  V30 4826 H 432.191 0.575708 -1.74235 0
M  V30 4827 H 430.573 3.10229 -2.46118 0
M  V30 4828 H 431.747 1.07799 -4.48013 0
M  V30 4829 H 430.062 1.12722 -4.00852 0
M  V30 4830 H 432.659 3.88794 -3.67074 0
M  V30 4831 H 433.002 3.66594 -1.97268 0
M  V30 4832 H 433.535 2.43623 -3.14472 0
M  V30 4833 H 430.274 2.29766 -6.13912 0
M  V30 4834 H 429.794 3.47101 -4.89164 0
M  V30 4835 H 431.473 3.43198 -5.48474 0
M  V30 4836 N 431.605 1.3629 0.791371 0
M  V30 4837 C 432.854 1.29742 1.54434 0
M  V30 4838 C 433.167 -0.121729 1.95221 0
M  V30 4839 O 434.373 -0.309579 2.69729 0
M  V30 4840 C 432.829 2.27623 2.78776 0
M  V30 4841 C 432.437 3.74963 2.45166 0
M  V30 4842 C 434.181 2.30047 3.56761 0
M  V30 4843 C 432.088 4.64626 3.65891 0
M  V30 4844 H 431.018 0.482113 0.579727 0
M  V30 4845 H 433.669 1.61642 0.868565 0
M  V30 4846 H 432.051 1.88714 3.48142 0
M  V30 4847 H 433.225 4.22596 1.83709 0
M  V30 4848 H 431.54 3.75295 1.80396 0
M  V30 4849 H 434.137 2.94247 4.46456 0
M  V30 4850 H 434.48 1.30846 3.95203 0
M  V30 4851 H 435.013 2.67563 2.94372 0
M  V30 4852 H 431.752 5.64883 3.32547 0
M  V30 4853 H 431.272 4.2171 4.26521 0
M  V30 4854 H 432.951 4.80801 4.32943 0
M  V30 4855 N 433.083 -1.0153 1.20538 0
M  V30 4856 C 434.03 -2.10098 0.955383 0
M  V30 4857 C 435 -1.65702 -0.114878 0
M  V30 4858 O 436.185 -1.90776 0.0301118 0
M  V30 4859 C 433.325 -3.41236 0.514969 0
M  V30 4860 C 432.438 -3.99102 1.65353 0
M  V30 4861 C 431.573 -5.18306 1.16329 0
M  V30 4862 C 430.612 -5.68258 2.27485 0
M  V30 4863 N 429.749 -6.78722 1.7967 0
M  V30 4864 H 434.589 -2.30818 1.88486 0
M  V30 4865 H 432.126 -1.13189 0.939499 0
M  V30 4866 H 434.084 -4.16504 0.240935 0
M  V30 4867 H 432.714 -3.20585 -0.377512 0
M  V30 4868 H 431.766 -3.20918 2.04245 0
M  V30 4869 H 433.078 -4.32177 2.49047 0
M  V30 4870 H 432.232 -6.00782 0.845302 0
M  V30 4871 H 430.971 -4.86799 0.296254 0
M  V30 4872 H 429.976 -4.84385 2.60099 0
M  V30 4873 H 431.201 -6.01798 3.14667 0
M  V30 4874 H 429.147 -6.49042 0.95295 0
M  V30 4875 H 429.064 -7.10996 2.56944 0
M  V30 4876 H 430.332 -7.64759 1.50875 0
M  V30 4877 N 434.561 -1.01147 -1.20859 0
M  V30 4878 C 435.801 -0.706331 -1.91808 0
M  V30 4879 C 436.165 0.749736 -1.76757 0
M  V30 4880 O 437.366 1.16716 -2.42138 0
M  V30 4881 C 435.637 -1.12371 -3.39275 0
M  V30 4882 S 437.196 -0.939764 -4.28619 0
M  V30 4883 H 434.014 -0.257665 -0.662669 0
M  V30 4884 H 436.616 -1.29766 -1.46223 0
M  V30 4885 H 435.32 -2.17943 -3.47749 0
M  V30 4886 H 434.851 -0.524952 -3.89882 0
M  V30 4887 H 436.866 0.159556 -4.95943 0
M  V30 4888 N 436.039 1.36541 -0.78704 0
M  V30 4889 C 437.285 2.00044 -0.367938 0
M  V30 4890 C 437.64 1.61345 1.04812 0
M  V30 4891 O 436.933 0.856936 1.71368 0
M  V30 4892 C 437.127 3.54343 -0.466485 0
M  V30 4893 C 436.956 4.08029 -1.89058 0
M  V30 4894 C 435.726 4.38284 -2.51466 0
M  V30 4895 C 437.924 4.27954 -2.85236 0
M  V30 4896 N 435.906 4.77778 -3.85488 0
M  V30 4897 C 437.277 4.70227 -4.04088 0
M  V30 4898 C 439.332 4.10119 -2.82324 0
M  V30 4899 C 438.035 4.96532 -5.20432 0
M  V30 4900 C 440.061 4.37569 -3.97854 0
M  V30 4901 C 439.423 4.80095 -5.15449 0
M  V30 4902 H 435.522 0.760525 -0.182004 0
M  V30 4903 H 438.106 1.65589 -1.02413 0
M  V30 4904 H 436.277 3.88072 0.159606 0
M  V30 4905 H 438.009 4.04693 -0.0238577 0
M  V30 4906 H 434.764 4.27905 -2.02965 0
M  V30 4907 H 435.188 5.01813 -4.54437 0
M  V30 4908 H 439.83 3.76399 -1.92571 0
M  V30 4909 H 437.548 5.29134 -6.10773 0
M  V30 4910 H 441.134 4.25341 -3.96958 0
M  V30 4911 H 440.014 5.00925 -6.0336 0
M  V30 4912 N 437.518 0.538854 1.48102 0
M  V30 4913 C 438.45 -0.256278 2.27763 0
M  V30 4914 C 439.463 -0.89633 1.35904 0
M  V30 4915 O 440.652 -0.773275 1.60881 0
M  V30 4916 C 437.752 -1.37896 3.09577 0
M  V30 4917 C 436.925 -0.839159 4.29275 0
M  V30 4918 C 435.984 -1.84405 4.9283 0
M  V30 4919 O 435.01 -1.39746 5.51779 0
M  V30 4920 N 436.212 -3.17666 4.85869 0
M  V30 4921 H 438.977 0.426968 2.96643 0
M  V30 4922 H 436.538 0.373747 1.57527 0
M  V30 4923 H 438.53 -2.04955 3.48963 0
M  V30 4924 H 437.1 -1.96572 2.4306 0
M  V30 4925 H 436.32 0.00769287 3.94199 0
M  V30 4926 H 437.608 -0.457548 5.06739 0
M  V30 4927 H 437.006 -3.56609 4.39143 0
M  V30 4928 H 435.563 -3.80334 5.29329 0
M  V30 4929 N 438.996 -1.55193 0.274407 0
M  V30 4930 C 439.944 -2.23924 -0.629362 0
M  V30 4931 C 440.938 -1.23602 -1.1584 0
M  V30 4932 O 442.144 -1.41535 -1.11211 0
M  V30 4933 H 438.519 -0.718637 -0.221507 0
M  V30 4934 H 440.49 -2.98388 -0.0268322 0
M  V30 4935 C 439.239 -2.97329 -1.80252 0
M  V30 4936 H 438.562 -3.74313 -1.40462 0
M  V30 4937 H 440.002 -3.48743 -2.41152 0
M  V30 4938 C 438.461 -2.0276 -2.69054 0
M  V30 4939 O 438.991 -1.57836 -3.69392 0
M  V30 4940 N 437.197 -1.69275 -2.36208 0
M  V30 4941 H 436.744 -2.06004 -1.54661 0
M  V30 4942 H 436.702 -1.06271 -2.95895 0
M  V30 4943 N 440.474 -0.00167713 -1.576 0
M  V30 4944 C 441.384 1.00548 -2.1196 0
M  V30 4945 C 442.4 1.3758 -1.06526 0
M  V30 4946 O 443.576 1.46278 -1.38436 0
M  V30 4947 C 440.641 2.27809 -2.6135 0
M  V30 4948 C 439.702 1.97074 -3.81393 0
M  V30 4949 C 438.935 3.18267 -4.28417 0
M  V30 4950 O 439.158 4.30009 -3.74765 0
M  V30 4951 O 438.092 3.02167 -5.20556 0
M  V30 4952 H 441.918 0.573373 -2.98238 0
M  V30 4953 H 439.503 0.217255 -1.47812 0
M  V30 4954 H 441.385 3.02568 -2.93309 0
M  V30 4955 H 440.06 2.70254 -1.78169 0
M  V30 4956 H 438.967 1.19785 -3.54404 0
M  V30 4957 H 440.3 1.59464 -4.65652 0
M  V30 4958 N 441.952 1.55251 0.271103 0
M  V30 4959 C 443.363 1.66635 0.842007 0
M  V30 4960 C 443.714 0.594631 1.86972 0
M  V30 4961 O 442.839 -0.263532 2.14789 0
M  V30 4962 C 443.434 3.02082 1.53401 0
M  V30 4963 C 441.993 3.15487 2.05293 0
M  V30 4964 C 441.14 2.62438 0.895631 0
M  V30 4965 H 444.091 1.58629 0.0474117 0
M  V30 4966 H 444.112 2.95176 2.40107 0
M  V30 4967 H 443.624 3.80062 0.785786 0
M  V30 4968 H 441.725 2.42284 2.83071 0
M  V30 4969 H 441.838 4.22075 2.26693 0
M  V30 4970 H 440.202 2.19644 1.28953 0
M  V30 4971 H 440.985 3.42923 0.160878 0
M  V30 4972 N 443.43 -0.535701 1.48216 0
M  V30 4973 C 444.34 -1.66785 1.64985 0
M  V30 4974 C 445.356 -1.65654 0.532414 0
M  V30 4975 O 446.532 -1.8471 0.80275 0
M  V30 4976 C 443.597 -3.0326 1.68031 0
M  V30 4977 C 442.658 -3.1529 2.9136 0
M  V30 4978 C 441.891 -4.45255 2.94252 0
M  V30 4979 O 442.114 -5.32011 2.05719 0
M  V30 4980 O 441.048 -4.6153 3.86359 0
M  V30 4981 H 444.874 -1.55576 2.60825 0
M  V30 4982 H 442.459 -0.70815 1.31551 0
M  V30 4983 H 444.341 -3.84436 1.72589 0
M  V30 4984 H 443.016 -3.14805 0.753628 0
M  V30 4985 H 441.923 -2.3343 2.92337 0
M  V30 4986 H 443.256 -3.08658 3.83394 0
M  V30 4987 N 444.908 -1.36708 -0.784132 0
M  V30 4988 C 446.324 -1.17237 -1.08294 0
M  V30 4989 C 446.524 -5.93947e-05 -2.015 0
M  V30 4990 O 445.58 0.663686 -2.43622 0
M  V30 4991 C 446.893 -2.48557 -1.69233 0
M  V30 4992 C 448.441 -2.54968 -1.8155 0
M  V30 4993 C 448.916 -3.86388 -2.45904 0
M  V30 4994 N 450.407 -3.87762 -2.53367 0
M  V30 4995 C 451.142 -4.86191 -3.03983 0
M  V30 4996 N 450.638 -5.95015 -3.54866 0
M  V30 4997 N 452.431 -4.73606 -3.02743 0
M  V30 4998 H 444.582 -2.11758 -0.16501 0
M  V30 4999 H 446.845 -0.93822 -0.135822 0
M  V30 5000 H 446.551 -3.34638 -1.08215 0
M  V30 5001 H 446.425 -2.64748 -2.68679 0
M  V30 5002 H 448.812 -1.69302 -2.41704 0
M  V30 5003 H 448.893 -2.42672 -0.80895 0
M  V30 5004 H 448.537 -4.72462 -1.86392 0
M  V30 5005 H 448.467 -3.95982 -3.4714 0
M  V30 5006 H 450.958 -3.09145 -2.17343 0
M  V30 5007 H 451.271 -6.66086 -3.91854 0
M  V30 5008 H 449.616 -5.98676 -3.53003 0
M  V30 5009 H 452.807 -3.87717 -2.62284 0
M  V30 5010 H 452.98 -5.50473 -3.41881 0
M  V30 5011 N 446.386 1.0089 -1.21074 0
M  V30 5012 C 447.633 1.74607 -1.0256 0
M  V30 5013 C 447.961 1.89426 0.44136 0
M  V30 5014 O 447.216 1.42266 1.34384 0
M  V30 5015 C 447.515 3.16335 -1.66334 0
M  V30 5016 C 447.181 3.21474 -3.16173 0
M  V30 5017 C 445.843 3.22583 -3.57062 0
M  V30 5018 C 448.195 3.19025 -4.12156 0
M  V30 5019 C 445.523 3.18925 -4.92446 0
M  V30 5020 C 447.875 3.16909 -5.47496 0
M  V30 5021 C 446.539 3.16326 -5.87787 0
M  V30 5022 H 445.809 0.638933 -0.375294 0
M  V30 5023 H 448.456 1.18274 -1.50611 0
M  V30 5024 H 446.761 3.75876 -1.10566 0
M  V30 5025 H 448.458 3.72083 -1.49516 0
M  V30 5026 H 445.048 3.2135 -2.83605 0
M  V30 5027 H 449.232 3.17332 -3.81595 0
M  V30 5028 H 444.488 3.16809 -5.22917 0
M  V30 5029 H 448.662 3.13968 -6.21609 0
M  V30 5030 H 446.289 3.13246 -6.92662 0
M  V30 5031 N 447.864 1.01787 1.20321 0
M  V30 5032 C 449.113 0.703249 1.89043 0
M  V30 5033 C 449.426 -0.770445 1.79787 0
M  V30 5034 O 450.632 -1.19767 2.43656 0
M  V30 5035 C 449.088 1.20749 3.3904 0
M  V30 5036 C 448.696 2.70817 3.56878 0
M  V30 5037 C 450.44 0.968352 4.13308 0
M  V30 5038 C 448.347 3.14716 5.00708 0
M  V30 5039 H 447.277 0.259354 0.707991 0
M  V30 5040 H 449.928 1.23072 1.36108 0
M  V30 5041 H 448.31 0.607989 3.91305 0
M  V30 5042 H 449.484 3.36327 3.14993 0
M  V30 5043 H 447.799 2.92888 2.95983 0
M  V30 5044 H 450.396 1.27173 5.19356 0
M  V30 5045 H 450.739 -0.095149 4.16191 0
M  V30 5046 H 451.272 1.53129 3.67146 0
M  V30 5047 H 448.011 4.20347 5.02979 0
M  V30 5048 H 447.531 2.53927 5.43398 0
M  V30 5049 H 449.21 3.07426 5.69296 0
M  V30 5050 N 449.342 -1.36122 0.79427 0
M  V30 5051 C 450.591 -1.98361 0.365464 0
M  V30 5052 C 450.904 -1.6374 -1.06997 0
M  V30 5053 O 452.11 -2.19251 -1.60129 0
M  V30 5054 C 450.566 -3.54821 0.602496 0
M  V30 5055 C 450.174 -3.98362 2.04967 0
M  V30 5056 C 451.918 -4.2383 0.238437 0
M  V30 5057 C 449.825 -5.47619 2.2331 0
M  V30 5058 H 448.755 -0.742193 0.13291 0
M  V30 5059 H 451.406 -1.55354 0.976589 0
M  V30 5060 H 449.788 -3.95922 -0.078409 0
M  V30 5061 H 450.962 -3.68447 2.76737 0
M  V30 5062 H 449.277 -3.42206 2.37243 0
M  V30 5063 H 451.874 -5.33529 0.353705 0
M  V30 5064 H 452.217 -4.08264 -0.814006 0
M  V30 5065 H 452.75 -3.88108 0.872769 0
M  V30 5066 H 449.489 -5.68138 3.26955 0
M  V30 5067 H 449.009 -5.79145 1.5605 0
M  V30 5068 H 450.688 -6.13911 2.0426 0
M  V30 5069 N 450.82 -0.546701 -1.47814 0
M  V30 5070 C 451.768 0.220048 -2.31557 0
M  V30 5071 C 452.762 0.919472 -1.42275 0
M  V30 5072 O 453.968 0.841953 -1.59095 0
M  V30 5073 H 450.343 0.0898334 -0.746615 0
M  V30 5074 H 452.314 -0.505589 -2.94086 0
M  V30 5075 C 451.063 1.24353 -3.24702 0
M  V30 5076 H 450.386 0.714758 -3.93359 0
M  V30 5077 H 451.826 1.75112 -3.8615 0
M  V30 5078 C 450.285 2.28593 -2.47481 0
M  V30 5079 O 450.815 3.35334 -2.21165 0
M  V30 5080 N 449.021 2.02244 -2.08676 0
M  V30 5081 H 448.568 1.15455 -2.30278 0
M  V30 5082 H 448.526 2.72207 -1.57323 0
M  V30 5083 N 452.299 1.55045 -0.282633 0
M  V30 5084 C 453.71 1.85473 0.213655 0
M  V30 5085 C 454.061 1.20465 1.54863 0
M  V30 5086 O 453.186 0.495676 2.10647 0
M  V30 5087 C 453.781 3.36496 0.394445 0
M  V30 5088 C 452.34 3.67022 0.834961 0
M  V30 5089 C 451.487 2.77218 -0.0674081 0
M  V30 5090 H 454.438 1.50478 -0.504202 0
M  V30 5091 H 454.459 3.60007 1.23186 0
M  V30 5092 H 453.971 3.83782 -0.577326 0
M  V30 5093 H 452.072 3.25241 1.81794 0
M  V30 5094 H 452.185 4.74433 0.667075 0
M  V30 5095 H 450.549 2.5069 0.450196 0
M  V30 5096 H 451.332 3.2732 -1.0352 0
M  V30 5097 N 453.777 0.010035 1.57597 0
M  V30 5098 C 455.007 -0.682422 1.95004 0
M  V30 5099 C 455.415 -1.67278 0.884014 0
M  V30 5100 O 454.758 -1.83129 -0.144672 0
M  V30 5101 C 454.82 -1.46141 3.28456 0
M  V30 5102 C 454.484 -0.631523 4.52615 0
M  V30 5103 C 455.481 0.0850905 5.1983 0
M  V30 5104 C 453.166 -0.574539 4.99003 0
M  V30 5105 C 455.16 0.847566 6.3174 0
M  V30 5106 C 452.847 0.191655 6.10799 0
M  V30 5107 C 453.845 0.901432 6.77025 0
M  V30 5108 O 453.533 1.65511 7.86677 0
M  V30 5109 H 453.265 -0.194361 0.647456 0
M  V30 5110 H 455.819 0.060312 2.05311 0
M  V30 5111 H 454.049 -2.24885 3.14585 0
M  V30 5112 H 455.738 -2.04016 3.50902 0
M  V30 5113 H 456.504 0.0502812 4.84974 0
M  V30 5114 H 452.383 -1.11654 4.47274 0
M  V30 5115 H 455.927 1.4021 6.83364 0
M  V30 5116 H 451.824 0.228249 6.45096 0
M  V30 5117 H 452.592 1.57287 8.03245 0
M  V30 5118 N 455.255 -1.55392 -0.262866 0
M  V30 5119 C 456.205 -1.85355 -1.32768 0
M  V30 5120 C 457.189 -0.713188 -1.44231 0
M  V30 5121 O 458.381 -0.974765 -1.47741 0
M  V30 5122 C 455.51 -2.13781 -2.68612 0
M  V30 5123 C 454.596 -3.34104 -2.61219 0
M  V30 5124 N 454.987 -4.53766 -2.2345 0
M  V30 5125 C 453.285 -3.36895 -2.92263 0
M  V30 5126 C 453.986 -5.35877 -2.26298 0
M  V30 5127 N 452.962 -4.74536 -2.65172 0
M  V30 5128 H 456.764 -2.75413 -1.02591 0
M  V30 5129 H 454.278 -1.55405 -0.471503 0
M  V30 5130 H 456.275 -2.33407 -3.45437 0
M  V30 5131 H 454.935 -1.25013 -2.99669 0
M  V30 5132 H 455.946 -4.79682 -1.95258 0
M  V30 5133 H 452.623 -2.58351 -3.27965 0
M  V30 5134 H 454.013 -6.41577 -1.99572 0
M  V30 5135 N 456.733 0.527833 -1.48498 0
M  V30 5136 C 457.683 1.62844 -1.5958 0
M  V30 5137 C 458.667 1.54397 -0.452809 0
M  V30 5138 O 459.859 1.62381 -0.704364 0
M  V30 5139 C 456.988 3.01557 -1.64067 0
M  V30 5140 C 456.074 3.151 -2.83853 0
M  V30 5141 N 456.465 2.9861 -4.08247 0
M  V30 5142 C 454.763 3.46158 -2.8123 0
M  V30 5143 C 455.464 3.15626 -4.88626 0
M  V30 5144 N 454.44 3.43298 -4.21483 0
M  V30 5145 H 458.242 1.48708 -2.53502 0
M  V30 5146 H 455.756 0.733343 -1.44899 0
M  V30 5147 H 457.753 3.8062 -1.70101 0
M  V30 5148 H 456.413 3.16783 -0.712636 0
M  V30 5149 H 457.424 2.75329 -4.3865 0
M  V30 5150 H 454.101 3.67728 -1.97692 0
M  V30 5151 H 455.491 3.07596 -5.97356 0
M  V30 5152 N 458.211 1.37122 0.776871 0
M  V30 5153 C 459.158 1.3247 1.88998 0
M  V30 5154 C 460.128 0.191143 1.64997 0
M  V30 5155 O 461.313 0.379683 1.86984 0
M  V30 5156 C 458.453 1.13241 3.25992 0
M  V30 5157 C 457.566 2.35782 3.61982 0
M  V30 5158 C 456.701 2.09465 4.88158 0
M  V30 5159 C 455.74 3.279 5.16864 0
M  V30 5160 N 454.877 3.01167 6.34226 0
M  V30 5161 H 459.717 2.27642 1.9231 0
M  V30 5162 H 457.254 1.13125 0.94027 0
M  V30 5163 H 459.212 1.00115 4.0501 0
M  V30 5164 H 457.842 0.217186 3.22069 0
M  V30 5165 H 456.894 2.59666 2.77989 0
M  V30 5166 H 458.206 3.24125 3.79137 0
M  V30 5167 H 457.36 1.93341 5.75069 0
M  V30 5168 H 456.099 1.18452 4.73097 0
M  V30 5169 H 455.104 3.44569 4.2843 0
M  V30 5170 H 456.329 4.19757 5.33836 0
M  V30 5171 H 454.275 2.12779 6.20533 0
M  V30 5172 H 454.192 3.83052 6.51772 0
M  V30 5173 H 455.46 2.88649 7.24087 0
M  V30 5174 N 459.689 -1.00246 1.21608 0
M  V30 5175 C 460.935 -1.74319 1.03638 0
M  V30 5176 C 461.268 -1.89408 -0.428749 0
M  V30 5177 O 460.543 -1.43026 -1.3181 0
M  V30 5178 C 460.826 -3.15431 1.73711 0
M  V30 5179 C 460.679 -3.08049 3.27759 0
M  V30 5180 C 461.998 -4.14407 1.48173 0
M  V30 5181 H 459.117 -0.632741 0.377899 0
M  V30 5182 H 461.759 -1.16853 1.49818 0
M  V30 5183 H 459.909 -3.64493 1.34452 0
M  V30 5184 H 461.581 -2.66681 3.76403 0
M  V30 5185 H 459.824 -2.45088 3.57931 0
M  V30 5186 H 460.495 -4.07862 3.71958 0
M  V30 5187 H 462.971 -3.74061 1.82258 0
M  V30 5188 H 461.847 -5.11279 1.99713 0
M  V30 5189 H 462.108 -4.40174 0.412273 0
M  V30 5190 N 461.167 -1.02423 -1.1978 0
M  V30 5191 C 462.415 -0.716569 -1.8897 0
M  V30 5192 C 462.736 0.756769 -1.79716 0
M  V30 5193 O 462.006 1.5449 -1.20456 0
M  V30 5194 H 460.586 -0.262062 -0.699523 0
M  V30 5195 H 463.248 -1.29747 -1.45436 0
M  V30 5196 H 462.344 -1.00675 -2.95417 0
M  V30 5197 N 462.645 1.35699 -0.801477 0
M  V30 5198 C 463.575 2.32436 -0.222658 0
M  V30 5199 C 464.556 1.5723 0.649057 0
M  V30 5200 O 465.741 1.85324 0.580387 0
M  V30 5201 C 462.871 3.41469 0.633719 0
M  V30 5202 C 461.825 4.27774 -0.139083 0
M  V30 5203 C 461.151 5.28082 0.838666 0
M  V30 5204 C 462.451 5.04946 -1.33517 0
M  V30 5205 H 464.145 2.81094 -1.03086 0
M  V30 5206 H 461.691 1.35146 -0.497155 0
M  V30 5207 H 463.644 4.08143 1.04868 0
M  V30 5208 H 462.368 2.91408 1.47475 0
M  V30 5209 H 461.027 3.62673 -0.535156 0
M  V30 5210 H 460.675 4.7429 1.67506 0
M  V30 5211 H 460.375 5.86695 0.32594 0
M  V30 5212 H 461.899 5.97628 1.25194 0
M  V30 5213 H 463.313 5.64593 -0.995349 0
M  V30 5214 H 461.71 5.7303 -1.78202 0
M  V30 5215 H 462.78 4.35886 -2.12442 0
M  V30 5216 N 464.123 0.554532 1.47522 0
M  V30 5217 C 465.071 -0.207765 2.3167 0
M  V30 5218 C 466.065 -0.911914 1.4276 0
M  V30 5219 O 467.271 -0.833504 1.59539 0
M  V30 5220 H 463.646 -0.0858726 0.747081 0
M  V30 5221 H 465.617 0.521178 2.93813 0
M  V30 5222 C 464.366 -1.2263 3.25357 0
M  V30 5223 H 463.689 -0.693887 3.93732 0
M  V30 5224 H 465.129 -1.73062 3.87073 0
M  V30 5225 C 463.588 -2.27278 2.4869 0
M  V30 5226 O 464.118 -3.34156 2.22941 0
M  V30 5227 N 462.324 -2.01134 2.09746 0
M  V30 5228 H 461.871 -1.14232 2.30887 0
M  V30 5229 H 461.829 -2.71369 1.58765 0
M  V30 5230 N 465.601 -1.54893 0.290851 0
M  V30 5231 C 466.549 -2.24579 -0.605576 0
M  V30 5232 C 467.543 -1.24824 -1.14522 0
M  V30 5233 O 468.749 -1.42706 -1.09704 0
M  V30 5234 H 465.124 -0.720946 -0.213872 0
M  V30 5235 H 467.095 -2.984 0.0048173 0
M  V30 5236 C 465.844 -2.99224 -1.77088 0
M  V30 5237 H 465.167 -3.75782 -1.36484 0
M  V30 5238 H 466.607 -3.51281 -2.3744 0
M  V30 5239 C 465.066 -2.05602 -2.66888 0
M  V30 5240 O 465.596 -1.61745 -3.67698 0
M  V30 5241 N 463.802 -1.71771 -2.34399 0
M  V30 5242 H 463.349 -2.07633 -1.52468 0
M  V30 5243 H 463.307 -1.09403 -2.94751 0
M  V30 5244 O 467.118 -0.15707 -1.60734 0
M  V30 5245 H 467.809 0.435157 -1.88749 0
M  V30 END ATOM
M  V30 BEGIN BOND
M  V30 END BOND
M  V30 END CTAB
M  END
$$$$
