drugbank_target|O95477 ATP-binding cassette sub-family A member 1 (DB00171; DB01016; DB01599)
 OpenBabel12092119243D

  0  0  0     0  0            999 V3000
M  V30 BEGIN CTAB
M  V30 COUNTS 35842 36253 0 0 0
M  V30 BEGIN ATOM
M  V30 1 H -0.908 1.98254 -0.117106 0
M  V30 2 N 0 1.576 0 0
M  V30 3 C 0.933 2.03868 1.02534 0
M  V30 4 C 1.911 0.928543 1.3348 0
M  V30 5 O 3.095 1.19667 1.45644 0
M  V30 6 C 0.222 2.43627 2.35294 0
M  V30 7 C -0.732 3.65373 2.2001 0
M  V30 8 S 0.101 5.13292 1.52614 0
M  V30 9 C 1.257 5.56322 2.86805 0
M  V30 10 H 1.49 2.90518 0.631377 0
M  V30 11 H -0.977 1.52953 0.210867 0
M  V30 12 H 0.981 2.67203 3.11629 0
M  V30 13 H -0.358 1.57376 2.7183 0
M  V30 14 H -1.165 3.90944 3.18086 0
M  V30 15 H -1.563 3.418 1.51819 0
M  V30 16 H 0.729 5.58782 3.83104 0
M  V30 17 H 1.672 6.56266 2.65933 0
M  V30 18 H 2.08 4.83886 2.90714 0
M  V30 19 N 1.4781 -0.272755 1.55222 0
M  V30 20 C 2.4411 -1.32041 1.87344 0
M  V30 21 C 3.4411 -1.42342 0.74803 0
M  V30 22 O 4.6311 -1.41488 1.0162 0
M  V30 23 C 1.7631 -2.70173 2.07893 0
M  V30 24 H 2.9561 -1.04789 2.80997 0
M  V30 25 H 0.5091 -0.51083 1.47717 0
M  V30 26 H 1.2441 -3.02605 1.16622 0
M  V30 27 H 1.0291 -2.64082 2.89833 0
M  V30 28 H 2.5191 -3.45869 2.34017 0
M  V30 29 N 2.9562 -1.48159 -0.537278 0
M  V30 30 C 4.1962 -1.57397 -1.30405 0
M  V30 31 C 4.5602 -0.239202 -1.90504 0
M  V30 32 O 5.7612 -0.206528 -2.68005 0
M  V30 33 C 4.0322 -2.6754 -2.36974 0
M  V30 34 S 5.5912 -2.96496 -3.23475 0
M  V30 35 H 2.4092 -0.555577 -0.443684 0
M  V30 36 H 5.0112 -1.85644 -0.612912 0
M  V30 37 H 3.7152 -3.63092 -1.91291 0
M  V30 38 H 3.2462 -2.41172 -3.10805 0
M  V30 39 H 5.2612 -2.35234 -4.36897 0
M  V30 40 N 4.4343 0.785586 -1.36625 0
M  V30 41 C 5.6803 1.5452 -1.32269 0
M  V30 42 C 6.0353 1.92159 0.0962266 0
M  V30 43 O 5.3283 1.60158 1.05167 0
M  V30 44 C 5.5223 2.83007 -2.1827 0
M  V30 45 C 5.3513 2.57925 -3.68382 0
M  V30 46 C 4.1213 2.52752 -4.37544 0
M  V30 47 C 6.3193 2.26861 -4.61561 0
M  V30 48 N 4.3013 2.19608 -5.73276 0
M  V30 49 C 5.6723 2.03738 -5.85569 0
M  V30 50 C 7.7273 2.129 -4.50087 0
M  V30 51 C 6.4303 1.68065 -6.9939 0
M  V30 52 C 8.4563 1.78626 -5.63779 0
M  V30 53 C 7.8183 1.56353 -6.86828 0
M  V30 54 H 3.9173 0.566301 -0.539283 0
M  V30 55 H 6.5013 0.917736 -1.71714 0
M  V30 56 H 4.6723 3.43614 -1.81063 0
M  V30 57 H 6.4043 3.48775 -2.05275 0
M  V30 58 H 3.1593 2.6813 -3.90389 0
M  V30 59 H 3.5833 2.05771 -6.44971 0
M  V30 60 H 8.2253 2.28808 -3.55537 0
M  V30 61 H 5.9433 1.50895 -7.93887 0
M  V30 62 H 9.5293 1.68502 -5.56865 0
M  V30 63 H 8.4093 1.30223 -7.73312 0
M  V30 64 N 5.9124 1.20967 1.01018 0
M  V30 65 C 7.3234 1.02319 1.56165 0
M  V30 66 C 7.6744 -0.418546 1.91684 0
M  V30 67 O 6.7994 -1.30096 1.72928 0
M  V30 68 C 7.3944 1.85109 2.8376 0
M  V30 69 C 5.9534 1.70809 3.35412 0
M  V30 70 C 5.1004 1.82643 2.08655 0
M  V30 71 H 8.0514 1.35065 0.833255 0
M  V30 72 H 8.0724 1.35827 3.55431 0
M  V30 73 H 7.5844 2.90035 2.57878 0
M  V30 74 H 5.6854 0.685464 3.66241 0
M  V30 75 H 5.7984 2.52467 4.07182 0
M  V30 76 H 4.1624 1.25896 2.21409 0
M  V30 77 H 4.9454 2.89066 1.85191 0
M  V30 78 N 7.3905 -1.2043 1.01659 0
M  V30 79 C 8.3225 -2.22626 0.544988 0
M  V30 80 C 9.3355 -1.58479 -0.372609 0
M  V30 81 O 10.5245 -1.77679 -0.170958 0
M  V30 82 C 7.6245 -3.38141 -0.22663 0
M  V30 83 C 6.7975 -4.31877 0.692876 0
M  V30 84 C 5.8565 -5.26191 -0.0311616 0
M  V30 85 O 4.8825 -5.6612 0.591343 0
M  V30 86 N 6.0845 -5.65618 -1.30601 0
M  V30 87 H 8.8495 -2.63716 1.42388 0
M  V30 88 H 6.4105 -1.34971 0.894116 0
M  V30 89 H 8.4025 -3.98239 -0.72024 0
M  V30 90 H 6.9725 -2.95943 -1.00681 0
M  V30 91 H 6.1925 -3.69746 1.36679 0
M  V30 92 H 7.4805 -4.91426 1.31824 0
M  V30 93 H 6.8785 -5.3519 -1.83269 0
M  V30 94 H 5.4355 -6.28025 -1.74435 0
M  V30 95 N 8.8686 -0.792821 -1.36206 0
M  V30 96 C 9.7986 -0.207853 -2.32573 0
M  V30 97 C 10.7796 0.659055 -1.56813 0
M  V30 98 O 11.9646 0.592176 -1.84951 0
M  V30 99 C 9.0946 0.655449 -3.41059 0
M  V30 100 C 8.0486 -0.111842 -4.27854 0
M  V30 101 C 7.3746 0.872274 -5.27537 0
M  V30 102 C 8.6746 -1.30299 -5.05786 0
M  V30 103 H 10.3686 -1.01294 -2.81744 0
M  V30 104 H 7.9146 -0.48854 -1.3546 0
M  V30 105 H 9.8676 1.07464 -4.07467 0
M  V30 106 H 8.5916 1.49328 -2.90463 0
M  V30 107 H 7.2506 -0.512053 -3.63006 0
M  V30 108 H 6.8986 1.70523 -4.73214 0
M  V30 109 H 6.5986 0.363291 -5.86476 0
M  V30 110 H 8.1226 1.28996 -5.96818 0
M  V30 111 H 9.5366 -0.959379 -5.65216 0
M  V30 112 H 7.9336 -1.7455 -5.74154 0
M  V30 113 H 9.0036 -2.09663 -4.37229 0
M  V30 114 N 10.3467 1.47872 -0.545128 0
M  V30 115 C 11.7627 1.5829 -0.204032 0
M  V30 116 C 11.9627 1.54529 1.29317 0
M  V30 117 O 11.0187 1.44232 2.07252 0
M  V30 118 C 12.3317 2.89304 -0.819987 0
M  V30 119 C 13.8797 3.02864 -0.790105 0
M  V30 120 C 14.3547 4.3656 -1.38491 0
M  V30 121 N 15.8457 4.43165 -1.34755 0
M  V30 122 C 16.5807 5.45153 -1.77753 0
M  V30 123 N 16.0767 6.54016 -2.2855 0
M  V30 124 N 17.8697 5.36125 -1.68897 0
M  V30 125 H 10.0207 1.4856 -1.51802 0
M  V30 126 H 12.2837 0.706305 -0.632327 0
M  V30 127 H 11.9897 2.97757 -1.87173 0
M  V30 128 H 11.8637 3.75957 -0.305915 0
M  V30 129 H 14.2507 2.94014 0.252913 0
M  V30 130 H 14.3317 2.17782 -1.34181 0
M  V30 131 H 13.9757 4.46164 -2.42693 0
M  V30 132 H 13.9057 5.20353 -0.808754 0
M  V30 133 H 16.3967 3.65083 -0.975855 0
M  V30 134 H 16.7097 7.27994 -2.59314 0
M  V30 135 H 15.0547 6.54938 -2.32553 0
M  V30 136 H 18.2457 4.49975 -1.28998 0
M  V30 137 H 18.4187 6.15472 -2.02726 0
M  V30 138 N 11.8248 0.280983 1.55075 0
M  V30 139 C 12.7548 -0.597469 2.25727 0
M  V30 140 C 13.7358 -1.15417 1.24952 0
M  V30 141 O 14.9208 -1.18722 1.53684 0
M  V30 142 C 12.0508 -1.7789 2.98283 0
M  V30 143 C 11.0048 -1.35347 4.06036 0
M  V30 144 C 10.3308 -2.61846 4.66198 0
M  V30 145 C 11.6308 -0.499354 5.19907 0
M  V30 146 H 13.3248 -0.00824265 2.99399 0
M  V30 147 H 10.8708 -0.0025244 1.44 0
M  V30 148 H 12.8238 -2.39937 3.46422 0
M  V30 149 H 11.5478 -2.39405 2.22155 0
M  V30 150 H 10.2068 -0.756156 3.58717 0
M  V30 151 H 9.8548 -3.21632 3.86732 0
M  V30 152 H 9.5548 -2.3409 5.38958 0
M  V30 153 H 11.0788 -3.24732 5.1709 0
M  V30 154 H 12.4928 -1.02498 5.64063 0
M  V30 155 H 10.8898 -0.316424 5.99265 0
M  V30 156 H 11.9598 0.480459 4.82514 0
M  V30 157 N 13.3029 -1.57598 0.00835791 0
M  V30 158 C 14.2329 -2.1198 -0.979113 0
M  V30 159 C 15.2139 -1.03091 -1.35301 0
M  V30 160 O 16.3989 -1.30818 -1.43528 0
M  V30 161 C 13.5289 -2.62995 -2.26828 0
M  V30 162 C 12.4829 -3.76485 -2.03576 0
M  V30 163 C 11.8089 -4.13846 -3.38579 0
M  V30 164 C 13.1089 -5.0342 -1.39161 0
M  V30 165 H 14.8029 -2.94738 -0.526281 0
M  V30 166 H 12.3489 -1.41783 -0.251704 0
M  V30 167 H 14.3019 -2.99669 -2.96271 0
M  V30 168 H 13.0259 -1.7737 -2.7424 0
M  V30 169 H 11.6849 -3.40217 -1.36557 0
M  V30 170 H 11.3329 -3.25232 -3.83709 0
M  V30 171 H 11.0329 -4.90312 -3.23834 0
M  V30 172 H 12.5569 -4.53086 -4.09323 0
M  V30 173 H 13.9709 -5.37812 -1.98573 0
M  V30 174 H 12.3679 -5.84746 -1.34878 0
M  V30 175 H 13.4379 -4.83548 -0.361868 0
M  V30 176 N 14.781 0.264519 -1.55364 0
M  V30 177 C 15.711 1.33121 -1.91836 0
M  V30 178 C 16.692 1.51101 -0.781192 0
M  V30 179 O 17.877 1.64003 -1.04003 0
M  V30 180 C 15.007 2.68921 -2.19769 0
M  V30 181 C 13.961 2.65661 -3.35571 0
M  V30 182 C 13.287 4.05093 -3.49004 0
M  V30 183 C 14.587 2.24187 -4.71739 0
M  V30 184 H 16.281 1.02844 -2.81182 0
M  V30 185 H 13.827 0.493286 -1.35287 0
M  V30 186 H 15.78 3.43663 -2.43872 0
M  V30 187 H 14.504 3.00799 -1.27231 0
M  V30 188 H 13.163 1.93377 -3.1145 0
M  V30 189 H 12.811 4.34206 -2.53917 0
M  V30 190 H 12.511 4.03804 -4.26868 0
M  V30 191 H 14.035 4.81561 -3.75408 0
M  V30 192 H 15.449 2.88654 -4.9533 0
M  V30 193 H 13.846 2.34044 -5.52579 0
M  V30 194 H 14.916 1.19327 -4.69988 0
M  V30 195 N 16.2591 1.48442 0.529413 0
M  V30 196 C 17.5051 1.57699 1.28463 0
M  V30 197 C 17.8601 0.247913 1.90796 0
M  V30 198 O 17.1531 -0.749279 1.76342 0
M  V30 199 C 17.3471 2.6523 2.39558 0
M  V30 200 C 17.1761 4.08464 1.88114 0
M  V30 201 C 15.9461 4.75596 1.70693 0
M  V30 202 C 18.1441 4.94613 1.40935 0
M  V30 203 N 16.1261 6.03245 1.13881 0
M  V30 204 C 17.4971 6.12511 0.960734 0
M  V30 205 C 19.5521 4.80833 1.29243 0
M  V30 206 C 18.2551 7.18149 0.406792 0
M  V30 207 C 20.2811 5.86593 0.752487 0
M  V30 208 C 19.6431 7.037 0.313946 0
M  V30 209 H 15.7421 0.631608 0.46108 0
M  V30 210 H 18.3261 1.85325 0.596886 0
M  V30 211 H 16.4971 2.39425 3.05827 0
M  V30 212 H 18.2291 2.64169 3.06589 0
M  V30 213 H 14.9841 4.31938 1.94232 0
M  V30 214 H 15.4081 6.71324 0.874831 0
M  V30 215 H 20.0501 3.90635 1.61754 0
M  V30 216 H 17.7681 8.0807 0.0693671 0
M  V30 217 H 21.3541 5.77985 0.665192 0
M  V30 218 H 20.2341 7.8414 -0.0973632 0
M  V30 219 N 17.7372 -0.778329 1.37039 0
M  V30 220 C 18.6842 -1.89139 1.32269 0
M  V30 221 C 19.6542 -1.65017 0.189387 0
M  V30 222 O 20.8392 -1.87024 0.377693 0
M  V30 223 C 17.9792 -3.26112 1.12894 0
M  V30 224 C 17.0922 -3.62233 2.35396 0
M  V30 225 C 16.2272 -4.8838 2.08946 0
M  V30 226 C 15.2662 -5.17212 3.2735 0
M  V30 227 N 14.4032 -6.34546 3.00492 0
M  V30 228 H 19.2432 -1.92552 2.27437 0
M  V30 229 H 16.7802 -0.941473 1.13025 0
M  V30 230 H 18.7382 -4.05116 0.996835 0
M  V30 231 H 17.3682 -3.22091 0.213758 0
M  V30 232 H 16.4202 -2.78265 2.5937 0
M  V30 233 H 17.7322 -3.79481 3.23721 0
M  V30 234 H 16.8862 -5.75274 1.92729 0
M  V30 235 H 15.6252 -4.73222 1.17949 0
M  V30 236 H 14.6302 -4.28796 3.44113 0
M  V30 237 H 15.8552 -5.34283 4.19188 0
M  V30 238 H 13.8012 -6.20759 2.12118 0
M  V30 239 H 13.7182 -6.52179 3.82358 0
M  V30 240 H 14.9862 -7.24394 2.87879 0
M  V30 241 N 19.2153 -1.21501 -1.00376 0
M  V30 242 C 20.1633 -0.972442 -2.11297 0
M  V30 243 C 21.1573 0.080731 -1.69208 0
M  V30 244 O 22.3633 -0.0707666 -1.79861 0
M  V30 245 H 18.7383 -0.297218 -0.690772 0
M  V30 246 H 20.7093 -1.91394 -2.28934 0
M  V30 247 C 19.4583 -0.555065 -3.43241 0
M  V30 248 H 18.7813 -1.35709 -3.76062 0
M  V30 249 H 20.2213 -0.424664 -4.21868 0
M  V30 250 C 18.6803 0.734147 -3.28804 0
M  V30 251 O 19.2103 1.78937 -3.59645 0
M  V30 252 N 17.4163 0.701133 -2.82015 0
M  V30 253 H 16.9633 -0.157874 -2.57116 0
M  V30 254 H 16.9213 1.56403 -2.72737 0
M  V30 255 N 20.6934 1.19889 -1.02296 0
M  V30 256 C 21.6234 2.25141 -0.619174 0
M  V30 257 C 22.6044 1.66051 0.368915 0
M  V30 258 O 23.7894 1.92546 0.252941 0
M  V30 259 C 20.9194 3.4728 0.0368783 0
M  V30 260 C 19.8734 4.19005 -0.872865 0
M  V30 261 C 19.1994 5.34637 -0.0822402 0
M  V30 262 C 20.4994 4.74452 -2.18387 0
M  V30 263 H 22.1934 2.59171 -1.49903 0
M  V30 264 H 19.7394 1.24579 -0.722222 0
M  V30 265 H 21.6924 4.20098 0.330958 0
M  V30 266 H 20.4164 3.12433 0.95149 0
M  V30 267 H 19.0754 3.48061 -1.15105 0
M  V30 268 H 18.7234 4.96034 0.83422 0
M  V30 269 H 18.4234 5.83557 -0.688149 0
M  V30 270 H 19.9474 6.10255 0.205238 0
M  V30 271 H 21.3614 5.39055 -1.95172 0
M  V30 272 H 19.7584 5.33834 -2.74119 0
M  V30 273 H 20.8284 3.92844 -2.84257 0
M  V30 274 N 22.1715 0.800033 1.35784 0
M  V30 275 C 23.3995 0.389606 2.03199 0
M  V30 276 C 23.8145 -0.997375 1.60306 0
M  V30 277 O 23.1715 -1.64154 0.797481 0
M  V30 278 C 23.2225 0.455855 3.58614 0
M  V30 279 O 22.9435 1.78815 3.99946 0
M  V30 280 C 24.4445 0.0374032 4.43284 0
M  V30 281 H 21.6645 0.159132 0.651857 0
M  V30 282 H 24.2085 1.08183 1.73541 0
M  V30 283 H 22.3635 -0.188057 3.86943 0
M  V30 284 H 22.7775 1.74636 4.94573 0
M  V30 285 H 24.2515 0.134882 5.51835 0
M  V30 286 H 24.7285 -1.01651 4.27275 0
M  V30 287 H 25.3345 0.654215 4.20238 0
M  V30 288 N 23.6496 -1.47581 0.552962 0
M  V30 289 C 24.8966 -2.02482 0.0273243 0
M  V30 290 C 25.2246 -1.42776 -1.32081 0
M  V30 291 O 24.4796 -0.571393 -1.87173 0
M  V30 292 C 24.7786 -3.57199 -0.119728 0
M  V30 293 C 24.4446 -4.35804 1.15697 0
M  V30 294 C 23.1066 -4.57 1.50681 0
M  V30 295 C 25.4586 -4.81167 2.00319 0
M  V30 296 C 22.7866 -5.20807 2.70142 0
M  V30 297 C 25.1386 -5.46293 3.18978 0
M  V30 298 C 23.8026 -5.65722 3.54281 0
M  V30 299 H 23.0726 -0.740933 0.00999866 0
M  V30 300 H 25.7196 -1.77302 0.72362 0
M  V30 301 H 24.0246 -3.81348 -0.89896 0
M  V30 302 H 25.7216 -3.97324 -0.541718 0
M  V30 303 H 22.3116 -4.19582 0.874561 0
M  V30 304 H 26.4956 -4.64574 1.74599 0
M  V30 305 H 21.7516 -5.34045 2.97668 0
M  V30 306 H 25.9256 -5.80407 3.84838 0
M  V30 307 H 23.5526 -6.14936 4.46942 0
M  V30 308 N 25.1277 -0.289203 -1.54924 0
M  V30 309 C 26.5437 0.0645403 -1.59469 0
M  V30 310 C 26.7437 1.53419 -1.30632 0
M  V30 311 O 25.7997 2.2852 -1.074 0
M  V30 312 C 27.1127 -0.32278 -2.98963 0
M  V30 313 C 28.6607 -0.270564 -3.11828 0
M  V30 314 C 29.1357 -0.632532 -4.53611 0
M  V30 315 N 30.6267 -0.584617 -4.59496 0
M  V30 316 C 31.3617 -0.837314 -5.67254 0
M  V30 317 N 30.8577 -1.15536 -6.83098 0
M  V30 318 N 32.6507 -0.765166 -5.56868 0
M  V30 319 H 24.8017 -1.24714 -1.71931 0
M  V30 320 H 27.0647 -0.504809 -0.802416 0
M  V30 321 H 26.7707 -1.34541 -3.24948 0
M  V30 322 H 26.6447 0.32944 -3.75759 0
M  V30 323 H 29.0317 0.742805 -2.85598 0
M  V30 324 H 29.1127 -0.957242 -2.37214 0
M  V30 325 H 28.7567 -1.64365 -4.80569 0
M  V30 326 H 28.6867 0.07609 -5.26545 0
M  V30 327 H 31.1777 -0.349248 -3.76283 0
M  V30 328 H 31.4907 -1.33447 -7.61191 0
M  V30 329 H 29.8357 -1.19328 -6.84679 0
M  V30 330 H 33.0267 -0.516432 -4.65243 0
M  V30 331 H 33.1997 -0.965477 -6.40767 0
M  V30 332 N 26.6058 1.57591 -0.0167156 0
M  V30 333 C 28.0218 1.55946 0.339557 0
M  V30 334 C 28.2218 1.02109 1.73713 0
M  V30 335 O 27.2778 0.662303 2.43659 0
M  V30 336 C 28.5908 3.00037 0.199499 0
M  V30 337 C 30.1388 3.11805 0.273193 0
M  V30 338 C 30.6138 4.57713 0.162068 0
M  V30 339 N 32.1048 4.6268 0.219444 0
M  V30 340 C 32.8398 5.73185 0.157054 0
M  V30 341 N 32.3358 6.92786 0.0442936 0
M  V30 342 N 34.1288 5.61707 0.21014 0
M  V30 343 H 26.2798 1.90921 -0.930758 0
M  V30 344 H 28.5428 0.877674 -0.358319 0
M  V30 345 H 28.2488 3.4333 -0.76273 0
M  V30 346 H 28.1228 3.64387 0.974786 0
M  V30 347 H 30.5098 2.68433 1.22587 0
M  V30 348 H 30.5908 2.50201 -0.532256 0
M  V30 349 H 30.2348 5.01763 -0.78714 0
M  V30 350 H 30.1648 5.17283 0.986222 0
M  V30 351 H 32.6558 3.76649 0.307246 0
M  V30 352 H 32.9688 7.728 0.00304069 0
M  V30 353 H 31.3138 6.94999 0.00968457 0
M  V30 354 H 34.5048 4.6716 0.296546 0
M  V30 355 H 34.6778 6.47807 0.158054 0
M  V30 356 N 28.0839 -0.256276 1.55502 0
M  V30 357 C 29.4999 -0.604325 1.47716 0
M  V30 358 C 29.6999 -1.88763 0.705039 0
M  V30 359 O 28.7559 -2.51445 0.230613 0
M  V30 360 C 30.0689 -0.715756 2.92057 0
M  V30 361 C 31.6169 -0.808706 3.02372 0
M  V30 362 C 32.0919 -0.951777 4.48001 0
M  V30 363 N 33.5829 -1.01688 4.519 0
M  V30 364 C 34.3179 -1.14668 5.61817 0
M  V30 365 N 33.8139 -1.24261 6.81565 0
M  V30 366 N 35.6069 -1.1791 5.49594 0
M  V30 367 H 27.7579 0.586291 2.04148 0
M  V30 368 H 30.0209 0.201015 0.926443 0
M  V30 369 H 29.7269 0.157027 3.51349 0
M  V30 370 H 29.6009 -1.59071 3.42018 0
M  V30 371 H 31.9879 -1.67195 2.43166 0
M  V30 372 H 32.0689 0.0912063 2.55637 0
M  V30 373 H 31.7129 -0.0931291 5.07815 0
M  V30 374 H 31.6429 -1.86659 4.92408 0
M  V30 375 H 34.1339 -0.954468 3.65648 0
M  V30 376 H 34.4469 -1.34046 7.61086 0
M  V30 377 H 32.7919 -1.21236 6.84344 0
M  V30 378 H 35.9829 -1.10057 4.54978 0
M  V30 379 H 36.1559 -1.27681 6.35296 0
M  V30 380 N 29.562 -1.4872 -0.521534 0
M  V30 381 C 30.494 -1.59968 -1.64143 0
M  V30 382 C 31.507 -0.483463 -1.55456 0
M  V30 383 O 32.696 -0.75467 -1.61762 0
M  V30 384 C 29.796 -1.52127 -3.02838 0
M  V30 385 C 28.969 -2.78932 -3.36921 0
M  V30 386 C 28.028 -2.64428 -4.54933 0
M  V30 387 O 27.054 -3.38331 -4.57735 0
M  V30 388 N 28.256 -1.74606 -5.53618 0
M  V30 389 H 31.021 -2.56548 -1.54929 0
M  V30 390 H 28.582 -1.45551 -0.708988 0
M  V30 391 H 30.574 -1.40106 -3.79674 0
M  V30 392 H 29.144 -0.634868 -3.06085 0
M  V30 393 H 28.364 -3.05455 -2.4918 0
M  V30 394 H 29.652 -3.63041 -3.56481 0
M  V30 395 H 29.05 -1.13782 -5.54139 0
M  V30 396 H 27.607 -1.6852 -6.29638 0
M  V30 397 N 31.0401 0.771051 -1.3745 0
M  V30 398 C 32.2681 1.56015 -1.35893 0
M  V30 399 C 32.6831 1.88718 0.0555523 0
M  V30 400 O 32.0401 1.51502 1.01752 0
M  V30 401 C 32.0911 2.87001 -2.19801 0
M  V30 402 O 31.8121 2.557 -3.55738 0
M  V30 403 C 33.3131 3.81228 -2.26231 0
M  V30 404 H 30.5331 0.483317 -0.465453 0
M  V30 405 H 33.0771 0.955611 -1.80799 0
M  V30 406 H 31.2321 3.43877 -1.78402 0
M  V30 407 H 31.6461 3.39584 -3.99729 0
M  V30 408 H 33.1201 4.70139 -2.89263 0
M  V30 409 H 33.5971 4.20409 -1.27093 0
M  V30 410 H 34.2031 3.30281 -2.67945 0
M  V30 411 N 32.5182 1.22032 0.997298 0
M  V30 412 C 33.7582 1.05375 1.75144 0
M  V30 413 C 34.1222 -0.404696 1.87686 0
M  V30 414 O 35.3232 -0.691998 2.5974 0
M  V30 415 C 33.5942 1.74046 3.12158 0
M  V30 416 S 35.1532 1.72745 4.03366 0
M  V30 417 H 31.9712 0.377449 0.602539 0
M  V30 418 H 34.5732 1.54902 1.19272 0
M  V30 419 H 33.2772 2.79332 3.00669 0
M  V30 420 H 32.8082 1.24731 3.73103 0
M  V30 421 H 34.8232 0.774015 4.90126 0
M  V30 422 N 33.9963 -1.19345 1.0293 0
M  V30 423 C 34.9283 -2.22036 0.56857 0
M  V30 424 C 35.9413 -1.58865 -0.355779 0
M  V30 425 O 37.1303 -1.77851 -0.152103 0
M  V30 426 C 34.2303 -3.38363 -0.190752 0
M  V30 427 C 33.4033 -4.31118 0.738643 0
M  V30 428 C 32.4623 -5.26194 0.0246497 0
M  V30 429 O 31.4883 -5.65461 0.651354 0
M  V30 430 N 32.6903 -5.66971 -1.24594 0
M  V30 431 H 35.4553 -2.6219 1.45177 0
M  V30 432 H 33.0163 -1.34015 0.908381 0
M  V30 433 H 35.0083 -3.98981 -0.677961 0
M  V30 434 H 33.5783 -2.96994 -0.975366 0
M  V30 435 H 32.7983 -3.68276 1.40593 0
M  V30 436 H 34.0863 -4.90001 1.37029 0
M  V30 437 H 33.4843 -5.37104 -1.77583 0
M  V30 438 H 32.0413 -6.2984 -1.67764 0
M  V30 439 N 35.4744 -0.807222 -1.35358 0
M  V30 440 C 36.4044 -0.232509 -2.3234 0
M  V30 441 C 37.3854 0.642386 -1.57504 0
M  V30 442 O 38.5704 0.572526 -1.85569 0
M  V30 443 C 35.7004 0.619238 -3.41735 0
M  V30 444 C 34.6544 -0.157215 -4.27711 0
M  V30 445 C 33.9804 0.816273 -5.28433 0
M  V30 446 C 35.2804 -1.35656 -5.04376 0
M  V30 447 H 36.9744 -1.04276 -2.80654 0
M  V30 448 H 34.5204 -0.50288 -1.34934 0
M  V30 449 H 36.4734 1.03137 -4.08584 0
M  V30 450 H 35.1974 1.46239 -2.92031 0
M  V30 451 H 33.8564 -0.550525 -3.62443 0
M  V30 452 H 33.5044 1.65494 -4.74996 0
M  V30 453 H 33.2044 0.301067 -5.86828 0
M  V30 454 H 34.7284 1.22659 -5.98153 0
M  V30 455 H 36.1424 -1.01927 -5.64166 0
M  V30 456 H 34.5394 -1.8063 -5.7227 0
M  V30 457 H 35.6094 -2.14288 -4.34981 0
M  V30 458 N 36.9525 1.47285 -0.560781 0
M  V30 459 C 37.8825 2.32857 0.173105 0
M  V30 460 C 38.8635 1.44009 0.905281 0
M  V30 461 O 40.0485 1.7286 0.885046 0
M  V30 462 C 37.1785 3.25861 1.20133 0
M  V30 463 C 36.1325 4.23978 0.585388 0
M  V30 464 C 35.4585 5.06332 1.7185 0
M  V30 465 C 36.7585 5.20242 -0.463178 0
M  V30 466 H 38.4525 2.94466 -0.541307 0
M  V30 467 H 35.9985 1.41601 -0.261764 0
M  V30 468 H 37.9515 3.84569 1.72293 0
M  V30 469 H 36.6755 2.62315 1.94573 0
M  V30 470 H 35.3345 3.66501 0.085054 0
M  V30 471 H 34.9825 4.39186 2.45203 0
M  V30 472 H 34.6825 5.72762 1.31213 0
M  V30 473 H 36.2065 5.67899 2.24329 0
M  V30 474 H 37.6205 5.73293 -0.027502 0
M  V30 475 H 36.0175 5.94896 -0.788627 0
M  V30 476 H 37.0875 4.65504 -1.35773 0
M  V30 477 N 38.4306 0.297415 1.54768 0
M  V30 478 C 39.3606 -0.573494 2.26348 0
M  V30 479 C 40.3416 -1.14085 1.26169 0
M  V30 480 O 41.5266 -1.17086 1.54934 0
M  V30 481 C 38.6566 -1.74716 3.00153 0
M  V30 482 C 37.6106 -1.31032 4.07449 0
M  V30 483 C 36.9366 -2.56887 4.68949 0
M  V30 484 C 38.2366 -0.444183 5.20408 0
M  V30 485 H 39.9306 0.0235131 2.99391 0
M  V30 486 H 37.4766 0.0127488 1.43994 0
M  V30 487 H 39.4296 -2.3625 3.48947 0
M  V30 488 H 38.1536 -2.37035 2.24682 0
M  V30 489 H 36.8126 -0.718066 3.59499 0
M  V30 490 H 36.4606 -3.17512 3.90122 0
M  V30 491 H 36.1606 -2.2836 5.41411 0
M  V30 492 H 37.6846 -3.19229 5.20505 0
M  V30 493 H 39.0986 -0.9651 5.65118 0
M  V30 494 H 37.4956 -0.252846 5.99567 0
M  V30 495 H 38.5656 0.531609 4.81977 0
M  V30 496 N 39.9087 -1.5758 0.0250728 0
M  V30 497 C 40.8187 -2.1343 -0.973905 0
M  V30 498 C 41.8347 -1.08556 -1.35984 0
M  V30 499 O 43.0107 -1.40592 -1.44207 0
M  V30 500 C 40.0757 -2.64703 -2.23904 0
M  V30 501 C 39.1367 -3.84276 -1.91391 0
M  V30 502 C 38.3697 -4.33095 -3.11873 0
M  V30 503 O 38.5927 -3.81107 -4.24398 0
M  V30 504 O 37.5267 -5.24984 -2.94406 0
M  V30 505 H 41.3527 -2.99057 -0.529036 0
M  V30 506 H 38.9377 -1.48118 -0.195288 0
M  V30 507 H 40.8197 -2.97769 -2.98181 0
M  V30 508 H 39.4947 -1.82161 -2.6758 0
M  V30 509 H 38.4017 -3.56143 -1.14511 0
M  V30 510 H 39.7347 -4.67968 -1.52534 0
M  V30 511 N 41.3868 0.248026 -1.55636 0
M  V30 512 C 42.6328 0.97767 -1.77678 0
M  V30 513 C 42.9658 1.85016 -0.590135 0
M  V30 514 O 42.2408 1.90095 0.411611 0
M  V30 515 C 42.5238 1.83914 -3.09593 0
M  V30 516 C 42.3768 0.99491 -4.38659 0
M  V30 517 C 43.6958 2.82183 -3.37729 0
M  V30 518 H 40.8148 0.354005 -0.646413 0
M  V30 519 H 43.4568 0.248253 -1.88371 0
M  V30 520 H 41.6068 2.46104 -3.00608 0
M  V30 521 H 43.2788 0.391789 -4.59633 0
M  V30 522 H 41.5218 0.299231 -4.32767 0
M  V30 523 H 42.1928 1.63145 -5.2734 0
M  V30 524 H 44.6688 2.30129 -3.4667 0
M  V30 525 H 43.5448 3.39582 -4.31249 0
M  V30 526 H 43.8058 3.58588 -2.58586 0
M  V30 527 N 42.8649 1.48995 0.513639 0
M  V30 528 C 43.8279 1.64229 1.59879 0
M  V30 529 C 44.8279 0.514696 1.5234 0
M  V30 530 O 46.0179 0.78087 1.55718 0
M  V30 531 C 43.1499 1.62783 2.99524 0
M  V30 532 H 44.3429 2.61004 1.47705 0
M  V30 533 H 41.8959 1.37837 0.736936 0
M  V30 534 H 42.6309 0.675461 3.17188 0
M  V30 535 H 42.4159 2.4466 3.06404 0
M  V30 536 H 43.9059 1.76669 3.78388 0
M  V30 537 N 44.343 -0.763751 1.37857 0
M  V30 538 C 45.589 -1.52396 1.3471 0
M  V30 539 C 45.944 -1.92288 -0.0656435 0
M  V30 540 O 45.237 -1.6181 -1.02606 0
M  V30 541 C 45.431 -2.79499 2.22745 0
M  V30 542 C 45.26 -2.52031 3.72438 0
M  V30 543 C 44.03 -2.45759 4.4151 0
M  V30 544 C 46.228 -2.19489 4.65112 0
M  V30 545 N 44.21 -2.1046 5.76697 0
M  V30 546 C 45.581 -1.94396 5.88736 0
M  V30 547 C 47.636 -2.05712 4.53417 0
M  V30 548 C 46.339 -1.56917 7.01975 0
M  V30 549 C 48.365 -1.69634 5.66549 0
M  V30 550 C 47.727 -1.45407 6.89229 0
M  V30 551 H 43.826 -0.55765 0.548225 0
M  V30 552 H 46.41 -0.890302 1.73152 0
M  V30 553 H 44.581 -3.4069 1.86507 0
M  V30 554 H 46.313 -3.45465 2.10798 0
M  V30 555 H 43.068 -2.61885 3.94605 0
M  V30 556 H 43.492 -1.95484 6.48163 0
M  V30 557 H 48.134 -2.23123 3.59133 0
M  V30 558 H 45.852 -1.38246 7.96187 0
M  V30 559 H 49.438 -1.59621 5.59475 0
M  V30 560 H 48.318 -1.17904 7.75286 0
M  V30 561 N 45.8211 -1.22559 -0.990812 0
M  V30 562 C 47.2321 -1.04791 -1.54518 0
M  V30 563 C 47.5831 0.387998 -1.92325 0
M  V30 564 O 46.7081 1.27328 -1.74976 0
M  V30 565 C 47.3031 -1.896 -2.80779 0
M  V30 566 C 45.8621 -1.76124 -3.32652 0
M  V30 567 C 45.0091 -1.8594 -2.05722 0
M  V30 568 H 47.9601 -1.36374 -0.811662 0
M  V30 569 H 47.9811 -1.41464 -3.53225 0
M  V30 570 H 47.4931 -2.94101 -2.53231 0
M  V30 571 H 45.5941 -0.743643 -3.65104 0
M  V30 572 H 45.7071 -2.58913 -4.03114 0
M  V30 573 H 44.0711 -1.29403 -2.19379 0
M  V30 574 H 44.8541 -2.91976 -1.80568 0
M  V30 575 N 47.2992 1.18797 -1.03562 0
M  V30 576 C 48.2292 2.24472 -0.643019 0
M  V30 577 C 49.2102 1.66433 0.351283 0
M  V30 578 O 50.3952 1.92803 0.232505 0
M  V30 579 C 47.5252 3.473 4.24935e-05 0
M  V30 580 C 46.4792 4.18055 -0.917257 0
M  V30 581 C 45.8052 5.34519 -0.138941 0
M  V30 582 C 47.1052 4.72109 -2.23407 0
M  V30 583 H 48.7992 2.57566 -1.52643 0
M  V30 584 H 46.3452 1.23806 -0.735394 0
M  V30 585 H 48.2982 4.20426 0.286383 0
M  V30 586 H 47.0222 3.13424 0.918299 0
M  V30 587 H 45.6812 3.46821 -1.1879 0
M  V30 588 H 45.3292 4.96891 0.781562 0
M  V30 589 H 45.0292 5.82794 -0.750005 0
M  V30 590 H 46.5532 6.10438 0.1405 0
M  V30 591 H 47.9672 5.36955 -2.00879 0
M  V30 592 H 46.3642 5.30897 -2.79765 0
M  V30 593 H 47.4342 3.89807 -2.88407 0
M  V30 594 N 48.7773 0.814389 1.34928 0
M  V30 595 C 50.0243 0.398423 1.98542 0
M  V30 596 C 50.3523 -1.03638 1.64589 0
M  V30 597 O 49.6073 -1.73509 0.90516 0
M  V30 598 C 49.9063 0.537781 3.53331 0
M  V30 599 C 49.5723 1.93704 4.07172 0
M  V30 600 C 48.2343 2.31984 4.21589 0
M  V30 601 C 50.5863 2.85213 4.36237 0
M  V30 602 C 47.9143 3.61125 4.62391 0
M  V30 603 C 50.2663 4.13809 4.78482 0
M  V30 604 C 48.9303 4.52077 4.91104 0
M  V30 605 H 48.2003 0.145793 0.726516 0
M  V30 606 H 50.8473 1.03669 1.61012 0
M  V30 607 H 49.1523 -0.183906 3.91368 0
M  V30 608 H 50.8493 0.196588 4.00518 0
M  V30 609 H 47.4393 1.62966 3.96409 0
M  V30 610 H 51.6233 2.56885 4.24645 0
M  V30 611 H 46.8793 3.90612 4.70353 0
M  V30 612 H 51.0533 4.84811 4.99932 0
M  V30 613 H 48.6803 5.52196 5.22478 0
M  V30 614 N 50.2554 -1.46986 0.568584 0
M  V30 615 C 51.5044 -2.01646 0.0465894 0
M  V30 616 C 51.8174 -1.44721 -1.31587 0
M  V30 617 O 53.0234 -1.91113 -1.92842 0
M  V30 618 C 51.4794 -3.59885 0.032752 0
M  V30 619 C 51.0874 -4.25804 1.39266 0
M  V30 620 C 52.8314 -4.22255 -0.436038 0
M  V30 621 C 50.7384 -5.76081 1.33732 0
M  V30 622 H 49.6684 -0.753876 0.013647 0
M  V30 623 H 52.3194 -1.68864 0.718131 0
M  V30 624 H 50.7014 -3.8968 -0.704669 0
M  V30 625 H 51.8754 -4.07637 2.1487 0
M  V30 626 H 50.1904 -3.7547 1.80032 0
M  V30 627 H 52.7874 -5.32394 -0.49602 0
M  V30 628 H 53.1304 -3.90212 -1.45053 0
M  V30 629 H 53.6634 -3.97033 0.246877 0
M  V30 630 H 50.4024 -6.12761 2.32817 0
M  V30 631 H 49.9224 -5.96553 0.623267 0
M  V30 632 H 51.6014 -6.38518 1.0442 0
M  V30 633 N 51.7335 -0.305618 -1.54608 0
M  V30 634 C 52.9805 0.302298 -2.00231 0
M  V30 635 C 53.3085 1.5354 -1.19398 0
M  V30 636 O 52.5635 1.93973 -0.259423 0
M  V30 637 C 52.8625 0.698983 -3.50498 0
M  V30 638 C 52.5285 -0.432903 -4.48817 0
M  V30 639 C 51.1905 -0.743622 -4.75419 0
M  V30 640 C 53.5425 -1.19409 -5.07337 0
M  V30 641 C 50.8705 -1.81857 -5.57804 0
M  V30 642 C 53.2225 -2.25899 -5.90891 0
M  V30 643 C 51.8865 -2.57572 -6.15803 0
M  V30 644 H 51.1565 0.110619 -0.732697 0
M  V30 645 H 53.8035 -0.425674 -1.86709 0
M  V30 646 H 52.1085 1.50711 -3.61654 0
M  V30 647 H 53.8055 1.1806 -3.83227 0
M  V30 648 H 50.3955 -0.18063 -4.28219 0
M  V30 649 H 54.5795 -0.967295 -4.86782 0
M  V30 650 H 49.8355 -2.06864 -5.75341 0
M  V30 651 H 54.0095 -2.85335 -6.35261 0
M  V30 652 H 51.6365 -3.40998 -6.7943 0
M  V30 653 N 53.2116 1.57565 -0.0334293 0
M  V30 654 C 54.1416 2.13511 0.945265 0
M  V30 655 C 55.1226 1.05231 1.33643 0
M  V30 656 O 56.3076 1.33084 1.41429 0
M  V30 657 C 53.4376 2.6657 2.22616 0
M  V30 658 C 52.3916 3.79676 1.97561 0
M  V30 659 C 51.7176 4.1918 3.31952 0
M  V30 660 C 53.0176 5.0557 1.31135 0
M  V30 661 H 54.7116 2.95538 0.479325 0
M  V30 662 H 52.2576 1.42166 0.229115 0
M  V30 663 H 54.2106 3.04344 2.91466 0
M  V30 664 H 52.9346 1.8171 2.71384 0
M  V30 665 H 51.5936 3.42347 1.31127 0
M  V30 666 H 51.2416 3.31296 3.78487 0
M  V30 667 H 50.9416 4.95402 3.15992 0
M  V30 668 H 52.4656 4.59541 4.02063 0
M  V30 669 H 53.8796 5.40903 1.89992 0
M  V30 670 H 52.2766 5.86818 1.25559 0
M  V30 671 H 53.3466 4.84062 0.284894 0
M  V30 672 N 54.6897 -0.239769 1.55765 0
M  V30 673 C 55.9387 -0.964754 1.77131 0
M  V30 674 C 56.2517 -1.86213 0.59868 0
M  V30 675 O 57.4577 -2.6244 0.695522 0
M  V30 676 C 55.9137 -1.76552 3.1362 0
M  V30 677 C 55.5217 -0.915185 4.38553 0
M  V30 678 C 57.2657 -2.48281 3.44321 0
M  V30 679 C 55.1727 -1.71225 5.66071 0
M  V30 680 H 54.1027 -0.363953 0.660344 0
M  V30 681 H 56.7537 -0.219181 1.82186 0
M  V30 682 H 55.1357 -2.55331 3.02691 0
M  V30 683 H 56.3097 -0.169217 4.60489 0
M  V30 684 H 54.6247 -0.310889 4.15238 0
M  V30 685 H 57.2217 -3.08382 4.36812 0
M  V30 686 H 57.5647 -3.20256 2.65973 0
M  V30 687 H 58.0977 -1.76507 3.56497 0
M  V30 688 H 54.8367 -1.03612 6.4726 0
M  V30 689 H 54.3567 -2.43331 5.48224 0
M  V30 690 H 56.0357 -2.27758 6.05587 0
M  V30 691 N 56.1678 -1.49265 -0.50573 0
M  V30 692 C 57.0978 -1.68495 -1.61653 0
M  V30 693 C 58.0788 -0.53366 -1.61512 0
M  V30 694 O 59.2638 -0.76897 -1.78327 0
M  V30 695 C 56.3938 -1.74709 -3.00157 0
M  V30 696 C 55.3478 -2.89581 -3.15162 0
M  V30 697 C 54.6738 -2.80903 -4.5497 0
M  V30 698 C 55.9738 -4.30578 -2.95634 0
M  V30 699 H 57.6678 -2.61493 -1.45814 0
M  V30 700 H 55.2138 -1.25838 -0.70005 0
M  V30 701 H 57.1668 -1.86748 -3.77761 0
M  V30 702 H 55.8908 -0.783067 -3.17074 0
M  V30 703 H 54.5498 -2.77136 -2.39982 0
M  V30 704 H 54.1978 -1.82419 -4.68756 0
M  V30 705 H 53.8978 -3.57999 -4.65951 0
M  V30 706 H 55.4218 -2.94944 -5.34641 0
M  V30 707 H 56.8358 -4.4373 -3.63011 0
M  V30 708 H 55.2328 -5.0886 -3.18091 0
M  V30 709 H 56.3028 -4.45352 -1.91806 0
M  V30 710 N 57.6459 0.756429 -1.3826 0
M  V30 711 C 58.8949 1.51082 -1.3363 0
M  V30 712 C 59.2079 1.95467 0.0720068 0
M  V30 713 O 60.4139 2.7043 0.240834 0
M  V30 714 C 58.8699 2.72893 -2.34644 0
M  V30 715 C 58.4779 2.35544 -3.81081 0
M  V30 716 C 60.2219 3.50791 -2.39052 0
M  V30 717 C 58.1289 3.53948 -4.73787 0
M  V30 718 H 57.0589 0.56727 -0.49671 0
M  V30 719 H 59.7099 0.827147 -1.638 0
M  V30 720 H 58.0919 3.43227 -1.97513 0
M  V30 721 H 59.2659 1.72894 -4.27135 0
M  V30 722 H 57.5809 1.70786 -3.79764 0
M  V30 723 H 60.1779 4.38823 -3.05513 0
M  V30 724 H 60.5209 3.91745 -1.40861 0
M  V30 725 H 61.0539 2.87467 -2.74968 0
M  V30 726 H 57.7929 3.18064 -5.73163 0
M  V30 727 H 57.3129 4.15651 -4.32428 0
M  V30 728 H 58.9919 4.20566 -4.91663 0
M  V30 729 N 59.124 1.23083 0.984299 0
M  V30 730 C 60.349 1.088 1.76571 0
M  V30 731 C 60.774 -0.356657 1.84688 0
M  V30 732 O 60.132 -1.25788 1.30565 0
M  V30 733 C 60.18 1.71371 3.17277 0
M  V30 734 O 59.284 0.973213 4.00752 0
M  V30 735 H 58.625 0.381599 0.543395 0
M  V30 736 H 61.155 1.63057 1.23587 0
M  V30 737 H 61.165 1.76449 3.67872 0
M  V30 738 H 59.84 2.76493 3.10684 0
M  V30 739 H 58.417 0.999078 3.59267 0
M  V30 740 N 60.6021 -1.18246 1.0419 0
M  V30 741 C 61.8481 -1.88536 0.747122 0
M  V30 742 C 62.1811 -1.80223 -0.723409 0
M  V30 743 O 61.4561 -1.20337 -1.52804 0
M  V30 744 C 61.7391 -3.38968 1.21544 0
M  V30 745 C 61.5921 -3.56084 2.74816 0
M  V30 746 C 62.9111 -4.32648 0.806482 0
M  V30 747 H 60.0301 -0.684619 0.272883 0
M  V30 748 H 62.6721 -1.39113 1.29413 0
M  V30 749 H 60.8221 -3.8119 0.750081 0
M  V30 750 H 62.4941 -3.22946 3.29399 0
M  V30 751 H 60.7371 -2.98699 3.14582 0
M  V30 752 H 61.4081 -4.61639 3.02644 0
M  V30 753 H 63.8841 -3.98211 1.20695 0
M  V30 754 H 62.7601 -5.36462 1.1619 0
M  V30 755 H 63.0211 -4.41146 -0.29029 0
M  V30 756 N 62.0802 -0.821533 -1.34494 0
M  V30 757 C 63.4962 -0.507117 -1.51329 0
M  V30 758 C 63.6962 0.968964 -1.76673 0
M  V30 759 O 62.7522 1.75348 -1.81685 0
M  V30 760 C 64.0652 -1.36544 -2.67911 0
M  V30 761 C 65.6132 -1.36242 -2.81793 0
M  V30 762 C 66.0882 -2.2052 -4.01416 0
M  V30 763 N 67.5792 -2.18136 -4.08621 0
M  V30 764 C 68.3142 -2.80095 -5.00334 0
M  V30 765 N 67.8102 -3.51039 -5.9728 0
M  V30 766 N 69.6032 -2.69656 -4.93196 0
M  V30 767 H 61.7542 -1.77729 -1.16302 0
M  V30 768 H 64.0172 -0.757291 -0.570276 0
M  V30 769 H 63.7232 -2.41361 -2.55808 0
M  V30 770 H 63.5972 -1.02917 -3.62888 0
M  V30 771 H 65.9842 -0.322041 -2.93338 0
M  V30 772 H 66.0652 -1.73866 -1.87628 0
M  V30 773 H 65.7092 -3.24607 -3.90631 0
M  V30 774 H 65.6392 -1.80247 -4.94791 0
M  V30 775 H 68.1302 -1.6653 -3.39229 0
M  V30 776 H 68.4432 -3.95565 -6.63889 0
M  V30 777 H 66.7882 -3.55145 -5.97409 0
M  V30 778 H 69.9792 -2.13808 -4.16418 0
M  V30 779 H 70.1522 -3.1823 -5.64476 0
M  V30 780 N 63.5583 1.46682 -0.576371 0
M  V30 781 C 64.4883 2.33028 0.148397 0
M  V30 782 C 65.4693 1.44961 0.889956 0
M  V30 783 O 66.6543 1.73789 0.866662 0
M  V30 784 C 63.7843 3.27117 1.1667 0
M  V30 785 C 62.7383 4.24575 0.540386 0
M  V30 786 C 62.0643 5.08126 1.6647 0
M  V30 787 C 63.3643 5.19722 -0.518331 0
M  V30 788 H 65.0583 2.93875 -0.572509 0
M  V30 789 H 62.6043 1.41315 -0.276768 0
M  V30 790 H 64.5573 3.86374 1.68204 0
M  V30 791 H 63.2813 2.64364 1.9178 0
M  V30 792 H 61.9403 3.66571 0.0461769 0
M  V30 793 H 61.5883 4.41762 2.40531 0
M  V30 794 H 61.2883 5.74122 1.25131 0
M  V30 795 H 62.8123 5.70246 2.18293 0
M  V30 796 H 64.2263 5.73232 -0.0883058 0
M  V30 797 H 62.6233 5.94026 -0.851679 0
M  V30 798 H 63.6933 4.64037 -1.40703 0
M  V30 799 N 65.0364 0.313813 1.54444 0
M  V30 800 C 66.2614 -0.296681 2.05267 0
M  V30 801 C 66.6864 -1.45757 1.18897 0
M  V30 802 O 66.0444 -1.80239 0.195886 0
M  V30 803 C 66.0924 -0.71831 3.53373 0
M  V30 804 O 65.1964 -1.82175 3.69981 0
M  V30 805 H 64.5374 -0.0554061 0.661684 0
M  V30 806 H 67.0674 0.459387 1.99376 0
M  V30 807 H 67.0774 -1.00364 3.95463 0
M  V30 808 H 65.7524 0.130821 4.15694 0
M  V30 809 H 64.3294 -1.53598 3.39797 0
M  V30 810 N 66.5145 -1.57545 0.0417849 0
M  V30 811 C 67.7445 -1.96339 -0.642995 0
M  V30 812 C 68.1525 -0.917536 -1.65463 0
M  V30 813 O 67.4955 0.107747 -1.83384 0
M  V30 814 C 67.5575 -3.31333 -1.39494 0
M  V30 815 C 67.2215 -4.53796 -0.540204 0
M  V30 816 C 68.2185 -5.19553 0.189806 0
M  V30 817 C 65.9035 -5.0006 -0.473886 0
M  V30 818 C 67.8975 -6.29904 0.974674 0
M  V30 819 C 65.5845 -6.10289 0.314677 0
M  V30 820 C 66.5825 -6.75072 1.03765 0
M  V30 821 O 66.2705 -7.83183 1.81327 0
M  V30 822 H 66.0025 -0.651241 -0.181277 0
M  V30 823 H 68.5565 -2.05148 0.101665 0
M  V30 824 H 66.7865 -3.19052 -2.18502 0
M  V30 825 H 68.4755 -3.54942 -1.96904 0
M  V30 826 H 69.2415 -4.84774 0.147981 0
M  V30 827 H 65.1205 -4.49433 -1.0262 0
M  V30 828 H 68.6645 -6.80401 1.5395 0
M  V30 829 H 64.5615 -6.44506 0.358174 0
M  V30 830 H 65.3295 -7.99913 1.73438 0
M  V30 831 N 67.9926 0.231505 -1.5589 0
M  V30 832 C 69.4036 0.799327 -1.68724 0
M  V30 833 C 69.7546 1.85398 -0.642022 0
M  V30 834 O 68.8796 2.1539 0.208784 0
M  V30 835 C 69.4746 1.45664 -3.05888 0
M  V30 836 C 68.0336 1.97197 -3.20609 0
M  V30 837 C 67.1806 0.828552 -2.64632 0
M  V30 838 H 70.1316 0.00702616 -1.58698 0
M  V30 839 H 70.1526 2.32517 -3.01191 0
M  V30 840 H 69.6646 0.688808 -3.81939 0
M  V30 841 H 67.7656 2.76813 -2.4941 0
M  V30 842 H 67.8786 2.15878 -4.27707 0
M  V30 843 H 66.2426 1.23321 -2.22854 0
M  V30 844 H 67.0256 0.0735544 -3.43221 0
M  V30 845 N 69.4707 1.49531 0.497807 0
M  V30 846 C 70.8817 1.52344 1.07927 0
M  V30 847 C 71.2327 0.311469 1.93712 0
M  V30 848 O 70.3577 -0.578405 2.08527 0
M  V30 849 C 70.9527 2.76062 1.96405 0
M  V30 850 C 69.5117 2.81643 2.49709 0
M  V30 851 C 68.6587 2.46299 1.27404 0
M  V30 852 H 71.6097 1.56182 0.281576 0
M  V30 853 H 71.6307 2.56405 2.81135 0
M  V30 854 H 71.1427 3.64254 1.33943 0
M  V30 855 H 69.2437 1.97739 3.15801 0
M  V30 856 H 69.3567 3.83891 2.86643 0
M  V30 857 H 67.7207 1.98148 1.60029 0
M  V30 858 H 68.5037 3.36769 0.66645 0
M  V30 859 N 70.9488 -0.749086 1.3866 0
M  V30 860 C 72.1788 -1.53611 1.38157 0
M  V30 861 C 72.5868 -1.89177 -0.0293595 0
M  V30 862 O 71.9298 -1.53606 -1.00752 0
M  V30 863 C 71.9918 -2.86087 2.17702 0
M  V30 864 C 71.6558 -2.73034 3.66472 0
M  V30 865 C 72.6528 -2.42526 4.59866 0
M  V30 866 C 70.3378 -2.90345 4.09884 0
M  V30 867 C 72.3318 -2.29492 5.94653 0
M  V30 868 C 70.0188 -2.7693 5.4475 0
M  V30 869 C 71.0168 -2.46547 6.36949 0
M  V30 870 O 70.7048 -2.33199 7.69333 0
M  V30 871 H 70.4368 -0.481773 0.474205 0
M  V30 872 H 72.9908 -0.934465 1.82912 0
M  V30 873 H 71.2208 -3.48458 1.67672 0
M  V30 874 H 72.9098 -3.47625 2.09551 0
M  V30 875 H 73.6758 -2.28816 4.27631 0
M  V30 876 H 69.5548 -3.1299 3.38464 0
M  V30 877 H 73.0988 -2.05698 6.66584 0
M  V30 878 H 68.9958 -2.90215 5.76581 0
M  V30 879 H 69.7638 -2.48376 7.79905 0
M  V30 880 N 72.4269 -1.23603 -0.977757 0
M  V30 881 C 73.3369 -1.03632 -2.1047 0
M  V30 882 C 74.3529 0.0199435 -1.73989 0
M  V30 883 O 75.5289 -0.176076 -2.00629 0
M  V30 884 C 72.5939 -0.63276 -3.40877 0
M  V30 885 C 71.6549 -1.76437 -3.91367 0
M  V30 886 C 70.8879 -1.37997 -5.15551 0
M  V30 887 O 71.1109 -0.265357 -5.69782 0
M  V30 888 O 70.0449 -2.20201 -5.60174 0
M  V30 889 H 73.8709 -1.98086 -2.30208 0
M  V30 890 H 71.4559 -1.02332 -1.08851 0
M  V30 891 H 73.3379 -0.418761 -4.19314 0
M  V30 892 H 72.0129 0.282754 -3.22463 0
M  V30 893 H 70.9199 -2.03304 -3.14036 0
M  V30 894 H 72.2529 -2.6583 -4.14241 0
M  V30 895 N 73.905 1.17692 -1.04816 0
M  V30 896 C 74.837 2.21103 -0.603822 0
M  V30 897 C 75.85 1.59411 0.33046 0
M  V30 898 O 77.039 1.7807 0.12379 0
M  V30 899 C 74.139 3.38623 0.136898 0
M  V30 900 C 73.312 4.29888 -0.807137 0
M  V30 901 C 72.371 5.26088 -0.10836 0
M  V30 902 O 71.397 5.64353 -0.741232 0
M  V30 903 N 72.599 5.68882 1.15558 0
M  V30 904 H 75.364 2.59848 -1.49329 0
M  V30 905 H 72.925 1.32553 -0.929587 0
M  V30 906 H 74.917 4.00009 0.614401 0
M  V30 907 H 73.487 2.98508 0.927993 0
M  V30 908 H 72.707 3.65993 -1.46434 0
M  V30 909 H 73.995 4.87759 -1.44807 0
M  V30 910 H 73.393 5.39861 1.69015 0
M  V30 911 H 71.95 6.32429 1.57722 0
M  V30 912 N 75.3831 0.828654 1.34056 0
M  V30 913 C 76.3331 0.226828 2.26869 0
M  V30 914 C 77.3171 -0.612243 1.48796 0
M  V30 915 O 78.5091 -0.465884 1.70759 0
M  V30 916 C 75.6381 -0.605654 3.37915 0
M  V30 917 C 74.7241 0.244361 4.23395 0
M  V30 918 N 75.1151 1.31815 4.88322 0
M  V30 919 C 73.4131 0.0296616 4.4599 0
M  V30 920 C 74.1141 1.83895 5.51867 0
M  V30 921 N 73.0901 1.14196 5.3147 0
M  V30 922 H 76.8921 1.04811 2.74576 0
M  V30 923 H 74.4061 0.67205 1.47842 0
M  V30 924 H 76.4031 -1.05302 4.03382 0
M  V30 925 H 75.0631 -1.42504 2.91758 0
M  V30 926 H 76.0741 1.70099 4.8917 0
M  V30 927 H 72.7511 -0.757097 4.10578 0
M  V30 928 H 74.1411 2.7376 6.136 0
M  V30 929 N 76.8612 -1.46375 0.584142 0
M  V30 930 C 77.7712 -2.34115 -0.150728 0
M  V30 931 C 78.7872 -1.49838 -0.884567 0
M  V30 932 O 79.9632 -1.82704 -0.847429 0
M  V30 933 C 77.0282 -3.2705 -1.15062 0
M  V30 934 C 76.0892 -4.27228 -0.421293 0
M  V30 935 C 75.3222 -5.15722 -1.37355 0
M  V30 936 O 75.5452 -5.07176 -2.61014 0
M  V30 937 O 74.4792 -5.95383 -0.883355 0
M  V30 938 H 78.3052 -2.98309 0.569708 0
M  V30 939 H 75.8902 -1.45373 0.344535 0
M  V30 940 H 77.7722 -3.84381 -1.72712 0
M  V30 941 H 76.4472 -2.65451 -1.8525 0
M  V30 942 H 75.3542 -3.7358 0.197085 0
M  V30 943 H 76.6872 -4.91616 0.239641 0
M  V30 944 N 78.3393 -0.321999 -1.54275 0
M  V30 945 C 79.5793 0.281657 -2.0245 0
M  V30 946 C 79.9433 1.49468 -1.20513 0
M  V30 947 O 81.1443 2.17109 -1.58484 0
M  V30 948 C 79.4153 0.609014 -3.52173 0
M  V30 949 S 80.9743 1.19255 -4.22284 0
M  V30 950 H 77.7923 0.0852825 -0.705867 0
M  V30 951 H 80.3943 -0.454758 -1.90137 0
M  V30 952 H 79.0983 -0.281982 -4.0943 0
M  V30 953 H 78.6293 1.37567 -3.68563 0
M  V30 954 H 80.6443 2.47944 -4.29812 0
M  V30 955 N 79.8174 1.5752 -0.0501392 0
M  V30 956 C 80.7674 2.07981 0.934231 0
M  V30 957 C 81.7514 0.984745 1.27246 0
M  V30 958 O 82.9434 1.24809 1.25506 0
M  V30 959 C 80.0724 2.62751 2.20945 0
M  V30 960 C 79.1584 3.79225 1.89865 0
M  V30 961 N 79.5494 4.89036 1.29142 0
M  V30 962 C 77.8474 3.88111 2.19741 0
M  V30 963 C 78.5484 5.70084 1.15669 0
M  V30 964 N 77.5244 5.17659 1.65923 0
M  V30 965 H 81.3264 2.90277 0.460053 0
M  V30 966 H 78.8404 1.61665 0.15434 0
M  V30 967 H 80.8374 2.97205 2.9236 0
M  V30 968 H 79.4974 1.81894 2.6897 0
M  V30 969 H 80.5084 5.08854 0.963756 0
M  V30 970 H 77.1854 3.18194 2.70293 0
M  V30 971 H 78.5754 6.68395 0.685356 0
M  V30 972 N 81.2955 -0.223234 1.56011 0
M  V30 973 C 82.5425 -0.947875 1.78946 0
M  V30 974 C 82.8705 -1.844 0.618608 0
M  V30 975 O 82.1255 -1.91629 -0.397093 0
M  V30 976 C 82.4245 -1.81948 3.0762 0
M  V30 977 C 82.0905 -1.07672 4.37856 0
M  V30 978 C 80.7525 -0.871544 4.73242 0
M  V30 979 C 83.1045 -0.552081 5.18268 0
M  V30 980 C 80.4325 -0.129791 5.86556 0
M  V30 981 C 82.7845 0.17632 6.32354 0
M  V30 982 C 81.4485 0.39277 6.66343 0
M  V30 983 H 80.7185 -0.346852 0.654809 0
M  V30 984 H 83.3655 -0.216171 1.90276 0
M  V30 985 H 81.6705 -2.61899 2.91404 0
M  V30 986 H 83.3675 -2.38227 3.22566 0
M  V30 987 H 79.9575 -1.24662 4.1007 0
M  V30 988 H 84.1415 -0.698076 4.91366 0
M  V30 989 H 79.3975 0.048153 6.11381 0
M  V30 990 H 83.5715 0.590367 6.93893 0
M  V30 991 H 81.1985 0.969466 7.53993 0
M  V30 992 N 82.7736 -1.49793 -0.48987 0
M  V30 993 C 84.1846 -1.52914 -1.07118 0
M  V30 994 C 84.5356 -0.321738 -1.93544 0
M  V30 995 O 83.6606 0.567338 -2.08831 0
M  V30 996 C 84.2556 -2.771 -1.94938 0
M  V30 997 C 82.8146 -2.82963 -2.48212 0
M  V30 998 C 81.9616 -2.46972 -1.26096 0
M  V30 999 H 84.9126 -1.56329 -0.273289 0
M  V30 1000 H 84.9336 -2.57892 -2.79771 0
M  V30 1001 H 84.4456 -3.64959 -1.32009 0
M  V30 1002 H 82.5466 -1.99411 -3.14748 0
M  V30 1003 H 82.6596 -3.85406 -2.84603 0
M  V30 1004 H 81.0236 -1.98994 -1.58976 0
M  V30 1005 H 81.8066 -3.37118 -0.648581 0
M  V30 1006 N 84.2517 0.741722 -1.39055 0
M  V30 1007 C 85.1997 1.87702 -1.3737 0
M  V30 1008 C 86.1937 1.67427 -0.257812 0
M  V30 1009 O 87.3997 1.7485 -0.427489 0
M  V30 1010 H 83.7747 0.617757 -0.428812 0
M  V30 1011 H 85.7457 1.86239 -2.33147 0
M  V30 1012 C 84.4947 3.25315 -1.22741 0
M  V30 1013 H 83.8177 3.41509 -2.07873 0
M  V30 1014 H 85.2577 4.04964 -1.25618 0
M  V30 1015 C 83.7167 3.36838 0.0647316 0
M  V30 1016 O 84.2467 3.88073 1.03741 0
M  V30 1017 N 82.4527 2.90329 0.125544 0
M  V30 1018 H 81.9997 2.48823 -0.666682 0
M  V30 1019 H 81.9577 2.98418 0.989639 0
M  V30 1020 N 85.7298 1.2412 0.971189 0
M  V30 1021 C 86.6768 1.0305 2.06517 0
M  V30 1022 C 87.6468 -0.0550666 1.66009 0
M  V30 1023 O 88.8318 0.0988688 1.90544 0
M  V30 1024 C 85.9718 0.637653 3.39158 0
M  V30 1025 C 85.0848 1.79633 3.92882 0
M  V30 1026 C 84.2198 1.34939 5.13775 0
M  V30 1027 C 83.2588 2.47823 5.59687 0
M  V30 1028 N 82.3958 2.04022 6.71803 0
M  V30 1029 H 87.2358 1.96685 2.23873 0
M  V30 1030 H 84.7728 0.979694 1.09729 0
M  V30 1031 H 86.7308 0.390931 4.15364 0
M  V30 1032 H 85.3608 -0.261693 3.21737 0
M  V30 1033 H 84.4128 2.15681 3.13346 0
M  V30 1034 H 85.7248 2.64466 4.22918 0
M  V30 1035 H 84.8788 1.06134 5.97345 0
M  V30 1036 H 83.6178 0.471557 4.85415 0
M  V30 1037 H 82.6228 2.77392 4.74693 0
M  V30 1038 H 83.8478 3.36158 5.90063 0
M  V30 1039 H 81.7938 1.18632 6.45184 0
M  V30 1040 H 81.7108 2.82409 7.01271 0
M  V30 1041 H 82.9788 1.78347 7.58823 0
M  V30 1042 N 87.2079 -1.17134 1.05439 0
M  V30 1043 C 88.1709 -2.19439 0.661764 0
M  V30 1044 C 89.1709 -1.58199 -0.288042 0
M  V30 1045 O 90.3609 -1.74053 -0.0715803 0
M  V30 1046 C 87.4929 -3.40889 -0.0276209 0
M  V30 1047 H 88.6859 -2.55688 1.56728 0
M  V30 1048 H 86.2389 -1.31259 0.848567 0
M  V30 1049 H 86.9739 -3.10187 -0.94629 0
M  V30 1050 H 86.7589 -3.86586 0.655238 0
M  V30 1051 H 88.2489 -4.16603 -0.288342 0
M  V30 1052 N 88.686 -0.835752 -1.33615 0
M  V30 1053 C 89.619 -0.211815 -2.27215 0
M  V30 1054 C 90.597 0.639249 -1.49507 0
M  V30 1055 O 91.781 0.600193 -1.78689 0
M  V30 1056 C 88.908 0.702893 -3.31326 0
M  V30 1057 C 87.954 -0.0723049 -4.26439 0
M  V30 1058 S 88.787 -1.42811 -5.16106 0
M  V30 1059 C 89.943 -0.518613 -6.23748 0
M  V30 1060 H 90.176 -1.00533 -2.79786 0
M  V30 1061 H 87.709 -0.632336 -1.40858 0
M  V30 1062 H 89.667 1.22505 -3.91794 0
M  V30 1063 H 88.328 1.47004 -2.77576 0
M  V30 1064 H 87.521 0.62359 -5.00127 0
M  V30 1065 H 87.123 -0.525424 -3.70291 0
M  V30 1066 H 89.415 0.284778 -6.76901 0
M  V30 1067 H 90.358 -1.22556 -6.97413 0
M  V30 1068 H 90.766 -0.101344 -5.64409 0
M  V30 1069 N 90.1641 1.46063 -0.591896 0
M  V30 1070 C 91.5751 1.85944 -0.167822 0
M  V30 1071 C 91.9261 1.49429 1.27143 0
M  V30 1072 O 91.0511 0.913515 1.96173 0
M  V30 1073 C 91.6461 3.37489 -0.297794 0
M  V30 1074 C 90.2051 3.76332 0.0714732 0
M  V30 1075 C 89.3521 2.7006 -0.629509 0
M  V30 1076 H 92.3031 1.37087 -0.799555 0
M  V30 1077 H 92.3241 3.77532 0.474349 0
M  V30 1078 H 91.8361 3.64034 -1.3454 0
M  V30 1079 H 89.9371 3.55405 1.11886 0
M  V30 1080 H 90.0501 4.78088 -0.311245 0
M  V30 1081 H 88.4141 2.54607 -0.0687867 0
M  V30 1082 H 89.1971 2.99444 -1.67894 0
M  V30 1083 N 91.6422 0.330177 1.54103 0
M  V30 1084 C 92.8672 -0.274893 2.0557 0
M  V30 1085 C 93.2922 -1.44487 1.20437 0
M  V30 1086 O 92.6502 -1.80021 0.214991 0
M  V30 1087 C 92.6982 -0.68079 3.54115 0
M  V30 1088 O 91.8022 -1.7824 3.71893 0
M  V30 1089 H 91.1432 -0.0483849 0.662235 0
M  V30 1090 H 93.6732 0.480508 1.98878 0
M  V30 1091 H 93.6832 -0.961635 3.96505 0
M  V30 1092 H 92.3582 0.174903 4.15532 0
M  V30 1093 H 90.9352 -1.49985 3.41407 0
M  V30 1094 N 93.1203 -1.57491 0.0584922 0
M  V30 1095 C 94.0833 -2.1085 -0.898617 0
M  V30 1096 C 95.0833 -1.02964 -1.23511 0
M  V30 1097 O 96.2733 -1.29007 -1.17059 0
M  V30 1098 C 93.4053 -2.59881 -2.20623 0
M  V30 1099 H 94.5983 -2.96715 -0.435936 0
M  V30 1100 H 92.1513 -1.55141 -0.190023 0
M  V30 1101 H 92.8863 -1.77431 -2.71457 0
M  V30 1102 H 92.6713 -3.38727 -1.97501 0
M  V30 1103 H 94.1613 -3.01285 -2.89166 0
M  V30 1104 N 94.5984 0.214957 -1.56127 0
M  V30 1105 C 95.8464 0.936518 -1.79091 0
M  V30 1106 C 96.1674 1.84606 -0.628148 0
M  V30 1107 O 95.4374 1.92664 0.35462 0
M  V30 1108 H 94.0174 0.3488 -0.660566 0
M  V30 1109 H 96.6794 0.22523 -1.93594 0
M  V30 1110 H 95.7754 1.53943 -2.71492 0
M  V30 1111 N 96.0765 1.50051 0.48192 0
M  V30 1112 C 97.3045 1.64237 1.25832 0
M  V30 1113 C 97.7195 0.321336 1.86045 0
M  V30 1114 O 97.0765 -0.695478 1.68729 0
M  V30 1115 C 97.1275 2.72548 2.37487 0
M  V30 1116 O 96.8485 3.99529 1.79745 0
M  V30 1117 C 98.3495 2.9761 3.28547 0
M  V30 1118 H 95.5695 0.55237 0.380957 0
M  V30 1119 H 98.1135 1.96207 0.576467 0
M  V30 1120 H 96.2685 2.43303 3.01467 0
M  V30 1121 H 96.6825 4.59342 2.5319 0
M  V30 1122 H 98.1565 3.77084 4.03127 0
M  V30 1123 H 98.6335 2.0826 3.86684 0
M  V30 1124 H 99.2395 3.28345 2.70314 0
M  V30 1125 N 97.5546 -0.734337 1.39446 0
M  V30 1126 C 98.4846 -1.86155 1.40955 0
M  V30 1127 C 99.4656 -1.67898 0.272827 0
M  V30 1128 O 100.651 -1.88207 0.478743 0
M  V30 1129 C 97.7806 -3.23912 1.25294 0
M  V30 1130 C 96.7346 -3.56808 2.36373 0
M  V30 1131 C 96.0606 -4.93508 2.058 0
M  V30 1132 C 97.3606 -3.59713 3.78687 0
M  V30 1133 H 99.0546 -1.8515 2.35287 0
M  V30 1134 H 96.6006 -0.889367 1.13253 0
M  V30 1135 H 98.5536 -4.02443 1.2497 0
M  V30 1136 H 97.2776 -3.25446 0.274308 0
M  V30 1137 H 95.9366 -2.80606 2.35914 0
M  V30 1138 H 95.5846 -4.91623 1.06374 0
M  V30 1139 H 95.2846 -5.16486 2.80208 0
M  V30 1140 H 96.8086 -5.74396 2.07128 0
M  V30 1141 H 98.2226 -4.2832 3.81071 0
M  V30 1142 H 96.6196 -3.94209 4.52459 0
M  V30 1143 H 97.6896 -2.59504 4.09617 0
M  V30 1144 N 99.0327 -1.24633 -0.964593 0
M  V30 1145 C 100.444 -1.08045 -1.5226 0
M  V30 1146 C 100.795 0.347116 -1.93105 0
M  V30 1147 O 99.9197 1.23588 -1.77637 0
M  V30 1148 C 100.515 -1.95514 -2.76695 0
M  V30 1149 C 99.0737 -1.8314 -3.28841 0
M  V30 1150 C 98.2207 -1.90262 -2.01732 0
M  V30 1151 H 101.172 -1.38064 -0.782553 0
M  V30 1152 H 101.193 -1.48925 -3.50145 0
M  V30 1153 H 100.705 -2.99407 -2.46936 0
M  V30 1154 H 98.8057 -0.82092 -3.63444 0
M  V30 1155 H 98.9187 -2.67406 -3.97531 0
M  V30 1156 H 97.2827 -1.34027 -2.16584 0
M  V30 1157 H 98.0657 -2.9574 -1.74334 0
M  V30 1158 N 100.511 1.16574 -1.06058 0
M  V30 1159 C 101.757 1.87565 -0.78683 0
M  V30 1160 C 102.112 1.80012 0.679214 0
M  V30 1161 O 101.405 1.20327 1.49104 0
M  V30 1162 C 101.599 3.36195 -1.21275 0
M  V30 1163 C 101.428 3.58216 -2.71866 0
M  V30 1164 C 100.198 3.7444 -3.39298 0
M  V30 1165 C 102.396 3.57134 -3.70081 0
M  V30 1166 N 100.378 3.84389 -4.78663 0
M  V30 1167 C 101.749 3.73038 -4.9522 0
M  V30 1168 C 103.804 3.40332 -3.63426 0
M  V30 1169 C 102.507 3.73879 -6.14497 0
M  V30 1170 C 104.533 3.42466 -4.82153 0
M  V30 1171 C 103.895 3.58887 -6.06118 0
M  V30 1172 H 99.9938 0.704081 -0.340284 0
M  V30 1173 H 102.578 1.39885 -1.35426 0
M  V30 1174 H 100.749 3.82522 -0.673179 0
M  V30 1175 H 102.481 3.94839 -0.887917 0
M  V30 1176 H 99.2358 3.74662 -2.89699 0
M  V30 1177 H 99.6598 3.93138 -5.51155 0
M  V30 1178 H 104.302 3.26566 -2.68541 0
M  V30 1179 H 102.02 3.86427 -7.09718 0
M  V30 1180 H 105.606 3.30712 -4.78666 0
M  V30 1181 H 104.486 3.60454 -6.9645 0
M  V30 1182 N 101.989 0.842826 1.3317 0
M  V30 1183 C 103.235 0.441099 1.97945 0
M  V30 1184 C 103.568 -0.998024 1.66593 0
M  V30 1185 O 102.843 -1.69839 0.947898 0
M  V30 1186 C 103.126 0.666841 3.53872 0
M  V30 1187 C 102.979 2.15352 3.94897 0
M  V30 1188 C 104.298 0.115544 4.39948 0
M  V30 1189 H 101.417 0.161739 0.719034 0
M  V30 1190 H 104.059 1.05907 1.57746 0
M  V30 1191 H 102.209 0.140828 3.88245 0
M  V30 1192 H 103.881 2.7447 3.70761 0
M  V30 1193 H 102.124 2.63653 3.44484 0
M  V30 1194 H 102.795 2.26221 5.03516 0
M  V30 1195 H 105.271 0.565213 4.12243 0
M  V30 1196 H 104.147 0.303152 5.48062 0
M  V30 1197 H 104.408 -0.980935 4.3108 0
M  V30 1198 N 103.467 -1.45747 0.599634 0
M  V30 1199 C 104.399 -2.28628 -0.161879 0
M  V30 1200 C 105.412 -1.39494 -0.839367 0
M  V30 1201 O 106.601 -1.63941 -0.706089 0
M  V30 1202 C 103.701 -3.15014 -1.24976 0
M  V30 1203 C 102.874 -4.32378 -0.660935 0
M  V30 1204 C 101.933 -5.00033 -1.63869 0
M  V30 1205 O 100.959 -5.57085 -1.1681 0
M  V30 1206 N 102.161 -4.98589 -2.97303 0
M  V30 1207 H 104.926 -2.94624 0.549265 0
M  V30 1208 H 102.487 -1.55847 0.438565 0
M  V30 1209 H 104.479 -3.5714 -1.9035 0
M  V30 1210 H 103.049 -2.5098 -1.86354 0
M  V30 1211 H 102.269 -3.9383 0.170688 0
M  V30 1212 H 103.557 -5.08197 -0.247619 0
M  V30 1213 H 102.955 -4.53514 -3.38145 0
M  V30 1214 H 101.512 -5.44603 -3.58121 0
M  V30 1215 N 104.945 -0.338344 -1.53925 0
M  V30 1216 C 106.193 0.259245 -2.0043 0
M  V30 1217 C 106.514 1.51484 -1.22791 0
M  V30 1218 O 105.784 1.93037 -0.33368 0
M  V30 1219 H 104.364 0.0987845 -0.740439 0
M  V30 1220 H 107.026 -0.458302 -1.89435 0
M  V30 1221 H 106.122 0.505334 -3.07982 0
M  V30 1222 N 106.423 1.57458 -0.0668435 0
M  V30 1223 C 107.672 1.92477 0.602947 0
M  V30 1224 C 107.985 0.948419 1.71068 0
M  V30 1225 O 109.191 1.19124 2.43971 0
M  V30 1226 C 107.647 3.41903 1.12383 0
M  V30 1227 C 107.255 4.47975 0.04737 0
M  V30 1228 C 108.999 3.85931 1.76797 0
M  V30 1229 C 106.906 5.88529 0.582022 0
M  V30 1230 H 105.836 0.718387 0.22899 0
M  V30 1231 H 108.487 1.82978 -0.138276 0
M  V30 1232 H 106.869 3.46459 1.91787 0
M  V30 1233 H 108.043 4.55029 -0.726978 0
M  V30 1234 H 106.358 4.13384 -0.500243 0
M  V30 1235 H 108.955 4.88322 2.17821 0
M  V30 1236 H 109.298 3.23029 2.62599 0
M  V30 1237 H 109.831 3.83958 1.04024 0
M  V30 1238 H 106.57 6.55065 -0.238721 0
M  V30 1239 H 106.09 5.85004 1.324 0
M  V30 1240 H 107.769 6.38258 1.05999 0
M  V30 1241 N 107.901 -0.206675 1.56239 0
M  V30 1242 C 109.15 -0.926964 1.79138 0
M  V30 1243 C 109.463 -1.84901 0.638043 0
M  V30 1244 O 110.669 -2.60906 0.751033 0
M  V30 1245 C 109.125 -1.6986 3.17294 0
M  V30 1246 C 108.733 -0.821956 4.40395 0
M  V30 1247 C 110.477 -2.40922 3.4951 0
M  V30 1248 C 108.384 -1.59179 5.69575 0
M  V30 1249 H 107.314 -0.349864 0.667915 0
M  V30 1250 H 109.965 -0.180487 1.8261 0
M  V30 1251 H 108.347 -2.48853 3.08039 0
M  V30 1252 H 109.521 -0.0715019 4.60745 0
M  V30 1253 H 107.836 -0.222741 4.15804 0
M  V30 1254 H 110.433 -2.99047 4.43255 0
M  V30 1255 H 110.776 -3.14542 2.72707 0
M  V30 1256 H 111.309 -1.68905 3.60161 0
M  V30 1257 H 108.048 -0.898589 6.49312 0
M  V30 1258 H 107.568 -2.31648 5.53262 0
M  V30 1259 H 109.247 -2.14862 6.10281 0
M  V30 1260 N 109.379 -1.50304 -0.473955 0
M  V30 1261 C 110.619 -1.62786 -1.23612 0
M  V30 1262 C 110.983 -0.319786 -1.89318 0
M  V30 1263 O 112.184 -0.320012 -2.66888 0
M  V30 1264 C 110.455 -2.77351 -2.25414 0
M  V30 1265 S 112.014 -3.09948 -3.10608 0
M  V30 1266 H 108.832 -0.573895 -0.419721 0
M  V30 1267 H 111.434 -1.88076 -0.533623 0
M  V30 1268 H 110.138 -3.70879 -1.75719 0
M  V30 1269 H 109.669 -2.54137 -3.00296 0
M  V30 1270 H 111.684 -2.53553 -4.26527 0
M  V30 1271 N 110.857 0.726932 -1.39834 0
M  V30 1272 C 111.805 1.86235 -1.39353 0
M  V30 1273 C 112.799 1.67144 -0.275555 0
M  V30 1274 O 114.005 1.74387 -0.44601 0
M  V30 1275 H 110.38 0.613174 -0.43534 0
M  V30 1276 H 112.351 1.83756 -2.35109 0
M  V30 1277 C 111.1 3.23995 -1.26185 0
M  V30 1278 H 110.423 3.39285 -2.11484 0
M  V30 1279 H 111.863 4.03609 -1.29907 0
M  V30 1280 C 110.322 3.36888 0.0290018 0
M  V30 1281 O 110.852 3.89152 0.99619 0
M  V30 1282 N 109.058 2.90446 0.0947437 0
M  V30 1283 H 108.605 2.48102 -0.693035 0
M  V30 1284 H 108.563 2.99451 0.957932 0
M  V30 1285 N 112.336 1.25143 0.95797 0
M  V30 1286 C 113.299 1.05321 2.03569 0
M  V30 1287 C 114.299 0.007152 1.60798 0
M  V30 1288 O 115.489 0.24903 1.72411 0
M  V30 1289 C 112.621 0.598394 3.35607 0
M  V30 1290 H 113.814 2.00986 2.22586 0
M  V30 1291 H 111.367 1.07502 1.13459 0
M  V30 1292 H 112.102 -0.361014 3.22284 0
M  V30 1293 H 111.887 1.35351 3.67998 0
M  V30 1294 H 113.377 0.48104 4.1482 0
M  V30 1295 N 113.814 -1.1601 1.06675 0
M  V30 1296 C 114.762 -2.22586 0.675157 0
M  V30 1297 C 115.756 -1.66525 -0.310766 0
M  V30 1298 O 116.962 -1.79145 -0.175215 0
M  V30 1299 H 113.337 -0.724855 0.200223 0
M  V30 1300 H 115.308 -2.52899 1.58381 0
M  V30 1301 C 114.057 -3.47604 0.0817162 0
M  V30 1302 H 113.38 -3.91058 0.831484 0
M  V30 1303 H 114.82 -4.23718 -0.154708 0
M  V30 1304 C 113.279 -3.15718 -1.17576 0
M  V30 1305 O 113.809 -3.31878 -2.26318 0
M  V30 1306 N 112.015 -2.69816 -1.07923 0
M  V30 1307 H 111.562 -2.56866 -0.194293 0
M  V30 1308 H 111.52 -2.48855 -1.92141 0
M  V30 1309 N 115.292 -0.849877 -1.32721 0
M  V30 1310 C 116.24 -0.279745 -2.30912 0
M  V30 1311 C 117.234 0.594278 -1.58634 0
M  V30 1312 O 118.44 0.482613 -1.73409 0
M  V30 1313 H 114.815 -0.0717521 -0.748569 0
M  V30 1314 H 116.786 -1.12222 -2.76494 0
M  V30 1315 C 115.535 0.521108 -3.43773 0
M  V30 1316 H 114.858 -0.142141 -3.99547 0
M  V30 1317 H 116.298 0.885693 -4.14646 0
M  V30 1318 C 114.757 1.70442 -2.90605 0
M  V30 1319 O 115.287 2.8034 -2.87702 0
M  V30 1320 N 113.493 1.52991 -2.47067 0
M  V30 1321 H 113.04 0.635914 -2.49628 0
M  V30 1322 H 112.998 2.32311 -2.11847 0
M  V30 1323 N 116.77 1.45427 -0.607355 0
M  V30 1324 C 118.181 1.85756 -0.187535 0
M  V30 1325 C 118.532 1.5077 1.25551 0
M  V30 1326 O 117.657 0.93427 1.95193 0
M  V30 1327 C 118.252 3.37154 -0.333572 0
M  V30 1328 C 116.811 3.76387 0.0315542 0
M  V30 1329 C 115.958 2.69377 -0.658117 0
M  V30 1330 H 118.909 1.36231 -0.81405 0
M  V30 1331 H 118.93 3.78014 0.43428 0
M  V30 1332 H 118.442 3.62586 -1.38393 0
M  V30 1333 H 116.543 3.56571 1.0811 0
M  V30 1334 H 116.656 4.77731 -0.361935 0
M  V30 1335 H 115.02 2.5452 -0.0957873 0
M  V30 1336 H 115.803 2.97646 -1.7106 0
M  V30 1337 N 118.248 0.346503 1.53744 0
M  V30 1338 C 119.488 -0.249413 2.02873 0
M  V30 1339 C 119.852 -1.47532 1.22876 0
M  V30 1340 O 121.053 -2.1456 1.61918 0
M  V30 1341 C 119.324 -0.552909 3.53097 0
M  V30 1342 S 120.883 -1.12521 4.24128 0
M  V30 1343 H 117.701 -0.074042 0.707134 0
M  V30 1344 H 120.303 0.48495 1.8939 0
M  V30 1345 H 119.007 0.347083 4.0893 0
M  V30 1346 H 118.538 -1.31686 3.70705 0
M  V30 1347 H 120.553 -2.41075 4.33702 0
M  V30 1348 N 119.726 -1.57421 0.075193 0
M  V30 1349 C 120.973 -1.93618 -0.593146 0
M  V30 1350 C 121.301 -0.955484 -1.69413 0
M  V30 1351 O 120.556 0.0283251 -1.9568 0
M  V30 1352 C 120.855 -3.36428 -1.20626 0
M  V30 1353 C 120.521 -4.50307 -0.231078 0
M  V30 1354 C 119.183 -4.81186 0.0371936 0
M  V30 1355 C 121.535 -5.19374 0.435888 0
M  V30 1356 C 118.863 -5.78466 0.979461 0
M  V30 1357 C 121.215 -6.17665 1.3665 0
M  V30 1358 C 119.879 -6.46958 1.6432 0
M  V30 1359 H 119.149 -0.708499 -0.217047 0
M  V30 1360 H 121.796 -1.90937 0.146793 0
M  V30 1361 H 120.101 -3.35592 -2.02201 0
M  V30 1362 H 121.798 -3.61727 -1.73073 0
M  V30 1363 H 118.388 -4.26227 -0.450357 0
M  V30 1364 H 122.572 -4.95711 0.241748 0
M  V30 1365 H 117.828 -5.99487 1.20106 0
M  V30 1366 H 122.002 -6.70284 1.88924 0
M  V30 1367 H 119.629 -7.2215 2.37494 0
M  V30 1368 N 121.204 0.198386 -1.56346 0
M  V30 1369 C 122.62 0.549085 -1.49857 0
M  V30 1370 C 122.82 1.86016 -0.774611 0
M  V30 1371 O 121.876 2.50416 -0.323776 0
M  V30 1372 C 123.189 0.606868 -2.94512 0
M  V30 1373 C 124.737 0.695925 -3.05165 0
M  V30 1374 C 125.212 0.784848 -4.51225 0
M  V30 1375 N 126.703 0.848463 -4.55363 0
M  V30 1376 C 127.438 0.937378 -5.65686 0
M  V30 1377 N 126.934 0.9888 -6.85707 0
M  V30 1378 N 128.727 0.974312 -5.53592 0
M  V30 1379 H 120.878 -0.661655 -2.01831 0
M  V30 1380 H 123.141 -0.235261 -0.918344 0
M  V30 1381 H 122.847 -0.28732 -3.50524 0
M  V30 1382 H 122.721 1.46268 -3.47686 0
M  V30 1383 H 125.108 1.58055 -2.49204 0
M  V30 1384 H 125.189 -0.186022 -2.55123 0
M  V30 1385 H 124.833 -0.0954072 -5.0781 0
M  V30 1386 H 124.763 1.68255 -4.98997 0
M  V30 1387 H 127.254 0.818103 -3.68938 0
M  V30 1388 H 127.567 1.05707 -7.65536 0
M  V30 1389 H 125.912 0.957534 -6.88372 0
M  V30 1390 H 129.103 0.930954 -4.58749 0
M  V30 1391 H 129.276 1.04015 -6.39597 0
M  V30 1392 N 122.682 1.50554 0.465978 0
M  V30 1393 C 123.912 1.65323 1.23903 0
M  V30 1394 C 124.32 0.338051 1.86155 0
M  V30 1395 O 123.663 -0.690518 1.70228 0
M  V30 1396 C 123.725 2.69048 2.3844 0
M  V30 1397 C 123.389 4.12462 1.96784 0
M  V30 1398 C 124.386 4.98168 1.48745 0
M  V30 1399 C 122.071 4.58407 2.05349 0
M  V30 1400 C 124.065 6.27868 1.0982 0
M  V30 1401 C 121.752 5.88112 1.66035 0
M  V30 1402 C 122.75 6.72668 1.18349 0
M  V30 1403 O 122.438 7.99951 0.795825 0
M  V30 1404 H 122.17 0.558629 0.38067 0
M  V30 1405 H 124.724 1.97561 0.562022 0
M  V30 1406 H 122.954 2.32062 3.09328 0
M  V30 1407 H 124.643 2.72985 3.0039 0
M  V30 1408 H 125.409 4.63885 1.41546 0
M  V30 1409 H 121.288 3.92735 2.41414 0
M  V30 1410 H 124.832 6.93819 0.725293 0
M  V30 1411 H 120.729 6.21914 1.72895 0
M  V30 1412 H 121.497 8.13265 0.924222 0
M  V30 1413 N 124.16 -0.719506 1.40217 0
M  V30 1414 C 125.571 -1.29848 1.34151 0
M  V30 1415 C 125.922 -1.96196 0.0131349 0
M  V30 1416 O 125.047 -1.973 -0.88892 0
M  V30 1417 C 125.642 -2.36118 2.42968 0
M  V30 1418 C 124.201 -2.8965 2.40374 0
M  V30 1419 C 123.348 -1.63393 2.24049 0
M  V30 1420 H 126.299 -0.51591 1.5008 0
M  V30 1421 H 126.32 -3.16871 2.10649 0
M  V30 1422 H 125.832 -1.878 3.39636 0
M  V30 1423 H 123.933 -3.42208 1.47392 0
M  V30 1424 H 124.046 -3.4171 3.35814 0
M  V30 1425 H 122.41 -1.88312 1.71495 0
M  V30 1426 H 123.193 -1.17104 3.2271 0
M  V30 1427 N 125.638 -1.25649 -0.95132 0
M  V30 1428 C 126.866 -1.13343 -1.73092 0
M  V30 1429 C 127.281 0.312434 -1.86197 0
M  V30 1430 O 126.638 1.21465 -1.36207 0
M  V30 1431 C 126.689 -1.78602 -3.14299 0
M  V30 1432 O 126.41 -3.17537 -3.01831 0
M  V30 1433 C 127.911 -1.72119 -4.08522 0
M  V30 1434 H 125.131 -0.395181 -0.542285 0
M  V30 1435 H 127.675 -1.66076 -1.19328 0
M  V30 1436 H 125.83 -1.29832 -3.64996 0
M  V30 1437 H 126.244 -3.49676 -3.90931 0
M  V30 1438 H 127.718 -2.22435 -5.052 0
M  V30 1439 H 128.195 -0.685635 -4.33815 0
M  V30 1440 H 128.801 -2.20393 -3.63741 0
M  V30 1441 N 127.117 1.15442 -1.07289 0
M  V30 1442 C 128.528 1.67803 -0.818475 0
M  V30 1443 C 128.879 1.8489 0.656507 0
M  V30 1444 O 128.004 1.55176 1.50829 0
M  V30 1445 C 128.599 3.04805 -1.47917 0
M  V30 1446 C 127.158 3.54245 -1.27229 0
M  V30 1447 C 126.305 2.29986 -1.54925 0
M  V30 1448 H 129.256 0.996646 -1.23502 0
M  V30 1449 H 129.277 3.69702 -0.90005 0
M  V30 1450 H 128.789 2.92336 -2.55267 0
M  V30 1451 H 126.89 3.71956 -0.21899 0
M  V30 1452 H 127.003 4.35723 -1.99203 0
M  V30 1453 H 125.367 2.35496 -0.970242 0
M  V30 1454 H 126.15 2.20105 -2.63455 0
M  V30 1455 N 128.595 0.856903 1.32268 0
M  V30 1456 C 129.843 0.460474 1.96784 0
M  V30 1457 C 130.164 -0.987701 1.68135 0
M  V30 1458 O 129.434 -1.69058 0.989765 0
M  V30 1459 H 128.014 0.167289 0.728027 0
M  V30 1460 H 130.676 1.09383 1.61312 0
M  V30 1461 H 129.772 0.60739 3.06133 0
M  V30 1462 N 130.073 -1.45103 0.615059 0
M  V30 1463 C 130.983 -2.34382 -0.101034 0
M  V30 1464 C 131.999 -1.51681 -0.852585 0
M  V30 1465 O 133.175 -1.8446 -0.808484 0
M  V30 1466 C 130.24 -3.29417 -1.08099 0
M  V30 1467 C 129.301 -4.28025 -0.330577 0
M  V30 1468 C 128.534 -5.1852 -1.26385 0
M  V30 1469 O 128.757 -5.12598 -2.50198 0
M  V30 1470 O 127.691 -5.97122 -0.756866 0
M  V30 1471 H 131.517 -2.97033 0.632855 0
M  V30 1472 H 129.102 -1.4461 0.375293 0
M  V30 1473 H 130.984 -3.87958 -1.6452 0
M  V30 1474 H 129.659 -2.69321 -1.79577 0
M  V30 1475 H 128.566 -3.73078 0.276283 0
M  V30 1476 H 129.899 -4.90997 0.343866 0
M  V30 1477 N 131.551 -0.354651 -1.53558 0
M  V30 1478 C 132.514 0.484566 -2.24019 0
M  V30 1479 C 133.514 1.01861 -1.24422 0
M  V30 1480 O 134.704 0.906097 -1.4878 0
M  V30 1481 C 131.836 1.67615 -2.96847 0
M  V30 1482 H 133.029 -0.131843 -2.9961 0
M  V30 1483 H 130.582 -0.106165 -1.55939 0
M  V30 1484 H 131.317 2.33095 -2.25471 0
M  V30 1485 H 131.102 1.30029 -3.69912 0
M  V30 1486 H 132.592 2.27114 -3.50441 0
M  V30 1487 N 133.029 1.57378 -0.0835403 0
M  V30 1488 C 134.44 1.81261 0.447358 0
M  V30 1489 C 134.791 0.998331 1.68902 0
M  V30 1490 O 133.916 0.224282 2.15235 0
M  V30 1491 C 134.511 3.28767 0.818386 0
M  V30 1492 C 133.07 3.53455 1.29409 0
M  V30 1493 C 132.217 2.75831 0.285024 0
M  V30 1494 H 135.168 1.5566 -0.309115 0
M  V30 1495 H 135.189 3.41459 1.67887 0
M  V30 1496 H 134.701 3.88006 -0.0855019 0
M  V30 1497 H 132.802 2.99534 2.21608 0
M  V30 1498 H 132.915 4.62128 1.2639 0
M  V30 1499 H 131.279 2.42947 0.764767 0
M  V30 1500 H 132.062 3.37813 -0.611341 0
M  V30 1501 N 134.507 -0.190092 1.56449 0
M  V30 1502 C 135.755 -0.907908 1.80559 0
M  V30 1503 C 136.076 -1.83583 0.657438 0
M  V30 1504 O 135.346 -1.93203 -0.323924 0
M  V30 1505 H 133.926 -0.338247 0.666032 0
M  V30 1506 H 136.588 -0.194403 1.93928 0
M  V30 1507 H 135.684 -1.49604 2.73907 0
M  V30 1508 N 135.985 -1.50799 -0.457987 0
M  V30 1509 C 137.231 -1.62683 -1.21088 0
M  V30 1510 C 137.564 -0.332268 -1.91336 0
M  V30 1511 O 136.839 0.667043 -1.82704 0
M  V30 1512 C 137.122 -2.81615 -2.24422 0
M  V30 1513 C 136.975 -4.20989 -1.58392 0
M  V30 1514 C 138.294 -2.96085 -3.2561 0
M  V30 1515 H 135.413 -0.592087 -0.438864 0
M  V30 1516 H 138.055 -1.83225 -0.50286 0
M  V30 1517 H 136.205 -2.64231 -2.84806 0
M  V30 1518 H 137.877 -4.49994 -1.01504 0
M  V30 1519 H 136.12 -4.24641 -0.886704 0
M  V30 1520 H 136.791 -5.0016 -2.33547 0
M  V30 1521 H 139.267 -3.12042 -2.75262 0
M  V30 1522 H 138.143 -3.80902 -3.95228 0
M  V30 1523 H 138.404 -2.0726 -3.90507 0
M  V30 1524 N 137.463 0.71206 -1.40597 0
M  V30 1525 C 138.709 1.47416 -1.39271 0
M  V30 1526 C 139.042 1.942 0.00388791 0
M  V30 1527 O 138.317 1.68403 0.973179 0
M  V30 1528 C 138.6 2.69774 -2.38525 0
M  V30 1529 C 138.453 2.28861 -3.87224 0
M  V30 1530 C 139.772 3.71939 -2.35264 0
M  V30 1531 H 136.891 0.534713 -0.5072 0
M  V30 1532 H 139.533 0.812375 -1.71757 0
M  V30 1533 H 137.683 3.26238 -2.10953 0
M  V30 1534 H 139.355 1.77852 -4.25636 0
M  V30 1535 H 137.598 1.60824 -4.02887 0
M  V30 1536 H 138.269 3.16584 -4.52193 0
M  V30 1537 H 140.745 3.25113 -2.59694 0
M  V30 1538 H 139.621 4.55186 -3.06753 0
M  V30 1539 H 139.882 4.20484 -1.36549 0
M  V30 1540 N 138.941 1.26152 0.944643 0
M  V30 1541 C 140.189 1.11271 1.6871 0
M  V30 1542 C 140.51 -0.345166 1.91921 0
M  V30 1543 O 139.78 -1.24387 1.51343 0
M  V30 1544 H 138.36 0.408783 0.625224 0
M  V30 1545 H 141.022 1.58427 1.1352 0
M  V30 1546 H 140.118 1.62879 2.66227 0
M  V30 1547 N 140.419 -1.14872 1.07899 0
M  V30 1548 C 141.367 -2.21857 0.698727 0
M  V30 1549 C 142.361 -1.66845 -0.293086 0
M  V30 1550 O 143.567 -1.79321 -0.156204 0
M  V30 1551 H 139.942 -0.722691 0.207899 0
M  V30 1552 H 141.913 -2.51205 1.61054 0
M  V30 1553 C 140.662 -3.47498 0.11858 0
M  V30 1554 H 139.985 -3.90154 0.872914 0
M  V30 1555 H 141.425 -4.23858 -0.109759 0
M  V30 1556 C 139.884 -3.16947 -1.1422 0
M  V30 1557 O 140.414 -3.3426 -2.22785 0
M  V30 1558 N 138.62 -2.70946 -1.05055 0
M  V30 1559 H 138.167 -2.57058 -0.167038 0
M  V30 1560 H 138.125 -2.50879 -1.89491 0
M  V30 1561 N 141.898 -0.863906 -1.31812 0
M  V30 1562 C 143.145 -0.471836 -1.96926 0
M  V30 1563 C 143.473 0.974578 -1.68322 0
M  V30 1564 O 142.728 1.7003 -0.968933 0
M  V30 1565 C 143.027 -0.668547 -3.51091 0
M  V30 1566 C 142.693 -2.08683 -3.99703 0
M  V30 1567 C 141.355 -2.47471 -4.12688 0
M  V30 1568 C 143.707 -3.01207 -4.25351 0
M  V30 1569 C 141.035 -3.78037 -4.4867 0
M  V30 1570 C 143.387 -4.31282 -4.62794 0
M  V30 1571 C 142.051 -4.69992 -4.73987 0
M  V30 1572 H 141.321 -0.172657 -0.720604 0
M  V30 1573 H 143.968 -1.09573 -1.57054 0
M  V30 1574 H 142.273 0.0385252 -3.91781 0
M  V30 1575 H 143.97 -0.345102 -3.99512 0
M  V30 1576 H 140.56 -1.77566 -3.90087 0
M  V30 1577 H 144.744 -2.72469 -4.14819 0
M  V30 1578 H 140 -4.078 -4.55532 0
M  V30 1579 H 144.174 -5.03031 -4.81594 0
M  V30 1580 H 141.801 -5.71207 -5.01624 0
M  V30 1581 N 143.376 1.44774 -0.622745 0
M  V30 1582 C 144.324 2.32387 0.0994683 0
M  V30 1583 C 145.318 1.46859 0.844326 0
M  V30 1584 O 146.524 1.63254 0.758174 0
M  V30 1585 H 142.899 0.750273 0.0509291 0
M  V30 1586 H 144.87 2.91062 -0.65767 0
M  V30 1587 C 143.619 3.30723 1.07319 0
M  V30 1588 H 142.942 3.96541 0.509462 0
M  V30 1589 H 144.382 3.94725 1.54817 0
M  V30 1590 C 142.841 2.59021 2.15429 0
M  V30 1591 O 143.371 2.38286 3.23393 0
M  V30 1592 N 141.577 2.189 1.91131 0
M  V30 1593 H 141.124 2.35964 1.03337 0
M  V30 1594 H 141.082 1.71251 2.63668 0
M  V30 1595 N 144.854 0.36279 1.53368 0
M  V30 1596 C 145.801 -0.485008 2.25646 0
M  V30 1597 C 146.771 -1.07982 1.2621 0
M  V30 1598 O 147.956 -1.11284 1.54986 0
M  V30 1599 C 145.096 -1.62023 3.04701 0
M  V30 1600 C 144.209 -1.05086 4.19024 0
M  V30 1601 C 143.344 -2.15496 4.85525 0
M  V30 1602 C 142.383 -1.5601 5.91884 0
M  V30 1603 N 141.52 -2.60241 6.52088 0
M  V30 1604 H 146.36 0.137864 2.97681 0
M  V30 1605 H 143.897 0.0798061 1.46883 0
M  V30 1606 H 145.855 -2.28887 3.48807 0
M  V30 1607 H 144.485 -2.2138 2.34927 0
M  V30 1608 H 143.537 -0.27259 3.79422 0
M  V30 1609 H 144.849 -0.575926 4.95464 0
M  V30 1610 H 144.003 -2.90186 5.32801 0
M  V30 1611 H 142.742 -2.66341 4.08551 0
M  V30 1612 H 141.747 -0.798338 5.43973 0
M  V30 1613 H 142.972 -1.05994 6.70777 0
M  V30 1614 H 140.918 -3.10304 5.77968 0
M  V30 1615 H 140.835 -2.17426 7.24059 0
M  V30 1616 H 142.103 -3.34641 7.04014 0
M  V30 1617 N 146.332 -1.57332 0.0918853 0
M  V30 1618 C 147.557 -1.98995 -0.584442 0
M  V30 1619 C 147.982 -0.970528 -1.61128 0
M  V30 1620 O 147.34 0.0613904 -1.81196 0
M  V30 1621 C 147.388 -3.39636 -1.21161 0
M  V30 1622 O 146.492 -3.40447 -2.32744 0
M  V30 1623 H 145.833 -0.647165 -0.148572 0
M  V30 1624 H 148.363 -2.03873 0.172347 0
M  V30 1625 H 148.373 -3.7726 -1.55367 0
M  V30 1626 H 147.048 -4.13356 -0.459313 0
M  V30 1627 H 145.625 -3.14614 -2.0018 0
M  V30 1628 N 147.81 0.181792 -1.56548 0
M  V30 1629 C 149.059 0.898348 -1.8059 0
M  V30 1630 C 149.372 1.83862 -0.667379 0
M  V30 1631 O 150.578 2.59678 -0.792446 0
M  V30 1632 C 149.034 1.64791 -3.19956 0
M  V30 1633 C 148.642 0.751789 -4.41647 0
M  V30 1634 C 150.386 2.35331 -3.53298 0
M  V30 1635 C 148.293 1.50098 -5.72035 0
M  V30 1636 H 147.223 0.339194 -0.673397 0
M  V30 1637 H 149.874 0.151413 -1.82874 0
M  V30 1638 H 148.256 2.43921 -3.11959 0
M  V30 1639 H 149.43 -0.0018076 -4.608 0
M  V30 1640 H 147.745 0.156562 -4.16106 0
M  V30 1641 H 150.342 2.91958 -4.47956 0
M  V30 1642 H 150.685 3.10164 -2.77676 0
M  V30 1643 H 151.218 1.63154 -3.62803 0
M  V30 1644 H 147.957 0.795175 -6.50659 0
M  V30 1645 H 147.477 2.22817 -5.56878 0
M  V30 1646 H 149.156 2.05125 -6.13622 0
M  V30 1647 N 149.288 1.51039 0.449983 0
M  V30 1648 C 150.534 1.63322 1.20223 0
M  V30 1649 C 150.867 0.34241 1.91158 0
M  V30 1650 O 150.142 -0.657344 1.83055 0
M  V30 1651 C 150.425 2.82801 2.22925 0
M  V30 1652 C 150.278 4.21823 1.56157 0
M  V30 1653 C 151.597 2.97807 3.24035 0
M  V30 1654 H 148.716 0.594407 0.435718 0
M  V30 1655 H 151.358 1.83489 0.493136 0
M  V30 1656 H 149.508 2.65738 2.834 0
M  V30 1657 H 151.18 4.50526 0.991162 0
M  V30 1658 H 149.423 4.25105 0.864172 0
M  V30 1659 H 150.094 5.01391 2.30891 0
M  V30 1660 H 152.57 3.13497 2.73603 0
M  V30 1661 H 151.446 3.82992 3.93202 0
M  V30 1662 H 151.707 2.09328 3.89402 0
M  V30 1663 N 150.766 -0.704594 1.40972 0
M  V30 1664 C 151.729 -1.80035 1.41845 0
M  V30 1665 C 152.729 -1.57774 0.310474 0
M  V30 1666 O 153.919 -1.64613 0.56992 0
M  V30 1667 C 151.051 -3.18284 1.22098 0
M  V30 1668 H 152.244 -1.80658 2.3938 0
M  V30 1669 H 149.797 -0.911329 1.26982 0
M  V30 1670 H 150.532 -3.23306 0.253672 0
M  V30 1671 H 150.317 -3.35843 2.02366 0
M  V30 1672 H 151.807 -3.98289 1.25522 0
M  V30 1673 N 152.244 -1.26651 -0.937939 0
M  V30 1674 C 153.66 -1.03834 -1.21205 0
M  V30 1675 C 153.86 0.234502 -2.00131 0
M  V30 1676 O 152.916 0.942767 -2.3424 0
M  V30 1677 C 154.229 -2.27167 -1.97017 0
M  V30 1678 C 155.777 -2.32101 -2.09996 0
M  V30 1679 C 156.252 -3.55136 -2.8921 0
M  V30 1680 N 157.743 -3.55632 -2.96783 0
M  V30 1681 C 158.478 -4.475 -3.58512 0
M  V30 1682 N 157.974 -5.4966 -4.21717 0
M  V30 1683 N 159.767 -4.35145 -3.55816 0
M  V30 1684 H 151.918 -2.08398 -0.410391 0
M  V30 1685 H 154.181 -0.916031 -0.244114 0
M  V30 1686 H 153.887 -3.19765 -1.46434 0
M  V30 1687 H 153.761 -2.31672 -2.97671 0
M  V30 1688 H 156.148 -1.40015 -2.59769 0
M  V30 1689 H 156.229 -2.31605 -1.08594 0
M  V30 1690 H 155.873 -4.47553 -2.40123 0
M  V30 1691 H 155.803 -3.5288 -3.90875 0
M  V30 1692 H 158.294 -2.81743 -2.51852 0
M  V30 1693 H 158.607 -6.15943 -4.66727 0
M  V30 1694 H 156.952 -5.53514 -4.20294 0
M  V30 1695 H 160.143 -3.5455 -3.05634 0
M  V30 1696 H 160.316 -5.06934 -4.03636 0
M  V30 1697 N 153.722 1.14298 -1.08507 0
M  V30 1698 C 154.652 2.21542 -0.737646 0
M  V30 1699 C 155.633 1.67773 0.280377 0
M  V30 1700 O 156.818 1.93616 0.150521 0
M  V30 1701 C 153.948 3.46988 -0.147259 0
M  V30 1702 C 152.902 4.13789 -1.09374 0
M  V30 1703 C 152.228 5.33449 -0.365524 0
M  V30 1704 C 153.528 4.62208 -2.4323 0
M  V30 1705 H 155.222 2.5086 -1.6343 0
M  V30 1706 H 152.768 1.20576 -0.787243 0
M  V30 1707 H 154.721 4.21262 0.107808 0
M  V30 1708 H 153.445 3.17037 0.784538 0
M  V30 1709 H 152.104 3.4147 -1.33393 0
M  V30 1710 H 151.752 4.99759 0.57011 0
M  V30 1711 H 151.452 5.79088 -0.996512 0
M  V30 1712 H 152.976 6.10485 -0.118534 0
M  V30 1713 H 154.39 5.27952 -2.23472 0
M  V30 1714 H 152.787 5.18553 -3.02031 0
M  V30 1715 H 153.857 3.77224 -3.04681 0
M  V30 1716 N 155.201 0.870884 1.31352 0
M  V30 1717 C 156.448 0.482273 1.96673 0
M  V30 1718 C 156.776 -0.965638 1.68836 0
M  V30 1719 O 156.031 -1.69514 0.977937 0
M  V30 1720 C 156.33 0.687157 3.50732 0
M  V30 1721 C 155.996 2.108 3.9859 0
M  V30 1722 C 154.658 2.49656 4.1137 0
M  V30 1723 C 157.01 3.03459 4.23748 0
M  V30 1724 C 154.338 3.80412 4.46659 0
M  V30 1725 C 156.69 4.3373 4.60501 0
M  V30 1726 C 155.354 4.725 4.71487 0
M  V30 1727 H 154.624 0.176476 0.719679 0
M  V30 1728 H 157.271 1.10405 1.56471 0
M  V30 1729 H 155.576 -0.0177476 3.91796 0
M  V30 1730 H 157.273 0.366284 3.99324 0
M  V30 1731 H 153.863 1.79633 3.8914 0
M  V30 1732 H 158.047 2.74665 4.13368 0
M  V30 1733 H 153.303 4.1021 4.53362 0
M  V30 1734 H 157.477 5.05578 4.78919 0
M  V30 1735 H 155.104 5.73859 4.98588 0
M  V30 1736 N 156.679 -1.44442 0.630414 0
M  V30 1737 C 157.904 -2.06927 0.139944 0
M  V30 1738 C 158.329 -1.46795 -1.17613 0
M  V30 1739 O 157.687 -0.569144 -1.72135 0
M  V30 1740 C 157.735 -3.6058 0.0379581 0
M  V30 1741 O 156.839 -3.99937 -1.0062 0
M  V30 1742 H 156.18 -0.658608 0.0844483 0
M  V30 1743 H 158.71 -1.85327 0.866891 0
M  V30 1744 H 158.72 -4.07714 -0.152856 0
M  V30 1745 H 157.395 -4.03728 0.998809 0
M  V30 1746 H 155.972 -3.64436 -0.79001 0
M  V30 1747 N 158.157 -0.370918 -1.53173 0
M  V30 1748 C 159.434 0.273754 -1.93675 0
M  V30 1749 C 159.814 1.65938 -1.3049 0
M  V30 1750 O 159.162 2.23698 -0.465999 0
M  V30 1751 C 159.372 0.318602 -3.47543 0
M  V30 1752 C 160.72 0.556392 -4.20939 0
M  V30 1753 O 161.744 0.399587 -3.53952 0
M  V30 1754 O 160.603 0.862133 -5.39657 0
M  V30 1755 H 157.697 0.165448 -0.810281 0
M  V30 1756 H 160.243 -0.42409 -1.64315 0
M  V30 1757 H 159.015 -0.652687 -3.85818 0
M  V30 1758 H 158.638 1.06212 -3.83151 0
M  V30 1759 N 159.635 1.57281 -0.100228 0
M  V30 1760 C 160.598 2.13158 0.842398 0
M  V30 1761 C 161.598 1.06202 1.20738 0
M  V30 1762 O 162.788 1.32066 1.13597 0
M  V30 1763 C 159.92 2.65639 2.13655 0
M  V30 1764 H 161.113 2.97766 0.357114 0
M  V30 1765 H 158.666 1.5559 0.148823 0
M  V30 1766 H 159.401 1.84566 2.66657 0
M  V30 1767 H 159.186 3.43844 1.88451 0
M  V30 1768 H 160.676 3.08846 2.81077 0
M  V30 1769 N 161.113 -0.173488 1.56642 0
M  V30 1770 C 162.529 -0.525174 1.50712 0
M  V30 1771 C 162.729 -1.8476 0.804107 0
M  V30 1772 O 161.785 -2.49869 0.363574 0
M  V30 1773 C 163.098 -0.559937 2.95441 0
M  V30 1774 C 164.646 -0.647288 3.06234 0
M  V30 1775 C 165.121 -0.712963 4.52417 0
M  V30 1776 N 166.612 -0.775911 4.56655 0
M  V30 1777 C 167.347 -0.847264 5.67106 0
M  V30 1778 N 166.843 -0.879585 6.87194 0
M  V30 1779 N 168.636 -0.886117 5.55071 0
M  V30 1780 H 160.787 0.693681 2.00753 0
M  V30 1781 H 163.05 0.249841 0.914485 0
M  V30 1782 H 162.756 0.343049 3.50023 0
M  V30 1783 H 162.63 -1.40718 3.49969 0
M  V30 1784 H 165.017 -1.5407 2.51687 0
M  V30 1785 H 165.098 0.226586 2.54794 0
M  V30 1786 H 164.742 0.176183 5.07594 0
M  V30 1787 H 164.672 -1.60295 5.0161 0
M  V30 1788 H 167.163 -0.759304 3.70193 0
M  V30 1789 H 167.476 -0.935144 7.67121 0
M  V30 1790 H 165.821 -0.847898 6.89808 0
M  V30 1791 H 169.012 -0.857853 4.60172 0
M  V30 1792 H 169.185 -0.938263 6.41171 0
M  V30 1793 N 162.591 -1.51276 -0.441967 0
M  V30 1794 C 164.007 -1.39349 -0.778083 0
M  V30 1795 C 164.207 -0.472212 -1.95889 0
M  V30 1796 O 163.263 0.0743551 -2.5239 0
M  V30 1797 C 164.576 -2.81292 -1.0628 0
M  V30 1798 C 166.124 -2.9041 -1.16751 0
M  V30 1799 C 166.599 -4.33251 -1.48519 0
M  V30 1800 N 168.09 -4.36336 -1.55453 0
M  V30 1801 C 168.825 -5.43885 -1.81596 0
M  V30 1802 N 168.321 -6.61601 -2.05562 0
M  V30 1803 N 170.114 -5.3136 -1.8334 0
M  V30 1804 H 162.265 -2.09729 0.335774 0
M  V30 1805 H 164.528 -0.943925 0.0878028 0
M  V30 1806 H 164.234 -3.50678 -0.267905 0
M  V30 1807 H 164.108 -3.20334 -1.99163 0
M  V30 1808 H 166.495 -2.21225 -1.95304 0
M  V30 1809 H 166.576 -2.54871 -0.217801 0
M  V30 1810 H 166.22 -5.02984 -0.704958 0
M  V30 1811 H 166.15 -4.66299 -2.44689 0
M  V30 1812 H 168.641 -3.51466 -1.38853 0
M  V30 1813 H 168.954 -7.39361 -2.24867 0
M  V30 1814 H 167.299 -6.64725 -2.02894 0
M  V30 1815 H 170.49 -4.38382 -1.64132 0
M  V30 1816 H 170.663 -6.15258 -2.03377 0
M  V30 1817 N 164.069 0.697108 -1.41344 0
M  V30 1818 C 164.999 1.82353 -1.45841 0
M  V30 1819 C 165.98 1.67115 -0.317247 0
M  V30 1820 O 167.165 1.86871 -0.528474 0
M  V30 1821 C 164.295 3.20476 -1.33838 0
M  V30 1822 C 163.249 3.50415 -2.4575 0
M  V30 1823 C 162.575 4.87878 -2.18813 0
M  V30 1824 C 163.875 3.49546 -3.88091 0
M  V30 1825 H 165.569 1.78846 -2.40113 0
M  V30 1826 H 163.115 0.859028 -1.15571 0
M  V30 1827 H 165.068 3.98988 -1.35596 0
M  V30 1828 H 163.792 3.24604 -0.360498 0
M  V30 1829 H 162.451 2.74253 -2.43271 0
M  V30 1830 H 162.099 4.8863 -1.19371 0
M  V30 1831 H 161.799 5.08875 -2.93803 0
M  V30 1832 H 163.323 5.68702 -2.22284 0
M  V30 1833 H 164.737 4.18066 -3.92293 0
M  V30 1834 H 163.134 3.82075 -4.62751 0
M  V30 1835 H 164.204 2.48552 -4.16353 0
M  V30 1836 N 165.547 1.27147 0.931209 0
M  V30 1837 C 166.477 1.12081 2.04842 0
M  V30 1838 C 167.458 0.0232364 1.70084 0
M  V30 1839 O 168.643 0.197085 1.93197 0
M  V30 1840 C 165.773 0.76354 3.38803 0
M  V30 1841 C 164.727 1.81396 3.87659 0
M  V30 1842 C 164.053 1.31075 5.18385 0
M  V30 1843 C 165.353 3.21739 4.11438 0
M  V30 1844 H 167.047 2.05537 2.17703 0
M  V30 1845 H 164.593 0.989603 1.04608 0
M  V30 1846 H 166.546 0.644982 4.16435 0
M  V30 1847 H 165.27 -0.206727 3.25945 0
M  V30 1848 H 163.929 1.92136 3.12217 0
M  V30 1849 H 163.577 0.330037 5.01916 0
M  V30 1850 H 163.277 2.013 5.52044 0
M  V30 1851 H 164.801 1.20506 5.98591 0
M  V30 1852 H 166.215 3.14019 4.79651 0
M  V30 1853 H 164.612 3.89644 4.56397 0
M  V30 1854 H 165.682 3.67054 3.16859 0
M  V30 1855 N 167.025 -1.13721 1.09112 0
M  V30 1856 C 167.955 -2.21148 0.749385 0
M  V30 1857 C 168.936 -1.6792 -0.271475 0
M  V30 1858 O 170.121 -1.93693 -0.140251 0
M  V30 1859 C 167.251 -3.46905 0.165659 0
M  V30 1860 C 166.205 -4.13203 1.11567 0
M  V30 1861 C 165.531 -5.33248 0.393809 0
M  V30 1862 C 166.831 -4.60912 2.45678 0
M  V30 1863 H 168.525 -2.4999 1.64758 0
M  V30 1864 H 166.071 -1.20156 0.793626 0
M  V30 1865 H 168.024 -4.21313 -0.085466 0
M  V30 1866 H 166.748 -3.17449 -0.767714 0
M  V30 1867 H 165.407 -3.40758 1.35202 0
M  V30 1868 H 165.055 -5.00054 -0.543599 0
M  V30 1869 H 164.755 -5.78552 1.02721 0
M  V30 1870 H 166.279 -6.10413 0.150908 0
M  V30 1871 H 167.693 -5.26759 2.26269 0
M  V30 1872 H 166.09 -5.16944 3.04776 0
M  V30 1873 H 167.16 -3.75603 3.06677 0
M  V30 1874 N 168.503 -0.877838 -1.30888 0
M  V30 1875 C 169.733 -0.506678 -2.00291 0
M  V30 1876 C 170.141 0.907449 -1.66018 0
M  V30 1877 O 169.484 1.60719 -0.88967 0
M  V30 1878 C 169.546 -0.59323 -3.54572 0
M  V30 1879 C 169.21 -1.97038 -4.12341 0
M  V30 1880 C 170.207 -2.93889 -4.28865 0
M  V30 1881 C 167.892 -2.27383 -4.47886 0
M  V30 1882 C 169.886 -4.19224 -4.80136 0
M  V30 1883 C 167.573 -3.52965 -4.98857 0
M  V30 1884 C 168.571 -4.48701 -5.14934 0
M  V30 1885 O 168.259 -5.72056 -5.64808 0
M  V30 1886 H 167.991 -0.1951 -0.647234 0
M  V30 1887 H 170.545 -1.18301 -1.6791 0
M  V30 1888 H 168.775 0.140057 -3.86446 0
M  V30 1889 H 170.464 -0.234372 -4.05223 0
M  V30 1890 H 171.23 -2.71756 -4.01714 0
M  V30 1891 H 167.109 -1.53639 -4.34645 0
M  V30 1892 H 170.653 -4.93956 -4.92599 0
M  V30 1893 H 166.55 -3.74939 -5.25443 0
M  V30 1894 H 167.318 -5.74337 -5.83163 0
M  V30 1895 N 169.982 1.44106 -0.638065 0
M  V30 1896 C 171.207 2.0685 -0.150916 0
M  V30 1897 C 171.632 1.47417 1.16833 0
M  V30 1898 O 170.99 0.578264 1.71831 0
M  V30 1899 C 171.038 3.60555 -0.05708 0
M  V30 1900 O 170.142 4.00465 0.984972 0
M  V30 1901 H 169.483 0.658151 -0.0879399 0
M  V30 1902 H 172.013 1.84865 -0.876707 0
M  V30 1903 H 172.023 4.07789 0.131232 0
M  V30 1904 H 170.698 4.03193 -1.02021 0
M  V30 1905 H 169.275 3.64849 0.770672 0
M  V30 1906 N 171.46 0.379036 1.52974 0
M  V30 1907 C 172.392 -0.495963 2.2377 0
M  V30 1908 C 173.405 -1.03517 1.25651 0
M  V30 1909 O 174.594 -0.939249 1.51791 0
M  V30 1910 C 171.694 -1.69894 2.93239 0
M  V30 1911 C 170.867 -1.2889 4.17979 0
M  V30 1912 C 169.926 -2.35543 4.70538 0
M  V30 1913 O 168.952 -1.97375 5.33883 0
M  V30 1914 N 170.154 -3.67318 4.49508 0
M  V30 1915 H 172.919 0.110523 2.99496 0
M  V30 1916 H 170.48 0.204878 1.60598 0
M  V30 1917 H 172.472 -2.40747 3.25304 0
M  V30 1918 H 171.042 -2.212 2.20883 0
M  V30 1919 H 170.262 -0.409676 3.92065 0
M  V30 1920 H 171.55 -0.991443 4.99047 0
M  V30 1921 H 170.948 -4.01095 3.98923 0
M  V30 1922 H 169.505 -4.34235 4.8609 0
M  V30 1923 N 172.938 -1.57226 0.108567 0
M  V30 1924 C 173.885 -2.14756 -0.845481 0
M  V30 1925 C 174.855 -1.06971 -1.27068 0
M  V30 1926 O 176.04 -1.34827 -1.35005 0
M  V30 1927 C 173.18 -2.74298 -2.09415 0
M  V30 1928 C 172.293 -3.96358 -1.71826 0
M  V30 1929 C 171.428 -4.44021 -2.9158 0
M  V30 1930 C 170.467 -5.58637 -2.50181 0
M  V30 1931 N 169.604 -6.01091 -3.62814 0
M  V30 1932 H 174.444 -2.95961 -0.348035 0
M  V30 1933 H 171.981 -1.46226 -0.160106 0
M  V30 1934 H 173.939 -3.06945 -2.82561 0
M  V30 1935 H 172.569 -1.95801 -2.56636 0
M  V30 1936 H 171.621 -3.69939 -0.885947 0
M  V30 1937 H 172.933 -4.79504 -1.37394 0
M  V30 1938 H 172.087 -4.78522 -3.72963 0
M  V30 1939 H 170.826 -3.59803 -3.29231 0
M  V30 1940 H 169.831 -5.23751 -1.67228 0
M  V30 1941 H 171.056 -6.44613 -2.13659 0
M  V30 1942 H 169.002 -5.19817 -4.00158 0
M  V30 1943 H 168.919 -6.79066 -3.32273 0
M  V30 1944 H 170.187 -6.40227 -4.44668 0
M  V30 1945 N 174.416 0.165178 -1.56732 0
M  V30 1946 C 175.693 0.908443 -1.73224 0
M  V30 1947 C 176.073 2.0013 -0.67165 0
M  V30 1948 O 175.421 2.26353 0.31253 0
M  V30 1949 C 175.631 1.46756 -3.16644 0
M  V30 1950 C 176.979 1.93809 -3.77787 0
M  V30 1951 O 178.003 1.56537 -3.1996 0
M  V30 1952 O 176.862 2.62486 -4.79336 0
M  V30 1953 H 173.956 0.428025 -0.707618 0
M  V30 1954 H 176.502 0.152526 -1.69013 0
M  V30 1955 H 175.274 0.68129 -3.85323 0
M  V30 1956 H 174.897 2.28749 -3.25207 0
M  V30 1957 N 175.894 1.51508 0.433938 0
M  V30 1958 C 177.122 1.68157 1.20543 0
M  V30 1959 C 177.537 0.380362 1.84929 0
M  V30 1960 O 176.894 -0.641446 1.70856 0
M  V30 1961 C 176.945 2.79965 2.28696 0
M  V30 1962 O 176.666 4.05045 1.66943 0
M  V30 1963 C 178.167 3.07912 3.18912 0
M  V30 1964 H 175.387 0.56421 0.363191 0
M  V30 1965 H 177.931 1.97941 0.513754 0
M  V30 1966 H 176.086 2.5277 2.93574 0
M  V30 1967 H 176.5 4.67165 2.38448 0
M  V30 1968 H 177.974 3.89719 3.90926 0
M  V30 1969 H 178.451 2.20456 3.79863 0
M  V30 1970 H 179.057 3.36779 2.59731 0
M  V30 1971 N 177.372 -0.689602 1.41712 0
M  V30 1972 C 178.597 -1.48329 1.44959 0
M  V30 1973 C 179.022 -1.8801 0.0581283 0
M  V30 1974 O 178.38 -1.55026 -0.940035 0
M  V30 1975 C 178.428 -2.71835 2.36935 0
M  V30 1976 O 177.532 -3.69549 1.8305 0
M  V30 1977 H 176.873 -0.446199 0.491734 0
M  V30 1978 H 179.403 -0.847127 1.86239 0
M  V30 1979 H 179.413 -3.20076 2.53013 0
M  V30 1980 H 178.088 -2.42291 3.38035 0
M  V30 1981 H 176.665 -3.2851 1.76452 0
M  V30 1982 N 178.85 -1.27639 -0.924453 0
M  V30 1983 C 179.783 -1.04966 -2.02626 0
M  V30 1984 C 180.761 0.0309505 -1.62571 0
M  V30 1985 O 181.945 -0.114846 -1.8815 0
M  V30 1986 C 179.072 -0.59292 -3.3347 0
M  V30 1987 C 178.118 -1.66858 -3.92506 0
M  V30 1988 S 178.951 -3.2619 -4.24689 0
M  V30 1989 C 180.107 -2.82325 -5.58609 0
M  V30 1990 H 180.34 -1.98252 -2.21547 0
M  V30 1991 H 177.873 -1.11506 -1.06798 0
M  V30 1992 H 179.831 -0.336086 -4.09122 0
M  V30 1993 H 178.492 0.319939 -3.12466 0
M  V30 1994 H 177.685 -1.30038 -4.86935 0
M  V30 1995 H 177.287 -1.87766 -3.2345 0
M  V30 1996 H 179.579 -2.2783 -6.38044 0
M  V30 1997 H 180.522 -3.75511 -6.00331 0
M  V30 1998 H 180.93 -2.21367 -5.19285 0
M  V30 1999 N 180.328 1.1314 -1.09713 0
M  V30 2000 C 181.275 2.18642 -0.739196 0
M  V30 2001 C 182.245 1.63706 0.280978 0
M  V30 2002 O 183.43 1.90111 0.161946 0
M  V30 2003 C 180.57 3.44685 -0.169102 0
M  V30 2004 C 179.683 4.13711 -1.24367 0
M  V30 2005 C 178.818 5.27379 -0.636019 0
M  V30 2006 C 177.857 5.88259 -1.69169 0
M  V30 2007 N 176.994 6.93352 -1.10485 0
M  V30 2008 H 181.834 2.48607 -1.64312 0
M  V30 2009 H 179.371 1.22066 -0.820875 0
M  V30 2010 H 181.329 4.16815 0.179256 0
M  V30 2011 H 179.959 3.15161 0.698079 0
M  V30 2012 H 179.011 3.39835 -1.70927 0
M  V30 2013 H 180.323 4.55037 -2.04311 0
M  V30 2014 H 179.477 6.06238 -0.236677 0
M  V30 2015 H 178.216 4.8731 0.194928 0
M  V30 2016 H 177.221 5.08092 -2.10055 0
M  V30 2017 H 178.446 6.30399 -2.52536 0
M  V30 2018 H 176.392 6.55335 -0.295234 0
M  V30 2019 H 176.309 7.33236 -1.84121 0
M  V30 2020 H 177.577 7.76057 -0.73181 0
M  V30 2021 N 181.806 0.884767 1.30421 0
M  V30 2022 C 183.083 0.423185 1.90967 0
M  V30 2023 C 183.463 -1.09605 1.80416 0
M  V30 2024 O 182.811 -1.93126 1.22125 0
M  V30 2025 C 183.021 0.921056 3.36627 0
M  V30 2026 C 184.369 0.955903 4.137 0
M  V30 2027 O 185.393 0.867706 3.4547 0
M  V30 2028 O 184.252 1.08614 5.35598 0
M  V30 2029 H 181.346 0.129369 0.816819 0
M  V30 2030 H 183.892 0.973653 1.3899 0
M  V30 2031 H 182.664 1.96489 3.3839 0
M  V30 2032 H 182.287 0.349741 3.96059 0
M  V30 2033 N 183.284 -1.43765 0.645699 0
M  V30 2034 C 184.217 -2.2798 -0.100072 0
M  V30 2035 C 185.195 -1.39391 -0.837194 0
M  V30 2036 O 186.379 -1.68833 -0.838306 0
M  V30 2037 C 183.506 -3.18643 -1.14823 0
M  V30 2038 C 182.552 -4.2344 -0.510009 0
M  V30 2039 S 183.385 -5.30761 0.710824 0
M  V30 2040 C 184.541 -6.24992 -0.33699 0
M  V30 2041 H 184.774 -2.90884 0.614322 0
M  V30 2042 H 182.307 -1.48166 0.434304 0
M  V30 2043 H 184.265 -3.71424 -1.74799 0
M  V30 2044 H 182.926 -2.54932 -1.8349 0
M  V30 2045 H 182.119 -4.86948 -1.29991 0
M  V30 2046 H 181.721 -3.73997 0.0154577 0
M  V30 2047 H 184.013 -6.66691 -1.20537 0
M  V30 2048 H 184.956 -7.07612 0.262879 0
M  V30 2049 H 185.364 -5.60517 -0.669425 0
M  V30 2050 N 184.763 -0.387143 -1.52771 0
M  V30 2051 C 186.179 -0.037007 -1.59557 0
M  V30 2052 C 186.379 1.44801 -1.40124 0
M  V30 2053 O 185.435 2.21227 -1.21716 0
M  V30 2054 C 186.748 -0.512256 -2.96305 0
M  V30 2055 C 188.296 -0.468328 -3.09476 0
M  V30 2056 C 188.771 -0.919731 -4.4867 0
M  V30 2057 N 190.262 -0.875656 -4.54848 0
M  V30 2058 C 190.997 -1.19637 -5.6078 0
M  V30 2059 N 190.493 -1.58745 -6.74368 0
M  V30 2060 N 192.286 -1.11776 -5.50874 0
M  V30 2061 H 184.437 -1.35395 -1.63652 0
M  V30 2062 H 186.7 -0.554818 -0.768688 0
M  V30 2063 H 186.406 -1.54935 -3.15734 0
M  V30 2064 H 186.28 0.089805 -3.77093 0
M  V30 2065 H 188.667 0.559671 -2.89744 0
M  V30 2066 H 188.748 -1.10616 -2.30646 0
M  V30 2067 H 188.392 -1.94595 -4.69143 0
M  V30 2068 H 188.322 -0.258927 -5.25963 0
M  V30 2069 H 190.813 -0.587843 -3.733 0
M  V30 2070 H 191.126 -1.81586 -7.51163 0
M  V30 2071 H 189.471 -1.6263 -6.75705 0
M  V30 2072 H 192.662 -0.811264 -4.61016 0
M  V30 2073 H 192.835 -1.37103 -6.3333 0
M  V30 2074 N 186.241 1.57166 -0.116904 0
M  V30 2075 C 187.188 2.15202 0.83408 0
M  V30 2076 C 188.158 1.07644 1.26499 0
M  V30 2077 O 189.343 1.35541 1.34288 0
M  V30 2078 C 186.483 2.75405 2.07957 0
M  V30 2079 C 185.596 3.97264 1.69721 0
M  V30 2080 C 184.731 4.45561 2.89221 0
M  V30 2081 C 183.77 5.59956 2.47215 0
M  V30 2082 N 182.907 6.03006 3.59622 0
M  V30 2083 H 187.747 2.96141 0.332335 0
M  V30 2084 H 185.284 1.46309 0.152349 0
M  V30 2085 H 187.242 3.08439 2.80929 0
M  V30 2086 H 185.872 1.97159 2.55594 0
M  V30 2087 H 184.924 3.70404 0.866316 0
M  V30 2088 H 186.236 4.80226 1.34849 0
M  V30 2089 H 185.39 4.80493 3.7042 0
M  V30 2090 H 184.129 3.61544 3.27318 0
M  V30 2091 H 183.134 5.2463 1.64448 0
M  V30 2092 H 184.359 6.45738 2.10238 0
M  V30 2093 H 182.305 5.21931 3.97396 0
M  V30 2094 H 182.222 6.80819 3.28667 0
M  V30 2095 H 183.49 6.42576 4.41267 0
M  V30 2096 N 187.719 -0.156864 1.56817 0
M  V30 2097 C 188.965 -0.872416 1.83076 0
M  V30 2098 C 189.298 -1.81261 0.697001 0
M  V30 2099 O 188.573 -1.92171 -0.30008 0
M  V30 2100 C 188.856 -1.65551 3.19789 0
M  V30 2101 C 188.709 -0.737467 4.43713 0
M  V30 2102 C 190.028 -2.62012 3.53606 0
M  V30 2103 H 187.147 -0.315715 0.665953 0
M  V30 2104 H 189.789 -0.138004 1.89498 0
M  V30 2105 H 187.939 -2.28159 3.14445 0
M  V30 2106 H 189.611 -0.123143 4.61136 0
M  V30 2107 H 187.854 -0.0464067 4.33775 0
M  V30 2108 H 188.525 -1.32122 5.35955 0
M  V30 2109 H 191.001 -2.09525 3.59497 0
M  V30 2110 H 189.877 -3.13861 4.50314 0
M  V30 2111 H 190.138 -3.42902 2.79053 0
M  V30 2112 N 189.197 -1.51736 -0.425897 0
M  V30 2113 C 190.127 -1.76827 -1.52494 0
M  V30 2114 C 191.108 -0.618524 -1.58456 0
M  V30 2115 O 192.293 -0.862416 -1.74 0
M  V30 2116 C 189.423 -1.90374 -2.90474 0
M  V30 2117 C 188.377 -3.0588 -2.99369 0
M  V30 2118 C 187.703 -3.04625 -4.3944 0
M  V30 2119 C 189.003 -4.45644 -2.72394 0
M  V30 2120 H 190.697 -2.68855 -1.31748 0
M  V30 2121 H 188.243 -1.29372 -0.632362 0
M  V30 2122 H 190.196 -2.0651 -3.6733 0
M  V30 2123 H 188.92 -0.95004 -3.12477 0
M  V30 2124 H 187.579 -2.89467 -2.24954 0
M  V30 2125 H 187.227 -2.0701 -4.58428 0
M  V30 2126 H 186.927 -3.82195 -4.46319 0
M  V30 2127 H 188.451 -3.22869 -5.18255 0
M  V30 2128 H 189.865 -4.62348 -3.38979 0
M  V30 2129 H 188.262 -5.25006 -2.9067 0
M  V30 2130 H 189.332 -4.54893 -1.67929 0
M  V30 2131 N 190.675 0.682077 -1.42076 0
M  V30 2132 C 192.091 0.994324 -1.24841 0
M  V30 2133 C 192.291 2.0096 -0.147389 0
M  V30 2134 O 191.347 2.47822 0.483782 0
M  V30 2135 C 192.66 1.50607 -2.60265 0
M  V30 2136 C 194.208 1.62421 -2.6756 0
M  V30 2137 C 194.683 2.16994 -4.03333 0
M  V30 2138 N 196.174 2.24337 -4.0525 0
M  V30 2139 C 196.909 2.67621 -5.07116 0
M  V30 2140 N 196.405 3.1041 -6.19368 0
M  V30 2141 N 198.198 2.67305 -4.94474 0
M  V30 2142 H 190.349 0.00973908 -2.12398 0
M  V30 2143 H 192.612 0.0668593 -0.945639 0
M  V30 2144 H 192.318 0.834583 -3.41654 0
M  V30 2145 H 192.192 2.48602 -2.83684 0
M  V30 2146 H 194.579 2.28678 -1.86521 0
M  V30 2147 H 194.66 0.629352 -2.47937 0
M  V30 2148 H 194.304 1.51349 -4.84826 0
M  V30 2149 H 194.234 3.17258 -4.20304 0
M  V30 2150 H 196.725 1.94158 -3.24209 0
M  V30 2151 H 197.038 3.42103 -6.92954 0
M  V30 2152 H 195.383 3.08286 -6.22884 0
M  V30 2153 H 198.574 2.33233 -4.05857 0
M  V30 2154 H 198.747 3.00718 -5.73997 0
M  V30 2155 N 192.153 1.28127 0.917671 0
M  V30 2156 C 193.381 1.17892 1.70026 0
M  V30 2157 C 193.796 -0.262958 1.8696 0
M  V30 2158 O 193.153 -1.17811 1.3938 0
M  V30 2159 C 193.204 1.86872 3.09453 0
M  V30 2160 O 192.925 3.25428 2.93306 0
M  V30 2161 C 194.426 1.8289 4.03815 0
M  V30 2162 H 191.646 0.40942 0.531617 0
M  V30 2163 H 194.19 1.69181 1.14883 0
M  V30 2164 H 192.345 1.39464 3.61426 0
M  V30 2165 H 192.759 3.59918 3.81523 0
M  V30 2166 H 194.233 2.35751 4.99125 0
M  V30 2167 H 194.71 0.800412 4.31845 0
M  V30 2168 H 195.316 2.29959 3.57769 0
M  V30 2169 N 193.631 -1.12557 1.10312 0
M  V30 2170 C 194.561 -2.20341 0.772798 0
M  V30 2171 C 195.542 -1.68198 -0.25365 0
M  V30 2172 O 196.727 -1.93831 -0.119699 0
M  V30 2173 C 193.857 -3.46709 0.202443 0
M  V30 2174 C 192.811 -4.11996 1.15943 0
M  V30 2175 C 192.137 -5.328 0.450345 0
M  V30 2176 C 193.437 -4.5828 2.50552 0
M  V30 2177 H 195.131 -2.48229 1.674 0
M  V30 2178 H 192.677 -1.19308 0.806326 0
M  V30 2179 H 194.63 -4.2138 -0.0407752 0
M  V30 2180 H 193.354 -3.18245 -0.734001 0
M  V30 2181 H 192.013 -3.39305 1.38808 0
M  V30 2182 H 191.661 -5.00602 -0.490531 0
M  V30 2183 H 191.361 -5.7743 1.08851 0
M  V30 2184 H 192.885 -6.10219 0.215642 0
M  V30 2185 H 194.299 -5.2433 2.31843 0
M  V30 2186 H 192.696 -5.13683 3.10242 0
M  V30 2187 H 193.766 -3.72329 3.10643 0
M  V30 2188 N 195.109 -0.891671 -1.2995 0
M  V30 2189 C 196.041 -0.320695 -2.26945 0
M  V30 2190 C 197.054 0.528497 -1.53983 0
M  V30 2191 O 198.243 0.346959 -1.75096 0
M  V30 2192 C 195.343 0.562066 -3.34207 0
M  V30 2193 C 194.516 -0.259576 -4.36629 0
M  V30 2194 C 193.575 0.554739 -5.23268 0
M  V30 2195 O 192.601 -0.0249311 -5.69195 0
M  V30 2196 N 193.803 1.8625 -5.4981 0
M  V30 2197 H 196.568 -1.15432 -2.76578 0
M  V30 2198 H 194.129 -0.755336 -1.432 0
M  V30 2199 H 196.121 1.11304 -3.89093 0
M  V30 2200 H 194.691 1.29637 -2.84452 0
M  V30 2201 H 193.911 -0.991986 -3.81514 0
M  V30 2202 H 195.199 -0.822564 -5.02107 0
M  V30 2203 H 194.597 2.35628 -5.14292 0
M  V30 2204 H 193.154 2.36078 -6.07545 0
M  V30 2205 N 196.587 1.43421 -0.653314 0
M  V30 2206 C 197.519 2.29071 0.0769134 0
M  V30 2207 C 198.532 1.42513 0.787017 0
M  V30 2208 O 199.721 1.66449 0.644757 0
M  V30 2209 C 196.821 3.19436 1.13199 0
M  V30 2210 C 195.994 4.34533 0.500006 0
M  V30 2211 C 195.053 5.05771 1.45198 0
M  V30 2212 O 194.079 5.61037 0.960538 0
M  V30 2213 N 195.281 5.0928 2.78594 0
M  V30 2214 H 198.046 2.92382 -0.658235 0
M  V30 2215 H 195.607 1.54112 -0.496104 0
M  V30 2216 H 197.599 3.63958 1.76964 0
M  V30 2217 H 196.169 2.57724 1.7691 0
M  V30 2218 H 195.389 3.92925 -0.316738 0
M  V30 2219 H 196.677 5.08766 0.0588345 0
M  V30 2220 H 196.075 4.65751 3.2108 0
M  V30 2221 H 194.632 5.57519 3.37662 0
M  V30 2222 N 198.065 0.39524 1.52563 0
M  V30 2223 C 199.314 -0.186321 2.00838 0
M  V30 2224 C 199.627 -1.47402 1.28577 0
M  V30 2225 O 200.833 -2.13599 1.67593 0
M  V30 2226 C 199.289 -0.382595 3.57861 0
M  V30 2227 C 198.897 0.892202 4.39026 0
M  V30 2228 C 200.641 -0.9202 4.14406 0
M  V30 2229 C 198.548 0.66388 5.87662 0
M  V30 2230 H 197.478 -0.0734041 0.750418 0
M  V30 2231 H 200.129 0.518552 1.76021 0
M  V30 2232 H 198.511 -1.14946 3.7895 0
M  V30 2233 H 199.685 1.66414 4.29701 0
M  V30 2234 H 198 1.35519 3.9373 0
M  V30 2235 H 200.597 -1.10683 5.23119 0
M  V30 2236 H 200.94 -1.89096 3.70875 0
M  V30 2237 H 201.473 -0.212751 3.97231 0
M  V30 2238 H 198.212 1.6058 6.35527 0
M  V30 2239 H 197.732 -0.0690193 5.9976 0
M  V30 2240 H 199.411 0.300699 6.46301 0
M  V30 2241 N 199.544 -1.57102 0.125237 0
M  V30 2242 C 200.491 -2.15641 -0.822655 0
M  V30 2243 C 201.461 -1.08313 -1.25927 0
M  V30 2244 O 202.646 -1.36251 -1.33567 0
M  V30 2245 C 199.786 -2.76504 -2.06494 0
M  V30 2246 C 198.899 -3.98158 -1.67612 0
M  V30 2247 C 198.034 -4.47088 -2.86854 0
M  V30 2248 C 197.073 -5.6126 -2.44242 0
M  V30 2249 N 196.21 -6.04905 -3.56419 0
M  V30 2250 H 201.05 -2.96313 -0.316625 0
M  V30 2251 H 198.587 -1.46388 -0.144588 0
M  V30 2252 H 200.545 -3.09925 -2.79289 0
M  V30 2253 H 199.175 -1.98512 -2.54545 0
M  V30 2254 H 198.227 -3.70858 -0.846661 0
M  V30 2255 H 199.539 -4.80934 -1.32301 0
M  V30 2256 H 198.693 -4.82451 -3.67867 0
M  V30 2257 H 197.432 -3.63275 -3.25396 0
M  V30 2258 H 196.437 -5.25495 -1.61663 0
M  V30 2259 H 197.662 -6.46843 -2.0681 0
M  V30 2260 H 195.608 -5.24032 -3.94623 0
M  V30 2261 H 195.525 -6.82552 -3.25051 0
M  V30 2262 H 196.793 -6.44907 -4.37853 0
M  V30 2263 N 201.022 0.148545 -1.56898 0
M  V30 2264 C 201.969 1.18345 -1.98149 0
M  V30 2265 C 202.939 1.42772 -0.848848 0
M  V30 2266 O 204.124 1.55132 -1.11079 0
M  V30 2267 C 201.264 2.51231 -2.36594 0
M  V30 2268 C 200.377 2.33991 -3.63142 0
M  V30 2269 C 199.512 3.59902 -3.90697 0
M  V30 2270 C 198.551 3.37692 -5.1052 0
M  V30 2271 N 197.688 4.5573 -5.34092 0
M  V30 2272 H 202.528 0.82467 -2.86362 0
M  V30 2273 H 200.065 0.395756 -1.41676 0
M  V30 2274 H 202.023 3.28713 -2.56912 0
M  V30 2275 H 200.653 2.85059 -1.51463 0
M  V30 2276 H 199.705 1.47572 -3.50609 0
M  V30 2277 H 201.017 2.13539 -4.5078 0
M  V30 2278 H 200.171 4.45813 -4.11505 0
M  V30 2279 H 198.91 3.83357 -3.01477 0
M  V30 2280 H 197.915 2.5017 -4.89587 0
M  V30 2281 H 199.14 3.15637 -6.0129 0
M  V30 2282 H 197.086 4.79361 -4.47827 0
M  V30 2283 H 197.003 4.38274 -6.15996 0
M  V30 2284 H 198.271 5.42858 -5.59397 0
M  V30 2285 N 202.5 1.5196 0.417844 0
M  V30 2286 C 203.725 1.69717 1.1921 0
M  V30 2287 C 204.15 0.402148 1.83751 0
M  V30 2288 O 203.508 -0.639593 1.69643 0
M  V30 2289 C 203.556 2.82794 2.2374 0
M  V30 2290 O 202.66 2.47756 3.29683 0
M  V30 2291 H 202.001 0.565263 0.348387 0
M  V30 2292 H 204.531 1.98621 0.490985 0
M  V30 2293 H 204.541 3.07452 2.68212 0
M  V30 2294 H 203.216 3.76756 1.76146 0
M  V30 2295 H 201.793 2.33739 2.90552 0
M  V30 2296 N 203.978 -0.674533 1.42435 0
M  V30 2297 C 205.203 -1.46784 1.46524 0
M  V30 2298 C 205.628 -1.87938 0.078066 0
M  V30 2299 O 204.986 -1.56014 -0.92354 0
M  V30 2300 C 205.034 -2.69307 2.39805 0
M  V30 2301 O 204.138 -3.67587 1.86959 0
M  V30 2302 H 203.479 -0.440959 0.496439 0
M  V30 2303 H 206.009 -0.827326 1.87127 0
M  V30 2304 H 206.019 -3.17374 2.56393 0
M  V30 2305 H 204.694 -2.38692 3.40586 0
M  V30 2306 H 203.271 -3.2662 1.79927 0
M  V30 2307 N 205.456 -1.28612 -0.910864 0
M  V30 2308 C 206.681 -1.1891 -1.69927 0
M  V30 2309 C 207.106 0.248372 -1.86453 0
M  V30 2310 O 206.464 1.17961 -1.37676 0
M  V30 2311 C 206.512 -1.89578 -3.06745 0
M  V30 2312 O 205.616 -1.20521 -3.94396 0
M  V30 2313 H 204.957 -0.412632 -0.520222 0
M  V30 2314 H 207.487 -1.69985 -1.1387 0
M  V30 2315 H 207.497 -1.97597 -3.56958 0
M  V30 2316 H 206.172 -2.94136 -2.94035 0
M  V30 2317 H 204.749 -1.20684 -3.52831 0
M  V30 2318 N 206.934 1.1197 -1.10907 0
M  V30 2319 C 207.882 2.19927 -0.757303 0
M  V30 2320 C 208.876 1.67564 0.248747 0
M  V30 2321 O 210.082 1.79672 0.108605 0
M  V30 2322 H 206.457 0.716925 -0.226987 0
M  V30 2323 H 208.428 2.46847 -1.67658 0
M  V30 2324 C 207.177 3.47061 -0.210671 0
M  V30 2325 H 206.5 3.87703 -0.976049 0
M  V30 2326 H 207.94 4.24 -0.0026584 0
M  V30 2327 C 206.399 3.19864 1.05777 0
M  V30 2328 O 206.929 3.40049 2.13845 0
M  V30 2329 N 205.135 2.73636 0.978349 0
M  V30 2330 H 204.682 2.5741 0.0988246 0
M  V30 2331 H 204.64 2.55815 1.82773 0
M  V30 2332 N 208.412 0.89855 1.29475 0
M  V30 2333 C 209.342 0.39201 2.30186 0
M  V30 2334 C 210.323 -0.532359 1.61555 0
M  V30 2335 O 211.508 -0.443331 1.89072 0
M  V30 2336 C 208.638 -0.382353 3.45189 0
M  V30 2337 C 207.592 0.451483 4.25612 0
M  V30 2338 C 206.918 -0.450307 5.328 0
M  V30 2339 C 208.218 1.70079 4.93832 0
M  V30 2340 H 209.912 1.23362 2.72804 0
M  V30 2341 H 207.458 0.594638 1.31149 0
M  V30 2342 H 209.411 -0.747451 4.14718 0
M  V30 2343 H 208.135 -1.25774 3.01411 0
M  V30 2344 H 206.794 0.798897 3.57789 0
M  V30 2345 H 206.442 -1.32379 4.85268 0
M  V30 2346 H 206.142 0.103902 5.87508 0
M  V30 2347 H 207.666 -0.811623 6.05182 0
M  V30 2348 H 209.08 1.40549 5.55805 0
M  V30 2349 H 207.477 2.19623 5.58467 0
M  V30 2350 H 208.547 2.43744 4.19186 0
M  V30 2351 N 209.89 -1.43072 0.660911 0
M  V30 2352 C 210.837 -2.30785 -0.0259884 0
M  V30 2353 C 211.807 -1.45184 -0.806888 0
M  V30 2354 O 212.992 -1.74041 -0.781943 0
M  V30 2355 C 210.132 -3.30861 -0.981067 0
M  V30 2356 C 209.245 -4.31558 -0.195458 0
M  V30 2357 C 208.38 -5.18712 -1.14503 0
M  V30 2358 C 207.419 -6.11097 -0.350299 0
M  V30 2359 N 206.556 -6.90849 -1.25186 0
M  V30 2360 H 211.396 -2.88975 0.727846 0
M  V30 2361 H 208.933 -1.42353 0.370682 0
M  V30 2362 H 210.891 -3.87399 -1.54849 0
M  V30 2363 H 209.521 -2.74304 -1.70169 0
M  V30 2364 H 208.573 -3.77252 0.488374 0
M  V30 2365 H 209.885 -4.9701 0.422176 0
M  V30 2366 H 209.039 -5.79914 -1.78284 0
M  V30 2367 H 207.778 -4.53404 -1.79656 0
M  V30 2368 H 206.783 -5.48976 0.300808 0
M  V30 2369 H 208.008 -6.7845 0.296941 0
M  V30 2370 H 205.954 -6.28182 -1.89005 0
M  V30 2371 H 205.871 -7.52854 -0.688971 0
M  V30 2372 H 207.139 -7.5655 -1.87757 0
M  V30 2373 N 211.368 -0.403325 -1.52352 0
M  V30 2374 C 212.298 0.416205 -2.29761 0
M  V30 2375 C 213.279 1.05123 -1.33728 0
M  V30 2376 O 214.464 1.06134 -1.62632 0
M  V30 2377 C 211.594 1.53624 -3.11475 0
M  V30 2378 C 210.548 1.02653 -4.15507 0
M  V30 2379 C 209.874 2.23971 -4.85532 0
M  V30 2380 C 211.174 0.08463 -5.22231 0
M  V30 2381 H 212.868 -0.229701 -2.98518 0
M  V30 2382 H 210.414 -0.111913 -1.43564 0
M  V30 2383 H 212.367 2.1165 -3.64393 0
M  V30 2384 H 211.091 2.20994 -2.40477 0
M  V30 2385 H 209.75 0.46871 -3.63591 0
M  V30 2386 H 209.398 2.89883 -4.11068 0
M  V30 2387 H 209.098 1.90521 -5.55856 0
M  V30 2388 H 210.622 2.82614 -5.41259 0
M  V30 2389 H 212.036 0.573509 -5.70424 0
M  V30 2390 H 210.433 -0.160783 -5.99885 0
M  V30 2391 H 211.503 -0.86237 -4.7717 0
M  V30 2392 N 212.846 1.57033 -0.133567 0
M  V30 2393 C 213.778 2.13176 0.841944 0
M  V30 2394 C 214.791 1.07794 1.22001 0
M  V30 2395 O 215.98 1.35117 1.16643 0
M  V30 2396 C 213.08 2.62847 2.13926 0
M  V30 2397 C 212.253 3.92486 1.93064 0
M  V30 2398 C 211.312 4.27605 3.0666 0
M  V30 2399 O 210.338 4.96168 2.78937 0
M  V30 2400 N 211.54 3.861 4.33483 0
M  V30 2401 H 214.305 2.97503 0.362192 0
M  V30 2402 H 211.866 1.61821 0.05042 0
M  V30 2403 H 213.858 2.83363 2.88942 0
M  V30 2404 H 212.428 1.83319 2.53205 0
M  V30 2405 H 211.648 3.80732 1.02159 0
M  V30 2406 H 212.936 4.77225 1.76447 0
M  V30 2407 H 212.334 3.30828 4.58878 0
M  V30 2408 H 210.891 4.11694 5.05323 0
M  V30 2409 N 214.325 -0.140222 1.56975 0
M  V30 2410 C 215.602 -0.880769 1.74648 0
M  V30 2411 C 215.982 -1.99036 0.703404 0
M  V30 2412 O 215.33 -2.26821 -0.27648 0
M  V30 2413 C 215.54 -1.417 3.18939 0
M  V30 2414 C 216.888 -1.87774 3.80823 0
M  V30 2415 O 217.912 -1.51427 3.2241 0
M  V30 2416 O 216.771 -2.54827 4.83452 0
M  V30 2417 H 213.865 -0.416713 0.714338 0
M  V30 2418 H 216.411 -0.125618 1.69234 0
M  V30 2419 H 215.183 -0.619902 3.86359 0
M  V30 2420 H 214.806 -2.23546 3.28805 0
M  V30 2421 N 215.803 -1.52179 -0.40978 0
M  V30 2422 C 217.05 -1.66206 -1.15679 0
M  V30 2423 C 217.378 -0.391674 -1.90516 0
M  V30 2424 O 216.633 0.62533 -1.8544 0
M  V30 2425 C 216.932 -2.83428 -2.17723 0
M  V30 2426 C 216.598 -4.21672 -1.59699 0
M  V30 2427 C 215.26 -4.59274 -1.43599 0
M  V30 2428 C 217.612 -5.07825 -1.17317 0
M  V30 2429 C 214.94 -5.80709 -0.836328 0
M  V30 2430 C 217.292 -6.29864 -0.587691 0
M  V30 2431 C 215.956 -6.66216 -0.413818 0
M  V30 2432 H 215.226 -0.608192 -0.423301 0
M  V30 2433 H 217.873 -1.86279 -0.444097 0
M  V30 2434 H 216.178 -2.57687 -2.95135 0
M  V30 2435 H 217.875 -2.91477 -2.75394 0
M  V30 2436 H 214.465 -3.9204 -1.73213 0
M  V30 2437 H 218.649 -4.79359 -1.28565 0
M  V30 2438 H 213.905 -6.07498 -0.689626 0
M  V30 2439 H 218.079 -6.95948 -0.250894 0
M  V30 2440 H 215.706 -7.60182 0.0529471 0
M  V30 2441 N 217.281 0.66697 -1.42791 0
M  V30 2442 C 218.211 1.79218 -1.49677 0
M  V30 2443 C 219.192 1.66405 -0.352623 0
M  V30 2444 O 220.377 1.85708 -0.567993 0
M  V30 2445 C 217.507 3.17565 -1.40605 0
M  V30 2446 C 216.461 3.45124 -2.53127 0
M  V30 2447 C 215.787 4.83127 -2.29112 0
M  V30 2448 C 217.087 3.41236 -3.95418 0
M  V30 2449 H 218.781 1.73713 -2.43853 0
M  V30 2450 H 216.327 0.83432 -1.17367 0
M  V30 2451 H 218.28 3.96022 -1.44029 0
M  V30 2452 H 217.004 3.23767 -0.429271 0
M  V30 2453 H 215.663 2.69031 -2.49034 0
M  V30 2454 H 215.311 4.85988 -1.29709 0
M  V30 2455 H 215.011 5.02528 -3.04531 0
M  V30 2456 H 216.535 5.63859 -2.34297 0
M  V30 2457 H 217.949 4.09651 -4.01073 0
M  V30 2458 H 216.346 3.72173 -4.70752 0
M  V30 2459 H 217.416 2.39665 -4.21532 0
M  V30 2460 N 218.759 1.29093 0.90403 0
M  V30 2461 C 220.005 1.16986 1.65656 0
M  V30 2462 C 220.338 -0.278925 1.92186 0
M  V30 2463 O 219.613 -1.2019 1.5292 0
M  V30 2464 C 219.896 1.97908 3.0084 0
M  V30 2465 C 219.749 3.50903 2.81403 0
M  V30 2466 C 221.068 1.80208 4.01513 0
M  V30 2467 H 218.187 0.426346 0.601164 0
M  V30 2468 H 220.829 1.58518 1.04747 0
M  V30 2469 H 218.979 1.62616 3.52829 0
M  V30 2470 H 220.651 3.96153 2.36348 0
M  V30 2471 H 218.894 3.76045 2.1627 0
M  V30 2472 H 219.565 4.02791 3.77443 0
M  V30 2473 H 222.041 2.11025 3.58619 0
M  V30 2474 H 220.917 2.39184 4.94047 0
M  V30 2475 H 221.178 0.756119 4.35586 0
M  V30 2476 N 220.237 -1.11381 1.11499 0
M  V30 2477 C 221.514 -1.7955 0.775965 0
M  V30 2478 C 221.894 -1.97859 -0.73588 0
M  V30 2479 O 221.242 -1.56376 -1.66609 0
M  V30 2480 C 221.452 -3.13196 1.53977 0
M  V30 2481 C 222.8 -3.88227 1.71944 0
M  V30 2482 O 223.824 -3.22887 1.50407 0
M  V30 2483 O 222.683 -5.05477 2.07738 0
M  V30 2484 H 219.777 -0.777728 0.28119 0
M  V30 2485 H 222.323 -1.18118 1.21845 0
M  V30 2486 H 221.095 -2.95229 2.56818 0
M  V30 2487 H 220.718 -3.82342 1.09088 0
M  V30 2488 N 221.715 -0.905404 -1.28997 0
M  V30 2489 C 222.663 -0.377431 -2.29517 0
M  V30 2490 C 223.657 0.526461 -1.61012 0
M  V30 2491 O 224.863 0.40863 -1.753 0
M  V30 2492 H 221.238 -0.103437 -0.744852 0
M  V30 2493 H 223.209 -1.23848 -2.71485 0
M  V30 2494 C 221.958 0.374833 -3.45674 0
M  V30 2495 H 221.281 -0.311474 -3.98585 0
M  V30 2496 H 222.721 0.70903 -4.1803 0
M  V30 2497 C 221.18 1.57963 -2.97572 0
M  V30 2498 O 221.71 2.67886 -2.99333 0
M  V30 2499 N 219.916 1.42375 -2.53333 0
M  V30 2500 H 219.463 0.529466 -2.521 0
M  V30 2501 H 219.421 2.23117 -2.21509 0
M  V30 2502 N 223.193 1.4272 -0.668489 0
M  V30 2503 C 224.103 2.34596 0.0139753 0
M  V30 2504 C 225.119 1.5474 0.795703 0
M  V30 2505 O 226.295 1.87334 0.739466 0
M  V30 2506 C 223.36 3.33202 0.957982 0
M  V30 2507 C 222.421 4.28957 0.17149 0
M  V30 2508 C 221.654 5.22853 1.07053 0
M  V30 2509 O 221.877 5.21531 2.31001 0
M  V30 2510 O 220.811 5.9952 0.534727 0
M  V30 2511 H 224.637 2.9448 -0.742661 0
M  V30 2512 H 222.222 1.43117 -0.428705 0
M  V30 2513 H 224.104 3.93796 1.50008 0
M  V30 2514 H 222.779 2.758 1.69458 0
M  V30 2515 H 221.686 3.71796 -0.414558 0
M  V30 2516 H 223.019 4.89383 -0.52586 0
M  V30 2517 N 224.671 0.411399 1.52136 0
M  V30 2518 C 225.899 -0.163076 2.06256 0
M  V30 2519 C 226.314 -1.3867 1.28125 0
M  V30 2520 O 225.671 -1.79423 0.333721 0
M  V30 2521 C 225.722 -0.511252 3.57867 0
M  V30 2522 O 225.443 0.66378 4.33042 0
M  V30 2523 C 226.944 -1.13921 4.28412 0
M  V30 2524 H 224.164 -0.0193897 0.67072 0
M  V30 2525 H 226.708 0.583007 1.96013 0
M  V30 2526 H 224.863 -1.20723 3.6811 0
M  V30 2527 H 225.277 0.372601 5.23175 0
M  V30 2528 H 226.751 -1.33302 5.35663 0
M  V30 2529 H 227.228 -2.11296 3.85033 0
M  V30 2530 H 227.834 -0.483373 4.22544 0
M  V30 2531 N 226.149 -1.5696 0.141893 0
M  V30 2532 C 227.396 -1.9596 -0.510492 0
M  V30 2533 C 227.724 -1.02648 -1.65208 0
M  V30 2534 O 226.979 -0.0546947 -1.95624 0
M  V30 2535 C 227.278 -3.41242 -1.06249 0
M  V30 2536 C 226.944 -4.50882 -0.0398791 0
M  V30 2537 C 225.606 -4.80595 0.241247 0
M  V30 2538 C 227.958 -5.17058 0.65578 0
M  V30 2539 C 225.286 -5.73792 1.22393 0
M  V30 2540 C 227.638 -6.11313 1.62724 0
M  V30 2541 C 226.302 -6.39407 1.91612 0
M  V30 2542 H 225.572 -0.717068 -0.186802 0
M  V30 2543 H 228.219 -1.90142 0.227643 0
M  V30 2544 H 226.524 -3.43866 -1.87785 0
M  V30 2545 H 228.221 -3.68742 -1.57576 0
M  V30 2546 H 224.811 -4.27754 -0.269174 0
M  V30 2547 H 228.995 -4.94239 0.451779 0
M  V30 2548 H 224.251 -5.93853 1.45424 0
M  V30 2549 H 228.425 -6.61668 2.17183 0
M  V30 2550 H 226.052 -7.11427 2.6791 0
M  V30 2551 N 227.627 0.131896 -1.57047 0
M  V30 2552 C 228.852 0.860418 -1.8871 0
M  V30 2553 C 229.277 1.73251 -0.73251 0
M  V30 2554 O 228.635 1.785 0.317429 0
M  V30 2555 C 228.683 1.68047 -3.19049 0
M  V30 2556 O 227.787 2.7862 -3.04047 0
M  V30 2557 H 227.128 0.238743 -0.619595 0
M  V30 2558 H 229.658 0.118169 -2.04258 0
M  V30 2559 H 229.668 2.07238 -3.51449 0
M  V30 2560 H 228.343 1.04018 -4.02682 0
M  V30 2561 H 226.92 2.42726 -2.83088 0
M  V30 2562 N 229.106 1.52395 0.401703 0
M  V30 2563 C 230.354 1.66488 1.14569 0
M  V30 2564 C 230.675 0.400897 1.90835 0
M  V30 2565 O 229.945 -0.584415 1.8698 0
M  V30 2566 H 228.525 0.613672 0.425929 0
M  V30 2567 H 231.187 1.89464 0.457093 0
M  V30 2568 H 230.283 2.50942 1.85566 0
M  V30 2569 N 230.584 -0.659388 1.43143 0
M  V30 2570 C 231.831 -1.41935 1.44433 0
M  V30 2571 C 232.159 -1.94387 0.0663522 0
M  V30 2572 O 231.414 -1.72314 -0.927706 0
M  V30 2573 C 231.713 -2.62206 2.42864 0
M  V30 2574 C 231.379 -2.28208 3.88886 0
M  V30 2575 C 230.041 -2.18647 4.28657 0
M  V30 2576 C 232.393 -2.00887 4.8093 0
M  V30 2577 C 229.721 -1.79914 5.58433 0
M  V30 2578 C 232.073 -1.63653 6.11065 0
M  V30 2579 C 230.737 -1.52614 6.49819 0
M  V30 2580 H 230.007 -0.519376 0.528517 0
M  V30 2581 H 232.654 -0.750453 1.76183 0
M  V30 2582 H 230.959 -3.34199 2.04495 0
M  V30 2583 H 232.656 -3.2041 2.41119 0
M  V30 2584 H 229.246 -2.36557 3.57406 0
M  V30 2585 H 233.43 -2.07198 4.5098 0
M  V30 2586 H 228.686 -1.69948 5.87305 0
M  V30 2587 H 232.86 -1.41543 6.81864 0
M  V30 2588 H 230.487 -1.22371 7.50286 0
M  V30 2589 N 232.062 -1.29571 -0.897171 0
M  V30 2590 C 232.992 -1.17473 -2.01798 0
M  V30 2591 C 233.973 -0.068323 -1.69963 0
M  V30 2592 O 235.158 -0.248239 -1.92607 0
M  V30 2593 C 232.288 -0.853099 -3.36659 0
M  V30 2594 C 231.242 -1.9161 -3.82713 0
M  V30 2595 C 230.568 -1.44773 -5.14728 0
M  V30 2596 C 231.868 -3.32535 -4.02763 0
M  V30 2597 H 233.562 -2.11237 -2.12177 0
M  V30 2598 H 231.108 -1.01699 -1.01948 0
M  V30 2599 H 233.061 -0.755165 -4.14578 0
M  V30 2600 H 231.785 0.120236 -3.26379 0
M  V30 2601 H 230.444 -2.00346 -3.07013 0
M  V30 2602 H 230.092 -0.462995 -5.00865 0
M  V30 2603 H 229.792 -2.15865 -5.46513 0
M  V30 2604 H 231.316 -1.36334 -5.95185 0
M  V30 2605 H 232.73 -3.26626 -4.71156 0
M  V30 2606 H 231.127 -4.01607 -4.45905 0
M  V30 2607 H 232.197 -3.75326 -3.07016 0
M  V30 2608 N 233.54 1.10788 -1.12088 0
M  V30 2609 C 234.77 1.86191 -0.895351 0
M  V30 2610 C 235.178 1.80763 0.558702 0
M  V30 2611 O 234.521 1.19188 1.39785 0
M  V30 2612 C 234.583 3.35659 -1.28737 0
M  V30 2613 C 234.247 3.64849 -2.75198 0
M  V30 2614 C 235.244 3.61757 -3.734 0
M  V30 2615 C 232.929 3.93641 -3.12013 0
M  V30 2616 C 234.923 3.87045 -5.06434 0
M  V30 2617 C 232.61 4.18585 -4.4523 0
M  V30 2618 C 233.608 4.15277 -5.42249 0
M  V30 2619 O 233.296 4.3959 -6.73065 0
M  V30 2620 H 233.028 0.595425 -0.32007 0
M  V30 2621 H 235.582 1.40992 -1.49367 0
M  V30 2622 H 233.812 3.81497 -0.63224 0
M  V30 2623 H 235.501 3.92441 -1.03656 0
M  V30 2624 H 236.267 3.39557 -3.46303 0
M  V30 2625 H 232.146 3.95348 -2.37109 0
M  V30 2626 H 235.69 3.84378 -5.82151 0
M  V30 2627 H 231.587 4.40264 -4.72057 0
M  V30 2628 H 232.355 4.57123 -6.78956 0
M  V30 2629 N 235.018 0.912232 1.28515 0
M  V30 2630 C 235.968 0.370649 2.24967 0
M  V30 2631 C 236.952 -0.516375 1.52389 0
M  V30 2632 O 238.144 -0.356345 1.73376 0
M  V30 2633 C 235.273 -0.389526 3.41083 0
M  V30 2634 C 234.359 0.51313 4.20984 0
M  V30 2635 N 234.75 1.62604 4.78951 0
M  V30 2636 C 233.048 0.313235 4.44899 0
M  V30 2637 C 233.749 2.18619 5.39055 0
M  V30 2638 N 232.725 1.47765 5.23132 0
M  V30 2639 H 236.527 1.22061 2.67354 0
M  V30 2640 H 234.041 0.764712 1.43269 0
M  V30 2641 H 236.038 -0.794353 4.09262 0
M  V30 2642 H 234.698 -1.2366 3.0023 0
M  V30 2643 H 235.709 2.00864 4.77362 0
M  V30 2644 H 232.386 -0.494452 4.14562 0
M  V30 2645 H 233.776 3.12228 5.94948 0
M  V30 2646 N 236.496 -1.42363 0.676048 0
M  V30 2647 C 237.444 -2.32596 -0.0131507 0
M  V30 2648 C 238.438 -1.49891 -0.789238 0
M  V30 2649 O 239.644 -1.65955 -0.697061 0
M  V30 2650 H 236.019 -0.751647 -0.0230481 0
M  V30 2651 H 237.99 -2.88421 0.765243 0
M  V30 2652 C 236.739 -3.34479 -0.949702 0
M  V30 2653 H 236.062 -3.98158 -0.361938 0
M  V30 2654 H 237.502 -4.00199 -1.4006 0
M  V30 2655 C 235.961 -2.66838 -2.05667 0
M  V30 2656 O 236.491 -2.50124 -3.14326 0
M  V30 2657 N 234.697 -2.25843 -1.82875 0
M  V30 2658 H 234.244 -2.39637 -0.945085 0
M  V30 2659 H 234.202 -1.80918 -2.5713 0
M  V30 2660 N 237.974 -0.419461 -1.51915 0
M  V30 2661 C 238.904 0.391813 -2.30189 0
M  V30 2662 C 239.885 1.03699 -1.34836 0
M  V30 2663 O 241.07 1.04403 -1.63748 0
M  V30 2664 C 238.2 1.50312 -3.13087 0
M  V30 2665 C 237.154 0.9824 -4.16573 0
M  V30 2666 C 236.48 2.18809 -4.8788 0
M  V30 2667 C 237.78 0.0292356 -5.22292 0
M  V30 2668 H 239.474 -0.26135 -2.98257 0
M  V30 2669 H 237.02 -0.127134 -1.43438 0
M  V30 2670 H 238.973 2.07773 -3.66617 0
M  V30 2671 H 237.697 2.18431 -2.42807 0
M  V30 2672 H 236.356 0.430119 -3.64068 0
M  V30 2673 H 236.004 2.85507 -4.14119 0
M  V30 2674 H 235.704 1.84615 -5.57845 0
M  V30 2675 H 237.228 2.76858 -5.44226 0
M  V30 2676 H 238.642 0.512976 -5.71 0
M  V30 2677 H 237.039 -0.2244 -5.9968 0
M  V30 2678 H 238.109 -0.912931 -4.76228 0
M  V30 2679 N 239.452 1.56882 -0.150215 0
M  V30 2680 C 240.677 2.01027 0.510184 0
M  V30 2681 C 241.102 1.02966 1.57415 0
M  V30 2682 O 240.46 0.00590158 1.81299 0
M  V30 2683 C 240.508 3.43899 1.08472 0
M  V30 2684 O 239.612 3.4885 2.19948 0
M  V30 2685 H 238.953 0.652233 0.124451 0
M  V30 2686 H 241.483 2.03093 -0.247894 0
M  V30 2687 H 241.493 3.82766 1.41259 0
M  V30 2688 H 240.168 4.14776 0.305582 0
M  V30 2689 H 238.745 3.21827 1.88366 0
M  V30 2690 N 240.93 -0.123565 1.57115 0
M  V30 2691 C 241.86 -1.15309 2.03042 0
M  V30 2692 C 242.841 -1.43454 0.914061 0
M  V30 2693 O 244.026 -1.53973 1.18347 0
M  V30 2694 C 241.156 -2.48043 2.43089 0
M  V30 2695 C 240.11 -2.3437 3.58127 0
M  V30 2696 C 239.436 -3.72026 3.84059 0
M  V30 2697 C 240.736 -1.80804 4.90007 0
M  V30 2698 H 242.43 -0.771102 2.893 0
M  V30 2699 H 239.976 -0.369479 1.39179 0
M  V30 2700 H 241.929 -3.20311 2.73823 0
M  V30 2701 H 240.653 -2.88122 1.53796 0
M  V30 2702 H 239.312 -1.64551 3.27595 0
M  V30 2703 H 238.96 -4.09582 2.91979 0
M  V30 2704 H 238.66 -3.63732 4.6149 0
M  V30 2705 H 240.184 -4.45806 4.1724 0
M  V30 2706 H 241.598 -2.42886 5.19307 0
M  V30 2707 H 239.995 -1.83343 5.71407 0
M  V30 2708 H 241.065 -0.76528 4.78823 0
M  V30 2709 N 242.408 -1.52605 -0.393616 0
M  V30 2710 C 243.819 -1.59417 -0.971761 0
M  V30 2711 C 244.17 -0.444173 -1.91106 0
M  V30 2712 O 243.295 0.433382 -2.12016 0
M  V30 2713 C 243.89 -2.88936 -1.76921 0
M  V30 2714 C 242.449 -2.98175 -2.29714 0
M  V30 2715 C 241.596 -2.54491 -1.10135 0
M  V30 2716 H 244.547 -1.57751 -0.173317 0
M  V30 2717 H 244.568 -2.75163 -2.62804 0
M  V30 2718 H 244.08 -3.72616 -1.08532 0
M  V30 2719 H 242.181 -2.19024 -3.01429 0
M  V30 2720 H 242.294 -4.02726 -2.59517 0
M  V30 2721 H 240.658 -2.08702 -1.45999 0
M  V30 2722 H 241.441 -3.4056 -0.432874 0
M  V30 2723 N 243.887 0.651787 -1.4349 0
M  V30 2724 C 244.834 1.76462 -1.4876 0
M  V30 2725 C 245.804 1.62641 -0.337189 0
M  V30 2726 O 246.989 1.82864 -0.544544 0
M  V30 2727 C 244.129 3.14623 -1.41796 0
M  V30 2728 C 243.242 3.39568 -2.67053 0
M  V30 2729 C 242.377 4.67585 -2.52068 0
M  V30 2730 C 241.416 4.85639 -3.72587 0
M  V30 2731 N 240.553 6.04915 -3.56402 0
M  V30 2732 H 245.393 1.71293 -2.43849 0
M  V30 2733 H 242.93 0.835889 -1.21043 0
M  V30 2734 H 244.888 3.94496 -1.35753 0
M  V30 2735 H 243.518 3.18859 -0.50288 0
M  V30 2736 H 242.57 2.53783 -2.8337 0
M  V30 2737 H 243.882 3.48795 -3.56572 0
M  V30 2738 H 243.036 5.55586 -2.4374 0
M  V30 2739 H 241.775 4.60681 -1.60075 0
M  V30 2740 H 240.78 3.96073 -3.81321 0
M  V30 2741 H 242.005 4.94372 -4.65589 0
M  V30 2742 H 239.951 5.9914 -2.67146 0
M  V30 2743 H 239.868 6.15106 -4.39524 0
M  V30 2744 H 241.136 6.95533 -3.51929 0
M  V30 2745 N 245.365 1.30045 0.890287 0
M  V30 2746 C 246.59 1.21598 1.68014 0
M  V30 2747 C 247.015 -0.218678 1.86825 0
M  V30 2748 O 246.373 -1.15756 1.39536 0
M  V30 2749 C 246.421 1.94434 3.03691 0
M  V30 2750 O 245.525 1.2678 3.92429 0
M  V30 2751 H 244.866 0.420856 0.513592 0
M  V30 2752 H 247.396 1.71775 1.11151 0
M  V30 2753 H 247.406 2.03251 3.5377 0
M  V30 2754 H 246.081 2.98777 2.89318 0
M  V30 2755 H 244.658 1.26282 3.50866 0
M  V30 2756 N 246.843 -1.10192 1.12674 0
M  V30 2757 C 248.071 -1.85983 0.906527 0
M  V30 2758 C 248.486 -1.80783 -0.544333 0
M  V30 2759 O 247.843 -1.19834 -1.37645 0
M  V30 2760 C 247.894 -3.34281 1.37618 0
M  V30 2761 O 247.615 -3.39401 2.77017 0
M  V30 2762 C 249.116 -4.26938 1.19325 0
M  V30 2763 H 246.336 -0.587716 0.323775 0
M  V30 2764 H 248.88 -1.39284 1.49734 0
M  V30 2765 H 247.035 -3.78436 0.828539 0
M  V30 2766 H 247.449 -4.31838 2.97684 0
M  V30 2767 H 248.923 -5.29181 1.57071 0
M  V30 2768 H 249.4 -4.38995 0.134097 0
M  V30 2769 H 250.006 -3.8859 1.72852 0
M  V30 2770 N 248.321 -0.919034 -1.28029 0
M  V30 2771 C 249.567 -0.555757 -1.95036 0
M  V30 2772 C 249.9 0.899198 -1.72128 0
M  V30 2773 O 249.175 1.64023 -1.04531 0
M  V30 2774 C 249.458 -0.872024 -3.49382 0
M  V30 2775 C 249.311 -2.3801 -3.81669 0
M  V30 2776 C 250.63 -0.37185 -4.38526 0
M  V30 2777 H 247.749 -0.203386 -0.708381 0
M  V30 2778 H 250.391 -1.14924 -1.51303 0
M  V30 2779 H 248.541 -0.366946 -3.86763 0
M  V30 2780 H 250.213 -2.9562 -3.54128 0
M  V30 2781 H 248.456 -2.83289 -3.28526 0
M  V30 2782 H 249.127 -2.55192 -4.8947 0
M  V30 2783 H 251.603 -0.804602 -4.08247 0
M  V30 2784 H 250.479 -0.622173 -5.45362 0
M  V30 2785 H 250.74 0.727934 -4.36066 0
M  V30 2786 N 249.799 1.42003 -0.683588 0
M  V30 2787 C 251.076 1.95112 -0.138075 0
M  V30 2788 C 251.456 1.62359 1.34918 0
M  V30 2789 O 250.804 0.924311 2.08971 0
M  V30 2790 C 251.014 3.46505 -0.416581 0
M  V30 2791 C 252.362 4.23254 -0.337834 0
M  V30 2792 O 253.386 3.54468 -0.35082 0
M  V30 2793 O 252.245 5.45743 -0.287596 0
M  V30 2794 H 249.339 0.826961 -0.00797996 0
M  V30 2795 H 251.885 1.51784 -0.758924 0
M  V30 2796 H 250.657 3.63582 -1.4465 0
M  V30 2797 H 250.28 3.969 0.235839 0
M  V30 2798 N 251.277 0.427512 1.51691 0
M  V30 2799 C 252.224 -0.388867 2.275 0
M  V30 2800 C 253.194 -1.02532 1.30677 0
M  V30 2801 O 254.379 -1.0461 1.59566 0
M  V30 2802 C 251.519 -1.48954 3.11298 0
M  V30 2803 C 250.632 -0.872194 4.23104 0
M  V30 2804 C 249.767 -1.94709 4.94228 0
M  V30 2805 C 248.806 -1.30766 5.97969 0
M  V30 2806 N 247.943 -2.32349 6.62539 0
M  V30 2807 H 252.783 0.263997 2.96828 0
M  V30 2808 H 250.32 0.142033 1.46413 0
M  V30 2809 H 252.278 -2.13887 3.58201 0
M  V30 2810 H 250.908 -2.11217 2.44105 0
M  V30 2811 H 249.96 -0.111419 3.80237 0
M  V30 2812 H 251.272 -0.365264 4.97461 0
M  V30 2813 H 250.426 -2.67327 5.44629 0
M  V30 2814 H 249.165 -2.48773 4.1948 0
M  V30 2815 H 248.17 -0.566902 5.4687 0
M  V30 2816 H 249.395 -0.774483 6.74669 0
M  V30 2817 H 247.341 -2.85511 5.90609 0
M  V30 2818 H 247.258 -1.8652 7.3263 0
M  V30 2819 H 248.526 -3.04481 7.17574 0
M  V30 2820 N 252.755 -1.56801 0.158532 0
M  V30 2821 C 253.688 -2.13148 -0.815065 0
M  V30 2822 C 254.666 -1.0581 -1.23462 0
M  V30 2823 O 255.85 -1.3371 -1.32868 0
M  V30 2824 C 252.977 -2.6606 -2.09594 0
M  V30 2825 C 252.023 -3.85651 -1.82141 0
M  V30 2826 S 252.856 -5.26041 -1.00207 0
M  V30 2827 C 254.012 -5.8235 -2.29389 0
M  V30 2828 H 254.245 -2.95396 -0.335937 0
M  V30 2829 H 251.778 -1.54299 -0.0559391 0
M  V30 2830 H 253.736 -2.97195 -2.8317 0
M  V30 2831 H 252.397 -1.83921 -2.54621 0
M  V30 2832 H 251.59 -4.20958 -2.77147 0
M  V30 2833 H 251.192 -3.55338 -1.16667 0
M  V30 2834 H 253.484 -5.94485 -3.24952 0
M  V30 2835 H 254.427 -6.79688 -1.9857 0
M  V30 2836 H 254.835 -5.10675 -2.40564 0
M  V30 2837 N 254.233 0.115231 -1.57178 0
M  V30 2838 C 255.163 1.1423 -2.03651 0
M  V30 2839 C 256.144 1.42967 -0.921655 0
M  V30 2840 O 257.329 1.53343 -1.19162 0
M  V30 2841 C 254.459 2.4675 -2.44401 0
M  V30 2842 C 253.413 2.32467 -3.59365 0
M  V30 2843 C 252.739 3.69984 -3.86026 0
M  V30 2844 C 254.039 1.78203 -4.90959 0
M  V30 2845 H 255.733 0.755749 -2.89705 0
M  V30 2846 H 253.279 0.362093 -1.39373 0
M  V30 2847 H 255.232 3.18854 -2.75517 0
M  V30 2848 H 253.956 2.87302 -1.55322 0
M  V30 2849 H 252.615 1.62811 -3.28463 0
M  V30 2850 H 252.263 4.08028 -2.94147 0
M  V30 2851 H 251.963 3.61279 -4.63412 0
M  V30 2852 H 253.487 4.43587 -4.19599 0
M  V30 2853 H 254.901 2.40128 -5.20587 0
M  V30 2854 H 253.298 1.8031 -5.72371 0
M  V30 2855 H 254.368 0.739876 -4.79222 0
M  V30 2856 N 255.711 1.52812 0.385517 0
M  V30 2857 C 257.127 1.4214 0.725829 0
M  V30 2858 C 257.327 0.544589 1.94001 0
M  V30 2859 O 256.383 0.0193693 2.52493 0
M  V30 2860 C 257.696 2.85042 0.957668 0
M  V30 2861 C 259.244 2.94543 1.05892 0
M  V30 2862 C 259.719 4.38464 1.32337 0
M  V30 2863 N 261.21 4.41804 1.39151 0
M  V30 2864 C 261.945 5.5025 1.61285 0
M  V30 2865 N 261.441 6.68775 1.80866 0
M  V30 2866 N 263.234 5.37798 1.63492 0
M  V30 2867 H 255.385 2.08338 -0.413383 0
M  V30 2868 H 257.648 0.940016 -0.122775 0
M  V30 2869 H 257.354 3.51431 0.137568 0
M  V30 2870 H 257.228 3.27505 1.87137 0
M  V30 2871 H 259.615 2.28321 1.86959 0
M  V30 2872 H 259.696 2.55504 0.123057 0
M  V30 2873 H 259.34 5.05254 0.517793 0
M  V30 2874 H 259.27 4.75059 2.27214 0
M  V30 2875 H 261.761 3.56377 1.25713 0
M  V30 2876 H 262.074 7.47197 1.97271 0
M  V30 2877 H 260.419 6.71797 1.78083 0
M  V30 2878 H 263.61 4.44171 1.47749 0
M  V30 2879 H 263.783 6.22382 1.80402 0
M  V30 2880 N 257.189 -0.644168 1.43834 0
M  V30 2881 C 258.152 -1.73857 1.49353 0
M  V30 2882 C 259.152 -1.56315 0.377112 0
M  V30 2883 O 260.342 -1.62048 0.639226 0
M  V30 2884 C 257.474 -3.12819 1.35488 0
M  V30 2885 H 258.667 -1.70342 2.46827 0
M  V30 2886 H 256.22 -0.856652 1.30733 0
M  V30 2887 H 256.955 -3.2194 0.390569 0
M  V30 2888 H 256.74 -3.26958 2.16428 0
M  V30 2889 H 258.23 -3.92606 1.42302 0
M  V30 2890 N 258.668 -1.30515 -0.883378 0
M  V30 2891 C 259.945 -1.10086 -1.6168 0
M  V30 2892 C 260.325 0.349269 -2.08191 0
M  V30 2893 O 259.673 1.34105 -1.85008 0
M  V30 2894 C 259.883 -2.10315 -2.78511 0
M  V30 2895 C 261.231 -2.42119 -3.48803 0
M  V30 2896 O 262.255 -2.08638 -2.88702 0
M  V30 2897 O 261.114 -2.99396 -4.57192 0
M  V30 2898 H 258.208 -0.422907 -0.710689 0
M  V30 2899 H 260.754 -1.41947 -0.930015 0
M  V30 2900 H 259.526 -3.07917 -2.41459 0
M  V30 2901 H 259.149 -1.79282 -3.54886 0
M  V30 2902 N 260.146 1.09593 -1.13257 0
M  V30 2903 C 261.392 1.82003 -0.89458 0
M  V30 2904 C 261.725 1.85402 0.577906 0
M  V30 2905 O 261 1.32099 1.42759 0
M  V30 2906 C 261.283 3.28237 -1.48096 0
M  V30 2907 C 261.136 3.3312 -3.02244 0
M  V30 2908 C 262.455 4.24871 -1.14774 0
M  V30 2909 H 259.574 0.66077 -0.326424 0
M  V30 2910 H 262.216 1.28389 -1.40058 0
M  V30 2911 H 260.366 3.74024 -1.05062 0
M  V30 2912 H 262.038 2.95748 -3.54021 0
M  V30 2913 H 260.281 2.72756 -3.37323 0
M  V30 2914 H 260.952 4.3613 -3.38371 0
M  V30 2915 H 263.428 3.87361 -1.51957 0
M  V30 2916 H 262.304 5.25532 -1.58452 0
M  V30 2917 H 262.565 4.42058 -0.0611849 0
M  V30 2918 N 261.624 0.925811 1.2754 0
M  V30 2919 C 262.873 0.561084 1.93739 0
M  V30 2920 C 263.186 -0.901685 1.73577 0
M  V30 2921 O 264.392 -1.37511 2.34101 0
M  V30 2922 C 262.848 0.952668 3.47062 0
M  V30 2923 C 262.456 2.43599 3.75983 0
M  V30 2924 C 264.2 0.659103 4.19352 0
M  V30 2925 C 262.107 2.76707 5.22673 0
M  V30 2926 H 261.037 0.206122 0.725279 0
M  V30 2927 H 263.688 1.12637 1.44863 0
M  V30 2928 H 262.07 0.316053 3.94737 0
M  V30 2929 H 263.244 3.12035 3.39073 0
M  V30 2930 H 261.559 2.70125 3.16893 0
M  V30 2931 H 264.156 0.882985 5.27359 0
M  V30 2932 H 264.499 -0.403607 4.14339 0
M  V30 2933 H 265.032 1.25473 3.77494 0
M  V30 2934 H 261.771 3.8188 5.32774 0
M  V30 2935 H 261.291 2.12919 5.60737 0
M  V30 2936 H 262.97 2.6435 5.90532 0
M  V30 2937 N 263.102 -1.41638 0.69111 0
M  V30 2938 C 264.032 -2.3347 0.037248 0
M  V30 2939 C 265.013 -1.51575 -0.771947 0
M  V30 2940 O 266.198 -1.80126 -0.72582 0
M  V30 2941 C 263.328 -3.35354 -0.903064 0
M  V30 2942 C 262.282 -4.27526 -0.201288 0
M  V30 2943 C 261.608 -5.19747 -1.25565 0
M  V30 2944 C 262.908 -5.13959 0.929689 0
M  V30 2945 H 264.602 -2.88397 0.804227 0
M  V30 2946 H 262.148 -1.38669 0.388189 0
M  V30 2947 H 264.101 -3.98519 -1.36969 0
M  V30 2948 H 262.825 -2.78767 -1.70166 0
M  V30 2949 H 261.484 -3.65779 0.245265 0
M  V30 2950 H 261.132 -4.59479 -2.04666 0
M  V30 2951 H 260.832 -5.8225 -0.791128 0
M  V30 2952 H 262.356 -5.85789 -1.72288 0
M  V30 2953 H 263.77 -5.70718 0.543546 0
M  V30 2954 H 262.167 -5.85379 1.32103 0
M  V30 2955 H 263.237 -4.51389 1.77133 0
M  V30 2956 N 264.58 -0.43555 -1.51462 0
M  V30 2957 C 265.53 0.394701 -2.24558 0
M  V30 2958 C 266.514 0.99157 -1.26715 0
M  V30 2959 O 267.706 0.910007 -1.51815 0
M  V30 2960 C 264.835 1.4963 -3.08975 0
M  V30 2961 C 263.921 0.908912 -4.14246 0
M  V30 2962 N 264.312 0.0505335 -5.05775 0
M  V30 2963 C 262.61 1.17668 -4.30198 0
M  V30 2964 C 263.311 -0.279161 -5.8103 0
M  V30 2965 N 262.287 0.336767 -5.42556 0
M  V30 2966 H 266.089 -0.267106 -2.92684 0
M  V30 2967 H 263.603 -0.247518 -1.60503 0
M  V30 2968 H 265.6 2.10394 -3.59917 0
M  V30 2969 H 264.26 2.16046 -2.42393 0
M  V30 2970 H 265.271 -0.31577 -5.16936 0
M  V30 2971 H 261.948 1.83847 -3.74842 0
M  V30 2972 H 263.338 -0.977553 -6.64751 0
M  V30 2973 N 266.058 1.56714 -0.166846 0
M  V30 2974 C 267.005 2.17746 0.765193 0
M  V30 2975 C 267.975 1.11614 1.23011 0
M  V30 2976 O 269.16 1.39745 1.29908 0
M  V30 2977 C 266.3 2.81882 1.9909 0
M  V30 2978 C 265.413 4.02462 1.56997 0
M  V30 2979 C 264.548 4.54537 2.749 0
M  V30 2980 C 263.587 5.67538 2.29275 0
M  V30 2981 N 262.724 6.14142 3.40255 0
M  V30 2982 H 267.564 2.97048 0.237952 0
M  V30 2983 H 265.101 1.4672 0.105725 0
M  V30 2984 H 267.059 3.17221 2.70974 0
M  V30 2985 H 265.689 2.05191 2.49192 0
M  V30 2986 H 264.741 3.72973 0.748037 0
M  V30 2987 H 266.053 4.84273 1.19503 0
M  V30 2988 H 265.207 4.92035 3.54946 0
M  V30 2989 H 263.946 3.71774 3.1565 0
M  V30 2990 H 262.951 5.29597 1.47674 0
M  V30 2991 H 264.176 6.52099 1.89588 0
M  V30 2992 H 262.122 5.3431 3.8059 0
M  V30 2993 H 262.039 6.9093 3.06841 0
M  V30 2994 H 263.307 6.56289 4.206 0
M  V30 2995 N 267.536 -0.106894 1.57237 0
M  V30 2996 C 268.782 -0.81373 1.85759 0
M  V30 2997 C 269.115 -1.78952 0.754315 0
M  V30 2998 O 268.39 -1.93029 -0.23879 0
M  V30 2999 C 268.673 -1.55293 3.24894 0
M  V30 3000 C 268.526 -0.595929 4.45835 0
M  V30 3001 C 269.845 -2.5063 3.61763 0
M  V30 3002 H 266.964 -0.294369 0.67566 0
M  V30 3003 H 269.606 -0.0776472 1.89841 0
M  V30 3004 H 267.756 -2.1804 3.21544 0
M  V30 3005 H 269.428 0.0236262 4.61294 0
M  V30 3006 H 267.671 0.0916191 4.33703 0
M  V30 3007 H 268.342 -1.15004 5.39887 0
M  V30 3008 H 270.818 -1.97982 3.65981 0
M  V30 3009 H 269.694 -2.99376 4.60071 0
M  V30 3010 H 269.955 -3.3385 2.89821 0
M  V30 3011 N 269.014 -1.53014 -0.377408 0
M  V30 3012 C 270.261 -1.68623 -1.12128 0
M  V30 3013 C 270.589 -0.431997 -1.89642 0
M  V30 3014 O 269.844 0.585855 -1.86725 0
M  V30 3015 C 270.143 -2.87982 -2.11663 0
M  V30 3016 C 269.809 -4.24964 -1.50719 0
M  V30 3017 C 268.471 -4.62217 -1.33825 0
M  V30 3018 C 270.823 -5.10199 -1.06519 0
M  V30 3019 C 268.151 -5.82352 -0.712963 0
M  V30 3020 C 270.503 -6.30969 -0.453955 0
M  V30 3021 C 269.167 -6.66944 -0.272411 0
M  V30 3022 H 268.437 -0.617034 -0.410305 0
M  V30 3023 H 271.084 -1.8718 -0.404484 0
M  V30 3024 H 269.389 -2.63889 -2.89603 0
M  V30 3025 H 271.086 -2.97253 -2.6915 0
M  V30 3026 H 267.676 -3.95626 -1.64858 0
M  V30 3027 H 271.86 -4.81978 -1.18368 0
M  V30 3028 H 267.116 -6.08824 -0.560611 0
M  V30 3029 H 271.29 -6.96324 -0.103217 0
M  V30 3030 H 268.917 -7.59898 0.214181 0
M  V30 3031 N 270.492 0.636531 -1.44174 0
M  V30 3032 C 271.422 1.76003 -1.53444 0
M  V30 3033 C 272.403 1.65619 -0.387841 0
M  V30 3034 O 273.588 1.84461 -0.607257 0
M  V30 3035 C 270.718 3.14511 -1.4731 0
M  V30 3036 C 269.672 3.39677 -2.60391 0
M  V30 3037 C 268.998 4.78159 -2.39308 0
M  V30 3038 C 270.298 3.32772 -4.02567 0
M  V30 3039 H 271.992 1.68501 -2.47483 0
M  V30 3040 H 269.538 0.809237 -1.19111 0
M  V30 3041 H 271.491 3.92878 -1.52397 0
M  V30 3042 H 270.215 3.22783 -0.49785 0
M  V30 3043 H 268.874 2.63688 -2.54684 0
M  V30 3044 H 268.522 4.83128 -1.39988 0
M  V30 3045 H 268.222 4.95956 -3.15122 0
M  V30 3046 H 269.746 5.58762 -2.46205 0
M  V30 3047 H 271.16 4.01051 -4.09672 0
M  V30 3048 H 269.557 3.62104 -4.7854 0
M  V30 3049 H 270.627 2.30669 -4.2652 0
M  V30 3050 N 271.97 1.30982 0.876444 0
M  V30 3051 C 272.902 1.13902 1.98894 0
M  V30 3052 C 273.915 0.0798815 1.62604 0
M  V30 3053 O 275.104 0.326743 1.75484 0
M  V30 3054 C 272.204 0.716699 3.31235 0
M  V30 3055 C 271.377 1.85945 3.95908 0
M  V30 3056 C 270.436 1.42426 5.06558 0
M  V30 3057 O 269.462 2.13287 5.27729 0
M  V30 3058 N 270.664 0.308025 5.79682 0
M  V30 3059 H 273.429 2.09724 2.14094 0
M  V30 3060 H 270.99 1.2323 1.05004 0
M  V30 3061 H 272.982 0.408403 4.02634 0
M  V30 3062 H 271.552 -0.149719 3.12241 0
M  V30 3063 H 270.772 2.33541 3.17573 0
M  V30 3064 H 272.06 2.62503 4.35855 0
M  V30 3065 H 271.458 -0.282241 5.64995 0
M  V30 3066 H 270.015 0.0592282 6.51773 0
M  V30 3067 N 273.449 -1.08991 1.13837 0
M  V30 3068 C 274.697 -1.80899 0.901098 0
M  V30 3069 C 275.018 -1.86356 -0.574134 0
M  V30 3070 O 274.288 -1.35235 -1.41733 0
M  V30 3071 H 272.868 -0.669966 0.330386 0
M  V30 3072 H 275.53 -1.318 1.43578 0
M  V30 3073 H 274.626 -2.83929 1.29578 0
M  V30 3074 N 274.927 -0.932562 -1.27047 0
M  V30 3075 C 276.157 -0.591173 -1.97961 0
M  V30 3076 C 276.565 0.836219 -1.69717 0
M  V30 3077 O 275.908 1.56801 -0.957036 0
M  V30 3078 C 275.97 -0.743082 -3.51736 0
M  V30 3079 C 275.634 -2.1435 -4.03613 0
M  V30 3080 C 276.631 -3.11815 -4.16014 0
M  V30 3081 C 274.316 -2.46175 -4.37839 0
M  V30 3082 C 276.31 -4.39211 -4.61923 0
M  V30 3083 C 273.997 -3.73806 -4.83438 0
M  V30 3084 C 274.995 -4.70137 -4.95439 0
M  V30 3085 O 274.683 -5.95496 -5.40037 0
M  V30 3086 H 274.415 -0.222375 -0.638377 0
M  V30 3087 H 276.969 -1.25317 -1.62742 0
M  V30 3088 H 275.199 -0.0239739 -3.86693 0
M  V30 3089 H 276.888 -0.40603 -4.03864 0
M  V30 3090 H 277.654 -2.88549 -3.89826 0
M  V30 3091 H 273.533 -1.71936 -4.27737 0
M  V30 3092 H 277.077 -5.14404 -4.71205 0
M  V30 3093 H 272.974 -3.96888 -5.09068 0
M  V30 3094 H 273.742 -5.98554 -5.58279 0
M  V30 3095 N 276.405 1.4127 -0.698611 0
M  V30 3096 C 277.337 2.292 0.00399731 0
M  V30 3097 C 278.35 1.44944 0.741279 0
M  V30 3098 O 279.539 1.68416 0.591477 0
M  V30 3099 C 276.639 3.22875 1.02979 0
M  V30 3100 C 275.812 4.35904 0.36151 0
M  V30 3101 C 274.871 5.10134 1.29033 0
M  V30 3102 O 273.897 5.63809 0.781562 0
M  V30 3103 N 275.099 5.17885 2.6225 0
M  V30 3104 H 277.864 2.9014 -0.750921 0
M  V30 3105 H 275.425 1.52455 -0.544882 0
M  V30 3106 H 277.417 3.69404 1.65296 0
M  V30 3107 H 275.987 2.63221 1.68622 0
M  V30 3108 H 275.207 3.91719 -0.441584 0
M  V30 3109 H 276.495 5.08696 -0.103055 0
M  V30 3110 H 275.893 4.7573 3.061 0
M  V30 3111 H 274.45 5.6798 3.19754 0
M  V30 3112 N 277.883 0.443576 1.51229 0
M  V30 3113 C 278.813 -0.355142 2.30783 0
M  V30 3114 C 279.794 -1.0154 1.36468 0
M  V30 3115 O 280.979 -1.01785 1.65389 0
M  V30 3116 C 278.109 -1.45312 3.15439 0
M  V30 3117 C 277.063 -0.916002 4.18083 0
M  V30 3118 C 276.389 -2.1102 4.91299 0
M  V30 3119 C 277.689 0.0538602 5.22272 0
M  V30 3120 H 279.383 0.308767 2.97804 0
M  V30 3121 H 276.929 0.149937 1.43217 0
M  V30 3122 H 278.882 -2.01914 3.69876 0
M  V30 3123 H 277.606 -2.14541 2.46252 0
M  V30 3124 H 276.265 -0.372145 3.64706 0
M  V30 3125 H 275.913 -2.78882 4.18609 0
M  V30 3126 H 275.613 -1.75717 5.60712 0
M  V30 3127 H 277.137 -2.68164 5.48562 0
M  V30 3128 H 278.551 -0.422069 5.71744 0
M  V30 3129 H 276.948 0.319776 5.99247 0
M  V30 3130 H 278.018 0.98858 4.74716 0
M  V30 3131 N 279.361 -1.56624 0.175154 0
M  V30 3132 C 280.311 -2.14747 -0.766004 0
M  V30 3133 C 281.295 -1.08275 -1.19018 0
M  V30 3134 O 282.487 -1.34388 -1.15191 0
M  V30 3135 C 279.616 -2.79478 -1.99366 0
M  V30 3136 C 278.702 -3.93114 -1.5913 0
M  V30 3137 N 279.093 -4.97752 -0.89872 0
M  V30 3138 C 277.391 -4.04345 -1.88204 0
M  V30 3139 C 278.092 -5.77473 -0.700012 0
M  V30 3140 N 277.068 -5.29207 -1.24263 0
M  V30 3141 H 280.87 -2.93015 -0.22793 0
M  V30 3142 H 278.384 -1.6238 -0.0253843 0
M  V30 3143 H 280.381 -3.19498 -2.67818 0
M  V30 3144 H 279.041 -2.02692 -2.53665 0
M  V30 3145 H 280.052 -5.14903 -0.556347 0
M  V30 3146 H 276.729 -3.38667 -2.44153 0
M  V30 3147 H 278.119 -6.71728 -0.152047 0
M  V30 3148 N 280.839 0.0985539 -1.57292 0
M  V30 3149 C 281.769 1.12064 -2.04851 0
M  V30 3150 C 282.75 1.41981 -0.936767 0
M  V30 3151 O 283.935 1.52071 -1.20781 0
M  V30 3152 C 281.065 2.44144 -2.47004 0
M  V30 3153 C 280.019 2.28643 -3.6181 0
M  V30 3154 C 279.345 3.65869 -3.89929 0
M  V30 3155 C 280.645 1.72986 -4.92822 0
M  V30 3156 H 282.339 0.724979 -2.9049 0
M  V30 3157 H 279.885 0.34729 -1.39749 0
M  V30 3158 H 281.838 3.15914 -2.78884 0
M  V30 3159 H 280.562 2.85639 -1.5836 0
M  V30 3160 H 279.221 1.59318 -3.30172 0
M  V30 3161 H 278.869 4.04885 -2.98458 0
M  V30 3162 H 278.569 3.56344 -4.67218 0
M  V30 3163 H 280.093 4.39112 -4.2428 0
M  V30 3164 H 281.507 2.34593 -5.23105 0
M  V30 3165 H 279.904 1.74229 -5.74251 0
M  V30 3166 H 280.974 0.689007 -4.7998 0
M  V30 3167 N 282.317 1.53212 0.369288 0
M  V30 3168 C 283.545 1.73119 1.13303 0
M  V30 3169 C 283.96 0.458455 1.83149 0
M  V30 3170 O 283.317 -0.568403 1.73423 0
M  V30 3171 C 283.368 2.89413 2.16616 0
M  V30 3172 O 283.089 4.11761 1.49614 0
M  V30 3173 C 284.59 3.21161 3.05566 0
M  V30 3174 H 281.81 0.579107 0.338934 0
M  V30 3175 H 284.354 1.99942 0.429338 0
M  V30 3176 H 282.509 2.64994 2.82589 0
M  V30 3177 H 282.923 4.76858 2.18419 0
M  V30 3178 H 284.397 4.05949 3.74045 0
M  V30 3179 H 284.874 2.36369 3.70171 0
M  V30 3180 H 285.48 3.47492 2.45213 0
M  V30 3181 N 283.795 -0.628877 1.44509 0
M  V30 3182 C 285.02 -1.42048 1.5112 0
M  V30 3183 C 285.445 -1.87594 0.137818 0
M  V30 3184 O 284.803 -1.58873 -0.873437 0
M  V30 3185 C 284.851 -2.61541 2.48251 0
M  V30 3186 O 283.955 -3.61453 1.98559 0
M  V30 3187 H 283.296 -0.424942 0.510216 0
M  V30 3188 H 285.826 -0.767374 1.89664 0
M  V30 3189 H 285.836 -3.09057 2.66361 0
M  V30 3190 H 284.511 -2.27736 3.48007 0
M  V30 3191 H 283.088 -3.20731 1.90227 0
M  V30 3192 N 285.273 -1.31445 -0.869486 0
M  V30 3193 C 286.203 -1.21727 -1.99261 0
M  V30 3194 C 287.184 -0.104359 -1.6978 0
M  V30 3195 O 288.369 -0.289038 -1.92037 0
M  V30 3196 C 285.499 -0.924317 -3.34774 0
M  V30 3197 C 284.453 -1.99685 -3.78563 0
M  V30 3198 C 283.779 -1.55658 -5.11541 0
M  V30 3199 C 285.079 -3.41003 -3.95619 0
M  V30 3200 H 286.773 -2.1569 -2.07649 0
M  V30 3201 H 284.319 -1.03839 -0.997675 0
M  V30 3202 H 286.272 -0.842934 -4.12883 0
M  V30 3203 H 284.996 0.0509793 -3.2656 0
M  V30 3204 H 283.655 -2.06813 -3.02694 0
M  V30 3205 H 283.303 -0.569132 -4.9977 0
M  V30 3206 H 283.003 -2.27409 -5.41811 0
M  V30 3207 H 284.527 -1.48928 -5.92159 0
M  V30 3208 H 285.941 -3.36547 -4.64122 0
M  V30 3209 H 284.338 -4.10975 -4.37286 0
M  V30 3210 H 285.408 -3.81754 -2.98985 0
M  V30 3211 N 286.751 1.08385 -1.14413 0
M  V30 3212 C 287.991 1.8238 -0.922868 0
M  V30 3213 C 288.355 1.84225 0.540842 0
M  V30 3214 O 289.556 2.53985 0.880058 0
M  V30 3215 C 287.827 3.24048 -1.50757 0
M  V30 3216 S 289.386 4.14917 -1.4279 0
M  V30 3217 H 286.204 0.628524 -0.332384 0
M  V30 3218 H 288.806 1.30278 -1.45766 0
M  V30 3219 H 287.51 3.20288 -2.56601 0
M  V30 3220 H 287.041 3.81224 -0.971178 0
M  V30 3221 H 289.056 4.94473 -0.413582 0
M  V30 3222 N 288.23 0.939286 1.26551 0
M  V30 3223 C 289.178 0.43815 2.28436 0
M  V30 3224 C 290.172 -0.483587 1.62351 0
M  V30 3225 O 291.378 -0.362009 1.76322 0
M  V30 3226 H 287.753 0.123149 0.741848 0
M  V30 3227 H 289.724 1.31002 2.68106 0
M  V30 3228 C 288.473 -0.283052 3.46546 0
M  V30 3229 H 287.796 0.417043 3.97619 0
M  V30 3230 H 289.236 -0.597948 4.19763 0
M  V30 3231 C 287.695 -1.50018 3.01656 0
M  V30 3232 O 288.225 -2.59855 3.0633 0
M  V30 3233 N 286.431 -1.35608 2.57019 0
M  V30 3234 H 285.978 -0.46244 2.53415 0
M  V30 3235 H 285.936 -2.17165 2.27347 0
M  V30 3236 N 289.708 -1.40897 0.706093 0
M  V30 3237 C 290.956 -2.00657 0.241054 0
M  V30 3238 C 291.277 -1.56241 -1.16678 0
M  V30 3239 O 290.547 -0.79765 -1.78926 0
M  V30 3240 H 289.127 -0.742018 0.0861308 0
M  V30 3241 H 291.789 -1.72372 0.909604 0
M  V30 3242 H 290.885 -3.10958 0.266705 0
M  V30 3243 N 291.186 -0.45159 -1.50991 0
M  V30 3244 C 292.411 0.110667 -2.07105 0
M  V30 3245 C 292.836 1.3446 -1.31538 0
M  V30 3246 O 292.194 1.77743 -0.357365 0
M  V30 3247 C 292.242 0.397238 -3.58405 0
M  V30 3248 O 291.346 1.48124 -3.84881 0
M  V30 3249 H 290.687 -0.00439271 -0.663985 0
M  V30 3250 H 293.217 -0.637026 -1.9443 0
M  V30 3251 H 293.227 0.64351 -4.02893 0
M  V30 3252 H 291.902 -0.504553 -4.12828 0
M  V30 3253 H 290.479 1.22381 -3.52246 0
M  V30 3254 N 292.664 1.56529 -0.183458 0
M  V30 3255 C 293.611 2.18546 0.742055 0
M  V30 3256 C 294.581 1.12912 1.2182 0
M  V30 3257 O 295.766 1.41115 1.28418 0
M  V30 3258 C 292.906 2.83977 1.96089 0
M  V30 3259 C 292.019 4.04105 1.52719 0
M  V30 3260 C 291.154 4.57427 2.70063 0
M  V30 3261 C 290.193 5.69938 2.23243 0
M  V30 3262 N 289.33 6.17717 3.33722 0
M  V30 3263 H 294.17 2.97284 0.206432 0
M  V30 3264 H 291.707 1.46823 0.0901571 0
M  V30 3265 H 293.665 3.20077 2.67594 0
M  V30 3266 H 292.295 2.07822 2.47002 0
M  V30 3267 H 291.347 3.73745 0.708436 0
M  V30 3268 H 292.659 4.85513 1.1436 0
M  V30 3269 H 291.813 4.95772 3.49708 0
M  V30 3270 H 290.552 3.75101 3.11689 0
M  V30 3271 H 289.557 5.31133 1.42048 0
M  V30 3272 H 290.782 6.54073 1.82661 0
M  V30 3273 H 288.728 5.38317 3.74902 0
M  V30 3274 H 288.645 6.94146 2.99495 0
M  V30 3275 H 289.913 6.60713 4.13616 0
M  V30 3276 N 294.142 -0.090211 1.57342 0
M  V30 3277 C 295.367 -0.810082 1.90925 0
M  V30 3278 C 295.792 -1.71248 0.778187 0
M  V30 3279 O 295.15 -1.79278 -0.269991 0
M  V30 3280 C 295.198 -1.59529 3.23393 0
M  V30 3281 O 294.302 -2.70461 3.11327 0
M  V30 3282 H 293.643 -0.222231 0.625707 0
M  V30 3283 H 296.173 -0.0639716 2.045 0
M  V30 3284 H 296.183 -1.97847 3.5682 0
M  V30 3285 H 294.858 -0.933055 4.05299 0
M  V30 3286 H 293.435 -2.35135 2.89423 0
M  V30 3287 N 295.62 -1.53406 -0.361157 0
M  V30 3288 C 296.53 -1.83122 -1.4664 0
M  V30 3289 C 297.546 -0.719943 -1.58407 0
M  V30 3290 O 298.722 -1.01046 -1.74218 0
M  V30 3291 C 295.787 -2.01891 -2.81853 0
M  V30 3292 C 294.848 -3.25784 -2.79577 0
M  V30 3293 C 294.081 -3.43648 -4.0834 0
M  V30 3294 O 294.304 -2.65714 -5.0473 0
M  V30 3295 O 293.238 -4.37018 -4.13883 0
M  V30 3296 H 297.064 -2.7703 -1.24451 0
M  V30 3297 H 294.649 -1.38841 -0.551678 0
M  V30 3298 H 296.531 -2.15782 -3.61962 0
M  V30 3299 H 295.206 -1.11173 -3.0401 0
M  V30 3300 H 294.113 -3.17312 -1.98151 0
M  V30 3301 H 295.446 -4.16439 -2.62373 0
M  V30 3302 N 297.098 0.621204 -1.44841 0
M  V30 3303 C 298.008 1.7612 -1.5498 0
M  V30 3304 C 299.024 1.68477 -0.434927 0
M  V30 3305 O 300.2 1.89076 -0.693693 0
M  V30 3306 C 297.265 3.1254 -1.50065 0
M  V30 3307 C 296.326 3.31741 -2.72482 0
M  V30 3308 C 295.559 4.61653 -2.67792 0
M  V30 3309 O 295.782 5.431 -1.74352 0
M  V30 3310 O 294.716 4.83271 -3.58794 0
M  V30 3311 H 298.542 1.70518 -2.51311 0
M  V30 3312 H 296.127 0.783643 -1.27198 0
M  V30 3313 H 298.009 3.93844 -1.49882 0
M  V30 3314 H 296.684 3.18663 -0.568806 0
M  V30 3315 H 295.591 2.50077 -2.7823 0
M  V30 3316 H 296.924 3.30486 -3.64746 0
M  V30 3317 N 298.576 1.31904 0.862503 0
M  V30 3318 C 299.509 1.14514 1.97388 0
M  V30 3319 C 300.487 0.0466493 1.62533 0
M  V30 3320 O 301.671 0.204484 1.87388 0
M  V30 3321 C 298.798 0.751347 3.30261 0
M  V30 3322 C 297.844 1.85395 3.84098 0
M  V30 3323 S 298.677 3.46081 4.08642 0
M  V30 3324 C 299.833 3.08655 5.44502 0
M  V30 3325 H 300.066 2.08597 2.11836 0
M  V30 3326 H 297.599 1.16475 1.01356 0
M  V30 3327 H 299.557 0.530901 4.07052 0
M  V30 3328 H 298.218 -0.170493 3.13637 0
M  V30 3329 H 297.411 1.53122 4.80177 0
M  V30 3330 H 297.013 2.02984 3.14123 0
M  V30 3331 H 299.305 2.58012 6.26447 0
M  V30 3332 H 300.248 4.03726 5.81731 0
M  V30 3333 H 300.656 2.45891 5.08132 0
M  V30 3334 N 300.054 -1.07777 1.14986 0
M  V30 3335 C 301.303 -1.79669 0.916617 0
M  V30 3336 C 301.616 -1.87474 -0.557917 0
M  V30 3337 O 302.822 -2.55845 -0.908617 0
M  V30 3338 C 301.278 -3.22848 1.59051 0
M  V30 3339 C 300.886 -3.23257 3.10176 0
M  V30 3340 C 302.63 -3.99379 1.43864 0
M  V30 3341 C 300.537 -4.61063 3.70372 0
M  V30 3342 H 299.467 -0.673349 0.33929 0
M  V30 3343 H 302.118 -1.21003 1.37951 0
M  V30 3344 H 300.5 -3.8168 1.0553 0
M  V30 3345 H 301.674 -2.74095 3.70417 0
M  V30 3346 H 299.989 -2.60222 3.25074 0
M  V30 3347 H 302.586 -5.0122 1.86232 0
M  V30 3348 H 302.929 -4.14511 0.385564 0
M  V30 3349 H 303.462 -3.47032 1.94457 0
M  V30 3350 H 300.201 -4.51135 4.7556 0
M  V30 3351 H 299.721 -5.1048 3.14913 0
M  V30 3352 H 301.4 -5.30034 3.71043 0
M  V30 3353 N 301.532 -0.945985 -1.26051 0
M  V30 3354 C 302.464 -0.416662 -2.25381 0
M  V30 3355 C 303.477 0.462712 -1.56086 0
M  V30 3356 O 304.666 0.272383 -1.7641 0
M  V30 3357 C 301.766 0.419812 -3.3629 0
M  V30 3358 C 300.939 -0.444531 -4.35135 0
M  V30 3359 C 299.998 0.332305 -5.2515 0
M  V30 3360 O 299.024 -0.266324 -5.68577 0
M  V30 3361 N 300.226 1.62763 -5.57215 0
M  V30 3362 H 302.991 -1.27059 -2.71433 0
M  V30 3363 H 300.552 -0.815392 -1.39868 0
M  V30 3364 H 302.544 0.947013 -3.93464 0
M  V30 3365 H 301.114 1.17456 -2.89694 0
M  V30 3366 H 300.334 -1.15291 -3.76964 0
M  V30 3367 H 301.622 -1.03478 -4.98166 0
M  V30 3368 H 301.02 2.13603 -5.23823 0
M  V30 3369 H 299.577 2.10097 -6.17011 0
M  V30 3370 N 303.011 1.40521 -0.713556 0
M  V30 3371 C 303.941 2.33381 -0.0743864 0
M  V30 3372 C 304.922 1.52784 0.747735 0
M  V30 3373 O 306.107 1.81258 0.697071 0
M  V30 3374 C 303.237 3.36748 0.849598 0
M  V30 3375 C 302.191 4.27793 0.133247 0
M  V30 3376 C 301.517 5.21679 1.17281 0
M  V30 3377 C 302.817 5.12415 -1.01134 0
M  V30 3378 H 304.511 2.87081 -0.850007 0
M  V30 3379 H 302.057 1.38034 -0.410201 0
M  V30 3380 H 304.01 4.00648 1.30612 0
M  V30 3381 H 302.734 2.81439 1.65709 0
M  V30 3382 H 301.393 3.65342 -0.303426 0
M  V30 3383 H 301.041 4.62677 1.9733 0
M  V30 3384 H 300.741 5.83435 0.698397 0
M  V30 3385 H 302.265 5.88456 1.62947 0
M  V30 3386 H 303.679 5.69781 -0.634274 0
M  V30 3387 H 302.076 5.83203 -1.41399 0
M  V30 3388 H 303.146 4.48514 -1.84292 0
M  V30 3389 N 304.489 0.459591 1.5075 0
M  V30 3390 C 305.737 -0.0991532 2.01857 0
M  V30 3391 C 306.058 -1.41247 1.34441 0
M  V30 3392 O 305.328 -1.89775 0.486022 0
M  V30 3393 H 303.908 -0.039633 0.745948 0
M  V30 3394 H 306.57 0.607387 1.85194 0
M  V30 3395 H 305.666 -0.258998 3.11023 0
M  V30 3396 N 305.967 -1.56429 0.191757 0
M  V30 3397 C 307.244 -1.89224 -0.495332 0
M  V30 3398 C 307.624 -1.10478 -1.79883 0
M  V30 3399 O 306.972 -0.204852 -2.2758 0
M  V30 3400 C 307.182 -3.41548 -0.717367 0
M  V30 3401 C 308.53 -4.11711 -1.03823 0
M  V30 3402 O 309.554 -3.4698 -0.805204 0
M  V30 3403 O 308.413 -5.2611 -1.47887 0
M  V30 3404 H 305.507 -0.785788 -0.25781 0
M  V30 3405 H 308.053 -1.68111 0.231721 0
M  V30 3406 H 306.825 -3.90772 0.203287 0
M  V30 3407 H 306.448 -3.68342 -1.497 0
M  V30 3408 N 307.445 0.0818655 -1.57387 0
M  V30 3409 C 308.377 1.12484 -1.997 0
M  V30 3410 C 309.39 1.35564 -0.90146 0
M  V30 3411 O 310.579 1.33982 -1.17945 0
M  V30 3412 C 307.679 2.47778 -2.31213 0
M  V30 3413 C 306.852 2.44793 -3.62485 0
M  V30 3414 C 305.911 3.62117 -3.81782 0
M  V30 3415 O 304.937 3.44005 -4.53486 0
M  V30 3416 N 306.139 4.82094 -3.23367 0
M  V30 3417 H 308.904 0.764585 -2.89783 0
M  V30 3418 H 306.465 0.270664 -1.59621 0
M  V30 3419 H 308.457 3.24891 -2.41304 0
M  V30 3420 H 307.027 2.75843 -1.4707 0
M  V30 3421 H 306.247 1.53134 -3.6324 0
M  V30 3422 H 307.535 2.39889 -4.48699 0
M  V30 3423 H 306.933 4.99713 -2.65148 0
M  V30 3424 H 305.49 5.56753 -3.38923 0
M  V30 3425 N 308.923 1.53595 0.353017 0
M  V30 3426 C 309.833 1.83897 1.45667 0
M  V30 3427 C 310.849 0.728334 1.58023 0
M  V30 3428 O 312.025 1.01968 1.73679 0
M  V30 3429 C 309.09 2.03383 2.80778 0
M  V30 3430 C 308.151 3.27262 2.77845 0
M  V30 3431 C 307.384 3.45809 4.06512 0
M  V30 3432 O 307.607 2.68387 5.03314 0
M  V30 3433 O 306.541 4.39207 4.11559 0
M  V30 3434 H 310.367 2.77686 1.2298 0
M  V30 3435 H 307.952 1.39132 0.544308 0
M  V30 3436 H 309.834 2.17698 3.60812 0
M  V30 3437 H 308.509 1.12783 3.03417 0
M  V30 3438 H 307.416 3.18359 1.96465 0
M  V30 3439 H 308.749 4.17824 2.60161 0
M  V30 3440 N 310.401 -0.613514 1.45168 0
M  V30 3441 C 311.647 -1.37471 1.49096 0
M  V30 3442 C 311.98 -1.93765 0.129901 0
M  V30 3443 O 311.255 -1.74707 -0.854858 0
M  V30 3444 C 311.538 -2.52701 2.56542 0
M  V30 3445 C 311.391 -2.01643 4.0207 0
M  V30 3446 C 312.71 -3.54849 2.60327 0
M  V30 3447 H 309.829 -0.498502 0.54283 0
M  V30 3448 H 312.471 -0.692125 1.76945 0
M  V30 3449 H 310.621 -3.10931 2.32926 0
M  V30 3450 H 312.293 -1.48108 4.36877 0
M  V30 3451 H 310.536 -1.32688 4.13009 0
M  V30 3452 H 311.207 -2.84681 4.72928 0
M  V30 3453 H 313.683 -3.0645 2.81474 0
M  V30 3454 H 312.559 -4.32973 3.37381 0
M  V30 3455 H 312.82 -4.10079 1.6519 0
M  V30 3456 N 311.879 -1.3236 -0.855495 0
M  V30 3457 C 313.104 -1.2601 -1.64731 0
M  V30 3458 C 313.529 0.169068 -1.87339 0
M  V30 3459 O 312.887 1.12016 -1.42556 0
M  V30 3460 C 312.935 -2.02417 -2.98429 0
M  V30 3461 O 312.039 -1.3714 -3.8893 0
M  V30 3462 H 311.38 -0.434325 -0.502253 0
M  V30 3463 H 313.91 -1.74661 -1.06558 0
M  V30 3464 H 313.92 -2.12559 -3.48257 0
M  V30 3465 H 312.595 -3.06343 -2.81295 0
M  V30 3466 H 311.172 -1.3554 -3.47395 0
M  V30 3467 N 313.357 1.07166 -1.15556 0
M  V30 3468 C 314.267 2.17947 -0.868116 0
M  V30 3469 C 315.283 1.73297 0.156297 0
M  V30 3470 O 316.459 2.01392 -0.0182327 0
M  V30 3471 C 313.524 3.44789 -0.36355 0
M  V30 3472 C 312.585 4.03996 -1.45209 0
M  V30 3473 C 311.818 5.24783 -0.971508 0
M  V30 3474 O 312.041 5.70109 0.182194 0
M  V30 3475 O 310.975 5.75715 -1.75603 0
M  V30 3476 H 314.801 2.4503 -1.79427 0
M  V30 3477 H 312.386 1.16539 -0.934824 0
M  V30 3478 H 314.268 4.21307 -0.0887113 0
M  V30 3479 H 312.943 3.19253 0.534708 0
M  V30 3480 H 311.85 3.29009 -1.78056 0
M  V30 3481 H 313.183 4.33808 -2.32533 0
M  V30 3482 N 314.835 0.952656 1.25548 0
M  V30 3483 C 315.765 0.489287 2.28316 0
M  V30 3484 C 316.746 -0.463359 1.63667 0
M  V30 3485 O 317.931 -0.36274 1.90782 0
M  V30 3486 C 315.061 -0.235603 3.465 0
M  V30 3487 C 314.015 0.631593 4.23314 0
M  V30 3488 C 313.341 -0.223923 5.34231 0
M  V30 3489 C 314.641 1.90871 4.86174 0
M  V30 3490 H 316.335 1.34822 2.67326 0
M  V30 3491 H 313.881 0.649728 1.28509 0
M  V30 3492 H 315.834 -0.570882 4.17515 0
M  V30 3493 H 314.558 -1.12877 3.06474 0
M  V30 3494 H 313.217 0.949929 3.54079 0
M  V30 3495 H 312.865 -1.11678 4.90446 0
M  V30 3496 H 312.565 0.35299 5.86539 0
M  V30 3497 H 314.089 -0.554214 6.0808 0
M  V30 3498 H 315.503 1.63997 5.49343 0
M  V30 3499 H 313.9 2.43112 5.4865 0
M  V30 3500 H 314.97 2.61304 4.08471 0
M  V30 3501 N 316.313 -1.40141 0.720998 0
M  V30 3502 C 317.553 -2.02644 0.267335 0
M  V30 3503 C 317.917 -1.55948 -1.12001 0
M  V30 3504 O 319.118 -2.10552 -1.67097 0
M  V30 3505 C 317.389 -3.55679 0.350281 0
M  V30 3506 S 318.948 -4.38793 -0.0256004 0
M  V30 3507 H 315.766 -0.703105 0.105664 0
M  V30 3508 H 318.368 -1.71175 0.944416 0
M  V30 3509 H 317.072 -3.87157 1.36153 0
M  V30 3510 H 316.603 -3.91883 -0.345096 0
M  V30 3511 H 318.618 -4.803 -1.24604 0
M  V30 3512 N 317.792 -0.46758 -1.50504 0
M  V30 3513 C 319.04 0.0884469 -2.01906 0
M  V30 3514 C 319.361 1.40532 -1.35188 0
M  V30 3515 O 318.631 1.89515 -0.496079 0
M  V30 3516 H 317.211 0.0356765 -0.746148 0
M  V30 3517 H 319.873 -0.6172 -1.84869 0
M  V30 3518 H 318.969 0.2425 -3.11156 0
M  V30 3519 N 319.27 1.56325 -0.20005 0
M  V30 3520 C 320.2 2.22318 0.713916 0
M  V30 3521 C 321.181 1.18788 1.21752 0
M  V30 3522 O 322.366 1.47309 1.26545 0
M  V30 3523 C 319.496 2.88639 1.93144 0
M  V30 3524 C 318.45 3.98457 1.56255 0
M  V30 3525 C 317.776 4.51967 2.85709 0
M  V30 3526 C 319.076 5.16612 0.768747 0
M  V30 3527 H 320.77 2.98952 0.163755 0
M  V30 3528 H 318.316 1.43792 0.0773219 0
M  V30 3529 H 320.269 3.33491 2.57608 0
M  V30 3530 H 318.993 2.09419 2.50621 0
M  V30 3531 H 317.652 3.54305 0.941471 0
M  V30 3532 H 317.3 3.69503 3.41287 0
M  V30 3533 H 317 5.26071 2.6177 0
M  V30 3534 H 318.524 4.99523 3.51154 0
M  V30 3535 H 319.938 5.57977 1.3166 0
M  V30 3536 H 318.335 5.96812 0.627286 0
M  V30 3537 H 319.405 4.84358 -0.229168 0
M  V30 3538 N 320.748 -0.0735177 1.57428 0
M  V30 3539 C 322.159 -0.625551 1.75908 0
M  V30 3540 C 322.51 -1.78 0.825261 0
M  V30 3541 O 321.635 -2.16398 0.00893964 0
M  V30 3542 C 322.23 -1.14155 3.18989 0
M  V30 3543 C 320.789 -1.63946 3.38819 0
M  V30 3544 C 319.936 -0.558151 2.71625 0
M  V30 3545 H 322.887 0.152647 1.57964 0
M  V30 3546 H 322.908 -2.0104 3.23053 0
M  V30 3547 H 322.42 -0.301116 3.8693 0
M  V30 3548 H 320.521 -2.50321 2.7599 0
M  V30 3549 H 320.634 -1.71759 4.47253 0
M  V30 3550 H 318.998 -1.00278 2.34129 0
M  V30 3551 H 319.781 0.272071 3.4222 0
M  V30 3552 N 322.226 -1.5378 -0.344866 0
M  V30 3553 C 323.642 -1.44015 -0.687888 0
M  V30 3554 C 323.842 -0.595834 -1.92489 0
M  V30 3555 O 322.898 -0.0863064 -2.52352 0
M  V30 3556 C 324.211 -2.87481 -0.881758 0
M  V30 3557 C 325.759 -2.97247 -0.980459 0
M  V30 3558 C 326.234 -4.41819 -1.20665 0
M  V30 3559 N 327.725 -4.45339 -1.27389 0
M  V30 3560 C 328.46 -5.54333 -1.46639 0
M  V30 3561 N 327.956 -6.73335 -1.63071 0
M  V30 3562 N 329.749 -5.41944 -1.49176 0
M  V30 3563 H 321.9 -2.07169 0.468475 0
M  V30 3564 H 324.163 -0.93643 0.147655 0
M  V30 3565 H 323.869 -3.51672 -0.0443444 0
M  V30 3566 H 323.743 -3.32352 -1.78388 0
M  V30 3567 H 326.13 -2.33197 -1.8084 0
M  V30 3568 H 326.211 -2.5574 -0.0552713 0
M  V30 3569 H 325.855 -5.06449 -0.383652 0
M  V30 3570 H 325.785 -4.80917 -2.14539 0
M  V30 3571 H 328.276 -3.59585 -1.1622 0
M  V30 3572 H 328.589 -7.52165 -1.77391 0
M  V30 3573 H 326.934 -6.76282 -1.60209 0
M  V30 3574 H 330.125 -4.47932 -1.3592 0
M  V30 3575 H 330.298 -6.26946 -1.63837 0
M  V30 3576 N 323.704 0.605807 -1.45491 0
M  V30 3577 C 324.614 1.74466 -1.56839 0
M  V30 3578 C 325.63 1.68006 -0.452772 0
M  V30 3579 O 326.806 1.8833 -0.713708 0
M  V30 3580 C 323.871 3.10931 -1.53371 0
M  V30 3581 C 322.932 3.28832 -2.75986 0
M  V30 3582 C 322.165 4.58787 -2.72673 0
M  V30 3583 O 322.388 5.4122 -1.80102 0
M  V30 3584 O 321.322 4.79438 -3.63899 0
M  V30 3585 H 325.148 1.67843 -2.53106 0
M  V30 3586 H 322.733 0.770108 -1.28022 0
M  V30 3587 H 324.615 3.92233 -1.54051 0
M  V30 3588 H 323.29 3.18042 -0.602572 0
M  V30 3589 H 322.197 2.47112 -2.80867 0
M  V30 3590 H 323.53 3.26599 -3.68231 0
M  V30 3591 N 325.182 1.32811 0.848464 0
M  V30 3592 C 326.129 1.22265 1.95755 0
M  V30 3593 C 327.099 0.103413 1.65778 0
M  V30 3594 O 328.284 0.280033 1.88734 0
M  V30 3595 C 325.424 0.958014 3.31536 0
M  V30 3596 C 324.537 2.16262 3.73971 0
M  V30 3597 C 323.672 1.83295 4.98575 0
M  V30 3598 C 322.711 3.00041 5.33518 0
M  V30 3599 N 321.848 2.67125 6.49299 0
M  V30 3600 H 326.688 2.17128 2.04107 0
M  V30 3601 H 324.225 1.07982 0.998913 0
M  V30 3602 H 326.183 0.785052 4.09747 0
M  V30 3603 H 324.813 0.046159 3.22767 0
M  V30 3604 H 323.865 2.44565 2.91362 0
M  V30 3605 H 325.177 3.03572 3.95785 0
M  V30 3606 H 324.331 1.62586 5.84509 0
M  V30 3607 H 323.07 0.932078 4.7871 0
M  V30 3608 H 322.075 3.21374 4.46093 0
M  V30 3609 H 323.3 3.90869 5.55336 0
M  V30 3610 H 321.246 1.79586 6.3094 0
M  V30 3611 H 321.163 3.47965 6.71161 0
M  V30 3612 H 322.431 2.49861 7.3837 0
M  V30 3613 N 326.66 -1.06551 1.16123 0
M  V30 3614 C 327.59 -2.15935 0.88851 0
M  V30 3615 C 328.571 -1.69306 -0.164135 0
M  V30 3616 O 329.756 -1.94193 -0.0167857 0
M  V30 3617 C 326.886 -3.45149 0.385942 0
M  V30 3618 C 325.84 -4.05271 1.3762 0
M  V30 3619 C 325.166 -5.29664 0.732137 0
M  V30 3620 C 326.466 -4.44355 2.74493 0
M  V30 3621 H 328.16 -2.39006 1.80323 0
M  V30 3622 H 325.706 -1.14866 0.868435 0
M  V30 3623 H 327.659 -4.21004 0.182647 0
M  V30 3624 H 326.383 -3.21689 -0.564274 0
M  V30 3625 H 325.042 -3.3147 1.56599 0
M  V30 3626 H 324.69 -5.02499 -0.224483 0
M  V30 3627 H 324.39 -5.70848 1.39307 0
M  V30 3628 H 325.914 -6.08218 0.538802 0
M  V30 3629 H 327.328 -5.11303 2.59311 0
M  V30 3630 H 325.725 -4.96515 3.37035 0
M  V30 3631 H 326.795 -3.55339 3.29943 0
M  V30 3632 N 328.138 -0.959301 -1.25041 0
M  V30 3633 C 329.101 -0.487677 -2.23952 0
M  V30 3634 C 330.101 0.41119 -1.55454 0
M  V30 3635 O 331.291 0.207825 -1.72956 0
M  V30 3636 C 328.423 0.294807 -3.39623 0
M  V30 3637 H 329.616 -1.36198 -2.67189 0
M  V30 3638 H 327.169 -0.743042 -1.37508 0
M  V30 3639 H 327.904 1.18658 -3.01813 0
M  V30 3640 H 327.689 -0.35012 -3.90534 0
M  V30 3641 H 329.179 0.614089 -4.1306 0
M  V30 3642 N 329.616 1.39756 -0.72842 0
M  V30 3643 C 330.579 2.29012 -0.0927297 0
M  V30 3644 C 331.579 1.45992 0.674025 0
M  V30 3645 O 332.769 1.66749 0.50402 0
M  V30 3646 C 329.901 3.29396 0.878137 0
M  V30 3647 H 331.094 2.86729 -0.879011 0
M  V30 3648 H 328.647 1.48293 -0.493847 0
M  V30 3649 H 329.382 2.76722 1.69101 0
M  V30 3650 H 329.167 3.907 0.331051 0
M  V30 3651 H 330.657 3.96199 1.3197 0
M  V30 3652 N 331.094 0.475555 1.50254 0
M  V30 3653 C 332.057 -0.305016 2.27161 0
M  V30 3654 C 333.057 -0.916519 1.32123 0
M  V30 3655 O 334.247 -0.785003 1.5551 0
M  V30 3656 C 331.379 -1.43496 3.09227 0
M  V30 3657 H 332.572 0.369511 2.97615 0
M  V30 3658 H 330.125 0.229747 1.54602 0
M  V30 3659 H 330.86 -2.14441 2.43281 0
M  V30 3660 H 330.645 -1.00223 3.79075 0
M  V30 3661 H 332.135 -1.98548 3.67381 0
M  V30 3662 N 332.573 -1.56217 0.208337 0
M  V30 3663 C 333.483 -2.23316 -0.718836 0
M  V30 3664 C 334.499 -1.23648 -1.22422 0
M  V30 3665 O 335.675 -1.56423 -1.26861 0
M  V30 3666 C 332.74 -2.88968 -1.91568 0
M  V30 3667 C 331.801 -4.03943 -1.45357 0
M  V30 3668 C 331.034 -4.66455 -2.59337 0
M  V30 3669 O 331.257 -4.27919 -3.77149 0
M  V30 3670 O 330.191 -5.55686 -2.31293 0
M  V30 3671 H 334.017 -3.03182 -0.177315 0
M  V30 3672 H 331.602 -1.49384 -0.0215402 0
M  V30 3673 H 333.484 -3.30455 -2.61491 0
M  V30 3674 H 332.159 -2.12071 -2.44556 0
M  V30 3675 H 331.066 -3.67052 -0.722746 0
M  V30 3676 H 332.399 -4.82543 -0.970219 0
M  V30 3677 N 334.051 0.0651679 -1.57465 0
M  V30 3678 C 335.467 0.420105 -1.53972 0
M  V30 3679 C 335.667 1.78782 -0.929474 0
M  V30 3680 O 334.723 2.46771 -0.534839 0
M  V30 3681 C 336.036 0.355084 -2.98596 0
M  V30 3682 C 337.584 0.434792 -3.09965 0
M  V30 3683 C 338.059 0.399609 -4.56253 0
M  V30 3684 N 339.55 0.459488 -4.60915 0
M  V30 3685 C 340.285 0.454584 -5.71595 0
M  V30 3686 N 339.781 0.404102 -6.9162 0
M  V30 3687 N 341.574 0.501635 -5.59857 0
M  V30 3688 H 333.725 -0.830328 -1.95498 0
M  V30 3689 H 335.988 -0.312244 -0.895102 0
M  V30 3690 H 335.694 -0.583357 -3.46828 0
M  V30 3691 H 335.568 1.16275 -3.58831 0
M  V30 3692 H 337.955 1.36366 -2.61703 0
M  V30 3693 H 338.036 -0.40157 -2.52628 0
M  V30 3694 H 337.68 -0.525436 -5.05175 0
M  V30 3695 H 337.61 1.25359 -5.11461 0
M  V30 3696 H 340.101 0.502482 -3.74544 0
M  V30 3697 H 340.414 0.404468 -7.71741 0
M  V30 3698 H 338.759 0.37069 -6.94011 0
M  V30 3699 H 341.95 0.538812 -4.64989 0
M  V30 3700 H 342.123 0.494345 -6.46112 0
M  V30 3701 N 335.529 1.53961 0.336706 0
M  V30 3702 C 336.775 1.7179 1.07777 0
M  V30 3703 C 337.108 0.483263 1.88091 0
M  V30 3704 O 336.383 -0.519747 1.87427 0
M  V30 3705 C 336.666 2.98558 2.01334 0
M  V30 3706 C 336.519 4.32245 1.24437 0
M  V30 3707 C 337.838 3.21023 3.01052 0
M  V30 3708 H 334.957 0.625089 0.390426 0
M  V30 3709 H 337.599 1.86641 0.35567 0
M  V30 3710 H 335.749 2.86028 2.62908 0
M  V30 3711 H 337.421 4.56637 0.654243 0
M  V30 3712 H 335.664 4.30344 0.546458 0
M  V30 3713 H 336.335 5.17137 1.93063 0
M  V30 3714 H 338.811 3.32929 2.49595 0
M  V30 3715 H 337.687 4.11104 3.6371 0
M  V30 3716 H 337.948 2.37637 3.72802 0
M  V30 3717 N 337.007 -0.598083 1.45811 0
M  V30 3718 C 337.937 -1.71873 1.58057 0
M  V30 3719 C 338.918 -1.64533 0.431615 0
M  V30 3720 O 340.103 -1.82787 0.65595 0
M  V30 3721 C 337.233 -3.10495 1.55597 0
M  V30 3722 C 336.187 -3.32654 2.69305 0
M  V30 3723 C 335.513 -4.71646 2.51902 0
M  V30 3724 C 336.813 -3.21981 4.11248 0
M  V30 3725 H 338.507 -1.61881 2.51863 0
M  V30 3726 H 336.053 -0.777372 1.21214 0
M  V30 3727 H 338.006 -3.88699 1.6276 0
M  V30 3728 H 336.73 -3.2135 0.583255 0
M  V30 3729 H 335.389 -2.56843 2.61586 0
M  V30 3730 H 335.037 -4.79246 1.52748 0
M  V30 3731 H 334.737 -4.87426 3.2816 0
M  V30 3732 H 336.261 -5.52038 2.60933 0
M  V30 3733 H 337.675 -3.90049 4.20161 0
M  V30 3734 H 336.072 -3.49289 4.87972 0
M  V30 3735 H 337.142 -2.1928 4.32486 0
M  V30 3736 N 338.485 -1.33259 -0.841409 0
M  V30 3737 C 339.901 -1.12538 -1.13169 0
M  V30 3738 C 340.101 0.0854037 -2.01319 0
M  V30 3739 O 339.157 0.766417 -2.40587 0
M  V30 3740 C 340.47 -2.41156 -1.79623 0
M  V30 3741 C 342.018 -2.47038 -1.922 0
M  V30 3742 C 342.493 -3.7561 -2.6207 0
M  V30 3743 N 343.984 -3.76667 -2.69585 0
M  V30 3744 C 344.719 -4.72861 -3.2433 0
M  V30 3745 N 344.215 -5.79428 -3.79783 0
M  V30 3746 N 346.008 -4.6034 -3.22558 0
M  V30 3747 H 338.159 -2.10868 -0.254676 0
M  V30 3748 H 340.422 -0.931615 -0.175493 0
M  V30 3749 H 340.128 -3.29747 -1.22311 0
M  V30 3750 H 340.002 -2.53114 -2.79666 0
M  V30 3751 H 342.389 -1.58898 -2.48667 0
M  V30 3752 H 342.47 -2.39022 -0.911148 0
M  V30 3753 H 342.114 -4.64131 -2.06263 0
M  V30 3754 H 342.044 -3.80902 -3.63622 0
M  V30 3755 H 344.535 -2.99648 -2.30259 0
M  V30 3756 H 344.848 -6.48867 -4.19752 0
M  V30 3757 H 343.193 -5.83166 -3.78078 0
M  V30 3758 H 346.384 -3.76244 -2.78492 0
M  V30 3759 H 346.557 -5.35478 -3.64921 0
M  V30 3760 N 339.963 1.05934 -1.16686 0
M  V30 3761 C 341.188 1.83029 -0.975455 0
M  V30 3762 C 341.613 1.82096 0.471452 0
M  V30 3763 O 340.971 1.22443 1.33706 0
M  V30 3764 C 341.019 3.27372 -1.51195 0
M  V30 3765 O 340.123 4.06054 -0.720701 0
M  V30 3766 H 339.464 0.566194 -0.346872 0
M  V30 3767 H 341.994 1.33541 -1.55009 0
M  V30 3768 H 342.004 3.78186 -1.53099 0
M  V30 3769 H 340.679 3.27366 -2.56523 0
M  V30 3770 H 339.256 3.64812 -0.772458 0
M  V30 3771 N 341.441 0.965919 1.2453 0
M  V30 3772 C 342.389 0.486506 2.27455 0
M  V30 3773 C 343.383 -0.449041 1.6334 0
M  V30 3774 O 344.589 -0.324527 1.7705 0
M  V30 3775 H 340.964 0.138857 0.739069 0
M  V30 3776 H 342.935 1.3666 2.65267 0
M  V30 3777 C 341.684 -0.209481 3.47068 0
M  V30 3778 H 341.007 0.50129 3.96645 0
M  V30 3779 H 342.447 -0.508775 4.20936 0
M  V30 3780 C 340.906 -1.43586 3.0477 0
M  V30 3781 O 341.436 -2.53299 3.11773 0
M  V30 3782 N 339.642 -1.30126 2.59838 0
M  V30 3783 H 339.189 -0.408583 2.54339 0
M  V30 3784 H 339.147 -2.12294 2.31902 0
M  V30 3785 N 342.919 -1.39368 0.735821 0
M  V30 3786 C 343.852 -2.28155 0.0451175 0
M  V30 3787 C 344.83 -1.44433 -0.746852 0
M  V30 3788 O 346.014 -1.73823 -0.729237 0
M  V30 3789 C 343.141 -3.253 -0.943266 0
M  V30 3790 C 342.187 -4.25826 -0.239685 0
M  V30 3791 S 343.02 -5.25166 1.04693 0
M  V30 3792 C 344.176 -6.2587 0.0611639 0
M  V30 3793 H 344.409 -2.86388 0.79807 0
M  V30 3794 H 341.942 -1.45104 0.527653 0
M  V30 3795 H 343.9 -3.81789 -1.50824 0
M  V30 3796 H 342.561 -2.66085 -1.66906 0
M  V30 3797 H 341.754 -4.94229 -0.987596 0
M  V30 3798 H 341.356 -3.73141 0.253274 0
M  V30 3799 H 343.648 -6.73007 -0.778941 0
M  V30 3800 H 344.591 -7.04508 0.712362 0
M  V30 3801 H 344.999 -5.63639 -0.311602 0
M  V30 3802 N 344.397 -0.483516 -1.5 0
M  V30 3803 C 345.674 0.129337 -1.95172 0
M  V30 3804 C 346.054 1.55802 -1.4244 0
M  V30 3805 O 345.402 2.19625 -0.630649 0
M  V30 3806 C 345.612 0.0599251 -3.48949 0
M  V30 3807 C 346.96 0.242617 -4.23906 0
M  V30 3808 O 347.984 0.135933 -3.55941 0
M  V30 3809 O 346.843 0.459454 -5.44565 0
M  V30 3810 H 343.937 0.104887 -0.820322 0
M  V30 3811 H 346.483 -0.544807 -1.60717 0
M  V30 3812 H 345.255 -0.937079 -3.79914 0
M  V30 3813 H 344.878 0.774984 -3.89974 0
M  V30 3814 N 345.875 1.56104 -0.216619 0
M  V30 3815 C 347.124 1.97348 0.416744 0
M  V30 3816 C 347.437 1.10715 1.6125 0
M  V30 3817 O 348.643 1.41836 2.31506 0
M  V30 3818 C 347.099 3.51059 0.792835 0
M  V30 3819 C 346.707 4.46387 -0.379828 0
M  V30 3820 C 348.451 4.01026 1.39208 0
M  V30 3821 C 346.358 5.91397 0.0184223 0
M  V30 3822 H 345.288 0.736942 0.159475 0
M  V30 3823 H 347.939 1.80827 -0.31205 0
M  V30 3824 H 346.321 3.63162 1.57891 0
M  V30 3825 H 347.495 4.46029 -1.15737 0
M  V30 3826 H 345.81 4.06734 -0.891979 0
M  V30 3827 H 348.407 5.0686 1.70286 0
M  V30 3828 H 348.75 3.46587 2.30614 0
M  V30 3829 H 349.283 3.92125 0.669537 0
M  V30 3830 H 346.022 6.49807 -0.862002 0
M  V30 3831 H 345.542 5.94961 0.760384 0
M  V30 3832 H 347.221 6.45455 0.446818 0
M  V30 3833 N 347.353 -0.0568162 1.57498 0
M  V30 3834 C 348.283 -1.06593 2.0775 0
M  V30 3835 C 349.264 -1.39448 0.974082 0
M  V30 3836 O 350.449 -1.48815 1.24771 0
M  V30 3837 C 347.579 -2.37509 2.5339 0
M  V30 3838 C 346.533 -2.1897 3.67745 0
M  V30 3839 C 345.859 -3.55402 3.99492 0
M  V30 3840 C 347.159 -1.59859 4.97235 0
M  V30 3841 H 348.853 -0.647706 2.9231 0
M  V30 3842 H 346.399 -0.310116 1.40621 0
M  V30 3843 H 348.352 -3.08409 2.87162 0
M  V30 3844 H 347.076 -2.8134 1.65878 0
M  V30 3845 H 345.735 -1.50508 3.3428 0
M  V30 3846 H 345.383 -3.9683 3.09088 0
M  V30 3847 H 345.083 -3.43831 4.76502 0
M  V30 3848 H 346.607 -4.27708 4.35773 0
M  V30 3849 H 348.021 -2.20642 5.29141 0
M  V30 3850 H 346.418 -1.58942 5.78669 0
M  V30 3851 H 347.488 -0.561506 4.81638 0
M  V30 3852 N 348.832 -1.54138 -0.328536 0
M  V30 3853 C 349.779 -1.83176 -1.40411 0
M  V30 3854 C 350.749 -0.678494 -1.5161 0
M  V30 3855 O 351.934 -0.92443 -1.6691 0
M  V30 3856 C 349.074 -2.06035 -2.76846 0
M  V30 3857 C 348.187 -3.33727 -2.74318 0
M  V30 3858 C 347.322 -3.46574 -4.02567 0
M  V30 3859 C 346.361 -4.68159 -3.94327 0
M  V30 3860 N 345.498 -4.77959 -5.14296 0
M  V30 3861 H 350.338 -2.74938 -1.14948 0
M  V30 3862 H 347.875 -1.36166 -0.556538 0
M  V30 3863 H 349.833 -2.1728 -3.56153 0
M  V30 3864 H 348.463 -1.1757 -3.00628 0
M  V30 3865 H 347.515 -3.31246 -1.8703 0
M  V30 3866 H 348.827 -4.23139 -2.64111 0
M  V30 3867 H 347.981 -3.57333 -4.90304 0
M  V30 3868 H 346.72 -2.55245 -4.15574 0
M  V30 3869 H 345.725 -4.57461 -3.04974 0
M  V30 3870 H 346.95 -5.60868 -3.82889 0
M  V30 3871 H 344.896 -3.89544 -5.27818 0
M  V30 3872 H 344.813 -5.6133 -5.06404 0
M  V30 3873 H 346.081 -4.93044 -6.03761 0
M  V30 3874 N 350.31 0.590341 -1.46126 0
M  V30 3875 C 351.721 1.17243 -1.45296 0
M  V30 3876 C 352.072 1.95281 -0.189723 0
M  V30 3877 O 351.197 2.04502 0.707674 0
M  V30 3878 C 351.792 2.13284 -2.6324 0
M  V30 3879 C 350.351 2.66832 -2.65476 0
M  V30 3880 C 349.498 1.42557 -2.3785 0
M  V30 3881 H 352.449 0.378692 -1.54116 0
M  V30 3882 H 352.47 2.96619 -2.38323 0
M  V30 3883 H 351.982 1.56459 -3.55165 0
M  V30 3884 H 350.083 3.27548 -1.77603 0
M  V30 3885 H 350.196 3.10088 -3.65215 0
M  V30 3886 H 348.56 1.72107 -1.87753 0
M  V30 3887 H 349.343 0.875741 -3.31942 0
M  V30 3888 N 351.788 1.33704 0.83433 0
M  V30 3889 C 353.037 1.24763 1.58484 0
M  V30 3890 C 353.35 -0.183775 1.94735 0
M  V30 3891 O 354.556 -0.395234 2.68608 0
M  V30 3892 C 353.012 2.18638 2.85876 0
M  V30 3893 C 352.62 3.66974 2.56971 0
M  V30 3894 C 354.364 2.18581 3.63899 0
M  V30 3895 C 352.271 4.5275 3.80488 0
M  V30 3896 H 351.201 0.463425 0.594772 0
M  V30 3897 H 353.852 1.58797 0.919551 0
M  V30 3898 H 352.234 1.77542 3.5397 0
M  V30 3899 H 353.408 4.16538 1.9706 0
M  V30 3900 H 351.723 3.69366 1.92244 0
M  V30 3901 H 354.32 2.79894 4.55591 0
M  V30 3902 H 354.663 1.18207 3.99165 0
M  V30 3903 H 355.196 2.58062 3.02735 0
M  V30 3904 H 351.935 5.54017 3.5035 0
M  V30 3905 H 351.455 4.07927 4.39722 0
M  V30 3906 H 353.134 4.66784 4.4802 0
M  V30 3907 N 353.266 -1.05314 1.17247 0
M  V30 3908 C 354.196 -2.1498 0.911362 0
M  V30 3909 C 355.177 -1.69471 -0.146169 0
M  V30 3910 O 356.362 -1.942 0.003812 0
M  V30 3911 C 353.492 -3.4472 0.422528 0
M  V30 3912 C 352.446 -4.03789 1.4191 0
M  V30 3913 C 351.772 -5.28858 0.788274 0
M  V30 3914 C 353.072 -4.41418 2.7919 0
M  V30 3915 H 354.766 -2.3708 1.82848 0
M  V30 3916 H 352.312 -1.13938 0.880569 0
M  V30 3917 H 354.265 -4.20787 0.227289 0
M  V30 3918 H 352.989 -3.22269 -0.530123 0
M  V30 3919 H 351.648 -3.2979 1.60106 0
M  V30 3920 H 351.296 -5.02709 -0.171173 0
M  V30 3921 H 350.996 -5.69338 1.45353 0
M  V30 3922 H 352.52 -6.07612 0.603282 0
M  V30 3923 H 353.934 -5.08524 2.64719 0
M  V30 3924 H 352.331 -4.92913 3.42282 0
M  V30 3925 H 353.401 -3.51819 3.33693 0
M  V30 3926 N 354.744 -0.972509 -1.24016 0
M  V30 3927 C 356.16 -0.679827 -1.44397 0
M  V30 3928 C 356.36 0.756716 -1.86751 0
M  V30 3929 O 355.416 1.53007 -2.00861 0
M  V30 3930 C 356.729 -1.66803 -2.50195 0
M  V30 3931 C 358.277 -1.68119 -2.64017 0
M  V30 3932 C 358.752 -2.65748 -3.73017 0
M  V30 3933 N 360.243 -2.64219 -3.8045 0
M  V30 3934 C 360.978 -3.36433 -4.64328 0
M  V30 3935 N 360.474 -4.1818 -5.52356 0
M  V30 3936 N 362.267 -3.25235 -4.58453 0
M  V30 3937 H 354.418 -1.90059 -0.948228 0
M  V30 3938 H 356.681 -0.818527 -0.478245 0
M  V30 3939 H 356.387 -2.69498 -2.25973 0
M  V30 3940 H 356.261 -1.4446 -3.48441 0
M  V30 3941 H 358.648 -0.661319 -2.87594 0
M  V30 3942 H 358.729 -1.94525 -1.66113 0
M  V30 3943 H 358.373 -3.67872 -3.50189 0
M  V30 3944 H 358.303 -2.36619 -4.70446 0
M  V30 3945 H 360.794 -2.04887 -3.17537 0
M  V30 3946 H 361.107 -4.70157 -6.13329 0
M  V30 3947 H 359.452 -4.22273 -5.52006 0
M  V30 3948 H 362.643 -2.60829 -3.88698 0
M  V30 3949 H 362.816 -3.81776 -5.23594 0
M  V30 3950 N 356.222 1.38976 -0.743202 0
M  V30 3951 C 357.45 2.04636 -0.30525 0
M  V30 3952 C 357.865 1.56044 1.06281 0
M  V30 3953 O 357.222 0.728921 1.67311 0
M  V30 3954 C 357.273 3.60193 -0.307177 0
M  V30 3955 O 356.994 4.06998 -1.62124 0
M  V30 3956 C 358.495 4.4306 0.145928 0
M  V30 3957 H 355.715 0.65788 -0.132041 0
M  V30 3958 H 358.259 1.77866 -1.00915 0
M  V30 3959 H 356.414 3.85835 0.347898 0
M  V30 3960 H 356.828 5.01371 -1.54036 0
M  V30 3961 H 358.302 5.51921 0.0934183 0
M  V30 3962 H 358.779 4.22706 1.19231 0
M  V30 3963 H 359.385 4.22584 -0.479886 0
M  V30 3964 N 357.7 0.491464 1.49741 0
M  V30 3965 C 358.63 -0.28154 2.31796 0
M  V30 3966 C 359.611 -0.971473 1.3963 0
M  V30 3967 O 360.796 -0.964719 1.68543 0
M  V30 3968 C 357.926 -1.35203 3.19902 0
M  V30 3969 C 356.88 -0.782529 4.20786 0
M  V30 3970 C 356.206 -1.95283 4.97764 0
M  V30 3971 C 357.506 0.21999 5.21837 0
M  V30 3972 H 359.2 0.403355 2.96671 0
M  V30 3973 H 356.746 0.195425 1.42668 0
M  V30 3974 H 358.699 -1.90045 3.76113 0
M  V30 3975 H 357.423 -2.06598 2.52953 0
M  V30 3976 H 356.082 -0.255928 3.65706 0
M  V30 3977 H 355.73 -2.65423 4.2727 0
M  V30 3978 H 355.43 -1.57789 5.66018 0
M  V30 3979 H 356.954 -2.50577 5.56816 0
M  V30 3980 H 358.368 -0.23996 5.72798 0
M  V30 3981 H 356.765 0.51026 5.97927 0
M  V30 3982 H 357.835 1.13911 4.7133 0
M  V30 3983 N 359.178 -1.55987 0.224894 0
M  V30 3984 C 360.126 -2.21808 -0.700283 0
M  V30 3985 C 361.12 -1.19854 -1.19714 0
M  V30 3986 O 362.326 -1.37925 -1.15658 0
M  V30 3987 H 358.701 -0.711226 -0.244258 0
M  V30 3988 H 360.672 -2.98152 -0.121749 0
M  V30 3989 C 359.421 -2.91444 -1.8962 0
M  V30 3990 H 358.744 -3.69655 -1.52299 0
M  V30 3991 H 360.184 -3.40894 -2.52125 0
M  V30 3992 C 358.643 -1.94098 -2.75368 0
M  V30 3993 O 359.173 -1.46004 -3.74227 0
M  V30 3994 N 357.379 -1.61675 -2.41474 0
M  V30 3995 H 356.926 -2.00979 -1.61137 0
M  V30 3996 H 356.884 -0.968036 -2.99126 0
M  V30 3997 N 360.656 0.0484629 -1.57525 0
M  V30 3998 C 361.881 0.759177 -1.93006 0
M  V30 3999 C 362.306 1.69125 -0.823317 0
M  V30 4000 O 361.664 1.79931 0.222364 0
M  V30 4001 C 361.712 1.50899 -3.27509 0
M  V30 4002 O 360.816 2.62112 -3.18388 0
M  V30 4003 H 360.157 0.205564 -0.631379 0
M  V30 4004 H 362.687 0.00972959 -2.04598 0
M  V30 4005 H 362.697 1.88317 -3.6194 0
M  V30 4006 H 361.372 0.825269 -4.0763 0
M  V30 4007 H 359.949 2.27379 -2.95556 0
M  V30 4008 N 362.134 1.5431 0.320358 0
M  V30 4009 C 363.362 1.76636 1.07738 0
M  V30 4010 C 363.777 0.51649 1.81598 0
M  V30 4011 O 363.134 -0.512942 1.75143 0
M  V30 4012 C 363.185 2.96158 2.07299 0
M  V30 4013 O 362.906 4.16313 1.36438 0
M  V30 4014 C 364.407 3.3072 2.95193 0
M  V30 4015 H 361.627 0.589597 0.320339 0
M  V30 4016 H 364.171 2.01207 0.36551 0
M  V30 4017 H 362.326 2.73851 2.74016 0
M  V30 4018 H 362.74 4.83565 2.03138 0
M  V30 4019 H 364.214 4.17643 3.60941 0
M  V30 4020 H 364.691 2.48026 3.62463 0
M  V30 4021 H 365.297 3.55117 2.34034 0
M  V30 4022 N 363.613 -0.582584 1.46437 0
M  V30 4023 C 364.838 -1.37168 1.55563 0
M  V30 4024 C 365.263 -1.87061 0.19743 0
M  V30 4025 O 364.621 -1.61572 -0.822451 0
M  V30 4026 C 364.669 -2.53511 2.56446 0
M  V30 4027 O 363.773 -3.54953 2.09958 0
M  V30 4028 H 363.114 -0.408494 0.523477 0
M  V30 4029 H 365.644 -0.706646 1.9201 0
M  V30 4030 H 365.654 -3.00426 2.76058 0
M  V30 4031 H 364.329 -2.16549 3.55076 0
M  V30 4032 H 362.906 -3.14516 2.00334 0
M  V30 4033 N 365.091 -1.34144 -0.827227 0
M  V30 4034 C 366.502 -1.23557 -1.39966 0
M  V30 4035 C 366.853 0.140731 -1.95695 0
M  V30 4036 O 365.978 1.04087 -1.89723 0
M  V30 4037 C 366.573 -2.23708 -2.54441 0
M  V30 4038 C 365.132 -2.16924 -3.07605 0
M  V30 4039 C 364.279 -2.10549 -1.80456 0
M  V30 4040 H 367.23 -1.45573 -0.631991 0
M  V30 4041 H 367.251 -1.85157 -3.32411 0
M  V30 4042 H 366.763 -3.23866 -2.13851 0
M  V30 4043 H 364.864 -1.20107 -3.52711 0
M  V30 4044 H 364.977 -3.07988 -3.66988 0
M  V30 4045 H 363.341 -1.56203 -2.01178 0
M  V30 4046 H 364.124 -3.12535 -1.42046 0
M  V30 4047 N 366.569 1.04691 -1.17803 0
M  V30 4048 C 367.816 1.77782 -0.969532 0
M  V30 4049 C 368.144 1.87926 0.501401 0
M  V30 4050 O 367.399 1.37918 1.38842 0
M  V30 4051 C 367.698 3.21467 -1.56186 0
M  V30 4052 C 367.364 3.3137 -3.05786 0
M  V30 4053 C 366.026 3.3378 -3.46619 0
M  V30 4054 C 368.378 3.31976 -4.01797 0
M  V30 4055 C 365.706 3.34431 -4.82051 0
M  V30 4056 C 368.058 3.34167 -5.37136 0
M  V30 4057 C 366.722 3.34866 -5.77426 0
M  V30 4058 H 365.992 0.650549 -0.354777 0
M  V30 4059 H 368.639 1.23006 -1.46772 0
M  V30 4060 H 366.944 3.79203 -0.985515 0
M  V30 4061 H 368.641 3.76652 -1.37602 0
M  V30 4062 H 365.231 3.3021 -2.73238 0
M  V30 4063 H 369.415 3.29311 -3.71306 0
M  V30 4064 H 364.671 3.33285 -5.12573 0
M  V30 4065 H 368.845 3.33585 -6.11305 0
M  V30 4066 H 366.472 3.35124 -6.82346 0
M  V30 4067 N 368.047 0.979072 1.23499 0
M  V30 4068 C 369.458 0.684391 1.73704 0
M  V30 4069 C 369.809 -0.799448 1.79174 0
M  V30 4070 O 368.934 -1.62531 1.42873 0
M  V30 4071 C 369.529 1.23564 3.15464 0
M  V30 4072 C 368.088 0.99063 3.6313 0
M  V30 4073 C 367.235 1.36416 2.41425 0
M  V30 4074 H 370.186 1.15307 1.09041 0
M  V30 4075 H 370.207 0.607417 3.7562 0
M  V30 4076 H 369.719 2.31561 3.1145 0
M  V30 4077 H 367.82 -0.0733136 3.72528 0
M  V30 4078 H 367.933 1.64427 4.5 0
M  V30 4079 H 366.297 0.782616 2.42378 0
M  V30 4080 H 367.08 2.45387 2.40083 0
M  V30 4081 N 369.525 -1.3858 0.750561 0
M  V30 4082 C 370.75 -2.04997 0.314812 0
M  V30 4083 C 371.175 -1.56235 -1.04749 0
M  V30 4084 O 370.533 -0.712981 -1.66692 0
M  V30 4085 C 370.581 -3.58961 0.343415 0
M  V30 4086 O 369.685 -4.07025 -0.663628 0
M  V30 4087 H 369.026 -0.649081 0.139962 0
M  V30 4088 H 371.556 -1.77313 1.02084 0
M  V30 4089 H 371.566 -4.07542 0.193233 0
M  V30 4090 H 370.241 -3.93811 1.33738 0
M  V30 4091 H 368.818 -3.6982 -0.478307 0
M  V30 4092 N 371.003 -0.499398 -1.49478 0
M  V30 4093 C 371.95 0.279881 -2.29097 0
M  V30 4094 C 372.92 0.961805 -1.3542 0
M  V30 4095 O 374.105 0.968777 -1.64376 0
M  V30 4096 C 371.245 1.33932 -3.18051 0
M  V30 4097 C 370.358 0.669333 -4.26783 0
M  V30 4098 C 369.493 1.70907 -5.02955 0
M  V30 4099 C 368.532 1.02087 -6.03527 0
M  V30 4100 N 367.669 2.00474 -6.7287 0
M  V30 4101 H 372.509 -0.405317 -2.95231 0
M  V30 4102 H 370.046 -0.211726 -1.45568 0
M  V30 4103 H 372.004 1.96553 -3.67998 0
M  V30 4104 H 370.634 1.9933 -2.53904 0
M  V30 4105 H 369.686 -0.0701234 -3.80335 0
M  V30 4106 H 370.998 0.127503 -4.98637 0
M  V30 4107 H 370.152 2.41037 -5.56764 0
M  V30 4108 H 368.891 2.28476 -4.30871 0
M  V30 4109 H 367.896 0.305338 -5.48951 0
M  V30 4110 H 369.121 0.451708 -6.77596 0
M  V30 4111 H 367.067 2.57007 -6.03559 0
M  V30 4112 H 366.984 1.51353 -7.40694 0
M  V30 4113 H 368.252 2.69897 -7.31284 0
M  V30 4114 N 372.481 1.55866 -0.233164 0
M  V30 4115 C 373.391 2.24431 0.683217 0
M  V30 4116 C 374.407 1.2558 1.2044 0
M  V30 4117 O 375.583 1.58422 1.24356 0
M  V30 4118 C 372.648 2.91979 1.86947 0
M  V30 4119 C 371.709 4.06204 1.38912 0
M  V30 4120 C 370.942 4.70522 2.51883 0
M  V30 4121 O 371.165 4.33865 3.70293 0
M  V30 4122 O 370.099 5.59296 2.22423 0
M  V30 4123 H 373.925 3.03426 0.129059 0
M  V30 4124 H 371.51 1.494 -0.0022283 0
M  V30 4125 H 373.392 3.34573 2.56201 0
M  V30 4126 H 372.067 2.15935 2.41151 0
M  V30 4127 H 370.974 3.68155 0.664259 0
M  V30 4128 H 372.307 4.84025 0.893328 0
M  V30 4129 N 373.959 -0.0401083 1.57549 0
M  V30 4130 C 374.889 -1.04384 2.08869 0
M  V30 4131 C 375.87 -1.38407 0.988817 0
M  V30 4132 O 377.055 -1.47483 1.26342 0
M  V30 4133 C 374.185 -2.34808 2.55895 0
M  V30 4134 C 373.139 -2.15057 3.70047 0
M  V30 4135 C 372.465 -3.51145 4.03239 0
M  V30 4136 C 373.765 -1.54576 4.98902 0
M  V30 4137 H 375.459 -0.616666 2.92981 0
M  V30 4138 H 373.005 -0.295184 1.40942 0
M  V30 4139 H 374.958 -3.05346 2.90417 0
M  V30 4140 H 373.682 -2.79565 1.68853 0
M  V30 4141 H 372.341 -1.46954 3.35857 0
M  V30 4142 H 371.989 -3.93529 3.13279 0
M  V30 4143 H 371.689 -3.38758 4.80122 0
M  V30 4144 H 373.213 -4.23062 4.40285 0
M  V30 4145 H 374.627 -2.15017 5.31451 0
M  V30 4146 H 373.024 -1.52796 5.80322 0
M  V30 4147 H 374.094 -0.51039 4.82206 0
M  V30 4148 N 375.437 -1.54477 -0.31217 0
M  V30 4149 C 376.4 -1.83923 -1.36766 0
M  V30 4150 C 377.4 -0.711563 -1.44199 0
M  V30 4151 O 378.59 -0.979866 -1.44029 0
M  V30 4152 C 375.722 -2.0095 -2.75376 0
M  V30 4153 H 376.915 -2.78239 -1.11906 0
M  V30 4154 H 374.468 -1.46369 -0.548257 0
M  V30 4155 H 375.203 -1.08883 -3.05475 0
M  V30 4156 H 374.988 -2.83018 -2.71373 0
M  V30 4157 H 376.478 -2.2514 -3.51713 0
M  V30 4158 N 376.915 0.57481 -1.46744 0
M  V30 4159 C 377.825 1.711 -1.60505 0
M  V30 4160 C 378.841 1.67008 -0.488307 0
M  V30 4161 O 380.017 1.86774 -0.753495 0
M  V30 4162 C 377.082 3.07608 -1.59932 0
M  V30 4163 C 376.143 3.22904 -2.82898 0
M  V30 4164 C 375.376 4.529 -2.82343 0
M  V30 4165 O 375.599 5.37278 -1.91542 0
M  V30 4166 O 374.533 4.71611 -3.73987 0
M  V30 4167 H 378.359 1.62436 -2.56609 0
M  V30 4168 H 375.944 0.742779 -1.29627 0
M  V30 4169 H 377.826 3.88877 -1.62336 0
M  V30 4170 H 376.501 3.16692 -0.669898 0
M  V30 4171 H 375.408 2.41099 -2.86046 0
M  V30 4172 H 376.741 3.18715 -3.75076 0
M  V30 4173 N 378.394 1.34581 0.820102 0
M  V30 4174 C 379.357 1.2628 1.91275 0
M  V30 4175 C 380.357 0.177344 1.59819 0
M  V30 4176 O 381.547 0.430156 1.68806 0
M  V30 4177 C 378.679 0.950327 3.27386 0
M  V30 4178 H 379.872 2.23421 2.00057 0
M  V30 4179 H 377.425 1.1891 1.0144 0
M  V30 4180 H 378.16 -0.0177938 3.24295 0
M  V30 4181 H 377.945 1.73549 3.51601 0
M  V30 4182 H 379.435 0.917492 4.07396 0
M  V30 4183 N 379.872 -1.04064 1.18357 0
M  V30 4184 C 381.1 -1.80916 1.00384 0
M  V30 4185 C 381.515 -1.83414 -0.447738 0
M  V30 4186 O 380.872 -1.26962 -1.31099 0
M  V30 4187 C 380.923 -3.26516 1.55144 0
M  V30 4188 O 380.644 -3.2424 2.94618 0
M  V30 4189 C 382.145 -4.20013 1.41789 0
M  V30 4190 H 379.365 -0.569728 0.354474 0
M  V30 4191 H 381.909 -1.31151 1.56906 0
M  V30 4192 H 380.064 -3.73512 1.02798 0
M  V30 4193 H 380.478 -4.15452 3.20156 0
M  V30 4194 H 381.952 -5.20111 1.84901 0
M  V30 4195 H 382.429 -4.37667 0.36661 0
M  V30 4196 H 383.035 -3.78881 1.93207 0
M  V30 4197 N 381.35 -0.985608 -1.22978 0
M  V30 4198 C 382.297 -0.529825 -2.24636 0
M  V30 4199 C 383.267 0.434028 -1.60329 0
M  V30 4200 O 384.452 0.340414 -1.87739 0
M  V30 4201 C 381.592 0.156533 -3.44745 0
M  V30 4202 C 380.705 -0.848197 -4.23591 0
M  V30 4203 C 379.84 -0.136109 -5.31026 0
M  V30 4204 C 378.879 -1.1297 -6.01585 0
M  V30 4205 N 378.016 -0.446415 -7.00679 0
M  V30 4206 H 382.856 -1.40148 -2.62988 0
M  V30 4207 H 380.393 -0.702168 -1.29259 0
M  V30 4208 H 382.351 0.571324 -4.1327 0
M  V30 4209 H 380.981 0.992025 -3.07179 0
M  V30 4210 H 380.033 -1.38135 -3.54433 0
M  V30 4211 H 381.345 -1.60512 -4.72268 0
M  V30 4212 H 380.499 0.335784 -6.0577 0
M  V30 4213 H 379.238 0.653373 -4.83304 0
M  V30 4214 H 378.243 -1.6123 -5.25628 0
M  V30 4215 H 379.468 -1.91993 -6.51395 0
M  V30 4216 H 377.414 0.323763 -6.55201 0
M  V30 4217 H 377.331 -1.1419 -7.47326 0
M  V30 4218 H 378.599 0.00291697 -7.795 0
M  V30 4219 N 382.828 1.3818 -0.7579 0
M  V30 4220 C 384.056 2.04301 -0.326937 0
M  V30 4221 C 384.471 1.57163 1.0462 0
M  V30 4222 O 383.828 0.746626 1.66529 0
M  V30 4223 C 383.879 3.59846 -0.345363 0
M  V30 4224 O 383.6 4.05256 -1.66432 0
M  V30 4225 C 385.101 4.4319 0.098927 0
M  V30 4226 H 382.321 0.656443 -0.139012 0
M  V30 4227 H 384.865 1.76786 -1.02796 0
M  V30 4228 H 383.02 3.86182 0.306955 0
M  V30 4229 H 383.434 4.99709 -1.59345 0
M  V30 4230 H 384.908 5.51989 0.0348745 0
M  V30 4231 H 385.385 4.23947 1.14741 0
M  V30 4232 H 385.991 4.22051 -0.52468 0
M  V30 4233 N 384.306 0.507319 1.49211 0
M  V30 4234 C 385.236 -0.256939 2.32082 0
M  V30 4235 C 386.217 -0.956609 1.40652 0
M  V30 4236 O 387.402 -0.946788 1.69557 0
M  V30 4237 C 384.532 -1.31802 3.21318 0
M  V30 4238 C 383.486 -0.737855 4.21592 0
M  V30 4239 C 382.812 -1.89992 4.99807 0
M  V30 4240 C 384.112 0.275325 5.21574 0
M  V30 4241 H 385.806 0.434798 2.96226 0
M  V30 4242 H 383.352 0.210546 1.42452 0
M  V30 4243 H 385.305 -1.86045 3.78107 0
M  V30 4244 H 384.029 -2.03903 2.5513 0
M  V30 4245 H 382.688 -0.217126 3.65956 0
M  V30 4246 H 382.336 -2.60877 4.30061 0
M  V30 4247 H 382.036 -1.51777 5.6766 0
M  V30 4248 H 383.56 -2.44657 5.59442 0
M  V30 4249 H 384.974 -0.179193 5.7302 0
M  V30 4250 H 383.371 0.573649 5.97352 0
M  V30 4251 H 384.441 1.18903 4.70096 0
M  V30 4252 N 385.784 -1.5574 0.241426 0
M  V30 4253 C 386.714 -2.24133 -0.654722 0
M  V30 4254 C 387.695 -1.21974 -1.1856 0
M  V30 4255 O 388.88 -1.50612 -1.22595 0
M  V30 4256 C 386.01 -2.93659 -1.85423 0
M  V30 4257 C 384.964 -4.0246 -1.45636 0
M  V30 4258 C 384.29 -4.59383 -2.73626 0
M  V30 4259 C 385.59 -5.18468 -0.631506 0
M  V30 4260 H 387.284 -2.99281 -0.0844353 0
M  V30 4261 H 384.83 -1.43947 -0.0391707 0
M  V30 4262 H 386.783 -3.40203 -2.48676 0
M  V30 4263 H 385.507 -2.15991 -2.44981 0
M  V30 4264 H 384.166 -3.56676 -0.847202 0
M  V30 4265 H 383.814 -3.78422 -3.3137 0
M  V30 4266 H 383.514 -5.32826 -2.4773 0
M  V30 4267 H 385.038 -5.08658 -3.37786 0
M  V30 4268 H 386.452 -5.61272 -1.1682 0
M  V30 4269 H 384.849 -5.98266 -0.468831 0
M  V30 4270 H 385.919 -4.8358 0.357506 0
M  V30 4271 N 387.262 0.0317525 -1.57568 0
M  V30 4272 C 388.212 1.04101 -2.02847 0
M  V30 4273 C 389.196 1.3219 -0.917317 0
M  V30 4274 O 390.388 1.31819 -1.18121 0
M  V30 4275 C 387.517 2.34295 -2.5092 0
M  V30 4276 C 386.603 2.09308 -3.68851 0
M  V30 4277 N 386.994 1.5437 -4.81667 0
M  V30 4278 C 385.292 2.39604 -3.76172 0
M  V30 4279 C 385.993 1.45126 -5.63306 0
M  V30 4280 N 384.969 1.92589 -5.08341 0
M  V30 4281 H 388.771 0.610217 -2.87495 0
M  V30 4282 H 386.285 0.238108 -1.60645 0
M  V30 4283 H 388.282 3.07404 -2.81617 0
M  V30 4284 H 386.942 2.78055 -1.67677 0
M  V30 4285 H 387.953 1.22678 -5.03161 0
M  V30 4286 H 384.63 2.86457 -3.03724 0
M  V30 4287 H 386.02 1.03163 -6.63933 0
M  V30 4288 N 388.74 1.54641 0.303973 0
M  V30 4289 C 389.965 1.78092 1.06292 0
M  V30 4290 C 390.39 0.537342 1.80262 0
M  V30 4291 O 389.748 -0.511993 1.7392 0
M  V30 4292 C 389.796 2.98612 2.02147 0
M  V30 4293 O 388.9 2.71528 3.10397 0
M  V30 4294 H 388.241 0.589548 0.305497 0
M  V30 4295 H 390.771 2.01716 0.3423 0
M  V30 4296 H 390.781 3.265 2.44667 0
M  V30 4297 H 389.456 3.88785 1.47714 0
M  V30 4298 H 388.033 2.54648 2.72413 0
M  V30 4299 N 390.218 -0.567019 1.47046 0
M  V30 4300 C 391.148 -1.68482 1.61667 0
M  V30 4301 C 392.129 -1.6358 0.466418 0
M  V30 4302 O 393.314 -1.81354 0.694574 0
M  V30 4303 C 390.444 -3.07124 1.62148 0
M  V30 4304 C 389.398 -3.26867 2.76301 0
M  V30 4305 C 388.724 -4.66196 2.61849 0
M  V30 4306 C 390.024 -3.13186 4.17986 0
M  V30 4307 H 391.718 -1.56502 2.5524 0
M  V30 4308 H 389.264 -0.751486 1.22836 0
M  V30 4309 H 391.217 -3.8516 1.70968 0
M  V30 4310 H 389.941 -3.2004 0.651287 0
M  V30 4311 H 388.6 -2.51237 2.66975 0
M  V30 4312 H 388.248 -4.75898 1.62879 0
M  V30 4313 H 387.948 -4.80356 3.38425 0
M  V30 4314 H 389.472 -5.46379 2.72584 0
M  V30 4315 H 390.886 -3.81049 4.2834 0
M  V30 4316 H 389.283 -3.3886 4.95272 0
M  V30 4317 H 390.353 -2.10057 4.3704 0
M  V30 4318 N 391.696 -1.35014 -0.812953 0
M  V30 4319 C 392.944 -1.27678 -1.56661 0
M  V30 4320 C 393.265 0.150359 -1.94419 0
M  V30 4321 O 392.535 1.08532 -1.63088 0
M  V30 4322 H 391.115 -0.469602 -0.580933 0
M  V30 4323 H 393.777 -1.69043 -0.970076 0
M  V30 4324 H 392.873 -1.88833 -2.48492 0
M  V30 4325 N 393.175 1.03435 -1.18907 0
M  V30 4326 C 394.403 1.80381 -1.01342 0
M  V30 4327 C 394.818 1.83649 0.438005 0
M  V30 4328 O 394.175 1.27655 1.30424 0
M  V30 4329 C 394.226 3.25689 -1.56873 0
M  V30 4330 O 393.947 3.22673 -2.96334 0
M  V30 4331 C 395.448 4.19255 -1.44014 0
M  V30 4332 H 392.668 0.56784 -0.35749 0
M  V30 4333 H 395.212 1.30317 -1.576 0
M  V30 4334 H 393.367 3.72962 -1.04777 0
M  V30 4335 H 393.781 4.13748 -3.22355 0
M  V30 4336 H 395.255 5.19123 -1.87657 0
M  V30 4337 H 395.732 4.37467 -0.389815 0
M  V30 4338 H 396.338 3.77851 -1.95214 0
M  V30 4339 N 394.653 0.992116 1.22453 0
M  V30 4340 C 395.583 0.561677 2.26644 0
M  V30 4341 C 396.564 -0.411055 1.65059 0
M  V30 4342 O 397.749 -0.301861 1.9184 0
M  V30 4343 C 394.879 -0.125247 3.47074 0
M  V30 4344 C 393.833 0.765948 4.21091 0
M  V30 4345 C 393.159 -0.0538484 5.34673 0
M  V30 4346 C 394.459 2.06242 4.79856 0
M  V30 4347 H 396.153 1.43259 2.62902 0
M  V30 4348 H 393.699 0.690283 1.26377 0
M  V30 4349 H 395.652 -0.437764 4.1912 0
M  V30 4350 H 394.376 -1.03069 3.0991 0
M  V30 4351 H 393.035 1.0621 3.50878 0
M  V30 4352 H 392.683 -0.960188 4.9375 0
M  V30 4353 H 392.383 0.539415 5.85119 0
M  V30 4354 H 393.907 -0.360477 6.09535 0
M  V30 4355 H 395.321 1.8139 5.43848 0
M  V30 4356 H 393.718 2.60444 5.40638 0
M  V30 4357 H 394.788 2.74167 3.99951 0
M  V30 4358 N 396.131 -1.37776 0.765217 0
M  V30 4359 C 397.094 -2.28686 0.153416 0
M  V30 4360 C 398.094 -1.47727 -0.635081 0
M  V30 4361 O 399.284 -1.68027 -0.459632 0
M  V30 4362 C 396.416 -3.31608 -0.790495 0
M  V30 4363 H 397.609 -2.84297 0.954723 0
M  V30 4364 H 395.162 -1.46932 0.53299 0
M  V30 4365 H 395.897 -2.81109 -1.61705 0
M  V30 4366 H 395.682 -3.9144 -0.227348 0
M  V30 4367 H 397.172 -3.99559 -1.21419 0
M  V30 4368 N 397.609 -0.515225 -1.4894 0
M  V30 4369 C 398.541 0.292481 -2.27326 0
M  V30 4370 C 399.554 0.917838 -1.3446 0
M  V30 4371 O 400.743 0.798772 -1.5963 0
M  V30 4372 C 397.843 1.42803 -3.07344 0
M  V30 4373 C 397.016 0.907347 -4.27885 0
M  V30 4374 C 396.075 1.92222 -4.89834 0
M  V30 4375 O 395.101 1.48506 -5.49486 0
M  V30 4376 N 396.303 3.25355 -4.80754 0
M  V30 4377 H 399.068 -0.379721 -2.97285 0
M  V30 4378 H 396.629 -0.348638 -1.58102 0
M  V30 4379 H 398.621 2.10481 -3.45658 0
M  V30 4380 H 397.191 2.00414 -2.39902 0
M  V30 4381 H 396.411 0.0550218 -3.94162 0
M  V30 4382 H 397.699 0.538108 -5.05946 0
M  V30 4383 H 397.097 3.6355 -4.33414 0
M  V30 4384 H 395.654 3.88707 -5.23211 0
M  V30 4385 N 399.087 1.5561 -0.249682 0
M  V30 4386 C 399.997 2.25143 0.659375 0
M  V30 4387 C 401.013 1.2685 1.19101 0
M  V30 4388 O 402.189 1.59732 1.22669 0
M  V30 4389 C 399.254 2.93945 1.8384 0
M  V30 4390 C 398.315 4.07655 1.34596 0
M  V30 4391 C 397.548 4.73167 2.46878 0
M  V30 4392 O 397.771 4.37768 3.65671 0
M  V30 4393 O 396.705 5.61623 2.16478 0
M  V30 4394 H 400.531 3.03545 0.0968698 0
M  V30 4395 H 398.116 1.49389 -0.018074 0
M  V30 4396 H 399.998 3.37271 2.52638 0
M  V30 4397 H 398.673 2.18481 2.38847 0
M  V30 4398 H 397.58 3.68839 0.625174 0
M  V30 4399 H 398.913 4.84946 0.841941 0
M  V30 4400 N 400.565 -0.0233959 1.57583 0
M  V30 4401 C 401.495 -1.02162 2.09965 0
M  V30 4402 C 402.476 -1.3735 1.00344 0
M  V30 4403 O 403.661 -1.46135 1.27899 0
M  V30 4404 C 400.791 -2.32081 2.58371 0
M  V30 4405 C 399.745 -2.1112 3.72307 0
M  V30 4406 C 399.071 -3.46848 4.06941 0
M  V30 4407 C 400.371 -1.49276 5.00514 0
M  V30 4408 H 402.065 -0.585557 2.93618 0
M  V30 4409 H 399.611 -0.280218 1.41247 0
M  V30 4410 H 401.564 -3.02249 2.93639 0
M  V30 4411 H 400.288 -2.77758 1.71808 0
M  V30 4412 H 398.947 -1.43384 3.37397 0
M  V30 4413 H 398.595 -3.90184 3.17436 0
M  V30 4414 H 398.295 -3.33646 4.83688 0
M  V30 4415 H 399.819 -4.18369 4.44747 0
M  V30 4416 H 401.233 -2.09368 5.33702 0
M  V30 4417 H 399.63 -1.46632 5.8191 0
M  V30 4418 H 400.7 -0.459217 4.82721 0
M  V30 4419 N 402.043 -1.548 -0.295768 0
M  V30 4420 C 403.29 -1.74329 -1.03032 0
M  V30 4421 C 403.618 -0.531915 -1.87085 0
M  V30 4422 O 402.873 0.486052 -1.89568 0
M  V30 4423 C 403.172 -2.98797 -1.961 0
M  V30 4424 C 402.838 -4.32356 -1.2798 0
M  V30 4425 C 401.5 -4.68661 -1.09135 0
M  V30 4426 C 403.852 -5.15128 -0.793243 0
M  V30 4427 C 401.18 -5.85312 -0.403269 0
M  V30 4428 C 403.532 -6.32488 -0.118854 0
M  V30 4429 C 402.196 -6.6745 0.0815043 0
M  V30 4430 H 401.466 -0.637916 -0.37702 0
M  V30 4431 H 404.113 -1.8906 -0.304696 0
M  V30 4432 H 402.418 -2.78869 -2.75207 0
M  V30 4433 H 404.115 -3.11102 -2.53015 0
M  V30 4434 H 400.705 -4.03808 -1.43655 0
M  V30 4435 H 404.889 -4.87575 -0.92653 0
M  V30 4436 H 400.145 -6.1094 -0.237098 0
M  V30 4437 H 404.319 -6.95892 0.266035 0
M  V30 4438 H 401.946 -7.57695 0.616685 0
M  V30 4439 N 403.521 0.559213 -1.47345 0
M  V30 4440 C 404.746 1.34676 -1.57725 0
M  V30 4441 C 405.171 1.86723 -0.227164 0
M  V30 4442 O 404.529 1.6286 0.796642 0
M  V30 4443 C 404.577 2.49399 -2.60447 0
M  V30 4444 O 403.681 3.51567 -2.15578 0
M  V30 4445 H 403.022 0.400115 -0.52991 0
M  V30 4446 H 405.552 0.676009 -1.93109 0
M  V30 4447 H 405.562 2.95996 -2.80803 0
M  V30 4448 H 404.237 2.10873 -3.58477 0
M  V30 4449 H 402.814 3.11289 -2.05313 0
M  V30 4450 N 404.999 1.35443 0.805782 0
M  V30 4451 C 405.932 1.22783 1.92353 0
M  V30 4452 C 406.91 0.115543 1.62189 0
M  V30 4453 O 408.094 0.283778 1.86352 0
M  V30 4454 C 405.221 0.890746 3.26777 0
M  V30 4455 C 404.267 2.01519 3.75889 0
M  V30 4456 S 405.1 3.63101 3.93596 0
M  V30 4457 C 406.256 3.31472 5.30921 0
M  V30 4458 H 406.489 2.17394 2.02798 0
M  V30 4459 H 404.022 1.20669 0.963245 0
M  V30 4460 H 405.98 0.703068 4.04434 0
M  V30 4461 H 404.641 -0.0373152 3.14078 0
M  V30 4462 H 403.834 1.7335 4.7325 0
M  V30 4463 H 403.436 2.16124 3.05231 0
M  V30 4464 H 405.728 2.8435 6.1494 0
M  V30 4465 H 406.671 4.28036 5.64084 0
M  V30 4466 H 407.079 2.67221 4.97246 0
M  V30 4467 N 406.477 -1.02803 1.19454 0
M  V30 4468 C 407.893 -1.28473 0.946937 0
M  V30 4469 C 408.093 -1.97881 -0.380202 0
M  V30 4470 O 407.149 -2.26719 -1.11151 0
M  V30 4471 C 408.462 -2.13099 2.12154 0
M  V30 4472 C 410.01 -2.26404 2.16126 0
M  V30 4473 C 410.485 -3.14402 3.33039 0
M  V30 4474 N 411.976 -3.21991 3.32981 0
M  V30 4475 C 412.711 -3.90272 4.20089 0
M  V30 4476 N 412.207 -4.60777 5.17355 0
M  V30 4477 N 414 -3.8668 4.07964 0
M  V30 4478 H 406.151 -0.561665 2.04839 0
M  V30 4479 H 408.414 -0.310438 0.89573 0
M  V30 4480 H 408.12 -1.69422 3.08203 0
M  V30 4481 H 407.994 -3.13813 2.09287 0
M  V30 4482 H 410.381 -2.69311 1.20647 0
M  V30 4483 H 410.462 -1.25237 2.23045 0
M  V30 4484 H 410.106 -2.72204 4.28798 0
M  V30 4485 H 410.036 -4.1563 3.23356 0
M  V30 4486 H 412.527 -2.71778 2.62574 0
M  V30 4487 H 412.84 -5.10513 5.80169 0
M  V30 4488 H 411.185 -4.5964 5.21302 0
M  V30 4489 H 414.376 -3.30739 3.31254 0
M  V30 4490 H 414.549 -4.39621 4.76064 0
M  V30 4491 N 407.956 -0.998596 -1.21925 0
M  V30 4492 C 409.181 -0.696015 -1.95372 0
M  V30 4493 C 409.606 0.733826 -1.73195 0
M  V30 4494 O 408.964 1.50242 -1.01474 0
M  V30 4495 C 409.012 -1.01466 -3.4603 0
M  V30 4496 O 408.116 -0.116415 -4.12236 0
M  V30 4497 H 407.457 -0.259938 -0.611006 0
M  V30 4498 H 409.987 -1.33711 -1.54863 0
M  V30 4499 H 409.997 -0.958855 -3.96573 0
M  V30 4500 H 408.672 -2.05653 -3.61497 0
M  V30 4501 H 407.249 -0.228193 -3.72201 0
M  V30 4502 N 409.434 1.37368 -0.772513 0
M  V30 4503 C 410.68 2.00423 -0.3467 0
M  V30 4504 C 411.035 1.60224 1.06518 0
M  V30 4505 O 410.328 0.838712 1.72268 0
M  V30 4506 C 410.522 3.54817 -0.428876 0
M  V30 4507 C 410.351 4.10011 -1.84719 0
M  V30 4508 C 409.121 4.40927 -2.46803 0
M  V30 4509 C 411.319 4.30955 -2.80681 0
M  V30 4510 N 409.301 4.8184 -3.80399 0
M  V30 4511 C 410.672 4.74486 -3.99078 0
M  V30 4512 C 412.727 4.1309 -2.77958 0
M  V30 4513 C 411.43 5.02023 -5.15136 0
M  V30 4514 C 413.456 4.41764 -3.9319 0
M  V30 4515 C 412.818 4.85535 -5.10328 0
M  V30 4516 H 408.917 0.762413 -0.173927 0
M  V30 4517 H 411.501 1.66666 -1.00651 0
M  V30 4518 H 409.672 3.87881 0.200757 0
M  V30 4519 H 411.404 4.04696 0.0190668 0
M  V30 4520 H 408.159 4.30033 -1.98415 0
M  V30 4521 H 408.583 5.06604 -4.49089 0
M  V30 4522 H 413.225 3.7842 -1.88568 0
M  V30 4523 H 410.943 5.35582 -6.05126 0
M  V30 4524 H 414.529 4.29528 -3.92425 0
M  V30 4525 H 413.409 5.07296 -5.98013 0
M  V30 4526 N 410.912 0.523116 1.48665 0
M  V30 4527 C 412.137 -0.0117284 2.07397 0
M  V30 4528 C 412.562 -1.28031 1.37803 0
M  V30 4529 O 411.92 -1.75836 0.441762 0
M  V30 4530 C 411.968 -0.225786 3.59892 0
M  V30 4531 O 411.072 -1.29592 3.91509 0
M  V30 4532 H 410.413 0.0360673 0.66302 0
M  V30 4533 H 412.943 0.729066 1.9117 0
M  V30 4534 H 412.953 -0.450552 4.05505 0
M  V30 4535 H 411.628 0.700944 4.09951 0
M  V30 4536 H 410.205 -1.05436 3.57684 0
M  V30 4537 N 412.39 -1.55475 0.257931 0
M  V30 4538 C 413.667 -1.91155 -0.414629 0
M  V30 4539 C 414.047 -1.18008 -1.75035 0
M  V30 4540 O 413.395 -0.301193 -2.26506 0
M  V30 4541 C 413.605 -3.44283 -0.571859 0
M  V30 4542 C 414.953 -4.15744 -0.862678 0
M  V30 4543 O 415.977 -3.50083 -0.657314 0
M  V30 4544 O 414.836 -5.31909 -1.2544 0
M  V30 4545 H 411.93 -0.796016 -0.22425 0
M  V30 4546 H 414.476 -1.66976 0.302814 0
M  V30 4547 H 413.248 -3.89558 0.368844 0
M  V30 4548 H 412.871 -3.7436 -1.33943 0
M  V30 4549 N 413.868 0.0150385 -1.57593 0
M  V30 4550 C 414.801 1.04475 -2.0288 0
M  V30 4551 C 415.779 1.3436 -0.915764 0
M  V30 4552 O 416.963 1.46779 -1.18271 0
M  V30 4553 C 414.09 2.37608 -2.41371 0
M  V30 4554 C 413.136 2.23487 -3.63257 0
M  V30 4555 S 413.969 1.57505 -5.11813 0
M  V30 4556 C 415.125 2.921 -5.5356 0
M  V30 4557 H 415.358 0.65907 -2.89903 0
M  V30 4558 H 412.891 0.225452 -1.52745 0
M  V30 4559 H 414.849 3.14165 -2.64217 0
M  V30 4560 H 413.51 2.7332 -1.54775 0
M  V30 4561 H 412.703 3.21802 -3.87891 0
M  V30 4562 H 412.305 1.55074 -3.40335 0
M  V30 4563 H 414.597 3.88419 -5.55101 0
M  V30 4564 H 415.54 2.72184 -6.53698 0
M  V30 4565 H 415.948 2.95318 -4.8109 0
M  V30 4566 N 415.346 1.54954 0.287554 0
M  V30 4567 C 416.762 1.46469 0.633964 0
M  V30 4568 C 416.962 0.666865 1.90145 0
M  V30 4569 O 416.018 0.179906 2.51858 0
M  V30 4570 C 417.331 2.90556 0.774454 0
M  V30 4571 C 418.879 3.00681 0.869462 0
M  V30 4572 C 419.354 4.45993 1.04184 0
M  V30 4573 N 420.845 4.4976 1.10772 0
M  V30 4574 C 421.58 5.59393 1.25964 0
M  V30 4575 N 421.076 6.78923 1.37968 0
M  V30 4576 N 422.869 5.47107 1.28959 0
M  V30 4577 H 415.02 2.05288 -0.545041 0
M  V30 4578 H 417.283 0.930305 -0.182308 0
M  V30 4579 H 416.989 3.51594 -0.086207 0
M  V30 4580 H 416.863 3.38743 1.6593 0
M  V30 4581 H 419.25 2.39749 1.7206 0
M  V30 4582 H 419.331 2.55769 -0.0396831 0
M  V30 4583 H 418.975 5.07524 0.195422 0
M  V30 4584 H 418.905 4.88548 1.96542 0
M  V30 4585 H 421.396 3.63651 1.02794 0
M  V30 4586 H 421.709 7.58231 1.49353 0
M  V30 4587 H 420.054 6.81763 1.34999 0
M  V30 4588 H 423.245 4.52668 1.19202 0
M  V30 4589 H 423.418 6.32595 1.40455 0
M  V30 4590 N 416.824 -0.551391 1.4764 0
M  V30 4591 C 417.756 -1.67333 1.56628 0
M  V30 4592 C 418.769 -1.56398 0.452045 0
M  V30 4593 O 419.958 -1.6325 0.721926 0
M  V30 4594 C 417.058 -3.05841 1.45994 0
M  V30 4595 C 416.231 -3.42472 2.72088 0
M  V30 4596 C 415.29 -4.60168 2.55209 0
M  V30 4597 O 414.316 -4.64458 3.2904 0
M  V30 4598 N 415.518 -5.57024 1.63416 0
M  V30 4599 H 418.283 -1.60066 2.53375 0
M  V30 4600 H 415.844 -0.738169 1.44093 0
M  V30 4601 H 417.836 -3.8242 1.32428 0
M  V30 4602 H 416.406 -3.07302 0.573071 0
M  V30 4603 H 415.626 -2.55284 3.00373 0
M  V30 4604 H 416.914 -3.63723 3.55785 0
M  V30 4605 H 416.312 -5.56319 1.02594 0
M  V30 4606 H 414.869 -6.32906 1.558 0
M  V30 4607 N 418.302 -1.35869 -0.798587 0
M  V30 4608 C 419.212 -1.31578 -1.94228 0
M  V30 4609 C 420.228 -0.21939 -1.72611 0
M  V30 4610 O 421.404 -0.450167 -1.96305 0
M  V30 4611 C 418.469 -1.09528 -3.28944 0
M  V30 4612 C 417.53 -2.28556 -3.63402 0
M  V30 4613 C 416.763 -2.07549 -4.9169 0
M  V30 4614 O 416.986 -1.046 -5.60727 0
M  V30 4615 O 415.92 -2.95106 -5.24591 0
M  V30 4616 H 419.746 -2.27847 -2.00796 0
M  V30 4617 H 417.331 -1.16322 -0.937526 0
M  V30 4618 H 419.213 -0.991127 -4.09579 0
M  V30 4619 H 417.888 -0.16315 -3.23289 0
M  V30 4620 H 416.795 -2.44538 -2.83112 0
M  V30 4621 H 418.128 -3.20244 -3.73771 0
M  V30 4622 N 419.78 1.02168 -1.19998 0
M  V30 4623 C 421.026 1.75945 -1.00852 0
M  V30 4624 C 421.359 1.88702 0.458828 0
M  V30 4625 O 420.634 1.40911 1.34069 0
M  V30 4626 C 420.917 3.18154 -1.68671 0
M  V30 4627 C 420.77 3.13224 -3.22817 0
M  V30 4628 C 422.089 4.16711 -1.41561 0
M  V30 4629 H 419.208 0.638673 -0.367785 0
M  V30 4630 H 421.85 1.19222 -1.4794 0
M  V30 4631 H 420 3.66586 -1.28636 0
M  V30 4632 H 421.672 2.72635 -3.72112 0
M  V30 4633 H 419.915 2.50751 -3.53986 0
M  V30 4634 H 420.586 4.13728 -3.65422 0
M  V30 4635 H 423.062 3.76913 -1.76284 0
M  V30 4636 H 421.938 5.14391 -1.91553 0
M  V30 4637 H 422.199 4.40774 -0.342193 0
M  V30 4638 N 421.258 1.00505 1.21394 0
M  V30 4639 C 422.191 0.51032 2.22421 0
M  V30 4640 C 423.169 -0.436 1.56645 0
M  V30 4641 O 424.353 -0.358709 1.85055 0
M  V30 4642 C 421.48 -0.258733 3.3771 0
M  V30 4643 C 420.526 0.635395 4.2174 0
M  V30 4644 S 421.359 2.09783 4.92698 0
M  V30 4645 C 422.515 1.33862 6.11418 0
M  V30 4646 H 422.748 1.36637 2.64041 0
M  V30 4647 H 420.281 0.812991 1.31262 0
M  V30 4648 H 422.239 -0.696372 4.0455 0
M  V30 4649 H 420.9 -1.0902 2.94573 0
M  V30 4650 H 420.093 0.0430189 5.03982 0
M  V30 4651 H 419.695 1.01031 3.60095 0
M  V30 4652 H 421.987 0.612541 6.74725 0
M  V30 4653 H 422.93 2.13675 6.75092 0
M  V30 4654 H 423.338 0.846568 5.58116 0
M  V30 4655 N 422.737 -1.36956 0.779787 0
M  V30 4656 C 423.984 -1.99491 0.347766 0
M  V30 4657 C 424.312 -1.61898 -1.07793 0
M  V30 4658 O 423.567 -0.86071 -1.75756 0
M  V30 4659 C 423.866 -3.54585 0.447686 0
M  V30 4660 C 423.532 -4.1197 1.83279 0
M  V30 4661 C 422.194 -4.27356 2.2118 0
M  V30 4662 C 424.546 -4.43354 2.74019 0
M  V30 4663 C 421.874 -4.71432 3.4924 0
M  V30 4664 C 424.226 -4.88858 4.01497 0
M  V30 4665 C 422.89 -5.0245 4.39432 0
M  V30 4666 H 422.16 -0.729991 0.127257 0
M  V30 4667 H 424.807 -1.63599 0.995376 0
M  V30 4668 H 423.112 -3.90773 -0.283447 0
M  V30 4669 H 424.809 -4.00888 0.0945948 0
M  V30 4670 H 421.399 -4.00428 1.52825 0
M  V30 4671 H 425.583 -4.31045 2.45995 0
M  V30 4672 H 420.839 -4.80141 3.78516 0
M  V30 4673 H 425.013 -5.12108 4.71931 0
M  V30 4674 H 422.64 -5.36362 5.38721 0
M  V30 4675 N 424.215 -0.530993 -1.48385 0
M  V30 4676 C 425.145 0.219985 -2.32461 0
M  V30 4677 C 426.126 0.934111 -1.42156 0
M  V30 4678 O 427.311 0.919694 -1.71042 0
M  V30 4679 C 424.441 1.26674 -3.23375 0
M  V30 4680 C 423.395 0.67069 -4.22712 0
M  V30 4681 C 422.721 1.82017 -5.02766 0
M  V30 4682 C 424.021 -0.358268 -5.2107 0
M  V30 4683 H 425.715 -0.48187 -2.95497 0
M  V30 4684 H 423.261 -0.233182 -1.42099 0
M  V30 4685 H 425.214 1.80006 -3.81019 0
M  V30 4686 H 423.938 1.99818 -2.58341 0
M  V30 4687 H 422.597 0.158878 -3.66256 0
M  V30 4688 H 422.245 2.54002 -4.34157 0
M  V30 4689 H 421.945 1.42727 -5.70003 0
M  V30 4690 H 423.469 2.35725 -5.63264 0
M  V30 4691 H 424.883 0.0880081 -5.73232 0
M  V30 4692 H 423.28 -0.66861 -5.96364 0
M  V30 4693 H 424.35 -1.26367 -4.68145 0
M  V30 4694 N 425.693 1.55336 -0.266172 0
M  V30 4695 C 426.921 2.03801 0.356756 0
M  V30 4696 C 427.336 1.14485 1.50129 0
M  V30 4697 O 426.693 0.163121 1.8177 0
M  V30 4698 C 426.744 3.51455 0.846281 0
M  V30 4699 O 426.465 4.37371 -0.252663 0
M  V30 4700 C 427.966 4.15767 1.53794 0
M  V30 4701 H 425.186 0.665906 0.0825218 0
M  V30 4702 H 427.73 2.00636 -0.39566 0
M  V30 4703 H 425.885 3.55092 1.54881 0
M  V30 4704 H 426.299 5.24358 0.122173 0
M  V30 4705 H 427.773 5.20714 1.83198 0
M  V30 4706 H 428.25 3.63404 2.46646 0
M  V30 4707 H 428.856 4.16107 0.879488 0
M  V30 4708 N 427.171 -0.0066808 1.57599 0
M  V30 4709 C 428.119 -1.01851 2.09115 0
M  V30 4710 C 429.113 -1.36021 1.00969 0
M  V30 4711 O 430.319 -1.34663 1.19439 0
M  V30 4712 H 426.694 -0.346083 0.667631 0
M  V30 4713 H 428.665 -0.558394 2.93129 0
M  V30 4714 C 427.414 -2.30374 2.60429 0
M  V30 4715 H 426.737 -2.04947 3.43273 0
M  V30 4716 H 428.177 -2.99466 3.00161 0
M  V30 4717 C 426.636 -3.00893 1.51542 0
M  V30 4718 O 427.166 -3.91614 0.894484 0
M  V30 4719 N 425.372 -2.62603 1.2445 0
M  V30 4720 H 424.919 -1.88911 1.75129 0
M  V30 4721 H 424.877 -3.10101 0.518137 0
M  V30 4722 N 428.649 -1.55105 -0.279332 0
M  V30 4723 C 429.895 -1.75672 -1.01327 0
M  V30 4724 C 430.228 -0.552739 -1.86168 0
M  V30 4725 O 429.503 0.449827 -1.89227 0
M  V30 4726 C 429.786 -3.05825 -1.90114 0
M  V30 4727 C 429.639 -4.36565 -1.08309 0
M  V30 4728 C 430.958 -3.31975 -2.8893 0
M  V30 4729 H 428.077 -0.639149 -0.366957 0
M  V30 4730 H 430.719 -1.87833 -0.286154 0
M  V30 4731 H 428.869 -2.95588 -2.52111 0
M  V30 4732 H 430.541 -4.58751 -0.484314 0
M  V30 4733 H 428.784 -4.32076 -0.386362 0
M  V30 4734 H 429.455 -5.23946 -1.73737 0
M  V30 4735 H 431.931 -3.41963 -2.37067 0
M  V30 4736 H 430.807 -4.2432 -3.48201 0
M  V30 4737 H 431.068 -2.51309 -3.63725 0
M  V30 4738 N 430.127 0.543554 -1.4793 0
M  V30 4739 C 431.075 1.67039 -1.61866 0
M  V30 4740 C 432.069 1.62294 -0.48549 0
M  V30 4741 O 433.275 1.67315 -0.66376 0
M  V30 4742 H 429.65 0.552954 -0.509652 0
M  V30 4743 H 431.621 1.52426 -2.56533 0
M  V30 4744 C 430.37 3.05357 -1.6629 0
M  V30 4745 H 429.693 3.09696 -2.5284 0
M  V30 4746 H 431.133 3.83855 -1.80088 0
M  V30 4747 C 429.592 3.34531 -0.398861 0
M  V30 4748 O 430.122 3.98649 0.494162 0
M  V30 4749 N 428.328 2.89299 -0.2747 0
M  V30 4750 H 427.875 2.37298 -1.00236 0
M  V30 4751 H 427.833 3.09188 0.570075 0
M  V30 4752 N 431.605 1.3629 0.791371 0
M  V30 4753 C 432.83 1.33726 1.58531 0
M  V30 4754 C 433.255 -0.0794933 1.87932 0
M  V30 4755 O 432.613 -1.05087 1.47738 0
M  V30 4756 C 432.661 2.16425 2.88431 0
M  V30 4757 O 431.765 1.5554 3.81944 0
M  V30 4758 H 431.106 0.457793 0.480959 0
M  V30 4759 H 433.636 1.79547 0.981031 0
M  V30 4760 H 433.646 2.28933 3.37718 0
M  V30 4761 H 432.321 3.19415 2.66359 0
M  V30 4762 H 430.898 1.51961 3.40532 0
M  V30 4763 N 433.083 -1.0153 1.20538 0
M  V30 4764 C 434.308 -1.79283 1.04271 0
M  V30 4765 C 434.733 -1.8372 -0.403544 0
M  V30 4766 O 434.091 -1.27321 -1.2907 0
M  V30 4767 C 434.139 -3.21535 1.63241 0
M  V30 4768 O 433.243 -4.03099 0.870908 0
M  V30 4769 H 432.584 -0.55293 0.367647 0
M  V30 4770 H 435.114 -1.27696 1.59859 0
M  V30 4771 H 435.124 -3.72243 1.6703 0
M  V30 4772 H 433.799 -3.1762 2.68497 0
M  V30 4773 H 432.376 -3.61693 0.907323 0
M  V30 4774 N 434.561 -1.01147 -1.20859 0
M  V30 4775 C 435.786 -0.716698 -1.94623 0
M  V30 4776 C 436.211 0.715415 -1.73964 0
M  V30 4777 O 435.569 1.49157 -1.03062 0
M  V30 4778 C 435.617 -1.0513 -3.44935 0
M  V30 4779 O 434.721 -0.160131 -4.12089 0
M  V30 4780 H 434.062 -0.266404 -0.608214 0
M  V30 4781 H 436.592 -1.35346 -1.53436 0
M  V30 4782 H 436.602 -1.00086 -3.95533 0
M  V30 4783 H 435.277 -2.09475 -3.59295 0
M  V30 4784 H 433.854 -0.267657 -3.71938 0
M  V30 4785 N 436.039 1.36541 -0.78704 0
M  V30 4786 C 437.264 2.0409 -0.369053 0
M  V30 4787 C 437.689 1.58957 1.00569 0
M  V30 4788 O 437.047 0.756926 1.64743 0
M  V30 4789 C 437.095 3.57924 -0.438466 0
M  V30 4790 O 436.199 4.08642 0.555479 0
M  V30 4791 H 435.54 0.645142 -0.157122 0
M  V30 4792 H 438.07 1.74545 -1.06749 0
M  V30 4793 H 438.08 4.06887 -0.301218 0
M  V30 4794 H 436.755 3.90127 -1.44132 0
M  V30 4795 H 435.332 3.70958 0.380088 0
M  V30 4796 N 437.518 0.538854 1.48102 0
M  V30 4797 C 438.743 0.0102694 2.07397 0
M  V30 4798 C 439.168 -1.26562 1.39153 0
M  V30 4799 O 438.526 -1.75357 0.460387 0
M  V30 4800 C 438.574 -0.187602 3.60112 0
M  V30 4801 O 437.678 -1.25432 3.92862 0
M  V30 4802 H 437.019 0.0430975 0.6626 0
M  V30 4803 H 439.549 0.749301 1.90385 0
M  V30 4804 H 439.559 -0.407517 4.0596 0
M  V30 4805 H 438.234 0.744386 4.09184 0
M  V30 4806 H 436.811 -1.01636 3.58782 0
M  V30 4807 N 438.996 -1.55193 0.274407 0
M  V30 4808 C 440.224 -2.03987 -0.345943 0
M  V30 4809 C 440.639 -1.15279 -1.4952 0
M  V30 4810 O 439.996 -0.172759 -1.8168 0
M  V30 4811 C 440.047 -3.51898 -0.827631 0
M  V30 4812 O 439.768 -4.37231 0.275855 0
M  V30 4813 C 441.269 -4.16577 -1.51587 0
M  V30 4814 H 438.489 -0.666335 -0.0789892 0
M  V30 4815 H 441.033 -2.00423 0.406294 0
M  V30 4816 H 439.188 -3.55909 -1.52996 0
M  V30 4817 H 439.602 -5.24415 -0.0943638 0
M  V30 4818 H 441.076 -5.21678 -1.80433 0
M  V30 4819 H 441.553 -3.64707 -2.44716 0
M  V30 4820 H 442.159 -4.16568 -0.857409 0
M  V30 4821 N 440.474 -0.00167713 -1.576 0
M  V30 4822 C 441.406 1.0174 -2.05382 0
M  V30 4823 C 442.419 1.30595 -0.972052 0
M  V30 4824 O 443.608 1.27542 -1.24882 0
M  V30 4825 C 440.708 2.35174 -2.44022 0
M  V30 4826 C 439.881 2.25234 -3.74951 0
M  V30 4827 C 438.94 3.4137 -4.00441 0
M  V30 4828 O 437.966 3.19483 -4.71083 0
M  V30 4829 N 439.168 4.64275 -3.48467 0
M  V30 4830 H 441.933 0.609902 -2.93428 0
M  V30 4831 H 439.494 0.185672 -1.60832 0
M  V30 4832 H 441.486 3.11643 -2.58187 0
M  V30 4833 H 440.056 2.67659 -1.61485 0
M  V30 4834 H 439.276 1.33664 -3.70847 0
M  V30 4835 H 440.564 2.15767 -4.60784 0
M  V30 4836 H 439.962 4.84955 -2.91264 0
M  V30 4837 H 438.519 5.38005 -3.67959 0
M  V30 4838 N 441.952 1.55251 0.271103 0
M  V30 4839 C 443.201 1.75151 1.00025 0
M  V30 4840 C 443.514 0.561041 1.87381 0
M  V30 4841 O 444.72 0.642506 2.63788 0
M  V30 4842 C 443.176 3.09999 1.82835 0
M  V30 4843 C 442.784 4.3662 1.00336 0
M  V30 4844 C 444.528 3.39249 2.55168 0
M  V30 4845 C 442.435 5.62506 1.82595 0
M  V30 4846 H 441.365 0.652877 0.377183 0
M  V30 4847 H 444.016 1.81708 0.255843 0
M  V30 4848 H 442.398 2.97485 2.61378 0
M  V30 4849 H 443.572 4.60055 0.261959 0
M  V30 4850 H 441.887 4.14527 0.394486 0
M  V30 4851 H 444.484 4.3051 3.1712 0
M  V30 4852 H 444.827 2.59467 3.2555 0
M  V30 4853 H 445.36 3.52869 1.83653 0
M  V30 4854 H 442.099 6.45041 1.16631 0
M  V30 4855 H 441.619 5.43211 2.54327 0
M  V30 4856 H 443.298 6.00875 2.39913 0
M  V30 4857 N 443.43 -0.535701 1.48216 0
M  V30 4858 C 444.66 -1.3148 1.59363 0
M  V30 4859 C 445.068 -1.8753 0.250844 0
M  V30 4860 O 444.411 -1.66821 -0.769174 0
M  V30 4861 C 444.473 -2.50731 2.57632 0
M  V30 4862 C 444.137 -2.15811 4.02833 0
M  V30 4863 C 445.134 -1.71822 4.90686 0
M  V30 4864 C 442.819 -2.26509 4.48329 0
M  V30 4865 C 444.813 -1.3899 6.22062 0
M  V30 4866 C 442.5 -1.93289 5.79726 0
M  V30 4867 C 443.498 -1.49599 6.66415 0
M  V30 4868 O 443.186 -1.16812 7.95368 0
M  V30 4869 H 442.918 -0.406315 0.540263 0
M  V30 4870 H 445.472 -0.653569 1.94725 0
M  V30 4871 H 443.702 -3.19817 2.1738 0
M  V30 4872 H 445.391 -3.12797 2.58675 0
M  V30 4873 H 446.157 -1.63031 4.56778 0
M  V30 4874 H 442.036 -2.59471 3.81045 0
M  V30 4875 H 445.58 -1.04816 6.89681 0
M  V30 4876 H 441.477 -2.01718 6.13172 0
M  V30 4877 H 442.245 -1.30259 8.08069 0
M  V30 4878 N 444.908 -1.36708 -0.784132 0
M  V30 4879 C 445.84 -1.27333 -1.90575 0
M  V30 4880 C 446.853 -0.191706 -1.61667 0
M  V30 4881 O 448.042 -0.446854 -1.72816 0
M  V30 4882 C 445.142 -0.943177 -3.25511 0
M  V30 4883 C 444.315 -2.12776 -3.82158 0
M  V30 4884 C 443.374 -1.76983 -4.95544 0
M  V30 4885 O 442.4 -2.49134 -5.11782 0
M  V30 4886 N 443.602 -0.706624 -5.76183 0
M  V30 4887 H 446.367 -2.23974 -1.99138 0
M  V30 4888 H 443.928 -1.30171 -0.962656 0
M  V30 4889 H 445.92 -0.684799 -3.98864 0
M  V30 4890 H 444.49 -0.0657333 -3.12531 0
M  V30 4891 H 443.71 -2.54863 -3.0073 0
M  V30 4892 H 444.998 -2.91904 -4.16737 0
M  V30 4893 H 444.396 -0.107643 -5.65598 0
M  V30 4894 H 442.953 -0.50808 -6.49817 0
M  V30 4895 N 446.386 1.0089 -1.21074 0
M  V30 4896 C 447.349 2.0775 -0.968129 0
M  V30 4897 C 448.349 1.6069 0.0593445 0
M  V30 4898 O 449.539 1.73293 -0.177525 0
M  V30 4899 C 446.671 3.37794 -0.459108 0
M  V30 4900 H 447.864 2.30707 -1.9161 0
M  V30 4901 H 445.417 1.17807 -1.02719 0
M  V30 4902 H 446.152 3.20516 0.49397 0
M  V30 4903 H 445.937 3.7328 -1.20019 0
M  V30 4904 H 447.427 4.16454 -0.309099 0
M  V30 4905 N 447.864 1.01787 1.20321 0
M  V30 4906 C 449.11 0.708985 1.90003 0
M  V30 4907 C 449.443 -0.759572 1.78729 0
M  V30 4908 O 448.718 -1.55198 1.17234 0
M  V30 4909 C 449.001 1.1469 3.41348 0
M  V30 4910 C 448.854 2.67586 3.61549 0
M  V30 4911 C 450.173 0.71915 4.34185 0
M  V30 4912 H 447.292 0.259034 0.689978 0
M  V30 4913 H 449.934 1.26584 1.41692 0
M  V30 4914 H 448.084 0.673128 3.82624 0
M  V30 4915 H 449.756 3.22826 3.29517 0
M  V30 4916 H 447.999 3.085 3.04976 0
M  V30 4917 H 448.67 2.93281 4.67643 0
M  V30 4918 H 451.146 1.12647 4.00562 0
M  V30 4919 H 450.022 1.05358 5.38694 0
M  V30 4920 H 450.283 -0.379111 4.40472 0
M  V30 4921 N 449.342 -1.36122 0.79427 0
M  V30 4922 C 450.567 -2.03891 0.379871 0
M  V30 4923 C 450.992 -1.59488 -0.997251 0
M  V30 4924 O 450.35 -0.765652 -1.64339 0
M  V30 4925 C 450.398 -3.57687 0.457442 0
M  V30 4926 O 449.502 -4.08931 -0.5338 0
M  V30 4927 H 448.843 -0.6443 0.160541 0
M  V30 4928 H 451.373 -1.73976 1.07673 0
M  V30 4929 H 451.383 -4.06721 0.322792 0
M  V30 4930 H 450.058 -3.89357 1.46199 0
M  V30 4931 H 448.635 -3.71154 -0.360409 0
M  V30 4932 N 450.82 -0.546701 -1.47814 0
M  V30 4933 C 452.236 -0.205717 -1.58269 0
M  V30 4934 C 452.436 1.29153 -1.54667 0
M  V30 4935 O 451.492 2.07098 -1.44453 0
M  V30 4936 C 452.805 -0.823065 -2.89216 0
M  V30 4937 C 454.353 -0.793328 -3.02779 0
M  V30 4938 C 454.828 -1.38955 -4.36412 0
M  V30 4939 N 456.319 -1.35227 -4.43021 0
M  V30 4940 C 457.054 -1.78333 -5.44963 0
M  V30 4941 N 456.55 -2.29246 -6.53772 0
M  V30 4942 N 458.343 -1.69467 -5.35945 0
M  V30 4943 H 450.494 -1.5196 -1.48398 0
M  V30 4944 H 452.757 -0.633078 -0.705632 0
M  V30 4945 H 452.463 -1.8749 -2.97558 0
M  V30 4946 H 452.337 -0.309915 -3.75925 0
M  V30 4947 H 454.724 0.249784 -2.94041 0
M  V30 4948 H 454.805 -1.34412 -2.17639 0
M  V30 4949 H 454.449 -2.43168 -4.45906 0
M  V30 4950 H 454.379 -0.814291 -5.20266 0
M  V30 4951 H 456.87 -0.979739 -3.64979 0
M  V30 4952 H 457.183 -2.60089 -7.27718 0
M  V30 4953 H 455.528 -2.3325 -6.5469 0
M  V30 4954 H 458.719 -1.29477 -4.49837 0
M  V30 4955 H 458.892 -2.03381 -6.15256 0
M  V30 4956 N 452.299 1.55045 -0.282633 0
M  V30 4957 C 453.548 1.98938 0.332667 0
M  V30 4958 C 453.861 1.17455 1.56409 0
M  V30 4959 O 455.067 1.51527 2.25282 0
M  V30 4960 C 453.523 3.54105 0.643226 0
M  V30 4961 C 453.131 4.44374 -0.568814 0
M  V30 4962 C 454.875 4.06569 1.22074 0
M  V30 4963 C 452.782 5.90943 -0.232426 0
M  V30 4964 H 451.712 0.743043 0.128075 0
M  V30 4965 H 454.363 1.79341 -0.388464 0
M  V30 4966 H 452.745 3.69532 1.42346 0
M  V30 4967 H 453.919 4.40718 -1.34551 0
M  V30 4968 H 452.234 4.02585 -1.06369 0
M  V30 4969 H 454.831 5.13626 1.48635 0
M  V30 4970 H 455.174 3.56057 2.15707 0
M  V30 4971 H 455.707 3.94612 0.502621 0
M  V30 4972 H 452.446 6.45567 -1.13683 0
M  V30 4973 H 451.966 5.9765 0.507357 0
M  V30 4974 H 453.645 6.4677 0.172657 0
M  V30 4975 N 453.777 0.010035 1.57597 0
M  V30 4976 C 455.023 -0.673697 1.91283 0
M  V30 4977 C 455.356 -1.72863 0.884979 0
M  V30 4978 O 454.631 -1.94268 -0.0949487 0
M  V30 4979 C 454.914 -1.30766 3.35518 0
M  V30 4980 C 454.767 -0.263578 4.49027 0
M  V30 4981 C 456.086 -2.23105 3.79358 0
M  V30 4982 H 453.205 -0.243439 0.695634 0
M  V30 4983 H 455.847 0.0633864 1.89894 0
M  V30 4984 H 453.997 -1.93588 3.36832 0
M  V30 4985 H 455.669 0.365738 4.59848 0
M  V30 4986 H 453.912 0.413077 4.31829 0
M  V30 4987 H 454.583 -0.746398 5.4693 0
M  V30 4988 H 457.059 -1.70289 3.79659 0
M  V30 4989 H 455.935 -2.64424 4.81011 0
M  V30 4990 H 456.196 -3.11433 3.13787 0
M  V30 4991 N 455.255 -1.55392 -0.262866 0
M  V30 4992 C 456.495 -1.78231 -1.00064 0
M  V30 4993 C 456.859 -0.576966 -1.83126 0
M  V30 4994 O 458.06 -0.683809 -2.59957 0
M  V30 4995 C 456.331 -3.05701 -1.85153 0
M  V30 4996 S 457.89 -3.49699 -2.65058 0
M  V30 4997 H 454.708 -0.626138 -0.336856 0
M  V30 4998 H 457.31 -1.93626 -0.27005 0
M  V30 4999 H 456.014 -3.91511 -1.23074 0
M  V30 5000 H 455.545 -2.93 -2.62515 0
M  V30 5001 H 457.56 -3.09772 -3.87629 0
M  V30 5002 N 456.733 0.527833 -1.48498 0
M  V30 5003 C 457.981 1.28101 -1.56316 0
M  V30 5004 C 458.302 1.9352 -0.239781 0
M  V30 5005 O 457.572 1.81433 0.738849 0
M  V30 5006 H 456.152 0.475793 -0.575873 0
M  V30 5007 H 458.814 0.614052 -1.84974 0
M  V30 5008 H 457.91 2.05916 -2.34532 0
M  V30 5009 N 458.211 1.37122 0.776871 0
M  V30 5010 C 459.161 1.28989 1.88005 0
M  V30 5011 C 460.145 0.178765 1.59904 0
M  V30 5012 O 461.337 0.412705 1.72121 0
M  V30 5013 C 458.466 1.09402 3.25402 0
M  V30 5014 C 457.552 2.25036 3.59471 0
M  V30 5015 N 457.943 3.50407 3.64759 0
M  V30 5016 C 456.241 2.17078 3.89607 0
M  V30 5017 C 456.942 4.26628 3.95428 0
M  V30 5018 N 455.918 3.55709 4.11062 0
M  V30 5019 H 459.72 2.2394 1.90337 0
M  V30 5020 H 457.234 1.30021 0.973052 0
M  V30 5021 H 459.231 1.01661 4.04315 0
M  V30 5022 H 457.891 0.153632 3.24336 0
M  V30 5023 H 458.902 3.8438 3.47091 0
M  V30 5024 H 455.579 1.31067 3.96393 0
M  V30 5025 H 456.969 5.35107 4.06338 0
M  V30 5026 N 459.689 -1.00246 1.21608 0
M  V30 5027 C 461.1 -1.55511 1.03312 0
M  V30 5028 C 461.451 -1.91946 -0.406332 0
M  V30 5029 O 460.576 -1.73753 -1.28992 0
M  V30 5030 C 461.171 -2.82576 1.86913 0
M  V30 5031 C 459.73 -3.34318 1.72941 0
M  V30 5032 C 458.877 -2.07487 1.83968 0
M  V30 5033 H 461.828 -0.824638 1.35593 0
M  V30 5034 H 461.849 -3.54559 1.38087 0
M  V30 5035 H 461.361 -2.56026 2.91672 0
M  V30 5036 H 459.462 -3.65797 0.70877 0
M  V30 5037 H 459.575 -4.05566 2.55055 0
M  V30 5038 H 457.939 -2.20603 1.27304 0
M  V30 5039 H 458.722 -1.83346 2.9024 0
M  V30 5040 N 461.167 -1.02423 -1.1978 0
M  V30 5041 C 462.077 -0.610919 -2.26506 0
M  V30 5042 C 463.093 0.355152 -1.70337 0
M  V30 5043 O 464.269 0.214195 -2.00258 0
M  V30 5044 C 461.334 0.0365921 -3.46681 0
M  V30 5045 C 460.395 -0.976389 -4.18049 0
M  V30 5046 C 459.628 -0.359683 -5.32487 0
M  V30 5047 O 459.851 0.838601 -5.64202 0
M  V30 5048 O 458.785 -1.08022 -5.92127 0
M  V30 5049 H 462.611 -1.49965 -2.64091 0
M  V30 5050 H 460.196 -0.794156 -1.26545 0
M  V30 5051 H 462.078 0.39786 -4.19518 0
M  V30 5052 H 460.753 0.899398 -3.10954 0
M  V30 5053 H 459.66 -1.38916 -3.47352 0
M  V30 5054 H 460.993 -1.80941 -4.57735 0
M  V30 5055 N 462.645 1.35699 -0.801477 0
M  V30 5056 C 463.893 1.9852 -0.37871 0
M  V30 5057 C 464.214 1.63907 1.05638 0
M  V30 5058 O 463.484 0.919013 1.73006 0
M  V30 5059 H 462.064 0.734322 -0.137042 0
M  V30 5060 H 464.726 1.65697 -1.02619 0
M  V30 5061 H 463.822 3.08382 -0.480284 0
M  V30 5062 N 464.123 0.554532 1.47522 0
M  V30 5063 C 465.371 0.0294208 2.02079 0
M  V30 5064 C 465.692 -1.32411 1.43151 0
M  V30 5065 O 464.962 -1.863 0.605728 0
M  V30 5066 H 463.542 0.00788672 0.746958 0
M  V30 5067 H 466.204 0.723934 1.80956 0
M  V30 5068 H 465.3 -0.0606745 3.12041 0
M  V30 5069 N 465.601 -1.54893 0.290851 0
M  V30 5070 C 466.849 -1.99538 -0.320756 0
M  V30 5071 C 467.17 -1.18075 -1.55188 0
M  V30 5072 O 466.44 -0.274162 -1.93972 0
M  V30 5073 H 465.02 -0.737052 -0.121507 0
M  V30 5074 H 467.682 -1.90755 0.399832 0
M  V30 5075 H 466.778 -3.06282 -0.599802 0
M  V30 5076 N 467.08 -0.0183926 -1.57589 0
M  V30 5077 C 468.01 0.965596 -2.12599 0
M  V30 5078 C 468.991 1.34641 -1.0395 0
M  V30 5079 O 470.176 1.42693 -1.31729 0
M  V30 5080 C 467.306 2.25149 -2.64434 0
M  V30 5081 C 466.26 2.01175 -3.77773 0
M  V30 5082 C 465.586 3.35937 -4.15994 0
M  V30 5083 C 466.886 1.35953 -5.04296 0
M  V30 5084 H 468.58 0.507504 -2.95067 0
M  V30 5085 H 466.126 0.242671 -1.41941 0
M  V30 5086 H 468.079 2.94357 -3.01549 0
M  V30 5087 H 466.803 2.73105 -1.79112 0
M  V30 5088 H 465.462 1.34388 -3.4108 0
M  V30 5089 H 465.11 3.81631 -3.27669 0
M  V30 5090 H 464.81 3.20705 -4.92364 0
M  V30 5091 H 466.334 4.0643 -4.55683 0
M  V30 5092 H 467.748 1.95144 -5.39065 0
M  V30 5093 H 466.145 1.31152 -5.85593 0
M  V30 5094 H 467.215 0.331071 -4.83768 0
M  V30 5095 N 468.558 1.5553 0.254621 0
M  V30 5096 C 469.505 1.89666 1.31512 0
M  V30 5097 C 470.475 0.750057 1.482 0
M  V30 5098 O 471.66 1.00301 1.62309 0
M  V30 5099 C 468.8 2.19009 2.667 0
M  V30 5100 C 467.913 3.46435 2.58083 0
M  V30 5101 C 467.048 3.65386 3.85573 0
M  V30 5102 C 466.087 4.8644 3.71541 0
M  V30 5103 N 465.224 5.01952 4.90906 0
M  V30 5104 H 470.064 2.80109 1.017 0
M  V30 5105 H 467.601 1.38666 0.490938 0
M  V30 5106 H 469.559 2.34025 3.45381 0
M  V30 5107 H 468.189 1.31779 2.94676 0
M  V30 5108 H 467.241 3.39792 1.71013 0
M  V30 5109 H 468.553 4.35258 2.43622 0
M  V30 5110 H 467.707 3.80319 4.72697 0
M  V30 5111 H 466.446 2.74781 4.02922 0
M  V30 5112 H 465.451 4.71491 2.82801 0
M  V30 5113 H 466.676 5.78497 3.55694 0
M  V30 5114 H 464.622 4.14283 5.08631 0
M  V30 5115 H 464.539 5.84851 4.79046 0
M  V30 5116 H 465.807 5.21289 5.7955 0
M  V30 5117 N 470.036 -0.519951 1.48776 0
M  V30 5118 C 471.285 -1.27175 1.56555 0
M  V30 5119 C 471.598 -1.9401 0.248869 0
M  V30 5120 O 472.804 -2.70725 0.205004 0
M  V30 5121 C 471.26 -2.30811 2.76142 0
M  V30 5122 C 470.868 -1.7 4.14493 0
M  V30 5123 C 472.612 -3.06937 2.9324 0
M  V30 5124 C 470.519 -2.71635 5.25327 0
M  V30 5125 H 469.449 -0.478329 0.582853 0
M  V30 5126 H 472.1 -0.547916 1.75129 0
M  V30 5127 H 470.482 -3.06274 2.51023 0
M  V30 5128 H 471.656 -1.00658 4.49672 0
M  V30 5129 H 469.971 -1.06331 4.02595 0
M  V30 5130 H 472.568 -3.82905 3.73213 0
M  V30 5131 H 472.911 -3.63409 2.03075 0
M  V30 5132 H 473.444 -2.38589 3.18308 0
M  V30 5133 H 470.183 -2.1997 6.1749 0
M  V30 5134 H 469.703 -3.39275 4.94624 0
M  V30 5135 H 471.382 -3.34429 5.53865 0
M  V30 5136 N 471.514 -1.37532 -0.769588 0
M  V30 5137 C 472.461 -1.3347 -1.88293 0
M  V30 5138 C 473.431 -0.199891 -1.64893 0
M  V30 5139 O 474.616 -0.389594 -1.8678 0
M  V30 5140 C 471.756 -1.14968 -3.25387 0
M  V30 5141 C 470.869 -2.37698 -3.60727 0
M  V30 5142 C 470.004 -2.12051 -4.8704 0
M  V30 5143 C 469.043 -3.30636 -5.15117 0
M  V30 5144 N 468.18 -3.04527 -6.3262 0
M  V30 5145 H 473.02 -2.28658 -1.911 0
M  V30 5146 H 470.557 -1.13622 -0.934257 0
M  V30 5147 H 472.515 -1.02261 -4.04473 0
M  V30 5148 H 471.145 -0.234263 -3.21949 0
M  V30 5149 H 470.197 -2.61137 -2.76608 0
M  V30 5150 H 471.509 -3.26131 -3.77413 0
M  V30 5151 H 470.663 -1.96388 -5.74035 0
M  V30 5152 H 469.402 -1.20959 -4.72462 0
M  V30 5153 H 468.407 -3.46836 -4.26597 0
M  V30 5154 H 469.632 -4.22582 -5.31603 0
M  V30 5155 H 467.578 -2.16067 -6.19396 0
M  V30 5156 H 467.495 -3.86503 -6.49732 0
M  V30 5157 H 468.763 -2.92485 -7.22546 0
M  V30 5158 N 472.992 0.995999 -1.22138 0
M  V30 5159 C 474.217 1.77601 -1.0711 0
M  V30 5160 C 474.642 1.84339 0.374264 0
M  V30 5161 O 474 1.29359 1.27028 0
M  V30 5162 C 474.048 3.18897 -1.68336 0
M  V30 5163 O 473.152 4.01663 -0.934928 0
M  V30 5164 H 472.493 0.547011 -0.376397 0
M  V30 5165 H 475.023 1.25137 -1.6187 0
M  V30 5166 H 475.033 3.69539 -1.72931 0
M  V30 5167 H 473.708 3.13308 -2.73516 0
M  V30 5168 H 472.285 3.60204 -0.964751 0
M  V30 5169 N 474.47 1.03057 1.19235 0
M  V30 5170 C 475.4 0.633497 2.24742 0
M  V30 5171 C 476.381 -0.358335 1.66283 0
M  V30 5172 O 477.566 -0.240676 1.92703 0
M  V30 5173 C 474.696 -0.0147648 3.47297 0
M  V30 5174 C 473.65 0.899527 4.18441 0
M  V30 5175 C 472.976 0.116281 5.34574 0
M  V30 5176 C 474.276 2.21404 4.73051 0
M  V30 5177 H 475.97 1.5155 2.58211 0
M  V30 5178 H 473.516 0.73014 1.24117 0
M  V30 5179 H 475.469 -0.304202 4.20301 0
M  V30 5180 H 474.193 -0.931577 3.13032 0
M  V30 5181 H 472.852 1.17319 3.47321 0
M  V30 5182 H 472.5 -0.802619 4.96555 0
M  V30 5183 H 472.2 0.725293 5.83107 0
M  V30 5184 H 473.724 -0.166376 6.10373 0
M  V30 5185 H 475.138 1.98601 5.37802 0
M  V30 5186 H 473.535 2.77512 5.32078 0
M  V30 5187 H 474.605 2.86752 3.91026 0
M  V30 5188 N 475.948 -1.35272 0.808662 0
M  V30 5189 C 476.896 -2.31663 0.208606 0
M  V30 5190 C 477.89 -1.56731 -0.642778 0
M  V30 5191 O 479.096 -1.71843 -0.53571 0
M  V30 5192 H 475.471 -0.750421 0.0486993 0
M  V30 5193 H 477.442 -2.79814 1.03666 0
M  V30 5194 C 476.191 -3.42008 -0.626573 0
M  V30 5195 H 475.514 -3.99795 0.0192103 0
M  V30 5196 H 476.954 -4.11727 -1.01278 0
M  V30 5197 C 475.413 -2.85226 -1.79298 0
M  V30 5198 O 475.943 -2.78945 -2.89055 0
M  V30 5199 N 474.149 -2.42245 -1.60516 0
M  V30 5200 H 473.696 -2.47554 -0.712375 0
M  V30 5201 H 473.654 -2.04603 -2.38715 0
M  V30 5202 N 477.426 -0.562348 -1.47226 0
M  V30 5203 C 478.672 -0.0485293 -2.03342 0
M  V30 5204 C 479.027 1.28898 -1.42839 0
M  V30 5205 O 478.32 1.82719 -0.576563 0
M  V30 5206 C 478.514 0.0969817 -3.57268 0
M  V30 5207 C 478.343 -1.22487 -4.32697 0
M  V30 5208 C 477.113 -1.79357 -4.72397 0
M  V30 5209 C 479.311 -2.14332 -4.67511 0
M  V30 5210 N 477.293 -3.05493 -5.32491 0
M  V30 5211 C 478.664 -3.25049 -5.27961 0
M  V30 5212 C 480.719 -2.14263 -4.4944 0
M  V30 5213 C 479.422 -4.35804 -5.72248 0
M  V30 5214 C 481.448 -3.24033 -4.94729 0
M  V30 5215 C 480.81 -4.3347 -5.55233 0
M  V30 5216 H 476.909 -0.0600464 -0.779691 0
M  V30 5217 H 479.493 -0.750769 -1.79643 0
M  V30 5218 H 477.664 0.768353 -3.80724 0
M  V30 5219 H 479.396 0.613333 -4.00025 0
M  V30 5220 H 476.151 -1.33093 -4.54514 0
M  V30 5221 H 476.575 -3.698 -5.67077 0
M  V30 5222 H 481.217 -1.30935 -4.02015 0
M  V30 5223 H 478.935 -5.19888 -6.18661 0
M  V30 5224 H 482.521 -3.25073 -4.82513 0
M  V30 5225 H 481.401 -5.17008 -5.89638 0
M  V30 5226 N 478.904 1.54736 -0.299062 0
M  V30 5227 C 480.134 2.04215 0.312992 0
M  V30 5228 C 480.542 1.17596 1.48215 0
M  V30 5229 O 479.885 0.193835 1.82674 0
M  V30 5230 C 479.947 3.49696 0.833862 0
M  V30 5231 C 479.611 4.56518 -0.20977 0
M  V30 5232 C 480.608 5.09442 -1.03756 0
M  V30 5233 C 478.293 5.01073 -0.35091 0
M  V30 5234 C 480.287 6.05459 -1.99244 0
M  V30 5235 C 477.974 5.9691 -1.30924 0
M  V30 5236 C 478.972 6.48987 -2.1285 0
M  V30 5237 O 478.66 7.42947 -3.07059 0
M  V30 5238 H 478.392 0.672128 0.0722494 0
M  V30 5239 H 480.946 2.00718 -0.436043 0
M  V30 5240 H 479.176 3.5051 1.63339 0
M  V30 5241 H 480.865 3.82381 1.36159 0
M  V30 5242 H 481.631 4.75816 -0.939376 0
M  V30 5243 H 477.51 4.60168 0.276813 0
M  V30 5244 H 481.054 6.46031 -2.63229 0
M  V30 5245 H 476.951 6.29953 -1.40815 0
M  V30 5246 H 477.719 7.60743 -3.02015 0
M  V30 5247 N 480.382 0.0267497 1.57577 0
M  V30 5248 C 481.292 -0.971633 2.13533 0
M  V30 5249 C 482.308 -1.35868 1.08701 0
M  V30 5250 O 483.484 -1.44058 1.40746 0
M  V30 5251 C 480.549 -2.23622 2.64941 0
M  V30 5252 C 479.61 -1.90982 3.8448 0
M  V30 5253 C 478.843 -3.11411 4.33427 0
M  V30 5254 O 479.066 -4.23992 3.81558 0
M  V30 5255 O 478 -2.93848 5.25297 0
M  V30 5256 H 481.826 -0.525853 2.99113 0
M  V30 5257 H 479.411 -0.193712 1.48139 0
M  V30 5258 H 481.293 -2.97864 2.98086 0
M  V30 5259 H 479.968 -2.67386 1.82446 0
M  V30 5260 H 478.875 -1.14132 3.56265 0
M  V30 5261 H 480.208 -1.52036 4.6813 0
M  V30 5262 N 481.861 -1.55662 -0.24637 0
M  V30 5263 C 483.138 -1.68272 -0.997198 0
M  V30 5264 C 483.518 -0.566785 -2.03349 0
M  V30 5265 O 482.866 0.429688 -2.24424 0
M  V30 5266 C 483.076 -3.08594 -1.63006 0
M  V30 5267 C 484.424 -3.6721 -2.13171 0
M  V30 5268 O 485.448 -3.11397 -1.72946 0
M  V30 5269 O 484.307 -4.65054 -2.87031 0
M  V30 5270 H 481.401 -0.684429 -0.464205 0
M  V30 5271 H 483.947 -1.67993 -0.240114 0
M  V30 5272 H 482.719 -3.81264 -0.880527 0
M  V30 5273 H 482.342 -3.12886 -2.45333 0
M  V30 5274 N 483.339 0.512053 -1.4905 0
M  V30 5275 C 484.287 1.63568 -1.65373 0
M  V30 5276 C 485.281 1.61228 -0.519806 0
M  V30 5277 O 486.487 1.65869 -0.699101 0
M  V30 5278 H 482.862 0.542019 -0.521267 0
M  V30 5279 H 484.833 1.4695 -2.59708 0
M  V30 5280 C 483.582 3.01761 -1.7273 0
M  V30 5281 H 482.905 3.04263 -2.59353 0
M  V30 5282 H 484.345 3.79948 -1.8819 0
M  V30 5283 C 482.804 3.33609 -0.46973 0
M  V30 5284 O 483.334 3.99607 0.409492 0
M  V30 5285 N 481.54 2.88651 -0.336003 0
M  V30 5286 H 481.087 2.35119 -1.05247 0
M  V30 5287 H 481.045 3.10328 0.504363 0
M  V30 5288 N 484.817 1.37938 0.762283 0
M  V30 5289 C 485.765 1.34569 1.89721 0
M  V30 5290 C 486.759 0.232929 1.67791 0
M  V30 5291 O 487.965 0.401485 1.75465 0
M  V30 5292 H 484.34 0.419594 0.624055 0
M  V30 5293 H 486.311 2.30357 1.8968 0
M  V30 5294 C 485.06 1.17898 3.27101 0
M  V30 5295 H 484.383 2.02781 3.44558 0
M  V30 5296 H 485.823 1.19593 4.06784 0
M  V30 5297 C 484.282 -0.114728 3.36705 0
M  V30 5298 O 484.812 -1.0949 3.8649 0
M  V30 5299 N 483.018 -0.16863 2.9011 0
M  V30 5300 H 482.565 0.62967 2.49786 0
M  V30 5301 H 482.523 -1.03383 2.96916 0
M  V30 5302 N 486.295 -0.989507 1.22664 0
M  V30 5303 C 487.525 -1.7624 1.0781 0
M  V30 5304 C 487.933 -1.85466 -0.374036 0
M  V30 5305 O 487.276 -1.32645 -1.27087 0
M  V30 5306 C 487.338 -3.21007 1.61849 0
M  V30 5307 C 487.002 -3.35316 3.10503 0
M  V30 5308 C 487.999 -3.22362 4.07896 0
M  V30 5309 C 485.684 -3.60258 3.50028 0
M  V30 5310 C 487.678 -3.34139 5.42798 0
M  V30 5311 C 485.365 -3.71676 4.85078 0
M  V30 5312 C 486.363 -3.58625 5.81272 0
M  V30 5313 O 486.051 -3.69655 7.1387 0
M  V30 5314 H 485.783 -0.560209 0.378341 0
M  V30 5315 H 488.337 -1.25252 1.62792 0
M  V30 5316 H 486.567 -3.73202 1.01279 0
M  V30 5317 H 488.256 -3.80024 1.42606 0
M  V30 5318 H 489.022 -3.03 3.78703 0
M  V30 5319 H 484.901 -3.69492 2.75675 0
M  V30 5320 H 488.445 -3.23869 6.17863 0
M  V30 5321 H 484.342 -3.90545 5.1395 0
M  V30 5322 H 485.11 -3.86507 7.21495 0
M  V30 5323 N 487.773 -1.03688 -1.18687 0
M  V30 5324 C 488.72 -0.624624 -2.22187 0
M  V30 5325 C 489.69 0.365636 -1.62026 0
M  V30 5326 O 490.875 0.260481 -1.89014 0
M  V30 5327 C 488.015 0.0101738 -3.45099 0
M  V30 5328 C 487.128 -1.02709 -4.19613 0
M  V30 5329 C 486.263 -0.361213 -5.2997 0
M  V30 5330 C 485.302 -1.38384 -5.96252 0
M  V30 5331 N 484.439 -0.743196 -6.98155 0
M  V30 5332 H 489.279 -1.51176 -2.56807 0
M  V30 5333 H 486.816 -0.75636 -1.26165 0
M  V30 5334 H 488.774 0.395528 -4.15321 0
M  V30 5335 H 487.404 0.860848 -3.1111 0
M  V30 5336 H 486.456 -1.53043 -3.48256 0
M  V30 5337 H 487.768 -1.80398 -4.65036 0
M  V30 5338 H 486.922 0.0785537 -6.06649 0
M  V30 5339 H 485.661 0.447799 -4.8564 0
M  V30 5340 H 484.666 -1.83378 -5.18317 0
M  V30 5341 H 485.891 -2.19448 -6.42666 0
M  V30 5342 H 483.837 0.0455789 -6.55984 0
M  V30 5343 H 483.754 -1.45784 -7.41811 0
M  V30 5344 H 485.022 -0.327698 -7.78811 0
M  V30 5345 N 489.251 1.34841 -0.815825 0
M  V30 5346 C 490.214 2.27959 -0.238185 0
M  V30 5347 C 491.214 1.49983 0.579816 0
M  V30 5348 O 492.404 1.69617 0.396953 0
M  V30 5349 C 489.536 3.34314 0.666876 0
M  V30 5350 H 490.729 2.80558 -1.05958 0
M  V30 5351 H 488.282 1.44852 -0.587156 0
M  V30 5352 H 489.017 2.86916 1.5116 0
M  V30 5353 H 488.802 3.92014 0.0819106 0
M  V30 5354 H 490.292 4.0379 1.06506 0
M  V30 5355 N 490.729 0.570148 1.46925 0
M  V30 5356 C 491.659 -0.158274 2.32963 0
M  V30 5357 C 492.64 -0.896093 1.44583 0
M  V30 5358 O 493.825 -0.874022 1.7342 0
M  V30 5359 C 490.955 -1.18055 3.26619 0
M  V30 5360 C 489.909 -0.558379 4.24342 0
M  V30 5361 C 489.235 -1.68623 5.07415 0
M  V30 5362 C 490.535 0.496295 5.19937 0
M  V30 5363 H 492.229 0.560046 2.94115 0
M  V30 5364 H 489.775 0.270775 1.41431 0
M  V30 5365 H 491.728 -1.69841 3.85658 0
M  V30 5366 H 490.452 -1.92899 2.63548 0
M  V30 5367 H 489.111 -0.0617157 3.66548 0
M  V30 5368 H 488.759 -2.42402 4.40738 0
M  V30 5369 H 488.459 -1.27564 5.73586 0
M  V30 5370 H 489.983 -2.20709 5.69315 0
M  V30 5371 H 491.397 0.0640052 5.73264 0
M  V30 5372 H 489.794 0.82649 5.94381 0
M  V30 5373 H 490.864 1.38735 4.6463 0
M  V30 5374 N 492.207 -1.54576 0.307264 0
M  V30 5375 C 493.454 -2.00263 -0.300167 0
M  V30 5376 C 493.782 -1.19561 -1.53413 0
M  V30 5377 O 493.037 -0.261487 -1.93945 0
M  V30 5378 C 493.336 -3.50572 -0.695253 0
M  V30 5379 C 493.002 -4.48771 0.437679 0
M  V30 5380 C 491.664 -4.7534 0.748681 0
M  V30 5381 C 494.016 -5.0721 1.19949 0
M  V30 5382 C 491.344 -5.5761 1.8245 0
M  V30 5383 C 493.696 -5.90651 2.26527 0
M  V30 5384 C 492.36 -6.15528 2.58227 0
M  V30 5385 H 491.63 -0.732814 -0.109839 0
M  V30 5386 H 494.277 -1.86664 0.427661 0
M  V30 5387 H 492.582 -3.61814 -1.50326 0
M  V30 5388 H 494.279 -3.83352 -1.17653 0
M  V30 5389 H 490.869 -4.282 0.185187 0
M  V30 5390 H 495.053 -4.86679 0.972474 0
M  V30 5391 H 490.309 -5.75121 2.07476 0
M  V30 5392 H 494.483 -6.34957 2.86011 0
M  V30 5393 H 492.11 -6.79066 3.4172 0
M  V30 5394 N 493.685 -0.035106 -1.57561 0
M  V30 5395 C 494.933 0.64096 -1.91667 0
M  V30 5396 C 495.254 1.72323 -0.912681 0
M  V30 5397 O 494.524 1.95849 0.0449089 0
M  V30 5398 H 493.104 0.239743 -0.707483 0
M  V30 5399 H 495.766 -0.084321 -1.94718 0
M  V30 5400 H 494.862 1.08987 -2.92452 0
M  V30 5401 N 495.163 1.55791 0.238111 0
M  V30 5402 C 496.411 1.77681 0.963001 0
M  V30 5403 C 496.732 0.600674 1.85518 0
M  V30 5404 O 496.002 -0.383182 1.92116 0
M  V30 5405 H 494.582 0.655315 0.358568 0
M  V30 5406 H 497.244 1.93239 0.253945 0
M  V30 5407 H 496.34 2.69177 1.57956 0
M  V30 5408 N 496.642 -0.504142 1.49319 0
M  V30 5409 C 497.59 -1.62689 1.66238 0
M  V30 5410 C 498.584 -1.6095 0.528349 0
M  V30 5411 O 499.79 -1.65496 0.707887 0
M  V30 5412 H 496.165 -0.539247 0.524134 0
M  V30 5413 H 498.136 -1.45571 2.60484 0
M  V30 5414 C 496.885 -3.00841 1.74328 0
M  V30 5415 H 496.208 -3.02884 2.60963 0
M  V30 5416 H 497.648 -3.78945 1.90202 0
M  V30 5417 C 496.107 -3.33355 0.487416 0
M  V30 5418 O 496.637 -3.99819 -0.388294 0
M  V30 5419 N 494.843 -2.88469 0.351306 0
M  V30 5420 H 494.39 -2.34557 1.06492 0
M  V30 5421 H 494.348 -3.10591 -0.487899 0
M  V30 5422 N 498.12 -1.38341 -0.754957 0
M  V30 5423 C 499.368 -1.34208 -1.51105 0
M  V30 5424 C 499.689 0.0677634 -1.94882 0
M  V30 5425 O 498.959 1.01517 -1.67544 0
M  V30 5426 H 497.539 -0.493819 -0.560493 0
M  V30 5427 H 500.201 -1.73005 -0.897507 0
M  V30 5428 H 499.297 -1.99203 -2.4026 0
M  V30 5429 N 499.598 0.982988 -1.23187 0
M  V30 5430 C 500.826 1.75921 -1.08901 0
M  V30 5431 C 501.241 1.85341 0.359719 0
M  V30 5432 O 500.598 1.33072 1.24892 0
M  V30 5433 C 500.649 3.18742 -1.70545 0
M  V30 5434 O 500.37 3.09814 -3.09753 0
M  V30 5435 C 501.871 4.1277 -1.61667 0
M  V30 5436 H 499.091 0.552166 -0.381252 0
M  V30 5437 H 501.635 1.23516 -1.62985 0
M  V30 5438 H 499.79 3.68182 -1.20501 0
M  V30 5439 H 500.204 3.99703 -3.39614 0
M  V30 5440 H 501.678 5.10697 -2.09506 0
M  V30 5441 H 502.155 4.3542 -0.575009 0
M  V30 5442 H 502.761 3.69232 -2.11064 0
M  V30 5443 N 501.076 1.04316 1.18135 0
M  V30 5444 C 501.986 0.646876 2.25505 0
M  V30 5445 C 503.002 -0.328008 1.7088 0
M  V30 5446 O 504.178 -0.182309 2.00573 0
M  V30 5447 C 501.243 0.0185664 3.46695 0
M  V30 5448 C 500.304 1.04277 4.16443 0
M  V30 5449 C 499.537 0.444352 5.31847 0
M  V30 5450 O 499.76 -0.748735 5.65465 0
M  V30 5451 O 498.694 1.17428 5.90334 0
M  V30 5452 H 502.52 1.54147 2.61672 0
M  V30 5453 H 500.105 0.814188 1.25265 0
M  V30 5454 H 501.987 -0.331068 4.20097 0
M  V30 5455 H 500.662 -0.849814 3.12346 0
M  V30 5456 H 499.569 1.44425 3.45098 0
M  V30 5457 H 500.902 1.882 4.54798 0
M  V30 5458 N 502.554 -1.34406 0.822964 0
M  V30 5459 C 503.464 -2.33298 0.246838 0
M  V30 5460 C 504.48 -1.62625 -0.618797 0
M  V30 5461 O 505.656 -1.94391 -0.526685 0
M  V30 5462 C 502.721 -3.41785 -0.581731 0
M  V30 5463 C 501.782 -4.28206 0.306309 0
M  V30 5464 C 501.015 -5.31512 -0.48281 0
M  V30 5465 O 501.238 -5.43973 -1.71607 0
M  V30 5466 O 500.172 -6.01749 0.134884 0
M  V30 5467 H 503.998 -2.84401 1.06534 0
M  V30 5468 H 501.583 -1.37466 0.585108 0
M  V30 5469 H 503.465 -4.08028 -1.05313 0
M  V30 5470 H 502.14 -2.92925 -1.37756 0
M  V30 5471 H 501.047 -3.64885 0.825199 0
M  V30 5472 H 502.38 -4.80507 1.06649 0
M  V30 5473 N 504.032 -0.577932 -1.46621 0
M  V30 5474 C 505.309 0.00495287 -1.95599 0
M  V30 5475 C 505.689 1.46428 -1.5206 0
M  V30 5476 O 505.037 2.1517 -0.769046 0
M  V30 5477 C 505.247 -0.162114 -3.48623 0
M  V30 5478 C 506.595 -0.0274623 -4.24591 0
M  V30 5479 O 507.619 -0.0907067 -3.56084 0
M  V30 5480 O 506.478 0.1122 -5.46385 0
M  V30 5481 H 503.572 0.0525057 -0.825332 0
M  V30 5482 H 506.118 -0.645914 -1.56927 0
M  V30 5483 H 504.89 -1.17679 -3.73185 0
M  V30 5484 H 504.513 0.525407 -3.94113 0
M  V30 5485 N 505.51 1.54411 -0.315457 0
M  V30 5486 C 506.473 2.22713 0.54142 0
M  V30 5487 C 507.473 1.2179 1.04995 0
M  V30 5488 O 508.663 1.46426 0.943667 0
M  V30 5489 C 505.795 2.92485 1.75116 0
M  V30 5490 H 506.988 2.99849 -0.0555508 0
M  V30 5491 H 504.541 1.56159 -0.0664453 0
M  V30 5492 H 505.276 2.19466 2.38758 0
M  V30 5493 H 505.061 3.66483 1.39401 0
M  V30 5494 H 506.551 3.44548 2.35959 0
M  V30 5495 N 506.988 0.0434614 1.5754 0
M  V30 5496 C 507.898 -0.94893 2.14552 0
M  V30 5497 C 508.914 -1.34707 1.10136 0
M  V30 5498 O 510.09 -1.42557 1.42266 0
M  V30 5499 C 507.155 -2.208 2.67298 0
M  V30 5500 C 506.216 -1.86893 3.86484 0
M  V30 5501 C 505.449 -3.06797 4.36705 0
M  V30 5502 O 505.672 -4.19921 3.86034 0
M  V30 5503 O 504.606 -2.8826 5.28384 0
M  V30 5504 H 508.432 -0.494099 2.99654 0
M  V30 5505 H 506.017 -0.177989 1.48336 0
M  V30 5506 H 507.899 -2.94686 3.01228 0
M  V30 5507 H 506.574 -2.65436 1.85272 0
M  V30 5508 H 505.481 -1.10347 3.57455 0
M  V30 5509 H 506.814 -1.47062 4.69716 0
M  V30 5510 N 508.466 -1.55915 -0.229846 0
M  V30 5511 C 509.694 -1.82617 -0.972562 0
M  V30 5512 C 510.109 -0.621488 -1.78278 0
M  V30 5513 O 509.466 0.409956 -1.77836 0
M  V30 5514 C 509.517 -3.0774 -1.89679 0
M  V30 5515 O 509.238 -4.23559 -1.11934 0
M  V30 5516 C 510.739 -3.47368 -2.75409 0
M  V30 5517 H 507.959 -0.60727 -0.285419 0
M  V30 5518 H 510.503 -2.02996 -0.247579 0
M  V30 5519 H 508.658 -2.89361 -2.57583 0
M  V30 5520 H 509.072 -4.94586 -1.74599 0
M  V30 5521 H 510.546 -4.37977 -3.35977 0
M  V30 5522 H 511.023 -2.68737 -3.47386 0
M  V30 5523 H 511.629 -3.68158 -2.12931 0
M  V30 5524 N 509.944 0.496216 -1.49584 0
M  V30 5525 C 511.191 1.25003 -1.59312 0
M  V30 5526 C 511.519 1.92445 -0.28198 0
M  V30 5527 O 510.774 1.81557 0.730452 0
M  V30 5528 C 511.073 2.3359 -2.705 0
M  V30 5529 C 510.739 1.83574 -4.11839 0
M  V30 5530 C 509.401 1.69653 -4.50302 0
M  V30 5531 C 511.753 1.46193 -5.00277 0
M  V30 5532 C 509.081 1.16736 -5.74969 0
M  V30 5533 C 511.433 0.947265 -6.25468 0
M  V30 5534 C 510.097 0.794485 -6.62755 0
M  V30 5535 H 509.367 0.45742 -0.582965 0
M  V30 5536 H 512.014 0.549996 -1.83432 0
M  V30 5537 H 510.319 3.09401 -2.40371 0
M  V30 5538 H 512.016 2.91627 -2.75235 0
M  V30 5539 H 508.606 1.9537 -3.81482 0
M  V30 5540 H 512.79 1.55793 -4.71214 0
M  V30 5541 H 508.046 1.03623 -6.02555 0
M  V30 5542 H 512.22 0.648846 -6.93371 0
M  V30 5543 H 509.847 0.382271 -7.59238 0
M  V30 5544 N 511.423 1.38739 0.74761 0
M  V30 5545 C 512.653 1.3832 1.53464 0
M  V30 5546 C 513.061 -0.0273464 1.8918 0
M  V30 5547 O 512.404 -1.00588 1.53713 0
M  V30 5548 C 512.466 2.18007 2.85855 0
M  V30 5549 C 512.13 3.66762 2.72644 0
M  V30 5550 C 513.127 4.60124 2.42037 0
M  V30 5551 C 510.812 4.10193 2.89909 0
M  V30 5552 C 512.806 5.94897 2.28859 0
M  V30 5553 C 510.493 5.45045 2.7635 0
M  V30 5554 C 511.491 6.37211 2.45869 0
M  V30 5555 O 511.179 7.69581 2.3238 0
M  V30 5556 H 510.911 0.474718 0.481268 0
M  V30 5557 H 513.465 1.83012 0.932518 0
M  V30 5558 H 511.695 1.68043 3.48279 0
M  V30 5559 H 513.384 2.09921 3.47402 0
M  V30 5560 H 514.15 4.27874 2.28361 0
M  V30 5561 H 510.029 3.38797 3.1263 0
M  V30 5562 H 513.573 6.66802 2.04989 0
M  V30 5563 H 509.47 5.76889 2.89601 0
M  V30 5564 H 510.238 7.80169 2.47546 0
M  V30 5565 N 512.901 -0.976442 1.23707 0
M  V30 5566 C 514.178 -1.69296 0.979699 0
M  V30 5567 C 514.558 -2.0508 -0.500555 0
M  V30 5568 O 513.906 -1.74708 -1.47273 0
M  V30 5569 C 514.116 -2.93143 1.89389 0
M  V30 5570 C 515.464 -3.65572 2.15968 0
M  V30 5571 O 516.488 -3.03184 1.86971 0
M  V30 5572 O 515.347 -4.77859 2.65167 0
M  V30 5573 H 512.441 -0.739708 0.369812 0
M  V30 5574 H 514.987 -1.03131 1.34767 0
M  V30 5575 H 513.759 -2.63327 2.89439 0
M  V30 5576 H 513.382 -3.67044 1.52854 0
M  V30 5577 N 514.379 -1.04941 -1.1758 0
M  V30 5578 C 515.327 -0.64204 -2.23563 0
M  V30 5579 C 516.321 0.335453 -1.66045 0
M  V30 5580 O 517.527 0.20179 -1.78865 0
M  V30 5581 H 513.902 -0.18944 -0.727748 0
M  V30 5582 H 515.873 -1.54609 -2.55223 0
M  V30 5583 C 514.622 -0.0301051 -3.47687 0
M  V30 5584 H 513.945 -0.773339 -3.92249 0
M  V30 5585 H 515.385 0.217592 -4.23441 0
M  V30 5586 C 513.844 1.2225 -3.13937 0
M  V30 5587 O 514.374 2.3122 -3.28482 0
M  V30 5588 N 512.58 1.11917 -2.68185 0
M  V30 5589 H 512.127 0.232403 -2.5655 0
M  V30 5590 H 512.085 1.95814 -2.45976 0
M  V30 5591 N 515.857 1.33968 -0.830081 0
M  V30 5592 C 517.082 2.02813 -0.433796 0
M  V30 5593 C 517.507 1.62076 0.954614 0
M  V30 5594 O 516.865 0.808955 1.62252 0
M  V30 5595 C 516.913 3.56348 -0.552115 0
M  V30 5596 O 516.017 4.10202 0.425191 0
M  V30 5597 H 515.358 0.639817 -0.177567 0
M  V30 5598 H 517.888 1.7106 -1.12248 0
M  V30 5599 H 517.898 4.05722 -0.430513 0
M  V30 5600 H 516.573 3.85344 -1.56471 0
M  V30 5601 H 515.15 3.71979 0.261878 0
M  V30 5602 N 517.335 0.585699 1.46312 0
M  V30 5603 C 518.563 0.0781299 2.06752 0
M  V30 5604 C 518.978 -1.22812 1.43396 0
M  V30 5605 O 518.335 -1.74318 0.540314 0
M  V30 5606 C 518.386 -0.0911927 3.61385 0
M  V30 5607 O 518.107 1.16336 4.22371 0
M  V30 5608 C 519.608 -0.632765 4.38761 0
M  V30 5609 H 516.828 0.0588188 0.668417 0
M  V30 5610 H 519.372 0.807218 1.87894 0
M  V30 5611 H 517.527 -0.770514 3.7966 0
M  V30 5612 H 517.941 0.979082 5.15281 0
M  V30 5613 H 519.415 -0.70041 5.47538 0
M  V30 5614 H 519.892 -1.65039 4.07012 0
M  V30 5615 H 520.498 0.0117856 4.25298 0
M  V30 5616 N 518.813 -1.54241 0.323641 0
M  V30 5617 C 520.041 -2.04985 -0.280871 0
M  V30 5618 C 520.456 -1.19978 -1.45777 0
M  V30 5619 O 519.813 -0.230471 -1.81039 0
M  V30 5620 C 519.864 -3.54353 -0.715258 0
M  V30 5621 O 519.585 -4.36132 0.414817 0
M  V30 5622 C 521.086 -4.21189 -1.38257 0
M  V30 5623 H 518.306 -0.66851 -0.0577502 0
M  V30 5624 H 520.85 -1.99029 0.469852 0
M  V30 5625 H 519.005 -3.60596 -1.41596 0
M  V30 5626 H 519.419 -5.2445 0.0725227 0
M  V30 5627 H 520.893 -5.27154 -1.63745 0
M  V30 5628 H 521.37 -3.72307 -2.32989 0
M  V30 5629 H 521.976 -4.19085 -0.724447 0
M  V30 5630 N 520.291 -0.0518155 -1.57515 0
M  V30 5631 C 521.702 0.483787 -1.80323 0
M  V30 5632 C 522.053 1.70879 -0.964099 0
M  V30 5633 O 521.178 2.15643 -0.180872 0
M  V30 5634 C 521.773 0.884459 -3.27052 0
M  V30 5635 C 520.332 1.36504 -3.50776 0
M  V30 5636 C 519.479 0.340539 -2.75201 0
M  V30 5637 H 522.43 -0.277691 -1.56252 0
M  V30 5638 H 522.451 1.74733 -3.38007 0
M  V30 5639 H 521.963 -0.00731093 -3.88099 0
M  V30 5640 H 520.064 2.27598 -2.95009 0
M  V30 5641 H 520.177 1.35675 -4.59488 0
M  V30 5642 H 518.541 0.81356 -2.41357 0
M  V30 5643 H 519.324 -0.543156 -3.38976 0
M  V30 5644 N 521.769 1.56035 0.221574 0
M  V30 5645 C 522.999 1.82864 0.961468 0
M  V30 5646 C 523.407 0.628703 1.78449 0
M  V30 5647 O 522.75 -0.412109 1.79018 0
M  V30 5648 C 522.812 3.03425 1.92804 0
M  V30 5649 C 522.476 4.38429 1.28954 0
M  V30 5650 C 523.473 5.15441 0.679431 0
M  V30 5651 C 521.158 4.85151 1.30131 0
M  V30 5652 C 523.152 6.37337 0.0896148 0
M  V30 5653 C 520.839 6.06989 0.707651 0
M  V30 5654 C 521.837 6.82923 0.102855 0
M  V30 5655 O 521.525 8.02456 -0.48157 0
M  V30 5656 H 521.257 0.611883 0.28736 0
M  V30 5657 H 523.811 2.0397 0.241932 0
M  V30 5658 H 522.041 2.78138 2.68656 0
M  V30 5659 H 523.73 3.17127 2.53348 0
M  V30 5660 H 524.496 4.80452 0.662661 0
M  V30 5661 H 520.375 4.26021 1.76145 0
M  V30 5662 H 523.919 6.96547 -0.383069 0
M  V30 5663 H 519.816 6.41451 0.721834 0
M  V30 5664 H 520.584 8.17636 -0.375887 0
M  V30 5665 N 523.247 -0.488276 1.49845 0
M  V30 5666 C 524.487 -1.2516 1.61599 0
M  V30 5667 C 524.851 -1.89615 0.301706 0
M  V30 5668 O 526.052 -2.67182 0.29453 0
M  V30 5669 C 524.323 -2.2805 2.75187 0
M  V30 5670 S 525.882 -3.13552 3.0697 0
M  V30 5671 H 522.7 -0.425178 0.569864 0
M  V30 5672 H 525.302 -0.551545 1.87559 0
M  V30 5673 H 524.006 -1.7925 3.69185 0
M  V30 5674 H 523.537 -3.02708 2.5126 0
M  V30 5675 H 525.552 -4.28927 2.49471 0
M  V30 5676 N 524.725 -1.39134 -0.740242 0
M  V30 5677 C 525.673 -1.3757 -1.87556 0
M  V30 5678 C 526.667 -0.259593 -1.67399 0
M  V30 5679 O 527.873 -0.429349 -1.74804 0
M  V30 5680 H 524.248 -0.42947 -0.6173 0
M  V30 5681 H 526.219 -2.33345 -1.85991 0
M  V30 5682 C 524.968 -1.23087 -3.25184 0
M  V30 5683 H 524.291 -2.08237 -3.41288 0
M  V30 5684 H 525.731 -1.26049 -4.0483 0
M  V30 5685 C 524.19 0.0611471 -3.36845 0
M  V30 5686 O 524.72 1.03328 -3.88183 0
M  V30 5687 N 522.926 0.122454 -2.90342 0
M  V30 5688 H 522.473 -0.669329 -2.48752 0
M  V30 5689 H 522.431 0.986463 -2.98523 0
M  V30 5690 N 526.204 0.969867 -1.24223 0
M  V30 5691 C 527.481 1.68774 -0.988664 0
M  V30 5692 C 527.861 2.05342 0.489673 0
M  V30 5693 O 527.209 1.75486 1.46345 0
M  V30 5694 C 527.419 2.92135 -1.90941 0
M  V30 5695 C 528.767 3.64422 -2.17903 0
M  V30 5696 O 529.791 3.02188 -1.88576 0
M  V30 5697 O 528.65 4.76446 -2.67697 0
M  V30 5698 H 525.744 0.737736 -0.37373 0
M  V30 5699 H 528.29 1.02415 -1.35312 0
M  V30 5700 H 527.062 2.61788 -2.90831 0
M  V30 5701 H 526.685 3.66228 -1.54798 0
M  V30 5702 N 527.682 1.05563 1.17022 0
M  V30 5703 C 528.612 0.681026 2.23348 0
M  V30 5704 C 529.593 -0.322983 1.67005 0
M  V30 5705 O 530.778 -0.199746 1.9317 0
M  V30 5706 C 527.908 0.0589053 3.4725 0
M  V30 5707 C 526.862 0.988082 4.16438 0
M  V30 5708 C 526.188 0.229646 5.34207 0
M  V30 5709 C 527.488 2.31388 4.68249 0
M  V30 5710 H 529.182 1.56993 2.54938 0
M  V30 5711 H 526.728 0.756302 1.2254 0
M  V30 5712 H 528.681 -0.214982 4.20851 0
M  V30 5713 H 527.405 -0.864968 3.14938 0
M  V30 5714 H 526.064 1.24659 3.44754 0
M  V30 5715 H 525.712 -0.697111 4.98146 0
M  V30 5716 H 525.412 0.848815 5.81437 0
M  V30 5717 H 526.936 -0.0368694 6.10589 0
M  V30 5718 H 528.35 2.09964 5.33468 0
M  V30 5719 H 526.747 2.88736 5.26072 0
M  V30 5720 H 527.817 2.94982 3.84855 0
M  V30 5721 N 529.16 -1.33526 0.837174 0
M  V30 5722 C 530.093 -2.27192 0.214233 0
M  V30 5723 C 531.071 -1.49575 -0.637657 0
M  V30 5724 O 532.255 -1.78753 -0.598291 0
M  V30 5725 C 529.382 -3.31401 -0.699367 0
M  V30 5726 C 528.428 -4.26431 0.0768429 0
M  V30 5727 S 529.261 -5.15954 1.4336 0
M  V30 5728 C 530.417 -6.23692 0.525251 0
M  V30 5729 H 530.65 -2.79679 1.00831 0
M  V30 5730 H 528.183 -1.4079 0.633834 0
M  V30 5731 H 530.141 -3.91924 -1.22088 0
M  V30 5732 H 528.802 -2.77732 -1.46709 0
M  V30 5733 H 527.995 -5.00193 -0.618268 0
M  V30 5734 H 527.597 -3.70235 0.529364 0
M  V30 5735 H 529.889 -6.76931 -0.277575 0
M  V30 5736 H 530.832 -6.97283 1.23299 0
M  V30 5737 H 531.24 -5.64398 0.107351 0
M  V30 5738 N 530.638 -0.59345 -1.46 0
M  V30 5739 C 531.585 0.133618 -2.30413 0
M  V30 5740 C 532.555 0.873736 -1.41262 0
M  V30 5741 O 533.74 0.862279 -1.70204 0
M  V30 5742 C 530.88 1.13434 -3.25924 0
M  V30 5743 C 529.993 0.39656 -4.30176 0
M  V30 5744 C 529.128 1.38575 -5.12806 0
M  V30 5745 C 528.167 0.634984 -6.08797 0
M  V30 5746 N 527.304 1.57276 -6.84258 0
M  V30 5747 H 532.144 -0.592252 -2.92055 0
M  V30 5748 H 529.681 -0.303874 -1.43927 0
M  V30 5749 H 531.639 1.72752 -3.79753 0
M  V30 5750 H 530.269 1.82779 -2.66067 0
M  V30 5751 H 529.321 -0.311861 -3.79119 0
M  V30 5752 H 530.633 -0.189869 -4.98438 0
M  V30 5753 H 529.787 2.05141 -5.70966 0
M  V30 5754 H 528.526 2.00611 -4.44529 0
M  V30 5755 H 527.531 -0.0443925 -5.49782 0
M  V30 5756 H 528.756 0.0198678 -6.79097 0
M  V30 5757 H 526.702 2.18103 -6.18682 0
M  V30 5758 H 526.619 1.03941 -7.48821 0
M  V30 5759 H 527.887 2.22844 -7.46968 0
M  V30 5760 N 532.116 1.54067 -0.331816 0
M  V30 5761 C 533.064 2.26105 0.54582 0
M  V30 5762 C 534.058 1.27816 1.11173 0
M  V30 5763 O 535.264 1.45565 1.05882 0
M  V30 5764 H 531.639 0.726363 0.194683 0
M  V30 5765 H 533.61 2.98282 -0.083931 0
M  V30 5766 C 532.359 3.03814 1.69092 0
M  V30 5767 H 531.682 3.79269 1.26473 0
M  V30 5768 H 533.122 3.57453 2.28043 0
M  V30 5769 C 531.581 2.12606 2.61343 0
M  V30 5770 O 532.111 1.71437 3.6328 0
M  V30 5771 N 530.317 1.77925 2.29763 0
M  V30 5772 H 529.864 2.11602 1.46909 0
M  V30 5773 H 529.822 1.1718 2.91747 0
M  V30 5774 N 533.594 0.0601682 1.57485 0
M  V30 5775 C 534.524 -0.90889 2.15085 0
M  V30 5776 C 535.505 -1.31838 1.07484 0
M  V30 5777 O 536.69 -1.3915 1.35466 0
M  V30 5778 C 533.82 -2.18059 2.7031 0
M  V30 5779 C 532.774 -1.91088 3.82974 0
M  V30 5780 C 532.1 -3.24789 4.24754 0
M  V30 5781 C 533.4 -1.22535 5.07723 0
M  V30 5782 H 535.094 -0.429093 2.96309 0
M  V30 5783 H 532.64 -0.204952 1.42534 0
M  V30 5784 H 534.593 -2.86258 3.09248 0
M  V30 5785 H 533.317 -2.6826 1.8629 0
M  V30 5786 H 531.976 -1.25297 3.44523 0
M  V30 5787 H 531.624 -3.72809 3.37672 0
M  V30 5788 H 531.324 -3.07538 5.00694 0
M  V30 5789 H 532.848 -3.94205 4.66299 0
M  V30 5790 H 534.262 -1.80783 5.4405 0
M  V30 5791 H 532.659 -1.1558 5.88864 0
M  V30 5792 H 533.729 -0.202692 4.84476 0
M  V30 5793 N 535.072 -1.5615 -0.213296 0
M  V30 5794 C 535.982 -1.96265 -1.28519 0
M  V30 5795 C 536.998 -0.86765 -1.50824 0
M  V30 5796 O 538.174 -1.17191 -1.63793 0
M  V30 5797 C 535.239 -2.27836 -2.61327 0
M  V30 5798 C 534.3 -3.50949 -2.47252 0
M  V30 5799 C 533.533 -3.81004 -3.73727 0
M  V30 5800 O 533.756 -3.12612 -4.77106 0
M  V30 5801 O 532.69 -4.74477 -3.70344 0
M  V30 5802 H 536.516 -2.87631 -0.974795 0
M  V30 5803 H 534.101 -1.43467 -0.416832 0
M  V30 5804 H 535.983 -2.49299 -3.39747 0
M  V30 5805 H 534.658 -1.39643 -2.9203 0
M  V30 5806 H 533.565 -3.34754 -1.67004 0
M  V30 5807 H 534.898 -4.39551 -2.21486 0
M  V30 5808 N 536.55 0.480323 -1.50102 0
M  V30 5809 C 537.775 1.26126 -1.64642 0
M  V30 5810 C 538.2 1.85257 -0.325823 0
M  V30 5811 O 537.558 1.66854 0.709194 0
M  V30 5812 C 537.606 2.35243 -2.73301 0
M  V30 5813 O 536.71 3.39646 -2.33911 0
M  V30 5814 H 536.051 0.371463 -0.550374 0
M  V30 5815 H 538.581 0.572696 -1.96421 0
M  V30 5816 H 538.591 2.80695 -2.96098 0
M  V30 5817 H 537.266 1.91574 -3.6915 0
M  V30 5818 H 535.843 2.99969 -2.21525 0
M  V30 5819 N 538.028 1.39524 0.732853 0
M  V30 5820 C 539.253 1.40329 1.52717 0
M  V30 5821 C 539.678 0.000286574 1.881 0
M  V30 5822 O 539.036 -0.987262 1.52062 0
M  V30 5823 C 539.084 2.28464 2.78992 0
M  V30 5824 O 538.188 1.716 3.75003 0
M  V30 5825 H 537.529 0.47778 0.461109 0
M  V30 5826 H 540.059 1.83546 0.903996 0
M  V30 5827 H 540.069 2.43051 3.27705 0
M  V30 5828 H 538.744 3.30425 2.52572 0
M  V30 5829 H 537.321 1.66267 3.33781 0
M  V30 5830 N 539.506 -0.963266 1.24736 0
M  V30 5831 C 540.917 -1.52145 1.08207 0
M  V30 5832 C 541.268 -1.93142 -0.345061 0
M  V30 5833 O 540.393 -1.77769 -1.23399 0
M  V30 5834 C 540.988 -2.76486 1.95808 0
M  V30 5835 C 539.547 -3.28646 1.8349 0
M  V30 5836 C 538.694 -2.01529 1.90476 0
M  V30 5837 H 541.645 -0.781083 1.38148 0
M  V30 5838 H 541.666 -3.49986 1.49297 0
M  V30 5839 H 541.178 -2.46617 2.99669 0
M  V30 5840 H 539.279 -3.63357 0.824787 0
M  V30 5841 H 539.392 -3.97246 2.67829 0
M  V30 5842 H 537.756 -2.16442 1.34258 0
M  V30 5843 H 538.539 -1.7402 2.95926 0
M  V30 5844 N 540.985 -1.06182 -1.16461 0
M  V30 5845 C 541.915 -0.692861 -2.22984 0
M  V30 5846 C 542.896 0.314122 -1.67174 0
M  V30 5847 O 544.081 0.189499 -1.93273 0
M  V30 5848 C 541.211 -0.07732 -3.47214 0
M  V30 5849 C 540.165 -1.01015 -4.15909 0
M  V30 5850 C 539.491 -0.257973 -5.34077 0
M  V30 5851 C 540.791 -2.33868 -4.67015 0
M  V30 5852 H 542.485 -1.58343 -2.54102 0
M  V30 5853 H 540.031 -0.76279 -1.22137 0
M  V30 5854 H 541.984 0.19266 -4.20959 0
M  V30 5855 H 540.708 0.848254 -3.15392 0
M  V30 5856 H 539.367 -1.26486 -3.44088 0
M  V30 5857 H 539.015 0.670684 -4.98509 0
M  V30 5858 H 538.715 -0.879638 -5.80979 0
M  V30 5859 H 540.239 0.00448788 -6.106 0
M  V30 5860 H 541.653 -2.1279 -5.32347 0
M  V30 5861 H 540.05 -2.91522 -5.24533 0
M  V30 5862 H 541.12 -2.97019 -3.83286 0
M  V30 5863 N 542.463 1.3308 -0.844243 0
M  V30 5864 C 543.688 2.02341 -0.455282 0
M  V30 5865 C 544.113 1.6308 0.93737 0
M  V30 5866 O 543.471 0.826118 1.61385 0
M  V30 5867 C 543.519 3.55743 -0.58988 0
M  V30 5868 O 542.623 4.1063 0.38166 0
M  V30 5869 H 541.964 0.637898 -0.184343 0
M  V30 5870 H 544.494 1.6986 -1.14056 0
M  V30 5871 H 544.504 4.05243 -0.473522 0
M  V30 5872 H 543.179 3.83662 -1.60549 0
M  V30 5873 H 541.756 3.72236 0.22241 0
M  V30 5874 N 543.941 0.601185 1.45683 0
M  V30 5875 C 545.357 0.264315 1.57396 0
M  V30 5876 C 545.557 -1.23324 1.59353 0
M  V30 5877 O 544.613 -2.01594 1.52039 0
M  V30 5878 C 545.926 0.929839 2.85962 0
M  V30 5879 C 547.474 0.905156 2.99626 0
M  V30 5880 C 547.949 1.55057 4.30954 0
M  V30 5881 N 549.44 1.51576 4.37697 0
M  V30 5882 C 550.175 1.98436 5.37969 0
M  V30 5883 N 549.671 2.53352 6.44813 0
M  V30 5884 N 551.464 1.89242 5.29286 0
M  V30 5885 H 543.615 1.57363 1.42656 0
M  V30 5886 H 545.878 0.658831 0.681649 0
M  V30 5887 H 545.584 1.98404 2.90394 0
M  V30 5888 H 545.458 0.449224 3.74515 0
M  V30 5889 H 547.845 -0.14048 2.94765 0
M  V30 5890 H 547.926 1.42397 2.12501 0
M  V30 5891 H 547.57 2.5955 4.36573 0
M  V30 5892 H 547.5 1.00682 5.16886 0
M  V30 5893 H 549.991 1.11452 3.61091 0
M  V30 5894 H 550.304 2.86918 7.17564 0
M  V30 5895 H 548.649 2.57388 6.45582 0
M  V30 5896 H 551.84 1.46083 4.44722 0
M  V30 5897 H 552.013 2.26075 6.07284 0
M  V30 5898 N 545.419 -1.53889 0.339982 0
M  V30 5899 C 546.668 -2.00035 -0.258604 0
M  V30 5900 C 546.981 -1.23179 -1.51942 0
M  V30 5901 O 548.187 -1.59784 -2.19503 0
M  V30 5902 C 546.643 -3.56249 -0.511359 0
M  V30 5903 C 546.251 -4.41957 0.733349 0
M  V30 5904 C 547.995 -4.1082 -1.069 0
M  V30 5905 C 545.902 -5.89673 0.451591 0
M  V30 5906 H 544.832 -0.747284 -0.10041 0
M  V30 5907 H 547.483 -1.77776 0.454758 0
M  V30 5908 H 545.865 -3.7456 -1.28533 0
M  V30 5909 H 547.039 -4.35421 1.50815 0
M  V30 5910 H 545.354 -3.9836 1.21237 0
M  V30 5911 H 547.951 -5.18789 -1.2947 0
M  V30 5912 H 548.294 -3.63817 -2.02343 0
M  V30 5913 H 548.827 -3.96205 -0.355817 0
M  V30 5914 H 545.566 -6.40903 1.37565 0
M  V30 5915 H 545.086 -5.99122 -0.285193 0
M  V30 5916 H 546.765 -6.46965 0.0675067 0
M  V30 5917 N 546.897 -0.0685191 -1.57451 0
M  V30 5918 C 548.146 0.600898 -1.92541 0
M  V30 5919 C 548.459 1.70967 -0.950239 0
M  V30 5920 O 549.665 2.43844 -1.19384 0
M  V30 5921 C 548.121 1.12019 -3.42023 0
M  V30 5922 C 547.729 0.0426028 -4.4798 0
M  V30 5923 C 549.473 1.76386 -3.86119 0
M  V30 5924 C 547.38 0.575759 -5.88591 0
M  V30 5925 H 546.31 0.228225 -0.71863 0
M  V30 5926 H 548.961 -0.140223 -1.82963 0
M  V30 5927 H 547.343 1.91418 -3.46663 0
M  V30 5928 H 548.517 -0.73182 -4.54952 0
M  V30 5929 H 546.832 -0.504642 -4.13331 0
M  V30 5930 H 549.429 2.17302 -4.88553 0
M  V30 5931 H 549.772 2.62255 -3.23308 0
M  V30 5932 H 550.305 1.03615 -3.84069 0
M  V30 5933 H 547.044 -0.245691 -6.55039 0
M  V30 5934 H 546.564 1.31778 -5.85145 0
M  V30 5935 H 548.243 1.0532 -6.3837 0
M  V30 5936 N 548.375 1.56261 0.205012 0
M  V30 5937 C 549.621 1.81211 0.923805 0
M  V30 5938 C 549.976 0.644065 1.813 0
M  V30 5939 O 549.269 -0.361208 1.88164 0
M  V30 5940 C 549.463 3.09722 1.78345 0
M  V30 5941 C 549.292 4.38915 0.978979 0
M  V30 5942 C 548.062 5.00874 0.667332 0
M  V30 5943 C 550.26 5.13199 0.336386 0
M  V30 5944 N 548.242 6.137 -0.156814 0
M  V30 5945 C 549.613 6.19009 -0.350402 0
M  V30 5946 C 551.668 4.97266 0.251101 0
M  V30 5947 C 550.371 7.10616 -1.11434 0
M  V30 5948 C 552.397 5.89288 -0.499413 0
M  V30 5949 C 551.759 6.94536 -1.17468 0
M  V30 5950 H 547.858 0.714528 0.317764 0
M  V30 5951 H 550.442 1.93738 0.193317 0
M  V30 5952 H 548.613 2.98448 2.48563 0
M  V30 5953 H 550.345 3.22798 2.44098 0
M  V30 5954 H 547.1 4.63151 0.989366 0
M  V30 5955 H 547.524 6.74695 -0.558206 0
M  V30 5956 H 552.166 4.15935 0.758823 0
M  V30 5957 H 549.884 7.91417 -1.63353 0
M  V30 5958 H 553.47 5.79034 -0.566627 0
M  V30 5959 H 552.35 7.64513 -1.74613 0
M  V30 5960 N 549.853 -0.472356 1.50355 0
M  V30 5961 C 550.8 -1.57051 1.69126 0
M  V30 5962 C 551.77 -1.5733 0.532574 0
M  V30 5963 O 552.955 -1.7488 0.762994 0
M  V30 5964 C 550.095 -2.95033 1.79024 0
M  V30 5965 C 549.208 -3.04552 3.06386 0
M  V30 5966 C 548.343 -4.33441 3.07087 0
M  V30 5967 C 547.382 -4.36697 4.28908 0
M  V30 5968 N 546.519 -5.57056 4.27356 0
M  V30 5969 H 551.359 -1.40351 2.62879 0
M  V30 5970 H 548.896 -0.682403 1.30314 0
M  V30 5971 H 550.854 -3.75048 1.82744 0
M  V30 5972 H 549.484 -3.10371 0.887109 0
M  V30 5973 H 548.536 -2.17419 3.12143 0
M  V30 5974 H 549.848 -3.02818 3.96362 0
M  V30 5975 H 549.002 -5.21801 3.09529 0
M  V30 5976 H 547.741 -4.37782 2.14939 0
M  V30 5977 H 546.746 -3.46734 4.2668 0
M  V30 5978 H 547.971 -4.34049 5.22282 0
M  V30 5979 H 545.917 -5.62184 3.3806 0
M  V30 5980 H 545.834 -5.57058 5.111 0
M  V30 5981 H 547.102 -6.47545 4.33942 0
M  V30 5982 N 551.331 -1.39911 -0.725443 0
M  V30 5983 C 552.294 -1.39156 -1.82121 0
M  V30 5984 C 553.294 -0.287018 -1.58218 0
M  V30 5985 O 554.484 -0.545421 -1.65441 0
M  V30 5986 C 551.616 -1.1736 -3.20062 0
M  V30 5987 H 552.809 -2.36672 -1.84191 0
M  V30 5988 H 550.362 -1.25615 -0.930079 0
M  V30 5989 H 551.097 -0.205648 -3.23647 0
M  V30 5990 H 550.882 -1.97358 -3.3881 0
M  V30 5991 H 552.372 -1.19596 -4.00108 0
M  V30 5992 N 552.809 0.956637 -1.25245 0
M  V30 5993 C 553.739 2.07058 -1.07931 0
M  V30 5994 C 554.72 1.70096 0.0110361 0
M  V30 5995 O 555.905 1.93555 -0.158121 0
M  V30 5996 C 553.035 3.40272 -0.695124 0
M  V30 5997 C 551.989 3.91235 -1.73549 0
M  V30 5998 C 551.315 5.20921 -1.20604 0
M  V30 5999 C 552.615 4.17837 -3.13385 0
M  V30 6000 H 554.309 2.218 -2.01109 0
M  V30 6001 H 551.855 1.06581 -0.968326 0
M  V30 6002 H 553.808 4.1765 -0.560949 0
M  V30 6003 H 552.532 3.25462 0.272355 0
M  V30 6004 H 551.191 3.16025 -1.85807 0
M  V30 6005 H 550.839 5.02479 -0.228846 0
M  V30 6006 H 550.539 5.55987 -1.90136 0
M  V30 6007 H 552.063 6.00897 -1.08421 0
M  V30 6008 H 553.477 4.8588 -3.04292 0
M  V30 6009 H 551.874 4.64154 -3.80369 0
M  V30 6010 H 552.944 3.2419 -3.60595 0
M  V30 6011 N 554.287 1.06798 1.15896 0
M  V30 6012 C 555.234 0.683314 2.20453 0
M  V30 6013 C 556.204 -0.32255 1.62938 0
M  V30 6014 O 557.389 -0.210276 1.89638 0
M  V30 6015 C 554.529 0.0813266 3.45004 0
M  V30 6016 C 553.642 1.13799 4.16742 0
M  V30 6017 C 552.777 0.501598 5.28826 0
M  V30 6018 C 551.816 1.54144 5.92373 0
M  V30 6019 N 550.953 0.928038 6.9594 0
M  V30 6020 H 555.793 1.57932 2.52708 0
M  V30 6021 H 553.33 0.789544 1.24115 0
M  V30 6022 H 555.288 -0.285274 4.16224 0
M  V30 6023 H 553.918 -0.77806 3.13283 0
M  V30 6024 H 552.97 1.62223 3.44075 0
M  V30 6025 H 554.282 1.92664 4.60089 0
M  V30 6026 H 553.436 0.0823162 6.06644 0
M  V30 6027 H 552.175 -0.318883 4.86656 0
M  V30 6028 H 551.18 1.97056 5.13273 0
M  V30 6029 H 552.405 2.3641 6.36621 0
M  V30 6030 H 550.351 0.12836 6.55874 0
M  V30 6031 H 550.268 1.65401 7.37685 0
M  V30 6032 H 551.536 0.534071 7.77668 0
M  V30 6033 N 555.766 -1.3263 0.851289 0
M  V30 6034 C 557.177 -1.79653 0.5081 0
M  V30 6035 C 557.528 -1.70327 -0.973815 0
M  V30 6036 O 556.653 -1.25986 -1.75944 0
M  V30 6037 C 557.248 -3.26196 0.915515 0
M  V30 6038 C 555.807 -3.71187 0.624277 0
M  V30 6039 C 554.954 -2.53804 1.11709 0
M  V30 6040 H 557.905 -1.19976 1.03882 0
M  V30 6041 H 557.926 -3.79801 0.230535 0
M  V30 6042 H 557.438 -3.32952 1.99411 0
M  V30 6043 H 555.539 -3.69948 -0.443737 0
M  V30 6044 H 555.652 -4.64132 1.18821 0
M  V30 6045 H 554.016 -2.48964 0.537484 0
M  V30 6046 H 554.799 -2.63315 2.20272 0
M  V30 6047 N 557.244 -0.608902 -1.45362 0
M  V30 6048 C 558.174 0.0964526 -2.33301 0
M  V30 6049 C 559.155 0.857444 -1.46908 0
M  V30 6050 O 560.34 0.827735 -1.75676 0
M  V30 6051 C 557.47 1.09354 -3.29635 0
M  V30 6052 C 556.424 0.445676 -4.25673 0
M  V30 6053 C 555.75 1.5511 -5.11708 0
M  V30 6054 C 557.05 -0.633972 -5.18438 0
M  V30 6055 H 558.744 -0.637829 -2.92527 0
M  V30 6056 H 556.29 -0.308178 -1.40664 0
M  V30 6057 H 558.243 1.59556 -3.90025 0
M  V30 6058 H 556.967 1.85843 -2.6857 0
M  V30 6059 H 555.626 -0.0354897 -3.66583 0
M  V30 6060 H 555.274 2.30631 -4.4701 0
M  V30 6061 H 554.974 1.12311 -5.76767 0
M  V30 6062 H 556.498 2.05537 -5.74967 0
M  V30 6063 H 557.912 -0.215974 -5.72893 0
M  V30 6064 H 556.309 -0.983789 -5.91981 0
M  V30 6065 H 557.379 -1.51005 -4.60788 0
M  V30 6066 N 558.722 1.53707 -0.348139 0
M  V30 6067 C 559.652 2.28111 0.498766 0
M  V30 6068 C 560.633 1.29851 1.09876 0
M  V30 6069 O 561.818 1.587 1.11928 0
M  V30 6070 C 558.948 3.05735 1.64753 0
M  V30 6071 C 557.902 4.11537 1.17565 0
M  V30 6072 C 557.228 4.77142 2.4133 0
M  V30 6073 C 558.528 5.21587 0.272844 0
M  V30 6074 H 560.222 2.99152 -0.121934 0
M  V30 6075 H 557.768 1.43875 -0.0600842 0
M  V30 6076 H 559.721 3.56526 2.24649 0
M  V30 6077 H 558.445 2.32354 2.2952 0
M  V30 6078 H 557.104 3.61665 0.599483 0
M  V30 6079 H 556.752 4.0035 3.04514 0
M  V30 6080 H 556.452 5.48626 2.10436 0
M  V30 6081 H 557.976 5.30719 3.01943 0
M  V30 6082 H 559.39 5.67986 0.778779 0
M  V30 6083 H 557.787 6.00074 0.0555849 0
M  V30 6084 H 558.857 4.79969 -0.689785 0
M  V30 6085 N 560.2 0.0768682 1.57412 0
M  V30 6086 C 561.446 -0.591961 1.93968 0
M  V30 6087 C 561.779 -1.68954 0.9575 0
M  V30 6088 O 561.054 -1.94496 -0.0124675 0
M  V30 6089 C 561.337 -1.16418 3.40762 0
M  V30 6090 C 561.19 -0.0728933 4.49741 0
M  V30 6091 C 562.509 -2.06814 3.88479 0
M  V30 6092 H 559.628 -0.213716 0.705333 0
M  V30 6093 H 562.27 0.14387 1.89455 0
M  V30 6094 H 560.42 -1.79128 3.4474 0
M  V30 6095 H 562.092 0.560446 4.57883 0
M  V30 6096 H 560.335 0.595859 4.29688 0
M  V30 6097 H 561.006 -0.513755 5.49604 0
M  V30 6098 H 563.482 -1.54033 3.8654 0
M  V30 6099 H 562.358 -2.43785 4.91793 0
M  V30 6100 H 562.619 -2.97844 3.26713 0
M  V30 6101 N 561.678 -1.56367 -0.196722 0
M  V30 6102 C 562.926 -1.80172 -0.915554 0
M  V30 6103 C 563.247 -0.649649 -1.8386 0
M  V30 6104 O 562.517 0.332111 -1.93064 0
M  V30 6105 H 561.097 -0.664592 -0.341067 0
M  V30 6106 H 563.759 -1.93844 -0.202622 0
M  V30 6107 H 562.855 -2.7327 -1.50764 0
M  V30 6108 N 563.156 0.464375 -1.50603 0
M  V30 6109 C 564.103 1.56152 -1.69956 0
M  V30 6110 C 565.073 1.57046 -0.54091 0
M  V30 6111 O 566.258 1.74473 -0.772258 0
M  V30 6112 C 563.398 2.94079 -1.80586 0
M  V30 6113 C 562.511 3.02923 -3.07996 0
M  V30 6114 C 561.646 4.31806 -3.09382 0
M  V30 6115 C 560.685 4.34417 -4.31218 0
M  V30 6116 N 559.822 5.54782 -4.30304 0
M  V30 6117 H 564.662 1.38955 -2.6362 0
M  V30 6118 H 562.199 0.675482 -1.30674 0
M  V30 6119 H 564.157 3.74073 -1.8473 0
M  V30 6120 H 562.787 3.09896 -0.903556 0
M  V30 6121 H 561.839 2.1576 -3.13292 0
M  V30 6122 H 563.151 3.00712 -3.97962 0
M  V30 6123 H 562.305 5.20153 -3.12292 0
M  V30 6124 H 561.044 4.36636 -2.17257 0
M  V30 6125 H 560.049 3.44467 -4.28512 0
M  V30 6126 H 561.274 4.31273 -5.24576 0
M  V30 6127 H 559.22 5.60384 -3.41037 0
M  V30 6128 H 559.137 5.54339 -5.14047 0
M  V30 6129 H 560.405 6.45235 -4.3737 0
M  V30 6130 N 564.634 1.40294 0.718013 0
M  V30 6131 C 565.883 1.37746 1.4734 0
M  V30 6132 C 566.196 -0.0180754 1.95592 0
M  V30 6133 O 567.402 -0.166166 2.70991 0
M  V30 6134 C 565.858 2.4208 2.66318 0
M  V30 6135 C 565.466 3.87432 2.24945 0
M  V30 6136 C 567.21 2.48635 3.44065 0
M  V30 6137 C 565.117 4.83368 3.40748 0
M  V30 6138 H 564.047 0.512165 0.553356 0
M  V30 6139 H 566.698 1.66019 0.781661 0
M  V30 6140 H 565.08 2.06903 3.3765 0
M  V30 6141 H 566.254 4.3174 1.6105 0
M  V30 6142 H 564.569 3.8433 1.60249 0
M  V30 6143 H 567.166 3.17499 4.30231 0
M  V30 6144 H 567.509 1.51611 3.87711 0
M  V30 6145 H 568.042 2.82791 2.79775 0
M  V30 6146 H 564.781 5.81716 3.02136 0
M  V30 6147 H 564.301 4.43726 4.03568 0
M  V30 6148 H 565.98 5.03074 4.06848 0
M  V30 6149 N 566.112 -0.949982 1.2575 0
M  V30 6150 C 567.042 -2.06483 1.09028 0
M  V30 6151 C 568.023 -1.701 -0.00201532 0
M  V30 6152 O 569.208 -1.93469 0.168383 0
M  V30 6153 C 566.338 -3.39899 0.71316 0
M  V30 6154 C 565.292 -3.90309 1.75621 0
M  V30 6155 C 564.618 -5.20274 1.23365 0
M  V30 6156 C 565.918 -4.16169 3.15596 0
M  V30 6157 H 567.612 -2.20731 2.02283 0
M  V30 6158 H 565.158 -1.06066 0.973964 0
M  V30 6159 H 567.111 -4.17346 0.58309 0
M  V30 6160 H 565.835 -3.25602 -0.255091 0
M  V30 6161 H 564.494 -3.15035 1.8748 0
M  V30 6162 H 564.142 -5.02351 0.255491 0
M  V30 6163 H 563.842 -5.54971 1.93082 0
M  V30 6164 H 565.366 -6.00314 1.11607 0
M  V30 6165 H 566.78 -4.84259 3.06864 0
M  V30 6166 H 565.177 -4.62131 3.82825 0
M  V30 6167 H 566.247 -3.22273 3.6231 0
M  V30 6168 N 567.59 -1.07411 -1.15328 0
M  V30 6169 C 568.82 -0.817595 -1.89734 0
M  V30 6170 C 569.228 0.63297 -1.78298 0
M  V30 6171 O 568.571 1.44594 -1.13306 0
M  V30 6172 C 568.633 -1.14748 -3.40695 0
M  V30 6173 C 568.297 -2.59876 -3.75917 0
M  V30 6174 C 569.294 -3.58122 -3.76888 0
M  V30 6175 C 566.979 -2.95469 -4.06206 0
M  V30 6176 C 568.973 -4.89996 -4.07655 0
M  V30 6177 C 566.66 -4.2754 -4.36638 0
M  V30 6178 C 567.658 -5.24614 -4.37344 0
M  V30 6179 O 567.346 -6.54312 -4.67045 0
M  V30 6180 H 567.078 -0.295175 -0.608151 0
M  V30 6181 H 569.632 -1.43409 -1.47048 0
M  V30 6182 H 567.862 -0.47395 -3.83785 0
M  V30 6183 H 569.551 -0.873397 -3.96392 0
M  V30 6184 H 570.317 -3.31966 -3.53587 0
M  V30 6185 H 566.196 -2.20558 -4.04815 0
M  V30 6186 H 569.74 -5.65759 -4.08121 0
M  V30 6187 H 565.637 -4.53449 -4.59407 0
M  V30 6188 H 566.405 -6.59473 -4.84807 0
M  V30 6189 N 569.068 1.32177 -0.85831 0
M  V30 6190 C 570.296 2.01313 -0.477582 0
M  V30 6191 C 570.711 1.6449 0.926736 0
M  V30 6192 O 570.068 0.868096 1.60531 0
M  V30 6193 C 570.119 3.56293 -0.611337 0
M  V30 6194 O 569.84 3.91794 -1.96034 0
M  V30 6195 C 571.341 4.42702 -0.230093 0
M  V30 6196 H 568.561 0.644323 -0.187322 0
M  V30 6197 H 571.105 1.68674 -1.15626 0
M  V30 6198 H 569.26 3.87395 0.0196494 0
M  V30 6199 H 569.674 4.86513 -1.95973 0
M  V30 6200 H 571.148 5.50727 -0.374674 0
M  V30 6201 H 571.625 4.3129 0.829779 0
M  V30 6202 H 572.231 4.16997 -0.836302 0
M  V30 6203 N 570.547 0.616602 1.45037 0
M  V30 6204 C 571.958 0.199359 1.85633 0
M  V30 6205 C 572.309 -1.24588 1.51566 0
M  V30 6206 O 571.434 -1.94594 0.94668 0
M  V30 6207 C 572.029 0.355033 3.36935 0
M  V30 6208 C 570.588 -0.00758748 3.76399 0
M  V30 6209 C 569.735 0.675256 2.68953 0
M  V30 6210 H 572.686 0.822708 1.3571 0
M  V30 6211 H 572.707 -0.410201 3.78282 0
M  V30 6212 H 572.219 1.40699 3.61698 0
M  V30 6213 H 570.32 -1.05837 3.57252 0
M  V30 6214 H 570.433 0.392346 4.77491 0
M  V30 6215 H 568.797 0.111992 2.54454 0
M  V30 6216 H 569.58 1.72952 2.96551 0
M  V30 6217 N 572.025 -1.5352 0.356285 0
M  V30 6218 C 573.302 -1.93405 -0.292223 0
M  V30 6219 C 573.682 -1.28901 -1.67176 0
M  V30 6220 O 573.03 -0.444632 -2.24132 0
M  V30 6221 C 573.24 -3.47223 -0.35175 0
M  V30 6222 C 574.588 -4.20389 -0.596534 0
M  V30 6223 O 575.612 -3.53554 -0.433344 0
M  V30 6224 O 574.471 -5.3881 -0.913589 0
M  V30 6225 H 571.565 -0.808666 -0.173172 0
M  V30 6226 H 574.111 -1.64713 0.408391 0
M  V30 6227 H 572.883 -3.86423 0.615841 0
M  V30 6228 H 572.506 -3.8212 -1.09864 0
M  V30 6229 N 573.503 -0.0852151 -1.57369 0
M  V30 6230 C 574.731 0.58946 -1.98325 0
M  V30 6231 C 575.146 1.62333 -0.96403 0
M  V30 6232 O 574.503 1.82438 0.0476395 0
M  V30 6233 C 574.554 1.24604 -3.39347 0
M  V30 6234 O 574.275 0.253532 -4.37366 0
M  V30 6235 C 575.776 2.00726 -3.95252 0
M  V30 6236 H 572.996 0.158783 -0.651942 0
M  V30 6237 H 575.54 -0.161584 -2.03861 0
M  V30 6238 H 573.695 1.94808 -3.34856 0
M  V30 6239 H 574.109 0.726207 -5.19448 0
M  V30 6240 H 575.583 2.42039 -4.96106 0
M  V30 6241 H 576.06 2.86919 -3.32527 0
M  V30 6242 H 576.666 1.3536 -4.03185 0
M  V30 6243 N 574.981 1.5647 0.188427 0
M  V30 6244 C 576.392 1.70864 0.752494 0
M  V30 6245 C 576.743 0.692905 1.83557 0
M  V30 6246 O 575.868 -0.149307 2.15884 0
M  V30 6247 C 576.463 3.09789 1.37173 0
M  V30 6248 C 575.022 3.25925 1.88281 0
M  V30 6249 C 574.169 2.66817 0.755259 0
M  V30 6250 H 577.12 1.58657 -0.0367408 0
M  V30 6251 H 577.141 3.07489 2.24122 0
M  V30 6252 H 576.653 3.83693 0.583219 0
M  V30 6253 H 574.754 2.56948 2.6983 0
M  V30 6254 H 574.867 4.33498 2.04001 0
M  V30 6255 H 573.231 2.2617 1.17128 0
M  V30 6256 H 574.014 3.43294 -0.0211237 0
M  V30 6257 N 576.459 -0.456382 1.50847 0
M  V30 6258 C 577.422 -1.53493 1.70213 0
M  V30 6259 C 578.422 -1.50264 0.572481 0
M  V30 6260 O 579.612 -1.52623 0.839751 0
M  V30 6261 C 576.744 -2.93091 1.741 0
M  V30 6262 H 577.937 -1.37633 2.66453 0
M  V30 6263 H 575.49 -0.683776 1.4055 0
M  V30 6264 H 576.225 -3.14378 0.796063 0
M  V30 6265 H 576.01 -2.9684 2.5618 0
M  V30 6266 H 577.5 -3.71368 1.90987 0
M  V30 6267 N 577.937 -1.40673 -0.710563 0
M  V30 6268 C 579.165 -1.42547 -1.4996 0
M  V30 6269 C 579.58 -0.0265485 -1.88781 0
M  V30 6270 O 578.937 0.950694 -1.55782 0
M  V30 6271 C 578.988 -2.32071 -2.77173 0
M  V30 6272 O 578.709 -3.66518 -2.39992 0
M  V30 6273 C 580.21 -2.42591 -3.71032 0
M  V30 6274 H 577.43 -0.486025 -0.462623 0
M  V30 6275 H 579.974 -1.84783 -0.876102 0
M  V30 6276 H 578.129 -1.93184 -3.35795 0
M  V30 6277 H 578.543 -4.14115 -3.21884 0
M  V30 6278 H 580.017 -3.09429 -4.57119 0
M  V30 6279 H 580.494 -1.4525 -4.14486 0
M  V30 6280 H 581.1 -2.82051 -3.18319 0
M  V30 6281 N 579.415 0.9433 -1.26252 0
M  V30 6282 C 580.831 1.21644 -1.03319 0
M  V30 6283 C 581.031 2.0003 0.242983 0
M  V30 6284 O 580.087 2.33838 0.952688 0
M  V30 6285 C 581.4 1.97978 -2.2633 0
M  V30 6286 C 582.948 2.10978 -2.31209 0
M  V30 6287 C 583.423 2.90713 -3.53907 0
M  V30 6288 N 584.914 2.98287 -3.54371 0
M  V30 6289 C 585.649 3.60406 -4.45976 0
M  V30 6290 N 585.145 4.24043 -5.47868 0
M  V30 6291 N 586.938 3.57658 -4.33633 0
M  V30 6292 H 579.089 0.419221 -2.08222 0
M  V30 6293 H 581.352 0.247995 -0.914988 0
M  V30 6294 H 581.058 1.47788 -3.19142 0
M  V30 6295 H 580.932 2.9865 -2.30408 0
M  V30 6296 H 583.319 2.6036 -1.38913 0
M  V30 6297 H 583.4 1.09575 -2.31143 0
M  V30 6298 H 583.044 2.42018 -4.46531 0
M  V30 6299 H 582.974 3.92367 -3.5122 0
M  V30 6300 H 585.465 2.53044 -2.80673 0
M  V30 6301 H 585.778 4.69334 -6.13959 0
M  V30 6302 H 584.123 4.22637 -5.51728 0
M  V30 6303 H 587.314 3.07134 -3.53251 0
M  V30 6304 H 587.487 4.05782 -5.05218 0
M  V30 6305 N 580.893 1.08022 1.14757 0
M  V30 6306 C 581.825 0.664566 2.19354 0
M  V30 6307 C 582.838 -0.286374 1.60261 0
M  V30 6308 O 584.027 -0.0746362 1.78344 0
M  V30 6309 C 581.127 -0.0434634 3.38872 0
M  V30 6310 C 580.3 0.925381 4.27499 0
M  V30 6311 C 579.359 0.253398 5.2559 0
M  V30 6312 O 578.385 0.896581 5.62094 0
M  V30 6313 N 579.587 -0.998263 5.71852 0
M  V30 6314 H 582.352 1.56438 2.55631 0
M  V30 6315 H 579.913 0.965788 1.29939 0
M  V30 6316 H 581.905 -0.503857 4.01551 0
M  V30 6317 H 580.475 -0.845321 3.00954 0
M  V30 6318 H 579.695 1.56472 3.61815 0
M  V30 6319 H 580.983 1.58203 4.8358 0
M  V30 6320 H 580.381 -1.54063 5.44317 0
M  V30 6321 H 578.938 -1.40222 6.36538 0
M  V30 6322 N 582.371 -1.3172 0.865308 0
M  V30 6323 C 583.617 -1.97168 0.474633 0
M  V30 6324 C 583.95 -1.68263 -0.969604 0
M  V30 6325 O 583.225 -0.976588 -1.68205 0
M  V30 6326 C 583.508 -3.52689 0.726808 0
M  V30 6327 C 583.361 -3.91185 2.22024 0
M  V30 6328 C 584.68 -4.39689 0.190201 0
M  V30 6329 H 581.799 -0.716185 0.17392 0
M  V30 6330 H 584.441 -1.55925 1.08569 0
M  V30 6331 H 582.591 -3.8795 0.206705 0
M  V30 6332 H 584.263 -3.66049 2.80724 0
M  V30 6333 H 582.506 -3.3996 2.69462 0
M  V30 6334 H 583.177 -4.99604 2.34735 0
M  V30 6335 H 585.653 -4.11225 0.635103 0
M  V30 6336 H 584.529 -5.47469 0.396132 0
M  V30 6337 H 584.79 -4.32683 -0.907625 0
M  V30 6338 N 583.85 -0.624285 -1.44708 0
M  V30 6339 C 584.783 0.133905 -2.27807 0
M  V30 6340 C 585.76 0.857794 -1.38133 0
M  V30 6341 O 586.945 0.863277 -1.6757 0
M  V30 6342 C 584.072 1.19541 -3.16903 0
M  V30 6343 C 583.118 0.572813 -4.22636 0
M  V30 6344 S 583.951 -0.631953 -5.31758 0
M  V30 6345 C 585.106 0.429733 -6.24423 0
M  V30 6346 H 585.34 -0.571072 -2.91764 0
M  V30 6347 H 582.873 -0.412261 -1.48794 0
M  V30 6348 H 584.831 1.80293 -3.68788 0
M  V30 6349 H 583.492 1.87255 -2.5218 0
M  V30 6350 H 582.685 1.37205 -4.84965 0
M  V30 6351 H 582.287 0.0400641 -3.73979 0
M  V30 6352 H 584.579 1.30421 -6.64828 0
M  V30 6353 H 585.522 -0.157804 -7.07924 0
M  V30 6354 H 585.93 0.75256 -5.59461 0
M  V30 6355 N 585.328 1.53329 -0.364422 0
M  V30 6356 C 586.291 2.24323 0.470292 0
M  V30 6357 C 587.291 1.25068 1.01067 0
M  V30 6358 O 588.481 1.49354 0.896605 0
M  V30 6359 C 585.613 2.97908 1.65722 0
M  V30 6360 H 586.806 2.9952 -0.150917 0
M  V30 6361 H 584.359 1.55868 -0.116092 0
M  V30 6362 H 585.094 2.2695 2.31655 0
M  V30 6363 H 584.879 3.70732 1.27671 0
M  V30 6364 H 586.369 3.5188 2.24878 0
M  V30 6365 N 586.806 0.0935595 1.57322 0
M  V30 6366 C 587.716 -0.880192 2.17462 0
M  V30 6367 C 588.732 -1.31135 1.14366 0
M  V30 6368 O 589.908 -1.37958 1.46729 0
M  V30 6369 C 586.973 -2.12184 2.74188 0
M  V30 6370 C 586.034 -1.74503 3.92234 0
M  V30 6371 C 585.267 -2.92748 4.46245 0
M  V30 6372 O 585.49 -4.07427 3.99198 0
M  V30 6373 O 584.424 -2.71303 5.37288 0
M  V30 6374 H 588.25 -0.398516 3.01074 0
M  V30 6375 H 585.835 -0.130707 1.48827 0
M  V30 6376 H 587.717 -2.84953 3.10451 0
M  V30 6377 H 586.392 -2.59407 1.93623 0
M  V30 6378 H 585.299 -0.989186 3.60785 0
M  V30 6379 H 586.632 -1.32044 4.74157 0
M  V30 6380 N 588.284 -1.56567 -0.180126 0
M  V30 6381 C 589.53 -1.81761 -0.899497 0
M  V30 6382 C 589.863 -0.670015 -1.82276 0
M  V30 6383 O 589.138 0.328575 -1.91705 0
M  V30 6384 C 589.421 -3.17296 -1.7028 0
M  V30 6385 C 589.274 -4.4257 -0.803255 0
M  V30 6386 C 590.593 -3.49678 -2.67233 0
M  V30 6387 H 587.712 -0.661192 -0.325567 0
M  V30 6388 H 590.354 -1.89272 -0.16612 0
M  V30 6389 H 588.504 -3.11023 -2.32802 0
M  V30 6390 H 590.176 -4.60902 -0.191585 0
M  V30 6391 H 588.419 -4.33658 -0.110796 0
M  V30 6392 H 589.09 -5.33935 -1.40064 0
M  V30 6393 H 591.566 -3.56347 -2.14839 0
M  V30 6394 H 590.442 -4.45605 -3.20511 0
M  V30 6395 H 590.703 -2.73932 -3.47007 0
M  V30 6396 N 589.762 0.448376 -1.51087 0
M  V30 6397 C 590.71 1.56407 -1.72161 0
M  V30 6398 C 591.704 1.58878 -0.587721 0
M  V30 6399 O 592.91 1.62755 -0.768822 0
M  V30 6400 H 589.285 0.519423 -0.543786 0
M  V30 6401 H 591.256 1.35803 -2.65707 0
M  V30 6402 C 590.005 2.94163 -1.85373 0
M  V30 6403 H 589.328 2.9299 -2.72024 0
M  V30 6404 H 590.768 3.71625 -2.04135 0
M  V30 6405 C 589.227 3.31317 -0.610803 0
M  V30 6406 O 589.757 4.00985 0.239636 0
M  V30 6407 N 587.963 2.86966 -0.458127 0
M  V30 6408 H 587.51 2.30443 -1.15124 0
M  V30 6409 H 587.468 3.12188 0.372289 0
M  V30 6410 N 591.24 1.41047 0.703093 0
M  V30 6411 C 592.187 1.42302 1.81711 0
M  V30 6412 C 593.157 0.278336 1.63751 0
M  V30 6413 O 594.342 0.478266 1.84709 0
M  V30 6414 C 591.482 1.30362 3.19531 0
M  V30 6415 C 590.595 2.54638 3.48975 0
M  V30 6416 C 589.73 2.35047 4.76368 0
M  V30 6417 C 588.769 3.54837 4.98756 0
M  V30 6418 N 587.906 3.34363 6.1737 0
M  V30 6419 H 592.746 2.37516 1.79973 0
M  V30 6420 H 590.283 1.1795 0.878983 0
M  V30 6421 H 592.241 1.21443 3.99134 0
M  V30 6422 H 590.871 0.387602 3.20464 0
M  V30 6423 H 589.923 2.74037 2.63833 0
M  V30 6424 H 591.235 3.43766 3.61423 0
M  V30 6425 H 590.389 2.23552 5.64012 0
M  V30 6426 H 589.128 1.43363 4.66153 0
M  V30 6427 H 588.133 3.66795 4.09563 0
M  V30 6428 H 589.358 4.47464 5.10835 0
M  V30 6429 H 587.304 2.45373 6.08382 0
M  V30 6430 H 587.221 4.17063 6.30551 0
M  V30 6431 H 588.489 3.26626 7.07768 0
M  V30 6432 N 592.718 -0.936591 1.26751 0
M  V30 6433 C 593.946 -1.71758 1.15355 0
M  V30 6434 C 594.361 -1.86549 -0.290683 0
M  V30 6435 O 593.718 -1.37616 -1.19868 0
M  V30 6436 C 593.769 -3.12193 1.82258 0
M  V30 6437 O 593.49 -2.98105 3.21038 0
M  V30 6438 C 594.991 -4.06485 1.76875 0
M  V30 6439 H 592.211 -0.537636 0.401483 0
M  V30 6440 H 594.755 -1.17382 1.67457 0
M  V30 6441 H 592.91 -3.63456 1.34083 0
M  V30 6442 H 593.324 -3.86824 3.54214 0
M  V30 6443 H 594.798 -5.02569 2.28316 0
M  V30 6444 H 595.275 -4.32986 0.736216 0
M  V30 6445 H 595.881 -3.61144 2.24623 0
M  V30 6446 N 594.196 -1.08629 -1.14182 0
M  V30 6447 C 595.443 -0.817345 -1.85272 0
M  V30 6448 C 595.771 0.656917 -1.83071 0
M  V30 6449 O 595.026 1.49897 -1.25815 0
M  V30 6450 C 595.325 -1.28734 -3.3341 0
M  V30 6451 C 594.991 -2.76981 -3.55798 0
M  V30 6452 C 593.653 -3.17469 -3.61617 0
M  V30 6453 C 596.005 -3.72605 -3.64438 0
M  V30 6454 C 593.333 -4.52371 -3.736 0
M  V30 6455 C 595.685 -5.07286 -3.77947 0
M  V30 6456 C 594.349 -5.47376 -3.82016 0
M  V30 6457 H 593.619 -0.299088 -0.677958 0
M  V30 6458 H 596.266 -1.35962 -1.34857 0
M  V30 6459 H 594.571 -0.664702 -3.8612 0
M  V30 6460 H 596.268 -1.05598 -3.86846 0
M  V30 6461 H 592.858 -2.44644 -3.51919 0
M  V30 6462 H 597.042 -3.42443 -3.5923 0
M  V30 6463 H 592.298 -4.82882 -3.75013 0
M  V30 6464 H 596.472 -5.81243 -3.83575 0
M  V30 6465 H 594.099 -6.51906 -3.91054 0
M  V30 6466 N 595.674 1.31259 -0.872281 0
M  V30 6467 C 596.606 2.27396 -0.28697 0
M  V30 6468 C 597.619 1.53181 0.551297 0
M  V30 6469 O 598.808 1.74561 0.372914 0
M  V30 6470 C 595.908 3.33335 0.611617 0
M  V30 6471 C 595.081 4.36966 -0.194729 0
M  V30 6472 C 594.14 5.22387 0.632358 0
M  V30 6473 O 593.166 5.69169 0.0595691 0
M  V30 6474 N 594.368 5.46985 1.94391 0
M  V30 6475 H 597.133 2.78261 -1.11314 0
M  V30 6476 H 594.694 1.44306 -0.733994 0
M  V30 6477 H 596.686 3.87398 1.17068 0
M  V30 6478 H 595.256 2.82496 1.33846 0
M  V30 6479 H 594.476 3.82945 -0.935241 0
M  V30 6480 H 595.764 5.03273 -0.747935 0
M  V30 6481 H 595.162 5.10737 2.43237 0
M  V30 6482 H 593.719 6.03973 2.45071 0
M  V30 6483 N 597.152 0.631951 1.44375 0
M  V30 6484 C 598.062 -0.073674 2.34484 0
M  V30 6485 C 599.078 -0.834825 1.52665 0
M  V30 6486 O 600.254 -0.786902 1.85391 0
M  V30 6487 C 597.319 -1.04247 3.30656 0
M  V30 6488 C 596.38 -0.280602 4.28382 0
M  V30 6489 C 595.613 -1.20325 5.19959 0
M  V30 6490 O 595.836 -2.44199 5.15484 0
M  V30 6491 O 594.77 -0.687128 5.97965 0
M  V30 6492 H 598.596 0.667477 2.96274 0
M  V30 6493 H 596.181 0.392144 1.44162 0
M  V30 6494 H 598.063 -1.59981 3.89851 0
M  V30 6495 H 596.738 -1.76422 2.71398 0
M  V30 6496 H 595.645 0.319804 3.72731 0
M  V30 6497 H 596.978 0.401144 4.90563 0
M  V30 6498 N 598.631 -1.53133 0.372548 0
M  V30 6499 C 599.561 -2.28876 -0.462412 0
M  V30 6500 C 600.542 -1.31583 -1.07796 0
M  V30 6501 O 601.727 -1.60461 -1.09389 0
M  V30 6502 C 598.857 -3.08317 -1.59868 0
M  V30 6503 C 597.811 -4.13355 -1.11003 0
M  V30 6504 C 597.137 -4.8092 -2.33708 0
M  V30 6505 C 598.437 -5.21955 -0.18983 0
M  V30 6506 H 600.131 -2.9892 0.169511 0
M  V30 6507 H 597.677 -1.43761 0.0829658 0
M  V30 6508 H 599.63 -3.60055 -2.18949 0
M  V30 6509 H 598.354 -2.35976 -2.25794 0
M  V30 6510 H 597.013 -3.62573 -0.541869 0
M  V30 6511 H 596.661 -4.05144 -2.98106 0
M  V30 6512 H 596.361 -5.51904 -2.01682 0
M  V30 6513 H 597.885 -5.35455 -2.93462 0
M  V30 6514 H 599.299 -5.69153 -0.688319 0
M  V30 6515 H 597.696 -6.00087 0.0398887 0
M  V30 6516 H 598.766 -4.78811 0.766057 0
M  V30 6517 N 600.109 -0.101901 -1.5727 0
M  V30 6518 C 601.072 0.840129 -2.13247 0
M  V30 6519 C 602.072 1.20625 -1.06331 0
M  V30 6520 O 603.262 1.13456 -1.32186 0
M  V30 6521 C 600.394 2.13372 -2.65867 0
M  V30 6522 H 601.587 0.353945 -2.97804 0
M  V30 6523 H 599.14 0.147167 -1.55606 0
M  V30 6524 H 599.875 2.66461 -1.84849 0
M  V30 6525 H 599.66 1.88085 -3.44044 0
M  V30 6526 H 601.15 2.80748 -3.09145 0
M  V30 6527 N 601.587 1.56661 0.17182 0
M  V30 6528 C 602.833 1.82235 0.889845 0
M  V30 6529 C 603.166 0.679673 1.81918 0
M  V30 6530 O 602.441 -0.318404 1.91876 0
M  V30 6531 C 602.724 3.18195 1.68595 0
M  V30 6532 C 602.577 4.42989 0.779773 0
M  V30 6533 C 603.896 3.5109 2.65375 0
M  V30 6534 H 601.015 0.66291 0.322056 0
M  V30 6535 H 603.657 1.89358 0.15608 0
M  V30 6536 H 601.807 3.12253 2.3115 0
M  V30 6537 H 603.479 4.60997 0.16714 0
M  V30 6538 H 601.722 4.33711 0.0877964 0
M  V30 6539 H 602.393 5.3467 1.3723 0
M  V30 6540 H 604.869 3.57482 2.12946 0
M  V30 6541 H 603.745 4.47298 3.18144 0
M  V30 6542 H 604.006 2.75768 3.45549 0
M  V30 6543 N 603.065 -0.440357 1.51323 0
M  V30 6544 C 604.312 -1.19004 1.63842 0
M  V30 6545 C 604.64 -1.91266 0.35321 0
M  V30 6546 O 603.895 -1.84143 -0.662565 0
M  V30 6547 C 604.194 -2.2339 2.78984 0
M  V30 6548 C 603.86 -1.68162 4.18369 0
M  V30 6549 C 602.522 -1.52823 4.56288 0
M  V30 6550 C 604.874 -1.27524 5.05358 0
M  V30 6551 C 602.202 -0.953157 5.78906 0
M  V30 6552 C 604.554 -0.714474 6.28552 0
M  V30 6553 C 603.218 -0.547961 6.65247 0
M  V30 6554 H 602.488 -0.435468 0.59954 0
M  V30 6555 H 605.135 -0.481538 1.85347 0
M  V30 6556 H 603.44 -3.00267 2.51688 0
M  V30 6557 H 605.137 -2.81211 2.85869 0
M  V30 6558 H 601.727 -1.81077 3.8847 0
M  V30 6559 H 605.911 -1.38197 4.76671 0
M  V30 6560 H 601.167 -0.811882 6.05986 0
M  V30 6561 H 605.341 -0.391059 6.95301 0
M  V30 6562 H 602.968 -0.100222 7.60134 0
M  V30 6563 N 604.543 -1.41418 -0.695603 0
M  V30 6564 C 605.493 -1.39731 -1.80165 0
M  V30 6565 C 606.477 -0.271689 -1.5859 0
M  V30 6566 O 607.669 -0.512354 -1.69422 0
M  V30 6567 C 604.798 -1.28187 -3.1847 0
M  V30 6568 C 603.884 -2.45612 -3.45739 0
M  V30 6569 N 604.275 -3.71077 -3.43708 0
M  V30 6570 C 602.573 -2.39424 -3.76288 0
M  V30 6571 C 603.274 -4.48957 -3.69882 0
M  V30 6572 N 602.25 -3.7907 -3.89624 0
M  V30 6573 H 606.052 -2.34656 -1.76957 0
M  V30 6574 H 603.566 -1.35473 -0.89559 0
M  V30 6575 H 605.563 -1.2506 -3.977 0
M  V30 6576 H 604.223 -0.342468 -3.22889 0
M  V30 6577 H 605.234 -4.03963 -3.2409 0
M  V30 6578 H 601.911 -1.53955 -3.88077 0
M  V30 6579 H 603.301 -5.57887 -3.74448 0
M  V30 6580 N 606.021 0.929856 -1.27246 0
M  V30 6581 C 607.298 1.65544 -1.04186 0
M  V30 6582 C 607.678 2.06796 0.424097 0
M  V30 6583 O 607.026 1.80053 1.40688 0
M  V30 6584 C 607.236 2.85912 -2.00138 0
M  V30 6585 C 608.584 3.57305 -2.29387 0
M  V30 6586 O 609.608 2.96036 -1.98094 0
M  V30 6587 O 608.467 4.67688 -2.82719 0
M  V30 6588 H 605.561 0.725473 -0.397011 0
M  V30 6589 H 608.107 0.980583 -1.38501 0
M  V30 6590 H 606.879 2.52403 -2.99013 0
M  V30 6591 H 606.502 3.61118 -1.66371 0
M  V30 6592 N 607.499 1.09233 1.13605 0
M  V30 6593 C 608.429 0.751738 2.21068 0
M  V30 6594 C 609.41 -0.269688 1.67948 0
M  V30 6595 O 610.595 -0.13819 1.93708 0
M  V30 6596 C 607.725 0.16935 3.46887 0
M  V30 6597 C 606.679 1.12007 4.13084 0
M  V30 6598 C 606.005 0.399483 5.33206 0
M  V30 6599 C 607.305 2.46168 4.6065 0
M  V30 6600 H 608.999 1.65024 2.49815 0
M  V30 6601 H 606.545 0.794905 1.20072 0
M  V30 6602 H 608.498 -0.0809824 4.21322 0
M  V30 6603 H 607.222 -0.764335 3.1753 0
M  V30 6604 H 605.881 1.35564 3.40614 0
M  V30 6605 H 605.529 -0.538277 5.00112 0
M  V30 6606 H 605.229 1.03337 5.78442 0
M  V30 6607 H 606.753 0.157403 6.10397 0
M  V30 6608 H 608.167 2.26829 5.26518 0
M  V30 6609 H 606.564 3.05326 5.1662 0
M  V30 6610 H 607.634 3.07076 3.75276 0
M  V30 6611 N 608.977 -1.30795 0.87923 0
M  V30 6612 C 609.887 -2.32041 0.345565 0
M  V30 6613 C 610.903 -1.65103 -0.549265 0
M  V30 6614 O 612.079 -1.9645 -0.443763 0
M  V30 6615 C 609.144 -3.43944 -0.436245 0
M  V30 6616 C 608.205 -4.26521 0.48765 0
M  V30 6617 C 607.438 -5.33081 -0.256943 0
M  V30 6618 O 607.661 -5.50762 -1.48381 0
M  V30 6619 O 606.595 -6.00635 0.389985 0
M  V30 6620 H 610.421 -2.79627 1.18501 0
M  V30 6621 H 608.006 -1.3486 0.642885 0
M  V30 6622 H 609.888 -4.12128 -0.879119 0
M  V30 6623 H 608.563 -2.98504 -1.25208 0
M  V30 6624 H 607.47 -3.61057 0.979216 0
M  V30 6625 H 608.803 -4.75551 1.26933 0
M  V30 6626 N 610.455 -0.639598 -1.44038 0
M  V30 6627 C 611.703 -0.147188 -2.01563 0
M  V30 6628 C 612.024 1.2384 -1.50628 0
M  V30 6629 O 611.294 1.82452 -0.713316 0
M  V30 6630 H 609.874 -0.0514231 -0.745228 0
M  V30 6631 H 612.536 -0.828205 -1.76428 0
M  V30 6632 H 611.632 -0.121358 -3.11864 0
M  V30 6633 N 611.933 1.52934 -0.380664 0
M  V30 6634 C 612.866 2.22597 0.502564 0
M  V30 6635 C 613.844 1.22345 1.071 0
M  V30 6636 O 615.028 1.51302 1.12428 0
M  V30 6637 C 612.155 2.93246 1.69482 0
M  V30 6638 C 611.201 4.07696 1.25244 0
M  V30 6639 S 612.034 5.34957 0.241159 0
M  V30 6640 C 613.19 6.09124 1.4394 0
M  V30 6641 H 613.423 2.97167 -0.089029 0
M  V30 6642 H 610.956 1.53518 -0.164817 0
M  V30 6643 H 612.914 3.34562 2.37863 0
M  V30 6644 H 611.575 2.18373 2.2577 0
M  V30 6645 H 610.768 4.56199 2.1424 0
M  V30 6646 H 610.37 3.68349 0.647664 0
M  V30 6647 H 612.662 6.34771 2.36794 0
M  V30 6648 H 613.605 7.01068 0.995464 0
M  V30 6649 H 614.013 5.39777 1.65229 0
M  V30 6650 N 613.412 0.11024 1.57214 0
M  V30 6651 C 614.658 -0.544479 1.95977 0
M  V30 6652 C 615.013 -1.64845 0.992171 0
M  V30 6653 O 614.306 -1.91589 0.0206981 0
M  V30 6654 C 614.5 -1.13102 3.39032 0
M  V30 6655 C 614.329 -0.0854079 4.49619 0
M  V30 6656 C 613.099 0.343373 5.04132 0
M  V30 6657 C 615.297 0.692232 5.0962 0
M  V30 6658 N 613.279 1.37567 5.98288 0
M  V30 6659 C 614.65 1.57596 5.99636 0
M  V30 6660 C 616.705 0.744085 4.92309 0
M  V30 6661 C 615.408 2.50701 6.74197 0
M  V30 6662 C 617.434 1.6628 5.67543 0
M  V30 6663 C 616.796 2.53412 6.57238 0
M  V30 6664 H 612.895 -0.169124 0.763493 0
M  V30 6665 H 615.479 0.196326 1.93708 0
M  V30 6666 H 613.65 -1.84158 3.41965 0
M  V30 6667 H 615.382 -1.74934 3.64939 0
M  V30 6668 H 612.137 -0.0473277 4.73576 0
M  V30 6669 H 612.561 1.89048 6.50069 0
M  V30 6670 H 617.203 0.0845825 4.22715 0
M  V30 6671 H 614.921 3.17669 7.43043 0
M  V30 6672 H 618.507 1.70825 5.56156 0
M  V30 6673 H 617.387 3.23347 7.14434 0
M  V30 6674 N 614.89 -1.56749 -0.16351 0
M  V30 6675 C 615.8 -2.00255 -1.2221 0
M  V30 6676 C 616.816 -0.915194 -1.47987 0
M  V30 6677 O 617.992 -1.22342 -1.59982 0
M  V30 6678 C 615.057 -2.36035 -2.53946 0
M  V30 6679 C 614.118 -3.58637 -2.35962 0
M  V30 6680 C 613.351 -3.92701 -3.61416 0
M  V30 6681 O 613.574 -3.27632 -4.66919 0
M  V30 6682 O 612.508 -4.86019 -3.55062 0
M  V30 6683 H 616.334 -2.90586 -0.882794 0
M  V30 6684 H 613.919 -1.44721 -0.370978 0
M  V30 6685 H 615.801 -2.59982 -3.31643 0
M  V30 6686 H 614.476 -1.48863 -2.8744 0
M  V30 6687 H 613.383 -3.39898 -1.5627 0
M  V30 6688 H 614.716 -4.46374 -2.0739 0
M  V30 6689 N 616.368 0.432326 -1.51554 0
M  V30 6690 C 617.278 1.55023 -1.76082 0
M  V30 6691 C 618.294 1.61593 -0.645265 0
M  V30 6692 O 619.47 1.78742 -0.928086 0
M  V30 6693 C 616.535 2.90964 -1.88523 0
M  V30 6694 C 615.596 2.9447 -3.12388 0
M  V30 6695 C 614.829 4.23926 -3.24225 0
M  V30 6696 O 615.052 5.16576 -2.4188 0
M  V30 6697 O 613.986 4.33818 -4.17235 0
M  V30 6698 H 617.812 1.37238 -2.70923 0
M  V30 6699 H 615.397 0.615845 -1.36117 0
M  V30 6700 H 617.279 3.71633 -1.98662 0
M  V30 6701 H 615.954 3.08865 -0.9687 0
M  V30 6702 H 614.861 2.12737 -3.07723 0
M  V30 6703 H 616.194 2.81514 -4.03746 0
M  V30 6704 N 617.846 1.41785 0.688094 0
M  V30 6705 C 618.776 1.47 1.8142 0
M  V30 6706 C 619.757 0.327881 1.6691 0
M  V30 6707 O 620.942 0.540362 1.86531 0
M  V30 6708 C 618.072 1.35876 3.19617 0
M  V30 6709 C 617.026 2.47976 3.48844 0
M  V30 6710 C 616.352 2.21915 4.86475 0
M  V30 6711 C 617.652 3.90309 3.47068 0
M  V30 6712 H 619.346 2.41247 1.77314 0
M  V30 6713 H 616.892 1.16116 0.851651 0
M  V30 6714 H 618.845 1.38134 3.98117 0
M  V30 6715 H 617.569 0.38116 3.24368 0
M  V30 6716 H 616.228 2.45013 2.72698 0
M  V30 6717 H 615.876 1.2248 4.8786 0
M  V30 6718 H 615.576 2.97037 5.06994 0
M  V30 6719 H 617.1 2.25901 5.67275 0
M  V30 6720 H 618.514 3.94947 4.1556 0
M  V30 6721 H 616.911 4.65175 3.7912 0
M  V30 6722 H 617.981 4.17927 2.45896 0
M  V30 6723 N 619.324 -0.923095 1.27737 0
M  V30 6724 C 620.549 -1.71054 1.17283 0
M  V30 6725 C 620.974 -1.86208 -0.266153 0
M  V30 6726 O 620.332 -1.36545 -1.1927 0
M  V30 6727 C 620.38 -3.0854 1.86642 0
M  V30 6728 O 619.484 -3.95528 1.16752 0
M  V30 6729 H 618.825 -0.524136 0.407649 0
M  V30 6730 H 621.355 -1.15487 1.6889 0
M  V30 6731 H 621.365 -3.58828 1.94182 0
M  V30 6732 H 620.04 -2.96828 2.91317 0
M  V30 6733 H 618.617 -3.53967 1.17312 0
M  V30 6734 N 620.802 -1.09834 -1.13024 0
M  V30 6735 C 622.213 -0.855651 -1.65938 0
M  V30 6736 C 622.564 0.615159 -1.86307 0
M  V30 6737 O 621.689 1.47335 -1.58497 0
M  V30 6738 C 622.284 -1.5467 -3.01434 0
M  V30 6739 C 620.843 -1.35088 -3.51323 0
M  V30 6740 C 619.99 -1.6001 -2.26478 0
M  V30 6741 H 622.941 -1.25691 -0.968889 0
M  V30 6742 H 622.962 -0.982179 -3.67605 0
M  V30 6743 H 622.474 -2.61715 -2.86578 0
M  V30 6744 H 620.575 -0.30179 -3.71376 0
M  V30 6745 H 620.688 -2.0886 -4.31178 0
M  V30 6746 H 619.052 -1.02246 -2.33276 0
M  V30 6747 H 619.835 -2.68293 -2.14182 0
M  V30 6748 N 622.28 1.30327 -0.886154 0
M  V30 6749 C 623.227 2.28099 -0.352069 0
M  V30 6750 C 624.197 1.56433 0.558397 0
M  V30 6751 O 625.382 1.84492 0.486561 0
M  V30 6752 C 622.522 3.42456 0.426346 0
M  V30 6753 C 621.635 4.28938 -0.513472 0
M  V30 6754 C 620.77 5.30458 0.280657 0
M  V30 6755 C 619.809 6.0859 -0.654556 0
M  V30 6756 N 618.946 7.02022 0.104322 0
M  V30 6757 H 623.786 2.73166 -1.19097 0
M  V30 6758 H 621.323 1.34367 -0.598662 0
M  V30 6759 H 623.281 4.07518 0.893587 0
M  V30 6760 H 621.911 2.98455 1.22981 0
M  V30 6761 H 620.963 3.64173 -1.09921 0
M  V30 6762 H 622.275 4.83399 -1.2299 0
M  V30 6763 H 621.429 6.01273 0.8097 0
M  V30 6764 H 620.168 4.76693 1.03029 0
M  V30 6765 H 619.173 5.36651 -1.19522 0
M  V30 6766 H 620.398 6.64443 -1.4033 0
M  V30 6767 H 618.344 6.50645 0.836472 0
M  V30 6768 H 618.261 7.53979 -0.552453 0
M  V30 6769 H 619.529 7.77077 0.614069 0
M  V30 6770 N 623.758 0.647228 1.43697 0
M  V30 6771 C 625.007 0.155552 2.01099 0
M  V30 6772 C 625.32 -1.23569 1.51624 0
M  V30 6773 O 626.526 -1.82226 2.01261 0
M  V30 6774 C 624.982 0.227296 3.59182 0
M  V30 6775 C 624.59 1.62086 4.17651 0
M  V30 6776 C 626.334 -0.207085 4.23995 0
M  V30 6777 C 624.241 1.64685 5.68008 0
M  V30 6778 H 623.171 0.0543895 0.752036 0
M  V30 6779 H 625.822 0.808386 1.64734 0
M  V30 6780 H 624.204 -0.492937 3.9292 0
M  V30 6781 H 625.378 2.36597 3.95422 0
M  V30 6782 H 623.693 2.0007 3.65186 0
M  V30 6783 H 626.29 -0.207426 5.34298 0
M  V30 6784 H 626.633 -1.23742 3.97484 0
M  V30 6785 H 627.166 0.461193 3.95118 0
M  V30 6786 H 623.905 2.65608 5.99277 0
M  V30 6787 H 623.425 0.944914 5.9231 0
M  V30 6788 H 625.104 1.38792 6.31938 0
M  V30 6789 N 625.236 -1.5273 0.388769 0
M  V30 6790 C 626.482 -2.02545 -0.186351 0
M  V30 6791 C 626.837 -1.27017 -1.44514 0
M  V30 6792 O 626.13 -0.361948 -1.8815 0
M  V30 6793 C 626.324 -3.53765 -0.508445 0
M  V30 6794 C 626.153 -4.43938 0.71758 0
M  V30 6795 C 624.923 -4.89933 1.23668 0
M  V30 6796 C 627.121 -4.89113 1.58974 0
M  V30 6797 N 625.103 -5.64176 2.42031 0
M  V30 6798 C 626.474 -5.61931 2.61979 0
M  V30 6799 C 628.529 -4.71155 1.60989 0
M  V30 6800 C 627.232 -6.18698 3.66886 0
M  V30 6801 C 629.258 -5.28804 2.64803 0
M  V30 6802 C 628.62 -6.01527 3.6653 0
M  V30 6803 H 624.719 -0.781413 -0.0302921 0
M  V30 6804 H 627.303 -1.87104 0.538539 0
M  V30 6805 H 625.474 -3.6932 -1.20239 0
M  V30 6806 H 627.206 -3.9028 -1.07067 0
M  V30 6807 H 623.961 -4.66833 0.797763 0
M  V30 6808 H 624.385 -6.05949 3.01919 0
M  V30 6809 H 629.027 -4.14435 0.836881 0
M  V30 6810 H 626.745 -6.74501 4.45055 0
M  V30 6811 H 630.331 -5.1679 2.67245 0
M  V30 6812 H 629.211 -6.45339 4.45542 0
M  V30 6813 N 626.714 -0.118576 -1.57153 0
M  V30 6814 C 627.942 0.54726 -1.99531 0
M  V30 6815 C 628.357 1.60251 -0.998246 0
M  V30 6816 O 627.714 1.82498 0.00893106 0
M  V30 6817 C 627.765 1.17378 -3.41913 0
M  V30 6818 O 627.486 0.160703 -4.37805 0
M  V30 6819 C 628.987 1.92297 -3.9942 0
M  V30 6820 H 626.207 0.144919 -0.655164 0
M  V30 6821 H 628.751 -0.20479 -2.03472 0
M  V30 6822 H 626.906 1.87661 -3.38913 0
M  V30 6823 H 627.32 0.61586 -5.20872 0
M  V30 6824 H 628.794 2.31462 -5.01128 0
M  V30 6825 H 629.271 2.79801 -3.38538 0
M  V30 6826 H 629.877 1.26777 -4.05965 0
M  V30 6827 N 628.193 1.56834 0.155195 0
M  V30 6828 C 629.44 1.82898 0.869179 0
M  V30 6829 C 629.768 0.698194 1.81537 0
M  V30 6830 O 629.023 -0.313404 1.93174 0
M  V30 6831 C 629.322 3.15239 1.68402 0
M  V30 6832 C 628.988 4.42123 0.885341 0
M  V30 6833 C 627.65 4.76583 0.664971 0
M  V30 6834 C 630.002 5.20178 0.326234 0
M  V30 6835 C 627.33 5.86566 -0.125346 0
M  V30 6836 C 629.682 6.3099 -0.45108 0
M  V30 6837 C 628.346 6.64006 -0.682102 0
M  V30 6838 H 627.616 0.66927 0.318055 0
M  V30 6839 H 630.263 1.91036 0.133241 0
M  V30 6840 H 628.568 3.02515 2.48982 0
M  V30 6841 H 630.265 3.32618 2.23978 0
M  V30 6842 H 626.855 4.15102 1.06716 0
M  V30 6843 H 631.039 4.93936 0.483787 0
M  V30 6844 H 626.295 6.10594 -0.313915 0
M  V30 6845 H 630.469 6.9067 -0.89149 0
M  V30 6846 H 628.096 7.49065 -1.29636 0
M  V30 6847 N 629.671 -0.424282 1.51781 0
M  V30 6848 C 630.604 -1.53633 1.68737 0
M  V30 6849 C 631.582 -1.53549 0.534915 0
M  V30 6850 O 632.766 -1.72483 0.760391 0
M  V30 6851 C 629.893 -2.92195 1.71288 0
M  V30 6852 C 628.939 -3.10251 2.92654 0
M  V30 6853 S 629.772 -2.85166 4.53256 0
M  V30 6854 C 630.928 -4.25986 4.58571 0
M  V30 6855 H 631.161 -1.39018 2.62795 0
M  V30 6856 H 628.694 -0.614854 1.41629 0
M  V30 6857 H 630.652 -3.72059 1.73443 0
M  V30 6858 H 629.313 -3.04162 0.783847 0
M  V30 6859 H 628.506 -4.1159 2.90877 0
M  V30 6860 H 628.108 -2.38231 2.88308 0
M  V30 6861 H 630.4 -5.19392 4.35015 0
M  V30 6862 H 631.343 -4.32792 5.60444 0
M  V30 6863 H 631.751 -4.1025 3.87757 0
M  V30 6864 N 631.149 -1.42148 -0.680565 0
M  V30 6865 C 632.059 -1.47565 -1.82378 0
M  V30 6866 C 633.075 -0.36489 -1.70131 0
M  V30 6867 O 634.251 -0.614916 -1.91783 0
M  V30 6868 C 631.316 -1.37013 -3.18478 0
M  V30 6869 C 630.377 -2.58532 -3.42724 0
M  V30 6870 C 629.61 -2.48473 -4.72331 0
M  V30 6871 O 629.833 -1.51745 -5.49845 0
M  V30 6872 O 628.767 -3.38503 -4.97694 0
M  V30 6873 H 632.593 -2.44045 -1.80764 0
M  V30 6874 H 630.178 -1.23849 -0.835569 0
M  V30 6875 H 632.06 -1.33468 -3.99705 0
M  V30 6876 H 630.735 -0.436552 -3.20743 0
M  V30 6877 H 629.642 -2.67652 -2.61368 0
M  V30 6878 H 630.975 -3.50769 -3.45286 0
M  V30 6879 N 632.627 0.916307 -1.28225 0
M  V30 6880 C 633.575 2.03977 -1.11786 0
M  V30 6881 C 634.569 1.69358 -0.0378265 0
M  V30 6882 O 635.775 1.78925 -0.196405 0
M  V30 6883 H 632.15 0.66829 -0.344809 0
M  V30 6884 H 634.121 2.14985 -2.06939 0
M  V30 6885 C 632.87 3.38518 -0.7938 0
M  V30 6886 H 632.193 3.65649 -1.61682 0
M  V30 6887 H 633.633 4.17864 -0.718719 0
M  V30 6888 C 632.092 3.33134 0.502353 0
M  V30 6889 O 632.622 3.71281 1.53341 0
M  V30 6890 N 630.828 2.86229 0.502147 0
M  V30 6891 H 630.375 2.55382 -0.337338 0
M  V30 6892 H 630.333 2.83009 1.36942 0
M  V30 6893 N 634.105 1.10431 1.1244 0
M  V30 6894 C 635.33 0.869089 1.88313 0
M  V30 6895 C 635.755 -0.574912 1.79099 0
M  V30 6896 O 635.113 -1.40496 1.14589 0
M  V30 6897 C 635.161 1.32208 3.3549 0
M  V30 6898 O 634.265 0.487092 4.09513 0
M  V30 6899 H 633.606 0.313894 0.585121 0
M  V30 6900 H 636.136 1.47111 1.42195 0
M  V30 6901 H 636.146 1.31201 3.86329 0
M  V30 6902 H 634.821 2.37364 3.41513 0
M  V30 6903 H 633.398 0.562372 3.68635 0
M  V30 6904 N 635.583 -1.29855 0.893053 0
M  V30 6905 C 636.515 -2.26911 0.32311 0
M  V30 6906 C 637.528 -1.54039 -0.526858 0
M  V30 6907 O 638.717 -1.75132 -0.345095 0
M  V30 6908 C 635.817 -3.34266 -0.558509 0
M  V30 6909 C 634.99 -4.36601 0.264222 0
M  V30 6910 C 634.049 -5.23326 -0.549171 0
M  V30 6911 O 633.075 -5.69192 0.0309883 0
M  V30 6912 N 634.277 -5.50008 -1.85664 0
M  V30 6913 H 637.042 -2.76455 1.15726 0
M  V30 6914 H 634.603 -1.4312 0.756859 0
M  V30 6915 H 636.595 -3.89211 -1.1089 0
M  V30 6916 H 635.165 -2.8459 -1.29334 0
M  V30 6917 H 634.385 -3.81409 0.996046 0
M  V30 6918 H 635.673 -5.02019 0.827906 0
M  V30 6919 H 635.071 -5.14542 -2.35081 0
M  V30 6920 H 633.628 -6.07796 -2.35431 0
M  V30 6921 N 637.061 -0.65484 -1.43351 0
M  V30 6922 C 637.971 0.0363603 -2.34572 0
M  V30 6923 C 638.987 0.810432 -1.53974 0
M  V30 6924 O 640.163 0.757308 -1.86619 0
M  V30 6925 C 637.228 0.989733 -3.32273 0
M  V30 6926 C 636.289 0.212414 -4.28774 0
M  V30 6927 C 635.522 1.12038 -5.21808 0
M  V30 6928 O 635.745 2.35967 -5.19303 0
M  V30 6929 O 634.679 0.59191 -5.98982 0
M  V30 6930 H 638.505 -0.714527 -2.95175 0
M  V30 6931 H 636.09 -0.415029 -1.4352 0
M  V30 6932 H 637.972 1.53759 -3.92347 0
M  V30 6933 H 636.647 1.72082 -2.74171 0
M  V30 6934 H 635.554 -0.379062 -3.72175 0
M  V30 6935 H 636.887 -0.479138 -4.89862 0
M  V30 6936 N 638.539 1.52521 -0.396863 0
M  V30 6937 C 639.472 2.23118 0.478926 0
M  V30 6938 C 640.45 1.23475 1.05796 0
M  V30 6939 O 641.634 1.52486 1.10817 0
M  V30 6940 C 638.761 2.95028 1.66362 0
M  V30 6941 C 637.807 4.09002 1.20913 0
M  V30 6942 S 638.64 5.35182 0.184407 0
M  V30 6943 C 639.796 6.10616 1.37471 0
M  V30 6944 H 640.029 2.97056 -0.120542 0
M  V30 6945 H 637.562 1.53334 -0.18109 0
M  V30 6946 H 639.52 3.37066 2.34301 0
M  V30 6947 H 638.181 2.20756 2.23441 0
M  V30 6948 H 637.374 4.58445 2.09389 0
M  V30 6949 H 636.976 3.69016 0.608559 0
M  V30 6950 H 639.268 6.37247 2.30048 0
M  V30 6951 H 640.211 7.02084 0.921051 0
M  V30 6952 H 640.619 5.41499 1.59495 0
M  V30 6953 N 640.017 0.126909 1.57088 0
M  V30 6954 C 641.294 -0.573152 1.87014 0
M  V30 6955 C 641.674 -1.84297 1.02945 0
M  V30 6956 O 641.022 -2.28232 0.110573 0
M  V30 6957 C 641.232 -0.857984 3.38289 0
M  V30 6958 C 642.58 -1.20759 4.07066 0
M  V30 6959 O 643.604 -0.947992 3.43353 0
M  V30 6960 O 642.463 -1.69516 5.19545 0
M  V30 6961 H 639.557 -0.290082 0.774456 0
M  V30 6962 H 642.103 0.162008 1.68925 0
M  V30 6963 H 640.875 0.0415286 3.91278 0
M  V30 6964 H 640.498 -1.64803 3.61837 0
M  V30 6965 N 641.495 -1.56914 -0.146875 0
M  V30 6966 C 642.425 -2.01308 -1.1831 0
M  V30 6967 C 643.406 -0.892664 -1.44795 0
M  V30 6968 O 644.591 -1.16048 -1.55713 0
M  V30 6969 C 641.721 -2.3938 -2.51624 0
M  V30 6970 C 640.675 -3.54608 -2.3966 0
M  V30 6971 C 640.001 -3.78493 -3.77686 0
M  V30 6972 C 641.301 -4.87269 -1.88058 0
M  V30 6973 H 642.995 -2.88123 -0.813964 0
M  V30 6974 H 640.541 -1.38615 -0.3901 0
M  V30 6975 H 642.494 -2.69037 -3.24341 0
M  V30 6976 H 641.218 -1.49502 -2.90373 0
M  V30 6977 H 639.877 -3.25116 -1.69396 0
M  V30 6978 H 639.525 -2.85866 -4.13871 0
M  V30 6979 H 639.225 -4.56039 -3.70543 0
M  V30 6980 H 640.749 -4.10576 -4.51951 0
M  V30 6981 H 642.163 -5.15644 -2.50568 0
M  V30 6982 H 640.56 -5.68622 -1.91805 0
M  V30 6983 H 641.63 -4.77634 -0.836277 0
M  V30 6984 N 642.974 0.416227 -1.52004 0
M  V30 6985 C 644.22 1.16555 -1.6596 0
M  V30 6986 C 644.553 1.90347 -0.384906 0
M  V30 6987 O 643.828 1.84474 0.616405 0
M  V30 6988 C 644.111 2.1657 -2.87696 0
M  V30 6989 C 643.964 1.46722 -4.25197 0
M  V30 6990 C 645.283 3.17321 -3.04951 0
M  V30 6991 H 642.402 0.422369 -0.603965 0
M  V30 6992 H 645.044 0.452141 -1.84542 0
M  V30 6993 H 643.194 2.77411 -2.71985 0
M  V30 6994 H 644.866 0.89056 -4.52622 0
M  V30 6995 H 643.109 0.769263 -4.26925 0
M  V30 6996 H 643.78 2.19665 -5.0641 0
M  V30 6997 H 646.256 2.66552 -3.19514 0
M  V30 6998 H 645.132 3.84573 -3.91656 0
M  V30 6999 H 645.393 3.84643 -2.17951 0
M  V30 7000 N 644.452 1.42507 0.673017 0
M  V30 7001 C 645.868 1.25472 0.986355 0
M  V30 7002 C 646.068 0.160181 2.00862 0
M  V30 7003 O 645.124 -0.467993 2.48125 0
M  V30 7004 C 646.437 2.61219 1.48947 0
M  V30 7005 C 647.985 2.68589 1.60715 0
M  V30 7006 C 648.46 4.04707 2.14422 0
M  V30 7007 N 649.951 4.0667 2.21752 0
M  V30 7008 C 650.686 5.0881 2.64386 0
M  V30 7009 N 650.182 6.21332 3.0646 0
M  V30 7010 N 651.975 4.96166 2.64151 0
M  V30 7011 H 644.126 2.124 -0.00378532 0
M  V30 7012 H 646.389 0.946046 0.0608367 0
M  V30 7013 H 646.095 3.42179 0.812812 0
M  V30 7014 H 645.969 2.85261 2.46791 0
M  V30 7015 H 648.356 1.87974 2.27486 0
M  V30 7016 H 648.437 2.48333 0.613552 0
M  V30 7017 H 648.081 4.8578 1.48258 0
M  V30 7018 H 648.011 4.22315 3.14575 0
M  V30 7019 H 650.502 3.25438 1.92089 0
M  V30 7020 H 650.815 6.95118 3.37684 0
M  V30 7021 H 649.16 6.24835 3.04313 0
M  V30 7022 H 652.351 4.07334 2.30644 0
M  V30 7023 H 652.524 5.759 2.97057 0
M  V30 7024 N 645.93 -0.909495 1.28709 0
M  V30 7025 C 646.863 -2.01388 1.07323 0
M  V30 7026 C 647.841 -1.62596 -0.0119757 0
M  V30 7027 O 649.025 -1.88003 0.136796 0
M  V30 7028 C 646.152 -3.32755 0.631797 0
M  V30 7029 C 645.198 -3.90532 1.71428 0
M  V30 7030 S 646.031 -4.20853 3.31124 0
M  V30 7031 C 647.187 -5.55276 2.88825 0
M  V30 7032 H 647.42 -2.19219 2.00824 0
M  V30 7033 H 644.953 -1.05489 1.12745 0
M  V30 7034 H 646.911 -4.08702 0.38381 0
M  V30 7035 H 645.572 -3.12818 -0.283451 0
M  V30 7036 H 644.765 -4.85385 1.35712 0
M  V30 7037 H 644.367 -3.21237 1.91528 0
M  V30 7038 H 646.659 -6.35341 2.3526 0
M  V30 7039 H 647.602 -5.95907 3.82492 0
M  V30 7040 H 648.01 -5.16666 2.27412 0
M  V30 7041 N 647.408 -1.11026 -1.11852 0
M  V30 7042 C 648.338 -0.786812 -2.19844 0
M  V30 7043 C 649.319 0.242935 -1.68356 0
M  V30 7044 O 650.504 0.107355 -1.93903 0
M  V30 7045 C 647.634 -0.224516 -3.46574 0
M  V30 7046 C 646.588 -1.18564 -4.1125 0
M  V30 7047 C 645.914 -0.484261 -5.32503 0
M  V30 7048 C 647.214 -2.53465 -4.56676 0
M  V30 7049 H 648.908 -1.68978 -2.47158 0
M  V30 7050 H 646.454 -0.813906 -1.18792 0
M  V30 7051 H 648.407 0.0139435 -4.21398 0
M  V30 7052 H 647.131 0.713722 -3.18706 0
M  V30 7053 H 645.79 -1.40966 -3.38414 0
M  V30 7054 H 645.438 0.458646 -5.00905 0
M  V30 7055 H 645.138 -1.12526 -5.76725 0
M  V30 7056 H 646.662 -0.254492 -6.10069 0
M  V30 7057 H 648.076 -2.35177 -5.22843 0
M  V30 7058 H 646.473 -3.13507 -5.11697 0
M  V30 7059 H 647.543 -3.13008 -3.70343 0
M  V30 7060 N 648.886 1.2938 -0.899927 0
M  V30 7061 C 649.816 2.30144 -0.39446 0
M  V30 7062 C 650.797 1.61611 0.530639 0
M  V30 7063 O 651.982 1.89119 0.441319 0
M  V30 7064 C 649.112 3.45229 0.37868 0
M  V30 7065 C 648.066 4.25564 -0.456012 0
M  V30 7066 C 647.392 5.32848 0.444637 0
M  V30 7067 C 648.692 4.93651 -1.70605 0
M  V30 7068 H 650.386 2.72673 -1.23653 0
M  V30 7069 H 647.932 1.31086 -0.596034 0
M  V30 7070 H 649.885 4.14797 0.743037 0
M  V30 7071 H 648.609 3.01545 1.25453 0
M  V30 7072 H 647.268 3.57704 -0.802704 0
M  V30 7073 H 646.916 4.85408 1.31863 0
M  V30 7074 H 646.616 5.87497 -0.110154 0
M  V30 7075 H 648.14 6.05268 0.805182 0
M  V30 7076 H 649.554 5.55655 -1.41141 0
M  V30 7077 H 647.951 5.58233 -2.20217 0
M  V30 7078 H 649.021 4.18926 -2.4419 0
M  V30 7079 N 650.364 0.662433 1.43002 0
M  V30 7080 C 651.641 0.109096 1.95296 0
M  V30 7081 C 652.021 -1.37313 1.60338 0
M  V30 7082 O 651.369 -2.1032 0.893187 0
M  V30 7083 C 651.579 0.365096 3.47085 0
M  V30 7084 C 652.927 0.274964 4.23709 0
M  V30 7085 O 653.951 0.29816 3.5495 0
M  V30 7086 O 652.81 0.206549 5.4611 0
M  V30 7087 H 649.904 -0.00429724 0.826989 0
M  V30 7088 H 652.45 0.736308 1.52894 0
M  V30 7089 H 651.222 1.39237 3.65689 0
M  V30 7090 H 650.845 -0.294733 3.96506 0
M  V30 7091 N 651.842 -1.52309 0.404946 0
M  V30 7092 C 653.067 -2.06666 -0.1743 0
M  V30 7093 C 653.492 -1.27341 -1.38441 0
M  V30 7094 O 652.85 -0.302539 -1.78758 0
M  V30 7095 C 652.898 -3.57014 -0.507262 0
M  V30 7096 O 652.002 -3.80144 -1.59889 0
M  V30 7097 H 651.343 -0.663807 -0.0160273 0
M  V30 7098 H 653.873 -1.96297 0.576937 0
M  V30 7099 H 653.883 -4.00724 -0.767098 0
M  V30 7100 H 652.558 -4.14184 0.377368 0
M  V30 7101 H 651.135 -3.48316 -1.33155 0
M  V30 7102 N 653.32 -0.135238 -1.57019 0
M  V30 7103 C 654.736 0.221262 -1.58059 0
M  V30 7104 C 654.936 1.65538 -1.14889 0
M  V30 7105 O 653.992 2.37985 -0.843751 0
M  V30 7106 C 655.305 -0.0268114 -3.00688 0
M  V30 7107 C 656.853 0.0378206 -3.12977 0
M  V30 7108 C 657.328 -0.182769 -4.57635 0
M  V30 7109 N 658.819 -0.129292 -4.6302 0
M  V30 7110 C 659.554 -0.274648 -5.72742 0
M  V30 7111 N 659.05 -0.477075 -6.91155 0
M  V30 7112 N 660.843 -0.213077 -5.61696 0
M  V30 7113 H 652.994 -1.07177 -1.83376 0
M  V30 7114 H 655.257 -0.423338 -0.848227 0
M  V30 7115 H 654.963 -1.01889 -3.36618 0
M  V30 7116 H 654.837 0.697863 -3.70688 0
M  V30 7117 H 657.224 1.02043 -2.76896 0
M  V30 7118 H 657.305 -0.718996 -2.45487 0
M  V30 7119 H 656.949 -1.16243 -4.94419 0
M  V30 7120 H 656.879 0.59423 -5.23237 0
M  V30 7121 H 659.37 0.0229896 -3.77893 0
M  V30 7122 H 659.683 -0.578413 -7.70632 0
M  V30 7123 H 658.028 -0.513252 -6.93102 0
M  V30 7124 H 661.219 -0.0557796 -4.68067 0
M  V30 7125 H 661.392 -0.329796 -6.4716 0
M  V30 7126 N 654.798 1.5699 0.138552 0
M  V30 7127 C 656.075 1.74741 0.87891 0
M  V30 7128 C 656.455 0.705522 1.98961 0
M  V30 7129 O 655.803 -0.274066 2.2685 0
M  V30 7130 C 656.013 3.1909 1.4136 0
M  V30 7131 C 657.361 3.81023 1.87368 0
M  V30 7132 O 658.385 3.22571 1.51084 0
M  V30 7133 O 657.244 4.83722 2.54312 0
M  V30 7134 H 654.338 0.714781 0.415953 0
M  V30 7135 H 656.884 1.69248 0.123817 0
M  V30 7136 H 655.656 3.86424 0.61579 0
M  V30 7137 H 655.279 3.29043 2.23196 0
M  V30 7138 N 656.276 -0.40816 1.52223 0
M  V30 7139 C 657.224 -1.51788 1.76248 0
M  V30 7140 C 658.218 -1.57264 0.629638 0
M  V30 7141 O 659.424 -1.60659 0.811704 0
M  V30 7142 H 655.799 -0.504823 0.557367 0
M  V30 7143 H 657.77 -1.2871 2.69214 0
M  V30 7144 C 656.519 -2.89145 1.93107 0
M  V30 7145 H 655.842 -2.85674 2.79697 0
M  V30 7146 H 657.282 -3.66082 2.13916 0
M  V30 7147 C 655.741 -3.29581 0.698431 0
M  V30 7148 O 656.271 -4.01479 -0.133238 0
M  V30 7149 N 654.477 -2.85651 0.53405 0
M  V30 7150 H 654.024 -2.2731 1.21194 0
M  V30 7151 H 653.982 -3.13065 -0.289387 0
M  V30 7152 N 657.755 -1.42862 -0.66545 0
M  V30 7153 C 659.032 -1.3431 -1.42197 0
M  V30 7154 C 659.412 0.0150265 -2.11095 0
M  V30 7155 O 658.76 1.03101 -2.03918 0
M  V30 7156 C 658.97 -2.51783 -2.41674 0
M  V30 7157 C 660.318 -2.94321 -3.0604 0
M  V30 7158 O 661.342 -2.51741 -2.52001 0
M  V30 7159 O 660.201 -3.68047 -4.03985 0
M  V30 7160 H 657.295 -0.530159 -0.634713 0
M  V30 7161 H 659.841 -1.54888 -0.693386 0
M  V30 7162 H 658.613 -3.42282 -1.89627 0
M  V30 7163 H 658.236 -2.33241 -3.22001 0
M  V30 7164 N 659.233 0.902656 -1.29189 0
M  V30 7165 C 660.183 1.99326 -1.10695 0
M  V30 7166 C 661.167 1.60877 -0.0272521 0
M  V30 7167 O 662.359 1.75245 -0.248635 0
M  V30 7168 C 659.488 3.34265 -0.78244 0
M  V30 7169 C 658.574 3.79081 -1.90153 0
M  V30 7170 N 658.965 3.96162 -3.14466 0
M  V30 7171 C 657.263 4.08333 -1.79389 0
M  V30 7172 C 657.964 4.3388 -3.87458 0
M  V30 7173 N 656.94 4.42759 -3.15381 0
M  V30 7174 H 660.742 2.10597 -2.05003 0
M  V30 7175 H 658.256 1.09127 -1.20271 0
M  V30 7176 H 660.253 4.12097 -0.630996 0
M  V30 7177 H 658.913 3.2434 0.152754 0
M  V30 7178 H 659.924 3.81775 -3.49954 0
M  V30 7179 H 656.601 4.06982 -0.931217 0
M  V30 7180 H 657.991 4.54965 -4.94425 0
M  V30 7181 N 660.711 1.11618 1.11262 0
M  V30 7182 C 661.958 0.86618 1.8304 0
M  V30 7183 C 662.286 -0.608149 1.84748 0
M  V30 7184 O 661.541 -1.46508 1.29745 0
M  V30 7185 C 661.84 1.37529 3.2988 0
M  V30 7186 C 661.506 2.86317 3.4833 0
M  V30 7187 C 660.168 3.26945 3.53073 0
M  V30 7188 C 662.52 3.82136 3.54431 0
M  V30 7189 C 659.848 4.62117 3.61475 0
M  V30 7190 C 662.2 5.17128 3.64365 0
M  V30 7191 C 660.864 5.57312 3.67369 0
M  V30 7192 H 660.134 0.316958 0.66979 0
M  V30 7193 H 662.781 1.3949 1.31205 0
M  V30 7194 H 661.086 0.766842 3.84222 0
M  V30 7195 H 662.783 1.15817 3.83911 0
M  V30 7196 H 659.373 2.53889 3.45309 0
M  V30 7197 H 663.557 3.51847 3.50025 0
M  V30 7198 H 658.813 4.92655 3.62079 0
M  V30 7199 H 662.987 5.91208 3.68029 0
M  V30 7200 H 660.614 6.62045 3.73632 0
M  V30 7201 N 662.189 -1.289 0.906776 0
M  V30 7202 C 663.435 -1.95919 0.546551 0
M  V30 7203 C 663.79 -1.70126 -0.8986 0
M  V30 7204 O 663.083 -1.00775 -1.62957 0
M  V30 7205 C 663.277 -3.48704 0.783617 0
M  V30 7206 C 663.106 -3.8935 2.25026 0
M  V30 7207 C 661.876 -4.13864 2.89905 0
M  V30 7208 C 664.074 -4.00535 3.22608 0
M  V30 7209 N 662.056 -4.41131 4.26939 0
M  V30 7210 C 663.427 -4.31936 4.44783 0
M  V30 7211 C 665.482 -3.83035 3.18102 0
M  V30 7212 C 664.185 -4.47659 5.63022 0
M  V30 7213 C 666.211 -3.99971 4.35634 0
M  V30 7214 C 665.573 -4.31738 5.5658 0
M  V30 7215 H 661.672 -0.74105 0.249737 0
M  V30 7216 H 664.256 -1.55696 1.16906 0
M  V30 7217 H 662.427 -3.87933 0.190437 0
M  V30 7218 H 664.159 -4.02835 0.38812 0
M  V30 7219 H 660.914 -4.07893 2.40666 0
M  V30 7220 H 661.338 -4.5886 4.97771 0
M  V30 7221 H 665.98 -3.57533 2.25677 0
M  V30 7222 H 663.698 -4.71995 6.55932 0
M  V30 7223 H 667.284 -3.87874 4.33641 0
M  V30 7224 H 666.164 -4.44568 6.4601 0
M  V30 7225 N 663.667 -0.670007 -1.42649 0
M  V30 7226 C 664.577 0.0114788 -2.34597 0
M  V30 7227 C 665.593 0.794055 -1.54825 0
M  V30 7228 O 666.769 0.737472 -1.87412 0
M  V30 7229 C 663.834 0.954436 -3.33304 0
M  V30 7230 C 662.895 0.166925 -4.28975 0
M  V30 7231 C 662.128 1.06497 -5.22967 0
M  V30 7232 O 662.351 2.30446 -5.21777 0
M  V30 7233 O 661.285 0.528347 -5.99577 0
M  V30 7234 H 665.111 -0.745794 -2.944 0
M  V30 7235 H 662.696 -0.430228 -1.43071 0
M  V30 7236 H 664.578 1.49589 -3.93956 0
M  V30 7237 H 663.253 1.69164 -2.7598 0
M  V30 7238 H 662.16 -0.418515 -3.71752 0
M  V30 7239 H 663.493 -0.531067 -4.89327 0
M  V30 7240 N 665.145 1.52092 -0.413018 0
M  V30 7241 C 666.077 2.24819 0.445994 0
M  V30 7242 C 667.09 1.27925 1.00692 0
M  V30 7243 O 668.279 1.53845 0.905204 0
M  V30 7244 C 665.379 2.96951 1.6332 0
M  V30 7245 C 664.552 4.20746 1.19548 0
M  V30 7246 C 663.611 4.75668 2.25003 0
M  V30 7247 O 662.637 5.38148 1.85434 0
M  V30 7248 N 663.839 4.57579 3.57214 0
M  V30 7249 H 666.604 2.99176 -0.177209 0
M  V30 7250 H 664.165 1.60102 -0.240601 0
M  V30 7251 H 666.157 3.30586 2.33441 0
M  V30 7252 H 664.727 2.25756 2.16225 0
M  V30 7253 H 663.947 3.92881 0.32224 0
M  V30 7254 H 665.235 5.01132 0.880033 0
M  V30 7255 H 664.633 4.07758 3.92109 0
M  V30 7256 H 663.19 4.95642 4.23299 0
M  V30 7257 N 666.623 0.143563 1.56945 0
M  V30 7258 C 667.555 -0.828353 2.13708 0
M  V30 7259 C 668.568 -1.21313 1.08568 0
M  V30 7260 O 669.757 -1.1578 1.35857 0
M  V30 7261 C 666.857 -2.12248 2.64204 0
M  V30 7262 C 666.03 -1.90561 3.93707 0
M  V30 7263 C 665.089 -3.03931 4.29549 0
M  V30 7264 O 664.115 -2.75772 4.97934 0
M  V30 7265 N 665.317 -4.31016 3.88852 0
M  V30 7266 H 668.082 -0.343242 2.97728 0
M  V30 7267 H 665.643 -0.0401152 1.6185 0
M  V30 7268 H 667.635 -2.87132 2.85197 0
M  V30 7269 H 666.205 -2.52033 1.84928 0
M  V30 7270 H 665.425 -0.997327 3.81375 0
M  V30 7271 H 666.713 -1.73405 4.78339 0
M  V30 7272 H 666.111 -4.56762 3.33743 0
M  V30 7273 H 664.668 -5.02691 4.14903 0
M  V30 7274 N 668.101 -1.57061 -0.130224 0
M  V30 7275 C 669.031 -2.02552 -1.16168 0
M  V30 7276 C 670.012 -0.907971 -1.4384 0
M  V30 7277 O 671.197 -1.17693 -1.54473 0
M  V30 7278 C 668.327 -2.42035 -2.49071 0
M  V30 7279 C 667.281 -3.5713 -2.35886 0
M  V30 7280 C 666.607 -3.82478 -3.7365 0
M  V30 7281 C 667.907 -4.89236 -1.8288 0
M  V30 7282 H 669.601 -2.8897 -0.783359 0
M  V30 7283 H 667.147 -1.39021 -0.375376 0
M  V30 7284 H 669.1 -2.72462 -3.21469 0
M  V30 7285 H 667.824 -1.52573 -2.88771 0
M  V30 7286 H 666.483 -3.26895 -1.65938 0
M  V30 7287 H 666.131 -2.9024 -4.10816 0
M  V30 7288 H 665.831 -4.59944 -3.65685 0
M  V30 7289 H 667.355 -4.15347 -4.47571 0
M  V30 7290 H 668.769 -5.18272 -2.45085 0
M  V30 7291 H 667.166 -5.70624 -1.85763 0
M  V30 7292 H 668.236 -4.78494 -0.785571 0
M  V30 7293 N 669.579 0.400081 -1.52437 0
M  V30 7294 C 670.856 1.15973 -1.57511 0
M  V30 7295 C 671.236 2.0798 -0.361572 0
M  V30 7296 O 670.584 2.19032 0.650929 0
M  V30 7297 C 670.794 1.92912 -2.90837 0
M  V30 7298 C 672.142 2.48662 -3.44169 0
M  V30 7299 O 673.166 2.03081 -2.92637 0
M  V30 7300 O 672.025 3.31894 -4.34176 0
M  V30 7301 H 669.119 0.530023 -0.634827 0
M  V30 7302 H 671.665 0.40613 -1.64769 0
M  V30 7303 H 670.437 1.25564 -3.70607 0
M  V30 7304 H 670.06 2.75257 -2.86913 0
M  V30 7305 N 671.057 1.43213 0.657864 0
M  V30 7306 C 672.305 1.44298 1.41501 0
M  V30 7307 C 672.626 0.0666478 1.94886 0
M  V30 7308 O 671.896 -0.897345 1.74139 0
M  V30 7309 H 670.476 0.531257 0.525143 0
M  V30 7310 H 673.138 1.78777 0.776195 0
M  V30 7311 H 672.234 2.1528 2.25966 0
M  V30 7312 N 672.536 -0.895792 1.29666 0
M  V30 7313 C 673.466 -2.01673 1.17688 0
M  V30 7314 C 674.447 -1.69955 0.0701317 0
M  V30 7315 O 675.632 -1.9258 0.250289 0
M  V30 7316 C 672.762 -3.36568 0.856681 0
M  V30 7317 C 671.716 -3.82509 1.92017 0
M  V30 7318 C 671.042 -5.14574 1.4532 0
M  V30 7319 C 672.342 -4.02409 3.32963 0
M  V30 7320 H 674.036 -2.11953 2.11463 0
M  V30 7321 H 671.582 -1.01839 1.01807 0
M  V30 7322 H 673.535 -4.14498 0.759577 0
M  V30 7323 H 672.259 -3.26391 -0.116763 0
M  V30 7324 H 670.918 -3.068 2.00673 0
M  V30 7325 H 670.566 -5.00815 0.468325 0
M  V30 7326 H 670.266 -5.46283 2.16447 0
M  V30 7327 H 671.79 -5.9504 1.36968 0
M  V30 7328 H 673.204 -4.70808 3.27127 0
M  V30 7329 H 671.601 -4.45478 4.02082 0
M  V30 7330 H 672.671 -3.06616 3.75652 0
M  V30 7331 N 674.014 -1.12206 -1.10668 0
M  V30 7332 C 675.291 -0.787382 -1.79052 0
M  V30 7333 C 675.671 0.723267 -1.98323 0
M  V30 7334 O 675.019 1.6561 -1.57434 0
M  V30 7335 C 675.229 -1.55968 -3.1221 0
M  V30 7336 C 676.577 -1.74413 -3.87125 0
M  V30 7337 O 677.601 -1.5246 -3.21923 0
M  V30 7338 O 676.46 -2.10952 -5.04144 0
M  V30 7339 H 673.554 -0.286137 -0.775922 0
M  V30 7340 H 676.1 -1.22595 -1.1734 0
M  V30 7341 H 674.872 -2.58692 -2.93588 0
M  V30 7342 H 674.495 -1.1152 -3.8164 0
M  V30 7343 N 675.492 1.28418 -0.913599 0
M  V30 7344 C 676.738 1.95627 -0.556933 0
M  V30 7345 C 677.093 1.706 0.889565 0
M  V30 7346 O 676.386 1.01637 1.6242 0
M  V30 7347 C 676.58 3.48283 -0.802099 0
M  V30 7348 C 676.409 3.88151 -2.27088 0
M  V30 7349 C 675.179 4.1232 -2.92096 0
M  V30 7350 C 677.377 3.98819 -3.24728 0
M  V30 7351 N 675.359 4.3886 -4.29272 0
M  V30 7352 C 676.73 4.29571 -4.47067 0
M  V30 7353 C 678.785 3.81342 -3.20129 0
M  V30 7354 C 677.488 4.44667 -5.65388 0
M  V30 7355 C 679.514 3.97656 -4.37749 0
M  V30 7356 C 678.876 4.2878 -5.58862 0
M  V30 7357 H 674.975 0.739715 -0.253664 0
M  V30 7358 H 677.559 1.55074 -1.1773 0
M  V30 7359 H 675.73 3.87826 -0.211007 0
M  V30 7360 H 677.462 4.02623 -0.409478 0
M  V30 7361 H 674.217 4.06611 -2.42826 0
M  V30 7362 H 674.641 4.56214 -5.00198 0
M  V30 7363 H 679.283 3.56331 -2.2757 0
M  V30 7364 H 677.001 4.68509 -6.58426 0
M  V30 7365 H 680.587 3.85569 -4.35692 0
M  V30 7366 H 679.467 4.41136 -6.48359 0
M  V30 7367 N 676.97 0.677563 1.42291 0
M  V30 7368 C 678.198 0.209459 2.05837 0
M  V30 7369 C 678.613 -1.13444 1.50917 0
M  V30 7370 O 677.97 -1.70529 0.65008 0
M  V30 7371 C 678.021 0.138819 3.61233 0
M  V30 7372 O 677.742 1.42962 4.14118 0
M  V30 7373 C 679.243 -0.352449 4.41897 0
M  V30 7374 H 676.463 0.101209 0.663323 0
M  V30 7375 H 679.007 0.925077 1.8238 0
M  V30 7376 H 677.162 -0.527505 3.83792 0
M  V30 7377 H 677.576 1.3048 5.08011 0
M  V30 7378 H 679.05 -0.350778 5.50884 0
M  V30 7379 H 679.527 -1.3882 4.16684 0
M  V30 7380 H 680.133 0.282236 4.24362 0
M  V30 7381 N 678.448 -1.51871 0.421078 0
M  V30 7382 C 679.411 -2.25914 -0.386712 0
M  V30 7383 C 680.411 -1.28733 -0.963555 0
M  V30 7384 O 681.601 -1.52579 -0.840556 0
M  V30 7385 C 678.733 -3.03853 -1.54551 0
M  V30 7386 H 679.926 -2.98754 0.261978 0
M  V30 7387 H 677.479 -1.5533 0.173862 0
M  V30 7388 H 678.214 -2.35392 -2.23072 0
M  V30 7389 H 677.999 -3.75215 -1.13824 0
M  V30 7390 H 679.489 -3.59984 -2.11663 0
M  V30 7391 N 679.926 -0.151884 -1.56866 0
M  V30 7392 C 680.858 0.817008 -2.14144 0
M  V30 7393 C 681.871 1.20735 -1.0921 0
M  V30 7394 O 683.06 1.15058 -1.36469 0
M  V30 7395 C 680.16 2.10844 -2.65326 0
M  V30 7396 C 679.333 1.88471 -3.94712 0
M  V30 7397 C 678.392 3.01649 -4.31155 0
M  V30 7398 O 677.418 2.73127 -4.9939 0
M  V30 7399 N 678.62 4.28947 -3.91132 0
M  V30 7400 H 681.385 0.327448 -2.97906 0
M  V30 7401 H 678.946 0.0315313 -1.61869 0
M  V30 7402 H 680.938 2.85616 -2.86715 0
M  V30 7403 H 679.508 2.51049 -1.86262 0
M  V30 7404 H 678.728 0.977088 -3.81899 0
M  V30 7405 H 680.016 1.70866 -4.79252 0
M  V30 7406 H 679.414 4.54986 -3.36161 0
M  V30 7407 H 677.971 5.00484 -4.17563 0
M  V30 7408 N 681.404 1.57128 0.121893 0
M  V30 7409 C 682.681 1.75664 0.860327 0
M  V30 7410 C 683.061 0.726585 1.98202 0
M  V30 7411 O 682.409 -0.24999 2.27128 0
M  V30 7412 C 682.619 3.20571 1.37968 0
M  V30 7413 C 683.967 3.82988 1.83317 0
M  V30 7414 O 684.991 3.24156 1.47654 0
M  V30 7415 O 683.85 4.86393 2.49168 0
M  V30 7416 H 680.944 0.719153 0.408348 0
M  V30 7417 H 683.49 1.6937 0.105859 0
M  V30 7418 H 682.262 3.87056 0.57477 0
M  V30 7419 H 681.885 3.31392 2.19694 0
M  V30 7420 N 682.882 -0.391992 1.52647 0
M  V30 7421 C 684.131 -1.13449 1.6677 0
M  V30 7422 C 684.444 -1.91203 0.412399 0
M  V30 7423 O 685.65 -2.68013 0.433707 0
M  V30 7424 C 684.106 -2.06577 2.9471 0
M  V30 7425 C 683.714 -1.3426 4.27409 0
M  V30 7426 C 685.458 -2.80981 3.18198 0
M  V30 7427 C 683.365 -2.26136 5.46458 0
M  V30 7428 H 682.295 -0.427211 0.621295 0
M  V30 7429 H 684.946 -0.397522 1.79142 0
M  V30 7430 H 683.328 -2.83898 2.76076 0
M  V30 7431 H 684.502 -0.621856 4.56585 0
M  V30 7432 H 682.817 -0.718279 4.10158 0
M  V30 7433 H 685.414 -3.49898 4.04321 0
M  V30 7434 H 685.757 -3.44891 2.33144 0
M  V30 7435 H 686.29 -2.10754 3.37383 0
M  V30 7436 H 683.029 -1.66846 6.33911 0
M  V30 7437 H 682.549 -2.96134 5.21598 0
M  V30 7438 H 684.228 -2.86286 5.80215 0
M  V30 7439 N 684.36 -1.4356 -0.65026 0
M  V30 7440 C 685.606 -1.45549 -1.41221 0
M  V30 7441 C 685.939 -0.0805472 -1.94033 0
M  V30 7442 O 685.214 0.899043 -1.72475 0
M  V30 7443 C 685.497 -2.50028 -2.59148 0
M  V30 7444 C 685.35 -3.96808 -2.1181 0
M  V30 7445 C 686.669 -2.51212 -3.61359 0
M  V30 7446 H 683.788 -0.529967 -0.512156 0
M  V30 7447 H 686.43 -1.75127 -0.736933 0
M  V30 7448 H 684.58 -2.24937 -3.16758 0
M  V30 7449 H 686.252 -4.32966 -1.59178 0
M  V30 7450 H 684.495 -4.09498 -1.43156 0
M  V30 7451 H 685.166 -4.6553 -2.96625 0
M  V30 7452 H 687.642 -2.73583 -3.13515 0
M  V30 7453 H 686.518 -3.26252 -4.41419 0
M  V30 7454 H 686.779 -1.54701 -4.1415 0
M  V30 7455 N 685.838 0.888903 -1.30139 0
M  V30 7456 C 686.801 1.97576 -1.16174 0
M  V30 7457 C 687.801 1.60525 -0.094086 0
M  V30 7458 O 688.991 1.70812 -0.341889 0
M  V30 7459 C 686.123 3.3188 -0.778983 0
M  V30 7460 H 687.316 2.11393 -2.12728 0
M  V30 7461 H 684.869 1.0748 -1.1348 0
M  V30 7462 H 685.604 3.23765 0.186225 0
M  V30 7463 H 685.389 3.60141 -1.55051 0
M  V30 7464 H 686.879 4.11612 -0.704631 0
M  V30 7465 N 687.317 1.12792 1.10072 0
M  V30 7466 C 688.564 0.885545 1.82111 0
M  V30 7467 C 688.892 -0.588519 1.85383 0
M  V30 7468 O 688.147 -1.45124 1.31292 0
M  V30 7469 C 688.446 1.4102 3.28403 0
M  V30 7470 C 688.112 2.89995 3.45273 0
M  V30 7471 C 686.774 3.30671 3.49585 0
M  V30 7472 C 689.126 3.85874 3.50358 0
M  V30 7473 C 686.454 4.65925 3.56553 0
M  V30 7474 C 688.806 5.20963 3.58859 0
M  V30 7475 C 687.47 5.61177 3.61437 0
M  V30 7476 H 686.74 0.324044 0.666391 0
M  V30 7477 H 689.387 1.40874 1.29718 0
M  V30 7478 H 687.692 0.807551 3.83387 0
M  V30 7479 H 689.389 1.19882 3.82661 0
M  V30 7480 H 685.979 2.57537 3.42597 0
M  V30 7481 H 690.163 3.5554 3.46273 0
M  V30 7482 H 685.419 4.96468 3.56833 0
M  V30 7483 H 689.593 5.95079 3.61738 0
M  V30 7484 H 687.22 6.6597 3.66589 0
M  V30 7485 N 688.795 -1.27931 0.920396 0
M  V30 7486 C 689.725 -2.29487 0.431024 0
M  V30 7487 C 690.706 -1.62435 -0.504861 0
M  V30 7488 O 691.891 -1.89797 -0.411176 0
M  V30 7489 C 689.021 -3.45788 -0.323709 0
M  V30 7490 C 687.975 -4.24784 0.523658 0
M  V30 7491 C 687.301 -5.33488 -0.359809 0
M  V30 7492 C 688.601 -4.90874 1.78437 0
M  V30 7493 H 690.295 -2.70671 1.27975 0
M  V30 7494 H 687.841 -1.30121 0.616813 0
M  V30 7495 H 689.794 -4.15927 -0.676952 0
M  V30 7496 H 688.518 -3.03502 -1.2064 0
M  V30 7497 H 687.177 -3.56382 0.85951 0
M  V30 7498 H 686.825 -4.87445 -1.24124 0
M  V30 7499 H 686.525 -5.87247 0.203605 0
M  V30 7500 H 688.049 -6.06472 -0.708787 0
M  V30 7501 H 689.463 -5.53339 1.49963 0
M  V30 7502 H 687.86 -5.54659 2.29071 0
M  V30 7503 H 688.93 -4.14988 2.50824 0
M  V30 7504 N 690.273 -0.685099 -1.4193 0
M  V30 7505 C 691.236 -0.0222632 -2.29189 0
M  V30 7506 C 692.236 0.7186 -1.4385 0
M  V30 7507 O 693.426 0.555058 -1.6512 0
M  V30 7508 C 690.558 0.979013 -3.2654 0
M  V30 7509 H 691.751 -0.790424 -2.89296 0
M  V30 7510 H 689.304 -0.448012 -1.49742 0
M  V30 7511 H 690.039 1.77531 -2.71392 0
M  V30 7512 H 689.824 0.451037 -3.89497 0
M  V30 7513 H 691.314 1.44091 -3.91954 0
M  V30 7514 N 691.751 1.51645 -0.429126 0
M  V30 7515 C 692.698 2.27542 0.386446 0
M  V30 7516 C 693.668 1.30786 1.02393 0
M  V30 7517 O 694.853 1.59678 1.0444 0
M  V30 7518 C 691.993 3.11457 1.48623 0
M  V30 7519 C 691.106 4.23196 0.867691 0
M  V30 7520 C 690.241 4.94435 1.94183 0
M  V30 7521 C 689.28 5.98108 1.30129 0
M  V30 7522 N 688.417 6.62786 2.31644 0
M  V30 7523 H 693.257 2.968 -0.267155 0
M  V30 7524 H 690.794 1.46397 -0.143591 0
M  V30 7525 H 692.752 3.58429 2.13506 0
M  V30 7526 H 691.382 2.44329 2.10957 0
M  V30 7527 H 690.434 3.80248 0.107373 0
M  V30 7528 H 691.746 4.97499 0.35997 0
M  V30 7529 H 690.9 5.44914 2.66747 0
M  V30 7530 H 689.639 4.19744 2.48326 0
M  V30 7531 H 688.644 5.4693 0.561082 0
M  V30 7532 H 689.869 6.74751 0.767303 0
M  V30 7533 H 687.815 5.90913 2.84883 0
M  V30 7534 H 687.732 7.32828 1.85741 0
M  V30 7535 H 689 7.17897 3.03717 0
M  V30 7536 N 693.229 0.160201 1.56784 0
M  V30 7537 C 694.179 -0.786461 2.14007 0
M  V30 7538 C 695.163 -1.20046 1.07134 0
M  V30 7539 O 696.355 -1.16468 1.33283 0
M  V30 7540 C 693.484 -2.02024 2.77563 0
M  V30 7541 C 692.57 -1.62874 3.91578 0
M  V30 7542 N 692.961 -0.946176 4.96871 0
M  V30 7543 C 691.259 -1.92054 4.02531 0
M  V30 7544 C 691.96 -0.755084 5.76778 0
M  V30 7545 N 690.936 -1.29307 5.27997 0
M  V30 7546 H 694.738 -0.255879 2.92784 0
M  V30 7547 H 692.252 -0.0408778 1.62349 0
M  V30 7548 H 694.249 -2.70855 3.16928 0
M  V30 7549 H 692.909 -2.55587 2.00263 0
M  V30 7550 H 693.92 -0.605455 5.14349 0
M  V30 7551 H 690.597 -2.47374 3.36322 0
M  V30 7552 H 691.987 -0.216138 6.71552 0
M  V30 7553 N 694.707 -1.5719 -0.113559 0
M  V30 7554 C 696.118 -1.74259 -0.670116 0
M  V30 7555 C 696.469 -0.779694 -1.80042 0
M  V30 7556 O 695.594 0.0461353 -2.16351 0
M  V30 7557 C 696.189 -3.15981 -1.22236 0
M  V30 7558 C 694.748 -3.34537 -1.72516 0
M  V30 7559 C 693.895 -2.70116 -0.627098 0
M  V30 7560 H 696.846 -1.58301 0.112396 0
M  V30 7561 H 696.867 -3.17832 -2.09197 0
M  V30 7562 H 696.379 -3.86038 -0.39949 0
M  V30 7563 H 694.48 -2.6953 -2.57263 0
M  V30 7564 H 694.593 -4.42737 -1.83086 0
M  V30 7565 H 692.957 -2.31501 -1.06204 0
M  V30 7566 H 693.74 -3.42802 0.184889 0
M  V30 7567 N 696.185 0.383891 -1.52853 0
M  V30 7568 C 697.095 1.49343 -1.80925 0
M  V30 7569 C 698.111 1.59458 -0.696348 0
M  V30 7570 O 699.287 1.75698 -0.984481 0
M  V30 7571 C 696.352 2.84819 -1.97684 0
M  V30 7572 C 695.413 2.84382 -3.21598 0
M  V30 7573 C 694.646 4.13397 -3.37548 0
M  V30 7574 O 694.869 5.08619 -2.58192 0
M  V30 7575 O 693.803 4.20325 -4.30826 0
M  V30 7576 H 697.629 1.2855 -2.75152 0
M  V30 7577 H 695.214 0.572229 -1.38007 0
M  V30 7578 H 697.096 3.65125 -2.10385 0
M  V30 7579 H 695.771 3.05627 -1.06647 0
M  V30 7580 H 694.678 2.0284 -3.14336 0
M  V30 7581 H 696.011 2.68526 -4.12498 0
M  V30 7582 N 697.663 1.43903 0.642637 0
M  V30 7583 C 698.94 1.36556 1.40043 0
M  V30 7584 C 699.32 0.0185588 2.11092 0
M  V30 7585 O 698.668 -0.998438 2.05532 0
M  V30 7586 C 698.878 2.55596 2.37638 0
M  V30 7587 C 700.226 2.99153 3.01318 0
M  V30 7588 O 701.25 2.55719 2.47965 0
M  V30 7589 O 700.109 3.74427 3.98078 0
M  V30 7590 H 697.203 0.540189 0.626198 0
M  V30 7591 H 699.749 1.55971 0.668657 0
M  V30 7592 H 698.521 3.45256 1.84158 0
M  V30 7593 H 698.144 2.38334 3.18249 0
M  V30 7594 N 699.141 -0.881989 1.30609 0
M  V30 7595 C 700.387 -1.63647 1.19781 0
M  V30 7596 C 700.72 -1.92632 -0.246265 0
M  V30 7597 O 699.995 -1.54938 -1.17577 0
M  V30 7598 C 700.278 -2.97437 2.02985 0
M  V30 7599 C 700.131 -2.75406 3.55628 0
M  V30 7600 C 701.45 -3.98397 1.86997 0
M  V30 7601 H 698.569 -0.593841 0.436488 0
M  V30 7602 H 701.211 -1.02041 1.60273 0
M  V30 7603 H 699.361 -3.50018 1.68581 0
M  V30 7604 H 701.033 -2.2959 4.00107 0
M  V30 7605 H 699.276 -2.09856 3.79662 0
M  V30 7606 H 699.947 -3.70552 4.09139 0
M  V30 7607 H 702.423 -3.54986 2.17081 0
M  V30 7608 H 701.299 -4.89916 2.47536 0
M  V30 7609 H 701.56 -4.3424 0.829943 0
M  V30 7610 N 700.619 -1.13374 -1.09472 0
M  V30 7611 C 701.551 -0.768466 -2.15933 0
M  V30 7612 C 702.564 0.209585 -1.61445 0
M  V30 7613 O 703.753 -0.010539 -1.78497 0
M  V30 7614 C 700.853 -0.118266 -3.38694 0
M  V30 7615 C 700.026 -1.12829 -4.22597 0
M  V30 7616 C 699.085 -0.503875 -5.23782 0
M  V30 7617 O 698.111 -1.16374 -5.57177 0
M  V30 7618 N 699.313 0.724288 -5.75964 0
M  V30 7619 H 702.078 -1.68457 -2.47876 0
M  V30 7620 H 699.639 -1.02668 -1.25183 0
M  V30 7621 H 701.631 0.311698 -4.03498 0
M  V30 7622 H 700.201 0.700769 -3.04644 0
M  V30 7623 H 699.421 -1.73556 -3.53938 0
M  V30 7624 H 700.709 -1.81095 -4.75481 0
M  V30 7625 H 700.107 1.27918 -5.51048 0
M  V30 7626 H 698.664 1.09692 -6.42504 0
M  V30 7627 N 702.098 1.27442 -0.927168 0
M  V30 7628 C 703.323 1.99036 -0.583042 0
M  V30 7629 C 703.748 1.68711 0.83176 0
M  V30 7630 O 703.106 0.927081 1.55804 0
M  V30 7631 C 703.154 3.51271 -0.814925 0
M  V30 7632 O 702.258 4.12226 0.119742 0
M  V30 7633 H 701.599 0.624883 -0.224538 0
M  V30 7634 H 704.129 1.62263 -1.24628 0
M  V30 7635 H 704.139 4.01411 -0.730282 0
M  V30 7636 H 702.814 3.72676 -1.84623 0
M  V30 7637 H 701.391 3.72897 -0.0147688 0
M  V30 7638 N 703.576 0.692616 1.41565 0
M  V30 7639 C 704.801 0.229776 2.06123 0
M  V30 7640 C 705.226 -1.11119 1.5177 0
M  V30 7641 O 704.584 -1.69498 0.643444 0
M  V30 7642 C 704.632 0.19469 3.60074 0
M  V30 7643 O 703.736 -0.831366 4.03933 0
M  V30 7644 H 703.077 0.113002 0.654314 0
M  V30 7645 H 705.607 0.946645 1.81383 0
M  V30 7646 H 705.617 0.0245487 4.07993 0
M  V30 7647 H 704.292 1.17339 3.99004 0
M  V30 7648 H 702.869 -0.630819 3.67526 0
M  V30 7649 N 705.054 -1.51416 0.437162 0
M  V30 7650 C 706.002 -2.29328 -0.388765 0
M  V30 7651 C 706.996 -1.35171 -1.02104 0
M  V30 7652 O 708.202 -1.52513 -0.956024 0
M  V30 7653 H 704.577 -0.738048 -0.144183 0
M  V30 7654 H 706.548 -2.96995 0.289212 0
M  V30 7655 C 705.297 -3.14741 -1.47761 0
M  V30 7656 H 704.62 -3.8708 -1.00045 0
M  V30 7657 H 706.06 -3.72313 -2.02877 0
M  V30 7658 C 704.519 -2.30105 -2.46076 0
M  V30 7659 O 705.049 -1.96055 -3.50607 0
M  V30 7660 N 703.255 -1.93331 -2.1696 0
M  V30 7661 H 702.802 -2.2122 -1.31983 0
M  V30 7662 H 702.76 -1.36999 -2.82982 0
M  V30 7663 N 706.532 -0.168513 -1.56696 0
M  V30 7664 C 707.78 0.476216 -1.96409 0
M  V30 7665 C 708.101 1.63968 -1.05544 0
M  V30 7666 O 707.371 1.95525 -0.121235 0
M  V30 7667 H 705.951 0.178921 -0.725256 0
M  V30 7668 H 708.613 -0.249042 -1.93302 0
M  V30 7669 H 707.709 0.838094 -3.00637 0
M  V30 7670 N 708.01 1.57248 0.105221 0
M  V30 7671 C 709.235 1.90143 0.828264 0
M  V30 7672 C 709.66 0.761811 1.71983 0
M  V30 7673 O 709.018 -0.287086 1.79013 0
M  V30 7674 C 709.066 3.21856 1.62608 0
M  V30 7675 O 708.17 3.08732 2.7342 0
M  V30 7676 H 707.511 0.623558 0.228192 0
M  V30 7677 H 710.041 2.0443 0.0834826 0
M  V30 7678 H 710.051 3.54916 2.01243 0
M  V30 7679 H 708.726 4.0439 0.971687 0
M  V30 7680 H 707.303 2.87167 2.37886 0
M  V30 7681 N 709.488 -0.375779 1.53054 0
M  V30 7682 C 710.734 -1.12114 1.68992 0
M  V30 7683 C 711.067 -1.8926 0.435238 0
M  V30 7684 O 710.342 -1.86044 -0.567278 0
M  V30 7685 C 710.625 -2.08867 2.93337 0
M  V30 7686 C 710.478 -1.35397 4.28938 0
M  V30 7687 C 711.797 -3.09124 3.13257 0
M  V30 7688 H 708.916 -0.406207 0.614951 0
M  V30 7689 H 711.558 -0.403054 1.85676 0
M  V30 7690 H 709.708 -2.70102 2.79244 0
M  V30 7691 H 711.38 -0.770242 4.54824 0
M  V30 7692 H 709.623 -0.655801 4.28814 0
M  V30 7693 H 710.294 -2.06161 5.12056 0
M  V30 7694 H 712.77 -2.57987 3.26469 0
M  V30 7695 H 711.646 -3.74054 4.01715 0
M  V30 7696 H 711.907 -3.78729 2.28072 0
M  V30 7697 N 710.966 -1.44241 -0.634997 0
M  V30 7698 C 712.196 -1.50078 -1.41987 0
M  V30 7699 C 712.604 -0.123072 -1.88799 0
M  V30 7700 O 711.947 0.880552 -1.6122 0
M  V30 7701 C 712.009 -2.40033 -2.67628 0
M  V30 7702 C 711.673 -3.87268 -2.42637 0
M  V30 7703 C 712.67 -4.77902 -2.04708 0
M  V30 7704 C 710.355 -4.31933 -2.56396 0
M  V30 7705 C 712.349 -6.11202 -1.80862 0
M  V30 7706 C 710.036 -5.65281 -2.32164 0
M  V30 7707 C 711.034 -6.54734 -1.94455 0
M  V30 7708 O 710.722 -7.85613 -1.7049 0
M  V30 7709 H 710.454 -0.51146 -0.442023 0
M  V30 7710 H 713.008 -1.89843 -0.784138 0
M  V30 7711 H 711.238 -1.95188 -3.33824 0
M  V30 7712 H 712.927 -2.36863 -3.29622 0
M  V30 7713 H 713.693 -4.44668 -1.93638 0
M  V30 7714 H 709.572 -3.62569 -2.84719 0
M  V30 7715 H 713.116 -6.80983 -1.51353 0
M  V30 7716 H 709.013 -5.98078 -2.42843 0
M  V30 7717 H 709.781 -7.97373 -1.84767 0
M  V30 7718 N 712.444 0.87505 -1.31075 0
M  V30 7719 C 713.672 1.66058 -1.23419 0
M  V30 7720 C 714.087 1.87723 0.201347 0
M  V30 7721 O 713.444 1.43178 1.13165 0
M  V30 7722 C 713.495 3.03142 -1.96945 0
M  V30 7723 O 713.216 2.82448 -3.34895 0
M  V30 7724 C 714.717 3.97583 -1.96067 0
M  V30 7725 H 711.937 0.517868 -0.426677 0
M  V30 7726 H 714.481 1.09258 -1.72867 0
M  V30 7727 H 712.636 3.56645 -1.51271 0
M  V30 7728 H 713.05 3.69483 -3.72267 0
M  V30 7729 H 714.524 4.91104 -2.52034 0
M  V30 7730 H 715.001 4.2898 -0.941961 0
M  V30 7731 H 715.607 3.50015 -2.41597 0
M  V30 7732 N 713.922 1.13953 1.08869 0
M  V30 7733 C 715.168 0.916103 1.81602 0
M  V30 7734 C 715.523 -0.551633 1.84322 0
M  V30 7735 O 714.816 -1.40322 1.30462 0
M  V30 7736 C 715.01 1.44495 3.26888 0
M  V30 7737 C 714.839 2.96257 3.38322 0
M  V30 7738 C 713.609 3.64658 3.49789 0
M  V30 7739 C 715.807 3.94156 3.30372 0
M  V30 7740 N 713.789 5.04379 3.49965 0
M  V30 7741 C 715.16 5.20101 3.37484 0
M  V30 7742 C 717.215 3.86342 3.14077 0
M  V30 7743 C 715.918 6.39145 3.29979 0
M  V30 7744 C 717.944 5.04927 3.07901 0
M  V30 7745 C 717.306 6.29738 3.1561 0
M  V30 7746 H 713.405 0.388701 0.678554 0
M  V30 7747 H 715.989 1.44879 1.3007 0
M  V30 7748 H 714.16 0.939102 3.76876 0
M  V30 7749 H 715.892 1.16193 3.87661 0
M  V30 7750 H 712.647 3.15196 3.5348 0
M  V30 7751 H 713.071 5.77305 3.53622 0
M  V30 7752 H 717.713 2.90726 3.06982 0
M  V30 7753 H 715.431 7.3501 3.35836 0
M  V30 7754 H 719.017 5.00626 2.9642 0
M  V30 7755 H 717.897 7.19958 3.10854 0
M  V30 7756 N 715.4 -1.26948 0.933913 0
M  V30 7757 C 716.816 -1.46419 0.635103 0
M  V30 7758 C 717.016 -1.84336 -0.813785 0
M  V30 7759 O 716.072 -1.96061 -1.59111 0
M  V30 7760 C 717.385 -2.55206 1.5903 0
M  V30 7761 C 718.933 -2.69062 1.5992 0
M  V30 7762 C 719.408 -3.81013 2.54152 0
M  V30 7763 N 720.899 -3.88395 2.52395 0
M  V30 7764 C 721.634 -4.74454 3.21996 0
M  V30 7765 N 721.13 -5.64954 4.00997 0
M  V30 7766 N 722.923 -4.68237 3.10983 0
M  V30 7767 H 715.074 -1.00622 1.87053 0
M  V30 7768 H 717.337 -0.503189 0.803433 0
M  V30 7769 H 717.043 -2.34153 2.62422 0
M  V30 7770 H 716.917 -3.52719 1.33677 0
M  V30 7771 H 719.304 -2.89492 0.572569 0
M  V30 7772 H 719.385 -1.72016 1.89325 0
M  V30 7773 H 719.029 -3.61336 3.5693 0
M  V30 7774 H 718.959 -4.77499 2.22041 0
M  V30 7775 H 721.45 -3.23687 1.95025 0
M  V30 7776 H 721.763 -6.27496 4.51074 0
M  V30 7777 H 720.108 -5.6473 4.05099 0
M  V30 7778 H 723.299 -3.96535 2.48753 0
M  V30 7779 H 723.472 -5.35087 3.65494 0
M  V30 7780 N 716.879 -0.700114 -1.41195 0
M  V30 7781 C 717.789 -0.0382854 -2.34569 0
M  V30 7782 C 718.805 0.761036 -1.56474 0
M  V30 7783 O 719.981 0.697553 -1.88934 0
M  V30 7784 C 717.046 0.883522 -3.35253 0
M  V30 7785 C 716.107 0.0758957 -4.29233 0
M  V30 7786 C 715.34 0.9538 -5.25108 0
M  V30 7787 O 715.563 2.19326 -5.26547 0
M  V30 7788 O 714.497 0.401049 -6.00562 0
M  V30 7789 H 718.323 -0.808073 -2.92752 0
M  V30 7790 H 715.908 -0.460479 -1.42127 0
M  V30 7791 H 717.79 1.41199 -3.9704 0
M  V30 7792 H 716.465 1.63272 -2.79506 0
M  V30 7793 H 715.372 -0.497274 -3.7078 0
M  V30 7794 H 716.705 -0.634741 -4.8809 0
M  V30 7795 N 718.357 1.51182 -0.445186 0
M  V30 7796 C 719.32 2.26501 0.350722 0
M  V30 7797 C 720.32 1.3025 0.942952 0
M  V30 7798 O 721.51 1.53897 0.816175 0
M  V30 7799 C 718.642 3.06274 1.49697 0
M  V30 7800 H 719.835 2.98299 -0.309474 0
M  V30 7801 H 717.388 1.55034 -0.198551 0
M  V30 7802 H 718.123 2.38911 2.19299 0
M  V30 7803 H 717.908 3.76979 1.0784 0
M  V30 7804 H 719.398 3.63306 2.05909 0
M  V30 7805 N 719.835 0.176821 1.56605 0
M  V30 7806 C 721.082 -0.466715 1.97048 0
M  V30 7807 C 721.41 -1.6288 1.06302 0
M  V30 7808 O 720.665 -1.95453 0.0982571 0
M  V30 7809 C 720.964 -0.986208 3.43524 0
M  V30 7810 C 720.63 0.0605667 4.50859 0
M  V30 7811 C 719.292 0.348242 4.79938 0
M  V30 7812 C 721.644 0.770794 5.15469 0
M  V30 7813 C 718.972 1.35144 5.70923 0
M  V30 7814 C 721.324 1.76301 6.07537 0
M  V30 7815 C 719.988 2.05808 6.3498 0
M  V30 7816 H 719.258 -0.170783 0.721051 0
M  V30 7817 H 721.905 0.269942 1.89588 0
M  V30 7818 H 720.21 -1.80079 3.47964 0
M  V30 7819 H 721.907 -1.49323 3.72161 0
M  V30 7820 H 718.497 -0.173823 4.28247 0
M  V30 7821 H 722.681 0.56176 4.9311 0
M  V30 7822 H 717.937 1.58616 5.90467 0
M  V30 7823 H 722.111 2.31868 6.56666 0
M  V30 7824 H 719.738 2.8369 7.05283 0
M  V30 7825 N 721.313 -1.57302 -0.09688 0
M  V30 7826 C 722.261 -2.02942 -1.13654 0
M  V30 7827 C 723.255 -0.930173 -1.41577 0
M  V30 7828 O 724.461 -1.11535 -1.41279 0
M  V30 7829 H 720.836 -0.646726 -0.383731 0
M  V30 7830 H 722.807 -2.89452 -0.725267 0
M  V30 7831 C 721.556 -2.46815 -2.44903 0
M  V30 7832 H 720.879 -3.30979 -2.24261 0
M  V30 7833 H 722.319 -2.82527 -3.16156 0
M  V30 7834 C 720.778 -1.34071 -3.09074 0
M  V30 7835 O 721.308 -0.668856 -3.96092 0
M  V30 7836 N 719.514 -1.09214 -2.69296 0
M  V30 7837 H 719.061 -1.64029 -1.98626 0
M  V30 7838 H 719.019 -0.339785 -3.12559 0
M  V30 7839 N 722.791 0.367657 -1.53252 0
M  V30 7840 C 723.701 1.47415 -1.82499 0
M  V30 7841 C 724.717 1.58711 -0.713222 0
M  V30 7842 O 725.893 1.74644 -1.00306 0
M  V30 7843 C 722.958 2.82706 -2.00694 0
M  V30 7844 C 722.019 2.80955 -3.24596 0
M  V30 7845 C 721.252 4.09793 -3.41914 0
M  V30 7846 O 721.475 5.05852 -2.63572 0
M  V30 7847 O 720.409 4.15731 -4.3526 0
M  V30 7848 H 724.235 1.25624 -2.765 0
M  V30 7849 H 721.82 0.557559 -1.38606 0
M  V30 7850 H 723.702 3.62873 -2.14246 0
M  V30 7851 H 722.377 3.04479 -1.09883 0
M  V30 7852 H 721.284 1.99494 -3.16469 0
M  V30 7853 H 722.617 2.64136 -4.15323 0
M  V30 7854 N 724.269 1.44576 0.627338 0
M  V30 7855 C 725.497 1.51048 1.41394 0
M  V30 7856 C 725.912 0.136568 1.88305 0
M  V30 7857 O 725.269 -0.858251 1.6106 0
M  V30 7858 C 725.32 2.47837 2.63172 0
M  V30 7859 O 725.041 3.79887 2.18215 0
M  V30 7860 C 726.542 2.63811 3.56257 0
M  V30 7861 H 723.762 0.512171 0.4335 0
M  V30 7862 H 726.306 1.89576 0.766878 0
M  V30 7863 H 724.461 2.12433 3.23961 0
M  V30 7864 H 724.875 4.32177 2.97192 0
M  V30 7865 H 726.349 3.35554 4.38301 0
M  V30 7866 H 726.826 1.69169 4.05313 0
M  V30 7867 H 727.432 3.0013 3.01333 0
M  V30 7868 N 725.747 -0.868086 1.31537 0
M  V30 7869 C 726.695 -1.99688 1.1928 0
M  V30 7870 C 727.689 -1.69101 0.100656 0
M  V30 7871 O 728.895 -1.78073 0.262677 0
M  V30 7872 H 725.27 -0.655032 0.369374 0
M  V30 7873 H 727.241 -2.07157 2.14776 0
M  V30 7874 C 725.99 -3.35338 0.918892 0
M  V30 7875 H 725.313 -3.59396 1.75142 0
M  V30 7876 H 726.753 -4.14909 0.873311 0
M  V30 7877 C 725.212 -3.34769 -0.378366 0
M  V30 7878 O 725.742 -3.76716 -1.39456 0
M  V30 7879 N 723.948 -2.87895 -0.39557 0
M  V30 7880 H 723.495 -2.53954 0.431889 0
M  V30 7881 H 723.453 -2.87897 -1.26344 0
M  V30 7882 N 727.225 -1.14528 -1.08264 0
M  V30 7883 C 728.157 -0.791325 -2.15106 0
M  V30 7884 C 729.17 0.192449 -1.61659 0
M  V30 7885 O 730.359 -0.0294704 -1.78476 0
M  V30 7886 C 727.459 -0.154183 -3.38549 0
M  V30 7887 C 726.632 -1.17305 -4.21377 0
M  V30 7888 C 725.691 -0.559401 -5.23218 0
M  V30 7889 O 724.717 -1.22277 -5.55911 0
M  V30 7890 N 725.919 0.663159 -5.767 0
M  V30 7891 H 728.684 -1.71076 -2.46075 0
M  V30 7892 H 726.245 -1.0399 -1.24087 0
M  V30 7893 H 728.237 0.268884 -4.03806 0
M  V30 7894 H 726.807 0.668418 -3.0537 0
M  V30 7895 H 726.027 -1.773 -3.52077 0
M  V30 7896 H 727.315 -1.86128 -4.73533 0
M  V30 7897 H 726.713 1.22066 -5.52373 0
M  V30 7898 H 725.27 1.02871 -6.43631 0
M  V30 7899 N 728.703 1.26451 -0.940633 0
M  V30 7900 C 729.666 2.24651 -0.454378 0
M  V30 7901 C 730.666 1.54826 0.434222 0
M  V30 7902 O 731.856 1.72628 0.233477 0
M  V30 7903 C 728.988 3.39148 0.345192 0
M  V30 7904 H 730.181 2.69182 -1.32217 0
M  V30 7905 H 727.734 1.38596 -0.722547 0
M  V30 7906 H 728.469 3.00018 1.23125 0
M  V30 7907 H 728.254 3.9101 -0.292107 0
M  V30 7908 H 729.744 4.12103 0.675341 0
M  V30 7909 N 730.181 0.707592 1.40822 0
M  V30 7910 C 731.43 0.240705 2.00259 0
M  V30 7911 C 731.743 -1.17027 1.56729 0
M  V30 7912 O 732.949 -1.73526 2.08809 0
M  V30 7913 C 731.405 0.379432 3.57894 0
M  V30 7914 C 731.013 1.79654 4.104 0
M  V30 7915 C 732.757 -0.0270684 4.24491 0
M  V30 7916 C 730.664 1.88628 5.60512 0
M  V30 7917 H 729.594 0.0862369 0.749052 0
M  V30 7918 H 732.245 0.877528 1.61157 0
M  V30 7919 H 730.627 -0.325842 3.94657 0
M  V30 7920 H 731.801 2.53155 3.85032 0
M  V30 7921 H 730.116 2.15379 3.56372 0
M  V30 7922 H 732.713 0.0193743 5.34696 0
M  V30 7923 H 733.056 -1.06772 4.02375 0
M  V30 7924 H 733.589 0.628361 3.92806 0
M  V30 7925 H 730.328 2.90787 5.87472 0
M  V30 7926 H 729.848 1.19528 5.8777 0
M  V30 7927 H 731.527 1.6547 6.25483 0
M  V30 7928 N 731.66 -1.50943 0.453197 0
M  V30 7929 C 733.076 -1.59245 0.106342 0
M  V30 7930 C 733.276 -1.46287 -1.38572 0
M  V30 7931 O 732.332 -1.31219 -2.15726 0
M  V30 7932 C 733.645 -2.93797 0.640595 0
M  V30 7933 C 735.193 -3.07148 0.602435 0
M  V30 7934 C 735.668 -4.44247 1.11393 0
M  V30 7935 N 737.159 -4.50611 1.07258 0
M  V30 7936 C 737.894 -5.55049 1.43905 0
M  V30 7937 N 737.39 -6.66828 1.87914 0
M  V30 7938 N 739.183 -5.45494 1.35621 0
M  V30 7939 H 731.334 -1.5761 1.42382 0
M  V30 7940 H 733.597 -0.74384 0.587713 0
M  V30 7941 H 733.303 -3.087 1.68515 0
M  V30 7942 H 733.177 -3.77127 0.0742272 0
M  V30 7943 H 735.564 -2.91903 -0.433171 0
M  V30 7944 H 735.645 -2.25619 1.20539 0
M  V30 7945 H 735.289 -4.60239 2.14808 0
M  V30 7946 H 735.219 -5.2434 0.487353 0
M  V30 7947 H 737.71 -3.70391 0.749585 0
M  V30 7948 H 738.023 -7.42558 2.14072 0
M  V30 7949 H 736.368 -6.67995 1.91853 0
M  V30 7950 H 739.559 -4.57053 1.01093 0
M  V30 7951 H 739.732 -6.2677 1.64508 0
M  V30 7952 N 733.138 -0.185124 -1.56509 0
M  V30 7953 C 734.366 0.462139 -2.01673 0
M  V30 7954 C 734.781 1.55873 -1.06532 0
M  V30 7955 O 734.138 1.82371 -0.0684805 0
M  V30 7956 C 734.189 1.0277 -3.46584 0
M  V30 7957 O 733.91 -0.0251296 -4.38093 0
M  V30 7958 C 735.411 1.75183 -4.07217 0
M  V30 7959 H 732.631 0.117001 -0.660721 0
M  V30 7960 H 735.175 -0.290905 -2.0242 0
M  V30 7961 H 733.33 1.73118 -3.46568 0
M  V30 7962 H 733.744 0.394387 -5.23015 0
M  V30 7963 H 735.218 2.09999 -5.10494 0
M  V30 7964 H 735.695 2.6519 -3.50101 0
M  V30 7965 H 736.301 1.09445 -4.10977 0
M  V30 7966 N 734.616 1.57351 0.0885366 0
M  V30 7967 C 735.865 1.85604 0.789556 0
M  V30 7968 C 736.178 0.775352 1.79576 0
M  V30 7969 O 737.384 0.945206 2.54515 0
M  V30 7970 C 735.84 3.29175 1.45506 0
M  V30 7971 C 735.448 4.45331 0.488278 0
M  V30 7972 C 737.192 3.66646 2.13942 0
M  V30 7973 C 735.099 5.79937 1.15874 0
M  V30 7974 H 734.029 0.692346 0.298619 0
M  V30 7975 H 736.68 1.83451 0.0425821 0
M  V30 7976 H 735.062 3.25889 2.24972 0
M  V30 7977 H 736.236 4.59977 -0.275359 0
M  V30 7978 H 734.551 4.16301 -0.0907363 0
M  V30 7979 H 737.148 4.64498 2.6485 0
M  V30 7980 H 737.491 2.956 2.93132 0
M  V30 7981 H 738.024 3.71848 1.41328 0
M  V30 7982 H 734.763 6.54232 0.407508 0
M  V30 7983 H 734.283 5.69123 1.89364 0
M  V30 7984 H 735.962 6.24718 1.68336 0
M  V30 7985 N 736.094 -0.359525 1.53444 0
M  V30 7986 C 737.319 -1.12644 1.74144 0
M  V30 7987 C 737.744 -1.82082 0.472007 0
M  V30 7988 O 737.102 -1.71962 -0.57436 0
M  V30 7989 C 737.15 -2.12781 2.9113 0
M  V30 7990 O 736.254 -3.19984 2.60162 0
M  V30 7991 H 735.595 -0.326553 0.578152 0
M  V30 7992 H 738.125 -0.414798 2.00351 0
M  V30 7993 H 738.135 -2.56278 3.17467 0
M  V30 7994 H 736.81 -1.61634 3.83207 0
M  V30 7995 H 735.387 -2.81417 2.44661 0
M  V30 7996 N 737.572 -1.44907 -0.619662 0
M  V30 7997 C 738.988 -1.29046 -0.939107 0
M  V30 7998 C 739.188 -0.23462 -2.00129 0
M  V30 7999 O 738.244 0.37558 -2.49691 0
M  V30 8000 C 739.557 -2.66567 -1.39149 0
M  V30 8001 C 741.105 -2.74368 -1.50635 0
M  V30 8002 C 741.58 -4.12386 -1.99253 0
M  V30 8003 N 743.071 -4.1462 -2.06506 0
M  V30 8004 C 743.806 -5.18272 -2.4532 0
M  V30 8005 N 743.302 -6.32278 -2.83189 0
M  V30 8006 N 745.095 -5.05628 -2.45554 0
M  V30 8007 H 737.246 -2.12239 0.0826135 0
M  V30 8008 H 739.509 -0.947652 -0.0256829 0
M  V30 8009 H 739.215 -3.4496 -0.685254 0
M  V30 8010 H 739.089 -2.94224 -2.36034 0
M  V30 8011 H 741.476 -1.96287 -2.20353 0
M  V30 8012 H 741.557 -2.50439 -0.520963 0
M  V30 8013 H 741.201 -4.90947 -1.30127 0
M  V30 8014 H 741.131 -4.33699 -2.98684 0
M  V30 8015 H 743.622 -3.32343 -1.79878 0
M  V30 8016 H 743.935 -7.07172 -3.11652 0
M  V30 8017 H 742.28 -6.35699 -2.80913 0
M  V30 8018 H 745.471 -4.15613 -2.15367 0
M  V30 8019 H 745.644 -5.86529 -2.75478 0
M  V30 8020 N 739.05 0.861098 -1.31996 0
M  V30 8021 C 740.297 1.61481 -1.22188 0
M  V30 8022 C 740.625 1.93276 0.217853 0
M  V30 8023 O 739.88 1.56942 1.16909 0
M  V30 8024 C 740.179 2.94822 -2.02027 0
M  V30 8025 C 739.845 2.82483 -3.51446 0
M  V30 8026 C 738.507 2.78825 -3.92186 0
M  V30 8027 C 740.859 2.68878 -4.46491 0
M  V30 8028 C 738.187 2.59433 -5.26224 0
M  V30 8029 C 740.539 2.51022 -5.80664 0
M  V30 8030 C 739.203 2.45753 -6.20614 0
M  V30 8031 H 738.473 0.590902 -0.447119 0
M  V30 8032 H 741.12 0.999376 -1.63355 0
M  V30 8033 H 739.425 3.6045 -1.53569 0
M  V30 8034 H 741.122 3.52149 -1.91812 0
M  V30 8035 H 737.712 2.86152 -3.19085 0
M  V30 8036 H 741.896 2.70754 -4.1594 0
M  V30 8037 H 737.152 2.53784 -5.5624 0
M  V30 8038 H 741.326 2.39473 -6.53931 0
M  V30 8039 H 738.953 2.30485 -7.24417 0
M  V30 8040 N 740.528 1.15101 1.07655 0
M  V30 8041 C 741.461 0.788522 2.14144 0
M  V30 8042 C 742.439 -0.233635 1.60913 0
M  V30 8043 O 743.623 -0.120908 1.88112 0
M  V30 8044 C 740.75 0.172033 3.38263 0
M  V30 8045 C 739.796 1.16559 4.10264 0
M  V30 8046 S 740.629 2.70627 4.62084 0
M  V30 8047 C 741.785 2.10389 5.8948 0
M  V30 8048 H 742.018 1.69047 2.44561 0
M  V30 8049 H 739.551 0.973033 1.19881 0
M  V30 8050 H 741.509 -0.177223 4.10117 0
M  V30 8051 H 740.17 -0.707468 3.06029 0
M  V30 8052 H 739.363 0.6824 4.99359 0
M  V30 8053 H 738.965 1.45923 3.44358 0
M  V30 8054 H 741.257 1.46405 6.61492 0
M  V30 8055 H 742.2 2.97639 6.42508 0
M  V30 8056 H 742.608 1.54816 5.42856 0
M  V30 8057 N 742.006 -1.2595 0.947325 0
M  V30 8058 C 742.916 -2.29883 0.468079 0
M  V30 8059 C 743.932 -1.67783 -0.460975 0
M  V30 8060 O 745.108 -1.98526 -0.339006 0
M  V30 8061 C 742.173 -3.45773 -0.253315 0
M  V30 8062 C 741.234 -4.23337 0.713054 0
M  V30 8063 C 740.467 -5.33694 0.025993 0
M  V30 8064 O 740.69 -5.57853 -1.18978 0
M  V30 8065 O 739.624 -5.97724 0.70782 0
M  V30 8066 H 743.45 -2.72952 1.33156 0
M  V30 8067 H 741.035 -1.31263 0.713468 0
M  V30 8068 H 742.917 -4.16209 -0.659423 0
M  V30 8069 H 741.592 -3.04721 -1.09209 0
M  V30 8070 H 740.499 -3.55359 1.16923 0
M  V30 8071 H 741.832 -4.68154 1.51963 0
M  V30 8072 N 743.484 -0.715051 -1.40445 0
M  V30 8073 C 744.724 -0.258742 -2.02756 0
M  V30 8074 C 745.088 1.12661 -1.55472 0
M  V30 8075 O 746.289 1.67988 -2.09842 0
M  V30 8076 C 744.56 -0.335201 -3.55825 0
M  V30 8077 S 746.119 0.044201 -4.38778 0
M  V30 8078 H 742.937 -0.102683 -0.703546 0
M  V30 8079 H 745.539 -0.937151 -1.71574 0
M  V30 8080 H 744.243 -1.34511 -3.87731 0
M  V30 8081 H 743.774 0.361705 -3.91734 0
M  V30 8082 H 745.789 1.26639 -4.79768 0
M  V30 8083 N 744.962 1.50701 -0.461195 0
M  V30 8084 C 746.208 2.02566 0.0973411 0
M  V30 8085 C 746.541 1.3432 1.40257 0
M  V30 8086 O 745.816 0.465692 1.88843 0
M  V30 8087 C 746.099 3.58919 0.291423 0
M  V30 8088 C 745.952 4.37751 -1.03413 0
M  V30 8089 C 747.271 4.27379 1.05048 0
M  V30 8090 H 744.39 0.73622 0.0339026 0
M  V30 8091 H 747.032 1.80115 -0.604855 0
M  V30 8092 H 745.182 3.78179 0.889539 0
M  V30 8093 H 746.854 4.30085 -1.66806 0
M  V30 8094 H 745.097 4.01885 -1.63313 0
M  V30 8095 H 745.768 5.45384 -0.852085 0
M  V30 8096 H 748.244 4.12534 0.543603 0
M  V30 8097 H 747.12 5.36609 1.15506 0
M  V30 8098 H 747.381 3.89868 2.0846 0
M  V30 8099 N 746.441 0.193421 1.56409 0
M  V30 8100 C 747.389 -0.744829 2.20352 0
M  V30 8101 C 748.383 -1.22104 1.17418 0
M  V30 8102 O 749.589 -1.18413 1.35567 0
M  V30 8103 H 745.964 -0.258538 0.70616 0
M  V30 8104 H 747.935 -0.181794 2.97846 0
M  V30 8105 C 746.684 -1.95453 2.87565 0
M  V30 8106 H 746.007 -1.59716 3.66512 0
M  V30 8107 H 747.447 -2.58942 3.35745 0
M  V30 8108 C 745.906 -2.79223 1.8851 0
M  V30 8109 O 746.436 -3.77093 1.38434 0
M  V30 8110 N 744.642 -2.44682 1.56777 0
M  V30 8111 H 744.189 -1.65153 1.97692 0
M  V30 8112 H 744.147 -3.01016 0.907573 0
M  V30 8113 N 747.919 -1.57396 -0.0801906 0
M  V30 8114 C 748.849 -2.06145 -1.09665 0
M  V30 8115 C 749.83 -0.953273 -1.40878 0
M  V30 8116 O 751.015 -1.22548 -1.50651 0
M  V30 8117 C 748.145 -2.49836 -2.41245 0
M  V30 8118 C 747.099 -3.64454 -2.24405 0
M  V30 8119 C 746.425 -3.94172 -3.61293 0
M  V30 8120 C 747.725 -4.94807 -1.67223 0
M  V30 8121 H 749.419 -2.91316 -0.691028 0
M  V30 8122 H 746.965 -1.40145 -0.330957 0
M  V30 8123 H 748.918 -2.82552 -3.12638 0
M  V30 8124 H 747.642 -1.61683 -2.83771 0
M  V30 8125 H 746.301 -3.32008 -1.55454 0
M  V30 8126 H 745.949 -3.03163 -4.01374 0
M  V30 8127 H 745.649 -4.71345 -3.50867 0
M  V30 8128 H 747.173 -4.29376 -4.3413 0
M  V30 8129 H 748.587 -5.25807 -2.28472 0
M  V30 8130 H 746.984 -5.76245 -1.67515 0
M  V30 8131 H 748.054 -4.80751 -0.632944 0
M  V30 8132 N 749.397 0.351382 -1.53633 0
M  V30 8133 C 750.345 1.45142 -1.8176 0
M  V30 8134 C 751.339 1.54819 -0.687571 0
M  V30 8135 O 752.545 1.57536 -0.870772 0
M  V30 8136 H 748.92 0.483789 -0.575719 0
M  V30 8137 H 750.891 1.1863 -2.73806 0
M  V30 8138 C 749.64 2.81779 -2.03706 0
M  V30 8139 H 748.963 2.75097 -2.90107 0
M  V30 8140 H 750.403 3.5789 -2.27356 0
M  V30 8141 C 748.862 3.26762 -0.820271 0
M  V30 8142 O 749.392 4.01697 -0.0158603 0
M  V30 8143 N 747.598 2.83472 -0.639699 0
M  V30 8144 H 747.145 2.22655 -1.29547 0
M  V30 8145 H 747.103 3.13924 0.172995 0
M  V30 8146 N 750.875 1.45233 0.611969 0
M  V30 8147 C 751.822 1.5357 1.72293 0
M  V30 8148 C 752.792 0.381912 1.6165 0
M  V30 8149 O 753.977 0.594765 1.81293 0
M  V30 8150 C 751.117 1.50419 3.10593 0
M  V30 8151 C 750.23 2.76316 3.32074 0
M  V30 8152 C 749.365 2.64866 4.60456 0
M  V30 8153 C 748.404 3.85838 4.7518 0
M  V30 8154 N 747.541 3.72949 5.94856 0
M  V30 8155 H 752.381 2.4848 1.64504 0
M  V30 8156 H 749.918 1.23302 0.802191 0
M  V30 8157 H 751.876 1.4658 3.90602 0
M  V30 8158 H 750.506 0.590621 3.17351 0
M  V30 8159 H 749.558 2.90261 2.45872 0
M  V30 8160 H 750.87 3.66055 3.38829 0
M  V30 8161 H 750.024 2.58969 5.48653 0
M  V30 8162 H 748.763 1.72719 4.56092 0
M  V30 8163 H 747.768 3.92099 3.85407 0
M  V30 8164 H 748.993 4.79045 4.81344 0
M  V30 8165 H 746.939 2.83567 5.91545 0
M  V30 8166 H 746.856 4.56319 6.02751 0
M  V30 8167 H 748.124 3.70976 6.85563 0
M  V30 8168 N 752.353 -0.854086 1.3245 0
M  V30 8169 C 753.283 -1.97827 1.24044 0
M  V30 8170 C 754.264 -1.69646 0.124166 0
M  V30 8171 O 755.449 -1.91687 0.31143 0
M  V30 8172 C 752.579 -3.33673 0.963324 0
M  V30 8173 C 751.533 -3.76207 2.04089 0
M  V30 8174 C 750.859 -5.0969 1.61618 0
M  V30 8175 C 752.159 -3.91612 3.45597 0
M  V30 8176 H 753.853 -2.05118 2.18099 0
M  V30 8177 H 751.399 -0.985489 1.04996 0
M  V30 8178 H 753.352 -4.11871 0.891061 0
M  V30 8179 H 752.076 -3.26597 -0.0128649 0
M  V30 8180 H 750.735 -3.0026 2.10332 0
M  V30 8181 H 750.383 -4.99072 0.627418 0
M  V30 8182 H 750.083 -5.3912 2.33717 0
M  V30 8183 H 751.607 -5.90381 1.55829 0
M  V30 8184 H 753.021 -4.60163 3.4194 0
M  V30 8185 H 751.418 -4.3246 4.16051 0
M  V30 8186 H 752.488 -2.9451 3.85217 0
M  V30 8187 N 753.831 -1.1567 -1.07043 0
M  V30 8188 C 754.741 -0.870435 -2.17855 0
M  V30 8189 C 755.757 0.154452 -1.73313 0
M  V30 8190 O 756.933 -0.0203759 -2.0139 0
M  V30 8191 C 753.998 -0.367219 -3.4475 0
M  V30 8192 C 753.059 -1.45639 -4.03841 0
M  V30 8193 C 752.292 -0.977092 -5.2468 0
M  V30 8194 O 752.515 0.176127 -5.70128 0
M  V30 8195 O 751.449 -1.76215 -5.75527 0
M  V30 8196 H 755.275 -1.79687 -2.44839 0
M  V30 8197 H 752.86 -0.936064 -1.1644 0
M  V30 8198 H 754.742 -0.0931947 -4.21297 0
M  V30 8199 H 753.417 0.53131 -3.1931 0
M  V30 8200 H 752.324 -1.78406 -3.28819 0
M  V30 8201 H 753.657 -2.32995 -4.3356 0
M  V30 8202 N 755.309 1.25446 -0.953992 0
M  V30 8203 C 756.72 1.75047 -0.649255 0
M  V30 8204 C 757.071 1.77527 0.835385 0
M  V30 8205 O 756.196 1.39569 1.65377 0
M  V30 8206 C 756.791 3.17889 -1.17183 0
M  V30 8207 C 755.35 3.65052 -0.917267 0
M  V30 8208 C 754.497 2.44124 -1.31525 0
M  V30 8209 H 757.448 1.11342 -1.13087 0
M  V30 8210 H 757.469 3.76768 -0.531616 0
M  V30 8211 H 756.981 3.16052 -2.25239 0
M  V30 8212 H 755.082 3.72305 0.148354 0
M  V30 8213 H 755.195 4.53222 -1.55328 0
M  V30 8214 H 753.559 2.43906 -0.733624 0
M  V30 8215 H 754.342 2.44979 -2.405 0
M  V30 8216 N 756.787 0.722489 1.40064 0
M  V30 8217 C 758.036 0.261932 1.99992 0
M  V30 8218 C 758.349 -1.15358 1.57961 0
M  V30 8219 O 759.555 -1.71301 2.10637 0
M  V30 8220 C 758.011 0.41737 3.57472 0
M  V30 8221 C 757.619 1.83997 4.08472 0
M  V30 8222 C 759.363 0.0179561 4.24496 0
M  V30 8223 C 757.27 1.94563 5.5848 0
M  V30 8224 H 756.2 0.0941768 0.748095 0
M  V30 8225 H 758.851 0.894572 1.60218 0
M  V30 8226 H 757.233 -0.283965 3.94981 0
M  V30 8227 H 758.407 2.57224 3.82325 0
M  V30 8228 H 756.722 2.19147 3.54067 0
M  V30 8229 H 759.319 0.076085 5.34646 0
M  V30 8230 H 759.662 -1.02498 4.03485 0
M  V30 8231 H 760.195 0.669988 3.92117 0
M  V30 8232 H 756.934 2.97001 5.84355 0
M  V30 8233 H 756.454 1.25756 5.86469 0
M  V30 8234 H 758.133 1.72095 6.23692 0
M  V30 8235 N 758.265 -1.50454 0.469181 0
M  V30 8236 C 759.228 -2.2703 -0.314643 0
M  V30 8237 C 760.228 -1.31734 -0.922111 0
M  V30 8238 O 761.418 -1.55176 -0.791588 0
M  V30 8239 C 758.55 -3.08616 -1.44806 0
M  V30 8240 H 759.743 -2.97769 0.356892 0
M  V30 8241 H 757.296 -1.54698 0.223191 0
M  V30 8242 H 758.031 -2.42369 -2.1547 0
M  V30 8243 H 757.816 -3.78647 -1.01829 0
M  V30 8244 H 759.306 -3.66536 -2.00103 0
M  V30 8245 N 759.743 -0.201713 -1.56304 0
M  V30 8246 C 760.971 0.440723 -2.02152 0
M  V30 8247 C 761.386 1.54735 -1.08179 0
M  V30 8248 O 760.743 1.82289 -0.0878196 0
M  V30 8249 C 760.794 0.990884 -3.47655 0
M  V30 8250 O 760.515 -0.0715937 -4.38041 0
M  V30 8251 C 762.016 1.70854 -4.09052 0
M  V30 8252 H 759.236 0.109987 -0.661924 0
M  V30 8253 H 761.78 -0.312358 -2.021 0
M  V30 8254 H 759.935 1.69432 -3.48384 0
M  V30 8255 H 760.349 0.338892 -5.23404 0
M  V30 8256 H 761.823 2.04572 -5.12693 0
M  V30 8257 H 762.3 2.61462 -3.52894 0
M  V30 8258 H 762.906 1.0508 -4.12114 0
M  V30 8259 N 761.222 1.57436 0.0718424 0
M  V30 8260 C 762.132 2.07039 1.10326 0
M  V30 8261 C 763.148 0.999918 1.424 0
M  V30 8262 O 764.324 1.31462 1.52577 0
M  V30 8263 C 761.389 2.50439 2.39752 0
M  V30 8264 C 760.45 3.71784 2.14651 0
M  V30 8265 C 759.683 4.13104 3.37906 0
M  V30 8266 O 759.906 3.54298 4.47023 0
M  V30 8267 O 758.84 5.05894 3.26121 0
M  V30 8268 H 762.666 2.95239 0.711872 0
M  V30 8269 H 760.251 1.46638 0.28597 0
M  V30 8270 H 762.133 2.78876 3.15921 0
M  V30 8271 H 760.808 1.65368 2.78271 0
M  V30 8272 H 759.715 3.48431 1.36187 0
M  V30 8273 H 761.048 4.57707 1.81012 0
M  V30 8274 N 762.7 -0.34323 1.53817 0
M  V30 8275 C 763.946 -1.08504 1.71332 0
M  V30 8276 C 764.279 -1.88294 0.475285 0
M  V30 8277 O 763.554 -1.87205 -0.527688 0
M  V30 8278 C 763.837 -2.02597 2.97702 0
M  V30 8279 C 763.69 -1.26268 4.31713 0
M  V30 8280 C 765.009 -3.0241 3.19744 0
M  V30 8281 H 762.128 -0.393072 0.623429 0
M  V30 8282 H 764.77 -0.363579 1.86489 0
M  V30 8283 H 762.92 -2.64118 2.8491 0
M  V30 8284 H 764.592 -0.673594 4.56356 0
M  V30 8285 H 762.835 -0.564696 4.30109 0
M  V30 8286 H 763.506 -1.95253 5.16314 0
M  V30 8287 H 765.982 -2.51004 3.31868 0
M  V30 8288 H 764.858 -3.65449 4.09558 0
M  V30 8289 H 765.119 -3.73806 2.36054 0
M  V30 8290 N 764.178 -1.45556 -0.604258 0
M  V30 8291 C 765.424 -1.50958 -1.3632 0
M  V30 8292 C 765.779 -0.15051 -1.9181 0
M  V30 8293 O 765.072 0.838035 -1.72301 0
M  V30 8294 C 765.266 -2.52697 -2.52743 0
M  V30 8295 C 765.095 -3.98364 -2.08654 0
M  V30 8296 C 763.865 -4.66295 -1.94671 0
M  V30 8297 C 766.063 -4.86801 -1.6592 0
M  V30 8298 N 764.045 -5.96669 -1.44428 0
M  V30 8299 C 765.416 -6.06829 -1.27115 0
M  V30 8300 C 767.471 -4.73634 -1.53542 0
M  V30 8301 C 766.174 -7.15149 -0.771676 0
M  V30 8302 C 768.2 -5.82005 -1.04998 0
M  V30 8303 C 767.562 -7.01191 -0.671599 0
M  V30 8304 H 763.661 -0.607329 -0.492621 0
M  V30 8305 H 766.245 -1.82048 -0.69041 0
M  V30 8306 H 764.416 -2.23554 -3.17614 0
M  V30 8307 H 766.148 -2.48227 -3.19633 0
M  V30 8308 H 762.903 -4.21496 -2.15959 0
M  V30 8309 H 763.327 -6.66003 -1.21528 0
M  V30 8310 H 767.969 -3.81898 -1.81421 0
M  V30 8311 H 765.687 -8.06671 -0.480442 0
M  V30 8312 H 769.273 -5.73851 -0.958423 0
M  V30 8313 H 768.153 -7.83619 -0.301752 0
M  V30 8314 N 765.656 0.84705 -1.32902 0
M  V30 8315 C 766.586 1.97166 -1.25091 0
M  V30 8316 C 767.567 1.69578 -0.133161 0
M  V30 8317 O 768.752 1.91519 -0.321591 0
M  V30 8318 C 765.882 3.33157 -0.981006 0
M  V30 8319 C 764.836 3.75119 -2.06082 0
M  V30 8320 C 764.162 5.08826 -1.64318 0
M  V30 8321 C 765.462 3.89774 -3.47669 0
M  V30 8322 H 767.156 2.03958 -2.19184 0
M  V30 8323 H 764.702 0.979907 -1.05517 0
M  V30 8324 H 766.655 4.11393 -0.912891 0
M  V30 8325 H 765.379 3.266 -0.00445559 0
M  V30 8326 H 764.038 2.9914 -2.11921 0
M  V30 8327 H 763.686 4.98732 -0.653876 0
M  V30 8328 H 763.386 5.37873 -2.36572 0
M  V30 8329 H 764.91 5.89546 -1.58958 0
M  V30 8330 H 766.324 4.58343 -3.44376 0
M  V30 8331 H 764.721 4.30248 -4.18338 0
M  V30 8332 H 765.791 2.92463 -3.86773 0
M  V30 8333 N 767.134 1.16236 1.06428 0
M  V30 8334 C 768.383 0.937523 1.78587 0
M  V30 8335 C 768.696 -0.536 1.88113 0
M  V30 8336 O 769.902 -0.878697 2.56887 0
M  V30 8337 C 768.358 1.62808 3.2097 0
M  V30 8338 C 767.966 3.13927 3.19615 0
M  V30 8339 C 769.71 1.48515 3.97673 0
M  V30 8340 C 767.617 3.75727 4.56709 0
M  V30 8341 H 766.547 0.347125 0.669343 0
M  V30 8342 H 769.198 1.39353 1.19385 0
M  V30 8343 H 767.58 1.09977 3.80422 0
M  V30 8344 H 768.754 3.7359 2.69753 0
M  V30 8345 H 767.069 3.28089 2.56411 0
M  V30 8346 H 769.666 1.92069 4.99013 0
M  V30 8347 H 770.009 0.433913 4.14032 0
M  V30 8348 H 770.542 1.98494 3.44739 0
M  V30 8349 H 767.281 4.80793 4.45554 0
M  V30 8350 H 766.801 3.20849 5.0677 0
M  V30 8351 H 768.48 3.77203 5.25668 0
M  V30 8352 N 768.612 -1.24939 0.960631 0
M  V30 8353 C 769.56 -2.27659 0.47686 0
M  V30 8354 C 770.554 -1.63148 -0.455961 0
M  V30 8355 O 771.76 -1.76911 -0.332029 0
M  V30 8356 H 768.135 -0.739651 0.135723 0
M  V30 8357 H 770.106 -2.65844 1.35534 0
M  V30 8358 C 768.855 -3.46976 -0.224191 0
M  V30 8359 H 768.178 -3.96854 0.484471 0
M  V30 8360 H 769.618 -4.20717 -0.526615 0
M  V30 8361 C 768.077 -3.04159 -1.44876 0
M  V30 8362 O 768.607 -3.10697 -2.54618 0
M  V30 8363 N 766.813 -2.59284 -1.31226 0
M  V30 8364 H 766.36 -2.54164 -0.419361 0
M  V30 8365 H 766.318 -2.31 -2.13275 0
M  V30 8366 N 770.09 -0.729906 -1.39679 0
M  V30 8367 C 771.037 -0.0866063 -2.30637 0
M  V30 8368 C 772.007 0.735115 -1.48947 0
M  V30 8369 O 773.192 0.696125 -1.77648 0
M  V30 8370 C 770.332 0.818524 -3.35252 0
M  V30 8371 C 769.445 -0.0152635 -4.31997 0
M  V30 8372 C 768.58 0.890669 -5.2368 0
M  V30 8373 C 767.619 0.0518246 -6.12078 0
M  V30 8374 N 766.756 0.913411 -6.96133 0
M  V30 8375 H 771.596 -0.867925 -2.85081 0
M  V30 8376 H 769.133 -0.439673 -1.40376 0
M  V30 8377 H 771.091 1.3577 -3.9449 0
M  V30 8378 H 769.721 1.56587 -2.82277 0
M  V30 8379 H 768.773 -0.671794 -3.74421 0
M  V30 8380 H 770.085 -0.664086 -4.9436 0
M  V30 8381 H 769.239 1.49787 -5.87919 0
M  V30 8382 H 767.978 1.57328 -4.61627 0
M  V30 8383 H 766.983 -0.568209 -5.46856 0
M  V30 8384 H 768.208 -0.627497 -6.76195 0
M  V30 8385 H 766.154 1.58141 -6.36653 0
M  V30 8386 H 766.071 0.320952 -7.55318 0
M  V30 8387 H 767.339 1.50633 -7.64807 0
M  V30 8388 N 771.568 1.50203 -0.477153 0
M  V30 8389 C 772.793 2.07263 0.0754986 0
M  V30 8390 C 773.218 1.33801 1.32208 0
M  V30 8391 O 772.576 0.387482 1.77111 0
M  V30 8392 C 772.624 3.59028 0.336348 0
M  V30 8393 O 771.728 3.87339 1.4157 0
M  V30 8394 H 771.069 0.663815 -0.015662 0
M  V30 8395 H 773.599 1.93321 -0.669936 0
M  V30 8396 H 773.609 4.03927 0.575034 0
M  V30 8397 H 772.284 4.11912 -0.574551 0
M  V30 8398 H 770.861 3.54272 1.16385 0
M  V30 8399 N 773.046 0.209999 1.56195 0
M  V30 8400 C 773.979 -0.744546 2.15712 0
M  V30 8401 C 774.957 -1.19917 1.09812 0
M  V30 8402 O 776.141 -1.284 1.38006 0
M  V30 8403 C 773.268 -2.00733 2.72807 0
M  V30 8404 C 772.314 -1.69363 3.91431 0
M  V30 8405 S 773.147 -0.828579 5.29051 0
M  V30 8406 C 774.303 -2.10118 5.89577 0
M  V30 8407 H 774.536 -0.238636 2.96341 0
M  V30 8408 H 772.069 -0.00517877 1.54399 0
M  V30 8409 H 774.027 -2.73246 3.06344 0
M  V30 8410 H 772.688 -2.48436 1.92193 0
M  V30 8411 H 771.881 -2.63157 4.29842 0
M  V30 8412 H 771.483 -1.04921 3.58981 0
M  V30 8413 H 773.775 -3.05231 6.04847 0
M  V30 8414 H 774.718 -1.76116 6.85849 0
M  V30 8415 H 775.126 -2.23644 5.18308 0
M  V30 8416 N 774.524 -1.57472 -0.0634922 0
M  V30 8417 C 775.434 -2.07621 -1.09227 0
M  V30 8418 C 776.45 -1.00746 -1.41867 0
M  V30 8419 O 777.626 -1.32269 -1.51878 0
M  V30 8420 C 774.691 -2.51707 -2.38421 0
M  V30 8421 C 773.752 -3.72917 -2.12676 0
M  V30 8422 C 772.985 -4.14891 -3.3571 0
M  V30 8423 O 773.208 -3.56663 -4.45137 0
M  V30 8424 O 772.142 -5.07616 -3.23434 0
M  V30 8425 H 775.968 -2.95612 -0.696205 0
M  V30 8426 H 773.553 -1.46787 -0.27819 0
M  V30 8427 H 775.435 -2.80547 -3.14438 0
M  V30 8428 H 774.11 -1.66842 -2.77391 0
M  V30 8429 H 773.017 -3.49148 -1.34337 0
M  V30 8430 H 774.35 -4.5866 -1.78583 0
M  V30 8431 N 776.003 0.335068 -1.53997 0
M  V30 8432 C 776.933 1.41727 -1.85568 0
M  V30 8433 C 777.914 1.54505 -0.7115 0
M  V30 8434 O 779.099 1.68573 -0.964191 0
M  V30 8435 C 776.229 2.7866 -2.07282 0
M  V30 8436 C 775.183 2.80682 -3.23112 0
M  V30 8437 C 774.509 4.20581 -3.30175 0
M  V30 8438 C 775.809 2.45458 -4.61029 0
M  V30 8439 H 777.503 1.15555 -2.76202 0
M  V30 8440 H 775.049 0.554445 -1.32898 0
M  V30 8441 H 777.002 3.54423 -2.27952 0
M  V30 8442 H 775.726 3.06286 -1.13387 0
M  V30 8443 H 774.385 2.07373 -3.02311 0
M  V30 8444 H 774.033 4.4533 -2.33859 0
M  V30 8445 H 773.733 4.22843 -4.08016 0
M  V30 8446 H 775.257 4.98174 -3.53066 0
M  V30 8447 H 776.671 3.10934 -4.81656 0
M  V30 8448 H 775.068 2.5899 -5.41336 0
M  V30 8449 H 776.138 1.40628 -4.6406 0
M  V30 8450 N 777.481 1.45874 0.596531 0
M  V30 8451 C 778.411 1.5824 1.71705 0
M  V30 8452 C 779.392 0.433366 1.64487 0
M  V30 8453 O 780.577 0.657895 1.82717 0
M  V30 8454 C 777.707 1.55927 3.10329 0
M  V30 8455 C 776.661 2.69659 3.32367 0
M  V30 8456 C 775.987 2.52403 4.71377 0
M  V30 8457 C 777.287 4.11591 3.21544 0
M  V30 8458 H 778.981 2.52035 1.61613 0
M  V30 8459 H 776.527 1.21297 0.776082 0
M  V30 8460 H 778.48 1.63173 3.88526 0
M  V30 8461 H 777.204 0.586674 3.21288 0
M  V30 8462 H 775.863 2.61859 2.56564 0
M  V30 8463 H 775.511 1.53258 4.79083 0
M  V30 8464 H 775.211 3.28679 4.87077 0
M  V30 8465 H 776.735 2.6152 5.5176 0
M  V30 8466 H 778.149 4.20576 3.89601 0
M  V30 8467 H 776.546 4.88344 3.4877 0
M  V30 8468 H 777.616 4.32719 2.1882 0
M  V30 8469 N 778.959 -0.83999 1.33349 0
M  V30 8470 C 780.236 -1.57973 1.15342 0
M  V30 8471 C 780.616 -2.09226 -0.280632 0
M  V30 8472 O 779.964 -1.89317 -1.2795 0
M  V30 8473 C 780.174 -2.71446 2.19359 0
M  V30 8474 C 781.522 -3.40654 2.53456 0
M  V30 8475 O 782.546 -2.81686 2.18017 0
M  V30 8476 O 781.405 -4.47101 3.14266 0
M  V30 8477 H 778.499 -0.6964 0.446044 0
M  V30 8478 H 781.045 -0.882843 1.44927 0
M  V30 8479 H 779.817 -2.31205 3.1569 0
M  V30 8480 H 779.44 -3.488 1.90852 0
M  V30 8481 N 780.437 -1.16799 -1.0581 0
M  V30 8482 C 781.347 -0.893492 -2.16919 0
M  V30 8483 C 782.363 0.136061 -1.73467 0
M  V30 8484 O 783.539 -0.0417348 -2.01357 0
M  V30 8485 C 780.604 -0.403763 -3.44341 0
M  V30 8486 C 779.665 -1.49914 -4.02274 0
M  V30 8487 C 778.898 -1.03269 -5.23614 0
M  V30 8488 O 779.121 0.115647 -5.70283 0
M  V30 8489 O 778.055 -1.8231 -5.73626 0
M  V30 8490 H 781.881 -1.82274 -2.42919 0
M  V30 8491 H 779.466 -0.948361 -1.1544 0
M  V30 8492 H 781.348 -0.137874 -4.21174 0
M  V30 8493 H 780.023 0.497413 -3.19855 0
M  V30 8494 H 778.93 -1.81883 -3.26909 0
M  V30 8495 H 780.263 -2.3758 -4.31064 0
M  V30 8496 N 781.915 1.24427 -0.967243 0
M  V30 8497 C 783.331 1.44684 -0.6737 0
M  V30 8498 C 783.531 1.86429 0.764625 0
M  V30 8499 O 782.587 2.00211 1.53857 0
M  V30 8500 C 783.9 2.509 -1.6574 0
M  V30 8501 C 785.448 2.64728 -1.66998 0
M  V30 8502 C 785.923 3.7414 -2.64165 0
M  V30 8503 N 787.414 3.81567 -2.62604 0
M  V30 8504 C 788.149 4.6575 -3.34462 0
M  V30 8505 N 787.645 5.54124 -4.15835 0
M  V30 8506 N 789.438 4.59827 -3.23288 0
M  V30 8507 H 781.589 0.956276 -1.89655 0
M  V30 8508 H 783.852 0.48171 -0.816492 0
M  V30 8509 H 783.558 2.27113 -2.68538 0
M  V30 8510 H 783.432 3.4905 -1.42981 0
M  V30 8511 H 785.819 2.87872 -0.649121 0
M  V30 8512 H 785.9 1.66936 -1.93819 0
M  V30 8513 H 785.544 3.51745 -3.66384 0
M  V30 8514 H 785.474 4.71444 -2.34623 0
M  V30 8515 H 787.965 3.18403 -2.03539 0
M  V30 8516 H 788.278 6.15316 -4.67553 0
M  V30 8517 H 786.623 5.53791 -4.19929 0
M  V30 8518 H 789.814 3.898 -2.59179 0
M  V30 8519 H 789.987 5.25208 -3.79553 0
M  V30 8520 N 783.393 0.737304 1.3929 0
M  V30 8521 C 784.34 0.0988364 2.30588 0
M  V30 8522 C 785.31 -0.727206 1.49335 0
M  V30 8523 O 786.495 -0.686694 1.78014 0
M  V30 8524 C 783.635 -0.800734 3.35682 0
M  V30 8525 C 782.748 0.0381731 4.31983 0
M  V30 8526 C 781.883 -0.862884 5.24145 0
M  V30 8527 C 780.922 -0.0193639 6.12097 0
M  V30 8528 N 780.059 -0.87648 6.96608 0
M  V30 8529 H 784.899 0.883031 2.84617 0
M  V30 8530 H 782.436 0.447111 1.4014 0
M  V30 8531 H 784.394 -1.33676 3.95205 0
M  V30 8532 H 783.024 -1.55088 2.83103 0
M  V30 8533 H 782.076 0.691641 3.74059 0
M  V30 8534 H 783.388 0.690294 4.94 0
M  V30 8535 H 782.542 -1.46667 5.88705 0
M  V30 8536 H 781.281 -1.54878 4.62454 0
M  V30 8537 H 780.286 0.597202 5.46547 0
M  V30 8538 H 781.511 0.663348 6.75852 0
M  V30 8539 H 779.457 -1.54762 6.37483 0
M  V30 8540 H 779.374 -0.280892 7.55478 0
M  V30 8541 H 780.642 -1.46575 7.65595 0
M  V30 8542 N 784.871 -1.49948 0.485112 0
M  V30 8543 C 786.118 -2.02396 -0.0650059 0
M  V30 8544 C 786.446 -1.36606 -1.38452 0
M  V30 8545 O 785.701 -0.485476 -1.89583 0
M  V30 8546 C 786 -3.56282 -0.282434 0
M  V30 8547 C 785.666 -4.40625 0.957106 0
M  V30 8548 C 784.328 -4.63393 1.29692 0
M  V30 8549 C 786.68 -4.89799 1.78176 0
M  V30 8550 C 784.008 -5.3258 2.4612 0
M  V30 8551 C 786.36 -5.60266 2.93743 0
M  V30 8552 C 785.024 -5.81284 3.28124 0
M  V30 8553 H 784.294 -0.740618 -0.0237873 0
M  V30 8554 H 786.941 -1.80416 0.642044 0
M  V30 8555 H 785.246 -3.76853 -1.07186 0
M  V30 8556 H 786.943 -3.94442 -0.722276 0
M  V30 8557 H 783.533 -4.23133 0.682384 0
M  V30 8558 H 787.717 -4.7205 1.53239 0
M  V30 8559 H 782.973 -5.47059 2.73014 0
M  V30 8560 H 787.147 -5.97347 3.5798 0
M  V30 8561 H 784.774 -6.34671 4.18446 0
M  V30 8562 N 786.349 -0.21828 -1.56081 0
M  V30 8563 C 787.595 0.408181 -1.99262 0
M  V30 8564 C 787.95 1.57618 -1.10337 0
M  V30 8565 O 787.243 1.90991 -0.15263 0
M  V30 8566 C 787.437 0.894782 -3.46018 0
M  V30 8567 C 787.266 -0.224528 -4.49139 0
M  V30 8568 C 786.036 -0.689843 -5.00569 0
M  V30 8569 C 788.234 -1.04165 -5.03641 0
M  V30 8570 N 786.216 -1.78455 -5.8739 0
M  V30 8571 C 787.587 -1.98529 -5.87355 0
M  V30 8572 C 789.642 -1.08146 -4.86013 0
M  V30 8573 C 788.345 -2.96549 -6.55325 0
M  V30 8574 C 790.371 -2.04982 -5.5474 0
M  V30 8575 C 789.733 -2.98086 -6.38219 0
M  V30 8576 H 785.832 0.116127 -0.77333 0
M  V30 8577 H 788.416 -0.3293 -1.91895 0
M  V30 8578 H 786.587 1.60163 -3.53839 0
M  V30 8579 H 788.319 1.49379 -3.76122 0
M  V30 8580 H 785.074 -0.279021 -4.72777 0
M  V30 8581 H 785.498 -2.33381 -6.35502 0
M  V30 8582 H 790.14 -0.375581 -4.21129 0
M  V30 8583 H 787.858 -3.68101 -7.19394 0
M  V30 8584 H 791.444 -2.08732 -5.43067 0
M  V30 8585 H 790.324 -3.71794 -6.90463 0
M  V30 8586 N 787.827 1.57504 0.0551401 0
M  V30 8587 C 788.79 2.03826 1.04821 0
M  V30 8588 C 789.79 0.937968 1.30609 0
M  V30 8589 O 790.98 1.20237 1.2605 0
M  V30 8590 C 788.112 2.43309 2.38775 0
M  V30 8591 H 789.305 2.92802 0.6486 0
M  V30 8592 H 786.858 1.53368 0.301315 0
M  V30 8593 H 787.593 1.5741 2.83536 0
M  V30 8594 H 787.378 3.23615 2.21395 0
M  V30 8595 H 788.868 2.79666 3.10124 0
M  V30 8596 N 789.305 -0.326896 1.54172 0
M  V30 8597 C 790.553 -1.06313 1.71878 0
M  V30 8598 C 790.874 -1.88652 0.493498 0
M  V30 8599 O 790.144 -1.89608 -0.492522 0
M  V30 8600 H 788.724 -0.39549 0.633716 0
M  V30 8601 H 791.386 -0.364139 1.91468 0
M  V30 8602 H 790.482 -1.73105 2.59694 0
M  V30 8603 N 790.784 -1.46188 -0.588786 0
M  V30 8604 C 792.033 -1.50452 -1.34339 0
M  V30 8605 C 792.346 -0.158096 -1.9496 0
M  V30 8606 O 793.552 -0.0784918 -2.71387 0
M  V30 8607 C 792.008 -2.65074 -2.43441 0
M  V30 8608 C 791.616 -4.06111 -1.8915 0
M  V30 8609 C 793.36 -2.78603 -3.20282 0
M  V30 8610 C 791.267 -5.12084 -2.95845 0
M  V30 8611 H 790.197 -0.559905 -0.504997 0
M  V30 8612 H 792.848 -1.72382 -0.629014 0
M  V30 8613 H 791.23 -2.36462 -3.1765 0
M  V30 8614 H 792.404 -4.44487 -1.21524 0
M  V30 8615 H 790.719 -3.97197 -1.24995 0
M  V30 8616 H 793.316 -3.54944 -3.99898 0
M  V30 8617 H 793.659 -1.85902 -3.72486 0
M  V30 8618 H 794.192 -3.06832 -2.53178 0
M  V30 8619 H 790.931 -6.06556 -2.48535 0
M  V30 8620 H 790.451 -4.78259 -3.61979 0
M  V30 8621 H 792.13 -5.37661 -3.59902 0
M  V30 8622 N 792.262 0.832906 -1.33792 0
M  V30 8623 C 793.508 1.59089 -1.25772 0
M  V30 8624 C 793.841 1.93414 0.174601 0
M  V30 8625 O 793.116 1.59195 1.11746 0
M  V30 8626 C 793.399 2.89699 -2.13885 0
M  V30 8627 C 793.252 2.62017 -3.65605 0
M  V30 8628 C 794.571 3.91182 -2.01654 0
M  V30 8629 H 791.69 0.577232 -0.458227 0
M  V30 8630 H 794.332 0.960227 -1.6395 0
M  V30 8631 H 792.482 3.4352 -1.81456 0
M  V30 8632 H 794.154 2.14582 -4.08353 0
M  V30 8633 H 792.397 1.95621 -3.87189 0
M  V30 8634 H 793.068 3.55112 -4.2261 0
M  V30 8635 H 795.544 3.46684 -2.30107 0
M  V30 8636 H 794.42 4.80391 -2.65548 0
M  V30 8637 H 794.681 4.30861 -0.990536 0
M  V30 8638 N 793.74 1.17359 1.05189 0
M  V30 8639 C 794.987 0.961987 1.78191 0
M  V30 8640 C 795.315 -0.509363 1.87712 0
M  V30 8641 O 794.57 -1.39425 1.37329 0
M  V30 8642 C 794.869 1.54821 3.22126 0
M  V30 8643 C 794.535 3.04378 3.32663 0
M  V30 8644 C 793.197 3.45201 3.35246 0
M  V30 8645 C 795.549 4.00387 3.33677 0
M  V30 8646 C 792.877 4.80629 3.36471 0
M  V30 8647 C 795.229 5.35715 3.36441 0
M  V30 8648 C 793.893 5.76002 3.37311 0
M  V30 8649 H 793.163 0.352016 0.652047 0
M  V30 8650 H 795.81 1.46249 1.23627 0
M  V30 8651 H 794.115 0.969432 3.79617 0
M  V30 8652 H 795.812 1.36004 3.77232 0
M  V30 8653 H 792.402 2.71836 3.31366 0
M  V30 8654 H 796.586 3.69906 3.30882 0
M  V30 8655 H 791.842 5.11155 3.35455 0
M  V30 8656 H 796.016 6.09886 3.36173 0
M  V30 8657 H 793.643 6.80919 3.38013 0
M  V30 8658 N 795.218 -1.23913 0.973828 0
M  V30 8659 C 796.446 -1.96195 0.656891 0
M  V30 8660 C 796.861 -1.72166 -0.774876 0
M  V30 8661 O 796.218 -1.0091 -1.52064 0
M  V30 8662 C 796.269 -3.49342 0.929638 0
M  V30 8663 O 795.99 -3.72553 2.30512 0
M  V30 8664 C 797.491 -4.38833 0.627739 0
M  V30 8665 H 794.711 -0.624841 0.244572 0
M  V30 8666 H 797.255 -1.57579 1.30343 0
M  V30 8667 H 795.41 -3.85999 0.329216 0
M  V30 8668 H 795.824 -4.66893 2.3898 0
M  V30 8669 H 797.298 -5.45117 0.868991 0
M  V30 8670 H 797.775 -4.37009 -0.438104 0
M  V30 8671 H 798.381 -4.07773 1.20834 0
M  V30 8672 N 796.696 -0.74468 -1.38897 0
M  V30 8673 C 797.944 -0.296298 -1.99916 0
M  V30 8674 C 798.265 1.12325 -1.59399 0
M  V30 8675 O 797.535 1.76658 -0.846689 0
M  V30 8676 H 796.115 -0.106561 -0.73936 0
M  V30 8677 H 798.777 -0.956793 -1.69798 0
M  V30 8678 H 797.873 -0.352356 -3.10105 0
M  V30 8679 N 798.174 1.49689 -0.493057 0
M  V30 8680 C 799.423 2.01622 0.0560733 0
M  V30 8681 C 799.736 1.37838 1.3878 0
M  V30 8682 O 800.942 1.81054 2.02316 0
M  V30 8683 C 799.398 3.59586 0.150409 0
M  V30 8684 C 799.006 4.32338 -1.1742 0
M  V30 8685 C 800.75 4.19489 0.650327 0
M  V30 8686 C 798.657 5.8214 -1.04246 0
M  V30 8687 H 797.587 0.753594 0.0247297 0
M  V30 8688 H 800.238 1.723 -0.631279 0
M  V30 8689 H 798.62 3.8559 0.902035 0
M  V30 8690 H 799.794 4.18042 -1.9385 0
M  V30 8691 H 798.109 3.84144 -1.60694 0
M  V30 8692 H 800.706 5.29181 0.766272 0
M  V30 8693 H 801.049 3.82326 1.6472 0
M  V30 8694 H 801.582 3.97775 -0.0445371 0
M  V30 8695 H 798.321 6.23814 -2.01336 0
M  V30 8696 H 797.841 5.98952 -0.31892 0
M  V30 8697 H 799.52 6.43004 -0.717957 0
M  V30 8698 N 799.652 0.226554 1.55963 0
M  V30 8699 C 800.88 -0.408507 2.02827 0
M  V30 8700 C 801.295 -1.52994 1.10627 0
M  V30 8701 O 800.652 -1.82126 0.116809 0
M  V30 8702 C 800.703 -0.93545 3.49187 0
M  V30 8703 O 800.424 0.141273 4.37872 0
M  V30 8704 C 801.925 -1.64325 4.11719 0
M  V30 8705 H 799.145 -0.099442 0.66359 0
M  V30 8706 H 801.689 0.344471 2.01578 0
M  V30 8707 H 799.844 -1.63868 3.51036 0
M  V30 8708 H 800.258 -0.25558 5.23877 0
M  V30 8709 H 801.732 -1.9639 5.15883 0
M  V30 8710 H 802.209 -2.55815 3.57009 0
M  V30 8711 H 802.815 -0.9851 4.13734 0
M  V30 8712 N 801.13 -1.57531 -0.0467866 0
M  V30 8713 C 802.541 -1.76945 -0.595603 0
M  V30 8714 C 802.892 -0.855354 -1.76573 0
M  V30 8715 O 802.017 -0.045668 -2.16352 0
M  V30 8716 C 802.612 -3.20881 -1.08725 0
M  V30 8717 C 801.171 -3.41553 -1.58172 0
M  V30 8718 C 800.318 -2.72533 -0.511968 0
M  V30 8719 H 803.269 -1.57682 0.179436 0
M  V30 8720 H 803.29 -3.26419 -1.95528 0
M  V30 8721 H 802.802 -3.87385 -0.235398 0
M  V30 8722 H 800.903 -2.80199 -2.456 0
M  V30 8723 H 801.016 -4.50104 -1.64143 0
M  V30 8724 H 799.38 -2.35797 -0.962899 0
M  V30 8725 H 800.163 -3.41709 0.330117 0
M  V30 8726 N 802.608 0.318715 -1.54344 0
M  V30 8727 C 803.856 1.054 -1.72439 0
M  V30 8728 C 804.177 1.88388 -0.503495 0
M  V30 8729 O 803.447 1.89866 0.48246 0
M  V30 8730 H 802.027 0.392124 -0.635805 0
M  V30 8731 H 804.689 0.35398 -1.91659 0
M  V30 8732 H 803.785 1.71726 -2.60608 0
M  V30 8733 N 804.086 1.46499 0.581025 0
M  V30 8734 C 805.311 1.55708 1.37002 0
M  V30 8735 C 805.736 0.19942 1.8704 0
M  V30 8736 O 805.094 -0.820731 1.61659 0
M  V30 8737 C 805.142 2.56716 2.53238 0
M  V30 8738 O 804.246 2.10336 3.54729 0
M  V30 8739 H 803.587 0.523912 0.407937 0
M  V30 8740 H 806.117 1.92085 0.704602 0
M  V30 8741 H 806.127 2.76378 3.00132 0
M  V30 8742 H 804.802 3.55307 2.16171 0
M  V30 8743 H 803.379 2.00669 3.14303 0
M  V30 8744 N 805.565 -0.825799 1.34232 0
M  V30 8745 C 806.814 -1.57686 1.2577 0
M  V30 8746 C 807.127 -1.94848 -0.171372 0
M  V30 8747 O 808.333 -2.68854 -0.378123 0
M  V30 8748 C 806.789 -2.84478 2.20454 0
M  V30 8749 C 806.397 -2.54629 3.68603 0
M  V30 8750 C 808.141 -3.625 2.20893 0
M  V30 8751 C 806.048 -3.77597 4.55164 0
M  V30 8752 H 804.978 -0.591809 0.467203 0
M  V30 8753 H 807.629 -0.909421 1.59379 0
M  V30 8754 H 806.011 -3.52832 1.79793 0
M  V30 8755 H 807.185 -1.94404 4.17784 0
M  V30 8756 H 805.5 -1.89888 3.70582 0
M  V30 8757 H 808.097 -4.538 2.82789 0
M  V30 8758 H 808.44 -3.98404 1.20746 0
M  V30 8759 H 808.973 -3.01086 2.59985 0
M  V30 8760 H 805.712 -3.46815 5.56237 0
M  V30 8761 H 805.232 -4.37116 4.10719 0
M  V30 8762 H 806.911 -4.45039 4.69627 0
M  V30 8763 N 807.043 -1.17915 -1.04565 0
M  V30 8764 C 807.953 -0.916449 -2.15959 0
M  V30 8765 C 808.969 0.117655 -1.73602 0
M  V30 8766 O 810.145 -0.063089 -2.01301 0
M  V30 8767 C 807.21 -0.440262 -3.43893 0
M  V30 8768 C 806.271 -1.54172 -4.00661 0
M  V30 8769 C 805.504 -1.08816 -5.22489 0
M  V30 8770 O 805.727 0.0551547 -5.70373 0
M  V30 8771 O 804.661 -1.88383 -5.7166 0
M  V30 8772 H 808.487 -1.8484 -2.40972 0
M  V30 8773 H 806.072 -0.960552 -1.14428 0
M  V30 8774 H 807.954 -0.182537 -4.21004 0
M  V30 8775 H 806.629 0.46346 -3.20365 0
M  V30 8776 H 805.536 -1.85341 -3.24961 0
M  V30 8777 H 806.869 -2.42139 -4.2852 0
M  V30 8778 N 808.521 1.23394 -0.980386 0
M  V30 8779 C 809.451 2.2717 -0.540024 0
M  V30 8780 C 810.432 1.64659 0.426787 0
M  V30 8781 O 811.617 1.91543 0.320153 0
M  V30 8782 C 808.747 3.46939 0.15836 0
M  V30 8783 C 807.701 4.21802 -0.725732 0
M  V30 8784 C 807.027 5.34597 0.104866 0
M  V30 8785 C 808.327 4.81802 -2.01654 0
M  V30 8786 H 810.021 2.64257 -1.40743 0
M  V30 8787 H 807.567 1.2703 -0.678193 0
M  V30 8788 H 809.52 4.18683 0.477737 0
M  V30 8789 H 808.244 3.08912 1.06022 0
M  V30 8790 H 806.903 3.51875 -1.02857 0
M  V30 8791 H 806.551 4.92812 1.00726 0
M  V30 8792 H 806.251 5.85607 -0.483557 0
M  V30 8793 H 807.775 6.09163 0.418624 0
M  V30 8794 H 809.189 5.45554 -1.76193 0
M  V30 8795 H 807.586 5.43098 -2.55273 0
M  V30 8796 H 808.656 4.02549 -2.70338 0
M  V30 8797 N 809.999 0.752036 1.385 0
M  V30 8798 C 811.41 0.375385 1.82887 0
M  V30 8799 C 811.761 -1.09575 1.62751 0
M  V30 8800 O 810.886 -1.84685 1.12785 0
M  V30 8801 C 811.481 0.674563 3.32017 0
M  V30 8802 C 810.04 0.351208 3.74758 0
M  V30 8803 C 809.187 0.928531 2.61292 0
M  V30 8804 H 812.138 0.948313 1.27251 0
M  V30 8805 H 812.159 -0.0477781 3.8047 0
M  V30 8806 H 811.671 1.74533 3.46641 0
M  V30 8807 H 809.772 -0.713042 3.65714 0
M  V30 8808 H 809.885 0.845675 4.71577 0
M  V30 8809 H 808.249 0.354012 2.52228 0
M  V30 8810 H 809.032 2.0043 2.78716 0
M  V30 8811 N 811.477 -1.49425 0.500989 0
M  V30 8812 C 812.427 -2.26061 -0.296698 0
M  V30 8813 C 813.411 -1.30906 -0.935541 0
M  V30 8814 O 814.603 -1.55628 -0.843142 0
M  V30 8815 C 811.732 -3.15189 -1.36055 0
M  V30 8816 C 810.818 -4.17806 -0.727952 0
M  V30 8817 N 811.209 -5.05516 0.169408 0
M  V30 8818 C 809.507 -4.34907 -0.988535 0
M  V30 8819 C 810.208 -5.79267 0.531509 0
M  V30 8820 N 809.184 -5.43507 -0.100564 0
M  V30 8821 H 812.986 -2.91246 0.394103 0
M  V30 8822 H 810.5 -1.59275 0.317065 0
M  V30 8823 H 812.497 -3.68724 -1.94547 0
M  V30 8824 H 811.157 -2.51556 -2.05303 0
M  V30 8825 H 812.168 -5.15075 0.540218 0
M  V30 8826 H 808.845 -3.82481 -1.67376 0
M  V30 8827 H 810.235 -6.59872 1.26564 0
M  V30 8828 N 812.955 -0.234822 -1.55841 0
M  V30 8829 C 813.905 0.68346 -2.17515 0
M  V30 8830 C 814.889 1.14798 -1.1274 0
M  V30 8831 O 816.081 1.09976 -1.38688 0
M  V30 8832 C 813.21 1.88551 -2.86886 0
M  V30 8833 C 812.296 1.44006 -3.98903 0
M  V30 8834 N 812.687 0.708034 -5.0082 0
M  V30 8835 C 810.985 1.7263 -4.11236 0
M  V30 8836 C 811.686 0.479036 -5.79724 0
M  V30 8837 N 810.662 1.03968 -5.33565 0
M  V30 8838 H 814.464 0.115897 -2.93671 0
M  V30 8839 H 811.978 -0.0366273 -1.62359 0
M  V30 8840 H 813.975 2.55425 -3.2949 0
M  V30 8841 H 812.635 2.45742 -2.12229 0
M  V30 8842 H 813.646 0.359363 -5.16652 0
M  V30 8843 H 810.323 2.31046 -3.47741 0
M  V30 8844 H 811.713 -0.104514 -6.71819 0
M  V30 8845 N 814.433 1.57553 0.0384317 0
M  V30 8846 C 815.679 1.89121 0.732199 0
M  V30 8847 C 816.012 0.831404 1.75503 0
M  V30 8848 O 815.287 -0.154642 1.93884 0
M  V30 8849 C 815.57 3.31338 1.41021 0
M  V30 8850 C 815.423 4.48004 0.401532 0
M  V30 8851 C 816.742 3.72318 2.34665 0
M  V30 8852 H 813.861 0.687819 0.264715 0
M  V30 8853 H 816.503 1.89999 -0.00496279 0
M  V30 8854 H 814.653 3.3072 2.03854 0
M  V30 8855 H 816.325 4.60755 -0.224159 0
M  V30 8856 H 814.568 4.32895 -0.280092 0
M  V30 8857 H 815.239 5.44377 0.91423 0
M  V30 8858 H 817.715 3.74243 1.81883 0
M  V30 8859 H 816.591 4.72652 2.7909 0
M  V30 8860 H 816.852 3.04062 3.20934 0
M  V30 8861 N 815.911 -0.310526 1.54511 0
M  V30 8862 C 816.858 -1.38264 1.84802 0
M  V30 8863 C 817.828 -1.50808 0.696141 0
M  V30 8864 O 819.013 -1.6582 0.943846 0
M  V30 8865 C 816.153 -2.74422 2.09252 0
M  V30 8866 C 815.266 -2.70405 3.36906 0
M  V30 8867 C 814.401 -3.98495 3.51248 0
M  V30 8868 C 813.44 -3.88836 4.72729 0
M  V30 8869 N 812.577 -5.08683 4.83928 0
M  V30 8870 H 817.417 -1.11732 2.76261 0
M  V30 8871 H 814.954 -0.540609 1.36806 0
M  V30 8872 H 816.912 -3.53593 2.21422 0
M  V30 8873 H 815.542 -2.99235 1.2107 0
M  V30 8874 H 814.594 -1.83151 3.33406 0
M  V30 8875 H 815.906 -2.59155 4.26193 0
M  V30 8876 H 815.06 -4.861 3.63031 0
M  V30 8877 H 813.799 -4.12567 2.60077 0
M  V30 8878 H 812.804 -2.99615 4.60989 0
M  V30 8879 H 814.029 -3.76318 5.65298 0
M  V30 8880 H 811.975 -5.23236 3.95677 0
M  V30 8881 H 811.892 -4.99819 5.67201 0
M  V30 8882 H 813.16 -5.97966 5.00057 0
M  V30 8883 N 817.389 -1.46805 -0.573248 0
M  V30 8884 C 818.619 -1.55965 -1.35494 0
M  V30 8885 C 819.027 -0.203038 -1.88107 0
M  V30 8886 O 818.37 0.81138 -1.6481 0
M  V30 8887 C 818.432 -2.51168 -2.57206 0
M  V30 8888 C 818.096 -3.97211 -2.25993 0
M  V30 8889 C 819.093 -4.86155 -1.84254 0
M  V30 8890 C 816.778 -4.42419 -2.37846 0
M  V30 8891 C 818.772 -6.18323 -1.54776 0
M  V30 8892 C 816.459 -5.74619 -2.0798 0
M  V30 8893 C 817.457 -6.62392 -1.66511 0
M  V30 8894 O 817.145 -7.92137 -1.37016 0
M  V30 8895 H 816.877 -0.529748 -0.419932 0
M  V30 8896 H 819.431 -1.92998 -0.702914 0
M  V30 8897 H 817.661 -2.09171 -3.25245 0
M  V30 8898 H 819.35 -2.50631 -3.19279 0
M  V30 8899 H 820.116 -4.52481 -1.74603 0
M  V30 8900 H 815.995 -3.74319 -2.69085 0
M  V30 8901 H 819.539 -6.8679 -1.22334 0
M  V30 8902 H 815.436 -6.0784 -2.17258 0
M  V30 8903 H 816.204 -8.04492 -1.50782 0
M  V30 8904 N 818.867 0.818669 -1.34668 0
M  V30 8905 C 819.814 1.92983 -1.26595 0
M  V30 8906 C 820.784 1.65506 -0.140315 0
M  V30 8907 O 821.969 1.88063 -0.322005 0
M  V30 8908 C 819.109 3.2932 -1.03163 0
M  V30 8909 C 818.222 3.69061 -2.24539 0
M  V30 8910 C 817.357 4.94368 -1.94355 0
M  V30 8911 C 816.396 5.26702 -3.11851 0
M  V30 8912 N 815.533 6.43187 -2.81522 0
M  V30 8913 H 820.373 1.99219 -2.2162 0
M  V30 8914 H 817.91 0.974612 -1.1018 0
M  V30 8915 H 819.868 4.07897 -0.87613 0
M  V30 8916 H 818.498 3.22584 -0.118045 0
M  V30 8917 H 817.55 2.85842 -2.50995 0
M  V30 8918 H 818.862 3.88924 -3.12313 0
M  V30 8919 H 818.016 5.80742 -1.75566 0
M  V30 8920 H 816.755 4.76515 -1.03848 0
M  V30 8921 H 815.76 4.38823 -3.31231 0
M  V30 8922 H 816.985 5.46492 -4.03142 0
M  V30 8923 H 814.931 6.26783 -1.93596 0
M  V30 8924 H 814.848 6.63243 -3.62829 0
M  V30 8925 H 816.116 7.32621 -2.66247 0
M  V30 8926 N 820.346 1.18468 1.03938 0
M  V30 8927 C 821.595 0.975193 1.76558 0
M  V30 8928 C 821.908 -0.495978 1.89207 0
M  V30 8929 O 823.114 -0.824009 2.58694 0
M  V30 8930 C 821.57 1.69579 3.17444 0
M  V30 8931 C 821.178 3.20636 3.12884 0
M  V30 8932 C 822.922 1.56917 3.94433 0
M  V30 8933 C 820.829 3.8533 4.48636 0
M  V30 8934 H 819.759 0.361244 0.66183 0
M  V30 8935 H 822.41 1.41854 1.16403 0
M  V30 8936 H 820.792 1.18022 3.78004 0
M  V30 8937 H 821.966 3.79228 2.61768 0
M  V30 8938 H 820.281 3.33454 2.49394 0
M  V30 8939 H 822.878 2.02611 4.94826 0
M  V30 8940 H 823.221 0.521638 4.13019 0
M  V30 8941 H 823.754 2.05762 3.40451 0
M  V30 8942 H 820.493 4.90136 4.35255 0
M  V30 8943 H 820.013 3.31526 4.99851 0
M  V30 8944 H 821.692 3.88269 5.17549 0
M  V30 8945 N 821.824 -1.22873 0.986916 0
M  V30 8946 C 823.24 -1.43594 0.696633 0
M  V30 8947 C 823.44 -1.87622 -0.734869 0
M  V30 8948 O 822.496 -2.02633 -1.50652 0
M  V30 8949 C 823.809 -2.48231 1.69711 0
M  V30 8950 C 825.357 -2.62037 1.71188 0
M  V30 8951 C 825.832 -3.6989 2.70084 0
M  V30 8952 N 827.323 -3.77341 2.68641 0
M  V30 8953 C 828.058 -4.6037 3.41829 0
M  V30 8954 N 827.554 -5.47438 4.24598 0
M  V30 8955 N 829.347 -4.54626 3.30563 0
M  V30 8956 H 821.498 -0.925982 1.91153 0
M  V30 8957 H 823.761 -0.46866 0.824052 0
M  V30 8958 H 823.467 -2.22812 2.72117 0
M  V30 8959 H 823.341 -3.46731 1.48516 0
M  V30 8960 H 825.728 -2.86803 0.694837 0
M  V30 8961 H 825.809 -1.63831 1.96451 0
M  V30 8962 H 825.453 -3.45872 3.71934 0
M  V30 8963 H 825.383 -4.67652 2.42093 0
M  V30 8964 H 827.874 -3.15124 2.08578 0
M  V30 8965 H 828.187 -6.078 4.77283 0
M  V30 8966 H 826.532 -5.4704 4.28687 0
M  V30 8967 H 829.723 -3.85627 2.65347 0
M  V30 8968 H 829.896 -5.19103 3.8786 0
M  V30 8969 N 823.302 -0.75937 -1.38099 0
M  V30 8970 C 824.235 -0.0838362 -2.28046 0
M  V30 8971 C 825.213 0.722229 -1.4568 0
M  V30 8972 O 826.397 0.699629 -1.75036 0
M  V30 8973 C 823.524 0.887916 -3.26854 0
M  V30 8974 C 822.57 0.167374 -4.26171 0
M  V30 8975 S 823.403 -1.13592 -5.23314 0
M  V30 8976 C 824.559 -0.167385 -6.25676 0
M  V30 8977 H 824.792 -0.846564 -2.84992 0
M  V30 8978 H 822.325 -0.552206 -1.44188 0
M  V30 8979 H 824.283 1.44322 -3.84293 0
M  V30 8980 H 822.944 1.62366 -2.68879 0
M  V30 8981 H 822.137 0.903567 -4.95834 0
M  V30 8982 H 821.739 -0.316572 -3.72658 0
M  V30 8983 H 824.031 0.664598 -6.74232 0
M  V30 8984 H 824.974 -0.831836 -7.03197 0
M  V30 8985 H 825.382 0.21589 -5.64087 0
M  V30 8986 N 824.78 1.49157 -0.508906 0
M  V30 8987 C 826.057 1.95363 0.0961913 0
M  V30 8988 C 826.437 1.45064 1.53362 0
M  V30 8989 O 825.785 0.667835 2.18523 0
M  V30 8990 C 825.995 3.49 0.000688881 0
M  V30 8991 C 827.343 4.24257 0.170632 0
M  V30 8992 O 828.367 3.5612 0.0754994 0
M  V30 8993 O 827.226 5.45267 0.366957 0
M  V30 8994 H 824.32 0.821984 0.0909489 0
M  V30 8995 H 826.866 1.59769 -0.572007 0
M  V30 8996 H 825.638 3.78269 -1.00143 0
M  V30 8997 H 825.261 3.91233 0.708682 0
M  V30 8998 N 826.258 0.243083 1.55714 0
M  V30 8999 C 827.507 -0.383188 1.98027 0
M  V30 9000 C 827.82 -1.59347 1.13436 0
M  V30 9001 O 829.026 -2.29065 1.45745 0
M  V30 9002 C 827.482 -0.733135 3.52354 0
M  V30 9003 C 827.09 0.455539 4.45678 0
M  V30 9004 C 828.834 -1.32381 4.03331 0
M  V30 9005 C 826.741 0.0819591 5.91343 0
M  V30 9006 H 825.671 -0.146944 0.739543 0
M  V30 9007 H 828.322 0.342697 1.80272 0
M  V30 9008 H 826.704 -1.51704 3.65789 0
M  V30 9009 H 827.878 1.23291 4.44 0
M  V30 9010 H 826.193 0.960886 4.05162 0
M  V30 9011 H 828.79 -1.61658 5.09677 0
M  V30 9012 H 829.133 -2.24698 3.50452 0
M  V30 9013 H 829.666 -0.602885 3.93205 0
M  V30 9014 H 826.405 0.972171 6.48251 0
M  V30 9015 H 825.925 -0.659291 5.96166 0
M  V30 9016 H 827.604 -0.3372 6.46121 0
M  V30 9017 N 827.736 -1.57571 -0.0300757 0
M  V30 9018 C 829.013 -1.80381 -0.756447 0
M  V30 9019 C 829.393 -0.840906 -1.93628 0
M  V30 9020 O 828.741 0.117143 -2.282 0
M  V30 9021 C 828.951 -3.2807 -1.19043 0
M  V30 9022 C 830.299 -3.93025 -1.60676 0
M  V30 9023 O 831.323 -3.32213 -1.28503 0
M  V30 9024 O 830.182 -5.00092 -2.20386 0
M  V30 9025 H 827.276 -0.741737 -0.365725 0
M  V30 9026 H 829.822 -1.69699 -0.00693177 0
M  V30 9027 H 828.594 -3.89748 -0.348128 0
M  V30 9028 H 828.217 -3.43637 -1.99999 0
M  V30 9029 N 829.214 0.302327 -1.54673 0
M  V30 9030 C 830.162 1.39286 -1.86285 0
M  V30 9031 C 831.156 1.52553 -0.736478 0
M  V30 9032 O 832.362 1.54686 -0.92045 0
M  V30 9033 H 828.737 0.465228 -0.590819 0
M  V30 9034 H 830.708 1.09859 -2.77441 0
M  V30 9035 C 829.457 2.75155 -2.12567 0
M  V30 9036 H 828.78 2.65728 -2.98712 0
M  V30 9037 H 830.22 3.50476 -2.38627 0
M  V30 9038 C 828.679 3.23987 -0.923813 0
M  V30 9039 O 829.209 4.01443 -0.143649 0
M  V30 9040 N 827.415 2.81293 -0.72956 0
M  V30 9041 H 826.962 2.18421 -1.36565 0
M  V30 9042 H 826.92 3.14315 0.0730351 0
M  V30 9043 N 830.692 1.47107 0.565454 0
M  V30 9044 C 831.938 1.53535 1.32495 0
M  V30 9045 C 832.271 0.193537 1.93233 0
M  V30 9046 O 831.546 -0.796956 1.77423 0
M  V30 9047 C 831.829 2.64712 2.4413 0
M  V30 9048 C 831.682 4.08482 1.88314 0
M  V30 9049 C 833.001 2.71853 3.46098 0
M  V30 9050 H 830.12 0.558926 0.480386 0
M  V30 9051 H 832.762 1.79125 0.633575 0
M  V30 9052 H 830.912 2.43023 3.03104 0
M  V30 9053 H 832.584 4.4151 1.33665 0
M  V30 9054 H 830.827 4.17148 1.19037 0
M  V30 9055 H 831.498 4.82032 2.68978 0
M  V30 9056 H 833.974 2.91397 2.97031 0
M  V30 9057 H 832.85 3.51433 4.21646 0
M  V30 9058 H 833.111 1.78584 4.04426 0
M  V30 9059 N 832.17 -0.811516 1.35101 0
M  V30 9060 C 833.08 -1.95475 1.29718 0
M  V30 9061 C 834.096 -1.72813 0.202909 0
M  V30 9062 O 835.272 -1.96725 0.431414 0
M  V30 9063 C 832.337 -3.29975 1.06385 0
M  V30 9064 C 831.398 -3.65566 2.25077 0
M  V30 9065 C 830.631 -4.93648 2.02848 0
M  V30 9066 O 830.854 -5.617 0.992442 0
M  V30 9067 O 829.788 -5.27384 2.90087 0
M  V30 9068 H 833.614 -2.02961 2.25921 0
M  V30 9069 H 831.199 -0.948583 1.15422 0
M  V30 9070 H 833.081 -4.10506 0.951999 0
M  V30 9071 H 831.756 -3.2343 0.132294 0
M  V30 9072 H 830.663 -2.85432 2.41825 0
M  V30 9073 H 831.996 -3.7681 3.16662 0
M  V30 9074 N 833.648 -1.19017 -1.03309 0
M  V30 9075 C 835.064 -0.941483 -1.28873 0
M  V30 9076 C 835.264 0.388587 -1.97718 0
M  V30 9077 O 834.32 1.12111 -2.26246 0
M  V30 9078 C 835.633 -2.11249 -2.13996 0
M  V30 9079 C 837.181 -2.15164 -2.27318 0
M  V30 9080 C 837.656 -3.31704 -3.15811 0
M  V30 9081 N 839.147 -3.31613 -3.23399 0
M  V30 9082 C 839.882 -4.18431 -3.9205 0
M  V30 9083 N 839.378 -5.15397 -4.62966 0
M  V30 9084 N 841.171 -4.06321 -3.88406 0
M  V30 9085 H 833.322 -2.04599 -0.570343 0
M  V30 9086 H 835.585 -0.894406 -0.314232 0
M  V30 9087 H 835.291 -3.07482 -1.70727 0
M  V30 9088 H 835.165 -2.07955 -3.14697 0
M  V30 9089 H 837.552 -1.19504 -2.6982 0
M  V30 9090 H 837.633 -2.22513 -1.26182 0
M  V30 9091 H 837.277 -4.2764 -2.74019 0
M  V30 9092 H 837.207 -3.21592 -4.16997 0
M  V30 9093 H 839.698 -2.6142 -2.72888 0
M  V30 9094 H 840.011 -5.78 -5.12968 0
M  V30 9095 H 838.356 -5.19349 -4.61846 0
M  V30 9096 H 841.547 -3.29849 -3.3214 0
M  V30 9097 H 841.72 -4.74196 -4.41635 0
M  V30 9098 N 835.127 1.22348 -0.993418 0
M  V30 9099 C 836.355 1.95125 -0.688021 0
M  V30 9100 C 836.77 1.73377 0.747388 0
M  V30 9101 O 836.127 1.03317 1.50439 0
M  V30 9102 C 836.178 3.47819 -0.985097 0
M  V30 9103 O 835.899 3.68838 -2.3641 0
M  V30 9104 C 837.4 4.37779 -0.697474 0
M  V30 9105 H 834.62 0.62087 -0.254481 0
M  V30 9106 H 837.164 1.55485 -1.32833 0
M  V30 9107 H 835.319 3.85426 -0.390583 0
M  V30 9108 H 835.733 4.63032 -2.46377 0
M  V30 9109 H 837.207 5.43666 -0.955604 0
M  V30 9110 H 837.684 4.37651 0.368524 0
M  V30 9111 H 838.29 4.05799 -1.27306 0
M  V30 9112 N 836.605 0.766683 1.37694 0
M  V30 9113 C 837.553 0.137269 2.32195 0
M  V30 9114 C 838.547 -0.69067 1.54681 0
M  V30 9115 O 839.753 -0.588299 1.70115 0
M  V30 9116 H 836.128 0.0256003 0.751564 0
M  V30 9117 H 838.099 0.950129 2.82869 0
M  V30 9118 C 836.848 -0.731446 3.39919 0
M  V30 9119 H 836.171 -0.103738 3.99665 0
M  V30 9120 H 837.611 -1.13891 4.08417 0
M  V30 9121 C 836.07 -1.87984 2.79578 0
M  V30 9122 O 836.6 -2.97496 2.69924 0
M  V30 9123 N 834.806 -1.6789 2.37195 0
M  V30 9124 H 834.353 -0.788162 2.45246 0
M  V30 9125 H 834.311 -2.44894 1.97165 0
M  V30 9126 N 838.083 -1.48885 0.516809 0
M  V30 9127 C 839.03 -2.29408 -0.253125 0
M  V30 9128 C 840 -1.36533 -0.945935 0
M  V30 9129 O 841.185 -1.65495 -0.949527 0
M  V30 9130 C 838.325 -3.19592 -1.30211 0
M  V30 9131 C 837.438 -4.27535 -0.61948 0
M  V30 9132 C 836.573 -5.04916 -1.65026 0
M  V30 9133 C 835.612 -6.04677 -0.950368 0
M  V30 9134 N 834.749 -6.75164 -1.92608 0
M  V30 9135 H 839.589 -2.94738 0.439744 0
M  V30 9136 H 837.126 -1.45311 0.2287 0
M  V30 9137 H 839.084 -3.70267 -1.92245 0
M  V30 9138 H 837.714 -2.56213 -1.96353 0
M  V30 9139 H 836.766 -3.80228 0.114505 0
M  V30 9140 H 838.078 -4.98752 -0.0693016 0
M  V30 9141 H 837.232 -5.59539 -2.34523 0
M  V30 9142 H 835.971 -4.33508 -2.23432 0
M  V30 9143 H 834.976 -5.4927 -0.241252 0
M  V30 9144 H 836.201 -6.78077 -0.372599 0
M  V30 9145 H 834.147 -6.06517 -2.49946 0
M  V30 9146 H 834.064 -7.4241 -1.42699 0
M  V30 9147 H 835.332 -7.34384 -2.61345 0
M  V30 9148 N 839.561 -0.251338 -1.55583 0
M  V30 9149 C 840.81 0.372681 -1.98227 0
M  V30 9150 C 841.123 1.58743 -1.1428 0
M  V30 9151 O 842.329 2.28289 -1.46957 0
M  V30 9152 C 840.785 0.714439 -3.52738 0
M  V30 9153 C 840.393 -0.479168 -4.4543 0
M  V30 9154 C 842.137 1.3024 -4.04027 0
M  V30 9155 C 840.044 -0.113318 -5.91291 0
M  V30 9156 H 838.974 0.14302 -0.740312 0
M  V30 9157 H 841.625 -0.352253 -1.80087 0
M  V30 9158 H 840.007 1.49762 -3.66589 0
M  V30 9159 H 841.181 -1.25644 -4.4334 0
M  V30 9160 H 839.496 -0.982359 -4.04646 0
M  V30 9161 H 842.093 1.58953 -5.10527 0
M  V30 9162 H 842.436 2.22837 -3.51638 0
M  V30 9163 H 842.969 0.582024 -3.93519 0
M  V30 9164 H 839.708 -1.00654 -6.47726 0
M  V30 9165 H 839.228 0.627666 -5.96507 0
M  V30 9166 H 840.907 0.30293 -6.4629 0
M  V30 9167 N 841.039 1.57585 0.0217189 0
M  V30 9168 C 841.986 2.07036 1.02004 0
M  V30 9169 C 842.956 0.96106 1.35473 0
M  V30 9170 O 844.141 1.23211 1.45684 0
M  V30 9171 C 841.281 2.56056 2.31364 0
M  V30 9172 C 840.394 3.80805 2.03989 0
M  V30 9173 C 839.529 4.18409 3.27272 0
M  V30 9174 C 838.568 5.36055 2.95486 0
M  V30 9175 N 837.705 5.69056 4.11242 0
M  V30 9176 H 842.545 2.92073 0.591396 0
M  V30 9177 H 840.082 1.44403 0.280384 0
M  V30 9178 H 842.04 2.82548 3.06957 0
M  V30 9179 H 840.67 1.73925 2.71937 0
M  V30 9180 H 839.722 3.61354 1.1886 0
M  V30 9181 H 841.034 4.66512 1.76546 0
M  V30 9182 H 840.188 4.46068 4.11228 0
M  V30 9183 H 838.927 3.31369 3.57835 0
M  V30 9184 H 837.932 5.08142 2.09933 0
M  V30 9185 H 839.157 6.24755 2.66193 0
M  V30 9186 H 837.103 4.84974 4.41742 0
M  V30 9187 H 837.02 6.49288 3.87247 0
M  V30 9188 H 838.288 6.01295 4.96049 0
M  V30 9189 N 842.517 -0.29412 1.54831 0
M  V30 9190 C 843.794 -1.04847 1.65126 0
M  V30 9191 C 844.174 -2.04996 0.503986 0
M  V30 9192 O 843.522 -2.22996 -0.498496 0
M  V30 9193 C 843.732 -1.72418 3.03435 0
M  V30 9194 C 845.08 -2.24362 3.60481 0
M  V30 9195 O 846.104 -1.8244 3.05932 0
M  V30 9196 O 844.963 -3.01196 4.56008 0
M  V30 9197 H 842.057 -0.485032 0.669831 0
M  V30 9198 H 844.603 -0.291659 1.67175 0
M  V30 9199 H 843.375 -0.997351 3.78376 0
M  V30 9200 H 842.998 -2.54839 3.05193 0
M  V30 9201 N 843.995 -1.47404 -0.557645 0
M  V30 9202 C 845.243 -1.53703 -1.31224 0
M  V30 9203 C 845.564 -0.200742 -1.93964 0
M  V30 9204 O 844.834 0.775253 -1.79907 0
M  V30 9205 H 843.414 -0.566171 -0.487299 0
M  V30 9206 H 846.076 -1.83699 -0.651195 0
M  V30 9207 H 845.172 -2.30335 -2.10599 0
M  V30 9208 N 845.473 0.80434 -1.35529 0
M  V30 9209 C 846.703 1.59052 -1.31856 0
M  V30 9210 C 847.111 1.88905 0.105549 0
M  V30 9211 O 846.454 1.49422 1.06858 0
M  V30 9212 C 846.516 2.94626 -2.06 0
M  V30 9213 C 846.18 2.87576 -3.55175 0
M  V30 9214 C 847.177 2.60856 -4.49722 0
M  V30 9215 C 844.862 3.06623 -3.97854 0
M  V30 9216 C 846.856 2.53262 -5.84925 0
M  V30 9217 C 844.543 2.98652 -5.33151 0
M  V30 9218 C 845.541 2.72007 -6.26499 0
M  V30 9219 O 845.229 2.64003 -7.59314 0
M  V30 9220 H 844.961 0.500486 -0.454411 0
M  V30 9221 H 847.515 1.0074 -1.78999 0
M  V30 9222 H 845.745 3.5493 -1.53498 0
M  V30 9223 H 847.434 3.55785 -1.95376 0
M  V30 9224 H 848.2 2.45858 -4.18066 0
M  V30 9225 H 844.079 3.26372 -3.2558 0
M  V30 9226 H 847.623 2.32386 -6.57756 0
M  V30 9227 H 843.52 3.13208 -5.64421 0
M  V30 9228 H 844.288 2.79595 -7.69265 0
M  V30 9229 N 846.951 1.19563 1.02676 0
M  V30 9230 C 848.197 1.01108 1.7649 0
M  V30 9231 C 848.552 -0.453152 1.86987 0
M  V30 9232 O 847.845 -1.33209 1.37717 0
M  V30 9233 C 848.039 1.61619 3.18769 0
M  V30 9234 C 847.868 3.13774 3.22142 0
M  V30 9235 C 846.638 3.82687 3.29968 0
M  V30 9236 C 848.836 4.11114 3.09014 0
M  V30 9237 N 846.818 5.2222 3.22737 0
M  V30 9238 C 848.189 5.37259 3.0944 0
M  V30 9239 C 850.244 4.02447 2.93157 0
M  V30 9240 C 848.947 6.55738 2.95636 0
M  V30 9241 C 850.973 5.20538 2.80703 0
M  V30 9242 C 850.335 6.45582 2.81785 0
M  V30 9243 H 846.434 0.424123 0.656996 0
M  V30 9244 H 849.018 1.5157 1.22207 0
M  V30 9245 H 847.189 1.13756 3.71368 0
M  V30 9246 H 848.921 1.36579 3.80957 0
M  V30 9247 H 845.676 3.3349 3.36275 0
M  V30 9248 H 846.1 5.95238 3.22523 0
M  V30 9249 H 850.742 3.0659 2.9114 0
M  V30 9250 H 848.46 7.51778 2.96403 0
M  V30 9251 H 852.046 5.15635 2.69466 0
M  V30 9252 H 850.926 7.35423 2.72254 0
M  V30 9253 N 848.429 -1.21819 0.999893 0
M  V30 9254 C 849.706 -1.86318 0.595384 0
M  V30 9255 C 850.086 -1.8965 -0.927143 0
M  V30 9256 O 849.434 -1.3921 -1.81199 0
M  V30 9257 C 849.644 -3.26837 1.22387 0
M  V30 9258 C 850.992 -4.03272 1.32878 0
M  V30 9259 O 852.016 -3.36129 1.1788 0
M  V30 9260 O 850.875 -5.23477 1.56952 0
M  V30 9261 H 847.969 -0.801638 0.203238 0
M  V30 9262 H 850.515 -1.29542 1.09622 0
M  V30 9263 H 849.287 -3.19084 2.26497 0
M  V30 9264 H 848.91 -3.91226 0.709069 0
M  V30 9265 N 849.908 -0.773975 -1.37286 0
M  V30 9266 C 851.319 -0.404433 -1.82267 0
M  V30 9267 C 851.67 1.06971 -1.64474 0
M  V30 9268 O 850.795 1.82867 -1.15708 0
M  V30 9269 C 851.39 -0.727298 -3.30902 0
M  V30 9270 C 849.949 -0.410784 -3.74152 0
M  V30 9271 C 849.096 -0.969983 -2.59782 0
M  V30 9272 H 852.047 -0.968437 -1.25726 0
M  V30 9273 H 852.068 -0.0127575 -3.80498 0
M  V30 9274 H 851.58 -1.80026 -3.4382 0
M  V30 9275 H 849.681 0.65477 -3.66802 0
M  V30 9276 H 849.794 -0.920592 -4.70172 0
M  V30 9277 H 848.158 -0.394094 -2.51633 0
M  V30 9278 H 848.941 -2.04839 -2.75492 0
M  V30 9279 N 851.386 1.48609 -0.524698 0
M  V30 9280 C 852.634 2.02097 0.0112991 0
M  V30 9281 C 852.955 1.40455 1.35268 0
M  V30 9282 O 852.225 0.56807 1.87483 0
M  V30 9283 H 850.805 0.746966 0.00716426 0
M  V30 9284 H 853.467 1.82378 -0.687329 0
M  V30 9285 H 852.563 3.11855 0.123531 0
M  V30 9286 N 852.864 0.259585 1.55447 0
M  V30 9287 C 854.275 -0.241165 1.85136 0
M  V30 9288 C 854.626 -1.56634 1.18153 0
M  V30 9289 O 853.751 -2.11359 0.464351 0
M  V30 9290 C 854.346 -0.444355 3.35873 0
M  V30 9291 C 852.905 -0.889354 3.65742 0
M  V30 9292 C 852.052 0.0262474 2.77288 0
M  V30 9293 H 855.003 0.481808 1.51209 0
M  V30 9294 H 855.024 -1.28517 3.58139 0
M  V30 9295 H 854.536 0.520289 3.84597 0
M  V30 9296 H 852.637 -1.86602 3.22507 0
M  V30 9297 H 852.75 -0.737432 4.73391 0
M  V30 9298 H 851.114 -0.487361 2.49994 0
M  V30 9299 H 851.897 0.986494 3.28821 0
M  V30 9300 N 854.342 -1.57594 -0.0133615 0
M  V30 9301 C 855.758 -1.5527 -0.369255 0
M  V30 9302 C 855.958 -0.987751 -1.7563 0
M  V30 9303 O 855.014 -0.615683 -2.44879 0
M  V30 9304 C 856.327 -2.99602 -0.25672 0
M  V30 9305 C 857.875 -3.11227 -0.332647 0
M  V30 9306 C 858.35 -4.57321 -0.249387 0
M  V30 9307 N 859.841 -4.62177 -0.3077 0
M  V30 9308 C 860.576 -5.72781 -0.26641 0
M  V30 9309 N 860.072 -6.92575 -0.176494 0
M  V30 9310 N 861.865 -5.61204 -0.317295 0
M  V30 9311 H 854.016 -1.92662 0.894154 0
M  V30 9312 H 856.279 -0.884352 0.341505 0
M  V30 9313 H 855.985 -3.44723 0.697072 0
M  V30 9314 H 855.859 -3.6246 -1.04415 0
M  V30 9315 H 858.246 -2.66045 -1.27688 0
M  V30 9316 H 858.327 -2.51171 0.484412 0
M  V30 9317 H 857.971 -5.03174 0.691242 0
M  V30 9318 H 857.901 -5.15306 -1.08476 0
M  V30 9319 H 860.392 -3.75994 -0.379069 0
M  V30 9320 H 860.705 -7.72653 -0.150518 0
M  V30 9321 H 859.05 -6.94854 -0.142314 0
M  V30 9322 H 862.241 -4.66509 -0.385643 0
M  V30 9323 H 862.414 -6.47388 -0.28165 0
M  V30 9324 N 855.82 0.285905 -1.54985 0
M  V30 9325 C 856.783 1.33625 -1.86218 0
M  V30 9326 C 857.783 1.42971 -0.735936 0
M  V30 9327 O 858.973 1.42345 -1.00417 0
M  V30 9328 C 856.105 2.71926 -2.05595 0
M  V30 9329 H 857.298 1.07167 -2.80099 0
M  V30 9330 H 854.851 0.523335 -1.47278 0
M  V30 9331 H 855.586 3.03583 -1.14053 0
M  V30 9332 H 855.371 2.6653 -2.87583 0
M  V30 9333 H 856.861 3.47841 -2.31077 0
M  V30 9334 N 857.298 1.47698 0.54982 0
M  V30 9335 C 858.575 1.45185 1.31075 0
M  V30 9336 C 858.955 0.152768 2.10547 0
M  V30 9337 O 858.303 -0.865706 2.11466 0
M  V30 9338 C 858.513 2.70192 2.20902 0
M  V30 9339 C 859.861 3.1771 2.81683 0
M  V30 9340 O 860.885 2.70971 2.312 0
M  V30 9341 O 859.744 3.98986 3.7346 0
M  V30 9342 H 856.838 0.57892 0.590577 0
M  V30 9343 H 859.384 1.59908 0.568112 0
M  V30 9344 H 858.156 3.56269 1.61828 0
M  V30 9345 H 857.779 2.58091 3.02448 0
M  V30 9346 N 858.776 -0.797141 1.35954 0
M  V30 9347 C 860.187 -1.37179 1.26644 0
M  V30 9348 C 860.538 -1.9596 -0.0971046 0
M  V30 9349 O 859.663 -1.91994 -0.998355 0
M  V30 9350 C 860.258 -2.49395 2.2932 0
M  V30 9351 C 858.817 -3.02697 2.23722 0
M  V30 9352 C 857.964 -1.75721 2.14517 0
M  V30 9353 H 860.915 -0.599407 1.46945 0
M  V30 9354 H 860.936 -3.28204 1.92515 0
M  V30 9355 H 860.448 -2.06584 3.2855 0
M  V30 9356 H 858.549 -3.49948 1.27934 0
M  V30 9357 H 858.662 -3.60036 3.16087 0
M  V30 9358 H 857.026 -1.97649 1.60646 0
M  V30 9359 H 857.809 -1.35049 3.15621 0
M  V30 9360 N 860.254 -1.20106 -1.0204 0
M  V30 9361 C 861.501 -1.00889 -1.75578 0
M  V30 9362 C 861.829 0.459415 -1.88996 0
M  V30 9363 O 861.084 1.35735 -1.40977 0
M  V30 9364 C 861.383 -1.63308 -3.17908 0
M  V30 9365 C 861.049 -3.13091 -3.24476 0
M  V30 9366 C 859.711 -3.53968 -3.25976 0
M  V30 9367 C 862.063 -4.09093 -3.22944 0
M  V30 9368 C 859.391 -4.89381 -3.2361 0
M  V30 9369 C 861.743 -5.44447 -3.22119 0
M  V30 9370 C 860.407 -5.84742 -3.2192 0
M  V30 9371 H 859.677 -0.36918 -0.642485 0
M  V30 9372 H 862.324 -1.49475 -1.19706 0
M  V30 9373 H 860.629 -1.06974 -3.76914 0
M  V30 9374 H 862.326 -1.45958 -3.73493 0
M  V30 9375 H 858.916 -2.80526 -3.24042 0
M  V30 9376 H 863.1 -3.78549 -3.20958 0
M  V30 9377 H 858.356 -5.1987 -3.21785 0
M  V30 9378 H 862.53 -6.18584 -3.19885 0
M  V30 9379 H 860.157 -6.89642 -3.19841 0
M  V30 9380 N 861.732 1.21287 -1.00634 0
M  V30 9381 C 862.642 2.27388 -0.577226 0
M  V30 9382 C 863.658 1.69791 0.380399 0
M  V30 9383 O 864.834 1.99918 0.2439 0
M  V30 9384 C 861.899 3.46588 0.0880532 0
M  V30 9385 C 860.96 4.19453 -0.914222 0
M  V30 9386 C 860.193 5.32962 -0.280596 0
M  V30 9387 O 860.416 5.62895 0.922265 0
M  V30 9388 O 859.35 5.93666 -0.992196 0
M  V30 9389 H 863.176 2.66289 -1.46028 0
M  V30 9390 H 860.761 1.2771 -0.775283 0
M  V30 9391 H 862.643 4.18881 0.460094 0
M  V30 9392 H 861.318 3.09585 0.945461 0
M  V30 9393 H 860.225 3.49376 -1.33744 0
M  V30 9394 H 861.558 4.6037 -1.74126 0
M  V30 9395 N 863.21 0.781244 1.36873 0
M  V30 9396 C 864.487 0.274217 1.93668 0
M  V30 9397 C 864.867 -1.2323 1.71399 0
M  V30 9398 O 864.215 -2.01993 1.06822 0
M  V30 9399 C 864.425 0.657939 3.42742 0
M  V30 9400 C 865.773 0.63307 4.19854 0
M  V30 9401 O 866.797 0.597909 3.51146 0
M  V30 9402 O 865.656 0.668636 5.42394 0
M  V30 9403 H 862.75 0.0658059 0.824378 0
M  V30 9404 H 865.296 0.863238 1.46104 0
M  V30 9405 H 864.068 1.69728 3.52573 0
M  V30 9406 H 863.691 0.0423678 3.97577 0
M  V30 9407 N 864.689 -1.48329 0.532571 0
M  V30 9408 C 865.622 -2.26524 -0.2761 0
M  V30 9409 C 866.6 -1.32498 -0.942496 0
M  V30 9410 O 867.784 -1.61844 -0.966376 0
M  V30 9411 C 864.911 -3.08808 -1.39124 0
M  V30 9412 C 863.957 -4.18227 -0.835984 0
M  V30 9413 S 864.79 -5.34669 0.298186 0
M  V30 9414 C 865.946 -6.20514 -0.81937 0
M  V30 9415 H 866.179 -2.94764 0.387502 0
M  V30 9416 H 863.712 -1.51081 0.318407 0
M  V30 9417 H 865.67 -3.56792 -2.03002 0
M  V30 9418 H 864.331 -2.39976 -2.02658 0
M  V30 9419 H 863.524 -4.75435 -1.67264 0
M  V30 9420 H 863.126 -3.72996 -0.27385 0
M  V30 9421 H 865.418 -6.55371 -1.7174 0
M  V30 9422 H 866.361 -7.07525 -0.285199 0
M  V30 9423 H 866.769 -5.5366 -1.10094 0
M  V30 9424 N 866.167 -0.267825 -1.55308 0
M  V30 9425 C 867.583 0.0865107 -1.59365 0
M  V30 9426 C 867.783 1.55205 -1.28505 0
M  V30 9427 O 866.839 2.29978 -1.04241 0
M  V30 9428 C 868.152 -0.28155 -2.99379 0
M  V30 9429 C 869.7 -0.227565 -3.12172 0
M  V30 9430 C 870.175 -0.569959 -4.5444 0
M  V30 9431 N 871.666 -0.521238 -4.60258 0
M  V30 9432 C 872.401 -0.759061 -5.68354 0
M  V30 9433 N 871.897 -1.06112 -6.84626 0
M  V30 9434 N 873.69 -0.688351 -5.57869 0
M  V30 9435 H 865.841 -1.22332 -1.73633 0
M  V30 9436 H 868.104 -0.493703 -0.809297 0
M  V30 9437 H 867.81 -1.3005 -3.26772 0
M  V30 9438 H 867.684 0.381192 -3.75269 0
M  V30 9439 H 870.071 0.782093 -2.84548 0
M  V30 9440 H 870.152 -0.924461 -2.38511 0
M  V30 9441 H 869.796 -1.57727 -4.82788 0
M  V30 9442 H 869.726 0.148646 -5.2639 0
M  V30 9443 H 872.217 -0.297359 -3.76728 0
M  V30 9444 H 872.53 -1.22945 -7.62958 0
M  V30 9445 H 870.875 -1.09881 -6.86259 0
M  V30 9446 H 874.066 -0.452268 -4.6591 0
M  V30 9447 H 874.239 -0.877081 -6.42037 0
M  V30 9448 N 867.645 1.57599 0.00500368 0
M  V30 9449 C 868.875 1.94344 0.700998 0
M  V30 9450 C 869.283 0.868011 1.68114 0
M  V30 9451 O 868.626 -0.16214 1.82983 0
M  V30 9452 C 868.688 3.27046 1.49268 0
M  V30 9453 C 868.352 4.51992 0.674684 0
M  V30 9454 C 869.349 5.19888 -0.0354833 0
M  V30 9455 C 867.034 4.98432 0.622129 0
M  V30 9456 C 869.028 6.3252 -0.787246 0
M  V30 9457 C 866.715 6.10954 -0.133362 0
M  V30 9458 C 867.713 6.77855 -0.836788 0
M  V30 9459 O 867.401 7.88221 -1.57996 0
M  V30 9460 H 867.133 0.645572 0.20053 0
M  V30 9461 H 869.687 2.0536 -0.040718 0
M  V30 9462 H 867.917 3.12424 2.27877 0
M  V30 9463 H 869.606 3.4894 2.07355 0
M  V30 9464 H 870.372 4.85 -0.00400159 0
M  V30 9465 H 866.251 4.46189 1.15917 0
M  V30 9466 H 869.795 6.84671 -1.33683 0
M  V30 9467 H 865.692 6.45285 -0.166682 0
M  V30 9468 H 866.46 8.0471 -1.49615 0
M  V30 9469 N 869.123 -0.277682 1.55134 0
M  V30 9470 C 870.369 -1.0114 1.7578 0
M  V30 9471 C 870.702 -1.86109 0.554719 0
M  V30 9472 O 869.977 -1.89275 -0.447813 0
M  V30 9473 C 870.26 -1.89789 3.06027 0
M  V30 9474 C 870.113 -1.07844 4.3668 0
M  V30 9475 C 871.432 -2.88577 3.32282 0
M  V30 9476 H 868.551 -0.366277 0.639539 0
M  V30 9477 H 871.193 -0.284155 1.87863 0
M  V30 9478 H 869.343 -2.51796 2.95856 0
M  V30 9479 H 871.015 -0.479432 4.58802 0
M  V30 9480 H 869.258 -0.381764 4.32117 0
M  V30 9481 H 869.929 -1.73179 5.24131 0
M  V30 9482 H 872.405 -2.36702 3.42215 0
M  V30 9483 H 871.281 -3.47749 4.2469 0
M  V30 9484 H 871.542 -3.63458 2.51696 0
M  V30 9485 N 870.601 -1.47988 -0.541979 0
M  V30 9486 C 871.847 -1.56604 -1.29795 0
M  V30 9487 C 872.202 -0.231728 -1.90999 0
M  V30 9488 O 871.495 0.764203 -1.757 0
M  V30 9489 C 871.689 -2.63189 -2.41798 0
M  V30 9490 C 871.518 -4.06855 -1.9157 0
M  V30 9491 C 870.288 -4.74132 -1.74719 0
M  V30 9492 C 872.486 -4.934 -1.45123 0
M  V30 9493 N 870.468 -6.02258 -1.18991 0
M  V30 9494 C 871.839 -6.11675 -1.01263 0
M  V30 9495 C 873.894 -4.7972 -1.33315 0
M  V30 9496 C 872.597 -7.17778 -0.467663 0
M  V30 9497 C 874.623 -5.85934 -0.802192 0
M  V30 9498 C 873.985 -7.03409 -0.373595 0
M  V30 9499 H 870.084 -0.627677 -0.466418 0
M  V30 9500 H 872.668 -1.84812 -0.612576 0
M  V30 9501 H 870.839 -2.36823 -3.07846 0
M  V30 9502 H 872.571 -2.6156 -3.08818 0
M  V30 9503 H 869.326 -4.30276 -1.97887 0
M  V30 9504 H 869.75 -6.70558 -0.931715 0
M  V30 9505 H 874.392 -3.89249 -1.6506 0
M  V30 9506 H 872.11 -8.07982 -0.137874 0
M  V30 9507 H 875.696 -5.774 -0.714171 0
M  V30 9508 H 874.576 -7.84194 0.0308796 0
M  V30 9509 N 872.079 0.78992 -1.36375 0
M  V30 9510 C 873.327 1.54472 -1.30319 0
M  V30 9511 C 873.648 1.94647 0.117338 0
M  V30 9512 O 872.918 1.64906 1.05748 0
M  V30 9513 H 871.498 0.572879 -0.479394 0
M  V30 9514 H 874.16 0.941245 -1.70665 0
M  V30 9515 H 873.256 2.45252 -1.93024 0
M  V30 9516 N 873.557 1.20646 1.01402 0
M  V30 9517 C 874.805 1.01618 1.74695 0
M  V30 9518 C 875.126 -0.452438 1.89679 0
M  V30 9519 O 874.396 -1.32693 1.44116 0
M  V30 9520 H 872.976 0.373013 0.647202 0
M  V30 9521 H 875.638 1.518 1.22241 0
M  V30 9522 H 874.734 1.47666 2.74957 0
M  V30 9523 N 875.035 -1.20752 1.01276 0
M  V30 9524 C 876.282 -1.90021 0.699887 0
M  V30 9525 C 876.61 -1.78604 -0.770113 0
M  V30 9526 O 875.865 -1.16195 -1.57471 0
M  V30 9527 C 876.164 -3.40808 1.07633 0
M  V30 9528 C 875.83 -3.72423 2.54189 0
M  V30 9529 C 874.492 -3.80762 2.94234 0
M  V30 9530 C 876.844 -3.87025 3.49086 0
M  V30 9531 C 874.172 -4.01158 4.28123 0
M  V30 9532 C 876.524 -4.0893 4.82658 0
M  V30 9533 C 875.188 -4.15498 5.22415 0
M  V30 9534 H 874.458 -0.695335 0.256107 0
M  V30 9535 H 877.105 -1.43096 1.27263 0
M  V30 9536 H 875.41 -3.89521 0.421944 0
M  V30 9537 H 877.107 -3.92693 0.811997 0
M  V30 9538 H 873.697 -3.66529 2.22158 0
M  V30 9539 H 877.881 -3.79942 3.19309 0
M  V30 9540 H 873.137 -4.04476 4.58486 0
M  V30 9541 H 877.311 -4.19172 5.56119 0
M  V30 9542 H 874.938 -4.31055 6.26176 0
M  V30 9543 N 876.513 -0.788492 -1.36457 0
M  V30 9544 C 877.476 -0.192209 -2.28393 0
M  V30 9545 C 878.476 0.609916 -1.48784 0
M  V30 9546 O 879.666 0.431046 -1.68783 0
M  V30 9547 C 876.798 0.734096 -3.32902 0
M  V30 9548 H 877.991 -1.00284 -2.82636 0
M  V30 9549 H 875.544 -0.557852 -1.46006 0
M  V30 9550 H 876.279 1.5691 -2.83813 0
M  V30 9551 H 876.064 0.160875 -3.9177 0
M  V30 9552 H 877.554 1.1462 -4.01562 0
M  V30 9553 N 877.991 1.48044 -0.54043 0
M  V30 9554 C 879.221 2.06595 -0.0144943 0
M  V30 9555 C 879.629 1.39593 1.27713 0
M  V30 9556 O 878.972 0.480794 1.77297 0
M  V30 9557 C 879.034 3.5849 0.269316 0
M  V30 9558 C 878.698 4.47429 -0.930372 0
M  V30 9559 C 879.695 4.8657 -1.83155 0
M  V30 9560 C 877.38 4.89185 -1.14032 0
M  V30 9561 C 879.374 5.66246 -2.92649 0
M  V30 9562 C 877.061 5.6863 -2.23838 0
M  V30 9563 C 878.059 6.07069 -3.12979 0
M  V30 9564 O 877.747 6.84917 -4.20884 0
M  V30 9565 H 877.479 0.675086 -0.0351467 0
M  V30 9566 H 880.033 1.91275 -0.74853 0
M  V30 9567 H 878.263 3.71961 1.05745 0
M  V30 9568 H 879.952 3.99124 0.738595 0
M  V30 9569 H 880.718 4.54924 -1.68134 0
M  V30 9570 H 876.597 4.58742 -0.455717 0
M  V30 9571 H 880.141 5.96169 -3.62254 0
M  V30 9572 H 876.038 5.99688 -2.38839 0
M  V30 9573 H 876.806 7.03287 -4.18723 0
M  V30 9574 N 879.47 0.276058 1.55163 0
M  V30 9575 C 880.4 -0.604633 2.25536 0
M  V30 9576 C 881.381 -1.15813 1.24585 0
M  V30 9577 O 882.566 -1.1921 1.53306 0
M  V30 9578 C 879.696 -1.78836 2.97716 0
M  V30 9579 C 878.65 -1.36635 4.05604 0
M  V30 9580 C 877.976 -2.63325 4.65364 0
M  V30 9581 C 879.276 -0.515858 5.19746 0
M  V30 9582 H 880.97 -0.0177483 2.99395 0
M  V30 9583 H 878.516 -0.00709627 1.43998 0
M  V30 9584 H 880.469 -2.41036 3.45658 0
M  V30 9585 H 879.193 -2.40109 2.21394 0
M  V30 9586 H 877.852 -0.767541 3.58475 0
M  V30 9587 H 877.5 -3.22858 3.85709 0
M  V30 9588 H 877.2 -2.358 5.38212 0
M  V30 9589 H 878.724 -3.26372 5.16056 0
M  V30 9590 H 880.138 -1.04289 5.63735 0
M  V30 9591 H 878.535 -0.335449 5.99162 0
M  V30 9592 H 879.605 0.465137 4.82664 0
M  V30 9593 N 880.948 -1.576 0.00335426 0
M  V30 9594 C 881.88 -2.0549 -1.01521 0
M  V30 9595 C 882.893 -0.973441 -1.30491 0
M  V30 9596 O 884.082 -1.25017 -1.27409 0
M  V30 9597 C 881.182 -2.44272 -2.34914 0
M  V30 9598 C 880.355 -3.75191 -2.24835 0
M  V30 9599 C 879.414 -4.00804 -3.40944 0
M  V30 9600 O 878.44 -4.71423 -3.18981 0
M  V30 9601 N 879.642 -3.48961 -4.63904 0
M  V30 9602 H 882.407 -2.93493 -0.60678 0
M  V30 9603 H 879.968 -1.60851 -0.18396 0
M  V30 9604 H 881.96 -2.58518 -3.11369 0
M  V30 9605 H 880.53 -1.6177 -2.67487 0
M  V30 9606 H 879.75 -3.70989 -1.3327 0
M  V30 9607 H 881.038 -4.61013 -2.15277 0
M  V30 9608 H 880.436 -2.9178 -4.84645 0
M  V30 9609 H 878.993 -3.68531 -5.37613 0
M  V30 9610 N 882.426 0.269451 -1.5528 0
M  V30 9611 C 883.703 1.02207 -1.66773 0
M  V30 9612 C 884.083 2.04168 -0.536536 0
M  V30 9613 O 883.431 2.23761 0.462956 0
M  V30 9614 C 883.641 1.67569 -3.0614 0
M  V30 9615 C 884.989 2.18599 -3.64005 0
M  V30 9616 O 886.013 1.7755 -3.08795 0
M  V30 9617 O 884.872 2.93903 -4.60742 0
M  V30 9618 H 881.966 0.474314 -0.677462 0
M  V30 9619 H 884.512 0.265026 -1.67618 0
M  V30 9620 H 883.284 0.937029 -3.79915 0
M  V30 9621 H 882.907 2.49951 -3.09209 0
M  V30 9622 N 883.904 1.48273 0.534124 0
M  V30 9623 C 885.15 1.56311 1.29208 0
M  V30 9624 C 885.483 0.234481 1.92779 0
M  V30 9625 O 884.758 -0.759143 1.79073 0
M  V30 9626 C 885.041 2.69831 2.3846 0
M  V30 9627 C 884.894 4.12385 1.79608 0
M  V30 9628 C 886.213 2.79133 3.40254 0
M  V30 9629 H 883.332 0.56899 0.468422 0
M  V30 9630 H 885.974 1.80429 0.595438 0
M  V30 9631 H 884.124 2.49397 2.97881 0
M  V30 9632 H 885.796 4.44246 1.24269 0
M  V30 9633 H 884.039 4.19579 1.10162 0
M  V30 9634 H 884.71 4.87629 2.58693 0
M  V30 9635 H 887.186 2.97632 2.90783 0
M  V30 9636 H 886.062 3.60298 4.14097 0
M  V30 9637 H 886.323 1.87122 4.00547 0
M  V30 9638 N 885.382 -0.782676 1.36792 0
M  V30 9639 C 886.628 -1.54311 1.3159 0
M  V30 9640 C 886.961 -1.93928 -0.102696 0
M  V30 9641 O 886.236 -1.63233 -1.05761 0
M  V30 9642 C 886.519 -2.81561 2.24489 0
M  V30 9643 C 886.372 -2.48268 3.75078 0
M  V30 9644 C 887.691 -3.83428 2.16034 0
M  V30 9645 H 884.81 -0.559828 0.479335 0
M  V30 9646 H 887.452 -0.898717 1.67401 0
M  V30 9647 H 885.602 -3.36549 1.9408 0
M  V30 9648 H 887.274 -1.99279 4.16036 0
M  V30 9649 H 885.517 -1.81116 3.94182 0
M  V30 9650 H 886.188 -3.39183 4.35499 0
M  V30 9651 H 888.664 -3.37905 2.42815 0
M  V30 9652 H 887.54 -4.70204 2.83194 0
M  V30 9653 H 887.801 -4.26887 1.14976 0
M  V30 9654 N 886.86 -1.21182 -1.00761 0
M  V30 9655 C 887.77 -0.984691 -2.12934 0
M  V30 9656 C 888.786 0.0623657 -1.73888 0
M  V30 9657 O 889.962 -0.1271 -2.00999 0
M  V30 9658 C 887.027 -0.549447 -3.42319 0
M  V30 9659 C 886.088 -1.66841 -3.95553 0
M  V30 9660 C 885.321 -1.25384 -5.18763 0
M  V30 9661 O 885.544 -0.126333 -5.7026 0
M  V30 9662 O 884.478 -2.06475 -5.65377 0
M  V30 9663 H 888.304 -1.92413 -2.3497 0
M  V30 9664 H 885.889 -0.99647 -1.11314 0
M  V30 9665 H 887.771 -0.316384 -4.20211 0
M  V30 9666 H 886.446 0.361304 -3.21677 0
M  V30 9667 H 885.353 -1.95585 -3.189 0
M  V30 9668 H 886.686 -2.55649 -4.206 0
M  V30 9669 N 888.338 1.20213 -1.01915 0
M  V30 9670 C 889.27 2.2251 -0.549725 0
M  V30 9671 C 890.283 1.58558 0.369235 0
M  V30 9672 O 891.472 1.77715 0.167176 0
M  V30 9673 C 888.572 3.38189 0.219432 0
M  V30 9674 C 887.745 4.31729 -0.702066 0
M  V30 9675 C 886.804 5.26196 0.0199624 0
M  V30 9676 O 885.83 5.65993 -0.60339 0
M  V30 9677 N 887.032 5.65895 1.29397 0
M  V30 9678 H 889.797 2.63412 -1.42948 0
M  V30 9679 H 887.358 1.3478 -0.896987 0
M  V30 9680 H 889.35 3.98392 0.711763 0
M  V30 9681 H 887.92 2.96156 1.00051 0
M  V30 9682 H 887.14 3.69455 -1.37466 0
M  V30 9683 H 888.428 4.91145 -1.3287 0
M  V30 9684 H 887.826 5.35579 1.8213 0
M  V30 9685 H 886.383 6.28395 1.73098 0
M  V30 9686 N 889.816 0.795718 1.36037 0
M  V30 9687 C 890.779 0.204318 2.28287 0
M  V30 9688 C 891.779 -0.602017 1.49105 0
M  V30 9689 O 892.969 -0.422089 1.69009 0
M  V30 9690 C 890.101 -0.716431 3.33287 0
M  V30 9691 H 891.294 1.01781 2.821 0
M  V30 9692 H 888.847 0.565588 1.45708 0
M  V30 9693 H 889.582 -1.55403 2.84641 0
M  V30 9694 H 889.367 -0.140096 3.9185 0
M  V30 9695 H 890.857 -1.12488 4.02164 0
M  V30 9696 N 891.294 -1.47756 0.548274 0
M  V30 9697 C 892.543 -2.01691 0.0187961 0
M  V30 9698 C 892.856 -1.42894 -1.33569 0
M  V30 9699 O 894.062 -1.88438 -1.95457 0
M  V30 9700 C 892.518 -3.59896 -0.016847 0
M  V30 9701 C 892.126 -4.27683 1.33385 0
M  V30 9702 C 893.87 -4.21614 -0.494188 0
M  V30 9703 C 891.777 -5.7787 1.2578 0
M  V30 9704 H 890.707 -0.753993 0.00325648 0
M  V30 9705 H 893.358 -1.69838 0.694792 0
M  V30 9706 H 891.74 -3.88672 -0.758304 0
M  V30 9707 H 892.914 -4.10559 2.09232 0
M  V30 9708 H 891.229 -3.77915 1.7484 0
M  V30 9709 H 893.826 -5.3166 -0.569342 0
M  V30 9710 H 894.169 -3.88176 -1.50417 0
M  V30 9711 H 894.702 -3.97336 0.192138 0
M  V30 9712 H 891.441 -6.15912 2.2435 0
M  V30 9713 H 890.961 -5.97355 0.540997 0
M  V30 9714 H 892.64 -6.39897 0.956109 0
M  V30 9715 N 892.772 -0.284283 -1.55015 0
M  V30 9716 C 894.021 0.33055 -1.98973 0
M  V30 9717 C 894.334 1.56284 -1.17621 0
M  V30 9718 O 895.54 2.2512 -1.51767 0
M  V30 9719 C 893.996 0.639457 -3.54174 0
M  V30 9720 C 893.604 -0.573543 -4.44313 0
M  V30 9721 C 895.348 1.21641 -4.06699 0
M  V30 9722 C 893.255 -0.238715 -5.90918 0
M  V30 9723 H 892.185 0.127285 -0.743179 0
M  V30 9724 H 894.836 -0.390372 -1.793 0
M  V30 9725 H 893.218 1.41953 -3.69683 0
M  V30 9726 H 894.392 -1.3502 -4.40575 0
M  V30 9727 H 892.707 -1.06797 -4.02472 0
M  V30 9728 H 895.304 1.48088 -5.13784 0
M  V30 9729 H 895.647 2.15328 -3.56286 0
M  V30 9730 H 896.18 0.498422 -3.94665 0
M  V30 9731 H 892.919 -1.1437 -6.45445 0
M  V30 9732 H 892.439 0.500997 -5.97704 0
M  V30 9733 H 894.118 0.165774 -6.46788 0
M  V30 9734 N 894.251 1.57596 -0.0117121 0
M  V30 9735 C 895.667 1.55837 0.344506 0
M  V30 9736 C 895.867 1.01557 1.74036 0
M  V30 9737 O 894.923 0.654563 2.43868 0
M  V30 9738 C 896.236 2.99973 0.209023 0
M  V30 9739 C 897.784 3.11717 0.283092 0
M  V30 9740 C 898.259 4.57659 0.176599 0
M  V30 9741 N 899.75 4.62608 0.234133 0
M  V30 9742 C 900.485 5.73132 0.175252 0
M  V30 9743 N 899.981 6.92768 0.0662888 0
M  V30 9744 N 901.774 5.61638 0.227972 0
M  V30 9745 H 893.925 1.91215 -0.924692 0
M  V30 9746 H 896.188 0.878807 -0.355531 0
M  V30 9747 H 895.894 3.4357 -0.751826 0
M  V30 9748 H 895.768 3.64075 0.98635 0
M  V30 9749 H 898.155 2.68043 1.23439 0
M  V30 9750 H 898.236 2.50369 -0.52431 0
M  V30 9751 H 897.88 5.02011 -0.771205 0
M  V30 9752 H 897.81 5.16967 1.00264 0
M  V30 9753 H 900.301 3.76549 0.319203 0
M  V30 9754 H 900.614 7.72795 0.0275765 0
M  V30 9755 H 898.959 6.94993 0.0317502 0
M  V30 9756 H 902.15 4.67063 0.311377 0
M  V30 9757 H 902.323 6.47754 0.178621 0
M  V30 9758 N 895.729 -0.261212 1.5542 0
M  V30 9759 C 896.975 -0.992699 1.76843 0
M  V30 9760 C 897.308 -1.8551 0.574428 0
M  V30 9761 O 896.583 -1.89739 -0.427713 0
M  V30 9762 C 896.866 -1.86532 3.08022 0
M  V30 9763 C 896.719 -1.03206 4.378 0
M  V30 9764 C 898.038 -2.85036 3.35324 0
M  V30 9765 H 895.157 -0.359473 0.643388 0
M  V30 9766 H 897.799 -0.264214 1.88154 0
M  V30 9767 H 895.949 -2.48644 2.9851 0
M  V30 9768 H 897.621 -0.430743 4.59285 0
M  V30 9769 H 895.864 -0.335911 4.32497 0
M  V30 9770 H 896.535 -1.6761 5.25938 0
M  V30 9771 H 899.011 -2.3306 3.44706 0
M  V30 9772 H 897.887 -3.43226 4.28354 0
M  V30 9773 H 898.148 -3.60768 2.55537 0
M  V30 9774 N 897.207 -1.48554 -0.526253 0
M  V30 9775 C 898.137 -1.66252 -1.63959 0
M  V30 9776 C 899.118 -0.511351 -1.62232 0
M  V30 9777 O 900.303 -0.744322 -1.7937 0
M  V30 9778 C 897.433 -1.70556 -3.02536 0
M  V30 9779 C 896.387 -2.8521 -3.19123 0
M  V30 9780 C 895.713 -2.74606 -4.58798 0
M  V30 9781 C 897.013 -4.26463 -3.0154 0
M  V30 9782 H 898.707 -2.59459 -1.49404 0
M  V30 9783 H 896.253 -1.24862 -0.717326 0
M  V30 9784 H 898.206 -1.81524 -3.80298 0
M  V30 9785 H 896.93 -0.739297 -3.18123 0
M  V30 9786 H 895.589 -2.73802 -2.43779 0
M  V30 9787 H 895.237 -1.75941 -4.71226 0
M  V30 9788 H 894.937 -3.51544 -4.70841 0
M  V30 9789 H 896.461 -2.87548 -5.38655 0
M  V30 9790 H 897.875 -4.38685 -3.69091 0
M  V30 9791 H 896.272 -5.04428 -3.25073 0
M  V30 9792 H 897.342 -4.42667 -1.97925 0
M  V30 9793 N 898.685 0.775411 -1.37205 0
M  V30 9794 C 899.913 1.56446 -1.35397 0
M  V30 9795 C 900.328 1.887 0.0615437 0
M  V30 9796 O 899.685 1.51178 1.02233 0
M  V30 9797 C 899.736 2.87697 -2.18889 0
M  V30 9798 O 899.457 2.56828 -3.54924 0
M  V30 9799 C 900.958 3.81944 -2.25019 0
M  V30 9800 H 898.178 0.484792 -0.463916 0
M  V30 9801 H 900.722 0.961346 -1.80495 0
M  V30 9802 H 898.877 3.44442 -1.7731 0
M  V30 9803 H 899.291 3.40851 -3.98649 0
M  V30 9804 H 900.765 4.71055 -2.87769 0
M  V30 9805 H 901.242 4.20811 -1.25757 0
M  V30 9806 H 901.848 3.3113 -2.66895 0
M  V30 9807 N 900.163 1.21714 1.00117 0
M  V30 9808 C 901.411 1.03465 1.73607 0
M  V30 9809 C 901.732 -0.432295 1.90148 0
M  V30 9810 O 901.002 -1.31157 1.45515 0
M  V30 9811 H 899.582 0.379857 0.643209 0
M  V30 9812 H 902.244 1.53088 1.20624 0
M  V30 9813 H 901.34 1.50574 2.73375 0
M  V30 9814 N 901.641 -1.19671 1.02551 0
M  V30 9815 C 902.869 -1.93233 0.739513 0
M  V30 9816 C 903.284 -1.75298 -0.701158 0
M  V30 9817 O 902.641 -1.07269 -1.47647 0
M  V30 9818 C 902.692 -3.45085 1.07697 0
M  V30 9819 O 902.413 -3.62441 2.46106 0
M  V30 9820 C 903.914 -4.35776 0.813298 0
M  V30 9821 H 901.134 -0.613905 0.270853 0
M  V30 9822 H 903.678 -1.51909 1.36909 0
M  V30 9823 H 901.833 -3.84255 0.492635 0
M  V30 9824 H 902.247 -4.56337 2.58567 0
M  V30 9825 H 903.721 -5.40941 1.09941 0
M  V30 9826 H 904.198 -4.38474 -0.252359 0
M  V30 9827 H 904.804 -4.02282 1.38021 0
M  V30 9828 N 903.119 -0.802921 -1.35613 0
M  V30 9829 C 904.029 -0.212177 -2.33639 0
M  V30 9830 C 905.045 0.642871 -1.61689 0
M  V30 9831 O 906.221 0.555485 -1.93588 0
M  V30 9832 C 903.286 0.632406 -3.40883 0
M  V30 9833 C 902.347 -0.242708 -4.28613 0
M  V30 9834 C 901.58 0.56166 -5.30736 0
M  V30 9835 O 901.803 1.79664 -5.41366 0
M  V30 9836 O 900.737 -0.0455387 -6.01883 0
M  V30 9837 H 904.563 -1.023 -2.85952 0
M  V30 9838 H 902.148 -0.564636 -1.38319 0
M  V30 9839 H 904.03 1.11358 -4.0642 0
M  V30 9840 H 902.705 1.42089 -2.90848 0
M  V30 9841 H 901.612 -0.77094 -3.6607 0
M  V30 9842 H 902.945 -0.995046 -4.82037 0
M  V30 9843 N 904.597 1.47463 -0.556102 0
M  V30 9844 C 905.544 2.29998 0.192213 0
M  V30 9845 C 906.514 1.38993 0.909403 0
M  V30 9846 O 907.699 1.67954 0.905316 0
M  V30 9847 C 904.839 3.22932 1.21692 0
M  V30 9848 C 903.952 4.29027 0.505908 0
M  V30 9849 C 903.087 5.09114 1.51581 0
M  V30 9850 C 902.126 6.06984 0.789714 0
M  V30 9851 N 901.263 6.80033 1.74639 0
M  V30 9852 H 906.103 2.93468 -0.517734 0
M  V30 9853 H 903.64 1.44654 -0.267147 0
M  V30 9854 H 905.598 3.75234 1.8236 0
M  V30 9855 H 904.228 2.61329 1.89491 0
M  V30 9856 H 903.28 3.7979 -0.215276 0
M  V30 9857 H 904.592 4.9876 -0.062958 0
M  V30 9858 H 903.746 5.6556 2.19606 0
M  V30 9859 H 902.485 4.3928 2.11859 0
M  V30 9860 H 901.49 5.49717 0.0955382 0
M  V30 9861 H 902.715 6.78827 0.192688 0
M  V30 9862 H 900.661 6.12931 2.33777 0
M  V30 9863 H 900.578 7.45933 1.22965 0
M  V30 9864 H 901.846 7.41054 2.41782 0
M  V30 9865 N 906.075 0.2925 1.54862 0
M  V30 9866 C 907.022 -0.587365 2.23201 0
M  V30 9867 C 907.992 -1.13623 1.21157 0
M  V30 9868 O 909.177 -1.18233 1.49752 0
M  V30 9869 C 906.317 -1.75745 2.96998 0
M  V30 9870 C 905.43 -1.24078 4.13798 0
M  V30 9871 C 904.565 -2.37405 4.75197 0
M  V30 9872 C 903.604 -1.82829 5.84157 0
M  V30 9873 N 902.741 -2.89696 6.39547 0
M  V30 9874 H 907.581 0.00202207 2.98 0
M  V30 9875 H 905.118 0.012766 1.47094 0
M  V30 9876 H 907.076 -2.44549 3.38011 0
M  V30 9877 H 905.706 -2.3186 2.24591 0
M  V30 9878 H 904.758 -0.445268 3.77785 0
M  V30 9879 H 906.07 -0.801186 4.92324 0
M  V30 9880 H 905.224 -3.14172 5.19019 0
M  V30 9881 H 903.963 -2.84688 3.95985 0
M  V30 9882 H 902.968 -1.04548 5.39768 0
M  V30 9883 H 904.193 -1.36461 6.65248 0
M  V30 9884 H 902.139 -3.36328 5.63222 0
M  V30 9885 H 902.056 -2.50206 7.13395 0
M  V30 9886 H 903.324 -3.66386 6.88027 0
M  V30 9887 N 907.553 -1.57587 0.0200696 0
M  V30 9888 C 908.781 -1.95718 -0.670964 0
M  V30 9889 C 909.196 -0.896081 -1.6618 0
M  V30 9890 O 908.553 0.123037 -1.82085 0
M  V30 9891 C 908.604 -3.33904 -1.38529 0
M  V30 9892 O 908.325 -4.35943 -0.434167 0
M  V30 9893 C 909.826 -3.86614 -2.16898 0
M  V30 9894 H 907.046 -0.644819 -0.185606 0
M  V30 9895 H 909.59 -2.04354 0.0771495 0
M  V30 9896 H 907.745 -3.26515 -2.08487 0
M  V30 9897 H 908.159 -5.16001 -0.940378 0
M  V30 9898 H 909.633 -4.85673 -2.62346 0
M  V30 9899 H 910.11 -3.20379 -3.00423 0
M  V30 9900 H 910.716 -3.97243 -1.51916 0
M  V30 9901 N 909.032 0.252966 -1.55557 0
M  V30 9902 C 910.28 0.979912 -1.76754 0
M  V30 9903 C 910.601 1.86083 -0.582944 0
M  V30 9904 O 909.871 1.91742 0.401497 0
M  V30 9905 H 908.451 0.364805 -0.651864 0
M  V30 9906 H 911.113 0.272372 -1.92987 0
M  V30 9907 H 910.209 1.60518 -2.67657 0
M  V30 9908 N 910.51 1.48831 0.518367 0
M  V30 9909 C 911.756 1.57672 1.27543 0
M  V30 9910 C 912.089 0.254915 1.9252 0
M  V30 9911 O 911.364 -0.740107 1.79868 0
M  V30 9912 C 911.647 2.72345 2.35585 0
M  V30 9913 C 911.5 4.14267 1.75224 0
M  V30 9914 C 912.819 2.82726 3.37274 0
M  V30 9915 H 909.938 0.573926 0.462361 0
M  V30 9916 H 912.58 1.8105 0.576267 0
M  V30 9917 H 910.73 2.52543 2.95219 0
M  V30 9918 H 912.402 4.45539 1.19551 0
M  V30 9919 H 910.645 4.20724 1.05706 0
M  V30 9920 H 911.316 4.90345 2.53507 0
M  V30 9921 H 913.792 3.00699 2.8761 0
M  V30 9922 H 912.668 3.6467 4.10252 0
M  V30 9923 H 912.929 1.9136 3.9854 0
M  V30 9924 N 911.988 -0.768124 1.37614 0
M  V30 9925 C 913.218 -1.555 1.36027 0
M  V30 9926 C 913.626 -1.89119 -0.0554273 0
M  V30 9927 O 912.969 -1.52203 -1.02859 0
M  V30 9928 C 913.031 -2.8906 2.13739 0
M  V30 9929 C 912.695 -2.78058 3.62674 0
M  V30 9930 C 913.692 -2.48841 4.5648 0
M  V30 9931 C 911.377 -2.95966 4.05844 0
M  V30 9932 C 913.371 -2.37665 5.91434 0
M  V30 9933 C 911.058 -2.84411 5.40882 0
M  V30 9934 C 912.056 -2.55301 6.33491 0
M  V30 9935 O 911.744 -2.43779 7.66046 0
M  V30 9936 H 911.476 -0.488263 0.467521 0
M  V30 9937 H 914.03 -0.959583 1.81607 0
M  V30 9938 H 912.26 -3.50735 1.62854 0
M  V30 9939 H 913.949 -3.5048 2.04741 0
M  V30 9940 H 914.715 -2.34687 4.24437 0
M  V30 9941 H 910.594 -3.17625 3.34119 0
M  V30 9942 H 914.138 -2.14865 6.63686 0
M  V30 9943 H 910.035 -2.98134 5.72527 0
M  V30 9944 H 910.803 -2.59101 7.76408 0
M  V30 9945 N 913.466 -1.22244 -0.994698 0
M  V30 9946 C 914.399 -0.934168 -2.08203 0
M  V30 9947 C 915.377 0.122231 -1.6214 0
M  V30 9948 O 916.561 -0.00896598 -1.88498 0
M  V30 9949 C 913.688 -0.404646 -3.36274 0
M  V30 9950 C 912.734 -1.44544 -4.01259 0
M  V30 9951 S 913.567 -3.01816 -4.42343 0
M  V30 9952 C 914.723 -2.50497 -5.73587 0
M  V30 9953 H 914.956 -1.85493 -2.32335 0
M  V30 9954 H 912.489 -1.0533 -1.12893 0
M  V30 9955 H 914.447 -0.105719 -4.10364 0
M  V30 9956 H 913.108 0.494971 -3.10176 0
M  V30 9957 H 912.301 -1.02478 -4.93472 0
M  V30 9958 H 911.903 -1.69298 -3.33488 0
M  V30 9959 H 914.195 -1.91626 -6.49835 0
M  V30 9960 H 915.138 -3.41193 -6.20478 0
M  V30 9961 H 915.546 -1.91845 -5.30901 0
M  V30 9962 N 914.944 1.19125 -1.03184 0
M  V30 9963 C 915.876 2.21914 -0.573294 0
M  V30 9964 C 916.889 1.5894 0.352397 0
M  V30 9965 O 918.078 1.77883 0.148318 0
M  V30 9966 C 915.178 3.38403 0.18355 0
M  V30 9967 C 914.351 4.3096 -0.747817 0
M  V30 9968 C 913.41 5.26188 -0.0358489 0
M  V30 9969 O 912.436 5.65321 -0.663388 0
M  V30 9970 N 913.638 5.67235 1.23387 0
M  V30 9971 H 916.403 2.61881 -1.45734 0
M  V30 9972 H 913.964 1.33821 -0.911231 0
M  V30 9973 H 915.956 3.99124 0.669468 0
M  V30 9974 H 914.526 2.97201 0.969043 0
M  V30 9975 H 913.746 3.67976 -1.41377 0
M  V30 9976 H 915.034 4.89708 -1.38071 0
M  V30 9977 H 914.432 5.37481 1.76439 0
M  V30 9978 H 912.989 6.30196 1.66423 0
M  V30 9979 N 916.422 0.810101 1.35185 0
M  V30 9980 C 917.354 0.180581 2.28488 0
M  V30 9981 C 918.367 -0.622154 1.50443 0
M  V30 9982 O 919.556 -0.453938 1.72632 0
M  V30 9983 C 916.656 -0.766447 3.30119 0
M  V30 9984 C 915.829 -0.00932028 4.37399 0
M  V30 9985 C 914.888 -0.875354 5.18868 0
M  V30 9986 O 913.914 -0.325012 5.68271 0
M  V30 9987 N 915.116 -2.19695 5.37321 0
M  V30 9988 H 917.881 0.98212 2.83151 0
M  V30 9989 H 915.442 0.665879 1.47573 0
M  V30 9990 H 917.434 -1.35012 3.81515 0
M  V30 9991 H 916.004 -1.46878 2.75945 0
M  V30 9992 H 915.224 0.755585 3.86891 0
M  V30 9993 H 916.512 0.512352 5.06214 0
M  V30 9994 H 915.91 -2.66797 4.98834 0
M  V30 9995 H 914.467 -2.72978 5.91884 0
M  V30 9996 N 917.9 -1.47166 0.563914 0
M  V30 9997 C 918.833 -2.27058 -0.227989 0
M  V30 9998 C 919.811 -1.34468 -0.914179 0
M  V30 9999 O 920.995 -1.63857 -0.931829 0
M  V30 10000 C 918.122 -3.11689 -1.32543 0
M  V30 10001 C 917.168 -4.19906 -0.747084 0
M  V30 10002 S 918.001 -5.33916 0.41153 0
M  V30 10003 C 919.157 -6.22112 -0.687566 0
M  V30 10004 H 919.39 -2.93876 0.449939 0
M  V30 10005 H 916.923 -1.50372 0.350382 0
M  V30 10006 H 918.881 -3.61017 -1.95389 0
M  V30 10007 H 917.542 -2.44221 -1.97522 0
M  V30 10008 H 916.735 -4.78876 -1.57141 0
M  V30 10009 H 916.337 -3.73493 -0.194671 0
M  V30 10010 H 918.629 -6.58867 -1.578 0
M  V30 10011 H 919.572 -7.07971 -0.135058 0
M  V30 10012 H 919.98 -5.55871 -0.983255 0
M  V30 10013 N 919.378 -0.300708 -1.54705 0
M  V30 10014 C 920.789 0.191995 -1.8571 0
M  V30 10015 C 921.14 1.53447 -1.22264 0
M  V30 10016 O 920.265 2.10054 -0.520226 0
M  V30 10017 C 920.86 0.355148 -3.36933 0
M  V30 10018 C 919.419 0.792071 -3.67972 0
M  V30 10019 C 918.566 -0.099756 -2.77121 0
M  V30 10020 H 921.517 -0.521729 -1.49879 0
M  V30 10021 H 921.538 1.18977 -3.61421 0
M  V30 10022 H 921.05 -0.622075 -3.83082 0
M  V30 10023 H 919.151 1.77986 -3.27341 0
M  V30 10024 H 919.264 0.611661 -4.75179 0
M  V30 10025 H 917.628 0.420909 -2.51198 0
M  V30 10026 H 918.411 -1.07333 -3.2609 0
M  V30 10027 N 920.856 1.57574 -0.0284266 0
M  V30 10028 C 922.086 1.95787 0.659617 0
M  V30 10029 C 922.494 0.903475 1.66235 0
M  V30 10030 O 921.837 -0.12329 1.83286 0
M  V30 10031 C 921.899 3.30139 1.42298 0
M  V30 10032 C 921.563 4.53322 0.578658 0
M  V30 10033 C 922.56 5.19696 -0.145751 0
M  V30 10034 C 920.245 4.9964 0.516264 0
M  V30 10035 C 922.239 6.30708 -0.921235 0
M  V30 10036 C 919.926 6.10534 -0.262925 0
M  V30 10037 C 920.924 6.75927 -0.980382 0
M  V30 10038 O 920.612 7.84692 -1.7468 0
M  V30 10039 H 920.344 0.649681 0.186792 0
M  V30 10040 H 922.898 2.05227 -0.0842687 0
M  V30 10041 H 921.128 3.17188 2.21199 0
M  V30 10042 H 922.817 3.53259 1.99906 0
M  V30 10043 H 923.583 4.84882 -0.106876 0
M  V30 10044 H 919.462 4.48547 1.06427 0
M  V30 10045 H 923.006 6.81682 -1.48176 0
M  V30 10046 H 918.903 6.44786 -0.303519 0
M  V30 10047 H 919.671 8.01355 -1.6665 0
M  V30 10048 N 922.334 -0.244713 1.55689 0
M  V30 10049 C 923.745 -0.813603 1.6804 0
M  V30 10050 C 924.096 -1.85936 0.626281 0
M  V30 10051 O 923.221 -2.15206 -0.227038 0
M  V30 10052 C 923.816 -1.48252 3.04642 0
M  V30 10053 C 922.375 -1.99908 3.18926 0
M  V30 10054 C 921.522 -0.850958 2.6392 0
M  V30 10055 H 924.473 -0.0204805 1.58687 0
M  V30 10056 H 924.494 -2.35062 2.99209 0
M  V30 10057 H 924.006 -0.721164 3.81341 0
M  V30 10058 H 922.107 -2.78918 2.47054 0
M  V30 10059 H 922.22 -2.19497 4.25862 0
M  V30 10060 H 920.584 -1.25206 2.21801 0
M  V30 10061 H 921.367 -0.10265 3.43146 0
M  V30 10062 N 923.813 -1.49104 -0.510467 0
M  V30 10063 C 925.053 -1.59723 -1.27545 0
M  V30 10064 C 925.417 -0.273525 -1.90042 0
M  V30 10065 O 926.618 -0.254835 -2.67589 0
M  V30 10066 C 924.889 -2.71771 -2.3211 0
M  V30 10067 S 926.448 -3.02282 -3.18074 0
M  V30 10068 H 923.266 -0.563489 -0.433591 0
M  V30 10069 H 925.868 -1.86719 -0.579328 0
M  V30 10070 H 924.572 -3.66483 -1.84711 0
M  V30 10071 H 924.103 -2.46739 -3.06404 0
M  V30 10072 H 926.118 -2.43076 -4.32583 0
M  V30 10073 N 925.291 0.760815 -1.38019 0
M  V30 10074 C 926.521 1.54776 -1.3685 0
M  V30 10075 C 926.929 1.89146 0.0453971 0
M  V30 10076 O 926.272 1.52746 1.0205 0
M  V30 10077 C 926.334 2.87923 -2.15269 0
M  V30 10078 C 925.998 2.76131 -3.64144 0
M  V30 10079 C 926.995 2.46417 -4.57794 0
M  V30 10080 C 924.68 2.9381 -4.07408 0
M  V30 10081 C 926.674 2.34525 -5.92686 0
M  V30 10082 C 924.361 2.81539 -5.42383 0
M  V30 10083 C 925.359 2.51938 -6.34836 0
M  V30 10084 O 925.047 2.39713 -7.67329 0
M  V30 10085 H 924.779 0.485776 -0.470104 0
M  V30 10086 H 927.333 0.949939 -1.82113 0
M  V30 10087 H 925.563 3.49867 -1.64712 0
M  V30 10088 H 927.252 3.49389 -2.06596 0
M  V30 10089 H 928.018 2.32433 -4.25676 0
M  V30 10090 H 923.897 3.15849 -3.35799 0
M  V30 10091 H 927.441 2.11342 -6.64816 0
M  V30 10092 H 923.338 2.95093 -5.741 0
M  V30 10093 H 924.106 2.5498 -7.77771 0
M  V30 10094 N 926.769 1.22769 0.988202 0
M  V30 10095 C 928.015 1.05665 1.73097 0
M  V30 10096 C 928.348 -0.406615 1.89895 0
M  V30 10097 O 927.623 -1.30132 1.44554 0
M  V30 10098 C 927.906 1.77381 3.13382 0
M  V30 10099 C 927.759 3.31332 3.04203 0
M  V30 10100 C 929.078 1.52999 4.12649 0
M  V30 10101 H 926.197 0.385258 0.628288 0
M  V30 10102 H 928.839 1.51171 1.15097 0
M  V30 10103 H 926.989 1.38696 3.62899 0
M  V30 10104 H 928.661 3.79489 2.6227 0
M  V30 10105 H 926.904 3.60767 2.40894 0
M  V30 10106 H 927.575 3.76692 4.03493 0
M  V30 10107 H 930.051 1.86611 3.71908 0
M  V30 10108 H 928.927 2.05666 5.08913 0
M  V30 10109 H 929.188 0.463615 4.39662 0
M  V30 10110 N 928.247 -1.18576 1.03814 0
M  V30 10111 C 929.524 -1.8433 0.654358 0
M  V30 10112 C 929.904 -1.92504 -0.866338 0
M  V30 10113 O 929.252 -1.44904 -1.76678 0
M  V30 10114 C 929.462 -3.22778 1.32723 0
M  V30 10115 C 930.81 -3.98841 1.45641 0
M  V30 10116 O 931.834 -3.32209 1.28514 0
M  V30 10117 O 930.693 -5.18219 1.73526 0
M  V30 10118 H 927.787 -0.794766 0.228638 0
M  V30 10119 H 930.333 -1.25989 1.13687 0
M  V30 10120 H 929.105 -3.11717 2.36534 0
M  V30 10121 H 928.728 -3.88772 0.833176 0
M  V30 10122 N 929.725 -0.817259 -1.34754 0
M  V30 10123 C 931.002 -0.325468 -1.92873 0
M  V30 10124 C 931.382 1.18643 -1.74606 0
M  V30 10125 O 930.73 1.9909 -1.1214 0
M  V30 10126 C 930.94 -0.74858 -3.40877 0
M  V30 10127 C 932.288 -0.744165 -4.18028 0
M  V30 10128 O 933.312 -0.690799 -3.49437 0
M  V30 10129 O 932.171 -0.812207 -5.40431 0
M  V30 10130 H 929.265 -0.0876397 -0.822343 0
M  V30 10131 H 931.811 -0.901671 -1.43764 0
M  V30 10132 H 930.583 -1.79017 -3.47949 0
M  V30 10133 H 930.206 -0.147764 -3.97325 0
M  V30 10134 N 931.203 1.46865 -0.571711 0
M  V30 10135 C 932.452 2.01636 -0.050881 0
M  V30 10136 C 932.765 1.45001 1.31279 0
M  V30 10137 O 933.971 1.91523 1.92435 0
M  V30 10138 C 932.427 3.59877 -0.0404114 0
M  V30 10139 C 932.035 4.25506 -1.40172 0
M  V30 10140 C 933.779 4.22346 0.42705 0
M  V30 10141 C 931.686 5.75795 -1.34958 0
M  V30 10142 H 930.616 0.753846 -0.0152514 0
M  V30 10143 H 933.267 1.68711 -0.721723 0
M  V30 10144 H 931.649 3.89829 0.696374 0
M  V30 10145 H 932.823 4.07178 -2.15737 0
M  V30 10146 H 931.138 3.75086 -1.8083 0
M  V30 10147 H 933.735 5.32499 0.484688 0
M  V30 10148 H 934.078 3.9052 1.44222 0
M  V30 10149 H 934.611 3.9698 -0.255326 0
M  V30 10150 H 931.35 6.12265 -2.3412 0
M  V30 10151 H 930.87 5.96419 -0.635962 0
M  V30 10152 H 932.549 6.38294 -1.05779 0
M  V30 10153 N 932.681 0.308908 1.54543 0
M  V30 10154 C 933.928 -0.298036 2.00295 0
M  V30 10155 C 934.256 -1.53285 1.19724 0
M  V30 10156 O 933.511 -1.93917 0.263551 0
M  V30 10157 C 933.81 -0.691522 3.50646 0
M  V30 10158 C 933.476 0.442454 4.48724 0
M  V30 10159 C 932.138 0.753739 4.7526 0
M  V30 10160 C 934.49 1.20488 5.07082 0
M  V30 10161 C 931.818 1.83044 5.57415 0
M  V30 10162 C 934.17 2.27156 5.90409 0
M  V30 10163 C 932.834 2.58882 6.15253 0
M  V30 10164 H 932.104 -0.109059 0.73293 0
M  V30 10165 H 934.751 0.429647 1.86618 0
M  V30 10166 H 933.056 -1.49941 3.61974 0
M  V30 10167 H 934.753 -1.17244 3.83477 0
M  V30 10168 H 931.343 0.189744 4.2818 0
M  V30 10169 H 935.527 0.977653 4.86575 0
M  V30 10170 H 930.783 2.08088 5.749 0
M  V30 10171 H 934.957 2.86687 6.34652 0
M  V30 10172 H 932.584 3.42443 6.78702 0
M  V30 10173 N 934.159 -1.57557 0.0367827 0
M  V30 10174 C 935.089 -2.13712 -0.940719 0
M  V30 10175 C 936.07 -1.05515 -1.33419 0
M  V30 10176 O 937.255 -1.33385 -1.41146 0
M  V30 10177 C 934.385 -2.67043 -2.22048 0
M  V30 10178 C 933.339 -3.80096 -1.96752 0
M  V30 10179 C 932.665 -4.19886 -3.31059 0
M  V30 10180 C 933.965 -5.05848 -1.30058 0
M  V30 10181 H 935.659 -2.9564 -0.473033 0
M  V30 10182 H 933.205 -1.42214 -0.226089 0
M  V30 10183 H 935.158 -3.04964 -2.90818 0
M  V30 10184 H 933.882 -1.82287 -2.70996 0
M  V30 10185 H 932.541 -3.42625 -1.30398 0
M  V30 10186 H 932.189 -3.32101 -3.77781 0
M  V30 10187 H 931.889 -4.96073 -3.14937 0
M  V30 10188 H 933.413 -4.60395 -4.01084 0
M  V30 10189 H 934.827 -5.41306 -1.8884 0
M  V30 10190 H 933.224 -5.87084 -1.24309 0
M  V30 10191 H 934.294 -4.84122 -0.274591 0
M  V30 10192 N 935.637 0.236453 -1.55816 0
M  V30 10193 C 937.053 0.585465 -1.48474 0
M  V30 10194 C 937.253 1.8785 -0.72902 0
M  V30 10195 O 936.309 2.51131 -0.262614 0
M  V30 10196 C 937.622 0.678506 -2.92945 0
M  V30 10197 C 939.17 0.770135 -3.03378 0
M  V30 10198 C 939.645 0.894649 -4.49177 0
M  V30 10199 N 941.136 0.959253 -4.53158 0
M  V30 10200 C 941.871 1.07505 -5.63232 0
M  V30 10201 N 941.367 1.15572 -6.83092 0
M  V30 10202 N 943.16 1.10902 -5.51051 0
M  V30 10203 H 935.311 -0.612241 -2.03385 0
M  V30 10204 H 937.574 -0.212796 -0.923808 0
M  V30 10205 H 937.28 -0.201757 -3.51121 0
M  V30 10206 H 937.154 1.54703 -3.44016 0
M  V30 10207 H 939.541 1.64085 -2.45276 0
M  V30 10208 H 939.622 -0.123753 -2.555 0
M  V30 10209 H 939.266 0.0284537 -5.07892 0
M  V30 10210 H 939.196 1.80373 -4.94745 0
M  V30 10211 H 941.687 0.907827 -3.66834 0
M  V30 10212 H 942 1.24343 -7.62731 0
M  V30 10213 H 940.345 1.12511 -6.85833 0
M  V30 10214 H 943.536 1.04255 -4.56343 0
M  V30 10215 H 943.709 1.19581 -6.36871 0
M  V30 10216 N 937.115 1.49373 0.502552 0
M  V30 10217 C 938.361 1.59016 1.25864 0
M  V30 10218 C 938.694 0.27532 1.92238 0
M  V30 10219 O 937.969 -0.720988 1.80643 0
M  V30 10220 C 938.252 2.74828 2.32683 0
M  V30 10221 C 938.105 4.16102 1.7082 0
M  V30 10222 C 939.424 2.86288 3.34256 0
M  V30 10223 H 936.543 0.578798 0.456248 0
M  V30 10224 H 939.185 1.81651 0.557032 0
M  V30 10225 H 937.335 2.5566 2.92524 0
M  V30 10226 H 939.007 4.46782 1.14818 0
M  V30 10227 H 937.25 4.21822 1.01238 0
M  V30 10228 H 937.921 4.93006 2.48292 0
M  V30 10229 H 940.397 3.03733 2.84404 0
M  V30 10230 H 939.273 3.69001 4.06362 0
M  V30 10231 H 939.534 1.95576 3.96488 0
M  V30 10232 N 938.594 -0.753485 1.38421 0
M  V30 10233 C 939.527 -1.87525 1.30037 0
M  V30 10234 C 940.505 -1.6163 0.177379 0
M  V30 10235 O 941.689 -1.85132 0.354716 0
M  V30 10236 C 938.816 -3.23138 1.01485 0
M  V30 10237 C 937.862 -3.67921 2.15723 0
M  V30 10238 S 938.695 -3.79447 3.77863 0
M  V30 10239 C 939.851 -5.17879 3.51499 0
M  V30 10240 H 940.084 -1.94351 2.24978 0
M  V30 10241 H 937.617 -0.916475 1.24258 0
M  V30 10242 H 939.575 -4.01455 0.856959 0
M  V30 10243 H 938.236 -3.13991 0.0826199 0
M  V30 10244 H 937.429 -4.66287 1.91292 0
M  V30 10245 H 937.031 -2.96758 2.2762 0
M  V30 10246 H 939.323 -6.03636 3.0762 0
M  V30 10247 H 940.266 -5.47331 4.49259 0
M  V30 10248 H 940.674 -4.86681 2.8601 0
M  V30 10249 N 940.072 -1.23292 -0.981677 0
M  V30 10250 C 941.297 -1.09176 -1.76339 0
M  V30 10251 C 941.722 0.352726 -1.84763 0
M  V30 10252 O 941.08 1.25509 -1.30832 0
M  V30 10253 C 941.128 -1.72046 -3.16911 0
M  V30 10254 O 940.232 -0.98174 -4.00544 0
M  V30 10255 H 939.573 -0.382755 -0.542581 0
M  V30 10256 H 942.103 -1.63319 -1.23239 0
M  V30 10257 H 942.113 -1.77232 -3.67495 0
M  V30 10258 H 940.788 -2.77154 -3.10095 0
M  V30 10259 H 939.365 -1.00672 -3.59054 0
M  V30 10260 N 941.55 1.18024 -1.04442 0
M  V30 10261 C 942.966 1.40107 -0.76435 0
M  V30 10262 C 943.166 1.90914 0.644516 0
M  V30 10263 O 942.222 2.0959 1.40813 0
M  V30 10264 C 943.535 2.39851 -1.81361 0
M  V30 10265 C 945.083 2.53571 -1.83496 0
M  V30 10266 C 945.558 3.56583 -2.87424 0
M  V30 10267 N 947.049 3.64094 -2.86339 0
M  V30 10268 C 947.784 4.43537 -3.63405 0
M  V30 10269 N 947.28 5.26557 -4.50233 0
M  V30 10270 N 949.073 4.38336 -3.51877 0
M  V30 10271 H 941.224 0.833726 -1.95353 0
M  V30 10272 H 943.487 0.42881 -0.845474 0
M  V30 10273 H 943.193 2.09576 -2.82438 0
M  V30 10274 H 943.067 3.39251 -1.6489 0
M  V30 10275 H 945.454 2.83161 -0.830883 0
M  V30 10276 H 945.535 1.54272 -2.04044 0
M  V30 10277 H 945.179 3.27733 -3.88012 0
M  V30 10278 H 945.109 4.55569 -2.6413 0
M  V30 10279 H 947.6 3.04814 -2.23376 0
M  V30 10280 H 947.913 5.84336 -5.05738 0
M  V30 10281 H 946.258 5.25964 -4.54298 0
M  V30 10282 H 949.449 3.72528 -2.83444 0
M  V30 10283 H 949.622 5.00007 -4.12186 0
M  V30 10284 N 943.028 0.824394 1.34319 0
M  V30 10285 C 944.253 0.425194 2.02995 0
M  V30 10286 C 944.678 -0.961476 1.6167 0
M  V30 10287 O 944.036 -1.62593 0.80207 0
M  V30 10288 C 944.084 0.537004 3.56579 0
M  V30 10289 O 943.188 -0.442576 4.10018 0
M  V30 10290 H 942.529 0.174853 0.640564 0
M  V30 10291 H 945.059 1.11522 1.71534 0
M  V30 10292 H 945.069 0.413311 4.05901 0
M  V30 10293 H 943.744 1.54836 3.86004 0
M  V30 10294 H 942.321 -0.277644 3.71865 0
M  V30 10295 N 944.506 -1.46559 0.579492 0
M  V30 10296 C 945.439 -2.27287 -0.203894 0
M  V30 10297 C 946.417 -1.3543 -0.899865 0
M  V30 10298 O 947.601 -1.64836 -0.914398 0
M  V30 10299 C 944.728 -3.13077 -1.2923 0
M  V30 10300 C 943.774 -4.20675 -0.702505 0
M  V30 10301 S 944.607 -5.3345 0.468136 0
M  V30 10302 C 945.763 -6.22806 -0.621544 0
M  V30 10303 H 945.996 -2.93382 0.481083 0
M  V30 10304 H 943.529 -1.49992 0.366311 0
M  V30 10305 H 945.487 -3.63069 -1.91548 0
M  V30 10306 H 944.148 -2.46302 -1.94921 0
M  V30 10307 H 943.341 -4.80516 -1.52053 0
M  V30 10308 H 942.943 -3.73678 -0.155046 0
M  V30 10309 H 945.235 -6.60503 -1.50803 0
M  V30 10310 H 946.178 -7.08075 -0.059961 0
M  V30 10311 H 946.586 -5.56882 -0.924242 0
M  V30 10312 N 945.984 -0.3171 -1.54377 0
M  V30 10313 C 947.395 0.172287 -1.85903 0
M  V30 10314 C 947.746 1.52141 -1.23885 0
M  V30 10315 O 946.871 2.0949 -0.542476 0
M  V30 10316 C 947.466 0.319392 -3.37291 0
M  V30 10317 C 946.025 0.752998 -3.68791 0
M  V30 10318 C 945.172 -0.129143 -2.76999 0
M  V30 10319 H 948.123 -0.537597 -1.49317 0
M  V30 10320 H 948.144 1.15137 -3.62662 0
M  V30 10321 H 947.656 -0.662671 -3.82401 0
M  V30 10322 H 945.757 1.74504 -3.2921 0
M  V30 10323 H 945.87 0.561228 -4.75801 0
M  V30 10324 H 944.234 0.394242 -2.5163 0
M  V30 10325 H 945.017 -1.10785 -3.24933 0
M  V30 10326 N 947.462 1.57535 -0.0451378 0
M  V30 10327 C 948.392 2.14208 0.929372 0
M  V30 10328 C 949.373 1.06221 1.32858 0
M  V30 10329 O 950.558 1.34132 1.40436 0
M  V30 10330 C 947.688 2.68217 2.20629 0
M  V30 10331 C 946.642 3.81134 1.94734 0
M  V30 10332 C 945.968 4.21636 3.28828 0
M  V30 10333 C 947.268 5.06531 1.27374 0
M  V30 10334 H 948.962 2.95886 0.457348 0
M  V30 10335 H 946.508 1.42332 0.218544 0
M  V30 10336 H 948.461 3.06502 2.89196 0
M  V30 10337 H 947.185 1.83722 2.70026 0
M  V30 10338 H 945.844 3.43312 1.28579 0
M  V30 10339 H 945.492 3.34099 3.76014 0
M  V30 10340 H 945.192 4.97736 3.12302 0
M  V30 10341 H 946.716 4.62516 3.98637 0
M  V30 10342 H 948.13 5.423 1.85967 0
M  V30 10343 H 946.527 5.87735 1.21194 0
M  V30 10344 H 947.597 4.84261 0.248913 0
M  V30 10345 N 948.94 -0.228186 1.55939 0
M  V30 10346 C 950.187 -0.953552 1.78644 0
M  V30 10347 C 950.515 -1.84596 0.61275 0
M  V30 10348 O 949.77 -1.91502 -0.403175 0
M  V30 10349 C 950.069 -1.82924 3.0704 0
M  V30 10350 C 949.735 -1.09062 4.37511 0
M  V30 10351 C 948.397 -0.886565 4.72962 0
M  V30 10352 C 950.749 -0.568533 5.1809 0
M  V30 10353 C 948.077 -0.148413 5.86512 0
M  V30 10354 C 950.429 0.156243 6.32407 0
M  V30 10355 C 949.093 0.371612 6.66465 0
M  V30 10356 H 948.363 -0.348929 0.653704 0
M  V30 10357 H 951.01 -0.222211 1.90206 0
M  V30 10358 H 949.315 -2.62823 2.90571 0
M  V30 10359 H 951.012 -2.3925 3.21808 0
M  V30 10360 H 947.602 -1.25963 4.09672 0
M  V30 10361 H 951.786 -0.713673 4.91142 0
M  V30 10362 H 947.042 0.0287418 6.11393 0
M  V30 10363 H 951.216 0.568333 6.94077 0
M  V30 10364 H 948.843 0.945522 7.54297 0
M  V30 10365 N 950.418 -1.49637 -0.494624 0
M  V30 10366 C 951.351 -1.61387 -1.61337 0
M  V30 10367 C 952.329 -0.462704 -1.55878 0
M  V30 10368 O 953.513 -0.679103 -1.75842 0
M  V30 10369 C 950.64 -1.57471 -2.99867 0
M  V30 10370 C 949.686 -2.77863 -3.23565 0
M  V30 10371 S 950.519 -4.3946 -3.05999 0
M  V30 10372 C 951.675 -4.382 -4.46914 0
M  V30 10373 H 951.908 -2.56024 -1.51126 0
M  V30 10374 H 949.441 -1.38607 -0.680253 0
M  V30 10375 H 951.399 -1.55898 -3.79745 0
M  V30 10376 H 950.06 -0.641107 -3.07488 0
M  V30 10377 H 949.253 -2.71361 -4.24711 0
M  V30 10378 H 948.855 -2.76882 -2.51421 0
M  V30 10379 H 951.147 -4.10312 -5.3912 0
M  V30 10380 H 952.09 -5.39645 -4.58464 0
M  V30 10381 H 952.498 -3.68197 -4.27891 0
M  V30 10382 N 951.896 0.746133 -1.38819 0
M  V30 10383 C 953.124 1.53539 -1.38685 0
M  V30 10384 C 953.539 1.88788 0.0215039 0
M  V30 10385 O 952.896 1.53312 0.990031 0
M  V30 10386 C 952.947 2.8299 -2.24942 0
M  V30 10387 O 952.668 2.49242 -3.60292 0
M  V30 10388 C 954.169 3.77085 -2.3307 0
M  V30 10389 H 951.389 0.474842 -0.474095 0
M  V30 10390 H 953.933 0.922844 -1.82493 0
M  V30 10391 H 952.088 3.40603 -1.84576 0
M  V30 10392 H 952.502 3.32319 -4.05789 0
M  V30 10393 H 953.976 4.64845 -2.97696 0
M  V30 10394 H 954.453 4.18049 -1.34655 0
M  V30 10395 H 955.059 3.25394 -2.73859 0
M  V30 10396 N 953.375 1.23811 0.975125 0
M  V30 10397 C 954.305 1.04846 2.08638 0
M  V30 10398 C 955.286 -0.0362859 1.70061 0
M  V30 10399 O 956.471 0.12937 1.93769 0
M  V30 10400 C 953.601 0.644534 3.41267 0
M  V30 10401 C 952.555 1.67722 3.93768 0
M  V30 10402 C 951.881 1.12857 5.22654 0
M  V30 10403 C 953.181 3.07147 4.22443 0
M  V30 10404 H 954.875 1.97795 2.24761 0
M  V30 10405 H 952.421 0.952397 1.08006 0
M  V30 10406 H 954.374 0.498887 4.18436 0
M  V30 10407 H 953.098 -0.320641 3.25022 0
M  V30 10408 H 951.757 1.81095 3.18748 0
M  V30 10409 H 951.405 0.154227 5.02764 0
M  V30 10410 H 951.105 1.81862 5.58749 0
M  V30 10411 H 952.629 0.994891 6.0244 0
M  V30 10412 H 954.043 2.97045 4.90344 0
M  V30 10413 H 952.44 3.73437 4.6975 0
M  V30 10414 H 953.51 3.55743 3.29507 0
M  V30 10415 N 954.853 -1.17469 1.05066 0
M  V30 10416 C 955.816 -2.19648 0.654793 0
M  V30 10417 C 956.816 -1.58107 -0.293063 0
M  V30 10418 O 958.006 -1.74029 -0.077106 0
M  V30 10419 C 955.138 -3.40878 -0.0384437 0
M  V30 10420 H 956.331 -2.56184 1.55915 0
M  V30 10421 H 953.884 -1.31528 0.844396 0
M  V30 10422 H 954.619 -3.09885 -0.956133 0
M  V30 10423 H 954.404 -3.86792 0.642961 0
M  V30 10424 H 955.894 -4.1651 -0.301568 0
M  V30 10425 N 956.331 -0.831506 -1.3388 0
M  V30 10426 C 957.577 -0.433509 -1.98727 0
M  V30 10427 C 957.932 0.994508 -1.64704 0
M  V30 10428 O 957.225 1.68458 -0.912815 0
M  V30 10429 C 957.419 -0.582733 -3.52617 0
M  V30 10430 C 957.248 -2.0237 -4.01592 0
M  V30 10431 C 956.018 -2.6574 -4.29779 0
M  V30 10432 C 958.216 -2.99152 -4.18345 0
M  V30 10433 N 956.198 -4.00988 -4.64846 0
M  V30 10434 C 957.569 -4.19329 -4.56687 0
M  V30 10435 C 959.624 -2.95655 -4.00615 0
M  V30 10436 C 958.327 -5.36475 -4.79152 0
M  V30 10437 C 960.353 -4.12025 -4.24252 0
M  V30 10438 C 959.715 -5.30955 -4.62889 0
M  V30 10439 H 955.814 -0.20691 -0.75413 0
M  V30 10440 H 958.398 -1.07802 -1.62132 0
M  V30 10441 H 956.569 0.0319301 -3.88387 0
M  V30 10442 H 958.301 -0.156899 -4.04396 0
M  V30 10443 H 955.056 -2.16923 -4.21 0
M  V30 10444 H 955.48 -4.7069 -4.86601 0
M  V30 10445 H 960.122 -2.04842 -3.69864 0
M  V30 10446 H 957.84 -6.27839 -5.08767 0
M  V30 10447 H 961.426 -4.10728 -4.1206 0
M  V30 10448 H 960.306 -6.19504 -4.80817 0
M  V30 10449 N 957.809 1.4625 -0.587256 0
M  V30 10450 C 959.058 2.01571 -0.0722643 0
M  V30 10451 C 959.371 1.46385 1.29733 0
M  V30 10452 O 960.577 1.93554 1.90392 0
M  V30 10453 C 959.033 3.59814 -0.078579 0
M  V30 10454 C 958.641 4.23996 -1.44678 0
M  V30 10455 C 960.385 4.22776 0.382231 0
M  V30 10456 C 958.292 5.74332 -1.41057 0
M  V30 10457 H 957.222 0.753642 -0.0232461 0
M  V30 10458 H 959.873 1.67936 -0.739577 0
M  V30 10459 H 958.255 3.90546 0.654988 0
M  V30 10460 H 959.429 4.04867 -2.20043 0
M  V30 10461 H 957.744 3.73147 -1.84799 0
M  V30 10462 H 960.341 5.32983 0.428182 0
M  V30 10463 H 960.684 3.92027 1.40072 0
M  V30 10464 H 961.217 3.96687 -0.297417 0
M  V30 10465 H 957.956 6.09747 -2.40601 0
M  V30 10466 H 957.476 5.95711 -0.699185 0
M  V30 10467 H 959.155 6.37137 -1.12543 0
M  V30 10468 N 959.287 0.325282 1.54207 0
M  V30 10469 C 960.517 -0.278285 2.04717 0
M  V30 10470 C 960.925 -1.46198 1.20095 0
M  V30 10471 O 960.268 -1.82319 0.224813 0
M  V30 10472 C 960.33 -0.774387 3.51061 0
M  V30 10473 C 959.994 0.287225 4.56096 0
M  V30 10474 C 960.991 1.12388 5.07607 0
M  V30 10475 C 958.676 0.435908 5.00405 0
M  V30 10476 C 960.67 2.09492 6.0199 0
M  V30 10477 C 958.357 1.41037 5.94602 0
M  V30 10478 C 959.355 2.23834 6.45281 0
M  V30 10479 O 959.043 3.19625 7.37628 0
M  V30 10480 H 958.775 -0.0608309 0.673257 0
M  V30 10481 H 961.329 0.470049 1.99949 0
M  V30 10482 H 959.559 -1.57366 3.53232 0
M  V30 10483 H 961.248 -1.29649 3.84637 0
M  V30 10484 H 962.014 1.02 4.74153 0
M  V30 10485 H 957.893 -0.198668 4.60572 0
M  V30 10486 H 961.437 2.74157 6.4147 0
M  V30 10487 H 957.334 1.51487 6.27473 0
M  V30 10488 H 958.102 3.14884 7.55507 0
M  V30 10489 N 960.765 -1.57509 0.0534917 0
M  V30 10490 C 961.99 -1.97511 -0.632794 0
M  V30 10491 C 962.415 -0.930947 -1.63447 0
M  V30 10492 O 961.773 0.105558 -1.80992 0
M  V30 10493 C 961.821 -3.3658 -1.29407 0
M  V30 10494 O 960.925 -3.3467 -2.40977 0
M  V30 10495 H 960.266 -0.643349 -0.16431 0
M  V30 10496 H 962.796 -2.04232 0.12258 0
M  V30 10497 H 962.806 -3.73359 -1.64521 0
M  V30 10498 H 961.481 -4.12113 -0.559976 0
M  V30 10499 H 960.058 -3.09639 -2.07793 0
M  V30 10500 N 962.243 0.219913 -1.56058 0
M  V30 10501 C 963.489 0.945463 -1.79412 0
M  V30 10502 C 963.822 1.83922 -0.62341 0
M  V30 10503 O 963.097 1.90806 0.377256 0
M  V30 10504 C 963.38 1.783 -3.1286 0
M  V30 10505 C 963.233 0.915626 -4.40382 0
M  V30 10506 C 964.552 2.76045 -3.42764 0
M  V30 10507 H 961.671 0.342288 -0.652693 0
M  V30 10508 H 964.313 0.214235 -1.88788 0
M  V30 10509 H 962.463 2.40642 -3.04998 0
M  V30 10510 H 964.135 0.30882 -4.60265 0
M  V30 10511 H 962.378 0.221124 -4.33236 0
M  V30 10512 H 963.049 1.53607 -5.30197 0
M  V30 10513 H 965.525 2.23838 -3.50764 0
M  V30 10514 H 964.401 3.31748 -4.37304 0
M  V30 10515 H 964.662 3.53866 -2.65012 0
M  V30 10516 N 963.721 1.49897 0.486681 0
M  V30 10517 C 964.684 1.67086 1.56891 0
M  V30 10518 C 965.684 0.54209 1.51387 0
M  V30 10519 O 966.874 0.80883 1.54284 0
M  V30 10520 C 964.006 1.68159 2.96539 0
M  V30 10521 H 965.199 2.63626 1.42974 0
M  V30 10522 H 962.752 1.39143 0.711954 0
M  V30 10523 H 963.487 0.732562 3.15918 0
M  V30 10524 H 963.272 2.50147 3.01942 0
M  V30 10525 H 964.762 1.83466 3.7514 0
M  V30 10526 N 965.199 -0.738761 1.39212 0
M  V30 10527 C 966.445 -1.50046 1.36433 0
M  V30 10528 C 966.778 -1.94157 -0.0409474 0
M  V30 10529 O 966.053 -1.66515 -1.00514 0
M  V30 10530 C 966.336 -2.74277 2.33333 0
M  V30 10531 C 966.189 -2.36209 3.82786 0
M  V30 10532 C 967.508 -3.76361 2.28123 0
M  V30 10533 H 964.627 -0.544294 0.496903 0
M  V30 10534 H 967.269 -0.845005 1.70175 0
M  V30 10535 H 965.419 -3.30204 2.04689 0
M  V30 10536 H 967.091 -1.85942 4.22165 0
M  V30 10537 H 965.334 -1.68483 3.99745 0
M  V30 10538 H 966.005 -3.25156 4.46069 0
M  V30 10539 H 968.481 -3.30009 2.53443 0
M  V30 10540 H 967.357 -4.60957 2.9801 0
M  V30 10541 H 967.618 -4.23013 1.28499 0
M  V30 10542 N 966.677 -1.24326 -0.968545 0
M  V30 10543 C 967.926 -1.07647 -1.70572 0
M  V30 10544 C 968.239 0.384821 -1.91777 0
M  V30 10545 O 969.445 0.671782 -2.63058 0
M  V30 10546 C 967.901 -1.87799 -3.07017 0
M  V30 10547 C 967.509 -3.38333 -2.93658 0
M  V30 10548 C 969.253 -1.79647 -3.84613 0
M  V30 10549 C 967.16 -4.10831 -4.25407 0
M  V30 10550 H 966.09 -0.399216 -0.639642 0
M  V30 10551 H 968.741 -1.484 -1.07934 0
M  V30 10552 H 967.123 -1.3986 -3.7048 0
M  V30 10553 H 968.297 -3.93845 -2.39213 0
M  V30 10554 H 966.612 -3.47427 -2.29528 0
M  V30 10555 H 969.209 -2.31116 -4.82172 0
M  V30 10556 H 969.552 -0.761553 -4.09275 0
M  V30 10557 H 970.085 -2.25261 -3.27875 0
M  V30 10558 H 966.824 -5.14679 -4.05939 0
M  V30 10559 H 966.344 -3.60105 -4.79671 0
M  V30 10560 H 968.023 -4.17783 -4.94031 0
M  V30 10561 N 968.156 1.1691 -1.05688 0
M  V30 10562 C 969.405 1.86629 -0.765022 0
M  V30 10563 C 969.718 1.82223 0.710918 0
M  V30 10564 O 970.924 2.47462 1.11691 0
M  V30 10565 C 969.38 3.34886 -1.3183 0
M  V30 10566 C 968.988 3.47781 -2.82404 0
M  V30 10567 C 970.732 4.099 -1.10372 0
M  V30 10568 C 968.639 4.9009 -3.31008 0
M  V30 10569 H 967.569 0.699082 -0.282491 0
M  V30 10570 H 970.22 1.31989 -1.27481 0
M  V30 10571 H 968.602 3.89094 -0.736312 0
M  V30 10572 H 969.776 3.03765 -3.46502 0
M  V30 10573 H 968.091 2.86193 -3.02461 0
M  V30 10574 H 970.688 5.14894 -1.4418 0
M  V30 10575 H 971.031 4.16279 -0.0417372 0
M  V30 10576 H 971.564 3.61913 -1.65117 0
M  V30 10577 H 968.303 4.88887 -4.36657 0
M  V30 10578 H 967.823 5.34756 -2.71655 0
M  V30 10579 H 969.502 5.58881 -3.25977 0
M  V30 10580 N 969.634 0.838594 1.33437 0
M  V30 10581 C 970.581 0.269609 2.2922 0
M  V30 10582 C 971.551 -0.614429 1.54318 0
M  V30 10583 O 972.736 -0.552756 1.82618 0
M  V30 10584 C 969.876 -0.549527 3.40697 0
M  V30 10585 C 968.989 0.358502 4.3051 0
M  V30 10586 C 968.124 -0.471709 5.29101 0
M  V30 10587 C 967.163 0.434728 6.10554 0
M  V30 10588 N 966.3 -0.357339 7.0119 0
M  V30 10589 H 971.14 1.09172 2.77282 0
M  V30 10590 H 968.677 0.549832 1.36438 0
M  V30 10591 H 970.635 -1.03992 4.04032 0
M  V30 10592 H 969.265 -1.33661 2.93828 0
M  V30 10593 H 968.317 0.967204 3.67899 0
M  V30 10594 H 969.629 1.05483 4.87519 0
M  V30 10595 H 968.783 -1.02594 5.97963 0
M  V30 10596 H 967.522 -1.20147 4.72669 0
M  V30 10597 H 966.527 1.00097 5.40611 0
M  V30 10598 H 967.752 1.16285 6.6907 0
M  V30 10599 H 965.698 -1.07049 6.47207 0
M  V30 10600 H 965.615 0.280277 7.5548 0
M  V30 10601 H 966.883 -0.893814 7.74359 0
M  V30 10602 N 971.112 -1.45937 0.595003 0
M  V30 10603 C 972.36 -2.01921 0.0851368 0
M  V30 10604 C 972.681 -1.46748 -1.28413 0
M  V30 10605 O 971.951 -0.656873 -1.84559 0
M  V30 10606 H 970.531 -0.746457 0.0284826 0
M  V30 10607 H 973.193 -1.78891 0.773561 0
M  V30 10608 H 972.289 -3.1209 0.0254002 0
M  V30 10609 N 972.59 -0.333456 -1.54032 0
M  V30 10610 C 973.839 0.267081 -1.99924 0
M  V30 10611 C 974.152 1.52463 -1.22534 0
M  V30 10612 O 975.358 2.20178 -1.58852 0
M  V30 10613 C 973.814 0.526456 -3.56029 0
M  V30 10614 C 973.422 -0.714607 -4.42264 0
M  V30 10615 C 975.166 1.0864 -4.10363 0
M  V30 10616 C 973.073 -0.42659 -5.89859 0
M  V30 10617 H 972.003 0.103577 -0.746852 0
M  V30 10618 H 974.654 -0.447218 -1.77967 0
M  V30 10619 H 973.036 1.3012 -3.74012 0
M  V30 10620 H 974.21 -1.48968 -4.36056 0
M  V30 10621 H 972.525 -1.19547 -3.9887 0
M  V30 10622 H 975.122 1.31668 -5.18235 0
M  V30 10623 H 975.465 2.03884 -3.62956 0
M  V30 10624 H 975.998 0.37261 -3.96051 0
M  V30 10625 H 972.737 -1.34847 -6.4148 0
M  V30 10626 H 972.257 0.310588 -5.98995 0
M  V30 10627 H 973.936 -0.0400807 -6.46988 0
M  V30 10628 N 974.068 1.57479 -0.061844 0
M  V30 10629 C 975.314 1.93395 0.610443 0
M  V30 10630 C 975.647 0.941334 1.6986 0
M  V30 10631 O 974.922 -0.0310262 1.94475 0
M  V30 10632 C 975.205 3.39636 1.19664 0
M  V30 10633 C 975.058 4.49651 0.115805 0
M  V30 10634 C 976.377 3.86488 2.10512 0
M  V30 10635 H 973.496 0.703262 0.220436 0
M  V30 10636 H 976.138 1.89583 -0.125785 0
M  V30 10637 H 974.288 3.43015 1.82409 0
M  V30 10638 H 975.96 4.58397 -0.516728 0
M  V30 10639 H 974.203 4.30237 -0.55483 0
M  V30 10640 H 974.874 5.49089 0.566176 0
M  V30 10641 H 977.35 3.85052 1.57715 0
M  V30 10642 H 976.226 4.89444 2.48466 0
M  V30 10643 H 976.487 3.23856 3.00948 0
M  V30 10644 N 975.546 -0.211634 1.56173 0
M  V30 10645 C 976.776 -0.949805 1.83473 0
M  V30 10646 C 977.184 -1.78045 0.640053 0
M  V30 10647 O 976.527 -1.79277 -0.400702 0
M  V30 10648 C 976.589 -1.90868 3.04647 0
M  V30 10649 C 976.253 -1.26159 4.39241 0
M  V30 10650 C 977.25 -0.646597 5.15863 0
M  V30 10651 C 974.935 -1.27039 4.85969 0
M  V30 10652 C 976.929 -0.0490313 6.37381 0
M  V30 10653 C 974.616 -0.668987 6.07427 0
M  V30 10654 C 975.614 -0.0593687 6.82974 0
M  V30 10655 O 975.302 0.532656 8.02133 0
M  V30 10656 H 975.034 -0.283458 0.6137 0
M  V30 10657 H 977.588 -0.22894 2.0412 0
M  V30 10658 H 975.818 -2.6688 2.79843 0
M  V30 10659 H 977.507 -2.51323 3.18734 0
M  V30 10660 H 978.273 -0.632056 4.80864 0
M  V30 10661 H 974.152 -1.73429 4.27134 0
M  V30 10662 H 977.696 0.427414 6.96289 0
M  V30 10663 H 973.593 -0.680975 6.41898 0
M  V30 10664 H 974.361 0.427942 8.17381 0
M  V30 10665 N 977.024 -1.50153 -0.478725 0
M  V30 10666 C 977.934 -1.71232 -1.60364 0
M  V30 10667 C 978.95 -0.595269 -1.63501 0
M  V30 10668 O 980.126 -0.872683 -1.81511 0
M  V30 10669 C 977.191 -1.79487 -2.96623 0
M  V30 10670 C 976.252 -3.03185 -3.03937 0
M  V30 10671 C 975.485 -3.11036 -4.33696 0
M  V30 10672 O 975.708 -2.2588 -5.23769 0
M  V30 10673 O 974.642 -4.03698 -4.46443 0
M  V30 10674 H 978.468 -2.66575 -1.45505 0
M  V30 10675 H 976.053 -1.34158 -0.65741 0
M  V30 10676 H 977.935 -1.8714 -3.77567 0
M  V30 10677 H 976.61 -0.873264 -3.11698 0
M  V30 10678 H 975.517 -3.01036 -2.22099 0
M  V30 10679 H 976.85 -3.94898 -2.93796 0
M  V30 10680 N 978.502 0.731368 -1.39602 0
M  V30 10681 C 979.449 1.84541 -1.38612 0
M  V30 10682 C 980.419 1.64279 -0.245287 0
M  V30 10683 O 981.604 1.85635 -0.440954 0
M  V30 10684 C 978.744 3.22092 -1.23897 0
M  V30 10685 C 977.857 3.54034 -2.47555 0
M  V30 10686 C 976.992 4.81007 -2.25402 0
M  V30 10687 C 976.031 5.05804 -3.44716 0
M  V30 10688 N 975.168 6.23981 -3.21857 0
M  V30 10689 H 980.008 1.84722 -2.33841 0
M  V30 10690 H 977.545 0.902569 -1.16156 0
M  V30 10691 H 979.503 4.01499 -1.13376 0
M  V30 10692 H 978.133 3.2118 -0.322958 0
M  V30 10693 H 977.185 2.69301 -2.68665 0
M  V30 10694 H 978.497 3.68275 -3.36415 0
M  V30 10695 H 977.651 5.68401 -2.12143 0
M  V30 10696 H 976.39 4.68946 -1.33943 0
M  V30 10697 H 975.395 4.1687 -3.58468 0
M  V30 10698 H 976.62 5.19747 -4.37081 0
M  V30 10699 H 974.566 6.13202 -2.33065 0
M  V30 10700 H 974.483 6.38826 -4.04274 0
M  V30 10701 H 975.751 7.14205 -3.123 0
M  V30 10702 N 979.98 1.24838 0.961938 0
M  V30 10703 C 980.89 1.06304 2.09133 0
M  V30 10704 C 981.906 0.00221475 1.74 0
M  V30 10705 O 983.082 0.201611 2.00388 0
M  V30 10706 C 980.147 0.676117 3.40043 0
M  V30 10707 C 979.208 1.81407 3.89089 0
M  V30 10708 C 978.441 1.44551 5.13752 0
M  V30 10709 O 978.664 0.337894 5.69398 0
M  V30 10710 O 977.598 2.27316 5.57325 0
M  V30 10711 H 981.424 2.01001 2.27667 0
M  V30 10712 H 979.009 1.0371 1.07539 0
M  V30 10713 H 980.891 0.472124 4.18747 0
M  V30 10714 H 979.566 -0.241667 3.22797 0
M  V30 10715 H 978.473 2.07286 3.11421 0
M  V30 10716 H 979.806 2.71083 4.10822 0
M  V30 10717 N 981.458 -1.16348 1.06306 0
M  V30 10718 C 982.421 -2.18941 0.678053 0
M  V30 10719 C 983.421 -1.58409 -0.276277 0
M  V30 10720 O 984.611 -1.74101 -0.0586435 0
M  V30 10721 C 981.743 -3.409 -0.00228684 0
M  V30 10722 H 982.936 -2.54516 1.58624 0
M  V30 10723 H 980.489 -1.30625 0.858298 0
M  V30 10724 H 981.224 -3.10881 -0.923212 0
M  V30 10725 H 981.009 -3.86089 0.683949 0
M  V30 10726 H 982.499 -4.16806 -0.257374 0
M  V30 10727 N 982.937 -0.845659 -1.3299 0
M  V30 10728 C 984.353 -0.53433 -1.5039 0
M  V30 10729 C 984.553 0.936939 -1.78392 0
M  V30 10730 O 983.609 1.72043 -1.84818 0
M  V30 10731 C 984.922 -1.41354 -2.65404 0
M  V30 10732 C 986.47 -1.41303 -2.79289 0
M  V30 10733 C 986.945 -2.27724 -3.97373 0
M  V30 10734 N 988.436 -2.25471 -4.0462 0
M  V30 10735 C 989.171 -2.89074 -4.95201 0
M  V30 10736 N 988.667 -3.61755 -5.90851 0
M  V30 10737 N 990.46 -2.78508 -4.88251 0
M  V30 10738 H 982.611 -1.79798 -1.13078 0
M  V30 10739 H 984.874 -0.767454 -0.556524 0
M  V30 10740 H 984.58 -2.45936 -2.51413 0
M  V30 10741 H 984.454 -1.09445 -3.60973 0
M  V30 10742 H 986.841 -0.374899 -2.92709 0
M  V30 10743 H 986.922 -1.77222 -1.84461 0
M  V30 10744 H 986.566 -3.316 -3.84713 0
M  V30 10745 H 986.496 -1.89142 -4.9146 0
M  V30 10746 H 988.987 -1.72622 -3.3617 0
M  V30 10747 H 989.3 -4.07475 -6.56646 0
M  V30 10748 H 987.645 -3.65863 -5.90906 0
M  V30 10749 H 990.836 -2.21285 -4.12493 0
M  V30 10750 H 991.009 -3.2836 -5.58645 0
M  V30 10751 N 984.415 1.45619 -0.602734 0
M  V30 10752 C 985.345 2.33258 0.106342 0
M  V30 10753 C 986.326 1.46543 0.863664 0
M  V30 10754 O 987.511 1.75324 0.835175 0
M  V30 10755 C 984.641 3.29168 1.10751 0
M  V30 10756 C 983.595 4.25481 0.463717 0
M  V30 10757 C 982.921 5.11046 1.57278 0
M  V30 10758 C 984.221 5.18702 -0.61199 0
M  V30 10759 H 985.915 2.92795 -0.625423 0
M  V30 10760 H 983.461 1.40793 -0.302213 0
M  V30 10761 H 985.414 3.89346 1.61208 0
M  V30 10762 H 984.138 2.6778 1.8698 0
M  V30 10763 H 982.797 3.66595 -0.0199496 0
M  V30 10764 H 982.445 4.46029 2.32524 0
M  V30 10765 H 982.145 5.76286 1.14755 0
M  V30 10766 H 983.669 5.74091 2.07972 0
M  V30 10767 H 985.083 5.72979 -0.191686 0
M  V30 10768 H 983.48 5.92393 -0.958686 0
M  V30 10769 H 984.55 4.61424 -1.4905 0
M  V30 10770 N 985.893 0.34162 1.53853 0
M  V30 10771 C 986.84 -0.516058 2.24957 0
M  V30 10772 C 987.81 -1.09711 1.2471 0
M  V30 10773 O 988.995 -1.13409 1.53438 0
M  V30 10774 C 986.135 -1.66207 3.02439 0
M  V30 10775 C 985.248 -1.10851 4.17536 0
M  V30 10776 C 984.383 -2.22167 4.82509 0
M  V30 10777 C 983.422 -1.64152 5.89678 0
M  V30 10778 N 982.559 -2.69203 6.4844 0
M  V30 10779 H 987.399 0.0968275 2.97843 0
M  V30 10780 H 984.936 0.0595565 1.46979 0
M  V30 10781 H 986.894 -2.33672 3.4562 0
M  V30 10782 H 985.524 -2.24597 2.31853 0
M  V30 10783 H 984.576 -0.324853 3.7901 0
M  V30 10784 H 985.888 -0.644151 4.94623 0
M  V30 10785 H 985.042 -2.97501 5.28751 0
M  V30 10786 H 983.781 -2.71946 4.04842 0
M  V30 10787 H 982.786 -0.873228 5.42821 0
M  V30 10788 H 984.011 -1.15228 6.69253 0
M  V30 10789 H 981.957 -3.1824 5.73637 0
M  V30 10790 H 981.874 -2.27383 7.20994 0
M  V30 10791 H 983.142 -3.44312 6.99335 0
M  V30 10792 N 987.371 -1.57444 0.0701946 0
M  V30 10793 C 988.281 -2.16132 -0.912377 0
M  V30 10794 C 989.297 -1.12406 -1.32819 0
M  V30 10795 O 990.473 -1.44665 -1.40121 0
M  V30 10796 C 987.538 -2.71008 -2.16231 0
M  V30 10797 C 986.599 -3.896 -1.80306 0
M  V30 10798 C 985.832 -4.4185 -2.9934 0
M  V30 10799 O 986.055 -3.93106 -4.13309 0
M  V30 10800 O 984.989 -5.33201 -2.7925 0
M  V30 10801 H 988.815 -3.00449 -0.443167 0
M  V30 10802 H 986.4 -1.48617 -0.152786 0
M  V30 10803 H 988.282 -3.06186 -2.8953 0
M  V30 10804 H 986.957 -1.8975 -2.62253 0
M  V30 10805 H 985.864 -3.59277 -1.04264 0
M  V30 10806 H 987.197 -4.72145 -1.39068 0
M  V30 10807 N 988.849 0.203349 -1.56283 0
M  V30 10808 C 990.077 0.941426 -1.84241 0
M  V30 10809 C 990.492 1.77197 -0.651658 0
M  V30 10810 O 989.849 1.78506 0.379713 0
M  V30 10811 C 989.9 1.84429 -3.10915 0
M  V30 10812 O 989.621 1.04729 -4.25398 0
M  V30 10813 C 991.122 2.69474 -3.51993 0
M  V30 10814 H 988.342 0.27507 -0.612027 0
M  V30 10815 H 990.886 0.213088 -2.03387 0
M  V30 10816 H 989.041 2.52635 -2.93691 0
M  V30 10817 H 989.455 1.66179 -4.97478 0
M  V30 10818 H 990.929 3.28495 -4.43616 0
M  V30 10819 H 991.406 3.42775 -2.74594 0
M  V30 10820 H 992.012 2.06652 -3.71719 0
M  V30 10821 N 990.327 1.50405 0.470755 0
M  V30 10822 C 991.26 1.63933 1.58749 0
M  V30 10823 C 992.238 0.487444 1.55122 0
M  V30 10824 O 993.422 0.706992 1.74739 0
M  V30 10825 C 990.549 1.62222 2.97324 0
M  V30 10826 C 989.595 2.82975 3.19104 0
M  V30 10827 S 990.428 4.44272 2.98969 0
M  V30 10828 C 991.584 4.45254 4.39886 0
M  V30 10829 H 991.817 2.58396 1.47034 0
M  V30 10830 H 989.35 1.39672 0.658115 0
M  V30 10831 H 991.308 1.6192 3.77217 0
M  V30 10832 H 989.969 0.689944 3.06429 0
M  V30 10833 H 989.162 2.78083 4.2034 0
M  V30 10834 H 988.764 2.80846 2.46984 0
M  V30 10835 H 991.056 4.18837 5.32524 0
M  V30 10836 H 991.999 5.4687 4.49821 0
M  V30 10837 H 992.407 3.74958 4.2198 0
M  V30 10838 N 991.805 -0.723954 1.39988 0
M  V30 10839 C 993.221 -1.03095 1.21834 0
M  V30 10840 C 993.421 -2.01309 0.0876647 0
M  V30 10841 O 992.477 -2.46277 -0.55714 0
M  V30 10842 C 993.79 -1.58267 2.5568 0
M  V30 10843 C 995.338 -1.70293 2.6262 0
M  V30 10844 C 995.813 -2.28872 3.96713 0
M  V30 10845 N 997.304 -2.36269 3.98411 0
M  V30 10846 C 998.039 -2.82557 4.98948 0
M  V30 10847 N 997.535 -3.28661 6.0988 0
M  V30 10848 N 999.328 -2.81866 4.86321 0
M  V30 10849 H 991.479 -0.0727891 2.12275 0
M  V30 10850 H 993.742 -0.0949029 0.943238 0
M  V30 10851 H 993.448 -0.935642 3.39026 0
M  V30 10852 H 993.322 -2.56914 2.76179 0
M  V30 10853 H 995.709 -2.34115 1.7965 0
M  V30 10854 H 995.79 -0.70268 2.45959 0
M  V30 10855 H 995.434 -1.65675 4.80119 0
M  V30 10856 H 995.364 -3.29595 4.107 0
M  V30 10857 H 997.855 -2.03697 3.18302 0
M  V30 10858 H 998.168 -3.62524 6.82493 0
M  V30 10859 H 996.513 -3.26641 6.13458 0
M  V30 10860 H 999.704 -2.45179 3.98754 0
M  V30 10861 H 999.877 -3.17626 5.64817 0
M  V30 10862 N 993.283 -1.25346 -0.955304 0
M  V30 10863 C 994.532 -1.0945 -1.69421 0
M  V30 10864 C 994.845 0.364459 -1.92175 0
M  V30 10865 O 996.051 0.643843 -2.63755 0
M  V30 10866 C 994.507 -1.91045 -3.05008 0
M  V30 10867 C 994.115 -3.41428 -2.90053 0
M  V30 10868 C 995.859 -1.83716 -3.82686 0
M  V30 10869 C 993.766 -4.1532 -4.21026 0
M  V30 10870 H 992.696 -0.405978 -0.635372 0
M  V30 10871 H 995.347 -1.49536 -1.06354 0
M  V30 10872 H 993.729 -1.43781 -3.68975 0
M  V30 10873 H 994.903 -3.9636 -2.35022 0
M  V30 10874 H 993.218 -3.49842 -2.25831 0
M  V30 10875 H 995.815 -2.36217 -4.79693 0
M  V30 10876 H 996.158 -0.804919 -4.08444 0
M  V30 10877 H 996.691 -2.28726 -3.25468 0
M  V30 10878 H 993.43 -5.18955 -4.00457 0
M  V30 10879 H 992.95 -3.65172 -4.75825 0
M  V30 10880 H 994.629 -4.22999 -4.89572 0
M  V30 10881 N 994.761 1.15782 -1.06922 0
M  V30 10882 C 995.694 2.19336 -0.629837 0
M  V30 10883 C 996.672 1.58774 0.350663 0
M  V30 10884 O 997.856 1.86724 0.258124 0
M  V30 10885 C 994.983 3.38615 0.0757526 0
M  V30 10886 C 994.029 4.17688 -0.862503 0
M  V30 10887 S 994.862 4.80634 -2.36117 0
M  V30 10888 C 996.018 6.03286 -1.66725 0
M  V30 10889 H 996.251 2.56267 -1.50714 0
M  V30 10890 H 993.784 1.26674 -0.882776 0
M  V30 10891 H 995.742 4.07724 0.476611 0
M  V30 10892 H 994.403 3.00037 0.929332 0
M  V30 10893 H 993.596 5.03012 -0.315461 0
M  V30 10894 H 993.198 3.54106 -1.20354 0
M  V30 10895 H 995.49 6.70426 -0.976472 0
M  V30 10896 H 996.433 6.62551 -2.49864 0
M  V30 10897 H 996.841 5.52722 -1.14711 0
M  V30 10898 N 996.239 0.8527 1.3254 0
M  V30 10899 C 997.487 0.454224 1.96929 0
M  V30 10900 C 997.808 -0.993034 1.67821 0
M  V30 10901 O 997.078 -1.69371 0.984393 0
M  V30 10902 H 995.658 0.164977 0.728554 0
M  V30 10903 H 998.32 1.0887 1.61658 0
M  V30 10904 H 997.416 0.597667 3.06324 0
M  V30 10905 N 997.718 -1.45297 0.610449 0
M  V30 10906 C 998.648 -2.33311 -0.0939698 0
M  V30 10907 C 999.629 -1.46999 -0.85588 0
M  V30 10908 O 1000.81 -1.75764 -0.825865 0
M  V30 10909 C 997.944 -3.29751 -1.09003 0
M  V30 10910 C 996.898 -4.2572 -0.441146 0
M  V30 10911 C 996.224 -5.11873 -1.54566 0
M  V30 10912 C 997.524 -5.1837 0.639489 0
M  V30 10913 H 999.218 -2.92459 0.640941 0
M  V30 10914 H 996.764 -1.40631 0.309675 0
M  V30 10915 H 998.717 -3.90195 -1.59141 0
M  V30 10916 H 997.441 -2.68768 -1.85557 0
M  V30 10917 H 996.1 -3.66579 0.0393908 0
M  V30 10918 H 995.748 -4.47256 -2.30155 0
M  V30 10919 H 995.448 -5.76886 -1.11698 0
M  V30 10920 H 996.972 -5.75185 -2.04925 0
M  V30 10921 H 998.386 -5.7287 0.22207 0
M  V30 10922 H 996.783 -5.91876 0.990089 0
M  V30 10923 H 997.853 -4.60627 1.51495 0
M  V30 10924 N 999.196 -0.349774 -1.5367 0
M  V30 10925 C 1000.47 0.300419 -1.93279 0
M  V30 10926 C 1000.85 1.67721 -1.28191 0
M  V30 10927 O 1000.2 2.24319 -0.435127 0
M  V30 10928 C 1000.41 0.366466 -3.47071 0
M  V30 10929 C 1001.76 0.614349 -4.20132 0
M  V30 10930 O 1002.78 0.448327 -3.53367 0
M  V30 10931 O 1001.64 0.936421 -5.38417 0
M  V30 10932 H 998.736 0.176599 -0.807924 0
M  V30 10933 H 1001.28 -0.401405 -1.64884 0
M  V30 10934 H 1000.05 -0.599455 -3.86681 0
M  V30 10935 H 999.677 1.11482 -3.81651 0
M  V30 10936 N 1000.67 1.57404 -0.0785433 0
M  V30 10937 C 1001.62 2.14316 0.903949 0
M  V30 10938 C 1002.62 1.08176 1.30362 0
M  V30 10939 O 1003.82 1.26546 1.28008 0
M  V30 10940 H 1000.2 0.685367 0.309477 0
M  V30 10941 H 1002.17 2.95719 0.399081 0
M  V30 10942 C 1000.92 2.72504 2.15956 0
M  V30 10943 H 1000.24 3.53853 1.86087 0
M  V30 10944 H 1001.68 3.15914 2.82798 0
M  V30 10945 C 1000.14 1.6759 2.92259 0
M  V30 10946 O 1000.67 1.10492 3.86205 0
M  V30 10947 N 998.875 1.38467 2.5549 0
M  V30 10948 H 998.422 1.85088 1.79166 0
M  V30 10949 H 998.38 0.685053 3.06846 0
M  V30 10950 N 1002.15 -0.195058 1.56388 0
M  V30 10951 C 1003.38 -0.935745 1.85091 0
M  V30 10952 C 1003.8 -1.76061 0.662118 0
M  V30 10953 O 1003.16 -1.77076 -0.389083 0
M  V30 10954 C 1003.21 -1.80764 3.1202 0
M  V30 10955 O 1002.31 -2.90643 2.92575 0
M  V30 10956 H 1001.65 -0.26351 0.609474 0
M  V30 10957 H 1004.18 -0.200362 2.03617 0
M  V30 10958 H 1004.19 -2.21229 3.42815 0
M  V30 10959 H 1002.87 -1.20157 3.98165 0
M  V30 10960 H 1001.44 -2.53934 2.73079 0
M  V30 10961 N 1003.63 -1.50653 -0.462772 0
M  V30 10962 C 1004.88 -1.61296 -1.21105 0
M  V30 10963 C 1005.19 -0.322757 -1.92919 0
M  V30 10964 O 1006.4 -0.308211 -2.69745 0
M  V30 10965 C 1004.85 -2.84752 -2.201 0
M  V30 10966 C 1004.46 -4.20681 -1.54051 0
M  V30 10967 C 1006.21 -3.04744 -2.95518 0
M  V30 10968 C 1004.11 -5.35314 -2.51381 0
M  V30 10969 H 1003.04 -0.60069 -0.455728 0
M  V30 10970 H 1005.69 -1.77093 -0.480656 0
M  V30 10971 H 1004.08 -2.62532 -2.96467 0
M  V30 10972 H 1005.25 -4.53187 -0.834168 0
M  V30 10973 H 1003.56 -4.06361 -0.908828 0
M  V30 10974 H 1006.16 -3.87559 -3.68378 0
M  V30 10975 H 1006.5 -2.16802 -3.55391 0
M  V30 10976 H 1007.04 -3.27185 -2.26263 0
M  V30 10977 H 1003.78 -6.25437 -1.96235 0
M  V30 10978 H 1003.3 -5.07216 -3.20144 0
M  V30 10979 H 1004.98 -5.66229 -3.1304 0
M  V30 10980 N 1005.11 0.71652 -1.4037 0
M  V30 10981 C 1006.04 1.84345 -1.43315 0
M  V30 10982 C 1007.02 1.67537 -0.294186 0
M  V30 10983 O 1008.2 1.87582 -0.502671 0
M  V30 10984 C 1005.33 3.2229 -1.29408 0
M  V30 10985 C 1004.29 3.53769 -2.40897 0
M  V30 10986 C 1003.61 4.90847 -2.12068 0
M  V30 10987 C 1004.91 3.54862 -3.83237 0
M  V30 10988 H 1006.61 1.82138 -2.37626 0
M  V30 10989 H 1004.15 0.874873 -1.14376 0
M  V30 10990 H 1006.11 4.00819 -1.30085 0
M  V30 10991 H 1004.83 3.2507 -0.31573 0
M  V30 10992 H 1003.49 2.77579 -2.39469 0
M  V30 10993 H 1003.14 4.90229 -1.12626 0
M  V30 10994 H 1002.84 5.12875 -2.86762 0
M  V30 10995 H 1004.36 5.71711 -2.14426 0
M  V30 10996 H 1005.78 4.23432 -3.86494 0
M  V30 10997 H 1004.17 3.88416 -4.57442 0
M  V30 10998 H 1005.24 2.54266 -4.12888 0
M  V30 10999 N 1006.59 1.25851 0.948643 0
M  V30 11000 C 1007.83 1.12127 1.69703 0
M  V30 11001 C 1008.19 -0.333318 1.89491 0
M  V30 11002 O 1007.48 -1.24181 1.4591 0
M  V30 11003 C 1007.67 1.81565 3.07846 0
M  V30 11004 C 1007.5 3.33626 3.01535 0
M  V30 11005 C 1006.27 4.02897 3.04962 0
M  V30 11006 C 1008.47 4.29934 2.82243 0
M  V30 11007 N 1006.45 5.41688 2.88872 0
M  V30 11008 C 1007.82 5.5585 2.74646 0
M  V30 11009 C 1009.88 4.20276 2.66969 0
M  V30 11010 C 1008.58 6.73212 2.53335 0
M  V30 11011 C 1010.61 5.37336 2.4703 0
M  V30 11012 C 1009.97 6.62196 2.40158 0
M  V30 11013 H 1006.07 0.465047 0.628693 0
M  V30 11014 H 1008.65 1.59035 1.12321 0
M  V30 11015 H 1006.82 1.37143 3.63382 0
M  V30 11016 H 1008.56 1.6053 3.715 0
M  V30 11017 H 1005.31 3.54201 3.14386 0
M  V30 11018 H 1005.74 6.14544 2.84015 0
M  V30 11019 H 1010.38 3.24485 2.71053 0
M  V30 11020 H 1008.1 7.69107 2.47993 0
M  V30 11021 H 1011.68 5.31728 2.36128 0
M  V30 11022 H 1010.56 7.51249 2.24933 0
M  V30 11023 N 1008.06 -1.15214 1.07534 0
M  V30 11024 C 1009.31 -1.86043 0.799629 0
M  V30 11025 C 1009.64 -1.82435 -0.674356 0
M  V30 11026 O 1008.89 -1.24379 -1.51091 0
M  V30 11027 C 1009.19 -3.34623 1.25547 0
M  V30 11028 C 1008.86 -3.58425 2.73573 0
M  V30 11029 C 1007.52 -3.6463 3.14004 0
M  V30 11030 C 1009.87 -3.67977 3.6911 0
M  V30 11031 C 1007.2 -3.779 4.48786 0
M  V30 11032 C 1009.55 -3.82771 5.03656 0
M  V30 11033 C 1008.22 -3.87222 5.43705 0
M  V30 11034 H 1007.49 -0.680781 0.292605 0
M  V30 11035 H 1010.13 -1.36149 1.34669 0
M  V30 11036 H 1008.44 -3.86737 0.627828 0
M  V30 11037 H 1010.14 -3.87836 1.01901 0
M  V30 11038 H 1006.73 -3.54238 2.41275 0
M  V30 11039 H 1010.91 -3.62482 3.39 0
M  V30 11040 H 1006.17 -3.79604 4.79281 0
M  V30 11041 H 1010.34 -3.89104 5.77556 0
M  V30 11042 H 1007.97 -3.97256 6.48145 0
M  V30 11043 N 1009.54 -0.859717 -1.32086 0
M  V30 11044 C 1010.77 -0.478865 -2.01796 0
M  V30 11045 C 1011.19 0.918274 -1.64163 0
M  V30 11046 O 1010.55 1.60409 -0.844896 0
M  V30 11047 C 1010.6 -0.631356 -3.5503 0
M  V30 11048 O 1009.7 0.333712 -4.11048 0
M  V30 11049 H 1009.04 -0.191775 -0.635703 0
M  V30 11050 H 1011.57 -1.16031 -1.68517 0
M  V30 11051 H 1011.58 -0.520783 -4.04663 0
M  V30 11052 H 1010.26 -1.65015 -3.81763 0
M  V30 11053 H 1008.84 0.178953 -3.7247 0
M  V30 11054 N 1011.02 1.44971 -0.618145 0
M  V30 11055 C 1012.27 2.03009 -0.126125 0
M  V30 11056 C 1012.62 1.47656 1.23351 0
M  V30 11057 O 1011.91 0.645901 1.80385 0
M  V30 11058 C 1012.11 3.57378 -0.0394861 0
M  V30 11059 C 1011.94 4.27706 -1.38918 0
M  V30 11060 C 1010.71 4.65206 -1.97261 0
M  V30 11061 C 1012.91 4.58987 -2.32024 0
M  V30 11062 N 1010.89 5.2044 -3.256 0
M  V30 11063 C 1012.26 5.15167 -3.44969 0
M  V30 11064 C 1014.31 4.40932 -2.31265 0
M  V30 11065 C 1013.02 5.55193 -4.57333 0
M  V30 11066 C 1015.04 4.81997 -3.42684 0
M  V30 11067 C 1014.4 5.38279 -4.54352 0
M  V30 11068 H 1010.5 0.77683 -0.0897695 0
M  V30 11069 H 1013.09 1.76646 -0.818805 0
M  V30 11070 H 1011.26 3.8338 0.622441 0
M  V30 11071 H 1012.99 4.02075 0.460165 0
M  V30 11072 H 1009.75 4.49102 -1.50348 0
M  V30 11073 H 1010.17 5.52546 -3.9118 0
M  V30 11074 H 1014.81 3.96723 -1.46187 0
M  V30 11075 H 1012.53 5.98362 -5.43128 0
M  V30 11076 H 1016.12 4.69751 -3.43257 0
M  V30 11077 H 1015 5.6947 -5.39142 0
M  V30 11078 N 1012.5 0.357919 1.53482 0
M  V30 11079 C 1013.75 -0.234163 2.01142 0
M  V30 11080 C 1014.07 -1.49399 1.2454 0
M  V30 11081 O 1013.33 -1.92981 0.325111 0
M  V30 11082 C 1013.63 -0.579617 3.52669 0
M  V30 11083 C 1013.29 0.584988 4.47089 0
M  V30 11084 C 1011.96 0.904558 4.72622 0
M  V30 11085 C 1014.31 1.3656 5.02992 0
M  V30 11086 C 1011.64 2.00685 5.5131 0
M  V30 11087 C 1013.99 2.45824 5.82884 0
M  V30 11088 C 1012.65 2.78325 6.06706 0
M  V30 11089 H 1011.92 -0.0856863 0.736029 0
M  V30 11090 H 1014.57 0.488801 1.85157 0
M  V30 11091 H 1012.87 -1.38349 3.66561 0
M  V30 11092 H 1014.57 -1.04985 3.87013 0
M  V30 11093 H 1011.16 0.32587 4.27359 0
M  V30 11094 H 1015.34 1.13196 4.83219 0
M  V30 11095 H 1010.6 2.26272 5.67988 0
M  V30 11096 H 1014.77 3.06732 6.25211 0
M  V30 11097 H 1012.4 3.63862 6.67464 0
M  V30 11098 N 1013.98 -1.5736 0.0868897 0
M  V30 11099 C 1015.23 -1.93229 -0.578387 0
M  V30 11100 C 1015.54 -0.970127 -1.69847 0
M  V30 11101 O 1016.74 -1.22222 -2.42434 0
M  V30 11102 C 1015.2 -3.43307 -1.0802 0
M  V30 11103 C 1014.81 -4.47999 0.00968135 0
M  V30 11104 C 1016.55 -3.88151 -1.71868 0
M  V30 11105 C 1014.46 -5.89223 -0.507029 0
M  V30 11106 H 1013.39 -0.721245 -0.219823 0
M  V30 11107 H 1016.04 -1.82787 0.161566 0
M  V30 11108 H 1014.42 -3.48873 -1.87359 0
M  V30 11109 H 1015.6 -4.54067 0.784865 0
M  V30 11110 H 1013.91 -4.12714 0.552845 0
M  V30 11111 H 1016.51 -4.91056 -2.11585 0
M  V30 11112 H 1016.85 -3.26347 -2.58464 0
M  V30 11113 H 1017.38 -3.85252 -0.991259 0
M  V30 11114 H 1014.12 -6.54708 0.322121 0
M  V30 11115 H 1013.64 -5.86643 -1.2494 0
M  V30 11116 H 1015.32 -6.39556 -0.978628 0
M  V30 11117 N 1015.45 0.186762 -1.56489 0
M  V30 11118 C 1016.68 0.925916 -1.85584 0
M  V30 11119 C 1017.1 1.75708 -0.671446 0
M  V30 11120 O 1016.46 1.7728 0.379687 0
M  V30 11121 C 1016.51 1.79107 -3.12975 0
M  V30 11122 O 1015.61 2.89088 -2.94112 0
M  V30 11123 H 1014.96 0.260275 -0.610863 0
M  V30 11124 H 1017.49 0.189561 -2.0372 0
M  V30 11125 H 1017.5 2.19408 -3.43983 0
M  V30 11126 H 1016.17 1.18044 -3.98796 0
M  V30 11127 H 1014.75 2.52482 -2.74422 0
M  V30 11128 N 1016.93 1.50896 0.454776 0
M  V30 11129 C 1018.16 1.66759 1.23313 0
M  V30 11130 C 1018.58 0.35722 1.84677 0
M  V30 11131 O 1017.94 -0.680771 1.68033 0
M  V30 11132 C 1017.99 2.77254 2.3057 0
M  V30 11133 O 1017.09 2.39642 3.35627 0
M  V30 11134 H 1016.43 0.556599 0.362068 0
M  V30 11135 H 1018.96 1.97365 0.539274 0
M  V30 11136 H 1018.97 3.0082 2.75629 0
M  V30 11137 H 1017.65 3.72349 1.85281 0
M  V30 11138 H 1016.23 2.26584 2.96165 0
M  V30 11139 N 1018.41 -0.709066 1.40748 0
M  V30 11140 C 1019.34 -1.83583 1.4429 0
M  V30 11141 C 1020.32 -1.67378 0.303067 0
M  V30 11142 O 1021.51 -1.87312 0.512612 0
M  V30 11143 C 1018.64 -3.21599 1.31116 0
M  V30 11144 C 1017.59 -3.52486 2.4277 0
M  V30 11145 C 1016.92 -4.89716 2.14668 0
M  V30 11146 C 1018.22 -3.52824 3.85113 0
M  V30 11147 H 1019.91 -1.80876 2.38588 0
M  V30 11148 H 1017.46 -0.868795 1.14839 0
M  V30 11149 H 1019.41 -4.00123 1.32209 0
M  V30 11150 H 1018.13 -3.24898 0.332965 0
M  V30 11151 H 1016.79 -2.76305 2.40937 0
M  V30 11152 H 1016.44 -4.89625 1.15224 0
M  V30 11153 H 1016.14 -5.11347 2.89478 0
M  V30 11154 H 1017.66 -5.70566 2.17455 0
M  V30 11155 H 1019.08 -4.21377 3.88734 0
M  V30 11156 H 1017.48 -3.85984 4.59496 0
M  V30 11157 H 1018.55 -2.52073 4.14231 0
M  V30 11158 N 1019.89 -1.26353 -0.941956 0
M  V30 11159 C 1021.14 -1.11241 -1.68251 0
M  V30 11160 C 1021.45 0.344055 -1.9255 0
M  V30 11161 O 1022.66 0.615832 -2.64423 0
M  V30 11162 C 1021.11 -1.94269 -3.02965 0
M  V30 11163 C 1020.72 -3.44485 -2.86415 0
M  V30 11164 C 1022.47 -1.87764 -3.80716 0
M  V30 11165 C 1020.37 -4.19763 -4.16597 0
M  V30 11166 H 1019.3 -0.412694 -0.63103 0
M  V30 11167 H 1021.95 -1.50656 -1.04762 0
M  V30 11168 H 1020.34 -1.47687 -3.6743 0
M  V30 11169 H 1021.51 -3.9883 -2.30805 0
M  V30 11170 H 1019.82 -3.52218 -2.22107 0
M  V30 11171 H 1022.42 -2.41292 -4.77161 0
M  V30 11172 H 1022.76 -0.848195 -4.07568 0
M  V30 11173 H 1023.3 -2.32165 -3.23024 0
M  V30 11174 H 1020.04 -5.23173 -3.9493 0
M  V30 11175 H 1019.56 -3.70198 -4.71925 0
M  V30 11176 H 1021.24 -4.28168 -4.85058 0
M  V30 11177 N 1021.37 1.14642 -1.08144 0
M  V30 11178 C 1022.78 1.6719 -0.830923 0
M  V30 11179 C 1023.13 1.85373 0.642749 0
M  V30 11180 O 1022.25 1.56293 1.49671 0
M  V30 11181 C 1022.85 3.03697 -1.50179 0
M  V30 11182 C 1021.41 3.5329 -1.29858 0
M  V30 11183 C 1020.56 2.28828 -1.5663 0
M  V30 11184 H 1023.51 0.987441 -1.24239 0
M  V30 11185 H 1023.53 3.69023 -0.9275 0
M  V30 11186 H 1023.04 2.90431 -2.57432 0
M  V30 11187 H 1021.14 3.71783 -0.246626 0
M  V30 11188 H 1021.25 4.34231 -2.02436 0
M  V30 11189 H 1019.62 2.34769 -0.987716 0
M  V30 11190 H 1020.4 2.18141 -2.65084 0
M  V30 11191 N 1022.85 0.866709 1.31628 0
M  V30 11192 C 1023.78 0.335762 2.31073 0
M  V30 11193 C 1024.76 -0.571597 1.60209 0
M  V30 11194 O 1025.94 -0.489306 1.87935 0
M  V30 11195 C 1023.07 -0.466416 3.44154 0
M  V30 11196 C 1022.03 0.347561 4.26586 0
M  V30 11197 C 1021.35 -0.5801 5.31544 0
M  V30 11198 C 1022.65 1.57986 4.97833 0
M  V30 11199 H 1024.35 1.16673 2.75731 0
M  V30 11200 H 1021.89 0.56248 1.3256 0
M  V30 11201 H 1023.84 -0.84836 4.12772 0
M  V30 11202 H 1022.57 -1.33086 2.98254 0
M  V30 11203 H 1021.23 0.71141 3.59631 0
M  V30 11204 H 1020.88 -1.44174 4.81895 0
M  V30 11205 H 1020.58 -0.0393965 5.87587 0
M  V30 11206 H 1022.1 -0.958958 6.03023 0
M  V30 11207 H 1023.51 1.26954 5.59067 0
M  V30 11208 H 1021.91 2.05939 5.63657 0
M  V30 11209 H 1022.98 2.3345 4.25005 0
M  V30 11210 N 1024.32 -1.44642 0.625825 0
M  V30 11211 C 1025.25 -2.33397 -0.0692188 0
M  V30 11212 C 1026.23 -1.47898 -0.840241 0
M  V30 11213 O 1027.42 -1.7663 -0.807176 0
M  V30 11214 C 1024.55 -3.30888 -1.055 0
M  V30 11215 C 1023.5 -4.26164 -0.395968 0
M  V30 11216 C 1022.83 -5.13483 -1.49128 0
M  V30 11217 C 1024.13 -5.17663 0.694433 0
M  V30 11218 H 1025.82 -2.91763 0.671925 0
M  V30 11219 H 1023.37 -1.40294 0.324573 0
M  V30 11220 H 1025.32 -3.91861 -1.54993 0
M  V30 11221 H 1024.05 -2.7072 -1.82696 0
M  V30 11222 H 1022.71 -3.66516 0.0782691 0
M  V30 11223 H 1022.35 -4.49672 -2.25399 0
M  V30 11224 H 1022.05 -5.78038 -1.05573 0
M  V30 11225 H 1023.58 -5.77327 -1.98813 0
M  V30 11226 H 1024.99 -5.72602 0.282818 0
M  V30 11227 H 1023.39 -5.90793 1.05281 0
M  V30 11228 H 1024.46 -4.58994 1.56372 0
M  V30 11229 N 1025.8 -0.366053 -1.5329 0
M  V30 11230 C 1027.05 0.223824 -2.01561 0
M  V30 11231 C 1027.38 1.48382 -1.25286 0
M  V30 11232 O 1026.66 1.91385 -0.34669 0
M  V30 11233 C 1026.94 0.5153 -3.56394 0
M  V30 11234 C 1026.79 -0.758357 -4.43361 0
M  V30 11235 C 1028.11 1.31568 -4.19974 0
M  V30 11236 H 1025.23 0.0798751 -0.732659 0
M  V30 11237 H 1027.87 -0.491038 -1.83545 0
M  V30 11238 H 1026.02 1.12429 -3.71876 0
M  V30 11239 H 1027.69 -1.39584 -4.39675 0
M  V30 11240 H 1025.94 -1.37862 -4.11311 0
M  V30 11241 H 1026.61 -0.509366 -5.49645 0
M  V30 11242 H 1029.08 0.800514 -4.08327 0
M  V30 11243 H 1027.96 1.48837 -5.28336 0
M  V30 11244 H 1028.22 2.32432 -3.76069 0
M  V30 11245 N 1027.28 1.57312 -0.0952337 0
M  V30 11246 C 1028.5 1.99119 0.580206 0
M  V30 11247 C 1028.93 0.973955 1.60922 0
M  V30 11248 O 1028.29 -0.0575338 1.81209 0
M  V30 11249 C 1028.34 3.39893 1.20438 0
M  V30 11250 O 1027.44 3.40941 2.32019 0
M  V30 11251 H 1026.78 0.64748 0.147195 0
M  V30 11252 H 1029.31 2.03836 -0.176686 0
M  V30 11253 H 1029.32 3.7759 1.54564 0
M  V30 11254 H 1028 4.13453 0.450514 0
M  V30 11255 H 1026.57 3.1504 1.9951 0
M  V30 11256 N 1028.76 -0.17846 1.56586 0
M  V30 11257 C 1029.72 -1.20479 1.94981 0
M  V30 11258 C 1030.72 -1.37561 0.832677 0
M  V30 11259 O 1031.91 -1.35089 1.09984 0
M  V30 11260 C 1029.04 -2.57117 2.23839 0
M  V30 11261 H 1030.24 -0.876173 2.86816 0
M  V30 11262 H 1027.79 -0.420635 1.50534 0
M  V30 11263 H 1028.52 -2.95005 1.34695 0
M  V30 11264 H 1028.31 -2.46086 3.05261 0
M  V30 11265 H 1029.8 -3.31096 2.5449 0
M  V30 11266 N 1030.24 -1.51135 -0.446768 0
M  V30 11267 C 1031.48 -1.63013 -1.19461 0
M  V30 11268 C 1031.8 -0.344067 -1.91941 0
M  V30 11269 O 1031.07 0.639666 -1.85162 0
M  V30 11270 H 1029.65 -0.600757 -0.443959 0
M  V30 11271 H 1032.32 -1.88024 -0.513137 0
M  V30 11272 H 1031.41 -2.45322 -1.92933 0
M  V30 11273 N 1031.71 0.701592 -1.41122 0
M  V30 11274 C 1032.64 1.82815 -1.45262 0
M  V30 11275 C 1033.62 1.67215 -0.311939 0
M  V30 11276 O 1034.81 1.87038 -0.522538 0
M  V30 11277 C 1031.94 3.20899 -1.32819 0
M  V30 11278 C 1030.89 3.51194 -2.44636 0
M  V30 11279 C 1030.22 4.8857 -2.17263 0
M  V30 11280 C 1031.52 3.50777 -3.86979 0
M  V30 11281 H 1033.21 1.79608 -2.39544 0
M  V30 11282 H 1030.76 0.862693 -1.15298 0
M  V30 11283 H 1032.71 3.99417 -1.34329 0
M  V30 11284 H 1031.44 3.24717 -0.350191 0
M  V30 11285 H 1030.1 2.75024 -2.42399 0
M  V30 11286 H 1029.74 4.89007 -1.17819 0
M  V30 11287 H 1029.44 5.09805 -2.92186 0
M  V30 11288 H 1030.97 5.69405 -2.20478 0
M  V30 11289 H 1032.38 4.19309 -3.90964 0
M  V30 11290 H 1030.78 3.83542 -4.61536 0
M  V30 11291 H 1031.85 2.49873 -4.15562 0
M  V30 11292 N 1033.19 1.2685 0.935242 0
M  V30 11293 C 1034.12 1.1143 2.05196 0
M  V30 11294 C 1035.1 0.0178362 1.70091 0
M  V30 11295 O 1036.29 0.190951 1.93259 0
M  V30 11296 C 1033.42 0.752779 3.39044 0
M  V30 11297 C 1032.37 1.80164 3.88233 0
M  V30 11298 C 1031.7 1.29428 5.18799 0
M  V30 11299 C 1033 3.20431 4.12457 0
M  V30 11300 H 1034.69 2.04845 2.18355 0
M  V30 11301 H 1032.24 0.986276 1.04922 0
M  V30 11302 H 1034.19 0.631757 4.16637 0
M  V30 11303 H 1032.91 -0.217075 3.25878 0
M  V30 11304 H 1031.57 1.91144 3.12825 0
M  V30 11305 H 1031.22 0.3141 5.02018 0
M  V30 11306 H 1030.92 1.99546 5.5268 0
M  V30 11307 H 1032.45 1.18605 5.9897 0
M  V30 11308 H 1033.86 3.12495 4.80645 0
M  V30 11309 H 1032.26 3.88193 4.57631 0
M  V30 11310 H 1033.33 3.66046 3.18023 0
M  V30 11311 N 1034.67 -1.14067 1.0875 0
M  V30 11312 C 1035.92 -1.85459 0.82053 0
M  V30 11313 C 1036.25 -1.82923 -0.65213 0
M  V30 11314 O 1035.52 -1.26241 -1.47965 0
M  V30 11315 C 1035.81 -3.33937 1.34752 0
M  V30 11316 C 1035.66 -3.45026 2.88578 0
M  V30 11317 C 1036.98 -4.2915 0.975636 0
M  V30 11318 H 1034.1 -0.673384 0.299538 0
M  V30 11319 H 1036.74 -1.33927 1.34772 0
M  V30 11320 H 1034.89 -3.77953 0.899086 0
M  V30 11321 H 1036.56 -3.09771 3.41818 0
M  V30 11322 H 1034.81 -2.86124 3.26061 0
M  V30 11323 H 1035.48 -4.49408 3.20526 0
M  V30 11324 H 1037.95 -3.93168 1.36228 0
M  V30 11325 H 1036.83 -5.31489 1.37152 0
M  V30 11326 H 1037.09 -4.41945 -0.116956 0
M  V30 11327 N 1036.15 -0.873678 -1.31166 0
M  V30 11328 C 1037.39 -0.487178 -1.96861 0
M  V30 11329 C 1037.73 0.95887 -1.68877 0
M  V30 11330 O 1037 1.6758 -0.987279 0
M  V30 11331 C 1037.29 -0.74925 -3.52219 0
M  V30 11332 C 1037.14 -2.2451 -3.89763 0
M  V30 11333 C 1038.46 -0.218194 -4.39559 0
M  V30 11334 H 1035.58 -0.178477 -0.715063 0
M  V30 11335 H 1038.22 -1.0956 -1.55231 0
M  V30 11336 H 1036.37 -0.231403 -3.8781 0
M  V30 11337 H 1038.04 -2.83049 -3.64254 0
M  V30 11338 H 1036.28 -2.71621 -3.38237 0
M  V30 11339 H 1036.95 -2.37911 -4.98099 0
M  V30 11340 H 1039.43 -0.661274 -4.10812 0
M  V30 11341 H 1038.31 -0.430983 -5.47205 0
M  V30 11342 H 1038.57 0.880056 -4.33252 0
M  V30 11343 N 1037.63 1.44308 -0.633487 0
M  V30 11344 C 1038.88 2.01239 -0.136356 0
M  V30 11345 C 1039.19 1.50438 1.25011 0
M  V30 11346 O 1040.39 1.99513 1.84138 0
M  V30 11347 C 1038.85 3.59382 -0.193011 0
M  V30 11348 C 1038.46 4.19178 -1.58093 0
M  V30 11349 C 1040.2 4.23778 0.247534 0
M  V30 11350 C 1038.11 5.69553 -1.59258 0
M  V30 11351 H 1037.04 0.752521 -0.0472109 0
M  V30 11352 H 1039.69 1.65498 -0.79263 0
M  V30 11353 H 1038.07 3.92432 0.530408 0
M  V30 11354 H 1039.25 3.97662 -2.32813 0
M  V30 11355 H 1037.56 3.67079 -1.96576 0
M  V30 11356 H 1040.16 5.34075 0.258401 0
M  V30 11357 H 1040.5 3.96285 1.27529 0
M  V30 11358 H 1041.03 3.9554 -0.423469 0
M  V30 11359 H 1037.77 6.01784 -2.59878 0
M  V30 11360 H 1037.29 5.93185 -0.888352 0
M  V30 11361 H 1038.97 6.33234 -1.32756 0
M  V30 11362 N 1039.1 0.374177 1.53094 0
M  V30 11363 C 1040.03 -0.459976 2.28925 0
M  V30 11364 C 1041.02 -1.07656 1.31698 0
M  V30 11365 O 1042.2 -1.09219 1.60577 0
M  V30 11366 C 1039.33 -1.5954 3.08487 0
M  V30 11367 C 1038.28 -1.10563 4.13473 0
M  V30 11368 C 1037.61 -2.33196 4.81169 0
M  V30 11369 C 1038.91 -0.184275 5.21975 0
M  V30 11370 H 1040.6 0.172692 2.98902 0
M  V30 11371 H 1038.15 0.0844956 1.43752 0
M  V30 11372 H 1040.1 -2.18565 3.60288 0
M  V30 11373 H 1038.83 -2.25543 2.36216 0
M  V30 11374 H 1037.49 -0.53801 3.62631 0
M  V30 11375 H 1037.13 -2.97675 4.05461 0
M  V30 11376 H 1036.83 -2.01094 5.52119 0
M  V30 11377 H 1038.36 -2.92892 5.35767 0
M  V30 11378 H 1039.77 -0.682262 5.69226 0
M  V30 11379 H 1038.17 0.0462746 6.00082 0
M  V30 11380 H 1039.24 0.771152 4.78729 0
M  V30 11381 N 1040.58 -1.57259 0.103575 0
M  V30 11382 C 1041.53 -2.14487 -0.852295 0
M  V30 11383 C 1042.5 -1.06567 -1.27407 0
M  V30 11384 O 1043.68 -1.34398 -1.35432 0
M  V30 11385 C 1040.82 -2.73632 -2.10284 0
M  V30 11386 C 1039.94 -3.95811 -1.73083 0
M  V30 11387 C 1039.07 -4.43093 -2.92988 0
M  V30 11388 C 1038.11 -5.5784 -2.51953 0
M  V30 11389 N 1037.25 -5.99936 -3.64721 0
M  V30 11390 H 1042.09 -2.95849 -0.35743 0
M  V30 11391 H 1039.63 -1.46175 -0.164748 0
M  V30 11392 H 1041.58 -3.06046 -2.83534 0
M  V30 11393 H 1040.21 -1.94985 -2.57256 0
M  V30 11394 H 1039.27 -3.69656 -0.897688 0
M  V30 11395 H 1040.58 -4.79066 -1.38916 0
M  V30 11396 H 1039.73 -4.77335 -3.74481 0
M  V30 11397 H 1038.47 -3.58756 -3.30372 0
M  V30 11398 H 1037.48 -5.23217 -1.6889 0
M  V30 11399 H 1038.7 -6.43932 -2.15705 0
M  V30 11400 H 1036.65 -5.18543 -4.01807 0
M  V30 11401 H 1036.56 -6.78008 -3.34427 0
M  V30 11402 H 1037.83 -6.38812 -4.46699 0
M  V30 11403 N 1042.06 0.170153 -1.56679 0
M  V30 11404 C 1042.99 1.21285 -1.9953 0
M  V30 11405 C 1043.97 1.46104 -0.871071 0
M  V30 11406 O 1045.16 1.57419 -1.13724 0
M  V30 11407 C 1042.29 2.5515 -2.35618 0
M  V30 11408 C 1041.24 2.44898 -3.51011 0
M  V30 11409 C 1040.57 3.83263 -3.72845 0
M  V30 11410 C 1041.87 1.95271 -4.84424 0
M  V30 11411 H 1043.56 0.856646 -2.86883 0
M  V30 11412 H 1041.11 0.410634 -1.38021 0
M  V30 11413 H 1043.06 3.28299 -2.64193 0
M  V30 11414 H 1041.78 2.92561 -1.45175 0
M  V30 11415 H 1040.44 1.74203 -3.22566 0
M  V30 11416 H 1040.09 4.18069 -2.79691 0
M  V30 11417 H 1039.79 3.77272 -4.50488 0
M  V30 11418 H 1041.31 4.57996 -4.03822 0
M  V30 11419 H 1042.73 2.58195 -5.11867 0
M  V30 11420 H 1041.13 2.00225 -5.65712 0
M  V30 11421 H 1042.2 0.90709 -4.7634 0
M  V30 11422 N 1043.54 1.5137 0.438746 0
M  V30 11423 C 1044.79 1.63645 1.18595 0
M  V30 11424 C 1045.11 0.354241 1.91755 0
M  V30 11425 O 1044.38 -0.629838 1.85499 0
M  V30 11426 H 1042.96 0.603103 0.440767 0
M  V30 11427 H 1045.62 1.88293 0.503159 0
M  V30 11428 H 1044.72 2.46342 1.9163 0
M  V30 11429 N 1045.02 -0.694098 1.41492 0
M  V30 11430 C 1045.96 -1.82932 1.43662 0
M  V30 11431 C 1046.96 -1.66455 0.31449 0
M  V30 11432 O 1048.16 -1.73298 0.486589 0
M  V30 11433 H 1044.54 -0.602847 0.449533 0
M  V30 11434 H 1046.51 -1.78218 2.39334 0
M  V30 11435 C 1045.26 -3.20962 1.33712 0
M  V30 11436 H 1044.58 -3.34257 2.19345 0
M  V30 11437 H 1046.02 -4.00467 1.39291 0
M  V30 11438 C 1044.48 -3.36863 0.0496332 0
M  V30 11439 O 1045.01 -3.91371 -0.905093 0
M  V30 11440 N 1043.22 -2.90588 -0.0269299 0
M  V30 11441 H 1042.76 -2.46417 0.750752 0
M  V30 11442 H 1042.72 -3.01605 -0.887781 0
M  V30 11443 N 1046.49 -1.27344 -0.928501 0
M  V30 11444 C 1047.42 -1.12517 -2.04602 0
M  V30 11445 C 1048.41 -0.0268563 -1.70079 0
M  V30 11446 O 1049.59 -0.201197 -1.93155 0
M  V30 11447 C 1046.72 -0.770749 -3.3864 0
M  V30 11448 C 1045.67 -1.8222 -3.87272 0
M  V30 11449 C 1045 -1.32178 -5.18105 0
M  V30 11450 C 1046.3 -3.22614 -4.10752 0
M  V30 11451 H 1047.99 -2.06 -2.17265 0
M  V30 11452 H 1045.54 -0.991827 -1.04397 0
M  V30 11453 H 1047.49 -0.653843 -4.16297 0
M  V30 11454 H 1046.22 0.19979 -3.25988 0
M  V30 11455 H 1044.88 -1.928 -3.11807 0
M  V30 11456 H 1044.52 -0.340719 -5.01845 0
M  V30 11457 H 1044.22 -2.02474 -5.51614 0
M  V30 11458 H 1045.75 -1.2178 -5.98333 0
M  V30 11459 H 1047.16 -3.1504 -4.78981 0
M  V30 11460 H 1045.56 -3.90614 -4.55566 0
M  V30 11461 H 1046.63 -3.67727 -3.16077 0
M  V30 11462 N 1047.97 1.13488 -1.09353 0
M  V30 11463 C 1048.9 2.20988 -0.75409 0
M  V30 11464 C 1049.88 1.67977 0.267901 0
M  V30 11465 O 1051.07 1.93722 0.136128 0
M  V30 11466 C 1048.2 3.46869 -0.173042 0
M  V30 11467 C 1047.15 4.12965 -1.12446 0
M  V30 11468 C 1046.48 5.33163 -0.405157 0
M  V30 11469 C 1047.78 4.60388 -2.46658 0
M  V30 11470 H 1049.47 2.49639 -1.6529 0
M  V30 11471 H 1047.02 1.19987 -0.796182 0
M  V30 11472 H 1048.97 4.21331 0.0764988 0
M  V30 11473 H 1047.7 3.17611 0.760956 0
M  V30 11474 H 1046.35 3.40469 -1.35927 0
M  V30 11475 H 1046 5.00169 0.532955 0
M  V30 11476 H 1045.7 5.78332 -1.03952 0
M  V30 11477 H 1047.23 6.1038 -0.163899 0
M  V30 11478 H 1048.64 5.26276 -2.27389 0
M  V30 11479 H 1047.04 5.16294 -3.05876 0
M  V30 11480 H 1048.11 3.74949 -3.07476 0
M  V30 11481 N 1049.45 0.880621 1.30701 0
M  V30 11482 C 1050.86 0.547993 1.78477 0
M  V30 11483 C 1051.21 -0.935633 1.72454 0
M  V30 11484 O 1050.34 -1.73094 1.29874 0
M  V30 11485 C 1050.93 0.98795 3.24076 0
M  V30 11486 C 1049.49 0.706805 3.69704 0
M  V30 11487 C 1048.64 1.17335 2.51252 0
M  V30 11488 H 1051.59 1.06528 1.17633 0
M  V30 11489 H 1051.61 0.31508 3.79193 0
M  V30 11490 H 1051.12 2.06778 3.28427 0
M  V30 11491 H 1049.22 -0.36122 3.70845 0
M  V30 11492 H 1049.34 1.2913 4.6137 0
M  V30 11493 H 1047.7 0.592808 2.47705 0
M  V30 11494 H 1048.48 2.26083 2.58343 0
M  V30 11495 N 1050.93 -1.4397 0.641131 0
M  V30 11496 C 1052.16 -2.06004 0.156779 0
M  V30 11497 C 1052.57 -1.48059 -1.17793 0
M  V30 11498 O 1051.91 -0.601788 -1.73563 0
M  V30 11499 C 1051.97 -3.59493 -0.0217203 0
M  V30 11500 C 1051.64 -4.39957 1.23639 0
M  V30 11501 C 1052.63 -4.72797 2.16239 0
M  V30 11502 C 1050.32 -4.80168 1.4746 0
M  V30 11503 C 1052.31 -5.44741 3.30962 0
M  V30 11504 C 1050 -5.51859 2.62478 0
M  V30 11505 C 1051 -5.84067 3.54055 0
M  V30 11506 O 1050.69 -6.54296 4.67067 0
M  V30 11507 H 1050.42 -0.671061 0.0815685 0
M  V30 11508 H 1052.97 -1.85664 0.878517 0
M  V30 11509 H 1051.2 -3.78362 -0.798707 0
M  V30 11510 H 1052.89 -4.03263 -0.461893 0
M  V30 11511 H 1053.66 -4.42261 1.99073 0
M  V30 11512 H 1049.54 -4.54513 0.770652 0
M  V30 11513 H 1053.08 -5.69798 4.02462 0
M  V30 11514 H 1048.98 -5.81811 2.79583 0
M  V30 11515 H 1049.74 -6.72772 4.66177 0
M  V30 11516 N 1052.41 -0.382291 -1.52893 0
M  V30 11517 C 1053.63 0.204961 -2.06385 0
M  V30 11518 C 1054.06 1.40316 -1.25271 0
M  V30 11519 O 1053.42 1.79187 -0.275969 0
M  V30 11520 C 1053.46 0.560205 -3.56222 0
M  V30 11521 O 1052.57 1.65515 -3.77728 0
M  V30 11522 H 1051.91 0.0258798 -0.663495 0
M  V30 11523 H 1054.44 -0.547733 -1.97132 0
M  V30 11524 H 1054.45 0.826501 -3.99541 0
M  V30 11525 H 1053.12 -0.31584 -4.14699 0
M  V30 11526 H 1051.7 1.38311 -3.46301 0
M  V30 11527 N 1053.89 1.57202 -0.111913 0
M  V30 11528 C 1055.16 1.86459 0.590972 0
M  V30 11529 C 1055.54 1.01182 1.85271 0
M  V30 11530 O 1054.89 0.0887891 2.28327 0
M  V30 11531 C 1055.1 3.37455 0.890225 0
M  V30 11532 C 1056.45 4.05895 1.24638 0
M  V30 11533 O 1057.47 3.42433 0.980713 0
M  V30 11534 O 1056.33 5.17903 1.74466 0
M  V30 11535 H 1053.43 0.771652 0.297459 0
M  V30 11536 H 1055.97 1.69072 -0.145882 0
M  V30 11537 H 1054.74 3.913 -0.00419012 0
M  V30 11538 H 1054.37 3.60248 1.68248 0
M  V30 11539 N 1055.36 -0.161842 1.56767 0
M  V30 11540 C 1056.77 -0.723385 1.72116 0
M  V30 11541 C 1057.13 -1.82355 0.723961 0
M  V30 11542 O 1056.25 -2.16107 -0.112643 0
M  V30 11543 C 1056.85 -1.31895 3.12072 0
M  V30 11544 C 1055.4 -1.82722 3.29074 0
M  V30 11545 C 1054.55 -0.709863 2.6806 0
M  V30 11546 H 1057.5 0.0636647 1.58572 0
M  V30 11547 H 1057.52 -2.18871 3.11249 0
M  V30 11548 H 1057.04 -0.51801 3.84627 0
M  V30 11549 H 1055.14 -2.6543 2.61491 0
M  V30 11550 H 1055.25 -1.96614 4.36898 0
M  V30 11551 H 1053.61 -1.13273 2.28126 0
M  V30 11552 H 1054.4 0.0793884 3.43208 0
M  V30 11553 N 1056.84 -1.516 -0.430713 0
M  V30 11554 C 1058.07 -1.687 -1.20644 0
M  V30 11555 C 1058.49 -0.386555 -1.84085 0
M  V30 11556 O 1057.85 0.653952 -1.69095 0
M  V30 11557 C 1057.9 -2.80887 -2.2613 0
M  V30 11558 O 1057 -2.44952 -3.31772 0
M  V30 11559 H 1056.34 -0.562289 -0.353167 0
M  V30 11560 H 1058.87 -1.98198 -0.507807 0
M  V30 11561 H 1058.88 -3.05167 -2.70809 0
M  V30 11562 H 1057.56 -3.75249 -1.79334 0
M  V30 11563 H 1056.13 -2.31267 -2.92523 0
M  V30 11564 N 1058.32 0.686584 -1.41858 0
M  V30 11565 C 1059.57 1.44879 -1.41908 0
M  V30 11566 C 1059.9 1.94175 -0.0311408 0
M  V30 11567 O 1059.17 1.70131 0.942646 0
M  V30 11568 C 1059.46 2.65428 -2.43352 0
M  V30 11569 C 1059.31 2.2184 -3.91289 0
M  V30 11570 C 1060.63 3.67635 -2.41934 0
M  V30 11571 H 1057.75 0.525477 -0.516762 0
M  V30 11572 H 1060.39 0.781263 -1.73194 0
M  V30 11573 H 1058.54 3.2238 -2.16803 0
M  V30 11574 H 1060.21 1.70146 -4.28775 0
M  V30 11575 H 1058.45 1.53531 -4.05722 0
M  V30 11576 H 1059.13 3.08376 -4.5783 0
M  V30 11577 H 1061.6 3.20376 -2.65516 0
M  V30 11578 H 1060.48 4.49579 -3.14913 0
M  V30 11579 H 1060.74 4.17953 -1.44111 0
M  V30 11580 N 1059.8 1.27835 0.921735 0
M  V30 11581 C 1061.04 1.14692 1.67253 0
M  V30 11582 C 1061.38 -0.305384 1.91784 0
M  V30 11583 O 1060.65 -1.22286 1.51249 0
M  V30 11584 C 1060.93 1.93743 3.03539 0
M  V30 11585 C 1060.79 3.46991 2.86212 0
M  V30 11586 C 1062.11 1.74658 4.03959 0
M  V30 11587 H 1059.23 0.418021 0.606983 0
M  V30 11588 H 1061.87 1.5706 1.06922 0
M  V30 11589 H 1060.02 1.57738 3.55037 0
M  V30 11590 H 1061.69 3.92858 2.41785 0
M  V30 11591 H 1059.93 3.73029 2.21432 0
M  V30 11592 H 1060.6 3.97551 3.82958 0
M  V30 11593 H 1063.08 2.06063 3.61493 0
M  V30 11594 H 1061.96 2.32353 4.97296 0
M  V30 11595 H 1062.22 0.696019 4.36587 0
M  V30 11596 N 1061.28 -1.12907 1.09954 0
M  V30 11597 C 1062.52 -1.84306 0.838912 0
M  V30 11598 C 1062.85 -1.83825 -0.635508 0
M  V30 11599 O 1062.11 -1.27556 -1.48418 0
M  V30 11600 C 1062.4 -3.31885 1.32616 0
M  V30 11601 C 1062.07 -3.52542 2.81114 0
M  V30 11602 C 1060.73 -3.57888 3.21667 0
M  V30 11603 C 1063.08 -3.60065 3.76833 0
M  V30 11604 C 1060.41 -3.68296 4.567 0
M  V30 11605 C 1062.76 -3.72001 5.11662 0
M  V30 11606 C 1061.43 -3.75602 5.51797 0
M  V30 11607 H 1060.7 -0.674422 0.30698 0
M  V30 11608 H 1063.35 -1.33261 1.37527 0
M  V30 11609 H 1061.65 -3.85318 0.709719 0
M  V30 11610 H 1063.35 -3.85588 1.10105 0
M  V30 11611 H 1059.94 -3.4904 2.48735 0
M  V30 11612 H 1064.12 -3.55209 3.46612 0
M  V30 11613 H 1059.38 -3.69352 4.87226 0
M  V30 11614 H 1063.55 -3.76765 5.8568 0
M  V30 11615 H 1061.18 -3.83419 6.56425 0
M  V30 11616 N 1062.75 -0.88754 -1.30232 0
M  V30 11617 C 1064 -0.508031 -1.96334 0
M  V30 11618 C 1064.33 0.940905 -1.69884 0
M  V30 11619 O 1063.61 1.66523 -1.005 0
M  V30 11620 C 1063.89 -0.786566 -3.51405 0
M  V30 11621 C 1063.74 -2.28632 -3.8736 0
M  V30 11622 C 1065.06 -0.264803 -4.39303 0
M  V30 11623 H 1062.18 -0.186051 -0.71313 0
M  V30 11624 H 1064.82 -1.112 -1.5406 0
M  V30 11625 H 1062.97 -0.272523 -3.87543 0
M  V30 11626 H 1064.65 -2.86896 -3.61231 0
M  V30 11627 H 1062.89 -2.75194 -3.35337 0
M  V30 11628 H 1063.56 -2.43181 -4.95547 0
M  V30 11629 H 1066.04 -0.704809 -4.10087 0
M  V30 11630 H 1064.91 -0.488998 -5.46717 0
M  V30 11631 H 1065.17 0.834055 -4.34161 0
M  V30 11632 N 1064.23 1.43628 -0.648757 0
M  V30 11633 C 1065.48 2.01864 -0.160336 0
M  V30 11634 C 1065.81 1.51148 1.22412 0
M  V30 11635 O 1065.06 0.693168 1.83013 0
M  V30 11636 C 1065.36 3.57214 -0.115282 0
M  V30 11637 C 1065.03 4.27258 -1.44088 0
M  V30 11638 C 1063.69 4.46109 -1.8039 0
M  V30 11639 C 1066.04 4.66962 -2.31508 0
M  V30 11640 C 1063.37 5.01928 -3.03785 0
M  V30 11641 C 1065.72 5.24148 -3.54191 0
M  V30 11642 C 1064.39 5.41216 -3.90694 0
M  V30 11643 H 1063.66 0.738674 -0.0586712 0
M  V30 11644 H 1066.3 1.72163 -0.838578 0
M  V30 11645 H 1064.61 3.86431 0.646395 0
M  V30 11646 H 1066.3 4.00025 0.279425 0
M  V30 11647 H 1062.89 4.12928 -1.14842 0
M  V30 11648 H 1067.08 4.52095 -2.04753 0
M  V30 11649 H 1062.33 5.13328 -3.32122 0
M  V30 11650 H 1066.51 5.53861 -4.22151 0
M  V30 11651 H 1064.14 5.84234 -4.8639 0
M  V30 11652 N 1065.71 0.390394 1.52688 0
M  V30 11653 C 1066.64 -0.43567 2.294 0
M  V30 11654 C 1067.62 -1.06253 1.32832 0
M  V30 11655 O 1068.81 -1.07509 1.61726 0
M  V30 11656 C 1065.94 -1.56259 3.10162 0
M  V30 11657 C 1064.89 -1.06172 4.14622 0
M  V30 11658 C 1064.22 -2.2808 4.83615 0
M  V30 11659 C 1065.52 -0.128902 5.22141 0
M  V30 11660 H 1067.21 0.204384 2.98702 0
M  V30 11661 H 1064.76 0.0997377 1.43654 0
M  V30 11662 H 1066.71 -2.14732 3.62585 0
M  V30 11663 H 1065.43 -2.23025 2.38595 0
M  V30 11664 H 1064.09 -0.499518 3.63181 0
M  V30 11665 H 1063.74 -2.93358 4.08595 0
M  V30 11666 H 1063.44 -1.95227 5.5422 0
M  V30 11667 H 1064.96 -2.87193 5.38844 0
M  V30 11668 H 1066.38 -0.621849 5.69917 0
M  V30 11669 H 1064.78 0.109919 5.99999 0
M  V30 11670 H 1065.85 0.821884 4.77884 0
M  V30 11671 N 1067.19 -1.57141 0.120249 0
M  V30 11672 C 1068.41 -2.00017 -0.548454 0
M  V30 11673 C 1068.84 -0.999433 -1.59352 0
M  V30 11674 O 1068.2 0.0286978 -1.81277 0
M  V30 11675 C 1068.24 -3.41766 -1.15015 0
M  V30 11676 O 1067.35 -3.44589 -2.26566 0
M  V30 11677 H 1066.69 -0.649739 -0.136875 0
M  V30 11678 H 1069.22 -2.03529 0.209092 0
M  V30 11679 H 1069.23 -3.80001 -1.48537 0
M  V30 11680 H 1067.9 -4.14117 -0.384681 0
M  V30 11681 H 1066.48 -3.18174 -1.94473 0
M  V30 11682 N 1068.67 0.153526 -1.5685 0
M  V30 11683 C 1069.91 0.868517 -1.83261 0
M  V30 11684 C 1070.25 1.81112 -0.700857 0
M  V30 11685 O 1069.52 1.92235 0.295989 0
M  V30 11686 C 1069.8 1.6487 -3.2014 0
M  V30 11687 C 1069.66 0.728021 -4.43869 0
M  V30 11688 C 1070.98 2.61259 -3.54163 0
M  V30 11689 H 1068.09 0.314297 -0.666623 0
M  V30 11690 H 1070.74 0.133971 -1.89527 0
M  V30 11691 H 1068.89 2.2749 -3.1493 0
M  V30 11692 H 1070.56 0.113328 -4.61161 0
M  V30 11693 H 1068.8 0.0371744 -4.33784 0
M  V30 11694 H 1069.47 1.30981 -5.36235 0
M  V30 11695 H 1071.95 2.0876 -3.59942 0
M  V30 11696 H 1070.82 3.12902 -4.50981 0
M  V30 11697 H 1071.09 3.42307 -2.79782 0
M  V30 11698 N 1070.14 1.51827 0.422667 0
M  V30 11699 C 1071.39 1.6522 1.17084 0
M  V30 11700 C 1071.72 0.375508 1.90841 0
M  V30 11701 O 1070.97 -0.641029 1.84903 0
M  V30 11702 C 1071.27 2.81572 2.20119 0
M  V30 11703 C 1070.94 4.20303 1.63268 0
M  V30 11704 C 1069.6 4.5804 1.47488 0
M  V30 11705 C 1071.95 5.06812 1.21618 0
M  V30 11706 C 1069.28 5.79979 0.885531 0
M  V30 11707 C 1071.63 6.29343 0.641071 0
M  V30 11708 C 1070.3 6.65841 0.470286 0
M  V30 11709 H 1069.57 0.604581 0.428442 0
M  V30 11710 H 1072.21 1.85896 0.459874 0
M  V30 11711 H 1070.52 2.55175 2.97309 0
M  V30 11712 H 1072.22 2.89132 2.77856 0
M  V30 11713 H 1068.81 3.90557 1.76531 0
M  V30 11714 H 1072.99 4.78251 1.32624 0
M  V30 11715 H 1068.25 6.06892 0.741105 0
M  V30 11716 H 1072.42 6.9571 0.309888 0
M  V30 11717 H 1070.05 7.60199 0.0115038 0
M  V30 11718 N 1071.62 -0.679052 1.4222 0
M  V30 11719 C 1072.59 -1.77448 1.45069 0
M  V30 11720 C 1073.59 -1.57189 0.338882 0
M  V30 11721 O 1074.78 -1.63559 0.599519 0
M  V30 11722 C 1071.91 -3.1603 1.27819 0
M  V30 11723 H 1073.1 -1.7631 2.426 0
M  V30 11724 H 1070.65 -0.888277 1.28605 0
M  V30 11725 H 1071.39 -3.22796 0.311946 0
M  V30 11726 H 1071.17 -3.32138 2.08391 0
M  V30 11727 H 1072.66 -3.9596 1.32686 0
M  V30 11728 N 1073.1 -1.28322 -0.914942 0
M  V30 11729 C 1074.35 -1.15578 -1.66642 0
M  V30 11730 C 1074.68 0.295209 -1.91943 0
M  V30 11731 O 1073.95 1.21482 -1.51896 0
M  V30 11732 C 1074.24 -1.9535 -3.02507 0
M  V30 11733 C 1074.09 -3.48504 -2.84367 0
M  V30 11734 C 1075.41 -1.76798 -4.03027 0
M  V30 11735 H 1072.53 -0.421234 -0.604757 0
M  V30 11736 H 1075.17 -1.57625 -1.06087 0
M  V30 11737 H 1073.32 -1.59619 -3.54195 0
M  V30 11738 H 1074.99 -3.94135 -2.39699 0
M  V30 11739 H 1073.24 -3.74198 -2.1945 0
M  V30 11740 H 1073.91 -3.99576 -3.80845 0
M  V30 11741 H 1076.38 -2.07977 -3.60395 0
M  V30 11742 H 1075.26 -2.34987 -4.96057 0
M  V30 11743 H 1075.52 -0.719162 -4.36211 0
M  V30 11744 N 1074.58 1.12322 -1.10551 0
M  V30 11745 C 1075.82 1.8413 -0.849932 0
M  V30 11746 C 1076.16 1.83938 0.622946 0
M  V30 11747 O 1075.43 1.28579 1.45937 0
M  V30 11748 C 1075.72 3.31751 -1.40048 0
M  V30 11749 C 1075.57 3.40391 -2.9403 0
M  V30 11750 C 1076.89 4.27543 -1.04379 0
M  V30 11751 H 1074.01 0.668533 -0.310213 0
M  V30 11752 H 1076.65 1.31766 -1.36886 0
M  V30 11753 H 1074.8 3.76475 -0.959102 0
M  V30 11754 H 1076.47 3.04294 -3.46703 0
M  V30 11755 H 1074.71 2.809 -3.30571 0
M  V30 11756 H 1075.38 4.44252 -3.27635 0
M  V30 11757 H 1077.86 3.90951 -1.42466 0
M  V30 11758 H 1076.74 5.2924 -1.4559 0
M  V30 11759 H 1077 4.42075 0.0466316 0
M  V30 11760 N 1076.06 0.894434 1.2976 0
M  V30 11761 C 1077.28 0.532916 1.99919 0
M  V30 11762 C 1077.7 -0.881022 1.66983 0
M  V30 11763 O 1077.06 -1.58076 0.912035 0
M  V30 11764 C 1077.11 0.70936 3.54472 0
M  V30 11765 O 1076.83 2.06764 3.86239 0
M  V30 11766 C 1078.33 0.352089 4.419 0
M  V30 11767 H 1075.55 0.205019 0.638912 0
M  V30 11768 H 1078.09 1.20233 1.65421 0
M  V30 11769 H 1076.25 0.0871901 3.87302 0
M  V30 11770 H 1076.66 2.09315 4.80924 0
M  V30 11771 H 1078.14 0.526405 5.49484 0
M  V30 11772 H 1078.61 -0.710527 4.33415 0
M  V30 11773 H 1079.22 0.950979 4.14532 0
M  V30 11774 N 1077.53 -1.43282 0.656365 0
M  V30 11775 C 1078.78 -2.00996 0.168354 0
M  V30 11776 C 1079.1 -1.52408 -1.22601 0
M  V30 11777 O 1080.3 -2.02417 -1.80941 0
M  V30 11778 C 1078.76 -3.5903 0.250161 0
M  V30 11779 C 1078.37 -4.1661 1.64742 0
M  V30 11780 C 1080.11 -4.24118 -0.180084 0
M  V30 11781 C 1078.02 -5.66948 1.68299 0
M  V30 11782 H 1076.95 -0.751674 0.0591769 0
M  V30 11783 H 1079.6 -1.64216 0.818859 0
M  V30 11784 H 1077.98 -3.93226 -0.467908 0
M  V30 11785 H 1079.15 -3.93908 2.3911 0
M  V30 11786 H 1077.47 -3.63905 2.02391 0
M  V30 11787 H 1080.07 -5.34419 -0.173401 0
M  V30 11788 H 1080.41 -3.98264 -1.21208 0
M  V30 11789 H 1080.94 -3.94816 0.486343 0
M  V30 11790 H 1077.68 -5.97573 2.69419 0
M  V30 11791 H 1077.2 -5.91697 0.98261 0
M  V30 11792 H 1078.88 -6.31041 1.42813 0
M  V30 11793 N 1079.01 -0.398486 -1.52479 0
M  V30 11794 C 1079.94 0.423498 -2.29627 0
M  V30 11795 C 1080.92 1.05547 -1.33394 0
M  V30 11796 O 1082.11 1.0665 -1.62294 0
M  V30 11797 C 1079.24 1.54612 -3.10986 0
M  V30 11798 C 1078.19 1.03971 -4.15179 0
M  V30 11799 C 1077.52 2.25512 -4.84818 0
M  V30 11800 C 1078.82 0.10121 -5.22202 0
M  V30 11801 H 1080.51 -0.220222 -2.98589 0
M  V30 11802 H 1078.06 -0.107355 -1.43599 0
M  V30 11803 H 1080.01 2.12806 -3.63719 0
M  V30 11804 H 1078.74 2.21756 -2.39774 0
M  V30 11805 H 1077.4 0.480251 -3.63441 0
M  V30 11806 H 1077.04 2.91187 -4.10145 0
M  V30 11807 H 1076.74 1.92285 -5.55248 0
M  V30 11808 H 1078.27 2.84331 -5.40359 0
M  V30 11809 H 1079.68 0.591617 -5.70239 0
M  V30 11810 H 1078.08 -0.141737 -5.99933 0
M  V30 11811 H 1079.15 -0.847216 -4.77441 0
M  V30 11812 N 1080.49 1.57075 -0.12858 0
M  V30 11813 C 1081.42 2.12907 0.848708 0
M  V30 11814 C 1082.44 1.07406 1.22343 0
M  V30 11815 O 1083.63 1.34746 1.17071 0
M  V30 11816 C 1080.73 2.62167 2.1476 0
M  V30 11817 C 1079.9 3.91871 1.94309 0
M  V30 11818 C 1078.96 4.26629 3.08016 0
M  V30 11819 O 1077.98 4.9528 2.80511 0
M  V30 11820 N 1079.19 3.84721 4.34706 0
M  V30 11821 H 1081.95 2.97387 0.371636 0
M  V30 11822 H 1079.51 1.61805 0.0555574 0
M  V30 11823 H 1081.5 2.82444 2.89841 0
M  V30 11824 H 1080.07 1.82514 2.53786 0
M  V30 11825 H 1079.29 3.80406 1.03367 0
M  V30 11826 H 1080.58 4.76662 1.77962 0
M  V30 11827 H 1079.98 3.2937 4.59926 0
M  V30 11828 H 1078.54 4.10087 5.06628 0
M  V30 11829 N 1081.97 -0.145205 1.5693 0
M  V30 11830 C 1083.21 -0.863709 1.85255 0
M  V30 11831 C 1083.57 -1.78266 0.713112 0
M  V30 11832 O 1084.77 -2.54075 0.877459 0
M  V30 11833 C 1083.05 -1.61628 3.18765 0
M  V30 11834 S 1084.6 -2.37996 3.68651 0
M  V30 11835 H 1081.42 -0.288792 0.649708 0
M  V30 11836 H 1084.02 -0.123603 1.95109 0
M  V30 11837 H 1082.73 -0.932688 3.99661 0
M  V30 11838 H 1082.26 -2.39726 3.11921 0
M  V30 11839 H 1084.27 -3.63223 3.38058 0
M  V30 11840 N 1083.45 -1.52049 -0.414609 0
M  V30 11841 C 1084.69 -1.65838 -1.16206 0
M  V30 11842 C 1085.02 -0.385623 -1.90639 0
M  V30 11843 O 1084.28 0.631214 -1.85241 0
M  V30 11844 C 1084.58 -2.82735 -2.18622 0
M  V30 11845 C 1084.24 -4.21163 -1.61037 0
M  V30 11846 C 1082.9 -4.58816 -1.45056 0
M  V30 11847 C 1085.26 -5.0745 -1.18928 0
M  V30 11848 C 1082.58 -5.8044 -0.854761 0
M  V30 11849 C 1084.94 -6.29674 -0.607686 0
M  V30 11850 C 1083.6 -6.66081 -0.434968 0
M  V30 11851 H 1082.87 -0.606845 -0.425229 0
M  V30 11852 H 1085.52 -1.86137 -0.450009 0
M  V30 11853 H 1083.82 -2.56749 -2.95952 0
M  V30 11854 H 1085.52 -2.90601 -2.76319 0
M  V30 11855 H 1082.11 -3.91488 -1.74457 0
M  V30 11856 H 1086.29 -4.78948 -1.30086 0
M  V30 11857 H 1081.55 -6.07276 -0.70891 0
M  V30 11858 H 1085.72 -6.95865 -0.272988 0
M  V30 11859 H 1083.35 -7.60195 0.0288116 0
M  V30 11860 N 1084.93 0.6715 -1.42579 0
M  V30 11861 C 1085.86 1.79693 -1.49107 0
M  V30 11862 C 1086.84 1.66516 -0.347338 0
M  V30 11863 O 1088.02 1.85887 -0.562094 0
M  V30 11864 C 1085.15 3.1801 -1.39596 0
M  V30 11865 C 1084.11 3.45926 -2.5203 0
M  V30 11866 C 1083.43 4.83852 -2.27577 0
M  V30 11867 C 1084.73 3.4249 -3.94333 0
M  V30 11868 H 1086.43 1.74486 -2.433 0
M  V30 11869 H 1083.97 0.838042 -1.17102 0
M  V30 11870 H 1085.92 3.96478 -1.42771 0
M  V30 11871 H 1084.65 3.23901 -0.418989 0
M  V30 11872 H 1083.31 2.6982 -2.48178 0
M  V30 11873 H 1082.96 4.86398 -1.28165 0
M  V30 11874 H 1082.66 5.03493 -3.02934 0
M  V30 11875 H 1084.18 5.646 -2.32506 0
M  V30 11876 H 1085.59 4.10922 -3.9977 0
M  V30 11877 H 1083.99 3.73666 -4.69568 0
M  V30 11878 H 1085.06 2.41002 -4.20768 0
M  V30 11879 N 1086.4 1.28806 0.908124 0
M  V30 11880 C 1087.65 1.15663 1.65242 0
M  V30 11881 C 1087.97 -0.292883 1.93395 0
M  V30 11882 O 1089.17 -0.545509 2.65963 0
M  V30 11883 C 1087.63 2.02233 2.97707 0
M  V30 11884 C 1087.24 3.51958 2.77181 0
M  V30 11885 C 1088.98 1.97792 3.75604 0
M  V30 11886 C 1086.89 4.3066 4.05322 0
M  V30 11887 H 1085.82 0.42928 0.619867 0
M  V30 11888 H 1088.47 1.5338 1.00731 0
M  V30 11889 H 1086.85 1.57377 3.63385 0
M  V30 11890 H 1088.02 4.0481 2.20149 0
M  V30 11891 H 1086.34 3.57983 2.12691 0
M  V30 11892 H 1088.94 2.53858 4.70596 0
M  V30 11893 H 1089.28 0.955956 4.05175 0
M  V30 11894 H 1089.81 2.40648 3.16755 0
M  V30 11895 H 1086.55 5.3346 3.8092 0
M  V30 11896 H 1086.07 3.8258 4.61944 0
M  V30 11897 H 1087.75 4.40878 4.73535 0
M  V30 11898 N 1087.88 -1.11734 1.11145 0
M  V30 11899 C 1089.11 -1.87755 0.881062 0
M  V30 11900 C 1089.53 -1.79461 -0.563496 0
M  V30 11901 O 1088.89 -1.15481 -1.39763 0
M  V30 11902 C 1088.94 -3.34641 1.34342 0
M  V30 11903 O 1088.04 -4.09195 0.513157 0
M  V30 11904 H 1087.38 -0.583111 0.317613 0
M  V30 11905 H 1089.91 -1.41256 1.48013 0
M  V30 11906 H 1089.92 -3.85486 1.33658 0
M  V30 11907 H 1088.6 -3.39994 2.39534 0
M  V30 11908 H 1087.17 -3.68269 0.585833 0
M  V30 11909 N 1089.36 -0.901303 -1.29284 0
M  V30 11910 C 1090.59 -0.543511 -1.99634 0
M  V30 11911 C 1091 0.872154 -1.67448 0
M  V30 11912 O 1090.36 1.57591 -0.920406 0
M  V30 11913 C 1090.41 -0.728148 -3.54091 0
M  V30 11914 O 1090.13 -2.08809 -3.85137 0
M  V30 11915 C 1091.63 -0.375519 -4.41707 0
M  V30 11916 H 1088.85 -0.208405 -0.637815 0
M  V30 11917 H 1091.4 -1.21109 -1.64781 0
M  V30 11918 H 1089.55 -0.107728 -3.8725 0
M  V30 11919 H 1089.97 -2.11863 -4.79807 0
M  V30 11920 H 1091.44 -0.555538 -5.49197 0
M  V30 11921 H 1091.92 0.687532 -4.33785 0
M  V30 11922 H 1092.52 -0.972949 -4.14021 0
M  V30 11923 N 1090.84 1.42931 -0.663954 0
M  V30 11924 C 1091.77 2.33499 0.00731327 0
M  V30 11925 C 1092.75 1.50074 0.800733 0
M  V30 11926 O 1093.93 1.78708 0.760062 0
M  V30 11927 C 1091.06 3.33569 0.966897 0
M  V30 11928 C 1090.02 4.27064 0.282839 0
M  V30 11929 C 1089.34 5.17257 1.35461 0
M  V30 11930 C 1090.64 5.1564 -0.831438 0
M  V30 11931 H 1092.34 2.89879 -0.749044 0
M  V30 11932 H 1089.88 1.39385 -0.361656 0
M  V30 11933 H 1091.84 3.95833 1.44549 0
M  V30 11934 H 1090.56 2.75469 1.75455 0
M  V30 11935 H 1089.22 3.6618 -0.175417 0
M  V30 11936 H 1088.87 4.5549 2.13397 0
M  V30 11937 H 1088.57 5.80634 0.902098 0
M  V30 11938 H 1090.09 5.82395 1.83436 0
M  V30 11939 H 1091.51 5.71651 -0.434534 0
M  V30 11940 H 1089.9 5.87794 -1.20908 0
M  V30 11941 H 1090.97 4.54687 -1.68487 0
M  V30 11942 N 1092.32 0.406567 1.52266 0
M  V30 11943 C 1093.56 -0.170053 2.01785 0
M  V30 11944 C 1093.89 -1.45361 1.2923 0
M  V30 11945 O 1093.15 -1.91849 0.386342 0
M  V30 11946 C 1093.44 -0.467124 3.54334 0
M  V30 11947 C 1093.11 0.72693 4.45002 0
M  V30 11948 C 1091.77 1.05446 4.69505 0
M  V30 11949 C 1094.12 1.52493 4.98393 0
M  V30 11950 C 1091.45 2.18123 5.44646 0
M  V30 11951 C 1093.8 2.64244 5.74768 0
M  V30 11952 C 1092.47 2.97486 5.97544 0
M  V30 11953 H 1091.74 -0.0622267 0.738383 0
M  V30 11954 H 1094.39 0.54746 1.83508 0
M  V30 11955 H 1092.69 -1.26617 3.70777 0
M  V30 11956 H 1094.39 -0.926194 3.90157 0
M  V30 11957 H 1090.98 0.461666 4.26106 0
M  V30 11958 H 1095.16 1.28512 4.79373 0
M  V30 11959 H 1090.42 2.44228 5.60502 0
M  V30 11960 H 1094.59 3.26468 6.15136 0
M  V30 11961 H 1092.22 3.84913 6.5555 0
M  V30 11962 N 1093.79 -1.57004 0.136909 0
M  V30 11963 C 1095.02 -2.00587 -0.527209 0
M  V30 11964 C 1095.44 -1.01628 -1.58283 0
M  V30 11965 O 1094.8 0.00946934 -1.81298 0
M  V30 11966 C 1094.85 -3.42967 -1.11384 0
M  V30 11967 O 1093.95 -3.46973 -2.22898 0
M  V30 11968 H 1093.3 -0.651155 -0.129976 0
M  V30 11969 H 1095.83 -2.03296 0.230667 0
M  V30 11970 H 1095.84 -3.81555 -1.44499 0
M  V30 11971 H 1094.51 -4.14502 -0.340736 0
M  V30 11972 H 1093.09 -3.20219 -1.91087 0
M  V30 11973 N 1095.27 0.136881 -1.57004 0
M  V30 11974 C 1096.69 0.489856 -1.51897 0
M  V30 11975 C 1096.89 1.82833 -0.847009 0
M  V30 11976 O 1095.94 2.48952 -0.421792 0
M  V30 11977 C 1097.26 0.490831 -2.96667 0
M  V30 11978 C 1098.81 0.575639 -3.07661 0
M  V30 11979 C 1099.28 0.607178 -4.53957 0
M  V30 11980 N 1100.77 0.66912 -4.58342 0
M  V30 11981 C 1101.51 0.714675 -5.68929 0
M  V30 11982 N 1101 0.718959 -6.89059 0
M  V30 11983 N 1102.8 0.756326 -5.56988 0
M  V30 11984 H 1094.95 -0.740347 -1.99079 0
M  V30 11985 H 1097.21 -0.271116 -0.908405 0
M  V30 11986 H 1096.92 -0.424648 -3.49127 0
M  V30 11987 H 1096.79 1.32512 -3.53158 0
M  V30 11988 H 1099.18 1.48154 -2.55215 0
M  V30 11989 H 1099.26 -0.285991 -2.54196 0
M  V30 11990 H 1098.9 -0.294604 -5.07045 0
M  V30 11991 H 1098.83 1.48544 -5.05215 0
M  V30 11992 H 1101.32 0.672697 -3.71864 0
M  V30 11993 H 1101.64 0.755848 -7.69095 0
M  V30 11994 H 1099.98 0.686671 -6.91599 0
M  V30 11995 H 1103.17 0.750219 -4.62049 0
M  V30 11996 H 1103.34 0.788363 -6.43186 0
M  V30 11997 N 1096.75 1.52266 0.40654 0
M  V30 11998 C 1097.71 1.75168 1.47814 0
M  V30 11999 C 1098.71 0.621575 1.48301 0
M  V30 12000 O 1099.9 0.889476 1.4978 0
M  V30 12001 C 1097.04 1.83642 2.87208 0
M  V30 12002 H 1098.23 2.70834 1.28798 0
M  V30 12003 H 1095.78 1.42722 0.637196 0
M  V30 12004 H 1096.52 0.898994 3.1159 0
M  V30 12005 H 1096.3 2.65801 2.88257 0
M  V30 12006 H 1097.79 2.03093 3.64888 0
M  V30 12007 N 1098.23 -0.663929 1.42933 0
M  V30 12008 C 1099.18 -1.79843 1.4751 0
M  V30 12009 C 1100.17 -1.65751 0.349727 0
M  V30 12010 O 1101.38 -1.72227 0.523239 0
M  V30 12011 H 1097.75 -0.593176 0.462219 0
M  V30 12012 H 1099.72 -1.73102 2.4306 0
M  V30 12013 C 1098.47 -3.18053 1.4049 0
M  V30 12014 H 1097.79 -3.29529 2.26386 0
M  V30 12015 H 1099.23 -3.97423 1.47754 0
M  V30 12016 C 1097.69 -3.36682 0.121076 0
M  V30 12017 O 1098.22 -3.93202 -0.821874 0
M  V30 12018 N 1096.43 -2.90579 0.0347141 0
M  V30 12019 H 1095.98 -2.44769 0.802852 0
M  V30 12020 H 1095.93 -3.03421 -0.823607 0
M  V30 12021 N 1099.71 -1.29285 -0.901281 0
M  V30 12022 C 1100.64 -1.16832 -2.0217 0
M  V30 12023 C 1101.62 -0.0629265 -1.69984 0
M  V30 12024 O 1102.8 -0.242123 -1.92685 0
M  V30 12025 C 1099.93 -0.842406 -3.36929 0
M  V30 12026 C 1098.89 -1.90394 -3.8332 0
M  V30 12027 C 1098.21 -1.43138 -5.15185 0
M  V30 12028 C 1099.51 -3.31254 -4.03817 0
M  V30 12029 H 1101.21 -2.10562 -2.12847 0
M  V30 12030 H 1098.75 -1.01375 -1.0227 0
M  V30 12031 H 1100.71 -0.741999 -4.14816 0
M  V30 12032 H 1099.43 0.130598 -3.26339 0
M  V30 12033 H 1098.09 -1.99371 -3.07647 0
M  V30 12034 H 1097.74 -0.447091 -5.01009 0
M  V30 12035 H 1097.44 -2.14129 -5.47195 0
M  V30 12036 H 1098.96 -1.34444 -5.95615 0
M  V30 12037 H 1100.37 -3.25129 -4.72191 0
M  V30 12038 H 1098.77 -4.00189 -4.47178 0
M  V30 12039 H 1099.84 -3.74349 -3.08206 0
M  V30 12040 N 1101.18 1.11143 -1.11736 0
M  V30 12041 C 1102.15 2.15456 -0.78174 0
M  V30 12042 C 1103.15 1.59547 0.200383 0
M  V30 12043 O 1104.34 1.74183 -0.0244893 0
M  V30 12044 C 1101.47 3.40523 -0.160364 0
M  V30 12045 H 1102.66 2.46658 -1.70586 0
M  V30 12046 H 1100.22 1.26381 -0.919644 0
M  V30 12047 H 1100.95 3.14932 0.773835 0
M  V30 12048 H 1100.74 3.82386 -0.867378 0
M  V30 12049 H 1102.23 4.17559 0.0582175 0
M  V30 12050 N 1102.66 0.908147 1.28804 0
M  V30 12051 C 1103.63 0.397058 2.25735 0
M  V30 12052 C 1104.63 -0.473483 1.53671 0
M  V30 12053 O 1105.82 -0.277335 1.71978 0
M  V30 12054 C 1102.95 -0.431392 3.38159 0
M  V30 12055 H 1104.14 1.25323 2.72459 0
M  V30 12056 H 1101.69 0.687041 1.4039 0
M  V30 12057 H 1102.43 -1.3072 2.96787 0
M  V30 12058 H 1102.21 0.192502 3.91627 0
M  V30 12059 H 1103.7 -0.78 4.10251 0
M  V30 12060 N 1104.14 -1.42577 0.671525 0
M  V30 12061 C 1105.1 -2.292 0.000392482 0
M  V30 12062 C 1106.1 -1.43158 -0.732294 0
M  V30 12063 O 1107.29 -1.64583 -0.570789 0
M  V30 12064 C 1104.43 -3.25591 -1.01013 0
M  V30 12065 H 1105.62 -2.90037 0.762783 0
M  V30 12066 H 1103.17 -1.50162 0.433703 0
M  V30 12067 H 1103.91 -2.69685 -1.80112 0
M  V30 12068 H 1103.69 -3.89049 -0.488183 0
M  V30 12069 H 1105.18 -3.90561 -1.47824 0
M  V30 12070 N 1105.62 -0.414636 -1.52048 0
M  V30 12071 C 1106.86 0.158807 -2.03782 0
M  V30 12072 C 1107.22 1.41912 -1.29325 0
M  V30 12073 O 1108.42 2.07136 -1.71313 0
M  V30 12074 C 1106.69 0.395092 -3.55209 0
M  V30 12075 S 1108.25 0.935193 -4.28719 0
M  V30 12076 H 1105.07 0.0424729 -0.70973 0
M  V30 12077 H 1107.67 -0.568822 -1.87042 0
M  V30 12078 H 1106.38 -0.528875 -4.06978 0
M  V30 12079 H 1105.91 1.15044 -3.76203 0
M  V30 12080 H 1107.92 2.21519 -4.44009 0
M  V30 12081 N 1107.1 1.56929 -0.145233 0
M  V30 12082 C 1108.34 1.95681 0.50532 0
M  V30 12083 C 1108.67 1.03098 1.65516 0
M  V30 12084 O 1107.94 0.0921961 1.95683 0
M  V30 12085 H 1106.52 0.72252 0.189668 0
M  V30 12086 H 1109.18 1.93651 -0.220318 0
M  V30 12087 H 1108.27 2.99359 0.882631 0
M  V30 12088 N 1108.58 -0.128553 1.57075 0
M  V30 12089 C 1109.82 -0.836355 1.83982 0
M  V30 12090 C 1110.14 -1.80862 0.728971 0
M  V30 12091 O 1109.41 -1.94326 -0.247859 0
M  V30 12092 H 1107.99 -0.31185 0.678792 0
M  V30 12093 H 1110.66 -0.118153 1.94542 0
M  V30 12094 H 1109.75 -1.38741 2.79567 0
M  V30 12095 N 1110.05 -1.5248 -0.398459 0
M  V30 12096 C 1111.3 -1.66287 -1.14155 0
M  V30 12097 C 1111.62 -0.40429 -1.91376 0
M  V30 12098 O 1112.82 -0.422341 -2.68195 0
M  V30 12099 C 1111.28 -2.93831 -2.07825 0
M  V30 12100 C 1110.89 -4.26836 -1.3607 0
M  V30 12101 C 1112.63 -3.17004 -2.82327 0
M  V30 12102 C 1110.54 -5.45495 -2.28451 0
M  V30 12103 H 1109.47 -0.619478 -0.42984 0
M  V30 12104 H 1112.12 -1.78972 -0.405112 0
M  V30 12105 H 1110.5 -2.7487 -2.85065 0
M  V30 12106 H 1111.67 -4.56317 -0.641205 0
M  V30 12107 H 1109.99 -4.0985 -0.735659 0
M  V30 12108 H 1112.59 -4.02834 -3.51609 0
M  V30 12109 H 1112.93 -2.3168 -3.45876 0
M  V30 12110 H 1113.46 -3.36487 -2.12183 0
M  V30 12111 H 1110.2 -6.33198 -1.69532 0
M  V30 12112 H 1109.72 -5.20338 -2.98343 0
M  V30 12113 H 1111.4 -5.78996 -2.88743 0
M  V30 12114 N 1111.53 0.65634 -1.43283 0
M  V30 12115 C 1112.78 1.41212 -1.44021 0
M  V30 12116 C 1113.09 1.95485 -0.0669783 0
M  V30 12117 O 1114.3 2.71457 0.0481909 0
M  V30 12118 C 1112.76 2.55541 -2.5343 0
M  V30 12119 C 1112.36 2.07889 -3.96845 0
M  V30 12120 C 1114.11 3.3293 -2.63359 0
M  V30 12121 C 1112.01 3.19411 -4.97726 0
M  V30 12122 H 1110.94 0.530566 -0.535739 0
M  V30 12123 H 1113.6 0.708743 -1.6926 0
M  V30 12124 H 1111.98 3.28335 -2.21387 0
M  V30 12125 H 1113.15 1.42127 -4.38334 0
M  V30 12126 H 1111.47 1.43388 -3.90933 0
M  V30 12127 H 1114.06 4.1602 -3.35903 0
M  V30 12128 H 1114.41 3.80753 -1.68324 0
M  V30 12129 H 1114.94 2.67216 -2.94687 0
M  V30 12130 H 1111.68 2.7656 -5.94302 0
M  V30 12131 H 1111.2 3.83895 -4.60853 0
M  V30 12132 H 1112.88 3.84591 -5.20287 0
M  V30 12133 N 1113.01 1.29761 0.894412 0
M  V30 12134 C 1114.24 1.20765 1.67629 0
M  V30 12135 C 1114.65 -0.233434 1.87754 0
M  V30 12136 O 1113.99 -1.16747 1.4183 0
M  V30 12137 C 1114.05 1.85542 3.07919 0
M  V30 12138 C 1113.72 3.34852 3.11004 0
M  V30 12139 C 1114.71 4.30994 2.90758 0
M  V30 12140 C 1112.4 3.76141 3.32901 0
M  V30 12141 C 1114.39 5.664 2.92352 0
M  V30 12142 C 1112.08 5.11667 3.34126 0
M  V30 12143 C 1113.08 6.06607 3.13874 0
M  V30 12144 O 1112.77 7.39659 3.14897 0
M  V30 12145 H 1112.5 0.419418 0.530155 0
M  V30 12146 H 1115.05 1.71754 1.12648 0
M  V30 12147 H 1113.28 1.29071 3.64524 0
M  V30 12148 H 1114.97 1.70795 3.68217 0
M  V30 12149 H 1115.74 4.00427 2.73648 0
M  V30 12150 H 1111.62 3.02694 3.47703 0
M  V30 12151 H 1115.16 6.40479 2.76464 0
M  V30 12152 H 1111.06 5.41877 3.50769 0
M  V30 12153 H 1111.82 7.4853 3.31127 0
M  V30 12154 N 1114.49 -1.10549 1.12324 0
M  V30 12155 C 1115.73 -1.82485 0.877817 0
M  V30 12156 C 1116.06 -1.85131 -0.596373 0
M  V30 12157 O 1115.32 -1.30675 -1.45679 0
M  V30 12158 C 1115.62 -3.28997 1.39626 0
M  V30 12159 C 1115.28 -3.465 2.88529 0
M  V30 12160 C 1113.94 -3.50984 3.29186 0
M  V30 12161 C 1116.3 -3.51991 3.84385 0
M  V30 12162 C 1113.62 -3.58525 4.6441 0
M  V30 12163 C 1115.98 -3.61065 5.19437 0
M  V30 12164 C 1114.64 -3.63813 5.5964 0
M  V30 12165 H 1113.91 -0.667758 0.321216 0
M  V30 12166 H 1116.56 -1.30314 1.40323 0
M  V30 12167 H 1114.86 -3.83726 0.791291 0
M  V30 12168 H 1116.56 -3.83165 1.18259 0
M  V30 12169 H 1113.15 -3.43686 2.56082 0
M  V30 12170 H 1117.33 -3.47777 3.54069 0
M  V30 12171 H 1112.59 -3.58934 4.94951 0
M  V30 12172 H 1116.76 -3.64257 5.9354 0
M  V30 12173 H 1114.39 -3.69409 6.6441 0
M  V30 12174 N 1115.97 -0.914965 -1.28321 0
M  V30 12175 C 1117.19 -0.564654 -1.99046 0
M  V30 12176 C 1117.61 0.854345 -1.68364 0
M  V30 12177 O 1116.97 1.56605 -0.937068 0
M  V30 12178 C 1117.02 -0.765663 -3.53299 0
M  V30 12179 O 1116.74 -2.12883 -3.829 0
M  V30 12180 C 1118.24 -0.422347 -4.41283 0
M  V30 12181 H 1115.46 -0.215158 -0.635569 0
M  V30 12182 H 1118 -1.2285 -1.63487 0
M  V30 12183 H 1116.16 -0.148795 -3.87114 0
M  V30 12184 H 1116.57 -2.1694 -4.77533 0
M  V30 12185 H 1118.05 -0.613757 -5.48577 0
M  V30 12186 H 1118.52 0.641484 -4.3449 0
M  V30 12187 H 1119.13 -1.01681 -4.12966 0
M  V30 12188 N 1117.44 1.42219 -0.679077 0
M  V30 12189 C 1118.37 2.33493 -0.0174528 0
M  V30 12190 C 1119.35 1.50915 0.78477 0
M  V30 12191 O 1120.54 1.79504 0.741065 0
M  V30 12192 C 1117.67 3.34576 0.931463 0
M  V30 12193 C 1116.62 4.2734 0.237527 0
M  V30 12194 C 1115.95 5.18664 1.29967 0
M  V30 12195 C 1117.25 5.14729 -0.886082 0
M  V30 12196 H 1118.94 2.89068 -0.779748 0
M  V30 12197 H 1116.49 1.38993 -0.376419 0
M  V30 12198 H 1118.44 3.97343 1.40343 0
M  V30 12199 H 1117.17 2.77315 1.72523 0
M  V30 12200 H 1115.83 3.65973 -0.214245 0
M  V30 12201 H 1115.47 4.57727 2.08554 0
M  V30 12202 H 1115.17 5.81558 0.840463 0
M  V30 12203 H 1116.7 5.84308 1.77249 0
M  V30 12204 H 1118.11 5.71158 -0.495141 0
M  V30 12205 H 1116.51 5.86478 -1.27135 0
M  V30 12206 H 1117.58 4.52874 -1.733 0
M  V30 12207 N 1118.92 0.422693 1.51826 0
M  V30 12208 C 1120.15 -0.14753 2.06073 0
M  V30 12209 C 1120.56 -1.38264 1.2915 0
M  V30 12210 O 1119.9 -1.8052 0.340306 0
M  V30 12211 C 1119.96 -0.549558 3.55275 0
M  V30 12212 C 1119.63 0.576704 4.53347 0
M  V30 12213 C 1120.63 1.44442 4.99432 0
M  V30 12214 C 1118.31 0.753264 4.9662 0
M  V30 12215 C 1120.3 2.47352 5.87448 0
M  V30 12216 C 1117.99 1.78566 5.84429 0
M  V30 12217 C 1118.99 2.64419 6.29739 0
M  V30 12218 O 1118.68 3.65888 7.15808 0
M  V30 12219 H 1118.41 -0.0178911 0.675763 0
M  V30 12220 H 1120.96 0.596258 1.96555 0
M  V30 12221 H 1119.19 -1.34583 3.62525 0
M  V30 12222 H 1120.88 -1.04925 3.92104 0
M  V30 12223 H 1121.65 1.31948 4.66706 0
M  V30 12224 H 1117.53 0.0946405 4.60903 0
M  V30 12225 H 1121.07 3.14397 6.22736 0
M  V30 12226 H 1116.97 1.91086 6.16568 0
M  V30 12227 H 1117.74 3.62294 7.33952 0
M  V30 12228 N 1120.4 -1.5685 0.153553 0
M  V30 12229 C 1121.33 -2.20101 -0.779601 0
M  V30 12230 C 1122.31 -1.15121 -1.25225 0
M  V30 12231 O 1123.5 -1.43487 -1.30862 0
M  V30 12232 C 1120.63 -2.82778 -2.01628 0
M  V30 12233 C 1119.58 -3.93643 -1.68015 0
M  V30 12234 C 1118.91 -4.43286 -2.99001 0
M  V30 12235 C 1120.21 -5.14102 -0.921774 0
M  V30 12236 H 1121.9 -2.98334 -0.252432 0
M  V30 12237 H 1119.45 -1.43499 -0.119975 0
M  V30 12238 H 1121.4 -3.25696 -2.67395 0
M  V30 12239 H 1120.12 -2.01887 -2.56728 0
M  V30 12240 H 1118.78 -3.51354 -1.04624 0
M  V30 12241 H 1118.43 -3.59208 -3.52106 0
M  V30 12242 H 1118.13 -5.18068 -2.77272 0
M  V30 12243 H 1119.65 -4.88878 -3.65828 0
M  V30 12244 H 1121.07 -5.53823 -1.48167 0
M  V30 12245 H 1119.46 -5.94687 -0.804185 0
M  V30 12246 H 1120.53 -4.84825 0.0852757 0
M  V30 12247 N 1121.88 0.120221 -1.57141 0
M  V30 12248 C 1123.29 0.677497 -1.73974 0
M  V30 12249 C 1123.64 1.80371 -0.772055 0
M  V30 12250 O 1122.76 2.16329 0.0553062 0
M  V30 12251 C 1123.36 1.23575 -3.1546 0
M  V30 12252 C 1121.92 1.73933 -3.33803 0
M  V30 12253 C 1121.07 0.638542 -2.69848 0
M  V30 12254 H 1124.02 -0.105685 -1.58348 0
M  V30 12255 H 1124.04 2.10542 -3.16942 0
M  V30 12256 H 1123.55 0.415851 -3.85866 0
M  V30 12257 H 1121.65 2.58404 -2.68437 0
M  V30 12258 H 1121.76 1.84961 -4.41957 0
M  V30 12259 H 1120.13 1.07185 -2.31049 0
M  V30 12260 H 1120.91 -0.170356 -3.42877 0
M  V30 12261 N 1123.36 1.52689 0.390367 0
M  V30 12262 C 1124.59 1.71292 1.1551 0
M  V30 12263 C 1124.99 0.430405 1.84239 0
M  V30 12264 O 1124.34 -0.604823 1.73458 0
M  V30 12265 C 1124.4 2.80597 2.24735 0
M  V30 12266 C 1124.06 4.21757 1.75984 0
M  V30 12267 C 1125.06 5.04961 1.23733 0
M  V30 12268 C 1122.75 4.68071 1.82248 0
M  V30 12269 C 1124.74 6.32561 0.783926 0
M  V30 12270 C 1122.43 5.95656 1.36519 0
M  V30 12271 C 1123.42 6.7773 0.846786 0
M  V30 12272 O 1123.11 8.02923 0.396164 0
M  V30 12273 H 1122.84 0.576906 0.352356 0
M  V30 12274 H 1125.4 2.00117 0.462865 0
M  V30 12275 H 1123.63 2.4719 2.97378 0
M  V30 12276 H 1125.32 2.87616 2.86412 0
M  V30 12277 H 1126.08 4.70363 1.18251 0
M  V30 12278 H 1121.96 4.04278 2.21541 0
M  V30 12279 H 1125.51 6.96572 0.378612 0
M  V30 12280 H 1121.4 6.29758 1.41686 0
M  V30 12281 H 1122.17 8.16861 0.517766 0
M  V30 12282 N 1124.83 -0.648732 1.43629 0
M  V30 12283 C 1126.08 -1.41066 1.45699 0
M  V30 12284 C 1126.41 -1.94024 0.082612 0
M  V30 12285 O 1125.69 -1.7257 -0.897207 0
M  V30 12286 C 1125.97 -2.58882 2.50304 0
M  V30 12287 C 1125.82 -2.11387 3.97033 0
M  V30 12288 C 1127.14 -3.61092 2.51597 0
M  V30 12289 H 1124.26 -0.511591 0.530512 0
M  V30 12290 H 1126.9 -0.735069 1.75205 0
M  V30 12291 H 1125.05 -3.16518 2.25274 0
M  V30 12292 H 1126.73 -1.58718 4.33136 0
M  V30 12293 H 1124.97 -1.4272 4.0965 0
M  V30 12294 H 1125.64 -2.96129 4.65845 0
M  V30 12295 H 1128.12 -3.13223 2.73917 0
M  V30 12296 H 1126.99 -4.41071 3.26722 0
M  V30 12297 H 1127.25 -4.13985 1.55141 0
M  V30 12298 N 1126.31 -1.30234 -0.887518 0
M  V30 12299 C 1127.24 -1.18969 -2.00919 0
M  V30 12300 C 1128.22 -0.080952 -1.69907 0
M  V30 12301 O 1129.41 -0.262546 -1.92417 0
M  V30 12302 C 1126.54 -0.878094 -3.36016 0
M  V30 12303 C 1125.49 -1.94449 -3.81279 0
M  V30 12304 C 1124.82 -1.48594 -5.13638 0
M  V30 12305 C 1126.12 -3.35519 -4.00281 0
M  V30 12306 H 1127.81 -2.12808 -2.10602 0
M  V30 12307 H 1125.36 -1.02454 -1.01189 0
M  V30 12308 H 1127.31 -0.785954 -4.14006 0
M  V30 12309 H 1126.04 0.0959779 -3.26459 0
M  V30 12310 H 1124.69 -2.02622 -3.05516 0
M  V30 12311 H 1124.34 -0.500204 -5.00507 0
M  V30 12312 H 1124.04 -2.19921 -5.44893 0
M  V30 12313 H 1125.57 -1.40754 -5.94156 0
M  V30 12314 H 1126.98 -3.30119 -4.68716 0
M  V30 12315 H 1125.38 -4.0491 -4.42909 0
M  V30 12316 H 1126.45 -3.77597 -3.04218 0
M  V30 12317 N 1127.79 1.09952 -1.12909 0
M  V30 12318 C 1129.03 1.83635 -0.897646 0
M  V30 12319 C 1129.39 1.83462 0.566179 0
M  V30 12320 O 1130.6 2.52748 0.914977 0
M  V30 12321 C 1128.87 3.26095 -1.46277 0
M  V30 12322 S 1130.43 4.16846 -1.37059 0
M  V30 12323 H 1127.24 0.633045 -0.32369 0
M  V30 12324 H 1129.85 1.32275 -1.43957 0
M  V30 12325 H 1128.55 3.23793 -2.52163 0
M  V30 12326 H 1128.08 3.82526 -0.918549 0
M  V30 12327 H 1130.1 4.94996 -0.345399 0
M  V30 12328 N 1129.27 0.921757 1.27833 0
M  V30 12329 C 1130.51 0.559906 1.94918 0
M  V30 12330 C 1130.85 -0.895532 1.72319 0
M  V30 12331 O 1130.12 -1.638 1.04879 0
M  V30 12332 C 1130.41 0.879458 3.49196 0
M  V30 12333 C 1130.26 2.38821 3.81162 0
M  V30 12334 C 1131.58 0.381183 4.38446 0
M  V30 12335 H 1128.7 0.204893 0.707946 0
M  V30 12336 H 1131.34 1.15246 1.51058 0
M  V30 12337 H 1129.49 0.375177 3.86684 0
M  V30 12338 H 1131.16 2.96373 3.53498 0
M  V30 12339 H 1129.4 2.83988 3.27923 0
M  V30 12340 H 1130.07 2.56234 4.88926 0
M  V30 12341 H 1132.55 0.813289 4.08075 0
M  V30 12342 H 1131.43 0.633778 5.45229 0
M  V30 12343 H 1131.69 -0.718651 4.3622 0
M  V30 12344 N 1130.75 -1.41857 0.686609 0
M  V30 12345 C 1131.71 -2.29187 0.0247022 0
M  V30 12346 C 1132.71 -1.43926 -0.717069 0
M  V30 12347 O 1133.9 -1.65179 -0.5533 0
M  V30 12348 C 1131.03 -3.26644 -0.975537 0
M  V30 12349 H 1132.22 -2.89212 0.793503 0
M  V30 12350 H 1129.78 -1.49694 0.449605 0
M  V30 12351 H 1130.51 -2.7158 -1.77242 0
M  V30 12352 H 1130.3 -3.89545 -0.446892 0
M  V30 12353 H 1131.79 -3.92107 -1.43673 0
M  V30 12354 N 1132.22 -0.430739 -1.51599 0
M  V30 12355 C 1133.47 0.130424 -2.02981 0
M  V30 12356 C 1133.83 1.40956 -1.30954 0
M  V30 12357 O 1133.12 1.87081 -0.413696 0
M  V30 12358 C 1133.31 0.410694 -3.55032 0
M  V30 12359 C 1133.14 -0.839732 -4.4179 0
M  V30 12360 C 1131.91 -1.37132 -4.86336 0
M  V30 12361 C 1134.11 -1.72401 -4.84543 0
M  V30 12362 N 1132.09 -2.57497 -5.57287 0
M  V30 12363 C 1133.46 -2.77376 -5.54493 0
M  V30 12364 C 1135.52 -1.73921 -4.66536 0
M  V30 12365 C 1134.22 -3.83808 -6.08345 0
M  V30 12366 C 1136.25 -2.79285 -5.213 0
M  V30 12367 C 1135.61 -3.82979 -5.91191 0
M  V30 12368 H 1131.71 0.00873155 -0.781951 0
M  V30 12369 H 1134.29 -0.589932 -1.85548 0
M  V30 12370 H 1132.46 1.10009 -3.72495 0
M  V30 12371 H 1134.19 0.962635 -3.93085 0
M  V30 12372 H 1130.95 -0.926198 -4.64455 0
M  V30 12373 H 1131.37 -3.18515 -5.97392 0
M  V30 12374 H 1136.02 -0.950851 -4.11969 0
M  V30 12375 H 1133.73 -4.63487 -6.61971 0
M  V30 12376 H 1137.32 -2.81395 -5.09223 0
M  V30 12377 H 1136.2 -4.63169 -6.32807 0
M  V30 12378 N 1133.7 1.56767 -0.161869 0
M  V30 12379 C 1134.63 2.1466 0.803356 0
M  V30 12380 C 1135.65 1.09977 1.20037 0
M  V30 12381 O 1136.84 1.37199 1.14187 0
M  V30 12382 C 1133.94 2.66663 2.09151 0
M  V30 12383 C 1133.11 3.95904 1.85953 0
M  V30 12384 C 1132.17 4.33067 2.98897 0
M  V30 12385 O 1131.19 5.01119 2.69942 0
M  V30 12386 N 1132.4 3.93856 4.26448 0
M  V30 12387 H 1135.16 2.98108 0.308472 0
M  V30 12388 H 1132.72 1.61886 0.0212238 0
M  V30 12389 H 1134.71 2.88528 2.83784 0
M  V30 12390 H 1133.28 1.87856 2.49857 0
M  V30 12391 H 1132.5 3.82513 0.952751 0
M  V30 12392 H 1133.79 4.8033 1.67811 0
M  V30 12393 H 1133.19 3.39051 4.52836 0
M  V30 12394 H 1131.75 4.20741 4.97815 0
M  V30 12395 N 1135.18 -0.111886 1.57202 0
M  V30 12396 C 1136.46 -0.849125 1.76208 0
M  V30 12397 C 1136.84 -1.97735 0.73919 0
M  V30 12398 O 1136.19 -2.27283 -0.235523 0
M  V30 12399 C 1136.4 -1.35924 3.21443 0
M  V30 12400 C 1137.74 -1.80874 3.84148 0
M  V30 12401 O 1138.77 -1.45587 3.25089 0
M  V30 12402 O 1137.63 -2.46065 4.87969 0
M  V30 12403 H 1134.72 -0.403761 0.721738 0
M  V30 12404 H 1137.27 -0.0950726 1.69433 0
M  V30 12405 H 1136.04 -0.550113 3.87414 0
M  V30 12406 H 1135.66 -2.17579 3.32784 0
M  V30 12407 N 1136.66 -1.52894 -0.382264 0
M  V30 12408 C 1137.89 -1.71902 -1.146 0
M  V30 12409 C 1138.3 -0.44017 -1.84009 0
M  V30 12410 O 1137.64 0.595616 -1.73776 0
M  V30 12411 C 1137.7 -2.81785 -2.23244 0
M  V30 12412 C 1137.37 -4.22684 -1.73745 0
M  V30 12413 C 1138.36 -5.05611 -1.21054 0
M  V30 12414 C 1136.05 -4.69031 -1.79763 0
M  V30 12415 C 1138.04 -6.32968 -0.750368 0
M  V30 12416 C 1135.73 -5.96371 -1.33358 0
M  V30 12417 C 1136.73 -6.7817 -0.810832 0
M  V30 12418 O 1136.41 -8.03122 -0.353577 0
M  V30 12419 H 1136.15 -0.578767 -0.349292 0
M  V30 12420 H 1138.7 -2.00359 -0.452246 0
M  V30 12421 H 1136.93 -2.48764 -2.96063 0
M  V30 12422 H 1138.62 -2.89131 -2.84883 0
M  V30 12423 H 1139.39 -4.70984 -1.15755 0
M  V30 12424 H 1135.26 -4.05447 -2.19394 0
M  V30 12425 H 1138.81 -6.96763 -0.341666 0
M  V30 12426 H 1134.71 -6.30501 -1.38344 0
M  V30 12427 H 1135.47 -8.17124 -0.474439 0
M  V30 12428 N 1138.14 0.641106 -1.43971 0
M  V30 12429 C 1139.38 1.40291 -1.46445 0
M  V30 12430 C 1139.72 1.93978 -0.0929004 0
M  V30 12431 O 1138.99 1.73043 0.888043 0
M  V30 12432 C 1139.27 2.57551 -2.51673 0
M  V30 12433 C 1139.13 2.09279 -3.98149 0
M  V30 12434 C 1140.45 3.59752 -2.53508 0
M  V30 12435 H 1137.57 0.508771 -0.533218 0
M  V30 12436 H 1140.21 0.725767 -1.75592 0
M  V30 12437 H 1138.36 3.15319 -2.2695 0
M  V30 12438 H 1140.03 1.56418 -4.33971 0
M  V30 12439 H 1138.27 1.40545 -4.10402 0
M  V30 12440 H 1138.94 2.93655 -4.67409 0
M  V30 12441 H 1141.42 3.11766 -2.75574 0
M  V30 12442 H 1140.3 4.39332 -3.29057 0
M  V30 12443 H 1140.56 4.13156 -1.57335 0
M  V30 12444 N 1139.62 1.30703 0.880598 0
M  V30 12445 C 1140.86 1.19541 1.62955 0
M  V30 12446 C 1141.18 -0.249089 1.93403 0
M  V30 12447 O 1140.45 -1.1669 1.57354 0
M  V30 12448 H 1139.03 0.439434 0.604075 0
M  V30 12449 H 1141.7 1.63888 1.05483 0
M  V30 12450 H 1140.79 1.75945 2.57779 0
M  V30 12451 N 1141.09 -1.09351 1.1349 0
M  V30 12452 C 1142.34 -1.81543 0.897123 0
M  V30 12453 C 1142.67 -1.85754 -0.576703 0
M  V30 12454 O 1141.92 -1.32213 -1.44285 0
M  V30 12455 C 1142.22 -3.27498 1.43108 0
M  V30 12456 C 1141.89 -3.4342 2.92188 0
M  V30 12457 C 1140.55 -3.47473 3.32891 0
M  V30 12458 C 1142.9 -3.47894 3.88097 0
M  V30 12459 C 1140.23 -3.5358 4.68186 0
M  V30 12460 C 1142.58 -3.55535 5.23238 0
M  V30 12461 C 1141.25 -3.57857 5.63467 0
M  V30 12462 H 1140.52 -0.664314 0.32828 0
M  V30 12463 H 1143.16 -1.28819 1.41697 0
M  V30 12464 H 1141.47 -3.82865 0.831946 0
M  V30 12465 H 1143.17 -3.8189 1.22316 0
M  V30 12466 H 1139.76 -3.4095 2.59713 0
M  V30 12467 H 1143.94 -3.44002 3.57737 0
M  V30 12468 H 1139.2 -3.53665 4.9873 0
M  V30 12469 H 1143.37 -3.57942 5.9737 0
M  V30 12470 H 1141 -3.62341 6.68291 0
M  V30 12471 N 1142.57 -0.928524 -1.27343 0
M  V30 12472 C 1143.8 -0.585734 -1.98436 0
M  V30 12473 C 1144.21 0.83644 -1.69261 0
M  V30 12474 O 1143.57 1.55603 -0.953626 0
M  V30 12475 C 1143.62 -0.803092 -3.52467 0
M  V30 12476 O 1143.34 -2.16932 -3.80621 0
M  V30 12477 C 1144.84 -0.469127 -4.40811 0
M  V30 12478 H 1142.06 -0.221887 -0.633251 0
M  V30 12479 H 1144.61 -1.24577 -1.62175 0
M  V30 12480 H 1142.76 -0.189846 -3.86935 0
M  V30 12481 H 1143.18 -2.21992 -4.75205 0
M  V30 12482 H 1144.65 -0.671906 -5.47895 0
M  V30 12483 H 1145.13 0.595365 -4.35146 0
M  V30 12484 H 1145.73 -1.06055 -4.11865 0
M  V30 12485 N 1144.05 1.41491 -0.694123 0
M  V30 12486 C 1144.98 2.33462 -0.0422169 0
M  V30 12487 C 1145.96 1.51739 0.76872 0
M  V30 12488 O 1147.15 1.8028 0.721985 0
M  V30 12489 C 1144.28 3.35545 0.895925 0
M  V30 12490 C 1143.23 4.27568 0.192188 0
M  V30 12491 C 1142.56 5.20014 1.24459 0
M  V30 12492 C 1143.86 5.1376 -0.940626 0
M  V30 12493 H 1145.55 2.88225 -0.810363 0
M  V30 12494 H 1143.1 1.38586 -0.39114 0
M  V30 12495 H 1145.05 3.9881 1.36121 0
M  V30 12496 H 1143.77 2.79129 1.69572 0
M  V30 12497 H 1142.43 3.65726 -0.25305 0
M  V30 12498 H 1142.08 4.59913 2.03687 0
M  V30 12499 H 1141.78 5.82417 0.778734 0
M  V30 12500 H 1143.3 5.86155 1.71041 0
M  V30 12501 H 1144.72 5.70601 -0.555692 0
M  V30 12502 H 1143.11 5.85097 -1.33349 0
M  V30 12503 H 1144.18 4.51011 -1.78093 0
M  V30 12504 N 1145.53 0.438773 1.51369 0
M  V30 12505 C 1146.47 -0.37195 2.27783 0
M  V30 12506 C 1147.44 -1.01558 1.31435 0
M  V30 12507 O 1148.63 -1.03421 1.60339 0
M  V30 12508 C 1145.77 -1.46636 3.12397 0
M  V30 12509 C 1144.88 -0.840727 4.2374 0
M  V30 12510 C 1144.02 -1.91031 4.95662 0
M  V30 12511 C 1143.06 -1.26318 5.98924 0
M  V30 12512 N 1142.19 -2.27419 6.64248 0
M  V30 12513 H 1147.03 0.286048 2.96624 0
M  V30 12514 H 1144.57 0.152909 1.46303 0
M  V30 12515 H 1146.53 -2.11219 3.59781 0
M  V30 12516 H 1145.16 -2.09397 2.45668 0
M  V30 12517 H 1144.21 -0.0831588 3.80309 0
M  V30 12518 H 1145.52 -0.328285 4.97719 0
M  V30 12519 H 1144.68 -2.63272 5.46601 0
M  V30 12520 H 1143.42 -2.45649 4.21317 0
M  V30 12521 H 1142.42 -0.526246 5.47276 0
M  V30 12522 H 1143.65 -0.724324 6.75226 0
M  V30 12523 H 1141.59 -2.81114 5.92715 0
M  V30 12524 H 1141.51 -1.81071 7.33996 0
M  V30 12525 H 1142.78 -2.99139 7.19817 0
M  V30 12526 N 1147.01 -1.56678 0.170181 0
M  V30 12527 C 1148.25 -1.96024 -0.475147 0
M  V30 12528 C 1148.57 -1.0588 -1.64465 0
M  V30 12529 O 1149.77 -1.34901 -2.35614 0
M  V30 12530 C 1148.23 -3.4855 -0.896704 0
M  V30 12531 C 1147.84 -4.47318 0.247142 0
M  V30 12532 C 1149.58 -3.96716 -1.51052 0
M  V30 12533 C 1147.49 -5.91082 -0.193982 0
M  V30 12534 H 1146.42 -0.731883 -0.181282 0
M  V30 12535 H 1149.07 -1.81674 0.25823 0
M  V30 12536 H 1147.45 -3.58314 -1.68603 0
M  V30 12537 H 1148.63 -4.49268 1.02445 0
M  V30 12538 H 1146.94 -4.09203 0.770839 0
M  V30 12539 H 1149.54 -5.01581 -1.85258 0
M  V30 12540 H 1149.88 -3.39588 -2.40802 0
M  V30 12541 H 1150.41 -3.89965 -0.785652 0
M  V30 12542 H 1147.15 -6.5208 0.668714 0
M  V30 12543 H 1146.67 -5.92441 -0.936675 0
M  V30 12544 H 1148.35 -6.43844 -0.638237 0
M  V30 12545 N 1148.48 0.103547 -1.57259 0
M  V30 12546 C 1149.73 0.808576 -1.85656 0
M  V30 12547 C 1150.06 1.79143 -0.757502 0
M  V30 12548 O 1149.31 1.941 0.249723 0
M  V30 12549 C 1149.61 1.57946 -3.20605 0
M  V30 12550 C 1149.28 0.739502 -4.44795 0
M  V30 12551 C 1147.94 0.507921 -4.78512 0
M  V30 12552 C 1150.29 0.155034 -5.20969 0
M  V30 12553 C 1147.62 -0.318129 -5.85837 0
M  V30 12554 C 1149.97 -0.658292 -6.29166 0
M  V30 12555 C 1148.64 -0.900044 -6.61404 0
M  V30 12556 H 1147.91 0.295879 -0.679365 0
M  V30 12557 H 1150.55 0.0703604 -1.91371 0
M  V30 12558 H 1148.86 2.38902 -3.10537 0
M  V30 12559 H 1150.56 2.12921 -3.39803 0
M  V30 12560 H 1147.15 0.930103 -4.18386 0
M  V30 12561 H 1151.33 0.32113 -4.9526 0
M  V30 12562 H 1146.59 -0.514495 -6.09231 0
M  V30 12563 H 1150.76 -1.11809 -6.87366 0
M  V30 12564 H 1148.39 -1.54194 -7.44398 0
M  V30 12565 N 1149.96 1.53094 0.37415 0
M  V30 12566 C 1150.92 1.78264 1.44065 0
M  V30 12567 C 1151.92 0.652892 1.46949 0
M  V30 12568 O 1153.11 0.921046 1.47859 0
M  V30 12569 C 1150.25 1.89693 2.83248 0
M  V30 12570 H 1151.44 2.73505 1.23025 0
M  V30 12571 H 1148.99 1.44041 0.60678 0
M  V30 12572 H 1149.73 0.964884 3.09613 0
M  V30 12573 H 1149.51 2.71855 2.82554 0
M  V30 12574 H 1151 2.10787 3.60498 0
M  V30 12575 N 1151.44 -0.633461 1.44309 0
M  V30 12576 C 1152.66 -1.42527 1.50668 0
M  V30 12577 C 1153.09 -1.87637 0.131861 0
M  V30 12578 O 1152.45 -1.58595 -0.878477 0
M  V30 12579 C 1152.5 -2.62328 2.47419 0
M  V30 12580 O 1151.6 -3.62081 1.97411 0
M  V30 12581 H 1150.94 -0.426559 0.508864 0
M  V30 12582 H 1153.47 -0.773392 1.8942 0
M  V30 12583 H 1153.48 -3.09901 2.65378 0
M  V30 12584 H 1152.16 -2.2884 3.47283 0
M  V30 12585 H 1150.73 -3.21333 1.89208 0
M  V30 12586 N 1152.92 -1.31168 -0.873655 0
M  V30 12587 C 1153.85 -1.21094 -1.99646 0
M  V30 12588 C 1154.83 -0.0989684 -1.69812 0
M  V30 12589 O 1156.01 -0.282939 -1.92128 0
M  V30 12590 C 1153.14 -0.913684 -3.35066 0
M  V30 12591 C 1152.1 -1.98482 -3.79195 0
M  V30 12592 C 1151.42 -1.54033 -5.12033 0
M  V30 12593 C 1152.72 -3.39745 -3.96699 0
M  V30 12594 H 1154.42 -2.1503 -2.08333 0
M  V30 12595 H 1151.96 -1.03521 -1.00097 0
M  V30 12596 H 1153.92 -0.829821 -4.13149 0
M  V30 12597 H 1152.64 0.0613471 -3.26542 0
M  V30 12598 H 1151.3 -2.05851 -3.03349 0
M  V30 12599 H 1150.95 -0.553261 -4.99948 0
M  V30 12600 H 1150.65 -2.25688 -5.4253 0
M  V30 12601 H 1152.17 -1.47047 -5.92629 0
M  V30 12602 H 1153.59 -3.35071 -4.65188 0
M  V30 12603 H 1151.98 -4.09585 -4.38589 0
M  V30 12604 H 1153.05 -3.80802 -3.00196 0
M  V30 12605 N 1154.4 1.08748 -1.14068 0
M  V30 12606 C 1155.33 2.17591 -0.84714 0
M  V30 12607 C 1156.31 1.68962 0.196415 0
M  V30 12608 O 1157.49 1.94125 0.0538415 0
M  V30 12609 C 1154.62 3.45823 -0.320005 0
M  V30 12610 C 1153.58 4.07824 -1.2986 0
M  V30 12611 C 1152.9 5.30965 -0.630925 0
M  V30 12612 C 1154.2 4.49512 -2.65963 0
M  V30 12613 H 1155.9 2.42404 -1.75729 0
M  V30 12614 H 1153.44 1.16502 -0.846356 0
M  V30 12615 H 1155.4 4.21276 -0.102271 0
M  V30 12616 H 1154.12 3.20553 0.625561 0
M  V30 12617 H 1152.78 3.34398 -1.50245 0
M  V30 12618 H 1152.43 5.01979 0.320337 0
M  V30 12619 H 1152.13 5.73402 -1.28388 0
M  V30 12620 H 1153.65 6.09136 -0.422635 0
M  V30 12621 H 1155.06 5.16159 -2.49506 0
M  V30 12622 H 1153.46 5.02857 -3.27498 0
M  V30 12623 H 1154.53 3.6157 -3.23102 0
M  V30 12624 N 1155.87 0.935264 1.26849 0
M  V30 12625 C 1157.1 0.595704 1.98661 0
M  V30 12626 C 1157.52 -0.821001 1.69237 0
M  V30 12627 O 1156.88 -1.55211 0.936982 0
M  V30 12628 C 1156.93 0.837275 3.50745 0
M  V30 12629 O 1156.03 -0.0934914 4.12294 0
M  V30 12630 H 1155.38 0.228512 0.623441 0
M  V30 12631 H 1157.91 1.25658 1.61466 0
M  V30 12632 H 1157.92 0.755827 4.00938 0
M  V30 12633 H 1156.59 1.86993 3.71492 0
M  V30 12634 H 1155.17 0.0385124 3.7288 0
M  V30 12635 N 1157.35 -1.41121 0.701616 0
M  V30 12636 C 1158.76 -1.84122 0.309208 0
M  V30 12637 C 1159.11 -1.58695 -1.15371 0
M  V30 12638 O 1158.24 -1.06053 -1.88631 0
M  V30 12639 C 1158.83 -3.34233 0.554429 0
M  V30 12640 C 1157.39 -3.7578 0.215876 0
M  V30 12641 C 1156.54 -2.6447 0.833729 0
M  V30 12642 H 1159.49 -1.30587 0.901822 0
M  V30 12643 H 1159.51 -3.8005 -0.18491 0
M  V30 12644 H 1159.02 -3.52707 1.61923 0
M  V30 12645 H 1157.13 -3.62905 -0.844421 0
M  V30 12646 H 1157.24 -4.74319 0.675118 0
M  V30 12647 H 1155.6 -2.5334 0.262851 0
M  V30 12648 H 1156.39 -2.85761 1.90252 0
M  V30 12649 N 1158.83 -0.446794 -1.51134 0
M  V30 12650 C 1160.08 0.116666 -2.02464 0
M  V30 12651 C 1160.41 1.41532 -1.32975 0
M  V30 12652 O 1159.68 1.89278 -0.447651 0
M  V30 12653 C 1159.97 0.325659 -3.58624 0
M  V30 12654 C 1159.82 -0.992307 -4.38718 0
M  V30 12655 C 1161.14 1.09121 -4.26357 0
M  V30 12656 H 1158.26 0.0409262 -0.735863 0
M  V30 12657 H 1160.9 -0.587641 -1.80684 0
M  V30 12658 H 1159.05 0.925585 -3.77313 0
M  V30 12659 H 1160.72 -1.62694 -4.31658 0
M  V30 12660 H 1158.97 -1.5947 -4.03425 0
M  V30 12661 H 1159.64 -0.800005 -5.46172 0
M  V30 12662 H 1162.11 0.582944 -4.11996 0
M  V30 12663 H 1160.99 1.20621 -5.35483 0
M  V30 12664 H 1161.25 2.12171 -3.87861 0
M  V30 12665 N 1160.31 1.56586 -0.178487 0
M  V30 12666 C 1161.27 2.17091 0.73512 0
M  V30 12667 C 1162.27 1.12088 1.15295 0
M  V30 12668 O 1163.46 1.37563 1.06874 0
M  V30 12669 C 1160.59 2.75957 2.00151 0
M  V30 12670 H 1161.79 2.99176 0.208272 0
M  V30 12671 H 1159.34 1.56138 0.0710967 0
M  V30 12672 H 1160.07 1.97626 2.57127 0
M  V30 12673 H 1159.86 3.52809 1.7108 0
M  V30 12674 H 1161.35 3.2247 2.65335 0
M  V30 12675 N 1161.79 -0.095206 1.57312 0
M  V30 12676 C 1163.03 -0.798719 1.86083 0
M  V30 12677 C 1163.36 -1.78739 0.766991 0
M  V30 12678 O 1162.62 -1.9423 -0.239425 0
M  V30 12679 C 1162.92 -1.56244 3.21438 0
M  V30 12680 C 1162.58 -0.715903 4.4518 0
M  V30 12681 C 1161.24 -0.482537 4.78774 0
M  V30 12682 C 1163.6 -0.127404 5.21044 0
M  V30 12683 C 1160.92 0.349193 5.8566 0
M  V30 12684 C 1163.28 0.691649 6.28808 0
M  V30 12685 C 1161.94 0.935107 6.60918 0
M  V30 12686 H 1161.21 -0.292272 0.680924 0
M  V30 12687 H 1163.86 -0.0602105 1.91405 0
M  V30 12688 H 1162.16 -2.37251 3.118 0
M  V30 12689 H 1163.86 -2.11116 3.40927 0
M  V30 12690 H 1160.45 -0.907902 4.18874 0
M  V30 12691 H 1164.63 -0.29486 4.95423 0
M  V30 12692 H 1159.89 0.546797 6.0895 0
M  V30 12693 H 1164.06 1.15452 6.86763 0
M  V30 12694 H 1161.69 1.58139 7.4357 0
M  V30 12695 N 1163.26 -1.53291 -0.366026 0
M  V30 12696 C 1164.51 -1.69117 -1.10653 0
M  V30 12697 C 1164.83 -0.445327 -1.89847 0
M  V30 12698 O 1164.1 0.540616 -1.88293 0
M  V30 12699 H 1162.68 -0.623446 -0.41149 0
M  V30 12700 H 1165.35 -1.90479 -0.412749 0
M  V30 12701 H 1164.44 -2.55205 -1.79658 0
M  V30 12702 N 1164.74 0.6258 -1.44643 0
M  V30 12703 C 1165.99 1.38525 -1.47706 0
M  V30 12704 C 1166.32 1.94179 -0.111703 0
M  V30 12705 O 1165.57 1.74432 0.887237 0
M  V30 12706 C 1165.87 2.56466 -2.48917 0
M  V30 12707 C 1165.54 2.19069 -3.94106 0
M  V30 12708 C 1164.2 2.08583 -4.33643 0
M  V30 12709 C 1166.55 1.89608 -4.85488 0
M  V30 12710 C 1163.88 1.66831 -5.6248 0
M  V30 12711 C 1166.23 1.49347 -6.14718 0
M  V30 12712 C 1164.9 1.37406 -6.53204 0
M  V30 12713 H 1164.17 0.506899 -0.540494 0
M  V30 12714 H 1166.81 0.709128 -1.77887 0
M  V30 12715 H 1165.12 3.29335 -2.12239 0
M  V30 12716 H 1166.81 3.14695 -2.48532 0
M  V30 12717 H 1163.4 2.28151 -3.62829 0
M  V30 12718 H 1167.59 1.96616 -4.55693 0
M  V30 12719 H 1162.84 1.56195 -5.91112 0
M  V30 12720 H 1167.02 1.2559 -6.84982 0
M  V30 12721 H 1164.65 1.04826 -7.52938 0
M  V30 12722 N 1166.22 1.31629 0.866686 0
M  V30 12723 C 1167.47 1.21263 1.61678 0
M  V30 12724 C 1167.79 -0.228562 1.93656 0
M  V30 12725 O 1167.06 -1.15014 1.58583 0
M  V30 12726 H 1165.64 0.445817 0.59938 0
M  V30 12727 H 1168.3 1.64998 1.03739 0
M  V30 12728 H 1167.4 1.78669 2.55898 0
M  V30 12729 N 1167.7 -1.08142 1.14644 0
M  V30 12730 C 1168.94 -1.82183 0.926747 0
M  V30 12731 C 1169.3 -1.8434 -0.53692 0
M  V30 12732 O 1170.5 -2.54172 -0.874651 0
M  V30 12733 C 1168.78 -3.23726 1.51446 0
M  V30 12734 S 1170.33 -4.14612 1.43673 0
M  V30 12735 H 1167.15 -0.627815 0.333721 0
M  V30 12736 H 1169.75 -1.29968 1.46043 0
M  V30 12737 H 1168.46 -3.19741 2.57282 0
M  V30 12738 H 1167.99 -3.81016 0.979289 0
M  V30 12739 H 1170 -4.94384 0.424105 0
M  V30 12740 N 1169.18 -0.941978 -1.26351 0
M  V30 12741 C 1170.09 -0.45833 -2.30079 0
M  V30 12742 C 1171.1 0.468084 -1.67586 0
M  V30 12743 O 1172.28 0.347418 -1.98381 0
M  V30 12744 C 1169.34 0.26797 -3.45663 0
M  V30 12745 C 1168.41 -0.695102 -4.23635 0
M  V30 12746 C 1167.64 -0.003369 -5.337 0
M  V30 12747 O 1167.86 1.21342 -5.57344 0
M  V30 12748 O 1166.8 -0.682476 -5.98018 0
M  V30 12749 H 1170.62 -1.31998 -2.73514 0
M  V30 12750 H 1168.21 -0.707897 -1.31564 0
M  V30 12751 H 1170.09 0.677061 -4.15925 0
M  V30 12752 H 1168.76 1.105 -3.04256 0
M  V30 12753 H 1167.67 -1.15415 -3.55851 0
M  V30 12754 H 1169 -1.49977 -4.68794 0
M  V30 12755 N 1170.66 1.40747 -0.709091 0
M  V30 12756 C 1171.89 2.05022 -0.254887 0
M  V30 12757 C 1172.29 1.5351 1.10595 0
M  V30 12758 O 1171.64 0.683912 1.70494 0
M  V30 12759 C 1171.7 3.59188 -0.149823 0
M  V30 12760 C 1171.36 4.33557 -1.44489 0
M  V30 12761 C 1172.36 4.61941 -2.3855 0
M  V30 12762 C 1170.04 4.72585 -1.70201 0
M  V30 12763 C 1172.04 5.2833 -3.56575 0
M  V30 12764 C 1169.73 5.38707 -2.88509 0
M  V30 12765 C 1170.72 5.66509 -3.81518 0
M  V30 12766 O 1170.41 6.31267 -4.97752 0
M  V30 12767 H 1170.14 0.666405 -0.113493 0
M  V30 12768 H 1172.7 1.81261 -0.966099 0
M  V30 12769 H 1170.93 3.81742 0.617276 0
M  V30 12770 H 1172.62 4.05008 0.268965 0
M  V30 12771 H 1173.38 4.32259 -2.19947 0
M  V30 12772 H 1169.26 4.50318 -0.986628 0
M  V30 12773 H 1172.81 5.49947 -4.2919 0
M  V30 12774 H 1168.7 5.67809 -3.07023 0
M  V30 12775 H 1169.47 6.49764 -4.97745 0
M  V30 12776 N 1172.13 0.454803 1.50895 0
M  V30 12777 C 1173.38 -0.10577 2.02224 0
M  V30 12778 C 1173.71 -1.41176 1.33789 0
M  V30 12779 O 1172.96 -1.90522 0.447181 0
M  V30 12780 C 1173.26 -0.354159 3.55641 0
M  V30 12781 C 1172.93 0.868136 4.42464 0
M  V30 12782 C 1171.59 1.2033 4.65912 0
M  V30 12783 C 1173.94 1.68272 4.93289 0
M  V30 12784 C 1171.27 2.3534 5.37431 0
M  V30 12785 C 1173.62 2.82396 5.6607 0
M  V30 12786 C 1172.29 3.16346 5.87777 0
M  V30 12787 H 1171.56 -0.0387041 0.739989 0
M  V30 12788 H 1174.2 0.605564 1.81673 0
M  V30 12789 H 1172.51 -1.14757 3.74617 0
M  V30 12790 H 1174.21 -0.8016 3.92906 0
M  V30 12791 H 1170.8 0.596995 4.24422 0
M  V30 12792 H 1174.98 1.43698 4.75042 0
M  V30 12793 H 1170.24 2.61936 5.52449 0
M  V30 12794 H 1174.41 3.45873 6.04438 0
M  V30 12795 H 1172.04 4.05574 6.42973 0
M  V30 12796 N 1173.61 -1.56489 0.186789 0
M  V30 12797 C 1174.57 -2.17478 -0.723596 0
M  V30 12798 C 1175.57 -1.12698 -1.14699 0
M  V30 12799 O 1176.76 -1.38128 -1.06143 0
M  V30 12800 C 1173.9 -2.77015 -1.98685 0
M  V30 12801 H 1175.09 -2.99282 -0.192403 0
M  V30 12802 H 1172.64 -1.56174 -0.0628153 0
M  V30 12803 H 1173.38 -1.98987 -2.56076 0
M  V30 12804 H 1173.16 -3.53711 -1.69207 0
M  V30 12805 H 1174.65 -3.23872 -2.63622 0
M  V30 12806 N 1175.09 0.086862 -1.5736 0
M  V30 12807 C 1176.02 1.10538 -2.05678 0
M  V30 12808 C 1177 1.41281 -0.947293 0
M  V30 12809 O 1178.19 1.51169 -1.21908 0
M  V30 12810 C 1175.32 2.42302 -2.48812 0
M  V30 12811 C 1174.27 2.25948 -3.63499 0
M  V30 12812 C 1173.6 3.62961 -3.92637 0
M  V30 12813 C 1174.9 1.69319 -4.94094 0
M  V30 12814 H 1176.59 0.703371 -2.91021 0
M  V30 12815 H 1174.14 0.336895 -1.40004 0
M  V30 12816 H 1176.09 3.13833 -2.81224 0
M  V30 12817 H 1174.81 2.84454 -1.60479 0
M  V30 12818 H 1173.47 1.5686 -3.31347 0
M  V30 12819 H 1173.12 4.02656 -3.01459 0
M  V30 12820 H 1172.82 3.52862 -4.69853 0
M  V30 12821 H 1174.34 4.35946 -4.27531 0
M  V30 12822 H 1175.76 2.30699 -5.24834 0
M  V30 12823 H 1174.15 1.69957 -5.7553 0
M  V30 12824 H 1175.22 0.653318 -4.80479 0
M  V30 12825 N 1176.57 1.53483 0.357892 0
M  V30 12826 C 1177.81 1.70037 1.09971 0
M  V30 12827 C 1178.14 0.456112 1.89076 0
M  V30 12828 O 1177.4 -0.562029 1.87456 0
M  V30 12829 C 1177.7 2.90654 2.07978 0
M  V30 12830 C 1177.36 4.26849 1.45295 0
M  V30 12831 C 1176.02 4.63884 1.27928 0
M  V30 12832 C 1178.38 5.11514 1.00013 0
M  V30 12833 C 1175.7 5.83213 0.638745 0
M  V30 12834 C 1178.06 6.31496 0.373568 0
M  V30 12835 C 1176.72 6.67237 0.187457 0
M  V30 12836 H 1175.99 0.622209 0.402414 0
M  V30 12837 H 1178.64 1.87679 0.380615 0
M  V30 12838 H 1176.94 2.67556 2.86219 0
M  V30 12839 H 1178.64 3.00656 2.65343 0
M  V30 12840 H 1175.23 3.97693 1.59807 0
M  V30 12841 H 1179.41 4.83446 1.12221 0
M  V30 12842 H 1174.67 6.09489 0.483035 0
M  V30 12843 H 1178.84 6.96398 0.0145346 0
M  V30 12844 H 1176.47 7.59564 -0.310933 0
M  V30 12845 N 1178.05 -0.61812 1.44973 0
M  V30 12846 C 1178.96 -1.7579 1.55355 0
M  V30 12847 C 1179.97 -1.68384 0.438512 0
M  V30 12848 O 1181.15 -1.88928 0.697715 0
M  V30 12849 C 1178.21 -3.1222 1.50729 0
M  V30 12850 C 1177.27 -3.3116 2.73188 0
M  V30 12851 C 1176.51 -4.61082 2.68774 0
M  V30 12852 O 1176.73 -5.42728 1.75507 0
M  V30 12853 O 1175.66 -4.82506 3.59821 0
M  V30 12854 H 1179.49 -1.69983 2.51674 0
M  V30 12855 H 1177.07 -0.780934 1.27365 0
M  V30 12856 H 1178.96 -3.93524 1.5072 0
M  V30 12857 H 1177.63 -3.18541 0.575587 0
M  V30 12858 H 1176.54 -2.49485 2.78762 0
M  V30 12859 H 1177.87 -3.29709 3.65449 0
M  V30 12860 N 1179.52 -1.32087 -0.859693 0
M  V30 12861 C 1180.43 -1.22587 -2.00024 0
M  V30 12862 C 1181.45 -0.140477 -1.73432 0
M  V30 12863 O 1182.63 -0.360213 -1.98153 0
M  V30 12864 C 1179.69 -0.944195 -3.33595 0
M  V30 12865 C 1178.75 -2.11752 -3.73443 0
M  V30 12866 C 1177.98 -1.84919 -5.0064 0
M  V30 12867 O 1178.21 -0.789299 -5.64913 0
M  V30 12868 O 1177.14 -2.70885 -5.37499 0
M  V30 12869 H 1180.97 -2.18457 -2.10974 0
M  V30 12870 H 1178.55 -1.11927 -0.989577 0
M  V30 12871 H 1180.43 -0.803389 -4.13671 0
M  V30 12872 H 1179.11 -0.0156083 -3.23696 0
M  V30 12873 H 1178.02 -2.31378 -2.93965 0
M  V30 12874 H 1179.35 -3.02872 -3.87981 0
M  V30 12875 N 1181 1.07532 -1.15215 0
M  V30 12876 C 1181.93 2.14598 -0.805006 0
M  V30 12877 C 1182.95 1.61778 0.182152 0
M  V30 12878 O 1184.14 1.78453 -0.040834 0
M  V30 12879 C 1181.24 3.38444 -0.175736 0
M  V30 12880 C 1180.41 4.20621 -1.19986 0
M  V30 12881 C 1179.47 5.22851 -0.592705 0
M  V30 12882 O 1178.49 5.55121 -1.25815 0
M  V30 12883 N 1179.7 5.7711 0.626425 0
M  V30 12884 H 1182.46 2.44981 -1.7264 0
M  V30 12885 H 1180.02 1.23423 -1.04778 0
M  V30 12886 H 1182.01 4.03969 0.243166 0
M  V30 12887 H 1180.58 3.0579 0.64896 0
M  V30 12888 H 1179.8 3.50941 -1.79539 0
M  V30 12889 H 1181.09 4.72339 -1.89139 0
M  V30 12890 H 1180.49 5.53139 1.18546 0
M  V30 12891 H 1179.05 6.44273 0.98771 0
M  V30 12892 N 1182.48 0.948665 1.2585 0
M  V30 12893 C 1183.73 0.59905 1.93018 0
M  V30 12894 C 1184.05 -0.865813 1.74725 0
M  V30 12895 O 1183.32 -1.61602 1.10732 0
M  V30 12896 H 1181.9 0.218565 0.71431 0
M  V30 12897 H 1184.56 1.20561 1.53137 0
M  V30 12898 H 1183.66 0.823244 3.01047 0
M  V30 12899 N 1183.96 -1.40369 0.716545 0
M  V30 12900 C 1185.21 -2.00101 0.253452 0
M  V30 12901 C 1185.52 -1.57471 -1.16027 0
M  V30 12902 O 1186.73 -2.09909 -1.72193 0
M  V30 12903 C 1185.18 -3.57645 0.402213 0
M  V30 12904 C 1184.79 -4.09248 1.82264 0
M  V30 12905 C 1186.53 -4.245 -3.88526e-05 0
M  V30 12906 C 1184.44 -5.59299 1.92193 0
M  V30 12907 H 1183.37 -0.748488 0.0910047 0
M  V30 12908 H 1186.02 -1.60595 0.887772 0
M  V30 12909 H 1184.4 -3.94857 -0.300706 0
M  V30 12910 H 1185.58 -3.83412 2.55601 0
M  V30 12911 H 1183.89 -3.54993 2.17644 0
M  V30 12912 H 1186.49 -5.34673 0.0534202 0
M  V30 12913 H 1186.83 -4.03046 -1.04208 0
M  V30 12914 H 1187.37 -3.92398 0.65336 0
M  V30 12915 H 1184.11 -5.85608 2.94522 0
M  V30 12916 H 1183.63 -5.86997 1.23268 0
M  V30 12917 H 1185.3 -6.24416 1.6945 0
M  V30 12918 N 1185.44 -0.462799 -1.50652 0
M  V30 12919 C 1186.68 0.0948568 -2.01877 0
M  V30 12920 C 1187.01 1.4096 -1.34741 0
M  V30 12921 O 1186.28 1.89671 -0.49006 0
M  V30 12922 H 1184.86 0.0380453 -0.746031 0
M  V30 12923 H 1187.52 -0.611327 -1.85064 0
M  V30 12924 H 1186.61 0.252378 -3.11078 0
M  V30 12925 N 1186.91 1.56388 -0.195085 0
M  V30 12926 C 1188.16 1.97872 0.444344 0
M  V30 12927 C 1188.49 1.0819 1.61271 0
M  V30 12928 O 1187.77 0.133904 1.94039 0
M  V30 12929 C 1188.05 3.48556 0.90449 0
M  V30 12930 C 1187.9 4.49015 -0.265693 0
M  V30 12931 C 1189.22 4.02938 1.76999 0
M  V30 12932 H 1186.34 0.719413 0.160041 0
M  V30 12933 H 1188.98 1.87835 -0.286005 0
M  V30 12934 H 1187.13 3.5724 1.52682 0
M  V30 12935 H 1188.81 4.52368 -0.903363 0
M  V30 12936 H 1187.05 4.23987 -0.917462 0
M  V30 12937 H 1187.72 5.51912 0.0987834 0
M  V30 12938 H 1190.2 3.97033 1.24514 0
M  V30 12939 H 1189.07 5.08741 2.06092 0
M  V30 12940 H 1189.33 3.48197 2.72418 0
M  V30 12941 N 1188.39 -0.0785156 1.57404 0
M  V30 12942 C 1189.32 -1.12058 1.99939 0
M  V30 12943 C 1190.34 -1.35372 0.904343 0
M  V30 12944 O 1191.53 -1.33731 1.1823 0
M  V30 12945 C 1188.63 -2.47285 2.31739 0
M  V30 12946 C 1187.8 -2.44021 3.63005 0
M  V30 12947 C 1186.86 -3.61303 3.82552 0
M  V30 12948 O 1185.88 -3.43039 4.54217 0
M  V30 12949 N 1187.09 -4.81404 3.24392 0
M  V30 12950 H 1189.85 -0.758416 2.89945 0
M  V30 12951 H 1187.41 -0.267266 1.59679 0
M  V30 12952 H 1189.4 -3.24377 2.41995 0
M  V30 12953 H 1187.97 -2.75529 1.47657 0
M  V30 12954 H 1187.19 -1.52361 3.63565 0
M  V30 12955 H 1188.48 -2.38934 4.49208 0
M  V30 12956 H 1187.88 -4.99147 2.66211 0
M  V30 12957 H 1186.44 -5.56031 3.40107 0
M  V30 12958 N 1189.87 -1.5367 -0.349747 0
M  V30 12959 C 1191.12 -1.71813 -1.08866 0
M  V30 12960 C 1191.47 -0.472299 -1.86513 0
M  V30 12961 O 1190.76 0.534996 -1.83979 0
M  V30 12962 C 1190.96 -2.91753 -2.06434 0
M  V30 12963 C 1190.79 -4.27881 -1.38377 0
M  V30 12964 C 1189.56 -4.92475 -1.13122 0
M  V30 12965 C 1191.76 -5.0783 -0.813198 0
M  V30 12966 N 1189.74 -6.1249 -0.415806 0
M  V30 12967 C 1191.11 -6.19581 -0.228008 0
M  V30 12968 C 1193.16 -4.92762 -0.713436 0
M  V30 12969 C 1191.87 -7.17908 0.447232 0
M  V30 12970 C 1193.89 -5.91377 -0.051947 0
M  V30 12971 C 1193.25 -7.02461 0.522299 0
M  V30 12972 H 1189.35 -0.681804 -0.382971 0
M  V30 12973 H 1191.94 -1.91093 -0.373029 0
M  V30 12974 H 1190.11 -2.73984 -2.75295 0
M  V30 12975 H 1191.84 -2.98644 -2.73118 0
M  V30 12976 H 1188.6 -4.51915 -1.41669 0
M  V30 12977 H 1189.02 -6.76961 -0.0730052 0
M  V30 12978 H 1193.66 -4.07053 -1.14315 0
M  V30 12979 H 1191.38 -8.03197 0.888855 0
M  V30 12980 H 1194.97 -5.81795 0.0245295 0
M  V30 12981 H 1193.85 -7.77459 1.02605 0
M  V30 12982 N 1191.35 0.610423 -1.45298 0
M  V30 12983 C 1192.63 1.36966 -1.39641 0
M  V30 12984 C 1193.01 2.10998 -0.0655757 0
M  V30 12985 O 1192.35 2.07705 0.952407 0
M  V30 12986 C 1192.56 2.31885 -2.60826 0
M  V30 12987 C 1193.91 2.9458 -3.05791 0
M  V30 12988 O 1194.94 2.42207 -2.61179 0
M  V30 12989 O 1193.79 3.89639 -3.83202 0
M  V30 12990 H 1190.89 0.61401 -0.554004 0
M  V30 12991 H 1193.43 0.633748 -1.57422 0
M  V30 12992 H 1192.21 1.76421 -3.49272 0
M  V30 12993 H 1191.83 3.12861 -2.45364 0
M  V30 12994 N 1192.83 1.32541 0.852676 0
M  V30 12995 C 1193.77 1.21602 1.98282 0
M  V30 12996 C 1194.77 0.120384 1.68972 0
M  V30 12997 O 1195.97 0.283441 1.77754 0
M  V30 12998 H 1192.35 0.376994 0.650676 0
M  V30 12999 H 1194.32 2.17179 2.04636 0
M  V30 13000 C 1193.07 0.957965 3.34243 0
M  V30 13001 H 1192.39 1.79324 3.57327 0
M  V30 13002 H 1193.83 0.921673 4.13861 0
M  V30 13003 C 1192.29 -0.339271 3.35187 0
M  V30 13004 O 1192.82 -1.3505 3.78318 0
M  V30 13005 N 1191.03 -0.361944 2.88337 0
M  V30 13006 H 1190.57 0.461497 2.53432 0
M  V30 13007 H 1190.53 -1.22976 2.89352 0
M  V30 13008 N 1194.3 -1.0692 1.15784 0
M  V30 13009 C 1195.23 -2.16216 0.881649 0
M  V30 13010 C 1196.22 -1.69253 -0.16951 0
M  V30 13011 O 1197.4 -1.94186 -0.0229511 0
M  V30 13012 C 1194.53 -3.4527 0.374982 0
M  V30 13013 C 1193.48 -4.05706 1.36332 0
M  V30 13014 C 1192.81 -5.29894 0.715317 0
M  V30 13015 C 1194.11 -4.45224 2.7308 0
M  V30 13016 H 1195.8 -2.39577 1.79563 0
M  V30 13017 H 1193.35 -1.15141 0.864784 0
M  V30 13018 H 1195.3 -4.2106 0.169279 0
M  V30 13019 H 1194.03 -3.21508 -0.574485 0
M  V30 13020 H 1192.69 -3.31965 1.55546 0
M  V30 13021 H 1192.33 -5.02425 -0.240436 0
M  V30 13022 H 1192.03 -5.71287 1.37494 0
M  V30 13023 H 1193.56 -6.08386 0.519489 0
M  V30 13024 H 1194.97 -5.12124 2.57686 0
M  V30 13025 H 1193.37 -4.97583 3.35457 0
M  V30 13026 H 1194.44 -3.56384 3.28813 0
M  V30 13027 N 1195.78 -0.955326 -1.25345 0
M  V30 13028 C 1197.03 -0.610484 -1.93079 0
M  V30 13029 C 1197.36 0.852591 -1.74817 0
M  V30 13030 O 1196.61 1.6272 -1.08723 0
M  V30 13031 C 1196.91 -0.916173 -3.45458 0
M  V30 13032 C 1196.58 -2.36539 -3.83875 0
M  V30 13033 C 1195.24 -2.76152 -3.94073 0
M  V30 13034 C 1197.59 -3.30652 -4.02888 0
M  V30 13035 C 1194.92 -4.08944 -4.20692 0
M  V30 13036 C 1197.27 -4.63057 -4.31 0
M  V30 13037 C 1195.94 -5.02464 -4.39415 0
M  V30 13038 H 1195.21 -0.223392 -0.706525 0
M  V30 13039 H 1197.85 -1.20449 -1.48877 0
M  V30 13040 H 1196.16 -0.23978 -3.91066 0
M  V30 13041 H 1197.85 -0.627929 -3.96053 0
M  V30 13042 H 1194.44 -2.04819 -3.76493 0
M  V30 13043 H 1198.63 -3.01237 -3.94423 0
M  V30 13044 H 1193.88 -4.39118 -4.25423 0
M  V30 13045 H 1198.06 -5.3596 -4.44657 0
M  V30 13046 H 1195.69 -6.05386 -4.59795 0
M  V30 13047 N 1197.26 1.39987 -0.723979 0
M  V30 13048 C 1198.17 2.3447 -0.0780936 0
M  V30 13049 C 1199.19 1.57744 0.734368 0
M  V30 13050 O 1200.36 1.90091 0.665385 0
M  V30 13051 C 1197.43 3.36705 0.826492 0
M  V30 13052 C 1196.49 4.293 0.00303036 0
M  V30 13053 C 1195.72 5.26651 0.864535 0
M  V30 13054 O 1195.95 5.30194 2.10357 0
M  V30 13055 O 1194.88 6.01157 0.299057 0
M  V30 13056 H 1198.71 2.91338 -0.857646 0
M  V30 13057 H 1196.29 1.41324 -0.484536 0
M  V30 13058 H 1198.17 3.9938 1.34439 0
M  V30 13059 H 1196.85 2.82237 1.58505 0
M  V30 13060 H 1195.75 3.69883 -0.560136 0
M  V30 13061 H 1197.09 4.86942 -0.717494 0
M  V30 13062 N 1198.74 0.470782 1.50404 0
M  V30 13063 C 1199.96 -0.084284 2.07229 0
M  V30 13064 C 1200.39 -1.32774 1.33239 0
M  V30 13065 O 1199.75 -1.77274 0.379971 0
M  V30 13066 C 1199.8 -0.351565 3.58882 0
M  V30 13067 O 1198.9 -1.43211 3.86736 0
M  V30 13068 H 1198.24 0.0128479 0.663876 0
M  V30 13069 H 1200.77 0.661735 1.93603 0
M  V30 13070 H 1200.78 -0.592151 4.0368 0
M  V30 13071 H 1199.46 0.557084 4.12152 0
M  V30 13072 H 1198.03 -1.17886 3.53776 0
M  V30 13073 N 1200.22 -1.56282 0.203376 0
M  V30 13074 C 1201.63 -1.84146 -0.307752 0
M  V30 13075 C 1201.98 -1.12429 -1.60792 0
M  V30 13076 O 1201.1 -0.387852 -2.12896 0
M  V30 13077 C 1201.7 -3.34053 -0.565152 0
M  V30 13078 C 1200.26 -3.62298 -1.02063 0
M  V30 13079 C 1199.41 -2.77202 -0.0737343 0
M  V30 13080 H 1202.36 -1.52848 0.426983 0
M  V30 13081 H 1202.38 -3.53273 -1.41345 0
M  V30 13082 H 1201.89 -3.86222 0.381301 0
M  V30 13083 H 1199.99 -3.1557 -1.98107 0
M  V30 13084 H 1200.1 -4.70424 -0.907614 0
M  V30 13085 H 1198.47 -2.48074 -0.577169 0
M  V30 13086 H 1199.25 -3.32164 0.86731 0
M  V30 13087 N 1201.7 0.070167 -1.57444 0
M  V30 13088 C 1202.94 0.770153 -1.87607 0
M  V30 13089 C 1203.27 1.77143 -0.795875 0
M  V30 13090 O 1202.55 1.93533 0.193674 0
M  V30 13091 C 1202.83 1.47668 -3.2843 0
M  V30 13092 C 1202.69 0.491712 -4.47104 0
M  V30 13093 C 1204 2.42118 -3.67514 0
M  V30 13094 H 1201.12 0.278519 -0.682346 0
M  V30 13095 H 1203.77 0.0333184 -1.89971 0
M  V30 13096 H 1201.92 2.10476 -3.26546 0
M  V30 13097 H 1203.59 -0.131283 -4.61113 0
M  V30 13098 H 1201.83 -0.192817 -4.33371 0
M  V30 13099 H 1202.5 1.02372 -5.42424 0
M  V30 13100 H 1204.98 1.89387 -3.70502 0
M  V30 13101 H 1203.85 2.88556 -4.66933 0
M  V30 13102 H 1204.11 3.26995 -2.97534 0
M  V30 13103 N 1203.17 1.53854 0.341593 0
M  V30 13104 C 1204.08 1.84975 1.44297 0
M  V30 13105 C 1205.1 0.740057 1.57477 0
M  V30 13106 O 1206.28 1.03256 1.72917 0
M  V30 13107 C 1203.34 2.05464 2.79259 0
M  V30 13108 C 1202.4 3.29318 2.75405 0
M  V30 13109 C 1201.63 3.4882 4.03931 0
M  V30 13110 O 1201.86 2.7212 5.01305 0
M  V30 13111 O 1200.79 4.42253 4.08284 0
M  V30 13112 H 1204.62 2.78592 1.20913 0
M  V30 13113 H 1202.2 1.39532 0.533953 0
M  V30 13114 H 1204.08 2.20374 3.59184 0
M  V30 13115 H 1202.76 1.15035 3.0257 0
M  V30 13116 H 1201.67 3.1981 1.94094 0
M  V30 13117 H 1203 4.19746 2.57049 0
M  V30 13118 N 1204.65 -0.602709 1.4562 0
M  V30 13119 C 1205.56 -1.74132 1.5721 0
M  V30 13120 C 1206.58 -1.67909 0.456347 0
M  V30 13121 O 1207.75 -1.88178 0.717714 0
M  V30 13122 C 1204.82 -3.10604 1.54032 0
M  V30 13123 C 1203.88 -3.28244 2.76685 0
M  V30 13124 C 1203.11 -4.58205 2.73649 0
M  V30 13125 O 1203.34 -5.40836 1.81254 0
M  V30 13126 O 1202.27 -4.78663 3.64919 0
M  V30 13127 H 1206.1 -1.67304 2.53462 0
M  V30 13128 H 1203.68 -0.767381 1.28186 0
M  V30 13129 H 1205.56 -3.91904 1.54885 0
M  V30 13130 H 1204.24 -3.17913 0.60934 0
M  V30 13131 H 1203.14 -2.46514 2.81393 0
M  V30 13132 H 1204.48 -3.25814 3.68925 0
M  V30 13133 N 1206.13 -1.32992 -0.845635 0
M  V30 13134 C 1207.41 -1.14671 -1.58461 0
M  V30 13135 C 1207.79 0.289498 -2.09106 0
M  V30 13136 O 1207.13 1.28751 -1.88773 0
M  V30 13137 C 1207.34 -2.18206 -2.72373 0
M  V30 13138 C 1208.69 -2.5201 -3.41726 0
M  V30 13139 O 1209.72 -2.16821 -2.82608 0
M  V30 13140 O 1208.58 -3.12368 -4.48429 0
M  V30 13141 H 1205.67 -0.443088 -0.698285 0
M  V30 13142 H 1208.22 -1.44552 -0.888978 0
M  V30 13143 H 1206.99 -3.14707 -2.32541 0
M  V30 13144 H 1206.61 -1.89372 -3.49605 0
M  V30 13145 N 1207.61 1.06304 -1.1635 0
M  V30 13146 C 1208.86 1.78747 -0.943074 0
M  V30 13147 C 1209.18 1.87646 0.530483 0
M  V30 13148 O 1208.45 1.38506 1.38538 0
M  V30 13149 H 1207.03 0.662072 -0.345932 0
M  V30 13150 H 1209.69 1.28413 -1.46615 0
M  V30 13151 H 1208.78 2.80828 -1.3617 0
M  V30 13152 N 1209.09 0.96196 1.24836 0
M  V30 13153 C 1210.33 0.620715 1.92752 0
M  V30 13154 C 1210.66 -0.843308 1.75267 0
M  V30 13155 O 1209.92 -1.62141 1.09584 0
M  V30 13156 C 1210.21 0.934481 3.44967 0
M  V30 13157 C 1209.88 2.38572 3.82615 0
M  V30 13158 C 1208.54 2.78238 3.92603 0
M  V30 13159 C 1210.89 3.32784 4.01129 0
M  V30 13160 C 1208.22 4.11169 4.18518 0
M  V30 13161 C 1210.57 4.65336 4.28539 0
M  V30 13162 C 1209.24 5.04788 4.36745 0
M  V30 13163 H 1208.51 0.227136 0.70533 0
M  V30 13164 H 1211.16 1.21237 1.48236 0
M  V30 13165 H 1209.46 0.260516 3.90933 0
M  V30 13166 H 1211.16 0.648923 3.95715 0
M  V30 13167 H 1207.75 2.06812 3.75402 0
M  V30 13168 H 1211.93 3.03325 3.9282 0
M  V30 13169 H 1207.19 4.41368 4.23089 0
M  V30 13170 H 1211.36 5.3831 4.41809 0
M  V30 13171 H 1208.99 6.07816 4.56579 0
M  V30 13172 N 1210.56 -1.39601 0.731392 0
M  V30 13173 C 1211.51 -2.32469 0.0781328 0
M  V30 13174 C 1212.51 -1.52873 -0.729811 0
M  V30 13175 O 1213.71 -1.68563 -0.631402 0
M  V30 13176 H 1210.09 -0.751972 0.00646515 0
M  V30 13177 H 1212.06 -2.85196 0.877833 0
M  V30 13178 C 1210.81 -3.37948 -0.817717 0
M  V30 13179 H 1210.13 -3.99272 -0.205417 0
M  V30 13180 H 1211.57 -4.05387 -1.24248 0
M  V30 13181 C 1210.03 -2.74703 -1.95038 0
M  V30 13182 O 1210.56 -2.62266 -3.04269 0
M  V30 13183 N 1208.76 -2.32845 -1.73872 0
M  V30 13184 H 1208.31 -2.43161 -0.850321 0
M  V30 13185 H 1208.27 -1.90869 -2.49833 0
M  V30 13186 N 1212.04 -0.478751 -1.50152 0
M  V30 13187 C 1212.97 0.301182 -2.31549 0
M  V30 13188 C 1213.95 0.983276 -1.38801 0
M  V30 13189 O 1215.14 0.978973 -1.67719 0
M  V30 13190 C 1212.27 1.3791 -3.18745 0
M  V30 13191 C 1211.22 0.818175 -4.20107 0
M  V30 13192 C 1210.55 1.99496 -4.9609 0
M  V30 13193 C 1211.85 -0.17574 -5.22004 0
M  V30 13194 H 1213.54 -0.378188 -2.97002 0
M  V30 13195 H 1211.09 -0.183323 -1.42828 0
M  V30 13196 H 1213.04 1.93227 -3.74488 0
M  V30 13197 H 1211.77 2.08735 -2.51192 0
M  V30 13198 H 1210.42 0.286924 -3.65475 0
M  V30 13199 H 1210.07 2.69036 -4.25004 0
M  V30 13200 H 1209.77 1.62582 -5.6466 0
M  V30 13201 H 1211.3 2.55288 -5.54671 0
M  V30 13202 H 1212.71 0.288513 -5.72574 0
M  V30 13203 H 1211.11 -0.459549 -5.98338 0
M  V30 13204 H 1212.18 -1.09911 -4.72279 0
M  V30 13205 N 1213.52 1.56172 -0.211661 0
M  V30 13206 C 1214.75 2.02428 0.427843 0
M  V30 13207 C 1215.16 1.09162 1.54043 0
M  V30 13208 O 1214.52 0.0994249 1.82229 0
M  V30 13209 C 1214.57 3.48279 0.968728 0
M  V30 13210 O 1214.29 4.37987 -0.0994841 0
M  V30 13211 C 1215.79 4.10132 1.68246 0
M  V30 13212 H 1213.01 0.662611 0.10577 0
M  V30 13213 H 1215.56 2.01897 -0.32522 0
M  V30 13214 H 1213.71 3.49456 1.6721 0
M  V30 13215 H 1214.13 5.23609 0.305558 0
M  V30 13216 H 1215.6 5.13985 2.01304 0
M  V30 13217 H 1216.08 3.54552 2.5921 0
M  V30 13218 H 1216.68 4.12775 1.02453 0
M  V30 13219 N 1215 -0.0618163 1.57479 0
M  V30 13220 C 1216.23 -0.771724 1.91969 0
M  V30 13221 C 1216.64 -1.7061 0.808549 0
M  V30 13222 O 1216 -1.812 -0.217455 0
M  V30 13223 C 1216.05 -1.55687 3.26257 0
M  V30 13224 O 1215.77 -0.660032 4.331 0
M  V30 13225 C 1217.27 -2.36688 3.74825 0
M  V30 13226 H 1214.49 -0.21885 0.634307 0
M  V30 13227 H 1217.04 -0.0291068 2.04479 0
M  V30 13228 H 1215.19 -2.25167 3.15244 0
M  V30 13229 H 1215.6 -1.20715 5.1042 0
M  V30 13230 H 1217.08 -2.8722 4.7139 0
M  V30 13231 H 1217.56 -3.1666 3.0434 0
M  V30 13232 H 1218.16 -1.72346 3.88815 0
M  V30 13233 N 1216.48 -1.54033 -0.333429 0
M  V30 13234 C 1217.7 -1.76031 -1.09672 0
M  V30 13235 C 1218.13 -0.502844 -1.81254 0
M  V30 13236 O 1217.48 0.54509 -1.72912 0
M  V30 13237 C 1217.53 -2.947 -2.07809 0
M  V30 13238 O 1216.64 -2.65555 -3.15522 0
M  V30 13239 H 1215.98 -0.583611 -0.316692 0
M  V30 13240 H 1218.51 -2.01026 -0.380732 0
M  V30 13241 H 1218.52 -3.21771 -2.50853 0
M  V30 13242 H 1217.19 -3.85895 -1.55106 0
M  V30 13243 H 1215.77 -2.49403 -2.77223 0
M  V30 13244 N 1217.95 0.594978 -1.45938 0
M  V30 13245 C 1219.2 1.35561 -1.50834 0
M  V30 13246 C 1219.53 1.93584 -0.154566 0
M  V30 13247 O 1218.81 1.75781 0.832541 0
M  V30 13248 C 1219.09 2.49414 -2.5974 0
M  V30 13249 C 1218.94 1.96506 -4.04605 0
M  V30 13250 C 1220.26 3.51505 -2.64825 0
M  V30 13251 H 1217.38 0.491549 -0.549134 0
M  V30 13252 H 1220.02 0.669536 -1.77812 0
M  V30 13253 H 1218.17 3.07939 -2.36866 0
M  V30 13254 H 1219.85 1.42533 -4.38728 0
M  V30 13255 H 1218.09 1.27418 -4.14665 0
M  V30 13256 H 1218.76 2.78636 -4.76515 0
M  V30 13257 H 1221.24 3.02841 -2.85353 0
M  V30 13258 H 1220.11 4.28641 -3.42867 0
M  V30 13259 H 1220.37 4.07942 -1.70399 0
M  V30 13260 N 1219.43 1.33438 0.838571 0
M  V30 13261 C 1220.66 1.28097 1.63113 0
M  V30 13262 C 1221.08 -0.145197 1.87539 0
M  V30 13263 O 1220.44 -1.10191 1.43971 0
M  V30 13264 C 1220.49 2.06201 2.95827 0
M  V30 13265 O 1219.59 1.42082 3.87152 0
M  V30 13266 H 1218.93 0.440685 0.496681 0
M  V30 13267 H 1221.46 1.76004 1.04325 0
M  V30 13268 H 1221.47 2.16977 3.45521 0
M  V30 13269 H 1220.15 3.099 2.77371 0
M  V30 13270 H 1218.73 1.39953 3.45641 0
M  V30 13271 N 1220.91 -1.05686 1.16912 0
M  V30 13272 C 1221.84 -2.12775 0.824755 0
M  V30 13273 C 1222.82 -1.61286 -0.206289 0
M  V30 13274 O 1224.01 -1.8829 -0.0889616 0
M  V30 13275 C 1221.13 -3.37922 0.229422 0
M  V30 13276 C 1220.18 -4.08226 1.23506 0
M  V30 13277 S 1221.01 -4.57424 2.78431 0
M  V30 13278 C 1222.17 -5.85825 2.20364 0
M  V30 13279 H 1222.4 -2.41657 1.73174 0
M  V30 13280 H 1219.93 -1.18212 0.99324 0
M  V30 13281 H 1221.89 -4.10359 -0.107588 0
M  V30 13282 H 1220.55 -3.07186 -0.655424 0
M  V30 13283 H 1219.75 -4.98129 0.767059 0
M  V30 13284 H 1219.35 -3.41832 1.51747 0
M  V30 13285 H 1221.64 -6.58912 1.57611 0
M  V30 13286 H 1222.58 -6.37364 3.08501 0
M  V30 13287 H 1222.99 -5.4015 1.64008 0
M  V30 13288 N 1222.39 -0.968567 -1.24324 0
M  V30 13289 C 1223.32 -0.444065 -2.23838 0
M  V30 13290 C 1224.3 0.482311 -1.55282 0
M  V30 13291 O 1225.48 0.413489 -1.83909 0
M  V30 13292 C 1222.61 0.358874 -3.36793 0
M  V30 13293 C 1221.66 -0.509913 -4.23441 0
M  V30 13294 S 1222.49 -1.95064 -4.98708 0
M  V30 13295 C 1223.65 -1.15652 -6.15122 0
M  V30 13296 H 1223.88 -1.28738 -2.67981 0
M  V30 13297 H 1221.41 -0.773665 -1.33618 0
M  V30 13298 H 1223.37 0.816164 -4.02305 0
M  V30 13299 H 1222.03 1.17717 -2.91207 0
M  V30 13300 H 1221.22 0.106617 -5.03887 0
M  V30 13301 H 1220.83 -0.902967 -3.62936 0
M  V30 13302 H 1223.12 -0.411966 -6.76246 0
M  V30 13303 H 1224.06 -1.93539 -6.81137 0
M  V30 13304 H 1224.47 -0.680507 -5.60383 0
M  V30 13305 N 1223.87 1.39211 -0.738786 0
M  V30 13306 C 1224.8 2.33209 -0.11647 0
M  V30 13307 C 1225.78 1.54108 0.720056 0
M  V30 13308 O 1226.96 1.82486 0.664264 0
M  V30 13309 C 1224.09 3.38226 0.78872 0
M  V30 13310 C 1223.05 4.27963 0.0560636 0
M  V30 13311 C 1222.37 5.2371 1.07852 0
M  V30 13312 C 1223.67 5.10508 -1.1036 0
M  V30 13313 H 1225.37 2.85501 -0.901649 0
M  V30 13314 H 1222.91 1.37272 -0.435032 0
M  V30 13315 H 1224.87 4.02938 1.23364 0
M  V30 13316 H 1223.59 2.84382 1.60606 0
M  V30 13317 H 1222.25 3.64735 -0.369274 0
M  V30 13318 H 1221.9 4.66161 1.88953 0
M  V30 13319 H 1221.6 5.846 0.593048 0
M  V30 13320 H 1223.12 5.91299 1.52307 0
M  V30 13321 H 1224.53 5.68544 -0.736943 0
M  V30 13322 H 1222.93 5.80558 -1.51895 0
M  V30 13323 H 1224 4.45117 -1.92352 0
M  V30 13324 N 1225.34 0.486708 1.49896 0
M  V30 13325 C 1226.59 -0.062852 2.02402 0
M  V30 13326 C 1226.92 -1.38306 1.36754 0
M  V30 13327 O 1226.17 -1.89531 0.487493 0
M  V30 13328 C 1226.47 -0.278643 3.56312 0
M  V30 13329 C 1226.14 0.961794 4.40523 0
M  V30 13330 C 1224.8 1.30185 4.63255 0
M  V30 13331 C 1227.15 1.78697 4.89609 0
M  V30 13332 C 1224.48 2.46686 5.32318 0
M  V30 13333 C 1226.83 2.9434 5.59953 0
M  V30 13334 C 1225.5 3.28742 5.80935 0
M  V30 13335 H 1224.77 -0.0229992 0.740643 0
M  V30 13336 H 1227.41 0.643963 1.80348 0
M  V30 13337 H 1225.72 -1.06785 3.76967 0
M  V30 13338 H 1227.42 -0.718078 3.94518 0
M  V30 13339 H 1224.01 0.686887 4.2306 0
M  V30 13340 H 1228.19 1.53742 4.71887 0
M  V30 13341 H 1223.45 2.73596 5.46768 0
M  V30 13342 H 1227.62 3.58616 5.96965 0
M  V30 13343 H 1225.25 4.19121 6.34225 0
M  V30 13344 N 1226.82 -1.56058 0.219941 0
M  V30 13345 C 1228.1 -1.90087 -0.46112 0
M  V30 13346 C 1228.48 -1.13705 -1.77861 0
M  V30 13347 O 1227.83 -0.245868 -2.27173 0
M  V30 13348 C 1228.04 -3.42786 -0.655644 0
M  V30 13349 C 1229.39 -4.13517 -0.963803 0
M  V30 13350 O 1230.41 -3.48376 -0.742488 0
M  V30 13351 O 1229.27 -5.28692 -1.38374 0
M  V30 13352 H 1226.36 -0.790311 -0.243595 0
M  V30 13353 H 1228.91 -1.67665 0.262005 0
M  V30 13354 H 1227.68 -3.90341 0.273738 0
M  V30 13355 H 1227.3 -3.70982 -1.43032 0
M  V30 13356 N 1228.3 0.053464 -1.57509 0
M  V30 13357 C 1229.53 0.761533 -1.92375 0
M  V30 13358 C 1229.94 1.70179 -0.817585 0
M  V30 13359 O 1229.3 1.81313 0.207843 0
M  V30 13360 C 1229.35 1.53954 -3.27078 0
M  V30 13361 O 1229.07 0.637054 -4.33443 0
M  V30 13362 C 1230.57 2.34697 -3.76075 0
M  V30 13363 H 1227.79 0.215483 -0.635459 0
M  V30 13364 H 1230.34 0.0182624 -2.04492 0
M  V30 13365 H 1228.49 2.23492 -3.16434 0
M  V30 13366 H 1228.91 1.18006 -5.11053 0
M  V30 13367 H 1230.38 2.84716 -4.72906 0
M  V30 13368 H 1230.86 3.15041 -3.06016 0
M  V30 13369 H 1231.46 1.70281 -3.89724 0
M  V30 13370 N 1229.78 1.54207 0.325255 0
M  V30 13371 C 1231.03 1.72331 1.0634 0
M  V30 13372 C 1231.35 0.496115 1.88066 0
M  V30 13373 O 1230.61 -0.52214 1.88606 0
M  V30 13374 C 1230.91 2.95 2.01766 0
M  V30 13375 C 1230.57 4.29835 1.36208 0
M  V30 13376 C 1229.24 4.66493 1.18059 0
M  V30 13377 C 1231.59 5.13521 0.891404 0
M  V30 13378 C 1228.92 5.84436 0.514894 0
M  V30 13379 C 1231.27 6.32146 0.239534 0
M  V30 13380 C 1229.93 6.67484 0.0458839 0
M  V30 13381 H 1229.2 0.630605 0.389125 0
M  V30 13382 H 1231.85 1.88445 0.34072 0
M  V30 13383 H 1230.15 2.73567 2.80479 0
M  V30 13384 H 1231.85 3.06217 2.58906 0
M  V30 13385 H 1228.44 4.00993 1.51335 0
M  V30 13386 H 1232.63 4.85718 1.01941 0
M  V30 13387 H 1227.88 6.10376 0.353644 0
M  V30 13388 H 1232.06 6.96273 -0.133185 0
M  V30 13389 H 1229.68 7.58733 -0.471978 0
M  V30 13390 N 1231.26 -0.58723 1.46251 0
M  V30 13391 C 1232.19 -1.70694 1.5933 0
M  V30 13392 C 1233.17 -1.64208 0.443831 0
M  V30 13393 O 1234.35 -1.82294 0.669516 0
M  V30 13394 C 1231.48 -3.0933 1.579 0
M  V30 13395 C 1230.44 -3.30643 2.7177 0
M  V30 13396 C 1229.76 -4.69761 2.554 0
M  V30 13397 C 1231.06 -3.18916 4.1363 0
M  V30 13398 H 1232.76 -1.60004 2.53059 0
M  V30 13399 H 1230.3 -0.768343 1.21789 0
M  V30 13400 H 1232.26 -3.87479 1.65644 0
M  V30 13401 H 1230.98 -3.20907 0.60712 0
M  V30 13402 H 1229.64 -2.54892 2.63488 0
M  V30 13403 H 1229.29 -4.78098 1.56306 0
M  V30 13404 H 1228.99 -4.84974 3.31774 0
M  V30 13405 H 1230.51 -5.50084 2.65028 0
M  V30 13406 H 1231.93 -3.86915 4.23048 0
M  V30 13407 H 1230.32 -3.45653 4.90555 0
M  V30 13408 H 1231.39 -2.1606 4.34104 0
M  V30 13409 N 1232.74 -1.33881 -0.831482 0
M  V30 13410 C 1233.97 -1.28625 -1.61676 0
M  V30 13411 C 1234.37 0.143588 -1.88654 0
M  V30 13412 O 1233.72 1.09847 -1.47239 0
M  V30 13413 C 1233.78 -2.00022 -2.98716 0
M  V30 13414 C 1233.44 -3.49309 -2.94674 0
M  V30 13415 C 1234.44 -4.44375 -2.69864 0
M  V30 13416 C 1232.12 -3.91596 -3.14576 0
M  V30 13417 C 1234.12 -5.79703 -2.64996 0
M  V30 13418 C 1231.81 -5.27026 -3.09333 0
M  V30 13419 C 1232.8 -6.20892 -2.84575 0
M  V30 13420 O 1232.49 -7.53841 -2.79248 0
M  V30 13421 H 1232.22 -0.444235 -0.50954 0
M  V30 13422 H 1234.78 -1.76933 -1.04326 0
M  V30 13423 H 1233.01 -1.46316 -3.57951 0
M  V30 13424 H 1234.7 -1.88168 -3.59649 0
M  V30 13425 H 1235.46 -4.13027 -2.54231 0
M  V30 13426 H 1231.34 -3.18938 -3.32865 0
M  V30 13427 H 1234.89 -6.5294 -2.45591 0
M  V30 13428 H 1230.78 -5.57996 -3.24516 0
M  V30 13429 H 1231.55 -7.63476 -2.95037 0
M  V30 13430 N 1234.21 1.05064 -1.1747 0
M  V30 13431 C 1235.46 1.77737 -0.961979 0
M  V30 13432 C 1235.78 1.88198 0.510551 0
M  V30 13433 O 1235.05 1.39968 1.37062 0
M  V30 13434 H 1233.63 0.658366 -0.352935 0
M  V30 13435 H 1236.29 1.26851 -1.47969 0
M  V30 13436 H 1235.39 2.79368 -1.39141 0
M  V30 13437 N 1235.69 0.975146 1.23809 0
M  V30 13438 C 1236.94 0.642074 1.92367 0
M  V30 13439 C 1237.27 -0.82164 1.75962 0
M  V30 13440 O 1236.55 -1.59205 1.11732 0
M  V30 13441 C 1236.83 1.02677 3.45151 0
M  V30 13442 C 1236.68 2.54773 3.7069 0
M  V30 13443 C 1238 0.5668 4.36435 0
M  V30 13444 H 1235.12 0.234735 0.698619 0
M  V30 13445 H 1237.76 1.21549 1.46034 0
M  V30 13446 H 1235.91 0.538846 3.84745 0
M  V30 13447 H 1237.58 3.11099 3.4061 0
M  V30 13448 H 1235.83 2.97641 3.15583 0
M  V30 13449 H 1236.5 2.7674 4.77618 0
M  V30 13450 H 1238.97 0.985635 4.04258 0
M  V30 13451 H 1237.85 0.864458 5.4205 0
M  V30 13452 H 1238.11 -0.532989 4.38875 0
M  V30 13453 N 1237.17 -1.38817 0.746158 0
M  V30 13454 C 1238.1 -2.28116 0.0620717 0
M  V30 13455 C 1239.08 -1.44984 -0.736097 0
M  V30 13456 O 1240.26 -1.7436 -0.7163 0
M  V30 13457 C 1237.39 -3.25992 -0.919065 0
M  V30 13458 C 1236.44 -4.25992 -0.208033 0
M  V30 13459 S 1237.27 -5.24374 1.08593 0
M  V30 13460 C 1238.43 -6.25807 0.107674 0
M  V30 13461 H 1238.66 -2.85787 0.819331 0
M  V30 13462 H 1236.19 -1.44708 0.538422 0
M  V30 13463 H 1238.15 -3.82899 -1.47982 0
M  V30 13464 H 1236.81 -2.67318 -1.64924 0
M  V30 13465 H 1236 -4.9495 -0.95084 0
M  V30 13466 H 1235.61 -3.72943 0.280998 0
M  V30 13467 H 1237.9 -6.73568 -0.728905 0
M  V30 13468 H 1238.84 -7.03959 0.764698 0
M  V30 13469 H 1239.25 -5.63855 -0.269706 0
M  V30 13470 N 1238.65 -0.49465 -1.49636 0
M  V30 13471 C 1239.88 0.0491129 -2.06842 0
M  V30 13472 C 1240.29 1.31395 -1.35576 0
M  V30 13473 O 1239.65 1.7731 -0.432135 0
M  V30 13474 C 1239.7 0.313171 -3.60141 0
M  V30 13475 O 1239.42 -0.90152 -4.28724 0
M  V30 13476 C 1240.92 0.901284 -4.34041 0
M  V30 13477 H 1238.14 -0.0176186 -0.670769 0
M  V30 13478 H 1240.68 -0.690188 -1.92501 0
M  V30 13479 H 1238.84 1.00244 -3.74206 0
M  V30 13480 H 1239.25 -0.660477 -5.20325 0
M  V30 13481 H 1240.73 1.03567 -5.42197 0
M  V30 13482 H 1241.2 1.89746 -3.96097 0
M  V30 13483 H 1241.81 0.249677 -4.24566 0
M  V30 13484 N 1240.13 1.55939 -0.228214 0
M  V30 13485 C 1241.37 1.99518 0.395485 0
M  V30 13486 C 1241.73 1.11339 1.56912 0
M  V30 13487 O 1241.02 0.164788 1.9089 0
M  V30 13488 C 1241.21 3.46581 0.872732 0
M  V30 13489 C 1241.04 4.48987 -0.253122 0
M  V30 13490 C 1239.81 5.0012 -0.721702 0
M  V30 13491 C 1242.01 5.02967 -1.0737 0
M  V30 13492 N 1239.99 5.86242 -1.82192 0
M  V30 13493 C 1241.36 5.86079 -2.02265 0
M  V30 13494 C 1243.42 4.85315 -1.11238 0
M  V30 13495 C 1242.12 6.53424 -3.00716 0
M  V30 13496 C 1244.15 5.53423 -2.0851 0
M  V30 13497 C 1243.51 6.36308 -3.02144 0
M  V30 13498 H 1239.61 0.774053 0.1112 0
M  V30 13499 H 1242.19 1.91681 -0.341512 0
M  V30 13500 H 1240.36 3.54852 1.57907 0
M  V30 13501 H 1242.1 3.77066 1.46981 0
M  V30 13502 H 1238.85 4.7259 -0.309119 0
M  V30 13503 H 1239.27 6.34003 -2.37423 0
M  V30 13504 H 1243.92 4.20881 -0.402389 0
M  V30 13505 H 1241.63 7.17035 -3.72674 0
M  V30 13506 H 1245.22 5.41727 -2.12186 0
M  V30 13507 H 1244.1 6.88081 -3.76183 0
M  V30 13508 N 1241.6 -0.0451101 1.57535 0
M  V30 13509 C 1242.83 -0.750231 1.92497 0
M  V30 13510 C 1243.24 -1.70268 0.824946 0
M  V30 13511 O 1242.59 -1.82511 -0.208656 0
M  V30 13512 C 1242.65 -1.57543 3.23141 0
M  V30 13513 C 1242.31 -0.789495 4.50129 0
M  V30 13514 C 1243.31 -0.0968367 5.1981 0
M  V30 13515 C 1240.99 -0.748776 4.96688 0
M  V30 13516 C 1242.99 0.626018 6.34318 0
M  V30 13517 C 1240.67 -0.0221652 6.11096 0
M  V30 13518 C 1241.67 0.664006 6.79765 0
M  V30 13519 O 1241.36 1.37885 7.91987 0
M  V30 13520 H 1241.09 -0.216895 0.64026 0
M  V30 13521 H 1243.65 -0.011558 2.05397 0
M  V30 13522 H 1241.88 -2.35754 3.06524 0
M  V30 13523 H 1243.57 -2.16168 3.4355 0
M  V30 13524 H 1244.33 -0.119429 4.84853 0
M  V30 13525 H 1240.21 -1.27235 4.43094 0
M  V30 13526 H 1243.75 1.16215 6.87852 0
M  V30 13527 H 1239.65 0.00240707 6.455 0
M  V30 13528 H 1240.42 1.29087 8.08257 0
M  V30 13529 N 1243.08 -1.54377 -0.317073 0
M  V30 13530 C 1244.33 -1.72105 -1.0518 0
M  V30 13531 C 1244.64 -0.505166 -1.88964 0
M  V30 13532 O 1245.85 -0.563912 -2.65579 0
M  V30 13533 C 1244.31 -3.04435 -1.91957 0
M  V30 13534 C 1243.91 -4.33449 -1.13253 0
M  V30 13535 C 1245.66 -3.31524 -2.65127 0
M  V30 13536 C 1243.57 -5.56837 -1.99214 0
M  V30 13537 H 1242.5 -0.641392 -0.396399 0
M  V30 13538 H 1245.15 -1.80868 -0.309673 0
M  V30 13539 H 1243.53 -2.89595 -2.70094 0
M  V30 13540 H 1244.7 -4.59074 -0.39842 0
M  V30 13541 H 1243.02 -4.13173 -0.517372 0
M  V30 13542 H 1245.61 -4.20906 -3.29761 0
M  V30 13543 H 1245.96 -2.49688 -3.33109 0
M  V30 13544 H 1246.49 -3.47261 -1.94048 0
M  V30 13545 H 1243.23 -6.41294 -1.35729 0
M  V30 13546 H 1242.75 -5.35421 -2.70341 0
M  V30 13547 H 1244.43 -5.93488 -2.57646 0
M  V30 13548 N 1244.56 0.579466 -1.4656 0
M  V30 13549 C 1245.47 1.71609 -1.59961 0
M  V30 13550 C 1246.49 1.67162 -0.483002 0
M  V30 13551 O 1247.66 1.87012 -0.747561 0
M  V30 13552 C 1244.73 3.08114 -1.58954 0
M  V30 13553 C 1243.79 3.238 -2.81872 0
M  V30 13554 C 1243.02 4.53794 -2.80904 0
M  V30 13555 O 1243.24 5.37884 -1.89835 0
M  V30 13556 O 1242.18 4.72796 -3.72488 0
M  V30 13557 H 1246 1.6325 -2.56092 0
M  V30 13558 H 1243.59 0.746891 -1.2939 0
M  V30 13559 H 1245.47 3.8939 -1.611 0
M  V30 13560 H 1244.15 3.16903 -0.65984 0
M  V30 13561 H 1243.05 2.42006 -2.85279 0
M  V30 13562 H 1244.39 3.19904 -3.74062 0
M  V30 13563 N 1246.04 1.3432 0.824371 0
M  V30 13564 C 1247 1.25672 1.91675 0
M  V30 13565 C 1248 0.172269 1.59875 0
M  V30 13566 O 1249.19 0.424794 1.68941 0
M  V30 13567 C 1246.32 0.939928 3.27686 0
M  V30 13568 H 1247.52 2.22785 2.00766 0
M  V30 13569 H 1245.07 1.18587 1.01817 0
M  V30 13570 H 1245.8 -0.0280898 3.24288 0
M  V30 13571 H 1245.59 1.72432 3.5215 0
M  V30 13572 H 1247.08 0.904553 4.07686 0
M  V30 13573 N 1247.52 -1.0444 1.18026 0
M  V30 13574 C 1248.76 -1.77838 0.974756 0
M  V30 13575 C 1249.1 -1.87792 -0.494755 0
M  V30 13576 O 1248.37 -1.38327 -1.36733 0
M  V30 13577 C 1248.65 -3.21315 1.62569 0
M  V30 13578 C 1248.51 -3.19327 3.16781 0
M  V30 13579 C 1249.83 -4.19337 1.33583 0
M  V30 13580 H 1246.94 -0.645575 0.35553 0
M  V30 13581 H 1249.59 -1.22023 1.45638 0
M  V30 13582 H 1247.74 -3.68974 1.21617 0
M  V30 13583 H 1249.41 -2.79687 3.66842 0
M  V30 13584 H 1247.65 -2.57461 3.49137 0
M  V30 13585 H 1248.32 -4.20626 3.5746 0
M  V30 13586 H 1250.8 -3.80208 1.69059 0
M  V30 13587 H 1249.67 -5.17953 1.81702 0
M  V30 13588 H 1249.94 -4.41346 0.258016 0
M  V30 13589 N 1248.99 -0.981699 -1.2329 0
M  V30 13590 C 1250.24 -0.651302 -1.9174 0
M  V30 13591 C 1250.57 0.815318 -1.76587 0
M  V30 13592 O 1249.82 1.60377 -1.1215 0
M  V30 13593 C 1250.12 -0.989244 -3.43437 0
M  V30 13594 C 1249.79 -2.44629 -3.78771 0
M  V30 13595 C 1248.45 -2.84449 -3.88127 0
M  V30 13596 C 1250.8 -3.39123 -3.95784 0
M  V30 13597 C 1248.13 -4.17775 -4.11923 0
M  V30 13598 C 1250.48 -4.72095 -4.21081 0
M  V30 13599 C 1249.15 -5.11672 -4.28659 0
M  V30 13600 H 1248.42 -0.238328 -0.701627 0
M  V30 13601 H 1251.06 -1.2358 -1.46288 0
M  V30 13602 H 1249.37 -0.322677 -3.90469 0
M  V30 13603 H 1251.07 -0.711796 -3.94632 0
M  V30 13604 H 1247.66 -2.12759 -3.72064 0
M  V30 13605 H 1251.84 -3.09536 -3.87945 0
M  V30 13606 H 1247.1 -4.48043 -4.16013 0
M  V30 13607 H 1251.27 -5.45271 -4.33189 0
M  V30 13608 H 1248.9 -6.15003 -4.46851 0
M  V30 13609 N 1250.47 1.3842 -0.753509 0
M  V30 13610 C 1251.88 1.82847 -0.377331 0
M  V30 13611 C 1252.23 1.62867 1.09401 0
M  V30 13612 O 1251.36 1.12981 1.84565 0
M  V30 13613 C 1251.95 3.31945 -0.678095 0
M  V30 13614 C 1250.51 3.7472 -0.355196 0
M  V30 13615 C 1249.66 2.61193 -0.931311 0
M  V30 13616 H 1252.61 1.2715 -0.949667 0
M  V30 13617 H 1252.63 3.80475 0.0437292 0
M  V30 13618 H 1252.14 3.46455 -1.74902 0
M  V30 13619 H 1250.25 3.65789 0.70915 0
M  V30 13620 H 1250.36 4.71487 -0.850693 0
M  V30 13621 H 1248.72 2.5219 -0.356695 0
M  V30 13622 H 1249.51 2.78503 -2.00727 0
M  V30 13623 N 1251.95 0.502579 1.49372 0
M  V30 13624 C 1253.2 -0.0412993 2.02058 0
M  V30 13625 C 1253.52 -1.37338 1.38431 0
M  V30 13626 O 1252.79 -1.88305 0.540175 0
M  V30 13627 H 1251.37 -0.0182522 0.746777 0
M  V30 13628 H 1254.03 0.660179 1.83378 0
M  V30 13629 H 1253.13 -0.169812 3.11638 0
M  V30 13630 N 1253.43 -1.55816 0.23648 0
M  V30 13631 C 1254.36 -2.18248 -0.700024 0
M  V30 13632 C 1255.37 -1.15579 -1.14654 0
M  V30 13633 O 1256.56 -1.42491 -1.07511 0
M  V30 13634 C 1253.66 -2.76338 -1.9619 0
M  V30 13635 C 1252.84 -4.04325 -1.66853 0
M  V30 13636 C 1251.89 -4.46834 -2.77895 0
M  V30 13637 O 1250.92 -5.13427 -2.45725 0
M  V30 13638 N 1252.12 -4.13753 -4.07171 0
M  V30 13639 H 1254.89 -2.99241 -0.16589 0
M  V30 13640 H 1252.45 -1.61803 0.0560383 0
M  V30 13641 H 1254.44 -3.01739 -2.69695 0
M  V30 13642 H 1253.01 -1.99563 -2.4061 0
M  V30 13643 H 1252.23 -3.86623 -0.769164 0
M  V30 13644 H 1253.52 -4.8779 -1.44703 0
M  V30 13645 H 1252.92 -3.60271 -4.36144 0
M  V30 13646 H 1251.47 -4.44014 -4.77174 0
M  V30 13647 N 1254.91 0.036755 -1.57557 0
M  V30 13648 C 1256.14 0.740011 -1.92892 0
M  V30 13649 C 1256.54 1.69828 -0.833964 0
M  V30 13650 O 1255.89 1.82619 0.198974 0
M  V30 13651 C 1255.95 1.55827 -3.23972 0
M  V30 13652 C 1255.61 0.765613 -4.50541 0
M  V30 13653 C 1256.61 0.0692686 -5.19854 0
M  V30 13654 C 1254.3 0.722425 -4.97078 0
M  V30 13655 C 1256.29 -0.659649 -6.33977 0
M  V30 13656 C 1253.98 -0.0102431 -6.11099 0
M  V30 13657 C 1254.97 -0.700047 -6.79403 0
M  V30 13658 O 1254.66 -1.42084 -7.91244 0
M  V30 13659 H 1254.39 0.213496 -0.641401 0
M  V30 13660 H 1256.95 0.000665152 -2.054 0
M  V30 13661 H 1255.18 2.34125 -3.0777 0
M  V30 13662 H 1256.87 2.14343 -3.44691 0
M  V30 13663 H 1257.63 0.0937148 -4.84909 0
M  V30 13664 H 1253.51 1.24883 -4.43763 0
M  V30 13665 H 1257.06 -1.19861 -6.87226 0
M  V30 13666 H 1252.95 -0.0366395 -6.4549 0
M  V30 13667 H 1253.72 -1.33372 -8.07561 0
M  V30 13668 N 1256.39 1.54543 0.308881 0
M  V30 13669 C 1257.63 1.73107 1.043 0
M  V30 13670 C 1257.95 0.515481 1.88063 0
M  V30 13671 O 1257.22 -0.47036 1.90169 0
M  V30 13672 H 1255.8 0.638289 0.388068 0
M  V30 13673 H 1258.47 1.9188 0.341769 0
M  V30 13674 H 1257.56 2.61697 1.70063 0
M  V30 13675 N 1257.86 -0.571685 1.46866 0
M  V30 13676 C 1259.11 -1.32574 1.5201 0
M  V30 13677 C 1259.43 -1.94762 0.180838 0
M  V30 13678 O 1260.63 -2.71276 0.110158 0
M  V30 13679 C 1259.09 -2.40331 2.67897 0
M  V30 13680 C 1258.7 -1.84398 4.08291 0
M  V30 13681 C 1260.44 -3.17009 2.82321 0
M  V30 13682 C 1258.35 -2.89849 5.15501 0
M  V30 13683 H 1257.28 -0.498428 0.565761 0
M  V30 13684 H 1259.93 -0.608853 1.73105 0
M  V30 13685 H 1258.31 -3.14869 2.40153 0
M  V30 13686 H 1259.48 -1.16329 4.45875 0
M  V30 13687 H 1257.8 -1.20351 3.98628 0
M  V30 13688 H 1260.4 -3.95729 3.59587 0
M  V30 13689 H 1260.74 -3.70292 1.90236 0
M  V30 13690 H 1261.27 -2.4958 3.09765 0
M  V30 13691 H 1258.01 -2.4144 6.09415 0
M  V30 13692 H 1257.53 -3.56372 4.82451 0
M  V30 13693 H 1259.21 -3.53603 5.41825 0
M  V30 13694 N 1259.34 -1.34755 -0.817236 0
M  V30 13695 C 1260.75 -1.24594 -1.39044 0
M  V30 13696 C 1261.1 0.126184 -1.95794 0
M  V30 13697 O 1260.23 1.02675 -1.90491 0
M  V30 13698 C 1260.82 -2.25592 -2.52772 0
M  V30 13699 C 1259.38 -2.19204 -3.05984 0
M  V30 13700 C 1258.53 -2.11884 -1.78886 0
M  V30 13701 H 1261.48 -1.46039 -0.621155 0
M  V30 13702 H 1261.5 -1.87622 -3.31026 0
M  V30 13703 H 1261.01 -3.25447 -2.11438 0
M  V30 13704 H 1259.11 -1.22725 -3.51809 0
M  V30 13705 H 1259.23 -3.10707 -3.64689 0
M  V30 13706 H 1257.59 -1.57694 -2.00012 0
M  V30 13707 H 1258.37 -3.13582 -1.39719 0
M  V30 13708 N 1260.82 1.03812 -1.18578 0
M  V30 13709 C 1262.24 1.29271 -0.936011 0
M  V30 13710 C 1262.44 1.97551 0.396965 0
M  V30 13711 O 1261.49 2.25769 1.13069 0
M  V30 13712 C 1262.8 2.1489 -2.1034 0
M  V30 13713 C 1264.35 2.28228 -2.14198 0
M  V30 13714 C 1264.83 3.17214 -3.30362 0
M  V30 13715 N 1266.32 3.24802 -3.30239 0
M  V30 13716 C 1267.05 3.9382 -4.16765 0
M  V30 13717 N 1266.55 4.65147 -5.1343 0
M  V30 13718 N 1268.34 3.90125 -4.04671 0
M  V30 13719 H 1260.49 0.579011 -2.04356 0
M  V30 13720 H 1262.76 0.318021 -0.893066 0
M  V30 13721 H 1262.46 1.72029 -3.06755 0
M  V30 13722 H 1262.34 3.15576 -2.06619 0
M  V30 13723 H 1264.72 2.70324 -1.18359 0
M  V30 13724 H 1264.8 1.27124 -2.21976 0
M  V30 13725 H 1264.45 2.75829 -4.26475 0
M  V30 13726 H 1264.38 4.18356 -3.19821 0
M  V30 13727 H 1266.87 2.73994 -2.60261 0
M  V30 13728 H 1267.18 5.15414 -5.7582 0
M  V30 13729 H 1265.53 4.64043 -5.17387 0
M  V30 13730 H 1268.72 3.33536 -3.28438 0
M  V30 13731 H 1268.89 4.43641 -4.7232 0
M  V30 13732 N 1262.3 0.988223 1.22768 0
M  V30 13733 C 1263.71 0.697281 1.7319 0
M  V30 13734 C 1264.06 -0.786111 1.79763 0
M  V30 13735 O 1263.18 -1.61465 1.44077 0
M  V30 13736 C 1263.78 1.25905 3.14537 0
M  V30 13737 C 1262.34 1.01759 3.62384 0
M  V30 13738 C 1261.49 1.38207 2.40404 0
M  V30 13739 H 1264.44 1.16114 1.08181 0
M  V30 13740 H 1264.46 0.635315 3.75159 0
M  V30 13741 H 1263.97 2.33869 3.09721 0
M  V30 13742 H 1262.07 -0.045627 3.72572 0
M  V30 13743 H 1262.18 1.67767 4.48766 0
M  V30 13744 H 1260.55 0.800607 2.4179 0
M  V30 13745 H 1261.33 2.47165 2.38253 0
M  V30 13746 N 1263.78 -1.38018 0.760839 0
M  V30 13747 C 1265.02 -2.0071 0.329695 0
M  V30 13748 C 1265.38 -1.59315 -1.07872 0
M  V30 13749 O 1264.67 -0.824077 -1.72973 0
M  V30 13750 C 1264.86 -3.55168 0.398778 0
M  V30 13751 C 1264.69 -4.11562 1.81237 0
M  V30 13752 C 1263.46 -4.43003 2.43056 0
M  V30 13753 C 1265.66 -4.3332 2.77018 0
M  V30 13754 N 1263.64 -4.85048 3.76301 0
M  V30 13755 C 1265.01 -4.77853 3.9504 0
M  V30 13756 C 1267.07 -4.15432 2.74446 0
M  V30 13757 C 1265.77 -5.06373 5.10861 0
M  V30 13758 C 1267.8 -4.45081 3.89431 0
M  V30 13759 C 1267.16 -4.89845 5.06193 0
M  V30 13760 H 1263.26 -0.76386 0.167457 0
M  V30 13761 H 1265.84 -1.67513 0.992343 0
M  V30 13762 H 1264.01 -3.87697 -0.233635 0
M  V30 13763 H 1265.75 -4.04665 -0.0533765 0
M  V30 13764 H 1262.5 -4.317 1.94762 0
M  V30 13765 H 1262.92 -5.10394 4.44778 0
M  V30 13766 H 1267.57 -3.80006 1.85353 0
M  V30 13767 H 1265.28 -5.40693 6.00564 0
M  V30 13768 H 1268.87 -4.32839 3.88769 0
M  V30 13769 H 1267.75 -5.12348 5.93691 0
M  V30 13770 N 1265.25 -0.510493 -1.49103 0
M  V30 13771 C 1266.48 0.0271324 -2.06582 0
M  V30 13772 C 1266.89 1.30499 -1.36991 0
M  V30 13773 O 1266.23 1.78229 -0.444976 0
M  V30 13774 C 1266.3 0.341488 -3.57874 0
M  V30 13775 C 1265.96 -0.840037 -4.49213 0
M  V30 13776 C 1266.96 -1.73315 -4.90161 0
M  V30 13777 C 1264.64 -1.04153 -4.91383 0
M  V30 13778 C 1266.64 -2.81182 -5.72028 0
M  V30 13779 C 1264.32 -2.12336 -5.73024 0
M  V30 13780 C 1265.32 -3.00684 -6.13252 0
M  V30 13781 O 1265.01 -4.06999 -6.93258 0
M  V30 13782 H 1264.74 -0.0215383 -0.675657 0
M  V30 13783 H 1267.3 -0.709841 -1.92744 0
M  V30 13784 H 1265.53 1.13218 -3.69755 0
M  V30 13785 H 1267.21 0.818859 -3.97554 0
M  V30 13786 H 1267.98 -1.58934 -4.58219 0
M  V30 13787 H 1263.86 -0.363199 -4.59567 0
M  V30 13788 H 1267.4 -3.50169 -6.03347 0
M  V30 13789 H 1263.3 -2.26708 -6.04379 0
M  V30 13790 H 1264.07 -4.04469 -7.11581 0
M  V30 13791 N 1266.73 1.55688 -0.24474 0
M  V30 13792 C 1267.98 1.98891 0.380603 0
M  V30 13793 C 1268.31 1.13283 1.58105 0
M  V30 13794 O 1267.56 0.183141 1.94841 0
M  V30 13795 C 1267.86 3.47487 0.835923 0
M  V30 13796 C 1267.53 4.5017 -0.256528 0
M  V30 13797 C 1266.19 4.7797 -0.556573 0
M  V30 13798 C 1268.54 5.1163 -0.994174 0
M  V30 13799 C 1265.87 5.64508 -1.59838 0
M  V30 13800 C 1268.22 5.99297 -2.02548 0
M  V30 13801 C 1266.88 6.25432 -2.3322 0
M  V30 13802 H 1266.15 0.727794 0.139273 0
M  V30 13803 H 1268.8 1.88235 -0.352113 0
M  V30 13804 H 1267.11 3.55464 1.64781 0
M  V30 13805 H 1268.8 3.78301 1.33001 0
M  V30 13806 H 1265.39 4.28598 -0.0125284 0
M  V30 13807 H 1269.58 4.90202 -0.775617 0
M  V30 13808 H 1264.83 5.83012 -1.84138 0
M  V30 13809 H 1269.01 6.45964 -2.60198 0
M  V30 13810 H 1266.63 6.92282 -3.14085 0
M  V30 13811 N 1268.21 -0.0283989 1.57574 0
M  V30 13812 C 1269.62 -0.574912 1.77628 0
M  V30 13813 C 1269.97 -1.75563 0.875903 0
M  V30 13814 O 1269.1 -2.16284 0.0709141 0
M  V30 13815 C 1269.69 -1.04972 3.22128 0
M  V30 13816 C 1268.25 -1.54175 3.43376 0
M  V30 13817 C 1267.4 -0.480127 2.73112 0
M  V30 13818 H 1270.35 0.197826 1.57462 0
M  V30 13819 H 1270.37 -1.91705 3.28678 0
M  V30 13820 H 1269.88 -0.190173 3.87634 0
M  V30 13821 H 1267.98 -2.42313 2.83046 0
M  V30 13822 H 1268.1 -1.58879 4.51989 0
M  V30 13823 H 1266.46 -0.935314 2.36905 0
M  V30 13824 H 1267.24 0.369973 3.41301 0
M  V30 13825 N 1269.69 -1.54705 -0.300681 0
M  V30 13826 C 1270.93 -1.75738 -1.04381 0
M  V30 13827 C 1271.29 -0.532138 -1.84478 0
M  V30 13828 O 1272.49 -0.620213 -2.61547 0
M  V30 13829 C 1270.76 -3.01095 -1.92553 0
M  V30 13830 S 1272.32 -3.43132 -2.73507 0
M  V30 13831 H 1269.14 -0.617737 -0.352025 0
M  V30 13832 H 1271.74 -1.9291 -0.317187 0
M  V30 13833 H 1270.45 -3.88393 -1.32585 0
M  V30 13834 H 1269.98 -2.86512 -2.69582 0
M  V30 13835 H 1271.99 -3.00227 -3.95067 0
M  V30 13836 N 1271.17 0.563888 -1.47167 0
M  V30 13837 C 1272.39 1.34693 -1.57052 0
M  V30 13838 C 1272.81 1.87534 -0.218308 0
M  V30 13839 O 1272.17 1.64639 0.787416 0
M  V30 13840 C 1272.22 2.52148 -2.59044 0
M  V30 13841 O 1271.94 2.01492 -3.89015 0
M  V30 13842 C 1273.44 3.4445 -2.7905 0
M  V30 13843 H 1270.66 0.410822 -0.530534 0
M  V30 13844 H 1273.2 0.683731 -1.92731 0
M  V30 13845 H 1271.36 3.14419 -2.26317 0
M  V30 13846 H 1271.77 2.78122 -4.44689 0
M  V30 13847 H 1273.25 4.23297 -3.54293 0
M  V30 13848 H 1273.72 3.97575 -1.86631 0
M  V30 13849 H 1274.33 2.88 -3.12948 0
M  V30 13850 N 1272.64 1.35187 0.810078 0
M  V30 13851 C 1273.59 1.27822 1.92173 0
M  V30 13852 C 1274.56 0.150851 1.65414 0
M  V30 13853 O 1275.75 0.333973 1.87854 0
M  V30 13854 C 1272.89 1.05258 3.28656 0
M  V30 13855 C 1272 2.26884 3.67624 0
M  V30 13856 C 1271.13 1.97499 4.9312 0
M  V30 13857 C 1270.17 3.15198 5.24706 0
M  V30 13858 N 1269.31 2.85612 6.41381 0
M  V30 13859 H 1274.15 2.22884 1.97804 0
M  V30 13860 H 1271.69 1.10799 0.967577 0
M  V30 13861 H 1273.65 0.902084 4.07331 0
M  V30 13862 H 1272.28 0.138583 3.22502 0
M  V30 13863 H 1271.33 2.5281 2.84238 0
M  V30 13864 H 1272.64 3.14783 3.86928 0
M  V30 13865 H 1271.79 1.7926 5.79613 0
M  V30 13866 H 1270.53 1.0688 4.75844 0
M  V30 13867 H 1269.54 3.34019 4.36705 0
M  V30 13868 H 1270.76 4.06614 5.43913 0
M  V30 13869 H 1268.71 1.97583 6.25537 0
M  V30 13870 H 1268.63 3.67044 6.60919 0
M  V30 13871 H 1269.89 2.70906 7.3091 0
M  V30 13872 N 1274.12 -1.03182 1.19127 0
M  V30 13873 C 1275.35 -1.80703 1.01791 0
M  V30 13874 C 1275.77 -1.83147 -0.428824 0
M  V30 13875 O 1275.13 -1.2553 -1.30812 0
M  V30 13876 C 1275.18 -3.23754 1.58794 0
M  V30 13877 O 1274.28 -4.04261 0.815274 0
M  V30 13878 H 1273.62 -0.557944 0.359992 0
M  V30 13879 H 1276.15 -1.29887 1.58084 0
M  V30 13880 H 1276.16 -3.7451 1.61884 0
M  V30 13881 H 1274.84 -3.2129 2.64094 0
M  V30 13882 H 1273.42 -3.62909 0.857392 0
M  V30 13883 N 1275.6 -0.99472 -1.22242 0
M  V30 13884 C 1276.83 -0.689096 -1.94769 0
M  V30 13885 C 1277.24 0.750597 -1.73674 0
M  V30 13886 O 1276.58 1.51836 -1.03399 0
M  V30 13887 C 1276.64 -0.917454 -3.47596 0
M  V30 13888 C 1276.31 -2.34198 -3.92429 0
M  V30 13889 C 1277.3 -3.3216 -3.99957 0
M  V30 13890 C 1274.99 -2.6769 -4.25026 0
M  V30 13891 C 1276.98 -4.61686 -4.3946 0
M  V30 13892 C 1274.67 -3.97435 -4.64208 0
M  V30 13893 C 1275.67 -4.94244 -4.71394 0
M  V30 13894 O 1275.36 -6.2167 -5.09688 0
M  V30 13895 H 1275.09 -0.253914 -0.626501 0
M  V30 13896 H 1277.64 -1.33271 -1.56294 0
M  V30 13897 H 1275.87 -0.21666 -3.86093 0
M  V30 13898 H 1277.56 -0.6068 -4.01339 0
M  V30 13899 H 1278.33 -3.07619 -3.74961 0
M  V30 13900 H 1274.21 -1.93039 -4.18637 0
M  V30 13901 H 1277.75 -5.37248 -4.44983 0
M  V30 13902 H 1273.65 -4.21765 -4.88656 0
M  V30 13903 H 1274.42 -6.25634 -5.27755 0
M  V30 13904 N 1277.08 1.37613 -0.768148 0
M  V30 13905 C 1278.32 2.00532 -0.340335 0
M  V30 13906 C 1278.68 1.59885 1.07026 0
M  V30 13907 O 1277.97 0.833239 1.72533 0
M  V30 13908 C 1278.17 3.54952 -0.417608 0
M  V30 13909 C 1278 4.10595 -1.83417 0
M  V30 13910 C 1276.77 4.41708 -2.45402 0
M  V30 13911 C 1278.96 4.31844 -2.79312 0
M  V30 13912 N 1276.95 4.83045 -3.78868 0
M  V30 13913 C 1278.32 4.75751 -3.97569 0
M  V30 13914 C 1280.37 4.13971 -2.76645 0
M  V30 13915 C 1279.07 5.03656 -5.13539 0
M  V30 13916 C 1281.1 4.4301 -3.91786 0
M  V30 13917 C 1280.46 4.87153 -5.08784 0
M  V30 13918 H 1276.56 0.762961 -0.171505 0
M  V30 13919 H 1279.15 1.66984 -1.00121 0
M  V30 13920 H 1277.32 3.87815 0.213071 0
M  V30 13921 H 1279.05 4.04687 0.0319154 0
M  V30 13922 H 1275.8 4.30661 -1.97048 0
M  V30 13923 H 1276.23 5.08028 -4.47478 0
M  V30 13924 H 1280.87 3.79017 -1.87365 0
M  V30 13925 H 1278.59 5.375 -6.03423 0
M  V30 13926 H 1282.17 4.30772 -3.91059 0
M  V30 13927 H 1281.05 5.09192 -5.964 0
M  V30 13928 N 1278.56 0.518393 1.4883 0
M  V30 13929 C 1279.8 -0.0199053 2.0249 0
M  V30 13930 C 1280.13 -1.35375 1.39657 0
M  V30 13931 O 1279.39 -1.88454 0.527586 0
M  V30 13932 C 1279.69 -0.203001 3.56823 0
M  V30 13933 C 1279.35 1.05502 4.38384 0
M  V30 13934 C 1278.01 1.39982 4.60389 0
M  V30 13935 C 1280.37 1.89042 4.85708 0
M  V30 13936 C 1277.69 2.57922 5.26966 0
M  V30 13937 C 1280.05 3.06151 5.53583 0
M  V30 13938 C 1278.71 3.40991 5.73831 0
M  V30 13939 H 1277.98 -0.00728388 0.740964 0
M  V30 13940 H 1280.63 0.682073 1.78941 0
M  V30 13941 H 1278.93 -0.987653 3.79147 0
M  V30 13942 H 1280.63 -0.634234 3.95953 0
M  V30 13943 H 1277.22 0.77647 4.21508 0
M  V30 13944 H 1281.4 1.63716 4.6852 0
M  V30 13945 H 1276.66 2.85132 5.40842 0
M  V30 13946 H 1280.83 3.71198 5.89224 0
M  V30 13947 H 1278.46 4.32479 6.25193 0
M  V30 13948 N 1280.03 -1.55556 0.252993 0
M  V30 13949 C 1281.28 -1.98697 -0.369319 0
M  V30 13950 C 1281.6 -1.14256 -1.58021 0
M  V30 13951 O 1280.87 -0.226779 -1.94583 0
M  V30 13952 H 1279.45 -0.733869 -0.139444 0
M  V30 13953 H 1282.12 -1.91673 0.353197 0
M  V30 13954 H 1281.21 -3.04728 -0.674312 0
M  V30 13955 N 1281.51 0.0200419 -1.57587 0
M  V30 13956 C 1282.42 1.0346 -2.10555 0
M  V30 13957 C 1283.44 1.39035 -1.0462 0
M  V30 13958 O 1284.61 1.48172 -1.36407 0
M  V30 13959 C 1281.68 2.31389 -2.58186 0
M  V30 13960 C 1280.74 2.02311 -3.7864 0
M  V30 13961 C 1279.97 3.24141 -4.23991 0
M  V30 13962 O 1280.2 4.35132 -3.68803 0
M  V30 13963 O 1279.13 3.09312 -5.16342 0
M  V30 13964 H 1282.96 0.614419 -2.9742 0
M  V30 13965 H 1280.54 0.237604 -1.47498 0
M  V30 13966 H 1282.42 3.06582 -2.89112 0
M  V30 13967 H 1281.1 2.72684 -1.74428 0
M  V30 13968 H 1280.01 1.24658 -3.5272 0
M  V30 13969 H 1281.34 1.65866 -4.6341 0
M  V30 13970 N 1282.99 1.54862 0.292472 0
M  V30 13971 C 1283.9 1.89472 1.38339 0
M  V30 13972 C 1284.92 0.789783 1.55043 0
M  V30 13973 O 1286.09 1.08705 1.69544 0
M  V30 13974 C 1283.16 2.14244 2.72581 0
M  V30 13975 C 1282.22 3.37913 2.64789 0
M  V30 13976 C 1281.45 3.61494 3.92629 0
M  V30 13977 O 1281.67 2.87931 4.92394 0
M  V30 13978 O 1280.61 4.55019 3.94007 0
M  V30 13979 H 1284.43 2.82298 1.11989 0
M  V30 13980 H 1282.02 1.41161 0.489291 0
M  V30 13981 H 1283.9 2.31689 3.51991 0
M  V30 13982 H 1282.58 1.24603 2.98757 0
M  V30 13983 H 1281.48 3.25823 1.83821 0
M  V30 13984 H 1282.82 4.27711 2.43565 0
M  V30 13985 N 1284.47 -0.556076 1.47464 0
M  V30 13986 C 1285.69 -1.3434 1.58011 0
M  V30 13987 C 1286.12 -1.86674 0.231138 0
M  V30 13988 O 1285.48 -1.63029 -0.793174 0
M  V30 13989 C 1285.52 -2.48844 2.60977 0
M  V30 13990 O 1284.63 -3.51108 2.16326 0
M  V30 13991 H 1283.97 -0.398986 0.53076 0
M  V30 13992 H 1286.5 -0.671898 1.93253 0
M  V30 13993 H 1286.51 -2.95398 2.81432 0
M  V30 13994 H 1285.18 -2.10109 3.58925 0
M  V30 13995 H 1283.76 -3.10852 2.05975 0
M  V30 13996 N 1285.95 -1.35615 -0.802897 0
M  V30 13997 C 1287.22 -1.19655 -1.54732 0
M  V30 13998 C 1287.6 0.222827 -2.09921 0
M  V30 13999 O 1286.95 1.2268 -1.92774 0
M  V30 14000 C 1287.16 -2.26761 -2.65293 0
M  V30 14001 C 1288.51 -2.62754 -3.33535 0
M  V30 14002 O 1289.53 -2.25702 -2.75567 0
M  V30 14003 O 1288.39 -3.26476 -4.38264 0
M  V30 14004 H 1285.49 -0.465079 -0.683835 0
M  V30 14005 H 1288.03 -1.47307 -0.84254 0
M  V30 14006 H 1286.81 -3.21946 -2.22411 0
M  V30 14007 H 1286.43 -2.00399 -3.43404 0
M  V30 14008 N 1287.43 1.02549 -1.19673 0
M  V30 14009 C 1288.34 2.14373 -0.952972 0
M  V30 14010 C 1289.35 1.73776 0.0881727 0
M  V30 14011 O 1290.53 2.01165 -0.0972471 0
M  V30 14012 C 1287.59 3.43096 -0.498569 0
M  V30 14013 C 1286.65 3.97987 -1.60951 0
M  V30 14014 C 1285.89 5.20567 -1.17669 0
M  V30 14015 O 1286.11 5.70385 -0.0416636 0
M  V30 14016 O 1285.04 5.6838 -1.98059 0
M  V30 14017 H 1288.87 2.378 -1.88904 0
M  V30 14018 H 1286.45 1.12781 -0.979836 0
M  V30 14019 H 1288.34 4.20634 -0.253968 0
M  V30 14020 H 1287.01 3.21105 0.409018 0
M  V30 14021 H 1285.92 3.21768 -1.90829 0
M  V30 14022 H 1287.25 4.24349 -2.49377 0
M  V30 14023 N 1288.9 1.00119 1.21713 0
M  V30 14024 C 1289.85 0.558388 2.23943 0
M  V30 14025 C 1290.82 -0.413576 1.60869 0
M  V30 14026 O 1292.01 -0.316478 1.88157 0
M  V30 14027 C 1289.15 -0.112618 3.44916 0
M  V30 14028 C 1288.26 0.902071 4.22477 0
M  V30 14029 C 1287.39 0.203722 5.30809 0
M  V30 14030 C 1286.43 1.20622 6.00097 0
M  V30 14031 N 1285.57 0.535607 7.00054 0
M  V30 14032 H 1290.41 1.43486 2.61182 0
M  V30 14033 H 1287.95 0.718572 1.28355 0
M  V30 14034 H 1289.9 -0.51865 4.13964 0
M  V30 14035 H 1288.53 -0.952827 3.08417 0
M  V30 14036 H 1287.59 1.42637 3.52645 0
M  V30 14037 H 1288.9 1.66513 4.70186 0
M  V30 14038 H 1288.05 -0.258614 6.06149 0
M  V30 14039 H 1286.79 -0.591773 4.84096 0
M  V30 14040 H 1285.8 1.6791 5.23532 0
M  V30 14041 H 1287.02 2.00273 6.48897 0
M  V30 14042 H 1284.97 -0.2403 6.5556 0
M  V30 14043 H 1284.88 1.23698 7.45812 0
M  V30 14044 H 1286.15 0.0963489 7.7944 0
M  V30 14045 N 1290.38 -1.37203 0.775435 0
M  V30 14046 C 1291.61 -2.04396 0.351737 0
M  V30 14047 C 1292.03 -1.58099 -1.01913 0
M  V30 14048 O 1291.39 -0.742932 -1.65379 0
M  V30 14049 C 1291.44 -3.58283 0.408105 0
M  V30 14050 O 1290.54 -4.08156 -0.590104 0
M  V30 14051 H 1289.88 -0.646451 0.151647 0
M  V30 14052 H 1292.41 -1.75443 1.05265 0
M  V30 14053 H 1292.42 -4.07127 0.266711 0
M  V30 14054 H 1291.1 -3.91335 1.40819 0
M  V30 14055 H 1289.67 -3.70622 -0.411524 0
M  V30 14056 N 1291.86 -0.526279 -1.48553 0
M  V30 14057 C 1292.81 0.258285 -2.26532 0
M  V30 14058 C 1293.79 0.913187 -1.32475 0
M  V30 14059 O 1294.99 0.816606 -1.57037 0
M  V30 14060 C 1292.11 1.30686 -3.17452 0
M  V30 14061 C 1291.2 0.656933 -4.18981 0
M  V30 14062 N 1291.59 -0.255186 -5.05156 0
M  V30 14063 C 1289.89 0.914575 -4.36522 0
M  V30 14064 C 1290.59 -0.629753 -5.78281 0
M  V30 14065 N 1289.57 0.00829904 -5.43599 0
M  V30 14066 H 1293.37 -0.44348 -2.90535 0
M  V30 14067 H 1290.88 -0.344054 -1.58714 0
M  V30 14068 H 1292.88 1.8826 -3.71973 0
M  V30 14069 H 1291.54 2.01004 -2.55005 0
M  V30 14070 H 1292.55 -0.627564 -5.14084 0
M  V30 14071 H 1289.23 1.6086 -3.85266 0
M  V30 14072 H 1290.62 -1.37746 -6.57629 0
M  V30 14073 N 1293.34 1.5542 -0.261239 0
M  V30 14074 C 1294.75 1.85161 0.239195 0
M  V30 14075 C 1295.1 1.18319 1.56509 0
M  V30 14076 O 1294.22 0.4666 2.1131 0
M  V30 14077 C 1294.82 3.3592 0.440781 0
M  V30 14078 C 1293.38 3.65837 0.885461 0
M  V30 14079 C 1292.53 2.77285 -0.0291982 0
M  V30 14080 H 1295.48 1.51158 -0.483417 0
M  V30 14081 H 1295.5 3.58276 1.28136 0
M  V30 14082 H 1295.01 3.84541 -0.524382 0
M  V30 14083 H 1293.11 3.22705 1.86259 0
M  V30 14084 H 1293.22 4.73469 0.732394 0
M  V30 14085 H 1291.59 2.50045 0.484701 0
M  V30 14086 H 1292.37 3.28716 -0.989992 0
M  V30 14087 N 1294.82 -0.0116844 1.57596 0
M  V30 14088 C 1296.06 -0.697577 1.89679 0
M  V30 14089 C 1296.38 -1.74956 0.861122 0
M  V30 14090 O 1295.65 -1.95629 -0.103031 0
M  V30 14091 H 1294.23 -0.26064 0.700054 0
M  V30 14092 H 1296.9 0.0264782 1.94882 0
M  V30 14093 H 1295.99 -1.17621 2.89088 0
M  V30 14094 N 1296.29 -1.55015 -0.284256 0
M  V30 14095 C 1297.52 -1.79431 -1.04016 0
M  V30 14096 C 1297.94 -0.560254 -1.79563 0
M  V30 14097 O 1297.3 0.489804 -1.74558 0
M  V30 14098 C 1297.35 -3.01162 -1.98328 0
M  V30 14099 O 1296.45 -2.75459 -3.06914 0
M  V30 14100 H 1295.79 -0.593391 -0.297965 0
M  V30 14101 H 1298.32 -2.02136 -0.316585 0
M  V30 14102 H 1298.33 -3.29589 -2.40489 0
M  V30 14103 H 1297.01 -3.90634 -1.42751 0
M  V30 14104 H 1295.59 -2.58096 -2.69148 0
M  V30 14105 N 1297.77 0.548248 -1.47757 0
M  V30 14106 C 1298.72 1.67553 -1.61335 0
M  V30 14107 C 1299.71 1.62447 -0.480335 0
M  V30 14108 O 1300.92 1.67525 -0.658445 0
M  V30 14109 H 1297.29 0.55457 -0.507894 0
M  V30 14110 H 1299.27 1.53239 -2.56047 0
M  V30 14111 C 1298.01 3.05883 -1.6532 0
M  V30 14112 H 1297.34 3.10497 -2.51856 0
M  V30 14113 H 1298.78 3.84424 -1.78868 0
M  V30 14114 C 1297.24 3.34656 -0.388238 0
M  V30 14115 O 1297.77 3.9849 0.506816 0
M  V30 14116 N 1295.97 2.89384 -0.265514 0
M  V30 14117 H 1295.52 2.37615 -0.994819 0
M  V30 14118 H 1295.48 3.09006 0.579889 0
M  V30 14119 N 1299.25 1.36039 0.795694 0
M  V30 14120 C 1300.18 1.25713 1.91648 0
M  V30 14121 C 1301.19 0.177993 1.61824 0
M  V30 14122 O 1302.38 0.432186 1.73189 0
M  V30 14123 C 1299.48 0.915546 3.26299 0
M  V30 14124 C 1298.66 2.09528 3.83949 0
M  V30 14125 C 1297.72 1.72775 4.97026 0
M  V30 14126 O 1296.74 2.44786 5.13876 0
M  V30 14127 N 1297.94 0.65775 5.76762 0
M  V30 14128 H 1300.71 2.22277 2.01029 0
M  V30 14129 H 1298.27 1.2935 0.973657 0
M  V30 14130 H 1300.26 0.650958 3.9943 0
M  V30 14131 H 1298.83 0.0392343 3.12575 0
M  V30 14132 H 1298.05 2.52304 3.0288 0
M  V30 14133 H 1299.34 2.88361 4.19196 0
M  V30 14134 H 1298.74 0.0596875 5.65669 0
M  V30 14135 H 1297.29 0.45297 6.50224 0
M  V30 14136 N 1300.73 -1.01913 1.20215 0
M  V30 14137 C 1301.68 -2.104 0.948708 0
M  V30 14138 C 1302.65 -1.65665 -0.120139 0
M  V30 14139 O 1303.83 -1.90785 0.0240547 0
M  V30 14140 C 1300.97 -3.41398 0.504132 0
M  V30 14141 C 1300.08 -3.99625 1.64085 0
M  V30 14142 C 1299.22 -5.18673 1.14683 0
M  V30 14143 C 1298.26 -5.68977 2.2568 0
M  V30 14144 N 1297.39 -6.79289 1.77514 0
M  V30 14145 H 1302.23 -2.31415 1.87753 0
M  V30 14146 H 1299.77 -1.13487 0.935901 0
M  V30 14147 H 1301.73 -4.16578 0.22771 0
M  V30 14148 H 1300.36 -3.20463 -0.387689 0
M  V30 14149 H 1299.41 -3.21565 2.03225 0
M  V30 14150 H 1300.72 -4.32965 2.47674 0
M  V30 14151 H 1299.88 -6.01048 0.826223 0
M  V30 14152 H 1298.62 -4.86891 0.280797 0
M  V30 14153 H 1297.62 -4.85208 2.5856 0
M  V30 14154 H 1298.85 -6.02794 3.12755 0
M  V30 14155 H 1296.79 -6.49341 0.932338 0
M  V30 14156 H 1296.71 -7.11808 2.54686 0
M  V30 14157 H 1297.98 -7.65235 1.48446 0
M  V30 14158 N 1302.21 -1.00763 -1.2118 0
M  V30 14159 C 1303.62 -0.720905 -1.42391 0
M  V30 14160 C 1303.82 0.702918 -1.88842 0
M  V30 14161 O 1302.88 1.47191 -2.05161 0
M  V30 14162 C 1304.19 -1.739 -2.45315 0
M  V30 14163 C 1305.74 -1.75611 -2.59094 0
M  V30 14164 C 1306.21 -2.76323 -3.65253 0
M  V30 14165 N 1307.71 -2.75007 -3.72727 0
M  V30 14166 C 1308.44 -3.49594 -4.54502 0
M  V30 14167 N 1307.94 -4.33828 -5.40153 0
M  V30 14168 N 1309.73 -3.38232 -4.4895 0
M  V30 14169 H 1301.88 -1.92697 -0.893404 0
M  V30 14170 H 1304.14 -0.831888 -0.454606 0
M  V30 14171 H 1303.85 -2.75859 -2.18162 0
M  V30 14172 H 1303.72 -1.5438 -3.44161 0
M  V30 14173 H 1306.11 -0.743416 -2.85582 0
M  V30 14174 H 1306.19 -1.99203 -1.60474 0
M  V30 14175 H 1305.84 -3.77751 -3.39509 0
M  V30 14176 H 1305.77 -2.49996 -4.63476 0
M  V30 14177 H 1308.26 -2.13897 -3.11539 0
M  V30 14178 H 1308.57 -4.8753 -5.99612 0
M  V30 14179 H 1306.91 -4.3791 -5.39685 0
M  V30 14180 H 1310.11 -2.71855 -3.81068 0
M  V30 14181 H 1310.28 -3.96615 -5.12445 0
M  V30 14182 N 1303.68 1.3679 -0.7827 0
M  V30 14183 C 1304.93 1.98664 -0.348634 0
M  V30 14184 C 1305.25 1.62827 1.08382 0
M  V30 14185 O 1306.45 2.17886 1.61982 0
M  V30 14186 C 1304.91 3.55319 -0.572392 0
M  V30 14187 C 1304.52 4.00086 -2.01582 0
M  V30 14188 C 1306.26 4.24017 -0.202496 0
M  V30 14189 C 1304.17 5.49493 -2.18659 0
M  V30 14190 H 1303.1 0.743294 -0.126612 0
M  V30 14191 H 1305.75 1.56177 -0.963383 0
M  V30 14192 H 1304.13 3.95842 0.111973 0
M  V30 14193 H 1305.3 3.7078 -2.73603 0
M  V30 14194 H 1303.62 3.44205 -2.34333 0
M  V30 14195 H 1306.22 5.3381 -0.308459 0
M  V30 14196 H 1306.56 4.07559 0.84859 0
M  V30 14197 H 1307.09 3.88834 -0.839834 0
M  V30 14198 H 1303.83 5.7089 -3.22126 0
M  V30 14199 H 1303.35 5.80447 -1.51134 0
M  V30 14200 H 1305.03 6.15621 -1.99048 0
M  V30 14201 N 1305.16 0.53415 1.48272 0
M  V30 14202 C 1306.39 0.00368464 2.074 0
M  V30 14203 C 1306.81 -1.27003 1.38751 0
M  V30 14204 O 1306.17 -1.75502 0.454817 0
M  V30 14205 C 1306.22 -0.199034 3.6005 0
M  V30 14206 O 1305.32 -1.26679 3.92462 0
M  V30 14207 H 1304.66 0.0409936 0.662733 0
M  V30 14208 H 1307.19 0.743253 1.90622 0
M  V30 14209 H 1307.2 -0.420404 4.05828 0
M  V30 14210 H 1305.88 0.731391 4.09418 0
M  V30 14211 H 1304.46 -1.02775 3.58457 0
M  V30 14212 N 1306.64 -1.55279 0.269478 0
M  V30 14213 C 1307.55 -2.25965 -0.63065 0
M  V30 14214 C 1308.57 -1.28357 -1.17476 0
M  V30 14215 O 1309.74 -1.61281 -1.20625 0
M  V30 14216 C 1306.81 -2.96263 -1.80081 0
M  V30 14217 C 1305.87 -4.09336 -1.29394 0
M  V30 14218 C 1305.1 -4.76272 -2.40833 0
M  V30 14219 O 1305.32 -4.42389 -3.60066 0
M  V30 14220 O 1304.26 -5.64334 -2.09309 0
M  V30 14221 H 1308.08 -3.03644 -0.0582069 0
M  V30 14222 H 1305.67 -1.49354 0.0370966 0
M  V30 14223 H 1307.55 -3.40461 -2.48322 0
M  V30 14224 H 1306.23 -2.21505 -2.36045 0
M  V30 14225 H 1305.13 -3.69605 -0.578154 0
M  V30 14226 H 1306.47 -4.85978 -0.780117 0
M  V30 14227 N 1308.12 0.00332656 -1.576 0
M  V30 14228 C 1309.37 0.688044 -1.89602 0
M  V30 14229 C 1309.68 1.75121 -0.871316 0
M  V30 14230 O 1310.89 2.49032 -1.08144 0
M  V30 14231 C 1309.34 1.27494 -3.36561 0
M  V30 14232 C 1308.95 0.246771 -4.4732 0
M  V30 14233 C 1310.69 1.93804 -3.77677 0
M  V30 14234 C 1308.6 0.843471 -5.85354 0
M  V30 14235 H 1307.53 0.260747 -0.707479 0
M  V30 14236 H 1310.18 -0.0566727 -1.83412 0
M  V30 14237 H 1308.56 2.07022 -3.37577 0
M  V30 14238 H 1309.74 -0.523668 -4.57815 0
M  V30 14239 H 1308.05 -0.3157 -4.15202 0
M  V30 14240 H 1310.65 2.39347 -4.78139 0
M  V30 14241 H 1310.99 2.7672 -3.11017 0
M  V30 14242 H 1311.53 1.21015 -3.78946 0
M  V30 14243 H 1308.27 0.0531655 -6.55478 0
M  V30 14244 H 1307.79 1.58315 -5.7853 0
M  V30 14245 H 1309.46 1.34311 -6.32906 0
M  V30 14246 N 1309.6 1.55164 0.276031 0
M  V30 14247 C 1310.84 1.77377 1.01572 0
M  V30 14248 C 1311.2 0.56142 1.83608 0
M  V30 14249 O 1312.4 0.661745 2.60527 0
M  V30 14250 C 1310.67 3.0412 1.87738 0
M  V30 14251 S 1312.23 3.4744 2.68013 0
M  V30 14252 H 1309.05 0.62326 0.342153 0
M  V30 14253 H 1311.65 1.9339 0.286456 0
M  V30 14254 H 1310.36 3.90453 1.26389 0
M  V30 14255 H 1309.89 2.90764 2.6499 0
M  V30 14256 H 1311.9 3.06474 3.90241 0
M  V30 14257 N 1311.07 -0.540404 1.48045 0
M  V30 14258 C 1312.01 -1.66223 1.56349 0
M  V30 14259 C 1312.99 -1.57227 0.414552 0
M  V30 14260 O 1314.17 -1.77847 0.624709 0
M  V30 14261 C 1311.3 -3.04568 1.48176 0
M  V30 14262 C 1310.34 -3.31957 2.67781 0
M  V30 14263 S 1311.18 -3.19368 4.29842 0
M  V30 14264 C 1312.33 -4.60177 4.2425 0
M  V30 14265 H 1312.56 -1.58927 2.51256 0
M  V30 14266 H 1310.1 -0.722554 1.3645 0
M  V30 14267 H 1312.06 -3.84359 1.44147 0
M  V30 14268 H 1310.72 -3.09314 0.54625 0
M  V30 14269 H 1309.91 -4.32855 2.58172 0
M  V30 14270 H 1309.51 -2.59817 2.69019 0
M  V30 14271 H 1311.8 -5.51482 3.9354 0
M  V30 14272 H 1312.75 -4.74842 5.25291 0
M  V30 14273 H 1313.15 -4.39011 3.54865 0
M  V30 14274 N 1312.55 -1.36459 -0.788468 0
M  V30 14275 C 1313.46 -1.33017 -1.93245 0
M  V30 14276 C 1314.48 -0.232212 -1.72444 0
M  V30 14277 O 1315.65 -0.464743 -1.95965 0
M  V30 14278 C 1312.72 -1.1197 -3.28121 0
M  V30 14279 C 1311.78 -2.3125 -3.61693 0
M  V30 14280 C 1311.01 -2.11197 -4.90134 0
M  V30 14281 O 1311.24 -1.08764 -5.59934 0
M  V30 14282 O 1310.17 -2.98996 -5.22384 0
M  V30 14283 H 1314 -2.29333 -1.99098 0
M  V30 14284 H 1311.58 -1.17016 -0.928856 0
M  V30 14285 H 1313.46 -1.02154 -4.08831 0
M  V30 14286 H 1312.14 -0.187171 -3.23158 0
M  V30 14287 H 1311.05 -2.46635 -2.81286 0
M  V30 14288 H 1312.38 -3.23012 -3.71381 0
M  V30 14289 N 1314.03 1.01274 -1.20754 0
M  V30 14290 C 1314.94 2.1335 -0.975656 0
M  V30 14291 C 1315.96 1.7386 0.0697364 0
M  V30 14292 O 1317.13 2.01051 -0.118578 0
M  V30 14293 C 1314.2 3.42548 -0.534931 0
M  V30 14294 C 1313.26 3.96257 -1.65163 0
M  V30 14295 C 1312.49 5.19289 -1.23184 0
M  V30 14296 O 1312.71 5.70309 -0.102158 0
M  V30 14297 O 1311.65 5.66248 -2.04076 0
M  V30 14298 H 1315.47 2.35783 -1.91415 0
M  V30 14299 H 1313.06 1.11736 -0.991743 0
M  V30 14300 H 1314.94 4.20341 -0.298568 0
M  V30 14301 H 1313.62 3.21521 0.374937 0
M  V30 14302 H 1312.52 3.19726 -1.94232 0
M  V30 14303 H 1313.86 4.2168 -2.53864 0
M  V30 14304 N 1315.51 1.01404 1.20644 0
M  V30 14305 C 1316.42 0.591693 2.27016 0
M  V30 14306 C 1317.44 -0.36958 1.7003 0
M  V30 14307 O 1318.61 -0.231165 2.00069 0
M  V30 14308 C 1315.68 -0.0659827 3.46637 0
M  V30 14309 C 1314.74 0.940911 4.18862 0
M  V30 14310 C 1313.97 0.314526 5.32772 0
M  V30 14311 O 1314.19 -0.886404 5.63471 0
M  V30 14312 O 1313.13 1.02998 5.93022 0
M  V30 14313 H 1316.95 1.4772 2.65353 0
M  V30 14314 H 1314.54 0.783399 1.27213 0
M  V30 14315 H 1316.42 -0.433412 4.19165 0
M  V30 14316 H 1315.1 -0.925729 3.10181 0
M  V30 14317 H 1314 1.35966 3.48517 0
M  V30 14318 H 1315.34 1.77054 4.59252 0
M  V30 14319 N 1316.99 -1.36373 0.789944 0
M  V30 14320 C 1318.4 -1.81783 0.425677 0
M  V30 14321 C 1318.75 -1.65711 -1.05045 0
M  V30 14322 O 1317.87 -1.17835 -1.81505 0
M  V30 14323 C 1318.47 -3.3003 0.765866 0
M  V30 14324 C 1317.03 -3.73647 0.454421 0
M  V30 14325 C 1316.18 -2.58632 1.00023 0
M  V30 14326 H 1319.13 -1.24587 0.983044 0
M  V30 14327 H 1319.15 -3.80457 0.0571624 0
M  V30 14328 H 1318.66 -3.41696 1.84026 0
M  V30 14329 H 1316.76 -3.67541 -0.611918 0
M  V30 14330 H 1316.87 -4.69066 0.975401 0
M  V30 14331 H 1315.24 -2.51156 0.423434 0
M  V30 14332 H 1316.02 -2.73083 2.0804 0
M  V30 14333 N 1318.47 -0.542005 -1.47987 0
M  V30 14334 C 1319.69 -0.016717 -2.06893 0
M  V30 14335 C 1320.11 1.27015 -1.39687 0
M  V30 14336 O 1319.47 1.75845 -0.488326 0
M  V30 14337 C 1319.52 0.198437 -3.60955 0
M  V30 14338 O 1319.24 -1.03746 -4.25639 0
M  V30 14339 C 1320.74 0.762741 -4.36689 0
M  V30 14340 H 1317.96 -0.0389497 -0.669869 0
M  V30 14341 H 1320.5 -0.751082 -1.90208 0
M  V30 14342 H 1318.66 0.882884 -3.77205 0
M  V30 14343 H 1319.07 -0.82568 -5.1796 0
M  V30 14344 H 1320.55 0.862649 -5.45218 0
M  V30 14345 H 1321.02 1.77049 -4.01933 0
M  V30 14346 H 1321.63 0.114478 -4.25146 0
M  V30 14347 N 1319.94 1.55134 -0.277709 0
M  V30 14348 C 1320.89 2.19317 0.623216 0
M  V30 14349 C 1321.88 1.15863 1.11645 0
M  V30 14350 O 1323.07 1.41668 1.0611 0
M  V30 14351 C 1320.2 2.91976 1.80568 0
M  V30 14352 C 1319.28 4.02722 1.3295 0
M  V30 14353 N 1319.68 5.02582 0.569654 0
M  V30 14354 C 1317.97 4.1584 1.61224 0
M  V30 14355 C 1318.67 5.80825 0.318983 0
M  V30 14356 N 1317.65 5.36229 0.892145 0
M  V30 14357 H 1321.45 2.93879 0.0348669 0
M  V30 14358 H 1318.97 1.62196 -0.0813871 0
M  V30 14359 H 1320.96 3.36408 2.46242 0
M  V30 14360 H 1319.62 2.18925 2.39796 0
M  V30 14361 H 1320.63 5.17446 0.216749 0
M  V30 14362 H 1317.31 3.53981 2.21368 0
M  V30 14363 H 1318.7 6.71275 -0.289742 0
M  V30 14364 N 1321.42 0.00503138 1.57599 0
M  V30 14365 C 1322.35 -0.983586 2.11773 0
M  V30 14366 C 1323.33 -1.35518 1.02805 0
M  V30 14367 O 1324.52 -1.43804 1.30514 0
M  V30 14368 C 1321.65 -2.27383 2.62515 0
M  V30 14369 C 1320.6 -2.0437 3.76054 0
M  V30 14370 C 1319.93 -3.39451 4.1313 0
M  V30 14371 C 1321.23 -1.40223 5.03125 0
M  V30 14372 H 1322.92 -0.532501 2.94627 0
M  V30 14373 H 1320.47 -0.254696 1.4173 0
M  V30 14374 H 1322.42 -2.96903 2.99043 0
M  V30 14375 H 1321.14 -2.74614 1.7679 0
M  V30 14376 H 1319.8 -1.37275 3.39928 0
M  V30 14377 H 1319.45 -3.84395 3.24422 0
M  V30 14378 H 1319.15 -3.24868 4.89627 0
M  V30 14379 H 1320.68 -4.10279 4.52221 0
M  V30 14380 H 1322.09 -1.99708 5.37392 0
M  V30 14381 H 1320.49 -1.36112 5.8446 0
M  V30 14382 H 1321.56 -0.372073 4.8347 0
M  V30 14383 N 1322.9 -1.55308 -0.267798 0
M  V30 14384 C 1323.85 -1.88544 -1.33115 0
M  V30 14385 C 1324.82 -0.737465 -1.48831 0
M  V30 14386 O 1326 -0.989215 -1.63154 0
M  V30 14387 C 1323.14 -2.1674 -2.68547 0
M  V30 14388 C 1322.25 -3.44234 -2.61011 0
M  V30 14389 C 1321.39 -3.62104 -3.88657 0
M  V30 14390 C 1320.43 -4.83272 -3.75652 0
M  V30 14391 N 1319.57 -4.97772 -4.95144 0
M  V30 14392 H 1324.41 -2.79237 -1.04071 0
M  V30 14393 H 1321.94 -1.38245 -0.502677 0
M  V30 14394 H 1323.9 -2.31088 -3.47353 0
M  V30 14395 H 1322.53 -1.29276 -2.95783 0
M  V30 14396 H 1321.58 -3.3833 -1.73887 0
M  V30 14397 H 1322.89 -4.33177 -2.47303 0
M  V30 14398 H 1322.05 -3.76298 -4.75904 0
M  V30 14399 H 1320.79 -2.71356 -4.05238 0
M  V30 14400 H 1319.79 -4.69076 -2.86788 0
M  V30 14401 H 1321.02 -5.75461 -3.60585 0
M  V30 14402 H 1318.96 -4.09956 -5.12125 0
M  V30 14403 H 1318.88 -5.80769 -4.83987 0
M  V30 14404 H 1320.15 -5.16357 -5.83949 0
M  V30 14405 N 1324.38 0.532545 -1.4833 0
M  V30 14406 C 1325.31 1.64662 -1.65555 0
M  V30 14407 C 1326.29 1.62447 -0.50447 0
M  V30 14408 O 1327.47 1.79684 -0.736712 0
M  V30 14409 C 1324.6 3.03256 -1.69272 0
M  V30 14410 C 1323.56 3.20329 -2.83854 0
M  V30 14411 C 1322.88 4.59958 -2.72659 0
M  V30 14412 C 1324.18 3.03345 -4.25181 0
M  V30 14413 H 1325.88 1.50502 -2.58823 0
M  V30 14414 H 1323.42 0.722612 -1.24556 0
M  V30 14415 H 1325.38 3.81064 -1.79911 0
M  V30 14416 H 1324.1 3.18433 -0.725805 0
M  V30 14417 H 1322.76 2.44937 -2.72766 0
M  V30 14418 H 1322.41 4.71967 -1.73942 0
M  V30 14419 H 1322.11 4.72327 -3.49544 0
M  V30 14420 H 1323.63 5.39869 -2.85262 0
M  V30 14421 H 1325.05 3.70948 -4.37116 0
M  V30 14422 H 1323.44 3.27208 -5.03045 0
M  V30 14423 H 1324.51 1.998 -4.41824 0
M  V30 14424 N 1325.86 1.36875 0.78122 0
M  V30 14425 C 1327.1 1.31299 1.53639 0
M  V30 14426 C 1327.42 -0.104942 1.94717 0
M  V30 14427 O 1326.69 -1.04696 1.65576 0
M  V30 14428 H 1325.27 0.483032 0.569815 0
M  V30 14429 H 1327.94 1.71261 0.930359 0
M  V30 14430 H 1327.03 1.94581 2.44018 0
M  V30 14431 N 1327.33 -1.00632 1.21289 0
M  V30 14432 C 1328.58 -1.74647 1.03084 0
M  V30 14433 C 1328.91 -1.89271 -0.43476 0
M  V30 14434 O 1328.19 -1.42607 -1.32263 0
M  V30 14435 C 1328.47 -3.15981 1.72709 0
M  V30 14436 C 1328.32 -3.09088 3.2678 0
M  V30 14437 C 1329.64 -4.14875 1.46857 0
M  V30 14438 H 1326.76 -0.633938 0.375889 0
M  V30 14439 H 1329.4 -1.17328 1.49446 0
M  V30 14440 H 1327.55 -3.64918 1.33294 0
M  V30 14441 H 1329.23 -2.67875 3.75554 0
M  V30 14442 H 1327.47 -2.46223 3.57151 0
M  V30 14443 H 1328.14 -4.09041 3.70661 0
M  V30 14444 H 1330.62 -3.74637 1.81069 0
M  V30 14445 H 1329.49 -5.1191 1.98088 0
M  V30 14446 H 1329.75 -4.40302 0.398296 0
M  V30 14447 N 1328.81 -1.02043 -1.20104 0
M  V30 14448 C 1330.04 -0.731142 -1.94085 0
M  V30 14449 C 1330.46 0.702467 -1.74491 0
M  V30 14450 O 1329.82 1.48387 -1.04168 0
M  V30 14451 C 1329.87 -1.07691 -3.44144 0
M  V30 14452 O 1328.97 -0.190751 -4.11959 0
M  V30 14453 H 1328.31 -0.270917 -0.606218 0
M  V30 14454 H 1330.84 -1.36483 -1.52426 0
M  V30 14455 H 1330.85 -1.03023 -3.94779 0
M  V30 14456 H 1329.53 -2.1214 -3.57728 0
M  V30 14457 H 1328.1 -0.29529 -3.71729 0
M  V30 14458 N 1330.29 1.35952 -0.797165 0
M  V30 14459 C 1331.54 1.98283 -0.369685 0
M  V30 14460 C 1331.85 1.63968 1.06649 0
M  V30 14461 O 1333.06 2.19591 1.59662 0
M  V30 14462 C 1331.51 3.54692 -0.610046 0
M  V30 14463 C 1331.12 3.97925 -2.05814 0
M  V30 14464 C 1332.87 4.23778 -0.247457 0
M  V30 14465 C 1330.77 5.47142 -2.24475 0
M  V30 14466 H 1329.7 0.741909 -0.134489 0
M  V30 14467 H 1332.35 1.55146 -0.979893 0
M  V30 14468 H 1330.74 3.95938 0.0699822 0
M  V30 14469 H 1331.91 3.67857 -2.77521 0
M  V30 14470 H 1330.23 3.417 -2.37971 0
M  V30 14471 H 1332.82 5.33452 -0.365059 0
M  V30 14472 H 1333.17 4.08436 0.805315 0
M  V30 14473 H 1333.7 3.87921 -0.881028 0
M  V30 14474 H 1330.44 5.67441 -3.28163 0
M  V30 14475 H 1329.96 5.78811 -1.57282 0
M  V30 14476 H 1331.64 6.13475 -2.05567 0
M  V30 14477 N 1331.77 0.549846 1.47697 0
M  V30 14478 C 1332.7 -0.239345 2.27947 0
M  V30 14479 C 1333.71 -0.886206 1.36566 0
M  V30 14480 O 1334.9 -0.761298 1.61451 0
M  V30 14481 C 1332 -1.35591 3.10593 0
M  V30 14482 C 1331.18 -0.807234 4.29887 0
M  V30 14483 C 1330.23 -1.80738 4.94187 0
M  V30 14484 O 1329.26 -1.35641 5.52802 0
M  V30 14485 N 1330.46 -3.14046 4.88216 0
M  V30 14486 H 1333.23 0.449001 2.96318 0
M  V30 14487 H 1330.79 0.385443 1.57245 0
M  V30 14488 H 1332.78 -2.02356 3.50477 0
M  V30 14489 H 1331.35 -1.94761 2.44514 0
M  V30 14490 H 1330.57 0.0369877 3.94183 0
M  V30 14491 H 1331.86 -0.419877 5.07065 0
M  V30 14492 H 1331.26 -3.53335 4.41781 0
M  V30 14493 H 1329.81 -3.7639 5.32141 0
M  V30 14494 N 1333.25 -1.54984 0.285932 0
M  V30 14495 C 1334.19 -2.24385 -0.612703 0
M  V30 14496 C 1335.19 -1.24459 -1.14918 0
M  V30 14497 O 1336.39 -1.42357 -1.10156 0
M  V30 14498 H 1332.77 -0.720263 -0.21616 0
M  V30 14499 H 1334.74 -2.984 -0.00465668 0
M  V30 14500 C 1333.49 -2.98661 -1.78037 0
M  V30 14501 H 1332.81 -3.75347 -1.37676 0
M  V30 14502 H 1334.25 -3.50525 -2.38554 0
M  V30 14503 C 1332.71 -2.04754 -2.67539 0
M  V30 14504 O 1333.24 -1.60577 -3.68209 0
M  V30 14505 N 1331.45 -1.71026 -2.34944 0
M  V30 14506 H 1330.99 -2.07148 -1.53126 0
M  V30 14507 H 1330.95 -1.08467 -2.95097 0
M  V30 14508 N 1334.72 -0.0133892 -1.57594 0
M  V30 14509 C 1335.65 0.972341 -2.12292 0
M  V30 14510 C 1336.64 1.34971 -1.03522 0
M  V30 14511 O 1337.82 1.4311 -1.31275 0
M  V30 14512 C 1334.95 2.25988 -2.63717 0
M  V30 14513 C 1333.9 2.02373 -3.77133 0
M  V30 14514 C 1333.23 3.37256 -4.14925 0
M  V30 14515 C 1334.53 1.37553 -5.03861 0
M  V30 14516 H 1336.22 0.516869 -2.94905 0
M  V30 14517 H 1333.77 0.247176 -1.41863 0
M  V30 14518 H 1335.72 2.95313 -3.00613 0
M  V30 14519 H 1334.45 2.73672 -1.78244 0
M  V30 14520 H 1333.11 1.3547 -3.40651 0
M  V30 14521 H 1332.75 3.82669 -3.26456 0
M  V30 14522 H 1332.45 3.22267 -4.91343 0
M  V30 14523 H 1333.98 4.07875 -4.5439 0
M  V30 14524 H 1335.39 1.96855 -5.38443 0
M  V30 14525 H 1333.79 1.33011 -5.85174 0
M  V30 14526 H 1334.86 0.346429 -4.83661 0
M  V30 14527 N 1336.2 1.55448 0.259558 0
M  V30 14528 C 1337.45 1.76948 0.990816 0
M  V30 14529 C 1337.78 0.576401 1.85449 0
M  V30 14530 O 1337.06 -0.425693 1.89784 0
M  V30 14531 C 1337.34 3.08221 1.86204 0
M  V30 14532 C 1337.19 4.37909 1.0274 0
M  V30 14533 C 1338.51 3.35627 2.84679 0
M  V30 14534 H 1335.63 0.64377 0.358788 0
M  V30 14535 H 1338.27 1.88182 0.262211 0
M  V30 14536 H 1336.42 2.98775 2.48326 0
M  V30 14537 H 1338.09 4.5933 0.425855 0
M  V30 14538 H 1336.34 4.32533 0.331308 0
M  V30 14539 H 1337.01 5.26116 1.6705 0
M  V30 14540 H 1339.48 3.44954 2.32693 0
M  V30 14541 H 1338.36 4.28719 3.42769 0
M  V30 14542 H 1338.62 2.55921 3.60496 0
M  V30 14543 N 1337.68 -0.524672 1.4861 0
M  V30 14544 C 1338.63 -1.62872 1.63527 0
M  V30 14545 C 1339.6 -1.59097 0.477202 0
M  V30 14546 O 1340.78 -1.77443 0.701341 0
M  V30 14547 C 1337.92 -3.01116 1.68592 0
M  V30 14548 C 1337.04 -3.15085 2.95542 0
M  V30 14549 C 1336.17 -4.4392 2.91734 0
M  V30 14550 C 1335.21 -4.51436 4.13366 0
M  V30 14551 N 1334.35 -5.71667 4.07605 0
M  V30 14552 H 1339.19 -1.49462 2.57808 0
M  V30 14553 H 1336.72 -0.727578 1.27846 0
M  V30 14554 H 1338.68 -3.81212 1.6951 0
M  V30 14555 H 1337.31 -3.13285 0.777975 0
M  V30 14556 H 1336.36 -2.28207 3.04345 0
M  V30 14557 H 1337.68 -3.165 3.85524 0
M  V30 14558 H 1336.83 -5.32312 2.91083 0
M  V30 14559 H 1335.57 -4.45034 1.9949 0
M  V30 14560 H 1334.57 -3.6145 4.14287 0
M  V30 14561 H 1335.8 -4.52057 5.06776 0
M  V30 14562 H 1333.74 -5.73668 3.18184 0
M  V30 14563 H 1333.66 -5.74599 4.91297 0
M  V30 14564 H 1334.93 -6.62331 4.1102 0
M  V30 14565 N 1339.16 -1.37287 -0.77395 0
M  V30 14566 C 1340.4 -1.3257 -1.5347 0
M  V30 14567 C 1340.74 0.090346 -1.9399 0
M  V30 14568 O 1340.01 1.04719 -1.63903 0
M  V30 14569 C 1340.3 -2.26277 -2.80126 0
M  V30 14570 C 1340.15 -3.76651 -2.45874 0
M  V30 14571 C 1341.47 -2.18471 -3.82045 0
M  V30 14572 H 1338.59 -0.48289 -0.556764 0
M  V30 14573 H 1341.23 -1.6797 -0.888039 0
M  V30 14574 H 1339.38 -1.96219 -3.35306 0
M  V30 14575 H 1341.05 -4.17296 -1.96626 0
M  V30 14576 H 1339.29 -3.95327 -1.78602 0
M  V30 14577 H 1339.96 -4.3765 -3.36403 0
M  V30 14578 H 1342.44 -2.44962 -3.36352 0
M  V30 14579 H 1341.32 -2.86183 -4.68392 0
M  V30 14580 H 1341.58 -1.17692 -4.26147 0
M  V30 14581 N 1340.64 0.999871 -1.21821 0
M  V30 14582 C 1341.87 1.77148 -1.06312 0
M  V30 14583 C 1342.27 1.85142 0.389747 0
M  V30 14584 O 1341.62 1.31562 1.28207 0
M  V30 14585 C 1341.68 3.22367 -1.59122 0
M  V30 14586 C 1341.34 3.37937 -3.07649 0
M  V30 14587 C 1342.34 3.25808 -4.05148 0
M  V30 14588 C 1340.03 3.63213 -3.46961 0
M  V30 14589 C 1342.02 3.38729 -5.39946 0
M  V30 14590 C 1339.71 3.75775 -4.81909 0
M  V30 14591 C 1340.7 3.6354 -5.78211 0
M  V30 14592 O 1340.39 3.75694 -7.1071 0
M  V30 14593 H 1340.12 0.563396 -0.373578 0
M  V30 14594 H 1342.68 1.26627 -1.61724 0
M  V30 14595 H 1340.91 3.74047 -0.98111 0
M  V30 14596 H 1342.6 3.81219 -1.39379 0
M  V30 14597 H 1343.36 3.062 -3.76121 0
M  V30 14598 H 1339.24 3.71816 -2.72533 0
M  V30 14599 H 1342.79 3.29096 -6.15095 0
M  V30 14600 H 1338.68 3.94889 -5.1062 0
M  V30 14601 H 1339.45 3.9261 -7.18192 0
M  V30 14602 N 1342.11 1.02678 1.19562 0
M  V30 14603 C 1343.53 0.743467 1.41226 0
M  V30 14604 C 1343.73 -0.672786 1.89936 0
M  V30 14605 O 1342.79 -1.43908 2.07477 0
M  V30 14606 C 1344.1 1.77781 2.42517 0
M  V30 14607 C 1345.65 1.79711 2.56267 0
M  V30 14608 C 1346.12 2.82099 3.60811 0
M  V30 14609 N 1347.61 2.80902 3.68304 0
M  V30 14610 C 1348.35 3.5678 4.48882 0
M  V30 14611 N 1347.84 4.42367 5.33182 0
M  V30 14612 N 1349.64 3.45331 4.43512 0
M  V30 14613 H 1341.79 1.94094 0.862635 0
M  V30 14614 H 1344.05 0.839015 0.441313 0
M  V30 14615 H 1343.76 2.79295 2.13745 0
M  V30 14616 H 1343.63 1.59836 3.41661 0
M  V30 14617 H 1346.02 0.788756 2.84364 0
M  V30 14618 H 1346.1 2.01731 1.57284 0
M  V30 14619 H 1345.74 3.83104 3.33457 0
M  V30 14620 H 1345.67 2.57338 4.5944 0
M  V30 14621 H 1348.16 2.18826 3.08097 0
M  V30 14622 H 1348.48 4.97008 5.9178 0
M  V30 14623 H 1346.82 4.4644 5.3265 0
M  V30 14624 H 1350.01 2.77883 3.76695 0
M  V30 14625 H 1350.19 4.04718 5.06071 0
M  V30 14626 N 1343.59 -1.35528 0.804364 0
M  V30 14627 C 1344.87 -1.93175 0.307049 0
M  V30 14628 C 1345.25 -1.73466 -1.20303 0
M  V30 14629 O 1344.6 -1.10235 -2.00151 0
M  V30 14630 C 1344.81 -3.41576 0.716018 0
M  V30 14631 C 1346.16 -4.18719 0.704242 0
M  V30 14632 O 1347.18 -3.50081 0.657423 0
M  V30 14633 O 1346.04 -5.41181 0.760601 0
M  V30 14634 H 1343.13 -0.823142 0.0797888 0
M  V30 14635 H 1345.68 -1.44617 0.887912 0
M  V30 14636 H 1344.45 -3.49642 1.75688 0
M  V30 14637 H 1344.07 -3.97448 0.109843 0
M  V30 14638 N 1345.07 -0.557671 -1.47404 0
M  V30 14639 C 1346.32 -0.0337216 -2.02072 0
M  V30 14640 C 1346.64 1.32106 -1.43433 0
M  V30 14641 O 1345.91 1.86171 -0.609692 0
M  V30 14642 H 1344.49 -0.00947648 -0.74694 0
M  V30 14643 H 1347.15 -0.727784 -1.80802 0
M  V30 14644 H 1346.25 0.0540331 -3.12053 0
M  V30 14645 N 1346.55 1.54831 -0.294147 0
M  V30 14646 C 1347.48 2.19422 0.626821 0
M  V30 14647 C 1348.46 1.16136 1.13804 0
M  V30 14648 O 1349.64 1.44747 1.2075 0
M  V30 14649 C 1346.77 2.83262 1.85689 0
M  V30 14650 C 1345.82 4.00016 1.4795 0
M  V30 14651 S 1346.65 5.32757 0.541307 0
M  V30 14652 C 1347.81 6.00076 1.77932 0
M  V30 14653 H 1348.04 2.97198 0.0780539 0
M  V30 14654 H 1345.57 1.54201 -0.0783131 0
M  V30 14655 H 1347.53 3.20671 2.56282 0
M  V30 14656 H 1346.19 2.05345 2.37681 0
M  V30 14657 H 1345.38 4.43443 2.3953 0
M  V30 14658 H 1344.99 3.64129 0.853573 0
M  V30 14659 H 1347.28 6.20466 2.7208 0
M  V30 14660 H 1348.22 6.94368 1.38774 0
M  V30 14661 H 1348.63 5.29643 1.95292 0
M  V30 14662 N 1348.03 0.0217466 1.57585 0
M  V30 14663 C 1348.97 -0.962559 2.0977 0
M  V30 14664 C 1349.94 -1.32771 0.998053 0
M  V30 14665 O 1351.13 -1.42231 1.27181 0
M  V30 14666 C 1348.27 -2.24214 2.62339 0
M  V30 14667 C 1347.38 -1.9341 3.86286 0
M  V30 14668 C 1346.52 -3.15609 4.27275 0
M  V30 14669 C 1345.56 -2.8059 5.43999 0
M  V30 14670 N 1344.69 -3.95392 5.8018 0
M  V30 14671 H 1349.53 -0.510626 2.93593 0
M  V30 14672 H 1347.07 -0.240456 1.45121 0
M  V30 14673 H 1349.03 -2.99049 2.90905 0
M  V30 14674 H 1347.66 -2.67037 1.81358 0
M  V30 14675 H 1346.71 -1.08849 3.64494 0
M  V30 14676 H 1348.02 -1.63614 4.71203 0
M  V30 14677 H 1347.18 -3.9877 4.57239 0
M  V30 14678 H 1345.92 -3.48561 3.41111 0
M  V30 14679 H 1344.92 -1.9584 5.13738 0
M  V30 14680 H 1346.15 -2.48863 6.31858 0
M  V30 14681 H 1344.09 -4.282 4.96971 0
M  V30 14682 H 1344.01 -3.69195 6.59721 0
M  V30 14683 H 1345.28 -4.79279 6.14746 0
M  V30 14684 N 1349.51 -1.55583 -0.251311 0
M  V30 14685 C 1350.75 -1.77471 -0.981418 0
M  V30 14686 C 1351.08 -0.586228 -1.85141 0
M  V30 14687 O 1350.36 0.415623 -1.90007 0
M  V30 14688 C 1350.64 -3.09204 -1.84567 0
M  V30 14689 C 1350.5 -4.38448 -1.00417 0
M  V30 14690 C 1351.81 -3.37133 -2.82895 0
M  V30 14691 H 1348.93 -0.645664 -0.355369 0
M  V30 14692 H 1351.58 -1.88318 -0.252228 0
M  V30 14693 H 1349.73 -3.00087 -2.46738 0
M  V30 14694 H 1351.4 -4.5955 -0.40149 0
M  V30 14695 H 1349.64 -4.32703 -0.308365 0
M  V30 14696 H 1350.31 -5.26995 -1.64258 0
M  V30 14697 H 1352.79 -3.46183 -2.3086 0
M  V30 14698 H 1351.66 -4.30531 -3.40491 0
M  V30 14699 H 1351.92 -2.57829 -3.59133 0
M  V30 14700 N 1350.98 0.516783 -1.48886 0
M  V30 14701 C 1351.95 1.60226 -1.63891 0
M  V30 14702 C 1352.95 1.52448 -0.511479 0
M  V30 14703 O 1354.14 1.55882 -0.777582 0
M  V30 14704 C 1351.27 2.99867 -1.62151 0
M  V30 14705 H 1352.46 1.48256 -2.60692 0
M  V30 14706 H 1350.01 0.739844 -1.37681 0
M  V30 14707 H 1350.75 3.1733 -0.668764 0
M  V30 14708 H 1350.53 3.0692 -2.44013 0
M  V30 14709 H 1352.02 3.7876 -1.7587 0
M  V30 14710 N 1352.46 1.37696 0.766659 0
M  V30 14711 C 1353.71 1.33382 1.52765 0
M  V30 14712 C 1354.04 -0.0800569 1.94035 0
M  V30 14713 O 1353.32 -1.03848 1.64456 0
M  V30 14714 C 1353.6 2.2776 2.78922 0
M  V30 14715 C 1353.45 3.77949 2.43874 0
M  V30 14716 C 1354.77 2.20494 3.80881 0
M  V30 14717 H 1351.89 0.485836 0.554195 0
M  V30 14718 H 1354.53 1.68438 0.879119 0
M  V30 14719 H 1352.68 1.97994 3.34261 0
M  V30 14720 H 1354.35 4.18333 1.9441 0
M  V30 14721 H 1352.6 3.96269 1.76503 0
M  V30 14722 H 1353.27 4.39428 3.34077 0
M  V30 14723 H 1355.74 2.46742 3.35048 0
M  V30 14724 H 1354.62 2.88663 4.66867 0
M  V30 14725 H 1354.88 1.19951 4.25516 0
M  V30 14726 N 1353.94 -0.993397 1.22349 0
M  V30 14727 C 1355.22 -1.7063 0.956275 0
M  V30 14728 C 1355.6 -2.0437 -0.52877 0
M  V30 14729 O 1354.94 -1.72662 -1.49667 0
M  V30 14730 C 1355.15 -2.95725 1.85331 0
M  V30 14731 C 1356.5 -3.68514 2.10909 0
M  V30 14732 O 1357.53 -3.05732 1.82775 0
M  V30 14733 O 1356.39 -4.81468 2.58556 0
M  V30 14734 H 1353.48 -0.744734 0.359583 0
M  V30 14735 H 1356.03 -1.04979 1.33333 0
M  V30 14736 H 1354.8 -2.6729 2.85782 0
M  V30 14737 H 1354.42 -3.69116 1.47781 0
M  V30 14738 N 1355.42 -1.03311 -1.19015 0
M  V30 14739 C 1356.67 -0.730593 -1.88432 0
M  V30 14740 C 1356.99 0.743392 -1.80274 0
M  V30 14741 O 1356.26 1.5359 -1.21601 0
M  V30 14742 H 1354.84 -0.267253 -0.697556 0
M  V30 14743 H 1357.5 -1.30824 -1.44468 0
M  V30 14744 H 1356.59 -1.02867 -2.9466 0
M  V30 14745 N 1356.9 1.35099 -0.81154 0
M  V30 14746 C 1357.83 2.32264 -0.239925 0
M  V30 14747 C 1358.81 1.57708 0.637354 0
M  V30 14748 O 1359.99 1.85751 0.566598 0
M  V30 14749 C 1357.12 3.41931 0.608325 0
M  V30 14750 C 1356.08 4.27659 -0.170869 0
M  V30 14751 C 1355.4 5.28691 0.799398 0
M  V30 14752 C 1356.7 5.0394 -1.37266 0
M  V30 14753 H 1358.4 2.8032 -1.05172 0
M  V30 14754 H 1355.94 1.34773 -0.507185 0
M  V30 14755 H 1357.89 4.08911 1.01832 0
M  V30 14756 H 1356.62 2.92496 1.45306 0
M  V30 14757 H 1355.28 3.62265 -0.562094 0
M  V30 14758 H 1354.93 4.75521 1.63977 0
M  V30 14759 H 1354.63 5.86921 0.282331 0
M  V30 14760 H 1356.15 5.98542 1.20749 0
M  V30 14761 H 1357.56 5.63838 -1.03728 0
M  V30 14762 H 1355.96 5.7169 -1.82456 0
M  V30 14763 H 1357.03 4.34295 -2.15676 0
M  V30 14764 N 1358.37 0.56548 1.47106 0
M  V30 14765 C 1359.34 -0.167191 2.28589 0
M  V30 14766 C 1360.34 -0.835005 1.3742 0
M  V30 14767 O 1361.53 -0.689598 1.59969 0
M  V30 14768 C 1358.66 -1.24548 3.17333 0
M  V30 14769 H 1359.85 0.548677 2.94838 0
M  V30 14770 H 1357.4 0.322749 1.52931 0
M  V30 14771 H 1358.14 -1.99348 2.55794 0
M  V30 14772 H 1357.92 -0.771335 3.84438 0
M  V30 14773 H 1359.41 -1.75985 3.78707 0
M  V30 14774 N 1359.85 -1.54672 0.302354 0
M  V30 14775 C 1360.78 -2.2653 -0.566265 0
M  V30 14776 C 1361.76 -1.26532 -1.13682 0
M  V30 14777 O 1362.95 -1.55307 -1.1659 0
M  V30 14778 C 1360.08 -3.00709 -1.73757 0
M  V30 14779 C 1359.03 -4.07865 -1.29731 0
M  V30 14780 C 1358.36 -4.69767 -2.55388 0
M  V30 14781 C 1359.66 -5.20547 -0.427567 0
M  V30 14782 H 1361.35 -2.99382 0.033071 0
M  V30 14783 H 1358.9 -1.4399 0.0173458 0
M  V30 14784 H 1360.85 -3.497 -2.35134 0
M  V30 14785 H 1359.58 -2.25437 -2.36317 0
M  V30 14786 H 1358.23 -3.59726 -0.706586 0
M  V30 14787 H 1357.88 -3.91134 -3.16265 0
M  V30 14788 H 1357.58 -5.42137 -2.26631 0
M  V30 14789 H 1359.11 -5.21521 -3.17566 0
M  V30 14790 H 1360.52 -5.65424 -0.947053 0
M  V30 14791 H 1358.92 -5.99645 -0.233704 0
M  V30 14792 H 1359.99 -4.81805 0.546993 0
M  V30 14793 N 1361.33 -0.0301034 -1.57571 0
M  V30 14794 C 1362.28 0.969425 -2.11435 0
M  V30 14795 C 1363.27 1.33627 -1.04116 0
M  V30 14796 O 1364.48 1.31839 -1.2255 0
M  V30 14797 H 1360.85 0.330407 -0.675526 0
M  V30 14798 H 1362.82 0.489828 -2.94352 0
M  V30 14799 C 1361.57 2.24233 -2.65734 0
M  V30 14800 H 1360.9 1.9688 -3.47963 0
M  V30 14801 H 1362.34 2.92378 -3.07068 0
M  V30 14802 C 1360.8 2.97274 -1.58524 0
M  V30 14803 O 1361.33 3.8942 -0.985641 0
M  V30 14804 N 1359.53 2.59627 -1.30545 0
M  V30 14805 H 1359.08 1.84773 -1.79491 0
M  V30 14806 H 1359.04 3.08807 -0.590372 0
M  V30 14807 N 1362.81 1.55714 0.243056 0
M  V30 14808 C 1364.06 1.77726 0.970555 0
M  V30 14809 C 1364.38 0.595108 1.85172 0
M  V30 14810 O 1363.64 -0.42143 1.91108 0
M  V30 14811 C 1363.94 3.05281 1.85845 0
M  V30 14812 C 1363.6 4.36451 1.13232 0
M  V30 14813 C 1362.27 4.72095 0.931656 0
M  V30 14814 C 1364.62 5.17524 0.617944 0
M  V30 14815 C 1361.95 5.86344 0.204373 0
M  V30 14816 C 1364.3 6.32527 -0.0958899 0
M  V30 14817 C 1362.96 6.66789 -0.308 0
M  V30 14818 H 1362.23 0.650345 0.355151 0
M  V30 14819 H 1364.88 1.89986 0.240351 0
M  V30 14820 H 1363.18 2.8805 2.65584 0
M  V30 14821 H 1364.88 3.19511 2.4231 0
M  V30 14822 H 1361.47 4.08451 1.29867 0
M  V30 14823 H 1365.65 4.90439 0.760507 0
M  V30 14824 H 1360.91 6.11393 0.0296 0
M  V30 14825 H 1365.08 6.94588 -0.502077 0
M  V30 14826 H 1362.71 7.55165 -0.873502 0
M  V30 14827 N 1364.29 -0.50888 1.49158 0
M  V30 14828 C 1365.52 -1.28585 1.61708 0
M  V30 14829 C 1365.92 -1.87047 0.284629 0
M  V30 14830 O 1365.27 -1.68182 -0.738959 0
M  V30 14831 C 1365.33 -2.46043 2.62113 0
M  V30 14832 C 1364.99 -2.0851 4.0666 0
M  V30 14833 C 1365.99 -1.62943 4.93706 0
M  V30 14834 C 1363.68 -2.18386 4.52342 0
M  V30 14835 C 1365.67 -1.27747 6.24467 0
M  V30 14836 C 1363.36 -1.82801 5.83118 0
M  V30 14837 C 1364.35 -1.37555 6.69005 0
M  V30 14838 O 1364.04 -1.02447 7.97345 0
M  V30 14839 H 1363.77 -0.396504 0.547504 0
M  V30 14840 H 1366.33 -0.61834 1.95872 0
M  V30 14841 H 1364.56 -3.15844 2.23113 0
M  V30 14842 H 1366.25 -3.08081 2.64275 0
M  V30 14843 H 1367.01 -1.54766 4.59644 0
M  V30 14844 H 1362.89 -2.52556 3.85664 0
M  V30 14845 H 1366.44 -0.923589 6.91459 0
M  V30 14846 H 1362.33 -1.90626 6.16711 0
M  V30 14847 H 1363.1 -1.15663 8.10287 0
M  V30 14848 N 1365.76 -1.381 -0.759346 0
M  V30 14849 C 1366.67 -1.37086 -1.9038 0
M  V30 14850 C 1367.69 -0.268738 -1.71912 0
M  V30 14851 O 1368.87 -0.506205 -1.94935 0
M  V30 14852 C 1365.93 -1.18905 -3.25672 0
M  V30 14853 C 1364.99 -2.3887 -3.56707 0
M  V30 14854 C 1364.23 -2.21546 -4.85544 0
M  V30 14855 O 1364.45 -1.20616 -5.57501 0
M  V30 14856 O 1363.38 -3.10009 -5.15924 0
M  V30 14857 H 1367.21 -2.33505 -1.94188 0
M  V30 14858 H 1364.79 -1.18959 -0.903826 0
M  V30 14859 H 1366.68 -1.10803 -4.06572 0
M  V30 14860 H 1365.35 -0.255675 -3.22689 0
M  V30 14861 H 1364.26 -2.52546 -2.75992 0
M  V30 14862 H 1365.59 -3.30817 -3.64446 0
M  V30 14863 N 1367.24 0.986894 -1.22875 0
M  V30 14864 C 1368.49 1.72388 -1.05484 0
M  V30 14865 C 1368.81 1.90639 0.410074 0
M  V30 14866 O 1368.08 1.47036 1.2945 0
M  V30 14867 H 1366.66 0.638732 -0.387337 0
M  V30 14868 H 1369.32 1.18829 -1.54485 0
M  V30 14869 H 1368.42 2.71599 -1.53754 0
M  V30 14870 N 1368.72 1.0394 1.18466 0
M  V30 14871 C 1369.65 0.587413 2.21545 0
M  V30 14872 C 1370.67 -0.34227 1.59161 0
M  V30 14873 O 1371.85 -0.136988 1.77974 0
M  V30 14874 C 1368.95 -0.161999 3.38513 0
M  V30 14875 C 1368.13 0.775243 4.30475 0
M  V30 14876 C 1367.19 0.0693526 5.26154 0
M  V30 14877 O 1366.21 0.69937 5.64887 0
M  V30 14878 N 1367.41 -1.19773 5.68009 0
M  V30 14879 H 1370.18 1.47399 2.60948 0
M  V30 14880 H 1367.74 0.919734 1.33239 0
M  V30 14881 H 1369.73 -0.644041 3.99542 0
M  V30 14882 H 1368.3 -0.950099 2.97812 0
M  V30 14883 H 1367.52 1.43717 3.67068 0
M  V30 14884 H 1368.81 1.41187 4.88819 0
M  V30 14885 H 1368.21 -1.73013 5.38593 0
M  V30 14886 H 1366.77 -1.62407 6.31243 0
M  V30 14887 N 1370.2 -1.34667 0.818693 0
M  V30 14888 C 1371.45 -1.9767 0.401184 0
M  V30 14889 C 1371.76 -1.65644 -1.04027 0
M  V30 14890 O 1372.97 -2.22104 -1.56148 0
M  V30 14891 C 1371.42 -3.53677 0.666398 0
M  V30 14892 C 1371.03 -3.94601 2.12119 0
M  V30 14893 C 1372.77 -4.23331 0.314845 0
M  V30 14894 C 1370.68 -5.43502 2.33151 0
M  V30 14895 H 1369.61 -0.739675 0.146275 0
M  V30 14896 H 1372.26 -1.53568 1.00445 0
M  V30 14897 H 1370.64 -3.95999 -0.00698307 0
M  V30 14898 H 1371.82 -3.63396 2.83338 0
M  V30 14899 H 1370.13 -3.37871 2.43377 0
M  V30 14900 H 1372.73 -5.32804 0.449881 0
M  V30 14901 H 1373.07 -4.09666 -0.740235 0
M  V30 14902 H 1373.61 -3.8647 0.942631 0
M  V30 14903 H 1370.35 -5.62148 3.37149 0
M  V30 14904 H 1369.87 -5.76236 1.66471 0
M  V30 14905 H 1371.54 -6.10127 2.153 0
M  V30 14906 N 1371.68 -0.573274 -1.46804 0
M  V30 14907 C 1372.9 -0.0605984 -2.06811 0
M  V30 14908 C 1373.32 1.24024 -1.4235 0
M  V30 14909 O 1372.68 1.7477 -0.525515 0
M  V30 14910 C 1372.73 0.121828 -3.61295 0
M  V30 14911 O 1372.45 -1.12751 -4.23342 0
M  V30 14912 C 1373.95 0.669941 -4.38208 0
M  V30 14913 H 1371.17 -0.0531498 -0.668892 0
M  V30 14914 H 1373.71 -0.791259 -1.88572 0
M  V30 14915 H 1371.87 0.802674 -3.78993 0
M  V30 14916 H 1372.28 -0.935361 -5.16092 0
M  V30 14917 H 1373.76 0.746806 -5.46925 0
M  V30 14918 H 1374.23 1.68483 -4.05598 0
M  V30 14919 H 1374.84 0.0242721 -4.25293 0
M  V30 14920 N 1373.15 1.5451 -0.310553 0
M  V30 14921 C 1374.38 2.05204 0.301013 0
M  V30 14922 C 1374.8 1.1859 1.46007 0
M  V30 14923 O 1374.16 0.192081 1.8028 0
M  V30 14924 C 1374.21 3.53221 0.725767 0
M  V30 14925 O 1373.31 3.69596 1.82955 0
M  V30 14926 H 1372.66 0.661566 0.0568026 0
M  V30 14927 H 1375.19 1.99473 -0.455178 0
M  V30 14928 H 1375.2 3.9525 1.01198 0
M  V30 14929 H 1373.87 4.15721 -0.122046 0
M  V30 14930 H 1372.45 3.39472 1.54315 0
M  V30 14931 N 1374.63 0.0384594 1.57553 0
M  V30 14932 C 1375.88 -0.63814 1.92182 0
M  V30 14933 C 1376.21 -1.71595 0.915714 0
M  V30 14934 O 1375.46 -1.9556 -0.0739533 0
M  V30 14935 C 1375.76 -1.28439 3.33524 0
M  V30 14936 C 1375.43 -0.336034 4.49646 0
M  V30 14937 C 1374.09 -0.0750373 4.81141 0
M  V30 14938 C 1376.44 0.314642 5.20249 0
M  V30 14939 C 1373.77 0.844286 5.80593 0
M  V30 14940 C 1376.12 1.22208 6.20684 0
M  V30 14941 C 1374.79 1.49187 6.50615 0
M  V30 14942 H 1374.06 -0.233512 0.703245 0
M  V30 14943 H 1376.7 0.102223 1.91227 0
M  V30 14944 H 1375.01 -2.09973 3.30785 0
M  V30 14945 H 1376.71 -1.81462 3.57593 0
M  V30 14946 H 1373.3 -0.549638 4.25061 0
M  V30 14947 H 1377.48 0.126074 4.9614 0
M  V30 14948 H 1372.74 1.06092 6.02125 0
M  V30 14949 H 1376.91 1.7324 6.74508 0
M  V30 14950 H 1374.54 2.20588 7.27492 0
M  V30 14951 N 1376.11 -1.55841 -0.234795 0
M  V30 14952 C 1377.04 -1.94344 -1.29432 0
M  V30 14953 C 1378.02 -0.809912 -1.49581 0
M  V30 14954 O 1379.21 -1.07117 -1.61986 0
M  V30 14955 C 1376.34 -2.24866 -2.64675 0
M  V30 14956 C 1375.29 -3.40584 -2.59203 0
M  V30 14957 C 1374.62 -3.56678 -3.98353 0
M  V30 14958 C 1375.92 -4.75935 -2.15135 0
M  V30 14959 H 1377.61 -2.83096 -0.97454 0
M  V30 14960 H 1375.16 -1.36205 -0.467355 0
M  V30 14961 H 1377.11 -2.50392 -3.38942 0
M  V30 14962 H 1375.83 -1.32953 -2.98314 0
M  V30 14963 H 1374.49 -3.15087 -1.87393 0
M  V30 14964 H 1374.14 -2.62164 -4.29277 0
M  V30 14965 H 1373.84 -4.34503 -3.95577 0
M  V30 14966 H 1375.37 -3.84538 -4.74302 0
M  V30 14967 H 1376.78 -5.00753 -2.7914 0
M  V30 14968 H 1375.18 -5.56949 -2.23446 0
M  V30 14969 H 1376.25 -4.72182 -1.10328 0
M  V30 14970 N 1377.59 0.500963 -1.49426 0
M  V30 14971 C 1378.84 1.25261 -1.58601 0
M  V30 14972 C 1379.16 1.93056 -0.274647 0
M  V30 14973 O 1378.43 1.82736 0.706003 0
M  V30 14974 H 1377.01 0.465328 -0.584362 0
M  V30 14975 H 1379.67 0.580588 -1.86052 0
M  V30 14976 H 1378.77 2.01652 -2.38208 0
M  V30 14977 N 1379.07 1.38501 0.752011 0
M  V30 14978 C 1380.02 1.32359 1.85648 0
M  V30 14979 C 1381 0.207578 1.59555 0
M  V30 14980 O 1382.19 0.443683 1.71349 0
M  V30 14981 C 1379.32 1.15253 3.23375 0
M  V30 14982 C 1378.41 2.31483 3.55354 0
M  V30 14983 N 1378.8 3.56929 3.58379 0
M  V30 14984 C 1377.1 2.2407 3.85628 0
M  V30 14985 C 1377.8 4.33691 3.87669 0
M  V30 14986 N 1376.77 3.63065 4.04579 0
M  V30 14987 H 1380.58 2.27336 1.86267 0
M  V30 14988 H 1378.09 1.31755 0.949441 0
M  V30 14989 H 1380.09 1.08937 4.02416 0
M  V30 14990 H 1378.75 0.212108 3.24006 0
M  V30 14991 H 1379.76 3.90578 3.40101 0
M  V30 14992 H 1376.44 1.38196 3.93965 0
M  V30 14993 H 1377.83 5.42349 3.9662 0
M  V30 14994 N 1380.55 -0.980364 1.23396 0
M  V30 14995 C 1381.49 -2.09401 1.01262 0
M  V30 14996 C 1382.49 -1.69331 -0.0483957 0
M  V30 14997 O 1383.69 -1.79693 0.105109 0
M  V30 14998 H 1380.07 -0.684969 0.310358 0
M  V30 14999 H 1382.04 -2.25236 1.95732 0
M  V30 15000 C 1380.79 -3.42118 0.620526 0
M  V30 15001 H 1380.11 -3.73402 1.42868 0
M  V30 15002 H 1381.55 -4.2098 0.505169 0
M  V30 15003 C 1380.01 -3.30146 -0.671208 0
M  V30 15004 O 1380.54 -3.62997 -1.72034 0
M  V30 15005 N 1378.75 -2.83303 -0.647137 0
M  V30 15006 H 1378.29 -2.56767 0.206957 0
M  V30 15007 H 1378.25 -2.75675 -1.51165 0
M  V30 15008 N 1382.02 -1.04567 -1.17913 0
M  V30 15009 C 1383.27 -0.750538 -1.87647 0
M  V30 15010 C 1383.59 0.72423 -1.81052 0
M  V30 15011 O 1382.86 1.52292 -1.23223 0
M  V30 15012 H 1381.44 -0.274636 -0.694683 0
M  V30 15013 H 1384.1 -1.32349 -1.43072 0
M  V30 15014 H 1383.2 -1.05987 -2.93553 0
M  V30 15015 N 1383.5 1.34231 -0.825823 0
M  V30 15016 C 1384.46 2.27776 -0.25512 0
M  V30 15017 C 1385.46 1.50409 0.568654 0
M  V30 15018 O 1386.65 1.69907 0.384337 0
M  V30 15019 C 1383.79 3.348 0.642013 0
M  V30 15020 H 1384.98 2.79763 -1.0804 0
M  V30 15021 H 1382.53 1.44412 -0.597904 0
M  V30 15022 H 1383.27 2.88032 1.49024 0
M  V30 15023 H 1383.05 3.92064 0.0527756 0
M  V30 15024 H 1384.54 4.0457 1.03502 0
M  V30 15025 N 1384.98 0.581051 1.46498 0
M  V30 15026 C 1386.23 0.0658652 2.01993 0
M  V30 15027 C 1386.55 -1.29807 1.45516 0
M  V30 15028 O 1385.82 -1.85177 0.639233 0
M  V30 15029 H 1384.4 0.0213584 0.746695 0
M  V30 15030 H 1387.06 0.756456 1.79621 0
M  V30 15031 H 1386.16 -0.00438128 3.121 0
M  V30 15032 N 1386.46 -1.54343 0.318742 0
M  V30 15033 C 1387.4 -2.24166 -0.549397 0
M  V30 15034 C 1388.37 -1.23068 -1.1155 0
M  V30 15035 O 1389.56 -1.51737 -1.15674 0
M  V30 15036 C 1386.7 -2.99938 -1.70678 0
M  V30 15037 C 1385.81 -4.15844 -1.17037 0
M  V30 15038 C 1384.95 -4.79158 -2.29305 0
M  V30 15039 C 1383.99 -5.87176 -1.72888 0
M  V30 15040 N 1383.12 -6.44372 -2.78799 0
M  V30 15041 H 1387.96 -2.97954 0.0526018 0
M  V30 15042 H 1385.5 -1.47052 0.0377307 0
M  V30 15043 H 1387.46 -3.42113 -2.38777 0
M  V30 15044 H 1386.09 -2.28494 -2.28014 0
M  V30 15045 H 1385.14 -3.78486 -0.381082 0
M  V30 15046 H 1386.45 -4.93612 -0.717507 0
M  V30 15047 H 1385.61 -5.24277 -3.05317 0
M  V30 15048 H 1384.35 -4.0076 -2.77926 0
M  V30 15049 H 1383.35 -5.41465 -0.953714 0
M  V30 15050 H 1384.58 -6.67469 -1.2515 0
M  V30 15051 H 1382.52 -5.6885 -3.2672 0
M  V30 15052 H 1382.44 -7.17539 -2.38062 0
M  V30 15053 H 1383.71 -6.94147 -3.54655 0
M  V30 15054 N 1387.94 -0.0468143 -1.5753 0
M  V30 15055 C 1389.16 0.637648 -1.96829 0
M  V30 15056 C 1389.58 1.64635 -0.924158 0
M  V30 15057 O 1388.94 1.82267 0.0921139 0
M  V30 15058 C 1388.99 1.32842 -3.36207 0
M  V30 15059 O 1388.71 0.360111 -4.36617 0
M  V30 15060 C 1390.21 2.10305 -3.90239 0
M  V30 15061 H 1387.43 0.174634 -0.647876 0
M  V30 15062 H 1389.97 -0.111824 -2.04194 0
M  V30 15063 H 1388.13 2.02915 -3.30006 0
M  V30 15064 H 1388.54 0.852661 -5.17523 0
M  V30 15065 H 1390.02 2.54065 -4.90056 0
M  V30 15066 H 1390.49 2.94942 -3.25432 0
M  V30 15067 H 1391.1 1.45152 -3.99764 0
M  V30 15068 N 1389.41 1.55964 0.226527 0
M  V30 15069 C 1390.64 1.82823 0.968673 0
M  V30 15070 C 1391.06 0.625281 1.78145 0
M  V30 15071 O 1390.41 -0.40617 1.77923 0
M  V30 15072 C 1390.47 3.08143 1.89024 0
M  V30 15073 O 1390.19 4.23797 1.11032 0
M  V30 15074 C 1391.69 3.47954 2.74669 0
M  V30 15075 H 1388.91 0.607876 0.284126 0
M  V30 15076 H 1391.45 2.03048 0.243258 0
M  V30 15077 H 1389.61 2.89908 2.56967 0
M  V30 15078 H 1390.02 4.94957 1.73546 0
M  V30 15079 H 1391.49 4.38691 3.35044 0
M  V30 15080 H 1391.97 2.69476 3.46813 0
M  V30 15081 H 1392.58 3.6861 2.12147 0
M  V30 15082 N 1390.89 -0.493031 1.4969 0
M  V30 15083 C 1392.12 -1.27046 1.633 0
M  V30 15084 C 1392.54 -1.86278 0.307534 0
M  V30 15085 O 1391.89 -1.68208 -0.707968 0
M  V30 15086 C 1391.94 -2.39501 2.70779 0
M  V30 15087 O 1391.66 -1.82702 3.98185 0
M  V30 15088 C 1393.17 -3.30744 2.95166 0
M  V30 15089 H 1390.39 -0.385042 0.54953 0
M  V30 15090 H 1392.93 -0.590998 1.95774 0
M  V30 15091 H 1391.08 -3.03263 2.41061 0
M  V30 15092 H 1391.5 -2.56588 4.57452 0
M  V30 15093 H 1392.97 -4.05912 3.74085 0
M  V30 15094 H 1393.45 -3.88217 2.05387 0
M  V30 15095 H 1394.06 -2.72741 3.26332 0
M  V30 15096 N 1392.37 -1.38898 -0.744656 0
M  V30 15097 C 1393.3 -1.31228 -1.86693 0
M  V30 15098 C 1394.28 -0.187667 -1.61513 0
M  V30 15099 O 1395.47 -0.366497 -1.84903 0
M  V30 15100 C 1392.59 -1.03541 -3.22486 0
M  V30 15101 C 1391.64 -2.18061 -3.6654 0
M  V30 15102 S 1392.47 -3.80271 -3.77033 0
M  V30 15103 C 1393.63 -3.5479 -5.15631 0
M  V30 15104 H 1393.86 -2.26211 -1.92914 0
M  V30 15105 H 1391.39 -1.24839 -0.908544 0
M  V30 15106 H 1393.35 -0.882504 -4.00902 0
M  V30 15107 H 1392.01 -0.102611 -3.13932 0
M  V30 15108 H 1391.21 -1.94257 -4.65059 0
M  V30 15109 H 1390.81 -2.29505 -2.95302 0
M  V30 15110 H 1393.1 -3.11457 -6.01665 0
M  V30 15111 H 1394.04 -4.52735 -5.4446 0
M  V30 15112 H 1394.45 -2.89103 -4.8485 0
M  V30 15113 N 1393.85 0.973806 -1.23914 0
M  V30 15114 C 1395.07 1.7564 -1.10296 0
M  V30 15115 C 1395.5 1.84984 0.340954 0
M  V30 15116 O 1394.86 1.31629 1.24674 0
M  V30 15117 C 1394.9 3.15809 -1.7406 0
M  V30 15118 O 1394.01 3.99911 -1.00722 0
M  V30 15119 H 1393.35 0.540133 -0.386202 0
M  V30 15120 H 1395.88 1.22197 -1.64101 0
M  V30 15121 H 1395.89 3.66359 -1.79568 0
M  V30 15122 H 1394.56 3.08324 -2.79122 0
M  V30 15123 H 1393.14 3.58405 -1.02956 0
M  V30 15124 N 1395.33 1.05191 1.17357 0
M  V30 15125 C 1396.58 0.757104 1.86951 0
M  V30 15126 C 1396.89 -0.718637 1.8192 0
M  V30 15127 O 1398.09 -1.12739 2.46986 0
M  V30 15128 C 1396.55 1.30409 3.35442 0
M  V30 15129 C 1396.16 2.80928 3.48975 0
M  V30 15130 C 1397.9 1.08633 4.10365 0
M  V30 15131 C 1395.81 3.28927 4.91488 0
M  V30 15132 H 1394.74 0.279525 0.700273 0
M  V30 15133 H 1397.39 1.2692 1.32528 0
M  V30 15134 H 1395.77 0.719812 3.89403 0
M  V30 15135 H 1396.95 3.45211 3.05231 0
M  V30 15136 H 1395.26 3.01245 2.87473 0
M  V30 15137 H 1397.86 1.41996 5.15501 0
M  V30 15138 H 1398.2 0.0240903 4.16293 0
M  V30 15139 H 1398.73 1.63581 3.6261 0
M  V30 15140 H 1395.47 4.34581 4.90734 0
M  V30 15141 H 1394.99 2.69386 5.35902 0
M  V30 15142 H 1396.67 3.23605 5.60258 0
M  V30 15143 N 1396.8 -1.33791 0.83293 0
M  V30 15144 C 1397.73 -2.31853 0.276846 0
M  V30 15145 C 1398.72 -1.58702 -0.612184 0
M  V30 15146 O 1399.9 -1.86629 -0.536975 0
M  V30 15147 C 1397.03 -3.42855 -0.55385 0
M  V30 15148 C 1395.98 -4.27333 0.238884 0
M  V30 15149 C 1395.31 -5.29895 -0.715187 0
M  V30 15150 C 1396.61 -5.01692 1.45265 0
M  V30 15151 H 1398.3 -2.78611 1.09618 0
M  V30 15152 H 1395.85 -1.33949 0.528562 0
M  V30 15153 H 1397.8 -4.10479 -0.953133 0
M  V30 15154 H 1396.53 -2.94771 -1.40634 0
M  V30 15155 H 1395.19 -3.61325 0.619656 0
M  V30 15156 H 1394.83 -4.7807 -1.56391 0
M  V30 15157 H 1394.53 -5.87296 -0.188921 0
M  V30 15158 H 1396.06 -6.00387 -1.11211 0
M  V30 15159 H 1397.47 -5.62117 1.12685 0
M  V30 15160 H 1395.87 -5.68715 1.91528 0
M  V30 15161 H 1396.94 -4.30809 2.22558 0
M  V30 15162 N 1398.28 -0.588812 -1.46187 0
M  V30 15163 C 1399.51 -0.0825301 -2.06735 0
M  V30 15164 C 1399.93 1.22507 -1.43658 0
M  V30 15165 O 1399.28 1.74203 -0.544022 0
M  V30 15166 C 1399.33 0.083501 -3.61404 0
M  V30 15167 O 1399.05 -1.17235 -4.22123 0
M  V30 15168 C 1400.56 0.623425 -4.38894 0
M  V30 15169 H 1397.78 -0.0602413 -0.66829 0
M  V30 15170 H 1400.32 -0.811215 -1.87722 0
M  V30 15171 H 1398.47 0.762432 -3.79823 0
M  V30 15172 H 1398.89 -0.990047 -5.15071 0
M  V30 15173 H 1400.36 0.688755 -5.47686 0
M  V30 15174 H 1400.84 1.64172 -4.07362 0
M  V30 15175 H 1401.45 -0.0208373 -4.25295 0
M  V30 15176 N 1399.76 1.54172 -0.326923 0
M  V30 15177 C 1401.01 2.00233 0.274098 0
M  V30 15178 C 1401.33 1.21665 1.5239 0
M  V30 15179 O 1400.6 0.319359 1.93279 0
M  V30 15180 H 1399.18 0.739687 0.104271 0
M  V30 15181 H 1401.84 1.8977 -0.444244 0
M  V30 15182 H 1400.94 3.07599 0.528154 0
M  V30 15183 N 1401.24 0.0551678 1.57503 0
M  V30 15184 C 1402.17 -0.915714 2.14795 0
M  V30 15185 C 1403.15 -1.32179 1.07065 0
M  V30 15186 O 1404.33 -1.39579 1.35023 0
M  V30 15187 C 1401.46 -2.18916 2.69616 0
M  V30 15188 C 1400.42 -1.92303 3.82366 0
M  V30 15189 C 1399.74 -3.26136 4.23721 0
M  V30 15190 C 1401.04 -1.24146 5.07331 0
M  V30 15191 H 1402.74 -0.438499 2.96171 0
M  V30 15192 H 1400.28 -0.209477 1.42468 0
M  V30 15193 H 1402.24 -2.87239 3.08337 0
M  V30 15194 H 1400.96 -2.6885 1.85437 0
M  V30 15195 H 1399.62 -1.26391 3.44123 0
M  V30 15196 H 1399.27 -3.73879 3.36487 0
M  V30 15197 H 1398.97 -3.09126 4.99715 0
M  V30 15198 H 1400.49 -3.95684 4.65045 0
M  V30 15199 H 1401.91 -1.8251 5.43473 0
M  V30 15200 H 1400.3 -1.17449 5.88494 0
M  V30 15201 H 1401.37 -0.218073 4.84409 0
M  V30 15202 N 1402.72 -1.56081 -0.218252 0
M  V30 15203 C 1403.96 -1.79247 -0.942157 0
M  V30 15204 C 1404.29 -0.624492 -1.84202 0
M  V30 15205 O 1403.55 0.390973 -1.91755 0
M  V30 15206 C 1403.85 -3.08199 -1.80965 0
M  V30 15207 C 1403.51 -4.38197 -1.06274 0
M  V30 15208 C 1402.17 -4.73517 -0.856432 0
M  V30 15209 C 1404.53 -5.18441 -0.535532 0
M  V30 15210 C 1401.85 -5.86595 -0.111065 0
M  V30 15211 C 1404.21 -6.32295 0.196507 0
M  V30 15212 C 1402.87 -6.66215 0.414041 0
M  V30 15213 H 1402.14 -0.655913 -0.34476 0
M  V30 15214 H 1404.79 -1.90344 -0.210095 0
M  V30 15215 H 1403.09 -2.92238 -2.60967 0
M  V30 15216 H 1404.79 -3.23325 -2.37196 0
M  V30 15217 H 1401.38 -4.10466 -1.23352 0
M  V30 15218 H 1405.56 -4.91586 -0.682386 0
M  V30 15219 H 1400.82 -6.11363 0.0676711 0
M  V30 15220 H 1404.99 -6.93701 0.612516 0
M  V30 15221 H 1402.62 -7.5368 0.993532 0
M  V30 15222 N 1404.2 0.485086 -1.49949 0
M  V30 15223 C 1405.61 1.06629 -1.53255 0
M  V30 15224 C 1405.96 1.9344 -0.327915 0
M  V30 15225 O 1405.08 2.09011 0.560669 0
M  V30 15226 C 1405.68 1.94053 -2.77721 0
M  V30 15227 C 1404.24 2.47307 -2.83754 0
M  V30 15228 C 1403.38 1.25307 -2.47373 0
M  V30 15229 H 1406.33 0.268297 -1.56416 0
M  V30 15230 H 1406.36 2.78946 -2.58784 0
M  V30 15231 H 1405.87 1.30843 -3.65379 0
M  V30 15232 H 1403.97 3.1411 -2.00414 0
M  V30 15233 H 1404.08 2.83371 -3.86313 0
M  V30 15234 H 1402.45 1.5834 -1.99501 0
M  V30 15235 H 1403.23 0.637815 -3.37323 0
M  V30 15236 N 1405.67 1.39291 0.737279 0
M  V30 15237 C 1407.08 1.32489 1.31543 0
M  V30 15238 C 1407.44 -0.0118162 1.96196 0
M  V30 15239 O 1406.56 -0.913938 1.96153 0
M  V30 15240 C 1407.16 2.39946 2.39189 0
M  V30 15241 C 1405.71 2.36671 2.92684 0
M  V30 15242 C 1404.86 2.21953 1.66229 0
M  V30 15243 H 1407.81 1.49412 0.534954 0
M  V30 15244 H 1407.83 2.06603 3.19524 0
M  V30 15245 H 1407.35 3.3722 1.92104 0
M  V30 15246 H 1405.45 1.43028 3.44055 0
M  V30 15247 H 1405.56 3.31441 3.45953 0
M  V30 15248 H 1403.92 1.69087 1.90478 0
M  V30 15249 H 1404.71 3.21194 1.21199 0
M  V30 15250 N 1407.15 -0.967221 1.24429 0
M  V30 15251 C 1408.38 -1.7452 1.11133 0
M  V30 15252 C 1408.79 -1.85785 -0.336087 0
M  V30 15253 O 1408.15 -1.34652 -1.23188 0
M  V30 15254 C 1408.2 -3.16544 1.74591 0
M  V30 15255 O 1407.92 -3.05845 3.13673 0
M  V30 15256 C 1409.42 -4.10677 1.6691 0
M  V30 15257 H 1406.64 -0.547267 0.388253 0
M  V30 15258 H 1409.19 -1.2143 1.64545 0
M  V30 15259 H 1407.34 -3.66618 1.2518 0
M  V30 15260 H 1407.76 -3.95346 3.44676 0
M  V30 15261 H 1409.23 -5.07987 2.15992 0
M  V30 15262 H 1409.71 -4.34652 0.630411 0
M  V30 15263 H 1410.31 -3.66514 2.15749 0
M  V30 15264 N 1408.63 -1.05812 -1.16797 0
M  V30 15265 C 1409.85 -0.792518 -1.91661 0
M  V30 15266 C 1410.28 0.646598 -1.76637 0
M  V30 15267 O 1409.64 1.44998 -1.08836 0
M  V30 15268 C 1409.69 -1.18585 -3.40544 0
M  V30 15269 O 1408.79 -0.321716 -4.11143 0
M  V30 15270 H 1408.13 -0.290066 -0.597292 0
M  V30 15271 H 1410.66 -1.41263 -1.48007 0
M  V30 15272 H 1410.67 -1.1553 -3.91301 0
M  V30 15273 H 1409.35 -2.23413 -3.50798 0
M  V30 15274 H 1407.92 -0.413403 -3.70601 0
M  V30 15275 N 1410.11 1.33347 -0.840014 0
M  V30 15276 C 1411.36 1.97354 -0.435412 0
M  V30 15277 C 1411.68 1.66866 1.009 0
M  V30 15278 O 1410.95 0.968186 1.70303 0
M  V30 15279 H 1409.53 0.730096 -0.158017 0
M  V30 15280 H 1412.19 1.6269 -1.07322 0
M  V30 15281 H 1411.28 3.0688 -0.56841 0
M  V30 15282 N 1411.59 0.596556 1.45873 0
M  V30 15283 C 1412.81 0.0934926 2.06689 0
M  V30 15284 C 1413.23 -1.21743 1.44305 0
M  V30 15285 O 1412.59 -1.73912 0.553253 0
M  V30 15286 C 1412.64 -0.0643337 3.61443 0
M  V30 15287 O 1412.36 1.19472 4.21495 0
M  V30 15288 C 1413.86 -0.600141 4.39219 0
M  V30 15289 H 1411.08 0.0637846 0.667961 0
M  V30 15290 H 1413.62 0.821159 1.87289 0
M  V30 15291 H 1411.78 -0.742278 3.80222 0
M  V30 15292 H 1412.19 1.01735 5.14539 0
M  V30 15293 H 1413.67 -0.6597 5.48044 0
M  V30 15294 H 1414.14 -1.62009 4.08227 0
M  V30 15295 H 1414.75 0.0433915 4.25278 0
M  V30 15296 N 1413.06 -1.53996 0.335095 0
M  V30 15297 C 1414.03 -2.23385 -0.513015 0
M  V30 15298 C 1415.03 -1.23117 -1.03435 0
M  V30 15299 O 1416.22 -1.47616 -0.924944 0
M  V30 15300 C 1413.35 -2.94691 -1.71377 0
M  V30 15301 H 1414.54 -2.99753 0.0937306 0
M  V30 15302 H 1412.09 -1.56061 0.086326 0
M  V30 15303 H 1412.83 -2.22488 -2.35944 0
M  V30 15304 H 1412.61 -3.68228 -1.34723 0
M  V30 15305 H 1414.1 -3.47525 -2.31552 0
M  V30 15306 N 1414.54 -0.0635198 -1.57472 0
M  V30 15307 C 1415.77 0.615841 -1.97208 0
M  V30 15308 C 1416.18 1.64181 -0.940281 0
M  V30 15309 O 1415.52 1.83515 0.0824321 0
M  V30 15310 C 1415.58 1.34908 -3.33227 0
M  V30 15311 C 1415.25 0.477535 -4.54498 0
M  V30 15312 C 1416.25 -0.261479 -5.19242 0
M  V30 15313 C 1413.93 0.404839 -5.00666 0
M  V30 15314 C 1415.92 -1.0615 -6.28499 0
M  V30 15315 C 1413.61 -0.398859 -6.09797 0
M  V30 15316 C 1414.61 -1.1307 -6.73576 0
M  V30 15317 O 1414.3 -1.92116 -7.80607 0
M  V30 15318 H 1414.03 0.172273 -0.65368 0
M  V30 15319 H 1416.58 -0.129963 -2.04988 0
M  V30 15320 H 1414.81 2.14078 -3.22036 0
M  V30 15321 H 1416.5 1.91988 -3.57625 0
M  V30 15322 H 1417.27 -0.214859 -4.84524 0
M  V30 15323 H 1413.15 0.964087 -4.50806 0
M  V30 15324 H 1416.69 -1.63324 -6.78212 0
M  V30 15325 H 1412.59 -0.447073 -6.4395 0
M  V30 15326 H 1413.36 -1.84459 -7.97444 0
M  V30 15327 N 1416.02 1.56195 0.209972 0
M  V30 15328 C 1417.27 1.78941 0.930744 0
M  V30 15329 C 1417.58 0.634139 1.85035 0
M  V30 15330 O 1418.79 0.745524 2.61064 0
M  V30 15331 C 1417.24 3.16935 1.70529 0
M  V30 15332 C 1416.85 4.40221 0.83125 0
M  V30 15333 C 1418.6 3.49 2.41659 0
M  V30 15334 C 1416.5 5.69238 1.60381 0
M  V30 15335 H 1415.43 0.667176 0.351273 0
M  V30 15336 H 1418.08 1.82572 0.184341 0
M  V30 15337 H 1416.47 3.07513 2.49503 0
M  V30 15338 H 1417.64 4.60728 0.081227 0
M  V30 15339 H 1415.95 4.15756 0.231517 0
M  V30 15340 H 1418.55 4.42623 2.99982 0
M  V30 15341 H 1418.89 2.72042 3.15117 0
M  V30 15342 H 1419.43 3.59804 1.69665 0
M  V30 15343 H 1416.17 6.49121 0.912292 0
M  V30 15344 H 1415.69 5.52772 2.32815 0
M  V30 15345 H 1417.37 6.09827 2.16149 0
M  V30 15346 N 1417.5 -0.477127 1.50204 0
M  V30 15347 C 1418.43 -1.58405 1.71552 0
M  V30 15348 C 1419.41 -1.60463 0.564413 0
M  V30 15349 O 1420.59 -1.76826 0.802893 0
M  V30 15350 C 1417.72 -2.96765 1.8041 0
M  V30 15351 C 1416.68 -3.09573 2.95548 0
M  V30 15352 C 1416 -4.49522 2.89542 0
M  V30 15353 C 1417.3 -2.87356 4.36147 0
M  V30 15354 H 1419 -1.40792 2.64231 0
M  V30 15355 H 1416.54 -0.675886 1.27153 0
M  V30 15356 H 1418.5 -3.74125 1.9393 0
M  V30 15357 H 1417.22 -3.1552 0.843489 0
M  V30 15358 H 1415.88 -2.34645 2.81669 0
M  V30 15359 H 1415.53 -4.65186 1.91339 0
M  V30 15360 H 1415.23 -4.59028 3.66834 0
M  V30 15361 H 1416.75 -5.28909 3.05102 0
M  V30 15362 H 1418.17 -3.54469 4.50583 0
M  V30 15363 H 1416.56 -3.08313 5.14843 0
M  V30 15364 H 1417.63 -1.83264 4.48935 0
M  V30 15365 N 1418.98 -1.3968 -0.729882 0
M  V30 15366 C 1420.22 -1.36911 -1.4866 0
M  V30 15367 C 1420.55 0.0326011 -1.94973 0
M  V30 15368 O 1419.82 0.984789 -1.69348 0
M  V30 15369 H 1418.4 -0.503848 -0.551495 0
M  V30 15370 H 1421.06 -1.74596 -0.866155 0
M  V30 15371 H 1420.15 -2.03504 -2.36628 0
M  V30 15372 N 1420.45 0.960609 -1.2494 0
M  V30 15373 C 1421.4 2.05634 -1.04801 0
M  V30 15374 C 1422.37 1.66049 0.0409611 0
M  V30 15375 O 1423.56 1.90453 -0.115053 0
M  V30 15376 C 1420.7 3.38604 -0.666444 0
M  V30 15377 C 1419.81 3.91341 -1.82964 0
M  V30 15378 C 1418.94 5.1261 -1.39299 0
M  V30 15379 C 1417.98 5.57562 -2.52569 0
M  V30 15380 N 1417.12 6.70046 -2.09722 0
M  V30 15381 H 1421.96 2.22194 -1.9858 0
M  V30 15382 H 1419.5 1.08892 -0.988981 0
M  V30 15383 H 1421.46 4.15017 -0.426205 0
M  V30 15384 H 1420.09 3.21948 0.23435 0
M  V30 15385 H 1419.14 3.11502 -2.18335 0
M  V30 15386 H 1420.45 4.20656 -2.68049 0
M  V30 15387 H 1419.6 5.96421 -1.11205 0
M  V30 15388 H 1418.34 4.84997 -0.512779 0
M  V30 15389 H 1417.35 4.72319 -2.81415 0
M  V30 15390 H 1418.57 5.87186 -3.41159 0
M  V30 15391 H 1416.52 6.44153 -1.24109 0
M  V30 15392 H 1416.44 6.98846 -2.88357 0
M  V30 15393 H 1417.7 7.57281 -1.84787 0
M  V30 15394 N 1421.93 1.0643 1.16234 0
M  V30 15395 C 1423.21 0.695256 1.82827 0
M  V30 15396 C 1423.59 -0.823242 1.94386 0
M  V30 15397 O 1422.94 -1.73406 1.48804 0
M  V30 15398 C 1423.15 1.3988 3.19741 0
M  V30 15399 C 1424.5 1.54489 3.95498 0
M  V30 15400 O 1425.52 1.35882 3.29264 0
M  V30 15401 O 1424.38 1.85027 5.14225 0
M  V30 15402 H 1421.47 0.246285 0.789476 0
M  V30 15403 H 1424.02 1.16466 1.23426 0
M  V30 15404 H 1422.79 2.43419 3.06371 0
M  V30 15405 H 1422.41 0.91957 3.8682 0
M  V30 15406 N 1423.41 -1.329 0.847073 0
M  V30 15407 C 1424.66 -1.96774 0.443022 0
M  V30 15408 C 1424.97 -1.67813 -1.0049 0
M  V30 15409 O 1426.18 -2.25366 -1.51402 0
M  V30 15410 C 1424.63 -3.52184 0.741268 0
M  V30 15411 C 1424.24 -3.90013 2.20441 0
M  V30 15412 C 1425.99 -4.22568 0.404569 0
M  V30 15413 C 1423.89 -5.38434 2.44627 0
M  V30 15414 H 1422.82 -0.736406 0.161932 0
M  V30 15415 H 1425.47 -1.51402 1.0368 0
M  V30 15416 H 1423.86 -3.95925 0.0770158 0
M  V30 15417 H 1425.03 -3.57304 2.90982 0
M  V30 15418 H 1423.35 -3.32633 2.50489 0
M  V30 15419 H 1425.94 -5.3173 0.562795 0
M  V30 15420 H 1426.29 -4.11144 -0.653172 0
M  V30 15421 H 1426.82 -3.84384 1.0244 0
M  V30 15422 H 1423.56 -5.5487 3.48997 0
M  V30 15423 H 1423.08 -5.72575 1.78656 0
M  V30 15424 H 1424.76 -6.05423 2.28194 0
M  V30 15425 N 1424.89 -0.604284 -1.45555 0
M  V30 15426 C 1426.3 -0.267665 -1.57339 0
M  V30 15427 C 1426.5 1.22984 -1.59616 0
M  V30 15428 O 1425.56 2.0127 -1.52468 0
M  V30 15429 C 1426.87 -0.935923 -2.85764 0
M  V30 15430 C 1428.42 -0.911531 -2.99433 0
M  V30 15431 C 1428.9 -1.55974 -4.30623 0
M  V30 15432 N 1430.39 -1.52507 -4.37374 0
M  V30 15433 C 1431.12 -1.9958 -5.37546 0
M  V30 15434 N 1430.62 -2.54724 -6.44273 0
M  V30 15435 N 1432.41 -1.90368 -5.28882 0
M  V30 15436 H 1424.56 -1.57666 -1.42321 0
M  V30 15437 H 1426.83 -0.66028 -0.680245 0
M  V30 15438 H 1426.53 -1.99022 -2.89971 0
M  V30 15439 H 1426.41 -0.457194 -3.74419 0
M  V30 15440 H 1428.79 0.134206 -2.94795 0
M  V30 15441 H 1428.87 -1.42849 -2.12197 0
M  V30 15442 H 1428.52 -2.60479 -4.3602 0
M  V30 15443 H 1428.45 -1.01782 -5.1667 0
M  V30 15444 H 1430.94 -1.12221 -3.60853 0
M  V30 15445 H 1431.25 -2.88445 -7.16951 0
M  V30 15446 H 1429.6 -2.58761 -6.45033 0
M  V30 15447 H 1432.79 -1.47029 -4.4441 0
M  V30 15448 H 1432.96 -2.27367 -6.06802 0
M  V30 15449 N 1426.37 1.53816 -0.343257 0
M  V30 15450 C 1427.59 2.05796 0.257418 0
M  V30 15451 C 1428.02 1.2166 1.43459 0
M  V30 15452 O 1427.37 0.230278 1.79832 0
M  V30 15453 C 1427.42 3.54681 0.65068 0
M  V30 15454 O 1426.53 3.73394 1.75074 0
M  V30 15455 H 1425.87 0.662622 0.042757 0
M  V30 15456 H 1428.4 1.98462 -0.497386 0
M  V30 15457 H 1428.41 3.97308 0.927914 0
M  V30 15458 H 1427.08 4.15368 -0.210199 0
M  V30 15459 H 1425.66 3.42669 1.4708 0
M  V30 15460 N 1427.84 0.0718701 1.57436 0
M  V30 15461 C 1428.75 -0.910077 2.16229 0
M  V30 15462 C 1429.77 -1.32699 1.12548 0
M  V30 15463 O 1430.95 -1.39967 1.44814 0
M  V30 15464 C 1428.01 -2.15942 2.71238 0
M  V30 15465 C 1427.07 -1.79891 3.89792 0
M  V30 15466 C 1426.31 -2.9887 4.42168 0
M  V30 15467 O 1426.53 -4.1289 3.93545 0
M  V30 15468 O 1425.46 -2.78682 5.33498 0
M  V30 15469 H 1429.29 -0.439969 3.00496 0
M  V30 15470 H 1426.87 -0.151204 1.48633 0
M  V30 15471 H 1428.76 -2.89204 3.06494 0
M  V30 15472 H 1427.43 -2.62051 1.90029 0
M  V30 15473 H 1426.34 -1.03881 3.59388 0
M  V30 15474 H 1427.67 -1.38566 4.72293 0
M  V30 15475 N 1429.32 -1.56304 -0.201686 0
M  V30 15476 C 1430.26 -1.8907 -1.27781 0
M  V30 15477 C 1431.23 -0.75009 -1.44265 0
M  V30 15478 O 1432.42 -1.00044 -1.59761 0
M  V30 15479 C 1429.54 -2.11513 -2.64537 0
M  V30 15480 C 1428.59 -3.34214 -2.64959 0
M  V30 15481 S 1429.42 -4.89541 -2.17047 0
M  V30 15482 C 1430.58 -5.15044 -3.55641 0
M  V30 15483 H 1430.81 -2.8005 -0.997971 0
M  V30 15484 H 1428.35 -1.48997 -0.404872 0
M  V30 15485 H 1430.3 -2.25126 -3.43262 0
M  V30 15486 H 1428.96 -1.21295 -2.89735 0
M  V30 15487 H 1428.16 -3.47023 -3.65501 0
M  V30 15488 H 1427.76 -3.1956 -1.94312 0
M  V30 15489 H 1430.05 -5.05161 -4.51463 0
M  V30 15490 H 1430.99 -6.16838 -3.47731 0
M  V30 15491 H 1431.4 -4.42704 -3.50248 0
M  V30 15492 N 1430.8 0.469154 -1.50455 0
M  V30 15493 C 1432.03 1.24899 -1.65575 0
M  V30 15494 C 1432.45 1.85009 -0.339581 0
M  V30 15495 O 1431.81 1.67376 0.696774 0
M  V30 15496 C 1431.86 2.33205 -2.75041 0
M  V30 15497 O 1430.96 3.37898 -2.36429 0
M  V30 15498 H 1430.3 0.367362 -0.553119 0
M  V30 15499 H 1432.83 0.558083 -1.96842 0
M  V30 15500 H 1432.84 2.78487 -2.98176 0
M  V30 15501 H 1431.52 1.88826 -3.70564 0
M  V30 15502 H 1430.09 2.98314 -2.23748 0
M  V30 15503 N 1432.28 1.40065 0.722464 0
M  V30 15504 C 1433.51 1.41271 1.51163 0
M  V30 15505 C 1433.92 0.0105425 1.88797 0
M  V30 15506 O 1433.28 -0.963867 1.5497 0
M  V30 15507 C 1433.33 2.29713 2.79131 0
M  V30 15508 O 1433.05 3.6447 2.43091 0
M  V30 15509 C 1434.55 2.39437 3.73075 0
M  V30 15510 H 1431.77 0.482086 0.466727 0
M  V30 15511 H 1434.32 1.84033 0.891736 0
M  V30 15512 H 1432.47 1.9033 3.37421 0
M  V30 15513 H 1432.88 4.11371 3.25383 0
M  V30 15514 H 1434.36 3.05543 4.59726 0
M  V30 15515 H 1434.84 1.41731 4.15703 0
M  V30 15516 H 1435.44 2.79342 3.20699 0
M  V30 15517 N 1433.76 -0.95397 1.25448 0
M  V30 15518 C 1435.01 -1.69305 1.09631 0
M  V30 15519 C 1435.32 -1.92213 -0.362413 0
M  V30 15520 O 1436.53 -2.63824 -0.641036 0
M  V30 15521 C 1434.98 -3.04805 1.91369 0
M  V30 15522 C 1434.59 -2.8969 3.41737 0
M  V30 15523 C 1436.33 -3.82491 1.84123 0
M  V30 15524 C 1434.24 -4.20584 4.15768 0
M  V30 15525 H 1433.17 -0.63494 0.406654 0
M  V30 15526 H 1435.82 -1.06195 1.49649 0
M  V30 15527 H 1434.2 -3.68822 1.44174 0
M  V30 15528 H 1435.38 -2.346 3.9661 0
M  V30 15529 H 1433.69 -2.25458 3.50082 0
M  V30 15530 H 1436.29 -4.79442 2.36727 0
M  V30 15531 H 1436.63 -4.08358 0.809265 0
M  V30 15532 H 1437.17 -3.25224 2.29072 0
M  V30 15533 H 1433.9 -3.99905 5.19381 0
M  V30 15534 H 1433.42 -4.75436 3.65678 0
M  V30 15535 H 1435.1 -4.89122 4.2352 0
M  V30 15536 N 1435.24 -1.07045 -1.15668 0
M  V30 15537 C 1436.65 -0.795369 -1.38369 0
M  V30 15538 C 1436.85 0.601829 -1.92303 0
M  V30 15539 O 1435.91 1.36109 -2.12675 0
M  V30 15540 C 1437.22 -1.86659 -2.35752 0
M  V30 15541 C 1438.77 -1.89098 -2.49421 0
M  V30 15542 C 1439.24 -2.95296 -3.50092 0
M  V30 15543 N 1440.73 -2.94378 -3.57625 0
M  V30 15544 C 1441.47 -3.73194 -4.35331 0
M  V30 15545 N 1440.97 -4.61851 -5.16397 0
M  V30 15546 N 1442.76 -3.61554 -4.30389 0
M  V30 15547 H 1434.91 -1.97162 -0.790004 0
M  V30 15548 H 1437.17 -0.854816 -0.40987 0
M  V30 15549 H 1436.88 -2.87036 -2.03232 0
M  V30 15550 H 1436.75 -1.72406 -3.35494 0
M  V30 15551 H 1439.14 -0.893752 -2.8124 0
M  V30 15552 H 1439.22 -2.07429 -1.49689 0
M  V30 15553 H 1438.86 -3.95217 -3.19008 0
M  V30 15554 H 1438.79 -2.74212 -4.49572 0
M  V30 15555 H 1441.29 -2.3011 -2.99763 0
M  V30 15556 H 1441.6 -5.18629 -5.72926 0
M  V30 15557 H 1439.94 -4.65902 -5.15714 0
M  V30 15558 H 1443.13 -2.91672 -3.66122 0
M  V30 15559 H 1443.31 -4.23221 -4.90701 0
M  V30 15560 N 1436.71 1.32449 -0.85411 0
M  V30 15561 C 1437.65 2.2777 -0.255605 0
M  V30 15562 C 1438.66 1.52407 0.572355 0
M  V30 15563 O 1439.85 1.74031 0.396935 0
M  V30 15564 C 1436.95 3.32461 0.657496 0
M  V30 15565 C 1436.12 4.37193 -0.134492 0
M  V30 15566 C 1435.18 5.21465 0.704288 0
M  V30 15567 O 1434.21 5.69033 0.138001 0
M  V30 15568 N 1435.41 5.44254 2.01911 0
M  V30 15569 H 1438.17 2.79769 -1.07468 0
M  V30 15570 H 1435.73 1.45304 -0.714038 0
M  V30 15571 H 1437.73 3.85748 1.22396 0
M  V30 15572 H 1436.3 2.80625 1.37726 0
M  V30 15573 H 1435.52 3.84198 -0.882378 0
M  V30 15574 H 1436.8 5.04256 -0.678508 0
M  V30 15575 H 1436.2 5.07336 2.50252 0
M  V30 15576 H 1434.76 6.00538 2.53371 0
M  V30 15577 N 1438.19 0.611994 1.45232 0
M  V30 15578 C 1439.14 -0.116695 2.32307 0
M  V30 15579 C 1440.13 -0.85519 1.46229 0
M  V30 15580 O 1441.34 -0.770257 1.62687 0
M  V30 15581 H 1437.71 -0.0564902 0.749875 0
M  V30 15582 H 1439.69 0.636073 2.91542 0
M  V30 15583 C 1438.43 -1.09768 3.29919 0
M  V30 15584 H 1437.76 -0.538848 3.96152 0
M  V30 15585 H 1439.2 -1.57739 3.93566 0
M  V30 15586 C 1437.66 -2.17344 2.57417 0
M  V30 15587 O 1438.19 -3.2515 2.35882 0
M  V30 15588 N 1436.39 -1.92749 2.17477 0
M  V30 15589 H 1435.94 -1.05084 2.35192 0
M  V30 15590 H 1435.9 -2.6493 1.69291 0
M  V30 15591 N 1439.67 -1.53632 0.351409 0
M  V30 15592 C 1440.6 -2.28217 -0.49391 0
M  V30 15593 C 1441.58 -1.30085 -1.09599 0
M  V30 15594 O 1442.77 -1.58938 -1.1159 0
M  V30 15595 C 1439.9 -3.06085 -1.64102 0
M  V30 15596 C 1438.85 -4.11786 -1.16689 0
M  V30 15597 C 1438.18 -4.77654 -2.40314 0
M  V30 15598 C 1439.48 -5.21644 -0.261742 0
M  V30 15599 H 1441.17 -2.99125 0.1283 0
M  V30 15600 H 1438.72 -1.43861 0.0631462 0
M  V30 15601 H 1440.67 -3.57003 -2.2389 0
M  V30 15602 H 1439.39 -2.32842 -2.29025 0
M  V30 15603 H 1438.05 -3.61792 -0.591784 0
M  V30 15604 H 1437.7 -4.00997 -3.03661 0
M  V30 15605 H 1437.4 -5.49072 -2.09268 0
M  V30 15606 H 1438.92 -5.3136 -3.00813 0
M  V30 15607 H 1440.34 -5.6815 -0.766689 0
M  V30 15608 H 1438.73 -6.00085 -0.0428132 0
M  V30 15609 H 1439.8 -4.79821 0.699999 0
M  V30 15610 N 1441.15 -0.0802183 -1.57396 0
M  V30 15611 C 1442.4 0.585802 -1.93424 0
M  V30 15612 C 1442.72 1.69638 -0.961662 0
M  V30 15613 O 1441.99 1.95897 -0.011202 0
M  V30 15614 H 1440.57 0.219382 -0.714059 0
M  V30 15615 H 1443.23 -0.140055 -1.94396 0
M  V30 15616 H 1442.32 1.00566 -2.95454 0
M  V30 15617 N 1442.63 1.56409 0.193394 0
M  V30 15618 C 1443.87 1.80991 0.914875 0
M  V30 15619 C 1444.2 0.654538 1.82837 0
M  V30 15620 O 1443.48 -0.344816 1.91419 0
M  V30 15621 C 1443.76 3.15841 1.72964 0
M  V30 15622 C 1443.62 4.41873 0.840748 0
M  V30 15623 C 1444.93 3.474 2.70188 0
M  V30 15624 H 1442.05 0.658408 0.331161 0
M  V30 15625 H 1444.7 1.89125 0.182161 0
M  V30 15626 H 1442.85 3.09038 2.35431 0
M  V30 15627 H 1444.52 4.60723 0.230654 0
M  V30 15628 H 1442.76 4.33549 0.147558 0
M  V30 15629 H 1443.43 5.32728 1.44586 0
M  V30 15630 H 1445.91 3.54513 2.17852 0
M  V30 15631 H 1444.78 4.42872 3.24278 0
M  V30 15632 H 1445.04 2.7098 3.49317 0
M  V30 15633 N 1444.1 -0.461169 1.50702 0
M  V30 15634 C 1445.34 -1.22225 1.6383 0
M  V30 15635 C 1445.71 -1.8904 0.335858 0
M  V30 15636 O 1446.91 -2.66607 0.342674 0
M  V30 15637 C 1445.18 -2.2305 2.79256 0
M  V30 15638 S 1446.74 -3.07964 3.12576 0
M  V30 15639 H 1443.56 -0.41483 0.57744 0
M  V30 15640 H 1446.16 -0.517625 1.88523 0
M  V30 15641 H 1444.86 -1.72562 3.72358 0
M  V30 15642 H 1444.39 -2.98126 2.56679 0
M  V30 15643 H 1446.41 -4.24358 2.57167 0
M  V30 15644 N 1445.58 -1.40446 -0.715026 0
M  V30 15645 C 1446.99 -1.34564 -1.29419 0
M  V30 15646 C 1447.34 -0.0193984 -1.9619 0
M  V30 15647 O 1446.47 0.882616 -1.97582 0
M  V30 15648 C 1447.06 -2.43721 -2.35342 0
M  V30 15649 C 1445.62 -2.41297 -2.88881 0
M  V30 15650 C 1444.77 -2.2457 -1.62676 0
M  V30 15651 H 1447.72 -1.50244 -0.511116 0
M  V30 15652 H 1447.74 -2.1166 -3.16197 0
M  V30 15653 H 1447.25 -3.40234 -1.86715 0
M  V30 15654 H 1445.35 -1.48483 -3.41736 0
M  V30 15655 H 1445.47 -3.36903 -3.40637 0
M  V30 15656 H 1443.83 -1.72096 -1.87763 0
M  V30 15657 H 1444.61 -3.23082 -1.16074 0
M  V30 15658 N 1447.06 0.947303 -1.25952 0
M  V30 15659 C 1447.99 2.0487 -1.02767 0
M  V30 15660 C 1449 1.62797 0.00985984 0
M  V30 15661 O 1450.19 1.77018 -0.229527 0
M  V30 15662 C 1447.29 3.34682 -0.533048 0
M  V30 15663 C 1446.47 4.05555 -1.63841 0
M  V30 15664 C 1445.53 5.13638 -1.1429 0
M  V30 15665 O 1444.55 5.38682 -1.83876 0
M  V30 15666 N 1445.75 5.80499 0.0119377 0
M  V30 15667 H 1448.52 2.25327 -1.97605 0
M  V30 15668 H 1446.08 1.11636 -1.17256 0
M  V30 15669 H 1448.07 4.04273 -0.185868 0
M  V30 15670 H 1446.64 3.10941 0.321585 0
M  V30 15671 H 1445.86 3.29962 -2.15683 0
M  V30 15672 H 1447.15 4.49661 -2.38081 0
M  V30 15673 H 1446.55 5.62581 0.593212 0
M  V30 15674 H 1445.1 6.51109 0.30009 0
M  V30 15675 N 1448.54 1.07657 1.15099 0
M  V30 15676 C 1449.49 0.669428 2.17951 0
M  V30 15677 C 1450.47 -0.307034 1.57943 0
M  V30 15678 O 1451.66 -0.120267 1.76591 0
M  V30 15679 C 1448.79 0.0720873 3.43224 0
M  V30 15680 C 1447.88 1.07388 4.10279 0
M  V30 15681 N 1448.27 2.25455 4.52773 0
M  V30 15682 C 1446.57 0.907909 4.36661 0
M  V30 15683 C 1447.27 2.89035 5.0481 0
M  V30 15684 N 1446.25 2.16684 4.98547 0
M  V30 15685 H 1450.05 1.56862 2.48539 0
M  V30 15686 H 1447.56 0.950198 1.317 0
M  V30 15687 H 1449.56 -0.237505 4.16223 0
M  V30 15688 H 1448.22 -0.822183 3.14118 0
M  V30 15689 H 1449.23 2.63155 4.4606 0
M  V30 15690 H 1445.91 0.0667966 4.17447 0
M  V30 15691 H 1447.3 3.89303 5.47625 0
M  V30 15692 N 1450.02 -1.31994 0.861122 0
M  V30 15693 C 1450.96 -2.30666 0.299352 0
M  V30 15694 C 1451.96 -1.59133 -0.580779 0
M  V30 15695 O 1453.16 -1.73813 -0.467864 0
M  V30 15696 H 1449.54 -0.747932 0.0781091 0
M  V30 15697 H 1451.51 -2.7553 1.14567 0
M  V30 15698 C 1450.26 -3.44203 -0.491883 0
M  V30 15699 H 1449.58 -3.99412 0.17608 0
M  V30 15700 H 1451.02 -4.15384 -0.850434 0
M  V30 15701 C 1449.48 -2.92042 -1.67967 0
M  V30 15702 O 1450.01 -2.90073 -2.77886 0
M  V30 15703 N 1448.22 -2.48358 -1.50887 0
M  V30 15704 H 1447.76 -2.50159 -0.614683 0
M  V30 15705 H 1447.72 -2.13813 -2.30503 0
M  V30 15706 N 1451.49 -0.619688 -1.44906 0
M  V30 15707 C 1452.74 -0.11981 -2.02446 0
M  V30 15708 C 1453.07 1.2509 -1.48546 0
M  V30 15709 O 1452.35 1.82781 -0.664942 0
M  V30 15710 C 1452.63 -0.0940205 -3.59977 0
M  V30 15711 C 1452.48 -1.49626 -4.24184 0
M  V30 15712 C 1453.8 0.58748 -4.36161 0
M  V30 15713 H 1450.92 -0.0450119 -0.735624 0
M  V30 15714 H 1453.56 -0.793975 -1.72615 0
M  V30 15715 H 1451.71 0.480073 -3.85522 0
M  V30 15716 H 1453.39 -2.11836 -4.09784 0
M  V30 15717 H 1451.63 -2.05348 -3.82119 0
M  V30 15718 H 1452.3 -1.43035 -5.33146 0
M  V30 15719 H 1454.78 0.0993863 -4.15981 0
M  V30 15720 H 1453.65 0.574672 -5.45883 0
M  V30 15721 H 1453.91 1.65579 -4.09922 0
M  V30 15722 N 1452.97 1.53444 -0.359552 0
M  V30 15723 C 1453.9 2.28475 0.4818 0
M  V30 15724 C 1454.88 1.30664 1.08908 0
M  V30 15725 O 1456.07 1.59527 1.10746 0
M  V30 15726 C 1453.2 3.06951 1.62477 0
M  V30 15727 C 1452.15 4.12399 1.14504 0
M  V30 15728 C 1451.48 4.78922 2.37777 0
M  V30 15729 C 1452.78 5.21775 0.234075 0
M  V30 15730 H 1454.47 2.99053 -0.144162 0
M  V30 15731 H 1452.02 1.43826 -0.0707746 0
M  V30 15732 H 1453.97 3.58186 2.21993 0
M  V30 15733 H 1452.7 2.34053 2.27787 0
M  V30 15734 H 1451.35 3.62101 0.572589 0
M  V30 15735 H 1451 4.02602 3.0153 0
M  V30 15736 H 1450.7 5.50175 2.06353 0
M  V30 15737 H 1452.23 5.32948 2.97991 0
M  V30 15738 H 1453.64 5.68549 0.736548 0
M  V30 15739 H 1452.04 6.00099 0.0109887 0
M  V30 15740 H 1453.11 4.79443 -0.725435 0
M  V30 15741 N 1454.45 0.0885642 1.57351 0
M  V30 15742 C 1455.7 -0.576675 1.94115 0
M  V30 15743 C 1456.03 -1.68595 0.969842 0
M  V30 15744 O 1455.28 -1.95697 -0.0116998 0
M  V30 15745 C 1455.58 -1.17764 3.37441 0
M  V30 15746 C 1455.25 -0.192813 4.50488 0
M  V30 15747 C 1453.91 0.0780722 4.81137 0
M  V30 15748 C 1456.26 0.479997 5.18985 0
M  V30 15749 C 1453.59 1.02857 5.77613 0
M  V30 15750 C 1455.94 1.41892 6.16481 0
M  V30 15751 C 1454.6 1.69811 6.45539 0
M  V30 15752 H 1453.87 -0.21102 0.710318 0
M  V30 15753 H 1456.52 0.163009 1.90805 0
M  V30 15754 H 1454.83 -1.99343 3.37298 0
M  V30 15755 H 1456.52 -1.69994 3.63185 0
M  V30 15756 H 1453.11 -0.41413 4.26595 0
M  V30 15757 H 1457.3 0.283854 4.95488 0
M  V30 15758 H 1452.55 1.25194 5.98445 0
M  V30 15759 H 1456.73 1.94612 6.68655 0
M  V30 15760 H 1454.35 2.43621 7.20106 0
M  V30 15761 N 1455.93 -1.56509 -0.185096 0
M  V30 15762 C 1457.21 -1.72055 -0.930398 0
M  V30 15763 C 1457.59 -0.646145 -2.00968 0
M  V30 15764 O 1456.93 0.34129 -2.25937 0
M  V30 15765 C 1457.14 -3.14752 -1.50771 0
M  V30 15766 C 1458.49 -3.75292 -1.98597 0
M  V30 15767 O 1459.52 -3.17944 -1.60593 0
M  V30 15768 O 1458.37 -4.7596 -2.68561 0
M  V30 15769 H 1455.47 -0.702118 -0.436989 0
M  V30 15770 H 1458.01 -1.68806 -0.174007 0
M  V30 15771 H 1456.79 -3.84426 -0.730236 0
M  V30 15772 H 1456.41 -3.22272 -2.32866 0
M  V30 15773 N 1457.41 0.45317 -1.50944 0
M  V30 15774 C 1458.34 1.56825 -1.65775 0
M  V30 15775 C 1459.32 1.54542 -0.505515 0
M  V30 15776 O 1460.5 1.73902 -0.727336 0
M  V30 15777 C 1457.63 2.95411 -1.65681 0
M  V30 15778 C 1456.67 3.1578 -2.8668 0
M  V30 15779 S 1457.51 2.93763 -4.47731 0
M  V30 15780 C 1458.66 4.34659 -4.50358 0
M  V30 15781 H 1458.9 1.44008 -2.60094 0
M  V30 15782 H 1456.43 0.64177 -1.4043 0
M  V30 15783 H 1458.39 3.75301 -1.66311 0
M  V30 15784 H 1457.05 3.05603 -0.725659 0
M  V30 15785 H 1456.24 4.17066 -2.8297 0
M  V30 15786 H 1455.84 2.4369 -2.8371 0
M  V30 15787 H 1458.14 5.27599 -4.25024 0
M  V30 15788 H 1459.08 4.43408 -5.52082 0
M  V30 15789 H 1459.49 4.17575 -3.79857 0
M  V30 15790 N 1458.88 1.40823 0.707568 0
M  V30 15791 C 1459.81 1.44485 1.83429 0
M  V30 15792 C 1460.8 0.304848 1.67346 0
M  V30 15793 O 1461.98 0.514605 1.87258 0
M  V30 15794 C 1459.11 1.31458 3.21459 0
M  V30 15795 C 1458.06 2.43145 3.52228 0
M  V30 15796 C 1457.39 2.15189 4.89487 0
M  V30 15797 C 1458.69 3.85489 3.52414 0
M  V30 15798 H 1460.38 2.38781 1.80622 0
M  V30 15799 H 1457.93 1.14931 0.867572 0
M  V30 15800 H 1459.88 1.32635 3.99983 0
M  V30 15801 H 1458.61 0.336422 3.24863 0
M  V30 15802 H 1457.27 2.41231 2.76049 0
M  V30 15803 H 1456.91 1.15745 4.89502 0
M  V30 15804 H 1456.61 2.90022 5.11039 0
M  V30 15805 H 1458.14 2.18062 5.70334 0
M  V30 15806 H 1459.55 3.89183 4.20963 0
M  V30 15807 H 1457.95 4.59906 3.85495 0
M  V30 15808 H 1459.02 4.14499 2.51632 0
M  V30 15809 N 1460.36 -0.94061 1.26453 0
M  V30 15810 C 1461.59 -1.72123 1.1481 0
M  V30 15811 C 1462.01 -1.86456 -0.296604 0
M  V30 15812 O 1461.36 -1.37234 -1.20304 0
M  V30 15813 C 1461.41 -3.1277 1.81266 0
M  V30 15814 O 1461.13 -2.99122 3.2009 0
M  V30 15815 C 1462.64 -4.07045 1.75584 0
M  V30 15816 H 1459.86 -0.538908 0.399774 0
M  V30 15817 H 1462.4 -1.17913 1.67083 0
M  V30 15818 H 1460.55 -3.6388 1.32928 0
M  V30 15819 H 1460.97 -3.87946 3.52984 0
M  V30 15820 H 1462.44 -5.03292 2.26719 0
M  V30 15821 H 1462.92 -4.33217 0.722466 0
M  V30 15822 H 1463.53 -3.61855 2.23475 0
M  V30 15823 N 1461.84 -1.08266 -1.14527 0
M  V30 15824 C 1463.09 -0.812661 -1.85805 0
M  V30 15825 C 1463.42 0.659878 -1.82645 0
M  V30 15826 O 1462.69 1.48498 -1.25612 0
M  V30 15827 C 1462.98 -1.33335 -3.34505 0
M  V30 15828 C 1462.83 -2.87113 -3.46246 0
M  V30 15829 C 1464.15 -0.957435 -4.29559 0
M  V30 15830 H 1461.27 -0.296681 -0.674648 0
M  V30 15831 H 1463.91 -1.34203 -1.34497 0
M  V30 15832 H 1462.06 -0.883056 -3.78331 0
M  V30 15833 H 1463.73 -3.40502 -3.11217 0
M  V30 15834 H 1461.98 -3.24845 -2.87504 0
M  V30 15835 H 1462.65 -3.18618 -4.50762 0
M  V30 15836 H 1465.12 -1.3456 -3.93742 0
M  V30 15837 H 1464 -1.34897 -5.32066 0
M  V30 15838 H 1464.26 0.135689 -4.41892 0
M  V30 15839 N 1463.32 1.31536 -0.86811 0
M  V30 15840 C 1464.23 2.32326 -0.32588 0
M  V30 15841 C 1465.25 1.64632 0.563243 0
M  V30 15842 O 1466.42 1.96067 0.460403 0
M  V30 15843 C 1463.49 3.43562 0.46539 0
M  V30 15844 C 1462.55 4.26919 -0.451472 0
M  V30 15845 C 1461.78 5.32844 0.302129 0
M  V30 15846 O 1462 5.49485 1.53045 0
M  V30 15847 O 1460.94 6.00944 -0.339048 0
M  V30 15848 H 1464.76 2.80622 -1.16126 0
M  V30 15849 H 1462.35 1.35401 -0.631428 0
M  V30 15850 H 1464.23 4.11368 0.914028 0
M  V30 15851 H 1462.91 2.97432 1.27734 0
M  V30 15852 H 1461.81 3.61874 -0.948571 0
M  V30 15853 H 1463.15 4.7661 -1.22897 0
M  V30 15854 N 1464.8 0.627364 1.44575 0
M  V30 15855 C 1465.71 -0.0811184 2.3446 0
M  V30 15856 C 1466.72 -0.839668 1.52399 0
M  V30 15857 O 1467.9 -0.792784 1.8514 0
M  V30 15858 C 1464.96 -1.05296 3.30323 0
M  V30 15859 C 1464.03 -0.294201 4.28291 0
M  V30 15860 C 1463.26 -1.21975 5.19575 0
M  V30 15861 O 1463.48 -2.45834 5.14706 0
M  V30 15862 O 1462.42 -0.70611 5.97744 0
M  V30 15863 H 1466.24 0.658067 2.96485 0
M  V30 15864 H 1463.83 0.387565 1.44285 0
M  V30 15865 H 1465.71 -1.61218 3.89341 0
M  V30 15866 H 1464.38 -1.77283 2.70837 0
M  V30 15867 H 1463.29 0.307969 3.7283 0
M  V30 15868 H 1464.62 0.385567 4.90687 0
M  V30 15869 N 1466.28 -1.53251 0.367684 0
M  V30 15870 C 1467.23 -2.22578 -0.494287 0
M  V30 15871 C 1468.21 -1.22175 -1.047 0
M  V30 15872 O 1469.4 -1.47613 -0.976696 0
M  V30 15873 C 1466.53 -3.02007 -1.63238 0
M  V30 15874 C 1465.62 -4.09788 -1.09244 0
M  V30 15875 N 1466.01 -5.05048 -0.275665 0
M  V30 15876 C 1464.31 -4.24532 -1.36705 0
M  V30 15877 C 1465.01 -5.81696 0.0201973 0
M  V30 15878 N 1463.98 -5.40518 -0.577991 0
M  V30 15879 H 1467.78 -2.93583 0.136532 0
M  V30 15880 H 1465.3 -1.61446 0.175813 0
M  V30 15881 H 1467.3 -3.50193 -2.26209 0
M  V30 15882 H 1465.96 -2.32533 -2.26624 0
M  V30 15883 H 1466.97 -5.1783 0.0853053 0
M  V30 15884 H 1463.64 -3.66285 -2.00354 0
M  V30 15885 H 1465.03 -6.68444 0.680622 0
M  V30 15886 N 1467.75 -0.0969077 -1.57302 0
M  V30 15887 C 1469 0.566072 -1.93594 0
M  V30 15888 C 1469.32 1.69226 -0.980922 0
M  V30 15889 O 1470.52 2.41651 -1.23763 0
M  V30 15890 C 1468.98 1.05832 -3.43988 0
M  V30 15891 C 1468.59 -0.038207 -4.47984 0
M  V30 15892 C 1470.33 1.69393 -3.89238 0
M  V30 15893 C 1468.24 0.4695 -5.89533 0
M  V30 15894 H 1467.17 0.215226 -0.72263 0
M  V30 15895 H 1469.82 -0.173202 -1.82681 0
M  V30 15896 H 1468.2 1.85134 -3.50059 0
M  V30 15897 H 1469.37 -0.813761 -4.53558 0
M  V30 15898 H 1467.69 -0.579113 -4.12353 0
M  V30 15899 H 1470.29 2.08454 -4.92393 0
M  V30 15900 H 1470.63 2.56381 -3.27986 0
M  V30 15901 H 1471.16 0.966709 -3.85875 0
M  V30 15902 H 1467.9 -0.363802 -6.5449 0
M  V30 15903 H 1467.42 1.21202 -5.87427 0
M  V30 15904 H 1469.1 0.937885 -6.40166 0
M  V30 15905 N 1469.23 1.56605 0.176793 0
M  V30 15906 C 1470.48 1.82848 0.89097 0
M  V30 15907 C 1470.83 0.676661 1.80108 0
M  V30 15908 O 1470.13 -0.32721 1.88785 0
M  V30 15909 C 1470.32 3.12888 1.7273 0
M  V30 15910 C 1470.15 4.40609 0.899652 0
M  V30 15911 C 1468.92 5.01996 0.57688 0
M  V30 15912 C 1471.12 5.13722 0.243765 0
M  V30 15913 N 1469.1 6.13317 -0.267482 0
M  V30 15914 C 1470.47 6.18276 -0.461997 0
M  V30 15915 C 1472.52 4.97638 0.161367 0
M  V30 15916 C 1471.23 7.0849 -1.24233 0
M  V30 15917 C 1473.25 5.88291 -0.605623 0
M  V30 15918 C 1472.62 6.92304 -1.29977 0
M  V30 15919 H 1468.71 0.720143 0.304824 0
M  V30 15920 H 1471.3 1.94055 0.15834 0
M  V30 15921 H 1469.47 3.02883 2.43139 0
M  V30 15922 H 1471.2 3.27148 2.38236 0
M  V30 15923 H 1467.96 4.6486 0.905666 0
M  V30 15924 H 1468.38 6.73578 -0.679811 0
M  V30 15925 H 1473.02 4.17236 0.683677 0
M  V30 15926 H 1470.74 7.88342 -1.77601 0
M  V30 15927 H 1474.33 5.77918 -0.670976 0
M  V30 15928 H 1473.21 7.61239 -1.88375 0
M  V30 15929 N 1470.71 -0.445159 1.51182 0
M  V30 15930 C 1471.96 -1.19524 1.63463 0
M  V30 15931 C 1472.28 -1.91377 0.347136 0
M  V30 15932 O 1471.54 -1.83932 -0.668408 0
M  V30 15933 C 1471.84 -2.24274 2.78273 0
M  V30 15934 C 1471.5 -1.6949 4.17833 0
M  V30 15935 C 1470.17 -1.54271 4.558 0
M  V30 15936 C 1472.52 -1.29128 5.04951 0
M  V30 15937 C 1469.85 -0.971532 5.786 0
M  V30 15938 C 1472.2 -0.734426 6.28322 0
M  V30 15939 C 1470.86 -0.569079 6.6507 0
M  V30 15940 H 1470.13 -0.437369 0.598155 0
M  V30 15941 H 1472.78 -0.48742 1.85193 0
M  V30 15942 H 1471.08 -3.01065 2.50734 0
M  V30 15943 H 1472.78 -2.82117 2.84975 0
M  V30 15944 H 1469.37 -1.82309 3.87894 0
M  V30 15945 H 1473.56 -1.39709 4.7623 0
M  V30 15946 H 1468.81 -0.831117 6.05725 0
M  V30 15947 H 1472.99 -0.413133 6.95173 0
M  V30 15948 H 1470.61 -0.124355 7.60098 0
M  V30 15949 N 1472.19 -1.41197 -0.700089 0
M  V30 15950 C 1473.42 -1.43449 -1.4868 0
M  V30 15951 C 1473.83 -0.0368799 -1.89164 0
M  V30 15952 O 1473.17 0.953129 -1.57039 0
M  V30 15953 C 1473.23 -2.27583 -2.78291 0
M  V30 15954 C 1472.89 -3.75805 -2.60038 0
M  V30 15955 C 1473.89 -4.68074 -2.2628 0
M  V30 15956 C 1471.58 -4.19796 -2.75819 0
M  V30 15957 C 1473.57 -6.02322 -2.08535 0
M  V30 15958 C 1471.26 -5.5411 -2.57692 0
M  V30 15959 C 1472.26 -6.45189 -2.24099 0
M  V30 15960 O 1471.94 -7.77025 -2.06125 0
M  V30 15961 H 1471.68 -0.490779 -0.464879 0
M  V30 15962 H 1474.23 -1.86071 -0.869864 0
M  V30 15963 H 1472.46 -1.79767 -3.42375 0
M  V30 15964 H 1474.15 -2.21591 -3.40077 0
M  V30 15965 H 1474.91 -4.35379 -2.13707 0
M  V30 15966 H 1470.79 -3.49213 -3.0095 0
M  V30 15967 H 1474.34 -6.73376 -1.82238 0
M  V30 15968 H 1470.23 -5.86386 -2.69854 0
M  V30 15969 H 1471 -7.88121 -2.20924 0
M  V30 15970 N 1473.67 0.933891 -1.2695 0
M  V30 15971 C 1474.63 2.0152 -1.0919 0
M  V30 15972 C 1475.63 1.60755 -0.037865 0
M  V30 15973 O 1476.82 1.71904 -0.281917 0
M  V30 15974 C 1473.95 3.34403 -0.66239 0
M  V30 15975 H 1475.14 2.18706 -2.05201 0
M  V30 15976 H 1472.7 1.11385 -1.0965 0
M  V30 15977 H 1473.43 3.22915 0.299388 0
M  V30 15978 H 1473.22 3.65345 -1.42356 0
M  V30 15979 H 1474.71 4.13826 -0.560187 0
M  V30 15980 N 1475.14 1.08871 1.13951 0
M  V30 15981 C 1476.56 0.817282 1.37086 0
M  V30 15982 C 1476.76 -0.571159 1.93236 0
M  V30 15983 O 1475.82 -1.32708 2.14813 0
M  V30 15984 C 1477.13 1.90386 2.32752 0
M  V30 15985 C 1478.68 1.93043 2.46381 0
M  V30 15986 C 1479.15 3.00828 3.4535 0
M  V30 15987 N 1480.64 3.0003 3.52897 0
M  V30 15988 C 1481.38 3.80073 4.29339 0
M  V30 15989 N 1480.87 4.70008 5.08984 0
M  V30 15990 N 1482.67 3.68355 4.24583 0
M  V30 15991 H 1474.82 1.98393 0.758537 0
M  V30 15992 H 1477.08 0.861229 0.396219 0
M  V30 15993 H 1476.79 2.90233 1.9864 0
M  V30 15994 H 1476.66 1.77722 3.32708 0
M  V30 15995 H 1479.05 0.938382 2.79783 0
M  V30 15996 H 1479.13 2.09785 1.4637 0
M  V30 15997 H 1478.77 4.00242 3.1268 0
M  V30 15998 H 1478.7 2.8133 4.45153 0
M  V30 15999 H 1481.19 2.3485 2.96064 0
M  V30 16000 H 1481.51 5.27678 5.64602 0
M  V30 16001 H 1479.85 4.74047 5.08236 0
M  V30 16002 H 1483.04 2.9746 3.61435 0
M  V30 16003 H 1483.22 4.30974 4.83906 0
M  V30 16004 N 1476.62 -1.31073 0.875073 0
M  V30 16005 C 1477.55 -2.30855 0.350468 0
M  V30 16006 C 1478.53 -1.60569 -0.561384 0
M  V30 16007 O 1479.72 -1.88242 -0.477329 0
M  V30 16008 C 1476.85 -3.44444 -0.444493 0
M  V30 16009 C 1475.8 -4.26357 0.374716 0
M  V30 16010 C 1475.13 -5.31903 -0.546243 0
M  V30 16011 C 1476.43 -4.96817 1.61153 0
M  V30 16012 H 1478.12 -2.74983 1.18427 0
M  V30 16013 H 1475.67 -1.32199 0.570909 0
M  V30 16014 H 1477.62 -4.13304 -0.82206 0
M  V30 16015 H 1476.34 -2.99096 -1.31185 0
M  V30 16016 H 1475 -3.59171 0.734295 0
M  V30 16017 H 1474.65 -4.82803 -1.41102 0
M  V30 16018 H 1474.35 -5.876 -0.00198173 0
M  V30 16019 H 1475.88 -6.03621 -0.920542 0
M  V30 16020 H 1477.29 -5.58247 1.30511 0
M  V30 16021 H 1475.69 -5.62334 2.09524 0
M  V30 16022 H 1476.76 -4.2351 2.36151 0
M  V30 16023 N 1478.1 -0.635022 -1.4424 0
M  V30 16024 C 1479.05 0.0675707 -2.30701 0
M  V30 16025 C 1480.02 0.832919 -1.43707 0
M  V30 16026 O 1481.2 0.813177 -1.72604 0
M  V30 16027 C 1478.34 1.04053 -3.2904 0
M  V30 16028 C 1477.46 0.273191 -4.31135 0
M  V30 16029 C 1476.59 1.23831 -5.16565 0
M  V30 16030 C 1475.63 0.460359 -6.10366 0
M  V30 16031 N 1474.77 1.37614 -6.88481 0
M  V30 16032 H 1479.61 -0.675656 -2.90239 0
M  V30 16033 H 1477.14 -0.344971 -1.42998 0
M  V30 16034 H 1479.1 1.61805 -3.84545 0
M  V30 16035 H 1477.73 1.75084 -2.71193 0
M  V30 16036 H 1476.78 -0.420315 -3.78071 0
M  V30 16037 H 1478.1 -0.332548 -4.9769 0
M  V30 16038 H 1477.25 1.88704 -5.76607 0
M  V30 16039 H 1475.99 1.87797 -4.50093 0
M  V30 16040 H 1474.99 -0.201836 -5.49429 0
M  V30 16041 H 1476.22 -0.174639 -6.78875 0
M  V30 16042 H 1474.16 2.00294 -6.24675 0
M  V30 16043 H 1474.08 0.82452 -7.5149 0
M  V30 16044 H 1475.35 2.01359 -7.53044 0
M  V30 16045 N 1479.58 1.53054 -0.375806 0
M  V30 16046 C 1480.83 2.01003 0.210257 0
M  V30 16047 C 1481.15 1.26451 1.48442 0
M  V30 16048 O 1480.42 0.380687 1.92166 0
M  V30 16049 H 1479 0.74263 0.0806861 0
M  V30 16050 H 1481.66 1.8826 -0.504393 0
M  V30 16051 H 1480.76 3.09123 0.430027 0
M  V30 16052 N 1481.06 0.105248 1.57248 0
M  V30 16053 C 1481.99 -0.846915 2.176 0
M  V30 16054 C 1482.97 -1.28706 1.11216 0
M  V30 16055 O 1484.15 -1.35213 1.39396 0
M  V30 16056 C 1481.28 -2.10228 2.76445 0
M  V30 16057 C 1480.24 -1.80041 3.8829 0
M  V30 16058 C 1479.56 -3.12491 4.33882 0
M  V30 16059 C 1480.86 -1.07943 5.11024 0
M  V30 16060 H 1482.56 -0.344052 2.97417 0
M  V30 16061 H 1480.1 -0.164045 1.43063 0
M  V30 16062 H 1482.06 -2.77284 3.17319 0
M  V30 16063 H 1480.78 -2.62815 1.93897 0
M  V30 16064 H 1479.44 -1.15379 3.4797 0
M  V30 16065 H 1479.09 -3.62985 3.48211 0
M  V30 16066 H 1478.79 -2.93072 5.09296 0
M  V30 16067 H 1480.31 -3.80688 4.77398 0
M  V30 16068 H 1481.72 -1.65127 5.49004 0
M  V30 16069 H 1480.12 -0.986674 5.91933 0
M  V30 16070 H 1481.19 -0.0638511 4.84858 0
M  V30 16071 N 1482.53 -1.56697 -0.168486 0
M  V30 16072 C 1483.76 -1.86652 -0.904195 0
M  V30 16073 C 1484.18 -0.691906 -1.74912 0
M  V30 16074 O 1483.54 0.358971 -1.77711 0
M  V30 16075 C 1483.59 -3.15043 -1.75442 0
M  V30 16076 O 1482.69 -2.97466 -2.85636 0
M  V30 16077 H 1482.04 -0.613859 -0.253128 0
M  V30 16078 H 1484.57 -2.03927 -0.165773 0
M  V30 16079 H 1484.58 -3.4652 -2.15378 0
M  V30 16080 H 1483.25 -4.00147 -1.13381 0
M  V30 16081 H 1481.83 -2.7735 -2.49262 0
M  V30 16082 N 1484.01 0.437135 -1.51416 0
M  V30 16083 C 1484.92 1.55581 -1.75589 0
M  V30 16084 C 1485.94 1.61797 -0.640132 0
M  V30 16085 O 1487.11 1.79035 -0.922406 0
M  V30 16086 C 1484.18 2.91561 -1.87598 0
M  V30 16087 C 1483.24 2.9546 -3.11451 0
M  V30 16088 C 1482.47 4.24954 -3.22878 0
M  V30 16089 O 1482.7 5.17341 -2.40238 0
M  V30 16090 O 1481.63 4.35141 -4.15856 0
M  V30 16091 H 1485.46 1.38098 -2.70486 0
M  V30 16092 H 1483.04 0.620163 -1.3592 0
M  V30 16093 H 1484.92 3.72262 -1.97481 0
M  V30 16094 H 1483.6 3.09171 -0.958889 0
M  V30 16095 H 1482.51 2.13713 -3.07046 0
M  V30 16096 H 1483.84 2.82794 -4.0285 0
M  V30 16097 N 1485.49 1.41566 0.692592 0
M  V30 16098 C 1486.44 1.43648 1.80648 0
M  V30 16099 C 1487.41 0.290497 1.6354 0
M  V30 16100 O 1488.59 0.491979 1.84348 0
M  V30 16101 C 1485.73 1.32733 3.18553 0
M  V30 16102 C 1484.85 2.57224 3.47073 0
M  V30 16103 C 1483.98 2.38581 4.74608 0
M  V30 16104 C 1483.02 3.58534 4.96105 0
M  V30 16105 N 1482.16 3.38942 6.14868 0
M  V30 16106 H 1487 2.38847 1.78203 0
M  V30 16107 H 1484.53 1.186 0.870193 0
M  V30 16108 H 1486.49 1.24405 3.9822 0
M  V30 16109 H 1485.12 0.411407 3.20168 0
M  V30 16110 H 1484.17 2.7599 2.6179 0
M  V30 16111 H 1485.49 3.46443 3.58858 0
M  V30 16112 H 1484.64 2.27738 5.62335 0
M  V30 16113 H 1483.38 1.46824 4.65074 0
M  V30 16114 H 1482.38 3.69828 4.06826 0
M  V30 16115 H 1483.61 4.51248 5.07496 0
M  V30 16116 H 1481.55 2.49887 6.06541 0
M  V30 16117 H 1481.47 4.21737 6.27434 0
M  V30 16118 H 1482.74 3.31877 7.05321 0
M  V30 16119 N 1486.97 -0.927146 1.27443 0
M  V30 16120 C 1487.92 -2.01402 1.06871 0
M  V30 16121 C 1488.9 -1.609 -0.00345395 0
M  V30 16122 O 1490.09 -1.75688 0.215147 0
M  V30 16123 C 1487.22 -3.35697 0.718508 0
M  V30 16124 C 1486.31 -3.82641 1.82884 0
M  V30 16125 N 1486.7 -4.02091 3.06849 0
M  V30 16126 C 1485 -4.11682 1.71564 0
M  V30 16127 C 1485.7 -4.41195 3.79107 0
M  V30 16128 N 1484.68 -4.48697 3.06874 0
M  V30 16129 H 1488.48 -2.14471 2.00946 0
M  V30 16130 H 1485.99 -1.11402 1.18166 0
M  V30 16131 H 1487.99 -4.13226 0.552238 0
M  V30 16132 H 1486.65 -3.2399 -0.214622 0
M  V30 16133 H 1487.66 -3.88384 3.42605 0
M  V30 16134 H 1484.34 -4.08685 0.853381 0
M  V30 16135 H 1485.73 -4.64318 4.85653 0
M  V30 16136 N 1488.45 -1.09474 -1.13372 0
M  V30 16137 C 1489.69 -0.832323 -1.84933 0
M  V30 16138 C 1490.03 0.640469 -1.83335 0
M  V30 16139 O 1489.3 1.47158 -1.2718 0
M  V30 16140 C 1489.58 -1.36876 -3.33072 0
M  V30 16141 C 1489.44 -2.90769 -3.43181 0
M  V30 16142 C 1490.76 -1.00294 -4.2852 0
M  V30 16143 H 1487.87 -0.30382 -0.671463 0
M  V30 16144 H 1490.52 -1.35622 -1.33066 0
M  V30 16145 H 1488.67 -0.923134 -3.77373 0
M  V30 16146 H 1490.34 -3.43784 -3.07588 0
M  V30 16147 H 1488.58 -3.27876 -2.84042 0
M  V30 16148 H 1489.25 -3.23381 -4.47358 0
M  V30 16149 H 1491.73 -1.38729 -3.92293 0
M  V30 16150 H 1490.6 -1.40533 -5.30605 0
M  V30 16151 H 1490.87 0.0888133 -4.42011 0
M  V30 16152 N 1489.92 1.30607 -0.882012 0
M  V30 16153 C 1490.87 2.2821 -0.344826 0
M  V30 16154 C 1491.84 1.56254 0.563361 0
M  V30 16155 O 1493.03 1.84336 0.492416 0
M  V30 16156 C 1490.17 3.42319 0.437216 0
M  V30 16157 C 1489.28 4.29098 -0.499851 0
M  V30 16158 C 1488.41 5.30366 0.297497 0
M  V30 16159 C 1487.45 6.08795 -0.63523 0
M  V30 16160 N 1486.59 7.01986 0.12661 0
M  V30 16161 H 1491.43 2.73543 -1.18229 0
M  V30 16162 H 1488.97 1.34556 -0.594392 0
M  V30 16163 H 1490.93 4.07232 0.906521 0
M  V30 16164 H 1489.56 2.98063 1.23928 0
M  V30 16165 H 1488.61 3.6452 -1.08764 0
M  V30 16166 H 1489.92 4.83787 -1.21454 0
M  V30 16167 H 1489.07 6.01013 0.828786 0
M  V30 16168 H 1487.81 4.76364 1.04542 0
M  V30 16169 H 1486.82 5.37028 -1.17817 0
M  V30 16170 H 1488.04 6.64885 -1.3822 0
M  V30 16171 H 1485.99 6.50376 0.857125 0
M  V30 16172 H 1485.91 7.5415 -0.528512 0
M  V30 16173 H 1487.17 7.76879 0.638738 0
M  V30 16174 N 1491.4 0.642663 1.43901 0
M  V30 16175 C 1492.37 -0.0457858 2.29154 0
M  V30 16176 C 1493.37 -0.760988 1.41653 0
M  V30 16177 O 1494.56 -0.603832 1.634 0
M  V30 16178 C 1491.69 -1.07552 3.23489 0
M  V30 16179 H 1492.88 0.704193 2.91515 0
M  V30 16180 H 1490.43 0.403361 1.51006 0
M  V30 16181 H 1491.17 -1.85509 2.66002 0
M  V30 16182 H 1490.95 -0.566468 3.87987 0
M  V30 16183 H 1492.44 -1.55663 3.87503 0
M  V30 16184 N 1492.88 -1.52852 0.383918 0
M  V30 16185 C 1493.79 -2.3002 -0.461298 0
M  V30 16186 C 1494.81 -1.36717 -1.07631 0
M  V30 16187 O 1495.98 -1.69784 -1.08329 0
M  V30 16188 C 1493.05 -3.08804 -1.57609 0
M  V30 16189 C 1492.11 -4.17806 -0.986737 0
M  V30 16190 C 1491.34 -4.92825 -2.04841 0
M  V30 16191 O 1491.57 -4.67879 -3.26259 0
M  V30 16192 O 1490.5 -5.78306 -1.66871 0
M  V30 16193 H 1494.33 -3.03239 0.167189 0
M  V30 16194 H 1491.91 -1.48667 0.147781 0
M  V30 16195 H 1493.79 -3.57943 -2.22384 0
M  V30 16196 H 1492.47 -2.38404 -2.18964 0
M  V30 16197 H 1491.37 -3.72876 -0.302396 0
M  V30 16198 H 1492.71 -4.90426 -0.417481 0
M  V30 16199 N 1494.36 -0.113586 -1.5719 0
M  V30 16200 C 1495.29 0.875741 -2.10727 0
M  V30 16201 C 1496.27 1.2644 -1.02233 0
M  V30 16202 O 1497.45 1.36641 -1.29852 0
M  V30 16203 C 1494.58 2.17123 -2.59952 0
M  V30 16204 C 1493.63 1.93105 -3.8028 0
M  V30 16205 S 1494.46 1.15223 -5.22957 0
M  V30 16206 C 1495.62 2.45963 -5.75546 0
M  V30 16207 H 1495.85 0.420351 -2.94313 0
M  V30 16208 H 1493.38 0.100081 -1.54075 0
M  V30 16209 H 1495.34 2.91561 -2.88968 0
M  V30 16210 H 1494 2.59781 -1.76558 0
M  V30 16211 H 1493.19 2.89082 -4.12853 0
M  V30 16212 H 1492.8 1.2679 -3.51853 0
M  V30 16213 H 1495.09 3.41835 -5.8494 0
M  V30 16214 H 1496.03 2.17943 -6.73726 0
M  V30 16215 H 1496.44 2.55083 -5.0358 0
M  V30 16216 N 1495.84 1.56784 0.160173 0
M  V30 16217 C 1496.75 2.00514 1.21783 0
M  V30 16218 C 1497.76 0.918341 1.47792 0
M  V30 16219 O 1498.94 1.22683 1.59721 0
M  V30 16220 C 1496 2.36575 2.53443 0
M  V30 16221 C 1495.07 3.59138 2.35198 0
M  V30 16222 C 1494.3 3.93469 3.6058 0
M  V30 16223 O 1494.52 3.28625 4.6622 0
M  V30 16224 O 1493.46 4.86774 3.54027 0
M  V30 16225 H 1497.28 2.90774 0.876607 0
M  V30 16226 H 1494.87 1.44799 0.367897 0
M  V30 16227 H 1496.75 2.60687 3.31089 0
M  V30 16228 H 1495.42 1.49474 2.87122 0
M  V30 16229 H 1494.33 3.4023 1.55546 0
M  V30 16230 H 1495.66 4.46815 2.0644 0
M  V30 16231 N 1497.32 -0.429099 1.51646 0
M  V30 16232 C 1498.25 -1.53996 1.69758 0
M  V30 16233 C 1499.26 -1.52189 0.578138 0
M  V30 16234 O 1500.45 -1.56816 0.852709 0
M  V30 16235 C 1497.55 -2.9291 1.7046 0
M  V30 16236 C 1496.72 -3.19132 2.99122 0
M  V30 16237 C 1495.78 -4.37813 2.91901 0
M  V30 16238 O 1494.81 -4.36065 3.65836 0
M  V30 16239 N 1496.01 -5.41834 2.08317 0
M  V30 16240 H 1498.77 -1.38861 2.65589 0
M  V30 16241 H 1496.34 -0.618148 1.49635 0
M  V30 16242 H 1498.33 -3.7034 1.63187 0
M  V30 16243 H 1496.9 -3.01602 0.821877 0
M  V30 16244 H 1496.12 -2.29926 3.20199 0
M  V30 16245 H 1497.41 -3.33483 3.84274 0
M  V30 16246 H 1496.8 -5.46094 1.4764 0
M  V30 16247 H 1495.36 -6.18085 2.06917 0
M  V30 16248 N 1498.79 -1.41931 -0.685074 0
M  V30 16249 C 1499.73 -1.39028 -1.8096 0
M  V30 16250 C 1500.7 -0.256001 -1.60572 0
M  V30 16251 O 1501.89 -0.44459 -1.83182 0
M  V30 16252 C 1499.02 -1.17125 -3.17804 0
M  V30 16253 C 1498.06 -2.33411 -3.56961 0
M  V30 16254 S 1498.89 -3.9592 -3.60565 0
M  V30 16255 C 1500.05 -3.7634 -5.00119 0
M  V30 16256 H 1500.28 -2.34189 -1.83146 0
M  V30 16257 H 1497.82 -1.2858 -0.854778 0
M  V30 16258 H 1499.77 -1.05175 -3.96798 0
M  V30 16259 H 1498.44 -0.235668 -3.13215 0
M  V30 16260 H 1497.63 -2.13807 -4.56402 0
M  V30 16261 H 1497.23 -2.41823 -2.85303 0
M  V30 16262 H 1499.52 -3.36695 -5.87914 0
M  V30 16263 H 1500.47 -4.7542 -5.24768 0
M  V30 16264 H 1500.87 -3.09407 -4.72152 0
M  V30 16265 N 1500.27 0.920374 -1.27933 0
M  V30 16266 C 1501.23 2.0035 -1.11321 0
M  V30 16267 C 1502.23 1.60706 -0.0549132 0
M  V30 16268 O 1503.42 1.71595 -0.300134 0
M  V30 16269 C 1500.56 3.33681 -0.69782 0
M  V30 16270 H 1501.75 2.16518 -2.07509 0
M  V30 16271 H 1499.3 1.10216 -1.10825 0
M  V30 16272 H 1500.04 3.23214 0.265122 0
M  V30 16273 H 1499.82 3.63815 -1.46223 0
M  V30 16274 H 1501.31 4.13208 -0.604048 0
M  V30 16275 N 1501.75 1.10074 1.1279 0
M  V30 16276 C 1502.68 0.768146 2.20503 0
M  V30 16277 C 1503.66 -0.257199 1.68144 0
M  V30 16278 O 1504.85 -0.12379 1.93805 0
M  V30 16279 C 1501.98 0.195125 3.46751 0
M  V30 16280 C 1500.93 1.15074 4.1224 0
M  V30 16281 C 1500.26 0.439098 5.32894 0
M  V30 16282 C 1501.56 2.49584 4.58808 0
M  V30 16283 H 1503.25 1.66876 2.48581 0
M  V30 16284 H 1500.8 0.803806 1.19478 0
M  V30 16285 H 1502.75 -0.0496695 4.21371 0
M  V30 16286 H 1501.47 -0.740717 3.1809 0
M  V30 16287 H 1500.13 1.38092 3.39597 0
M  V30 16288 H 1499.78 -0.501096 5.00498 0
M  V30 16289 H 1499.48 1.07632 5.77658 0
M  V30 16290 H 1501 0.202761 6.10263 0
M  V30 16291 H 1502.42 2.30736 5.24818 0
M  V30 16292 H 1500.81 3.09157 5.14336 0
M  V30 16293 H 1501.88 3.09857 3.72984 0
M  V30 16294 N 1503.23 -1.30138 0.888926 0
M  V30 16295 C 1504.5 -1.90831 0.42928 0
M  V30 16296 C 1504.88 -1.80765 -1.09028 0
M  V30 16297 O 1504.23 -1.22741 -1.92735 0
M  V30 16298 C 1504.44 -3.36331 0.931798 0
M  V30 16299 C 1505.79 -4.13393 0.969106 0
M  V30 16300 O 1506.81 -3.45191 0.878731 0
M  V30 16301 O 1505.67 -5.35249 1.10323 0
M  V30 16302 H 1502.77 -0.816401 0.131976 0
M  V30 16303 H 1505.31 -1.38678 0.978086 0
M  V30 16304 H 1504.09 -3.37761 1.97568 0
M  V30 16305 H 1503.71 -3.95945 0.362383 0
M  V30 16306 N 1504.71 -0.650285 -1.43559 0
M  V30 16307 C 1505.95 -0.162725 -2.02146 0
M  V30 16308 C 1506.28 1.21911 -1.51166 0
M  V30 16309 O 1505.56 1.81329 -0.703563 0
M  V30 16310 C 1505.84 -0.170356 -3.59697 0
M  V30 16311 C 1505.7 -1.5859 -4.20915 0
M  V30 16312 C 1507.01 0.494831 -4.37309 0
M  V30 16313 H 1504.13 -0.0606055 -0.734504 0
M  V30 16314 H 1506.78 -0.830411 -1.70892 0
M  V30 16315 H 1504.93 0.39819 -3.86454 0
M  V30 16316 H 1506.6 -2.20481 -4.05199 0
M  V30 16317 H 1504.84 -2.13407 -3.77677 0
M  V30 16318 H 1505.51 -1.54312 -5.29992 0
M  V30 16319 H 1507.99 0.0111281 -4.16099 0
M  V30 16320 H 1506.86 0.458753 -5.4698 0
M  V30 16321 H 1507.12 1.56846 -4.13342 0
M  V30 16322 N 1506.18 1.52647 -0.392018 0
M  V30 16323 C 1507.43 2.01215 0.188926 0
M  V30 16324 C 1507.75 1.28019 1.47092 0
M  V30 16325 O 1507.02 0.401048 1.91751 0
M  V30 16326 H 1505.6 0.743444 0.0728049 0
M  V30 16327 H 1508.26 1.87715 -0.524332 0
M  V30 16328 H 1507.36 3.09562 0.397216 0
M  V30 16329 N 1507.66 0.121921 1.57128 0
M  V30 16330 C 1508.59 -0.823788 2.18486 0
M  V30 16331 C 1509.57 -1.27519 1.12574 0
M  V30 16332 O 1510.76 -1.33727 1.40822 0
M  V30 16333 C 1507.89 -2.07284 2.78659 0
M  V30 16334 C 1506.84 -1.75912 3.90178 0
M  V30 16335 C 1506.17 -3.07871 4.37172 0
M  V30 16336 C 1507.47 -1.02517 5.1214 0
M  V30 16337 H 1509.16 -0.312488 2.97765 0
M  V30 16338 H 1506.71 -0.148862 1.43228 0
M  V30 16339 H 1508.66 -2.73903 3.20242 0
M  V30 16340 H 1507.39 -2.60743 1.96673 0
M  V30 16341 H 1506.04 -1.11681 3.49174 0
M  V30 16342 H 1505.69 -3.59271 3.52041 0
M  V30 16343 H 1505.39 -2.87653 5.12376 0
M  V30 16344 H 1506.92 -3.75604 4.81409 0
M  V30 16345 H 1508.33 -1.59295 5.50725 0
M  V30 16346 H 1506.73 -0.923836 5.92946 0
M  V30 16347 H 1507.8 -0.0124219 4.84898 0
M  V30 16348 N 1509.14 -1.56867 -0.151857 0
M  V30 16349 C 1510.55 -1.72573 -0.712411 0
M  V30 16350 C 1510.9 -0.735557 -1.8189 0
M  V30 16351 O 1510.03 0.09888 -2.16174 0
M  V30 16352 C 1510.62 -3.12906 -1.29905 0
M  V30 16353 C 1509.18 -3.30231 -1.80623 0
M  V30 16354 C 1508.33 -2.68507 -0.692781 0
M  V30 16355 H 1511.28 -1.58528 0.0737603 0
M  V30 16356 H 1511.3 -3.12636 -2.16885 0
M  V30 16357 H 1510.81 -3.84949 -0.493509 0
M  V30 16358 H 1508.91 -2.63176 -2.6376 0
M  V30 16359 H 1509.03 -4.38141 -1.93828 0
M  V30 16360 H 1507.39 -2.28842 -1.11818 0
M  V30 16361 H 1508.17 -3.43151 0.10124 0
M  V30 16362 N 1510.62 0.421051 -1.51871 0
M  V30 16363 C 1511.84 1.19568 -1.69465 0
M  V30 16364 C 1512.27 1.83835 -0.398269 0
M  V30 16365 O 1511.63 1.69508 0.643172 0
M  V30 16366 C 1511.67 2.24337 -2.82321 0
M  V30 16367 O 1510.78 3.30205 -2.47059 0
M  V30 16368 H 1510.12 0.349579 -0.564527 0
M  V30 16369 H 1512.65 0.495177 -1.98517 0
M  V30 16370 H 1512.66 2.6886 -3.06885 0
M  V30 16371 H 1511.33 1.76941 -3.76384 0
M  V30 16372 H 1509.91 2.91045 -2.33125 0
M  V30 16373 N 1512.1 1.42293 0.677538 0
M  V30 16374 C 1513.32 1.46214 1.47092 0
M  V30 16375 C 1513.75 0.0740989 1.87954 0
M  V30 16376 O 1513.1 -0.926831 1.55819 0
M  V30 16377 C 1513.15 2.39236 2.69812 0
M  V30 16378 O 1512.26 1.86183 3.6798 0
M  V30 16379 H 1511.6 0.495507 0.442006 0
M  V30 16380 H 1514.13 1.86952 0.831274 0
M  V30 16381 H 1514.14 2.55723 3.17915 0
M  V30 16382 H 1512.81 3.40081 2.39411 0
M  V30 16383 H 1511.39 1.79237 3.26999 0
M  V30 16384 N 1513.57 -0.913576 1.28419 0
M  V30 16385 C 1514.52 -2.01603 1.12361 0
M  V30 16386 C 1515.49 -1.66087 0.0206953 0
M  V30 16387 O 1516.68 -1.89895 0.185659 0
M  V30 16388 C 1513.82 -3.35897 0.791655 0
M  V30 16389 C 1512.93 -3.84281 1.97363 0
M  V30 16390 C 1512.06 -5.07087 1.58228 0
M  V30 16391 C 1511.1 -5.47804 2.73089 0
M  V30 16392 N 1510.24 -6.618 2.34446 0
M  V30 16393 H 1515.08 -2.1467 2.0669 0
M  V30 16394 H 1512.62 -1.05147 1.02871 0
M  V30 16395 H 1514.58 -4.13149 0.579943 0
M  V30 16396 H 1513.21 -3.22596 -0.114699 0
M  V30 16397 H 1512.26 -3.03184 2.29746 0
M  V30 16398 H 1513.57 -4.10417 2.83477 0
M  V30 16399 H 1512.72 -5.91883 1.33264 0
M  V30 16400 H 1511.46 -4.82759 0.692429 0
M  V30 16401 H 1510.47 -4.61549 2.98751 0
M  V30 16402 H 1511.69 -5.74119 3.62717 0
M  V30 16403 H 1509.64 -6.39103 1.4793 0
M  V30 16404 H 1509.56 -6.87663 3.14096 0
M  V30 16405 H 1510.82 -7.49901 2.12766 0
M  V30 16406 N 1515.05 -1.1067 -1.12204 0
M  V30 16407 C 1515.98 -0.779829 -2.20093 0
M  V30 16408 C 1516.96 0.248279 -1.68278 0
M  V30 16409 O 1518.15 0.113511 -1.93868 0
M  V30 16410 C 1515.28 -0.213511 -3.46643 0
M  V30 16411 C 1514.23 -1.17258 -4.11624 0
M  V30 16412 C 1513.56 -0.467352 -5.32654 0
M  V30 16413 C 1514.86 -2.52014 -4.57478 0
M  V30 16414 H 1516.55 -1.68192 -2.47693 0
M  V30 16415 H 1514.1 -0.810131 -1.1905 0
M  V30 16416 H 1516.05 0.0273225 -4.21391 0
M  V30 16417 H 1514.78 0.723837 -3.18478 0
M  V30 16418 H 1513.43 -1.39891 -3.3886 0
M  V30 16419 H 1513.08 0.474547 -5.00756 0
M  V30 16420 H 1512.78 -1.10694 -5.77079 0
M  V30 16421 H 1514.31 -0.235122 -6.10147 0
M  V30 16422 H 1515.72 -2.33516 -5.23587 0
M  V30 16423 H 1514.12 -3.1188 -5.1269 0
M  V30 16424 H 1515.19 -3.11831 -3.71335 0
M  V30 16425 N 1516.53 1.29665 -0.895815 0
M  V30 16426 C 1517.48 2.27831 -0.369011 0
M  V30 16427 C 1518.45 1.56843 0.546756 0
M  V30 16428 O 1519.63 1.84848 0.472837 0
M  V30 16429 C 1516.77 3.42764 0.400884 0
M  V30 16430 C 1515.89 4.28544 -0.545335 0
M  V30 16431 C 1515.02 5.30652 0.241228 0
M  V30 16432 C 1514.06 6.08087 -0.699765 0
M  V30 16433 N 1513.2 7.02081 0.0521477 0
M  V30 16434 H 1518.04 2.72274 -1.21124 0
M  V30 16435 H 1515.57 1.33918 -0.608631 0
M  V30 16436 H 1517.53 4.08171 0.863277 0
M  V30 16437 H 1516.16 2.99361 1.2076 0
M  V30 16438 H 1515.21 3.63346 -1.12624 0
M  V30 16439 H 1516.53 4.82472 -1.26579 0
M  V30 16440 H 1515.68 6.01858 0.764994 0
M  V30 16441 H 1514.42 4.77446 0.994838 0
M  V30 16442 H 1513.42 5.35748 -1.23507 0
M  V30 16443 H 1514.65 6.63382 -1.45264 0
M  V30 16444 H 1512.59 6.51249 0.788096 0
M  V30 16445 H 1512.51 7.53547 -0.60847 0
M  V30 16446 H 1513.78 7.77512 0.556304 0
M  V30 16447 N 1518.01 0.657889 1.43212 0
M  V30 16448 C 1519.23 0.179444 2.06622 0
M  V30 16449 C 1519.66 -1.14787 1.49015 0
M  V30 16450 O 1519.02 -1.71016 0.60192 0
M  V30 16451 C 1519.06 0.106826 3.60442 0
M  V30 16452 O 1518.17 -0.92962 4.01786 0
M  V30 16453 H 1517.51 0.0970131 0.656875 0
M  V30 16454 H 1520.04 0.902132 1.83638 0
M  V30 16455 H 1520.05 -0.07495 4.07931 0
M  V30 16456 H 1518.72 1.07574 4.01747 0
M  V30 16457 H 1517.3 -0.720255 3.65878 0
M  V30 16458 N 1519.49 -1.52437 0.400108 0
M  V30 16459 C 1520.43 -2.26763 -0.429799 0
M  V30 16460 C 1521.4 -1.28808 -1.0487 0
M  V30 16461 O 1522.59 -1.57655 -1.07468 0
M  V30 16462 C 1519.73 -3.08564 -1.54539 0
M  V30 16463 C 1518.84 -4.21463 -0.948294 0
M  V30 16464 C 1517.98 -4.9064 -2.03584 0
M  V30 16465 C 1517.02 -5.95515 -1.4152 0
M  V30 16466 N 1516.15 -6.58245 -2.4425 0
M  V30 16467 H 1520.99 -2.97256 0.210467 0
M  V30 16468 H 1518.53 -1.46645 0.115627 0
M  V30 16469 H 1520.49 -3.54289 -2.20307 0
M  V30 16470 H 1519.12 -2.40259 -2.15582 0
M  V30 16471 H 1518.17 -3.79974 -0.179918 0
M  V30 16472 H 1519.48 -4.96722 -0.454845 0
M  V30 16473 H 1518.64 -5.39724 -2.77097 0
M  V30 16474 H 1517.37 -4.14929 -2.56291 0
M  V30 16475 H 1516.38 -5.45759 -0.665354 0
M  V30 16476 H 1517.6 -6.73164 -0.89593 0
M  V30 16477 H 1515.55 -5.85369 -2.96107 0
M  V30 16478 H 1515.47 -7.2915 -1.99692 0
M  V30 16479 H 1516.74 -7.1197 -3.17362 0
M  V30 16480 N 1520.96 -0.130252 -1.57061 0
M  V30 16481 C 1522.19 0.532416 -1.99932 0
M  V30 16482 C 1522.61 1.59505 -1.01013 0
M  V30 16483 O 1521.96 1.82499 -0.00463158 0
M  V30 16484 C 1522.02 1.14833 -3.42776 0
M  V30 16485 O 1521.74 0.128163 -4.37912 0
M  V30 16486 C 1523.24 1.89324 -4.00838 0
M  V30 16487 H 1520.46 0.140046 -0.656223 0
M  V30 16488 H 1523 -0.219905 -2.03314 0
M  V30 16489 H 1521.16 1.85137 -3.40298 0
M  V30 16490 H 1521.57 0.577135 -5.21315 0
M  V30 16491 H 1523.04 2.27731 -5.02835 0
M  V30 16492 H 1523.52 2.77277 -3.40608 0
M  V30 16493 H 1524.13 1.23757 -4.06896 0
M  V30 16494 N 1522.44 1.56945 0.143535 0
M  V30 16495 C 1523.67 1.88067 0.874385 0
M  V30 16496 C 1524.09 0.719645 1.73789 0
M  V30 16497 O 1523.45 -0.330654 1.78259 0
M  V30 16498 C 1523.5 3.17795 1.70408 0
M  V30 16499 O 1522.6 3.01973 2.80867 0
M  V30 16500 H 1521.94 0.617808 0.24333 0
M  V30 16501 H 1524.47 2.04165 0.133309 0
M  V30 16502 H 1524.48 3.49903 2.09838 0
M  V30 16503 H 1523.16 4.019 1.07001 0
M  V30 16504 H 1521.74 2.8128 2.44818 0
M  V30 16505 N 1523.92 -0.412991 1.52093 0
M  V30 16506 C 1524.85 -1.52187 1.71382 0
M  V30 16507 C 1525.87 -1.51567 0.594247 0
M  V30 16508 O 1527.06 -1.55902 0.869293 0
M  V30 16509 C 1524.16 -2.91086 1.73557 0
M  V30 16510 C 1523.33 -3.15941 3.0249 0
M  V30 16511 C 1522.39 -4.34692 2.96529 0
M  V30 16512 O 1521.41 -4.3216 3.70441 0
M  V30 16513 N 1522.62 -5.39594 2.14052 0
M  V30 16514 H 1525.38 -1.36036 2.67047 0
M  V30 16515 H 1522.94 -0.602243 1.50282 0
M  V30 16516 H 1524.93 -3.68589 1.67106 0
M  V30 16517 H 1523.5 -3.00714 0.85382 0
M  V30 16518 H 1522.72 -2.26517 3.2262 0
M  V30 16519 H 1524.01 -3.29388 3.87789 0
M  V30 16520 H 1523.41 -5.44498 1.53424 0
M  V30 16521 H 1521.97 -6.15855 2.13461 0
M  V30 16522 N 1525.4 -1.4265 -0.669982 0
M  V30 16523 C 1526.33 -1.49298 -1.79534 0
M  V30 16524 C 1527.31 -0.34911 -1.66479 0
M  V30 16525 O 1528.5 -0.564072 -1.85828 0
M  V30 16526 C 1525.63 -1.39935 -3.17861 0
M  V30 16527 C 1524.58 -2.52398 -3.45657 0
M  V30 16528 C 1523.91 -2.28092 -4.8361 0
M  V30 16529 C 1525.21 -3.94697 -3.4207 0
M  V30 16530 H 1526.9 -2.43486 -1.74227 0
M  V30 16531 H 1524.45 -1.17191 -0.836796 0
M  V30 16532 H 1526.4 -1.43193 -3.96325 0
M  V30 16533 H 1525.12 -0.422436 -3.23857 0
M  V30 16534 H 1523.78 -2.48465 -2.69556 0
M  V30 16535 H 1523.43 -1.28683 -4.86261 0
M  V30 16536 H 1523.13 -3.03469 -5.0317 0
M  V30 16537 H 1524.65 -2.33107 -5.64352 0
M  V30 16538 H 1526.07 -4.00207 -4.10496 0
M  V30 16539 H 1524.46 -4.69965 -3.73166 0
M  V30 16540 H 1525.53 -4.21025 -2.40554 0
M  V30 16541 N 1526.88 0.906753 -1.28902 0
M  V30 16542 C 1528.1 1.69547 -1.19452 0
M  V30 16543 C 1528.53 1.86531 0.242418 0
M  V30 16544 O 1527.89 1.38052 1.17521 0
M  V30 16545 C 1527.93 3.06139 -1.90556 0
M  V30 16546 O 1527.04 3.9401 -1.21779 0
M  V30 16547 H 1526.38 0.518902 -0.41429 0
M  V30 16548 H 1528.91 1.13327 -1.70347 0
M  V30 16549 H 1528.92 3.56326 -1.98736 0
M  V30 16550 H 1527.59 2.93094 -2.95074 0
M  V30 16551 H 1526.17 3.52444 -1.2181 0
M  V30 16552 N 1528.36 1.11264 1.11616 0
M  V30 16553 C 1529.6 0.858664 1.82952 0
M  V30 16554 C 1529.92 -0.617439 1.84967 0
M  V30 16555 O 1529.19 -1.44849 1.31893 0
M  V30 16556 H 1527.77 0.314671 0.677489 0
M  V30 16557 H 1530.44 1.40466 1.35113 0
M  V30 16558 H 1529.53 1.22921 2.86874 0
M  V30 16559 N 1529.83 -1.29188 0.902679 0
M  V30 16560 C 1531.08 -1.95052 0.529076 0
M  V30 16561 C 1531.4 -1.7149 -0.92824 0
M  V30 16562 O 1530.67 -1.04834 -1.65489 0
M  V30 16563 H 1529.25 -0.721725 0.192671 0
M  V30 16564 H 1531.91 -1.57384 1.14962 0
M  V30 16565 H 1531.01 -3.03819 0.714179 0
M  V30 16566 N 1531.31 -0.665475 -1.42861 0
M  V30 16567 C 1532.24 0.0686045 -2.28097 0
M  V30 16568 C 1533.22 0.81788 -1.40533 0
M  V30 16569 O 1534.41 0.81493 -1.69974 0
M  V30 16570 C 1531.53 1.10416 -3.20197 0
M  V30 16571 C 1530.58 0.451532 -4.24103 0
M  V30 16572 S 1531.41 -0.783994 -5.2973 0
M  V30 16573 C 1532.57 0.250718 -6.25398 0
M  V30 16574 H 1532.8 -0.654401 -2.90008 0
M  V30 16575 H 1530.33 -0.454708 -1.47553 0
M  V30 16576 H 1532.29 1.69657 -3.738 0
M  V30 16577 H 1530.95 1.79955 -2.57439 0
M  V30 16578 H 1530.15 1.23259 -4.88695 0
M  V30 16579 H 1529.75 -0.0670626 -3.7394 0
M  V30 16580 H 1532.04 1.11326 -6.68291 0
M  V30 16581 H 1532.98 -0.360495 -7.07182 0
M  V30 16582 H 1533.39 0.592017 -5.61387 0
M  V30 16583 N 1532.79 1.52222 -0.408187 0
M  V30 16584 C 1533.72 2.24676 0.453129 0
M  V30 16585 C 1534.73 1.27605 1.01098 0
M  V30 16586 O 1535.92 1.53557 0.910084 0
M  V30 16587 C 1533.02 2.96431 1.64262 0
M  V30 16588 C 1532.2 4.20364 1.20883 0
M  V30 16589 C 1531.26 4.74951 2.26512 0
M  V30 16590 O 1530.28 5.37556 1.87142 0
M  V30 16591 N 1531.48 4.56443 3.58665 0
M  V30 16592 H 1534.25 2.9923 -0.16771 0
M  V30 16593 H 1531.81 1.60178 -0.235517 0
M  V30 16594 H 1533.8 3.29844 2.3449 0
M  V30 16595 H 1532.37 2.25068 2.1694 0
M  V30 16596 H 1531.59 3.92776 0.334712 0
M  V30 16597 H 1532.88 5.0085 0.895939 0
M  V30 16598 H 1532.28 4.06511 3.93402 0
M  V30 16599 H 1530.83 4.94295 4.24871 0
M  V30 16600 N 1534.27 0.138579 1.5699 0
M  V30 16601 C 1535.68 -0.217898 1.58106 0
M  V30 16602 C 1535.88 -1.65293 1.15241 0
M  V30 16603 O 1534.94 -2.37805 0.848815 0
M  V30 16604 C 1536.25 0.033211 3.00682 0
M  V30 16605 C 1537.8 -0.0311593 3.12984 0
M  V30 16606 C 1538.28 0.192508 4.57595 0
M  V30 16607 N 1539.77 0.139147 4.62991 0
M  V30 16608 C 1540.5 0.286837 5.72682 0
M  V30 16609 N 1540 0.491784 6.91052 0
M  V30 16610 N 1541.79 0.225032 5.61649 0
M  V30 16611 H 1533.94 1.07567 1.83148 0
M  V30 16612 H 1536.2 0.425143 0.847324 0
M  V30 16613 H 1535.91 1.02605 3.364 0
M  V30 16614 H 1535.78 -0.689972 3.70836 0
M  V30 16615 H 1538.17 -1.01454 2.77112 0
M  V30 16616 H 1538.25 0.724219 2.45334 0
M  V30 16617 H 1537.9 1.17295 4.9417 0
M  V30 16618 H 1537.83 -0.583092 5.23362 0
M  V30 16619 H 1540.32 -0.0149467 3.77897 0
M  V30 16620 H 1540.63 0.594813 7.70508 0
M  V30 16621 H 1538.98 0.528002 6.92991 0
M  V30 16622 H 1542.17 0.0657415 4.68054 0
M  V30 16623 H 1542.34 0.343569 6.47089 0
M  V30 16624 N 1535.75 -1.57019 -0.13521 0
M  V30 16625 C 1536.69 -1.99148 -1.16657 0
M  V30 16626 C 1537.66 -0.860947 -1.42045 0
M  V30 16627 O 1538.85 -1.12393 -1.54183 0
M  V30 16628 C 1535.99 -2.3872 -2.49212 0
M  V30 16629 C 1535.1 -3.65117 -2.30898 0
M  V30 16630 C 1534.24 -3.9374 -3.5657 0
M  V30 16631 C 1533.27 -5.1337 -3.33343 0
M  V30 16632 N 1532.41 -5.37945 -4.51176 0
M  V30 16633 H 1537.25 -2.87052 -0.800312 0
M  V30 16634 H 1534.79 -1.42007 -0.383705 0
M  V30 16635 H 1536.75 -2.59695 -3.26518 0
M  V30 16636 H 1535.38 -1.53879 -2.83762 0
M  V30 16637 H 1534.43 -3.5185 -1.44588 0
M  V30 16638 H 1535.74 -4.52578 -2.09701 0
M  V30 16639 H 1534.89 -4.15277 -4.423 0
M  V30 16640 H 1533.63 -3.04723 -3.80782 0
M  V30 16641 H 1532.64 -4.91694 -2.46002 0
M  V30 16642 H 1533.86 -6.0395 -3.10517 0
M  V30 16643 H 1531.81 -4.51884 -4.75539 0
M  V30 16644 H 1531.73 -6.19698 -4.33025 0
M  V30 16645 H 1532.99 -5.63989 -5.38086 0
M  V30 16646 N 1537.22 0.404919 -1.52309 0
M  V30 16647 C 1538.15 1.50039 -1.78915 0
M  V30 16648 C 1539.14 1.57587 -0.640329 0
M  V30 16649 O 1540.32 1.72793 -0.886344 0
M  V30 16650 C 1537.45 2.87819 -1.94364 0
M  V30 16651 C 1536.4 2.9512 -3.09981 0
M  V30 16652 C 1535.73 4.35195 -3.10659 0
M  V30 16653 C 1537.03 2.66219 -4.4936 0
M  V30 16654 H 1538.72 1.28025 -2.70647 0
M  V30 16655 H 1536.27 0.61445 -1.30233 0
M  V30 16656 H 1538.22 3.64446 -2.11559 0
M  V30 16657 H 1536.95 3.11136 -0.993067 0
M  V30 16658 H 1535.61 2.20939 -2.92543 0
M  V30 16659 H 1535.25 4.55528 -2.13316 0
M  V30 16660 H 1534.95 4.41003 -3.88317 0
M  V30 16661 H 1536.48 5.1375 -3.29989 0
M  V30 16662 H 1537.89 3.32567 -4.66982 0
M  V30 16663 H 1536.29 2.83398 -5.28967 0
M  V30 16664 H 1537.36 1.61636 -4.57167 0
M  V30 16665 N 1538.7 1.43003 0.662408 0
M  V30 16666 C 1539.93 1.47766 1.45533 0
M  V30 16667 C 1540.35 0.0940298 1.87865 0
M  V30 16668 O 1539.71 -0.910252 1.56793 0
M  V30 16669 C 1539.76 2.42084 2.6726 0
M  V30 16670 O 1538.86 1.90076 3.65985 0
M  V30 16671 H 1538.2 0.500167 0.436725 0
M  V30 16672 H 1540.73 1.87823 0.811399 0
M  V30 16673 H 1540.74 2.5908 3.15185 0
M  V30 16674 H 1539.42 3.42601 2.3579 0
M  V30 16675 H 1538 1.82695 3.2508 0
M  V30 16676 N 1540.18 -0.899904 1.29381 0
M  V30 16677 C 1541.43 -1.65282 1.17515 0
M  V30 16678 C 1541.76 -1.92275 -0.272788 0
M  V30 16679 O 1541.03 -1.53303 -1.19701 0
M  V30 16680 C 1541.32 -3.00207 1.98867 0
M  V30 16681 C 1541.17 -2.80281 3.51799 0
M  V30 16682 C 1542.49 -4.00936 1.81489 0
M  V30 16683 H 1539.61 -0.5998 0.428263 0
M  V30 16684 H 1542.25 -1.04241 1.58852 0
M  V30 16685 H 1540.4 -3.52308 1.63741 0
M  V30 16686 H 1542.07 -2.35082 3.96905 0
M  V30 16687 H 1540.32 -2.15068 3.76733 0
M  V30 16688 H 1540.99 -3.76155 4.03994 0
M  V30 16689 H 1543.46 -3.57944 2.12169 0
M  V30 16690 H 1542.34 -4.9328 2.4076 0
M  V30 16691 H 1542.6 -4.35342 0.770021 0
M  V30 16692 N 1541.66 -1.11854 -1.11024 0
M  V30 16693 C 1542.62 -0.784033 -2.15373 0
M  V30 16694 C 1543.62 0.198686 -1.59568 0
M  V30 16695 O 1544.81 -0.0263428 -1.7418 0
M  V30 16696 C 1541.94 -0.163987 -3.40505 0
M  V30 16697 H 1543.14 -1.70849 -2.46477 0
M  V30 16698 H 1540.69 -0.920988 -1.26283 0
M  V30 16699 H 1541.42 0.770483 -3.15014 0
M  V30 16700 H 1541.21 -0.871447 -3.82293 0
M  V30 16701 H 1542.7 0.0537739 -4.17565 0
M  V30 16702 N 1543.14 1.28707 -0.909517 0
M  V30 16703 C 1544.07 2.29845 -0.411552 0
M  V30 16704 C 1545.05 1.62001 0.518615 0
M  V30 16705 O 1546.23 1.89442 0.427252 0
M  V30 16706 C 1543.36 3.45501 0.353013 0
M  V30 16707 C 1542.32 4.25213 -0.487625 0
M  V30 16708 C 1541.64 5.33164 0.405026 0
M  V30 16709 C 1542.94 4.9237 -1.74268 0
M  V30 16710 H 1544.64 2.71746 -1.25676 0
M  V30 16711 H 1542.18 1.30639 -0.605759 0
M  V30 16712 H 1544.14 4.15338 0.712191 0
M  V30 16713 H 1542.86 3.02469 1.23209 0
M  V30 16714 H 1541.52 3.57098 -0.829265 0
M  V30 16715 H 1541.17 4.86375 1.28252 0
M  V30 16716 H 1540.87 5.87399 -0.153811 0
M  V30 16717 H 1542.39 6.0585 0.760179 0
M  V30 16718 H 1543.8 5.5459 -1.45266 0
M  V30 16719 H 1542.2 5.56581 -2.2436 0
M  V30 16720 H 1543.27 4.171 -2.47297 0
M  V30 16721 N 1544.61 0.673042 1.42506 0
M  V30 16722 C 1545.58 0.00283156 2.292 0
M  V30 16723 C 1546.58 -0.73077 1.43235 0
M  V30 16724 O 1547.77 -0.569037 1.64644 0
M  V30 16725 C 1544.9 -1.00666 3.25698 0
M  V30 16726 H 1546.09 0.765869 2.89956 0
M  V30 16727 H 1543.65 0.435301 1.50116 0
M  V30 16728 H 1544.38 -1.79825 2.69877 0
M  V30 16729 H 1544.17 -0.484043 3.89101 0
M  V30 16730 H 1545.66 -1.47409 3.90718 0
M  V30 16731 N 1546.09 -1.52004 0.416254 0
M  V30 16732 C 1547.34 -2.01889 -0.157201 0
M  V30 16733 C 1547.67 -1.30153 -1.44535 0
M  V30 16734 O 1546.92 -0.39855 -1.91599 0
M  V30 16735 C 1547.22 -3.54624 -0.444553 0
M  V30 16736 C 1546.89 -4.4453 0.755251 0
M  V30 16737 C 1545.55 -4.68824 1.08433 0
M  V30 16738 C 1547.9 -4.97412 1.55663 0
M  V30 16739 C 1545.23 -5.43246 2.21586 0
M  V30 16740 C 1547.58 -5.73074 2.67898 0
M  V30 16741 C 1546.25 -5.95637 3.01285 0
M  V30 16742 H 1545.52 -0.738764 -0.0575239 0
M  V30 16743 H 1548.16 -1.83156 0.559133 0
M  V30 16744 H 1546.47 -3.71575 -1.24254 0
M  V30 16745 H 1548.16 -3.90739 -0.901333 0
M  V30 16746 H 1544.75 -4.25804 0.488789 0
M  V30 16747 H 1548.94 -4.78545 1.31562 0
M  V30 16748 H 1544.19 -5.58936 2.47792 0
M  V30 16749 H 1548.37 -6.13044 3.30378 0
M  V30 16750 H 1546 -6.53086 3.89079 0
M  V30 16751 N 1547.57 -0.146903 -1.56914 0
M  V30 16752 C 1548.82 0.504981 -1.96412 0
M  V30 16753 C 1549.15 1.64522 -1.0318 0
M  V30 16754 O 1548.42 1.94359 -0.0741728 0
M  V30 16755 C 1548.71 1.01125 -3.45609 0
M  V30 16756 C 1548.56 -0.127493 -4.49619 0
M  V30 16757 C 1549.88 1.89306 -3.97305 0
M  V30 16758 H 1547 0.182088 -0.714152 0
M  V30 16759 H 1549.64 -0.22811 -1.88626 0
M  V30 16760 H 1547.79 1.63595 -3.52376 0
M  V30 16761 H 1549.46 -0.763829 -4.54932 0
M  V30 16762 H 1547.71 -0.786649 -4.26608 0
M  V30 16763 H 1548.38 0.268453 -5.51347 0
M  V30 16764 H 1550.85 1.36664 -3.93017 0
M  V30 16765 H 1549.73 2.21638 -5.02163 0
M  V30 16766 H 1549.99 2.82996 -3.39655 0
M  V30 16767 N 1549.05 1.57088 0.126881 0
M  V30 16768 C 1550.3 1.84071 0.834397 0
M  V30 16769 C 1550.62 0.730896 1.80784 0
M  V30 16770 O 1549.89 -0.245791 1.94352 0
M  V30 16771 H 1548.47 0.679123 0.311128 0
M  V30 16772 H 1551.13 1.94554 0.116083 0
M  V30 16773 H 1550.23 2.79714 1.38443 0
M  V30 16774 N 1550.53 -0.396836 1.52522 0
M  V30 16775 C 1551.77 -1.14037 1.66853 0
M  V30 16776 C 1552.1 -1.90706 0.406987 0
M  V30 16777 O 1551.37 -1.87165 -0.578443 0
M  V30 16778 H 1549.95 -0.423967 0.615029 0
M  V30 16779 H 1552.61 -0.451042 1.89609 0
M  V30 16780 H 1551.7 -1.84763 2.51533 0
M  V30 16781 N 1552.01 -1.43353 -0.654814 0
M  V30 16782 C 1553.23 -1.48536 -1.44748 0
M  V30 16783 C 1553.66 -0.103991 -1.87812 0
M  V30 16784 O 1553.01 0.901924 -1.57274 0
M  V30 16785 C 1553.06 -2.43498 -2.65972 0
M  V30 16786 O 1552.17 -1.92014 -3.64972 0
M  V30 16787 H 1551.51 -0.502476 -0.434067 0
M  V30 16788 H 1554.04 -1.88251 -0.801427 0
M  V30 16789 H 1554.05 -2.60748 -3.13806 0
M  V30 16790 H 1552.72 -3.43847 -2.3397 0
M  V30 16791 H 1551.3 -1.84417 -3.24106 0
M  V30 16792 N 1553.48 0.89303 -1.29857 0
M  V30 16793 C 1554.43 1.9979 -1.15554 0
M  V30 16794 C 1555.4 1.66033 -0.0471157 0
M  V30 16795 O 1556.59 1.89575 -0.215846 0
M  V30 16796 C 1553.73 3.34595 -0.844993 0
M  V30 16797 C 1552.84 3.81093 -2.03451 0
M  V30 16798 C 1551.97 5.04506 -1.66275 0
M  V30 16799 C 1551.01 5.4339 -2.8177 0
M  V30 16800 N 1550.15 6.57987 -2.44945 0
M  V30 16801 H 1554.99 2.11355 -2.10079 0
M  V30 16802 H 1552.53 1.03497 -1.04531 0
M  V30 16803 H 1554.48 4.12175 -0.645598 0
M  V30 16804 H 1553.11 3.22738 0.0633626 0
M  V30 16805 H 1552.17 2.99491 -2.34541 0
M  V30 16806 H 1553.48 4.05855 -2.8997 0
M  V30 16807 H 1552.63 5.89688 -1.42664 0
M  V30 16808 H 1551.37 4.81597 -0.769144 0
M  V30 16809 H 1550.38 4.56738 -3.06056 0
M  V30 16810 H 1551.6 5.68276 -3.71805 0
M  V30 16811 H 1549.55 6.36669 -1.58079 0
M  V30 16812 H 1549.46 6.82579 -3.24996 0
M  V30 16813 H 1550.73 7.46421 -2.24669 0
M  V30 16814 N 1554.96 1.12442 1.10429 0
M  V30 16815 C 1556.21 0.881062 1.82661 0
M  V30 16816 C 1556.54 -0.591636 1.84968 0
M  V30 16817 O 1555.82 -1.43734 1.31037 0
M  V30 16818 C 1556.1 1.45658 3.29326 0
M  V30 16819 C 1555.95 2.99766 3.35352 0
M  V30 16820 C 1557.27 1.1162 4.2571 0
M  V30 16821 H 1554.39 0.321516 0.663172 0
M  V30 16822 H 1557.03 1.39102 1.29424 0
M  V30 16823 H 1555.18 1.02286 3.74793 0
M  V30 16824 H 1556.85 3.51818 2.98365 0
M  V30 16825 H 1555.1 3.35292 2.75249 0
M  V30 16826 H 1555.77 3.35128 4.38627 0
M  V30 16827 H 1558.24 1.49081 3.88477 0
M  V30 16828 H 1557.12 1.54552 5.26692 0
M  V30 16829 H 1557.38 0.0284093 4.42091 0
M  V30 16830 N 1556.44 -1.28223 0.91633 0
M  V30 16831 C 1557.69 -1.95153 0.551639 0
M  V30 16832 C 1558.02 -1.71938 -0.902829 0
M  V30 16833 O 1557.29 -1.04184 -1.64243 0
M  V30 16834 C 1557.58 -3.49565 0.864647 0
M  V30 16835 C 1557.43 -3.82171 2.37203 0
M  V30 16836 C 1558.75 -4.38604 0.362593 0
M  V30 16837 H 1555.87 -0.708808 0.20189 0
M  V30 16838 H 1558.51 -1.51545 1.14604 0
M  V30 16839 H 1556.66 -3.8684 0.358782 0
M  V30 16840 H 1558.33 -3.54751 2.94872 0
M  V30 16841 H 1556.57 -3.29124 2.82595 0
M  V30 16842 H 1557.25 -4.90007 2.54159 0
M  V30 16843 H 1559.72 -4.08416 0.795983 0
M  V30 16844 H 1558.6 -5.45493 0.61066 0
M  V30 16845 H 1558.86 -4.35911 -0.737137 0
M  V30 16846 N 1557.92 -0.68059 -1.42147 0
M  V30 16847 C 1559.17 -0.202445 -2.00681 0
M  V30 16848 C 1559.48 1.19997 -1.54467 0
M  V30 16849 O 1560.69 1.77479 -2.05459 0
M  V30 16850 C 1559.14 -0.311064 -3.58553 0
M  V30 16851 C 1558.75 -1.7179 -4.13754 0
M  V30 16852 C 1560.49 0.108072 -4.24362 0
M  V30 16853 C 1558.4 -1.77897 -5.64009 0
M  V30 16854 H 1557.33 -0.0719266 -0.750561 0
M  V30 16855 H 1559.98 -0.846614 -1.62803 0
M  V30 16856 H 1558.36 0.401098 -3.93963 0
M  V30 16857 H 1559.54 -2.45761 -3.89793 0
M  V30 16858 H 1557.85 -2.08539 -3.60417 0
M  V30 16859 H 1560.45 0.0826684 -5.34636 0
M  V30 16860 H 1560.79 1.14431 -4.00264 0
M  V30 16861 H 1561.33 -0.553285 -3.93933 0
M  V30 16862 H 1558.06 -2.79523 -5.92914 0
M  V30 16863 H 1557.58 -1.0829 -5.89944 0
M  V30 16864 H 1559.26 -1.53504 -6.28527 0
M  V30 16865 N 1559.4 1.51781 -0.424309 0
M  V30 16866 C 1560.33 2.30313 0.384462 0
M  V30 16867 C 1561.31 1.35166 1.03268 0
M  V30 16868 O 1562.49 1.64081 1.0388 0
M  V30 16869 C 1559.62 3.13566 1.49311 0
M  V30 16870 C 1558.58 4.16884 0.969096 0
M  V30 16871 C 1557.9 4.88576 2.17251 0
M  V30 16872 C 1559.2 5.22298 0.0125613 0
M  V30 16873 H 1560.9 2.98172 -0.270871 0
M  V30 16874 H 1558.44 1.43396 -0.131712 0
M  V30 16875 H 1560.39 3.67279 2.06602 0
M  V30 16876 H 1559.12 2.43504 2.17655 0
M  V30 16877 H 1557.78 3.64203 0.418494 0
M  V30 16878 H 1557.43 4.15029 2.84183 0
M  V30 16879 H 1557.13 5.58432 1.82833 0
M  V30 16880 H 1558.65 5.45107 2.75119 0
M  V30 16881 H 1560.06 5.71161 0.494744 0
M  V30 16882 H 1558.46 5.99606 -0.243544 0
M  V30 16883 H 1559.53 4.75935 -0.92813 0
M  V30 16884 N 1560.87 0.155222 1.56834 0
M  V30 16885 C 1562.15 -0.539327 1.88018 0
M  V30 16886 C 1562.53 -1.8241 1.06253 0
M  V30 16887 O 1561.88 -2.27996 0.151721 0
M  V30 16888 C 1562.09 -0.796826 3.39782 0
M  V30 16889 C 1563.44 -1.13397 4.09178 0
M  V30 16890 O 1564.46 -0.885907 3.45007 0
M  V30 16891 O 1563.32 -1.60117 5.22518 0
M  V30 16892 H 1560.41 -0.276066 0.779562 0
M  V30 16893 H 1562.96 0.192451 1.68605 0
M  V30 16894 H 1561.73 0.112097 3.91139 0
M  V30 16895 H 1561.35 -1.5825 3.6475 0
M  V30 16896 N 1562.35 -1.57153 -0.118549 0
M  V30 16897 C 1563.26 -2.03673 -1.16424 0
M  V30 16898 C 1564.28 -0.957203 -1.45305 0
M  V30 16899 O 1565.45 -1.26874 -1.56413 0
M  V30 16900 C 1562.52 -2.43211 -2.47082 0
M  V30 16901 C 1561.58 -3.65248 -2.25593 0
M  V30 16902 C 1560.81 -4.02891 -3.50021 0
M  V30 16903 O 1561.04 -3.40871 -4.57344 0
M  V30 16904 O 1559.97 -4.95989 -3.40996 0
M  V30 16905 H 1563.8 -2.92996 -0.799206 0
M  V30 16906 H 1561.38 -1.45724 -0.329376 0
M  V30 16907 H 1563.26 -2.69374 -3.24061 0
M  V30 16908 H 1561.94 -1.57034 -2.83058 0
M  V30 16909 H 1560.84 -3.44234 -1.46471 0
M  V30 16910 H 1562.18 -4.52131 -1.94521 0
M  V30 16911 N 1563.83 0.388742 -1.5273 0
M  V30 16912 C 1565.24 0.966667 -1.59726 0
M  V30 16913 C 1565.59 1.90963 -0.450272 0
M  V30 16914 O 1564.72 2.12153 0.426611 0
M  V30 16915 C 1565.31 1.75998 -2.895 0
M  V30 16916 C 1563.87 2.28761 -2.98907 0
M  V30 16917 C 1563.02 1.09322 -2.54841 0
M  V30 16918 H 1565.97 0.16828 -1.57805 0
M  V30 16919 H 1565.99 2.61924 -2.76 0
M  V30 16920 H 1565.5 1.07342 -3.7296 0
M  V30 16921 H 1563.6 3.00728 -2.19985 0
M  V30 16922 H 1563.72 2.58229 -4.03552 0
M  V30 16923 H 1562.08 1.45332 -2.09167 0
M  V30 16924 H 1562.86 0.421999 -3.40696 0
M  V30 16925 N 1565.31 1.43698 0.647203 0
M  V30 16926 C 1566.54 1.49085 1.43462 0
M  V30 16927 C 1566.95 0.110605 1.88476 0
M  V30 16928 O 1566.31 -0.880365 1.59862 0
M  V30 16929 C 1566.36 2.44186 2.66562 0
M  V30 16930 O 1566.08 3.76844 2.23429 0
M  V30 16931 C 1567.58 2.58876 3.59858 0
M  V30 16932 H 1564.8 0.506148 0.440517 0
M  V30 16933 H 1567.34 1.88502 0.792931 0
M  V30 16934 H 1565.5 2.07949 3.26858 0
M  V30 16935 H 1565.91 4.2804 3.0312 0
M  V30 16936 H 1567.39 3.29482 4.42883 0
M  V30 16937 H 1567.86 1.63567 4.07606 0
M  V30 16938 H 1568.47 2.95949 3.05441 0
M  V30 16939 N 1566.79 -0.886131 1.30328 0
M  V30 16940 C 1567.75 -1.97328 1.16594 0
M  V30 16941 C 1568.75 -1.60504 0.0975023 0
M  V30 16942 O 1569.94 -1.70739 0.345524 0
M  V30 16943 C 1567.07 -3.31714 0.786045 0
M  V30 16944 H 1568.26 -2.1094 2.13177 0
M  V30 16945 H 1565.82 -1.07238 1.13708 0
M  V30 16946 H 1566.55 -3.23804 -0.179334 0
M  V30 16947 H 1566.34 -3.5981 1.55817 0
M  V30 16948 H 1567.83 -4.11461 0.71339 0
M  V30 16949 N 1568.26 -1.13026 -1.09832 0
M  V30 16950 C 1569.51 -0.887662 -1.81563 0
M  V30 16951 C 1569.83 0.587935 -1.85926 0
M  V30 16952 O 1569.1 1.42732 -1.3418 0
M  V30 16953 H 1567.68 -0.32541 -0.672397 0
M  V30 16954 H 1570.35 -1.42597 -1.32861 0
M  V30 16955 H 1569.44 -1.2747 -2.84882 0
M  V30 16956 N 1569.74 1.27735 -0.923117 0
M  V30 16957 C 1570.99 1.94858 -0.56198 0
M  V30 16958 C 1571.32 1.72414 0.893698 0
M  V30 16959 O 1570.6 1.05054 1.63689 0
M  V30 16960 C 1570.88 3.49102 -0.883173 0
M  V30 16961 C 1570.73 3.80908 -2.39227 0
M  V30 16962 C 1572.05 4.38405 -0.385848 0
M  V30 16963 H 1569.17 0.707728 -0.205646 0
M  V30 16964 H 1571.81 1.50935 -1.15406 0
M  V30 16965 H 1569.96 3.86644 -0.379292 0
M  V30 16966 H 1571.63 3.53182 -2.96749 0
M  V30 16967 H 1569.88 3.2762 -2.84337 0
M  V30 16968 H 1570.55 4.88653 -2.56754 0
M  V30 16969 H 1573.02 4.07988 -0.817631 0
M  V30 16970 H 1571.9 5.45161 -0.63958 0
M  V30 16971 H 1572.16 4.36296 0.714009 0
M  V30 16972 N 1571.22 0.688118 1.41784 0
M  V30 16973 C 1572.5 0.144304 1.95067 0
M  V30 16974 C 1572.88 -1.34399 1.62789 0
M  V30 16975 O 1572.23 -2.08675 0.930978 0
M  V30 16976 C 1572.44 0.427641 3.4637 0
M  V30 16977 C 1573.78 0.351345 4.23144 0
M  V30 16978 O 1574.81 0.362134 3.54354 0
M  V30 16979 O 1573.67 0.305018 5.45648 0
M  V30 16980 H 1570.76 0.01062 0.826932 0
M  V30 16981 H 1573.31 0.763766 1.51541 0
M  V30 16982 H 1572.08 1.4581 3.63119 0
M  V30 16983 H 1571.7 -0.223167 3.96973 0
M  V30 16984 N 1572.7 -1.51554 0.432352 0
M  V30 16985 C 1574.11 -1.86673 -0.0319274 0
M  V30 16986 C 1574.46 -1.34981 -1.42389 0
M  V30 16987 O 1573.59 -0.698556 -2.04815 0
M  V30 16988 C 1574.18 -3.38738 -0.0647127 0
M  V30 16989 C 1572.74 -3.73411 -0.47339 0
M  V30 16990 C 1571.89 -2.75242 0.337187 0
M  V30 16991 H 1574.84 -1.44849 0.648417 0
M  V30 16992 H 1574.86 -3.70297 -0.875239 0
M  V30 16993 H 1574.37 -3.76331 0.948507 0
M  V30 16994 H 1572.47 -3.41406 -1.4924 0
M  V30 16995 H 1572.58 -4.78675 -0.20165 0
M  V30 16996 H 1570.95 -2.53883 -0.203801 0
M  V30 16997 H 1571.73 -3.15677 1.34919 0
M  V30 16998 N 1574.18 -0.163538 -1.56749 0
M  V30 16999 C 1575.41 0.489178 -2.00725 0
M  V30 17000 C 1575.81 1.57869 -1.04279 0
M  V30 17001 O 1575.16 1.83668 -0.0344434 0
M  V30 17002 C 1575.22 1.13443 -3.41132 0
M  V30 17003 C 1574.88 0.187525 -4.56615 0
M  V30 17004 C 1575.88 -0.591169 -5.16528 0
M  V30 17005 C 1573.57 0.0856149 -5.02227 0
M  V30 17006 C 1575.56 -1.45905 -6.20476 0
M  V30 17007 C 1573.25 -0.785859 -6.06026 0
M  V30 17008 C 1574.24 -1.55678 -6.65021 0
M  V30 17009 O 1573.93 -2.41371 -7.66809 0
M  V30 17010 H 1573.66 0.130353 -0.663313 0
M  V30 17011 H 1576.22 -0.260065 -2.03747 0
M  V30 17012 H 1574.45 1.93165 -3.34999 0
M  V30 17013 H 1576.14 1.68856 -3.69111 0
M  V30 17014 H 1576.9 -0.522563 -4.82177 0
M  V30 17015 H 1572.78 0.675439 -4.56025 0
M  V30 17016 H 1576.33 -2.06125 -6.66452 0
M  V30 17017 H 1572.22 -0.855696 -6.39803 0
M  V30 17018 H 1572.99 -2.34801 -7.84099 0
M  V30 17019 N 1575.65 1.57214 0.110213 0
M  V30 17020 C 1576.88 1.8988 0.834297 0
M  V30 17021 C 1577.3 0.756347 1.72224 0
M  V30 17022 O 1576.66 -0.292768 1.78921 0
M  V30 17023 C 1576.71 3.21338 1.63629 0
M  V30 17024 O 1575.81 3.07862 2.74399 0
M  V30 17025 H 1575.16 0.62283 0.23017 0
M  V30 17026 H 1577.69 2.04402 0.0899726 0
M  V30 17027 H 1577.7 3.54275 2.02369 0
M  V30 17028 H 1576.37 4.04079 0.984521 0
M  V30 17029 H 1574.95 2.8641 2.38797 0
M  V30 17030 N 1577.13 -0.380637 1.52934 0
M  V30 17031 C 1578.55 -0.721287 1.42371 0
M  V30 17032 C 1578.75 -1.93826 0.55078 0
M  V30 17033 O 1577.8 -2.52485 0.02743 0
M  V30 17034 C 1579.12 -0.948564 2.85347 0
M  V30 17035 C 1580.67 -1.04952 2.9488 0
M  V30 17036 C 1581.14 -1.30937 4.38885 0
M  V30 17037 N 1582.63 -1.3774 4.42246 0
M  V30 17038 C 1583.37 -1.59527 5.50762 0
M  V30 17039 N 1582.86 -1.7873 6.69349 0
M  V30 17040 N 1584.66 -1.61774 5.38317 0
M  V30 17041 H 1576.81 0.420032 2.08205 0
M  V30 17042 H 1579.07 0.125776 0.939619 0
M  V30 17043 H 1578.78 -0.126348 3.51473 0
M  V30 17044 H 1578.65 -1.8609 3.28101 0
M  V30 17045 H 1581.04 -1.86229 2.28917 0
M  V30 17046 H 1581.12 -0.114899 2.55542 0
M  V30 17047 H 1580.76 -0.50166 5.05416 0
M  V30 17048 H 1580.69 -2.25696 4.75782 0
M  V30 17049 H 1583.18 -1.24575 3.56777 0
M  V30 17050 H 1583.5 -1.94885 7.47823 0
M  V30 17051 H 1581.84 -1.75938 6.72362 0
M  V30 17052 H 1585.03 -1.4633 4.44641 0
M  V30 17053 H 1585.2 -1.78414 6.22955 0
M  V30 17054 N 1578.61 -1.44039 -0.639573 0
M  V30 17055 C 1580.03 -1.2774 -0.956802 0
M  V30 17056 C 1580.23 -0.207018 -2.00434 0
M  V30 17057 O 1579.28 0.409954 -2.4915 0
M  V30 17058 C 1580.6 -2.64624 -1.42809 0
M  V30 17059 C 1582.14 -2.72266 -1.54402 0
M  V30 17060 C 1582.62 -4.09601 -2.04918 0
M  V30 17061 N 1584.11 -4.11735 -2.122 0
M  V30 17062 C 1584.84 -5.14842 -2.52439 0
M  V30 17063 N 1584.34 -6.28316 -2.91875 0
M  V30 17064 N 1586.13 -5.02196 -2.52499 0
M  V30 17065 H 1578.28 -2.12333 0.0533569 0
M  V30 17066 H 1580.55 -0.947208 -0.0387401 0
M  V30 17067 H 1580.25 -3.43983 -0.732728 0
M  V30 17068 H 1580.13 -2.90944 -2.40066 0
M  V30 17069 H 1582.51 -1.93232 -2.23037 0
M  V30 17070 H 1582.6 -2.49697 -0.555426 0
M  V30 17071 H 1582.24 -4.89108 -1.3688 0
M  V30 17072 H 1582.17 -4.29542 -3.04633 0
M  V30 17073 H 1584.66 -3.29833 -1.84441 0
M  V30 17074 H 1584.97 -7.0281 -3.21368 0
M  V30 17075 H 1583.32 -6.31767 -2.89647 0
M  V30 17076 H 1586.51 -4.12606 -2.21075 0
M  V30 17077 H 1586.68 -5.82677 -2.83535 0
M  V30 17078 N 1580.09 0.879207 -1.30796 0
M  V30 17079 C 1581.34 1.62828 -1.19715 0
M  V30 17080 C 1581.66 1.93429 0.247031 0
M  V30 17081 O 1580.93 1.57478 1.16522 0
M  V30 17082 H 1579.51 0.603607 -0.440077 0
M  V30 17083 H 1582.17 1.05309 -1.64 0
M  V30 17084 H 1581.27 2.57591 -1.76219 0
M  V30 17085 N 1581.57 1.13606 1.09231 0
M  V30 17086 C 1582.82 0.893694 1.8082 0
M  V30 17087 C 1583.13 -0.581713 1.8675 0
M  V30 17088 O 1584.34 -0.941079 2.54668 0
M  V30 17089 C 1582.79 1.54932 3.24845 0
M  V30 17090 C 1582.4 3.0604 3.27175 0
M  V30 17091 C 1584.14 1.38773 4.01176 0
M  V30 17092 C 1582.05 3.64478 4.65735 0
M  V30 17093 H 1580.98 0.330699 0.677609 0
M  V30 17094 H 1583.63 1.36401 1.22748 0
M  V30 17095 H 1582.01 1.00668 3.82991 0
M  V30 17096 H 1583.19 3.66901 2.78783 0
M  V30 17097 H 1581.5 3.21739 2.64335 0
M  V30 17098 H 1584.1 1.79843 5.03548 0
M  V30 17099 H 1584.44 0.33282 4.14967 0
M  V30 17100 H 1584.98 1.90028 3.49477 0
M  V30 17101 H 1581.71 4.69785 4.57146 0
M  V30 17102 H 1581.23 3.08396 5.14444 0
M  V30 17103 H 1582.91 3.64272 5.3471 0
M  V30 17104 N 1583.05 -1.27244 0.929878 0
M  V30 17105 C 1584.29 -1.94902 0.5818 0
M  V30 17106 C 1584.65 -1.71719 -0.867768 0
M  V30 17107 O 1583.94 -1.03697 -1.61113 0
M  V30 17108 C 1584.13 -3.47233 0.846386 0
M  V30 17109 C 1583.96 -3.85228 2.32012 0
M  V30 17110 C 1582.73 -4.08567 2.97323 0
M  V30 17111 C 1584.93 -3.94651 3.2978 0
M  V30 17112 N 1582.91 -4.33358 4.34826 0
M  V30 17113 C 1584.28 -4.23843 4.52501 0
M  V30 17114 C 1586.34 -3.77235 3.24959 0
M  V30 17115 C 1585.04 -4.37431 5.71005 0
M  V30 17116 C 1587.07 -3.92049 4.42777 0
M  V30 17117 C 1586.43 -4.21629 5.64277 0
M  V30 17118 H 1582.53 -0.736425 0.263063 0
M  V30 17119 H 1585.11 -1.53562 1.19695 0
M  V30 17120 H 1583.28 -3.87526 0.260378 0
M  V30 17121 H 1585.02 -4.02069 0.460717 0
M  V30 17122 H 1581.77 -4.03486 2.47984 0
M  V30 17123 H 1582.19 -4.49807 5.05967 0
M  V30 17124 H 1586.84 -3.53404 2.32089 0
M  V30 17125 H 1584.55 -4.60087 6.64339 0
M  V30 17126 H 1588.14 -3.7999 4.40567 0
M  V30 17127 H 1587.02 -4.32843 6.53924 0
M  V30 17128 N 1584.52 -0.695628 -1.41417 0
M  V30 17129 C 1585.43 -0.0308378 -2.3458 0
M  V30 17130 C 1586.45 0.766 -1.56232 0
M  V30 17131 O 1587.63 0.703548 -1.88712 0
M  V30 17132 C 1584.69 0.894162 -3.34971 0
M  V30 17133 C 1583.75 0.0895231 -4.29207 0
M  V30 17134 C 1582.98 0.970467 -5.24802 0
M  V30 17135 O 1583.21 2.20997 -5.25848 0
M  V30 17136 O 1582.14 0.420114 -6.00432 0
M  V30 17137 H 1585.97 -0.798775 -2.93007 0
M  V30 17138 H 1583.55 -0.455964 -1.42272 0
M  V30 17139 H 1585.43 1.42458 -3.9659 0
M  V30 17140 H 1584.11 1.64159 -2.78987 0
M  V30 17141 H 1583.02 -0.4855 -3.70936 0
M  V30 17142 H 1584.35 -0.619241 -4.88289 0
M  V30 17143 N 1586 1.51322 -0.440383 0
M  V30 17144 C 1586.93 2.30708 0.360013 0
M  V30 17145 C 1587.91 1.36254 1.01828 0
M  V30 17146 O 1589.1 1.65174 1.02134 0
M  V30 17147 C 1586.23 3.15132 1.45977 0
M  V30 17148 C 1585.18 4.17889 0.924825 0
M  V30 17149 C 1584.51 4.90853 2.12056 0
M  V30 17150 C 1585.81 5.22282 -0.0428362 0
M  V30 17151 H 1587.5 2.97868 -0.30248 0
M  V30 17152 H 1585.05 1.43249 -0.146914 0
M  V30 17153 H 1587 3.69449 2.02695 0
M  V30 17154 H 1585.72 2.45798 2.1506 0
M  V30 17155 H 1584.38 3.64627 0.379842 0
M  V30 17156 H 1584.03 4.1802 2.79765 0
M  V30 17157 H 1583.73 5.60339 1.769 0
M  V30 17158 H 1585.26 5.47995 2.69322 0
M  V30 17159 H 1586.67 5.71654 0.434137 0
M  V30 17160 H 1585.07 5.99314 -0.307126 0
M  V30 17161 H 1586.14 4.74923 -0.978557 0
M  V30 17162 N 1587.48 0.171848 1.5666 0
M  V30 17163 C 1588.41 -0.753861 2.20996 0
M  V30 17164 C 1589.39 -1.23873 1.16574 0
M  V30 17165 O 1590.58 -1.29179 1.45005 0
M  V30 17166 C 1587.71 -1.98314 2.85112 0
M  V30 17167 C 1586.66 -1.6341 3.95577 0
M  V30 17168 C 1585.99 -2.93807 4.46745 0
M  V30 17169 C 1587.29 -0.861713 5.15142 0
M  V30 17170 H 1588.98 -0.217598 2.98608 0
M  V30 17171 H 1586.53 -0.10322 1.4363 0
M  V30 17172 H 1588.48 -2.63576 3.28794 0
M  V30 17173 H 1587.2 -2.54354 2.04869 0
M  V30 17174 H 1585.86 -1.00516 3.52551 0
M  V30 17175 H 1585.51 -3.47889 3.63293 0
M  V30 17176 H 1585.21 -2.71207 5.21268 0
M  V30 17177 H 1586.73 -3.60098 4.93114 0
M  V30 17178 H 1588.15 -1.41693 5.55514 0
M  V30 17179 H 1586.54 -0.734727 5.95585 0
M  V30 17180 H 1587.61 0.141851 4.84692 0
M  V30 17181 N 1588.96 -1.5727 -0.101874 0
M  V30 17182 C 1589.89 -2.04614 -1.12496 0
M  V30 17183 C 1590.87 -0.933768 -1.42179 0
M  V30 17184 O 1592.05 -1.2046 -1.52325 0
M  V30 17185 C 1589.18 -2.46488 -2.44665 0
M  V30 17186 C 1588.14 -3.61327 -2.29406 0
M  V30 17187 C 1587.46 -3.89155 -3.66691 0
M  V30 17188 C 1588.76 -4.92455 -1.74026 0
M  V30 17189 H 1590.46 -2.90336 -0.731109 0
M  V30 17190 H 1588 -1.39676 -0.350239 0
M  V30 17191 H 1589.96 -2.78216 -3.16502 0
M  V30 17192 H 1588.68 -1.57757 -2.85972 0
M  V30 17193 H 1587.34 -3.29835 -1.60015 0
M  V30 17194 H 1586.99 -2.97603 -4.05514 0
M  V30 17195 H 1586.69 -4.66465 -3.57329 0
M  V30 17196 H 1588.21 -4.23352 -4.40006 0
M  V30 17197 H 1589.63 -5.22609 -2.35697 0
M  V30 17198 H 1588.02 -5.73882 -1.75441 0
M  V30 17199 H 1589.09 -4.79833 -0.699136 0
M  V30 17200 N 1590.44 0.372521 -1.53134 0
M  V30 17201 C 1591.38 1.45597 -1.79082 0
M  V30 17202 C 1592.35 1.5349 -0.63482 0
M  V30 17203 O 1593.54 1.69488 -0.876276 0
M  V30 17204 C 1590.68 2.8263 -1.98026 0
M  V30 17205 C 1589.79 2.83758 -3.25738 0
M  V30 17206 C 1588.93 4.12322 -3.34909 0
M  V30 17207 C 1587.96 4.07565 -4.5668 0
M  V30 17208 N 1587.1 5.27766 -4.63042 0
M  V30 17209 H 1591.94 1.22771 -2.71535 0
M  V30 17210 H 1589.48 0.595285 -1.34517 0
M  V30 17211 H 1591.44 3.62227 -2.06997 0
M  V30 17212 H 1590.07 3.0387 -1.08917 0
M  V30 17213 H 1589.12 1.96435 -3.25757 0
M  V30 17214 H 1590.43 2.76114 -4.15406 0
M  V30 17215 H 1589.58 5.00331 -3.43153 0
M  V30 17216 H 1588.32 4.22709 -2.43245 0
M  V30 17217 H 1587.33 3.17943 -4.48545 0
M  V30 17218 H 1588.55 3.98786 -5.49678 0
M  V30 17219 H 1586.5 5.38752 -3.74276 0
M  V30 17220 H 1586.42 5.22264 -5.46605 0
M  V30 17221 H 1587.68 6.17626 -4.75561 0
M  V30 17222 N 1591.91 1.44376 0.631925 0
M  V30 17223 C 1593.14 1.5038 1.41667 0
M  V30 17224 C 1593.55 0.12709 1.88773 0
M  V30 17225 O 1592.89 -0.877119 1.61407 0
M  V30 17226 C 1592.96 2.40602 2.67116 0
M  V30 17227 C 1592.62 3.87784 2.41812 0
M  V30 17228 C 1593.62 4.78337 2.0369 0
M  V30 17229 C 1591.3 4.32478 2.55476 0
M  V30 17230 C 1593.3 6.11586 1.7956 0
M  V30 17231 C 1590.98 5.65774 2.30961 0
M  V30 17232 C 1591.98 6.55146 1.93061 0
M  V30 17233 O 1591.67 7.85974 1.68818 0
M  V30 17234 H 1591.4 0.5124 0.440933 0
M  V30 17235 H 1593.96 1.9001 0.780096 0
M  V30 17236 H 1592.19 1.95898 3.33408 0
M  V30 17237 H 1593.87 2.37564 3.29117 0
M  V30 17238 H 1594.64 4.45079 1.92691 0
M  V30 17239 H 1590.52 3.63174 2.83946 0
M  V30 17240 H 1594.06 6.81304 1.49903 0
M  V30 17241 H 1589.96 5.98594 2.4157 0
M  V30 17242 H 1590.73 7.97764 1.8307 0
M  V30 17243 N 1593.39 -0.872258 1.31261 0
M  V30 17244 C 1594.81 -1.15763 1.09868 0
M  V30 17245 C 1595.01 -2.01065 -0.132331 0
M  V30 17246 O 1594.06 -2.38735 -0.822317 0
M  V30 17247 C 1595.38 -1.85199 2.36901 0
M  V30 17248 C 1596.92 -1.9791 2.42489 0
M  V30 17249 C 1597.4 -2.70759 3.69396 0
M  V30 17250 N 1598.89 -2.78296 3.70278 0
M  V30 17251 C 1599.63 -3.3527 4.65168 0
M  V30 17252 N 1599.12 -3.93193 5.70413 0
M  V30 17253 N 1600.91 -3.33206 4.52692 0
M  V30 17254 H 1593.07 -0.303784 2.10216 0
M  V30 17255 H 1595.33 -0.197172 0.927269 0
M  V30 17256 H 1595.03 -1.29968 3.26804 0
M  V30 17257 H 1594.91 -2.85493 2.46523 0
M  V30 17258 H 1597.3 -2.52305 1.53056 0
M  V30 17259 H 1597.38 -0.966644 2.36833 0
M  V30 17260 H 1597.02 -2.17031 4.59195 0
M  V30 17261 H 1596.95 -3.72407 3.72318 0
M  V30 17262 H 1599.44 -2.37185 2.94197 0
M  V30 17263 H 1599.75 -4.34771 6.38901 0
M  V30 17264 H 1598.1 -3.91575 5.7419 0
M  V30 17265 H 1601.29 -2.87191 3.69647 0
M  V30 17266 H 1601.46 -3.7731 5.26822 0
M  V30 17267 N 1594.87 -1.14184 -1.08627 0
M  V30 17268 C 1595.8 -0.784492 -2.15356 0
M  V30 17269 C 1596.81 0.197581 -1.61597 0
M  V30 17270 O 1598 -0.0238037 -1.78484 0
M  V30 17271 C 1595.1 -0.143433 -3.38596 0
M  V30 17272 C 1594.28 -1.15967 -4.21747 0
M  V30 17273 C 1593.34 -0.542786 -5.23393 0
M  V30 17274 O 1592.36 -1.20512 -5.56296 0
M  V30 17275 N 1593.56 0.681466 -5.76486 0
M  V30 17276 H 1596.33 -1.70294 -2.46617 0
M  V30 17277 H 1593.89 -1.03596 -1.24417 0
M  V30 17278 H 1595.88 0.281703 -4.03718 0
M  V30 17279 H 1594.45 0.67811 -3.05156 0
M  V30 17280 H 1593.67 -1.76182 -3.52638 0
M  V30 17281 H 1594.96 -1.84623 -4.74122 0
M  V30 17282 H 1594.36 1.23819 -5.51983 0
M  V30 17283 H 1592.91 1.04914 -6.43301 0
M  V30 17284 N 1596.35 1.26749 -0.936613 0
M  V30 17285 C 1597.6 1.9358 -0.580605 0
M  V30 17286 C 1597.92 1.7389 0.882446 0
M  V30 17287 O 1597.19 1.09185 1.62652 0
M  V30 17288 H 1595.77 0.716363 -0.211739 0
M  V30 17289 H 1598.43 1.54281 -1.19095 0
M  V30 17290 H 1597.53 3.01819 -0.79448 0
M  V30 17291 N 1597.83 0.703118 1.41046 0
M  V30 17292 C 1599.24 0.375417 1.55122 0
M  V30 17293 C 1599.44 -1.11696 1.67709 0
M  V30 17294 O 1598.5 -1.90289 1.65971 0
M  V30 17295 C 1599.81 1.13056 2.78638 0
M  V30 17296 C 1601.36 1.11564 2.92442 0
M  V30 17297 C 1601.83 1.85268 4.18855 0
M  V30 17298 N 1603.33 1.82275 4.25829 0
M  V30 17299 C 1604.06 2.36137 5.2252 0
M  V30 17300 N 1603.56 2.98502 6.25195 0
M  V30 17301 N 1605.35 2.26349 5.14512 0
M  V30 17302 H 1597.5 1.67096 1.31121 0
M  V30 17303 H 1599.76 0.705573 0.633144 0
M  V30 17304 H 1599.47 2.18524 2.75572 0
M  V30 17305 H 1599.34 0.714037 3.7038 0
M  V30 17306 H 1601.73 0.0691901 2.95019 0
M  V30 17307 H 1601.81 1.57128 2.01853 0
M  V30 17308 H 1601.46 2.89896 4.1704 0
M  V30 17309 H 1601.39 1.37133 5.08431 0
M  V30 17310 H 1603.88 1.36812 3.52265 0
M  V30 17311 H 1604.19 3.37149 6.95378 0
M  V30 17312 H 1602.53 3.02582 6.25675 0
M  V30 17313 H 1605.73 1.77294 4.33226 0
M  V30 17314 H 1605.9 2.68629 5.89697 0
M  V30 17315 N 1599.3 -1.51086 0.448402 0
M  V30 17316 C 1600.53 -2.06593 -0.112695 0
M  V30 17317 C 1600.95 -1.31471 -1.35502 0
M  V30 17318 O 1600.3 -0.377406 -1.78555 0
M  V30 17319 C 1600.36 -3.59008 -0.423769 0
M  V30 17320 O 1600.08 -4.31293 0.769259 0
M  V30 17321 C 1601.58 -4.31064 -1.03433 0
M  V30 17322 H 1598.8 -0.670993 -0.00301626 0
M  V30 17323 H 1601.34 -1.94532 0.630667 0
M  V30 17324 H 1599.5 -3.70946 -1.11704 0
M  V30 17325 H 1599.91 -5.2211 0.500162 0
M  V30 17326 H 1601.38 -5.38756 -1.20191 0
M  V30 17327 H 1601.86 -3.90075 -2.01837 0
M  V30 17328 H 1602.47 -4.23598 -0.380115 0
M  V30 17329 N 1600.78 -0.180154 -1.56567 0
M  V30 17330 C 1602.03 0.462656 -1.96322 0
M  V30 17331 C 1602.34 1.63788 -1.06925 0
M  V30 17332 O 1603.55 2.34751 -1.36398 0
M  V30 17333 C 1602.01 0.874492 -3.49114 0
M  V30 17334 C 1601.61 -0.27562 -4.47151 0
M  V30 17335 C 1603.36 1.48522 -3.9767 0
M  V30 17336 C 1601.27 0.156341 -5.91193 0
M  V30 17337 H 1600.2 0.176619 -0.733022 0
M  V30 17338 H 1602.85 -0.269793 -1.81506 0
M  V30 17339 H 1601.23 1.66318 -3.59381 0
M  V30 17340 H 1602.4 -1.05304 -4.48606 0
M  V30 17341 H 1600.72 -0.796878 -4.08704 0
M  V30 17342 H 1603.31 1.8206 -5.02751 0
M  V30 17343 H 1603.66 2.38634 -3.41115 0
M  V30 17344 H 1604.19 0.760806 -3.90457 0
M  V30 17345 H 1600.93 -0.710221 -6.51641 0
M  V30 17346 H 1600.45 0.898933 -5.93025 0
M  V30 17347 H 1602.13 0.597228 -6.44238 0
M  V30 17348 N 1602.26 1.57322 0.0935319 0
M  V30 17349 C 1603.51 1.85353 0.795445 0
M  V30 17350 C 1603.82 0.769647 1.79822 0
M  V30 17351 O 1605.03 0.937121 2.54814 0
M  V30 17352 C 1603.48 3.28711 1.4655 0
M  V30 17353 C 1603.09 4.45174 0.502415 0
M  V30 17354 C 1604.84 3.65965 2.15105 0
M  V30 17355 C 1602.74 5.79566 1.17715 0
M  V30 17356 H 1601.67 0.691394 0.300816 0
M  V30 17357 H 1604.32 1.83436 0.0484063 0
M  V30 17358 H 1602.71 3.25173 2.26005 0
M  V30 17359 H 1603.88 4.60062 -0.260754 0
M  V30 17360 H 1602.2 4.16328 -0.0775186 0
M  V30 17361 H 1604.79 4.63655 2.66323 0
M  V30 17362 H 1605.14 2.94667 2.94069 0
M  V30 17363 H 1605.67 3.71398 1.42508 0
M  V30 17364 H 1602.41 6.54099 0.428277 0
M  V30 17365 H 1601.93 5.68519 1.9117 0
M  V30 17366 H 1603.61 6.2418 1.70318 0
M  V30 17367 N 1603.74 -0.364395 1.53329 0
M  V30 17368 C 1604.67 -1.45243 1.8283 0
M  V30 17369 C 1605.65 -1.55834 0.681886 0
M  V30 17370 O 1606.83 -1.70383 0.931845 0
M  V30 17371 C 1603.96 -2.82565 2.01926 0
M  V30 17372 C 1602.92 -2.86797 3.17697 0
M  V30 17373 C 1602.24 -4.26806 3.22089 0
M  V30 17374 C 1603.54 -2.54212 4.56261 0
M  V30 17375 H 1605.24 -1.20804 2.73946 0
M  V30 17376 H 1602.78 -0.579705 1.31816 0
M  V30 17377 H 1604.74 -3.58709 2.21147 0
M  V30 17378 H 1603.46 -3.08394 1.07521 0
M  V30 17379 H 1602.12 -2.13105 2.98298 0
M  V30 17380 H 1601.77 -4.49712 2.25318 0
M  V30 17381 H 1601.47 -4.30553 3.99873 0
M  V30 17382 H 1602.99 -5.04821 3.43495 0
M  V30 17383 H 1604.41 -3.20069 4.75635 0
M  V30 17384 H 1602.8 -2.69273 5.36295 0
M  V30 17385 H 1603.87 -1.49458 4.61292 0
M  V30 17386 N 1605.22 -1.44709 -0.62426 0
M  V30 17387 C 1606.44 -1.51573 -1.41564 0
M  V30 17388 C 1606.87 -0.143806 -1.87549 0
M  V30 17389 O 1606.22 0.868361 -1.59151 0
M  V30 17390 C 1606.27 -2.49085 -2.60747 0
M  V30 17391 O 1605.38 -1.99712 -3.60817 0
M  V30 17392 H 1604.72 -0.51157 -0.423311 0
M  V30 17393 H 1607.25 -1.89908 -0.761316 0
M  V30 17394 H 1607.26 -2.67346 -3.08205 0
M  V30 17395 H 1605.93 -3.48733 -2.26624 0
M  V30 17396 H 1604.51 -1.9125 -3.20122 0
M  V30 17397 N 1606.69 0.865285 -1.31722 0
M  V30 17398 C 1607.92 1.65137 -1.24649 0
M  V30 17399 C 1608.34 1.87868 0.187391 0
M  V30 17400 O 1607.69 1.44015 1.12098 0
M  V30 17401 C 1607.75 3.0167 -1.99193 0
M  V30 17402 O 1607.47 2.79951 -3.36985 0
M  V30 17403 C 1608.97 3.96115 -1.99017 0
M  V30 17404 H 1606.19 0.514683 -0.430514 0
M  V30 17405 H 1608.73 1.07971 -1.73674 0
M  V30 17406 H 1606.89 3.55511 -1.53918 0
M  V30 17407 H 1607.3 3.66706 -3.75002 0
M  V30 17408 H 1608.77 4.89217 -2.55677 0
M  V30 17409 H 1609.25 4.28268 -0.973815 0
M  V30 17410 H 1609.86 3.4821 -2.44192 0
M  V30 17411 N 1608.17 1.14759 1.0802 0
M  V30 17412 C 1609.12 0.806682 2.13253 0
M  V30 17413 C 1610.11 -0.205966 1.59576 0
M  V30 17414 O 1611.3 -0.00771878 1.76998 0
M  V30 17415 C 1608.43 0.290219 3.42071 0
M  V30 17416 C 1607.51 1.33262 4.02619 0
M  V30 17417 N 1607.9 2.53793 4.37519 0
M  V30 17418 C 1606.2 1.18377 4.30003 0
M  V30 17419 C 1606.9 3.20554 4.85407 0
M  V30 17420 N 1605.88 2.47951 4.83757 0
M  V30 17421 H 1609.68 1.72351 2.3806 0
M  V30 17422 H 1607.2 1.03203 1.25391 0
M  V30 17423 H 1609.19 0.0276782 4.16891 0
M  V30 17424 H 1607.85 -0.620751 3.18711 0
M  V30 17425 H 1608.86 2.9099 4.28422 0
M  V30 17426 H 1605.54 0.332142 4.16177 0
M  V30 17427 H 1606.93 4.23342 5.21758 0
M  V30 17428 N 1609.65 -1.26251 0.943322 0
M  V30 17429 C 1610.6 -2.23996 0.425437 0
M  V30 17430 C 1611.58 -1.53604 -0.479033 0
M  V30 17431 O 1612.78 -1.74194 -0.313929 0
M  V30 17432 C 1609.91 -3.41932 -0.306175 0
M  V30 17433 C 1608.99 -4.19607 0.615711 0
M  V30 17434 N 1609.38 -4.7484 1.74243 0
M  V30 17435 C 1607.68 -4.44002 0.421711 0
M  V30 17436 C 1608.38 -5.3356 2.31709 0
M  V30 17437 N 1607.36 -5.1937 1.60487 0
M  V30 17438 H 1611.16 -2.64296 1.28549 0
M  V30 17439 H 1608.67 -1.4136 0.799446 0
M  V30 17440 H 1610.67 -4.11079 -0.694243 0
M  V30 17441 H 1609.33 -3.03159 -1.16297 0
M  V30 17442 H 1610.34 -4.72318 2.12453 0
M  V30 17443 H 1607.02 -4.15645 -0.393138 0
M  V30 17444 H 1608.41 -5.87151 3.26654 0
M  V30 17445 N 1611.13 -0.710588 -1.40671 0
M  V30 17446 C 1612.06 -0.00399749 -2.282 0
M  V30 17447 C 1613.04 0.772757 -1.43064 0
M  V30 17448 O 1614.22 0.760441 -1.72481 0
M  V30 17449 C 1611.35 1.00173 -3.23548 0
M  V30 17450 C 1610.4 0.316378 -4.25325 0
M  V30 17451 S 1611.23 -0.952126 -5.26968 0
M  V30 17452 C 1612.39 0.0516252 -6.25879 0
M  V30 17453 H 1612.62 -0.746334 -2.8778 0
M  V30 17454 H 1610.15 -0.50142 -1.46031 0
M  V30 17455 H 1612.11 1.57679 -3.79009 0
M  V30 17456 H 1610.77 1.71674 -2.63034 0
M  V30 17457 H 1609.96 1.07649 -4.92369 0
M  V30 17458 H 1609.57 -0.185995 -3.73537 0
M  V30 17459 H 1611.86 0.900088 -6.71494 0
M  V30 17460 H 1612.8 -0.585297 -7.05677 0
M  V30 17461 H 1613.21 0.413117 -5.62986 0
M  V30 17462 N 1612.61 1.50847 -0.456408 0
M  V30 17463 C 1613.88 1.94907 0.164485 0
M  V30 17464 C 1614.26 1.39609 1.58343 0
M  V30 17465 O 1613.61 0.590971 2.20726 0
M  V30 17466 C 1613.82 3.48784 0.122794 0
M  V30 17467 C 1615.17 4.234 0.318964 0
M  V30 17468 O 1616.19 3.55638 0.20005 0
M  V30 17469 O 1615.05 5.43649 0.557507 0
M  V30 17470 H 1612.15 0.818298 0.119652 0
M  V30 17471 H 1614.69 1.61673 -0.515758 0
M  V30 17472 H 1613.47 3.81541 -0.868468 0
M  V30 17473 H 1613.09 3.88514 0.84513 0
M  V30 17474 N 1614.09 0.188454 1.56469 0
M  V30 17475 C 1615 -0.747176 2.22384 0
M  V30 17476 C 1616.01 -1.23985 1.22081 0
M  V30 17477 O 1617.19 -1.2884 1.54797 0
M  V30 17478 C 1614.25 -1.95228 2.86508 0
M  V30 17479 C 1613.31 -1.50482 4.02062 0
M  V30 17480 C 1612.55 -2.65248 4.63119 0
M  V30 17481 O 1612.77 -3.8256 4.23088 0
M  V30 17482 O 1611.7 -2.38341 5.527 0
M  V30 17483 H 1615.53 -0.215857 3.02932 0
M  V30 17484 H 1613.11 -0.0405356 1.49345 0
M  V30 17485 H 1615 -2.65673 3.27103 0
M  V30 17486 H 1613.67 -2.47233 2.08944 0
M  V30 17487 H 1612.58 -0.769365 3.66103 0
M  V30 17488 H 1613.91 -1.03151 4.8127 0
M  V30 17489 N 1615.56 -1.5737 -0.0851874 0
M  V30 17490 C 1616.53 -2.01789 -1.08692 0
M  V30 17491 C 1617.53 -0.912872 -1.32376 0
M  V30 17492 O 1618.72 -1.1781 -1.28322 0
M  V30 17493 C 1615.85 -2.38708 -2.43375 0
M  V30 17494 H 1617.04 -2.91511 -0.704359 0
M  V30 17495 H 1614.59 -1.52765 -0.330528 0
M  V30 17496 H 1615.33 -1.5197 -2.86488 0
M  V30 17497 H 1615.11 -3.19331 -2.2753 0
M  V30 17498 H 1616.6 -2.73697 -3.15404 0
M  V30 17499 N 1617.04 0.356258 -1.53521 0
M  V30 17500 C 1618.32 1.11414 -1.60768 0
M  V30 17501 C 1618.7 2.0686 -0.420991 0
M  V30 17502 O 1618.05 2.20807 0.587929 0
M  V30 17503 C 1618.26 1.84503 -2.96243 0
M  V30 17504 C 1619.6 2.38703 -3.5115 0
M  V30 17505 O 1620.63 1.94617 -2.98333 0
M  V30 17506 O 1619.49 3.19322 -4.43504 0
M  V30 17507 H 1616.58 0.511623 -0.649747 0
M  V30 17508 H 1619.13 0.358772 -1.65864 0
M  V30 17509 H 1617.9 1.14898 -3.74051 0
M  V30 17510 H 1617.52 2.66927 -2.94679 0
M  V30 17511 N 1618.52 1.45038 0.616577 0
M  V30 17512 C 1619.77 1.48805 1.37786 0
M  V30 17513 C 1620.1 0.125811 1.93792 0
M  V30 17514 O 1619.37 -0.858544 1.74526 0
M  V30 17515 C 1619.66 2.56008 2.53242 0
M  V30 17516 C 1619.51 4.01643 2.02491 0
M  V30 17517 C 1620.83 2.59578 3.55398 0
M  V30 17518 H 1617.95 0.541776 0.499647 0
M  V30 17519 H 1620.59 1.76799 0.695859 0
M  V30 17520 H 1618.74 2.32269 3.11422 0
M  V30 17521 H 1620.41 4.36564 1.4903 0
M  V30 17522 H 1618.65 4.12728 1.33559 0
M  V30 17523 H 1619.33 4.72326 2.85679 0
M  V30 17524 H 1621.8 2.80826 3.07044 0
M  V30 17525 H 1620.68 3.36466 4.33684 0
M  V30 17526 H 1620.94 1.64325 4.10426 0
M  V30 17527 N 1620 -0.858287 1.32179 0
M  V30 17528 C 1620.93 -1.98219 1.23415 0
M  V30 17529 C 1621.91 -1.69685 0.118779 0
M  V30 17530 O 1623.09 -1.91785 0.305342 0
M  V30 17531 C 1620.22 -3.33977 0.952725 0
M  V30 17532 C 1619.18 -3.76853 2.02894 0
M  V30 17533 C 1618.5 -5.10201 1.59999 0
M  V30 17534 C 1619.8 -3.92707 3.44352 0
M  V30 17535 H 1621.5 -2.05809 2.17446 0
M  V30 17536 H 1619.04 -0.988817 1.04682 0
M  V30 17537 H 1621 -4.12152 0.87798 0
M  V30 17538 H 1619.72 -3.26592 -0.023234 0
M  V30 17539 H 1618.38 -3.00926 2.09378 0
M  V30 17540 H 1618.03 -4.99268 0.61157 0
M  V30 17541 H 1617.73 -5.39859 2.32004 0
M  V30 17542 H 1619.25 -5.90873 1.53954 0
M  V30 17543 H 1620.67 -4.61246 3.40477 0
M  V30 17544 H 1619.06 -4.33779 4.14675 0
M  V30 17545 H 1620.13 -2.95731 3.8428 0
M  V30 17546 N 1621.48 -1.1533 -1.07409 0
M  V30 17547 C 1622.72 -0.925974 -1.79639 0
M  V30 17548 C 1623.04 0.548365 -1.87131 0
M  V30 17549 O 1622.31 1.39854 -1.37178 0
M  V30 17550 H 1620.89 -0.339599 -0.665343 0
M  V30 17551 H 1623.56 -1.45383 -1.29806 0
M  V30 17552 H 1622.65 -1.33484 -2.82114 0
M  V30 17553 N 1622.95 1.25748 -0.950004 0
M  V30 17554 C 1624.23 1.88566 -0.519839 0
M  V30 17555 C 1624.61 1.85761 1.00279 0
M  V30 17556 O 1623.96 1.31797 1.8666 0
M  V30 17557 C 1624.17 3.31502 -1.09121 0
M  V30 17558 C 1625.52 4.08298 -1.16524 0
M  V30 17559 O 1626.54 3.40605 -1.04243 0
M  V30 17560 O 1625.4 5.29375 -1.35735 0
M  V30 17561 H 1622.49 0.809175 -0.170777 0
M  V30 17562 H 1625.04 1.33853 -1.04314 0
M  V30 17563 H 1623.81 3.2795 -2.13458 0
M  V30 17564 H 1623.43 3.93765 -0.550881 0
M  V30 17565 N 1624.43 0.718038 1.40292 0
M  V30 17566 C 1625.85 0.391848 1.54715 0
M  V30 17567 C 1626.05 -1.09911 1.68884 0
M  V30 17568 O 1625.1 -1.88518 1.6798 0
M  V30 17569 C 1626.42 1.16005 2.77423 0
M  V30 17570 C 1627.96 1.14659 2.91243 0
M  V30 17571 C 1628.44 1.897 4.16867 0
M  V30 17572 N 1629.93 1.86781 4.23872 0
M  V30 17573 C 1630.67 2.41665 5.19986 0
M  V30 17574 N 1630.16 3.05116 6.21994 0
M  V30 17575 N 1631.95 2.31794 5.12082 0
M  V30 17576 H 1624.11 1.68477 1.29342 0
M  V30 17577 H 1626.37 0.712248 0.625625 0
M  V30 17578 H 1626.07 2.21435 2.73239 0
M  V30 17579 H 1625.95 0.75328 3.69602 0
M  V30 17580 H 1628.34 0.100477 2.94929 0
M  V30 17581 H 1628.42 1.5926 2.00175 0
M  V30 17582 H 1628.06 2.94303 4.13942 0
M  V30 17583 H 1627.99 1.42518 5.06948 0
M  V30 17584 H 1630.48 1.40541 3.50794 0
M  V30 17585 H 1630.79 3.44505 6.91763 0
M  V30 17586 H 1629.14 3.09201 6.22431 0
M  V30 17587 H 1632.33 1.81879 4.31321 0
M  V30 17588 H 1632.5 2.74868 5.86815 0
M  V30 17589 N 1625.91 -1.50602 0.464402 0
M  V30 17590 C 1627.16 -2.01478 -0.0945398 0
M  V30 17591 C 1627.47 -1.35165 -1.41386 0
M  V30 17592 O 1628.68 -1.7716 -2.05735 0
M  V30 17593 C 1627.13 -3.59233 -0.219003 0
M  V30 17594 C 1626.74 -4.345 1.09148 0
M  V30 17595 C 1628.49 -4.18172 -0.730262 0
M  V30 17596 C 1626.39 -5.84023 0.931179 0
M  V30 17597 H 1625.32 -0.752985 -0.0391065 0
M  V30 17598 H 1627.97 -1.73473 0.598283 0
M  V30 17599 H 1626.36 -3.83798 -0.975455 0
M  V30 17600 H 1627.53 -4.21665 1.85837 0
M  V30 17601 H 1625.85 -3.8714 1.53334 0
M  V30 17602 H 1628.44 -5.27622 -0.867119 0
M  V30 17603 H 1628.79 -3.79113 -1.71986 0
M  V30 17604 H 1629.32 -3.97788 -0.0313808 0
M  V30 17605 H 1626.06 -6.27543 1.89395 0
M  V30 17606 H 1625.58 -5.99451 0.20456 0
M  V30 17607 H 1627.26 -6.44257 0.595118 0
M  V30 17608 N 1627.39 -0.19675 -1.56367 0
M  V30 17609 C 1628.35 0.709734 -2.17934 0
M  V30 17610 C 1629.35 1.13979 -1.13426 0
M  V30 17611 O 1630.54 1.05261 -1.38801 0
M  V30 17612 C 1627.67 1.96917 -2.78274 0
M  V30 17613 H 1628.87 0.173342 -2.99399 0
M  V30 17614 H 1626.42 0.0528698 -1.56211 0
M  V30 17615 H 1627.15 2.54804 -2.00613 0
M  V30 17616 H 1626.94 1.66951 -3.54781 0
M  V30 17617 H 1628.43 2.61554 -3.25545 0
M  V30 17618 N 1628.87 1.57413 0.0768405 0
M  V30 17619 C 1630.12 1.86186 0.775741 0
M  V30 17620 C 1630.43 0.788676 1.78995 0
M  V30 17621 O 1631.63 0.964095 2.53806 0
M  V30 17622 C 1630.09 3.30247 1.43055 0
M  V30 17623 C 1629.7 4.45682 0.45517 0
M  V30 17624 C 1631.44 3.68225 2.11211 0
M  V30 17625 C 1629.35 5.80782 1.11561 0
M  V30 17626 H 1628.28 0.694546 0.293466 0
M  V30 17627 H 1630.93 1.83477 0.0289478 0
M  V30 17628 H 1629.31 3.27552 2.22544 0
M  V30 17629 H 1630.49 4.59759 -0.309535 0
M  V30 17630 H 1628.8 4.16222 -0.121671 0
M  V30 17631 H 1631.4 4.66454 2.6139 0
M  V30 17632 H 1631.74 2.9777 2.90928 0
M  V30 17633 H 1632.27 3.72888 1.38561 0
M  V30 17634 H 1629.01 6.54517 0.358877 0
M  V30 17635 H 1628.53 5.70515 1.8513 0
M  V30 17636 H 1630.21 6.25951 1.63689 0
M  V30 17637 N 1630.34 -0.348112 1.53707 0
M  V30 17638 C 1631.59 -1.08626 1.69951 0
M  V30 17639 C 1631.91 -1.89944 0.466992 0
M  V30 17640 O 1633.11 -2.66661 0.51029 0
M  V30 17641 C 1631.57 -1.98052 3.00505 0
M  V30 17642 C 1631.18 -1.21963 4.31079 0
M  V30 17643 C 1632.92 -2.71752 3.26115 0
M  V30 17644 C 1630.83 -2.10392 5.52711 0
M  V30 17645 H 1629.76 -0.409241 0.633275 0
M  V30 17646 H 1632.41 -0.346051 1.80207 0
M  V30 17647 H 1630.79 -2.75874 2.84094 0
M  V30 17648 H 1631.96 -0.490831 4.58178 0
M  V30 17649 H 1630.28 -0.600511 4.12047 0
M  V30 17650 H 1632.88 -3.38174 4.14177 0
M  V30 17651 H 1633.22 -3.38072 2.42926 0
M  V30 17652 H 1633.75 -2.01005 3.43281 0
M  V30 17653 H 1630.49 -1.48622 6.38429 0
M  V30 17654 H 1630.01 -2.81074 5.29866 0
M  V30 17655 H 1631.69 -2.69551 5.88176 0
M  V30 17656 N 1631.82 -1.45363 -0.608876 0
M  V30 17657 C 1633.05 -1.53066 -1.39949 0
M  V30 17658 C 1633.47 -0.16369 -1.87386 0
M  V30 17659 O 1632.83 0.851432 -1.60064 0
M  V30 17660 C 1632.88 -2.51836 -2.58091 0
M  V30 17661 O 1631.98 -2.03528 -3.58678 0
M  V30 17662 H 1631.32 -0.516031 -0.417861 0
M  V30 17663 H 1633.85 -1.90705 -0.74113 0
M  V30 17664 H 1633.86 -2.706 -3.05352 0
M  V30 17665 H 1632.54 -3.51117 -2.22912 0
M  V30 17666 H 1631.12 -1.94634 -3.18075 0
M  V30 17667 N 1633.3 0.851265 -1.32632 0
M  V30 17668 C 1634.25 1.94828 -1.18431 0
M  V30 17669 C 1635.23 1.60646 -0.090361 0
M  V30 17670 O 1636.43 1.74134 -0.317212 0
M  V30 17671 C 1633.56 3.30937 -0.913006 0
M  V30 17672 C 1632.64 3.71328 -2.04882 0
M  V30 17673 N 1633.03 3.83517 -3.2977 0
M  V30 17674 C 1631.33 4.00979 -1.95274 0
M  V30 17675 C 1632.03 4.18341 -4.04185 0
M  V30 17676 N 1631.01 4.30043 -3.32512 0
M  V30 17677 H 1634.81 2.0239 -2.13109 0
M  V30 17678 H 1632.32 1.04323 -1.2446 0
M  V30 17679 H 1634.32 4.09304 -0.792221 0
M  V30 17680 H 1632.98 3.2469 0.0253611 0
M  V30 17681 H 1633.99 3.67749 -3.64666 0
M  V30 17682 H 1630.67 4.03015 -1.0902 0
M  V30 17683 H 1632.06 4.35213 -5.11898 0
M  V30 17684 N 1634.78 1.15898 1.06796 0
M  V30 17685 C 1636.03 0.935488 1.79145 0
M  V30 17686 C 1636.35 -0.538433 1.87419 0
M  V30 17687 O 1635.62 -1.39124 1.37917 0
M  V30 17688 H 1634.2 0.343123 0.663533 0
M  V30 17689 H 1636.86 1.4607 1.29034 0
M  V30 17690 H 1635.96 1.34978 2.81402 0
M  V30 17691 N 1636.26 -1.25243 0.956659 0
M  V30 17692 C 1637.2 -2.25811 0.477292 0
M  V30 17693 C 1638.17 -1.59273 -0.471301 0
M  V30 17694 O 1639.36 -1.86894 -0.384105 0
M  V30 17695 C 1636.5 -3.44286 -0.236891 0
M  V30 17696 C 1635.61 -4.25454 0.749177 0
M  V30 17697 C 1634.75 -5.31199 0.012228 0
M  V30 17698 C 1633.79 -6.04056 0.989094 0
M  V30 17699 N 1632.92 -7.0153 0.282883 0
M  V30 17700 H 1637.76 -2.66185 1.33977 0
M  V30 17701 H 1635.3 -1.30862 0.671832 0
M  V30 17702 H 1637.26 -4.11825 -0.66755 0
M  V30 17703 H 1635.89 -3.04781 -1.06339 0
M  V30 17704 H 1634.94 -3.57558 1.29831 0
M  V30 17705 H 1636.25 -4.75883 1.49454 0
M  V30 17706 H 1635.41 -6.04822 -0.476968 0
M  V30 17707 H 1634.14 -4.81648 -0.76591 0
M  V30 17708 H 1633.15 -5.29245 1.48927 0
M  V30 17709 H 1634.37 -6.55695 1.76749 0
M  V30 17710 H 1632.32 -6.54267 -0.476479 0
M  V30 17711 H 1632.24 -7.49786 0.967304 0
M  V30 17712 H 1633.51 -7.79281 -0.184709 0
M  V30 17713 N 1637.73 -0.725468 -1.3991 0
M  V30 17714 C 1638.66 -0.094211 -2.3331 0
M  V30 17715 C 1639.65 0.734728 -1.53414 0
M  V30 17716 O 1640.83 0.681647 -1.81844 0
M  V30 17717 C 1637.96 0.820958 -3.37457 0
M  V30 17718 C 1636.91 0.0968983 -4.2789 0
M  V30 17719 C 1636.24 1.12845 -5.22657 0
M  V30 17720 C 1637.54 -1.05483 -5.11537 0
M  V30 17721 H 1639.23 -0.874365 -2.86348 0
M  V30 17722 H 1636.78 -0.421913 -1.3768 0
M  V30 17723 H 1638.73 1.27203 -4.01743 0
M  V30 17724 H 1637.46 1.63312 -2.82837 0
M  V30 17725 H 1636.12 -0.334454 -3.65071 0
M  V30 17726 H 1635.76 1.93392 -4.64337 0
M  V30 17727 H 1635.46 0.648805 -5.84007 0
M  V30 17728 H 1636.99 1.57942 -5.89819 0
M  V30 17729 H 1638.4 -0.682657 -5.69221 0
M  V30 17730 H 1636.8 -1.46349 -5.81981 0
M  V30 17731 H 1637.87 -1.88095 -4.46932 0
M  V30 17732 N 1639.21 1.50354 -0.472382 0
M  V30 17733 C 1640.45 2.0424 0.0808914 0
M  V30 17734 C 1640.82 1.34648 1.36871 0
M  V30 17735 O 1642.02 1.79096 2.00444 0
M  V30 17736 C 1640.29 3.56459 0.259192 0
M  V30 17737 S 1641.85 4.31976 0.770836 0
M  V30 17738 H 1638.67 0.710834 0.015346 0
M  V30 17739 H 1641.27 1.84734 -0.639816 0
M  V30 17740 H 1639.97 4.04662 -0.683865 0
M  V30 17741 H 1639.5 3.80321 1.00598 0
M  V30 17742 H 1641.52 4.52142 2.04406 0
M  V30 17743 N 1640.69 0.205039 1.56261 0
M  V30 17744 C 1641.93 -0.433144 1.99758 0
M  V30 17745 C 1642.3 -1.58109 1.08929 0
M  V30 17746 O 1643.5 -2.28415 1.41703 0
M  V30 17747 C 1641.77 -0.872197 3.46594 0
M  V30 17748 S 1643.33 -1.50682 4.12117 0
M  V30 17749 H 1640.14 -0.138137 0.697452 0
M  V30 17750 H 1642.75 0.310446 1.93019 0
M  V30 17751 H 1641.45 -0.0267951 4.10391 0
M  V30 17752 H 1640.98 -1.64901 3.57171 0
M  V30 17753 H 1643 -2.79573 4.09943 0
M  V30 17754 N 1642.17 -1.57451 -0.0684915 0
M  V30 17755 C 1643.42 -1.87689 -0.768156 0
M  V30 17756 C 1643.75 -0.79776 -1.77058 0
M  V30 17757 O 1643.02 0.191614 -1.93554 0
M  V30 17758 C 1643.31 -3.28587 -1.47319 0
M  V30 17759 C 1643.16 -4.47156 -0.486954 0
M  V30 17760 C 1644.48 -3.67772 -2.41727 0
M  V30 17761 H 1641.6 -0.682642 -0.277793 0
M  V30 17762 H 1644.24 -1.89974 -0.0312968 0
M  V30 17763 H 1642.39 -3.26769 -2.10129 0
M  V30 17764 H 1644.06 -4.61099 0.136189 0
M  V30 17765 H 1642.3 -4.33351 0.197429 0
M  V30 17766 H 1642.98 -5.42533 -1.01795 0
M  V30 17767 H 1645.45 -3.70704 -1.88992 0
M  V30 17768 H 1644.33 -4.6724 -2.88059 0
M  V30 17769 H 1644.59 -2.97882 -3.26679 0
M  V30 17770 N 1643.65 0.339955 -1.5389 0
M  V30 17771 C 1644.9 1.07766 -1.7097 0
M  V30 17772 C 1645.22 1.89064 -0.477486 0
M  V30 17773 O 1644.49 1.89183 0.508579 0
M  V30 17774 H 1643.07 0.400849 -0.630341 0
M  V30 17775 H 1645.73 0.380359 -1.91153 0
M  V30 17776 H 1644.82 1.75301 -2.58217 0
M  V30 17777 N 1645.13 1.45684 0.601159 0
M  V30 17778 C 1646.35 1.53806 1.39135 0
M  V30 17779 C 1646.78 0.173625 1.87297 0
M  V30 17780 O 1646.13 -0.842931 1.60513 0
M  V30 17781 C 1646.18 2.53201 2.56752 0
M  V30 17782 O 1645.29 2.05427 3.57594 0
M  V30 17783 H 1644.63 0.51824 0.415118 0
M  V30 17784 H 1647.16 1.91095 0.731006 0
M  V30 17785 H 1647.17 2.72215 3.03912 0
M  V30 17786 H 1645.84 3.52294 2.21047 0
M  V30 17787 H 1644.42 1.96318 3.17039 0
M  V30 17788 N 1646.6 -0.84422 1.33082 0
M  V30 17789 C 1647.83 -1.63654 1.27405 0
M  V30 17790 C 1648.25 -1.87476 -0.153146 0
M  V30 17791 O 1647.61 -1.43502 -1.10801 0
M  V30 17792 C 1647.66 -2.96698 2.04945 0
M  V30 17793 O 1646.76 -3.87751 1.40439 0
M  V30 17794 H 1646.1 -0.498545 0.438576 0
M  V30 17795 H 1648.63 -1.0507 1.7556 0
M  V30 17796 H 1648.64 -3.46438 2.1551 0
M  V30 17797 H 1647.32 -2.78682 3.08722 0
M  V30 17798 H 1645.9 -3.46231 1.38487 0
M  V30 17799 N 1648.08 -1.16463 -1.0618 0
M  V30 17800 C 1649.01 -0.895399 -2.1565 0
M  V30 17801 C 1649.99 0.158729 -1.69358 0
M  V30 17802 O 1651.18 0.010586 -1.94197 0
M  V30 17803 C 1648.31 -0.396959 -3.45024 0
M  V30 17804 C 1647.26 -1.38913 -4.0483 0
M  V30 17805 C 1646.59 -0.749043 -5.29427 0
M  V30 17806 C 1647.89 -2.7591 -4.43476 0
M  V30 17807 H 1649.58 -1.81085 -2.38429 0
M  V30 17808 H 1647.13 -0.872098 -1.14588 0
M  V30 17809 H 1649.08 -0.196086 -4.20944 0
M  V30 17810 H 1647.8 0.554002 -3.21867 0
M  V30 17811 H 1646.46 -1.57657 -3.30968 0
M  V30 17812 H 1646.11 0.208439 -5.02568 0
M  V30 17813 H 1645.81 -1.41128 -5.704 0
M  V30 17814 H 1647.34 -0.558217 -6.08043 0
M  V30 17815 H 1648.75 -2.60942 -5.10473 0
M  V30 17816 H 1647.15 -3.38618 -4.95437 0
M  V30 17817 H 1648.22 -3.31076 -3.54284 0
M  V30 17818 N 1649.56 1.24734 -0.963288 0
M  V30 17819 C 1650.81 1.92686 -0.622766 0
M  V30 17820 C 1651.13 1.75357 0.841442 0
M  V30 17821 O 1650.39 1.09757 1.62025 0
M  V30 17822 C 1650.69 3.44867 -0.938151 0
M  V30 17823 C 1650.35 3.82361 -2.38979 0
M  V30 17824 C 1649.02 3.92307 -2.78655 0
M  V30 17825 C 1651.37 4.00775 -3.3321 0
M  V30 17826 C 1648.7 4.1808 -4.11614 0
M  V30 17827 C 1651.05 4.28043 -4.65792 0
M  V30 17828 C 1649.71 4.36207 -5.05252 0
M  V30 17829 H 1648.98 0.705088 -0.227886 0
M  V30 17830 H 1651.63 1.48107 -1.21395 0
M  V30 17831 H 1649.93 3.90905 -0.264676 0
M  V30 17832 H 1651.63 3.95645 -0.653134 0
M  V30 17833 H 1648.22 3.75182 -2.07212 0
M  V30 17834 H 1652.41 3.92497 -3.03743 0
M  V30 17835 H 1647.66 4.22619 -4.41818 0
M  V30 17836 H 1651.84 4.41236 -5.3878 0
M  V30 17837 H 1649.46 4.55931 -6.08301 0
M  V30 17838 N 1651.04 0.732878 1.39523 0
M  V30 17839 C 1651.97 0.106583 2.33257 0
M  V30 17840 C 1652.95 -0.726582 1.53801 0
M  V30 17841 O 1654.13 -0.671994 1.82203 0
M  V30 17842 C 1651.26 -0.803051 3.37888 0
M  V30 17843 C 1650.22 -0.0742048 4.27936 0
M  V30 17844 C 1649.54 -1.10071 5.23248 0
M  V30 17845 C 1650.84 1.08195 5.10971 0
M  V30 17846 H 1652.54 0.889539 2.8588 0
M  V30 17847 H 1650.08 0.429209 1.37455 0
M  V30 17848 H 1652.04 -1.25071 4.02412 0
M  V30 17849 H 1650.76 -1.6181 2.83699 0
M  V30 17850 H 1649.42 0.35381 3.64889 0
M  V30 17851 H 1649.07 -1.90927 4.65356 0
M  V30 17852 H 1648.77 -0.617825 5.84343 0
M  V30 17853 H 1650.29 -1.54812 5.90649 0
M  V30 17854 H 1651.71 0.712835 5.68851 0
M  V30 17855 H 1650.1 1.49433 5.81197 0
M  V30 17856 H 1651.17 1.90463 4.45928 0
M  V30 17857 N 1652.52 -1.50101 0.480349 0
M  V30 17858 C 1653.46 -2.28722 -0.308993 0
M  V30 17859 C 1654.43 -1.34186 -0.978948 0
M  V30 17860 O 1655.62 -1.6313 -0.989602 0
M  V30 17861 C 1652.76 -3.16322 -1.37966 0
M  V30 17862 C 1651.87 -4.25898 -0.723552 0
M  V30 17863 C 1651.01 -5.00741 -1.7729 0
M  V30 17864 C 1650.04 -6.0218 -1.09754 0
M  V30 17865 N 1649.18 -6.70266 -2.09015 0
M  V30 17866 H 1654.02 -2.95722 0.367739 0
M  V30 17867 H 1651.56 -1.45826 0.193197 0
M  V30 17868 H 1653.52 -3.65469 -2.01217 0
M  V30 17869 H 1652.15 -2.51349 -2.02543 0
M  V30 17870 H 1651.2 -3.80394 0.0217507 0
M  V30 17871 H 1652.51 -4.98435 -0.190905 0
M  V30 17872 H 1651.66 -5.53653 -2.48098 0
M  V30 17873 H 1650.4 -4.27931 -2.33937 0
M  V30 17874 H 1649.41 -5.48519 -0.375123 0
M  V30 17875 H 1650.63 -6.76967 -0.537841 0
M  V30 17876 H 1648.58 -6.00242 -2.64662 0
M  V30 17877 H 1648.5 -7.3871 -1.6076 0
M  V30 17878 H 1649.76 -7.27792 -2.79175 0
M  V30 17879 N 1653.99 -0.213323 -1.5615 0
M  V30 17880 C 1654.94 0.716708 -2.21283 0
M  V30 17881 C 1655.94 1.20599 -1.18963 0
M  V30 17882 O 1657.14 1.16677 -1.37064 0
M  V30 17883 H 1653.52 0.249524 -0.709395 0
M  V30 17884 H 1655.49 0.14385 -2.98053 0
M  V30 17885 C 1654.24 1.91775 -2.9003 0
M  V30 17886 H 1653.56 1.55036 -3.68516 0
M  V30 17887 H 1655 2.54646 -3.39016 0
M  V30 17888 C 1653.46 2.768 -1.92051 0
M  V30 17889 O 1653.99 3.75299 -1.43225 0
M  V30 17890 N 1652.19 2.42666 -1.5988 0
M  V30 17891 H 1651.74 1.62622 -1.99779 0
M  V30 17892 H 1651.7 2.99836 -0.945833 0
M  V30 17893 N 1655.47 1.57485 0.0601405 0
M  V30 17894 C 1656.4 2.01233 1.09717 0
M  V30 17895 C 1657.42 0.92008 1.34307 0
M  V30 17896 O 1658.61 1.19783 1.32342 0
M  V30 17897 C 1655.71 2.3461 2.44564 0
M  V30 17898 C 1654.88 3.65828 2.39768 0
M  V30 17899 C 1653.94 3.86743 3.56814 0
M  V30 17900 O 1652.96 4.5819 3.37714 0
M  V30 17901 N 1654.17 3.29988 4.77586 0
M  V30 17902 H 1656.93 2.9081 0.724526 0
M  V30 17903 H 1654.49 1.5998 0.248613 0
M  V30 17904 H 1656.48 2.45764 3.21531 0
M  V30 17905 H 1655.05 1.50862 2.73787 0
M  V30 17906 H 1654.27 3.65319 1.48107 0
M  V30 17907 H 1655.56 4.51966 2.33675 0
M  V30 17908 H 1654.96 2.72018 4.96007 0
M  V30 17909 H 1653.52 3.46573 5.52024 0
M  V30 17910 N 1656.95 -0.331789 1.54068 0
M  V30 17911 C 1657.88 -1.41332 1.8587 0
M  V30 17912 C 1658.86 -1.54353 0.714787 0
M  V30 17913 O 1660.05 -1.68368 0.967777 0
M  V30 17914 C 1657.18 -2.78218 2.07875 0
M  V30 17915 C 1656.13 -2.79994 3.23709 0
M  V30 17916 C 1655.46 -4.19878 3.31069 0
M  V30 17917 C 1656.76 -2.44476 4.6155 0
M  V30 17918 H 1658.45 -1.14966 2.76447 0
M  V30 17919 H 1656 -0.551615 1.33016 0
M  V30 17920 H 1657.95 -3.53937 2.28706 0
M  V30 17921 H 1656.67 -3.06044 1.14038 0
M  V30 17922 H 1655.33 -2.0673 3.02751 0
M  V30 17923 H 1654.98 -4.44831 2.34807 0
M  V30 17924 H 1654.68 -4.21974 4.08915 0
M  V30 17925 H 1656.2 -4.97421 3.54125 0
M  V30 17926 H 1657.62 -3.09908 4.82317 0
M  V30 17927 H 1656.02 -2.57837 5.41886 0
M  V30 17928 H 1657.09 -1.3964 4.64358 0
M  V30 17929 N 1658.43 -1.46001 -0.593424 0
M  V30 17930 C 1659.68 -1.50457 -1.34933 0
M  V30 17931 C 1660 -0.153383 -1.94396 0
M  V30 17932 O 1659.27 0.818894 -1.77963 0
M  V30 17933 H 1657.85 -0.554119 -0.50096 0
M  V30 17934 H 1660.51 -1.82057 -0.695798 0
M  V30 17935 H 1659.61 -2.25131 -2.16154 0
M  V30 17936 N 1659.91 0.83715 -1.33527 0
M  V30 17937 C 1661.13 1.62456 -1.28124 0
M  V30 17938 C 1661.55 1.88223 0.147499 0
M  V30 17939 O 1660.91 1.4636 1.09018 0
M  V30 17940 C 1660.96 2.97376 -2.05547 0
M  V30 17941 O 1660.68 2.7274 -3.42847 0
M  V30 17942 C 1662.18 3.91805 -2.07374 0
M  V30 17943 H 1659.4 0.505436 -0.441334 0
M  V30 17944 H 1661.94 1.04263 -1.75925 0
M  V30 17945 H 1660.1 3.52166 -1.61424 0
M  V30 17946 H 1660.51 3.58669 -3.82696 0
M  V30 17947 H 1661.99 4.83684 -2.65996 0
M  V30 17948 H 1662.46 4.26106 -1.06444 0
M  V30 17949 H 1663.07 3.42952 -2.51523 0
M  V30 17950 N 1661.38 1.17024 1.05561 0
M  V30 17951 C 1662.63 0.954436 1.78143 0
M  V30 17952 C 1662.95 -0.518525 1.8798 0
M  V30 17953 O 1662.22 -1.37654 1.39385 0
M  V30 17954 H 1660.8 0.350141 0.659856 0
M  V30 17955 H 1663.47 1.4743 1.27477 0
M  V30 17956 H 1662.56 1.37955 2.79955 0
M  V30 17957 N 1662.86 -1.24221 0.969889 0
M  V30 17958 C 1664.09 -1.96118 0.649715 0
M  V30 17959 C 1664.5 -1.72127 -0.785436 0
M  V30 17960 O 1663.84 -1.00319 -1.53889 0
M  V30 17961 C 1663.91 -3.49374 0.847236 0
M  V30 17962 C 1663.57 -3.97067 2.26244 0
M  V30 17963 C 1664.57 -4.06568 3.24034 0
M  V30 17964 C 1662.25 -4.30333 2.59072 0
M  V30 17965 C 1664.25 -4.48672 4.52738 0
M  V30 17966 C 1661.93 -4.72121 3.88001 0
M  V30 17967 C 1662.93 -4.81256 4.84646 0
M  V30 17968 O 1662.62 -5.22109 6.11275 0
M  V30 17969 H 1662.35 -0.63149 0.24124 0
M  V30 17970 H 1664.9 -1.58948 1.30095 0
M  V30 17971 H 1663.13 -3.86451 0.138828 0
M  V30 17972 H 1664.82 -4.0248 0.525817 0
M  V30 17973 H 1665.59 -3.81083 3.00002 0
M  V30 17974 H 1661.47 -4.22441 1.84565 0
M  V30 17975 H 1665.01 -4.55717 5.28174 0
M  V30 17976 H 1660.91 -4.97054 4.11834 0
M  V30 17977 H 1661.68 -5.40252 6.14874 0
M  V30 17978 N 1664.34 -0.740267 -1.39132 0
M  V30 17979 C 1665.57 -0.300494 -2.04403 0
M  V30 17980 C 1665.98 1.07148 -1.55936 0
M  V30 17981 O 1665.32 1.68929 -0.72172 0
M  V30 17982 C 1665.38 -0.229797 -3.58765 0
M  V30 17983 C 1665.05 -1.54111 -4.30231 0
M  V30 17984 C 1666.04 -2.48781 -4.56513 0
M  V30 17985 C 1663.73 -1.80686 -4.68677 0
M  V30 17986 C 1665.72 -3.68255 -5.20256 0
M  V30 17987 C 1663.41 -3.00437 -5.32147 0
M  V30 17988 C 1664.41 -3.94043 -5.5787 0
M  V30 17989 O 1664.1 -5.1169 -6.20023 0
M  V30 17990 H 1663.83 -0.128309 -0.663711 0
M  V30 17991 H 1666.38 -1.00624 -1.79064 0
M  V30 17992 H 1664.61 0.532089 -3.83022 0
M  V30 17993 H 1666.3 0.178681 -4.05507 0
M  V30 17994 H 1667.07 -2.29521 -4.27253 0
M  V30 17995 H 1662.95 -1.08669 -4.48009 0
M  V30 17996 H 1666.49 -4.41334 -5.4025 0
M  V30 17997 H 1662.39 -3.19595 -5.60829 0
M  V30 17998 H 1663.16 -5.12095 -6.38515 0
M  V30 17999 N 1665.82 1.49844 -0.488302 0
M  V30 18000 C 1666.75 2.31737 0.286432 0
M  V30 18001 C 1667.73 1.39424 0.974418 0
M  V30 18002 O 1668.91 1.68339 0.968274 0
M  V30 18003 C 1666.04 3.19616 1.35878 0
M  V30 18004 C 1665 4.20619 0.791409 0
M  V30 18005 C 1664.32 4.9735 1.96333 0
M  V30 18006 C 1665.62 5.21882 -0.208975 0
M  V30 18007 H 1667.32 2.96755 -0.397092 0
M  V30 18008 H 1664.86 1.42709 -0.192413 0
M  V30 18009 H 1666.82 3.75711 1.90838 0
M  V30 18010 H 1665.54 2.52516 2.07131 0
M  V30 18011 H 1664.2 3.65651 0.263647 0
M  V30 18012 H 1663.85 4.26708 2.66325 0
M  V30 18013 H 1663.55 5.65684 1.58983 0
M  V30 18014 H 1665.07 5.56286 2.51751 0
M  V30 18015 H 1666.49 5.72746 0.252049 0
M  V30 18016 H 1664.88 5.98033 -0.497638 0
M  V30 18017 H 1665.95 4.7157 -1.12916 0
M  V30 18018 N 1667.3 0.221601 1.56034 0
M  V30 18019 C 1668.52 -0.414945 2.02696 0
M  V30 18020 C 1668.94 -1.53344 1.10141 0
M  V30 18021 O 1668.3 -1.82162 0.111026 0
M  V30 18022 C 1668.35 -0.946532 3.48888 0
M  V30 18023 O 1668.07 0.12737 4.37915 0
M  V30 18024 C 1669.57 -1.65631 4.11195 0
M  V30 18025 H 1666.79 -0.101548 0.663271 0
M  V30 18026 H 1669.33 0.338069 2.01686 0
M  V30 18027 H 1667.49 -1.64982 3.50514 0
M  V30 18028 H 1667.9 -0.272211 5.23793 0
M  V30 18029 H 1669.38 -1.98027 5.15257 0
M  V30 18030 H 1669.85 -2.56947 3.56195 0
M  V30 18031 H 1670.46 -0.998231 4.13419 0
M  V30 18032 N 1668.77 -1.57515 -0.0517878 0
M  V30 18033 C 1669.7 -2.0809 -1.05929 0
M  V30 18034 C 1670.69 -0.978529 -1.39136 0
M  V30 18035 O 1671.87 -1.25245 -1.48416 0
M  V30 18036 C 1669 -2.54147 -2.36699 0
M  V30 18037 C 1667.95 -3.68442 -2.17794 0
M  V30 18038 C 1667.28 -4.00624 -3.54125 0
M  V30 18039 C 1668.58 -4.97743 -1.5827 0
M  V30 18040 H 1670.27 -2.92515 -0.638371 0
M  V30 18041 H 1667.82 -1.40719 -0.305625 0
M  V30 18042 H 1669.77 -2.88145 -3.07491 0
M  V30 18043 H 1668.5 -1.66775 -2.80809 0
M  V30 18044 H 1667.16 -3.34758 -1.4944 0
M  V30 18045 H 1666.8 -3.10353 -3.95841 0
M  V30 18046 H 1666.5 -4.77597 -3.42308 0
M  V30 18047 H 1668.03 -4.37136 -4.26315 0
M  V30 18048 H 1669.44 -5.29843 -2.18951 0
M  V30 18049 H 1667.84 -5.79173 -1.57094 0
M  V30 18050 H 1668.91 -4.81815 -0.546127 0
M  V30 18051 N 1670.25 0.323614 -1.54242 0
M  V30 18052 C 1671.5 1.06314 -1.727 0
M  V30 18053 C 1671.83 1.87674 -0.499225 0
M  V30 18054 O 1671.11 1.87862 0.503805 0
M  V30 18055 C 1671.39 1.9879 -3.00258 0
M  V30 18056 C 1671.24 1.2076 -4.33286 0
M  V30 18057 C 1672.56 2.98314 -3.23569 0
M  V30 18058 H 1669.68 0.385101 -0.628384 0
M  V30 18059 H 1672.32 0.339801 -1.86937 0
M  V30 18060 H 1670.47 2.60468 -2.88251 0
M  V30 18061 H 1672.15 0.615425 -4.57176 0
M  V30 18062 H 1670.39 0.509878 -4.30793 0
M  V30 18063 H 1671.06 1.88662 -5.18759 0
M  V30 18064 H 1673.54 2.46757 -3.35037 0
M  V30 18065 H 1672.41 3.60204 -4.14179 0
M  V30 18066 H 1672.67 3.7077 -2.40795 0
M  V30 18067 N 1671.73 1.46313 0.585673 0
M  V30 18068 C 1672.68 1.56653 1.69495 0
M  V30 18069 C 1673.65 0.411007 1.60935 0
M  V30 18070 O 1674.83 0.627369 1.80191 0
M  V30 18071 C 1671.97 1.55996 3.0783 0
M  V30 18072 C 1671.09 2.82261 3.27036 0
M  V30 18073 C 1670.22 2.73129 4.55603 0
M  V30 18074 C 1669.26 3.94346 4.68143 0
M  V30 18075 N 1668.4 3.83617 5.88032 0
M  V30 18076 H 1673.24 2.51407 1.59995 0
M  V30 18077 H 1670.77 1.24729 0.779821 0
M  V30 18078 H 1672.73 1.53602 3.87895 0
M  V30 18079 H 1671.36 0.647766 3.16234 0
M  V30 18080 H 1670.41 2.94648 2.40596 0
M  V30 18081 H 1671.73 3.72107 3.32171 0
M  V30 18082 H 1670.88 2.68823 5.43893 0
M  V30 18083 H 1669.62 1.80917 4.52902 0
M  V30 18084 H 1668.62 3.98987 3.78272 0
M  V30 18085 H 1669.85 4.8765 4.72625 0
M  V30 18086 H 1667.8 2.9419 5.86334 0
M  V30 18087 H 1667.71 4.67117 5.94422 0
M  V30 18088 H 1668.98 3.83281 6.7876 0
M  V30 18089 N 1673.21 -0.830057 1.33969 0
M  V30 18090 C 1674.16 -1.94049 1.24955 0
M  V30 18091 C 1675.13 -1.65619 0.126279 0
M  V30 18092 O 1676.31 -1.88329 0.306049 0
M  V30 18093 C 1673.45 -3.30182 1.00367 0
M  V30 18094 C 1672.56 -3.70952 2.21402 0
M  V30 18095 C 1671.7 -4.95998 1.90157 0
M  V30 18096 C 1670.74 -5.29327 3.07374 0
M  V30 18097 N 1669.88 -6.45551 2.76059 0
M  V30 18098 H 1674.72 -2.01091 2.19923 0
M  V30 18099 H 1672.25 -0.983918 1.0935 0
M  V30 18100 H 1674.21 -4.08625 0.841516 0
M  V30 18101 H 1672.84 -3.22673 0.090692 0
M  V30 18102 H 1671.89 -2.8796 2.48563 0
M  V30 18103 H 1673.2 -3.91558 3.09004 0
M  V30 18104 H 1672.36 -5.8221 1.70636 0
M  V30 18105 H 1671.1 -4.77379 0.998045 0
M  V30 18106 H 1670.1 -4.41616 3.27499 0
M  V30 18107 H 1671.33 -5.4989 3.98495 0
M  V30 18108 H 1669.27 -6.28401 1.88275 0
M  V30 18109 H 1669.19 -6.66295 3.57193 0
M  V30 18110 H 1670.46 -7.34851 2.60026 0
M  V30 18111 N 1674.69 -1.17582 -1.04939 0
M  V30 18112 C 1675.96 -0.875638 -1.74906 0
M  V30 18113 C 1676.34 0.62353 -2.01681 0
M  V30 18114 O 1675.69 1.57558 -1.65492 0
M  V30 18115 C 1675.9 -1.71334 -3.04049 0
M  V30 18116 C 1677.25 -1.93489 -3.77951 0
M  V30 18117 O 1678.27 -1.68314 -3.13925 0
M  V30 18118 O 1677.13 -2.35815 -4.93005 0
M  V30 18119 H 1674.23 -0.324451 -0.760697 0
M  V30 18120 H 1676.77 -1.2829 -1.11084 0
M  V30 18121 H 1675.55 -2.73003 -2.80331 0
M  V30 18122 H 1675.17 -1.30401 -3.75608 0
M  V30 18123 N 1676.17 1.23705 -0.976463 0
M  V30 18124 C 1677.41 1.92299 -0.64412 0
M  V30 18125 C 1677.74 1.7605 0.819767 0
M  V30 18126 O 1677.02 1.11902 1.59086 0
M  V30 18127 C 1677.3 3.45042 -1.03044 0
M  V30 18128 C 1677.16 3.70418 -2.55167 0
M  V30 18129 C 1678.47 4.36374 -0.571444 0
M  V30 18130 H 1675.59 0.698369 -0.235478 0
M  V30 18131 H 1678.24 1.45904 -1.21704 0
M  V30 18132 H 1676.39 3.84687 -0.54294 0
M  V30 18133 H 1678.06 3.40278 -3.11462 0
M  V30 18134 H 1676.3 3.15266 -2.97976 0
M  V30 18135 H 1676.97 4.77323 -2.77248 0
M  V30 18136 H 1679.45 4.04153 -0.989936 0
M  V30 18137 H 1678.32 5.41958 -0.870226 0
M  V30 18138 H 1678.58 4.38932 0.528318 0
M  V30 18139 N 1677.64 0.747635 1.38738 0
M  V30 18140 C 1678.55 0.117879 2.34304 0
M  V30 18141 C 1679.57 -0.707488 1.58967 0
M  V30 18142 O 1680.75 -0.633025 1.91193 0
M  V30 18143 C 1677.81 -0.769223 3.38059 0
M  V30 18144 C 1676.87 0.0698358 4.29243 0
M  V30 18145 C 1676.1 -0.775021 5.28043 0
M  V30 18146 O 1676.33 -2.01328 5.33688 0
M  V30 18147 O 1675.26 -0.196978 6.01578 0
M  V30 18148 H 1679.09 0.906972 2.89841 0
M  V30 18149 H 1676.67 0.508453 1.40482 0
M  V30 18150 H 1678.55 -1.27641 4.01604 0
M  V30 18151 H 1677.23 -1.53691 2.84887 0
M  V30 18152 H 1676.14 0.622836 3.68879 0
M  V30 18153 H 1677.47 0.80004 4.85654 0
M  V30 18154 N 1679.12 -1.49583 0.496242 0
M  V30 18155 C 1680.35 -2.07342 -0.0490986 0
M  V30 18156 C 1680.77 -1.35474 -1.30493 0
M  V30 18157 O 1680.13 -0.410005 -1.76603 0
M  V30 18158 C 1680.18 -3.59427 -0.290601 0
M  V30 18159 O 1679.28 -3.89111 -1.36626 0
M  V30 18160 H 1678.62 -0.663562 0.0241141 0
M  V30 18161 H 1681.15 -1.92452 0.6945 0
M  V30 18162 H 1681.16 -4.04627 -0.523549 0
M  V30 18163 H 1679.84 -4.11147 0.626959 0
M  V30 18164 H 1678.41 -3.55726 -1.11864 0
M  V30 18165 N 1680.6 -0.229873 -1.55915 0
M  V30 18166 C 1681.82 0.4072 -2.03363 0
M  V30 18167 C 1682.25 1.5197 -1.10845 0
M  V30 18168 O 1681.61 1.81034 -0.098175 0
M  V30 18169 C 1681.66 0.908268 -3.48974 0
M  V30 18170 O 1680.76 2.01907 -3.59593 0
M  V30 18171 H 1680.1 0.091091 -0.657722 0
M  V30 18172 H 1682.63 -0.350947 -2.01568 0
M  V30 18173 H 1682.64 1.21593 -3.8946 0
M  V30 18174 H 1681.32 0.0940655 -4.15794 0
M  V30 18175 H 1679.89 1.71741 -3.30998 0
M  V30 18176 N 1682.08 1.5754 0.0434337 0
M  V30 18177 C 1683.01 2.08648 1.04824 0
M  V30 18178 C 1683.99 0.985894 1.38615 0
M  V30 18179 O 1685.17 1.2603 1.4775 0
M  V30 18180 C 1682.3 2.55399 2.35348 0
M  V30 18181 C 1681.26 3.69592 2.15837 0
M  V30 18182 C 1680.58 4.02497 3.51995 0
M  V30 18183 C 1681.88 4.98575 1.55629 0
M  V30 18184 H 1683.58 2.9285 0.622849 0
M  V30 18185 H 1681.12 1.40879 0.298158 0
M  V30 18186 H 1683.08 2.89771 3.05958 0
M  V30 18187 H 1681.8 1.68262 2.7992 0
M  V30 18188 H 1680.46 3.35546 1.47663 0
M  V30 18189 H 1680.11 3.12448 3.94189 0
M  V30 18190 H 1679.81 4.79406 3.39771 0
M  V30 18191 H 1681.33 4.39391 4.23991 0
M  V30 18192 H 1682.75 5.30996 2.16138 0
M  V30 18193 H 1681.14 5.79998 1.54021 0
M  V30 18194 H 1682.21 4.82098 0.520567 0
M  V30 18195 N 1683.56 -0.31543 1.54411 0
M  V30 18196 C 1684.78 -1.0761 1.77299 0
M  V30 18197 C 1685.21 -1.80655 0.523963 0
M  V30 18198 O 1684.56 -1.73536 -0.524874 0
M  V30 18199 C 1684.61 -2.04355 2.97105 0
M  V30 18200 O 1683.72 -3.12401 2.69219 0
M  V30 18201 H 1683.06 -0.30986 0.587267 0
M  V30 18202 H 1685.59 -0.357246 2.01457 0
M  V30 18203 H 1685.6 -2.47081 3.24677 0
M  V30 18204 H 1684.27 -1.50592 3.87679 0
M  V30 18205 H 1682.85 -2.74294 2.52621 0
M  V30 18206 N 1685.03 -1.46622 -0.577906 0
M  V30 18207 C 1686.26 -1.56 -1.36671 0
M  V30 18208 C 1686.68 -0.2034 -1.86997 0
M  V30 18209 O 1686.04 0.817288 -1.61834 0
M  V30 18210 C 1686.09 -2.57254 -2.52691 0
M  V30 18211 O 1685.19 -2.1109 -3.54281 0
M  V30 18212 H 1684.54 -0.524779 -0.406821 0
M  V30 18213 H 1687.07 -1.92234 -0.700512 0
M  V30 18214 H 1687.08 -2.77016 -2.99543 0
M  V30 18215 H 1685.75 -3.55766 -2.15415 0
M  V30 18216 H 1684.33 -2.01337 -3.13875 0
M  V30 18217 N 1686.51 0.822941 -1.34408 0
M  V30 18218 C 1687.75 1.59269 -1.28112 0
M  V30 18219 C 1688.12 1.91437 0.146924 0
M  V30 18220 O 1689.32 2.66716 0.334053 0
M  V30 18221 C 1687.59 2.85727 -2.14698 0
M  V30 18222 S 1689.15 3.76272 -2.25754 0
M  V30 18223 H 1685.97 0.545903 -0.455534 0
M  V30 18224 H 1688.57 0.972069 -1.6962 0
M  V30 18225 H 1687.27 2.60092 -3.17459 0
M  V30 18226 H 1686.8 3.52786 -1.74086 0
M  V30 18227 H 1688.82 4.75138 -1.43031 0
M  V30 18228 N 1687.99 1.18137 1.04314 0
M  V30 18229 C 1689.41 0.930523 1.29667 0
M  V30 18230 C 1689.61 -0.405336 1.97381 0
M  V30 18231 O 1688.66 -1.14025 2.25288 0
M  V30 18232 C 1689.98 2.09427 2.1578 0
M  V30 18233 C 1691.52 2.13229 2.29134 0
M  V30 18234 C 1692 3.29014 3.18612 0
M  V30 18235 N 1693.49 3.28859 3.26199 0
M  V30 18236 C 1694.22 4.15092 3.95583 0
M  V30 18237 N 1693.72 5.11453 4.67319 0
M  V30 18238 N 1695.51 4.03014 3.91837 0
M  V30 18239 H 1687.66 2.04108 0.587669 0
M  V30 18240 H 1689.93 0.89171 0.321804 0
M  V30 18241 H 1689.63 3.06023 1.73328 0
M  V30 18242 H 1689.51 2.0528 3.16449 0
M  V30 18243 H 1691.89 1.17212 2.70823 0
M  V30 18244 H 1691.98 2.21435 1.28064 0
M  V30 18245 H 1691.62 4.25302 2.77635 0
M  V30 18246 H 1691.55 3.18045 4.19708 0
M  V30 18247 H 1694.04 2.59097 2.75095 0
M  V30 18248 H 1694.35 5.7363 5.1785 0
M  V30 18249 H 1692.7 5.15415 4.66232 0
M  V30 18250 H 1695.89 3.27021 3.34925 0
M  V30 18251 H 1696.06 4.70435 4.4564 0
M  V30 18252 N 1689.47 -1.23186 0.98301 0
M  V30 18253 C 1690.42 -2.26762 0.517846 0
M  V30 18254 C 1691.41 -1.63944 -0.426459 0
M  V30 18255 O 1692.62 -1.77481 -0.300065 0
M  V30 18256 H 1688.99 -0.737082 0.149042 0
M  V30 18257 H 1690.96 -2.63356 1.40307 0
M  V30 18258 C 1689.71 -3.47324 -0.16157 0
M  V30 18259 H 1689.03 -3.95915 0.555973 0
M  V30 18260 H 1690.47 -4.21598 -0.450644 0
M  V30 18261 C 1688.93 -3.06722 -1.39366 0
M  V30 18262 O 1689.46 -3.15239 -2.48973 0
M  V30 18263 N 1687.67 -2.61609 -1.26528 0
M  V30 18264 H 1687.22 -2.54879 -0.373449 0
M  V30 18265 H 1687.17 -2.34809 -2.09074 0
M  V30 18266 N 1690.95 -0.754982 -1.38339 0
M  V30 18267 C 1692.17 -0.321355 -2.04895 0
M  V30 18268 C 1692.6 1.04249 -1.56569 0
M  V30 18269 O 1691.95 1.66464 -0.718299 0
M  V30 18270 C 1692 -0.354873 -3.5885 0
M  V30 18271 O 1691.11 0.65063 -4.07235 0
M  V30 18272 H 1690.45 -0.142033 -0.648631 0
M  V30 18273 H 1692.98 -1.02649 -1.76987 0
M  V30 18274 H 1692.99 -0.206243 -4.07478 0
M  V30 18275 H 1691.66 -1.34994 -3.93382 0
M  V30 18276 H 1690.24 0.466498 -3.69971 0
M  V30 18277 N 1692.42 1.49318 -0.504168 0
M  V30 18278 C 1693.65 2.07365 0.038102 0
M  V30 18279 C 1694.07 1.36164 1.29773 0
M  V30 18280 O 1693.43 0.419365 1.76383 0
M  V30 18281 C 1693.48 3.59576 0.271535 0
M  V30 18282 O 1692.58 3.8983 1.34561 0
M  V30 18283 H 1691.93 0.663425 -0.0276328 0
M  V30 18284 H 1694.46 1.92081 -0.704696 0
M  V30 18285 H 1694.47 4.04899 0.502083 0
M  V30 18286 H 1693.14 4.10809 -0.648754 0
M  V30 18287 H 1691.72 3.56314 1.09976 0
M  V30 18288 N 1693.9 0.238138 1.5579 0
M  V30 18289 C 1695.13 -0.396409 2.03576 0
M  V30 18290 C 1695.55 -1.5138 1.11649 0
M  V30 18291 O 1694.91 -1.80979 0.107774 0
M  V30 18292 C 1694.96 -0.889749 3.49451 0
M  V30 18293 O 1694.06 -1.99997 3.60659 0
M  V30 18294 H 1693.4 -0.0876017 0.658196 0
M  V30 18295 H 1695.93 0.361632 2.01379 0
M  V30 18296 H 1695.94 -1.19526 3.901 0
M  V30 18297 H 1694.62 -0.0720136 4.15838 0
M  V30 18298 H 1693.2 -1.69983 3.31904 0
M  V30 18299 N 1695.38 -1.57561 -0.0350783 0
M  V30 18300 C 1696.61 -1.93251 -0.73903 0
M  V30 18301 C 1697.02 -0.83739 -1.69214 0
M  V30 18302 O 1696.38 0.186669 -1.81543 0
M  V30 18303 C 1696.43 -3.28853 -1.50127 0
M  V30 18304 O 1696.15 -4.34157 -0.586426 0
M  V30 18305 C 1697.65 -3.78788 -2.30292 0
M  V30 18306 H 1694.87 -0.63793 -0.208053 0
M  V30 18307 H 1697.42 -2.04499 0.00560398 0
M  V30 18308 H 1695.57 -3.1902 -2.19784 0
M  V30 18309 H 1695.99 -5.12395 -1.12034 0
M  V30 18310 H 1697.46 -4.76197 -2.79178 0
M  V30 18311 H 1697.94 -3.09671 -3.11449 0
M  V30 18312 H 1698.54 -3.91684 -1.65721 0
M  V30 18313 N 1696.86 0.307236 -1.54576 0
M  V30 18314 C 1698.1 1.04476 -1.73818 0
M  V30 18315 C 1698.44 1.87134 -0.519102 0
M  V30 18316 O 1697.71 1.88386 0.483852 0
M  V30 18317 C 1698 1.95594 -3.02349 0
M  V30 18318 C 1697.85 1.16158 -4.34543 0
M  V30 18319 C 1699.17 2.94865 -3.26715 0
M  V30 18320 H 1696.29 0.378415 -0.632433 0
M  V30 18321 H 1698.93 0.319955 -1.87287 0
M  V30 18322 H 1697.08 2.57396 -2.90997 0
M  V30 18323 H 1698.75 0.5669 -4.57803 0
M  V30 18324 H 1696.99 0.464158 -4.3131 0
M  V30 18325 H 1697.66 1.8315 -5.2073 0
M  V30 18326 H 1700.14 2.4319 -3.37636 0
M  V30 18327 H 1699.02 3.55791 -4.17976 0
M  V30 18328 H 1699.28 3.68195 -2.44714 0
M  V30 18329 N 1698.34 1.46926 0.570122 0
M  V30 18330 C 1699.56 1.56722 1.35841 0
M  V30 18331 C 1699.99 0.213314 1.86887 0
M  V30 18332 O 1699.34 -0.808694 1.62265 0
M  V30 18333 C 1699.39 2.5859 2.51323 0
M  V30 18334 O 1698.5 2.12966 3.53156 0
M  V30 18335 H 1697.84 0.526929 0.404032 0
M  V30 18336 H 1700.37 1.92603 0.690308 0
M  V30 18337 H 1700.38 2.78601 2.9807 0
M  V30 18338 H 1699.05 3.56903 2.13525 0
M  V30 18339 H 1697.63 2.02999 3.12803 0
M  V30 18340 N 1699.82 -0.815801 1.34842 0
M  V30 18341 C 1701.05 -1.60164 1.30503 0
M  V30 18342 C 1701.45 -1.88809 -0.121561 0
M  V30 18343 O 1700.8 -1.48511 -1.08121 0
M  V30 18344 C 1700.86 -2.96361 2.03495 0
M  V30 18345 C 1700.52 -2.90577 3.52724 0
M  V30 18346 C 1701.52 -2.6466 4.47495 0
M  V30 18347 C 1699.2 -3.09985 3.9524 0
M  V30 18348 C 1701.2 -2.58212 5.82757 0
M  V30 18349 C 1698.89 -3.03161 5.306 0
M  V30 18350 C 1699.88 -2.77309 6.2417 0
M  V30 18351 O 1699.57 -2.70431 7.57048 0
M  V30 18352 H 1699.3 -0.504321 0.450151 0
M  V30 18353 H 1701.86 -1.02254 1.78139 0
M  V30 18354 H 1700.09 -3.56219 1.50483 0
M  V30 18355 H 1701.78 -3.57429 1.92353 0
M  V30 18356 H 1702.54 -2.49394 4.15966 0
M  V30 18357 H 1698.42 -3.2912 3.22801 0
M  V30 18358 H 1701.97 -2.37954 6.55762 0
M  V30 18359 H 1697.86 -3.17982 5.61745 0
M  V30 18360 H 1698.63 -2.86107 7.66867 0
M  V30 18361 N 1701.29 -1.18689 -1.03686 0
M  V30 18362 C 1702.22 -0.94094 -2.13702 0
M  V30 18363 C 1703.2 0.12277 -1.69656 0
M  V30 18364 O 1704.39 -0.0306085 -1.94176 0
M  V30 18365 C 1701.52 -0.470054 -3.44104 0
M  V30 18366 C 1700.47 -1.47468 -4.01792 0
M  V30 18367 C 1699.8 -0.861174 -5.2772 0
M  V30 18368 C 1701.1 -2.85254 -4.37524 0
M  V30 18369 H 1702.79 -1.86102 -2.34534 0
M  V30 18370 H 1700.34 -0.896207 -1.12713 0
M  V30 18371 H 1702.29 -0.28533 -4.20433 0
M  V30 18372 H 1701.02 0.485604 -3.2297 0
M  V30 18373 H 1699.68 -1.64641 -3.2755 0
M  V30 18374 H 1699.32 0.10179 -5.02897 0
M  V30 18375 H 1699.02 -1.53196 -5.67278 0
M  V30 18376 H 1700.55 -0.687066 -6.06722 0
M  V30 18377 H 1701.96 -2.71711 -5.04823 0
M  V30 18378 H 1700.36 -3.49051 -4.88143 0
M  V30 18379 H 1701.43 -3.38516 -3.47181 0
M  V30 18380 N 1702.77 1.22662 -0.989529 0
M  V30 18381 C 1703.72 2.24466 -0.536994 0
M  V30 18382 C 1704.69 1.60467 0.428907 0
M  V30 18383 O 1705.87 1.87846 0.334418 0
M  V30 18384 C 1703.01 3.44793 0.145526 0
M  V30 18385 C 1702.13 4.23318 -0.861716 0
M  V30 18386 C 1701.26 5.30979 -0.153062 0
M  V30 18387 C 1700.3 6.01221 -1.1489 0
M  V30 18388 N 1699.44 7.00533 -0.468782 0
M  V30 18389 H 1704.28 2.62539 -1.40987 0
M  V30 18390 H 1701.81 1.29035 -0.706291 0
M  V30 18391 H 1703.77 4.1345 0.558128 0
M  V30 18392 H 1702.4 3.07494 0.982213 0
M  V30 18393 H 1701.45 3.5399 -1.39266 0
M  V30 18394 H 1702.77 4.71753 -1.62019 0
M  V30 18395 H 1701.92 6.05874 0.316443 0
M  V30 18396 H 1700.66 4.8351 0.63794 0
M  V30 18397 H 1699.66 5.25111 -1.62907 0
M  V30 18398 H 1700.89 6.50779 -1.94072 0
M  V30 18399 H 1698.84 6.55301 0.302844 0
M  V30 18400 H 1698.75 7.46958 -1.16576 0
M  V30 18401 H 1700.02 7.79497 -0.0219686 0
M  V30 18402 N 1704.25 0.762308 1.37937 0
M  V30 18403 C 1705.2 0.140412 2.30372 0
M  V30 18404 C 1706.17 -0.700152 1.50622 0
M  V30 18405 O 1707.35 -0.654474 1.79224 0
M  V30 18406 C 1704.49 -0.740056 3.37071 0
M  V30 18407 C 1703.6 0.116084 4.31844 0
M  V30 18408 C 1702.74 -0.768203 5.25616 0
M  V30 18409 C 1701.78 0.0910442 6.12032 0
M  V30 18410 N 1700.92 -0.75069 6.98075 0
M  V30 18411 H 1705.76 0.934224 2.82977 0
M  V30 18412 H 1703.29 0.472316 1.39311 0
M  V30 18413 H 1705.25 -1.26525 3.97551 0
M  V30 18414 H 1703.88 -1.49956 2.85855 0
M  V30 18415 H 1702.93 0.758999 3.72751 0
M  V30 18416 H 1704.24 0.779285 4.92675 0
M  V30 18417 H 1703.4 -1.36024 5.91255 0
M  V30 18418 H 1702.14 -1.46511 4.65173 0
M  V30 18419 H 1701.14 0.695687 5.45381 0
M  V30 18420 H 1702.37 0.785145 6.74546 0
M  V30 18421 H 1700.31 -1.43239 6.40171 0
M  V30 18422 H 1700.23 -0.144579 7.55862 0
M  V30 18423 H 1701.5 -1.32742 7.68114 0
M  V30 18424 N 1705.73 -1.49049 0.51208 0
M  V30 18425 C 1706.64 -2.33102 -0.264695 0
M  V30 18426 C 1707.65 -1.45347 -0.956571 0
M  V30 18427 O 1708.83 -1.78355 -0.935501 0
M  V30 18428 C 1705.89 -3.21051 -1.30871 0
M  V30 18429 C 1704.96 -4.24666 -0.629094 0
M  V30 18430 C 1704.19 -5.08412 -1.62337 0
M  V30 18431 O 1704.41 -4.93847 -2.85432 0
M  V30 18432 O 1703.35 -5.90368 -1.17259 0
M  V30 18433 H 1707.17 -3.00732 0.423585 0
M  V30 18434 H 1704.76 -1.4688 0.273246 0
M  V30 18435 H 1706.64 -3.75503 -1.91248 0
M  V30 18436 H 1705.31 -2.56103 -1.97972 0
M  V30 18437 H 1704.22 -3.74097 0.0147056 0
M  V30 18438 H 1705.55 -4.922 -0.000339859 0
M  V30 18439 N 1707.21 -0.246397 -1.55662 0
M  V30 18440 C 1708.48 0.42879 -1.90842 0
M  V30 18441 C 1708.86 1.75905 -1.16707 0
M  V30 18442 O 1708.21 2.26723 -0.284391 0
M  V30 18443 C 1708.42 0.597368 -3.4385 0
M  V30 18444 C 1709.77 0.893477 -4.15093 0
M  V30 18445 O 1710.79 0.683251 -3.49586 0
M  V30 18446 O 1709.65 1.2938 -5.30964 0
M  V30 18447 H 1706.75 0.230145 -0.794331 0
M  V30 18448 H 1709.29 -0.290426 -1.67196 0
M  V30 18449 H 1708.06 -0.339952 -3.8982 0
M  V30 18450 H 1707.69 1.36714 -3.73356 0
M  V30 18451 N 1708.68 1.57577 0.026722 0
M  V30 18452 C 1709.91 1.94035 0.732473 0
M  V30 18453 C 1710.33 0.846575 1.67972 0
M  V30 18454 O 1709.69 -0.197514 1.80221 0
M  V30 18455 C 1709.74 3.2956 1.46365 0
M  V30 18456 O 1708.84 3.21975 2.57694 0
M  V30 18457 H 1708.18 0.634155 0.196832 0
M  V30 18458 H 1710.71 2.04592 -0.018503 0
M  V30 18459 H 1710.72 3.64504 1.83305 0
M  V30 18460 H 1709.4 4.0873 0.768943 0
M  V30 18461 H 1707.98 2.98665 2.23279 0
M  V30 18462 N 1710.16 -0.299034 1.54737 0
M  V30 18463 C 1711.41 -1.03553 1.74369 0
M  V30 18464 C 1711.74 -1.86856 0.529019 0
M  V30 18465 O 1711.02 -1.8864 -0.473854 0
M  V30 18466 C 1711.3 -1.93988 3.03382 0
M  V30 18467 C 1711.15 -1.13852 4.35153 0
M  V30 18468 C 1712.47 -2.93128 3.28274 0
M  V30 18469 H 1709.59 -0.375055 0.634431 0
M  V30 18470 H 1712.23 -0.310018 1.87454 0
M  V30 18471 H 1710.38 -2.5585 2.92358 0
M  V30 18472 H 1712.05 -0.542614 4.58098 0
M  V30 18473 H 1710.3 -0.441278 4.3155 0
M  V30 18474 H 1710.97 -1.80385 5.21694 0
M  V30 18475 H 1713.44 -2.41396 3.38921 0
M  V30 18476 H 1712.32 -3.53569 4.19857 0
M  V30 18477 H 1712.58 -3.66892 2.46663 0
M  V30 18478 N 1711.64 -1.47227 -0.562322 0
M  V30 18479 C 1712.86 -1.5744 -1.35008 0
M  V30 18480 C 1713.29 -0.223223 -1.86771 0
M  V30 18481 O 1712.65 0.800078 -1.62691 0
M  V30 18482 C 1712.7 -2.5992 -2.49948 0
M  V30 18483 O 1711.8 -2.14836 -3.52022 0
M  V30 18484 H 1711.14 -0.529064 -0.401232 0
M  V30 18485 H 1713.67 -1.92966 -0.680084 0
M  V30 18486 H 1713.68 -2.80177 -2.96588 0
M  V30 18487 H 1712.36 -3.58031 -2.11629 0
M  V30 18488 H 1710.93 -2.04655 -3.11722 0
M  V30 18489 N 1713.12 0.808639 -1.35273 0
M  V30 18490 C 1714.05 1.92839 -1.23878 0
M  V30 18491 C 1715.06 1.61987 -0.162543 0
M  V30 18492 O 1716.25 1.73593 -0.41564 0
M  V30 18493 C 1713.35 3.27158 -0.884369 0
M  V30 18494 C 1712.52 3.85931 -2.05855 0
M  V30 18495 C 1711.58 4.98652 -1.68025 0
M  V30 18496 O 1710.61 5.16188 -2.39871 0
M  V30 18497 N 1711.81 5.77363 -0.602684 0
M  V30 18498 H 1714.58 2.03141 -2.20349 0
M  V30 18499 H 1712.14 0.985956 -1.28415 0
M  V30 18500 H 1714.13 4.00033 -0.612814 0
M  V30 18501 H 1712.7 3.12599 -0.00940584 0
M  V30 18502 H 1711.92 3.05274 -2.49402 0
M  V30 18503 H 1713.21 4.21929 -2.84347 0
M  V30 18504 H 1712.61 5.657 -0.00570741 0
M  V30 18505 H 1711.16 6.50627 -0.390903 0
M  V30 18506 N 1714.6 1.19237 1.03055 0
M  V30 18507 C 1715.82 1.01983 1.80594 0
M  V30 18508 C 1716.25 -0.426875 1.83192 0
M  V30 18509 O 1715.6 -1.30678 1.2567 0
M  V30 18510 C 1715.65 1.59139 3.23585 0
M  V30 18511 O 1714.76 0.819576 4.04174 0
M  V30 18512 H 1714.1 0.360585 0.557561 0
M  V30 18513 H 1716.63 1.58222 1.29719 0
M  V30 18514 H 1716.64 1.62283 3.74337 0
M  V30 18515 H 1715.31 2.64436 3.21009 0
M  V30 18516 H 1713.89 0.861253 3.62818 0
M  V30 18517 N 1716.07 -1.22136 0.99602 0
M  V30 18518 C 1717.3 -1.95519 0.69189 0
M  V30 18519 C 1717.72 -1.7304 -0.73748 0
M  V30 18520 O 1717.08 -1.01157 -1.50456 0
M  V30 18521 C 1717.13 -3.46244 1.00735 0
M  V30 18522 O 1716.23 -4.12259 0.107713 0
M  V30 18523 H 1715.58 -0.611553 0.258648 0
M  V30 18524 H 1718.11 -1.55145 1.33384 0
M  V30 18525 H 1718.12 -3.96774 0.950482 0
M  V30 18526 H 1716.79 -3.6193 2.04889 0
M  V30 18527 H 1715.37 -3.72248 0.220336 0
M  V30 18528 N 1717.55 -0.769612 -1.37531 0
M  V30 18529 C 1718.78 -0.343069 -2.04543 0
M  V30 18530 C 1719.2 1.02583 -1.57665 0
M  V30 18531 O 1718.56 1.65692 -0.735915 0
M  V30 18532 C 1718.61 -0.392914 -3.58453 0
M  V30 18533 O 1717.71 0.607401 -4.07902 0
M  V30 18534 H 1717.05 -0.148905 -0.647088 0
M  V30 18535 H 1719.58 -1.04521 -1.75888 0
M  V30 18536 H 1719.59 -0.24945 -4.07237 0
M  V30 18537 H 1718.27 -1.39159 -3.91928 0
M  V30 18538 H 1716.85 0.427231 -3.70445 0
M  V30 18539 N 1719.03 1.48775 -0.519977 0
M  V30 18540 C 1720.31 1.95429 0.0816701 0
M  V30 18541 C 1720.69 1.46199 1.52279 0
M  V30 18542 O 1720.04 0.684057 2.1802 0
M  V30 18543 C 1720.25 3.48991 -0.0252472 0
M  V30 18544 C 1721.59 4.24372 0.139099 0
M  V30 18545 O 1722.62 3.56166 0.0490322 0
M  V30 18546 O 1721.48 5.45524 0.326426 0
M  V30 18547 H 1718.57 0.822637 0.0848378 0
M  V30 18548 H 1721.12 1.5934 -0.583865 0
M  V30 18549 H 1719.89 3.77514 -1.02951 0
M  V30 18550 H 1719.51 3.91749 0.679588 0
M  V30 18551 N 1720.51 0.254649 1.55529 0
M  V30 18552 C 1721.47 -0.62836 2.20418 0
M  V30 18553 C 1722.47 -1.09691 1.17578 0
M  V30 18554 O 1723.66 -1.00037 1.42612 0
M  V30 18555 C 1720.79 -1.86453 2.85391 0
M  V30 18556 H 1721.99 -0.0621032 2.99836 0
M  V30 18557 H 1719.54 0.00514311 1.56299 0
M  V30 18558 H 1720.27 -2.47182 2.09932 0
M  V30 18559 H 1720.06 -1.53669 3.60733 0
M  V30 18560 H 1721.55 -2.49291 3.35028 0
M  V30 18561 N 1721.99 -1.57589 -0.0183649 0
M  V30 18562 C 1723.23 -1.89382 -0.705612 0
M  V30 18563 C 1723.56 -0.853698 -1.7532 0
M  V30 18564 O 1722.83 0.111322 -1.95583 0
M  V30 18565 H 1721.41 -0.698943 -0.263605 0
M  V30 18566 H 1724.07 -1.94891 0.0182168 0
M  V30 18567 H 1723.16 -2.88587 -1.18845 0
M  V30 18568 N 1723.46 0.290824 -1.54893 0
M  V30 18569 C 1724.39 1.36354 -1.89551 0
M  V30 18570 C 1725.38 1.52403 -0.75546 0
M  V30 18571 O 1726.56 1.65743 -1.01208 0
M  V30 18572 C 1723.69 2.72609 -2.15178 0
M  V30 18573 C 1722.64 2.71313 -3.31019 0
M  V30 18574 C 1721.97 4.10952 -3.42085 0
M  V30 18575 C 1723.27 2.32153 -4.6787 0
M  V30 18576 H 1724.96 1.07597 -2.79398 0
M  V30 18577 H 1722.51 0.516154 -1.34432 0
M  V30 18578 H 1724.46 3.47749 -2.3801 0
M  V30 18579 H 1723.19 3.02913 -1.22112 0
M  V30 18580 H 1721.85 1.9863 -3.08126 0
M  V30 18581 H 1721.49 4.38449 -2.46518 0
M  V30 18582 H 1721.19 4.10984 -4.1996 0
M  V30 18583 H 1722.72 4.87857 -3.67189 0
M  V30 18584 H 1724.13 2.97011 -4.90364 0
M  V30 18585 H 1722.53 2.4338 -5.48531 0
M  V30 18586 H 1723.6 1.27279 -4.67897 0
M  V30 18587 N 1724.94 1.47523 0.554506 0
M  V30 18588 C 1726.19 1.53982 1.30897 0
M  V30 18589 C 1726.51 0.20487 1.93921 0
M  V30 18590 O 1725.78 -0.771422 1.80072 0
M  V30 18591 H 1724.36 0.567206 0.486092 0
M  V30 18592 H 1727.02 1.83838 0.647284 0
M  V30 18593 H 1726.12 2.30783 2.10109 0
M  V30 18594 N 1726.42 -0.801453 1.357 0
M  V30 18595 C 1727.65 -1.59518 1.32547 0
M  V30 18596 C 1728.07 -1.87868 -0.0934243 0
M  V30 18597 O 1727.43 -1.46955 -1.06179 0
M  V30 18598 C 1727.48 -2.90028 2.14281 0
M  V30 18599 O 1726.58 -3.83086 1.52704 0
M  V30 18600 H 1725.92 -0.48434 0.454215 0
M  V30 18601 H 1728.45 -0.994315 1.78814 0
M  V30 18602 H 1728.46 -3.39406 2.26423 0
M  V30 18603 H 1727.14 -2.6872 3.17431 0
M  V30 18604 H 1725.71 -3.4165 1.49432 0
M  V30 18605 N 1727.9 -1.19782 -1.02421 0
M  V30 18606 C 1729.18 -0.912541 -1.73009 0
M  V30 18607 C 1729.56 0.58061 -2.02958 0
M  V30 18608 O 1728.9 1.54013 -1.68797 0
M  V30 18609 C 1729.11 -1.77745 -3.00346 0
M  V30 18610 C 1730.46 -2.01462 -3.73762 0
M  V30 18611 O 1731.49 -1.74935 -3.10284 0
M  V30 18612 O 1730.34 -2.46219 -4.87892 0
M  V30 18613 H 1727.44 -0.340513 -0.753644 0
M  V30 18614 H 1729.98 -1.30618 -1.08338 0
M  V30 18615 H 1728.76 -2.78887 -2.74477 0
M  V30 18616 H 1728.38 -1.38339 -3.72757 0
M  V30 18617 N 1729.38 1.21606 -1.00248 0
M  V30 18618 C 1730.33 2.21711 -0.531824 0
M  V30 18619 C 1731.31 1.55714 0.405201 0
M  V30 18620 O 1732.5 1.75493 0.230462 0
M  V30 18621 C 1729.63 3.43003 0.142686 0
M  V30 18622 C 1728.72 4.16191 -0.815209 0
M  V30 18623 N 1729.11 4.65986 -1.967 0
M  V30 18624 C 1727.41 4.41484 -0.633069 0
M  V30 18625 C 1728.11 5.21897 -2.56901 0
M  V30 18626 N 1727.08 5.11121 -1.85084 0
M  V30 18627 H 1730.89 2.57862 -1.41013 0
M  V30 18628 H 1728.4 1.37385 -0.86598 0
M  V30 18629 H 1730.4 4.13923 0.497322 0
M  V30 18630 H 1729.06 3.08362 1.01701 0
M  V30 18631 H 1730.07 4.61644 -2.34746 0
M  V30 18632 H 1726.75 4.17047 0.194381 0
M  V30 18633 H 1728.14 5.70898 -3.54296 0
M  V30 18634 N 1730.86 0.776895 1.37121 0
M  V30 18635 C 1731.77 0.167552 2.34001 0
M  V30 18636 C 1732.78 -0.673609 1.60432 0
M  V30 18637 O 1733.96 -0.592327 1.92493 0
M  V30 18638 C 1731.02 -0.697343 3.39615 0
M  V30 18639 C 1730.08 0.160869 4.28998 0
M  V30 18640 C 1729.32 -0.662841 5.29568 0
M  V30 18641 O 1729.54 -1.89962 5.37839 0
M  V30 18642 O 1728.47 -0.0693304 6.0186 0
M  V30 18643 H 1732.3 0.968247 2.87852 0
M  V30 18644 H 1729.88 0.538137 1.39372 0
M  V30 18645 H 1731.77 -1.19094 4.04221 0
M  V30 18646 H 1730.44 -1.47614 2.88083 0
M  V30 18647 H 1729.35 0.700941 3.67475 0
M  V30 18648 H 1730.68 0.902875 4.83848 0
M  V30 18649 N 1732.33 -1.48497 0.527859 0
M  V30 18650 C 1733.56 -2.07399 -0.00510725 0
M  V30 18651 C 1733.98 -1.38211 -1.2759 0
M  V30 18652 O 1733.34 -0.447373 -1.75694 0
M  V30 18653 C 1733.39 -3.59963 -0.214295 0
M  V30 18654 O 1732.49 -3.91921 -1.28342 0
M  V30 18655 H 1731.83 -0.662901 0.0381838 0
M  V30 18656 H 1734.36 -1.90936 0.735166 0
M  V30 18657 H 1734.37 -4.05646 -0.437604 0
M  V30 18658 H 1733.05 -4.09725 0.714028 0
M  V30 18659 H 1731.63 -3.58019 -1.04293 0
M  V30 18660 N 1733.81 -0.262893 -1.55392 0
M  V30 18661 C 1735.09 0.408525 -1.91286 0
M  V30 18662 C 1735.47 1.74657 -1.18566 0
M  V30 18663 O 1734.82 2.26409 -0.308422 0
M  V30 18664 C 1735.03 0.560865 -3.44464 0
M  V30 18665 C 1736.37 0.849401 -4.16017 0
M  V30 18666 O 1737.4 0.646134 -3.50291 0
M  V30 18667 O 1736.26 1.23741 -5.32307 0
M  V30 18668 H 1733.35 0.221707 -0.796728 0
M  V30 18669 H 1735.9 -0.308143 -1.66879 0
M  V30 18670 H 1734.67 -0.381279 -3.89438 0
M  V30 18671 H 1734.29 1.32747 -3.74785 0
M  V30 18672 N 1735.29 1.57597 0.0100073 0
M  V30 18673 C 1736.52 1.94402 0.708192 0
M  V30 18674 C 1736.93 0.864205 1.6786 0
M  V30 18675 O 1736.29 -0.157763 1.81817 0
M  V30 18676 C 1736.34 3.312 1.44876 0
M  V30 18677 O 1736.06 4.35035 0.517281 0
M  V30 18678 C 1737.56 3.82404 2.24237 0
M  V30 18679 H 1734.78 0.64116 0.197877 0
M  V30 18680 H 1737.33 2.04464 -0.0381373 0
M  V30 18681 H 1735.48 3.22476 2.1468 0
M  V30 18682 H 1735.9 5.14113 1.03868 0
M  V30 18683 H 1737.37 4.80578 2.71567 0
M  V30 18684 H 1737.85 3.14587 3.06483 0
M  V30 18685 H 1738.45 3.94271 1.59469 0
M  V30 18686 N 1736.77 -0.282606 1.55045 0
M  V30 18687 C 1737.7 -1.35347 1.90272 0
M  V30 18688 C 1738.68 -1.52001 0.763532 0
M  V30 18689 O 1739.86 -1.65204 1.02085 0
M  V30 18690 C 1736.99 -2.71464 2.16621 0
M  V30 18691 C 1735.95 -2.69554 3.32453 0
M  V30 18692 C 1735.27 -4.09132 3.4426 0
M  V30 18693 C 1736.57 -2.29669 4.69094 0
M  V30 18694 H 1738.27 -1.06113 2.79965 0
M  V30 18695 H 1735.81 -0.509018 1.34703 0
M  V30 18696 H 1737.77 -3.46482 2.39851 0
M  V30 18697 H 1736.49 -3.02261 1.23717 0
M  V30 18698 H 1735.15 -1.96993 3.09175 0
M  V30 18699 H 1734.8 -4.37136 2.4884 0
M  V30 18700 H 1734.5 -4.08751 4.22133 0
M  V30 18701 H 1736.02 -4.85903 3.69771 0
M  V30 18702 H 1737.44 -2.94407 4.91932 0
M  V30 18703 H 1735.83 -2.40467 5.49814 0
M  V30 18704 H 1736.9 -1.24796 4.68566 0
M  V30 18705 N 1738.25 -1.47815 -0.546675 0
M  V30 18706 C 1739.47 -1.58613 -1.32851 0
M  V30 18707 C 1739.89 -0.240179 -1.87266 0
M  V30 18708 O 1739.25 0.768148 -1.65547 0
M  V30 18709 C 1739.3 -2.61969 -2.49107 0
M  V30 18710 O 1739.02 -3.9134 -1.96938 0
M  V30 18711 C 1740.52 -2.83051 -3.4117 0
M  V30 18712 H 1737.74 -0.535292 -0.404603 0
M  V30 18713 H 1740.28 -1.93516 -0.661192 0
M  V30 18714 H 1738.44 -2.29971 -3.11756 0
M  V30 18715 H 1738.85 -4.47905 -2.72913 0
M  V30 18716 H 1740.33 -3.59209 -4.19134 0
M  V30 18717 H 1740.8 -1.91258 -3.95369 0
M  V30 18718 H 1741.41 -3.16287 -2.84328 0
M  V30 18719 N 1739.72 0.794246 -1.36123 0
M  V30 18720 C 1740.97 1.54708 -1.29416 0
M  V30 18721 C 1741.29 1.95195 0.125849 0
M  V30 18722 O 1742.49 2.69663 0.315271 0
M  V30 18723 C 1740.95 2.79256 -2.27034 0
M  V30 18724 C 1740.56 2.45957 -3.74445 0
M  V30 18725 C 1742.3 3.57246 -2.29294 0
M  V30 18726 C 1740.21 3.66871 -4.63853 0
M  V30 18727 H 1739.14 0.580743 -0.480888 0
M  V30 18728 H 1741.79 0.871975 -1.61458 0
M  V30 18729 H 1740.17 3.4854 -1.87979 0
M  V30 18730 H 1741.34 1.846 -4.22208 0
M  V30 18731 H 1739.66 1.81187 -3.74913 0
M  V30 18732 H 1742.26 4.47076 -2.93304 0
M  V30 18733 H 1742.6 3.95478 -1.30011 0
M  V30 18734 H 1743.13 2.94936 -2.66941 0
M  V30 18735 H 1739.87 3.33739 -5.6418 0
M  V30 18736 H 1739.39 4.27411 -4.20809 0
M  V30 18737 H 1741.07 4.33957 -4.79886 0
M  V30 18738 N 1741.2 1.20323 1.01785 0
M  V30 18739 C 1742.48 0.921703 1.72522 0
M  V30 18740 C 1742.86 -0.569838 2.03264 0
M  V30 18741 O 1742.21 -1.53115 1.69611 0
M  V30 18742 C 1742.42 1.79335 2.99399 0
M  V30 18743 C 1743.76 2.03442 3.72688 0
M  V30 18744 O 1744.79 1.76578 3.09352 0
M  V30 18745 O 1743.65 2.48803 4.86579 0
M  V30 18746 H 1740.74 0.344505 0.751828 0
M  V30 18747 H 1743.29 1.31191 1.07644 0
M  V30 18748 H 1742.06 2.80339 2.72994 0
M  V30 18749 H 1741.68 1.40314 3.72018 0
M  V30 18750 N 1742.68 -1.21073 1.00892 0
M  V30 18751 C 1743.93 -1.90524 0.694879 0
M  V30 18752 C 1744.26 -1.78161 -0.772802 0
M  V30 18753 O 1743.53 -1.1608 -1.56063 0
M  V30 18754 C 1743.82 -3.42188 1.12156 0
M  V30 18755 C 1743.67 -3.63523 2.64898 0
M  V30 18756 C 1744.99 -4.34706 0.68694 0
M  V30 18757 H 1742.11 -0.69188 0.253912 0
M  V30 18758 H 1744.75 -1.42626 1.2553 0
M  V30 18759 H 1742.9 -3.83113 0.644742 0
M  V30 18760 H 1744.57 -3.31901 3.20374 0
M  V30 18761 H 1742.81 -3.07255 3.0623 0
M  V30 18762 H 1743.49 -4.69805 2.89806 0
M  V30 18763 H 1745.96 -4.01386 1.09674 0
M  V30 18764 H 1744.84 -5.3946 1.01361 0
M  V30 18765 H 1745.1 -4.40178 -0.411757 0
M  V30 18766 N 1744.16 -0.784156 -1.36707 0
M  V30 18767 C 1745.38 -0.364744 -2.04168 0
M  V30 18768 C 1745.81 1.00905 -1.58745 0
M  V30 18769 O 1745.17 1.64903 -0.753447 0
M  V30 18770 C 1745.21 -0.43091 -3.58016 0
M  V30 18771 O 1744.32 0.564103 -4.08524 0
M  V30 18772 H 1743.66 -0.15576 -0.645473 0
M  V30 18773 H 1746.19 -1.0638 -1.74769 0
M  V30 18774 H 1746.2 -0.292629 -4.06949 0
M  V30 18775 H 1744.87 -1.43308 -3.9043 0
M  V30 18776 H 1743.45 0.387917 -3.70877 0
M  V30 18777 N 1745.64 1.48215 -0.535727 0
M  V30 18778 C 1746.6 2.28206 0.213212 0
M  V30 18779 C 1747.6 1.3571 0.862522 0
M  V30 18780 O 1748.79 1.58547 0.721688 0
M  V30 18781 C 1745.92 3.1476 1.30917 0
M  V30 18782 H 1747.11 2.95884 -0.489163 0
M  V30 18783 H 1744.67 1.53551 -0.291872 0
M  V30 18784 H 1745.4 2.51726 2.04462 0
M  V30 18785 H 1745.19 3.82806 0.848633 0
M  V30 18786 H 1746.68 3.75085 1.83579 0
M  V30 18787 N 1747.11 0.27113 1.5525 0
M  V30 18788 C 1748.36 -0.347408 1.98686 0
M  V30 18789 C 1748.68 -1.57275 1.16292 0
M  V30 18790 O 1749.88 -2.26399 1.49853 0
M  V30 18791 C 1748.34 -0.669461 3.53619 0
M  V30 18792 C 1747.95 0.535853 4.44784 0
M  V30 18793 C 1749.69 -1.25084 4.05653 0
M  V30 18794 C 1747.6 0.188607 5.91099 0
M  V30 18795 H 1746.53 -0.133581 0.742073 0
M  V30 18796 H 1749.18 0.375157 1.79624 0
M  V30 18797 H 1747.56 -1.45082 3.68466 0
M  V30 18798 H 1748.73 1.3128 4.41704 0
M  V30 18799 H 1747.05 1.03381 4.03363 0
M  V30 18800 H 1749.65 -1.52439 5.1251 0
M  V30 18801 H 1749.99 -2.18341 3.54448 0
M  V30 18802 H 1750.52 -0.531864 3.94228 0
M  V30 18803 H 1747.26 1.08894 6.46392 0
M  V30 18804 H 1746.78 -0.551653 5.97258 0
M  V30 18805 H 1748.46 -0.220603 6.46624 0
M  V30 18806 N 1748.59 -1.576 -0.00164943 0
M  V30 18807 C 1749.82 -1.95176 -0.701511 0
M  V30 18808 C 1750.24 -0.873191 -1.66604 0
M  V30 18809 O 1749.6 0.168818 -1.80512 0
M  V30 18810 C 1749.65 -3.31847 -1.41104 0
M  V30 18811 O 1748.75 -3.26034 -2.52539 0
M  V30 18812 H 1748.09 -0.637207 -0.186718 0
M  V30 18813 H 1750.62 -2.04536 0.0510494 0
M  V30 18814 H 1750.63 -3.67374 -1.77483 0
M  V30 18815 H 1749.31 -4.09901 -0.70382 0
M  V30 18816 H 1747.89 -3.0218 -2.18499 0
M  V30 18817 N 1750.07 0.274379 -1.55193 0
M  V30 18818 C 1751.02 1.35903 -1.88767 0
M  V30 18819 C 1752.01 1.512 -0.763874 0
M  V30 18820 O 1753.22 1.53 -0.948201 0
M  V30 18821 H 1749.59 0.454495 -0.599114 0
M  V30 18822 H 1751.56 1.04837 -2.79378 0
M  V30 18823 C 1750.31 2.71277 -2.17496 0
M  V30 18824 H 1749.64 2.60297 -3.03456 0
M  V30 18825 H 1751.08 3.46115 -2.44909 0
M  V30 18826 C 1749.54 3.22268 -0.982101 0
M  V30 18827 O 1750.07 4.01119 -0.216035 0
M  V30 18828 N 1748.27 2.79931 -0.780179 0
M  V30 18829 H 1747.82 2.15923 -1.40482 0
M  V30 18830 H 1747.78 3.14396 0.0163297 0
M  V30 18831 N 1751.55 1.48103 0.538828 0
M  V30 18832 C 1752.48 1.64856 1.65363 0
M  V30 18833 C 1753.46 0.497579 1.6266 0
M  V30 18834 O 1754.64 0.729088 1.79994 0
M  V30 18835 C 1751.77 1.67984 3.03971 0
M  V30 18836 C 1750.73 2.82494 3.21529 0
M  V30 18837 C 1750.05 2.70706 4.6111 0
M  V30 18838 C 1751.35 4.23892 3.05145 0
M  V30 18839 H 1753.05 2.58183 1.51598 0
M  V30 18840 H 1750.59 1.24249 0.727886 0
M  V30 18841 H 1752.55 1.78294 3.81824 0
M  V30 18842 H 1751.27 0.712299 3.18738 0
M  V30 18843 H 1749.93 2.71725 2.46091 0
M  V30 18844 H 1749.58 1.7194 4.727 0
M  V30 18845 H 1749.28 3.47539 4.73804 0
M  V30 18846 H 1750.8 2.82971 5.41073 0
M  V30 18847 H 1752.22 4.3554 3.72797 0
M  V30 18848 H 1750.61 5.01654 3.29338 0
M  V30 18849 H 1751.68 4.40973 2.01671 0
M  V30 18850 N 1753.03 -0.787016 1.36542 0
M  V30 18851 C 1754.28 -1.54019 1.30234 0
M  V30 18852 C 1754.59 -1.95259 -0.115496 0
M  V30 18853 O 1755.79 -2.69827 -0.300966 0
M  V30 18854 C 1754.25 -2.78048 2.28512 0
M  V30 18855 C 1753.86 -2.43968 3.75744 0
M  V30 18856 C 1755.6 -3.56025 2.31185 0
M  V30 18857 C 1753.51 -3.64406 4.65792 0
M  V30 18858 H 1752.44 -0.578185 0.483961 0
M  V30 18859 H 1755.09 -0.8634 1.61919 0
M  V30 18860 H 1753.47 -3.47538 1.89824 0
M  V30 18861 H 1754.65 -1.82359 4.23181 0
M  V30 18862 H 1752.96 -1.79197 3.75869 0
M  V30 18863 H 1755.56 -4.45514 2.9567 0
M  V30 18864 H 1755.9 -3.94783 1.32107 0
M  V30 18865 H 1756.43 -2.93516 2.68502 0
M  V30 18866 H 1753.17 -3.30742 5.65942 0
M  V30 18867 H 1752.69 -4.25173 4.2307 0
M  V30 18868 H 1754.37 -4.31406 4.82181 0
M  V30 18869 N 1754.5 -1.20861 -1.01145 0
M  V30 18870 C 1755.92 -0.964575 -1.27154 0
M  V30 18871 C 1756.12 0.352861 -1.98386 0
M  V30 18872 O 1755.18 1.08012 -2.28232 0
M  V30 18873 C 1756.49 -2.15074 -2.10151 0
M  V30 18874 C 1758.04 -2.19229 -2.234 0
M  V30 18875 C 1758.51 -3.37346 -3.09777 0
M  V30 18876 N 1760 -3.37392 -3.17365 0
M  V30 18877 C 1760.74 -4.25434 -3.84439 0
M  V30 18878 N 1760.23 -5.23664 -4.53595 0
M  V30 18879 N 1762.03 -4.13261 -3.81014 0
M  V30 18880 H 1754.18 -2.05595 -0.533346 0
M  V30 18881 H 1756.44 -0.899928 -0.298048 0
M  V30 18882 H 1756.15 -3.10511 -1.65153 0
M  V30 18883 H 1756.02 -2.13598 -3.10895 0
M  V30 18884 H 1758.41 -1.24352 -2.6762 0
M  V30 18885 H 1758.49 -2.24752 -1.22148 0
M  V30 18886 H 1758.13 -4.32513 -2.66261 0
M  V30 18887 H 1758.06 -3.29061 -4.11128 0
M  V30 18888 H 1760.55 -2.66299 -2.68129 0
M  V30 18889 H 1760.87 -5.87158 -5.02459 0
M  V30 18890 H 1759.21 -5.27595 -4.52403 0
M  V30 18891 H 1762.4 -3.35786 -3.26137 0
M  V30 18892 H 1762.58 -4.82085 -4.3301 0
M  V30 18893 N 1755.98 1.20536 -1.01532 0
M  V30 18894 C 1756.93 2.23277 -0.584486 0
M  V30 18895 C 1757.9 1.6134 0.394773 0
M  V30 18896 O 1759.08 1.88514 0.294498 0
M  V30 18897 C 1756.22 3.45024 0.0723574 0
M  V30 18898 C 1755.34 4.21395 -0.951314 0
M  V30 18899 C 1754.47 5.30535 -0.265656 0
M  V30 18900 C 1753.51 5.98649 -1.27617 0
M  V30 18901 N 1752.65 6.99381 -0.61727 0
M  V30 18902 H 1757.49 2.59489 -1.46524 0
M  V30 18903 H 1755.03 1.27507 -0.733502 0
M  V30 18904 H 1756.98 4.14541 0.470303 0
M  V30 18905 H 1755.61 3.09508 0.916768 0
M  V30 18906 H 1754.67 3.50957 -1.46743 0
M  V30 18907 H 1755.98 4.68211 -1.71989 0
M  V30 18908 H 1755.13 6.06409 0.187857 0
M  V30 18909 H 1753.87 4.84754 0.535237 0
M  V30 18910 H 1752.88 5.21537 -1.74008 0
M  V30 18911 H 1754.1 6.46516 -2.07832 0
M  V30 18912 H 1752.05 6.55796 0.163777 0
M  V30 18913 H 1751.96 7.44317 -1.32393 0
M  V30 18914 H 1753.23 7.79275 -0.187306 0
M  V30 18915 N 1757.46 0.791395 1.36289 0
M  V30 18916 C 1758.41 0.164218 2.27408 0
M  V30 18917 C 1759.39 -0.653018 1.47053 0
M  V30 18918 O 1760.59 -0.512767 1.6941 0
M  V30 18919 C 1757.72 -0.698551 3.36118 0
M  V30 18920 C 1756.8 0.127583 4.23908 0
M  V30 18921 N 1757.19 1.18307 4.91769 0
M  V30 18922 C 1755.49 -0.0932621 4.45902 0
M  V30 18923 C 1756.19 1.68616 5.56726 0
M  V30 18924 N 1755.17 0.995058 5.34415 0
M  V30 18925 H 1758.97 0.972045 2.7736 0
M  V30 18926 H 1756.48 0.63105 1.49638 0
M  V30 18927 H 1758.48 -1.16379 4.00327 0
M  V30 18928 H 1757.14 -1.5049 2.8772 0
M  V30 18929 H 1758.15 1.56553 4.93672 0
M  V30 18930 H 1754.83 -0.869962 4.08336 0
M  V30 18931 H 1756.22 2.56745 6.20912 0
M  V30 18932 N 1758.94 -1.47929 0.54358 0
M  V30 18933 C 1760.19 -2.02795 0.014488 0
M  V30 18934 C 1760.52 -1.41848 -1.32638 0
M  V30 18935 O 1759.79 -0.569099 -1.85988 0
M  V30 18936 C 1760.08 -3.5998 -0.093097 0
M  V30 18937 C 1759.93 -4.31384 1.2739 0
M  V30 18938 C 1761.25 -4.32521 -0.813251 0
M  V30 18939 H 1758.37 -0.736969 0.00673905 0
M  V30 18940 H 1761.01 -1.76507 0.703238 0
M  V30 18941 H 1759.16 -3.82508 -0.679685 0
M  V30 18942 H 1760.83 -4.20235 1.90264 0
M  V30 18943 H 1759.07 -3.9227 1.85221 0
M  V30 18944 H 1759.75 -5.39856 1.15148 0
M  V30 18945 H 1762.22 -4.14903 -0.315334 0
M  V30 18946 H 1761.1 -5.42161 -0.857456 0
M  V30 18947 H 1761.36 -4.00768 -1.86649 0
M  V30 18948 N 1760.42 -0.27936 -1.55104 0
M  V30 18949 C 1761.64 0.342295 -2.04556 0
M  V30 18950 C 1762.07 1.48367 -1.15624 0
M  V30 18951 O 1761.43 1.8063 -0.15572 0
M  V30 18952 C 1761.47 0.796785 -3.51687 0
M  V30 18953 O 1760.58 1.90364 -3.65835 0
M  V30 18954 H 1759.92 0.07012 -0.660287 0
M  V30 18955 H 1762.45 -0.414896 -2.00349 0
M  V30 18956 H 1762.46 1.09141 -3.93131 0
M  V30 18957 H 1761.13 -0.0382637 -4.15882 0
M  V30 18958 H 1759.71 1.61123 -3.36294 0
M  V30 18959 N 1761.9 1.57599 -0.0067085 0
M  V30 18960 C 1762.81 2.1228 0.998709 0
M  V30 18961 C 1763.82 1.06964 1.37239 0
M  V30 18962 O 1765 1.38902 1.45836 0
M  V30 18963 C 1762.06 2.62076 2.26973 0
M  V30 18964 C 1761.12 3.8202 1.95855 0
M  V30 18965 C 1760.36 4.29431 3.16898 0
M  V30 18966 O 1760.58 3.76136 4.2881 0
M  V30 18967 O 1759.51 5.21518 3.00504 0
M  V30 18968 H 1763.34 2.9842 0.563849 0
M  V30 18969 H 1760.92 1.47881 0.212535 0
M  V30 18970 H 1762.81 2.94274 3.01631 0
M  V30 18971 H 1761.48 1.79031 2.69684 0
M  V30 18972 H 1760.39 3.54785 1.18653 0
M  V30 18973 H 1761.72 4.66159 1.57977 0
M  V30 18974 N 1763.37 -0.266145 1.55336 0
M  V30 18975 C 1764.34 -1.31242 1.87904 0
M  V30 18976 C 1765.34 -1.42022 0.754083 0
M  V30 18977 O 1766.53 -1.41054 1.02222 0
M  V30 18978 C 1763.66 -2.69285 2.09041 0
M  V30 18979 H 1764.85 -1.03592 2.81441 0
M  V30 18980 H 1762.4 -0.504537 1.47933 0
M  V30 18981 H 1763.14 -3.02106 1.17909 0
M  V30 18982 H 1762.92 -2.62846 2.90954 0
M  V30 18983 H 1764.41 -3.4487 2.35488 0
M  V30 18984 N 1764.85 -1.48386 -0.530967 0
M  V30 18985 C 1766.27 -1.34485 -0.859412 0
M  V30 18986 C 1766.47 -0.355124 -1.98346 0
M  V30 18987 O 1765.52 0.224012 -2.51504 0
M  V30 18988 C 1766.84 -2.74488 -1.22787 0
M  V30 18989 C 1768.38 -2.82969 -1.33781 0
M  V30 18990 C 1768.86 -4.23673 -1.7397 0
M  V30 18991 N 1770.35 -4.26341 -1.81074 0
M  V30 18992 C 1771.09 -5.32149 -2.13554 0
M  V30 18993 N 1770.58 -6.48235 -2.44464 0
M  V30 18994 N 1772.37 -5.19542 -2.14551 0
M  V30 18995 H 1764.53 -2.11352 0.210713 0
M  V30 18996 H 1766.79 -0.947472 0.0316283 0
M  V30 18997 H 1766.49 -3.4847 -0.475552 0
M  V30 18998 H 1766.37 -3.0795 -2.17823 0
M  V30 18999 H 1768.76 -2.09244 -2.08089 0
M  V30 19000 H 1768.84 -2.53129 -0.368677 0
M  V30 19001 H 1768.48 -4.97914 -1.00222 0
M  V30 19002 H 1768.41 -4.50956 -2.71931 0
M  V30 19003 H 1770.9 -3.42606 -1.59467 0
M  V30 19004 H 1771.21 -7.24712 -2.6835 0
M  V30 19005 H 1769.56 -6.51512 -2.41986 0
M  V30 19006 H 1772.75 -4.27868 -1.89859 0
M  V30 19007 H 1772.92 -6.02103 -2.39532 0
M  V30 19008 N 1766.33 0.779763 -1.36958 0
M  V30 19009 C 1767.26 1.90687 -1.34762 0
M  V30 19010 C 1768.24 1.68704 -0.217508 0
M  V30 19011 O 1769.43 1.89678 -0.416639 0
M  V30 19012 C 1766.56 3.27854 -1.14582 0
M  V30 19013 C 1765.51 3.64383 -2.2452 0
M  V30 19014 C 1764.84 5.00004 -1.89473 0
M  V30 19015 C 1766.14 3.71963 -3.66662 0
M  V30 19016 H 1767.83 1.92781 -2.29076 0
M  V30 19017 H 1765.38 0.926102 -1.10269 0
M  V30 19018 H 1767.33 4.06332 -1.11678 0
M  V30 19019 H 1766.05 3.26172 -0.167218 0
M  V30 19020 H 1764.71 2.88207 -2.26566 0
M  V30 19021 H 1764.36 4.94853 -0.901617 0
M  V30 19022 H 1764.06 5.25414 -2.63085 0
M  V30 19023 H 1765.58 5.80892 -1.88141 0
M  V30 19024 H 1767 4.40611 -3.6679 0
M  V30 19025 H 1765.39 4.08864 -4.39261 0
M  V30 19026 H 1766.46 2.72824 -4.00868 0
M  V30 19027 N 1767.81 1.21396 1.00503 0
M  V30 19028 C 1769.05 1.0327 1.74537 0
M  V30 19029 C 1769.39 -0.432746 1.89317 0
M  V30 19030 O 1768.66 -1.32111 1.42747 0
M  V30 19031 C 1768.94 1.73045 3.15797 0
M  V30 19032 C 1768.8 3.27108 3.0874 0
M  V30 19033 C 1770.12 1.47298 4.14718 0
M  V30 19034 H 1767.24 0.376563 0.633537 0
M  V30 19035 H 1769.88 1.49571 1.17169 0
M  V30 19036 H 1768.03 1.33682 3.64776 0
M  V30 19037 H 1769.7 3.75839 2.67475 0
M  V30 19038 H 1767.94 3.57413 2.45843 0
M  V30 19039 H 1768.61 3.71096 4.08646 0
M  V30 19040 H 1771.09 1.81468 3.74444 0
M  V30 19041 H 1769.97 1.98633 5.11699 0
M  V30 19042 H 1770.23 0.402981 4.4026 0
M  V30 19043 N 1769.29 -1.19996 1.0217 0
M  V30 19044 C 1770.2 -2.26634 0.606136 0
M  V30 19045 C 1771.21 -1.70262 -0.358746 0
M  V30 19046 O 1772.39 -2.00212 -0.218422 0
M  V30 19047 C 1769.45 -3.46672 -0.0439096 0
M  V30 19048 C 1768.51 -4.18254 0.967563 0
M  V30 19049 C 1767.75 -5.32561 0.348443 0
M  V30 19050 O 1767.97 -5.64024 -0.850508 0
M  V30 19051 O 1766.9 -5.92354 1.06772 0
M  V30 19052 H 1770.73 -2.64407 1.49407 0
M  V30 19053 H 1768.31 -1.26712 0.791483 0
M  V30 19054 H 1770.2 -4.19433 -0.406714 0
M  V30 19055 H 1768.87 -3.10764 -0.90596 0
M  V30 19056 H 1767.78 -3.47644 1.38183 0
M  V30 19057 H 1769.11 -4.58116 1.79975 0
M  V30 19058 N 1770.76 -0.798611 -1.35867 0
M  V30 19059 C 1772.04 -0.298858 -1.93303 0
M  V30 19060 C 1772.42 1.21038 -1.72954 0
M  V30 19061 O 1771.77 2.00617 -1.09386 0
M  V30 19062 C 1771.98 -0.701532 -3.41876 0
M  V30 19063 C 1773.33 -0.686486 -4.19014 0
M  V30 19064 O 1774.35 -0.642577 -3.50356 0
M  V30 19065 O 1773.21 -0.737653 -5.41499 0
M  V30 19066 H 1770.3 -0.0762987 -0.823473 0
M  V30 19067 H 1772.85 -0.881773 -1.44993 0
M  V30 19068 H 1771.62 -1.74204 -3.50383 0
M  V30 19069 H 1771.24 -0.092994 -3.97491 0
M  V30 19070 N 1772.24 1.47639 -0.551417 0
M  V30 19071 C 1773.49 2.01687 -0.0230887 0
M  V30 19072 C 1773.8 1.43178 1.33265 0
M  V30 19073 O 1775.01 1.88853 1.95056 0
M  V30 19074 C 1773.47 3.59899 0.00918719 0
M  V30 19075 C 1773.07 4.27398 -1.34295 0
M  V30 19076 C 1774.82 4.21718 0.485213 0
M  V30 19077 C 1772.72 5.77601 -1.2701 0
M  V30 19078 H 1771.65 0.753984 -0.00486122 0
M  V30 19079 H 1774.31 1.6969 -0.698405 0
M  V30 19080 H 1772.69 3.88832 0.75003 0
M  V30 19081 H 1773.86 4.10113 -2.10105 0
M  V30 19082 H 1772.18 3.77542 -1.75644 0
M  V30 19083 H 1774.77 5.3178 0.558025 0
M  V30 19084 H 1775.12 3.88495 1.4959 0
M  V30 19085 H 1775.65 3.97294 -0.200594 0
M  V30 19086 H 1772.39 6.15433 -2.2566 0
M  V30 19087 H 1771.91 5.97239 -0.553709 0
M  V30 19088 H 1773.59 6.39692 -0.969726 0
M  V30 19089 N 1773.72 0.287581 1.54954 0
M  V30 19090 C 1774.97 -0.324967 1.9947 0
M  V30 19091 C 1775.29 -1.55437 1.17747 0
M  V30 19092 O 1774.56 -1.9403 0.270067 0
M  V30 19093 H 1773.14 -0.123062 0.736794 0
M  V30 19094 H 1775.8 0.395805 1.90839 0
M  V30 19095 H 1774.9 -0.606265 3.06155 0
M  V30 19096 N 1775.2 -1.57593 0.0150662 0
M  V30 19097 C 1776.15 -2.0585 -0.980291 0
M  V30 19098 C 1777.13 -0.956179 -1.29406 0
M  V30 19099 O 1778.32 -1.21985 -1.28253 0
M  V30 19100 C 1775.45 -2.57769 -2.26738 0
M  V30 19101 C 1774.54 -3.74906 -1.98259 0
M  V30 19102 N 1774.93 -4.8604 -1.39995 0
M  V30 19103 C 1773.23 -3.83124 -2.28325 0
M  V30 19104 C 1773.93 -5.67368 -1.28329 0
M  V30 19105 N 1772.91 -5.13837 -1.77404 0
M  V30 19106 H 1776.71 -2.89181 -0.524549 0
M  V30 19107 H 1774.22 -1.61281 -0.190285 0
M  V30 19108 H 1776.22 -2.90624 -2.98903 0
M  V30 19109 H 1774.88 -1.75862 -2.72952 0
M  V30 19110 H 1775.89 -5.06583 -1.07678 0
M  V30 19111 H 1772.57 -3.12099 -2.77309 0
M  V30 19112 H 1773.96 -6.66704 -0.833956 0
M  V30 19113 N 1776.68 0.257904 -1.55475 0
M  V30 19114 C 1777.59 1.34084 -1.92506 0
M  V30 19115 C 1778.6 1.53246 -0.824123 0
M  V30 19116 O 1779.78 1.67081 -1.12455 0
M  V30 19117 C 1776.84 2.67741 -2.20263 0
M  V30 19118 C 1775.9 2.57196 -3.43728 0
M  V30 19119 C 1775.14 3.84479 -3.7015 0
M  V30 19120 O 1775.36 4.85858 -2.98827 0
M  V30 19121 O 1774.29 3.83774 -4.63682 0
M  V30 19122 H 1778.12 1.05672 -2.84723 0
M  V30 19123 H 1775.71 0.457726 -1.42215 0
M  V30 19124 H 1777.59 3.46743 -2.39473 0
M  V30 19125 H 1776.26 2.95907 -1.31227 0
M  V30 19126 H 1775.17 1.76518 -3.29837 0
M  V30 19127 H 1776.5 2.33977 -4.33031 0
M  V30 19128 N 1778.15 1.48666 0.52309 0
M  V30 19129 C 1779.08 1.666 1.63605 0
M  V30 19130 C 1780.07 0.514803 1.62123 0
M  V30 19131 O 1781.25 0.748138 1.79211 0
M  V30 19132 C 1778.38 1.71199 3.02172 0
M  V30 19133 C 1777.33 2.85888 3.18515 0
M  V30 19134 C 1776.66 2.75582 4.58213 0
M  V30 19135 C 1777.96 4.27104 3.00631 0
M  V30 19136 H 1779.65 2.59776 1.48851 0
M  V30 19137 H 1777.2 1.25014 0.714667 0
M  V30 19138 H 1779.15 1.82333 3.79911 0
M  V30 19139 H 1777.88 0.746066 3.17964 0
M  V30 19140 H 1776.54 2.7432 2.43195 0
M  V30 19141 H 1776.18 1.76944 4.7085 0
M  V30 19142 H 1775.88 3.52545 4.70091 0
M  V30 19143 H 1777.41 2.88693 5.38041 0
M  V30 19144 H 1778.82 4.3947 3.68157 0
M  V30 19145 H 1777.22 5.05119 3.23999 0
M  V30 19146 H 1778.29 4.43087 1.96982 0
M  V30 19147 N 1779.63 -0.772489 1.37369 0
M  V30 19148 C 1780.86 -1.56158 1.35729 0
M  V30 19149 C 1781.28 -1.88712 -0.0575274 0
M  V30 19150 O 1780.63 -1.51395 -1.01911 0
M  V30 19151 C 1780.68 -2.87231 2.19501 0
M  V30 19152 O 1780.4 -2.56072 3.5547 0
M  V30 19153 C 1781.91 -3.81464 2.25831 0
M  V30 19154 H 1779.13 -0.483803 0.464947 0
M  V30 19155 H 1781.67 -0.957502 1.80699 0
M  V30 19156 H 1779.82 -3.44063 1.78042 0
M  V30 19157 H 1780.24 -3.40002 3.99373 0
M  V30 19158 H 1781.71 -4.70442 2.8877 0
M  V30 19159 H 1782.19 -4.20542 1.26653 0
M  V30 19160 H 1782.8 -3.30561 2.67599 0
M  V30 19161 N 1781.11 -1.21927 -0.998575 0
M  V30 19162 C 1782.34 -1.06501 -1.77034 0
M  V30 19163 C 1782.75 0.387776 -1.85184 0
M  V30 19164 O 1782.09 1.28067 -1.31699 0
M  V30 19165 C 1782.15 -1.59465 -3.22198 0
M  V30 19166 C 1781.82 -3.08008 -3.37609 0
M  V30 19167 C 1782.81 -4.05495 -3.25377 0
M  V30 19168 C 1780.5 -3.47347 -3.62843 0
M  V30 19169 C 1782.49 -5.40306 -3.38154 0
M  V30 19170 C 1780.18 -4.82309 -3.75262 0
M  V30 19171 C 1781.18 -5.78597 -3.62924 0
M  V30 19172 O 1780.87 -7.1111 -3.74938 0
M  V30 19173 H 1780.6 -0.374178 -0.562998 0
M  V30 19174 H 1783.15 -1.61859 -1.26455 0
M  V30 19175 H 1781.38 -0.98509 -3.73942 0
M  V30 19176 H 1783.07 -1.39785 -3.81071 0
M  V30 19177 H 1783.84 -3.76446 -3.05799 0
M  V30 19178 H 1779.72 -2.72928 -3.71526 0
M  V30 19179 H 1783.26 -6.15445 -3.28441 0
M  V30 19180 H 1779.16 -5.1104 -3.94345 0
M  V30 19181 H 1779.93 -7.18609 -3.91846 0
M  V30 19182 N 1782.59 1.19452 -1.02805 0
M  V30 19183 C 1783.83 1.89394 -0.725101 0
M  V30 19184 C 1784.17 1.79368 0.744361 0
M  V30 19185 O 1783.44 1.18548 1.54196 0
M  V30 19186 C 1783.73 3.40361 -1.17586 0
M  V30 19187 C 1783.58 3.59263 -2.70648 0
M  V30 19188 C 1784.9 4.33558 -0.756011 0
M  V30 19189 H 1782.02 0.687753 -0.264887 0
M  V30 19190 H 1784.66 1.40611 -1.27783 0
M  V30 19191 H 1782.81 3.82038 -0.70561 0
M  V30 19192 H 1784.48 3.26762 -3.25614 0
M  V30 19193 H 1782.72 3.02344 -3.1108 0
M  V30 19194 H 1783.39 4.65135 -2.97244 0
M  V30 19195 H 1785.87 3.9959 -1.16046 0
M  V30 19196 H 1784.75 5.37779 -1.09931 0
M  V30 19197 H 1785.01 4.40778 0.341677 0
M  V30 19198 N 1784.07 0.805805 1.35442 0
M  V30 19199 C 1785 0.230077 2.32364 0
M  V30 19200 C 1785.98 -0.644034 1.57436 0
M  V30 19201 O 1787.16 -0.574467 1.85509 0
M  V30 19202 C 1784.29 -0.622814 3.4167 0
M  V30 19203 C 1783.25 0.152739 4.27727 0
M  V30 19204 C 1782.57 -0.821803 5.28347 0
M  V30 19205 C 1783.87 1.35128 5.04517 0
M  V30 19206 H 1785.57 1.03983 2.80763 0
M  V30 19207 H 1783.11 0.501467 1.34986 0
M  V30 19208 H 1785.07 -1.03564 4.08476 0
M  V30 19209 H 1783.79 -1.46544 2.91877 0
M  V30 19210 H 1782.45 0.546732 3.625 0
M  V30 19211 H 1782.1 -1.65991 4.74822 0
M  V30 19212 H 1781.8 -0.307209 5.86796 0
M  V30 19213 H 1783.32 -1.23285 5.98024 0
M  V30 19214 H 1784.73 1.01337 5.64273 0
M  V30 19215 H 1783.13 1.80031 5.72459 0
M  V30 19216 H 1784.2 2.13833 4.35205 0
M  V30 19217 N 1785.54 -1.47344 0.559239 0
M  V30 19218 C 1786.96 -1.86272 0.126394 0
M  V30 19219 C 1787.31 -1.46563 -1.30437 0
M  V30 19220 O 1786.43 -0.869624 -1.98158 0
M  V30 19221 C 1787.03 -3.38068 0.222602 0
M  V30 19222 C 1785.59 -3.7608 -0.155219 0
M  V30 19223 C 1784.73 -2.71394 0.569244 0
M  V30 19224 H 1787.68 -1.38833 0.768845 0
M  V30 19225 H 1787.7 -3.76382 -0.558262 0
M  V30 19226 H 1787.22 -3.66938 1.26404 0
M  V30 19227 H 1785.32 -3.52826 -1.19768 0
M  V30 19228 H 1785.43 -4.78662 0.204756 0
M  V30 19229 H 1783.79 -2.54697 0.0120996 0
M  V30 19230 H 1784.58 -3.03107 1.61187 0
M  V30 19231 N 1787.02 -0.295795 -1.54799 0
M  V30 19232 C 1788.25 0.317302 -2.04149 0
M  V30 19233 C 1788.66 1.48463 -1.17283 0
M  V30 19234 O 1788 1.82715 -0.189979 0
M  V30 19235 C 1788.07 0.841241 -3.49519 0
M  V30 19236 C 1787.73 -0.200133 -4.56562 0
M  V30 19237 C 1788.73 -1.0268 -5.09659 0
M  V30 19238 C 1786.41 -0.340333 -5.01146 0
M  V30 19239 C 1788.41 -1.97966 -6.05878 0
M  V30 19240 C 1786.09 -1.29664 -5.97185 0
M  V30 19241 C 1787.09 -2.11479 -6.49435 0
M  V30 19242 O 1786.78 -3.0549 -7.43593 0
M  V30 19243 H 1786.51 0.0736679 -0.671974 0
M  V30 19244 H 1789.06 -0.431806 -2.0081 0
M  V30 19245 H 1787.29 1.64078 -3.50165 0
M  V30 19246 H 1788.98 1.36966 -3.82093 0
M  V30 19247 H 1789.75 -0.92933 -4.76013 0
M  V30 19248 H 1785.63 0.286525 -4.60109 0
M  V30 19249 H 1789.17 -2.61865 -6.46585 0
M  V30 19250 H 1785.07 -1.39485 -6.30249 0
M  V30 19251 H 1785.84 -3.00409 -7.61378 0
M  V30 19252 N 1788.5 1.57583 -0.0234236 0
M  V30 19253 C 1789.41 2.13328 0.976138 0
M  V30 19254 C 1790.43 1.08414 1.36097 0
M  V30 19255 O 1791.6 1.40441 1.44354 0
M  V30 19256 C 1788.67 2.64469 2.24181 0
M  V30 19257 C 1787.73 3.84076 1.91793 0
M  V30 19258 C 1786.96 4.32768 3.12326 0
M  V30 19259 O 1787.19 3.80663 4.24797 0
M  V30 19260 O 1786.12 5.24676 2.94956 0
M  V30 19261 H 1789.95 2.99001 0.532166 0
M  V30 19262 H 1787.53 1.48098 0.196838 0
M  V30 19263 H 1789.41 2.97456 2.98492 0
M  V30 19264 H 1788.09 1.81881 2.6777 0
M  V30 19265 H 1786.99 3.56023 1.14883 0
M  V30 19266 H 1788.33 4.67808 1.53024 0
M  V30 19267 N 1789.98 -0.249655 1.5561 0
M  V30 19268 C 1790.94 -1.29242 1.89286 0
M  V30 19269 C 1791.94 -1.41214 0.769104 0
M  V30 19270 O 1793.13 -1.39962 1.03712 0
M  V30 19271 C 1790.26 -2.67053 2.11885 0
M  V30 19272 H 1791.46 -1.00601 2.82523 0
M  V30 19273 H 1789.01 -0.488819 1.4846 0
M  V30 19274 H 1789.75 -3.00838 1.21107 0
M  V30 19275 H 1789.53 -2.59745 2.93726 0
M  V30 19276 H 1791.02 -3.42353 2.39132 0
M  V30 19277 N 1791.46 -1.48941 -0.515198 0
M  V30 19278 C 1792.42 -1.64062 -1.60051 0
M  V30 19279 C 1793.42 -0.513101 -1.52394 0
M  V30 19280 O 1794.61 -0.77924 -1.558 0
M  V30 19281 C 1791.74 -1.6247 -2.99694 0
M  V30 19282 H 1792.94 -2.60849 -1.47978 0
M  V30 19283 H 1790.49 -1.37759 -0.738378 0
M  V30 19284 H 1791.22 -0.672141 -3.17258 0
M  V30 19285 H 1791.01 -2.4434 -3.0666 0
M  V30 19286 H 1792.5 -1.76273 -3.78573 0
M  V30 19287 N 1792.94 0.765193 -1.37777 0
M  V30 19288 C 1793.88 1.87866 -1.34071 0
M  V30 19289 C 1794.85 1.64828 -0.205154 0
M  V30 19290 O 1796.04 1.86655 -0.395555 0
M  V30 19291 C 1793.18 3.25018 -1.16006 0
M  V30 19292 C 1792.29 3.59966 -2.38848 0
M  V30 19293 C 1791.43 4.8636 -2.13605 0
M  V30 19294 C 1790.46 5.14059 -3.32279 0
M  V30 19295 N 1789.6 6.31644 -3.06545 0
M  V30 19296 H 1794.44 1.90369 -2.29267 0
M  V30 19297 H 1791.98 0.930625 -1.1392 0
M  V30 19298 H 1793.94 4.04145 -1.03552 0
M  V30 19299 H 1792.57 3.21872 -0.24454 0
M  V30 19300 H 1791.62 2.75773 -2.62018 0
M  V30 19301 H 1792.93 3.76369 -3.27334 0
M  V30 19302 H 1792.08 5.73406 -1.9822 0
M  V30 19303 H 1790.82 4.72073 -1.22467 0
M  V30 19304 H 1789.83 4.25487 -3.48196 0
M  V30 19305 H 1791.05 5.30251 -4.24277 0
M  V30 19306 H 1789 6.18703 -2.18043 0
M  V30 19307 H 1788.92 6.48494 -3.88576 0
M  V30 19308 H 1790.18 7.21608 -2.94791 0
M  V30 19309 N 1794.41 1.22455 0.992094 0
M  V30 19310 C 1795.32 1.01173 2.11663 0
M  V30 19311 C 1796.34 -0.0402168 1.73954 0
M  V30 19312 O 1797.52 0.152685 2.0082 0
M  V30 19313 C 1794.58 0.592995 3.41591 0
M  V30 19314 C 1793.64 1.71865 3.93397 0
M  V30 19315 C 1792.87 1.3198 5.17124 0
M  V30 19316 O 1793.1 0.198943 5.70053 0
M  V30 19317 O 1792.03 2.13658 5.62702 0
M  V30 19318 H 1795.86 1.9539 2.32501 0
M  V30 19319 H 1793.44 1.01056 1.10036 0
M  V30 19320 H 1795.32 0.36987 4.19774 0
M  V30 19321 H 1794 -0.320311 3.22111 0
M  V30 19322 H 1792.91 1.9963 3.16384 0
M  V30 19323 H 1794.24 2.60985 4.1731 0
M  V30 19324 N 1795.89 -1.18905 1.03437 0
M  V30 19325 C 1797.14 -1.88354 0.732598 0
M  V30 19326 C 1797.46 -1.80353 -0.741474 0
M  V30 19327 O 1796.73 -1.21764 -1.53461 0
M  V30 19328 H 1795.31 -0.697272 0.267995 0
M  V30 19329 H 1797.97 -1.44329 1.30978 0
M  V30 19330 H 1797.07 -2.94551 1.03181 0
M  V30 19331 N 1797.37 -0.812977 -1.35013 0
M  V30 19332 C 1798.33 -0.233373 -2.28009 0
M  V30 19333 C 1799.33 0.58298 -1.4986 0
M  V30 19334 O 1800.52 0.400533 -1.69533 0
M  V30 19335 C 1797.65 0.673931 -3.34172 0
M  V30 19336 H 1798.85 -1.05366 -2.80781 0
M  V30 19337 H 1796.4 -0.584097 -1.44976 0
M  V30 19338 H 1797.14 1.51766 -2.86597 0
M  V30 19339 H 1796.92 0.0901848 -3.91996 0
M  V30 19340 H 1798.41 1.07358 -4.03564 0
M  V30 19341 N 1798.85 1.47045 -0.567045 0
M  V30 19342 C 1800.09 2.02446 -0.0466799 0
M  V30 19343 C 1800.42 1.44032 1.3071 0
M  V30 19344 O 1799.68 0.58926 1.86618 0
M  V30 19345 C 1799.98 3.57298 0.0855754 0
M  V30 19346 C 1799.64 4.34678 -1.19858 0
M  V30 19347 C 1798.3 4.55538 -1.55043 0
M  V30 19348 C 1800.66 4.7923 -2.04909 0
M  V30 19349 C 1797.98 5.18201 -2.75108 0
M  V30 19350 C 1800.34 5.43218 -3.24186 0
M  V30 19351 C 1799 5.62309 -3.59673 0
M  V30 19352 H 1798.27 0.740803 -0.0170814 0
M  V30 19353 H 1800.92 1.76602 -0.740536 0
M  V30 19354 H 1799.22 3.82189 0.862463 0
M  V30 19355 H 1800.92 3.97824 0.50371 0
M  V30 19356 H 1797.51 4.18727 -0.914632 0
M  V30 19357 H 1801.69 4.62884 -1.79032 0
M  V30 19358 H 1796.95 5.31175 -3.02759 0
M  V30 19359 H 1801.12 5.76702 -3.90369 0
M  V30 19360 H 1798.75 6.10636 -4.528 0
M  V30 19361 N 1800.33 0.304 1.5464 0
M  V30 19362 C 1801.57 -0.304845 2.00496 0
M  V30 19363 C 1801.9 -1.53308 1.19206 0
M  V30 19364 O 1801.18 -1.92627 0.269305 0
M  V30 19365 C 1801.46 -0.658462 3.54029 0
M  V30 19366 C 1801.32 0.579125 4.46056 0
M  V30 19367 C 1802.63 -1.4838 4.14332 0
M  V30 19368 H 1799.75 -0.109327 0.728846 0
M  V30 19369 H 1802.4 0.416694 1.85374 0
M  V30 19370 H 1800.55 -1.27319 3.67045 0
M  V30 19371 H 1802.22 1.21758 4.44941 0
M  V30 19372 H 1800.46 1.21179 4.16531 0
M  V30 19373 H 1801.13 0.287518 5.51251 0
M  V30 19374 H 1803.61 -0.964367 4.04771 0
M  V30 19375 H 1802.48 -1.70001 5.21911 0
M  V30 19376 H 1802.74 -2.47394 3.66399 0
M  V30 19377 N 1801.8 -1.57568 0.0317802 0
M  V30 19378 C 1802.71 -2.13842 -0.964811 0
M  V30 19379 C 1803.73 -1.09134 -1.3552 0
M  V30 19380 O 1804.91 -1.41205 -1.43608 0
M  V30 19381 C 1801.97 -2.65654 -2.22775 0
M  V30 19382 C 1801.03 -3.85087 -1.89753 0
M  V30 19383 C 1800.26 -4.34419 -3.10026 0
M  V30 19384 O 1800.49 -3.8291 -4.22772 0
M  V30 19385 O 1799.42 -5.26233 -2.92169 0
M  V30 19386 H 1803.25 -2.99279 -0.516302 0
M  V30 19387 H 1800.83 -1.482 -0.188982 0
M  V30 19388 H 1802.71 -2.99035 -2.96911 0
M  V30 19389 H 1801.39 -1.83299 -2.66802 0
M  V30 19390 H 1800.3 -3.56628 -1.12994 0
M  V30 19391 H 1801.63 -4.68613 -1.50541 0
M  V30 19392 N 1803.28 0.241399 -1.5574 0
M  V30 19393 C 1804.21 1.30255 -1.93793 0
M  V30 19394 C 1805.19 1.49923 -0.803563 0
M  V30 19395 O 1806.38 1.62439 -1.06429 0
M  V30 19396 C 1803.51 2.65625 -2.23742 0
M  V30 19397 C 1802.46 2.60645 -3.39483 0
M  V30 19398 C 1801.79 3.99861 -3.54986 0
M  V30 19399 C 1803.09 2.17151 -4.75019 0
M  V30 19400 H 1804.78 0.986532 -2.8268 0
M  V30 19401 H 1802.33 0.473125 -1.36006 0
M  V30 19402 H 1804.28 3.40001 -2.48953 0
M  V30 19403 H 1803.01 2.98874 -1.31688 0
M  V30 19404 H 1801.66 1.88727 -3.14289 0
M  V30 19405 H 1801.31 4.30385 -2.60342 0
M  V30 19406 H 1801.01 3.97415 -4.32822 0
M  V30 19407 H 1802.54 4.75928 -3.82524 0
M  V30 19408 H 1803.95 2.8126 -4.99565 0
M  V30 19409 H 1802.35 2.25805 -5.55996 0
M  V30 19410 H 1803.42 1.12329 -4.7171 0
M  V30 19411 N 1804.76 1.49212 0.507292 0
M  V30 19412 C 1806.01 1.58381 1.26181 0
M  V30 19413 C 1806.34 0.267704 1.92649 0
M  V30 19414 O 1805.59 -0.743892 1.8101 0
M  V30 19415 C 1805.89 2.68761 2.35589 0
M  V30 19416 C 1805.56 4.10467 1.86622 0
M  V30 19417 C 1804.22 4.49031 1.72986 0
M  V30 19418 C 1806.57 4.99179 1.49898 0
M  V30 19419 C 1803.9 5.74088 1.20995 0
M  V30 19420 C 1806.25 6.24748 0.993611 0
M  V30 19421 C 1804.91 6.62148 0.8436 0
M  V30 19422 H 1804.18 0.579558 0.461729 0
M  V30 19423 H 1806.83 1.83019 0.563581 0
M  V30 19424 H 1805.14 2.3807 3.11175 0
M  V30 19425 H 1806.83 2.73066 2.9366 0
M  V30 19426 H 1803.42 3.80023 1.98193 0
M  V30 19427 H 1807.61 4.70046 1.59282 0
M  V30 19428 H 1802.86 6.0177 1.08087 0
M  V30 19429 H 1807.04 6.92871 0.700235 0
M  V30 19430 H 1804.66 7.58934 0.43855 0
M  V30 19431 N 1806.24 -0.757876 1.38181 0
M  V30 19432 C 1807.19 -1.86207 1.31571 0
M  V30 19433 C 1808.17 -1.59642 0.200812 0
M  V30 19434 O 1809.36 -1.71535 0.436416 0
M  V30 19435 C 1806.49 -3.23861 1.13881 0
M  V30 19436 C 1805.58 -3.56332 2.29975 0
M  V30 19437 N 1805.97 -3.59889 3.55406 0
M  V30 19438 C 1804.27 -3.86574 2.22433 0
M  V30 19439 C 1804.97 -3.89504 4.32044 0
M  V30 19440 N 1803.95 -4.06115 3.61347 0
M  V30 19441 H 1807.75 -1.87229 2.26545 0
M  V30 19442 H 1805.26 -0.955018 1.31351 0
M  V30 19443 H 1807.26 -4.02874 1.0723 0
M  V30 19444 H 1805.92 -3.24093 0.198371 0
M  V30 19445 H 1806.93 -3.41754 3.89133 0
M  V30 19446 H 1803.61 -3.94547 1.36524 0
M  V30 19447 H 1805 -3.98915 5.40663 0
M  V30 19448 N 1807.72 -1.22979 -0.985586 0
M  V30 19449 C 1808.63 -1.02294 -2.11124 0
M  V30 19450 C 1809.64 0.030991 -1.73972 0
M  V30 19451 O 1810.82 -0.163333 -2.00737 0
M  V30 19452 C 1807.88 -0.611102 -3.41272 0
M  V30 19453 C 1806.94 -1.73949 -3.9248 0
M  V30 19454 C 1806.18 -1.34721 -5.16417 0
M  V30 19455 O 1806.4 -0.229171 -5.69939 0
M  V30 19456 O 1805.33 -2.16639 -5.61561 0
M  V30 19457 H 1809.16 -1.9662 -2.31461 0
M  V30 19458 H 1806.75 -1.01639 -1.09499 0
M  V30 19459 H 1808.63 -0.392127 -4.19572 0
M  V30 19460 H 1807.3 0.303224 -3.22277 0
M  V30 19461 H 1806.21 -2.01305 -3.1532 0
M  V30 19462 H 1807.54 -2.63194 -4.1592 0
M  V30 19463 N 1809.19 1.18355 -1.04066 0
M  V30 19464 C 1810.44 1.87665 -0.73923 0
M  V30 19465 C 1810.76 1.81226 0.735963 0
M  V30 19466 O 1811.96 2.45899 1.15091 0
M  V30 19467 C 1810.42 3.36671 -1.27203 0
M  V30 19468 C 1810.03 3.5164 -2.77585 0
M  V30 19469 C 1811.77 4.11383 -1.04712 0
M  V30 19470 C 1809.68 4.94605 -3.24222 0
M  V30 19471 H 1808.61 0.702908 -0.27283 0
M  V30 19472 H 1811.26 1.33733 -1.25649 0
M  V30 19473 H 1809.64 3.90072 -0.682621 0
M  V30 19474 H 1810.81 3.08511 -3.42283 0
M  V30 19475 H 1809.13 2.90334 -2.98488 0
M  V30 19476 H 1811.73 5.16832 -1.37071 0
M  V30 19477 H 1812.07 4.16297 0.0156344 0
M  V30 19478 H 1812.6 3.64154 -1.60114 0
M  V30 19479 H 1809.34 4.94859 -4.29878 0
M  V30 19480 H 1808.86 5.38449 -2.6426 0
M  V30 19481 H 1810.54 5.6332 -3.18245 0
M  V30 19482 N 1810.67 0.820125 1.3458 0
M  V30 19483 C 1811.95 0.329573 1.92803 0
M  V30 19484 C 1812.33 -1.18271 1.74858 0
M  V30 19485 O 1811.68 -1.98851 1.12564 0
M  V30 19486 C 1811.89 0.755833 3.40717 0
M  V30 19487 C 1813.24 0.75306 4.17869 0
M  V30 19488 O 1814.26 0.698235 3.49289 0
M  V30 19489 O 1813.12 0.823708 5.40257 0
M  V30 19490 H 1810.21 0.0893898 0.822155 0
M  V30 19491 H 1812.76 0.904729 1.43571 0
M  V30 19492 H 1811.53 1.79757 3.47568 0
M  V30 19493 H 1811.15 0.15622 3.97293 0
M  V30 19494 N 1812.15 -1.46743 0.574835 0
M  V30 19495 C 1813.43 -1.95598 -0.00908149 0
M  V30 19496 C 1813.81 -1.5175 -1.46748 0
M  V30 19497 O 1813.16 -0.764502 -2.15331 0
M  V30 19498 C 1813.37 -3.48657 0.154756 0
M  V30 19499 C 1814.71 -4.24596 0.0185002 0
M  V30 19500 O 1815.74 -3.56103 0.0831904 0
M  V30 19501 O 1814.6 -5.4636 -0.123733 0
M  V30 19502 H 1811.69 -0.825219 -0.0542477 0
M  V30 19503 H 1814.24 -1.57063 0.6426 0
M  V30 19504 H 1813.01 -3.73433 1.16891 0
M  V30 19505 H 1812.63 -3.94001 -0.533724 0
M  V30 19506 N 1813.63 -0.312197 -1.54477 0
M  V30 19507 C 1815.04 0.0408317 -1.59548 0
M  V30 19508 C 1815.24 1.51461 -1.32898 0
M  V30 19509 O 1814.3 2.26899 -1.10785 0
M  V30 19510 C 1815.61 -0.367179 -2.9845 0
M  V30 19511 C 1817.16 -0.31688 -3.11392 0
M  V30 19512 C 1817.64 -0.699881 -4.52621 0
M  V30 19513 N 1819.13 -0.652846 -4.58576 0
M  V30 19514 C 1819.86 -0.921531 -5.65946 0
M  V30 19515 N 1819.36 -1.25676 -6.81306 0
M  V30 19516 N 1821.15 -0.847847 -5.55669 0
M  V30 19517 H 1813.3 -1.27255 -1.70059 0
M  V30 19518 H 1815.57 -0.516679 -0.794825 0
M  V30 19519 H 1815.27 -1.39356 -3.22913 0
M  V30 19520 H 1815.15 0.273556 -3.76207 0
M  V30 19521 H 1817.53 0.700275 -2.86671 0
M  V30 19522 H 1817.61 -0.992393 -2.35765 0
M  V30 19523 H 1817.26 -1.7149 -4.78073 0
M  V30 19524 H 1817.19 -0.00217708 -5.266 0
M  V30 19525 H 1819.68 -0.405135 -3.75722 0
M  V30 19526 H 1819.99 -1.44746 -7.59123 0
M  V30 19527 H 1818.34 -1.29491 -6.8283 0
M  V30 19528 H 1821.53 -0.585523 -4.64424 0
M  V30 19529 H 1821.7 -1.06061 -6.39261 0
M  V30 19530 N 1815.11 1.57549 -0.040136 0
M  V30 19531 C 1816.04 2.13912 0.936168 0
M  V30 19532 C 1817.02 1.05798 1.33194 0
M  V30 19533 O 1818.2 1.33685 1.40861 0
M  V30 19534 C 1815.33 2.67515 2.21479 0
M  V30 19535 C 1814.29 3.80513 1.95943 0
M  V30 19536 C 1813.61 4.20589 3.30165 0
M  V30 19537 C 1814.91 5.06124 1.28981 0
M  V30 19538 H 1816.61 2.9574 0.46674 0
M  V30 19539 H 1814.15 1.42262 0.223062 0
M  V30 19540 H 1816.11 3.05582 2.90168 0
M  V30 19541 H 1814.83 1.82864 2.70608 0
M  V30 19542 H 1813.49 3.42902 1.29669 0
M  V30 19543 H 1813.14 3.32904 3.77073 0
M  V30 19544 H 1812.84 4.96742 3.13881 0
M  V30 19545 H 1814.36 4.61248 4.00103 0
M  V30 19546 H 1815.77 5.41707 1.87687 0
M  V30 19547 H 1814.17 5.87347 1.2306 0
M  V30 19548 H 1815.24 4.84179 0.264286 0
M  V30 19549 N 1816.58 -0.233136 1.55866 0
M  V30 19550 C 1817.81 -0.980602 1.82754 0
M  V30 19551 C 1818.23 -1.77624 0.618988 0
M  V30 19552 O 1817.59 -1.76074 -0.432148 0
M  V30 19553 C 1817.64 -1.88319 3.07519 0
M  V30 19554 O 1816.74 -2.97692 2.85401 0
M  V30 19555 H 1816.09 -0.278295 0.602867 0
M  V30 19556 H 1818.62 -0.249956 2.03067 0
M  V30 19557 H 1818.63 -2.29523 3.37318 0
M  V30 19558 H 1817.3 -1.29831 3.95116 0
M  V30 19559 H 1815.88 -2.60517 2.66805 0
M  V30 19560 N 1818.06 -1.49479 -0.499372 0
M  V30 19561 C 1819.34 -1.4955 -1.26071 0
M  V30 19562 C 1819.72 -0.224142 -2.09907 0
M  V30 19563 O 1819.07 0.793432 -2.14282 0
M  V30 19564 C 1819.28 -2.77534 -2.11604 0
M  V30 19565 C 1820.63 -3.27088 -2.70738 0
M  V30 19566 O 1821.65 -2.78662 -2.2187 0
M  V30 19567 O 1820.51 -4.11432 -3.59703 0
M  V30 19568 H 1817.6 -0.598631 -0.570587 0
M  V30 19569 H 1820.15 -1.61744 -0.513509 0
M  V30 19570 H 1818.92 -3.61556 -1.49642 0
M  V30 19571 H 1818.54 -2.68208 -2.93514 0
M  V30 19572 N 1819.54 0.750537 -1.38581 0
M  V30 19573 C 1820.47 1.87785 -1.38777 0
M  V30 19574 C 1821.45 1.68204 -0.253244 0
M  V30 19575 O 1822.64 1.88752 -0.456779 0
M  V30 19576 C 1819.77 3.2535 -1.21511 0
M  V30 19577 C 1818.72 3.59538 -2.32199 0
M  V30 19578 C 1818.05 4.95873 -2.00036 0
M  V30 19579 C 1819.35 3.64102 -3.74469 0
M  V30 19580 H 1821.04 1.87879 -2.33113 0
M  V30 19581 H 1818.59 0.902504 -1.12209 0
M  V30 19582 H 1820.54 4.03872 -1.20272 0
M  V30 19583 H 1819.26 3.25744 -0.236366 0
M  V30 19584 H 1817.92 2.83336 -2.32629 0
M  V30 19585 H 1817.57 4.9283 -1.00638 0
M  V30 19586 H 1817.27 5.19716 -2.7417 0
M  V30 19587 H 1818.8 5.7677 -2.00421 0
M  V30 19588 H 1820.21 4.32731 -3.76054 0
M  V30 19589 H 1818.61 3.99455 -4.47834 0
M  V30 19590 H 1819.68 2.64259 -4.06565 0
M  V30 19591 N 1821.02 1.235 0.979051 0
M  V30 19592 C 1822.27 1.0658 1.71713 0
M  V30 19593 C 1822.59 -0.397927 1.90897 0
M  V30 19594 O 1821.86 -1.28511 1.47857 0
M  V30 19595 H 1820.44 0.391397 0.636253 0
M  V30 19596 H 1823.1 1.55239 1.17843 0
M  V30 19597 H 1822.2 1.5548 2.70615 0
M  V30 19598 N 1822.5 -1.17802 1.04693 0
M  V30 19599 C 1823.75 -1.87271 0.749172 0
M  V30 19600 C 1824.06 -1.81614 -0.726342 0
M  V30 19601 O 1825.27 -2.46506 -1.13785 0
M  V30 19602 C 1823.72 -3.35992 1.28986 0
M  V30 19603 C 1823.33 -3.50163 2.79446 0
M  V30 19604 C 1825.07 -4.10821 1.06892 0
M  V30 19605 C 1822.98 -4.92878 3.26841 0
M  V30 19606 H 1821.91 -0.701451 0.276554 0
M  V30 19607 H 1824.56 -1.33065 1.26357 0
M  V30 19608 H 1822.94 -3.89705 0.703298 0
M  V30 19609 H 1824.12 -3.06692 3.43914 0
M  V30 19610 H 1822.43 -2.88747 3.00023 0
M  V30 19611 H 1825.03 -5.16098 1.39809 0
M  V30 19612 H 1825.37 -4.163 0.00644311 0
M  V30 19613 H 1825.91 -3.633 1.62043 0
M  V30 19614 H 1822.64 -4.92572 4.32497 0
M  V30 19615 H 1822.16 -5.3704 2.67112 0
M  V30 19616 H 1823.84 -5.61624 3.21227 0
M  V30 19617 N 1823.98 -0.827251 -1.34143 0
M  V30 19618 C 1825.2 -0.429514 -2.02904 0
M  V30 19619 C 1825.63 0.958033 -1.61874 0
M  V30 19620 O 1824.98 1.62422 -0.805528 0
M  V30 19621 C 1825.03 -0.544592 -3.56464 0
M  V30 19622 O 1824.14 0.433849 -4.10112 0
M  V30 19623 H 1823.48 -0.176216 -0.64019 0
M  V30 19624 H 1826.01 -1.11887 -1.71297 0
M  V30 19625 H 1826.02 -0.421949 -4.05812 0
M  V30 19626 H 1824.69 -1.55657 -3.85673 0
M  V30 19627 H 1823.27 0.269729 -3.71923 0
M  V30 19628 N 1825.45 1.46436 -0.582609 0
M  V30 19629 C 1826.68 2.07275 -0.0718712 0
M  V30 19630 C 1827.1 1.42851 1.22373 0
M  V30 19631 O 1826.46 0.512272 1.73912 0
M  V30 19632 C 1826.51 3.6051 0.08055 0
M  V30 19633 O 1825.61 3.96414 1.13707 0
M  V30 19634 H 1824.95 0.661027 -0.0627607 0
M  V30 19635 H 1827.48 1.88076 -0.805524 0
M  V30 19636 H 1827.49 4.06991 0.286749 0
M  V30 19637 H 1826.17 4.06792 -0.865603 0
M  V30 19638 H 1824.75 3.61643 0.909338 0
M  V30 19639 N 1826.93 0.320385 1.54309 0
M  V30 19640 C 1828.16 -0.284784 2.04628 0
M  V30 19641 C 1828.57 -1.46578 1.1963 0
M  V30 19642 O 1827.91 -1.8239 0.219023 0
M  V30 19643 C 1827.97 -0.785529 3.50813 0
M  V30 19644 C 1827.64 0.272743 4.56185 0
M  V30 19645 C 1828.64 1.10775 5.07961 0
M  V30 19646 C 1826.32 0.420018 5.00541 0
M  V30 19647 C 1828.31 2.0758 6.02652 0
M  V30 19648 C 1826 1.39148 5.95047 0
M  V30 19649 C 1827 2.21784 6.45988 0
M  V30 19650 O 1826.69 3.17281 7.38639 0
M  V30 19651 H 1826.42 -0.0629681 0.673061 0
M  V30 19652 H 1828.97 0.463698 2.00097 0
M  V30 19653 H 1827.2 -1.58487 3.52731 0
M  V30 19654 H 1828.89 -1.3087 3.84224 0
M  V30 19655 H 1829.66 1.00494 4.74474 0
M  V30 19656 H 1825.54 -0.21329 4.60506 0
M  V30 19657 H 1829.08 2.72119 6.42337 0
M  V30 19658 H 1824.98 1.49494 6.2795 0
M  V30 19659 H 1825.75 3.12483 7.56503 0
M  V30 19660 N 1828.41 -1.57525 0.0484906 0
M  V30 19661 C 1829.66 -1.92204 -0.624654 0
M  V30 19662 C 1829.98 -0.927289 -1.71541 0
M  V30 19663 O 1829.25 0.0282687 -1.9588 0
M  V30 19664 H 1827.83 -0.709494 -0.233724 0
M  V30 19665 H 1830.49 -1.94639 0.100861 0
M  V30 19666 H 1829.59 -2.93368 -1.06498 0
M  V30 19667 N 1829.89 0.224867 -1.55988 0
M  V30 19668 C 1831.14 0.947776 -1.78045 0
M  V30 19669 C 1831.45 1.85632 -0.616454 0
M  V30 19670 O 1832.66 2.61763 -0.720579 0
M  V30 19671 C 1831.11 1.73546 -3.15293 0
M  V30 19672 C 1830.72 0.873219 -4.39407 0
M  V30 19673 C 1832.46 2.44978 -3.46679 0
M  V30 19674 C 1830.37 1.65806 -5.67682 0
M  V30 19675 H 1829.3 0.357623 -0.663793 0
M  V30 19676 H 1831.95 0.201754 -1.82388 0
M  V30 19677 H 1830.33 2.52426 -3.05118 0
M  V30 19678 H 1831.51 0.125187 -4.6063 0
M  V30 19679 H 1829.82 0.271179 -4.15516 0
M  V30 19680 H 1832.42 3.04192 -4.3974 0
M  V30 19681 H 1832.76 3.17699 -2.69023 0
M  V30 19682 H 1833.3 1.7309 -3.58168 0
M  V30 19683 H 1830.03 0.974191 -6.4822 0
M  V30 19684 H 1829.55 2.38079 -5.50526 0
M  V30 19685 H 1831.23 2.21959 -6.07736 0
M  V30 19686 N 1831.37 1.49742 0.491438 0
M  V30 19687 C 1832.59 1.63703 1.27343 0
M  V30 19688 C 1833.02 0.312079 1.85493 0
M  V30 19689 O 1832.37 -0.721545 1.66323 0
M  V30 19690 C 1832.42 2.71549 2.37262 0
M  V30 19691 O 1831.53 2.31387 3.41371 0
M  V30 19692 H 1830.87 0.547605 0.375533 0
M  V30 19693 H 1833.4 1.95991 0.587243 0
M  V30 19694 H 1833.41 2.94009 2.82883 0
M  V30 19695 H 1832.08 3.6772 1.94306 0
M  V30 19696 H 1830.66 2.19295 3.01603 0
M  V30 19697 N 1832.84 -0.743177 1.38977 0
M  V30 19698 C 1833.75 -1.88767 1.39299 0
M  V30 19699 C 1834.77 -1.71587 0.288782 0
M  V30 19700 O 1835.95 -1.94331 0.52892 0
M  V30 19701 C 1833.01 -3.24263 1.22697 0
M  V30 19702 C 1832.07 -3.53895 2.43017 0
M  V30 19703 C 1831.31 -4.82925 2.27198 0
M  V30 19704 O 1831.53 -5.56056 1.27114 0
M  V30 19705 O 1830.46 -5.12271 3.16009 0
M  V30 19706 H 1834.29 -1.9145 2.35755 0
M  V30 19707 H 1831.87 -0.889881 1.20006 0
M  V30 19708 H 1833.76 -4.05251 1.1554 0
M  V30 19709 H 1832.43 -3.22368 0.293317 0
M  V30 19710 H 1831.34 -2.73026 2.5575 0
M  V30 19711 H 1832.67 -3.6056 3.35048 0
M  V30 19712 N 1834.32 -1.24018 -0.972487 0
M  V30 19713 C 1835.55 -1.10392 -1.74989 0
M  V30 19714 C 1835.97 0.34396 -1.8564 0
M  V30 19715 O 1835.32 1.23757 -1.34128 0
M  V30 19716 C 1835.37 -1.73247 -3.17282 0
M  V30 19717 O 1835.09 -3.12374 -3.07171 0
M  V30 19718 C 1836.6 -1.65168 -4.11381 0
M  V30 19719 H 1833.82 -0.38593 -0.548907 0
M  V30 19720 H 1836.36 -1.64028 -1.22127 0
M  V30 19721 H 1834.51 -1.23625 -3.67145 0
M  V30 19722 H 1834.93 -3.42997 -3.96804 0
M  V30 19723 H 1836.4 -2.13837 -5.08898 0
M  V30 19724 H 1836.88 -0.61198 -4.34915 0
M  V30 19725 H 1837.49 -2.14194 -3.67425 0
M  V30 19726 N 1835.8 1.17245 -1.05316 0
M  V30 19727 C 1837.03 1.91454 -0.78441 0
M  V30 19728 C 1837.44 1.76886 0.660053 0
M  V30 19729 O 1836.8 1.10686 1.45103 0
M  V30 19730 C 1836.85 3.42477 -1.15722 0
M  V30 19731 O 1836.57 3.56598 -2.54498 0
M  V30 19732 C 1838.07 4.33759 -0.914783 0
M  V30 19733 H 1835.29 0.607416 -0.285108 0
M  V30 19734 H 1837.84 1.48672 -1.40417 0
M  V30 19735 H 1835.99 3.83001 -0.582183 0
M  V30 19736 H 1836.41 4.50178 -2.69147 0
M  V30 19737 H 1837.88 5.38227 -1.22536 0
M  V30 19738 H 1838.36 4.38944 0.149953 0
M  V30 19739 H 1838.96 3.98951 -1.47372 0
M  V30 19740 N 1837.28 0.834353 1.33702 0
M  V30 19741 C 1838.21 0.279313 2.31823 0
M  V30 19742 C 1839.19 -0.610495 1.58767 0
M  V30 19743 O 1840.37 -0.534989 1.86686 0
M  V30 19744 C 1837.5 -0.550201 3.42914 0
M  V30 19745 C 1836.46 0.243432 4.27307 0
M  V30 19746 C 1835.78 -0.709548 5.29971 0
M  V30 19747 C 1837.08 1.45799 5.01537 0
M  V30 19748 H 1838.78 1.09915 2.78494 0
M  V30 19749 H 1836.32 0.529987 1.33892 0
M  V30 19750 H 1838.28 -0.948764 4.10581 0
M  V30 19751 H 1837 -1.4032 2.9492 0
M  V30 19752 H 1835.66 0.6235 3.61259 0
M  V30 19753 H 1835.31 -1.55882 4.78236 0
M  V30 19754 H 1835.01 -0.182671 5.87316 0
M  V30 19755 H 1836.53 -1.10572 6.00505 0
M  V30 19756 H 1837.95 1.13283 5.61996 0
M  V30 19757 H 1836.34 1.92133 5.68511 0
M  V30 19758 H 1837.41 2.23016 4.30571 0
M  V30 19759 N 1838.76 -1.46125 0.590367 0
M  V30 19760 C 1839.67 -2.34177 -0.140761 0
M  V30 19761 C 1840.68 -1.50213 -0.878181 0
M  V30 19762 O 1841.86 -1.83063 -0.839644 0
M  V30 19763 C 1838.92 -3.27537 -1.13669 0
M  V30 19764 C 1837.98 -4.27403 -0.403103 0
M  V30 19765 C 1837.22 -5.16302 -1.35159 0
M  V30 19766 O 1837.44 -5.08283 -2.58853 0
M  V30 19767 O 1836.37 -5.95753 -0.858003 0
M  V30 19768 H 1840.2 -2.98063 0.582401 0
M  V30 19769 H 1837.79 -1.45225 0.35072 0
M  V30 19770 H 1839.67 -3.85112 -1.71074 0
M  V30 19771 H 1838.34 -2.66237 -1.84118 0
M  V30 19772 H 1837.25 -3.73493 0.212986 0
M  V30 19773 H 1838.58 -4.9151 0.260565 0
M  V30 19774 N 1840.23 -0.328564 -1.54137 0
M  V30 19775 C 1841.14 0.543922 -2.28207 0
M  V30 19776 C 1842.16 1.1249 -1.32748 0
M  V30 19777 O 1843.34 1.1438 -1.65769 0
M  V30 19778 C 1840.4 1.6864 -3.02922 0
M  V30 19779 C 1839.46 1.13672 -4.13977 0
M  V30 19780 C 1838.7 2.22474 -4.85119 0
M  V30 19781 O 1838.92 3.42914 -4.55813 0
M  V30 19782 O 1837.85 1.87611 -5.71914 0
M  V30 19783 H 1841.68 -0.0577601 -3.03645 0
M  V30 19784 H 1839.26 -0.0940895 -1.49103 0
M  V30 19785 H 1841.15 2.35143 -3.49693 0
M  V30 19786 H 1839.82 2.27417 -2.30355 0
M  V30 19787 H 1838.73 0.436625 -3.71543 0
M  V30 19788 H 1840.06 0.594012 -4.88602 0
M  V30 19789 N 1841.71 1.57497 -0.0568439 0
M  V30 19790 C 1842.96 1.9209 0.615157 0
M  V30 19791 C 1843.27 0.937538 1.71667 0
M  V30 19792 O 1844.48 1.17573 2.44722 0
M  V30 19793 C 1842.94 3.41183 1.14552 0
M  V30 19794 C 1842.54 4.47936 0.0758146 0
M  V30 19795 C 1844.29 3.84801 1.79244 0
M  V30 19796 C 1842.2 5.88148 0.619381 0
M  V30 19797 H 1841.13 0.716918 0.233547 0
M  V30 19798 H 1843.78 1.83062 -0.126654 0
M  V30 19799 H 1842.16 3.45234 1.93983 0
M  V30 19800 H 1843.33 4.55482 -0.69807 0
M  V30 19801 H 1841.65 4.13694 -0.473984 0
M  V30 19802 H 1844.24 4.86929 2.20918 0
M  V30 19803 H 1844.59 3.21355 2.64645 0
M  V30 19804 H 1845.12 3.8329 1.0646 0
M  V30 19805 H 1841.86 6.55204 -0.19712 0
M  V30 19806 H 1841.38 5.84152 1.36112 0
M  V30 19807 H 1843.06 6.37572 1.1005 0
M  V30 19808 N 1843.19 -0.216591 1.56105 0
M  V30 19809 C 1844.44 -0.940249 1.79348 0
M  V30 19810 C 1844.77 -1.84135 0.626451 0
M  V30 19811 O 1844.02 -1.91796 -0.388932 0
M  V30 19812 C 1844.32 -1.80637 3.08391 0
M  V30 19813 C 1843.99 -1.05808 4.3831 0
M  V30 19814 C 1842.65 -0.851392 4.73608 0
M  V30 19815 C 1845 -0.530015 5.18498 0
M  V30 19816 C 1842.33 -0.104822 5.86606 0
M  V30 19817 C 1844.68 0.203236 6.32273 0
M  V30 19818 C 1843.34 0.42113 6.6617 0
M  V30 19819 H 1842.61 -0.344062 0.656279 0
M  V30 19820 H 1845.26 -0.208069 1.90366 0
M  V30 19821 H 1843.57 -2.60656 2.92516 0
M  V30 19822 H 1845.26 -2.36852 3.23577 0
M  V30 19823 H 1841.85 -1.22915 4.10597 0
M  V30 19824 H 1846.04 -0.677154 4.91659 0
M  V30 19825 H 1841.29 0.074177 6.11355 0
M  V30 19826 H 1845.47 0.619898 6.93636 0
M  V30 19827 H 1843.09 1.00155 7.53573 0
M  V30 19828 N 1844.67 -1.5 -0.48349 0
M  V30 19829 C 1845.6 -1.70879 -1.5913 0
M  V30 19830 C 1846.58 -0.557606 -1.60701 0
M  V30 19831 O 1847.76 -0.79539 -1.77164 0
M  V30 19832 C 1844.89 -1.7915 -2.97527 0
M  V30 19833 C 1843.85 -2.94233 -3.10823 0
M  V30 19834 C 1843.17 -2.87634 -4.50745 0
M  V30 19835 C 1844.47 -4.34925 -2.89202 0
M  V30 19836 H 1846.17 -2.63632 -1.41911 0
M  V30 19837 H 1843.71 -1.26865 -0.68127 0
M  V30 19838 H 1845.67 -1.92342 -3.74943 0
M  V30 19839 H 1844.39 -0.830106 -3.15875 0
M  V30 19840 H 1843.05 -2.80672 -2.35837 0
M  V30 19841 H 1842.7 -1.89365 -4.65993 0
M  V30 19842 H 1842.4 -3.64885 -4.60579 0
M  V30 19843 H 1843.92 -3.02857 -5.30198 0
M  V30 19844 H 1845.34 -4.49076 -3.56376 0
M  V30 19845 H 1843.73 -5.13531 -3.10492 0
M  V30 19846 H 1844.8 -4.48154 -1.85165 0
M  V30 19847 N 1846.15 0.735796 -1.39369 0
M  V30 19848 C 1847.09 1.8498 -1.38025 0
M  V30 19849 C 1848.06 1.64356 -0.24007 0
M  V30 19850 O 1849.25 1.85774 -0.435058 0
M  V30 19851 C 1846.39 3.22484 -1.22874 0
M  V30 19852 C 1845.5 3.54819 -2.4643 0
M  V30 19853 C 1844.64 4.8172 -2.23873 0
M  V30 19854 C 1843.68 5.06895 -3.43108 0
M  V30 19855 N 1842.81 6.25 -3.19874 0
M  V30 19856 H 1847.65 1.85463 -2.33254 0
M  V30 19857 H 1845.19 0.906252 -1.15868 0
M  V30 19858 H 1847.15 4.01857 -1.12101 0
M  V30 19859 H 1845.78 3.21281 -0.312759 0
M  V30 19860 H 1844.83 2.70153 -2.67809 0
M  V30 19861 H 1846.14 3.69342 -3.35244 0
M  V30 19862 H 1845.3 5.69072 -2.10338 0
M  V30 19863 H 1844.03 4.69369 -1.32453 0
M  V30 19864 H 1843.04 4.18006 -3.57143 0
M  V30 19865 H 1844.26 5.21132 -4.35429 0
M  V30 19866 H 1842.21 6.13939 -2.31117 0
M  V30 19867 H 1842.13 6.40106 -4.02244 0
M  V30 19868 H 1843.4 7.15193 -3.10031 0
M  V30 19869 N 1847.63 1.24532 0.965897 0
M  V30 19870 C 1848.87 1.0877 1.71163 0
M  V30 19871 C 1849.2 -0.372297 1.90598 0
M  V30 19872 O 1848.48 -1.27503 1.46878 0
M  V30 19873 C 1848.76 1.83004 3.10131 0
M  V30 19874 C 1848.62 3.36765 2.98177 0
M  V30 19875 C 1849.93 1.60417 4.09822 0
M  V30 19876 H 1847.05 0.396528 0.621236 0
M  V30 19877 H 1849.7 1.53223 1.12351 0
M  V30 19878 H 1847.85 1.4522 3.60338 0
M  V30 19879 H 1849.52 3.84158 2.55382 0
M  V30 19880 H 1847.76 3.65053 2.34347 0
M  V30 19881 H 1848.43 3.83909 3.96633 0
M  V30 19882 H 1850.91 1.93289 3.68482 0
M  V30 19883 H 1849.78 2.14812 5.05121 0
M  V30 19884 H 1850.04 0.542843 4.38755 0
M  V30 19885 N 1849.1 -1.16685 1.05936 0
M  V30 19886 C 1850.07 -2.19155 0.671098 0
M  V30 19887 C 1851.07 -1.5832 -0.281305 0
M  V30 19888 O 1852.26 -1.74082 -0.0641708 0
M  V30 19889 C 1849.39 -3.40897 -0.0131101 0
M  V30 19890 H 1850.58 -2.55019 1.57815 0
M  V30 19891 H 1848.13 -1.30897 0.854147 0
M  V30 19892 H 1848.87 -3.10587 -0.933077 0
M  V30 19893 H 1848.65 -3.86304 0.671687 0
M  V30 19894 H 1850.14 -4.16722 -0.270606 0
M  V30 19895 N 1850.58 -0.841432 -1.33258 0
M  V30 19896 C 1851.49 -0.279006 -2.32935 0
M  V30 19897 C 1852.51 0.596298 -1.63463 0
M  V30 19898 O 1853.68 0.499812 -1.951 0
M  V30 19899 C 1850.75 0.534514 -3.42555 0
M  V30 19900 C 1849.81 -0.365366 -4.27742 0
M  V30 19901 C 1849.04 0.409423 -5.32127 0
M  V30 19902 O 1849.27 1.64085 -5.4629 0
M  V30 19903 O 1848.2 -0.217904 -6.01505 0
M  V30 19904 H 1852.03 -1.10448 -2.82904 0
M  V30 19905 H 1849.61 -0.60402 -1.36645 0
M  V30 19906 H 1851.49 0.996723 -4.09443 0
M  V30 19907 H 1850.17 1.33701 -2.94798 0
M  V30 19908 H 1849.07 -0.875469 -3.63712 0
M  V30 19909 H 1850.41 -1.1327 -4.78989 0
M  V30 19910 N 1852.06 1.4581 -0.598108 0
M  V30 19911 C 1852.97 2.34249 0.12834 0
M  V30 19912 C 1853.99 1.50677 0.870202 0
M  V30 19913 O 1855.16 1.83505 0.829924 0
M  V30 19914 C 1852.23 3.28135 1.1193 0
M  V30 19915 C 1851.29 4.27611 0.380432 0
M  V30 19916 C 1850.52 5.17012 1.32419 0
M  V30 19917 O 1850.74 5.09648 2.56154 0
M  V30 19918 O 1849.68 5.962 0.826397 0
M  V30 19919 H 1853.5 2.9775 -0.598199 0
M  V30 19920 H 1851.09 1.45037 -0.358416 0
M  V30 19921 H 1852.97 3.86014 1.6903 0
M  V30 19922 H 1851.65 2.6721 1.82703 0
M  V30 19923 H 1850.55 3.73375 -0.23279 0
M  V30 19924 H 1851.89 4.91365 -0.286627 0
M  V30 19925 N 1853.54 0.336733 1.53961 0
M  V30 19926 C 1854.76 -0.26614 2.05685 0
M  V30 19927 C 1855.19 -1.43973 1.21051 0
M  V30 19928 O 1854.55 -1.79928 0.222652 0
M  V30 19929 C 1854.59 -0.66571 3.54402 0
M  V30 19930 O 1853.7 -1.76656 3.72648 0
M  V30 19931 H 1853.04 -0.0455655 0.662435 0
M  V30 19932 H 1855.57 0.488969 1.98671 0
M  V30 19933 H 1855.58 -0.944748 3.96911 0
M  V30 19934 H 1854.25 0.192589 4.15454 0
M  V30 19935 H 1852.83 -1.48531 3.42042 0
M  V30 19936 N 1855.02 -1.57465 0.0651956 0
M  V30 19937 C 1856.26 -1.92856 -0.604233 0
M  V30 19938 C 1856.58 -0.945431 -1.70548 0
M  V30 19939 O 1855.85 0.00749144 -1.95899 0
M  V30 19940 H 1854.43 -0.711933 -0.226185 0
M  V30 19941 H 1857.1 -1.94521 0.121499 0
M  V30 19942 H 1856.19 -2.94481 -1.03381 0
M  V30 19943 N 1856.49 0.20831 -1.56217 0
M  V30 19944 C 1857.74 0.932104 -1.8011 0
M  V30 19945 C 1858.07 1.83453 -0.637061 0
M  V30 19946 O 1857.35 1.91081 0.363066 0
M  V30 19947 C 1857.63 1.7597 -3.14176 0
M  V30 19948 C 1857.48 0.882874 -4.4105 0
M  V30 19949 C 1858.8 2.7349 -3.44806 0
M  V30 19950 H 1855.92 0.337428 -0.655218 0
M  V30 19951 H 1858.56 0.2002 -1.88942 0
M  V30 19952 H 1856.71 2.38369 -3.06778 0
M  V30 19953 H 1858.39 0.274607 -4.60482 0
M  V30 19954 H 1856.63 0.188921 -4.33388 0
M  V30 19955 H 1857.3 1.49662 -5.31324 0
M  V30 19956 H 1859.78 2.21225 -3.52418 0
M  V30 19957 H 1858.65 3.28489 -4.39757 0
M  V30 19958 H 1858.91 3.51887 -2.67635 0
M  V30 19959 N 1857.97 1.50255 0.475528 0
M  V30 19960 C 1859.25 1.51537 1.23676 0
M  V30 19961 C 1859.63 0.257508 2.09524 0
M  V30 19962 O 1858.98 -0.759242 2.15517 0
M  V30 19963 C 1859.19 2.80865 2.07162 0
M  V30 19964 C 1860.53 3.31353 2.655 0
M  V30 19965 O 1861.56 2.82156 2.17408 0
M  V30 19966 O 1860.42 4.17102 3.53112 0
M  V30 19967 H 1857.51 0.607633 0.560991 0
M  V30 19968 H 1860.06 1.62541 0.487712 0
M  V30 19969 H 1858.83 3.63891 1.43871 0
M  V30 19970 H 1858.45 2.72844 2.89209 0
M  V30 19971 N 1859.45 -0.728395 1.39758 0
M  V30 19972 C 1860.41 -1.82415 1.38772 0
M  V30 19973 C 1861.41 -1.58278 0.283678 0
M  V30 19974 O 1862.6 -1.65556 0.541927 0
M  V30 19975 C 1859.73 -3.20309 1.16684 0
M  V30 19976 H 1860.93 -1.8469 2.36283 0
M  V30 19977 H 1858.48 -0.932729 1.25419 0
M  V30 19978 H 1859.22 -3.2369 0.198817 0
M  V30 19979 H 1859 -3.39226 1.96643 0
M  V30 19980 H 1860.49 -4.0036 1.18751 0
M  V30 19981 N 1860.93 -1.25042 -0.959279 0
M  V30 19982 C 1861.84 -1.06749 -2.08906 0
M  V30 19983 C 1862.85 -0.00591805 -1.73999 0
M  V30 19984 O 1864.03 -0.205876 -2.00345 0
M  V30 19985 C 1861.09 -0.683353 -3.39899 0
M  V30 19986 C 1860.16 -1.82235 -3.88702 0
M  V30 19987 C 1859.39 -1.45644 -5.13443 0
M  V30 19988 O 1859.61 -0.350012 -5.69325 0
M  V30 19989 O 1858.55 -2.28502 -5.5684 0
M  V30 19990 H 1862.37 -2.01485 -2.27238 0
M  V30 19991 H 1859.96 -1.03938 -1.07318 0
M  V30 19992 H 1861.84 -0.481036 -4.18645 0
M  V30 19993 H 1860.51 0.234796 -3.22847 0
M  V30 19994 H 1859.42 -2.07948 -3.10979 0
M  V30 19995 H 1860.75 -2.71957 -4.10244 0
M  V30 19996 N 1862.41 1.16121 -1.06553 0
M  V30 19997 C 1863.63 1.90611 -0.804673 0
M  V30 19998 C 1864.05 1.77576 0.641255 0
M  V30 19999 O 1863.41 1.12218 1.43921 0
M  V30 20000 C 1863.46 3.41231 -1.19348 0
M  V30 20001 O 1863.18 3.53879 -2.58266 0
M  V30 20002 C 1864.68 4.32764 -0.960738 0
M  V30 20003 H 1861.9 0.604358 -0.291534 0
M  V30 20004 H 1864.44 1.47174 -1.41986 0
M  V30 20005 H 1862.6 3.82361 -0.622772 0
M  V30 20006 H 1863.01 4.47298 -2.73907 0
M  V30 20007 H 1864.49 5.36898 -1.28238 0
M  V30 20008 H 1864.96 4.39078 0.103389 0
M  V30 20009 H 1865.57 3.97365 -1.51595 0
M  V30 20010 N 1863.88 0.848487 1.3281 0
M  V30 20011 C 1865.11 0.46174 2.02195 0
M  V30 20012 C 1865.53 -0.932159 1.63378 0
M  V30 20013 O 1864.89 -1.6112 0.831266 0
M  V30 20014 C 1864.94 0.601234 3.55552 0
M  V30 20015 O 1864.04 -0.368549 4.1075 0
M  V30 20016 H 1863.39 0.186379 0.637306 0
M  V30 20017 H 1865.92 1.14598 1.69495 0
M  V30 20018 H 1865.93 0.486456 4.0509 0
M  V30 20019 H 1864.6 1.61773 3.83148 0
M  V30 20020 H 1863.18 -0.210525 3.72305 0
M  V30 20021 N 1865.36 -1.4549 0.605832 0
M  V30 20022 C 1866.64 -1.95573 0.0324098 0
M  V30 20023 C 1867.02 -1.54829 -1.43496 0
M  V30 20024 O 1866.37 -0.810005 -2.13661 0
M  V30 20025 C 1866.58 -3.4825 0.228676 0
M  V30 20026 C 1867.93 -4.24461 0.108559 0
M  V30 20027 O 1868.95 -3.55846 0.158706 0
M  V30 20028 O 1867.81 -5.46499 -0.00781404 0
M  V30 20029 H 1864.9 -0.826184 -0.0367314 0
M  V30 20030 H 1867.45 -1.55664 0.675771 0
M  V30 20031 H 1866.22 -3.70869 1.24786 0
M  V30 20032 H 1865.84 -3.95045 -0.450031 0
M  V30 20033 N 1866.84 -0.344893 -1.5378 0
M  V30 20034 C 1868.09 0.250711 -2.00539 0
M  V30 20035 C 1868.41 1.5096 -1.23435 0
M  V30 20036 O 1867.68 1.92893 -0.341893 0
M  V30 20037 H 1866.26 0.0956318 -0.740853 0
M  V30 20038 H 1868.92 -0.466361 -1.89238 0
M  V30 20039 H 1868.02 0.49222 -3.08194 0
M  V30 20040 N 1868.32 1.57428 -0.0735454 0
M  V30 20041 C 1869.55 1.97883 0.604148 0
M  V30 20042 C 1869.96 0.951968 1.63043 0
M  V30 20043 O 1869.32 -0.0611641 1.82397 0
M  V30 20044 C 1869.37 3.38414 1.27116 0
M  V30 20045 O 1869.09 4.37166 0.285951 0
M  V30 20046 C 1870.59 3.93753 2.03651 0
M  V30 20047 H 1867.81 0.650747 0.163613 0
M  V30 20048 H 1870.36 2.03975 -0.146466 0
M  V30 20049 H 1868.51 3.33403 1.97285 0
M  V30 20050 H 1868.92 5.18896 0.764698 0
M  V30 20051 H 1870.4 4.94298 2.45711 0
M  V30 20052 H 1870.88 3.30391 2.89376 0
M  V30 20053 H 1871.48 4.0217 1.38345 0
M  V30 20054 N 1869.8 -0.200022 1.56326 0
M  V30 20055 C 1870.73 -1.25071 1.97179 0
M  V30 20056 C 1871.71 -1.4774 0.84303 0
M  V30 20057 O 1872.89 -1.5956 1.10699 0
M  V30 20058 C 1870.02 -2.596 2.30706 0
M  V30 20059 C 1868.98 -2.51552 3.46274 0
M  V30 20060 C 1868.3 -3.90309 3.65463 0
M  V30 20061 C 1869.6 -2.0448 4.80609 0
M  V30 20062 H 1871.3 -0.911238 2.85196 0
M  V30 20063 H 1868.84 -0.436899 1.37212 0
M  V30 20064 H 1870.8 -3.33281 2.5788 0
M  V30 20065 H 1869.52 -2.95278 1.39565 0
M  V30 20066 H 1868.18 -1.80327 3.19183 0
M  V30 20067 H 1867.83 -4.23331 2.71662 0
M  V30 20068 H 1867.53 -3.858 4.43207 0
M  V30 20069 H 1869.05 -4.65619 3.95008 0
M  V30 20070 H 1870.46 -2.67917 5.06847 0
M  V30 20071 H 1868.86 -2.10985 5.61788 0
M  V30 20072 H 1869.93 -0.997828 4.74522 0
M  V30 20073 N 1871.27 -1.50505 -0.467553 0
M  V30 20074 C 1872.69 -1.54489 -1.04833 0
M  V30 20075 C 1873.04 -0.350468 -1.93044 0
M  V30 20076 O 1872.16 0.536238 -2.09651 0
M  V30 20077 C 1872.76 -2.79967 -1.90799 0
M  V30 20078 C 1871.32 -2.86621 -2.43979 0
M  V30 20079 C 1870.46 -2.48819 -1.22412 0
M  V30 20080 H 1873.41 -1.56718 -0.250025 0
M  V30 20081 H 1873.43 -2.62022 -2.75907 0
M  V30 20082 H 1872.95 -3.66881 -1.2657 0
M  V30 20083 H 1871.05 -2.04066 -3.11749 0
M  V30 20084 H 1871.16 -3.89594 -2.78843 0
M  V30 20085 H 1869.52 -2.01335 -1.56001 0
M  V30 20086 H 1870.31 -3.38044 -0.598405 0
M  V30 20087 N 1872.75 0.720973 -1.40142 0
M  V30 20088 C 1873.72 1.81676 -1.39737 0
M  V30 20089 C 1874.72 1.58125 -0.292068 0
M  V30 20090 O 1875.91 1.65266 -0.550699 0
M  V30 20091 C 1873.04 3.19685 -1.18381 0
M  V30 20092 H 1874.23 1.83435 -2.37259 0
M  V30 20093 H 1871.78 0.926064 -1.25912 0
M  V30 20094 H 1872.52 3.2358 -0.21598 0
M  V30 20095 H 1872.3 3.38178 -1.98439 0
M  V30 20096 H 1873.79 3.99724 -1.20873 0
M  V30 20097 N 1874.23 1.25549 0.952634 0
M  V30 20098 C 1875.65 1.02414 1.22407 0
M  V30 20099 C 1875.85 -0.257807 1.99844 0
M  V30 20100 O 1874.9 -0.969999 2.33125 0
M  V30 20101 C 1876.22 2.24856 1.9965 0
M  V30 20102 C 1877.76 2.29638 2.12686 0
M  V30 20103 C 1878.24 3.51742 2.93329 0
M  V30 20104 N 1879.73 3.5215 3.00907 0
M  V30 20105 C 1880.46 4.43292 3.63703 0
M  V30 20106 N 1879.96 5.44709 4.28094 0
M  V30 20107 N 1881.75 4.30969 3.60863 0
M  V30 20108 H 1873.9 2.07905 0.434647 0
M  V30 20109 H 1876.17 0.913124 0.254772 0
M  V30 20110 H 1875.87 3.18037 1.5015 0
M  V30 20111 H 1875.75 2.28188 3.0035 0
M  V30 20112 H 1878.13 1.36978 2.61383 0
M  V30 20113 H 1878.22 2.30324 1.11285 0
M  V30 20114 H 1877.86 4.44724 2.45322 0
M  V30 20115 H 1877.79 3.48301 3.9496 0
M  V30 20116 H 1880.28 2.78789 2.55118 0
M  V30 20117 H 1880.59 6.10462 4.73873 0
M  V30 20118 H 1878.94 5.48579 4.26715 0
M  V30 20119 H 1882.13 3.50964 3.09745 0
M  V30 20120 H 1882.3 5.02196 4.09516 0
M  V30 20121 N 1875.71 -1.15554 1.07168 0
M  V30 20122 C 1877.12 -1.38284 0.796841 0
M  V30 20123 C 1877.32 -1.92366 -0.599782 0
M  V30 20124 O 1876.38 -2.1282 -1.35883 0
M  V30 20125 C 1877.69 -2.35553 1.8691 0
M  V30 20126 C 1879.24 -2.4922 1.89364 0
M  V30 20127 C 1879.72 -3.49778 2.95668 0
M  V30 20128 N 1881.21 -3.57312 2.94759 0
M  V30 20129 C 1881.94 -4.34934 3.73657 0
M  V30 20130 N 1881.44 -5.15905 4.624 0
M  V30 20131 N 1883.23 -4.30004 3.62012 0
M  V30 20132 H 1875.38 -0.787905 1.97246 0
M  V30 20133 H 1877.65 -0.40896 0.855252 0
M  V30 20134 H 1877.35 -2.02927 2.87252 0
M  V30 20135 H 1877.23 -3.3531 1.72763 0
M  V30 20136 H 1879.61 -2.81145 0.896745 0
M  V30 20137 H 1879.69 -1.49468 2.07589 0
M  V30 20138 H 1879.34 -3.18588 3.95556 0
M  V30 20139 H 1879.27 -4.4928 2.74691 0
M  V30 20140 H 1881.76 -2.99518 2.30429 0
M  V30 20141 H 1882.07 -5.72373 5.19238 0
M  V30 20142 H 1880.42 -5.15218 4.6645 0
M  V30 20143 H 1883.61 -3.65811 2.92061 0
M  V30 20144 H 1883.78 -4.90251 4.23743 0
M  V30 20145 N 1877.19 -0.855519 -1.32358 0
M  V30 20146 C 1878.14 -0.289571 -2.3079 0
M  V30 20147 C 1879.13 0.58752 -1.58885 0
M  V30 20148 O 1880.34 0.475228 -1.73613 0
M  V30 20149 H 1876.71 -0.0749379 -0.748257 0
M  V30 20150 H 1878.68 -1.13398 -2.76014 0
M  V30 20151 C 1877.43 0.50647 -3.43992 0
M  V30 20152 H 1876.75 -0.159147 -3.99483 0
M  V30 20153 H 1878.19 0.868035 -4.15019 0
M  V30 20154 C 1876.65 1.69203 -2.91328 0
M  V30 20155 O 1877.18 2.79113 -2.88892 0
M  V30 20156 N 1875.39 1.51938 -2.47716 0
M  V30 20157 H 1874.94 0.625282 -2.49896 0
M  V30 20158 H 1874.89 2.31407 -2.12834 0
M  V30 20159 N 1878.67 1.45167 -0.61354 0
M  V30 20160 C 1880.08 1.57166 -0.277678 0
M  V30 20161 C 1880.28 1.60395 1.21965 0
M  V30 20162 O 1879.34 1.53747 2.00295 0
M  V30 20163 C 1880.65 2.85162 -0.9541 0
M  V30 20164 C 1882.2 2.98847 -0.930579 0
M  V30 20165 C 1882.67 4.29621 -1.58712 0
M  V30 20166 N 1884.16 4.36394 -1.55289 0
M  V30 20167 C 1884.9 5.36264 -2.02999 0
M  V30 20168 N 1884.4 6.42638 -2.58821 0
M  V30 20169 N 1886.19 5.27659 -1.93732 0
M  V30 20170 H 1878.34 1.41314 -1.58569 0
M  V30 20171 H 1880.6 0.676027 -0.664598 0
M  V30 20172 H 1880.31 2.88698 -2.00864 0
M  V30 20173 H 1880.18 3.7412 -0.481025 0
M  V30 20174 H 1882.57 2.94874 0.115433 0
M  V30 20175 H 1882.65 2.11283 -1.44198 0
M  V30 20176 H 1882.29 4.34352 -2.6325 0
M  V30 20177 H 1882.22 5.16011 -1.0507 0
M  V30 20178 H 1884.72 3.60131 -1.14516 0
M  V30 20179 H 1885.03 7.151 -2.93004 0
M  V30 20180 H 1883.37 6.43372 -2.62863 0
M  V30 20181 H 1886.56 4.43465 -1.49856 0
M  V30 20182 H 1886.74 6.05341 -2.31227 0
M  V30 20183 N 1880.14 0.353044 1.53595 0
M  V30 20184 C 1881.56 0.0014839 1.596 0
M  V30 20185 C 1881.76 -1.47884 1.36867 0
M  V30 20186 O 1880.82 -2.23881 1.16762 0
M  V30 20187 C 1882.13 0.446178 2.97371 0
M  V30 20188 C 1883.68 0.399329 3.10442 0
M  V30 20189 C 1884.15 0.819639 4.50606 0
M  V30 20190 N 1885.64 0.7742 4.56684 0
M  V30 20191 C 1886.38 1.07126 5.63304 0
M  V30 20192 N 1885.87 1.43696 6.77734 0
M  V30 20193 N 1887.67 0.994874 5.53226 0
M  V30 20194 H 1879.82 1.31719 1.66625 0
M  V30 20195 H 1882.08 0.537571 0.780847 0
M  V30 20196 H 1881.79 1.47869 3.19105 0
M  V30 20197 H 1881.66 -0.173715 3.768 0
M  V30 20198 H 1884.05 -0.624023 2.88427 0
M  V30 20199 H 1884.13 1.05455 2.33051 0
M  V30 20200 H 1883.77 1.84105 4.73358 0
M  V30 20201 H 1883.7 0.141795 5.26409 0
M  V30 20202 H 1886.19 0.504609 3.74516 0
M  V30 20203 H 1886.51 1.64822 7.55019 0
M  V30 20204 H 1884.85 1.4755 6.79157 0
M  V30 20205 H 1888.04 0.70845 4.62708 0
M  V30 20206 H 1888.22 1.22972 6.36225 0
M  V30 20207 N 1881.62 -1.57387 0.0818932 0
M  V30 20208 C 1882.58 -2.12162 -0.86718 0
M  V30 20209 C 1883.58 -1.04788 -1.21967 0
M  V30 20210 O 1884.77 -1.30733 -1.15128 0
M  V30 20211 C 1881.91 -2.63132 -2.16736 0
M  V30 20212 H 1883.1 -2.9733 -0.391788 0
M  V30 20213 H 1880.65 -1.55406 -0.166944 0
M  V30 20214 H 1881.39 -1.81446 -2.6879 0
M  V30 20215 H 1881.17 -3.41625 -1.92445 0
M  V30 20216 H 1882.66 -3.05549 -2.84657 0
M  V30 20217 N 1883.1 0.191729 -1.56429 0
M  V30 20218 C 1884.35 0.911598 -1.80821 0
M  V30 20219 C 1884.67 1.83115 -0.655667 0
M  V30 20220 O 1883.93 1.92391 0.35837 0
M  V30 20221 C 1884.23 1.75708 -3.11226 0
M  V30 20222 C 1883.89 0.988211 -4.39938 0
M  V30 20223 C 1882.56 0.775937 -4.74903 0
M  V30 20224 C 1884.91 0.447459 -5.19276 0
M  V30 20225 C 1882.24 0.0114851 -5.86699 0
M  V30 20226 C 1884.59 -0.303799 -6.3187 0
M  V30 20227 C 1883.25 -0.527059 -6.65416 0
M  V30 20228 H 1882.52 0.333577 -0.66167 0
M  V30 20229 H 1885.17 0.177758 -1.90673 0
M  V30 20230 H 1883.47 2.5597 -2.96626 0
M  V30 20231 H 1885.17 2.31674 -3.27304 0
M  V30 20232 H 1881.76 1.16368 -4.125 0
M  V30 20233 H 1885.95 0.59885 -4.92674 0
M  V30 20234 H 1881.2 -0.171429 -6.1116 0
M  V30 20235 H 1885.38 -0.730171 -6.92562 0
M  V30 20236 H 1883 -1.12131 -7.51885 0
M  V30 20237 N 1884.58 1.50751 0.459565 0
M  V30 20238 C 1885.83 1.61995 1.20839 0
M  V30 20239 C 1886.15 0.327782 1.92225 0
M  V30 20240 O 1885.42 -0.655341 1.84613 0
M  V30 20241 H 1884 0.596972 0.449036 0
M  V30 20242 H 1886.66 1.87582 0.52906 0
M  V30 20243 H 1885.75 2.43678 1.95006 0
M  V30 20244 N 1886.06 -0.713531 1.40522 0
M  V30 20245 C 1887.33 -1.46672 1.29409 0
M  V30 20246 C 1887.71 -2.10922 -0.0866293 0
M  V30 20247 O 1887.06 -2.00303 -1.09959 0
M  V30 20248 C 1887.27 -2.50076 2.4344 0
M  V30 20249 C 1888.62 -3.15848 2.8377 0
M  V30 20250 O 1889.64 -2.60396 2.43048 0
M  V30 20251 O 1888.5 -4.16238 3.5413 0
M  V30 20252 H 1885.6 -0.652333 0.508322 0
M  V30 20253 H 1888.14 -0.745531 1.52446 0
M  V30 20254 H 1886.91 -2.01129 3.35653 0
M  V30 20255 H 1886.54 -3.29728 2.22183 0
M  V30 20256 N 1887.53 -1.26053 -0.945962 0
M  V30 20257 C 1888.48 -1.07194 -2.04397 0
M  V30 20258 C 1889.45 0.0215796 -1.66086 0
M  V30 20259 O 1890.64 -0.137272 -1.90306 0
M  V30 20260 C 1887.78 -0.705915 -3.37803 0
M  V30 20261 C 1886.89 -1.87519 -3.89179 0
M  V30 20262 C 1886.02 -1.45272 -5.1095 0
M  V30 20263 C 1885.06 -2.59059 -5.54576 0
M  V30 20264 N 1884.2 -2.17527 -6.67552 0
M  V30 20265 H 1889.04 -2.01159 -2.19861 0
M  V30 20266 H 1886.58 -1.00162 -1.07731 0
M  V30 20267 H 1888.53 -0.474611 -4.14492 0
M  V30 20268 H 1887.16 0.196761 -3.222 0
M  V30 20269 H 1886.22 -2.21956 -3.08933 0
M  V30 20270 H 1887.53 -2.7294 -4.17499 0
M  V30 20271 H 1886.68 -1.18158 -5.95083 0
M  V30 20272 H 1885.42 -0.569345 -4.84365 0
M  V30 20273 H 1884.43 -2.86908 -4.69003 0
M  V30 20274 H 1885.65 -3.47989 -5.83164 0
M  V30 20275 H 1883.6 -1.31618 -6.42661 0
M  V30 20276 H 1883.51 -2.96493 -6.95433 0
M  V30 20277 H 1884.78 -1.93612 -7.55073 0
M  V30 20278 N 1889.01 1.14984 -1.07779 0
M  V30 20279 C 1889.94 2.19494 -0.659934 0
M  V30 20280 C 1890.96 1.60201 0.289756 0
M  V30 20281 O 1892.15 1.78328 0.0784004 0
M  V30 20282 C 1889.25 3.38862 0.0506161 0
M  V30 20283 C 1888.42 4.27693 -0.916355 0
M  V30 20284 C 1887.48 5.25642 -0.242303 0
M  V30 20285 O 1886.5 5.62282 -0.884715 0
M  V30 20286 N 1887.71 5.7164 1.01033 0
M  V30 20287 H 1890.47 2.5596 -1.55899 0
M  V30 20288 H 1888.03 1.30143 -0.963043 0
M  V30 20289 H 1890.02 4.01444 0.512331 0
M  V30 20290 H 1888.59 3.00775 0.851671 0
M  V30 20291 H 1887.81 3.62145 -1.55708 0
M  V30 20292 H 1889.1 4.83913 -1.57182 0
M  V30 20293 H 1888.5 5.43991 1.55212 0
M  V30 20294 H 1887.06 6.36241 1.41565 0
M  V30 20295 N 1890.49 0.862526 1.31902 0
M  V30 20296 C 1891.71 0.483159 2.01694 0
M  V30 20297 C 1892.14 -0.914778 1.64358 0
M  V30 20298 O 1891.5 -1.60229 0.848308 0
M  V30 20299 C 1891.55 0.638911 3.54895 0
M  V30 20300 O 1890.65 -0.324962 4.11118 0
M  V30 20301 H 1889.99 0.193128 0.635293 0
M  V30 20302 H 1892.52 1.16389 1.6827 0
M  V30 20303 H 1892.53 0.529394 4.04551 0
M  V30 20304 H 1891.21 1.65828 3.81411 0
M  V30 20305 H 1889.78 -0.171025 3.72508 0
M  V30 20306 N 1891.97 -1.4484 0.62123 0
M  V30 20307 C 1893.21 -2.04018 0.124967 0
M  V30 20308 C 1893.57 -1.47734 -1.22633 0
M  V30 20309 O 1894.77 -1.98351 -1.81412 0
M  V30 20310 C 1893.04 -3.57258 0.10069 0
M  V30 20311 S 1894.6 -4.37539 -0.332394 0
M  V30 20312 H 1891.42 -0.708773 0.0562358 0
M  V30 20313 H 1894.02 -1.77361 0.822397 0
M  V30 20314 H 1892.73 -3.95731 1.08745 0
M  V30 20315 H 1892.26 -3.88511 -0.618303 0
M  V30 20316 H 1894.27 -4.7041 -1.57888 0
M  V30 20317 N 1893.45 -0.361184 -1.53405 0
M  V30 20318 C 1894.38 0.479368 -2.28526 0
M  V30 20319 C 1895.36 1.08768 -1.3078 0
M  V30 20320 O 1896.54 1.10576 -1.59645 0
M  V30 20321 C 1893.67 1.6215 -3.07123 0
M  V30 20322 C 1892.63 1.14065 -4.12521 0
M  V30 20323 C 1891.95 2.37267 -4.79175 0
M  V30 20324 C 1893.25 0.228522 -5.218 0
M  V30 20325 H 1894.95 -0.147344 -2.99037 0
M  V30 20326 H 1892.49 -0.0723051 -1.43818 0
M  V30 20327 H 1894.45 2.21612 -3.58422 0
M  V30 20328 H 1893.17 2.27538 -2.34295 0
M  V30 20329 H 1891.83 0.568735 -3.62162 0
M  V30 20330 H 1891.48 3.01102 -4.02923 0
M  V30 20331 H 1891.18 2.05768 -5.50394 0
M  V30 20332 H 1892.7 2.97424 -5.33265 0
M  V30 20333 H 1894.11 0.730497 -5.68627 0
M  V30 20334 H 1892.51 0.00460259 -6.001 0
M  V30 20335 H 1893.58 -0.730537 -4.79365 0
M  V30 20336 N 1894.92 1.57341 -0.0902386 0
M  V30 20337 C 1896.34 1.57361 0.266413 0
M  V30 20338 C 1896.54 1.10104 1.68758 0
M  V30 20339 O 1895.6 0.775287 2.40303 0
M  V30 20340 C 1896.91 3.00642 0.0592661 0
M  V30 20341 C 1898.46 3.12741 0.127389 0
M  V30 20342 C 1898.93 4.57971 -0.0517042 0
M  V30 20343 N 1900.42 4.632 0.0032917 0
M  V30 20344 C 1901.16 5.73293 -0.110598 0
M  V30 20345 N 1900.65 6.92238 -0.279049 0
M  V30 20346 N 1902.45 5.62076 -0.0522147 0
M  V30 20347 H 1894.6 1.86369 -1.01884 0
M  V30 20348 H 1896.86 0.859996 -0.398886 0
M  V30 20349 H 1896.57 3.39396 -0.922117 0
M  V30 20350 H 1896.44 3.68539 0.80368 0
M  V30 20351 H 1898.83 2.73861 1.09927 0
M  V30 20352 H 1898.91 2.47445 -0.648435 0
M  V30 20353 H 1898.55 4.97544 -1.02043 0
M  V30 20354 H 1898.48 5.21321 0.743753 0
M  V30 20355 H 1900.97 3.77672 0.131145 0
M  V30 20356 H 1901.29 7.71972 -0.357596 0
M  V30 20357 H 1899.63 6.94287 -0.314653 0
M  V30 20358 H 1902.82 4.68035 0.0782189 0
M  V30 20359 H 1903 6.47839 -0.144423 0
M  V30 20360 N 1896.4 -0.183431 1.56529 0
M  V30 20361 C 1897.81 -0.747035 1.71103 0
M  V30 20362 C 1898.16 -1.83335 0.698762 0
M  V30 20363 O 1897.29 -2.15931 -0.142414 0
M  V30 20364 C 1897.88 -1.36183 3.10225 0
M  V30 20365 C 1896.44 -1.87239 3.26525 0
M  V30 20366 C 1895.59 -0.746737 2.67056 0
M  V30 20367 H 1898.54 0.0418058 1.58645 0
M  V30 20368 H 1898.56 -2.2314 3.08203 0
M  V30 20369 H 1898.07 -0.570966 3.83877 0
M  V30 20370 H 1896.18 -2.69008 2.57809 0
M  V30 20371 H 1896.29 -2.02616 4.34147 0
M  V30 20372 H 1894.65 -1.16406 2.26543 0
M  V30 20373 H 1895.44 0.0320833 3.43285 0
M  V30 20374 N 1897.88 -1.50992 -0.451564 0
M  V30 20375 C 1899.13 -1.62955 -1.20216 0
M  V30 20376 C 1899.46 -0.33902 -1.91523 0
M  V30 20377 O 1898.71 0.676199 -1.83647 0
M  V30 20378 C 1899.01 -2.7732 -2.25452 0
M  V30 20379 C 1898.68 -4.1711 -1.71259 0
M  V30 20380 C 1897.34 -4.55142 -1.56202 0
M  V30 20381 C 1899.69 -5.04399 -1.31268 0
M  V30 20382 C 1897.02 -5.78183 -0.996051 0
M  V30 20383 C 1899.37 -6.28005 -0.761055 0
M  V30 20384 C 1898.03 -6.64823 -0.597267 0
M  V30 20385 H 1897.3 -0.596295 -0.439901 0
M  V30 20386 H 1899.95 -1.84985 -0.495266 0
M  V30 20387 H 1898.26 -2.49455 -3.02125 0
M  V30 20388 H 1899.95 -2.83777 -2.83323 0
M  V30 20389 H 1896.54 -3.87117 -1.83952 0
M  V30 20390 H 1900.73 -4.75633 -1.41727 0
M  V30 20391 H 1895.98 -6.05367 -0.856787 0
M  V30 20392 H 1900.16 -6.94992 -0.442598 0
M  V30 20393 H 1897.78 -7.60039 -0.156575 0
M  V30 20394 N 1899.36 0.706069 -1.40899 0
M  V30 20395 C 1900.59 1.49504 -1.43025 0
M  V30 20396 C 1901 1.88772 -0.0325752 0
M  V30 20397 O 1900.36 1.56085 0.945716 0
M  V30 20398 C 1900.41 2.76431 -2.32955 0
M  V30 20399 O 1900.13 2.38821 -3.67282 0
M  V30 20400 C 1901.63 3.70255 -2.43774 0
M  V30 20401 H 1898.85 0.461069 -0.4875 0
M  V30 20402 H 1901.4 0.870198 -1.85062 0
M  V30 20403 H 1899.55 3.35177 -1.94255 0
M  V30 20404 H 1899.96 3.2056 -4.1514 0
M  V30 20405 H 1901.44 4.56129 -3.10887 0
M  V30 20406 H 1901.92 4.14021 -1.46573 0
M  V30 20407 H 1902.52 3.17417 -2.83066 0
M  V30 20408 N 1900.84 1.26553 0.939264 0
M  V30 20409 C 1901.75 1.10059 2.07181 0
M  V30 20410 C 1902.76 0.033599 1.73968 0
M  V30 20411 O 1903.94 0.237723 1.99992 0
M  V30 20412 C 1901 0.737342 3.38769 0
M  V30 20413 C 1900.06 1.88395 3.85753 0
M  V30 20414 C 1899.3 1.53794 5.11061 0
M  V30 20415 O 1899.52 0.440543 5.68696 0
M  V30 20416 O 1898.45 2.37332 5.53134 0
M  V30 20417 H 1902.28 2.05075 2.24004 0
M  V30 20418 H 1899.87 1.05633 1.05651 0
M  V30 20419 H 1901.75 0.547578 4.17827 0
M  V30 20420 H 1900.42 -0.183404 3.2318 0
M  V30 20421 H 1899.33 2.1287 3.07632 0
M  V30 20422 H 1900.66 2.78449 4.05865 0
M  V30 20423 N 1902.31 -1.14411 1.08387 0
M  V30 20424 C 1903.59 -1.8162 0.726188 0
M  V30 20425 C 1903.97 -1.95755 -0.790129 0
M  V30 20426 O 1903.32 -1.51725 -1.70856 0
M  V30 20427 C 1903.53 -3.17321 1.45287 0
M  V30 20428 C 1904.88 -3.92818 1.6118 0
M  V30 20429 O 1905.9 -3.2691 1.41451 0
M  V30 20430 O 1904.76 -5.1101 1.93728 0
M  V30 20431 H 1901.85 -0.785182 0.25965 0
M  V30 20432 H 1904.4 -1.21431 1.18544 0
M  V30 20433 H 1903.17 -3.02195 2.48584 0
M  V30 20434 H 1902.8 -3.85203 0.985093 0
M  V30 20435 N 1903.79 -0.869509 -1.31443 0
M  V30 20436 C 1905.07 -0.400903 -1.91447 0
M  V30 20437 C 1905.45 1.117 -1.79127 0
M  V30 20438 O 1904.8 1.94536 -1.19866 0
M  V30 20439 C 1905.01 -0.881767 -3.37677 0
M  V30 20440 C 1906.36 -0.90763 -4.14786 0
M  V30 20441 O 1907.38 -0.82739 -3.46457 0
M  V30 20442 O 1906.24 -1.02365 -5.36827 0
M  V30 20443 H 1903.33 -0.119842 -0.818271 0
M  V30 20444 H 1905.88 -0.957391 -1.40115 0
M  V30 20445 H 1904.65 -1.92533 -3.40657 0
M  V30 20446 H 1904.27 -0.303565 -3.96439 0
M  V30 20447 N 1905.27 1.44508 -0.628902 0
M  V30 20448 C 1906.23 2.291 0.0676501 0
M  V30 20449 C 1907.23 1.40921 0.77447 0
M  V30 20450 O 1908.42 1.62816 0.619397 0
M  V30 20451 C 1905.56 3.22448 1.10634 0
M  V30 20452 H 1906.75 2.92174 -0.676344 0
M  V30 20453 H 1904.3 1.51384 -0.388933 0
M  V30 20454 H 1905.04 2.64219 1.88039 0
M  V30 20455 H 1904.82 3.87428 0.603465 0
M  V30 20456 H 1906.31 3.86 1.59354 0
M  V30 20457 N 1906.75 0.369315 1.53212 0
M  V30 20458 C 1907.71 -0.463128 2.24472 0
M  V30 20459 C 1908.71 -1.00667 1.2539 0
M  V30 20460 O 1909.9 -0.891832 1.4964 0
M  V30 20461 C 1907.03 -1.6477 2.98435 0
M  V30 20462 H 1908.23 0.160479 2.9947 0
M  V30 20463 H 1905.78 0.121068 1.5583 0
M  V30 20464 H 1906.52 -2.30929 2.27689 0
M  V30 20465 H 1906.3 -1.26487 3.71138 0
M  V30 20466 H 1907.79 -2.23753 3.52596 0
M  V30 20467 N 1908.23 -1.57291 0.0985816 0
M  V30 20468 C 1909.5 -1.85951 -0.606759 0
M  V30 20469 C 1909.88 -0.996077 -1.86122 0
M  V30 20470 O 1909.23 -0.0694281 -2.28394 0
M  V30 20471 C 1909.44 -3.36688 -0.918803 0
M  V30 20472 C 1910.79 -4.04824 -1.28074 0
M  V30 20473 O 1911.81 -3.41589 -1.00971 0
M  V30 20474 O 1910.67 -5.16406 -1.7885 0
M  V30 20475 H 1907.77 -0.769103 -0.30399 0
M  V30 20476 H 1910.31 -1.69189 0.131543 0
M  V30 20477 H 1909.09 -3.91289 -0.0289848 0
M  V30 20478 H 1908.71 -3.58808 -1.71296 0
M  V30 20479 N 1909.71 0.175127 -1.56624 0
M  V30 20480 C 1911.12 0.737951 -1.71497 0
M  V30 20481 C 1911.47 1.82962 -0.708475 0
M  V30 20482 O 1910.59 2.16003 0.13096 0
M  V30 20483 C 1911.19 1.34536 -3.10943 0
M  V30 20484 C 1909.75 1.85505 -3.27513 0
M  V30 20485 C 1908.89 0.732564 -2.67449 0
M  V30 20486 H 1911.84 -0.0502185 -1.58621 0
M  V30 20487 H 1911.87 2.21502 -3.09382 0
M  V30 20488 H 1911.38 0.5506 -3.84174 0
M  V30 20489 H 1909.48 2.67637 -2.59232 0
M  V30 20490 H 1909.59 2.00311 -4.35215 0
M  V30 20491 H 1907.96 1.15203 -2.27157 0
M  V30 20492 H 1908.74 -0.050288 -3.43263 0
M  V30 20493 N 1911.18 1.5123 0.44355 0
M  V30 20494 C 1912.13 1.7266 1.55857 0
M  V30 20495 C 1913.13 0.59279 1.5869 0
M  V30 20496 O 1914.33 0.774014 1.62509 0
M  V30 20497 H 1910.71 0.545442 0.517684 0
M  V30 20498 H 1912.68 2.66139 1.34954 0
M  V30 20499 C 1911.43 1.86311 2.9357 0
M  V30 20500 H 1910.75 2.72958 2.9212 0
M  V30 20501 H 1912.19 2.0532 3.70971 0
M  V30 20502 C 1910.65 0.621377 3.3112 0
M  V30 20503 O 1911.18 -0.226833 4.01059 0
M  V30 20504 N 1909.38 0.467286 2.86818 0
M  V30 20505 H 1908.93 1.15859 2.30075 0
M  V30 20506 H 1908.89 -0.36232 3.12305 0
M  V30 20507 N 1912.66 -0.698586 1.41271 0
M  V30 20508 C 1913.94 -1.45291 1.30957 0
M  V30 20509 C 1914.32 -2.11002 -0.0642533 0
M  V30 20510 O 1913.67 -2.01458 -1.07829 0
M  V30 20511 C 1913.88 -2.4748 2.46078 0
M  V30 20512 C 1915.22 -3.1282 2.87104 0
M  V30 20513 O 1916.25 -2.57804 2.45796 0
M  V30 20514 O 1915.11 -4.12458 3.58525 0
M  V30 20515 H 1912.2 -0.646905 0.515212 0
M  V30 20516 H 1914.75 -0.72932 1.53229 0
M  V30 20517 H 1913.52 -1.97558 3.37767 0
M  V30 20518 H 1913.14 -3.27353 2.25668 0
M  V30 20519 N 1914.14 -1.27049 -0.93254 0
M  V30 20520 C 1915.36 -1.16011 -1.71919 0
M  V30 20521 C 1915.79 0.279951 -1.86005 0
M  V30 20522 O 1915.15 1.20279 -1.35657 0
M  V30 20523 C 1915.2 -1.84349 -3.09916 0
M  V30 20524 O 1914.3 -1.13816 -3.96383 0
M  V30 20525 H 1913.64 -0.403752 -0.527144 0
M  V30 20526 H 1916.17 -1.6803 -1.16736 0
M  V30 20527 H 1916.18 -1.91516 -3.60258 0
M  V30 20528 H 1914.86 -2.89109 -2.9898 0
M  V30 20529 H 1913.43 -1.14684 -3.54827 0
M  V30 20530 N 1915.62 1.13835 -1.08993 0
M  V30 20531 C 1916.89 1.81232 -0.735809 0
M  V30 20532 C 1917.27 1.96172 0.779737 0
M  V30 20533 O 1916.62 1.52629 1.70049 0
M  V30 20534 C 1916.83 3.16546 -1.46968 0
M  V30 20535 C 1918.18 3.91958 -1.6326 0
M  V30 20536 O 1919.2 3.26155 -1.43183 0
M  V30 20537 O 1918.06 5.09976 -1.96435 0
M  V30 20538 H 1915.16 0.783794 -0.26381 0
M  V30 20539 H 1917.7 1.20801 -1.19186 0
M  V30 20540 H 1916.48 3.00872 -2.50183 0
M  V30 20541 H 1916.1 3.84676 -1.00551 0
M  V30 20542 N 1917.1 0.876467 1.3098 0
M  V30 20543 C 1918.34 0.486745 1.95739 0
M  V30 20544 C 1918.66 -0.967265 1.7001 0
M  V30 20545 O 1919.86 -1.46344 2.28683 0
M  V30 20546 C 1918.32 0.819534 3.50445 0
M  V30 20547 C 1917.93 2.29074 3.85005 0
M  V30 20548 C 1919.67 0.498597 4.21562 0
M  V30 20549 C 1917.58 2.5656 5.32851 0
M  V30 20550 H 1916.51 0.178295 0.732616 0
M  V30 20551 H 1919.16 1.07027 1.49055 0
M  V30 20552 H 1917.54 0.165191 3.95655 0
M  V30 20553 H 1918.72 2.98869 3.50733 0
M  V30 20554 H 1917.03 2.57836 3.2697 0
M  V30 20555 H 1919.63 0.6811 5.30344 0
M  V30 20556 H 1919.97 -0.561426 4.12497 0
M  V30 20557 H 1920.5 1.10976 3.82007 0
M  V30 20558 H 1917.24 3.61271 5.46959 0
M  V30 20559 H 1916.76 1.91366 5.68453 0
M  V30 20560 H 1918.44 2.41623 6.00189 0
M  V30 20561 N 1918.57 -1.44173 0.636557 0
M  V30 20562 C 1919.85 -1.9546 0.0738864 0
M  V30 20563 C 1920.23 -1.57838 -1.4018 0
M  V30 20564 O 1919.58 -0.855144 -2.11895 0
M  V30 20565 C 1919.79 -3.47687 0.302493 0
M  V30 20566 C 1921.14 -4.24135 0.198569 0
M  V30 20567 O 1922.16 -3.5543 0.234151 0
M  V30 20568 O 1921.02 -5.46393 0.108108 0
M  V30 20569 H 1918.11 -0.826777 -0.0191985 0
M  V30 20570 H 1920.66 -1.54196 0.708638 0
M  V30 20571 H 1919.43 -3.68139 1.32625 0
M  V30 20572 H 1919.05 -3.95911 -0.366134 0
M  V30 20573 N 1920.05 -0.377435 -1.53014 0
M  V30 20574 C 1921.46 0.0992038 -1.86436 0
M  V30 20575 C 1921.81 1.47163 -1.2976 0
M  V30 20576 O 1920.94 2.072 -0.624264 0
M  V30 20577 C 1921.53 0.186789 -3.38285 0
M  V30 20578 C 1920.09 0.6077 -3.71462 0
M  V30 20579 C 1919.24 -0.237741 -2.76279 0
M  V30 20580 H 1922.19 -0.595776 -1.47092 0
M  V30 20581 H 1922.21 1.00817 -3.66901 0
M  V30 20582 H 1921.72 -0.812219 -3.79506 0
M  V30 20583 H 1919.82 1.61451 -3.35804 0
M  V30 20584 H 1919.94 0.374085 -4.77637 0
M  V30 20585 H 1918.3 0.295196 -2.52984 0
M  V30 20586 H 1919.08 -1.23451 -3.20335 0
M  V30 20587 N 1921.53 1.57237 -0.106922 0
M  V30 20588 C 1922.44 2.18202 0.861685 0
M  V30 20589 C 1923.46 1.15476 1.30159 0
M  V30 20590 O 1924.63 1.47896 1.36707 0
M  V30 20591 C 1921.7 2.7598 2.09847 0
M  V30 20592 C 1920.76 3.93702 1.71164 0
M  V30 20593 C 1919.99 4.48716 2.88946 0
M  V30 20594 O 1920.21 4.02645 4.04021 0
M  V30 20595 O 1919.15 5.39573 2.66729 0
M  V30 20596 H 1922.97 3.01402 0.372924 0
M  V30 20597 H 1920.56 1.48933 0.118058 0
M  V30 20598 H 1922.44 3.12861 2.82305 0
M  V30 20599 H 1921.12 1.9582 2.57753 0
M  V30 20600 H 1920.02 3.61613 0.958499 0
M  V30 20601 H 1921.36 4.75262 1.28011 0
M  V30 20602 N 1923.01 -0.166818 1.56715 0
M  V30 20603 C 1924.23 -0.902208 1.86748 0
M  V30 20604 C 1924.66 -1.74838 0.693767 0
M  V30 20605 O 1924.02 -1.77749 -0.35708 0
M  V30 20606 C 1924.06 -1.75107 3.1523 0
M  V30 20607 O 1923.17 -2.85319 2.9777 0
M  V30 20608 H 1922.51 -0.252474 0.614128 0
M  V30 20609 H 1925.04 -0.163603 2.03945 0
M  V30 20610 H 1925.05 -2.15009 3.46749 0
M  V30 20611 H 1923.72 -1.12955 4.00267 0
M  V30 20612 H 1922.3 -2.48967 2.77615 0
M  V30 20613 N 1924.49 -1.51463 -0.435524 0
M  V30 20614 C 1925.9 -1.39679 -0.772145 0
M  V30 20615 C 1926.1 -0.480546 -1.95686 0
M  V30 20616 O 1925.16 0.063611 -2.5242 0
M  V30 20617 C 1926.47 -2.81742 -1.05082 0
M  V30 20618 C 1928.02 -2.90905 -1.15514 0
M  V30 20619 C 1928.49 -4.33879 -1.46674 0
M  V30 20620 N 1929.99 -4.36993 -1.53594 0
M  V30 20621 C 1930.72 -5.44653 -1.79279 0
M  V30 20622 N 1930.22 -6.6247 -2.02744 0
M  V30 20623 N 1932.01 -5.32135 -1.81076 0
M  V30 20624 H 1924.16 -2.09584 0.344699 0
M  V30 20625 H 1926.42 -0.943543 0.0918199 0
M  V30 20626 H 1926.13 -3.50789 -0.252975 0
M  V30 20627 H 1926 -3.21179 -1.97798 0
M  V30 20628 H 1928.39 -2.22054 -1.94361 0
M  V30 20629 H 1928.47 -2.54961 -0.20695 0
M  V30 20630 H 1928.12 -5.03279 -0.683541 0
M  V30 20631 H 1928.05 -4.67337 -2.42702 0
M  V30 20632 H 1930.54 -3.52054 -1.37356 0
M  V30 20633 H 1930.85 -7.40311 -2.21718 0
M  V30 20634 H 1929.19 -6.65582 -2.00063 0
M  V30 20635 H 1932.39 -4.39076 -1.62264 0
M  V30 20636 H 1932.56 -6.16118 -2.00756 0
M  V30 20637 N 1925.96 0.691085 -1.4164 0
M  V30 20638 C 1926.87 1.83467 -1.46209 0
M  V30 20639 C 1927.89 1.70397 -0.352267 0
M  V30 20640 O 1929.07 1.92234 -0.60068 0
M  V30 20641 C 1926.13 3.19485 -1.34648 0
M  V30 20642 C 1925.19 3.44631 -2.55984 0
M  V30 20643 C 1924.43 4.7416 -2.44964 0
M  V30 20644 O 1924.65 5.50955 -1.47664 0
M  V30 20645 O 1923.58 5.0019 -3.34804 0
M  V30 20646 H 1927.41 1.82568 -2.42698 0
M  V30 20647 H 1924.99 0.844729 -1.23226 0
M  V30 20648 H 1926.88 4.00684 -1.30501 0
M  V30 20649 H 1925.55 3.21058 -0.41276 0
M  V30 20650 H 1924.46 2.63345 -2.65707 0
M  V30 20651 H 1925.79 3.47877 -3.48199 0
M  V30 20652 N 1927.44 1.27542 0.925789 0
M  V30 20653 C 1928.67 1.1681 1.70772 0
M  V30 20654 C 1929.09 -0.274824 1.86789 0
M  V30 20655 O 1928.44 -1.18694 1.38629 0
M  V30 20656 C 1928.49 1.84904 3.10633 0
M  V30 20657 O 1928.21 3.23559 2.95366 0
M  V30 20658 C 1929.72 1.80322 4.04968 0
M  V30 20659 H 1926.94 0.406036 0.534206 0
M  V30 20660 H 1929.48 1.68448 1.15955 0
M  V30 20661 H 1927.63 1.37166 3.62304 0
M  V30 20662 H 1928.05 3.57488 3.838 0
M  V30 20663 H 1929.52 2.32577 5.00611 0
M  V30 20664 H 1930 0.772975 4.32344 0
M  V30 20665 H 1930.61 2.27683 3.59222 0
M  V30 20666 N 1928.92 -1.13255 1.09595 0
M  V30 20667 C 1930.2 -1.8084 0.74541 0
M  V30 20668 C 1930.58 -1.96582 -0.769323 0
M  V30 20669 O 1929.93 -1.53529 -1.69237 0
M  V30 20670 C 1930.14 -3.15762 1.48645 0
M  V30 20671 C 1931.48 -3.91087 1.65337 0
M  V30 20672 O 1932.51 -3.25391 1.4491 0
M  V30 20673 O 1931.37 -5.08927 1.99137 0
M  V30 20674 H 1928.46 -0.782384 0.267963 0
M  V30 20675 H 1931.01 -1.20167 1.19825 0
M  V30 20676 H 1929.78 -2.99541 2.51775 0
M  V30 20677 H 1929.4 -3.84137 1.02589 0
M  V30 20678 N 1930.4 -0.883401 -1.30514 0
M  V30 20679 C 1931.33 -0.36516 -2.30627 0
M  V30 20680 C 1932.31 0.551149 -1.60923 0
M  V30 20681 O 1933.49 0.465333 -1.88543 0
M  V30 20682 C 1930.62 0.422552 -3.4472 0
M  V30 20683 C 1929.58 -0.401856 -4.26109 0
M  V30 20684 C 1928.9 0.512363 -5.3224 0
M  V30 20685 C 1930.2 -1.64313 -4.95781 0
M  V30 20686 H 1931.9 -1.20175 -2.74223 0
M  V30 20687 H 1929.44 -0.579315 -1.31833 0
M  V30 20688 H 1931.4 0.795726 -4.13819 0
M  V30 20689 H 1930.12 1.29278 -2.99925 0
M  V30 20690 H 1928.78 -0.75715 -3.58696 0
M  V30 20691 H 1928.43 1.38025 -4.83692 0
M  V30 20692 H 1928.13 -0.0354331 -5.87589 0
M  V30 20693 H 1929.65 0.882088 -6.04195 0
M  V30 20694 H 1931.07 -1.34063 -5.57405 0
M  V30 20695 H 1929.46 -2.13101 -5.60989 0
M  V30 20696 H 1930.53 -2.38843 -4.21998 0
M  V30 20697 N 1931.88 1.43833 -0.644194 0
M  V30 20698 C 1932.81 2.33467 0.0394911 0
M  V30 20699 C 1933.79 1.48957 0.821339 0
M  V30 20700 O 1934.97 1.77644 0.784618 0
M  V30 20701 C 1932.1 3.32205 1.01277 0
M  V30 20702 C 1931.06 4.26634 0.341666 0
M  V30 20703 C 1930.38 5.15341 1.42577 0
M  V30 20704 C 1931.68 5.16737 -0.760299 0
M  V30 20705 H 1933.38 2.90883 -0.709025 0
M  V30 20706 H 1930.92 1.3987 -0.342413 0
M  V30 20707 H 1932.88 3.93803 1.49991 0
M  V30 20708 H 1931.6 2.73025 1.79234 0
M  V30 20709 H 1930.26 3.66387 -0.124937 0
M  V30 20710 H 1929.91 4.52505 2.19654 0
M  V30 20711 H 1929.61 5.79336 0.98203 0
M  V30 20712 H 1931.13 5.79811 1.91444 0
M  V30 20713 H 1932.54 5.72195 -0.355713 0
M  V30 20714 H 1930.94 5.89404 -1.12796 0
M  V30 20715 H 1932.01 4.56966 -1.62204 0
M  V30 20716 N 1933.35 0.385544 1.52811 0
M  V30 20717 C 1934.58 -0.200568 2.06428 0
M  V30 20718 C 1935 -1.40049 1.2557 0
M  V30 20719 O 1934.36 -1.79128 0.279782 0
M  V30 20720 C 1934.41 -0.552623 3.5634 0
M  V30 20721 O 1933.51 -1.64711 3.7808 0
M  V30 20722 H 1932.86 -0.0244676 0.663549 0
M  V30 20723 H 1935.39 0.551927 1.97015 0
M  V30 20724 H 1935.4 -0.817996 3.99716 0
M  V30 20725 H 1934.07 0.324665 4.14631 0
M  V30 20726 H 1932.65 -1.37574 3.46595 0
M  V30 20727 N 1934.83 -1.57178 0.115259 0
M  V30 20728 C 1936.08 -1.94681 -0.542571 0
M  V30 20729 C 1936.4 -0.999211 -1.67454 0
M  V30 20730 O 1935.67 -0.054836 -1.95823 0
M  V30 20731 H 1934.25 -0.718769 -0.203421 0
M  V30 20732 H 1936.91 -1.94036 0.183323 0
M  V30 20733 H 1936.01 -2.9762 -0.939599 0
M  V30 20734 N 1936.31 0.158505 -1.56801 0
M  V30 20735 C 1937.24 1.22518 -1.92522 0
M  V30 20736 C 1938.22 1.42142 -0.789589 0
M  V30 20737 O 1939.41 1.56941 -1.04412 0
M  V30 20738 C 1936.53 2.58604 -2.18728 0
M  V30 20739 C 1935.58 2.55642 -3.41394 0
M  V30 20740 S 1936.41 2.03464 -4.95341 0
M  V30 20741 C 1937.57 3.41302 -5.24656 0
M  V30 20742 H 1937.8 0.920362 -2.82695 0
M  V30 20743 H 1935.33 0.363629 -1.50057 0
M  V30 20744 H 1937.29 3.36923 -2.34506 0
M  V30 20745 H 1935.95 2.8628 -1.29239 0
M  V30 20746 H 1935.15 3.55792 -3.56971 0
M  V30 20747 H 1934.75 1.85426 -3.24797 0
M  V30 20748 H 1937.04 4.37361 -5.17418 0
M  V30 20749 H 1937.98 3.30588 -6.26192 0
M  V30 20750 H 1938.39 3.37906 -4.52194 0
M  V30 20751 N 1937.79 1.51692 0.427485 0
M  V30 20752 C 1939.07 1.55395 1.18793 0
M  V30 20753 C 1939.45 0.324036 2.08598 0
M  V30 20754 O 1938.79 -0.690292 2.17824 0
M  V30 20755 C 1939 2.87313 1.98121 0
M  V30 20756 C 1940.35 3.39632 2.54824 0
M  V30 20757 O 1941.38 2.8893 2.08322 0
M  V30 20758 O 1940.24 4.28125 3.39664 0
M  V30 20759 H 1937.33 0.625173 0.541376 0
M  V30 20760 H 1939.88 1.6401 0.435754 0
M  V30 20761 H 1938.65 3.68284 1.32222 0
M  V30 20762 H 1938.27 2.81907 2.80383 0
M  V30 20763 N 1939.27 -0.683564 1.42004 0
M  V30 20764 C 1940.52 -1.44078 1.41725 0
M  V30 20765 C 1940.84 -1.94975 0.0315193 0
M  V30 20766 O 1940.11 -1.72494 -0.928579 0
M  V30 20767 H 1938.69 -0.534631 0.521707 0
M  V30 20768 H 1941.35 -0.808284 1.77349 0
M  V30 20769 H 1940.44 -2.29809 2.11174 0
M  V30 20770 N 1940.75 -1.28031 -0.919012 0
M  V30 20771 C 1941.69 -1.11505 -2.02077 0
M  V30 20772 C 1942.66 -0.0136546 -1.66094 0
M  V30 20773 O 1943.85 -0.177608 -1.89972 0
M  V30 20774 C 1940.99 -0.777409 -3.3623 0
M  V30 20775 C 1940.1 -1.95732 -3.85114 0
M  V30 20776 C 1939.24 -1.56077 -5.07753 0
M  V30 20777 C 1938.27 -2.70764 -5.48956 0
M  V30 20778 N 1937.41 -2.31638 -6.62788 0
M  V30 20779 H 1942.25 -2.05778 -2.15545 0
M  V30 20780 H 1939.79 -1.02425 -1.05582 0
M  V30 20781 H 1941.75 -0.562424 -4.13392 0
M  V30 20782 H 1940.38 0.128373 -3.22545 0
M  V30 20783 H 1939.43 -2.28459 -3.04156 0
M  V30 20784 H 1940.74 -2.81735 -4.11615 0
M  V30 20785 H 1939.89 -1.30754 -5.92443 0
M  V30 20786 H 1938.63 -0.671958 -4.83049 0
M  V30 20787 H 1937.64 -2.96792 -4.62812 0
M  V30 20788 H 1938.86 -3.6028 -5.75652 0
M  V30 20789 H 1936.81 -1.4522 -6.39724 0
M  V30 20790 H 1936.73 -3.11178 -6.88988 0
M  V30 20791 H 1937.99 -2.09585 -7.50796 0
M  V30 20792 N 1942.22 1.12672 -1.10194 0
M  V30 20793 C 1943.47 1.83763 -0.841168 0
M  V30 20794 C 1943.79 1.84369 0.635061 0
M  V30 20795 O 1943.06 1.30504 1.46101 0
M  V30 20796 H 1941.64 0.680461 -0.308192 0
M  V30 20797 H 1944.3 1.36447 -1.3917 0
M  V30 20798 H 1943.4 2.88034 -1.20178 0
M  V30 20799 N 1943.7 0.89031 1.30043 0
M  V30 20800 C 1944.93 0.525833 2.00623 0
M  V30 20801 C 1945.35 -0.87971 1.66261 0
M  V30 20802 O 1944.71 -1.58394 0.882105 0
M  V30 20803 C 1944.76 0.714046 3.5346 0
M  V30 20804 O 1943.86 -0.237685 4.11714 0
M  V30 20805 H 1943.2 0.20656 0.631054 0
M  V30 20806 H 1945.73 1.19932 1.65763 0
M  V30 20807 H 1945.74 0.615086 4.03337 0
M  V30 20808 H 1944.42 1.73881 3.77807 0
M  V30 20809 H 1942.99 -0.0919722 3.72787 0
M  V30 20810 N 1945.18 -1.43489 0.651812 0
M  V30 20811 C 1946.41 -2.05882 0.172084 0
M  V30 20812 C 1946.82 -1.4893 -1.1669 0
M  V30 20813 O 1946.16 -0.614669 -1.73111 0
M  V30 20814 C 1946.22 -3.595 0.00499624 0
M  V30 20815 C 1945.89 -4.39026 1.26905 0
M  V30 20816 C 1946.88 -4.71177 2.19746 0
M  V30 20817 C 1944.57 -4.79058 1.51024 0
M  V30 20818 C 1946.56 -5.42267 3.35001 0
M  V30 20819 C 1944.25 -5.49893 2.66572 0
M  V30 20820 C 1945.25 -5.81419 3.58386 0
M  V30 20821 O 1944.94 -6.50807 4.71916 0
M  V30 20822 H 1944.67 -0.670436 0.0865532 0
M  V30 20823 H 1947.22 -1.85006 0.89229 0
M  V30 20824 H 1945.45 -3.78945 -0.770567 0
M  V30 20825 H 1947.14 -4.03596 -0.431912 0
M  V30 20826 H 1947.91 -4.4077 2.02354 0
M  V30 20827 H 1943.79 -4.53928 0.804408 0
M  V30 20828 H 1947.33 -5.66791 4.06686 0
M  V30 20829 H 1943.23 -5.79717 2.83899 0
M  V30 20830 H 1943.99 -6.69289 4.71163 0
M  V30 20831 N 1946.66 -0.393643 -1.52605 0
M  V30 20832 C 1947.59 0.474548 -2.24234 0
M  V30 20833 C 1948.6 1.02311 -1.26634 0
M  V30 20834 O 1949.79 0.924695 -1.52681 0
M  V30 20835 C 1946.89 1.67083 -2.9485 0
M  V30 20836 C 1946.06 1.24889 -4.19192 0
M  V30 20837 C 1945.12 2.31034 -4.72768 0
M  V30 20838 O 1944.15 1.92263 -5.35746 0
M  V30 20839 N 1945.35 3.63004 -4.52999 0
M  V30 20840 H 1948.12 -0.139149 -2.99377 0
M  V30 20841 H 1945.68 -0.220221 -1.60395 0
M  V30 20842 H 1947.67 2.37626 -3.27591 0
M  V30 20843 H 1946.24 2.19078 -2.22988 0
M  V30 20844 H 1945.46 0.372176 -3.92439 0
M  V30 20845 H 1946.75 0.94369 -4.99972 0
M  V30 20846 H 1946.15 3.97263 -4.02739 0
M  V30 20847 H 1944.7 4.29568 -4.90219 0
M  V30 20848 N 1948.14 1.57115 -0.123593 0
M  V30 20849 C 1949.38 1.95641 0.534082 0
M  V30 20850 C 1949.71 1.00726 1.66036 0
M  V30 20851 O 1948.99 0.045312 1.94447 0
M  V30 20852 C 1949.27 3.4407 1.06244 0
M  V30 20853 C 1949.13 4.49759 -0.0607321 0
M  V30 20854 C 1950.44 3.94451 1.95183 0
M  V30 20855 H 1947.56 0.71137 0.19267 0
M  V30 20856 H 1950.21 1.88944 -0.200083 0
M  V30 20857 H 1948.36 3.49909 1.68808 0
M  V30 20858 H 1950.03 4.56016 -0.69621 0
M  V30 20859 H 1948.27 4.27729 -0.723232 0
M  V30 20860 H 1948.94 5.50888 0.350271 0
M  V30 20861 H 1951.42 3.90945 1.42483 0
M  V30 20862 H 1950.29 4.98817 2.29069 0
M  V30 20863 H 1950.55 3.35417 2.88007 0
M  V30 20864 N 1949.61 -0.150187 1.56883 0
M  V30 20865 C 1950.56 -1.18552 1.98025 0
M  V30 20866 C 1951.53 -1.42861 0.847353 0
M  V30 20867 O 1952.72 -1.55249 1.10917 0
M  V30 20868 C 1949.86 -2.51479 2.36331 0
M  V30 20869 C 1948.97 -2.34371 3.62897 0
M  V30 20870 C 1948.1 -3.60311 3.9032 0
M  V30 20871 C 1947.14 -3.38226 5.10166 0
M  V30 20872 N 1946.28 -4.56289 5.33615 0
M  V30 20873 H 1951.12 -0.827667 2.86276 0
M  V30 20874 H 1948.66 -0.397238 1.41635 0
M  V30 20875 H 1950.61 -3.28981 2.56568 0
M  V30 20876 H 1949.24 -2.85218 1.51164 0
M  V30 20877 H 1948.3 -1.47939 3.50454 0
M  V30 20878 H 1949.61 -2.1401 4.50556 0
M  V30 20879 H 1948.76 -4.46243 4.11038 0
M  V30 20880 H 1947.5 -3.83672 3.01076 0
M  V30 20881 H 1946.51 -2.50682 4.89324 0
M  V30 20882 H 1947.73 -3.16266 6.0096 0
M  V30 20883 H 1945.68 -4.79829 4.47325 0
M  V30 20884 H 1945.59 -4.38919 6.15537 0
M  V30 20885 H 1946.86 -5.43443 5.58829 0
M  V30 20886 N 1951.09 -1.51916 -0.419434 0
M  V30 20887 C 1952.34 -1.65142 -1.16502 0
M  V30 20888 C 1952.66 -0.378632 -1.91289 0
M  V30 20889 O 1951.93 0.606164 -1.86286 0
M  V30 20890 H 1950.51 -0.608667 -0.433051 0
M  V30 20891 H 1953.17 -1.88919 -0.47914 0
M  V30 20892 H 1952.27 -2.48762 -1.88477 0
M  V30 20893 N 1952.57 0.676023 -1.42365 0
M  V30 20894 C 1953.82 1.43672 -1.43979 0
M  V30 20895 C 1954.17 1.92322 -0.0547645 0
M  V30 20896 O 1953.46 1.67912 0.922834 0
M  V30 20897 C 1953.66 2.65018 -2.39792 0
M  V30 20898 C 1953.49 2.28241 -3.87474 0
M  V30 20899 C 1952.26 2.1766 -4.56018 0
M  V30 20900 C 1954.46 1.89966 -4.7793 0
M  V30 20901 N 1952.44 1.73974 -5.88733 0
M  V30 20902 C 1953.81 1.57189 -5.99743 0
M  V30 20903 C 1955.86 1.76947 -4.65397 0
M  V30 20904 C 1954.57 1.127 -7.10416 0
M  V30 20905 C 1956.59 1.33863 -5.76051 0
M  V30 20906 C 1955.95 1.02009 -6.96974 0
M  V30 20907 H 1952.05 0.522266 -0.582033 0
M  V30 20908 H 1954.64 0.780248 -1.78382 0
M  V30 20909 H 1952.81 3.28356 -2.07453 0
M  V30 20910 H 1954.54 3.31603 -2.31995 0
M  V30 20911 H 1951.3 2.36689 -4.10214 0
M  V30 20912 H 1951.72 1.54557 -6.59121 0
M  V30 20913 H 1956.36 2.00221 -3.72386 0
M  V30 20914 H 1954.08 0.881725 -8.03275 0
M  V30 20915 H 1957.67 1.24312 -5.68364 0
M  V30 20916 H 1956.55 0.691772 -7.81143 0
M  V30 20917 N 1954.05 1.28517 0.912209 0
M  V30 20918 C 1955 1.12575 2.01483 0
M  V30 20919 C 1955.97 0.0224628 1.66085 0
M  V30 20920 O 1957.15 0.18768 1.89875 0
M  V30 20921 C 1954.29 0.795229 3.35813 0
M  V30 20922 C 1953.4 1.97772 3.84071 0
M  V30 20923 C 1952.54 1.58768 5.06918 0
M  V30 20924 C 1951.58 2.73672 5.47513 0
M  V30 20925 N 1950.71 2.3515 6.6155 0
M  V30 20926 H 1955.55 2.06918 2.1445 0
M  V30 20927 H 1953.09 1.02983 1.05037 0
M  V30 20928 H 1955.05 0.584339 4.13088 0
M  V30 20929 H 1953.68 -0.111266 3.22608 0
M  V30 20930 H 1952.73 2.30069 3.0294 0
M  V30 20931 H 1954.04 2.83913 4.10115 0
M  V30 20932 H 1953.2 1.33894 5.91741 0
M  V30 20933 H 1951.94 0.697566 4.82686 0
M  V30 20934 H 1950.94 2.99242 4.61231 0
M  V30 20935 H 1952.17 3.63328 5.73733 0
M  V30 20936 H 1950.11 1.4861 6.38945 0
M  V30 20937 H 1950.03 3.14827 6.87328 0
M  V30 20938 H 1951.3 2.13564 7.49674 0
M  V30 20939 N 1955.53 -1.12086 1.1079 0
M  V30 20940 C 1956.46 -2.2001 0.78217 0
M  V30 20941 C 1957.44 -1.68305 -0.246488 0
M  V30 20942 O 1958.62 -1.9388 -0.111448 0
M  V30 20943 C 1955.75 -3.4662 0.2172 0
M  V30 20944 C 1954.71 -4.11499 1.17696 0
M  V30 20945 C 1954.03 -5.32604 0.47302 0
M  V30 20946 C 1955.33 -4.5721 2.52501 0
M  V30 20947 H 1957.03 -2.47514 1.68456 0
M  V30 20948 H 1954.57 -1.18964 0.811397 0
M  V30 20949 H 1956.53 -4.21394 -0.0228381 0
M  V30 20950 H 1955.25 -3.18555 -0.720448 0
M  V30 20951 H 1953.91 -3.38711 1.40252 0
M  V30 20952 H 1953.56 -5.00807 -0.469217 0
M  V30 20953 H 1953.26 -5.76961 1.11308 0
M  V30 20954 H 1954.78 -6.10122 0.241615 0
M  V30 20955 H 1956.19 -5.23338 2.34073 0
M  V30 20956 H 1954.59 -5.12357 3.12426 0
M  V30 20957 H 1955.66 -3.71003 3.12226 0
M  V30 20958 N 1957 -0.897194 -1.29569 0
M  V30 20959 C 1958.23 -0.53717 -1.99805 0
M  V30 20960 C 1958.65 0.877466 -1.6717 0
M  V30 20961 O 1958 1.57882 -0.915398 0
M  V30 20962 C 1958.06 -0.716902 -3.5432 0
M  V30 20963 O 1957.78 -2.07586 -3.85798 0
M  V30 20964 C 1959.28 -0.361494 -4.41824 0
M  V30 20965 H 1956.5 -0.206379 -0.638474 0
M  V30 20966 H 1959.04 -1.20585 -1.65165 0
M  V30 20967 H 1957.2 -0.095433 -3.87282 0
M  V30 20968 H 1957.61 -2.10338 -4.80477 0
M  V30 20969 H 1959.08 -0.538099 -5.49371 0
M  V30 20970 H 1959.56 0.701301 -4.33565 0
M  V30 20971 H 1960.17 -0.959799 -4.14328 0
M  V30 20972 N 1958.48 1.43142 -0.659413 0
M  V30 20973 C 1959.41 2.29102 0.0671619 0
M  V30 20974 C 1960.43 1.42846 0.780943 0
M  V30 20975 O 1961.62 1.66722 0.637666 0
M  V30 20976 C 1958.72 3.19915 1.11838 0
M  V30 20977 C 1957.89 4.34742 0.481505 0
M  V30 20978 C 1956.95 5.06384 1.43043 0
M  V30 20979 O 1955.97 5.61441 0.936648 0
M  V30 20980 N 1957.18 5.10461 2.76423 0
M  V30 20981 H 1959.94 2.92099 -0.670674 0
M  V30 20982 H 1957.5 1.53899 -0.50266 0
M  V30 20983 H 1959.49 3.64708 1.75413 0
M  V30 20984 H 1958.06 2.58474 1.75812 0
M  V30 20985 H 1957.28 3.92787 -0.333461 0
M  V30 20986 H 1958.57 5.08786 0.0371775 0
M  V30 20987 H 1957.97 4.67114 3.19095 0
M  V30 20988 H 1956.53 5.58952 3.35285 0
M  V30 20989 N 1959.96 0.40173 1.52394 0
M  V30 20990 C 1960.89 -0.46265 2.24482 0
M  V30 20991 C 1961.91 -1.01638 1.27175 0
M  V30 20992 O 1963.09 -0.916585 1.5317 0
M  V30 20993 C 1960.19 -1.65517 2.95732 0
M  V30 20994 C 1959.37 -1.22664 4.19848 0
M  V30 20995 C 1958.43 -2.28524 4.73987 0
M  V30 20996 O 1957.45 -1.89419 5.36758 0
M  V30 20997 N 1958.65 -3.60596 4.54918 0
M  V30 20998 H 1961.42 0.155024 2.99299 0
M  V30 20999 H 1958.98 0.228724 1.60276 0
M  V30 21000 H 1960.97 -2.35886 3.28847 0
M  V30 21001 H 1959.54 -2.17892 2.24147 0
M  V30 21002 H 1958.76 -0.351359 3.92631 0
M  V30 21003 H 1960.05 -0.917162 5.00465 0
M  V30 21004 H 1959.45 -3.95122 4.0484 0
M  V30 21005 H 1958.01 -4.26962 4.9249 0
M  V30 21006 N 1961.44 -1.57047 0.131923 0
M  V30 21007 C 1962.37 -2.13088 -0.844174 0
M  V30 21008 C 1963.38 -1.07666 -1.22114 0
M  V30 21009 O 1964.57 -1.34995 -1.16784 0
M  V30 21010 C 1961.67 -2.62623 -2.14201 0
M  V30 21011 C 1960.85 -3.92283 -1.93475 0
M  V30 21012 C 1959.9 -4.27284 -3.07107 0
M  V30 21013 O 1958.93 -4.95876 -2.79456 0
M  V30 21014 N 1960.13 -3.85646 -4.33887 0
M  V30 21015 H 1962.9 -2.97465 -0.365306 0
M  V30 21016 H 1960.46 -1.61816 -0.0521136 0
M  V30 21017 H 1962.45 -2.8306 -2.89239 0
M  V30 21018 H 1961.02 -1.83054 -2.53397 0
M  V30 21019 H 1960.24 -3.80625 -1.02558 0
M  V30 21020 H 1961.53 -4.7704 -1.76947 0
M  V30 21021 H 1960.93 -3.30348 -4.59224 0
M  V30 21022 H 1959.48 -4.11165 -5.05754 0
M  V30 21023 N 1962.92 0.141865 -1.5696 0
M  V30 21024 C 1964.16 0.853609 -1.83629 0
M  V30 21025 C 1964.49 1.80937 -0.713591 0
M  V30 21026 O 1963.75 1.93433 0.296981 0
M  V30 21027 C 1964.05 1.65717 -3.16658 0
M  V30 21028 C 1963.71 0.847748 -4.42859 0
M  V30 21029 C 1962.37 0.624458 -4.77131 0
M  V30 21030 C 1964.73 0.282029 -5.20436 0
M  V30 21031 C 1962.05 -0.175174 -5.86438 0
M  V30 21032 C 1964.41 -0.50467 -6.30584 0
M  V30 21033 C 1963.07 -0.738489 -6.63402 0
M  V30 21034 H 1962.34 0.312358 -0.671948 0
M  V30 21035 H 1964.99 0.117006 -1.91142 0
M  V30 21036 H 1963.29 2.46403 -3.04619 0
M  V30 21037 H 1964.99 2.21144 -3.34509 0
M  V30 21038 H 1961.58 1.03185 -4.15994 0
M  V30 21039 H 1965.76 0.441806 -4.9433 0
M  V30 21040 H 1961.02 -0.365778 -6.10305 0
M  V30 21041 H 1965.19 -0.950134 -6.89888 0
M  V30 21042 H 1962.82 -1.35995 -7.47937 0
M  V30 21043 N 1964.39 1.52136 0.411372 0
M  V30 21044 C 1965.64 1.66331 1.16025 0
M  V30 21045 C 1965.97 0.390981 1.90223 0
M  V30 21046 O 1965.25 -0.610512 1.8467 0
M  V30 21047 C 1965.53 2.88386 2.15651 0
M  V30 21048 C 1965.38 4.25664 1.45364 0
M  V30 21049 C 1966.7 3.05963 3.16346 0
M  V30 21050 H 1963.82 0.60531 0.420439 0
M  V30 21051 H 1966.46 1.84685 0.446247 0
M  V30 21052 H 1964.61 2.72869 2.76541 0
M  V30 21053 H 1966.29 4.52904 0.876105 0
M  V30 21054 H 1964.53 4.27168 0.75563 0
M  V30 21055 H 1965.2 5.07109 2.18047 0
M  V30 21056 H 1967.68 3.20363 2.65531 0
M  V30 21057 H 1966.55 3.92882 3.83321 0
M  V30 21058 H 1966.81 2.19177 3.83945 0
M  V30 21059 N 1965.87 -0.668464 1.42721 0
M  V30 21060 C 1966.84 -1.76365 1.46384 0
M  V30 21061 C 1967.84 -1.56932 0.350554 0
M  V30 21062 O 1969.03 -1.63109 0.611658 0
M  V30 21063 C 1966.16 -3.15071 1.30164 0
M  V30 21064 H 1967.35 -1.74503 2.43903 0
M  V30 21065 H 1964.9 -0.878695 1.29262 0
M  V30 21066 H 1965.64 -3.22555 0.335926 0
M  V30 21067 H 1965.42 -3.3058 2.10853 0
M  V30 21068 H 1966.91 -3.94963 1.35625 0
M  V30 21069 N 1967.35 -1.28999 -0.905381 0
M  V30 21070 C 1968.28 -1.16189 -2.0254 0
M  V30 21071 C 1969.26 -0.0575293 -1.70003 0
M  V30 21072 O 1970.45 -0.236004 -1.92761 0
M  V30 21073 C 1967.58 -0.831704 -3.37194 0
M  V30 21074 C 1966.53 -1.89176 -3.83922 0
M  V30 21075 C 1965.86 -1.41501 -5.15637 0
M  V30 21076 C 1967.16 -3.29971 -4.04866 0
M  V30 21077 H 1968.85 -2.09886 -2.13514 0
M  V30 21078 H 1966.4 -1.0105 -1.02591 0
M  V30 21079 H 1968.35 -0.728825 -4.1505 0
M  V30 21080 H 1967.07 0.140958 -3.26296 0
M  V30 21081 H 1965.73 -1.98393 -3.08279 0
M  V30 21082 H 1965.38 -0.431182 -5.01149 0
M  V30 21083 H 1965.08 -2.12391 -5.47872 0
M  V30 21084 H 1966.61 -1.32552 -5.96039 0
M  V30 21085 H 1968.02 -3.23628 -4.73221 0
M  V30 21086 H 1966.42 -3.98768 -4.48447 0
M  V30 21087 H 1967.49 -3.73369 -3.09393 0
M  V30 21088 N 1968.83 1.11497 -1.11383 0
M  V30 21089 C 1969.76 2.19592 -0.793827 0
M  V30 21090 C 1970.74 1.68433 0.237559 0
M  V30 21091 O 1971.93 1.93936 0.101164 0
M  V30 21092 C 1969.06 3.465 -0.235579 0
M  V30 21093 C 1968.01 4.10869 -1.19877 0
M  V30 21094 C 1967.34 5.32345 -0.501259 0
M  V30 21095 C 1968.64 4.55864 -2.54922 0
M  V30 21096 H 1970.33 2.46617 -1.69766 0
M  V30 21097 H 1967.88 1.18532 -0.817695 0
M  V30 21098 H 1969.83 4.214 0.000490272 0
M  V30 21099 H 1968.55 3.18932 0.703544 0
M  V30 21100 H 1967.21 3.37962 -1.42046 0
M  V30 21101 H 1966.86 5.01048 0.442652 0
M  V30 21102 H 1966.56 5.76363 -1.14367 0
M  V30 21103 H 1968.08 6.09985 -0.273968 0
M  V30 21104 H 1969.5 5.22089 -2.36845 0
M  V30 21105 H 1967.89 5.10693 -3.15139 0
M  V30 21106 H 1968.96 3.69342 -3.14189 0
M  V30 21107 N 1970.31 0.904053 1.29092 0
M  V30 21108 C 1971.55 0.542414 1.96034 0
M  V30 21109 C 1971.91 -0.902189 1.69936 0
M  V30 21110 O 1971.2 -1.6317 1.0043 0
M  V30 21111 C 1971.4 0.776255 3.48868 0
M  V30 21112 C 1971.22 2.24204 3.89824 0
M  V30 21113 C 1969.99 2.89031 4.14475 0
M  V30 21114 C 1972.19 3.21762 4.01215 0
M  V30 21115 N 1970.17 4.26007 4.42031 0
M  V30 21116 C 1971.55 4.4387 4.32873 0
M  V30 21117 C 1973.6 3.17293 3.83705 0
M  V30 21118 C 1972.3 5.62076 4.48846 0
M  V30 21119 C 1974.33 4.34789 4.0089 0
M  V30 21120 C 1973.69 5.55668 4.32912 0
M  V30 21121 H 1969.79 0.248172 0.741576 0
M  V30 21122 H 1972.37 1.16577 1.55942 0
M  V30 21123 H 1970.55 0.182248 3.87972 0
M  V30 21124 H 1972.28 0.379616 4.02916 0
M  V30 21125 H 1969.03 2.39805 4.084 0
M  V30 21126 H 1969.46 4.96802 4.5991 0
M  V30 21127 H 1974.1 2.24922 3.58008 0
M  V30 21128 H 1971.82 6.54934 4.73378 0
M  V30 21129 H 1975.4 4.32821 3.88789 0
M  V30 21130 H 1974.28 6.4507 4.45931 0
M  V30 21131 N 1971.79 -1.4279 0.666995 0
M  V30 21132 C 1972.73 -2.30794 -0.0161644 0
M  V30 21133 C 1973.7 -1.45527 -0.800701 0
M  V30 21134 O 1974.89 -1.74372 -0.774527 0
M  V30 21135 C 1972.03 -3.31276 -0.966974 0
M  V30 21136 C 1971.14 -4.31637 -0.177086 0
M  V30 21137 C 1970.28 -5.19195 -1.12294 0
M  V30 21138 C 1969.31 -6.1124 -0.324284 0
M  V30 21139 N 1968.45 -6.91376 -1.22244 0
M  V30 21140 H 1973.29 -2.88662 0.74014 0
M  V30 21141 H 1970.83 -1.42194 0.376738 0
M  V30 21142 H 1972.79 -3.88054 -1.53198 0
M  V30 21143 H 1971.42 -2.75025 -1.69 0
M  V30 21144 H 1970.47 -3.77041 0.504428 0
M  V30 21145 H 1971.78 -4.96826 0.443328 0
M  V30 21146 H 1970.93 -5.80667 -1.75813 0
M  V30 21147 H 1969.67 -4.54164 -1.77725 0
M  V30 21148 H 1968.68 -5.48843 0.324174 0
M  V30 21149 H 1969.9 -6.78318 0.325818 0
M  V30 21150 H 1967.85 -6.28981 -1.86329 0
M  V30 21151 H 1967.77 -7.5314 -0.656918 0
M  V30 21152 H 1969.03 -7.57342 -1.84535 0
M  V30 21153 N 1973.26 -0.409806 -1.52179 0
M  V30 21154 C 1974.68 -0.0607174 -1.59484 0
M  V30 21155 C 1974.88 1.42703 -1.42261 0
M  V30 21156 O 1973.94 2.19394 -1.24991 0
M  V30 21157 C 1975.25 -0.556238 -2.95511 0
M  V30 21158 C 1976.8 -0.514272 -3.08746 0
M  V30 21159 C 1977.27 -0.986314 -4.47254 0
M  V30 21160 N 1978.76 -0.943162 -4.53496 0
M  V30 21161 C 1979.5 -1.27959 -5.5894 0
M  V30 21162 N 1978.99 -1.6875 -6.71934 0
M  V30 21163 N 1980.79 -1.19951 -5.49152 0
M  V30 21164 H 1972.94 -1.37813 -1.61621 0
M  V30 21165 H 1975.2 -0.566181 -0.760357 0
M  V30 21166 H 1974.91 -1.5961 -3.13397 0
M  V30 21167 H 1974.78 0.033749 -3.77185 0
M  V30 21168 H 1977.17 0.516546 -2.90544 0
M  V30 21169 H 1977.25 -1.14032 -2.28977 0
M  V30 21170 H 1976.89 -2.01546 -4.66199 0
M  V30 21171 H 1976.82 -0.337071 -5.2552 0
M  V30 21172 H 1979.31 -0.64326 -3.72385 0
M  V30 21173 H 1979.63 -1.9273 -7.48381 0
M  V30 21174 H 1977.97 -1.72654 -6.73213 0
M  V30 21175 H 1981.16 -0.879693 -4.5976 0
M  V30 21176 H 1981.34 -1.465 -6.31222 0
M  V30 21177 N 1974.74 1.56975 -0.14025 0
M  V30 21178 C 1975.67 2.19432 0.798233 0
M  V30 21179 C 1976.65 1.14055 1.26196 0
M  V30 21180 O 1977.84 1.42373 1.32074 0
M  V30 21181 C 1974.97 2.81059 2.04018 0
M  V30 21182 C 1973.92 3.92204 1.71347 0
M  V30 21183 C 1973.25 4.40735 3.02748 0
M  V30 21184 C 1974.55 5.13302 0.965327 0
M  V30 21185 H 1976.24 2.98109 0.277716 0
M  V30 21186 H 1973.79 1.43392 0.132137 0
M  V30 21187 H 1975.74 3.23417 2.70147 0
M  V30 21188 H 1974.46 1.99703 2.5843 0
M  V30 21189 H 1973.12 3.50454 1.07599 0
M  V30 21190 H 1972.77 3.5621 3.55138 0
M  V30 21191 H 1972.47 5.15698 2.81654 0
M  V30 21192 H 1974 4.85759 3.6996 0
M  V30 21193 H 1975.41 5.52547 1.52857 0
M  V30 21194 H 1973.81 5.93984 0.854574 0
M  V30 21195 H 1974.88 4.8488 -0.0441688 0
M  V30 21196 N 1976.22 -0.133539 1.57033 0
M  V30 21197 C 1977.15 -1.16595 2.02306 0
M  V30 21198 C 1978.13 -1.44031 0.904933 0
M  V30 21199 O 1979.32 -1.54721 1.17367 0
M  V30 21200 C 1976.45 -2.49581 2.41509 0
M  V30 21201 C 1975.4 -2.36639 3.56631 0
M  V30 21202 C 1974.73 -3.74457 3.81688 0
M  V30 21203 C 1976.03 -1.83912 4.88849 0
M  V30 21204 H 1977.72 -0.789456 2.88804 0
M  V30 21205 H 1975.27 -0.378309 1.38942 0
M  V30 21206 H 1977.22 -3.22043 2.71783 0
M  V30 21207 H 1975.94 -2.89093 1.51964 0
M  V30 21208 H 1974.6 -1.66628 3.26544 0
M  V30 21209 H 1974.25 -4.11428 2.89372 0
M  V30 21210 H 1973.95 -3.66655 4.59171 0
M  V30 21211 H 1975.47 -4.48446 4.14401 0
M  V30 21212 H 1976.89 -2.46178 5.17754 0
M  V30 21213 H 1975.28 -1.86967 5.70231 0
M  V30 21214 H 1976.35 -0.795669 4.78327 0
M  V30 21215 N 1977.7 -1.52352 -0.403298 0
M  V30 21216 C 1978.95 -1.65924 -1.14683 0
M  V30 21217 C 1979.26 -0.398212 -1.91504 0
M  V30 21218 O 1980.47 -0.413824 -2.68328 0
M  V30 21219 C 1978.92 -2.9317 -2.08757 0
M  V30 21220 C 1978.53 -4.26402 -1.37425 0
M  V30 21221 C 1980.27 -3.16106 -2.83332 0
M  V30 21222 C 1978.18 -5.44766 -2.30181 0
M  V30 21223 H 1977.11 -0.61811 -0.431805 0
M  V30 21224 H 1979.76 -1.78843 -0.410792 0
M  V30 21225 H 1978.14 -2.73964 -2.85937 0
M  V30 21226 H 1979.32 -4.56111 -0.65569 0
M  V30 21227 H 1977.63 -4.09614 -0.748668 0
M  V30 21228 H 1980.23 -4.01716 -3.52886 0
M  V30 21229 H 1980.57 -2.30581 -3.4661 0
M  V30 21230 H 1981.11 -3.35811 -2.1325 0
M  V30 21231 H 1977.84 -6.32656 -1.71541 0
M  V30 21232 H 1977.36 -5.19388 -2.99993 0
M  V30 21233 H 1979.04 -5.78077 -2.9058 0
M  V30 21234 N 1979.18 0.660885 -1.43074 0
M  V30 21235 C 1980.14 1.75586 -1.47317 0
M  V30 21236 C 1981.14 1.56744 -0.358871 0
M  V30 21237 O 1982.33 1.62782 -0.620299 0
M  V30 21238 C 1979.46 3.14377 -1.31833 0
M  V30 21239 H 1980.65 1.73207 -2.44825 0
M  V30 21240 H 1978.21 0.871828 -1.29726 0
M  V30 21241 H 1978.94 3.22373 -0.353027 0
M  V30 21242 H 1978.73 3.29457 -2.12604 0
M  V30 21243 H 1980.22 3.94238 -1.37718 0
M  V30 21244 N 1980.65 1.29477 0.898527 0
M  V30 21245 C 1982.07 1.07514 1.17953 0
M  V30 21246 C 1982.27 -0.172814 2.00758 0
M  V30 21247 O 1981.33 -0.87025 2.37029 0
M  V30 21248 C 1982.64 2.33121 1.89934 0
M  V30 21249 C 1984.19 2.38452 2.02755 0
M  V30 21250 C 1984.66 3.63866 2.78146 0
M  V30 21251 N 1986.15 3.64595 2.857 0
M  V30 21252 C 1986.89 4.58319 3.44574 0
M  V30 21253 N 1986.38 5.62376 4.04605 0
M  V30 21254 N 1988.18 4.45887 3.42259 0
M  V30 21255 H 1980.33 2.09562 0.346076 0
M  V30 21256 H 1982.59 0.923108 0.215814 0
M  V30 21257 H 1982.3 3.2412 1.36526 0
M  V30 21258 H 1982.17 2.40721 2.90402 0
M  V30 21259 H 1984.56 1.47941 2.55338 0
M  V30 21260 H 1984.64 2.34837 1.01416 0
M  V30 21261 H 1984.28 4.54729 2.26239 0
M  V30 21262 H 1984.21 3.6474 3.79832 0
M  V30 21263 H 1986.7 2.89358 2.43064 0
M  V30 21264 H 1987.02 6.30012 4.47555 0
M  V30 21265 H 1985.36 5.66184 4.03064 0
M  V30 21266 H 1988.55 3.63786 2.9458 0
M  V30 21267 H 1988.73 5.19113 3.87848 0
M  V30 21268 N 1982.13 -1.10905 1.11972 0
M  V30 21269 C 1983.55 -1.3478 0.854776 0
M  V30 21270 C 1983.75 -1.94737 -0.517653 0
M  V30 21271 O 1982.8 -2.18391 -1.26734 0
M  V30 21272 C 1984.12 -2.27414 1.96732 0
M  V30 21273 C 1985.67 -2.40964 1.99764 0
M  V30 21274 C 1986.14 -3.36923 3.10237 0
M  V30 21275 N 1987.63 -3.44488 3.09648 0
M  V30 21276 C 1988.37 -4.18695 3.91768 0
M  V30 21277 N 1987.86 -4.95829 4.83865 0
M  V30 21278 N 1989.66 -4.14263 3.79924 0
M  V30 21279 H 1981.81 -0.703538 2.0041 0
M  V30 21280 H 1984.07 -0.372318 0.871828 0
M  V30 21281 H 1983.78 -1.90561 2.956 0
M  V30 21282 H 1983.65 -3.27681 1.86829 0
M  V30 21283 H 1986.04 -2.77089 1.01518 0
M  V30 21284 H 1986.12 -1.40529 2.13741 0
M  V30 21285 H 1985.76 -3.01524 4.08712 0
M  V30 21286 H 1985.69 -4.37225 2.93499 0
M  V30 21287 H 1988.18 -2.89475 2.42925 0
M  V30 21288 H 1988.5 -5.49836 5.43047 0
M  V30 21289 H 1986.84 -4.9497 4.87883 0
M  V30 21290 H 1990.03 -3.53095 3.07314 0
M  V30 21291 H 1990.2 -4.71837 4.44155 0
M  V30 21292 N 1983.61 -0.910886 -1.2861 0
M  V30 21293 C 1984.84 -0.557684 -1.99761 0
M  V30 21294 C 1985.26 0.853148 -1.67639 0
M  V30 21295 O 1984.62 1.5697 -0.907192 0
M  V30 21296 C 1984.67 -0.770188 -3.52279 0
M  V30 21297 O 1983.77 0.172155 -4.12041 0
M  V30 21298 H 1983.11 -0.216573 -0.627688 0
M  V30 21299 H 1985.64 -1.22554 -1.63834 0
M  V30 21300 H 1985.65 -0.679176 -4.02307 0
M  V30 21301 H 1984.33 -1.79869 -3.74993 0
M  V30 21302 H 1982.9 0.0326535 -3.72886 0
M  V30 21303 N 1985.09 1.42434 -0.674558 0
M  V30 21304 C 1986.5 1.55847 -0.344087 0
M  V30 21305 C 1986.7 1.65424 1.15053 0
M  V30 21306 O 1985.76 1.62103 1.93594 0
M  V30 21307 C 1987.07 2.80859 -1.07419 0
M  V30 21308 C 1988.62 2.94631 -1.05649 0
M  V30 21309 C 1989.1 4.22503 -1.76791 0
M  V30 21310 N 1990.59 4.29415 -1.73658 0
M  V30 21311 C 1991.32 5.27171 -2.25561 0
M  V30 21312 N 1990.82 6.31082 -2.85845 0
M  V30 21313 N 1992.61 5.18968 -2.15937 0
M  V30 21314 H 1984.76 1.34461 -1.6442 0
M  V30 21315 H 1987.03 0.647231 -0.692673 0
M  V30 21316 H 1986.73 2.79919 -2.12928 0
M  V30 21317 H 1986.61 3.71743 -0.63927 0
M  V30 21318 H 1988.99 2.95098 -0.00973704 0
M  V30 21319 H 1989.07 2.04977 -1.53029 0
M  V30 21320 H 1988.72 4.22796 -2.81435 0
M  V30 21321 H 1988.65 5.11091 -1.26861 0
M  V30 21322 H 1991.14 3.5495 -1.29687 0
M  V30 21323 H 1991.45 7.02029 -3.2307 0
M  V30 21324 H 1989.8 6.31644 -2.89914 0
M  V30 21325 H 1992.99 4.3671 -1.6853 0
M  V30 21326 H 1993.16 5.9499 -2.56693 0
M  V30 21327 N 1986.57 0.417871 1.51959 0
M  V30 21328 C 1987.51 -0.403305 2.27249 0
M  V30 21329 C 1988.48 -1.0336 1.30023 0
M  V30 21330 O 1989.67 -1.05621 1.58899 0
M  V30 21331 C 1986.81 -1.50928 3.10346 0
M  V30 21332 C 1985.92 -0.899043 4.22541 0
M  V30 21333 C 1985.06 -1.97844 4.92982 0
M  V30 21334 C 1984.1 -1.3456 5.97126 0
M  V30 21335 N 1983.23 -2.36552 6.6105 0
M  V30 21336 H 1988.07 0.245143 2.9699 0
M  V30 21337 H 1985.61 0.132733 1.465 0
M  V30 21338 H 1987.57 -2.16157 3.56836 0
M  V30 21339 H 1986.2 -2.12763 2.42759 0
M  V30 21340 H 1985.25 -0.135561 3.80158 0
M  V30 21341 H 1986.56 -0.396845 4.97219 0
M  V30 21342 H 1985.72 -2.7078 5.42921 0
M  V30 21343 H 1984.45 -2.51432 4.17892 0
M  V30 21344 H 1983.46 -0.601616 5.46499 0
M  V30 21345 H 1984.68 -0.817308 6.74164 0
M  V30 21346 H 1982.63 -2.89256 5.88784 0
M  V30 21347 H 1982.55 -1.91169 7.3143 0
M  V30 21348 H 1983.82 -3.09031 7.15626 0
M  V30 21349 N 1988.04 -1.56898 0.148573 0
M  V30 21350 C 1989.29 -1.95788 -0.501154 0
M  V30 21351 C 1989.61 -1.03451 -1.65297 0
M  V30 21352 O 1988.88 -0.0963607 -1.95663 0
M  V30 21353 H 1987.46 -0.722922 -0.188129 0
M  V30 21354 H 1990.13 -1.93603 0.224439 0
M  V30 21355 H 1989.22 -2.99547 -0.876258 0
M  V30 21356 N 1989.52 0.125209 -1.57102 0
M  V30 21357 C 1990.77 0.834085 -1.84524 0
M  V30 21358 C 1991.1 1.8017 -0.732742 0
M  V30 21359 O 1990.35 1.93738 0.276448 0
M  V30 21360 C 1990.65 1.62349 -3.18398 0
M  V30 21361 C 1990.32 0.800729 -4.43733 0
M  V30 21362 C 1988.98 0.573817 -4.77766 0
M  V30 21363 C 1991.33 0.226814 -5.20706 0
M  V30 21364 C 1988.66 -0.237364 -5.8622 0
M  V30 21365 C 1991.01 -0.571524 -6.30013 0
M  V30 21366 C 1989.68 -0.80881 -6.62582 0
M  V30 21367 H 1988.95 0.305213 -0.675223 0
M  V30 21368 H 1991.59 0.0967265 -1.91256 0
M  V30 21369 H 1989.9 2.43158 -3.07215 0
M  V30 21370 H 1991.59 2.17583 -3.36836 0
M  V30 21371 H 1988.18 0.987673 -4.17065 0
M  V30 21372 H 1992.37 0.389351 -4.9477 0
M  V30 21373 H 1987.62 -0.430488 -6.09883 0
M  V30 21374 H 1991.8 -1.02325 -6.88841 0
M  V30 21375 H 1989.43 -1.4392 -7.46452 0
M  V30 21376 N 1991 1.52564 0.395213 0
M  V30 21377 C 1992.25 1.67305 1.14085 0
M  V30 21378 C 1992.58 0.409869 1.90132 0
M  V30 21379 O 1991.83 -0.607574 1.8603 0
M  V30 21380 C 1992.13 2.85496 2.15004 0
M  V30 21381 C 1991.8 4.23179 1.55661 0
M  V30 21382 C 1990.46 4.60626 1.39202 0
M  V30 21383 C 1992.81 5.08923 1.12457 0
M  V30 21384 C 1990.14 5.81482 0.780775 0
M  V30 21385 C 1992.49 6.30397 0.527451 0
M  V30 21386 C 1991.15 6.66581 0.350111 0
M  V30 21387 H 1990.42 0.612211 0.417467 0
M  V30 21388 H 1993.07 1.86695 0.426269 0
M  V30 21389 H 1991.38 2.60496 2.92658 0
M  V30 21390 H 1993.07 2.94096 2.72595 0
M  V30 21391 H 1989.66 3.93678 1.69457 0
M  V30 21392 H 1993.85 4.80566 1.23976 0
M  V30 21393 H 1989.1 6.0813 0.631518 0
M  V30 21394 H 1993.28 6.96156 0.184351 0
M  V30 21395 H 1990.9 7.60096 -0.125616 0
M  V30 21396 N 1992.48 -0.653289 1.43422 0
M  V30 21397 C 1993.44 -1.74802 1.48246 0
M  V30 21398 C 1994.44 -1.56552 0.367179 0
M  V30 21399 O 1995.63 -1.62451 0.628923 0
M  V30 21400 C 1992.76 -3.13673 1.33499 0
M  V30 21401 H 1993.96 -1.71906 2.4574 0
M  V30 21402 H 1991.51 -0.864936 1.30187 0
M  V30 21403 H 1992.24 -3.22181 0.370118 0
M  V30 21404 H 1992.03 -3.28325 2.14348 0
M  V30 21405 H 1993.52 -3.93502 1.39806 0
M  V30 21406 N 1993.96 -1.29952 -0.891648 0
M  V30 21407 C 1994.89 -1.11577 -2.00208 0
M  V30 21408 C 1995.9 -0.0609281 -1.62686 0
M  V30 21409 O 1997.09 -0.306271 -1.75853 0
M  V30 21410 C 1994.19 -0.678052 -3.32048 0
M  V30 21411 C 1993.36 -1.81318 -3.98048 0
M  V30 21412 C 1992.42 -1.36513 -5.08184 0
M  V30 21413 O 1991.45 -2.07122 -5.30178 0
M  V30 21414 N 1992.65 -0.240455 -5.80002 0
M  V30 21415 H 1995.42 -2.07214 -2.16523 0
M  V30 21416 H 1992.98 -1.21998 -1.06433 0
M  V30 21417 H 1994.97 -0.361457 -4.03083 0
M  V30 21418 H 1993.54 0.186094 -3.12046 0
M  V30 21419 H 1992.76 -2.29824 -3.20272 0
M  V30 21420 H 1994.05 -2.57406 -4.38885 0
M  V30 21421 H 1993.44 0.34806 -5.64628 0
M  V30 21422 H 1992 0.016726 -6.51798 0
M  V30 21423 N 1995.44 1.1031 -1.12559 0
M  V30 21424 C 1996.68 1.81665 -0.876399 0
M  V30 21425 C 1997 1.86186 0.599506 0
M  V30 21426 O 1998.2 2.53759 0.965337 0
M  V30 21427 C 1996.66 3.26308 -1.51826 0
M  V30 21428 C 1996.27 3.30081 -3.02904 0
M  V30 21429 C 1998.01 4.02482 -1.34939 0
M  V30 21430 C 1995.92 4.69192 -3.60018 0
M  V30 21431 H 1994.85 0.680734 -0.324218 0
M  V30 21432 H 1997.5 1.24044 -1.35223 0
M  V30 21433 H 1995.88 3.83934 -0.970087 0
M  V30 21434 H 1997.06 2.82272 -3.64224 0
M  V30 21435 H 1995.37 2.67393 -3.19202 0
M  V30 21436 H 1997.97 5.05241 -1.7503 0
M  V30 21437 H 1998.31 4.15266 -0.293208 0
M  V30 21438 H 1998.84 3.51274 -1.86685 0
M  V30 21439 H 1995.58 4.61608 -4.65401 0
M  V30 21440 H 1995.1 5.17363 -3.03473 0
M  V30 21441 H 1996.78 5.38161 -3.59153 0
M  V30 21442 N 1996.91 0.917694 1.28125 0
M  V30 21443 C 1998.16 0.553715 1.95094 0
M  V30 21444 C 1998.49 -0.900999 1.72034 0
M  V30 21445 O 1997.77 -1.64132 1.04359 0
M  V30 21446 C 1998.05 0.868367 3.49473 0
M  V30 21447 C 1997.9 2.3761 3.81918 0
M  V30 21448 C 1999.22 0.367261 4.38565 0
M  V30 21449 H 1996.34 0.202644 0.708593 0
M  V30 21450 H 1998.98 1.14765 1.51423 0
M  V30 21451 H 1997.13 0.362898 3.86801 0
M  V30 21452 H 1998.81 2.95249 3.54437 0
M  V30 21453 H 1997.05 2.82945 3.28823 0
M  V30 21454 H 1997.72 2.5468 4.89737 0
M  V30 21455 H 2000.2 0.800328 4.08331 0
M  V30 21456 H 1999.07 0.616464 5.45427 0
M  V30 21457 H 1999.33 -0.732497 4.3599 0
M  V30 21458 N 1998.39 -1.42074 0.682102 0
M  V30 21459 C 1999.32 -2.33489 0.0224223 0
M  V30 21460 C 2000.3 -1.51082 -0.781557 0
M  V30 21461 O 2001.49 -1.79662 -0.737243 0
M  V30 21462 C 1998.62 -3.34773 -0.92434 0
M  V30 21463 C 1997.57 -4.2739 -0.228431 0
M  V30 21464 C 1996.9 -5.1894 -1.28863 0
M  V30 21465 C 1998.2 -5.14539 0.897035 0
M  V30 21466 H 1999.89 -2.88901 0.785898 0
M  V30 21467 H 1997.44 -1.38913 0.379376 0
M  V30 21468 H 1999.39 -3.97641 -1.39497 0
M  V30 21469 H 1998.11 -2.77681 -1.71932 0
M  V30 21470 H 1996.77 -3.65927 0.222034 0
M  V30 21471 H 1996.42 -4.5817 -2.07579 0
M  V30 21472 H 1996.12 -5.81736 -0.828084 0
M  V30 21473 H 1997.65 -5.84683 -1.76005 0
M  V30 21474 H 1999.06 -5.71051 0.507296 0
M  V30 21475 H 1997.46 -5.86206 1.28383 0
M  V30 21476 H 1998.53 -4.52505 1.74263 0
M  V30 21477 N 1999.87 -0.425924 -1.51735 0
M  V30 21478 C 2001.28 0.0398403 -1.86657 0
M  V30 21479 C 2001.63 1.4296 -1.34376 0
M  V30 21480 O 2000.76 2.05109 -0.689867 0
M  V30 21481 C 2001.35 0.0790715 -3.38708 0
M  V30 21482 C 1999.91 0.489215 -3.73207 0
M  V30 21483 C 1999.06 -0.325517 -2.75383 0
M  V30 21484 H 2002.01 -0.642271 -1.45123 0
M  V30 21485 H 2002.03 0.890928 -3.69923 0
M  V30 21486 H 2001.54 -0.932545 -3.7673 0
M  V30 21487 H 1999.64 1.50686 -3.40771 0
M  V30 21488 H 1999.76 0.221939 -4.78586 0
M  V30 21489 H 1998.12 0.214561 -2.53795 0
M  V30 21490 H 1998.9 -1.3358 -3.16246 0
M  V30 21491 N 2001.35 1.56817 -0.156891 0
M  V30 21492 C 2002.31 2.16058 0.764967 0
M  V30 21493 C 2003.31 1.10488 1.16829 0
M  V30 21494 O 2004.5 1.36077 1.0876 0
M  V30 21495 C 2001.63 2.73173 2.03935 0
M  V30 21496 H 2002.83 2.98861 0.249482 0
M  V30 21497 H 2000.38 1.56025 0.0926074 0
M  V30 21498 H 2001.11 1.94064 2.59827 0
M  V30 21499 H 2000.9 3.50417 1.75926 0
M  V30 21500 H 2002.39 3.18783 2.69754 0
M  V30 21501 N 2002.83 -0.116876 1.57166 0
M  V30 21502 C 2004.07 -0.825509 1.85238 0
M  V30 21503 C 2004.4 -1.79427 0.742936 0
M  V30 21504 O 2003.68 -1.92873 -0.251043 0
M  V30 21505 C 2003.96 -1.57353 3.23901 0
M  V30 21506 C 2003.82 -0.624227 4.45447 0
M  V30 21507 C 2005.13 -2.52922 3.60164 0
M  V30 21508 H 2002.25 -0.298653 0.673777 0
M  V30 21509 H 2004.9 -0.0897002 1.89788 0
M  V30 21510 H 2003.05 -2.20078 3.20153 0
M  V30 21511 H 2004.72 -0.00566556 4.613 0
M  V30 21512 H 2002.96 0.0640779 4.33753 0
M  V30 21513 H 2003.63 -1.1843 5.39146 0
M  V30 21514 H 2006.11 -2.00302 3.64717 0
M  V30 21515 H 2004.98 -3.02291 4.58161 0
M  V30 21516 H 2005.24 -3.35684 2.87695 0
M  V30 21517 N 2004.3 -1.52772 -0.387116 0
M  V30 21518 C 2005.55 -1.67907 -1.13196 0
M  V30 21519 C 2005.88 -0.419946 -1.89912 0
M  V30 21520 O 2005.13 0.5977 -1.86349 0
M  V30 21521 C 2005.43 -2.86632 -2.13487 0
M  V30 21522 C 2005.1 -4.23999 -1.53414 0
M  V30 21523 C 2003.76 -4.61358 -1.36757 0
M  V30 21524 C 2006.11 -5.09513 -1.09756 0
M  V30 21525 C 2003.44 -5.81887 -0.749927 0
M  V30 21526 C 2005.79 -6.30668 -0.494012 0
M  V30 21527 C 2004.46 -6.66757 -0.314755 0
M  V30 21528 H 2003.73 -0.614416 -0.414214 0
M  V30 21529 H 2006.37 -1.86919 -0.416362 0
M  V30 21530 H 2004.68 -2.62045 -2.91273 0
M  V30 21531 H 2006.38 -2.95538 -2.71032 0
M  V30 21532 H 2002.97 -3.94571 -1.67367 0
M  V30 21533 H 2007.15 -4.81217 -1.21426 0
M  V30 21534 H 2002.41 -6.08456 -0.599259 0
M  V30 21535 H 2006.58 -6.96244 -0.14743 0
M  V30 21536 H 2004.21 -7.60019 0.165924 0
M  V30 21537 N 2005.78 0.645673 -1.43767 0
M  V30 21538 C 2007.03 1.40756 -1.45999 0
M  V30 21539 C 2007.36 1.94006 -0.0867413 0
M  V30 21540 O 2006.64 1.72761 0.893532 0
M  V30 21541 C 2006.92 2.58349 -2.50854 0
M  V30 21542 C 2006.77 2.10542 -3.97482 0
M  V30 21543 C 2008.09 3.60555 -2.52364 0
M  V30 21544 H 2005.21 0.510461 -0.5316 0
M  V30 21545 H 2007.85 0.731338 -1.75361 0
M  V30 21546 H 2006 3.16038 -2.25947 0
M  V30 21547 H 2007.67 1.57795 -4.33472 0
M  V30 21548 H 2005.92 1.41848 -4.09953 0
M  V30 21549 H 2006.59 2.95137 -4.66474 0
M  V30 21550 H 2009.06 3.12639 -2.74583 0
M  V30 21551 H 2007.94 4.40375 -3.2766 0
M  V30 21552 H 2008.2 4.13654 -1.56022 0
M  V30 21553 N 2007.26 1.30423 0.884744 0
M  V30 21554 C 2008.5 1.20543 1.65072 0
M  V30 21555 C 2008.86 -0.236066 1.90543 0
M  V30 21556 O 2010.06 -0.458107 2.64868 0
M  V30 21557 C 2008.34 2.01135 2.95431 0
M  V30 21558 S 2009.89 2.07956 3.86393 0
M  V30 21559 H 2006.71 0.429572 0.566559 0
M  V30 21560 H 2009.31 1.64901 1.05014 0
M  V30 21561 H 2008.02 3.04981 2.74618 0
M  V30 21562 H 2007.55 1.57439 3.60522 0
M  V30 21563 H 2009.56 1.20711 4.81293 0
M  V30 21564 N 2008.74 -1.09711 1.13142 0
M  V30 21565 C 2009.99 -1.81198 0.886021 0
M  V30 21566 C 2010.3 -1.86501 -0.589624 0
M  V30 21567 O 2011.51 -2.54267 -0.951866 0
M  V30 21568 C 2009.96 -3.25498 1.53554 0
M  V30 21569 C 2009.57 -3.2847 3.0465 0
M  V30 21570 C 2011.31 -4.01761 1.37072 0
M  V30 21571 C 2009.22 -4.67276 3.62501 0
M  V30 21572 H 2008.15 -0.679005 0.327824 0
M  V30 21573 H 2010.8 -1.23325 1.35879 0
M  V30 21574 H 2009.18 -3.83414 0.990434 0
M  V30 21575 H 2010.36 -2.80336 3.65716 0
M  V30 21576 H 2008.67 -2.65697 3.20615 0
M  V30 21577 H 2011.27 -5.04306 1.77707 0
M  V30 21578 H 2011.61 -4.15105 0.315226 0
M  V30 21579 H 2012.15 -3.50279 1.88545 0
M  V30 21580 H 2008.88 -4.59133 4.67843 0
M  V30 21581 H 2008.4 -5.15746 3.06212 0
M  V30 21582 H 2010.08 -5.36249 3.62002 0
M  V30 21583 N 2010.22 -0.924476 -1.27637 0
M  V30 21584 C 2011.18 -0.425772 -2.25211 0
M  V30 21585 C 2012.18 0.453876 -1.54261 0
M  V30 21586 O 2013.37 0.255412 -1.72317 0
M  V30 21587 C 2010.5 0.388294 -3.38681 0
M  V30 21588 H 2011.69 -1.28783 -2.70841 0
M  V30 21589 H 2009.25 -0.704863 -1.39504 0
M  V30 21590 H 2009.98 1.2693 -2.98428 0
M  V30 21591 H 2009.77 -0.242358 -3.9135 0
M  V30 21592 H 2011.26 0.727693 -4.11211 0
M  V30 21593 N 2011.69 1.41711 -0.689627 0
M  V30 21594 C 2012.62 2.33474 -0.0348045 0
M  V30 21595 C 2013.61 1.51494 0.773533 0
M  V30 21596 O 2014.79 1.8005 0.727705 0
M  V30 21597 C 2011.92 3.35259 0.906573 0
M  V30 21598 C 2010.87 4.27505 0.205762 0
M  V30 21599 C 2010.2 5.19616 1.26109 0
M  V30 21600 C 2011.5 5.14056 -0.92431 0
M  V30 21601 H 2013.19 2.88481 -0.801208 0
M  V30 21602 H 2010.74 1.3871 -0.386738 0
M  V30 21603 H 2012.69 3.98375 1.37386 0
M  V30 21604 H 2011.42 2.78589 1.70457 0
M  V30 21605 H 2010.08 3.65804 -0.241437 0
M  V30 21606 H 2009.72 4.59264 2.05147 0
M  V30 21607 H 2009.42 5.82167 0.797221 0
M  V30 21608 H 2010.95 5.85609 1.72901 0
M  V30 21609 H 2012.36 5.70774 -0.537573 0
M  V30 21610 H 2010.76 5.85517 -1.3149 0
M  V30 21611 H 2011.83 4.51574 -1.7666 0
M  V30 21612 N 2013.17 0.433965 1.51507 0
M  V30 21613 C 2014.42 -0.133827 2.02358 0
M  V30 21614 C 2014.75 -1.42654 1.3177 0
M  V30 21615 O 2014.03 -1.89651 0.431588 0
M  V30 21616 C 2014.31 -0.356052 3.58335 0
M  V30 21617 C 2014.16 0.955077 4.39543 0
M  V30 21618 C 2015.48 -1.12732 4.25417 0
M  V30 21619 H 2012.6 -0.0471634 0.735489 0
M  V30 21620 H 2015.24 0.572301 1.81176 0
M  V30 21621 H 2013.39 -0.957541 3.76515 0
M  V30 21622 H 2015.06 1.59029 4.33021 0
M  V30 21623 H 2013.31 1.56044 4.04762 0
M  V30 21624 H 2013.98 0.753671 5.46831 0
M  V30 21625 H 2016.45 -0.617852 4.11487 0
M  V30 21626 H 2015.33 -1.25157 5.34441 0
M  V30 21627 H 2015.59 -2.15452 3.86048 0
M  V30 21628 N 2014.65 -1.56732 0.165206 0
M  V30 21629 C 2015.9 -1.96697 -0.481311 0
M  V30 21630 C 2016.23 -1.05092 -1.63664 0
M  V30 21631 O 2015.48 -0.0837635 -1.95521 0
M  V30 21632 C 2015.78 -3.42783 -1.01165 0
M  V30 21633 C 2015.45 -4.50892 0.0271385 0
M  V30 21634 C 2014.11 -4.80183 0.31265 0
M  V30 21635 C 2016.46 -5.16026 0.732556 0
M  V30 21636 C 2013.79 -5.71909 1.30907 0
M  V30 21637 C 2016.14 -6.08827 1.71792 0
M  V30 21638 C 2014.8 -6.36488 2.01094 0
M  V30 21639 H 2014.07 -0.719765 -0.176124 0
M  V30 21640 H 2016.72 -1.89783 0.255878 0
M  V30 21641 H 2015.03 -3.46619 -1.82654 0
M  V30 21642 H 2016.72 -3.71044 -1.52078 0
M  V30 21643 H 2013.31 -4.28107 -0.205569 0
M  V30 21644 H 2017.5 -4.93513 0.525186 0
M  V30 21645 H 2012.75 -5.91626 1.54234 0
M  V30 21646 H 2016.93 -6.58367 2.26993 0
M  V30 21647 H 2014.55 -7.07367 2.78454 0
M  V30 21648 N 2016.13 0.10854 -1.57226 0
M  V30 21649 C 2017.35 0.832276 -1.89968 0
M  V30 21650 C 2017.78 1.72143 -0.758179 0
M  V30 21651 O 2017.14 1.78952 0.290864 0
M  V30 21652 C 2017.18 1.63287 -3.21512 0
M  V30 21653 O 2016.29 2.74071 -3.08154 0
M  V30 21654 H 2015.63 0.229508 -0.623075 0
M  V30 21655 H 2018.16 0.0877974 -2.04412 0
M  V30 21656 H 2018.17 2.01992 -3.5449 0
M  V30 21657 H 2016.84 0.98022 -4.04184 0
M  V30 21658 H 2015.42 2.38492 -2.86664 0
M  V30 21659 N 2017.61 1.52975 0.379009 0
M  V30 21660 C 2018.54 1.81436 1.46981 0
M  V30 21661 C 2019.52 0.666985 1.56478 0
M  V30 21662 O 2020.7 0.915545 1.71264 0
M  V30 21663 C 2017.83 1.99221 2.84479 0
M  V30 21664 C 2016.79 3.14946 2.89816 0
M  V30 21665 C 2016.11 3.18001 4.2986 0
M  V30 21666 C 2017.41 4.53814 2.58554 0
M  V30 21667 H 2019.11 2.72781 1.23413 0
M  V30 21668 H 2016.65 1.31257 0.592257 0
M  V30 21669 H 2018.61 2.17714 3.60803 0
M  V30 21670 H 2017.33 1.04573 3.09406 0
M  V30 21671 H 2015.99 2.96251 2.15942 0
M  V30 21672 H 2015.64 2.21017 4.51841 0
M  V30 21673 H 2015.34 3.95746 4.34349 0
M  V30 21674 H 2016.86 3.38662 5.08075 0
M  V30 21675 H 2018.27 4.72559 3.24593 0
M  V30 21676 H 2016.67 5.33701 2.74379 0
M  V30 21677 H 2017.74 4.59845 1.53853 0
M  V30 21678 N 2019.08 -0.63804 1.44107 0
M  V30 21679 C 2020.33 -1.39366 1.45808 0
M  V30 21680 C 2020.65 -1.95384 0.091867 0
M  V30 21681 O 2021.85 -2.71497 -0.0136182 0
M  V30 21682 C 2020.31 -2.52293 2.56663 0
M  V30 21683 C 2019.92 -2.02818 3.99461 0
M  V30 21684 C 2021.66 -3.29549 2.67577 0
M  V30 21685 C 2019.57 -3.13047 5.01753 0
M  V30 21686 H 2018.5 -0.5237 0.542452 0
M  V30 21687 H 2021.15 -0.687131 1.70149 0
M  V30 21688 H 2019.53 -3.25489 2.2555 0
M  V30 21689 H 2020.7 -1.36533 4.40108 0
M  V30 21690 H 2019.02 -1.38398 3.92728 0
M  V30 21691 H 2021.62 -4.11709 3.41174 0
M  V30 21692 H 2021.96 -3.78579 1.73159 0
M  V30 21693 H 2022.49 -2.63441 2.98066 0
M  V30 21694 H 2019.23 -2.68969 5.97776 0
M  V30 21695 H 2018.75 -3.77995 4.65704 0
M  V30 21696 H 2020.43 -3.77934 5.25142 0
M  V30 21697 N 2020.56 -1.3089 -0.877815 0
M  V30 21698 C 2021.81 -1.20303 -1.63264 0
M  V30 21699 C 2022.14 0.240114 -1.9271 0
M  V30 21700 O 2021.42 1.17082 -1.55313 0
M  V30 21701 C 2021.7 -2.03934 -2.96788 0
M  V30 21702 C 2021.55 -3.56506 -2.74269 0
M  V30 21703 C 2022.87 -1.88268 -3.97798 0
M  V30 21704 H 2019.99 -0.438382 -0.592445 0
M  V30 21705 H 2022.63 -1.60598 -1.01529 0
M  V30 21706 H 2020.78 -1.69698 -3.49478 0
M  V30 21707 H 2022.45 -4.00838 -2.28312 0
M  V30 21708 H 2020.7 -3.8033 -2.08643 0
M  V30 21709 H 2021.37 -4.1032 -3.69244 0
M  V30 21710 H 2023.84 -2.18214 -3.54291 0
M  V30 21711 H 2022.72 -2.49098 -4.89123 0
M  V30 21712 H 2022.98 -0.843802 -4.33973 0
M  V30 21713 N 2022.04 1.0911 -1.13723 0
M  V30 21714 C 2023.45 1.62841 -0.913213 0
M  V30 21715 C 2023.8 1.88346 0.549566 0
M  V30 21716 O 2022.93 1.63558 1.41696 0
M  V30 21717 C 2023.52 2.95835 -1.65127 0
M  V30 21718 C 2022.08 3.46379 -1.47304 0
M  V30 21719 C 2021.23 2.20738 -1.6784 0
M  V30 21720 H 2024.18 0.924297 -1.29006 0
M  V30 21721 H 2024.2 3.63942 -1.11026 0
M  V30 21722 H 2023.71 2.77241 -2.71587 0
M  V30 21723 H 2021.81 3.70092 -0.431605 0
M  V30 21724 H 2021.93 4.23603 -2.23825 0
M  V30 21725 H 2020.29 2.29554 -1.10349 0
M  V30 21726 H 2021.07 2.04659 -2.75626 0
M  V30 21727 N 2023.52 0.931232 1.27145 0
M  V30 21728 C 2024.93 0.617607 1.76189 0
M  V30 21729 C 2025.28 -0.867239 1.75993 0
M  V30 21730 O 2024.41 -1.67865 1.36567 0
M  V30 21731 C 2025 1.11436 3.19949 0
M  V30 21732 C 2023.56 0.851337 3.66646 0
M  V30 21733 C 2022.71 1.27104 2.46454 0
M  V30 21734 H 2025.66 1.11062 1.13362 0
M  V30 21735 H 2025.68 0.463637 3.77665 0
M  V30 21736 H 2025.19 2.19507 3.2006 0
M  V30 21737 H 2023.29 -0.215418 3.71977 0
M  V30 21738 H 2023.4 1.47136 4.55947 0
M  V30 21739 H 2021.77 0.689554 2.45188 0
M  V30 21740 H 2022.55 2.36047 2.49273 0
M  V30 21741 N 2025 -1.41343 0.697132 0
M  V30 21742 C 2026.24 -2.01204 0.22876 0
M  V30 21743 C 2026.57 -1.55215 -1.17211 0
M  V30 21744 O 2025.83 -0.754886 -1.80555 0
M  V30 21745 C 2026.13 -3.56617 0.236459 0
M  V30 21746 C 2025.79 -4.22121 1.58507 0
M  V30 21747 C 2024.45 -4.39729 1.95427 0
M  V30 21748 C 2026.81 -4.58835 2.47224 0
M  V30 21749 C 2024.13 -4.91328 3.20646 0
M  V30 21750 C 2026.49 -5.11825 3.71777 0
M  V30 21751 C 2025.15 -5.27643 4.08838 0
M  V30 21752 H 2024.42 -0.736257 0.0837091 0
M  V30 21753 H 2027.07 -1.69218 0.89653 0
M  V30 21754 H 2025.37 -3.88402 -0.514862 0
M  V30 21755 H 2027.07 -4.00743 -0.14349 0
M  V30 21756 H 2023.66 -4.08792 1.28791 0
M  V30 21757 H 2027.84 -4.44885 2.1998 0
M  V30 21758 H 2023.1 -5.01759 3.49353 0
M  V30 21759 H 2027.27 -5.39213 4.40706 0
M  V30 21760 H 2024.9 -5.67388 5.05939 0
M  V30 21761 N 2026.48 -0.441993 -1.51275 0
M  V30 21762 C 2027.72 0.122669 -2.01727 0
M  V30 21763 C 2028.04 1.42804 -1.32786 0
M  V30 21764 O 2027.31 1.90329 -0.463874 0
M  V30 21765 H 2025.89 0.0483227 -0.745435 0
M  V30 21766 H 2028.56 -0.585765 -1.85889 0
M  V30 21767 H 2027.65 0.295224 -3.10701 0
M  V30 21768 N 2027.95 1.56642 -0.173515 0
M  V30 21769 C 2028.9 2.1807 0.755917 0
M  V30 21770 C 2029.87 1.12136 1.22534 0
M  V30 21771 O 2031.06 1.40296 1.29312 0
M  V30 21772 C 2028.2 2.82726 1.97888 0
M  V30 21773 C 2027.31 4.03127 1.55282 0
M  V30 21774 C 2026.44 4.55703 2.72962 0
M  V30 21775 C 2025.48 5.68509 2.26857 0
M  V30 21776 N 2024.62 6.15585 3.37638 0
M  V30 21777 H 2029.46 2.97147 0.225305 0
M  V30 21778 H 2027 1.46763 0.0994783 0
M  V30 21779 H 2028.95 3.18371 2.69621 0
M  V30 21780 H 2027.58 2.0625 2.48316 0
M  V30 21781 H 2026.64 3.73288 0.732154 0
M  V30 21782 H 2027.95 4.84777 1.17441 0
M  V30 21783 H 2027.1 4.93541 3.52849 0
M  V30 21784 H 2025.84 3.73115 3.14065 0
M  V30 21785 H 2024.85 5.3022 1.45418 0
M  V30 21786 H 2026.07 6.529 1.8681 0
M  V30 21787 H 2024.02 5.35925 3.78312 0
M  V30 21788 H 2023.93 6.9223 3.03897 0
M  V30 21789 H 2025.2 6.58074 4.17803 0
M  V30 21790 N 2029.43 -0.1002 1.57281 0
M  V30 21791 C 2030.66 -0.817121 1.89754 0
M  V30 21792 C 2031.07 -1.7305 0.764869 0
M  V30 21793 O 2030.41 -1.81669 -0.272384 0
M  V30 21794 C 2030.47 -1.68753 3.17432 0
M  V30 21795 C 2030.14 -0.9465 4.47091 0
M  V30 21796 C 2031.14 -0.278645 5.19153 0
M  V30 21797 C 2028.82 -0.922095 4.93764 0
M  V30 21798 C 2030.81 0.403703 6.3612 0
M  V30 21799 C 2028.5 -0.235958 6.10644 0
M  V30 21800 C 2029.5 0.425768 6.81672 0
M  V30 21801 O 2029.19 1.10091 7.96326 0
M  V30 21802 H 2028.92 -0.239163 0.632279 0
M  V30 21803 H 2031.47 -0.0834139 2.05231 0
M  V30 21804 H 2029.7 -2.46334 2.98088 0
M  V30 21805 H 2031.39 -2.28055 3.35776 0
M  V30 21806 H 2032.16 -0.288994 4.84138 0
M  V30 21807 H 2028.04 -1.4266 4.38371 0
M  V30 21808 H 2031.58 0.920777 6.91497 0
M  V30 21809 H 2027.48 -0.223438 6.45113 0
M  V30 21810 H 2028.25 1.00729 8.12278 0
M  V30 21811 N 2030.91 -1.53174 -0.370891 0
M  V30 21812 C 2032.32 -1.60843 -0.94796 0
M  V30 21813 C 2032.67 -0.472528 -1.90425 0
M  V30 21814 O 2031.8 0.401822 -2.12637 0
M  V30 21815 C 2032.39 -2.91534 -1.72607 0
M  V30 21816 C 2030.95 -3.01557 -2.25257 0
M  V30 21817 C 2030.1 -2.561 -1.0634 0
M  V30 21818 H 2033.05 -1.57991 -0.149852 0
M  V30 21819 H 2033.07 -2.79038 -2.58685 0
M  V30 21820 H 2032.58 -3.74188 -1.02982 0
M  V30 21821 H 2030.68 -2.23479 -2.9814 0
M  V30 21822 H 2030.8 -4.06538 -2.53502 0
M  V30 21823 H 2029.16 -2.10849 -1.42881 0
M  V30 21824 H 2029.94 -3.41166 -0.38221 0
M  V30 21825 N 2032.39 0.630389 -1.44443 0
M  V30 21826 C 2033.61 1.42206 -1.50971 0
M  V30 21827 C 2034.04 1.87609 -0.135854 0
M  V30 21828 O 2033.4 1.58782 0.8751 0
M  V30 21829 C 2033.44 2.61801 -2.47977 0
M  V30 21830 O 2032.55 3.6166 -1.98181 0
M  V30 21831 H 2031.89 0.425475 -0.509771 0
M  V30 21832 H 2034.42 0.769359 -1.89584 0
M  V30 21833 H 2034.43 3.09335 -2.66037 0
M  V30 21834 H 2033.1 2.281 -3.47769 0
M  V30 21835 H 2031.68 3.2093 -1.89891 0
M  V30 21836 N 2033.87 1.31354 0.870861 0
M  V30 21837 C 2034.8 1.21518 1.99388 0
M  V30 21838 C 2035.78 0.102582 1.6979 0
M  V30 21839 O 2036.96 0.287028 1.92067 0
M  V30 21840 C 2034.09 0.920813 3.34871 0
M  V30 21841 C 2033.05 1.99289 3.78772 0
M  V30 21842 C 2032.37 1.55123 5.11704 0
M  V30 21843 C 2033.67 3.40589 3.95975 0
M  V30 21844 H 2035.37 2.15473 2.07875 0
M  V30 21845 H 2032.91 1.03734 0.998761 0
M  V30 21846 H 2034.86 0.838612 4.12971 0
M  V30 21847 H 2033.59 -0.0543971 3.26555 0
M  V30 21848 H 2032.25 2.06496 3.0291 0
M  V30 21849 H 2031.9 0.563901 4.99829 0
M  V30 21850 H 2031.6 2.26842 5.42048 0
M  V30 21851 H 2033.12 1.48308 5.92315 0
M  V30 21852 H 2034.53 3.36061 4.64474 0
M  V30 21853 H 2032.93 4.10517 4.37716 0
M  V30 21854 H 2034 3.8144 2.99385 0
M  V30 21855 N 2035.34 -1.08505 1.143 0
M  V30 21856 C 2036.25 -2.18944 0.84266 0
M  V30 21857 C 2037.27 -1.73103 -0.17648 0
M  V30 21858 O 2038.45 -2.01399 -0.0052364 0
M  V30 21859 C 2035.51 -3.45189 0.323347 0
M  V30 21860 C 2034.57 -4.05661 1.40492 0
M  V30 21861 C 2033.8 -5.2588 0.910289 0
M  V30 21862 O 2034.03 -5.69858 -0.248616 0
M  V30 21863 O 2032.96 -5.77722 1.68882 0
M  V30 21864 H 2036.79 -2.47104 1.76559 0
M  V30 21865 H 2034.37 -1.17621 0.921181 0
M  V30 21866 H 2036.25 -4.21381 0.039611 0
M  V30 21867 H 2034.93 -3.18608 -0.571874 0
M  V30 21868 H 2033.84 -3.31061 1.7421 0
M  V30 21869 H 2035.17 -4.36488 2.27462 0
M  V30 21870 N 2036.82 -0.937962 -1.26649 0
M  V30 21871 C 2037.75 -0.462649 -2.28871 0
M  V30 21872 C 2038.73 0.4824 -1.63116 0
M  V30 21873 O 2039.92 0.384947 -1.90347 0
M  V30 21874 C 2037.05 0.275964 -3.46202 0
M  V30 21875 C 2036 -0.582222 -4.24021 0
M  V30 21876 C 2035.33 0.286161 -5.33934 0
M  V30 21877 C 2036.63 -1.85193 -4.88365 0
M  V30 21878 H 2038.32 -1.31698 -2.68879 0
M  V30 21879 H 2035.87 -0.634709 -1.29257 0
M  V30 21880 H 2037.82 0.619496 -4.16822 0
M  V30 21881 H 2036.54 1.1644 -3.05138 0
M  V30 21882 H 2035.2 -0.908604 -3.55162 0
M  V30 21883 H 2034.85 1.17386 -4.89111 0
M  V30 21884 H 2034.55 -0.284618 -5.8691 0
M  V30 21885 H 2036.08 0.625035 -6.07393 0
M  V30 21886 H 2037.49 -1.57584 -5.51217 0
M  V30 21887 H 2035.89 -2.36702 -5.51445 0
M  V30 21888 H 2036.96 -2.56526 -4.11488 0
M  V30 21889 N 2038.3 1.40971 -0.704618 0
M  V30 21890 C 2039.23 2.29199 -0.00575899 0
M  V30 21891 C 2040.24 1.45259 0.735102 0
M  V30 21892 O 2041.43 1.68666 0.584302 0
M  V30 21893 C 2038.53 3.23311 1.01604 0
M  V30 21894 C 2037.71 4.36053 0.342951 0
M  V30 21895 C 2036.77 5.10679 1.26861 0
M  V30 21896 O 2035.79 5.64136 0.757556 0
M  V30 21897 N 2036.99 5.18997 2.60043 0
M  V30 21898 H 2039.76 2.89818 -0.763264 0
M  V30 21899 H 2037.32 1.52222 -0.551367 0
M  V30 21900 H 2039.31 3.70104 1.63722 0
M  V30 21901 H 2037.88 2.63937 1.675 0
M  V30 21902 H 2037.1 3.91527 -0.458254 0
M  V30 21903 H 2038.39 5.08647 -0.124708 0
M  V30 21904 H 2037.79 4.77029 3.04072 0
M  V30 21905 H 2036.34 5.69336 3.17333 0
M  V30 21906 N 2039.78 0.45001 1.51039 0
M  V30 21907 C 2041.19 -0.0101397 1.86697 0
M  V30 21908 C 2041.54 -1.40804 1.36633 0
M  V30 21909 O 2040.67 -2.03986 0.722411 0
M  V30 21910 C 2041.26 -0.0251761 3.38791 0
M  V30 21911 C 2039.82 -0.429779 3.73938 0
M  V30 21912 C 2038.97 0.369286 2.7483 0
M  V30 21913 H 2041.92 0.665278 1.44082 0
M  V30 21914 H 2041.94 -0.831964 3.71293 0
M  V30 21915 H 2041.45 0.992361 3.75198 0
M  V30 21916 H 2039.55 -1.45245 3.43125 0
M  V30 21917 H 2039.66 -0.145773 4.78878 0
M  V30 21918 H 2038.03 -0.174158 2.54104 0
M  V30 21919 H 2038.81 1.38594 3.14081 0
M  V30 21920 N 2041.26 -1.56548 0.18182 0
M  V30 21921 C 2042.5 -1.98256 -0.454541 0
M  V30 21922 C 2042.86 -1.06631 -1.60148 0
M  V30 21923 O 2042.15 -0.108046 -1.91295 0
M  V30 21924 C 2042.34 -3.43837 -0.975236 0
M  V30 21925 C 2042.17 -4.49541 0.11972 0
M  V30 21926 C 2040.94 -5.02042 0.572914 0
M  V30 21927 C 2043.14 -5.05933 0.923913 0
M  V30 21928 N 2041.12 -5.91392 1.64708 0
M  V30 21929 C 2042.49 -5.91826 1.84777 0
M  V30 21930 C 2044.55 -4.88403 0.967818 0
M  V30 21931 C 2043.25 -6.62063 2.81185 0
M  V30 21932 C 2045.28 -5.5937 1.91989 0
M  V30 21933 C 2044.64 -6.44998 2.83121 0
M  V30 21934 H 2040.74 -0.770411 -0.13413 0
M  V30 21935 H 2043.32 -1.92611 0.284458 0
M  V30 21936 H 2041.49 -3.50008 -1.68372 0
M  V30 21937 H 2043.23 -3.72536 -1.5811 0
M  V30 21938 H 2039.98 -4.73299 0.168686 0
M  V30 21939 H 2040.41 -6.40772 2.18496 0
M  V30 21940 H 2045.05 -4.2189 0.277265 0
M  V30 21941 H 2042.77 -7.27783 3.51223 0
M  V30 21942 H 2046.35 -5.47788 1.9601 0
M  V30 21943 H 2045.23 -6.98946 3.55591 0
M  V30 21944 N 2042.73 0.0918577 -1.57332 0
M  V30 21945 C 2043.67 1.14242 -1.97545 0
M  V30 21946 C 2044.65 1.38665 -0.849166 0
M  V30 21947 O 2045.83 1.52371 -1.10974 0
M  V30 21948 C 2042.96 2.49094 -2.29499 0
M  V30 21949 C 2042 2.40932 -3.51929 0
M  V30 21950 S 2042.84 1.82272 -5.03525 0
M  V30 21951 C 2043.99 3.18742 -5.3866 0
M  V30 21952 H 2044.22 0.799633 -2.86344 0
M  V30 21953 H 2041.76 0.299658 -1.51464 0
M  V30 21954 H 2043.72 3.26674 -2.48585 0
M  V30 21955 H 2042.38 2.80541 -1.41264 0
M  V30 21956 H 2041.57 3.40331 -3.7174 0
M  V30 21957 H 2041.17 1.71483 -3.3237 0
M  V30 21958 H 2043.46 4.15022 -5.35503 0
M  V30 21959 H 2044.41 3.03732 -6.3965 0
M  V30 21960 H 2044.81 3.18423 -4.66119 0
M  V30 21961 N 2044.21 1.53368 0.362763 0
M  V30 21962 C 2045.44 1.73348 1.12402 0
M  V30 21963 C 2045.85 0.463567 1.83433 0
M  V30 21964 O 2045.19 -0.573438 1.7452 0
M  V30 21965 C 2045.26 2.84605 2.19637 0
M  V30 21966 C 2044.92 4.24862 1.68348 0
M  V30 21967 C 2045.92 5.07111 1.14605 0
M  V30 21968 C 2043.6 4.71283 1.73776 0
M  V30 21969 C 2045.6 6.33872 0.669702 0
M  V30 21970 C 2043.28 5.98021 1.25753 0
M  V30 21971 C 2044.28 6.79148 0.724405 0
M  V30 21972 O 2043.97 8.03507 0.251275 0
M  V30 21973 H 2043.7 0.583168 0.341893 0
M  V30 21974 H 2046.25 2.00919 0.426694 0
M  V30 21975 H 2044.48 2.52514 2.92871 0
M  V30 21976 H 2046.17 2.92735 2.81177 0
M  V30 21977 H 2046.94 4.7242 1.09748 0
M  V30 21978 H 2042.82 4.08208 2.14213 0
M  V30 21979 H 2046.36 6.97141 0.252909 0
M  V30 21980 H 2042.26 6.32211 1.30304 0
M  V30 21981 H 2043.03 8.17662 0.370343 0
M  V30 21982 N 2045.69 -0.62272 1.44776 0
M  V30 21983 C 2046.64 -1.75545 1.526 0
M  V30 21984 C 2047.63 -1.64681 0.397056 0
M  V30 21985 O 2048.84 -1.70658 0.572351 0
M  V30 21986 H 2045.21 -0.579694 0.479018 0
M  V30 21987 H 2047.18 -1.66069 2.47919 0
M  V30 21988 C 2045.93 -3.13899 1.49542 0
M  V30 21989 H 2045.26 -3.2291 2.35731 0
M  V30 21990 H 2046.7 -3.93028 1.59076 0
M  V30 21991 C 2045.16 -3.36197 0.217454 0
M  V30 21992 O 2045.69 -3.95395 -0.708921 0
M  V30 21993 N 2043.89 -2.90361 0.117924 0
M  V30 21994 H 2043.44 -2.4237 0.872626 0
M  V30 21995 H 2043.4 -3.05655 -0.736367 0
M  V30 21996 N 2047.17 -1.31814 -0.863883 0
M  V30 21997 C 2048.08 -1.21951 -2.00412 0
M  V30 21998 C 2049.09 -0.13497 -1.73476 0
M  V30 21999 O 2050.27 -0.35392 -1.98266 0
M  V30 22000 C 2047.34 -0.933599 -3.33893 0
M  V30 22001 C 2046.4 -2.10565 -3.74113 0
M  V30 22002 C 2045.63 -1.83329 -5.01225 0
M  V30 22003 O 2045.85 -0.77136 -5.6516 0
M  V30 22004 O 2044.79 -2.69178 -5.38356 0
M  V30 22005 H 2048.61 -2.17786 -2.11667 0
M  V30 22006 H 2046.2 -1.11613 -0.993126 0
M  V30 22007 H 2048.08 -0.790251 -4.13924 0
M  V30 22008 H 2046.75 -0.00533113 -3.237 0
M  V30 22009 H 2045.66 -2.30443 -2.94698 0
M  V30 22010 H 2046.99 -3.01639 -3.88941 0
M  V30 22011 N 2048.65 1.07897 -1.14873 0
M  V30 22012 C 2049.58 2.14852 -0.798188 0
M  V30 22013 C 2050.59 1.61719 0.187287 0
M  V30 22014 O 2051.78 1.78465 -0.0351681 0
M  V30 22015 C 2048.88 3.38498 -0.16499 0
M  V30 22016 C 2048.05 4.21 -1.1865 0
M  V30 22017 C 2047.11 5.23037 -0.576101 0
M  V30 22018 O 2046.14 5.55518 -1.24051 0
M  V30 22019 N 2047.34 5.76908 0.644745 0
M  V30 22020 H 2050.11 2.45528 -1.71861 0
M  V30 22021 H 2047.67 1.23755 -1.04386 0
M  V30 22022 H 2049.66 4.0389 0.255991 0
M  V30 22023 H 2048.23 3.05582 0.658666 0
M  V30 22024 H 2047.45 3.51509 -1.78423 0
M  V30 22025 H 2048.74 4.72937 -1.87639 0
M  V30 22026 H 2048.13 5.5276 1.20302 0
M  V30 22027 H 2046.69 6.43956 1.00816 0
M  V30 22028 N 2050.12 0.944665 1.2615 0
M  V30 22029 C 2051.35 0.61007 1.97387 0
M  V30 22030 C 2051.76 -0.819956 1.70509 0
M  V30 22031 O 2051.11 -1.55879 0.971982 0
M  V30 22032 C 2051.17 0.776673 3.5101 0
M  V30 22033 C 2050.83 2.18198 4.01545 0
M  V30 22034 C 2051.83 3.15777 4.13014 0
M  V30 22035 C 2049.51 2.5035 4.35466 0
M  V30 22036 C 2051.51 4.43607 4.57703 0
M  V30 22037 C 2049.19 3.7841 4.79842 0
M  V30 22038 C 2050.19 4.74852 4.90922 0
M  V30 22039 O 2049.88 6.00632 5.34319 0
M  V30 22040 H 2049.61 0.228468 0.636222 0
M  V30 22041 H 2052.17 1.26867 1.61536 0
M  V30 22042 H 2050.4 0.0609398 3.86652 0
M  V30 22043 H 2052.09 0.44462 4.03457 0
M  V30 22044 H 2052.85 2.92263 3.8705 0
M  V30 22045 H 2048.73 1.76017 4.26074 0
M  V30 22046 H 2052.27 5.18885 4.66266 0
M  V30 22047 H 2048.17 4.01736 5.05251 0
M  V30 22048 H 2048.94 6.03864 5.52531 0
M  V30 22049 N 2051.6 -1.40596 0.712085 0
M  V30 22050 C 2052.83 -2.05265 0.259627 0
M  V30 22051 C 2053.25 -1.5364 -1.09728 0
M  V30 22052 O 2052.6 -0.691501 -1.68892 0
M  V30 22053 C 2052.65 -3.60787 0.22693 0
M  V30 22054 O 2052.37 -4.10506 1.53025 0
M  V30 22055 C 2053.88 -4.42625 -0.244507 0
M  V30 22056 H 2051.1 -0.660656 0.117366 0
M  V30 22057 H 2053.64 -1.80069 0.969308 0
M  V30 22058 H 2051.79 -3.84965 -0.43369 0
M  V30 22059 H 2052.21 -5.04676 1.42838 0
M  V30 22060 H 2053.68 -5.51576 -0.216241 0
M  V30 22061 H 2054.16 -4.19948 -1.2861 0
M  V30 22062 H 2054.77 -4.23547 0.385709 0
M  V30 22063 N 2053.08 -0.458013 -1.50798 0
M  V30 22064 C 2054.33 0.101466 -2.02246 0
M  V30 22065 C 2054.66 1.40891 -1.34089 0
M  V30 22066 O 2053.91 1.90427 -0.451235 0
M  V30 22067 C 2054.21 0.346589 -3.55716 0
M  V30 22068 C 2053.88 -0.877551 -4.42278 0
M  V30 22069 C 2052.54 -1.21321 -4.65655 0
M  V30 22070 C 2054.89 -1.69321 -4.9293 0
M  V30 22071 C 2052.22 -2.36483 -5.36929 0
M  V30 22072 C 2054.57 -2.836 -5.65468 0
M  V30 22073 C 2053.23 -3.17596 -5.87102 0
M  V30 22074 H 2052.5 0.0371291 -0.740069 0
M  V30 22075 H 2055.15 -0.609429 -1.81544 0
M  V30 22076 H 2053.46 1.1396 -3.74861 0
M  V30 22077 H 2055.15 0.793236 -3.93076 0
M  V30 22078 H 2051.74 -0.606027 -4.24294 0
M  V30 22079 H 2055.93 -1.44708 -4.74735 0
M  V30 22080 H 2051.18 -2.63111 -5.5189 0
M  V30 22081 H 2055.36 -3.47158 -6.037 0
M  V30 22082 H 2052.98 -4.06941 -6.42108 0
M  V30 22083 N 2054.56 1.56449 -0.190119 0
M  V30 22084 C 2055.81 1.9773 0.450624 0
M  V30 22085 C 2056.14 1.07678 1.61614 0
M  V30 22086 O 2055.41 0.127743 1.9408 0
M  V30 22087 C 2055.7 3.48267 0.915552 0
M  V30 22088 C 2055.55 4.49097 -0.251436 0
M  V30 22089 C 2056.87 4.02374 1.78278 0
M  V30 22090 H 2053.99 0.718902 0.162325 0
M  V30 22091 H 2056.63 1.87925 -0.28004 0
M  V30 22092 H 2054.78 3.56753 1.53816 0
M  V30 22093 H 2056.45 4.52653 -0.888996 0
M  V30 22094 H 2054.69 4.24276 -0.903996 0
M  V30 22095 H 2055.37 5.51877 0.116306 0
M  V30 22096 H 2057.84 3.96636 1.25774 0
M  V30 22097 H 2056.72 5.08084 2.07706 0
M  V30 22098 H 2056.98 3.4733 2.73522 0
M  V30 22099 N 2056.04 -0.0835127 1.57379 0
M  V30 22100 C 2057.26 -0.801948 1.91268 0
M  V30 22101 C 2057.69 -1.70915 0.785469 0
M  V30 22102 O 2057.05 -1.79392 -0.262357 0
M  V30 22103 C 2057.09 -1.58151 3.24069 0
M  V30 22104 O 2056.2 -2.69134 3.12475 0
M  V30 22105 H 2055.54 -0.219566 0.626647 0
M  V30 22106 H 2058.07 -0.0552662 2.04525 0
M  V30 22107 H 2058.08 -1.96327 3.57659 0
M  V30 22108 H 2056.75 -0.915794 4.05692 0
M  V30 22109 H 2055.33 -2.33901 2.90422 0
M  V30 22110 N 2057.52 -1.53558 -0.354624 0
M  V30 22111 C 2058.46 -1.81453 -1.45525 0
M  V30 22112 C 2059.46 -0.684302 -1.54963 0
M  V30 22113 O 2060.66 -0.867445 -1.57719 0
M  V30 22114 H 2057.04 -0.574697 -0.485003 0
M  V30 22115 H 2059.01 -2.73555 -1.19207 0
M  V30 22116 C 2057.76 -2.0311 -2.82208 0
M  V30 22117 H 2057.08 -2.89525 -2.75709 0
M  V30 22118 H 2058.52 -2.266 -3.58369 0
M  V30 22119 C 2056.98 -0.813372 -3.26934 0
M  V30 22120 O 2057.51 -0.00738144 -4.01699 0
M  V30 22121 N 2055.72 -0.633715 -2.83606 0
M  V30 22122 H 2055.26 -1.29076 -2.22928 0
M  V30 22123 H 2055.22 0.179621 -3.13886 0
M  V30 22124 N 2058.99 0.615033 -1.45104 0
M  V30 22125 C 2060.27 1.37409 -1.39206 0
M  V30 22126 C 2060.65 2.11018 -0.0588763 0
M  V30 22127 O 2060 2.07402 0.958997 0
M  V30 22128 C 2060.21 2.32712 -2.60089 0
M  V30 22129 C 2061.56 2.95549 -3.04854 0
M  V30 22130 O 2062.58 2.43035 -2.60408 0
M  V30 22131 O 2061.44 3.90854 -3.81963 0
M  V30 22132 H 2058.53 0.615766 -0.552052 0
M  V30 22133 H 2061.08 0.638743 -1.5722 0
M  V30 22134 H 2059.85 1.77529 -3.48711 0
M  V30 22135 H 2059.47 3.13639 -2.4437 0
M  V30 22136 N 2060.47 1.3227 0.85688 0
M  V30 22137 C 2061.43 1.2096 1.94682 0
M  V30 22138 C 2062.43 0.133231 1.60247 0
M  V30 22139 O 2063.62 0.383471 1.69927 0
M  V30 22140 C 2060.76 0.85974 3.29881 0
M  V30 22141 H 2061.95 2.17823 2.06139 0
M  V30 22142 H 2059.5 1.16069 1.04679 0
M  V30 22143 H 2060.24 -0.107161 3.24123 0
M  V30 22144 H 2060.02 1.63794 3.5625 0
M  V30 22145 H 2061.51 0.804868 4.0977 0
M  V30 22146 N 2061.95 -1.07287 1.15444 0
M  V30 22147 C 2063.36 -1.61368 0.939004 0
M  V30 22148 C 2063.71 -1.89196 -0.519532 0
M  V30 22149 O 2062.84 -1.65791 -1.39076 0
M  V30 22150 C 2063.43 -2.93171 1.69813 0
M  V30 22151 C 2061.99 -3.43992 1.52796 0
M  V30 22152 C 2061.14 -2.1804 1.7133 0
M  V30 22153 H 2064.09 -0.903656 1.3046 0
M  V30 22154 H 2064.11 -3.62129 1.16802 0
M  V30 22155 H 2063.62 -2.72885 2.75963 0
M  V30 22156 H 2061.72 -3.69358 0.490429 0
M  V30 22157 H 2061.84 -4.19988 2.30536 0
M  V30 22158 H 2060.2 -2.2777 1.13987 0
M  V30 22159 H 2060.98 -2.00248 2.78847 0
M  V30 22160 N 2063.43 -0.951342 -1.25647 0
M  V30 22161 C 2064.34 -0.475416 -2.29732 0
M  V30 22162 C 2065.35 0.455617 -1.67929 0
M  V30 22163 O 2066.53 0.332666 -1.98634 0
M  V30 22164 C 2063.59 0.242274 -3.45852 0
M  V30 22165 C 2062.66 -0.726566 -4.23107 0
M  V30 22166 C 2061.89 -0.043031 -5.33683 0
M  V30 22167 O 2062.11 1.17196 -5.5823 0
M  V30 22168 O 2061.05 -0.726899 -5.97495 0
M  V30 22169 H 2064.87 -1.34027 -2.72526 0
M  V30 22170 H 2062.46 -0.717655 -1.31035 0
M  V30 22171 H 2064.34 0.646132 -4.16417 0
M  V30 22172 H 2063.01 1.08236 -3.05068 0
M  V30 22173 H 2061.92 -1.18057 -3.54984 0
M  V30 22174 H 2063.25 -1.53457 -4.67666 0
M  V30 22175 N 2064.91 1.40216 -0.719531 0
M  V30 22176 C 2066.18 1.94697 -0.18772 0
M  V30 22177 C 2066.56 1.65742 1.30739 0
M  V30 22178 O 2065.91 0.97723 2.06549 0
M  V30 22179 C 2066.12 3.45332 -0.50469 0
M  V30 22180 C 2067.47 4.22256 -0.445515 0
M  V30 22181 O 2068.49 3.5346 -0.440978 0
M  V30 22182 O 2067.35 5.44833 -0.426487 0
M  V30 22183 H 2064.45 0.82649 -0.0290376 0
M  V30 22184 H 2066.99 1.49802 -0.797333 0
M  V30 22185 H 2065.76 3.5978 -1.53863 0
M  V30 22186 H 2065.39 3.97372 0.134684 0
M  V30 22187 N 2066.38 0.466004 1.50553 0
M  V30 22188 C 2067.61 -0.0885768 2.0671 0
M  V30 22189 C 2068.03 -1.33958 1.33044 0
M  V30 22190 O 2067.38 -1.78102 0.398219 0
M  V30 22191 C 2067.43 -0.381842 3.59478 0
M  V30 22192 O 2067.16 0.81954 4.30366 0
M  V30 22193 C 2068.66 -0.98395 4.32242 0
M  V30 22194 H 2065.88 0.00481473 0.670983 0
M  V30 22195 H 2068.42 0.653327 1.93783 0
M  V30 22196 H 2066.58 -1.07367 3.72224 0
M  V30 22197 H 2066.99 0.56106 5.21491 0
M  V30 22198 H 2068.46 -1.13895 5.40122 0
M  V30 22199 H 2068.94 -1.97271 3.92404 0
M  V30 22200 H 2069.55 -0.330654 4.24013 0
M  V30 22201 N 2067.86 -1.56346 0.198413 0
M  V30 22202 C 2069.11 -1.97283 -0.438612 0
M  V30 22203 C 2069.43 -1.08657 -1.61922 0
M  V30 22204 O 2068.7 -0.158561 -1.95257 0
M  V30 22205 H 2067.28 -0.728541 -0.165035 0
M  V30 22206 H 2069.94 -1.92791 0.285919 0
M  V30 22207 H 2069.04 -3.02183 -0.780516 0
M  V30 22208 N 2069.34 0.0751653 -1.57421 0
M  V30 22209 C 2070.57 0.787972 -1.91308 0
M  V30 22210 C 2070.98 1.7129 -0.794055 0
M  V30 22211 O 2070.34 1.81009 0.23281 0
M  V30 22212 C 2070.39 1.58447 -3.24926 0
M  V30 22213 O 2070.11 0.696727 -4.32524 0
M  V30 22214 C 2071.61 2.39857 -3.72805 0
M  V30 22215 H 2068.83 0.22422 -0.632429 0
M  V30 22216 H 2071.38 0.0464417 -2.04447 0
M  V30 22217 H 2069.53 2.27831 -3.13324 0
M  V30 22218 H 2069.95 1.25038 -5.09378 0
M  V30 22219 H 2071.42 2.91207 -4.68938 0
M  V30 22220 H 2071.9 3.19229 -3.01645 0
M  V30 22221 H 2072.5 1.75636 -3.8734 0
M  V30 22222 N 2070.82 1.53744 0.346476 0
M  V30 22223 C 2071.75 1.84512 1.43099 0
M  V30 22224 C 2072.73 0.700026 1.55028 0
M  V30 22225 O 2073.91 0.951666 1.69284 0
M  V30 22226 C 2071.04 2.0521 2.80189 0
M  V30 22227 C 2070 3.21022 2.8307 0
M  V30 22228 C 2069.32 3.27048 4.23018 0
M  V30 22229 C 2070.62 4.59196 2.4887 0
M  V30 22230 H 2072.32 2.75338 1.17599 0
M  V30 22231 H 2069.86 1.32483 0.564283 0
M  V30 22232 H 2071.82 2.25318 3.56103 0
M  V30 22233 H 2070.54 1.11113 3.07118 0
M  V30 22234 H 2069.2 3.00765 2.09609 0
M  V30 22235 H 2068.85 2.30551 4.47052 0
M  V30 22236 H 2068.55 4.0487 4.25857 0
M  V30 22237 H 2070.07 3.49363 5.00777 0
M  V30 22238 H 2071.49 4.79338 3.14496 0
M  V30 22239 H 2069.88 5.39401 2.62996 0
M  V30 22240 H 2070.95 4.63005 1.44064 0
M  V30 22241 N 2072.3 -0.607329 1.45428 0
M  V30 22242 C 2073.21 -1.7463 1.56657 0
M  V30 22243 C 2074.22 -1.68053 0.451014 0
M  V30 22244 O 2075.4 -1.88405 0.711736 0
M  V30 22245 C 2072.46 -3.11092 1.53045 0
M  V30 22246 C 2071.52 -3.29121 2.75641 0
M  V30 22247 C 2070.76 -4.59072 2.72193 0
M  V30 22248 O 2070.98 -5.41408 1.79536 0
M  V30 22249 O 2069.91 -4.79819 3.63397 0
M  V30 22250 H 2073.74 -1.68108 2.5293 0
M  V30 22251 H 2071.33 -0.771447 1.27942 0
M  V30 22252 H 2073.21 -3.92394 1.5364 0
M  V30 22253 H 2071.88 -3.18105 0.599244 0
M  V30 22254 H 2070.79 -2.47406 2.80608 0
M  V30 22255 H 2072.12 -3.26984 3.67889 0
M  V30 22256 N 2073.77 -1.32722 -0.849853 0
M  V30 22257 C 2074.7 -1.24675 -1.97429 0
M  V30 22258 C 2075.69 -0.129581 -1.69606 0
M  V30 22259 O 2076.87 -0.317548 -1.91586 0
M  V30 22260 C 2074 -0.973971 -3.33363 0
M  V30 22261 C 2072.95 -2.05289 -3.75553 0
M  V30 22262 C 2072.28 -1.63244 -5.09171 0
M  V30 22263 C 2073.58 -3.46845 -3.90507 0
M  V30 22264 H 2075.27 -2.18753 -2.0442 0
M  V30 22265 H 2072.82 -1.0531 -0.982132 0
M  V30 22266 H 2074.77 -0.904206 -4.11585 0
M  V30 22267 H 2073.5 0.00243816 -3.266 0
M  V30 22268 H 2072.16 -2.11289 -2.99587 0
M  V30 22269 H 2071.8 -0.643348 -4.98869 0
M  V30 22270 H 2071.5 -2.35437 -5.38371 0
M  V30 22271 H 2073.03 -1.57713 -5.8988 0
M  V30 22272 H 2074.44 -3.43408 -4.59069 0
M  V30 22273 H 2072.84 -4.17429 -4.3113 0
M  V30 22274 H 2073.91 -3.86155 -2.93278 0
M  V30 22275 N 2075.25 1.06673 -1.16011 0
M  V30 22276 C 2076.18 2.16027 -0.886249 0
M  V30 22277 C 2077.16 1.69289 0.165907 0
M  V30 22278 O 2078.35 1.94191 0.0188181 0
M  V30 22279 C 2075.48 3.45189 -0.382329 0
M  V30 22280 C 2074.43 4.05415 -1.37195 0
M  V30 22281 C 2073.76 5.2974 -0.726594 0
M  V30 22282 C 2075.06 4.44642 -2.74027 0
M  V30 22283 H 2076.75 2.39195 -1.80073 0
M  V30 22284 H 2074.3 1.14957 -0.867232 0
M  V30 22285 H 2076.25 4.21023 -0.17824 0
M  V30 22286 H 2074.98 3.21629 0.567641 0
M  V30 22287 H 2073.63 3.31634 -1.56252 0
M  V30 22288 H 2073.28 5.02475 0.229742 0
M  V30 22289 H 2072.98 5.70993 -1.38709 0
M  V30 22290 H 2074.51 6.08274 -0.532437 0
M  V30 22291 H 2075.92 5.11574 -2.58775 0
M  V30 22292 H 2074.32 4.96868 -3.36515 0
M  V30 22293 H 2075.39 3.55684 -3.29571 0
M  V30 22294 N 2076.73 0.957992 1.25141 0
M  V30 22295 C 2077.68 0.472054 2.2776 0
M  V30 22296 C 2078.67 -0.459404 1.63052 0
M  V30 22297 O 2079.88 -0.335763 1.76841 0
M  V30 22298 H 2076.25 0.134161 0.739936 0
M  V30 22299 H 2078.22 1.34973 2.6613 0
M  V30 22300 C 2076.97 -0.231515 3.46928 0
M  V30 22301 H 2076.3 0.476093 3.96955 0
M  V30 22302 H 2077.74 -0.535494 4.20605 0
M  V30 22303 C 2076.2 -1.45518 3.03852 0
M  V30 22304 O 2076.73 -2.55274 3.10159 0
M  V30 22305 N 2074.93 -1.31773 2.59006 0
M  V30 22306 H 2074.48 -0.424725 2.54074 0
M  V30 22307 H 2074.44 -2.13762 2.30549 0
M  V30 22308 N 2078.21 -1.39832 0.726957 0
M  V30 22309 C 2079.17 -2.29022 0.0903329 0
M  V30 22310 C 2080.17 -1.45921 -0.675553 0
M  V30 22311 O 2081.36 -1.66696 -0.505765 0
M  V30 22312 C 2078.49 -3.29304 -0.881584 0
M  V30 22313 H 2079.69 -2.86821 0.87601 0
M  V30 22314 H 2077.24 -1.48345 0.492294 0
M  V30 22315 H 2077.97 -2.76545 -1.69391 0
M  V30 22316 H 2077.76 -3.90665 -0.33514 0
M  V30 22317 H 2079.25 -3.96061 -1.32384 0
M  V30 22318 N 2079.69 -0.473982 -1.50304 0
M  V30 22319 C 2080.62 0.308532 -2.31453 0
M  V30 22320 C 2081.6 0.987678 -1.38488 0
M  V30 22321 O 2082.78 0.984294 -1.67408 0
M  V30 22322 C 2079.91 1.38921 -3.18305 0
M  V30 22323 C 2078.87 0.831509 -4.19845 0
M  V30 22324 C 2078.19 2.0107 -4.95454 0
M  V30 22325 C 2079.49 -0.159166 -5.22057 0
M  V30 22326 H 2081.19 -0.368757 -2.9712 0
M  V30 22327 H 2078.73 -0.178787 -1.42886 0
M  V30 22328 H 2080.69 1.94415 -3.73873 0
M  V30 22329 H 2079.41 2.09531 -2.50528 0
M  V30 22330 H 2078.07 0.298526 -3.65383 0
M  V30 22331 H 2077.72 2.70384 -4.24148 0
M  V30 22332 H 2077.42 1.64374 -5.64141 0
M  V30 22333 H 2078.94 2.57048 -5.53858 0
M  V30 22334 H 2080.35 0.306691 -5.72479 0
M  V30 22335 H 2078.75 -0.440549 -5.98481 0
M  V30 22336 H 2079.82 -1.08411 -4.72626 0
M  V30 22337 N 2081.16 1.56239 -0.206702 0
M  V30 22338 C 2082.39 2.02291 0.434267 0
M  V30 22339 C 2082.81 1.08672 1.54388 0
M  V30 22340 O 2082.16 0.0936387 1.8226 0
M  V30 22341 C 2082.22 3.47969 0.97978 0
M  V30 22342 O 2081.94 4.38016 -0.0855779 0
M  V30 22343 C 2083.44 4.09596 1.69548 0
M  V30 22344 H 2080.66 0.662272 0.107873 0
M  V30 22345 H 2083.2 2.02 -0.318809 0
M  V30 22346 H 2081.36 3.48923 1.68319 0
M  V30 22347 H 2081.77 5.2351 0.32218 0
M  V30 22348 H 2083.24 5.13343 2.02935 0
M  V30 22349 H 2083.72 3.53727 2.60334 0
M  V30 22350 H 2084.33 4.12448 1.03764 0
M  V30 22351 N 2082.64 -0.0668159 1.57458 0
M  V30 22352 C 2083.59 -1.07888 2.04031 0
M  V30 22353 C 2084.56 -1.38168 0.921889 0
M  V30 22354 O 2085.74 -1.49151 1.1899 0
M  V30 22355 C 2082.88 -2.38598 2.49329 0
M  V30 22356 C 2082 -2.14805 3.7481 0
M  V30 22357 C 2081.13 -3.39114 4.0887 0
M  V30 22358 C 2080.17 -3.10708 5.27377 0
M  V30 22359 N 2079.31 -4.27361 5.57052 0
M  V30 22360 H 2084.15 -0.674755 2.9026 0
M  V30 22361 H 2081.69 -0.321602 1.43541 0
M  V30 22362 H 2083.64 -3.14919 2.73646 0
M  V30 22363 H 2082.27 -2.76804 1.6607 0
M  V30 22364 H 2081.33 -1.29154 3.57804 0
M  V30 22365 H 2082.64 -1.89826 4.61267 0
M  V30 22366 H 2081.79 -4.23827 4.34114 0
M  V30 22367 H 2080.53 -3.67174 3.2099 0
M  V30 22368 H 2079.54 -2.24392 5.01925 0
M  V30 22369 H 2080.76 -2.83966 6.16879 0
M  V30 22370 H 2078.71 -4.55443 4.72131 0
M  V30 22371 H 2078.62 -4.05673 6.37938 0
M  V30 22372 H 2079.89 -5.13057 5.8685 0
M  V30 22373 N 2084.12 -1.53926 -0.338317 0
M  V30 22374 C 2085.4 -1.62057 -1.09531 0
M  V30 22375 C 2085.78 -0.445104 -2.06354 0
M  V30 22376 O 2085.13 0.56212 -2.21478 0
M  V30 22377 C 2085.34 -2.98376 -1.81033 0
M  V30 22378 C 2086.68 -3.53912 -2.34589 0
M  V30 22379 O 2087.71 -3.00584 -1.91122 0
M  V30 22380 O 2086.57 -4.472 -3.14125 0
M  V30 22381 H 2083.66 -0.655673 -0.504006 0
M  V30 22382 H 2086.21 -1.66272 -0.339391 0
M  V30 22383 H 2084.98 -3.75366 -1.10525 0
M  V30 22384 H 2084.6 -2.97774 -2.6347 0
M  V30 22385 N 2085.6 0.599608 -1.45748 0
M  V30 22386 C 2087.01 1.18163 -1.44549 0
M  V30 22387 C 2087.36 1.95397 -0.17732 0
M  V30 22388 O 2086.49 2.04048 0.720645 0
M  V30 22389 C 2087.08 2.14951 -2.6188 0
M  V30 22390 C 2085.64 2.68513 -2.63776 0
M  V30 22391 C 2084.79 1.44065 -2.3694 0
M  V30 22392 H 2087.74 0.388471 -1.53872 0
M  V30 22393 H 2087.76 2.98126 -2.36434 0
M  V30 22394 H 2087.27 1.58711 -3.54164 0
M  V30 22395 H 2085.37 3.28669 -1.7552 0
M  V30 22396 H 2085.49 3.12401 -3.63239 0
M  V30 22397 H 2083.85 1.73296 -1.86657 0
M  V30 22398 H 2084.63 0.896802 -3.31379 0
M  V30 22399 N 2087.08 1.33171 0.842803 0
M  V30 22400 C 2088.33 1.24159 1.59464 0
M  V30 22401 C 2088.65 -0.193595 1.94037 0
M  V30 22402 O 2087.92 -1.12135 1.60632 0
M  V30 22403 H 2086.5 0.456555 0.591241 0
M  V30 22404 H 2089.16 1.66842 1.00746 0
M  V30 22405 H 2088.25 1.83255 2.52634 0
M  V30 22406 N 2088.56 -1.06056 1.16576 0
M  V30 22407 C 2089.8 -1.78899 0.94875 0
M  V30 22408 C 2090.13 -1.87329 -0.523266 0
M  V30 22409 O 2089.39 -1.36291 -1.40439 0
M  V30 22410 C 2089.68 -3.23265 1.52429 0
M  V30 22411 C 2089.35 -3.34911 3.01904 0
M  V30 22412 C 2088.01 -3.37796 3.42706 0
M  V30 22413 C 2090.36 -3.36636 3.97902 0
M  V30 22414 C 2087.69 -3.40025 4.78121 0
M  V30 22415 C 2090.04 -3.40403 5.33206 0
M  V30 22416 C 2088.71 -3.41572 5.73485 0
M  V30 22417 H 2087.98 -0.654639 0.347172 0
M  V30 22418 H 2090.63 -1.24708 1.45328 0
M  V30 22419 H 2088.93 -3.80326 0.94126 0
M  V30 22420 H 2090.63 -3.7823 1.33204 0
M  V30 22421 H 2087.22 -3.33372 2.69372 0
M  V30 22422 H 2091.4 -3.33615 3.67443 0
M  V30 22423 H 2086.66 -3.39236 5.08654 0
M  V30 22424 H 2090.83 -3.40686 6.07377 0
M  V30 22425 H 2088.46 -3.43052 6.78395 0
M  V30 22426 N 2090.03 -0.964615 -1.24631 0
M  V30 22427 C 2091.28 -0.623582 -1.92239 0
M  V30 22428 C 2091.6 0.843493 -1.75813 0
M  V30 22429 O 2090.87 1.60179 -1.12781 0
M  V30 22430 H 2089.45 -0.227644 -0.711468 0
M  V30 22431 H 2092.11 -1.22502 -1.51589 0
M  V30 22432 H 2091.21 -0.861514 -2.99974 0
M  V30 22433 N 2091.51 1.39445 -0.734362 0
M  V30 22434 C 2092.74 2.04826 -0.29225 0
M  V30 22435 C 2093.15 1.55366 1.0727 0
M  V30 22436 O 2092.51 0.718282 1.67771 0
M  V30 22437 C 2092.56 3.6038 -0.2843 0
M  V30 22438 O 2092.28 4.08019 -1.59536 0
M  V30 22439 C 2093.78 4.42958 0.174058 0
M  V30 22440 H 2091 0.658705 -0.127861 0
M  V30 22441 H 2093.55 1.78504 -0.997833 0
M  V30 22442 H 2091.7 3.85606 0.372391 0
M  V30 22443 H 2092.12 5.02339 -1.50849 0
M  V30 22444 H 2093.59 5.5185 0.128462 0
M  V30 22445 H 2094.07 4.21941 1.21913 0
M  V30 22446 H 2094.67 4.2288 -0.453043 0
M  V30 22447 N 2092.99 0.481946 1.5005 0
M  V30 22448 C 2094.41 0.13674 1.59013 0
M  V30 22449 C 2094.61 -1.35753 1.48908 0
M  V30 22450 O 2093.66 -2.1318 1.35316 0
M  V30 22451 C 2094.97 0.696597 2.9252 0
M  V30 22452 C 2096.52 0.660993 3.05941 0
M  V30 22453 C 2097 1.19858 4.42038 0
M  V30 22454 N 2098.49 1.15846 4.4848 0
M  V30 22455 C 2099.22 1.54481 5.52199 0
M  V30 22456 N 2098.72 2.00617 6.63117 0
M  V30 22457 N 2100.51 1.46016 5.42804 0
M  V30 22458 H 2092.66 1.45367 1.54862 0
M  V30 22459 H 2094.93 0.601814 0.732478 0
M  V30 22460 H 2094.63 1.74381 3.05425 0
M  V30 22461 H 2094.51 0.146249 3.76916 0
M  V30 22462 H 2096.89 -0.377335 2.92678 0
M  V30 22463 H 2096.97 1.24827 2.23275 0
M  V30 22464 H 2096.62 2.2356 4.56052 0
M  V30 22465 H 2096.55 0.587419 5.23313 0
M  V30 22466 H 2099.04 0.820197 3.68892 0
M  V30 22467 H 2099.35 2.28217 7.38334 0
M  V30 22468 H 2097.7 2.04578 6.64209 0
M  V30 22469 H 2100.89 1.09805 4.55039 0
M  V30 22470 H 2101.06 1.7645 6.23514 0
M  V30 22471 N 2094.47 -1.56127 0.214985 0
M  V30 22472 C 2095.71 -2.0003 -0.420416 0
M  V30 22473 C 2096.07 -1.09933 -1.57413 0
M  V30 22474 O 2097.27 -1.43155 -2.27508 0
M  V30 22475 C 2095.54 -3.47142 -0.85011 0
M  V30 22476 S 2097.1 -4.13068 -1.48054 0
M  V30 22477 H 2093.92 -0.698317 -0.133693 0
M  V30 22478 H 2096.52 -1.92818 0.32273 0
M  V30 22479 H 2095.23 -4.104 -0.000663309 0
M  V30 22480 H 2094.76 -3.58214 -1.62623 0
M  V30 22481 H 2096.77 -4.11715 -2.76957 0
M  V30 22482 N 2095.95 0.0584645 -1.57492 0
M  V30 22483 C 2096.88 1.10026 -1.99924 0
M  V30 22484 C 2097.86 1.36832 -0.878387 0
M  V30 22485 O 2099.04 1.49983 -1.14181 0
M  V30 22486 C 2096.17 2.4417 -2.34731 0
M  V30 22487 C 2095.21 2.33413 -3.5696 0
M  V30 22488 S 2096.05 1.71551 -5.07278 0
M  V30 22489 C 2097.2 3.07245 -5.45299 0
M  V30 22490 H 2097.44 0.738715 -2.87976 0
M  V30 22491 H 2094.97 0.267463 -1.52066 0
M  V30 22492 H 2096.93 3.21327 -2.55458 0
M  V30 22493 H 2095.59 2.77481 -1.47183 0
M  V30 22494 H 2094.78 3.3237 -3.78875 0
M  V30 22495 H 2094.38 1.64394 -3.35932 0
M  V30 22496 H 2096.67 4.0357 -5.44185 0
M  V30 22497 H 2097.62 2.90096 -6.45949 0
M  V30 22498 H 2098.03 3.08464 -4.72768 0
M  V30 22499 N 2097.42 1.54103 0.330149 0
M  V30 22500 C 2098.33 1.86042 1.42918 0
M  V30 22501 C 2099.35 0.75174 1.56923 0
M  V30 22502 O 2100.53 1.04538 1.72145 0
M  V30 22503 C 2097.59 2.07533 2.77724 0
M  V30 22504 C 2096.65 3.31356 2.7295 0
M  V30 22505 C 2095.88 3.51812 4.01328 0
M  V30 22506 O 2096.11 2.75838 4.99269 0
M  V30 22507 O 2095.04 4.45275 4.04986 0
M  V30 22508 H 2098.87 2.79483 1.18839 0
M  V30 22509 H 2096.45 1.39925 0.523569 0
M  V30 22510 H 2098.33 2.23037 3.57537 0
M  V30 22511 H 2097.01 1.1728 3.01707 0
M  V30 22512 H 2095.92 3.21243 1.91712 0
M  V30 22513 H 2097.25 4.21645 2.53922 0
M  V30 22514 N 2098.9 -0.59187 1.46064 0
M  V30 22515 C 2100.15 -1.34773 1.50601 0
M  V30 22516 C 2100.47 -1.94379 0.155452 0
M  V30 22517 O 2099.74 -1.7805 -0.816999 0
M  V30 22518 H 2098.32 -0.50037 0.554652 0
M  V30 22519 H 2100.98 -0.69386 1.82131 0
M  V30 22520 H 2100.08 -2.15914 2.25361 0
M  V30 22521 N 2100.38 -1.33616 -0.835729 0
M  V30 22522 C 2101.33 -1.24117 -1.96717 0
M  V30 22523 C 2102.32 -0.141892 -1.68805 0
M  V30 22524 O 2103.53 -0.306054 -1.77379 0
M  V30 22525 H 2099.9 -0.385249 -0.645823 0
M  V30 22526 H 2101.87 -2.19767 -2.01854 0
M  V30 22527 C 2100.62 -1.00045 -3.32996 0
M  V30 22528 H 2099.95 -1.8386 -3.55015 0
M  V30 22529 H 2101.39 -0.974302 -4.12654 0
M  V30 22530 C 2099.85 0.296559 -3.35592 0
M  V30 22531 O 2100.38 1.30221 -3.80007 0
M  V30 22532 N 2098.58 0.325196 -2.88775 0
M  V30 22533 H 2098.13 -0.493733 -2.52824 0
M  V30 22534 H 2098.09 1.19281 -2.90894 0
M  V30 22535 N 2101.86 1.05436 -1.17136 0
M  V30 22536 C 2103.27 1.59854 -0.964558 0
M  V30 22537 C 2103.62 1.89999 0.489367 0
M  V30 22538 O 2102.75 1.67983 1.36421 0
M  V30 22539 C 2103.34 2.90432 -1.74455 0
M  V30 22540 C 2101.9 3.41518 -1.58249 0
M  V30 22541 C 2101.05 2.15286 -1.74777 0
M  V30 22542 H 2104 0.882787 -1.31881 0
M  V30 22543 H 2104.02 3.60225 -1.22548 0
M  V30 22544 H 2103.53 2.6846 -2.80269 0
M  V30 22545 H 2101.63 3.68531 -0.549129 0
M  V30 22546 H 2101.74 4.16267 -2.37188 0
M  V30 22547 H 2100.11 2.25927 -1.17596 0
M  V30 22548 H 2100.89 1.95787 -2.81997 0
M  V30 22549 N 2103.34 0.971211 1.24118 0
M  V30 22550 C 2104.59 0.630598 1.91589 0
M  V30 22551 C 2104.9 -0.838491 1.76716 0
M  V30 22552 O 2106.1 -1.28978 2.38908 0
M  V30 22553 C 2104.56 1.07723 3.434 0
M  V30 22554 C 2104.17 2.57002 3.66953 0
M  V30 22555 C 2105.91 0.809928 4.16702 0
M  V30 22556 C 2103.82 2.95379 5.12352 0
M  V30 22557 H 2102.75 0.232148 0.717373 0
M  V30 22558 H 2105.4 1.17789 1.40706 0
M  V30 22559 H 2103.78 0.458223 3.9334 0
M  V30 22560 H 2104.96 3.24062 3.27598 0
M  V30 22561 H 2103.27 2.8138 3.06944 0
M  V30 22562 H 2105.87 1.07262 5.23831 0
M  V30 22563 H 2106.21 -0.253899 4.15525 0
M  V30 22564 H 2106.74 1.39007 3.72722 0
M  V30 22565 H 2103.48 4.00847 5.18654 0
M  V30 22566 H 2103 2.33005 5.52692 0
M  V30 22567 H 2104.68 2.85478 5.80613 0
M  V30 22568 N 2104.81 -1.39054 0.741747 0
M  V30 22569 C 2106.23 -1.83161 0.361815 0
M  V30 22570 C 2106.58 -1.61934 -1.10778 0
M  V30 22571 O 2105.7 -1.11412 -1.85516 0
M  V30 22572 C 2106.3 -3.32508 0.649929 0
M  V30 22573 C 2104.86 -3.75008 0.323414 0
M  V30 22574 C 2104 -2.61973 0.909134 0
M  V30 22575 H 2106.95 -1.2795 0.938853 0
M  V30 22576 H 2106.97 -3.80424 -0.0759846 0
M  V30 22577 H 2106.49 -3.47925 1.71959 0
M  V30 22578 H 2104.59 -3.65175 -0.740136 0
M  V30 22579 H 2104.7 -4.72191 0.81069 0
M  V30 22580 H 2103.06 -2.52483 0.335302 0
M  V30 22581 H 2103.85 -2.80194 1.98358 0
M  V30 22582 N 2106.29 -0.489897 -1.49792 0
M  V30 22583 C 2107.57 0.121028 -1.95225 0
M  V30 22584 C 2107.95 1.55194 -1.43101 0
M  V30 22585 O 2107.3 2.19354 -0.639992 0
M  V30 22586 C 2107.51 0.045071 -3.48971 0
M  V30 22587 C 2108.86 0.224571 -4.24006 0
M  V30 22588 O 2109.88 0.120781 -3.55995 0
M  V30 22589 O 2108.74 0.436269 -5.44756 0
M  V30 22590 H 2105.83 0.101395 -0.820761 0
M  V30 22591 H 2108.38 -0.551643 -1.60484 0
M  V30 22592 H 2107.15 -0.953242 -3.79512 0
M  V30 22593 H 2106.77 0.758377 -3.903 0
M  V30 22594 N 2107.77 1.56011 -0.223262 0
M  V30 22595 C 2109 2.0274 0.412787 0
M  V30 22596 C 2109.41 1.10304 1.53227 0
M  V30 22597 O 2108.77 0.112965 1.8215 0
M  V30 22598 C 2108.82 3.48989 0.942818 0
M  V30 22599 O 2108.54 4.37901 -0.132031 0
M  V30 22600 C 2110.04 4.11371 1.65194 0
M  V30 22601 H 2107.26 0.663379 0.100842 0
M  V30 22602 H 2109.81 2.0165 -0.340215 0
M  V30 22603 H 2107.96 3.50689 1.64609 0
M  V30 22604 H 2108.38 5.23822 0.266637 0
M  V30 22605 H 2109.85 5.15467 1.97479 0
M  V30 22606 H 2110.33 3.56468 2.56568 0
M  V30 22607 H 2110.93 4.13525 0.993831 0
M  V30 22608 N 2109.25 -0.0501116 1.5752 0
M  V30 22609 C 2110.66 -0.599337 1.76819 0
M  V30 22610 C 2111.01 -1.76753 0.851625 0
M  V30 22611 O 2110.14 -2.16361 0.0411012 0
M  V30 22612 C 2110.73 -1.09402 3.2065 0
M  V30 22613 C 2109.29 -1.58893 3.41219 0
M  V30 22614 C 2108.44 -0.517719 2.72424 0
M  V30 22615 H 2111.39 0.176108 1.5772 0
M  V30 22616 H 2111.41 -1.96217 3.26005 0
M  V30 22617 H 2110.92 -0.243574 3.87335 0
M  V30 22618 H 2109.02 -2.46191 2.7968 0
M  V30 22619 H 2109.13 -1.65093 4.49757 0
M  V30 22620 H 2107.5 -0.967874 2.35594 0
M  V30 22621 H 2108.28 0.322904 3.41778 0
M  V30 22622 N 2110.73 -1.54276 -0.321972 0
M  V30 22623 C 2111.97 -1.74283 -1.06793 0
M  V30 22624 C 2112.33 -0.506664 -1.85194 0
M  V30 22625 O 2113.53 -0.584111 -2.62377 0
M  V30 22626 C 2111.8 -2.98413 -1.96684 0
M  V30 22627 S 2113.36 -3.3933 -2.7821 0
M  V30 22628 H 2110.18 -0.612827 -0.360505 0
M  V30 22629 H 2112.78 -1.92454 -0.343742 0
M  V30 22630 H 2111.49 -3.86529 -1.37925 0
M  V30 22631 H 2111.02 -2.82769 -2.73505 0
M  V30 22632 H 2113.03 -2.94754 -3.99167 0
M  V30 22633 N 2112.2 0.584116 -1.46376 0
M  V30 22634 C 2113.14 1.70778 -1.52865 0
M  V30 22635 C 2114.15 1.57366 -0.417122 0
M  V30 22636 O 2115.34 1.64816 -0.685411 0
M  V30 22637 C 2112.44 3.09015 -1.39151 0
M  V30 22638 C 2111.61 3.48443 -2.64397 0
M  V30 22639 C 2110.67 4.65735 -2.44903 0
M  V30 22640 O 2109.7 4.71667 -3.1862 0
M  V30 22641 N 2110.9 5.60523 -1.50978 0
M  V30 22642 H 2113.66 1.65666 -2.49749 0
M  V30 22643 H 2111.22 0.770058 -1.42414 0
M  V30 22644 H 2113.22 3.85272 -1.23884 0
M  V30 22645 H 2111.79 3.08502 -0.50453 0
M  V30 22646 H 2111.01 2.61906 -2.94616 0
M  V30 22647 H 2112.29 3.71552 -3.47601 0
M  V30 22648 H 2111.69 5.58465 -0.90186 0
M  V30 22649 H 2110.25 6.36217 -1.41674 0
M  V30 22650 N 2113.68 1.34058 0.828631 0
M  V30 22651 C 2114.65 1.25063 1.92073 0
M  V30 22652 C 2115.65 0.167192 1.59928 0
M  V30 22653 O 2116.84 0.419428 1.69075 0
M  V30 22654 C 2113.97 0.929519 3.27983 0
M  V30 22655 H 2115.16 2.22146 2.01472 0
M  V30 22656 H 2112.71 1.18263 1.02193 0
M  V30 22657 H 2113.45 -0.0383856 3.24277 0
M  V30 22658 H 2113.23 1.71313 3.52696 0
M  V30 22659 H 2114.72 0.891605 4.07971 0
M  V30 22660 N 2115.16 -1.04814 1.17694 0
M  V30 22661 C 2116.41 -1.77532 0.96576 0
M  V30 22662 C 2116.73 -1.88306 -0.506545 0
M  V30 22663 O 2116 -1.40259 -1.36763 0
M  V30 22664 H 2114.58 -0.657613 0.354336 0
M  V30 22665 H 2117.24 -1.26536 1.48239 0
M  V30 22666 H 2116.34 -2.79071 1.39735 0
M  V30 22667 N 2116.64 -0.977779 -1.23601 0
M  V30 22668 C 2117.55 -0.524039 -2.28672 0
M  V30 22669 C 2118.57 0.419894 -1.68858 0
M  V30 22670 O 2119.74 0.290458 -1.99295 0
M  V30 22671 C 2116.81 0.16886 -3.46289 0
M  V30 22672 C 2115.87 -0.81615 -4.21471 0
M  V30 22673 C 2115.1 -0.156223 -5.33471 0
M  V30 22674 O 2115.32 1.05329 -5.60591 0
M  V30 22675 O 2114.26 -0.853473 -5.95818 0
M  V30 22676 H 2118.08 -1.39778 -2.69622 0
M  V30 22677 H 2115.67 -0.745288 -1.29483 0
M  V30 22678 H 2117.55 0.557659 -4.17694 0
M  V30 22679 H 2116.23 1.0174 -3.07296 0
M  V30 22680 H 2115.13 -1.2556 -3.524 0
M  V30 22681 H 2116.47 -1.63342 -4.64306 0
M  V30 22682 N 2118.12 1.38658 -0.749111 0
M  V30 22683 C 2119.03 2.34291 -0.120373 0
M  V30 22684 C 2120.04 1.59043 0.705796 0
M  V30 22685 O 2121.22 1.9126 0.63099 0
M  V30 22686 C 2118.28 3.38141 0.765626 0
M  V30 22687 C 2117.35 4.29236 -0.0744037 0
M  V30 22688 C 2116.58 5.28125 0.769401 0
M  V30 22689 O 2116.8 5.33902 2.0076 0
M  V30 22690 O 2115.74 6.01598 0.190576 0
M  V30 22691 H 2119.56 2.89744 -0.910056 0
M  V30 22692 H 2117.15 1.40428 -0.509948 0
M  V30 22693 H 2119.03 4.0174 1.27214 0
M  V30 22694 H 2117.7 2.8505 1.53388 0
M  V30 22695 H 2116.61 3.68812 -0.626761 0
M  V30 22696 H 2117.94 4.85569 -0.805208 0
M  V30 22697 N 2119.6 0.497834 1.49531 0
M  V30 22698 C 2120.51 -0.286926 2.32839 0
M  V30 22699 C 2121.52 -0.970397 1.44427 0
M  V30 22700 O 2122.7 -0.952478 1.77454 0
M  V30 22701 C 2119.76 -1.33928 3.19788 0
M  V30 22702 C 2118.82 -0.669588 4.24046 0
M  V30 22703 C 2118.06 -1.67181 5.0684 0
M  V30 22704 O 2118.28 -2.90132 4.91101 0
M  V30 22705 O 2117.21 -1.22887 5.89222 0
M  V30 22706 H 2121.04 0.394869 3.01122 0
M  V30 22707 H 2118.62 0.259218 1.47134 0
M  V30 22708 H 2120.51 -1.94822 3.73661 0
M  V30 22709 H 2119.18 -2.00407 2.54202 0
M  V30 22710 H 2118.09 -0.0209922 3.74094 0
M  V30 22711 H 2119.42 -0.0473067 4.92177 0
M  V30 22712 N 2121.07 -1.5589 0.231532 0
M  V30 22713 C 2122.32 -1.99602 -0.391237 0
M  V30 22714 C 2122.67 -1.11672 -1.56675 0
M  V30 22715 O 2121.97 -0.168851 -1.90855 0
M  V30 22716 C 2122.16 -3.46766 -0.865354 0
M  V30 22717 C 2121.99 -4.48932 0.262677 0
M  V30 22718 C 2120.76 -4.99965 0.732345 0
M  V30 22719 C 2122.96 -5.02738 1.0844 0
M  V30 22720 N 2120.94 -5.85853 1.83439 0
M  V30 22721 C 2122.31 -5.85647 2.03512 0
M  V30 22722 C 2124.37 -4.85077 1.12271 0
M  V30 22723 C 2123.07 -6.52782 3.02106 0
M  V30 22724 C 2125.1 -5.52978 2.09688 0
M  V30 22725 C 2124.46 -6.35664 3.03497 0
M  V30 22726 H 2120.56 -0.774288 -0.109553 0
M  V30 22727 H 2123.14 -1.91608 0.345591 0
M  V30 22728 H 2121.31 -3.55187 -1.57152 0
M  V30 22729 H 2123.04 -3.77378 -1.46178 0
M  V30 22730 H 2119.8 -4.72523 0.319177 0
M  V30 22731 H 2120.22 -6.33496 2.38772 0
M  V30 22732 H 2124.86 -4.20794 0.411345 0
M  V30 22733 H 2122.58 -7.16241 3.74199 0
M  V30 22734 H 2126.17 -5.41274 2.13338 0
M  V30 22735 H 2125.05 -6.87279 3.77647 0
M  V30 22736 N 2122.55 0.0417572 -1.57545 0
M  V30 22737 C 2123.78 0.747215 -1.92936 0
M  V30 22738 C 2124.19 1.69567 -0.830209 0
M  V30 22739 O 2123.55 1.81462 0.194363 0
M  V30 22740 C 2123.6 1.51519 -3.28214 0
M  V30 22741 O 2123.32 0.604825 -4.33905 0
M  V30 22742 C 2124.82 2.31896 -3.77809 0
M  V30 22743 H 2122.04 0.210755 -0.637043 0
M  V30 22744 H 2124.59 0.00306497 -2.045 0
M  V30 22745 H 2122.74 2.21134 -3.18086 0
M  V30 22746 H 2123.16 1.14205 -5.11916 0
M  V30 22747 H 2124.63 2.81194 -4.75009 0
M  V30 22748 H 2125.11 3.12759 -3.08348 0
M  V30 22749 H 2125.71 1.6738 -3.90978 0
M  V30 22750 N 2124.03 1.54445 0.313786 0
M  V30 22751 C 2125.26 1.77093 1.06985 0
M  V30 22752 C 2125.67 0.524216 1.81376 0
M  V30 22753 O 2125.03 -0.505482 1.7536 0
M  V30 22754 C 2125.08 2.97038 2.06036 0
M  V30 22755 O 2124.8 4.1689 1.34665 0
M  V30 22756 C 2126.3 3.31974 2.93783 0
M  V30 22757 H 2123.52 0.590955 0.317826 0
M  V30 22758 H 2126.07 2.01361 0.356942 0
M  V30 22759 H 2124.22 2.75015 2.72847 0
M  V30 22760 H 2124.64 4.84425 2.01078 0
M  V30 22761 H 2126.11 4.19176 3.5916 0
M  V30 22762 H 2126.59 2.49567 3.61404 0
M  V30 22763 H 2127.19 3.5611 2.3252 0
M  V30 22764 N 2125.51 -0.576345 1.46683 0
M  V30 22765 C 2126.47 -1.66698 1.57303 0
M  V30 22766 C 2127.47 -1.54385 0.449647 0
M  V30 22767 O 2128.66 -1.58888 0.71415 0
M  V30 22768 C 2125.79 -3.06156 1.49938 0
M  V30 22769 H 2126.99 -1.58638 2.54507 0
M  V30 22770 H 2124.54 -0.79471 1.34588 0
M  V30 22771 H 2125.27 -3.19766 0.540379 0
M  V30 22772 H 2125.06 -3.16502 2.3145 0
M  V30 22773 H 2126.55 -3.85538 1.60469 0
M  V30 22774 N 2126.99 -1.34495 -0.82151 0
M  V30 22775 C 2128.4 -1.24152 -1.39439 0
M  V30 22776 C 2128.75 0.1324 -1.95753 0
M  V30 22777 O 2127.87 1.03279 -1.90164 0
M  V30 22778 C 2128.47 -2.24789 -2.53487 0
M  V30 22779 C 2127.03 -2.18232 -3.06679 0
M  V30 22780 C 2126.17 -2.11315 -1.79558 0
M  V30 22781 H 2129.12 -1.45841 -0.625789 0
M  V30 22782 H 2129.15 -1.8657 -3.3162 0
M  V30 22783 H 2128.66 -3.24774 -2.1247 0
M  V30 22784 H 2126.76 -1.21608 -3.52196 0
M  V30 22785 H 2126.87 -3.09548 -3.65673 0
M  V30 22786 H 2125.24 -1.57058 -2.00512 0
M  V30 22787 H 2126.02 -3.13136 -1.40714 0
M  V30 22788 N 2128.46 1.04188 -1.18248 0
M  V30 22789 C 2129.71 1.7763 -0.978539 0
M  V30 22790 C 2130.04 1.87897 0.490757 0
M  V30 22791 O 2129.32 1.38617 1.36439 0
M  V30 22792 C 2129.6 3.20968 -1.63252 0
M  V30 22793 C 2129.45 3.18653 -3.1746 0
M  V30 22794 C 2130.77 4.19052 -1.34475 0
M  V30 22795 H 2127.89 0.644817 -0.356903 0
M  V30 22796 H 2130.53 1.21713 -1.45897 0
M  V30 22797 H 2128.68 3.68714 -1.22402 0
M  V30 22798 H 2130.36 2.78906 -3.67436 0
M  V30 22799 H 2128.6 2.56717 -3.49684 0
M  V30 22800 H 2129.27 4.19864 -3.58354 0
M  V30 22801 H 2131.75 3.79848 -1.69868 0
M  V30 22802 H 2130.62 5.17565 -1.82804 0
M  V30 22803 H 2130.88 4.41291 -0.267408 0
M  V30 22804 N 2129.94 0.98432 1.23081 0
M  V30 22805 C 2131.35 0.691779 1.73411 0
M  V30 22806 C 2131.7 -0.791814 1.79513 0
M  V30 22807 O 2130.83 -1.61921 1.43563 0
M  V30 22808 C 2131.42 1.24906 3.14935 0
M  V30 22809 C 2129.98 1.00608 3.62705 0
M  V30 22810 C 2129.13 1.37443 2.40842 0
M  V30 22811 H 2132.08 1.1577 1.08549 0
M  V30 22812 H 2132.1 0.623401 3.75358 0
M  V30 22813 H 2131.61 2.32884 3.10462 0
M  V30 22814 H 2129.72 -0.0574556 3.72556 0
M  V30 22815 H 2129.83 1.66341 4.49296 0
M  V30 22816 H 2128.19 0.792926 2.42043 0
M  V30 22817 H 2128.98 2.46407 2.39037 0
M  V30 22818 N 2131.42 -1.38259 0.756453 0
M  V30 22819 C 2132.35 -2.2902 0.0908208 0
M  V30 22820 C 2133.37 -1.47887 -0.680684 0
M  V30 22821 O 2134.55 -1.70718 -0.521301 0
M  V30 22822 C 2131.65 -3.26859 -0.895342 0
M  V30 22823 C 2130.83 -4.37026 -0.180877 0
M  V30 22824 C 2129.89 -5.15035 -1.0782 0
M  V30 22825 O 2128.91 -5.66559 -0.547658 0
M  V30 22826 N 2130.11 -5.28291 -2.40602 0
M  V30 22827 H 2132.88 -2.86785 0.870302 0
M  V30 22828 H 2130.44 -1.50071 0.607483 0
M  V30 22829 H 2132.43 -3.75926 -1.49873 0
M  V30 22830 H 2131 -2.69972 -1.57588 0
M  V30 22831 H 2130.22 -3.89557 0.603252 0
M  V30 22832 H 2131.51 -5.07834 0.313403 0
M  V30 22833 H 2130.91 -4.87986 -2.86158 0
M  V30 22834 H 2129.47 -5.80721 -2.95984 0
M  V30 22835 N 2132.9 -0.505757 -1.49264 0
M  V30 22836 C 2134.13 0.0337401 -2.06872 0
M  V30 22837 C 2134.54 1.30384 -1.36548 0
M  V30 22838 O 2133.9 1.76984 -0.4453 0
M  V30 22839 C 2133.95 0.286399 -3.60364 0
M  V30 22840 O 2133.67 -0.933356 -4.28042 0
M  V30 22841 C 2135.17 0.869003 -4.34699 0
M  V30 22842 H 2132.39 -0.022603 -0.670619 0
M  V30 22843 H 2134.94 -0.704475 -1.91983 0
M  V30 22844 H 2133.09 0.974605 -3.7494 0
M  V30 22845 H 2133.5 -0.699127 -5.1982 0
M  V30 22846 H 2134.98 0.995347 -5.42952 0
M  V30 22847 H 2135.46 1.86798 -3.97496 0
M  V30 22848 H 2136.06 0.218118 -4.2474 0
M  V30 22849 N 2134.38 1.55765 -0.239796 0
M  V30 22850 C 2135.63 1.97945 0.387367 0
M  V30 22851 C 2135.94 1.131 1.59586 0
M  V30 22852 O 2137.14 1.45261 2.29372 0
M  V30 22853 C 2135.6 3.52198 0.740571 0
M  V30 22854 C 2135.21 4.45773 -0.446131 0
M  V30 22855 C 2136.95 4.0305 1.33232 0
M  V30 22856 C 2134.86 5.91359 -0.0694771 0
M  V30 22857 H 2133.79 0.739231 0.148505 0
M  V30 22858 H 2136.44 1.80343 -0.338891 0
M  V30 22859 H 2134.82 3.65468 1.52476 0
M  V30 22860 H 2136 4.44259 -1.22354 0
M  V30 22861 H 2134.31 4.05364 -0.952332 0
M  V30 22862 H 2136.91 5.09335 1.62734 0
M  V30 22863 H 2137.25 3.49977 2.25437 0
M  V30 22864 H 2137.78 3.93077 0.611183 0
M  V30 22865 H 2134.52 6.48455 -0.958485 0
M  V30 22866 H 2134.04 5.96025 0.671873 0
M  V30 22867 H 2135.72 6.46048 0.350837 0
M  V30 22868 N 2135.85 -0.0334016 1.57565 0
M  V30 22869 C 2136.79 -1.06832 2.01649 0
M  V30 22870 C 2137.77 -1.35418 0.900045 0
M  V30 22871 O 2138.95 -1.48147 1.16553 0
M  V30 22872 C 2136.08 -2.40405 2.38586 0
M  V30 22873 C 2135.12 -2.27704 3.60629 0
M  V30 22874 S 2135.96 -1.63459 5.09943 0
M  V30 22875 C 2137.11 -2.98531 5.50118 0
M  V30 22876 H 2137.34 -0.692807 2.89115 0
M  V30 22877 H 2134.88 -0.243236 1.52472 0
M  V30 22878 H 2136.84 -3.17222 2.60538 0
M  V30 22879 H 2135.5 -2.75105 1.51579 0
M  V30 22880 H 2134.69 -3.263 3.84115 0
M  V30 22881 H 2134.29 -1.59029 3.38505 0
M  V30 22882 H 2136.58 -3.94861 5.50537 0
M  V30 22883 H 2137.53 -2.79783 6.50482 0
M  V30 22884 H 2137.93 -3.00904 4.77616 0
M  V30 22885 N 2137.33 -1.54609 -0.305591 0
M  V30 22886 C 2138.61 -1.64344 -1.06068 0
M  V30 22887 C 2138.99 -0.488774 -2.05364 0
M  V30 22888 O 2138.34 0.515015 -2.2262 0
M  V30 22889 C 2138.55 -3.02149 -1.74663 0
M  V30 22890 C 2139.9 -3.58808 -2.27029 0
M  V30 22891 O 2140.92 -3.04571 -1.84703 0
M  V30 22892 O 2139.78 -4.53762 -3.04568 0
M  V30 22893 H 2136.87 -0.666216 -0.489984 0
M  V30 22894 H 2139.42 -1.66954 -0.304046 0
M  V30 22895 H 2138.19 -3.77626 -1.02538 0
M  V30 22896 H 2137.81 -3.03296 -2.57094 0
M  V30 22897 N 2138.81 0.568558 -1.46987 0
M  V30 22898 C 2139.74 1.68651 -1.61491 0
M  V30 22899 C 2140.72 1.63629 -0.464706 0
M  V30 22900 O 2141.91 1.81427 -0.692676 0
M  V30 22901 C 2139.04 3.07294 -1.61826 0
M  V30 22902 C 2137.99 3.27156 -2.75959 0
M  V30 22903 C 2137.32 4.6647 -2.61361 0
M  V30 22904 C 2138.62 3.13623 -4.17658 0
M  V30 22905 H 2140.31 1.56769 -2.55076 0
M  V30 22906 H 2137.86 0.752771 -1.22757 0
M  V30 22907 H 2139.81 3.85338 -1.70565 0
M  V30 22908 H 2138.53 3.20108 -0.647937 0
M  V30 22909 H 2137.19 2.51516 -2.66712 0
M  V30 22910 H 2136.84 4.76069 -1.62381 0
M  V30 22911 H 2136.54 4.8071 -3.37923 0
M  V30 22912 H 2138.06 5.46664 -2.72012 0
M  V30 22913 H 2139.48 3.81497 -4.27941 0
M  V30 22914 H 2137.88 3.39378 -4.94917 0
M  V30 22915 H 2138.95 2.10514 -4.3682 0
M  V30 22916 N 2140.29 1.34929 0.814366 0
M  V30 22917 C 2141.54 1.27766 1.57105 0
M  V30 22918 C 2141.86 -0.150063 1.9392 0
M  V30 22919 O 2141.12 -1.11344 1.60938 0
M  V30 22920 C 2141.42 2.12223 2.87569 0
M  V30 22921 C 2141.08 3.61119 2.70008 0
M  V30 22922 C 2139.75 4.01706 2.64926 0
M  V30 22923 C 2142.1 4.55629 2.53084 0
M  V30 22924 C 2139.43 5.34983 2.40853 0
M  V30 22925 C 2141.78 5.89095 2.30542 0
M  V30 22926 C 2140.44 6.28836 2.23877 0
M  V30 22927 H 2139.71 0.46753 0.574889 0
M  V30 22928 H 2142.36 1.66753 0.941581 0
M  V30 22929 H 2140.66 1.66092 3.54853 0
M  V30 22930 H 2142.36 2.04022 3.45219 0
M  V30 22931 H 2138.95 3.28906 2.74807 0
M  V30 22932 H 2143.13 4.25163 2.56028 0
M  V30 22933 H 2138.39 5.64783 2.34158 0
M  V30 22934 H 2142.56 6.61913 2.16436 0
M  V30 22935 H 2140.19 7.32042 2.04986 0
M  V30 22936 N 2141.77 -1.0356 1.18799 0
M  V30 22937 C 2142.7 -2.11742 0.877379 0
M  V30 22938 C 2143.71 -1.62303 -0.127137 0
M  V30 22939 O 2144.9 -1.78212 0.10138 0
M  V30 22940 C 2142 -3.37653 0.290508 0
M  V30 22941 C 2141.17 -4.16306 1.34193 0
M  V30 22942 C 2140.23 -5.20538 0.769826 0
M  V30 22943 O 2139.26 -5.50531 1.44584 0
M  V30 22944 N 2140.46 -5.78904 -0.430185 0
M  V30 22945 H 2143.23 -2.3898 1.80855 0
M  V30 22946 H 2140.79 -1.19795 1.08907 0
M  V30 22947 H 2142.78 -4.04561 -0.105914 0
M  V30 22948 H 2141.35 -3.07816 -0.544797 0
M  V30 22949 H 2140.57 -3.44645 1.91347 0
M  V30 22950 H 2141.86 -4.65647 2.05062 0
M  V30 22951 H 2141.25 -5.56844 -0.997037 0
M  V30 22952 H 2139.81 -6.47254 -0.768466 0
M  V30 22953 N 2143.25 -0.990834 -1.22557 0
M  V30 22954 C 2144.19 -0.532274 -2.26428 0
M  V30 22955 C 2145.19 0.416012 -1.64212 0
M  V30 22956 O 2146.39 0.288758 -1.77669 0
M  V30 22957 H 2142.77 -0.153732 -0.736118 0
M  V30 22958 H 2144.74 -1.41981 -2.62457 0
M  V30 22959 C 2143.49 0.139451 -3.4742 0
M  V30 22960 H 2142.81 -0.581172 -3.95553 0
M  V30 22961 H 2144.25 0.42379 -4.21877 0
M  V30 22962 C 2142.71 1.37411 -3.07604 0
M  V30 22963 O 2143.24 2.4696 -3.16818 0
M  V30 22964 N 2141.45 1.2486 -2.62409 0
M  V30 22965 H 2140.99 0.357212 -2.55111 0
M  V30 22966 H 2140.95 2.07575 -2.36136 0
M  V30 22967 N 2144.72 1.37856 -0.763775 0
M  V30 22968 C 2145.97 1.99488 -0.323855 0
M  V30 22969 C 2146.29 1.60934 1.10115 0
M  V30 22970 O 2145.56 0.870985 1.75473 0
M  V30 22971 H 2144.14 0.73782 -0.116753 0
M  V30 22972 H 2146.8 1.68462 -0.980132 0
M  V30 22973 H 2145.9 3.09589 -0.395113 0
M  V30 22974 N 2146.2 0.513665 1.48994 0
M  V30 22975 C 2147.15 -0.271533 2.3101 0
M  V30 22976 C 2148.14 -0.950911 1.40193 0
M  V30 22977 O 2149.35 -0.877155 1.57181 0
M  V30 22978 H 2145.72 -0.106429 0.744431 0
M  V30 22979 H 2147.7 0.440007 2.95138 0
M  V30 22980 C 2146.44 -1.3155 3.21854 0
M  V30 22981 H 2145.77 -0.802134 3.91671 0
M  V30 22982 H 2147.21 -1.83663 3.82157 0
M  V30 22983 C 2145.67 -2.34045 2.42332 0
M  V30 22984 O 2146.2 -3.40173 2.13647 0
M  V30 22985 N 2144.4 -2.06838 2.04123 0
M  V30 22986 H 2143.95 -1.20552 2.27651 0
M  V30 22987 H 2143.91 -2.75641 1.51225 0
M  V30 22988 N 2147.68 -1.55636 0.248053 0
M  V30 22989 C 2148.93 -2.00006 -0.370045 0
M  V30 22990 C 2149.28 -1.13328 -1.55482 0
M  V30 22991 O 2148.57 -0.189084 -1.90665 0
M  V30 22992 C 2148.77 -3.47664 -0.828526 0
M  V30 22993 C 2148.6 -4.48628 0.310278 0
M  V30 22994 C 2147.37 -4.9916 0.785331 0
M  V30 22995 C 2149.56 -5.01559 1.13767 0
M  V30 22996 N 2147.55 -5.83874 1.89643 0
M  V30 22997 C 2148.92 -5.83456 2.09712 0
M  V30 22998 C 2150.97 -4.83859 1.1741 0
M  V30 22999 C 2149.68 -6.49541 3.09012 0
M  V30 23000 C 2151.7 -5.50723 2.15541 0
M  V30 23001 C 2151.06 -6.32409 3.10222 0
M  V30 23002 H 2147.16 -0.775407 -0.101334 0
M  V30 23003 H 2149.75 -1.91231 0.365895 0
M  V30 23004 H 2147.92 -3.56834 -1.53375 0
M  V30 23005 H 2149.65 -3.78907 -1.42167 0
M  V30 23006 H 2146.4 -4.72158 0.369276 0
M  V30 23007 H 2146.83 -6.30928 2.45477 0
M  V30 23008 H 2151.47 -4.20334 0.455953 0
M  V30 23009 H 2149.19 -7.12231 3.81775 0
M  V30 23010 H 2152.77 -5.38981 2.19067 0
M  V30 23011 H 2151.65 -6.83235 3.84915 0
M  V30 23012 N 2149.16 0.0250451 -1.5758 0
M  V30 23013 C 2150.39 0.72671 -1.93718 0
M  V30 23014 C 2150.8 1.68677 -0.848148 0
M  V30 23015 O 2150.16 1.81658 0.175105 0
M  V30 23016 C 2150.21 1.4803 -3.29802 0
M  V30 23017 O 2149.93 0.55877 -4.34522 0
M  V30 23018 C 2151.43 2.27876 -3.80247 0
M  V30 23019 H 2148.65 0.203986 -0.639242 0
M  V30 23020 H 2151.19 -0.0186251 -2.04492 0
M  V30 23021 H 2149.35 2.17748 -3.20413 0
M  V30 23022 H 2149.76 1.08769 -5.13098 0
M  V30 23023 H 2151.24 2.7614 -4.77965 0
M  V30 23024 H 2151.71 3.09471 -3.11648 0
M  V30 23025 H 2152.32 1.63224 -3.92731 0
M  V30 23026 N 2150.64 1.54769 0.297388 0
M  V30 23027 C 2151.57 1.80857 1.39161 0
M  V30 23028 C 2152.55 0.659989 1.48603 0
M  V30 23029 O 2153.73 0.900341 1.65608 0
M  V30 23030 C 2150.86 1.94851 2.77039 0
M  V30 23031 C 2149.9 3.17294 2.85003 0
M  V30 23032 S 2150.74 4.75273 2.4673 0
M  V30 23033 C 2151.89 4.92208 3.86629 0
M  V30 23034 H 2152.13 2.73385 1.16824 0
M  V30 23035 H 2149.66 1.46227 0.495698 0
M  V30 23036 H 2151.62 2.03599 3.56452 0
M  V30 23037 H 2150.28 1.03255 2.96643 0
M  V30 23038 H 2149.47 3.23899 3.86142 0
M  V30 23039 H 2149.07 3.07011 2.13589 0
M  V30 23040 H 2151.36 4.76453 4.81663 0
M  V30 23041 H 2152.31 5.94295 3.84992 0
M  V30 23042 H 2152.72 4.20336 3.76799 0
M  V30 23043 N 2152.11 -0.560755 1.47286 0
M  V30 23044 C 2153.05 -1.68324 1.55562 0
M  V30 23045 C 2154.06 -1.56682 0.442105 0
M  V30 23046 O 2155.25 -1.63705 0.711545 0
M  V30 23047 C 2152.35 -3.06762 1.44049 0
M  V30 23048 C 2151.52 -3.44193 2.69907 0
M  V30 23049 C 2150.58 -4.6178 2.52281 0
M  V30 23050 O 2149.61 -4.66538 3.26084 0
M  V30 23051 N 2150.81 -5.5805 1.59876 0
M  V30 23052 H 2153.57 -1.61672 2.52353 0
M  V30 23053 H 2151.13 -0.747304 1.43621 0
M  V30 23054 H 2153.13 -3.83253 1.29997 0
M  V30 23055 H 2151.7 -3.0766 0.553546 0
M  V30 23056 H 2150.92 -2.57186 2.98746 0
M  V30 23057 H 2152.2 -3.65975 3.53468 0
M  V30 23058 H 2151.6 -5.56959 0.990593 0
M  V30 23059 H 2150.16 -6.33882 1.51778 0
M  V30 23060 N 2153.59 -1.35359 -0.807199 0
M  V30 23061 C 2154.54 -1.28262 -1.9404 0
M  V30 23062 C 2155.53 -0.177666 -1.68466 0
M  V30 23063 O 2156.74 -0.34361 -1.7669 0
M  V30 23064 H 2153.11 -0.398861 -0.637506 0
M  V30 23065 H 2155.09 -2.23999 -1.97147 0
M  V30 23066 C 2153.83 -1.07086 -3.30799 0
M  V30 23067 H 2153.16 -1.91349 -3.51035 0
M  V30 23068 H 2154.6 -1.06161 -4.10495 0
M  V30 23069 C 2153.06 0.225309 -3.36146 0
M  V30 23070 O 2153.59 1.22131 -3.82684 0
M  V30 23071 N 2151.79 0.26387 -2.894 0
M  V30 23072 H 2151.34 -0.54725 -2.5172 0
M  V30 23073 H 2151.3 1.13084 -2.93359 0
M  V30 23074 N 2155.07 1.02928 -1.19346 0
M  V30 23075 C 2156.48 1.57772 -0.998248 0
M  V30 23076 C 2156.83 1.90994 0.448955 0
M  V30 23077 O 2155.96 1.70839 1.32827 0
M  V30 23078 C 2156.55 2.86666 -1.80577 0
M  V30 23079 C 2155.11 3.38084 -1.65457 0
M  V30 23080 C 2154.26 2.11531 -1.79304 0
M  V30 23081 H 2157.21 0.854614 -1.33724 0
M  V30 23082 H 2157.23 3.57545 -1.30161 0
M  V30 23083 H 2156.74 2.62455 -2.85901 0
M  V30 23084 H 2154.84 3.67284 -0.627176 0
M  V30 23085 H 2154.96 4.11143 -2.45965 0
M  V30 23086 H 2153.32 2.23382 -1.22362 0
M  V30 23087 H 2154.1 1.89761 -2.86087 0
M  V30 23088 N 2156.55 0.997319 1.2203 0
M  V30 23089 C 2157.77 0.69397 1.95445 0
M  V30 23090 C 2158.2 -0.735638 1.73118 0
M  V30 23091 O 2157.56 -1.50348 1.01317 0
M  V30 23092 C 2157.6 1.01104 3.46136 0
M  V30 23093 O 2156.71 0.1121 4.12248 0
M  V30 23094 H 2156.05 0.259299 0.611277 0
M  V30 23095 H 2158.58 1.33549 1.55003 0
M  V30 23096 H 2158.59 0.954704 3.96673 0
M  V30 23097 H 2157.26 2.05274 3.61712 0
M  V30 23098 H 2155.84 0.224297 3.72225 0
M  V30 23099 N 2158.03 -1.37449 0.771075 0
M  V30 23100 C 2159.44 -1.82352 0.400585 0
M  V30 23101 C 2159.79 -1.64247 -1.07318 0
M  V30 23102 O 2158.91 -1.15322 -1.83111 0
M  V30 23103 C 2159.51 -3.31054 0.720312 0
M  V30 23104 C 2158.07 -3.74238 0.402886 0
M  V30 23105 C 2157.21 -2.59986 0.964497 0
M  V30 23106 H 2160.17 -1.2593 0.965782 0
M  V30 23107 H 2160.19 -3.805 0.00472604 0
M  V30 23108 H 2159.7 -3.44199 1.793 0
M  V30 23109 H 2157.8 -3.66663 -0.662511 0
M  V30 23110 H 2157.91 -4.70365 0.910666 0
M  V30 23111 H 2156.28 -2.51715 0.388782 0
M  V30 23112 H 2157.06 -2.75924 2.04257 0
M  V30 23113 N 2159.5 -0.52156 -1.4872 0
M  V30 23114 C 2160.47 0.234979 -2.27992 0
M  V30 23115 C 2161.47 0.875433 -1.34881 0
M  V30 23116 O 2162.66 0.736784 -1.57852 0
M  V30 23117 C 2159.79 1.33914 -3.13496 0
M  V30 23118 H 2160.98 -0.460907 -2.96337 0
M  V30 23119 H 2158.54 -0.277206 -1.53822 0
M  V30 23120 H 2159.27 2.06854 -2.49763 0
M  V30 23121 H 2159.06 0.885123 -3.81979 0
M  V30 23122 H 2160.55 1.8715 -3.73316 0
M  V30 23123 N 2160.98 1.55502 -0.256304 0
M  V30 23124 C 2162.22 2.01074 0.367234 0
M  V30 23125 C 2162.59 1.14068 1.54443 0
M  V30 23126 O 2163.79 1.49137 2.23633 0
M  V30 23127 C 2162.06 3.49274 0.757773 0
M  V30 23128 S 2163.62 4.16848 1.37051 0
M  V30 23129 H 2160.44 0.701616 0.115132 0
M  V30 23130 H 2163.04 1.91894 -0.373739 0
M  V30 23131 H 2161.74 4.10257 -0.108147 0
M  V30 23132 H 2161.27 3.624 1.53069 0
M  V30 23133 H 2163.29 4.18913 2.65944 0
M  V30 23134 N 2162.46 -0.0166879 1.57591 0
M  V30 23135 C 2163.39 -1.04126 2.04182 0
M  V30 23136 C 2164.41 -1.31719 0.956768 0
M  V30 23137 O 2165.59 -1.28988 1.23387 0
M  V30 23138 C 2162.69 -2.38001 2.41265 0
M  V30 23139 C 2161.87 -2.29588 3.72301 0
M  V30 23140 C 2160.93 -3.46013 3.96436 0
M  V30 23141 O 2159.95 -3.2495 4.67328 0
M  V30 23142 N 2161.15 -4.68304 3.43033 0
M  V30 23143 H 2163.92 -0.644054 2.92698 0
M  V30 23144 H 2161.48 -0.204401 1.60605 0
M  V30 23145 H 2163.47 -3.14631 2.54538 0
M  V30 23146 H 2162.04 -2.69522 1.58355 0
M  V30 23147 H 2161.26 -1.37977 3.69264 0
M  V30 23148 H 2162.55 -2.21122 4.58238 0
M  V30 23149 H 2161.95 -4.88316 2.85593 0
M  V30 23150 H 2160.51 -5.42256 3.61665 0
M  V30 23151 N 2163.94 -1.54924 -0.289176 0
M  V30 23152 C 2165.18 -1.76509 -1.03072 0
M  V30 23153 C 2165.54 -0.545833 -1.84078 0
M  V30 23154 O 2166.74 -0.639633 -2.61079 0
M  V30 23155 C 2165.01 -3.02518 -1.9031 0
M  V30 23156 S 2166.57 -3.45155 -2.70949 0
M  V30 23157 H 2163.39 -0.620336 -0.347424 0
M  V30 23158 H 2165.99 -1.9314 -0.302842 0
M  V30 23159 H 2164.7 -3.89368 -1.29695 0
M  V30 23160 H 2164.23 -2.88507 -2.67446 0
M  V30 23161 H 2166.24 -3.03155 -3.92825 0
M  V30 23162 N 2165.42 0.552936 -1.47582 0
M  V30 23163 C 2166.64 1.34003 -1.58297 0
M  V30 23164 C 2167.07 1.86625 -0.23511 0
M  V30 23165 O 2166.42 1.63197 0.789702 0
M  V30 23166 C 2166.47 2.48288 -2.61506 0
M  V30 23167 O 2165.58 3.50647 -2.17073 0
M  V30 23168 H 2164.92 0.397855 -0.531608 0
M  V30 23169 H 2167.45 0.667783 -1.93395 0
M  V30 23170 H 2167.46 2.94798 -2.8206 0
M  V30 23171 H 2166.13 2.09345 -3.59371 0
M  V30 23172 H 2164.71 3.10413 -2.06636 0
M  V30 23173 N 2166.89 1.35785 0.800009 0
M  V30 23174 C 2168.12 1.32717 1.59377 0
M  V30 23175 C 2168.54 -0.0914251 1.87878 0
M  V30 23176 O 2167.9 -1.06023 1.47068 0
M  V30 23177 C 2167.95 2.14589 2.898 0
M  V30 23178 O 2167.05 1.53112 3.82924 0
M  V30 23179 H 2166.4 0.45473 0.483856 0
M  V30 23180 H 2168.93 1.7892 0.992412 0
M  V30 23181 H 2168.94 2.26784 3.39165 0
M  V30 23182 H 2167.61 3.17717 2.68382 0
M  V30 23183 H 2166.19 1.49795 3.41491 0
M  V30 23184 N 2168.37 -1.02294 1.19891 0
M  V30 23185 C 2169.65 -1.72912 0.914382 0
M  V30 23186 C 2170.03 -2.0302 -0.57845 0
M  V30 23187 O 2169.38 -1.68961 -1.53833 0
M  V30 23188 C 2169.59 -3.00157 1.78064 0
M  V30 23189 C 2170.94 -3.73547 2.0186 0
M  V30 23190 O 2171.96 -3.10098 1.75265 0
M  V30 23191 O 2170.82 -4.87629 2.46738 0
M  V30 23192 H 2167.91 -0.753281 0.341315 0
M  V30 23193 H 2170.46 -1.08199 1.30733 0
M  V30 23194 H 2169.23 -2.7418 2.79179 0
M  V30 23195 H 2168.85 -3.7261 1.38736 0
M  V30 23196 N 2169.85 -1.00378 -1.21499 0
M  V30 23197 C 2170.8 -0.563153 -2.23824 0
M  V30 23198 C 2171.77 0.410151 -1.60956 0
M  V30 23199 O 2172.95 0.312473 -1.88224 0
M  V30 23200 C 2170.09 0.105277 -3.44939 0
M  V30 23201 C 2169.21 -0.91106 -4.22284 0
M  V30 23202 C 2168.34 -0.215019 -5.30765 0
M  V30 23203 C 2167.38 -1.21899 -5.99839 0
M  V30 23204 N 2166.52 -0.550506 -6.99938 0
M  V30 23205 H 2171.36 -1.44041 -2.60876 0
M  V30 23206 H 2168.89 -0.721302 -1.28202 0
M  V30 23207 H 2170.85 0.509838 -4.14073 0
M  V30 23208 H 2169.48 0.946261 -3.08619 0
M  V30 23209 H 2168.53 -1.43387 -3.52341 0
M  V30 23210 H 2169.85 -1.67513 -4.69831 0
M  V30 23211 H 2169 0.245713 -6.06202 0
M  V30 23212 H 2167.74 0.581469 -4.84221 0
M  V30 23213 H 2166.74 -1.69024 -5.23174 0
M  V30 23214 H 2167.97 -2.01654 -6.48469 0
M  V30 23215 H 2165.91 0.226347 -6.55609 0
M  V30 23216 H 2165.83 -1.25285 -7.45547 0
M  V30 23217 H 2167.1 -0.112938 -7.79418 0
M  V30 23218 N 2171.33 1.37038 -0.778354 0
M  V30 23219 C 2172.58 1.98774 -0.342325 0
M  V30 23220 C 2172.89 1.62483 1.08898 0
M  V30 23221 O 2174.1 2.1737 1.62673 0
M  V30 23222 C 2172.55 3.55499 -0.561108 0
M  V30 23223 C 2172.16 4.00724 -2.00311 0
M  V30 23224 C 2173.9 4.24079 -0.189032 0
M  V30 23225 C 2171.81 5.50184 -2.16914 0
M  V30 23226 H 2170.74 0.743692 -0.124252 0
M  V30 23227 H 2173.39 1.56482 -0.95842 0
M  V30 23228 H 2171.77 3.95804 0.12454 0
M  V30 23229 H 2172.95 3.71647 -2.72425 0
M  V30 23230 H 2171.26 3.44947 -2.33239 0
M  V30 23231 H 2173.86 5.33905 -0.291509 0
M  V30 23232 H 2174.2 4.07288 0.861526 0
M  V30 23233 H 2174.74 3.89098 -0.827484 0
M  V30 23234 H 2171.48 5.71909 -3.20312 0
M  V30 23235 H 2171 5.80924 -1.49291 0
M  V30 23236 H 2172.67 6.16249 -1.97093 0
M  V30 23237 N 2172.81 0.529439 1.48441 0
M  V30 23238 C 2173.75 -0.233627 2.29615 0
M  V30 23239 C 2174.72 -0.934301 1.37332 0
M  V30 23240 O 2175.91 -0.935433 1.66296 0
M  V30 23241 C 2173.05 -1.27491 3.20687 0
M  V30 23242 C 2172.16 -0.583135 4.28046 0
M  V30 23243 C 2171.3 -1.6073 5.06299 0
M  V30 23244 C 2170.34 -0.898962 6.05463 0
M  V30 23245 N 2169.47 -1.86865 6.76776 0
M  V30 23246 H 2174.31 0.464768 2.94353 0
M  V30 23247 H 2171.85 0.241037 1.45112 0
M  V30 23248 H 2173.81 -1.89092 3.71887 0
M  V30 23249 H 2172.44 -1.9417 2.57872 0
M  V30 23250 H 2171.49 0.146804 3.80117 0
M  V30 23251 H 2172.8 -0.0269268 4.98793 0
M  V30 23252 H 2171.96 -2.29761 5.61511 0
M  V30 23253 H 2170.7 -2.19741 4.35391 0
M  V30 23254 H 2169.7 -0.194579 5.49456 0
M  V30 23255 H 2170.93 -0.314978 6.78369 0
M  V30 23256 H 2168.87 -2.44784 6.08619 0
M  V30 23257 H 2168.79 -1.36386 7.43596 0
M  V30 23258 H 2170.06 -2.55096 7.36577 0
M  V30 23259 N 2174.29 -1.55364 0.264547 0
M  V30 23260 C 2175.23 -2.22106 -0.62749 0
M  V30 23261 C 2176.2 -1.1909 -1.15788 0
M  V30 23262 O 2177.39 -1.47597 -1.20912 0
M  V30 23263 C 2174.53 -2.93783 -1.81068 0
M  V30 23264 C 2173.64 -4.11495 -1.31515 0
M  V30 23265 C 2172.78 -4.70842 -2.45929 0
M  V30 23266 C 2171.81 -5.80768 -1.93326 0
M  V30 23267 N 2170.95 -6.34223 -3.01173 0
M  V30 23268 H 2175.79 -2.97955 -0.0516766 0
M  V30 23269 H 2173.33 -1.47094 -0.0137419 0
M  V30 23270 H 2175.29 -3.33549 -2.50601 0
M  V30 23271 H 2173.92 -2.20376 -2.35869 0
M  V30 23272 H 2172.97 -3.76921 -0.513271 0
M  V30 23273 H 2174.28 -4.908 -0.88977 0
M  V30 23274 H 2173.43 -5.13274 -3.23474 0
M  V30 23275 H 2172.17 -3.90791 -2.91777 0
M  V30 23276 H 2171.18 -5.37797 -1.14257 0
M  V30 23277 H 2172.4 -6.62681 -1.48426 0
M  V30 23278 H 2170.35 -5.5707 -3.46423 0
M  V30 23279 H 2170.27 -7.08771 -2.63021 0
M  V30 23280 H 2171.53 -6.81313 -3.78725 0
M  V30 23281 N 2175.76 0.00833021 -1.57598 0
M  V30 23282 C 2176.7 1.0361 -2.03323 0
M  V30 23283 C 2177.67 1.33969 -0.921475 0
M  V30 23284 O 2178.86 1.46274 -1.18895 0
M  V30 23285 C 2175.99 2.36579 -2.4238 0
M  V30 23286 C 2175.03 2.21938 -3.64205 0
M  V30 23287 S 2175.86 1.55325 -5.12479 0
M  V30 23288 C 2177.02 2.89741 -5.54798 0
M  V30 23289 H 2177.25 0.646724 -2.90181 0
M  V30 23290 H 2174.79 0.218949 -1.5284 0
M  V30 23291 H 2176.74 3.13037 -2.65552 0
M  V30 23292 H 2175.41 2.72658 -1.55937 0
M  V30 23293 H 2174.6 3.20148 -3.89257 0
M  V30 23294 H 2174.2 1.53624 -3.40992 0
M  V30 23295 H 2176.49 3.86052 -5.56749 0
M  V30 23296 H 2177.44 2.69399 -6.54851 0
M  V30 23297 H 2177.84 2.93267 -4.82343 0
M  V30 23298 N 2177.24 1.55075 0.280956 0
M  V30 23299 C 2178.17 1.90416 1.35145 0
M  V30 23300 C 2179.15 0.765149 1.51919 0
M  V30 23301 O 2180.34 1.02261 1.65095 0
M  V30 23302 C 2177.47 2.16909 2.71233 0
M  V30 23303 C 2176.42 3.32739 2.692 0
M  V30 23304 C 2175.75 3.44695 4.08766 0
M  V30 23305 C 2177.05 4.69338 2.2917 0
M  V30 23306 H 2178.74 2.80078 1.05815 0
M  V30 23307 H 2176.29 1.34758 0.507584 0
M  V30 23308 H 2178.24 2.40219 3.46226 0
M  V30 23309 H 2176.96 1.24039 3.02129 0
M  V30 23310 H 2175.62 3.09385 1.96664 0
M  V30 23311 H 2175.27 2.49305 4.36871 0
M  V30 23312 H 2174.97 4.22568 4.08301 0
M  V30 23313 H 2176.5 3.70288 4.85509 0
M  V30 23314 H 2177.91 4.92246 2.93883 0
M  V30 23315 H 2176.31 5.5007 2.39882 0
M  V30 23316 H 2177.38 4.68698 1.24297 0
M  V30 23317 N 2178.72 -0.545102 1.47873 0
M  V30 23318 C 2180.13 -1.12717 1.48835 0
M  V30 23319 C 2180.48 -1.94604 0.249718 0
M  V30 23320 O 2179.61 -2.06582 -0.644417 0
M  V30 23321 C 2180.2 -2.05084 2.69678 0
M  V30 23322 C 2178.76 -2.58538 2.7356 0
M  V30 23323 C 2177.91 -1.35171 2.42124 0
M  V30 23324 H 2180.86 -0.331094 1.55208 0
M  V30 23325 H 2180.88 -2.89145 2.47336 0
M  V30 23326 H 2180.39 -1.45457 3.59811 0
M  V30 23327 H 2178.49 -3.21929 1.87597 0
M  V30 23328 H 2178.61 -2.98704 3.74583 0
M  V30 23329 H 2176.97 -1.66249 1.9296 0
M  V30 23330 H 2177.75 -0.773194 3.3448 0
M  V30 23331 N 2180.2 -1.36208 -0.792797 0
M  V30 23332 C 2181.44 -1.30442 -1.55282 0
M  V30 23333 C 2181.78 0.117071 -1.93847 0
M  V30 23334 O 2181.05 1.06968 -1.62444 0
M  V30 23335 C 2181.33 -2.22396 -2.83218 0
M  V30 23336 C 2181.19 -3.73227 -2.51042 0
M  V30 23337 C 2182.51 -2.13185 -3.85019 0
M  V30 23338 H 2179.63 -0.475171 -0.563366 0
M  V30 23339 H 2182.27 -1.6673 -0.911103 0
M  V30 23340 H 2180.42 -1.9158 -3.37979 0
M  V30 23341 H 2182.09 -4.14547 -2.02358 0
M  V30 23342 H 2180.33 -3.92829 -1.84033 0
M  V30 23343 H 2181 -4.32972 -3.42402 0
M  V30 23344 H 2183.48 -2.40303 -3.39696 0
M  V30 23345 H 2182.36 -2.797 -4.72291 0
M  V30 23346 H 2182.62 -1.11808 -4.27728 0
M  V30 23347 N 2181.68 1.01656 -1.20431 0
M  V30 23348 C 2182.92 1.76797 -1.02578 0
M  V30 23349 C 2183.28 1.8702 0.434471 0
M  V30 23350 O 2184.48 2.58607 0.733188 0
M  V30 23351 C 2182.75 3.14884 -1.69064 0
M  V30 23352 S 2184.31 4.06061 -1.66314 0
M  V30 23353 H 2181.13 0.608461 -0.367826 0
M  V30 23354 H 2183.73 1.21718 -1.52987 0
M  V30 23355 H 2182.43 3.0507 -2.74519 0
M  V30 23356 H 2181.97 3.75038 -1.18787 0
M  V30 23357 H 2183.98 4.91294 -0.696029 0
M  V30 23358 N 2183.15 1.01021 1.20965 0
M  V30 23359 C 2184.56 0.728406 1.71904 0
M  V30 23360 C 2184.92 -0.753559 1.81152 0
M  V30 23361 O 2184.04 -1.5884 1.46966 0
M  V30 23362 C 2184.64 1.31558 3.12215 0
M  V30 23363 C 2183.19 1.08279 3.6049 0
M  V30 23364 C 2182.34 1.42521 2.37872 0
M  V30 23365 H 2185.29 1.18047 1.06069 0
M  V30 23366 H 2185.31 0.702879 3.73952 0
M  V30 23367 H 2184.83 2.39417 3.05452 0
M  V30 23368 H 2182.93 0.0215819 3.72594 0
M  V30 23369 H 2183.04 1.75834 4.45667 0
M  V30 23370 H 2181.4 0.844088 2.40307 0
M  V30 23371 H 2182.19 2.51422 2.33756 0
M  V30 23372 N 2184.63 -1.36623 0.78561 0
M  V30 23373 C 2186.04 -1.81917 0.419903 0
M  V30 23374 C 2186.39 -1.65376 -1.0557 0
M  V30 23375 O 2185.52 -1.17258 -1.81878 0
M  V30 23376 C 2186.11 -3.30272 0.755384 0
M  V30 23377 C 2184.67 -3.73789 0.442556 0
M  V30 23378 C 2183.82 -2.58948 0.992018 0
M  V30 23379 H 2186.77 -1.24899 0.979084 0
M  V30 23380 H 2186.79 -3.80473 0.0450829 0
M  V30 23381 H 2186.3 -3.42278 1.8294 0
M  V30 23382 H 2184.4 -3.67345 -0.623584 0
M  V30 23383 H 2184.52 -4.69373 0.960503 0
M  V30 23384 H 2182.88 -2.51289 0.415458 0
M  V30 23385 H 2183.66 -2.73742 2.07172 0
M  V30 23386 N 2186.11 -0.537304 -1.48158 0
M  V30 23387 C 2187.36 -0.00587084 -2.02099 0
M  V30 23388 C 2187.68 1.3407 -1.41599 0
M  V30 23389 O 2186.95 1.86993 -0.583977 0
M  V30 23390 H 2185.53 0.000818022 -0.747 0
M  V30 23391 H 2188.19 -0.702798 -1.81788 0
M  V30 23392 H 2187.29 0.0970321 -3.11949 0
M  V30 23393 N 2187.59 1.55221 -0.272782 0
M  V30 23394 C 2188.55 2.21137 0.602593 0
M  V30 23395 C 2189.55 1.1885 1.08311 0
M  V30 23396 O 2190.74 1.4377 0.983663 0
M  V30 23397 C 2187.87 2.87548 1.8311 0
M  V30 23398 H 2189.07 2.99888 0.0271068 0
M  V30 23399 H 2186.62 1.56283 -0.0233836 0
M  V30 23400 H 2187.35 2.12802 2.44716 0
M  V30 23401 H 2187.14 3.62502 1.49449 0
M  V30 23402 H 2188.63 3.37914 2.45365 0
M  V30 23403 N 2189.07 2.77022e-05 1.576 0
M  V30 23404 C 2190.31 -0.683462 1.90193 0
M  V30 23405 C 2190.64 -1.74311 0.8741 0
M  V30 23406 O 2189.91 -1.957 -0.0884894 0
M  V30 23407 H 2188.49 -0.25543 0.701972 0
M  V30 23408 H 2191.15 0.0409602 1.94857 0
M  V30 23409 H 2190.24 -1.15469 2.89954 0
M  V30 23410 N 2190.54 -1.55222 -0.272728 0
M  V30 23411 C 2191.79 -1.75494 -1.00231 0
M  V30 23412 C 2192.11 -0.559233 -1.86809 0
M  V30 23413 O 2191.38 0.425848 -1.91215 0
M  V30 23414 H 2189.96 -0.647172 -0.373065 0
M  V30 23415 H 2192.63 -1.92625 -0.296893 0
M  V30 23416 H 2191.72 -2.65594 -1.63909 0
M  V30 23417 N 2192.02 0.537252 -1.4816 0
M  V30 23418 C 2192.95 1.65187 -1.65032 0
M  V30 23419 C 2193.93 1.62607 -0.499309 0
M  V30 23420 O 2195.12 1.79917 -0.731003 0
M  V30 23421 C 2192.25 3.03792 -1.68308 0
M  V30 23422 C 2191.2 3.21229 -2.82836 0
M  V30 23423 C 2190.53 4.60821 -2.71197 0
M  V30 23424 C 2191.83 3.04693 -4.24216 0
M  V30 23425 H 2193.52 1.51323 -2.58344 0
M  V30 23426 H 2191.07 0.726563 -1.24326 0
M  V30 23427 H 2193.02 3.81634 -1.787 0
M  V30 23428 H 2191.75 3.18662 -0.715691 0
M  V30 23429 H 2190.4 2.45802 -2.71987 0
M  V30 23430 H 2190.05 4.72517 -1.72443 0
M  V30 23431 H 2189.75 4.73434 -3.48043 0
M  V30 23432 H 2191.28 5.40772 -2.83546 0
M  V30 23433 H 2192.69 3.72334 -4.35936 0
M  V30 23434 H 2191.09 3.28804 -5.02004 0
M  V30 23435 H 2192.16 2.01201 -4.41187 0
M  V30 23436 N 2193.5 1.36626 0.785562 0
M  V30 23437 C 2194.91 1.27805 1.36098 0
M  V30 23438 C 2195.26 -0.080453 1.96035 0
M  V30 23439 O 2194.39 -0.982008 1.92836 0
M  V30 23440 C 2194.98 2.3143 2.47438 0
M  V30 23441 C 2193.54 2.26286 3.00785 0
M  V30 23442 C 2192.69 2.16002 1.73892 0
M  V30 23443 H 2195.64 1.47449 0.586902 0
M  V30 23444 H 2195.66 1.95297 3.26557 0
M  V30 23445 H 2195.17 3.30293 2.03785 0
M  V30 23446 H 2193.27 1.30903 3.48848 0
M  V30 23447 H 2193.39 3.19134 3.57338 0
M  V30 23448 H 2191.75 1.62319 1.96277 0
M  V30 23449 H 2192.53 3.16757 1.32362 0
M  V30 23450 N 2194.98 -1.01016 1.20969 0
M  V30 23451 C 2196.39 -1.56164 1.02322 0
M  V30 23452 C 2196.74 -1.91684 -0.418512 0
M  V30 23453 O 2195.87 -1.7293 -1.30093 0
M  V30 23454 C 2196.46 -2.83757 1.85114 0
M  V30 23455 C 2195.02 -3.35409 1.70815 0
M  V30 23456 C 2194.17 -2.08651 1.82647 0
M  V30 23457 H 2197.12 -0.833232 1.35066 0
M  V30 23458 H 2197.14 -3.55429 1.35833 0
M  V30 23459 H 2196.65 -2.57873 2.9004 0
M  V30 23460 H 2194.75 -3.66239 0.685528 0
M  V30 23461 H 2194.86 -4.07177 2.52475 0
M  V30 23462 H 2193.23 -2.21407 1.259 0
M  V30 23463 H 2194.01 -1.85185 2.8907 0
M  V30 23464 N 2196.46 -1.01661 -1.20428 0
M  V30 23465 C 2197.87 -0.737512 -1.71516 0
M  V30 23466 C 2198.22 0.743941 -1.81549 0
M  V30 23467 O 2197.34 1.58058 -1.47806 0
M  V30 23468 C 2197.94 -1.33212 -3.11513 0
M  V30 23469 C 2196.5 -1.10189 -3.5991 0
M  V30 23470 C 2195.64 -1.4378 -2.37113 0
M  V30 23471 H 2198.6 -1.18608 -1.05441 0
M  V30 23472 H 2198.62 -0.722701 -3.73574 0
M  V30 23473 H 2198.13 -2.41034 -3.04178 0
M  V30 23474 H 2196.23 -0.0413411 -3.72577 0
M  V30 23475 H 2196.34 -1.78195 -4.44728 0
M  V30 23476 H 2194.71 -0.856821 -2.39856 0
M  V30 23477 H 2195.49 -2.52658 -2.3242 0
M  V30 23478 N 2197.93 1.36205 -0.792844 0
M  V30 23479 C 2198.87 2.28699 -0.15151 0
M  V30 23480 C 2199.88 1.4964 0.641235 0
M  V30 23481 O 2201.07 1.7204 0.475854 0
M  V30 23482 C 2198.17 3.29118 0.808366 0
M  V30 23483 C 2197.34 4.37352 0.0649434 0
M  V30 23484 C 2196.4 5.17713 0.941267 0
M  V30 23485 O 2195.43 5.67812 0.397252 0
M  V30 23486 N 2196.63 5.34484 2.26511 0
M  V30 23487 H 2199.39 2.84377 -0.946032 0
M  V30 23488 H 2196.95 1.48407 -0.647058 0
M  V30 23489 H 2198.95 3.79767 1.39853 0
M  V30 23490 H 2197.52 2.74055 1.50375 0
M  V30 23491 H 2196.74 3.8782 -0.706324 0
M  V30 23492 H 2198.02 5.06824 -0.447936 0
M  V30 23493 H 2197.42 4.95401 2.73119 0
M  V30 23494 H 2195.98 5.88364 2.80483 0
M  V30 23495 N 2199.41 0.545154 1.47871 0
M  V30 23496 C 2200.83 0.20406 1.5829 0
M  V30 23497 C 2201.03 -1.29315 1.54531 0
M  V30 23498 O 2200.08 -2.07249 1.44236 0
M  V30 23499 C 2201.4 0.820038 2.89302 0
M  V30 23500 C 2202.95 0.790159 3.02862 0
M  V30 23501 C 2203.42 1.38499 4.36557 0
M  V30 23502 N 2204.91 1.34763 4.43163 0
M  V30 23503 C 2205.65 1.77762 5.4515 0
M  V30 23504 N 2205.14 2.28562 6.54012 0
M  V30 23505 N 2206.94 1.68906 5.36122 0
M  V30 23506 H 2199.09 1.51804 1.48557 0
M  V30 23507 H 2201.35 0.632339 0.706294 0
M  V30 23508 H 2201.06 1.87178 2.97754 0
M  V30 23509 H 2200.93 0.305981 3.75957 0
M  V30 23510 H 2203.32 -0.252861 2.94015 0
M  V30 23511 H 2203.4 1.34185 2.1778 0
M  V30 23512 H 2203.04 2.42701 4.4616 0
M  V30 23513 H 2202.97 0.808846 5.20351 0
M  V30 23514 H 2205.46 0.975919 3.65081 0
M  V30 23515 H 2205.78 2.59327 7.2799 0
M  V30 23516 H 2204.12 2.32565 6.54934 0
M  V30 23517 H 2207.31 1.29006 4.49972 0
M  V30 23518 H 2207.48 2.02737 6.15469 0
M  V30 23519 N 2200.89 -1.55074 0.28101 0
M  V30 23520 C 2201.84 -2.22759 -0.603897 0
M  V30 23521 C 2202.81 -1.20311 -1.14518 0
M  V30 23522 O 2203.99 -1.48871 -1.1934 0
M  V30 23523 C 2201.13 -2.95687 -1.77942 0
M  V30 23524 C 2200.25 -4.12866 -1.27143 0
M  V30 23525 C 2199.38 -4.73424 -2.40921 0
M  V30 23526 C 2198.42 -5.82786 -1.87155 0
M  V30 23527 N 2197.56 -6.37382 -2.9443 0
M  V30 23528 H 2202.4 -2.97993 -0.0200716 0
M  V30 23529 H 2199.93 -1.471 0.00186011 0
M  V30 23530 H 2201.89 -3.36189 -2.47049 0
M  V30 23531 H 2200.52 -2.22866 -2.33518 0
M  V30 23532 H 2199.57 -3.77445 -0.473264 0
M  V30 23533 H 2200.89 -4.91716 -0.837664 0
M  V30 23534 H 2200.04 -5.16676 -3.18012 0
M  V30 23535 H 2198.78 -3.93864 -2.87616 0
M  V30 23536 H 2197.78 -5.38978 -1.08547 0
M  V30 23537 H 2199.01 -6.64218 -1.41389 0
M  V30 23538 H 2196.95 -5.60713 -3.40495 0
M  V30 23539 H 2196.87 -7.11521 -2.55488 0
M  V30 23540 H 2198.14 -6.85292 -3.71477 0
M  V30 23541 N 2202.37 -0.00838561 -1.57598 0
M  V30 23542 C 2203.3 1.00865 -2.05813 0
M  V30 23543 C 2204.31 1.3018 -0.977602 0
M  V30 23544 O 2205.5 1.27009 -1.25423 0
M  V30 23545 C 2202.6 2.34133 -2.45021 0
M  V30 23546 C 2201.78 2.23636 -3.75907 0
M  V30 23547 C 2200.84 3.39663 -4.0189 0
M  V30 23548 O 2199.86 3.17474 -4.72439 0
M  V30 23549 N 2201.06 4.62787 -3.5044 0
M  V30 23550 H 2203.83 0.597407 -2.93685 0
M  V30 23551 H 2201.39 0.178824 -1.60909 0
M  V30 23552 H 2203.38 3.10542 -2.59511 0
M  V30 23553 H 2201.95 2.66969 -1.62623 0
M  V30 23554 H 2201.17 1.32084 -3.71413 0
M  V30 23555 H 2202.46 2.13804 -4.61698 0
M  V30 23556 H 2201.86 4.83711 -2.93326 0
M  V30 23557 H 2200.41 5.36434 -3.70246 0
M  V30 23558 N 2203.85 1.55365 0.264492 0
M  V30 23559 C 2204.8 1.89629 1.34698 0
M  V30 23560 C 2205.79 0.773486 1.5071 0
M  V30 23561 O 2207 0.957924 1.52394 0
M  V30 23562 H 2203.37 0.601996 0.450671 0
M  V30 23563 H 2205.34 2.80039 1.03056 0
M  V30 23564 C 2204.09 2.19218 2.69886 0
M  V30 23565 H 2203.41 3.05107 2.58359 0
M  V30 23566 H 2204.85 2.47108 3.44548 0
M  V30 23567 C 2203.31 1.0026 3.21636 0
M  V30 23568 O 2203.84 0.241571 4.00973 0
M  V30 23569 N 2202.05 0.797987 2.79429 0
M  V30 23570 H 2201.6 1.41854 2.15024 0
M  V30 23571 H 2201.55 0.00368948 3.144 0
M  V30 23572 N 2205.33 -0.529387 1.48443 0
M  V30 23573 C 2206.55 -1.30991 1.60153 0
M  V30 23574 C 2206.97 -1.86973 0.262017 0
M  V30 23575 O 2206.33 -1.66432 -0.748776 0
M  V30 23576 C 2206.38 -2.46033 2.64858 0
M  V30 23577 O 2206.1 -1.92358 3.93612 0
M  V30 23578 C 2207.6 -3.37844 2.87013 0
M  V30 23579 H 2204.82 -0.398328 0.539978 0
M  V30 23580 H 2207.36 -0.638563 1.94275 0
M  V30 23581 H 2205.52 -3.09051 2.33594 0
M  V30 23582 H 2205.93 -2.67667 4.51059 0
M  V30 23583 H 2207.41 -4.14913 3.64076 0
M  V30 23584 H 2207.88 -3.93111 1.95859 0
M  V30 23585 H 2208.49 -2.80617 3.19584 0
M  V30 23586 N 2206.8 -1.37041 -0.778305 0
M  V30 23587 C 2207.77 -1.32105 -1.87299 0
M  V30 23588 C 2208.77 -0.226433 -1.59198 0
M  V30 23589 O 2209.96 -0.481891 -1.67402 0
M  V30 23590 C 2207.09 -1.05061 -3.24307 0
M  V30 23591 H 2208.28 -2.29471 -1.93089 0
M  V30 23592 H 2205.83 -1.21975 -0.977337 0
M  V30 23593 H 2206.57 -0.0819943 -3.24196 0
M  V30 23594 H 2206.35 -1.84285 -3.46094 0
M  V30 23595 H 2207.84 -1.04241 -4.04381 0
M  V30 23596 N 2208.28 1.00373 -1.21503 0
M  V30 23597 C 2209.56 1.71435 -0.941775 0
M  V30 23598 C 2209.94 2.03915 0.546078 0
M  V30 23599 O 2209.29 1.71387 1.51125 0
M  V30 23600 C 2209.5 2.97286 -1.82817 0
M  V30 23601 C 2210.84 3.70289 -2.07777 0
M  V30 23602 O 2211.87 3.0727 -1.80176 0
M  V30 23603 O 2210.73 4.83642 -2.54465 0
M  V30 23604 H 2207.82 0.747756 -0.353256 0
M  V30 23605 H 2210.37 1.06105 -1.32438 0
M  V30 23606 H 2209.14 2.69704 -2.83506 0
M  V30 23607 H 2208.76 3.70356 -1.44646 0
M  V30 23608 N 2209.76 1.02298 1.19887 0
M  V30 23609 C 2211.01 0.71129 1.88742 0
M  V30 23610 C 2211.32 -0.762785 1.80114 0
M  V30 23611 O 2212.53 -1.18729 2.44163 0
M  V30 23612 C 2210.98 1.22191 3.38522 0
M  V30 23613 C 2210.59 2.72334 3.55722 0
M  V30 23614 C 2212.34 0.985936 4.12892 0
M  V30 23615 C 2210.24 3.16844 4.99363 0
M  V30 23616 H 2209.17 0.262365 0.706881 0
M  V30 23617 H 2211.82 1.2365 1.35583 0
M  V30 23618 H 2210.21 0.62464 3.91043 0
M  V30 23619 H 2211.38 3.37665 3.13558 0
M  V30 23620 H 2209.69 2.94145 2.94733 0
M  V30 23621 H 2212.29 1.29383 5.1881 0
M  V30 23622 H 2212.63 -0.0774323 4.16228 0
M  V30 23623 H 2213.17 1.5469 3.66491 0
M  V30 23624 H 2209.91 4.22485 5.01186 0
M  V30 23625 H 2209.43 2.56237 5.42312 0
M  V30 23626 H 2211.11 3.09847 5.67982 0
M  V30 23627 N 2211.24 -1.35782 0.800057 0
M  V30 23628 C 2212.17 -2.32459 0.220225 0
M  V30 23629 C 2213.15 -1.57162 -0.650702 0
M  V30 23630 O 2214.33 -1.85264 -0.582326 0
M  V30 23631 C 2211.46 -3.41403 -0.637293 0
M  V30 23632 C 2210.42 -4.27788 0.134606 0
M  V30 23633 C 2209.74 -5.27994 -0.844192 0
M  V30 23634 C 2211.04 -5.05086 1.32988 0
M  V30 23635 H 2212.74 -2.81201 1.02792 0
M  V30 23636 H 2210.28 -1.35198 0.495741 0
M  V30 23637 H 2212.24 -4.08033 -1.05295 0
M  V30 23638 H 2210.96 -2.91253 -1.4778 0
M  V30 23639 H 2209.62 -3.62729 0.53136 0
M  V30 23640 H 2209.27 -4.74114 -1.68002 0
M  V30 23641 H 2208.97 -5.86661 -0.332081 0
M  V30 23642 H 2210.49 -5.97496 -1.25819 0
M  V30 23643 H 2211.91 -5.64697 0.989439 0
M  V30 23644 H 2210.3 -5.73217 1.77603 0
M  V30 23645 H 2211.37 -4.36108 2.11986 0
M  V30 23646 N 2212.72 -0.552988 -1.4758 0
M  V30 23647 C 2213.65 0.234493 -2.27997 0
M  V30 23648 C 2214.66 0.883297 -1.36754 0
M  V30 23649 O 2215.85 0.75786 -1.61613 0
M  V30 23650 C 2212.95 1.3493 -3.10881 0
M  V30 23651 C 2212.12 0.798083 -4.30057 0
M  V30 23652 C 2211.18 1.79686 -4.9457 0
M  V30 23653 O 2210.21 1.34465 -5.53089 0
M  V30 23654 N 2211.41 3.13006 -4.88884 0
M  V30 23655 H 2214.17 -0.455307 -2.96221 0
M  V30 23656 H 2211.74 -0.388789 -1.57162 0
M  V30 23657 H 2213.73 2.0161 -3.50907 0
M  V30 23658 H 2212.3 1.9424 -2.44928 0
M  V30 23659 H 2211.52 -0.0453772 -3.94174 0
M  V30 23660 H 2212.81 0.409084 -5.07153 0
M  V30 23661 H 2212.2 3.52394 -4.42532 0
M  V30 23662 H 2210.76 3.75256 -5.32941 0
M  V30 23663 N 2214.19 1.54923 -0.28923 0
M  V30 23664 C 2215.47 1.91952 0.375998 0
M  V30 23665 C 2215.85 1.21514 1.7262 0
M  V30 23666 O 2215.2 0.346807 2.25853 0
M  V30 23667 C 2215.41 3.45366 0.502318 0
M  V30 23668 C 2216.76 4.17399 0.778667 0
M  V30 23669 O 2217.78 3.51337 0.586585 0
M  V30 23670 O 2216.64 5.3433 1.14689 0
M  V30 23671 H 2213.73 0.800376 0.208153 0
M  V30 23672 H 2216.28 1.66332 -0.336423 0
M  V30 23673 H 2215.05 3.88735 -0.447324 0
M  V30 23674 H 2214.67 3.76985 1.26366 0
M  V30 23675 N 2215.67 0.0167433 1.57591 0
M  V30 23676 C 2216.6 -0.96782 2.12498 0
M  V30 23677 C 2217.58 -1.3475 1.03809 0
M  V30 23678 O 2218.77 -1.4283 1.31579 0
M  V30 23679 C 2215.9 -2.25426 2.64198 0
M  V30 23680 C 2214.85 -2.0157 3.77563 0
M  V30 23681 C 2214.18 -3.36372 4.15642 0
M  V30 23682 C 2215.48 -1.36481 5.04153 0
M  V30 23683 H 2217.17 -0.510591 2.95014 0
M  V30 23684 H 2214.72 -0.244156 1.41915 0
M  V30 23685 H 2216.67 -2.94672 3.01241 0
M  V30 23686 H 2215.39 -2.73292 1.78826 0
M  V30 23687 H 2214.05 -1.34745 3.40939 0
M  V30 23688 H 2213.7 -3.81973 3.27269 0
M  V30 23689 H 2213.4 -3.2122 4.92028 0
M  V30 23690 H 2214.93 -4.06907 4.55258 0
M  V30 23691 H 2216.34 -1.95708 5.38861 0
M  V30 23692 H 2214.74 -1.31765 5.85455 0
M  V30 23693 H 2215.81 -0.336134 4.83734 0
M  V30 23694 N 2217.15 -1.55503 -0.256249 0
M  V30 23695 C 2218.38 -1.80941 -1.00339 0
M  V30 23696 C 2218.79 -0.591171 -1.79306 0
M  V30 23697 O 2218.15 0.44005 -1.77115 0
M  V30 23698 C 2218.2 -3.0448 -1.9487 0
M  V30 23699 O 2217.92 -4.216 -1.19099 0
M  V30 23700 C 2219.42 -3.42648 -2.81259 0
M  V30 23701 H 2216.64 -0.602344 -0.295674 0
M  V30 23702 H 2219.19 -2.02547 -0.281962 0
M  V30 23703 H 2217.34 -2.84952 -2.62452 0
M  V30 23704 H 2217.76 -4.91555 -1.8296 0
M  V30 23705 H 2219.23 -4.32217 -3.43355 0
M  V30 23706 H 2219.71 -2.62808 -3.51893 0
M  V30 23707 H 2220.31 -3.64495 -2.19143 0
M  V30 23708 N 2218.63 0.521507 -1.48721 0
M  V30 23709 C 2219.88 1.27434 -1.56859 0
M  V30 23710 C 2220.2 1.93416 -0.248016 0
M  V30 23711 O 2219.47 1.81746 0.731119 0
M  V30 23712 H 2218.05 0.473337 -0.577894 0
M  V30 23713 H 2220.71 0.606173 -1.85234 0
M  V30 23714 H 2219.81 2.04916 -2.35406 0
M  V30 23715 N 2220.11 1.37452 0.771027 0
M  V30 23716 C 2221.52 1.18267 1.07169 0
M  V30 23717 C 2221.72 0.0193224 2.01491 0
M  V30 23718 O 2220.78 -0.640366 2.44245 0
M  V30 23719 C 2222.09 2.50163 1.66849 0
M  V30 23720 C 2223.64 2.56692 1.79104 0
M  V30 23721 C 2224.11 3.88721 2.42198 0
M  V30 23722 N 2225.61 3.90167 2.49648 0
M  V30 23723 C 2226.34 4.89075 2.99321 0
M  V30 23724 N 2225.84 5.9838 3.49161 0
M  V30 23725 N 2227.63 4.76479 2.98202 0
M  V30 23726 H 2219.78 2.11906 0.144759 0
M  V30 23727 H 2222.04 0.939475 0.126847 0
M  V30 23728 H 2221.75 3.35657 1.05011 0
M  V30 23729 H 2221.62 2.67304 2.66136 0
M  V30 23730 H 2224.01 1.71605 2.40074 0
M  V30 23731 H 2224.09 2.43434 0.785714 0
M  V30 23732 H 2223.74 4.74222 1.81867 0
M  V30 23733 H 2223.67 3.99282 3.43338 0
M  V30 23734 H 2226.16 3.11208 2.14378 0
M  V30 23735 H 2226.47 6.69802 3.85468 0
M  V30 23736 H 2224.81 6.02024 3.47264 0
M  V30 23737 H 2228.01 3.90207 2.58565 0
M  V30 23738 H 2228.18 5.53717 3.36603 0
M  V30 23739 N 2221.58 -0.997276 1.22033 0
M  V30 23740 C 2222.53 -2.10776 0.983671 0
M  V30 23741 C 2223.53 -1.69248 -0.0717267 0
M  V30 23742 O 2224.73 -1.79821 0.0803357 0
M  V30 23743 H 2221.11 -0.689181 0.300889 0
M  V30 23744 H 2223.08 -2.27912 1.9261 0
M  V30 23745 C 2221.83 -3.42941 0.57332 0
M  V30 23746 H 2221.15 -3.75335 1.37708 0
M  V30 23747 H 2222.59 -4.21636 0.447105 0
M  V30 23748 C 2221.05 -3.2919 -0.716642 0
M  V30 23749 O 2221.58 -3.60592 -1.77021 0
M  V30 23750 N 2219.79 -2.82384 -0.686117 0
M  V30 23751 H 2219.33 -2.57028 0.171552 0
M  V30 23752 H 2219.29 -2.73565 -1.5495 0
M  V30 23753 N 2223.06 -1.02932 -1.19343 0
M  V30 23754 C 2224.31 -0.721289 -1.88362 0
M  V30 23755 C 2224.62 0.753223 -1.80516 0
M  V30 23756 O 2225.83 1.17432 -2.4479 0
M  V30 23757 C 2224.29 -1.23984 -3.3787 0
M  V30 23758 C 2223.89 -2.74217 -3.54273 0
M  V30 23759 C 2225.64 -1.00782 -4.12363 0
M  V30 23760 C 2223.55 -3.19488 -4.97676 0
M  V30 23761 H 2222.48 -0.26611 -0.70548 0
M  V30 23762 H 2225.13 -1.24368 -1.34926 0
M  V30 23763 H 2223.51 -0.645369 -3.90706 0
M  V30 23764 H 2224.68 -3.39323 -3.11763 0
M  V30 23765 H 2223 -2.95704 -2.93169 0
M  V30 23766 H 2225.59 -1.32133 -5.18117 0
M  V30 23767 H 2225.94 0.0553576 -4.16263 0
M  V30 23768 H 2226.47 -1.56632 -3.65666 0
M  V30 23769 H 2223.21 -4.25137 -4.98938 0
M  V30 23770 H 2222.73 -2.5911 -5.40946 0
M  V30 23771 H 2224.41 -3.12855 -5.66331 0
M  V30 23772 N 2224.54 1.35356 -0.807246 0
M  V30 23773 C 2225.77 2.03519 -0.399345 0
M  V30 23774 C 2226.19 1.60434 0.981958 0
M  V30 23775 O 2225.55 0.781328 1.636 0
M  V30 23776 C 2225.6 3.57233 -0.491615 0
M  V30 23777 O 2224.7 4.09422 0.494682 0
M  V30 23778 H 2224.04 0.642736 -0.166693 0
M  V30 23779 H 2226.57 1.72939 -1.09331 0
M  V30 23780 H 2226.58 4.06394 -0.361659 0
M  V30 23781 H 2225.26 3.87941 -1.49914 0
M  V30 23782 H 2223.83 3.71482 0.324911 0
M  V30 23783 N 2226.02 0.560807 1.47284 0
M  V30 23784 C 2227.3 -0.0277455 1.9558 0
M  V30 23785 C 2227.68 -1.4819 1.50343 0
M  V30 23786 O 2227.02 -2.16051 0.74392 0
M  V30 23787 C 2227.23 0.121479 3.48789 0
M  V30 23788 C 2228.58 -0.0220166 4.24594 0
M  V30 23789 O 2229.61 0.0492065 3.56166 0
M  V30 23790 O 2228.46 -0.175862 5.46217 0
M  V30 23791 H 2225.56 -0.0621197 0.824664 0
M  V30 23792 H 2228.1 0.627584 1.57669 0
M  V30 23793 H 2226.88 1.13323 3.74531 0
M  V30 23794 H 2226.5 -0.571296 3.93474 0
M  V30 23795 N 2227.5 -1.54768 0.297442 0
M  V30 23796 C 2228.73 -2.04183 -0.315129 0
M  V30 23797 C 2229.13 -1.17441 -1.48338 0
M  V30 23798 O 2228.48 -0.191923 -1.82695 0
M  V30 23799 C 2228.54 -3.49608 -0.837521 0
M  V30 23800 C 2228.2 -4.5654 0.204992 0
M  V30 23801 C 2229.2 -5.0955 1.03222 0
M  V30 23802 C 2226.89 -5.01109 0.345666 0
M  V30 23803 C 2228.88 -6.05667 1.98611 0
M  V30 23804 C 2226.57 -5.97047 1.303 0
M  V30 23805 C 2227.56 -6.49209 2.1217 0
M  V30 23806 O 2227.25 -7.43268 3.06281 0
M  V30 23807 H 2226.98 -0.672052 -0.0729528 0
M  V30 23808 H 2229.54 -2.00764 0.433942 0
M  V30 23809 H 2227.77 -3.50339 -1.63706 0
M  V30 23810 H 2229.46 -3.82239 -1.36559 0
M  V30 23811 H 2230.22 -4.75914 0.934395 0
M  V30 23812 H 2226.1 -4.60139 -0.281629 0
M  V30 23813 H 2229.65 -6.46306 2.62553 0
M  V30 23814 H 2225.54 -6.301 1.40156 0
M  V30 23815 H 2226.31 -7.61058 3.01219 0
M  V30 23816 N 2228.97 -0.0251005 -1.5758 0
M  V30 23817 C 2229.9 0.956538 -2.13008 0
M  V30 23818 C 2230.89 1.34198 -1.04523 0
M  V30 23819 O 2232.07 1.42131 -1.32335 0
M  V30 23820 C 2229.2 2.24022 -2.6539 0
M  V30 23821 C 2228.15 1.99565 -3.78626 0
M  V30 23822 C 2227.48 3.34163 -4.1742 0
M  V30 23823 C 2228.78 1.33805 -5.0487 0
M  V30 23824 H 2230.47 0.494939 -2.95281 0
M  V30 23825 H 2228.02 0.236627 -1.42043 0
M  V30 23826 H 2229.97 2.93071 -3.02799 0
M  V30 23827 H 2228.7 2.7234 -1.80273 0
M  V30 23828 H 2227.36 1.32935 -3.41649 0
M  V30 23829 H 2227 3.80232 -3.29291 0
M  V30 23830 H 2226.7 3.18606 -4.93724 0
M  V30 23831 H 2228.23 4.04486 -4.57409 0
M  V30 23832 H 2229.64 1.92848 -5.39891 0
M  V30 23833 H 2228.04 1.28659 -5.86146 0
M  V30 23834 H 2229.11 0.310476 -4.83905 0
M  V30 23835 N 2230.45 1.55637 0.247999 0
M  V30 23836 C 2231.7 1.7768 0.977639 0
M  V30 23837 C 2232.03 0.590167 1.85015 0
M  V30 23838 O 2231.31 -0.411578 1.90095 0
M  V30 23839 C 2231.59 3.09596 1.83908 0
M  V30 23840 C 2231.44 4.38661 0.994833 0
M  V30 23841 C 2232.76 3.37734 2.82177 0
M  V30 23842 H 2229.88 0.646419 0.353994 0
M  V30 23843 H 2232.52 1.88372 0.248219 0
M  V30 23844 H 2230.67 3.00612 2.46099 0
M  V30 23845 H 2232.34 4.59634 0.391708 0
M  V30 23846 H 2230.59 4.32767 0.299155 0
M  V30 23847 H 2231.26 5.27343 1.63136 0
M  V30 23848 H 2233.73 3.46674 2.30123 0
M  V30 23849 H 2232.61 4.31255 3.39574 0
M  V30 23850 H 2232.87 2.58593 3.58584 0
M  V30 23851 N 2231.93 -0.513613 1.48996 0
M  V30 23852 C 2232.88 -1.61653 1.64733 0
M  V30 23853 C 2233.85 -1.58738 0.489012 0
M  V30 23854 O 2235.03 -1.76916 0.714509 0
M  V30 23855 C 2232.17 -2.99855 1.70825 0
M  V30 23856 C 2231.29 -3.1288 2.97876 0
M  V30 23857 C 2230.42 -4.41739 2.95025 0
M  V30 23858 C 2229.46 -4.48352 4.1671 0
M  V30 23859 N 2228.6 -5.68622 4.11842 0
M  V30 23860 H 2233.44 -1.47542 2.58912 0
M  V30 23861 H 2230.97 -0.718057 1.28384 0
M  V30 23862 H 2232.93 -3.79941 1.72338 0
M  V30 23863 H 2231.56 -3.12698 0.801236 0
M  V30 23864 H 2230.61 -2.25939 3.06033 0
M  V30 23865 H 2231.93 -3.13626 3.87866 0
M  V30 23866 H 2231.08 -5.30134 2.95031 0
M  V30 23867 H 2229.82 -4.43539 2.02792 0
M  V30 23868 H 2228.82 -3.58362 4.16962 0
M  V30 23869 H 2230.05 -4.48278 5.10121 0
M  V30 23870 H 2228 -5.71288 3.22438 0
M  V30 23871 H 2227.91 -5.70932 4.95553 0
M  V30 23872 H 2229.18 -6.59258 4.15931 0
M  V30 23873 N 2233.41 -1.37859 -0.763727 0
M  V30 23874 C 2234.64 -1.36721 -1.5529 0
M  V30 23875 C 2235.05 0.0455102 -1.88745 0
M  V30 23876 O 2234.41 1.00945 -1.52041 0
M  V30 23877 C 2234.46 -2.21325 -2.85827 0
M  V30 23878 O 2234.18 -3.57093 -2.53803 0
M  V30 23879 C 2235.68 -2.28256 -3.80019 0
M  V30 23880 H 2232.9 -0.468018 -0.480833 0
M  V30 23881 H 2235.45 -1.81305 -0.945977 0
M  V30 23882 H 2233.6 -1.8023 -3.42923 0
M  V30 23883 H 2234.02 -4.0153 -3.37452 0
M  V30 23884 H 2235.49 -2.9176 -4.68594 0
M  V30 23885 H 2235.97 -1.29328 -4.19727 0
M  V30 23886 H 2236.57 -2.69699 -3.28851 0
M  V30 23887 N 2234.89 0.990791 -1.22561 0
M  V30 23888 C 2236.12 1.76353 -1.07626 0
M  V30 23889 C 2236.53 1.85427 0.375977 0
M  V30 23890 O 2235.87 1.32511 1.27226 0
M  V30 23891 C 2235.93 3.21176 -1.61513 0
M  V30 23892 C 2235.59 3.35641 -3.10152 0
M  V30 23893 C 2236.59 3.22788 -4.07558 0
M  V30 23894 C 2234.28 3.60624 -3.4965 0
M  V30 23895 C 2236.27 3.34707 -5.42448 0
M  V30 23896 C 2233.96 3.72183 -4.84688 0
M  V30 23897 C 2234.96 3.59233 -5.80896 0
M  V30 23898 O 2234.64 3.70402 -7.13483 0
M  V30 23899 H 2234.38 0.560604 -0.377755 0
M  V30 23900 H 2236.93 1.25422 -1.62661 0
M  V30 23901 H 2235.16 3.73308 -1.00888 0
M  V30 23902 H 2236.85 3.80173 -1.42209 0
M  V30 23903 H 2237.61 3.03396 -3.78386 0
M  V30 23904 H 2233.49 3.6978 -2.75288 0
M  V30 23905 H 2237.04 3.24515 -6.17524 0
M  V30 23906 H 2232.93 3.91083 -5.13541 0
M  V30 23907 H 2233.7 3.87262 -7.2109 0
M  V30 23908 N 2236.37 1.03564 1.18795 0
M  V30 23909 C 2237.61 0.737146 1.88929 0
M  V30 23910 C 2237.94 -0.732924 1.79838 0
M  V30 23911 O 2237.22 -1.53438 1.19528 0
M  V30 23912 C 2237.5 1.19751 3.39605 0
M  V30 23913 C 2237.36 2.7293 3.57532 0
M  V30 23914 C 2238.67 0.783602 4.33068 0
M  V30 23915 H 2235.79 0.269261 0.686052 0
M  V30 23916 H 2238.44 1.28676 1.39795 0
M  V30 23917 H 2236.59 0.729922 3.81581 0
M  V30 23918 H 2238.26 3.27688 3.24682 0
M  V30 23919 H 2236.5 3.12998 3.00357 0
M  V30 23920 H 2237.17 3.00199 4.63233 0
M  V30 23921 H 2239.65 1.18588 3.98843 0
M  V30 23922 H 2238.52 1.13353 5.37068 0
M  V30 23923 H 2238.78 -0.313604 4.40986 0
M  V30 23924 N 2237.84 -1.34926 0.814413 0
M  V30 23925 C 2238.78 -2.28429 0.187874 0
M  V30 23926 C 2239.79 -1.50641 -0.617348 0
M  V30 23927 O 2240.98 -1.72776 -0.448424 0
M  V30 23928 C 2238.08 -3.30362 -0.755904 0
M  V30 23929 C 2237.25 -4.374 0.00464374 0
M  V30 23930 C 2236.31 -5.19145 -0.858785 0
M  V30 23931 O 2235.34 -5.68372 -0.306868 0
M  V30 23932 N 2236.54 -5.3802 -2.17979 0
M  V30 23933 H 2239.3 -2.82836 0.991154 0
M  V30 23934 H 2236.86 -1.47359 0.670587 0
M  V30 23935 H 2238.86 -3.81944 -1.33793 0
M  V30 23936 H 2237.43 -2.76413 -1.45996 0
M  V30 23937 H 2236.65 -3.86648 0.767933 0
M  V30 23938 H 2237.93 -5.06048 0.528511 0
M  V30 23939 H 2237.33 -4.99684 -2.65203 0
M  V30 23940 H 2235.89 -5.92752 -2.71087 0
M  V30 23941 N 2239.32 -0.56861 -1.46985 0
M  V30 23942 C 2240.57 -0.0466248 -2.01646 0
M  V30 23943 C 2240.88 1.31584 -1.44723 0
M  V30 23944 O 2242.09 1.92838 -1.91117 0
M  V30 23945 C 2240.55 -0.0328152 -3.59885 0
M  V30 23946 C 2240.15 -1.39274 -4.25801 0
M  V30 23947 C 2241.9 0.435964 -4.22255 0
M  V30 23948 C 2239.8 -1.33742 -5.76079 0
M  V30 23949 H 2238.73 -0.0136602 -0.753876 0
M  V30 23950 H 2241.39 -0.718161 -1.68863 0
M  V30 23951 H 2239.77 0.704601 -3.89681 0
M  V30 23952 H 2240.94 -2.14877 -4.07633 0
M  V30 23953 H 2239.26 -1.80038 -3.75467 0
M  V30 23954 H 2241.85 0.495926 -5.32395 0
M  V30 23955 H 2242.2 1.45046 -3.90214 0
M  V30 23956 H 2242.73 -0.246947 -3.97033 0
M  V30 23957 H 2239.47 -2.32827 -6.12757 0
M  V30 23958 H 2238.99 -0.623372 -5.96552 0
M  V30 23959 H 2240.67 -1.04431 -6.38516 0
M  V30 23960 N 2240.8 1.54608 -0.305646 0
M  V30 23961 C 2242.05 1.9941 0.303063 0
M  V30 23962 C 2242.36 1.19767 1.54646 0
M  V30 23963 O 2243.57 1.54859 2.23005 0
M  V30 23964 C 2242.02 3.55022 0.590525 0
M  V30 23965 C 2241.63 4.4348 -0.634797 0
M  V30 23966 C 2243.38 4.08338 1.16017 0
M  V30 23967 C 2241.28 5.90532 -0.32023 0
M  V30 23968 H 2240.21 0.744864 0.117018 0
M  V30 23969 H 2242.86 1.78744 -0.415076 0
M  V30 23970 H 2241.25 3.71606 1.36838 0
M  V30 23971 H 2242.42 4.3867 -1.41086 0
M  V30 23972 H 2240.73 4.0096 -1.1234 0
M  V30 23973 H 2243.33 5.15778 1.40985 0
M  V30 23974 H 2243.67 3.59223 2.10391 0
M  V30 23975 H 2244.21 3.95315 0.443916 0
M  V30 23976 H 2240.95 6.43806 -1.23265 0
M  V30 23977 H 2240.47 5.98338 0.418474 0
M  V30 23978 H 2242.15 6.46955 0.0765103 0
M  V30 23979 N 2242.28 0.033457 1.57564 0
M  V30 23980 C 2243.24 -0.932011 2.09395 0
M  V30 23981 C 2244.24 -1.25132 1.00988 0
M  V30 23982 O 2245.43 -1.19094 1.27131 0
M  V30 23983 C 2242.56 -2.24725 2.56342 0
M  V30 23984 H 2243.76 -0.483033 2.95984 0
M  V30 23985 H 2241.31 -0.214653 1.54819 0
M  V30 23986 H 2242.04 -2.74242 1.73095 0
M  V30 23987 H 2241.83 -2.02859 3.35545 0
M  V30 23988 H 2243.32 -2.93918 2.96651 0
M  V30 23989 N 2243.76 -1.55766 -0.239741 0
M  V30 23990 C 2244.7 -1.90915 -1.29693 0
M  V30 23991 C 2245.67 -0.76419 -1.47477 0
M  V30 23992 O 2246.86 -1.01848 -1.61343 0
M  V30 23993 C 2244 -2.21549 -2.64594 0
M  V30 23994 C 2243.11 -3.48886 -2.54759 0
M  V30 23995 C 2242.25 -3.69055 -3.82062 0
M  V30 23996 C 2241.28 -4.89969 -3.66874 0
M  V30 23997 N 2240.42 -5.06622 -4.86085 0
M  V30 23998 H 2245.26 -2.81069 -0.990175 0
M  V30 23999 H 2242.8 -1.39129 -0.477659 0
M  V30 24000 H 2244.76 -2.37316 -3.43128 0
M  V30 24001 H 2243.39 -1.3459 -2.93403 0
M  V30 24002 H 2242.44 -3.41412 -1.67757 0
M  V30 24003 H 2243.75 -4.37568 -2.3945 0
M  V30 24004 H 2242.9 -3.84821 -4.69039 0
M  V30 24005 H 2241.64 -2.78621 -4.00277 0
M  V30 24006 H 2240.65 -4.74173 -2.7828 0
M  V30 24007 H 2241.87 -5.81871 -3.50147 0
M  V30 24008 H 2239.82 -4.19126 -5.04647 0
M  V30 24009 H 2239.74 -5.89404 -4.73433 0
M  V30 24010 H 2241 -5.26806 -5.7454 0
M  V30 24011 N 2245.23 0.505704 -1.49266 0
M  V30 24012 C 2246.46 1.28899 -1.6248 0
M  V30 24013 C 2246.88 1.85782 -0.294365 0
M  V30 24014 O 2246.24 1.65627 0.737383 0
M  V30 24015 C 2246.29 2.39843 -2.69273 0
M  V30 24016 O 2245.39 3.43563 -2.28119 0
M  V30 24017 H 2244.73 0.380741 -0.543996 0
M  V30 24018 H 2247.26 0.605918 -1.95422 0
M  V30 24019 H 2247.27 2.85676 -2.91296 0
M  V30 24020 H 2245.95 1.97806 -3.65849 0
M  V30 24021 H 2244.53 3.03682 -2.16407 0
M  V30 24022 N 2246.71 1.38262 0.756405 0
M  V30 24023 C 2247.64 1.37979 1.88372 0
M  V30 24024 C 2248.62 0.246111 1.6831 0
M  V30 24025 O 2249.81 0.448773 1.88944 0
M  V30 24026 C 2246.94 1.2013 3.25862 0
M  V30 24027 C 2245.89 2.30673 3.60519 0
M  V30 24028 C 2245.22 1.97932 4.96716 0
M  V30 24029 C 2246.52 3.72923 3.65686 0
M  V30 24030 H 2248.21 2.32315 1.88865 0
M  V30 24031 H 2245.76 1.11825 0.907253 0
M  V30 24032 H 2247.71 1.18559 4.04378 0
M  V30 24033 H 2246.44 0.222555 3.25841 0
M  V30 24034 H 2245.09 2.31425 2.8432 0
M  V30 24035 H 2244.74 0.98548 4.93252 0
M  V30 24036 H 2244.44 2.71965 5.20873 0
M  V30 24037 H 2245.97 1.97974 5.77615 0
M  V30 24038 H 2247.38 3.74216 4.34322 0
M  V30 24039 H 2245.78 4.46137 4.0135 0
M  V30 24040 H 2246.85 4.05441 2.6598 0
M  V30 24041 N 2248.19 -0.984277 1.23084 0
M  V30 24042 C 2249.14 -2.07597 1.00858 0
M  V30 24043 C 2250.11 -1.65941 -0.0726418 0
M  V30 24044 O 2251.29 -1.90638 0.078687 0
M  V30 24045 C 2248.43 -3.39814 0.601704 0
M  V30 24046 C 2247.55 -3.94762 1.75463 0
M  V30 24047 C 2246.68 -5.15175 1.29491 0
M  V30 24048 C 2245.72 -5.6228 2.41883 0
M  V30 24049 N 2244.86 -6.73926 1.96897 0
M  V30 24050 H 2249.7 -2.25943 1.94303 0
M  V30 24051 H 2247.23 -1.1076 0.968021 0
M  V30 24052 H 2249.19 -4.15755 0.346927 0
M  V30 24053 H 2247.82 -3.21442 -0.295746 0
M  V30 24054 H 2246.87 -3.15612 2.12351 0
M  V30 24055 H 2248.19 -4.25694 2.59973 0
M  V30 24056 H 2247.34 -5.98435 0.998029 0
M  V30 24057 H 2246.08 -4.85887 0.420131 0
M  V30 24058 H 2245.08 -4.77604 2.7235 0
M  V30 24059 H 2246.31 -5.93589 3.29891 0
M  V30 24060 H 2244.25 -6.46404 1.11793 0
M  V30 24061 H 2244.17 -7.04222 2.74968 0
M  V30 24062 H 2245.44 -7.60669 1.70302 0
M  V30 24063 N 2249.67 -1.04192 -1.18244 0
M  V30 24064 C 2250.62 -0.627831 -2.23967 0
M  V30 24065 C 2251.61 0.345989 -1.65829 0
M  V30 24066 O 2252.82 0.213143 -1.78734 0
M  V30 24067 H 2249.19 -0.184815 -0.728936 0
M  V30 24068 H 2251.16 -1.52985 -2.56199 0
M  V30 24069 C 2249.91 -0.00802703 -3.47699 0
M  V30 24070 H 2249.23 -0.748416 -3.92732 0
M  V30 24071 H 2250.67 0.244476 -4.23295 0
M  V30 24072 C 2249.13 1.2424 -3.13155 0
M  V30 24073 O 2249.66 2.33301 -3.27007 0
M  V30 24074 N 2247.87 1.13618 -2.67469 0
M  V30 24075 H 2247.42 0.248689 -2.56397 0
M  V30 24076 H 2247.37 1.97372 -2.44727 0
M  V30 24077 N 2251.15 1.34492 -0.821557 0
M  V30 24078 C 2252.09 2.29544 -0.240437 0
M  V30 24079 C 2253.06 1.53524 0.634004 0
M  V30 24080 O 2254.25 1.819 0.575934 0
M  V30 24081 C 2251.39 3.3997 0.592809 0
M  V30 24082 C 2250.5 4.30931 -0.303726 0
M  V30 24083 C 2249.64 5.28459 0.538956 0
M  V30 24084 C 2248.68 6.11058 -0.357049 0
M  V30 24085 N 2247.81 7.00679 0.44648 0
M  V30 24086 H 2252.65 2.78648 -1.05637 0
M  V30 24087 H 2250.19 1.37126 -0.532437 0
M  V30 24088 H 2252.15 4.02676 1.09122 0
M  V30 24089 H 2250.78 2.92104 1.37387 0
M  V30 24090 H 2249.83 3.69099 -0.92034 0
M  V30 24091 H 2251.14 4.88821 -0.992747 0
M  V30 24092 H 2250.3 5.9661 1.1019 0
M  V30 24093 H 2249.03 4.71103 1.26149 0
M  V30 24094 H 2248.04 5.41841 -0.932142 0
M  V30 24095 H 2249.26 6.70495 -1.07767 0
M  V30 24096 H 2247.21 6.45793 1.15271 0
M  V30 24097 H 2247.13 7.55776 -0.184181 0
M  V30 24098 H 2248.4 7.73159 0.992216 0
M  V30 24099 N 2252.62 0.576397 1.46681 0
M  V30 24100 C 2253.87 0.057318 2.01619 0
M  V30 24101 C 2254.19 -1.30815 1.45419 0
M  V30 24102 O 2255.39 -1.91822 1.92137 0
M  V30 24103 C 2253.85 0.0519003 3.59863 0
M  V30 24104 C 2253.46 1.4153 4.25057 0
M  V30 24105 C 2255.2 -0.413565 4.22481 0
M  V30 24106 C 2253.11 1.36795 5.75362 0
M  V30 24107 H 2252.04 0.017658 0.753793 0
M  V30 24108 H 2254.69 0.727106 1.6848 0
M  V30 24109 H 2253.07 -0.683925 3.90049 0
M  V30 24110 H 2254.24 2.17036 4.06488 0
M  V30 24111 H 2252.56 1.82027 3.74507 0
M  V30 24112 H 2255.16 -0.467685 5.32651 0
M  V30 24113 H 2255.5 -1.42975 3.90978 0
M  V30 24114 H 2256.03 0.267999 3.96896 0
M  V30 24115 H 2252.77 2.36074 6.11514 0
M  V30 24116 H 2252.29 0.655 5.96213 0
M  V30 24117 H 2253.97 1.07816 6.37953 0
M  V30 24118 N 2254.1 -1.54444 0.313841 0
M  V30 24119 C 2255.35 -2.01395 -0.284883 0
M  V30 24120 C 2255.7 -1.1982 -1.50535 0
M  V30 24121 O 2255 -0.269781 -1.89691 0
M  V30 24122 C 2255.19 -3.50865 -0.680324 0
M  V30 24123 C 2255.02 -4.46909 0.500277 0
M  V30 24124 C 2253.79 -4.9538 0.996336 0
M  V30 24125 C 2255.99 -4.96283 1.34937 0
M  V30 24126 N 2253.97 -5.75305 2.14236 0
M  V30 24127 C 2255.34 -5.74036 2.3427 0
M  V30 24128 C 2257.4 -4.78444 1.37826 0
M  V30 24129 C 2256.1 -6.3585 3.36284 0
M  V30 24130 C 2258.12 -5.41086 2.38705 0
M  V30 24131 C 2257.49 -6.18683 3.36766 0
M  V30 24132 H 2253.59 -0.779007 -0.0683552 0
M  V30 24133 H 2256.17 -1.89507 0.446673 0
M  V30 24134 H 2254.34 -3.63018 -1.38103 0
M  V30 24135 H 2256.07 -3.84596 -1.25968 0
M  V30 24136 H 2252.83 -4.70167 0.569203 0
M  V30 24137 H 2253.25 -6.19949 2.72016 0
M  V30 24138 H 2257.89 -4.18022 0.633821 0
M  V30 24139 H 2255.61 -6.95398 4.11639 0
M  V30 24140 H 2259.2 -5.29205 2.4173 0
M  V30 24141 H 2258.08 -6.66294 4.13547 0
M  V30 24142 N 2255.58 -0.0418125 -1.57545 0
M  V30 24143 C 2256.83 0.634987 -1.92603 0
M  V30 24144 C 2257.16 1.71044 -0.919657 0
M  V30 24145 O 2256.43 1.9442 0.055755 0
M  V30 24146 C 2256.72 1.23973 -3.38087 0
M  V30 24147 C 2256.57 0.172978 -4.49467 0
M  V30 24148 C 2257.89 2.1541 -3.83779 0
M  V30 24149 H 2255.01 0.229362 -0.700401 0
M  V30 24150 H 2257.65 -0.101666 -1.89728 0
M  V30 24151 H 2255.8 1.86756 -3.40667 0
M  V30 24152 H 2257.47 -0.458392 -4.59017 0
M  V30 24153 H 2255.72 -0.500072 -4.30908 0
M  V30 24154 H 2256.39 0.635957 -5.48324 0
M  V30 24155 H 2258.86 1.62599 -3.83016 0
M  V30 24156 H 2257.74 2.5467 -4.86245 0
M  V30 24157 H 2258 3.05042 -3.20003 0
M  V30 24158 N 2257.06 1.55891 0.231477 0
M  V30 24159 C 2258.01 1.92443 1.30646 0
M  V30 24160 C 2259 0.80528 1.49036 0
M  V30 24161 O 2260.21 0.990034 1.50327 0
M  V30 24162 H 2256.58 0.61142 0.437801 0
M  V30 24163 H 2258.55 2.82162 0.970923 0
M  V30 24164 C 2257.3 2.24894 2.65176 0
M  V30 24165 H 2256.62 3.10519 2.51829 0
M  V30 24166 H 2258.06 2.54361 3.39229 0
M  V30 24167 C 2256.52 1.0706 3.19437 0
M  V30 24168 O 2257.05 0.326569 4.0037 0
M  V30 24169 N 2255.26 0.857079 2.77673 0
M  V30 24170 H 2254.81 1.46383 2.11966 0
M  V30 24171 H 2254.76 0.0703775 3.14321 0
M  V30 24172 N 2258.54 -0.497781 1.49532 0
M  V30 24173 C 2259.45 -1.62529 1.69179 0
M  V30 24174 C 2260.46 -1.64245 0.574429 0
M  V30 24175 O 2261.64 -1.82606 0.849529 0
M  V30 24176 C 2258.7 -2.98882 1.757 0
M  V30 24177 C 2257.76 -3.07768 2.99295 0
M  V30 24178 C 2257 -4.37616 3.05496 0
M  V30 24179 O 2257.22 -5.26599 2.19201 0
M  V30 24180 O 2256.15 -4.51541 3.97988 0
M  V30 24181 H 2259.98 -1.48883 2.64703 0
M  V30 24182 H 2257.57 -0.674418 1.33312 0
M  V30 24183 H 2259.45 -3.79916 1.82324 0
M  V30 24184 H 2258.12 -3.12784 0.833555 0
M  V30 24185 H 2257.03 -2.2591 2.98187 0
M  V30 24186 H 2258.36 -2.98794 3.9113 0
M  V30 24187 N 2260.01 -1.38661 -0.749062 0
M  V30 24188 C 2261.26 -1.35116 -1.5083 0
M  V30 24189 C 2261.59 0.0573707 -1.94415 0
M  V30 24190 O 2260.84 1.03538 -1.66067 0
M  V30 24191 C 2261.14 -2.25702 -2.77116 0
M  V30 24192 C 2260.81 -3.7359 -2.52471 0
M  V30 24193 C 2259.47 -4.13888 -2.45458 0
M  V30 24194 C 2261.82 -4.67185 -2.31057 0
M  V30 24195 C 2259.15 -5.45865 -2.15054 0
M  V30 24196 C 2261.5 -5.99424 -2.02173 0
M  V30 24197 C 2260.17 -6.38802 -1.9362 0
M  V30 24198 H 2259.44 -0.494426 -0.551927 0
M  V30 24199 H 2262.08 -1.71055 -0.860949 0
M  V30 24200 H 2260.39 -1.82833 -3.46524 0
M  V30 24201 H 2262.09 -2.2026 -3.35092 0
M  V30 24202 H 2258.68 -3.41643 -2.58801 0
M  V30 24203 H 2262.86 -4.36894 -2.35451 0
M  V30 24204 H 2258.12 -5.75312 -2.06944 0
M  V30 24205 H 2262.29 -6.71485 -1.84609 0
M  V30 24206 H 2259.92 -7.40988 -1.69826 0
M  V30 24207 N 2261.49 0.977736 -1.23605 0
M  V30 24208 C 2262.91 1.24446 -0.999273 0
M  V30 24209 C 2263.11 1.99284 0.298018 0
M  V30 24210 O 2262.17 2.31123 1.01677 0
M  V30 24211 C 2263.48 2.0414 -2.20788 0
M  V30 24212 C 2265.03 2.17269 -2.25306 0
M  V30 24213 C 2265.5 3.00356 -3.4576 0
M  V30 24214 N 2266.99 3.0794 -3.46016 0
M  V30 24215 C 2267.73 3.7256 -4.35874 0
M  V30 24216 N 2267.22 4.38981 -5.35973 0
M  V30 24217 N 2269.02 3.69473 -4.23611 0
M  V30 24218 H 2261.17 0.476447 -2.06987 0
M  V30 24219 H 2263.43 0.273118 -0.907805 0
M  V30 24220 H 2263.14 1.56527 -3.14948 0
M  V30 24221 H 2263.01 3.04887 -2.2209 0
M  V30 24222 H 2265.4 2.64089 -1.31684 0
M  V30 24223 H 2265.48 1.15903 -2.28035 0
M  V30 24224 H 2265.12 2.54232 -4.39691 0
M  V30 24225 H 2265.05 4.01898 -3.40273 0
M  V30 24226 H 2267.54 2.60683 -2.73592 0
M  V30 24227 H 2267.86 4.86076 -6.00791 0
M  V30 24228 H 2266.2 4.37681 -5.3987 0
M  V30 24229 H 2269.39 3.16753 -3.44652 0
M  V30 24230 H 2269.57 4.19551 -4.93843 0
M  V30 24231 N 2262.97 1.04818 1.1769 0
M  V30 24232 C 2264.2 0.775162 1.91507 0
M  V30 24233 C 2264.61 -0.672498 1.76845 0
M  V30 24234 O 2263.95 -1.4708 1.10059 0
M  V30 24235 C 2264.01 1.07136 3.43165 0
M  V30 24236 C 2263.68 2.51445 3.81608 0
M  V30 24237 C 2264.68 3.49644 3.84766 0
M  V30 24238 C 2262.36 2.86355 4.12682 0
M  V30 24239 C 2264.35 4.80801 4.1846 0
M  V30 24240 C 2262.04 4.17716 4.46046 0
M  V30 24241 C 2263.04 5.14749 4.48912 0
M  V30 24242 O 2262.73 6.43755 4.81493 0
M  V30 24243 H 2262.46 0.281566 0.61457 0
M  V30 24244 H 2265.01 1.40101 1.50203 0
M  V30 24245 H 2263.24 0.38841 3.84744 0
M  V30 24246 H 2264.93 0.784953 3.98238 0
M  V30 24247 H 2265.7 3.24014 3.60888 0
M  V30 24248 H 2261.58 2.11494 4.09624 0
M  V30 24249 H 2265.12 5.56535 4.20613 0
M  V30 24250 H 2261.02 4.43111 4.69386 0
M  V30 24251 H 2261.79 6.48519 4.99365 0
M  V30 24252 N 2264.45 -1.34055 0.828678 0
M  V30 24253 C 2265.7 -1.97716 0.418665 0
M  V30 24254 C 2266.02 -1.66004 -1.02311 0
M  V30 24255 O 2265.29 -0.953713 -1.71117 0
M  V30 24256 H 2263.87 -0.731409 0.151822 0
M  V30 24257 H 2266.53 -1.63594 1.05939 0
M  V30 24258 H 2265.63 -3.07351 0.542372 0
M  V30 24259 N 2265.93 -0.584167 -1.46374 0
M  V30 24260 C 2267.18 -0.0701642 -2.01978 0
M  V30 24261 C 2267.5 1.29497 -1.45792 0
M  V30 24262 O 2266.77 1.85041 -0.643172 0
M  V30 24263 H 2265.35 -0.0229476 -0.746647 0
M  V30 24264 H 2268.01 -0.760277 -1.7946 0
M  V30 24265 H 2267.1 -0.00226126 -3.121 0
M  V30 24266 N 2267.41 1.54275 -0.322027 0
M  V30 24267 C 2268.65 2.00541 0.281009 0
M  V30 24268 C 2268.98 1.21022 1.52263 0
M  V30 24269 O 2268.24 0.280016 1.93686 0
M  V30 24270 C 2268.53 3.51221 0.661707 0
M  V30 24271 C 2268.2 4.48332 -0.48056 0
M  V30 24272 C 2266.86 4.74603 -0.794088 0
M  V30 24273 C 2269.21 5.0604 -1.24792 0
M  V30 24274 C 2266.54 5.5584 -1.87773 0
M  V30 24275 C 2268.89 5.88458 -2.32164 0
M  V30 24276 C 2267.56 6.13031 -2.641 0
M  V30 24277 H 2266.83 0.733831 0.102828 0
M  V30 24278 H 2269.48 1.86246 -0.445486 0
M  V30 24279 H 2267.78 3.63234 1.4686 0
M  V30 24280 H 2269.48 3.84459 1.13982 0
M  V30 24281 H 2266.07 4.28003 -0.226114 0
M  V30 24282 H 2270.25 4.85727 -1.01896 0
M  V30 24283 H 2265.51 5.73111 -2.12964 0
M  V30 24284 H 2269.68 6.32194 -2.92068 0
M  V30 24285 H 2267.31 6.75769 -3.48196 0
M  V30 24286 N 2268.88 0.0501669 1.5752 0
M  V30 24287 C 2270.11 -0.636962 1.97377 0
M  V30 24288 C 2270.53 -1.63643 0.927495 0
M  V30 24289 O 2269.89 -1.8097 -0.109378 0
M  V30 24290 C 2269.94 -1.30117 3.36306 0
M  V30 24291 O 2269.04 -2.41683 3.3416 0
M  V30 24292 H 2268.38 -0.165667 0.643001 0
M  V30 24293 H 2270.91 0.118269 2.04258 0
M  V30 24294 H 2270.92 -1.65309 3.73011 0
M  V30 24295 H 2269.6 -0.568673 4.11994 0
M  V30 24296 H 2268.18 -2.08446 3.092 0
M  V30 24297 N 2270.36 -1.56011 -0.223207 0
M  V30 24298 C 2271.29 -1.953 -1.27984 0
M  V30 24299 C 2272.27 -0.821005 -1.48975 0
M  V30 24300 O 2273.46 -1.08318 -1.61186 0
M  V30 24301 C 2270.59 -2.26827 -2.62996 0
M  V30 24302 C 2269.54 -3.42501 -2.56665 0
M  V30 24303 C 2268.87 -3.59629 -3.95691 0
M  V30 24304 C 2270.17 -4.77521 -2.11592 0
M  V30 24305 H 2271.86 -2.83812 -0.953475 0
M  V30 24306 H 2269.41 -1.36549 -0.45722 0
M  V30 24307 H 2271.36 -2.52904 -3.37072 0
M  V30 24308 H 2270.08 -1.35167 -2.97317 0
M  V30 24309 H 2268.74 -3.16471 -1.85046 0
M  V30 24310 H 2268.39 -2.65347 -4.27317 0
M  V30 24311 H 2268.09 -4.37431 -3.92337 0
M  V30 24312 H 2269.62 -3.88052 -4.71432 0
M  V30 24313 H 2271.03 -5.02814 -2.75411 0
M  V30 24314 H 2269.43 -5.58594 -2.19301 0
M  V30 24315 H 2270.5 -4.72989 -1.06816 0
M  V30 24316 N 2271.84 0.489844 -1.49794 0
M  V30 24317 C 2273.09 1.24079 -1.59527 0
M  V30 24318 C 2273.41 1.92847 -0.288987 0
M  V30 24319 O 2272.68 1.83256 0.692403 0
M  V30 24320 H 2271.26 0.460973 -0.587804 0
M  V30 24321 H 2273.92 0.566746 -1.86478 0
M  V30 24322 H 2273.02 1.99876 -2.397 0
M  V30 24323 N 2273.32 1.39056 0.741698 0
M  V30 24324 C 2274.56 1.36116 1.50334 0
M  V30 24325 C 2274.9 -0.0450455 1.94148 0
M  V30 24326 O 2274.17 -1.00865 1.66302 0
M  V30 24327 C 2274.45 2.32754 2.74768 0
M  V30 24328 C 2274.31 3.82287 2.37017 0
M  V30 24329 C 2275.63 2.27328 3.76842 0
M  V30 24330 H 2272.75 0.495753 0.545342 0
M  V30 24331 H 2275.39 1.69997 0.848595 0
M  V30 24332 H 2273.54 2.03991 3.30635 0
M  V30 24333 H 2275.21 4.21771 1.86833 0
M  V30 24334 H 2273.45 3.99388 1.69327 0
M  V30 24335 H 2274.12 4.45382 3.26097 0
M  V30 24336 H 2276.6 2.52745 3.30543 0
M  V30 24337 H 2275.48 2.97037 4.61585 0
M  V30 24338 H 2275.74 1.27606 4.23284 0
M  V30 24339 N 2274.8 -0.971167 1.24121 0
M  V30 24340 C 2276.02 -1.75405 1.1067 0
M  V30 24341 C 2276.45 -1.85056 -0.337016 0
M  V30 24342 O 2275.8 -1.31894 -1.24393 0
M  V30 24343 C 2275.85 -3.15438 1.74732 0
M  V30 24344 O 2274.96 -3.99696 1.01573 0
M  V30 24345 H 2274.3 -0.53931 0.387351 0
M  V30 24346 H 2276.83 -1.21847 1.6436 0
M  V30 24347 H 2276.84 -3.65976 1.80348 0
M  V30 24348 H 2275.51 -3.07729 2.79778 0
M  V30 24349 H 2274.09 -3.58185 1.03719 0
M  V30 24350 N 2276.27 -1.05441 -1.17133 0
M  V30 24351 C 2277.22 -0.65155 -2.23288 0
M  V30 24352 C 2278.22 0.328382 -1.66187 0
M  V30 24353 O 2279.42 0.194174 -1.7895 0
M  V30 24354 H 2275.8 -0.192536 -0.726935 0
M  V30 24355 H 2277.77 -1.55694 -2.54562 0
M  V30 24356 C 2276.52 -0.0449047 -3.47671 0
M  V30 24357 H 2275.84 -0.790029 -3.91917 0
M  V30 24358 H 2277.28 0.199566 -4.2353 0
M  V30 24359 C 2275.74 1.20912 -3.14455 0
M  V30 24360 O 2276.27 2.29819 -3.29463 0
M  V30 24361 N 2274.48 1.10774 -2.68659 0
M  V30 24362 H 2274.02 0.221481 -2.56646 0
M  V30 24363 H 2273.98 1.94766 -2.46807 0
M  V30 24364 N 2277.75 1.33613 -0.835776 0
M  V30 24365 C 2278.98 2.02093 -0.443379 0
M  V30 24366 C 2279.4 1.62895 0.954493 0
M  V30 24367 O 2278.75 0.840752 1.6198 0
M  V30 24368 C 2278.8 3.57279 -0.550838 0
M  V30 24369 O 2278.52 3.95061 -1.89363 0
M  V30 24370 C 2280.03 4.43029 -0.154997 0
M  V30 24371 H 2277.25 0.647406 -0.17637 0
M  V30 24372 H 2279.79 1.7061 -1.12749 0
M  V30 24373 H 2277.94 3.87306 0.0853316 0
M  V30 24374 H 2278.36 4.89766 -1.87696 0
M  V30 24375 H 2279.83 5.51283 -0.281241 0
M  V30 24376 H 2280.31 4.29821 0.902788 0
M  V30 24377 H 2280.92 4.18355 -0.765477 0
M  V30 24378 N 2279.23 0.591922 1.46062 0
M  V30 24379 C 2280.16 -0.173961 2.28539 0
M  V30 24380 C 2281.18 -0.846729 1.39048 0
M  V30 24381 O 2282.36 -0.714745 1.63565 0
M  V30 24382 C 2279.46 -1.2664 3.14349 0
M  V30 24383 C 2278.64 -0.68378 4.32022 0
M  V30 24384 C 2277.7 -1.6651 4.9916 0
M  V30 24385 O 2276.72 -1.19753 5.5646 0
M  V30 24386 N 2277.92 -2.99934 4.97011 0
M  V30 24387 H 2280.69 0.533685 2.9491 0
M  V30 24388 H 2278.25 0.430321 1.56076 0
M  V30 24389 H 2280.24 -1.92235 3.56129 0
M  V30 24390 H 2278.81 -1.87678 2.49992 0
M  V30 24391 H 2278.03 0.149869 3.93915 0
M  V30 24392 H 2279.32 -0.274477 5.08059 0
M  V30 24393 H 2278.72 -3.40537 4.5172 0
M  V30 24394 H 2277.28 -3.60995 5.42703 0
M  V30 24395 N 2280.71 -1.54102 0.330204 0
M  V30 24396 C 2281.67 -2.23221 -0.520105 0
M  V30 24397 C 2282.67 -1.22788 -1.03826 0
M  V30 24398 O 2283.86 -1.47321 -0.929626 0
M  V30 24399 C 2280.99 -2.94145 -1.72312 0
M  V30 24400 H 2282.19 -2.99782 0.0842132 0
M  V30 24401 H 2279.74 -1.56088 0.0813707 0
M  V30 24402 H 2280.47 -2.21738 -2.36649 0
M  V30 24403 H 2280.26 -3.67799 -1.35892 0
M  V30 24404 H 2281.75 -3.46788 -2.32654 0
M  V30 24405 N 2282.19 -0.0585199 -1.57491 0
M  V30 24406 C 2283.12 0.91114 -2.1499 0
M  V30 24407 C 2284.1 1.3195 -1.07346 0
M  V30 24408 O 2285.28 1.39292 -1.3532 0
M  V30 24409 C 2282.41 2.18342 -2.70082 0
M  V30 24410 C 2281.37 1.91489 -3.82774 0
M  V30 24411 C 2280.69 3.25234 -4.24414 0
M  V30 24412 C 2281.99 1.23066 -5.07594 0
M  V30 24413 H 2283.69 0.432194 -2.96264 0
M  V30 24414 H 2281.23 0.206444 -1.42512 0
M  V30 24415 H 2283.19 2.86582 -3.08948 0
M  V30 24416 H 2281.91 2.68455 -1.86009 0
M  V30 24417 H 2280.57 1.25658 -3.44392 0
M  V30 24418 H 2280.22 3.73162 -3.37282 0
M  V30 24419 H 2279.92 3.08062 -5.00371 0
M  V30 24420 H 2281.44 3.94693 -4.65886 0
M  V30 24421 H 2282.85 1.81353 -5.4386 0
M  V30 24422 H 2281.25 1.16197 -5.88743 0
M  V30 24423 H 2282.32 0.207762 -4.84455 0
M  V30 24424 N 2283.66 1.56128 0.21493 0
M  V30 24425 C 2285.08 1.69563 0.781357 0
M  V30 24426 C 2285.43 0.661682 1.84706 0
M  V30 24427 O 2284.55 -0.18589 2.156 0
M  V30 24428 C 2285.15 3.07418 1.42406 0
M  V30 24429 C 2283.71 3.22686 1.9378 0
M  V30 24430 C 2282.85 2.65498 0.800391 0
M  V30 24431 H 2285.8 1.58697 -0.00983423 0
M  V30 24432 H 2285.82 3.03644 2.29304 0
M  V30 24433 H 2285.34 3.82649 0.648192 0
M  V30 24434 H 2283.44 2.52336 2.74148 0
M  V30 24435 H 2283.55 4.29976 2.11322 0
M  V30 24436 H 2281.91 2.24152 1.20946 0
M  V30 24437 H 2282.7 3.4328 0.0370867 0
M  V30 24438 N 2285.14 -0.481893 1.50052 0
M  V30 24439 C 2286.55 -1.06303 1.53482 0
M  V30 24440 C 2286.9 -1.9337 0.332031 0
M  V30 24441 O 2286.03 -2.0913 -0.556219 0
M  V30 24442 C 2286.62 -1.93461 2.78133 0
M  V30 24443 C 2285.18 -2.46702 2.8428 0
M  V30 24444 C 2284.33 -1.2478 2.47639 0
M  V30 24445 H 2287.28 -0.264968 1.56472 0
M  V30 24446 H 2287.3 -2.78395 2.59377 0
M  V30 24447 H 2286.81 -1.30065 3.65656 0
M  V30 24448 H 2284.92 -3.13682 2.01082 0
M  V30 24449 H 2285.03 -2.82548 3.86915 0
M  V30 24450 H 2283.39 -1.57915 1.99837 0
M  V30 24451 H 2284.18 -0.630634 3.37458 0
M  V30 24452 N 2286.62 -1.39448 -0.734313 0
M  V30 24453 C 2287.85 -1.4017 -1.52864 0
M  V30 24454 C 2288.27 0.00168206 -1.881 0
M  V30 24455 O 2287.63 0.988853 -1.51959 0
M  V30 24456 C 2287.68 -2.28171 -2.79231 0
M  V30 24457 O 2286.78 -1.71207 -3.75182 0
M  V30 24458 H 2286.12 -0.477298 -0.461609 0
M  V30 24459 H 2288.65 -1.83451 -0.905916 0
M  V30 24460 H 2288.66 -2.42708 -3.27959 0
M  V30 24461 H 2287.34 -3.3016 -2.52917 0
M  V30 24462 H 2285.91 -1.65918 -3.33955 0
M  V30 24463 N 2288.1 0.964571 -1.24635 0
M  V30 24464 C 2289.03 2.06266 -0.999339 0
M  V30 24465 C 2290.04 1.62768 0.032294 0
M  V30 24466 O 2291.23 1.77318 -0.20511 0
M  V30 24467 C 2288.33 3.35384 -0.486875 0
M  V30 24468 C 2287.51 4.07774 -1.58237 0
M  V30 24469 C 2286.56 5.15165 -1.07201 0
M  V30 24470 O 2285.59 5.41165 -1.76435 0
M  V30 24471 N 2286.79 5.80427 0.0919352 0
M  V30 24472 H 2289.56 2.28029 -1.94481 0
M  V30 24473 H 2287.12 1.13242 -1.15706 0
M  V30 24474 H 2289.11 4.04491 -0.130138 0
M  V30 24475 H 2287.68 3.10469 0.364405 0
M  V30 24476 H 2286.9 3.32903 -2.11115 0
M  V30 24477 H 2288.19 4.52899 -2.31862 0
M  V30 24478 H 2287.59 5.6171 0.670685 0
M  V30 24479 H 2286.14 6.50633 0.389791 0
M  V30 24480 N 2289.58 1.0606 1.16572 0
M  V30 24481 C 2290.49 0.680321 2.24519 0
M  V30 24482 C 2291.5 -0.302574 1.71349 0
M  V30 24483 O 2292.68 -0.152478 2.00822 0
M  V30 24484 C 2289.74 0.0700925 3.46629 0
M  V30 24485 C 2288.8 1.10455 4.14847 0
M  V30 24486 C 2288.04 0.523349 5.31128 0
M  V30 24487 O 2288.26 -0.664609 5.66515 0
M  V30 24488 O 2287.19 1.26189 5.88523 0
M  V30 24489 H 2291.02 1.58019 2.59352 0
M  V30 24490 H 2288.61 0.832715 1.24041 0
M  V30 24491 H 2290.49 -0.268593 4.20543 0
M  V30 24492 H 2289.16 -0.803298 3.13574 0
M  V30 24493 H 2288.07 1.49538 3.42913 0
M  V30 24494 H 2289.4 1.94939 4.51951 0
M  V30 24495 N 2291.06 -1.33168 0.84285 0
M  V30 24496 C 2292.3 -1.97944 0.441134 0
M  V30 24497 C 2292.63 -1.66594 -0.997994 0
M  V30 24498 O 2291.91 -0.947927 -1.69837 0
M  V30 24499 C 2292.19 -3.53871 0.666903 0
M  V30 24500 C 2292.05 -3.94893 2.15359 0
M  V30 24501 C 2293.36 -4.39948 0.115622 0
M  V30 24502 H 2290.48 -0.719031 0.161752 0
M  V30 24503 H 2293.13 -1.57744 1.0591 0
M  V30 24504 H 2291.28 -3.88244 0.140896 0
M  V30 24505 H 2292.95 -3.70756 2.74477 0
M  V30 24506 H 2291.19 -3.4448 2.63659 0
M  V30 24507 H 2291.86 -5.03512 2.2623 0
M  V30 24508 H 2294.34 -4.12242 0.565286 0
M  V30 24509 H 2293.21 -5.48062 0.303249 0
M  V30 24510 H 2293.47 -4.31082 -0.980859 0
M  V30 24511 N 2292.53 -0.599659 -1.45746 0
M  V30 24512 C 2293.48 0.136386 -2.322 0
M  V30 24513 C 2294.48 0.867557 -1.45498 0
M  V30 24514 O 2295.68 0.784022 -1.62028 0
M  V30 24515 H 2292.06 0.0628457 -0.749369 0
M  V30 24516 H 2294.03 -0.611333 -2.92071 0
M  V30 24517 C 2292.78 1.12561 -3.28976 0
M  V30 24518 H 2292.1 0.572414 -3.95681 0
M  V30 24519 H 2293.54 1.6107 -3.92215 0
M  V30 24520 C 2292 2.19518 -2.55565 0
M  V30 24521 O 2292.53 3.27139 -2.33116 0
M  V30 24522 N 2290.73 1.94586 -2.15835 0
M  V30 24523 H 2290.28 1.07074 -2.34292 0
M  V30 24524 H 2290.24 2.66356 -1.67039 0
M  V30 24525 N 2294.01 1.53925 -0.338371 0
M  V30 24526 C 2295.29 1.93051 0.31474 0
M  V30 24527 C 2295.67 1.26944 1.68667 0
M  V30 24528 O 2295.02 0.418484 2.24635 0
M  V30 24529 C 2295.23 3.46789 0.392188 0
M  V30 24530 C 2296.57 4.19665 0.645481 0
M  V30 24531 O 2297.6 3.53025 0.474513 0
M  V30 24532 O 2296.46 5.37708 0.976314 0
M  V30 24533 H 2293.55 0.806593 0.182584 0
M  V30 24534 H 2296.1 1.65177 -0.38917 0
M  V30 24535 H 2294.87 3.87115 -0.57077 0
M  V30 24536 H 2294.49 3.80814 1.14309 0
M  V30 24537 N 2295.49 0.0668712 1.57458 0
M  V30 24538 C 2296.45 -0.887385 2.11325 0
M  V30 24539 C 2297.45 -1.22962 1.0362 0
M  V30 24540 O 2298.64 -1.16371 1.29628 0
M  V30 24541 C 2295.77 -2.19237 2.61051 0
M  V30 24542 H 2296.97 -0.420142 2.96942 0
M  V30 24543 H 2294.52 -0.181765 1.5524 0
M  V30 24544 H 2295.26 -2.70509 1.78873 0
M  V30 24545 H 2295.04 -1.95696 3.39773 0
M  V30 24546 H 2296.53 -2.87559 3.02819 0
M  V30 24547 N 2296.97 -1.56239 -0.206647 0
M  V30 24548 C 2298.22 -1.79139 -0.926933 0
M  V30 24549 C 2298.53 -0.638076 -1.849 0
M  V30 24550 O 2299.74 -0.751079 -2.60904 0
M  V30 24551 C 2298.19 -3.17297 -1.69854 0
M  V30 24552 C 2297.8 -4.40397 -0.821878 0
M  V30 24553 C 2299.54 -3.49514 -2.40915 0
M  V30 24554 C 2297.45 -5.69578 -1.59169 0
M  V30 24555 H 2296.38 -0.667922 -0.349852 0
M  V30 24556 H 2299.03 -1.82611 -0.180455 0
M  V30 24557 H 2297.41 -3.08043 -2.48848 0
M  V30 24558 H 2298.59 -4.60745 -0.0714209 0
M  V30 24559 H 2296.9 -4.15804 -0.222668 0
M  V30 24560 H 2299.5 -4.4326 -2.99039 0
M  V30 24561 H 2299.84 -2.72712 -3.14537 0
M  V30 24562 H 2300.38 -3.60164 -1.68899 0
M  V30 24563 H 2297.11 -6.49313 -0.898475 0
M  V30 24564 H 2296.63 -5.53267 -2.31638 0
M  V30 24565 H 2298.31 -6.10285 -2.14851 0
M  V30 24566 N 2298.45 0.473929 -1.50305 0
M  V30 24567 C 2299.39 1.57228 -1.68961 0
M  V30 24568 C 2300.36 1.57386 -0.530927 0
M  V30 24569 O 2301.55 1.7496 -0.761164 0
M  V30 24570 C 2298.69 2.9522 -1.78715 0
M  V30 24571 C 2297.8 3.04872 -3.06067 0
M  V30 24572 C 2296.94 4.33762 -3.06633 0
M  V30 24573 C 2295.97 4.37146 -4.2845 0
M  V30 24574 N 2295.11 5.57503 -4.26773 0
M  V30 24575 H 2299.95 1.40626 -2.62732 0
M  V30 24576 H 2297.49 0.683766 -1.30242 0
M  V30 24577 H 2299.45 3.75239 -1.82351 0
M  V30 24578 H 2298.08 3.10464 -0.88386 0
M  V30 24579 H 2297.13 2.17745 -3.11915 0
M  V30 24580 H 2298.44 3.03233 -3.96045 0
M  V30 24581 H 2297.59 5.22125 -3.08983 0
M  V30 24582 H 2296.33 4.38006 -2.1448 0
M  V30 24583 H 2295.34 3.47181 -4.26316 0
M  V30 24584 H 2296.56 4.34595 -5.21827 0
M  V30 24585 H 2294.51 5.62538 -3.37472 0
M  V30 24586 H 2294.43 5.57592 -5.10516 0
M  V30 24587 H 2295.69 6.47999 -4.33264 0
M  V30 24588 N 2299.92 1.39835 0.726907 0
M  V30 24589 C 2300.86 1.35108 1.85145 0
M  V30 24590 C 2301.87 0.25842 1.60736 0
M  V30 24591 O 2303.06 0.517961 1.7082 0
M  V30 24592 C 2300.16 1.07703 3.21331 0
M  V30 24593 C 2299.33 2.28403 3.73029 0
M  V30 24594 C 2298.39 1.97331 4.87798 0
M  V30 24595 O 2297.42 2.70092 5.01038 0
M  V30 24596 N 2298.62 0.944373 5.72767 0
M  V30 24597 H 2301.38 2.3202 1.89702 0
M  V30 24598 H 2298.94 1.34042 0.907983 0
M  V30 24599 H 2300.94 0.849213 3.9569 0
M  V30 24600 H 2299.51 0.194964 3.11991 0
M  V30 24601 H 2298.73 2.67085 2.8993 0
M  V30 24602 H 2300.01 3.08894 4.04304 0
M  V30 24603 H 2299.41 0.341526 5.64668 0
M  V30 24604 H 2297.97 0.77646 6.47159 0
M  V30 24605 N 2301.4 -0.957948 1.25144 0
M  V30 24606 C 2302.33 -2.05336 0.995601 0
M  V30 24607 C 2303.31 -1.62431 -0.0740137 0
M  V30 24608 O 2304.5 -1.88388 0.0649543 0
M  V30 24609 C 2301.62 -3.34924 0.504356 0
M  V30 24610 C 2300.67 -3.96789 1.564 0
M  V30 24611 S 2301.5 -4.33182 3.14823 0
M  V30 24612 C 2302.66 -5.65893 2.67425 0
M  V30 24613 H 2302.89 -2.26723 1.92313 0
M  V30 24614 H 2300.42 -1.09715 1.08637 0
M  V30 24615 H 2302.38 -4.09869 0.227569 0
M  V30 24616 H 2301.04 -3.11509 -0.402617 0
M  V30 24617 H 2300.24 -4.9021 1.17091 0
M  V30 24618 H 2299.84 -3.28312 1.7913 0
M  V30 24619 H 2302.13 -6.43856 2.10844 0
M  V30 24620 H 2303.07 -6.10069 3.59473 0
M  V30 24621 H 2303.48 -5.24968 2.0753 0
M  V30 24622 N 2302.88 -1.06677 -1.16008 0
M  V30 24623 C 2303.83 -0.681006 -2.20524 0
M  V30 24624 C 2304.8 0.324255 -1.62904 0
M  V30 24625 O 2305.98 0.21226 -1.89616 0
M  V30 24626 C 2303.12 -0.0777158 -3.45012 0
M  V30 24627 C 2302.23 -1.13362 -4.16861 0
M  V30 24628 C 2301.37 -0.496063 -5.28879 0
M  V30 24629 C 2300.41 -1.53524 -5.92534 0
M  V30 24630 N 2299.55 -0.920754 -6.96036 0
M  V30 24631 H 2304.39 -1.57667 -2.52874 0
M  V30 24632 H 2301.92 -0.788245 -1.24198 0
M  V30 24633 H 2303.88 0.28963 -4.16193 0
M  V30 24634 H 2302.51 0.781338 -3.13201 0
M  V30 24635 H 2301.56 -1.61863 -3.44245 0
M  V30 24636 H 2302.87 -1.92182 -4.6029 0
M  V30 24637 H 2302.03 -0.0759671 -6.06652 0
M  V30 24638 H 2300.77 0.323976 -4.86623 0
M  V30 24639 H 2299.77 -1.96519 -5.13479 0
M  V30 24640 H 2301 -2.35744 -6.36869 0
M  V30 24641 H 2298.94 -0.121495 -6.55887 0
M  V30 24642 H 2298.86 -1.64629 -7.37857 0
M  V30 24643 H 2300.13 -0.525932 -7.77724 0
M  V30 24644 N 2304.36 1.32719 -0.8499 0
M  V30 24645 C 2305.3 2.28983 -0.289073 0
M  V30 24646 C 2306.27 1.54834 0.601297 0
M  V30 24647 O 2307.46 1.83081 0.537221 0
M  V30 24648 C 2304.6 3.41151 0.520563 0
M  V30 24649 C 2303.71 4.3019 -0.395064 0
M  V30 24650 C 2302.85 5.29483 0.426741 0
M  V30 24651 C 2301.89 6.10163 -0.486583 0
M  V30 24652 N 2301.02 7.01468 0.297755 0
M  V30 24653 H 2305.86 2.76345 -1.11524 0
M  V30 24654 H 2303.4 1.35966 -0.561403 0
M  V30 24655 H 2305.36 4.049 1.00556 0
M  V30 24656 H 2303.99 2.94952 1.3116 0
M  V30 24657 H 2303.04 3.67064 -0.998425 0
M  V30 24658 H 2304.35 4.86605 -1.09621 0
M  V30 24659 H 2303.51 5.98813 0.9751 0
M  V30 24660 H 2302.25 4.73673 1.16127 0
M  V30 24661 H 2301.25 5.39741 -1.04686 0
M  V30 24662 H 2302.48 6.68058 -1.21965 0
M  V30 24663 H 2300.42 6.48093 1.01547 0
M  V30 24664 H 2300.34 7.55215 -0.34445 0
M  V30 24665 H 2301.61 7.7509 0.827994 0
M  V30 24666 N 2305.84 0.60738 1.45426 0
M  V30 24667 C 2306.79 -0.132998 2.27612 0
M  V30 24668 C 2307.77 -0.838761 1.37308 0
M  V30 24669 O 2308.96 -0.728785 1.613 0
M  V30 24670 C 2306.09 -1.12985 3.24175 0
M  V30 24671 C 2305.18 -0.424937 4.21966 0
M  V30 24672 N 2305.57 0.533305 5.02981 0
M  V30 24673 C 2303.87 -0.672516 4.409 0
M  V30 24674 C 2304.57 0.947619 5.7393 0
M  V30 24675 N 2303.54 0.291416 5.42818 0
M  V30 24676 H 2307.35 0.602986 2.87648 0
M  V30 24677 H 2304.86 0.431034 1.56575 0
M  V30 24678 H 2306.86 -1.67466 3.81786 0
M  V30 24679 H 2305.52 -1.86639 2.65699 0
M  V30 24680 H 2306.53 0.91004 5.09842 0
M  V30 24681 H 2303.2 -1.39375 3.93549 0
M  V30 24682 H 2304.59 1.73793 6.49034 0
M  V30 24683 N 2307.31 -1.53743 0.34653 0
M  V30 24684 C 2308.24 -2.28059 -0.501153 0
M  V30 24685 C 2309.23 -1.29736 -1.10011 0
M  V30 24686 O 2310.41 -1.58583 -1.12094 0
M  V30 24687 C 2307.54 -3.05562 -1.65073 0
M  V30 24688 C 2306.49 -4.11413 -1.17996 0
M  V30 24689 C 2305.82 -4.76889 -2.41829 0
M  V30 24690 C 2307.12 -5.21558 -0.278303 0
M  V30 24691 H 2308.81 -2.99164 0.118803 0
M  V30 24692 H 2306.36 -1.43881 0.0585784 0
M  V30 24693 H 2308.31 -3.56291 -2.25022 0
M  V30 24694 H 2307.04 -2.32113 -2.29763 0
M  V30 24695 H 2305.7 -3.61602 -0.603268 0
M  V30 24696 H 2305.34 -4.00031 -3.04933 0
M  V30 24697 H 2305.04 -5.48405 -2.1101 0
M  V30 24698 H 2306.57 -5.30403 -3.02499 0
M  V30 24699 H 2307.98 -5.67904 -0.784723 0
M  V30 24700 H 2306.38 -6.00068 -0.0618652 0
M  V30 24701 H 2307.45 -4.80041 0.684761 0
M  V30 24702 N 2308.79 -0.0752207 -1.5742 0
M  V30 24703 C 2309.74 0.890806 -2.12916 0
M  V30 24704 C 2310.71 1.29307 -1.04254 0
M  V30 24705 O 2311.89 1.37832 -1.31935 0
M  V30 24706 C 2309.03 2.15181 -2.69798 0
M  V30 24707 C 2308.15 1.80188 -3.92628 0
M  V30 24708 C 2307.28 3.00925 -4.37741 0
M  V30 24709 C 2306.32 2.61965 -5.5321 0
M  V30 24710 N 2305.46 3.75472 -5.93266 0
M  V30 24711 H 2310.3 0.410683 -2.95157 0
M  V30 24712 H 2307.84 0.191061 -1.45854 0
M  V30 24713 H 2309.79 2.89003 -3.00888 0
M  V30 24714 H 2308.42 2.60728 -1.90318 0
M  V30 24715 H 2307.48 0.964153 -3.67979 0
M  V30 24716 H 2308.79 1.47526 -4.76485 0
M  V30 24717 H 2307.94 3.83021 -4.7051 0
M  V30 24718 H 2306.68 3.36783 -3.52745 0
M  V30 24719 H 2305.69 1.7829 -5.20089 0
M  V30 24720 H 2306.91 2.27273 -6.3994 0
M  V30 24721 H 2304.86 4.11085 -5.11219 0
M  V30 24722 H 2304.77 3.4659 -6.71872 0
M  V30 24723 H 2306.04 4.58137 -6.30659 0
M  V30 24724 N 2310.27 1.56347 0.198358 0
M  V30 24725 C 2311.2 1.97312 1.24861 0
M  V30 24726 C 2312.18 0.844602 1.4765 0
M  V30 24727 O 2313.37 1.10868 1.59442 0
M  V30 24728 C 2310.5 2.30982 2.59354 0
M  V30 24729 C 2309.45 3.46541 2.51183 0
M  V30 24730 C 2308.78 3.65878 3.8992 0
M  V30 24731 C 2310.08 4.80826 2.03969 0
M  V30 24732 H 2311.77 2.85293 0.908202 0
M  V30 24733 H 2309.32 1.37259 0.435438 0
M  V30 24734 H 2311.27 2.58234 3.33006 0
M  V30 24735 H 2309.99 1.3988 2.95129 0
M  V30 24736 H 2308.65 3.19374 1.79988 0
M  V30 24737 H 2308.3 2.72112 4.23041 0
M  V30 24738 H 2308 4.43617 3.85328 0
M  V30 24739 H 2309.52 3.95503 4.65198 0
M  V30 24740 H 2310.94 5.07132 2.67377 0
M  V30 24741 H 2309.34 5.62012 2.10387 0
M  V30 24742 H 2310.41 4.74628 0.992778 0
M  V30 24743 N 2311.75 -0.465951 1.50554 0
M  V30 24744 C 2312.71 -1.54571 1.69235 0
M  V30 24745 C 2313.71 -1.50625 0.562928 0
M  V30 24746 O 2314.9 -1.53153 0.830042 0
M  V30 24747 C 2312.03 -2.9419 1.72235 0
M  V30 24748 H 2313.23 -1.39322 2.65574 0
M  V30 24749 H 2310.78 -0.692687 1.40113 0
M  V30 24750 H 2311.51 -3.14877 0.776085 0
M  V30 24751 H 2311.3 -2.98461 2.5429 0
M  V30 24752 H 2312.79 -3.72573 1.88625 0
M  V30 24753 N 2313.23 -1.40218 -0.719481 0
M  V30 24754 C 2314.17 -1.40175 -1.83357 0
M  V30 24755 C 2315.14 -0.259235 -1.64065 0
M  V30 24756 O 2316.33 -0.456709 -1.85253 0
M  V30 24757 C 2313.47 -1.26629 -3.21028 0
M  V30 24758 C 2312.58 -2.50554 -3.51918 0
M  V30 24759 C 2311.72 -2.2948 -4.79075 0
M  V30 24760 C 2310.76 -3.49001 -5.02857 0
M  V30 24761 N 2309.89 -3.27146 -6.21224 0
M  V30 24762 H 2314.73 -2.35402 -1.82729 0
M  V30 24763 H 2312.27 -1.16918 -0.892668 0
M  V30 24764 H 2314.23 -1.16783 -4.00522 0
M  V30 24765 H 2312.86 -0.350232 -3.20894 0
M  V30 24766 H 2311.91 -2.70944 -2.67009 0
M  V30 24767 H 2313.22 -3.39531 -3.65404 0
M  V30 24768 H 2312.38 -2.16965 -5.66578 0
M  V30 24769 H 2311.11 -1.37922 -4.67792 0
M  V30 24770 H 2310.12 -3.61997 -4.13809 0
M  V30 24771 H 2311.34 -4.41481 -5.16015 0
M  V30 24772 H 2309.29 -2.38267 -6.112 0
M  V30 24773 H 2309.21 -4.09687 -6.35368 0
M  V30 24774 H 2310.48 -3.18356 -7.11526 0
M  V30 24775 N 2314.7 0.951297 -1.25651 0
M  V30 24776 C 2315.98 1.67286 -1.01364 0
M  V30 24777 C 2316.36 2.06047 0.459099 0
M  V30 24778 O 2315.71 1.77642 1.4372 0
M  V30 24779 C 2315.92 2.89264 -1.95262 0
M  V30 24780 C 2317.27 3.61143 -2.23296 0
M  V30 24781 O 2318.29 2.99352 -1.93046 0
M  V30 24782 O 2317.15 4.72414 -2.74749 0
M  V30 24783 H 2314.24 0.7321 -0.384653 0
M  V30 24784 H 2316.79 1.00393 -1.36819 0
M  V30 24785 H 2315.56 2.57437 -2.9469 0
M  V30 24786 H 2315.19 3.63887 -1.60224 0
M  V30 24787 N 2316.18 1.07291 1.1544 0
M  V30 24788 C 2317.41 0.816861 1.90636 0
M  V30 24789 C 2317.83 -0.624052 1.77446 0
M  V30 24790 O 2317.19 -1.436 1.10674 0
M  V30 24791 C 2317.24 1.22912 3.39006 0
M  V30 24792 O 2316.34 0.374047 4.107 0
M  V30 24793 H 2315.68 0.297649 0.59355 0
M  V30 24794 H 2318.21 1.43136 1.46196 0
M  V30 24795 H 2318.22 1.20504 3.89798 0
M  V30 24796 H 2316.9 2.27862 3.47925 0
M  V30 24797 H 2315.48 0.460564 3.70045 0
M  V30 24798 N 2317.66 -1.32267 0.856927 0
M  V30 24799 C 2318.89 -2.01897 0.474605 0
M  V30 24800 C 2319.31 -1.63968 -0.921738 0
M  V30 24801 O 2318.67 -0.841509 -1.60587 0
M  V30 24802 C 2318.72 -3.55162 0.623861 0
M  V30 24803 O 2317.82 -4.10976 -0.342387 0
M  V30 24804 H 2317.16 -0.636106 0.190433 0
M  V30 24805 H 2319.69 -1.68762 1.15675 0
M  V30 24806 H 2319.7 -4.04772 0.51224 0
M  V30 24807 H 2318.38 -3.8211 1.64209 0
M  V30 24808 H 2316.95 -3.72432 -0.186814 0
M  V30 24809 N 2319.14 -0.615084 -1.45102 0
M  V30 24810 C 2320.1 0.0895082 -2.29025 0
M  V30 24811 C 2321.1 0.787882 -1.40175 0
M  V30 24812 O 2322.29 0.634905 -1.62218 0
M  V30 24813 C 2319.42 1.13706 -3.21378 0
M  V30 24814 H 2320.62 -0.648433 -2.92806 0
M  V30 24815 H 2318.17 -0.37447 -1.51748 0
M  V30 24816 H 2318.9 1.90552 -2.62413 0
M  V30 24817 H 2318.69 0.640407 -3.86835 0
M  V30 24818 H 2320.18 1.6303 -3.84462 0
M  V30 24819 N 2320.62 1.53557 -0.354678 0
M  V30 24820 C 2321.89 1.93374 0.294247 0
M  V30 24821 C 2322.27 1.28726 1.67311 0
M  V30 24822 O 2321.62 0.442286 2.24179 0
M  V30 24823 C 2321.83 3.47186 0.355384 0
M  V30 24824 C 2323.18 4.20326 0.600933 0
M  V30 24825 O 2324.2 3.53509 0.437044 0
M  V30 24826 O 2323.06 5.38714 0.919228 0
M  V30 24827 H 2320.16 0.808484 0.174019 0
M  V30 24828 H 2322.7 1.64755 -0.406667 0
M  V30 24829 H 2321.48 3.86488 -0.611797 0
M  V30 24830 H 2321.1 3.82005 1.10263 0
M  V30 24831 N 2322.1 0.083568 1.57378 0
M  V30 24832 C 2323.51 -0.273081 1.57246 0
M  V30 24833 C 2323.71 -1.69224 1.09388 0
M  V30 24834 O 2322.77 -2.4063 0.765093 0
M  V30 24835 C 2324.08 -0.07201 3.00614 0
M  V30 24836 C 2325.63 -0.140645 3.12684 0
M  V30 24837 C 2326.1 0.0322899 4.57989 0
M  V30 24838 N 2327.59 -0.0229271 4.63194 0
M  V30 24839 C 2328.33 0.0862949 5.73335 0
M  V30 24840 N 2327.83 0.249702 6.9235 0
M  V30 24841 N 2329.62 0.0283874 5.62093 0
M  V30 24842 H 2321.77 1.01093 1.86799 0
M  V30 24843 H 2324.03 0.395237 0.86168 0
M  V30 24844 H 2323.74 0.907721 3.39784 0
M  V30 24845 H 2323.61 -0.819296 3.68195 0
M  V30 24846 H 2326 -1.11087 2.73393 0
M  V30 24847 H 2326.08 0.63794 2.47718 0
M  V30 24848 H 2325.72 0.999334 4.97972 0
M  V30 24849 H 2325.65 -0.765846 5.21001 0
M  V30 24850 H 2328.15 -0.147154 3.77613 0
M  V30 24851 H 2328.46 0.324869 7.72117 0
M  V30 24852 H 2326.8 0.285219 6.94415 0
M  V30 24853 H 2329.99 -0.0980586 4.67997 0
M  V30 24854 H 2330.17 0.116959 6.47894 0
M  V30 24855 N 2323.57 -1.5645 -0.190064 0
M  V30 24856 C 2324.82 -1.80918 -0.909673 0
M  V30 24857 C 2325.15 -0.657615 -1.83046 0
M  V30 24858 O 2324.4 0.356322 -1.92429 0
M  V30 24859 C 2324.7 -3.11413 -1.75376 0
M  V30 24860 C 2324.37 -4.40043 -0.983528 0
M  V30 24861 C 2323.03 -4.74985 -0.770883 0
M  V30 24862 C 2325.38 -5.19323 -0.441933 0
M  V30 24863 C 2322.71 -5.867 -0.00524167 0
M  V30 24864 C 2325.06 -6.31837 0.310523 0
M  V30 24865 C 2323.73 -6.65359 0.53414 0
M  V30 24866 H 2323 -0.662025 -0.332873 0
M  V30 24867 H 2325.64 -1.90692 -0.175728 0
M  V30 24868 H 2323.95 -2.96898 -2.55654 0
M  V30 24869 H 2325.65 -3.27551 -2.31325 0
M  V30 24870 H 2322.24 -4.12624 -1.15928 0
M  V30 24871 H 2326.42 -4.92737 -0.593607 0
M  V30 24872 H 2321.68 -6.11141 0.177933 0
M  V30 24873 H 2325.85 -6.92483 0.73754 0
M  V30 24874 H 2323.48 -7.51765 1.12931 0
M  V30 24875 N 2325.05 0.45796 -1.50799 0
M  V30 24876 C 2325.98 1.56207 -1.73556 0
M  V30 24877 C 2326.96 1.59731 -0.584802 0
M  V30 24878 O 2328.15 1.75789 -0.825345 0
M  V30 24879 C 2325.28 2.94444 -1.84175 0
M  V30 24880 C 2324.23 3.05784 -2.99466 0
M  V30 24881 C 2323.56 4.45798 -2.95243 0
M  V30 24882 C 2324.86 2.81778 -4.39771 0
M  V30 24883 H 2326.55 1.37416 -2.66002 0
M  V30 24884 H 2324.1 0.659639 -1.28003 0
M  V30 24885 H 2326.05 3.71625 -1.98678 0
M  V30 24886 H 2324.77 3.1442 -0.8836 0
M  V30 24887 H 2323.43 2.31039 -2.84634 0
M  V30 24888 H 2323.08 4.62712 -1.97248 0
M  V30 24889 H 2322.78 4.54319 -3.72649 0
M  V30 24890 H 2324.31 5.24981 -3.11813 0
M  V30 24891 H 2325.72 3.48702 -4.5506 0
M  V30 24892 H 2324.12 3.01731 -5.18727 0
M  V30 24893 H 2325.19 1.77532 -4.51232 0
M  V30 24894 N 2326.53 1.40598 0.712035 0
M  V30 24895 C 2327.48 1.41324 1.84744 0
M  V30 24896 C 2328.47 0.293297 1.66842 0
M  V30 24897 O 2329.68 0.464511 1.73903 0
M  V30 24898 H 2326.05 0.44183 0.608515 0
M  V30 24899 H 2328.02 2.37048 1.81247 0
M  V30 24900 C 2326.77 1.2962 3.22636 0
M  V30 24901 H 2326.1 2.15077 3.37019 0
M  V30 24902 H 2327.54 1.34187 4.02206 0
M  V30 24903 C 2325.99 0.00679043 3.36899 0
M  V30 24904 O 2326.52 -0.954791 3.90188 0
M  V30 24905 N 2324.73 -0.0638816 2.9053 0
M  V30 24906 H 2324.28 0.719354 2.47352 0
M  V30 24907 H 2324.24 -0.926065 3.00452 0
M  V30 24908 N 2328.01 -0.94462 1.26153 0
M  V30 24909 C 2329.23 -1.73018 1.14366 0
M  V30 24910 C 2329.66 -1.85729 -0.297687 0
M  V30 24911 O 2329.02 -1.34503 -1.21568 0
M  V30 24912 C 2329.06 -3.11661 1.81384 0
M  V30 24913 O 2328.17 -3.97451 1.10029 0
M  V30 24914 H 2327.51 -0.530973 0.398703 0
M  V30 24915 H 2330.04 -1.18334 1.66908 0
M  V30 24916 H 2330.05 -3.62069 1.8807 0
M  V30 24917 H 2328.72 -3.01725 2.86243 0
M  V30 24918 H 2327.3 -3.55905 1.11293 0
M  V30 24919 N 2329.49 -1.07901 -1.1487 0
M  V30 24920 C 2330.42 -0.725926 -2.21929 0
M  V30 24921 C 2331.4 0.289241 -1.67623 0
M  V30 24922 O 2332.58 0.160753 -1.93534 0
M  V30 24923 C 2329.71 -0.128917 -3.47061 0
M  V30 24924 C 2328.67 -1.07186 -4.14361 0
M  V30 24925 C 2327.99 -0.337322 -5.33635 0
M  V30 24926 C 2329.29 -2.40783 -4.63488 0
M  V30 24927 H 2330.99 -1.62102 -2.51721 0
M  V30 24928 H 2328.53 -0.780859 -1.2099 0
M  V30 24929 H 2330.48 0.130073 -4.21199 0
M  V30 24930 H 2329.21 0.801285 -3.16618 0
M  V30 24931 H 2327.87 -1.31586 -3.42171 0
M  V30 24932 H 2327.52 0.596518 -4.9945 0
M  V30 24933 H 2327.22 -0.96589 -5.79607 0
M  V30 24934 H 2328.74 -0.086264 -6.10539 0
M  V30 24935 H 2330.15 -2.20678 -5.29126 0
M  V30 24936 H 2328.55 -2.99285 -5.20143 0
M  V30 24937 H 2329.62 -3.02683 -3.78829 0
M  V30 24938 N 2330.96 1.31811 -0.863929 0
M  V30 24939 C 2332.21 1.96536 -0.470938 0
M  V30 24940 C 2332.53 1.68658 0.978741 0
M  V30 24941 O 2331.8 0.998746 1.68529 0
M  V30 24942 H 2330.38 0.727127 -0.171161 0
M  V30 24943 H 2333.04 1.60727 -1.10239 0
M  V30 24944 H 2332.14 3.05805 -0.62367 0
M  V30 24945 N 2332.44 0.62277 1.44773 0
M  V30 24946 C 2333.86 0.287679 1.56986 0
M  V30 24947 C 2334.06 -1.20942 1.61169 0
M  V30 24948 O 2333.11 -1.99312 1.55019 0
M  V30 24949 C 2334.43 0.972238 2.84549 0
M  V30 24950 C 2335.97 0.949588 2.98248 0
M  V30 24951 C 2336.45 1.61445 4.28602 0
M  V30 24952 N 2337.94 1.58065 4.35396 0
M  V30 24953 C 2338.68 2.0641 5.3496 0
M  V30 24954 N 2338.17 2.62908 6.40977 0
M  V30 24955 N 2339.96 1.97088 5.26415 0
M  V30 24956 H 2332.12 1.59465 1.40302 0
M  V30 24957 H 2334.38 0.66889 0.671782 0
M  V30 24958 H 2334.08 2.02698 2.87413 0
M  V30 24959 H 2333.96 0.504837 3.73806 0
M  V30 24960 H 2336.35 -0.0966549 2.94942 0
M  V30 24961 H 2336.43 1.4554 2.10361 0
M  V30 24962 H 2336.07 2.6601 4.32667 0
M  V30 24963 H 2336 1.08354 5.15332 0
M  V30 24964 H 2338.49 1.16807 3.59395 0
M  V30 24965 H 2338.8 2.97552 7.1322 0
M  V30 24966 H 2337.15 2.66955 6.41685 0
M  V30 24967 H 2340.34 1.52677 4.42501 0
M  V30 24968 H 2340.51 2.35076 6.03857 0
M  V30 24969 N 2333.92 -1.53367 0.362817 0
M  V30 24970 C 2335.17 -2.01215 -0.22774 0
M  V30 24971 C 2335.49 -1.25017 -1.49 0
M  V30 24972 O 2334.75 -0.33127 -1.92876 0
M  V30 24973 C 2335.05 -3.52852 -0.568355 0
M  V30 24974 C 2334.71 -4.469 0.599259 0
M  V30 24975 C 2333.38 -4.7233 0.919642 0
M  V30 24976 C 2335.73 -5.02553 1.38165 0
M  V30 24977 C 2333.06 -5.50666 2.02444 0
M  V30 24978 C 2335.41 -5.82096 2.47684 0
M  V30 24979 C 2334.07 -6.05814 2.8026 0
M  V30 24980 H 2333.34 -0.736299 -0.0833361 0
M  V30 24981 H 2335.99 -1.85 0.494709 0
M  V30 24982 H 2334.29 -3.67 -1.37178 0
M  V30 24983 H 2335.99 -3.87346 -1.03749 0
M  V30 24984 H 2332.58 -4.27253 0.339512 0
M  V30 24985 H 2336.77 -4.82855 1.14738 0
M  V30 24986 H 2332.02 -5.67263 2.28084 0
M  V30 24987 H 2336.2 -6.24228 3.08727 0
M  V30 24988 H 2333.82 -6.66299 3.65991 0
M  V30 24989 N 2335.4 -0.091913 -1.57332 0
M  V30 24990 C 2336.33 0.904698 -2.095 0
M  V30 24991 C 2337.31 1.27837 -1.00481 0
M  V30 24992 O 2338.49 1.38417 -1.27957 0
M  V30 24993 C 2335.62 2.20685 -2.56935 0
M  V30 24994 C 2334.67 1.98327 -3.77583 0
M  V30 24995 S 2335.5 1.22419 -5.21319 0
M  V30 24996 C 2336.66 2.53872 -5.72101 0
M  V30 24997 H 2336.89 0.460871 -2.93706 0
M  V30 24998 H 2334.42 0.121305 -1.53923 0
M  V30 24999 H 2336.38 2.95516 -2.84922 0
M  V30 25000 H 2335.04 2.62189 -1.72961 0
M  V30 25001 H 2334.23 2.94745 -4.0883 0
M  V30 25002 H 2333.84 1.31627 -3.50072 0
M  V30 25003 H 2336.13 3.49864 -5.80174 0
M  V30 25004 H 2337.07 2.27207 -6.70658 0
M  V30 25005 H 2337.48 2.61999 -5.00017 0
M  V30 25006 N 2336.88 1.56548 0.181765 0
M  V30 25007 C 2338.1 1.85523 0.915914 0
M  V30 25008 C 2338.52 0.676047 1.76281 0
M  V30 25009 O 2337.88 -0.355045 1.79013 0
M  V30 25010 C 2337.93 3.13431 1.80121 0
M  V30 25011 O 2337.65 4.26803 0.988487 0
M  V30 25012 C 2339.15 3.55678 2.64591 0
M  V30 25013 H 2336.37 0.615765 0.266599 0
M  V30 25014 H 2338.91 2.03661 0.185004 0
M  V30 25015 H 2337.07 2.97149 2.48558 0
M  V30 25016 H 2337.48 4.99724 1.59299 0
M  V30 25017 H 2338.96 4.48107 3.22342 0
M  V30 25018 H 2339.43 2.79298 3.38953 0
M  V30 25019 H 2340.04 3.74535 2.01503 0
M  V30 25020 N 2338.35 -0.449957 1.5104 0
M  V30 25021 C 2339.6 -1.19805 1.62761 0
M  V30 25022 C 2339.92 -1.92013 0.340015 0
M  V30 25023 O 2339.19 -1.85027 -0.643573 0
M  V30 25024 H 2337.77 -0.445226 0.599819 0
M  V30 25025 H 2340.44 -0.517105 1.87915 0
M  V30 25026 H 2339.53 -1.93451 2.44915 0
M  V30 25027 N 2339.83 -1.40974 -0.704569 0
M  V30 25028 C 2340.76 -1.44876 -1.83121 0
M  V30 25029 C 2341.74 -0.308409 -1.67281 0
M  V30 25030 O 2342.93 -0.518589 -1.87148 0
M  V30 25031 C 2340.06 -1.32142 -3.21179 0
M  V30 25032 C 2339.01 -2.43894 -3.5171 0
M  V30 25033 C 2338.34 -2.16231 -4.89028 0
M  V30 25034 C 2339.64 -3.86238 -3.51593 0
M  V30 25035 H 2341.33 -2.39164 -1.80113 0
M  V30 25036 H 2338.88 -1.15116 -0.865124 0
M  V30 25037 H 2340.83 -1.33486 -3.99699 0
M  V30 25038 H 2339.56 -0.343336 -3.2479 0
M  V30 25039 H 2338.21 -2.41818 -2.75535 0
M  V30 25040 H 2337.86 -1.16787 -4.89254 0
M  V30 25041 H 2337.56 -2.91109 -5.10421 0
M  V30 25042 H 2339.09 -2.19275 -5.69869 0
M  V30 25043 H 2340.5 -3.90078 -4.20134 0
M  V30 25044 H 2338.9 -4.60725 -3.84515 0
M  V30 25045 H 2339.97 -4.15033 -2.50749 0
M  V30 25046 N 2341.31 0.937917 -1.26653 0
M  V30 25047 C 2342.59 1.66202 -1.03132 0
M  V30 25048 C 2342.97 2.06523 0.437219 0
M  V30 25049 O 2342.32 1.79156 1.41828 0
M  V30 25050 C 2342.53 2.87177 -1.98319 0
M  V30 25051 C 2343.87 3.58754 -2.27113 0
M  V30 25052 O 2344.9 2.97287 -1.96211 0
M  V30 25053 O 2343.76 4.69474 -2.79744 0
M  V30 25054 H 2340.85 0.727979 -0.392396 0
M  V30 25055 H 2343.4 0.989358 -1.37876 0
M  V30 25056 H 2342.17 2.54296 -2.97404 0
M  V30 25057 H 2341.79 3.62167 -1.64075 0
M  V30 25058 N 2342.79 1.08509 1.14296 0
M  V30 25059 C 2344.02 0.836909 1.89218 0
M  V30 25060 C 2344.43 -0.611022 1.78639 0
M  V30 25061 O 2343.79 -1.41996 1.14645 0
M  V30 25062 C 2343.84 1.25122 3.39156 0
M  V30 25063 O 2343.56 2.64235 3.49444 0
M  V30 25064 C 2345.06 1.03405 4.31071 0
M  V30 25065 H 2342.28 0.30175 0.599323 0
M  V30 25066 H 2344.83 1.44463 1.44743 0
M  V30 25067 H 2342.98 0.687581 3.81249 0
M  V30 25068 H 2343.39 2.81459 4.42584 0
M  V30 25069 H 2344.87 1.37332 5.34644 0
M  V30 25070 H 2345.35 -0.0288487 4.39191 0
M  V30 25071 H 2345.95 1.58318 3.94735 0
M  V30 25072 N 2344.27 -1.31351 0.870907 0
M  V30 25073 C 2345.21 -2.28494 0.325465 0
M  V30 25074 C 2346.18 -1.55771 -0.576588 0
M  V30 25075 O 2347.37 -1.83912 -0.508026 0
M  V30 25076 C 2344.51 -3.41936 -0.466223 0
M  V30 25077 C 2343.62 -4.29507 0.463454 0
M  V30 25078 C 2342.76 -5.30095 -0.342451 0
M  V30 25079 C 2341.8 -6.09312 0.583593 0
M  V30 25080 N 2340.93 -7.01853 -0.18612 0
M  V30 25081 H 2345.77 -2.74536 1.15906 0
M  V30 25082 H 2343.31 -1.35055 0.582963 0
M  V30 25083 H 2345.27 -4.06449 -0.941013 0
M  V30 25084 H 2343.9 -2.97002 -1.26451 0
M  V30 25085 H 2342.95 -3.65429 1.05669 0
M  V30 25086 H 2344.26 -4.848 1.17349 0
M  V30 25087 H 2343.42 -6.00288 -0.87971 0
M  V30 25088 H 2342.15 -4.7546 -1.08577 0
M  V30 25089 H 2341.16 -5.38008 1.1326 0
M  V30 25090 H 2342.38 -6.66033 1.32578 0
M  V30 25091 H 2340.33 -6.49626 -0.912234 0
M  V30 25092 H 2340.25 -7.54571 0.464555 0
M  V30 25093 H 2341.52 -7.76309 -0.70458 0
M  V30 25094 N 2345.74 -0.630439 -1.44441 0
M  V30 25095 C 2346.69 0.087102 -2.32437 0
M  V30 25096 C 2347.69 0.836499 -1.47306 0
M  V30 25097 O 2348.89 0.749477 -1.63655 0
M  V30 25098 H 2345.27 0.0469363 -0.750534 0
M  V30 25099 H 2347.24 -0.673148 -2.90708 0
M  V30 25100 C 2345.99 1.05557 -3.3129 0
M  V30 25101 H 2345.31 0.488356 -3.96806 0
M  V30 25102 H 2346.75 1.52714 -3.95543 0
M  V30 25103 C 2345.21 2.14048 -2.60164 0
M  V30 25104 O 2345.74 3.2212 -2.40003 0
M  V30 25105 N 2343.95 1.89964 -2.19914 0
M  V30 25106 H 2343.49 1.0208 -2.36511 0
M  V30 25107 H 2343.45 2.62753 -1.72651 0
M  V30 25108 N 2347.22 1.53172 -0.370945 0
M  V30 25109 C 2348.17 2.27422 0.488061 0
M  V30 25110 C 2349.16 1.30606 1.07882 0
M  V30 25111 O 2350.37 1.48214 1.0214 0
M  V30 25112 H 2346.75 0.731085 0.176121 0
M  V30 25113 H 2348.72 2.97971 -0.159867 0
M  V30 25114 C 2347.47 3.08022 1.613 0
M  V30 25115 H 2346.79 3.82366 1.16773 0
M  V30 25116 H 2348.23 3.63144 2.18866 0
M  V30 25117 C 2346.69 2.19193 2.55844 0
M  V30 25118 O 2347.22 1.80633 3.58796 0
M  V30 25119 N 2345.42 1.83719 2.25157 0
M  V30 25120 H 2344.97 2.15275 1.41472 0
M  V30 25121 H 2344.93 1.24572 2.88668 0
M  V30 25122 N 2348.7 0.100255 1.57281 0
M  V30 25123 C 2349.95 -0.563067 1.94827 0
M  V30 25124 C 2350.28 -1.67513 0.982505 0
M  V30 25125 O 2349.55 -1.94493 0.0164411 0
M  V30 25126 C 2349.84 -1.1134 3.42455 0
M  V30 25127 C 2349.69 -0.00604174 4.498 0
M  V30 25128 C 2351.01 -2.01018 3.9151 0
M  V30 25129 H 2348.13 -0.203209 0.708431 0
M  V30 25130 H 2350.77 0.172012 1.8922 0
M  V30 25131 H 2348.92 -1.73984 3.47364 0
M  V30 25132 H 2350.59 0.628437 4.56999 0
M  V30 25133 H 2348.84 0.659656 4.28755 0
M  V30 25134 H 2349.51 -0.432012 5.50307 0
M  V30 25135 H 2351.98 -1.48271 3.88786 0
M  V30 25136 H 2350.86 -2.36448 4.95362 0
M  V30 25137 H 2351.12 -2.92955 3.31104 0
M  V30 25138 N 2350.18 -1.56643 -0.17346 0
M  V30 25139 C 2351.13 -1.96244 -1.21479 0
M  V30 25140 C 2352.1 -0.826052 -1.44103 0
M  V30 25141 O 2353.28 -1.086 -1.56878 0
M  V30 25142 C 2350.42 -2.32572 -2.5496 0
M  V30 25143 C 2349.53 -3.59378 -2.39733 0
M  V30 25144 C 2348.67 -3.84928 -3.66066 0
M  V30 25145 C 2347.71 -5.05089 -3.45763 0
M  V30 25146 N 2346.85 -5.26783 -4.6416 0
M  V30 25147 H 2351.69 -2.85015 -0.870073 0
M  V30 25148 H 2349.22 -1.4103 -0.41822 0
M  V30 25149 H 2351.18 -2.51656 -3.32754 0
M  V30 25150 H 2349.81 -1.46913 -2.8743 0
M  V30 25151 H 2348.86 -3.4822 -1.53125 0
M  V30 25152 H 2350.17 -4.4733 -2.20675 0
M  V30 25153 H 2349.33 -4.04368 -4.52296 0
M  V30 25154 H 2348.07 -2.95347 -3.881 0
M  V30 25155 H 2347.07 -4.85549 -2.57919 0
M  V30 25156 H 2348.3 -5.96198 -3.25153 0
M  V30 25157 H 2346.24 -4.40153 -4.86417 0
M  V30 25158 H 2346.16 -6.08954 -4.48008 0
M  V30 25159 H 2347.43 -5.507 -5.51679 0
M  V30 25160 N 2351.66 0.44194 -1.51277 0
M  V30 25161 C 2352.9 1.19352 -1.6396 0
M  V30 25162 C 2353.24 1.90973 -0.352577 0
M  V30 25163 O 2352.51 1.83402 0.647595 0
M  V30 25164 C 2352.79 2.21417 -2.83983 0
M  V30 25165 C 2352.65 1.5391 -4.22648 0
M  V30 25166 C 2353.97 3.22446 -2.99527 0
M  V30 25167 H 2351.09 0.432549 -0.596716 0
M  V30 25168 H 2353.73 0.483366 -1.83749 0
M  V30 25169 H 2351.88 2.81982 -2.67242 0
M  V30 25170 H 2353.55 0.967177 -4.51047 0
M  V30 25171 H 2351.79 0.84154 -4.25559 0
M  V30 25172 H 2352.46 2.2822 -5.02613 0
M  V30 25173 H 2354.94 2.71931 -3.14949 0
M  V30 25174 H 2353.82 3.91159 -3.85079 0
M  V30 25175 H 2354.08 3.88283 -2.11397 0
M  V30 25176 N 2353.14 1.41345 0.697083 0
M  V30 25177 C 2354.38 1.41831 1.45793 0
M  V30 25178 C 2354.74 0.0262081 1.92382 0
M  V30 25179 O 2354.03 -0.947659 1.66523 0
M  V30 25180 C 2354.22 2.35831 2.68549 0
M  V30 25181 C 2354.05 3.84043 2.33968 0
M  V30 25182 C 2352.82 4.52736 2.24406 0
M  V30 25183 C 2355.02 4.75058 1.9704 0
M  V30 25184 N 2353 5.86085 1.82695 0
M  V30 25185 C 2354.37 5.97343 1.66075 0
M  V30 25186 C 2356.43 4.62719 1.83837 0
M  V30 25187 C 2355.13 7.08665 1.23234 0
M  V30 25188 C 2357.16 5.74 1.424 0
M  V30 25189 C 2356.52 6.95383 1.12345 0
M  V30 25190 H 2352.62 0.574216 0.530849 0
M  V30 25191 H 2355.2 1.77204 0.806643 0
M  V30 25192 H 2353.37 2.02555 3.314 0
M  V30 25193 H 2355.11 2.27046 3.35011 0
M  V30 25194 H 2351.86 4.06655 2.42753 0
M  V30 25195 H 2352.28 6.56754 1.64325 0
M  V30 25196 H 2356.93 3.69373 2.05727 0
M  V30 25197 H 2354.64 8.01878 1.00088 0
M  V30 25198 H 2358.23 5.66456 1.32736 0
M  V30 25199 H 2357.11 7.8003 0.807658 0
M  V30 25200 N 2354.61 -0.931187 1.27148 0
M  V30 25201 C 2355.86 -1.6785 1.13281 0
M  V30 25202 C 2356.19 -1.91816 -0.322006 0
M  V30 25203 O 2355.44 -1.50393 -1.25221 0
M  V30 25204 C 2355.74 -3.05311 1.85795 0
M  V30 25205 C 2355.41 -3.01067 3.35663 0
M  V30 25206 C 2354.07 -2.99617 3.76541 0
M  V30 25207 C 2356.42 -2.9262 4.31304 0
M  V30 25208 C 2353.75 -2.87497 5.11431 0
M  V30 25209 C 2356.1 -2.82041 5.66247 0
M  V30 25210 C 2354.77 -2.78939 6.06423 0
M  V30 25211 H 2354.04 -0.614206 0.414526 0
M  V30 25212 H 2356.68 -1.08621 1.57714 0
M  V30 25213 H 2354.99 -3.68223 1.33861 0
M  V30 25214 H 2356.69 -3.62002 1.72497 0
M  V30 25215 H 2353.28 -3.02981 3.03151 0
M  V30 25216 H 2357.46 -2.92841 4.00697 0
M  V30 25217 H 2352.72 -2.8348 5.4171 0
M  V30 25218 H 2356.89 -2.7447 6.40031 0
M  V30 25219 H 2354.52 -2.69305 7.109 0
M  V30 25220 N 2356.09 -1.09114 -1.13719 0
M  V30 25221 C 2357.04 -0.722258 -2.21102 0
M  V30 25222 C 2358.03 0.275344 -1.67147 0
M  V30 25223 O 2359.24 0.137144 -1.79477 0
M  V30 25224 H 2355.61 -0.215565 -0.720441 0
M  V30 25225 H 2357.59 -1.63714 -2.4948 0
M  V30 25226 C 2356.33 -0.155491 -3.47352 0
M  V30 25227 H 2355.66 -0.914314 -3.89205 0
M  V30 25228 H 2357.1 0.0647221 -4.23951 0
M  V30 25229 C 2355.56 1.10847 -3.18142 0
M  V30 25230 O 2356.09 2.19221 -3.36608 0
M  V30 25231 N 2354.29 1.02171 -2.72047 0
M  V30 25232 H 2353.84 0.139719 -2.57221 0
M  V30 25233 H 2353.8 1.86815 -2.52878 0
M  V30 25234 N 2357.57 1.30887 -0.877861 0
M  V30 25235 C 2358.52 2.30266 -0.328702 0
M  V30 25236 C 2359.51 1.5986 0.560468 0
M  V30 25237 O 2360.72 1.74395 0.445691 0
M  V30 25238 H 2357.09 0.746877 -0.0876274 0
M  V30 25239 H 2359.06 2.74049 -1.18066 0
M  V30 25240 C 2357.81 3.44802 0.44801 0
M  V30 25241 H 2357.14 3.99155 -0.226929 0
M  V30 25242 H 2358.58 4.16433 0.797468 0
M  V30 25243 C 2357.03 2.94158 1.64234 0
M  V30 25244 O 2357.56 2.93588 2.74169 0
M  V30 25245 N 2355.77 2.50259 1.47712 0
M  V30 25246 H 2355.32 2.50921 0.582777 0
M  V30 25247 H 2355.28 2.16731 2.27761 0
M  V30 25248 N 2359.05 0.638091 1.44105 0
M  V30 25249 C 2359.99 -0.0626605 2.30715 0
M  V30 25250 C 2360.96 -0.829858 1.43884 0
M  V30 25251 O 2362.15 -0.809502 1.72776 0
M  V30 25252 C 2359.29 -1.03352 3.2926 0
M  V30 25253 C 2358.4 -0.264015 4.31192 0
M  V30 25254 C 2357.54 -1.22732 5.16827 0
M  V30 25255 C 2356.58 -0.447368 6.10463 0
M  V30 25256 N 2355.71 -1.36149 6.88773 0
M  V30 25257 H 2360.55 0.681832 2.90095 0
M  V30 25258 H 2358.09 0.348013 1.42924 0
M  V30 25259 H 2360.05 -1.60986 3.84889 0
M  V30 25260 H 2358.68 -1.74506 2.71565 0
M  V30 25261 H 2357.73 0.428361 3.7798 0
M  V30 25262 H 2359.04 0.34314 4.97618 0
M  V30 25263 H 2358.2 -1.87477 5.77007 0
M  V30 25264 H 2356.94 -1.86839 4.50491 0
M  V30 25265 H 2355.94 0.213529 5.49385 0
M  V30 25266 H 2357.17 0.189087 6.78837 0
M  V30 25267 H 2355.11 -1.98964 6.25099 0
M  V30 25268 H 2355.03 -0.808524 7.51664 0
M  V30 25269 H 2356.3 -1.99756 7.53471 0
M  V30 25270 N 2360.53 -1.52973 0.379063 0
M  V30 25271 C 2361.77 -2.01048 -0.205978 0
M  V30 25272 C 2362.09 -1.26767 -1.48173 0
M  V30 25273 O 2361.36 -0.384776 -1.92084 0
M  V30 25274 H 2359.94 -0.7428 -0.0791053 0
M  V30 25275 H 2362.61 -1.88152 0.508399 0
M  V30 25276 H 2361.7 -3.09214 -0.423446 0
M  V30 25277 N 2362 -0.108595 -1.57225 0
M  V30 25278 C 2363.25 0.54653 -1.9592 0
M  V30 25279 C 2363.6 1.64948 -0.990446 0
M  V30 25280 O 2362.9 1.91591 -0.0186929 0
M  V30 25281 C 2363.09 1.13457 -3.38913 0
M  V30 25282 C 2362.92 0.0901136 -4.4961 0
M  V30 25283 C 2361.69 -0.338096 -5.04168 0
M  V30 25284 C 2363.89 -0.686898 -5.09692 0
M  V30 25285 N 2361.87 -1.36941 -5.98432 0
M  V30 25286 C 2363.24 -1.56968 -5.99801 0
M  V30 25287 C 2365.3 -0.738932 -4.92386 0
M  V30 25288 C 2364 -2.49995 -6.74459 0
M  V30 25289 C 2366.03 -1.65686 -5.67717 0
M  V30 25290 C 2365.39 -2.52724 -6.57503 0
M  V30 25291 H 2361.49 0.169923 -0.763315 0
M  V30 25292 H 2364.07 -0.194298 -1.93728 0
M  V30 25293 H 2362.24 1.84516 -3.41772 0
M  V30 25294 H 2363.97 1.75316 -3.64755 0
M  V30 25295 H 2360.73 0.0522841 -4.73571 0
M  V30 25296 H 2361.15 -1.88368 -6.50267 0
M  V30 25297 H 2365.79 -0.0801583 -4.22724 0
M  V30 25298 H 2363.51 -3.16891 -7.43375 0
M  V30 25299 H 2367.1 -1.70243 -5.56335 0
M  V30 25300 H 2365.98 -3.22599 -7.14772 0
M  V30 25301 N 2363.48 1.56732 0.16515 0
M  V30 25302 C 2364.43 1.93297 1.20914 0
M  V30 25303 C 2365.42 0.80201 1.39487 0
M  V30 25304 O 2366.61 1.06527 1.41354 0
M  V30 25305 C 2363.74 2.30165 2.54714 0
M  V30 25306 C 2362.82 3.49789 2.39809 0
M  V30 25307 N 2363.21 4.66855 1.94628 0
M  V30 25308 C 2361.51 3.54517 2.70617 0
M  V30 25309 C 2362.21 5.48983 1.92334 0
M  V30 25310 N 2361.19 4.90194 2.3497 0
M  V30 25311 H 2364.99 2.81291 0.851626 0
M  V30 25312 H 2362.5 1.5805 0.373371 0
M  V30 25313 H 2364.5 2.54557 3.30161 0
M  V30 25314 H 2363.16 1.43513 2.91263 0
M  V30 25315 H 2364.17 4.90956 1.64871 0
M  V30 25316 H 2360.85 2.7836 3.11162 0
M  V30 25317 H 2362.24 6.52804 1.59049 0
M  V30 25318 N 2364.96 -0.433911 1.51509 0
M  V30 25319 C 2365.92 -1.50946 1.72476 0
M  V30 25320 C 2366.92 -1.49397 0.594751 0
M  V30 25321 O 2368.11 -1.51358 0.862342 0
M  V30 25322 C 2365.24 -2.90471 1.78437 0
M  V30 25323 H 2366.44 -1.33658 2.68469 0
M  V30 25324 H 2363.99 -0.662811 1.4155 0
M  V30 25325 H 2364.73 -3.1316 0.8427 0
M  V30 25326 H 2364.51 -2.93 2.60563 0
M  V30 25327 H 2366 -3.68488 1.96485 0
M  V30 25328 N 2366.44 -1.41713 -0.689577 0
M  V30 25329 C 2367.69 -1.40689 -1.44532 0
M  V30 25330 C 2368 -0.0213696 -1.95588 0
M  V30 25331 O 2369.21 0.111486 -2.71271 0
M  V30 25332 C 2367.66 -2.47401 -2.61382 0
M  V30 25333 C 2367.27 -3.91889 -2.17087 0
M  V30 25334 C 2369.01 -2.55523 -3.38982 0
M  V30 25335 C 2366.92 -4.90141 -3.30932 0
M  V30 25336 H 2365.85 -0.523219 -0.542916 0
M  V30 25337 H 2368.5 -1.67561 -0.748024 0
M  V30 25338 H 2366.88 -2.13669 -3.33409 0
M  V30 25339 H 2368.06 -4.349 -1.52311 0
M  V30 25340 H 2366.37 -3.87483 -1.52466 0
M  V30 25341 H 2368.97 -3.2611 -4.23741 0
M  V30 25342 H 2369.31 -1.59398 -3.84575 0
M  V30 25343 H 2369.85 -2.88375 -2.74016 0
M  V30 25344 H 2366.59 -5.87691 -2.90345 0
M  V30 25345 H 2366.11 -4.51774 -3.94538 0
M  V30 25346 H 2367.78 -5.11176 -3.96621 0
M  V30 25347 N 2367.92 0.924431 -1.2764 0
M  V30 25348 C 2369.14 1.71177 -1.17104 0
M  V30 25349 C 2369.57 1.8618 0.268101 0
M  V30 25350 O 2368.92 1.3642 1.19413 0
M  V30 25351 C 2368.97 3.08736 -1.86319 0
M  V30 25352 O 2368.08 3.9565 -1.16338 0
M  V30 25353 H 2367.42 0.524562 -0.4071 0
M  V30 25354 H 2369.95 1.15663 -1.68769 0
M  V30 25355 H 2369.96 3.59031 -1.93806 0
M  V30 25356 H 2368.63 2.97133 -2.91006 0
M  V30 25357 H 2367.21 3.54089 -1.16941 0
M  V30 25358 N 2369.39 1.09715 1.13139 0
M  V30 25359 C 2370.62 0.857114 1.88861 0
M  V30 25360 C 2371.04 -0.586273 1.7873 0
M  V30 25361 O 2370.4 -1.4122 1.13695 0
M  V30 25362 C 2370.45 1.30075 3.36323 0
M  V30 25363 O 2369.55 0.461079 4.09814 0
M  V30 25364 H 2368.9 0.310172 0.587103 0
M  V30 25365 H 2371.43 1.46205 1.43127 0
M  V30 25366 H 2371.44 1.28745 3.87155 0
M  V30 25367 H 2370.11 2.35191 3.43013 0
M  V30 25368 H 2368.69 0.538953 3.68985 0
M  V30 25369 N 2370.87 -1.30419 0.88479 0
M  V30 25370 C 2372.12 -1.9615 0.50314 0
M  V30 25371 C 2372.45 -1.69853 -0.947647 0
M  V30 25372 O 2371.7 -0.995891 -1.68465 0
M  V30 25373 C 2372 -3.49982 0.72438 0
M  V30 25374 C 2371.67 -3.96328 2.15022 0
M  V30 25375 C 2370.33 -4.08694 2.54013 0
M  V30 25376 C 2372.68 -4.205 3.07944 0
M  V30 25377 C 2370.01 -4.42592 3.85135 0
M  V30 25378 C 2372.36 -4.55867 4.38598 0
M  V30 25379 C 2371.03 -4.66441 4.77482 0
M  V30 25380 H 2370.3 -0.717763 0.184112 0
M  V30 25381 H 2372.94 -1.55289 1.12061 0
M  V30 25382 H 2371.25 -3.91793 0.0238775 0
M  V30 25383 H 2372.94 -3.98912 0.408687 0
M  V30 25384 H 2369.53 -3.8721 1.83757 0
M  V30 25385 H 2373.72 -4.10427 2.79041 0
M  V30 25386 H 2368.97 -4.48979 4.15004 0
M  V30 25387 H 2373.15 -4.73521 5.10638 0
M  V30 25388 H 2370.78 -4.92463 5.79124 0
M  V30 25389 N 2372.35 -0.645724 -1.43764 0
M  V30 25390 C 2373.28 0.0370066 -2.33471 0
M  V30 25391 C 2374.26 0.819753 -1.49044 0
M  V30 25392 O 2375.45 0.782727 -1.77727 0
M  V30 25393 C 2372.58 1.00924 -3.32313 0
M  V30 25394 C 2371.53 0.337126 -4.2667 0
M  V30 25395 C 2370.86 1.42028 -5.15492 0
M  V30 25396 C 2372.16 -0.765797 -5.16655 0
M  V30 25397 H 2373.85 -0.71212 -2.90808 0
M  V30 25398 H 2371.4 -0.343901 -1.39833 0
M  V30 25399 H 2373.35 1.49571 -3.93962 0
M  V30 25400 H 2372.07 1.78943 -2.73216 0
M  V30 25401 H 2370.73 -0.128836 -3.66374 0
M  V30 25402 H 2370.38 2.19172 -4.52739 0
M  V30 25403 H 2370.08 0.975864 -5.7944 0
M  V30 25404 H 2371.6 1.90827 -5.80015 0
M  V30 25405 H 2373.02 -0.361802 -5.72157 0
M  V30 25406 H 2371.42 -1.13423 -5.89284 0
M  V30 25407 H 2372.49 -1.62691 -4.56793 0
M  V30 25408 N 2373.83 1.5277 -0.38717 0
M  V30 25409 C 2374.78 2.27927 0.463912 0
M  V30 25410 C 2375.77 1.31743 1.0649 0
M  V30 25411 O 2376.98 1.49289 1.00562 0
M  V30 25412 H 2373.35 0.732912 0.168357 0
M  V30 25413 H 2375.32 2.97785 -0.191462 0
M  V30 25414 C 2374.07 3.09715 1.58024 0
M  V30 25415 H 2373.39 3.83583 1.12711 0
M  V30 25416 H 2374.83 3.65445 2.15002 0
M  V30 25417 C 2373.29 2.21894 2.53505 0
M  V30 25418 O 2373.82 1.84428 3.5686 0
M  V30 25419 N 2372.03 1.86097 2.23196 0
M  V30 25420 H 2371.58 2.16763 1.39181 0
M  V30 25421 H 2371.53 1.27626 2.87331 0
M  V30 25422 N 2375.31 0.116931 1.57166 0
M  V30 25423 C 2376.55 -0.542371 1.95413 0
M  V30 25424 C 2376.89 -1.66461 1.00022 0
M  V30 25425 O 2376.16 -1.94465 0.0370688 0
M  V30 25426 C 2376.44 -1.07702 3.43617 0
M  V30 25427 C 2376.3 0.0416659 4.49781 0
M  V30 25428 C 2377.62 -1.96854 3.9362 0
M  V30 25429 H 2374.73 -0.195684 0.710547 0
M  V30 25430 H 2377.38 0.192072 1.89027 0
M  V30 25431 H 2375.53 -1.7029 3.4919 0
M  V30 25432 H 2377.2 0.676873 4.56307 0
M  V30 25433 H 2375.44 0.705094 4.28031 0
M  V30 25434 H 2376.11 -0.373621 5.50734 0
M  V30 25435 H 2378.59 -1.44139 3.90337 0
M  V30 25436 H 2377.46 -2.31181 4.97842 0
M  V30 25437 H 2377.73 -2.89426 3.34193 0
M  V30 25438 N 2376.78 -1.56818 -0.156836 0
M  V30 25439 C 2378.03 -1.81997 -0.869472 0
M  V30 25440 C 2378.35 -0.696577 -1.82776 0
M  V30 25441 O 2379.55 -0.833703 -2.58383 0
M  V30 25442 C 2378.01 -3.2254 -1.59674 0
M  V30 25443 C 2377.62 -4.42788 -0.681354 0
M  V30 25444 C 2379.36 -3.57002 -2.29674 0
M  V30 25445 C 2377.27 -5.74354 -1.40968 0
M  V30 25446 H 2376.2 -0.678714 -0.328426 0
M  V30 25447 H 2378.85 -1.83092 -0.122268 0
M  V30 25448 H 2377.23 -3.15804 -2.38922 0
M  V30 25449 H 2378.4 -4.60739 0.0751976 0
M  V30 25450 H 2376.72 -4.16302 -0.0902699 0
M  V30 25451 H 2379.32 -4.52549 -2.84786 0
M  V30 25452 H 2379.66 -2.82581 -3.05702 0
M  V30 25453 H 2380.19 -3.65355 -1.57355 0
M  V30 25454 H 2376.93 -6.51843 -0.691446 0
M  V30 25455 H 2376.45 -5.60356 -2.13919 0
M  V30 25456 H 2378.13 -6.16812 -1.95326 0
M  V30 25457 N 2378.26 0.425871 -1.51737 0
M  V30 25458 C 2379.21 1.53831 -1.74467 0
M  V30 25459 C 2380.2 1.57987 -0.611269 0
M  V30 25460 O 2381.41 1.61594 -0.792927 0
M  V30 25461 H 2377.79 0.511284 -0.551446 0
M  V30 25462 H 2379.76 1.31838 -2.67696 0
M  V30 25463 C 2378.51 2.91376 -1.89725 0
M  V30 25464 H 2377.83 2.88914 -2.76349 0
M  V30 25465 H 2379.27 3.6855 -2.09636 0
M  V30 25466 C 2377.73 3.30372 -0.659978 0
M  V30 25467 O 2378.26 4.01296 0.180013 0
M  V30 25468 N 2376.46 2.86254 -0.500727 0
M  V30 25469 H 2376.01 2.28707 -1.18537 0
M  V30 25470 H 2375.97 3.12707 0.325848 0
M  V30 25471 N 2379.74 1.42077 0.682052 0
M  V30 25472 C 2380.69 1.45211 1.81705 0
M  V30 25473 C 2381.68 0.32862 1.66182 0
M  V30 25474 O 2382.89 0.501294 1.72879 0
M  V30 25475 H 2379.26 0.454638 0.599006 0
M  V30 25476 H 2381.23 2.4084 1.76179 0
M  V30 25477 C 2379.98 1.36434 3.19814 0
M  V30 25478 H 2379.31 2.22177 3.32382 0
M  V30 25479 H 2380.75 1.42688 3.99269 0
M  V30 25480 C 2379.21 0.0782502 3.36809 0
M  V30 25481 O 2379.74 -0.871811 3.92125 0
M  V30 25482 N 2377.94 -0.00224158 2.906 0
M  V30 25483 H 2377.49 0.77166 2.45771 0
M  V30 25484 H 2377.45 -0.862126 3.02349 0
M  V30 25485 N 2381.22 -0.917649 1.28129 0
M  V30 25486 C 2382.18 -2.00113 1.11747 0
M  V30 25487 C 2383.18 -1.60694 0.0583334 0
M  V30 25488 O 2384.37 -1.71531 0.303785 0
M  V30 25489 C 2381.5 -3.33532 0.704921 0
M  V30 25490 H 2382.7 -2.16076 2.0797 0
M  V30 25491 H 2380.25 -1.09979 1.1106 0
M  V30 25492 H 2380.99 -3.2327 -0.258242 0
M  V30 25493 H 2380.77 -3.63503 1.46997 0
M  V30 25494 H 2382.26 -4.13079 0.612841 0
M  V30 25495 N 2382.7 -1.10314 -1.12555 0
M  V30 25496 C 2383.95 -0.839621 -1.83394 0
M  V30 25497 C 2384.26 0.636897 -1.8494 0
M  V30 25498 O 2385.47 1.01627 -2.51762 0
M  V30 25499 C 2383.92 -1.4522 -3.29301 0
M  V30 25500 C 2383.53 -2.96192 -3.36116 0
M  V30 25501 C 2385.27 -1.26803 -4.05119 0
M  V30 25502 C 2383.18 -3.50491 -4.7635 0
M  V30 25503 H 2382.11 -0.310437 -0.687128 0
M  V30 25504 H 2384.76 -1.32697 -1.26743 0
M  V30 25505 H 2383.14 -0.892537 -3.85811 0
M  V30 25506 H 2384.32 -3.58463 -2.89553 0
M  V30 25507 H 2382.63 -3.1375 -2.7377 0
M  V30 25508 H 2385.23 -1.64815 -5.08665 0
M  V30 25509 H 2385.57 -0.209482 -4.15773 0
M  V30 25510 H 2386.11 -1.7957 -3.54964 0
M  V30 25511 H 2382.84 -4.56007 -4.70891 0
M  V30 25512 H 2382.36 -2.92987 -5.23372 0
M  V30 25513 H 2384.04 -3.48238 -5.45288 0
M  V30 25514 N 2384.18 1.29948 -0.891694 0
M  V30 25515 C 2385.11 2.3039 -0.379838 0
M  V30 25516 C 2386.09 1.61271 0.540891 0
M  V30 25517 O 2387.27 1.88835 0.453319 0
M  V30 25518 C 2384.4 3.44982 0.400593 0
M  V30 25519 C 2383.36 4.25845 -0.42898 0
M  V30 25520 C 2382.68 5.32555 0.478463 0
M  V30 25521 C 2383.98 4.94724 -1.67467 0
M  V30 25522 H 2385.68 2.73452 -1.21919 0
M  V30 25523 H 2383.22 1.31461 -0.587698 0
M  V30 25524 H 2385.17 4.14317 0.769361 0
M  V30 25525 H 2383.9 3.00742 1.27365 0
M  V30 25526 H 2382.56 3.58207 -0.779974 0
M  V30 25527 H 2382.21 4.84561 1.34943 0
M  V30 25528 H 2381.91 5.87555 -0.0728465 0
M  V30 25529 H 2383.43 6.04744 0.843599 0
M  V30 25530 H 2384.84 5.5654 -1.3761 0
M  V30 25531 H 2383.24 5.5962 -2.16668 0
M  V30 25532 H 2384.31 4.20468 -2.41525 0
M  V30 25533 N 2385.65 0.653339 1.4342 0
M  V30 25534 C 2387.07 0.320914 1.5634 0
M  V30 25535 C 2387.27 -1.17496 1.63698 0
M  V30 25536 O 2386.33 -1.95979 1.59212 0
M  V30 25537 C 2387.64 1.03238 2.82423 0
M  V30 25538 C 2389.19 1.01264 2.96167 0
M  V30 25539 C 2389.66 1.705 4.25081 0
M  V30 25540 N 2391.15 1.67264 4.31945 0
M  V30 25541 C 2391.89 2.1771 5.30462 0
M  V30 25542 N 2391.38 2.76445 6.35256 0
M  V30 25543 N 2393.18 2.08209 5.22116 0
M  V30 25544 H 2385.33 1.62406 1.36887 0
M  V30 25545 H 2387.59 0.682989 0.657442 0
M  V30 25546 H 2387.3 2.08749 2.83049 0
M  V30 25547 H 2387.17 0.584013 3.72651 0
M  V30 25548 H 2389.56 -0.0340717 2.9508 0
M  V30 25549 H 2389.64 1.49969 2.07227 0
M  V30 25550 H 2389.28 2.75128 4.26928 0
M  V30 25551 H 2389.21 1.1926 5.12918 0
M  V30 25552 H 2391.7 1.24404 3.56836 0
M  V30 25553 H 2392.02 3.12613 7.06748 0
M  V30 25554 H 2390.36 2.80506 6.35879 0
M  V30 25555 H 2393.55 1.62028 4.39163 0
M  V30 25556 H 2393.73 2.47832 5.98735 0
M  V30 25557 N 2387.13 -1.52563 0.395266 0
M  V30 25558 C 2388.09 -2.25226 -0.424961 0
M  V30 25559 C 2389.09 -1.27081 -0.985244 0
M  V30 25560 O 2390.28 -1.51132 -0.866305 0
M  V30 25561 C 2387.42 -3.01189 -1.59681 0
M  V30 25562 H 2388.61 -2.99155 0.211285 0
M  V30 25563 H 2386.16 -1.55602 0.1475 0
M  V30 25564 H 2386.9 -2.31576 -2.27031 0
M  V30 25565 H 2386.68 -3.73231 -1.2017 0
M  V30 25566 H 2388.17 -3.56343 -2.17736 0
M  V30 25567 N 2388.61 -0.125265 -1.57101 0
M  V30 25568 C 2389.56 0.839889 -2.16907 0
M  V30 25569 C 2390.55 1.27092 -1.12 0
M  V30 25570 O 2391.76 1.24193 -1.30293 0
M  V30 25571 H 2388.13 0.288982 -0.694257 0
M  V30 25572 H 2390.1 0.311063 -2.96774 0
M  V30 25573 C 2388.85 2.07766 -2.78799 0
M  V30 25574 H 2388.18 1.75494 -3.59224 0
M  V30 25575 H 2389.62 2.73289 -3.24175 0
M  V30 25576 C 2388.07 2.87152 -1.76198 0
M  V30 25577 O 2388.6 3.82752 -1.21916 0
M  V30 25578 N 2386.81 2.51264 -1.45995 0
M  V30 25579 H 2386.36 1.73589 -1.90328 0
M  V30 25580 H 2386.32 3.04676 -0.775897 0
M  V30 25581 N 2390.09 1.56899 0.148518 0
M  V30 25582 C 2391.02 2.01184 1.18521 0
M  V30 25583 C 2392 0.891148 1.44888 0
M  V30 25584 O 2393.18 1.15885 1.55834 0
M  V30 25585 C 2390.31 2.39116 2.51874 0
M  V30 25586 C 2389.27 3.54357 2.40031 0
M  V30 25587 C 2388.59 3.78098 3.78082 0
M  V30 25588 C 2389.89 4.87072 1.88568 0
M  V30 25589 H 2391.59 2.88038 0.816979 0
M  V30 25590 H 2389.13 1.38574 0.39155 0
M  V30 25591 H 2391.09 2.68698 3.24622 0
M  V30 25592 H 2389.81 1.49198 2.9053 0
M  V30 25593 H 2388.47 3.24939 1.69736 0
M  V30 25594 H 2388.12 2.85433 4.1417 0
M  V30 25595 H 2387.82 4.55651 3.7102 0
M  V30 25596 H 2389.34 4.10103 4.5238 0
M  V30 25597 H 2390.76 5.15381 2.51108 0
M  V30 25598 H 2389.15 5.68421 1.924 0
M  V30 25599 H 2390.22 4.77546 0.841276 0
M  V30 25600 N 2391.57 -0.417818 1.51961 0
M  V30 25601 C 2392.5 -1.5273 1.70898 0
M  V30 25602 C 2393.51 -1.51755 0.589432 0
M  V30 25603 O 2394.7 -1.56178 0.864339 0
M  V30 25604 C 2391.8 -2.91636 1.72632 0
M  V30 25605 C 2390.97 -3.169 3.01485 0
M  V30 25606 C 2390.03 -4.35631 2.95147 0
M  V30 25607 O 2389.06 -4.33334 3.69067 0
M  V30 25608 N 2390.26 -5.40271 2.12338 0
M  V30 25609 H 2393.02 -1.36883 2.66614 0
M  V30 25610 H 2390.59 -0.607011 1.5009 0
M  V30 25611 H 2392.58 -3.69117 1.65935 0
M  V30 25612 H 2391.15 -3.00983 0.844268 0
M  V30 25613 H 2390.37 -2.2754 3.21899 0
M  V30 25614 H 2391.66 -3.30618 3.86742 0
M  V30 25615 H 2391.05 -5.44982 1.51694 0
M  V30 25616 H 2389.61 -6.1653 2.11504 0
M  V30 25617 N 2393.04 -1.42436 -0.674508 0
M  V30 25618 C 2393.99 -1.45937 -1.78804 0
M  V30 25619 C 2394.96 -0.3113 -1.63157 0
M  V30 25620 O 2396.15 -0.515415 -1.83707 0
M  V30 25621 C 2393.29 -1.36779 -3.16837 0
M  V30 25622 C 2392.4 -2.61623 -3.43769 0
M  V30 25623 C 2391.53 -2.44605 -4.71531 0
M  V30 25624 C 2390.57 -3.64822 -4.91499 0
M  V30 25625 N 2389.71 -3.46744 -6.10502 0
M  V30 25626 H 2394.55 -2.41097 -1.75147 0
M  V30 25627 H 2392.09 -1.19699 -0.855019 0
M  V30 25628 H 2394.04 -1.29466 -3.96603 0
M  V30 25629 H 2392.67 -0.452145 -3.19618 0
M  V30 25630 H 2391.73 -2.79301 -2.58254 0
M  V30 25631 H 2393.04 -3.50984 -3.54417 0
M  V30 25632 H 2392.19 -2.3488 -5.59389 0
M  V30 25633 H 2390.93 -1.52734 -4.63167 0
M  V30 25634 H 2389.94 -3.74979 -4.02083 0
M  V30 25635 H 2391.16 -4.57674 -5.01708 0
M  V30 25636 H 2389.11 -2.57591 -6.0331 0
M  V30 25637 H 2389.02 -4.29693 -6.22013 0
M  V30 25638 H 2390.29 -3.40832 -7.01038 0
M  V30 25639 N 2394.52 0.910841 -1.28614 0
M  V30 25640 C 2395.77 1.65699 -1.15708 0
M  V30 25641 C 2396.09 1.92769 0.294126 0
M  V30 25642 O 2395.36 1.5459 1.20328 0
M  V30 25643 H 2393.94 0.614159 -0.425227 0
M  V30 25644 H 2396.6 1.09277 -1.61383 0
M  V30 25645 H 2395.7 2.61812 -1.69885 0
M  V30 25646 N 2396 1.10909 1.11969 0
M  V30 25647 C 2396.91 0.774935 2.21432 0
M  V30 25648 C 2397.93 -0.229627 1.72478 0
M  V30 25649 O 2399.1 -0.0671654 2.01288 0
M  V30 25650 C 2396.17 0.217047 3.4602 0
M  V30 25651 C 2395.23 1.27951 4.09789 0
M  V30 25652 C 2394.46 0.748148 5.2843 0
M  V30 25653 O 2394.68 -0.423733 5.68824 0
M  V30 25654 O 2393.62 1.51037 5.82642 0
M  V30 25655 H 2397.44 1.68877 2.52417 0
M  V30 25656 H 2395.03 0.884576 1.20398 0
M  V30 25657 H 2396.91 -0.089985 4.21304 0
M  V30 25658 H 2395.59 -0.669577 3.16699 0
M  V30 25659 H 2394.49 1.63947 3.36262 0
M  V30 25660 H 2395.83 2.13932 4.43276 0
M  V30 25661 N 2397.48 -1.29474 0.898573 0
M  V30 25662 C 2398.43 -2.29714 0.365294 0
M  V30 25663 C 2399.42 -1.60731 -0.534964 0
M  V30 25664 O 2400.63 -1.75082 -0.41789 0
M  V30 25665 H 2397 -0.745389 0.0994984 0
M  V30 25666 H 2398.97 -2.72136 1.22411 0
M  V30 25667 C 2397.72 -3.45471 -0.393099 0
M  V30 25668 H 2397.04 -3.98744 0.290402 0
M  V30 25669 H 2398.48 -4.17649 -0.731116 0
M  V30 25670 C 2396.94 -2.96733 -1.59534 0
M  V30 25671 O 2397.47 -2.97913 -2.69464 0
M  V30 25672 N 2395.68 -2.52577 -1.43712 0
M  V30 25673 H 2395.23 -2.51817 -0.542784 0
M  V30 25674 H 2395.18 -2.20327 -2.24284 0
M  V30 25675 N 2398.96 -0.660936 -1.43071 0
M  V30 25676 C 2400.37 -0.25638 -1.84931 0
M  V30 25677 C 2400.72 1.19866 -1.55328 0
M  V30 25678 O 2399.84 1.91589 -1.0061 0
M  V30 25679 C 2400.44 -0.458534 -3.35683 0
M  V30 25680 C 2399 -0.108227 -3.76244 0
M  V30 25681 C 2398.14 -0.757688 -2.66748 0
M  V30 25682 H 2401.1 -0.864074 -1.33114 0
M  V30 25683 H 2401.12 0.293617 -3.79365 0
M  V30 25684 H 2400.63 -1.51761 -3.57198 0
M  V30 25685 H 2398.73 0.94795 -3.6034 0
M  V30 25686 H 2398.84 -0.539076 -4.76058 0
M  V30 25687 H 2397.21 -0.190229 -2.53989 0
M  V30 25688 H 2397.99 -1.81995 -2.91089 0
M  V30 25689 N 2400.43 1.52351 -0.403352 0
M  V30 25690 C 2401.66 2.06648 0.176463 0
M  V30 25691 C 2402.08 1.27196 1.38574 0
M  V30 25692 O 2401.44 0.300668 1.78789 0
M  V30 25693 C 2401.49 3.56961 0.510999 0
M  V30 25694 O 2400.59 3.79976 1.60287 0
M  V30 25695 H 2399.94 0.663789 0.016722 0
M  V30 25696 H 2402.47 1.96357 -0.574882 0
M  V30 25697 H 2402.48 4.00643 0.771291 0
M  V30 25698 H 2401.15 4.14224 -0.373033 0
M  V30 25699 H 2399.73 3.48177 1.3352 0
M  V30 25700 N 2401.91 0.133594 1.57033 0
M  V30 25701 C 2402.86 -0.822634 2.12642 0
M  V30 25702 C 2403.85 -1.21846 1.05083 0
M  V30 25703 O 2405.04 -1.18711 1.31289 0
M  V30 25704 C 2402.17 -2.06701 2.74098 0
M  V30 25705 C 2401.25 -1.6949 3.8876 0
M  V30 25706 N 2401.64 -1.03029 4.95196 0
M  V30 25707 C 2399.94 -1.98852 3.99217 0
M  V30 25708 C 2400.64 -0.852772 5.75415 0
M  V30 25709 N 2399.62 -1.38241 5.25728 0
M  V30 25710 H 2403.42 -0.305486 2.92308 0
M  V30 25711 H 2400.94 -0.0683991 1.62256 0
M  V30 25712 H 2402.93 -2.7619 3.1229 0
M  V30 25713 H 2401.59 -2.58946 1.959 0
M  V30 25714 H 2402.6 -0.692579 5.13248 0
M  V30 25715 H 2399.28 -2.53041 3.32079 0
M  V30 25716 H 2400.67 -0.329973 6.71089 0
M  V30 25717 N 2403.39 -1.56975 -0.140195 0
M  V30 25718 C 2404.62 -1.87613 -0.865148 0
M  V30 25719 C 2405.03 -0.720581 -1.74941 0
M  V30 25720 O 2404.37 0.31853 -1.80917 0
M  V30 25721 C 2404.43 -3.13034 -1.76776 0
M  V30 25722 C 2404.1 -4.44537 -1.05998 0
M  V30 25723 C 2405.09 -5.18275 -0.410676 0
M  V30 25724 C 2402.78 -4.91257 -1.04746 0
M  V30 25725 C 2404.77 -6.36942 0.241684 0
M  V30 25726 C 2402.46 -6.09846 -0.391287 0
M  V30 25727 C 2403.46 -6.82534 0.252149 0
M  V30 25728 O 2403.15 -7.9887 0.897897 0
M  V30 25729 H 2402.88 -0.625988 -0.255177 0
M  V30 25730 H 2405.43 -2.04952 -0.135617 0
M  V30 25731 H 2403.66 -2.91722 -2.53841 0
M  V30 25732 H 2405.35 -3.29863 -2.36527 0
M  V30 25733 H 2406.12 -4.83246 -0.41211 0
M  V30 25734 H 2402 -4.34599 -1.5377 0
M  V30 25735 H 2405.54 -6.93616 0.744497 0
M  V30 25736 H 2401.44 -6.44336 -0.387543 0
M  V30 25737 H 2402.21 -8.14579 0.800245 0
M  V30 25738 N 2404.87 0.409753 -1.5218 0
M  V30 25739 C 2406.12 1.15448 -1.6588 0
M  V30 25740 C 2406.44 1.91044 -0.390804 0
M  V30 25741 O 2405.71 1.86668 0.59429 0
M  V30 25742 H 2404.29 0.429166 -0.611412 0
M  V30 25743 H 2406.95 0.467101 -1.8922 0
M  V30 25744 H 2406.05 1.86889 -2.49958 0
M  V30 25745 N 2406.35 1.42792 0.666944 0
M  V30 25746 C 2407.6 1.42971 1.42275 0
M  V30 25747 C 2407.91 0.0524833 1.9553 0
M  V30 25748 O 2409.11 -0.0683153 2.71414 0
M  V30 25749 C 2407.57 2.51528 2.57413 0
M  V30 25750 C 2407.18 3.95293 2.10825 0
M  V30 25751 C 2408.92 2.60883 3.34874 0
M  V30 25752 C 2406.83 4.95344 3.23092 0
M  V30 25753 H 2405.76 0.53179 0.534523 0
M  V30 25754 H 2408.41 1.6873 0.721272 0
M  V30 25755 H 2406.79 2.18947 3.29967 0
M  V30 25756 H 2407.97 4.37268 1.45373 0
M  V30 25757 H 2406.28 3.8986 1.46282 0
M  V30 25758 H 2408.88 3.3281 4.18499 0
M  V30 25759 H 2409.22 1.65496 3.8199 0
M  V30 25760 H 2409.75 2.92698 2.69393 0
M  V30 25761 H 2406.49 5.92235 2.80958 0
M  V30 25762 H 2406.01 4.57994 3.87301 0
M  V30 25763 H 2407.69 5.17421 3.88438 0
M  V30 25764 N 2407.82 -0.904008 1.29095 0
M  V30 25765 C 2409.05 -1.68764 1.19692 0
M  V30 25766 C 2409.47 -1.87229 -0.24308 0
M  V30 25767 O 2408.82 -1.40624 -1.16324 0
M  V30 25768 C 2408.88 -3.0745 1.90149 0
M  V30 25769 O 2408.6 -2.89832 3.28526 0
M  V30 25770 C 2410.1 -4.01849 1.8717 0
M  V30 25771 H 2407.32 -0.527237 0.415045 0
M  V30 25772 H 2409.86 -1.13079 1.70392 0
M  V30 25773 H 2408.02 -3.59924 1.43296 0
M  V30 25774 H 2408.43 -3.77677 3.63951 0
M  V30 25775 H 2409.9 -4.96592 2.41041 0
M  V30 25776 H 2410.38 -4.3097 0.846246 0
M  V30 25777 H 2410.99 -3.55306 2.33747 0
M  V30 25778 N 2409.3 -1.11501 -1.11379 0
M  V30 25779 C 2410.27 -0.777191 -2.15621 0
M  V30 25780 C 2411.27 0.203751 -1.59504 0
M  V30 25781 O 2412.46 -0.0208126 -1.74188 0
M  V30 25782 C 2409.59 -0.153176 -3.40556 0
M  V30 25783 H 2410.78 -1.70065 -2.47018 0
M  V30 25784 H 2408.33 -0.916974 -1.26575 0
M  V30 25785 H 2409.07 0.780481 -3.14768 0
M  V30 25786 H 2408.85 -0.859305 -3.82568 0
M  V30 25787 H 2410.34 0.067031 -4.17546 0
M  V30 25788 N 2410.78 1.28995 -0.905426 0
M  V30 25789 C 2412.03 1.95325 -0.534282 0
M  V30 25790 C 2412.36 1.71339 0.920505 0
M  V30 25791 O 2411.61 1.02257 1.66859 0
M  V30 25792 C 2411.91 3.48785 -0.779967 0
M  V30 25793 C 2411.58 3.92857 -2.213 0
M  V30 25794 C 2410.24 4.04602 -2.60482 0
M  V30 25795 C 2412.59 4.15548 -3.14594 0
M  V30 25796 C 2409.92 4.36409 -3.92128 0
M  V30 25797 C 2412.27 4.48831 -4.45795 0
M  V30 25798 C 2410.93 4.58786 -4.84842 0
M  V30 25799 H 2410.2 0.714743 -0.195508 0
M  V30 25800 H 2412.85 1.53486 -1.14517 0
M  V30 25801 H 2411.16 3.91705 -0.0862053 0
M  V30 25802 H 2412.85 3.98211 -0.472099 0
M  V30 25803 H 2409.44 3.84237 -1.89894 0
M  V30 25804 H 2413.63 4.05935 -2.85535 0
M  V30 25805 H 2408.88 4.4232 -4.22094 0
M  V30 25806 H 2413.06 4.65337 -5.18106 0
M  V30 25807 H 2410.68 4.83187 -5.86885 0
M  V30 25808 N 2412.26 0.668514 1.42719 0
M  V30 25809 C 2413.21 -0.0254448 2.32586 0
M  V30 25810 C 2414.2 -0.79715 1.49472 0
M  V30 25811 O 2415.41 -0.705823 1.65584 0
M  V30 25812 H 2411.78 -0.0270207 0.751514 0
M  V30 25813 H 2413.75 0.749987 2.88821 0
M  V30 25814 C 2412.5 -0.967368 3.33972 0
M  V30 25815 H 2411.83 -0.382978 3.97961 0
M  V30 25816 H 2413.27 -1.42174 3.99453 0
M  V30 25817 C 2411.72 -2.07075 2.65747 0
M  V30 25818 O 2412.25 -3.15644 2.48459 0
M  V30 25819 N 2410.46 -1.84066 2.24873 0
M  V30 25820 H 2410.01 -0.957738 2.39134 0
M  V30 25821 H 2409.97 -2.58083 1.79557 0
M  V30 25822 N 2413.74 -1.52135 0.411426 0
M  V30 25823 C 2414.69 -2.23902 -0.430337 0
M  V30 25824 C 2415.67 -1.25123 -1.01158 0
M  V30 25825 O 2416.86 -1.5035 -0.934018 0
M  V30 25826 C 2413.99 -3.06558 -1.54521 0
M  V30 25827 C 2413.08 -4.12749 -0.974627 0
M  V30 25828 N 2413.47 -5.05631 -0.130903 0
M  V30 25829 C 2411.77 -4.28274 -1.2449 0
M  V30 25830 C 2412.47 -5.814 0.186791 0
M  V30 25831 N 2411.44 -5.41952 -0.422945 0
M  V30 25832 H 2415.25 -2.93071 0.220561 0
M  V30 25833 H 2412.76 -1.60876 0.221981 0
M  V30 25834 H 2414.76 -3.56528 -2.16087 0
M  V30 25835 H 2413.42 -2.38929 -2.19871 0
M  V30 25836 H 2414.43 -5.17373 0.233581 0
M  V30 25837 H 2411.11 -3.71873 -1.89781 0
M  V30 25838 H 2412.5 -6.6622 0.87179 0
M  V30 25839 N 2415.22 -0.14192 -1.5696 0
M  V30 25840 C 2416.63 0.379743 -1.82797 0
M  V30 25841 C 2416.98 1.65078 -1.06036 0
M  V30 25842 O 2416.1 2.14253 -0.304049 0
M  V30 25843 C 2416.7 0.695744 -3.31579 0
M  V30 25844 C 2415.26 1.16195 -3.58016 0
M  V30 25845 C 2414.4 0.182406 -2.76699 0
M  V30 25846 H 2417.35 -0.366702 -1.54405 0
M  V30 25847 H 2417.38 1.55093 -3.47457 0
M  V30 25848 H 2416.89 -0.229517 -3.87421 0
M  V30 25849 H 2414.99 2.10333 -3.07556 0
M  V30 25850 H 2415.1 1.09143 -4.66502 0
M  V30 25851 H 2413.47 0.674029 -2.4562 0
M  V30 25852 H 2414.25 -0.736356 -3.3531 0
M  V30 25853 N 2416.69 1.57047 0.131868 0
M  V30 25854 C 2417.62 2.0243 1.1638 0
M  V30 25855 C 2418.6 0.906465 1.43935 0
M  V30 25856 O 2419.79 1.17531 1.54596 0
M  V30 25857 C 2416.92 2.41774 2.49324 0
M  V30 25858 C 2415.87 3.56883 2.36259 0
M  V30 25859 C 2415.2 3.82087 3.74051 0
M  V30 25860 C 2416.5 4.89045 1.83392 0
M  V30 25861 H 2418.19 2.88888 0.786383 0
M  V30 25862 H 2415.74 1.38982 0.37683 0
M  V30 25863 H 2417.69 2.72126 3.21754 0
M  V30 25864 H 2416.42 1.52271 2.88931 0
M  V30 25865 H 2415.08 3.26721 1.6628 0
M  V30 25866 H 2414.72 2.8981 4.1112 0
M  V30 25867 H 2414.42 4.59561 3.66166 0
M  V30 25868 H 2415.95 4.14878 4.48005 0
M  V30 25869 H 2417.36 5.18016 2.45627 0
M  V30 25870 H 2415.76 5.70429 1.8636 0
M  V30 25871 H 2416.83 4.78412 0.790578 0
M  V30 25872 N 2418.17 -0.401677 1.52395 0
M  V30 25873 C 2419.12 -1.51036 1.76892 0
M  V30 25874 C 2420.11 -1.56994 0.636326 0
M  V30 25875 O 2421.32 -1.60312 0.818535 0
M  V30 25876 H 2417.69 -0.502446 0.559511 0
M  V30 25877 H 2419.67 -1.27563 2.6976 0
M  V30 25878 C 2418.41 -2.8832 1.94336 0
M  V30 25879 H 2417.74 -2.84481 2.8091 0
M  V30 25880 H 2419.18 -3.65168 2.15473 0
M  V30 25881 C 2417.64 -3.29281 0.712454 0
M  V30 25882 O 2418.17 -4.01532 -0.116147 0
M  V30 25883 N 2416.37 -2.85421 0.546204 0
M  V30 25884 H 2415.92 -2.26792 1.2216 0
M  V30 25885 H 2415.88 -3.13186 -0.276058 0
M  V30 25886 N 2419.65 -1.43144 -0.659362 0
M  V30 25887 C 2420.58 -1.50628 -1.78419 0
M  V30 25888 C 2421.56 -0.361472 -1.66215 0
M  V30 25889 O 2422.75 -0.577866 -1.85403 0
M  V30 25890 C 2419.88 -1.42293 -3.16812 0
M  V30 25891 C 2418.83 -2.5496 -3.43772 0
M  V30 25892 C 2418.16 -2.31679 -4.81901 0
M  V30 25893 C 2419.46 -3.97228 -3.39127 0
M  V30 25894 H 2421.15 -2.44774 -1.72413 0
M  V30 25895 H 2418.7 -1.1781 -0.828063 0
M  V30 25896 H 2420.65 -1.46134 -3.9525 0
M  V30 25897 H 2419.37 -0.446492 -3.23534 0
M  V30 25898 H 2418.03 -2.50462 -2.67702 0
M  V30 25899 H 2417.68 -1.32293 -4.85291 0
M  V30 25900 H 2417.38 -3.072 -5.00901 0
M  V30 25901 H 2418.9 -2.37294 -5.62604 0
M  V30 25902 H 2420.32 -4.03247 -4.07511 0
M  V30 25903 H 2418.71 -4.72725 -3.69663 0
M  V30 25904 H 2419.78 -4.22801 -2.37418 0
M  V30 25905 N 2421.13 0.897149 -1.29572 0
M  V30 25906 C 2422.36 1.68127 -1.20585 0
M  V30 25907 C 2422.77 1.87355 0.233148 0
M  V30 25908 O 2422.13 1.41238 1.15577 0
M  V30 25909 C 2422.18 3.06437 -1.91777 0
M  V30 25910 O 2421.9 2.88086 -3.30058 0
M  V30 25911 C 2423.4 4.00851 -1.89298 0
M  V30 25912 H 2420.62 0.525029 -0.417835 0
M  V30 25913 H 2423.16 1.12174 -1.70989 0
M  V30 25914 H 2421.32 3.59159 -1.45202 0
M  V30 25915 H 2421.73 3.75742 -3.65948 0
M  V30 25916 H 2423.21 4.95306 -2.43671 0
M  V30 25917 H 2423.68 4.30515 -0.869089 0
M  V30 25918 H 2424.29 3.54061 -2.35628 0
M  V30 25919 N 2422.61 1.1209 1.10786 0
M  V30 25920 C 2423.55 0.785445 2.17024 0
M  V30 25921 C 2424.52 -0.246162 1.64266 0
M  V30 25922 O 2425.71 -0.121551 1.90412 0
M  V30 25923 C 2422.85 0.242237 3.44249 0
M  V30 25924 C 2421.96 1.33122 4.10977 0
M  V30 25925 C 2421.1 0.747833 5.2591 0
M  V30 25926 C 2420.13 1.81619 5.84535 0
M  V30 25927 N 2419.27 1.25179 6.90851 0
M  V30 25928 H 2424.11 1.69553 2.45063 0
M  V30 25929 H 2421.65 0.846603 1.20296 0
M  V30 25930 H 2423.61 -0.0907293 4.17101 0
M  V30 25931 H 2422.24 -0.631016 3.16572 0
M  V30 25932 H 2421.29 1.78103 3.3613 0
M  V30 25933 H 2422.6 2.13925 4.50597 0
M  V30 25934 H 2421.75 0.365322 6.05599 0
M  V30 25935 H 2420.49 -0.0914331 4.87614 0
M  V30 25936 H 2419.5 2.20794 5.03518 0
M  V30 25937 H 2420.72 2.65861 6.24896 0
M  V30 25938 H 2418.67 0.434289 6.54561 0
M  V30 25939 H 2418.59 1.99645 7.29162 0
M  V30 25940 H 2419.85 0.896395 7.74329 0
M  V30 25941 N 2424.08 -1.28513 0.912254 0
M  V30 25942 C 2425.02 -2.26406 0.3568 0
M  V30 25943 C 2426.03 -1.54805 -0.503905 0
M  V30 25944 O 2427.22 -1.75626 -0.319028 0
M  V30 25945 C 2424.32 -3.35059 -0.508767 0
M  V30 25946 C 2423.49 -4.3616 0.329083 0
M  V30 25947 C 2422.55 -5.24085 -0.47133 0
M  V30 25948 O 2421.58 -5.69083 0.115582 0
M  V30 25949 N 2422.78 -5.52707 -1.77469 0
M  V30 25950 H 2425.54 -2.74705 1.19822 0
M  V30 25951 H 2423.1 -1.41979 0.778047 0
M  V30 25952 H 2425.1 -3.90816 -1.05093 0
M  V30 25953 H 2423.67 -2.86481 -1.2509 0
M  V30 25954 H 2422.89 -3.79886 1.05262 0
M  V30 25955 H 2424.17 -5.00733 0.902428 0
M  V30 25956 H 2423.57 -5.17979 -2.27408 0
M  V30 25957 H 2422.13 -6.11228 -2.26372 0
M  V30 25958 N 2425.56 -0.676073 -1.42362 0
M  V30 25959 C 2426.49 0.0404202 -2.29164 0
M  V30 25960 C 2427.51 0.764219 -1.43748 0
M  V30 25961 O 2428.7 0.618166 -1.67454 0
M  V30 25962 C 2425.8 1.08097 -3.21198 0
M  V30 25963 C 2424.97 0.430736 -4.35274 0
M  V30 25964 C 2424.03 1.37124 -5.08019 0
M  V30 25965 O 2423.05 0.871061 -5.62495 0
M  V30 25966 N 2424.26 2.70447 -5.13652 0
M  V30 25967 H 2427.02 -0.704718 -2.91297 0
M  V30 25968 H 2424.58 -0.520586 -1.53302 0
M  V30 25969 H 2426.57 1.71145 -3.66731 0
M  V30 25970 H 2425.14 1.72783 -2.60509 0
M  V30 25971 H 2424.36 -0.379278 -3.92371 0
M  V30 25972 H 2425.65 -0.0222027 -5.08795 0
M  V30 25973 H 2425.05 3.13621 -4.70806 0
M  V30 25974 H 2423.61 3.28739 -5.62826 0
M  V30 25975 N 2427.04 1.51915 -0.419488 0
M  V30 25976 C 2427.97 2.3019 0.391772 0
M  V30 25977 C 2428.95 1.34837 1.03696 0
M  V30 25978 O 2430.14 1.6375 1.04401 0
M  V30 25979 C 2427.27 3.1309 1.50306 0
M  V30 25980 C 2426.22 4.16575 0.982327 0
M  V30 25981 C 2425.55 4.87884 2.18801 0
M  V30 25982 C 2426.85 5.22292 0.0291438 0
M  V30 25983 H 2428.54 2.98257 -0.261402 0
M  V30 25984 H 2426.09 1.43437 -0.127159 0
M  V30 25985 H 2428.04 3.66621 2.07767 0
M  V30 25986 H 2426.76 2.42811 2.18427 0
M  V30 25987 H 2425.42 3.64069 0.430055 0
M  V30 25988 H 2425.07 4.14124 2.855 0
M  V30 25989 H 2424.77 5.57848 1.84605 0
M  V30 25990 H 2426.29 5.44231 2.76848 0
M  V30 25991 H 2427.71 5.71001 0.512875 0
M  V30 25992 H 2426.11 5.9968 -0.224505 0
M  V30 25993 H 2427.18 4.76227 -0.913015 0
M  V30 25994 N 2428.52 0.150242 1.56882 0
M  V30 25995 C 2429.74 -0.510148 2.01028 0
M  V30 25996 C 2430.17 -1.57414 1.02969 0
M  V30 25997 O 2429.53 -1.81299 0.00593344 0
M  V30 25998 C 2429.57 -1.08466 3.439 0
M  V30 25999 O 2428.68 -2.19942 3.48854 0
M  V30 26000 H 2428.02 -0.124439 0.652235 0
M  V30 26001 H 2430.55 0.24793 2.03092 0
M  V30 26002 H 2430.56 -1.41252 3.82769 0
M  V30 26003 H 2429.23 -0.305509 4.14776 0
M  V30 26004 H 2427.81 -1.8836 3.21831 0
M  V30 26005 N 2430 -1.57115 -0.123538 0
M  V30 26006 C 2430.91 -2.03302 -1.1707 0
M  V30 26007 C 2431.92 -0.952585 -1.45608 0
M  V30 26008 O 2433.1 -1.26377 -1.56815 0
M  V30 26009 C 2430.16 -2.42425 -2.47852 0
M  V30 26010 C 2429.22 -3.6453 -2.26752 0
M  V30 26011 C 2428.46 -4.01778 -3.51298 0
M  V30 26012 O 2428.68 -3.39417 -4.58424 0
M  V30 26013 O 2427.61 -4.94904 -3.42569 0
M  V30 26014 H 2431.44 -2.9274 -0.808504 0
M  V30 26015 H 2429.03 -1.45619 -0.334001 0
M  V30 26016 H 2430.91 -2.68344 -3.24915 0
M  V30 26017 H 2429.58 -1.56135 -2.83555 0
M  V30 26018 H 2428.49 -3.43767 -1.47563 0
M  V30 26019 H 2429.82 -4.51511 -1.95955 0
M  V30 26020 N 2431.47 0.393589 -1.52606 0
M  V30 26021 C 2432.72 1.14076 -1.67674 0
M  V30 26022 C 2433.05 1.89754 -0.413155 0
M  V30 26023 O 2432.33 1.8537 0.588919 0
M  V30 26024 C 2432.61 2.12271 -2.90883 0
M  V30 26025 C 2432.46 1.40386 -4.27331 0
M  V30 26026 C 2433.78 3.12754 -3.09634 0
M  V30 26027 H 2430.9 0.413346 -0.610176 0
M  V30 26028 H 2433.54 0.424663 -1.85193 0
M  V30 26029 H 2431.69 2.73338 -2.76078 0
M  V30 26030 H 2433.37 0.82319 -4.53896 0
M  V30 26031 H 2431.61 0.705726 -4.28021 0
M  V30 26032 H 2432.28 2.12114 -5.09619 0
M  V30 26033 H 2434.76 2.61774 -3.2344 0
M  V30 26034 H 2433.63 3.7871 -3.97329 0
M  V30 26035 H 2433.89 3.81361 -2.23643 0
M  V30 26036 N 2432.95 1.43492 0.651762 0
M  V30 26037 C 2433.92 1.48432 1.74644 0
M  V30 26038 C 2434.92 0.368845 1.56513 0
M  V30 26039 O 2436.11 0.630651 1.62384 0
M  V30 26040 C 2433.24 1.33833 3.13531 0
M  V30 26041 H 2434.43 2.45923 1.71644 0
M  V30 26042 H 2431.98 1.30279 0.86355 0
M  V30 26043 H 2432.72 0.373546 3.22141 0
M  V30 26044 H 2432.5 2.14697 3.28097 0
M  V30 26045 H 2433.99 1.40225 3.93353 0
M  V30 26046 N 2434.43 -0.890264 1.30046 0
M  V30 26047 C 2435.36 -2.0117 1.18545 0
M  V30 26048 C 2436.34 -1.69924 0.0773655 0
M  V30 26049 O 2437.53 -1.92472 0.258484 0
M  V30 26050 C 2434.66 -3.36201 0.871 0
M  V30 26051 C 2433.61 -3.81688 1.93644 0
M  V30 26052 C 2432.94 -5.1395 1.47509 0
M  V30 26053 C 2434.24 -4.00988 3.34673 0
M  V30 26054 H 2435.93 -2.1105 2.12363 0
M  V30 26055 H 2433.48 -1.01405 1.0224 0
M  V30 26056 H 2435.43 -4.14171 0.777214 0
M  V30 26057 H 2434.15 -3.26438 -0.102868 0
M  V30 26058 H 2432.81 -3.05943 2.01977 0
M  V30 26059 H 2432.46 -5.00611 0.489639 0
M  V30 26060 H 2432.16 -5.45356 2.1877 0
M  V30 26061 H 2433.68 -5.94451 1.39499 0
M  V30 26062 H 2435.1 -4.69412 3.29128 0
M  V30 26063 H 2433.5 -4.43762 4.03974 0
M  V30 26064 H 2434.57 -3.05014 3.76954 0
M  V30 26065 N 2435.91 -1.12676 -1.1019 0
M  V30 26066 C 2436.84 -0.740663 -2.15846 0
M  V30 26067 C 2437.82 0.269393 -1.60353 0
M  V30 26068 O 2439 0.162747 -1.87796 0
M  V30 26069 C 2436.13 -0.0967005 -3.38562 0
M  V30 26070 C 2435.18 -1.07399 -4.12756 0
M  V30 26071 S 2436.01 -2.60275 -4.67993 0
M  V30 26072 C 2437.17 -1.97217 -5.94017 0
M  V30 26073 H 2437.4 -1.63562 -2.48263 0
M  V30 26074 H 2434.93 -0.946109 -1.22017 0
M  V30 26075 H 2436.89 0.268463 -4.09621 0
M  V30 26076 H 2435.55 0.775409 -3.04378 0
M  V30 26077 H 2434.74 -0.571085 -5.00754 0
M  V30 26078 H 2434.35 -1.38222 -3.47521 0
M  V30 26079 H 2436.64 -1.31645 -6.64587 0
M  V30 26080 H 2437.58 -2.83264 -6.48974 0
M  V30 26081 H 2437.99 -1.42695 -5.46167 0
M  V30 26082 N 2437.39 1.28028 -0.919057 0
M  V30 26083 C 2438.61 1.98865 -0.571006 0
M  V30 26084 C 2439.03 1.68636 0.848966 0
M  V30 26085 O 2438.39 0.942063 1.56306 0
M  V30 26086 C 2438.44 3.53052 -0.776939 0
M  V30 26087 O 2438.16 3.82219 -2.14104 0
M  V30 26088 C 2439.66 4.41146 -0.436433 0
M  V30 26089 H 2436.88 0.634879 -0.217186 0
M  V30 26090 H 2439.42 1.63094 -1.23371 0
M  V30 26091 H 2437.58 3.87065 -0.161153 0
M  V30 26092 H 2437.99 4.76838 -2.18463 0
M  V30 26093 H 2439.47 5.48379 -0.631267 0
M  V30 26094 H 2439.94 4.34693 0.62761 0
M  V30 26095 H 2440.55 4.1264 -1.02999 0
M  V30 26096 N 2438.86 0.683613 1.42002 0
M  V30 26097 C 2440.09 0.218218 2.05746 0
M  V30 26098 C 2440.51 -1.12801 1.51398 0
M  V30 26099 O 2439.86 -1.70251 0.657333 0
M  V30 26100 C 2439.92 0.154194 3.61171 0
M  V30 26101 O 2439.64 1.44723 4.13505 0
M  V30 26102 C 2441.14 -0.333635 4.42043 0
M  V30 26103 H 2438.36 0.104031 0.662886 0
M  V30 26104 H 2440.9 0.932832 1.81985 0
M  V30 26105 H 2439.06 -0.511163 3.84013 0
M  V30 26106 H 2439.47 1.32641 5.07451 0
M  V30 26107 H 2440.94 -0.327326 5.51029 0
M  V30 26108 H 2441.42 -1.37045 4.17271 0
M  V30 26109 H 2442.03 0.300297 4.24239 0
M  V30 26110 N 2440.34 -1.5169 0.427538 0
M  V30 26111 C 2441.57 -2.06903 -0.143565 0
M  V30 26112 C 2441.99 -1.29384 -1.36533 0
M  V30 26113 O 2441.35 -0.329074 -1.78289 0
M  V30 26114 C 2441.4 -3.57729 -0.454144 0
M  V30 26115 O 2440.5 -3.82478 -1.54222 0
M  V30 26116 H 2439.84 -0.663971 -0.00615961 0
M  V30 26117 H 2442.37 -1.95418 0.606048 0
M  V30 26118 H 2442.38 -4.0182 -0.707455 0
M  V30 26119 H 2441.06 -4.13578 0.438885 0
M  V30 26120 H 2439.64 -3.50257 -1.27963 0
M  V30 26121 N 2441.82 -0.15856 -1.568 0
M  V30 26122 C 2443.07 0.49037 -1.96782 0
M  V30 26123 C 2443.4 1.63751 -1.044 0
M  V30 26124 O 2442.68 1.94298 -0.0886146 0
M  V30 26125 C 2442.96 0.985533 -3.46351 0
M  V30 26126 C 2442.81 -0.160903 -4.49512 0
M  V30 26127 C 2444.13 1.86348 -3.98701 0
M  V30 26128 H 2441.25 0.176776 -0.715485 0
M  V30 26129 H 2443.89 -0.242121 -1.88451 0
M  V30 26130 H 2442.04 1.60972 -3.53582 0
M  V30 26131 H 2443.71 -0.797617 -4.54352 0
M  V30 26132 H 2441.96 -0.818331 -4.26011 0
M  V30 26133 H 2442.63 0.227472 -5.51531 0
M  V30 26134 H 2445.1 1.3374 -3.94021 0
M  V30 26135 H 2443.98 2.179 -5.03796 0
M  V30 26136 H 2444.24 2.80464 -3.41749 0
M  V30 26137 N 2443.3 1.57178 0.115204 0
M  V30 26138 C 2444.58 1.76028 0.852842 0
M  V30 26139 C 2444.96 0.735015 1.97891 0
M  V30 26140 O 2444.3 -0.24032 2.27233 0
M  V30 26141 C 2444.51 3.21155 1.36602 0
M  V30 26142 C 2445.86 3.83765 1.81685 0
M  V30 26143 O 2446.89 3.24781 1.46273 0
M  V30 26144 O 2445.75 4.87449 2.47095 0
M  V30 26145 H 2442.84 0.720884 0.405284 0
M  V30 26146 H 2445.39 1.69413 0.0986487 0
M  V30 26147 H 2444.16 3.87297 0.558289 0
M  V30 26148 H 2443.78 3.32324 2.18281 0
M  V30 26149 N 2444.78 -0.38549 1.52813 0
M  V30 26150 C 2446.02 -1.13185 1.68277 0
M  V30 26151 C 2446.36 -1.89532 0.423212 0
M  V30 26152 O 2445.63 -1.8568 -0.57908 0
M  V30 26153 C 2445.91 -2.10725 2.92005 0
M  V30 26154 C 2445.77 -1.38118 4.28069 0
M  V30 26155 C 2447.09 -3.11107 3.11288 0
M  V30 26156 H 2444.21 -0.410104 0.612359 0
M  V30 26157 H 2446.85 -0.414836 1.85416 0
M  V30 26158 H 2445 -2.7187 2.77523 0
M  V30 26159 H 2446.67 -0.799107 4.54326 0
M  V30 26160 H 2444.91 -0.683017 4.28389 0
M  V30 26161 H 2445.58 -2.09408 5.10737 0
M  V30 26162 H 2448.06 -2.60055 3.24824 0
M  V30 26163 H 2446.94 -3.76598 3.99331 0
M  V30 26164 H 2447.2 -3.80169 2.25663 0
M  V30 26165 N 2446.26 -1.43835 -0.644143 0
M  V30 26166 C 2447.19 -1.52512 -1.76812 0
M  V30 26167 C 2448.17 -0.379081 -1.65822 0
M  V30 26168 O 2449.35 -0.597498 -1.8478 0
M  V30 26169 C 2446.48 -1.45645 -3.15285 0
M  V30 26170 C 2445.44 -2.58592 -3.41049 0
M  V30 26171 C 2444.76 -2.36778 -4.79417 0
M  V30 26172 C 2446.06 -4.00803 -3.34895 0
M  V30 26173 H 2447.76 -2.46588 -1.69807 0
M  V30 26174 H 2445.3 -1.18681 -0.815521 0
M  V30 26175 H 2447.25 -1.50318 -3.93678 0
M  V30 26176 H 2445.98 -0.480781 -3.23042 0
M  V30 26177 H 2444.64 -2.53287 -2.65031 0
M  V30 26178 H 2444.29 -1.37433 -4.83861 0
M  V30 26179 H 2443.99 -3.12496 -4.97614 0
M  V30 26180 H 2445.51 -2.43248 -5.60056 0
M  V30 26181 H 2446.92 -4.07546 -4.03211 0
M  V30 26182 H 2445.32 -4.76619 -3.64628 0
M  V30 26183 H 2446.39 -4.25295 -2.32921 0
M  V30 26184 N 2447.73 0.883355 -1.30517 0
M  V30 26185 C 2448.98 1.63772 -1.1961 0
M  V30 26186 C 2449.31 1.92606 0.24828 0
M  V30 26187 O 2448.59 1.54815 1.1774 0
M  V30 26188 C 2448.87 2.9765 -2.02674 0
M  V30 26189 C 2448.72 2.75778 -3.5534 0
M  V30 26190 C 2450.04 3.98592 -1.8658 0
M  V30 26191 H 2447.16 0.594298 -0.435866 0
M  V30 26192 H 2449.8 1.02209 -1.60166 0
M  V30 26193 H 2447.95 3.50194 -1.68215 0
M  V30 26194 H 2449.63 2.30009 -3.99867 0
M  V30 26195 H 2447.87 2.10253 -3.79442 0
M  V30 26196 H 2448.54 3.7098 -4.08751 0
M  V30 26197 H 2451.02 3.55213 -2.1671 0
M  V30 26198 H 2449.89 4.90174 -2.47023 0
M  V30 26199 H 2450.15 4.34327 -0.825398 0
M  V30 26200 N 2449.21 1.13259 1.09591 0
M  V30 26201 C 2450.44 0.916765 1.86038 0
M  V30 26202 C 2450.86 -0.529114 1.80505 0
M  V30 26203 O 2450.22 -1.37532 1.1813 0
M  V30 26204 C 2450.27 1.40709 3.32014 0
M  V30 26205 O 2449.37 0.591225 4.0814 0
M  V30 26206 H 2448.71 0.328693 0.576937 0
M  V30 26207 H 2451.24 1.50685 1.38403 0
M  V30 26208 H 2451.25 1.40997 3.82863 0
M  V30 26209 H 2449.93 2.45985 3.35357 0
M  V30 26210 H 2448.5 0.656069 3.67083 0
M  V30 26211 N 2450.69 -1.27539 0.925834 0
M  V30 26212 C 2451.94 -1.93738 0.561118 0
M  V30 26213 C 2452.25 -1.73579 -0.901654 0
M  V30 26214 O 2453.46 -2.34103 -1.37507 0
M  V30 26215 C 2451.91 -3.47061 0.952729 0
M  V30 26216 C 2451.52 -3.75979 2.43606 0
M  V30 26217 C 2453.27 -4.19351 0.659176 0
M  V30 26218 C 2451.17 -5.22668 2.76716 0
M  V30 26219 H 2450.1 -0.725275 0.206135 0
M  V30 26220 H 2452.75 -1.44861 1.12639 0
M  V30 26221 H 2451.14 -3.94736 0.316123 0
M  V30 26222 H 2452.31 -3.39068 3.12041 0
M  V30 26223 H 2450.62 -3.16888 2.70131 0
M  V30 26224 H 2453.22 -5.27357 0.883077 0
M  V30 26225 H 2453.56 -4.1434 -0.403535 0
M  V30 26226 H 2454.1 -3.77491 1.2548 0
M  V30 26227 H 2450.84 -5.32767 3.81889 0
M  V30 26228 H 2450.36 -5.60733 2.12929 0
M  V30 26229 H 2452.04 -5.90527 2.64361 0
M  V30 26230 N 2452.17 -0.691135 -1.41637 0
M  V30 26231 C 2453.41 -0.224326 -2.03165 0
M  V30 26232 C 2453.77 1.15281 -1.53539 0
M  V30 26233 O 2454.97 1.71522 -2.06963 0
M  V30 26234 C 2453.24 -0.27482 -3.56342 0
M  V30 26235 S 2454.8 0.118592 -4.3864 0
M  V30 26236 H 2451.62 -0.0907387 -0.705186 0
M  V30 26237 H 2454.22 -0.907925 -1.73139 0
M  V30 26238 H 2452.93 -1.27917 -3.89956 0
M  V30 26239 H 2452.46 0.428074 -3.91064 0
M  V30 26240 H 2454.47 1.34756 -4.77551 0
M  V30 26241 N 2453.65 1.51461 -0.435577 0
M  V30 26242 C 2454.89 2.02372 0.131673 0
M  V30 26243 C 2455.22 1.31922 1.42514 0
M  V30 26244 O 2454.5 0.433606 1.89605 0
M  V30 26245 C 2454.78 3.58373 0.352238 0
M  V30 26246 C 2454.64 4.39441 -0.959754 0
M  V30 26247 C 2455.95 4.25537 1.12279 0
M  V30 26248 H 2453.07 0.735539 0.0463807 0
M  V30 26249 H 2455.72 1.81115 -0.574229 0
M  V30 26250 H 2453.87 3.76616 0.953534 0
M  V30 26251 H 2455.54 4.32852 -1.5949 0
M  V30 26252 H 2453.78 4.04596 -1.56475 0
M  V30 26253 H 2454.45 5.4675 -0.75949 0
M  V30 26254 H 2456.93 4.11553 0.613473 0
M  V30 26255 H 2455.8 5.34574 1.24588 0
M  V30 26256 H 2456.06 3.86277 2.15041 0
M  V30 26257 N 2455.12 0.166873 1.56714 0
M  V30 26258 C 2456.37 -0.479284 1.95923 0
M  V30 26259 C 2456.69 -1.64689 1.05532 0
M  V30 26260 O 2457.89 -2.35898 1.34403 0
M  V30 26261 C 2456.35 -0.904059 3.4836 0
M  V30 26262 C 2455.96 0.2377 4.47369 0
M  V30 26263 C 2457.7 -1.51889 3.96396 0
M  V30 26264 C 2455.61 -0.206458 5.9104 0
M  V30 26265 H 2454.54 -0.182827 0.731499 0
M  V30 26266 H 2457.19 0.254395 1.81728 0
M  V30 26267 H 2455.57 -1.69359 3.57958 0
M  V30 26268 H 2456.74 1.01497 4.49483 0
M  V30 26269 H 2455.06 0.7622 4.09365 0
M  V30 26270 H 2457.66 -1.86316 5.01189 0
M  V30 26271 H 2458 -2.41518 3.39079 0
M  V30 26272 H 2458.53 -0.793882 3.89798 0
M  V30 26273 H 2455.27 0.654949 6.5222 0
M  V30 26274 H 2454.79 -0.949178 5.92242 0
M  V30 26275 H 2456.47 -0.651826 6.43708 0
M  V30 26276 N 2456.6 -1.57237 -0.106866 0
M  V30 26277 C 2457.85 -1.85485 -0.812493 0
M  V30 26278 C 2458.18 -0.753719 -1.79302 0
M  V30 26279 O 2457.43 0.253819 -1.94047 0
M  V30 26280 C 2457.73 -3.20271 -1.58622 0
M  V30 26281 C 2457.4 -4.44637 -0.748889 0
M  V30 26282 C 2456.06 -4.78404 -0.51802 0
M  V30 26283 C 2458.41 -5.20935 -0.16603 0
M  V30 26284 C 2455.74 -5.85903 0.305762 0
M  V30 26285 C 2458.09 -6.29303 0.64501 0
M  V30 26286 C 2456.76 -6.61593 0.886081 0
M  V30 26287 H 2456.03 -0.678739 -0.297312 0
M  V30 26288 H 2458.67 -1.91355 -0.0743996 0
M  V30 26289 H 2456.98 -3.10032 -2.39556 0
M  V30 26290 H 2458.67 -3.39352 -2.13637 0
M  V30 26291 H 2455.26 -4.18189 -0.938932 0
M  V30 26292 H 2459.45 -4.95191 -0.331583 0
M  V30 26293 H 2454.7 -6.09339 0.501635 0
M  V30 26294 H 2458.88 -6.876 1.10357 0
M  V30 26295 H 2456.51 -7.44722 1.52622 0
M  V30 26296 N 2458.08 0.377381 -1.53015 0
M  V30 26297 C 2459.04 1.44441 -1.77959 0
M  V30 26298 C 2460.04 1.47086 -0.649789 0
M  V30 26299 O 2461.23 1.48053 -0.917923 0
M  V30 26300 C 2458.37 2.83648 -1.89094 0
M  V30 26301 H 2459.56 1.23602 -2.73245 0
M  V30 26302 H 2457.11 0.609819 -1.43913 0
M  V30 26303 H 2457.85 3.09816 -0.958347 0
M  V30 26304 H 2457.63 2.83128 -2.71258 0
M  V30 26305 H 2459.12 3.60942 -2.10026 0
M  V30 26306 N 2459.56 1.44175 0.636506 0
M  V30 26307 C 2460.49 1.4509 1.76137 0
M  V30 26308 C 2461.47 0.310354 1.59611 0
M  V30 26309 O 2462.65 0.506509 1.81567 0
M  V30 26310 C 2459.78 1.27845 3.13645 0
M  V30 26311 C 2458.83 2.45392 3.48833 0
M  V30 26312 S 2459.66 4.0793 3.46919 0
M  V30 26313 C 2460.82 3.93098 4.87057 0
M  V30 26314 H 2461.05 2.40271 1.75092 0
M  V30 26315 H 2458.58 1.31408 0.810643 0
M  V30 26316 H 2460.54 1.18582 3.92999 0
M  V30 26317 H 2459.2 0.341842 3.12234 0
M  V30 26318 H 2458.39 2.29175 4.48882 0
M  V30 26319 H 2458 2.51367 2.7693 0
M  V30 26320 H 2460.29 3.56456 5.76147 0
M  V30 26321 H 2461.23 4.92958 5.08329 0
M  V30 26322 H 2461.64 3.25254 4.61378 0
M  V30 26323 N 2461.04 -0.876421 1.30983 0
M  V30 26324 C 2462.26 -1.66713 1.23376 0
M  V30 26325 C 2462.69 -1.87046 -0.198817 0
M  V30 26326 O 2462.04 -1.40758 -1.14267 0
M  V30 26327 C 2462.09 -3.01608 1.97649 0
M  V30 26328 O 2461.2 -3.9106 1.30942 0
M  V30 26329 H 2460.54 -0.509092 0.426288 0
M  V30 26330 H 2463.07 -1.0932 1.72946 0
M  V30 26331 H 2463.08 -3.5159 2.06998 0
M  V30 26332 H 2461.75 -2.86128 3.01834 0
M  V30 26333 H 2460.33 -3.49505 1.30003 0
M  V30 26334 N 2462.51 -1.13839 -1.08989 0
M  V30 26335 C 2463.76 -0.902914 -1.81256 0
M  V30 26336 C 2464.09 0.57077 -1.85937 0
M  V30 26337 O 2463.34 1.43862 -1.32673 0
M  V30 26338 C 2463.64 -1.44153 -3.27039 0
M  V30 26339 C 2463.31 -2.93282 -3.42485 0
M  V30 26340 C 2461.97 -3.33998 -3.46408 0
M  V30 26341 C 2464.32 -3.89206 -3.46653 0
M  V30 26342 C 2461.65 -4.69313 -3.52083 0
M  V30 26343 C 2464 -5.2437 -3.53863 0
M  V30 26344 C 2462.67 -5.64606 -3.56056 0
M  V30 26345 H 2461.94 -0.3304 -0.663262 0
M  V30 26346 H 2464.58 -1.42107 -1.28366 0
M  V30 26347 H 2462.89 -0.844165 -3.82598 0
M  V30 26348 H 2464.59 -1.23535 -3.81497 0
M  V30 26349 H 2461.18 -2.608 -3.40119 0
M  V30 26350 H 2465.36 -3.58834 -3.42859 0
M  V30 26351 H 2460.62 -4.99856 -3.52071 0
M  V30 26352 H 2464.79 -5.9851 -3.56033 0
M  V30 26353 H 2462.42 -6.69444 -3.60206 0
M  V30 26354 N 2463.99 1.27046 -0.932584 0
M  V30 26355 C 2465.24 1.94435 -0.576446 0
M  V30 26356 C 2465.57 1.73074 0.88086 0
M  V30 26357 O 2464.85 1.06267 1.62903 0
M  V30 26358 C 2465.13 3.48436 -0.909093 0
M  V30 26359 C 2464.98 3.79119 -2.42051 0
M  V30 26360 C 2466.3 4.38106 -0.418418 0
M  V30 26361 H 2463.42 0.70618 -0.2109 0
M  V30 26362 H 2466.06 1.50073 -1.16525 0
M  V30 26363 H 2464.21 3.86352 -0.408015 0
M  V30 26364 H 2465.88 3.50967 -2.99365 0
M  V30 26365 H 2464.13 3.25498 -2.86763 0
M  V30 26366 H 2464.8 4.86731 -2.60378 0
M  V30 26367 H 2467.27 4.07369 -0.847928 0
M  V30 26368 H 2466.15 5.44671 -0.680076 0
M  V30 26369 H 2466.41 4.36815 0.681566 0
M  V30 26370 N 2465.47 0.698636 1.41269 0
M  V30 26371 C 2466.88 0.305321 1.84187 0
M  V30 26372 C 2467.23 -1.15705 1.58451 0
M  V30 26373 O 2466.36 -1.88855 1.05655 0
M  V30 26374 C 2466.95 0.547373 3.34349 0
M  V30 26375 C 2465.51 0.207944 3.75825 0
M  V30 26376 C 2464.66 0.828145 2.64645 0
M  V30 26377 H 2467.61 0.899063 1.30777 0
M  V30 26378 H 2467.63 -0.192931 3.80011 0
M  V30 26379 H 2467.14 1.61178 3.53048 0
M  V30 26380 H 2465.24 -0.852079 3.62726 0
M  V30 26381 H 2465.36 0.665105 4.74461 0
M  V30 26382 H 2463.72 0.257503 2.53395 0
M  V30 26383 H 2464.5 1.89648 2.86161 0
M  V30 26384 N 2466.95 -1.51228 0.443603 0
M  V30 26385 C 2467.91 -2.26464 -0.353092 0
M  V30 26386 C 2468.91 -1.30151 -0.944315 0
M  V30 26387 O 2470.1 -1.53811 -0.817786 0
M  V30 26388 C 2467.23 -3.06117 -1.50018 0
M  V30 26389 H 2468.43 -2.98331 0.306352 0
M  V30 26390 H 2465.98 -1.55054 0.196929 0
M  V30 26391 H 2466.71 -2.38681 -2.19549 0
M  V30 26392 H 2466.5 -3.76866 -1.08235 0
M  V30 26393 H 2467.99 -3.6309 -2.06289 0
M  V30 26394 N 2468.43 -0.175182 -1.56623 0
M  V30 26395 C 2469.65 0.478102 -2.01814 0
M  V30 26396 C 2470.08 1.55755 -1.0546 0
M  V30 26397 O 2469.43 1.81267 -0.0347758 0
M  V30 26398 C 2469.48 1.02981 -3.45583 0
M  V30 26399 O 2468.59 2.14364 -3.52309 0
M  V30 26400 H 2467.93 0.114047 -0.654132 0
M  V30 26401 H 2470.46 -0.280209 -2.02672 0
M  V30 26402 H 2470.47 1.35145 -3.84967 0
M  V30 26403 H 2469.14 0.239483 -4.1521 0
M  V30 26404 H 2467.72 1.83216 -3.24786 0
M  V30 26405 N 2469.91 1.57292 0.0985263 0
M  V30 26406 C 2471.15 1.85914 0.802645 0
M  V30 26407 C 2471.48 0.763217 1.789 0
M  V30 26408 O 2470.74 -0.243525 1.94179 0
M  V30 26409 C 2471.03 3.21108 1.56922 0
M  V30 26410 C 2470.7 4.45028 0.725298 0
M  V30 26411 C 2469.36 4.78672 0.492642 0
M  V30 26412 C 2471.71 5.21016 0.138401 0
M  V30 26413 C 2469.04 5.85732 -0.33683 0
M  V30 26414 C 2471.39 6.28952 -0.678375 0
M  V30 26415 C 2470.06 6.61113 -0.921155 0
M  V30 26416 H 2469.33 0.680306 0.293709 0
M  V30 26417 H 2471.98 1.91392 0.0642505 0
M  V30 26418 H 2470.28 3.11298 2.37909 0
M  V30 26419 H 2471.98 3.40481 2.11835 0
M  V30 26420 H 2468.57 4.18681 0.916741 0
M  V30 26421 H 2472.75 4.9536 0.305317 0
M  V30 26422 H 2468.01 6.09064 -0.533943 0
M  V30 26423 H 2472.18 6.87005 -1.14002 0
M  V30 26424 H 2469.81 7.43902 -1.56569 0
M  V30 26425 N 2471.38 -0.369261 1.53213 0
M  V30 26426 C 2472.63 -1.11394 1.69468 0
M  V30 26427 C 2472.96 -1.89073 0.44329 0
M  V30 26428 O 2472.24 -1.86283 -0.559354 0
M  V30 26429 C 2472.52 -2.07616 2.94224 0
M  V30 26430 C 2472.37 -1.3357 4.2951 0
M  V30 26431 C 2473.69 -3.07788 3.1457 0
M  V30 26432 H 2470.81 -0.403586 0.616674 0
M  V30 26433 H 2473.45 -0.395147 1.85846 0
M  V30 26434 H 2471.6 -2.68911 2.80391 0
M  V30 26435 H 2473.28 -0.750875 4.55148 0
M  V30 26436 H 2471.52 -0.637542 4.2909 0
M  V30 26437 H 2472.19 -2.0398 5.12929 0
M  V30 26438 H 2474.67 -2.56595 3.27564 0
M  V30 26439 H 2473.54 -3.72341 4.03303 0
M  V30 26440 H 2473.8 -3.77755 2.29682 0
M  V30 26441 N 2472.86 -1.4451 -0.628851 0
M  V30 26442 C 2474.11 -1.47632 -1.39042 0
M  V30 26443 C 2474.44 -0.109377 -1.93892 0
M  V30 26444 O 2473.72 0.87331 -1.73792 0
M  V30 26445 C 2474 -2.53852 -2.55404 0
M  V30 26446 C 2473.85 -3.99912 -2.05889 0
M  V30 26447 C 2475.17 -2.56555 -3.57586 0
M  V30 26448 H 2472.29 -0.537521 -0.504222 0
M  V30 26449 H 2474.93 -1.76202 -0.710823 0
M  V30 26450 H 2473.08 -2.2962 -3.1338 0
M  V30 26451 H 2474.75 -4.35284 -1.52726 0
M  V30 26452 H 2473 -4.11581 -1.37054 0
M  V30 26453 H 2473.67 -4.69887 -2.89673 0
M  V30 26454 H 2476.14 -2.78213 -3.09414 0
M  V30 26455 H 2475.02 -3.32777 -4.36521 0
M  V30 26456 H 2475.28 -1.60839 -4.11805 0
M  V30 26457 N 2474.34 0.869463 -1.31446 0
M  V30 26458 C 2475.59 1.62254 -1.21161 0
M  V30 26459 C 2475.91 1.93134 0.230121 0
M  V30 26460 O 2475.17 1.56196 1.17903 0
M  V30 26461 C 2475.47 2.96099 -2.00151 0
M  V30 26462 C 2475.13 2.84709 -3.49645 0
M  V30 26463 C 2473.8 2.8131 -3.90408 0
M  V30 26464 C 2476.15 2.71708 -4.44774 0
M  V30 26465 C 2473.48 2.62769 -5.24566 0
M  V30 26466 C 2475.83 2.54704 -5.79058 0
M  V30 26467 C 2474.49 2.49688 -6.19041 0
M  V30 26468 H 2473.76 0.593729 -0.443358 0
M  V30 26469 H 2476.41 1.00973 -1.62717 0
M  V30 26470 H 2474.71 3.61417 -1.51277 0
M  V30 26471 H 2476.41 3.5336 -1.89572 0
M  V30 26472 H 2473 2.88172 -3.17261 0
M  V30 26473 H 2477.19 2.73389 -4.14212 0
M  V30 26474 H 2472.44 2.57311 -5.54618 0
M  V30 26475 H 2476.62 2.43621 -6.52397 0
M  V30 26476 H 2474.24 2.3508 -7.22939 0
M  V30 26477 N 2475.82 1.14415 1.08383 0
M  V30 26478 C 2476.75 0.854082 2.17319 0
M  V30 26479 C 2477.73 -0.19102 1.69024 0
M  V30 26480 O 2478.91 -0.0476438 1.94142 0
M  V30 26481 C 2476.04 0.331044 3.45719 0
M  V30 26482 C 2475 1.31162 4.07407 0
M  V30 26483 C 2474.32 0.647873 5.3076 0
M  V30 26484 C 2475.62 2.67396 4.48661 0
M  V30 26485 H 2477.32 1.76502 2.41842 0
M  V30 26486 H 2474.86 0.850071 1.16232 0
M  V30 26487 H 2476.82 0.115719 4.21241 0
M  V30 26488 H 2475.54 -0.615324 3.20751 0
M  V30 26489 H 2474.2 1.51312 3.33917 0
M  V30 26490 H 2473.85 -0.304309 5.02079 0
M  V30 26491 H 2473.55 1.30217 5.7299 0
M  V30 26492 H 2475.07 0.442079 6.08998 0
M  V30 26493 H 2476.49 2.51153 5.15359 0
M  V30 26494 H 2474.88 3.29102 5.01809 0
M  V30 26495 H 2475.95 3.24254 3.60537 0
M  V30 26496 N 2477.3 -1.26549 0.939309 0
M  V30 26497 C 2478.54 -1.93132 0.581635 0
M  V30 26498 C 2478.86 -1.74525 -0.883193 0
M  V30 26499 O 2480.06 -2.35548 -1.35016 0
M  V30 26500 C 2478.52 -3.46031 0.989486 0
M  V30 26501 C 2478.13 -3.73374 2.4758 0
M  V30 26502 C 2479.87 -4.18628 0.703617 0
M  V30 26503 C 2477.78 -5.19704 2.82245 0
M  V30 26504 H 2476.71 -0.723048 0.213816 0
M  V30 26505 H 2479.36 -1.43658 1.14169 0
M  V30 26506 H 2477.74 -3.94379 0.357972 0
M  V30 26507 H 2478.92 -3.35739 3.1562 0
M  V30 26508 H 2477.23 -3.14005 2.73477 0
M  V30 26509 H 2479.83 -5.26391 0.938961 0
M  V30 26510 H 2480.17 -4.14744 -0.359566 0
M  V30 26511 H 2480.7 -3.76139 1.29476 0
M  V30 26512 H 2477.44 -5.28687 3.87518 0
M  V30 26513 H 2476.96 -5.58443 2.18864 0
M  V30 26514 H 2478.64 -5.8769 2.70609 0
M  V30 26515 N 2478.77 -0.706118 -1.40896 0
M  V30 26516 C 2479.71 -0.00819805 -2.29199 0
M  V30 26517 C 2480.72 0.733556 -1.45337 0
M  V30 26518 O 2481.91 0.582507 -1.68728 0
M  V30 26519 C 2479.01 1.0126 -3.23419 0
M  V30 26520 C 2478.18 0.338311 -4.3609 0
M  V30 26521 C 2477.24 1.26317 -5.10813 0
M  V30 26522 O 2476.27 0.751552 -5.64217 0
M  V30 26523 N 2477.47 2.59491 -5.19273 0
M  V30 26524 H 2480.23 -0.766348 -2.89736 0
M  V30 26525 H 2477.79 -0.552987 -1.52163 0
M  V30 26526 H 2479.79 1.63328 -3.70278 0
M  V30 26527 H 2478.36 1.67219 -2.64115 0
M  V30 26528 H 2477.58 -0.462421 -3.91478 0
M  V30 26529 H 2478.86 -0.130121 -5.08634 0
M  V30 26530 H 2478.26 3.03564 -4.77352 0
M  V30 26531 H 2476.82 3.16727 -5.69673 0
M  V30 26532 N 2480.25 1.50991 -0.451617 0
M  V30 26533 C 2481.16 2.31846 0.35839 0
M  V30 26534 C 2482.18 1.41375 1.01435 0
M  V30 26535 O 2483.35 1.74441 1.0066 0
M  V30 26536 C 2480.42 3.15518 1.43699 0
M  V30 26537 C 2479.48 4.21786 0.799668 0
M  V30 26538 C 2478.71 5.01459 1.82687 0
M  V30 26539 O 2478.94 4.81947 3.05096 0
M  V30 26540 O 2477.87 5.85164 1.40948 0
M  V30 26541 H 2481.7 3.02194 -0.302085 0
M  V30 26542 H 2479.28 1.47862 -0.213851 0
M  V30 26543 H 2481.16 3.67493 2.0622 0
M  V30 26544 H 2479.84 2.4792 2.08129 0
M  V30 26545 H 2478.74 3.73853 0.136018 0
M  V30 26546 H 2480.08 4.91799 0.198632 0
M  V30 26547 N 2481.73 0.183486 1.56528 0
M  V30 26548 C 2483.15 -0.172526 1.58665 0
M  V30 26549 C 2483.35 -1.61924 1.19928 0
M  V30 26550 O 2482.4 -2.35277 0.916576 0
M  V30 26551 C 2483.71 0.119315 3.00463 0
M  V30 26552 C 2485.26 0.0584946 3.12945 0
M  V30 26553 C 2485.74 0.323488 4.56856 0
M  V30 26554 N 2487.23 0.271694 4.62402 0
M  V30 26555 C 2487.96 0.45074 5.71626 0
M  V30 26556 N 2487.46 0.689505 6.8936 0
M  V30 26557 N 2489.25 0.3858 5.60774 0
M  V30 26558 H 2481.4 1.12768 1.79992 0
M  V30 26559 H 2483.67 0.449236 0.8348 0
M  V30 26560 H 2483.37 1.12197 3.33324 0
M  V30 26561 H 2483.25 -0.583479 3.7266 0
M  V30 26562 H 2485.63 -0.934756 2.79904 0
M  V30 26563 H 2485.71 0.794187 2.43159 0
M  V30 26564 H 2485.36 1.314 4.90608 0
M  V30 26565 H 2485.29 -0.432958 5.24817 0
M  V30 26566 H 2487.78 0.093292 3.77785 0
M  V30 26567 H 2488.09 0.815249 7.68488 0
M  V30 26568 H 2486.44 0.726264 6.91195 0
M  V30 26569 H 2489.63 0.199769 4.67674 0
M  V30 26570 H 2489.8 0.528759 6.45839 0
M  V30 26571 N 2483.21 -1.57342 -0.0901833 0
M  V30 26572 C 2484.45 -1.86613 -0.793949 0
M  V30 26573 C 2484.79 -0.773284 -1.7814 0
M  V30 26574 O 2484.06 0.21827 -1.93271 0
M  V30 26575 C 2484.34 -3.26525 -1.51833 0
M  V30 26576 C 2484.2 -4.46443 -0.548531 0
M  V30 26577 C 2485.52 -3.64405 -2.46773 0
M  V30 26578 H 2482.64 -0.678749 -0.287174 0
M  V30 26579 H 2485.28 -1.89913 -0.0574742 0
M  V30 26580 H 2483.43 -3.23843 -2.14612 0
M  V30 26581 H 2485.1 -4.61243 0.0726324 0
M  V30 26582 H 2483.34 -4.33581 0.13769 0
M  V30 26583 H 2484.01 -5.41078 -1.09262 0
M  V30 26584 H 2486.49 -3.68064 -1.94083 0
M  V30 26585 H 2485.37 -4.63226 -2.94471 0
M  V30 26586 H 2485.63 -2.93352 -3.30753 0
M  V30 26587 N 2484.69 0.36113 -1.53407 0
M  V30 26588 C 2485.91 1.12826 -1.74026 0
M  V30 26589 C 2486.34 1.82131 -0.470101 0
M  V30 26590 O 2485.69 1.71901 0.57616 0
M  V30 26591 C 2485.74 2.13085 -2.90907 0
M  V30 26592 O 2484.85 3.20256 -2.59826 0
M  V30 26593 H 2484.19 0.327157 -0.57781 0
M  V30 26594 H 2486.72 0.416895 -2.00308 0
M  V30 26595 H 2486.73 2.5661 -3.17199 0
M  V30 26596 H 2485.4 1.62035 -3.83037 0
M  V30 26597 H 2483.98 2.81672 -2.44367 0
M  V30 26598 N 2486.16 1.44842 0.621179 0
M  V30 26599 C 2487.11 1.52473 1.73265 0
M  V30 26600 C 2488.08 0.37164 1.61889 0
M  V30 26601 O 2489.27 0.583242 1.81667 0
M  V30 26602 C 2486.41 1.48443 3.11542 0
M  V30 26603 C 2485.52 2.74202 3.33822 0
M  V30 26604 C 2484.65 2.61937 4.62128 0
M  V30 26605 C 2483.69 3.82812 4.7762 0
M  V30 26606 N 2482.83 3.69164 5.97212 0
M  V30 26607 H 2487.67 2.47431 1.66078 0
M  V30 26608 H 2485.21 1.2279 0.810005 0
M  V30 26609 H 2487.17 1.44097 3.91525 0
M  V30 26610 H 2485.8 0.570458 3.17719 0
M  V30 26611 H 2484.85 2.88694 2.4771 0
M  V30 26612 H 2486.16 3.63896 3.41146 0
M  V30 26613 H 2485.31 2.5548 5.50286 0
M  V30 26614 H 2484.05 1.69819 4.57179 0
M  V30 26615 H 2483.06 3.89644 3.87889 0
M  V30 26616 H 2484.28 4.75979 4.84376 0
M  V30 26617 H 2482.23 2.79805 5.93334 0
M  V30 26618 H 2482.15 4.52483 6.05636 0
M  V30 26619 H 2483.41 3.66615 6.87905 0
M  V30 26620 N 2487.64 -0.862479 1.31905 0
M  V30 26621 C 2488.61 -1.95193 1.20134 0
M  V30 26622 C 2489.61 -1.60302 0.126437 0
M  V30 26623 O 2490.8 -1.70088 0.376264 0
M  V30 26624 C 2487.93 -3.30242 0.845749 0
M  V30 26625 H 2489.12 -2.0706 2.16947 0
M  V30 26626 H 2486.67 -1.0517 1.15624 0
M  V30 26627 H 2487.41 -3.24075 -0.1209 0
M  V30 26628 H 2487.19 -3.56941 1.62282 0
M  V30 26629 H 2488.68 -4.10108 0.78749 0
M  V30 26630 N 2489.12 -1.14988 -1.07775 0
M  V30 26631 C 2490.07 -0.842709 -2.14865 0
M  V30 26632 C 2491.04 0.202523 -1.64861 0
M  V30 26633 O 2492.22 0.0710233 -1.90668 0
M  V30 26634 C 2489.36 -0.333423 -3.43486 0
M  V30 26635 C 2488.48 -1.43972 -4.07304 0
M  V30 26636 C 2487.61 -0.887006 -5.23742 0
M  V30 26637 C 2486.65 -1.97053 -5.79514 0
M  V30 26638 N 2485.79 -1.43452 -6.87289 0
M  V30 26639 H 2490.63 -1.7599 -2.40482 0
M  V30 26640 H 2488.16 -0.8782 -1.18009 0
M  V30 26641 H 2490.12 -0.0198897 -4.17195 0
M  V30 26642 H 2488.75 0.546861 -3.18134 0
M  V30 26643 H 2487.8 -1.86952 -3.3129 0
M  V30 26644 H 2489.12 -2.25796 -4.44767 0
M  V30 26645 H 2488.27 -0.525758 -6.04418 0
M  V30 26646 H 2487.01 -0.0378814 -4.87685 0
M  V30 26647 H 2486.01 -2.34066 -4.97487 0
M  V30 26648 H 2487.24 -2.82336 -6.17627 0
M  V30 26649 H 2485.18 -0.607682 -6.53179 0
M  V30 26650 H 2485.1 -2.18908 -7.23613 0
M  V30 26651 H 2486.37 -1.10138 -7.7168 0
M  V30 26652 N 2490.6 1.26049 -0.946007 0
M  V30 26653 C 2491.55 2.23905 -0.430204 0
M  V30 26654 C 2492.53 1.53705 0.475763 0
M  V30 26655 O 2493.72 1.7426 0.310221 0
M  V30 26656 C 2490.85 3.41996 0.298897 0
M  V30 26657 C 2489.94 4.19475 -0.62464 0
M  V30 26658 N 2490.33 4.74468 -1.75253 0
M  V30 26659 C 2488.63 4.43911 -0.43116 0
M  V30 26660 C 2489.33 5.33065 -2.32844 0
M  V30 26661 N 2488.31 5.19027 -1.61592 0
M  V30 26662 H 2492.11 2.64022 -1.29111 0
M  V30 26663 H 2489.62 1.41189 -0.802453 0
M  V30 26664 H 2491.62 4.11226 0.685493 0
M  V30 26665 H 2490.28 3.03405 1.15652 0
M  V30 26666 H 2491.29 4.71865 -2.13458 0
M  V30 26667 H 2487.97 4.15728 0.384291 0
M  V30 26668 H 2489.36 5.86455 -3.27903 0
M  V30 26669 N 2492.08 0.71358 1.4052 0
M  V30 26670 C 2493.01 0.0744274 2.33381 0
M  V30 26671 C 2493.99 -0.747709 1.52785 0
M  V30 26672 O 2495.17 -0.69704 1.81259 0
M  V30 26673 C 2492.3 -0.849539 3.36749 0
M  V30 26674 C 2491.26 -0.133172 4.27793 0
M  V30 26675 C 2490.58 -1.17272 5.21681 0
M  V30 26676 C 2491.88 1.01143 5.12413 0
M  V30 26677 H 2493.58 0.850057 2.87079 0
M  V30 26678 H 2491.12 0.410226 1.38033 0
M  V30 26679 H 2493.08 -1.30605 4.0065 0
M  V30 26680 H 2491.8 -1.65704 2.81442 0
M  V30 26681 H 2490.46 0.303491 3.65342 0
M  V30 26682 H 2490.11 -1.97322 4.6268 0
M  V30 26683 H 2489.81 -0.698294 5.83436 0
M  V30 26684 H 2491.33 -1.62937 5.88459 0
M  V30 26685 H 2492.74 0.634374 5.69779 0
M  V30 26686 H 2491.14 1.41409 5.83201 0
M  V30 26687 H 2492.21 1.843 4.48511 0
M  V30 26688 N 2493.55 -1.50749 0.459618 0
M  V30 26689 C 2494.49 -2.26085 -0.37661 0
M  V30 26690 C 2495.5 -1.30963 -0.967086 0
M  V30 26691 O 2496.69 -1.56557 -0.85744 0
M  V30 26692 C 2493.79 -3.01835 -1.54106 0
M  V30 26693 C 2492.96 -4.24225 -1.06545 0
M  V30 26694 C 2492.02 -4.82366 -2.10261 0
M  V30 26695 O 2491.05 -5.43598 -1.68788 0
M  V30 26696 N 2492.25 -4.68353 -3.42966 0
M  V30 26697 H 2495.01 -2.98489 0.269176 0
M  V30 26698 H 2492.57 -1.59286 0.289748 0
M  V30 26699 H 2494.57 -3.37612 -2.23159 0
M  V30 26700 H 2493.14 -2.32302 -2.09176 0
M  V30 26701 H 2492.36 -3.93686 -0.201205 0
M  V30 26702 H 2493.64 -5.03602 -0.725427 0
M  V30 26703 H 2493.04 -4.1963 -3.79378 0
M  V30 26704 H 2491.6 -5.08431 -4.07849 0
M  V30 26705 N 2495.03 -0.191784 -1.56429 0
M  V30 26706 C 2496.28 0.447856 -1.97485 0
M  V30 26707 C 2496.61 1.61857 -1.07855 0
M  V30 26708 O 2495.86 1.9535 -0.116938 0
M  V30 26709 C 2496.16 0.953323 -3.44451 0
M  V30 26710 C 2495.83 -0.103665 -4.50781 0
M  V30 26711 C 2494.49 -0.394107 -4.79583 0
M  V30 26712 C 2496.84 -0.820037 -5.14708 0
M  V30 26713 C 2494.17 -1.40595 -5.69605 0
M  V30 26714 C 2496.52 -1.82101 -6.05823 0
M  V30 26715 C 2495.19 -2.11868 -6.32983 0
M  V30 26716 H 2494.46 0.163882 -0.72265 0
M  V30 26717 H 2497.1 -0.288054 -1.89321 0
M  V30 26718 H 2495.41 1.76744 -3.49669 0
M  V30 26719 H 2497.1 1.45758 -3.73571 0
M  V30 26720 H 2493.69 0.132876 -4.28394 0
M  V30 26721 H 2497.88 -0.608875 -4.92551 0
M  V30 26722 H 2493.13 -1.64253 -5.88923 0
M  V30 26723 H 2497.31 -2.38135 -6.54419 0
M  V30 26724 H 2494.94 -2.9042 -7.02539 0
M  V30 26725 N 2496.51 1.57387 0.0818378 0
M  V30 26726 C 2497.76 1.85939 0.781648 0
M  V30 26727 C 2498.07 0.782989 1.79245 0
M  V30 26728 O 2499.28 0.956032 2.54111 0
M  V30 26729 C 2497.73 3.29791 1.44103 0
M  V30 26730 C 2497.34 4.45535 0.469318 0
M  V30 26731 C 2499.09 3.67553 2.12379 0
M  V30 26732 C 2496.99 5.80425 1.13404 0
M  V30 26733 H 2495.92 0.693611 0.29567 0
M  V30 26734 H 2498.57 1.83467 0.0347729 0
M  V30 26735 H 2496.96 3.26844 2.23582 0
M  V30 26736 H 2498.13 4.59855 -0.294936 0
M  V30 26737 H 2496.45 4.16259 -0.108456 0
M  V30 26738 H 2499.04 4.65622 2.6287 0
M  V30 26739 H 2499.39 2.96845 2.91871 0
M  V30 26740 H 2499.92 3.72447 1.39744 0
M  V30 26741 H 2496.66 6.544 0.379656 0
M  V30 26742 H 2496.18 5.69924 1.8694 0
M  V30 26743 H 2497.86 6.25428 1.65675 0
M  V30 26744 N 2497.99 -0.35299 1.53596 0
M  V30 26745 C 2499.21 -1.11901 1.74622 0
M  V30 26746 C 2499.64 -1.81879 0.479753 0
M  V30 26747 O 2499 -1.72205 -0.567035 0
M  V30 26748 C 2499.04 -2.1154 2.92033 0
M  V30 26749 O 2498.15 -3.18874 2.61521 0
M  V30 26750 H 2497.49 -0.324089 0.579537 0
M  V30 26751 H 2500.02 -0.406266 2.00526 0
M  V30 26752 H 2500.03 -2.54925 3.18555 0
M  V30 26753 H 2498.7 -1.60001 3.83891 0
M  V30 26754 H 2497.28 -2.80373 2.45857 0
M  V30 26755 N 2499.47 -1.45169 -0.613489 0
M  V30 26756 C 2500.72 -1.48583 -1.36994 0
M  V30 26757 C 2501.04 -0.126579 -1.94589 0
M  V30 26758 O 2500.31 0.843341 -1.76818 0
M  V30 26759 H 2498.89 -0.547163 -0.508549 0
M  V30 26760 H 2501.55 -1.81081 -0.720821 0
M  V30 26761 H 2500.64 -2.22131 -2.19236 0
M  V30 26762 N 2500.95 0.855472 -1.32361 0
M  V30 26763 C 2502.19 1.61198 -1.23057 0
M  V30 26764 C 2502.52 1.9309 0.20737 0
M  V30 26765 O 2501.8 1.57278 1.14429 0
M  V30 26766 C 2502.08 2.93284 -2.08942 0
M  V30 26767 C 2501.94 2.68179 -3.6111 0
M  V30 26768 C 2503.25 3.94545 -1.94993 0
M  V30 26769 H 2500.37 0.584919 -0.448374 0
M  V30 26770 H 2503.02 0.987888 -1.62298 0
M  V30 26771 H 2501.17 3.46548 -1.75605 0
M  V30 26772 H 2502.84 2.21475 -4.04656 0
M  V30 26773 H 2501.08 2.02158 -3.83816 0
M  V30 26774 H 2501.75 3.62227 -4.16528 0
M  V30 26775 H 2504.23 3.50536 -2.24196 0
M  V30 26776 H 2503.1 4.84824 -2.57364 0
M  V30 26777 H 2503.36 4.32478 -0.917339 0
M  V30 26778 N 2502.42 1.15558 1.07164 0
M  V30 26779 C 2503.37 0.854092 2.14415 0
M  V30 26780 C 2504.34 -0.193777 1.64966 0
M  V30 26781 O 2505.53 -0.0609108 1.90703 0
M  V30 26782 C 2502.67 0.351635 3.43304 0
M  V30 26783 C 2501.78 1.4613 4.06534 0
M  V30 26784 C 2500.91 0.914769 5.23264 0
M  V30 26785 C 2499.95 2.00124 5.78461 0
M  V30 26786 N 2499.09 1.47095 6.86518 0
M  V30 26787 H 2503.93 1.77263 2.39545 0
M  V30 26788 H 2501.47 0.884446 1.17541 0
M  V30 26789 H 2503.42 0.0420143 4.17179 0
M  V30 26790 H 2502.05 -0.529981 3.1842 0
M  V30 26791 H 2501.11 1.88706 3.30294 0
M  V30 26792 H 2502.42 2.28152 4.43563 0
M  V30 26793 H 2501.57 0.557804 6.0413 0
M  V30 26794 H 2500.31 0.063744 4.87658 0
M  V30 26795 H 2499.32 2.36701 4.96239 0
M  V30 26796 H 2500.54 2.85607 6.16121 0
M  V30 26797 H 2498.49 0.642313 6.52848 0
M  V30 26798 H 2498.4 2.22742 7.22442 0
M  V30 26799 H 2499.67 1.14229 7.71085 0
M  V30 26800 N 2503.9 -1.25546 0.952678 0
M  V30 26801 C 2505.31 -1.75115 0.647423 0
M  V30 26802 C 2505.66 -1.77439 -0.837243 0
M  V30 26803 O 2504.79 -1.39396 -1.65523 0
M  V30 26804 C 2505.38 -3.18012 1.1685 0
M  V30 26805 C 2503.94 -3.65148 0.913446 0
M  V30 26806 C 2503.09 -2.44262 1.31269 0
M  V30 26807 H 2506.04 -1.1146 1.1297 0
M  V30 26808 H 2506.06 -3.76823 0.527672 0
M  V30 26809 H 2505.57 -3.16288 2.24908 0
M  V30 26810 H 2503.67 -3.72289 -0.15225 0
M  V30 26811 H 2503.79 -4.53384 1.54853 0
M  V30 26812 H 2502.15 -2.43982 0.731071 0
M  V30 26813 H 2502.93 -2.4523 2.40244 0
M  V30 26814 N 2505.38 -0.721022 -1.40139 0
M  V30 26815 C 2506.63 -0.263267 -2.01084 0
M  V30 26816 C 2506.96 1.14226 -1.57054 0
M  V30 26817 O 2506.23 1.77597 -0.793058 0
M  V30 26818 C 2506.52 -0.349407 -3.58401 0
M  V30 26819 C 2506.37 -1.7937 -4.12488 0
M  V30 26820 C 2507.69 0.276274 -4.39232 0
M  V30 26821 H 2504.81 -0.0971357 -0.730571 0
M  V30 26822 H 2507.45 -0.914547 -1.66541 0
M  V30 26823 H 2505.6 0.205097 -3.87958 0
M  V30 26824 H 2507.27 -2.40401 -3.93707 0
M  V30 26825 H 2505.51 -2.31964 -3.66572 0
M  V30 26826 H 2506.19 -1.80533 -5.21643 0
M  V30 26827 H 2508.66 -0.196257 -4.15637 0
M  V30 26828 H 2507.54 0.185584 -5.48586 0
M  V30 26829 H 2507.8 1.36052 -4.20645 0
M  V30 26830 N 2506.86 1.50503 -0.467606 0
M  V30 26831 C 2508.11 2.01498 0.0902514 0
M  V30 26832 C 2508.42 1.35465 1.41098 0
M  V30 26833 O 2509.63 1.77597 2.05357 0
M  V30 26834 C 2508.08 3.59279 0.211357 0
M  V30 26835 C 2507.69 4.34267 -1.10073 0
M  V30 26836 C 2509.43 4.18326 0.72136 0
M  V30 26837 C 2507.34 5.83824 -0.943607 0
M  V30 26838 H 2506.27 0.753067 0.0375038 0
M  V30 26839 H 2508.92 1.73345 -0.601974 0
M  V30 26840 H 2507.3 3.84005 0.967284 0
M  V30 26841 H 2508.48 4.21268 -1.86734 0
M  V30 26842 H 2506.79 3.86813 -1.54157 0
M  V30 26843 H 2509.39 5.27806 0.855888 0
M  V30 26844 H 2509.73 3.79478 1.71179 0
M  V30 26845 H 2510.27 3.97793 0.0229144 0
M  V30 26846 H 2507 6.27138 -1.9073 0
M  V30 26847 H 2506.52 5.99406 -0.217318 0
M  V30 26848 H 2508.2 6.44129 -0.608829 0
M  V30 26849 N 2508.34 0.200077 1.56325 0
M  V30 26850 C 2509.57 -0.442197 2.01812 0
M  V30 26851 C 2509.97 -1.55392 1.07935 0
M  V30 26852 O 2509.32 -1.83537 0.0773008 0
M  V30 26853 C 2509.38 -1.05451 3.43686 0
M  V30 26854 C 2509.04 -0.080903 4.56928 0
M  V30 26855 C 2510.04 0.711562 5.15008 0
M  V30 26856 C 2507.72 0.0316246 5.0229 0
M  V30 26857 C 2509.72 1.60347 6.16902 0
M  V30 26858 C 2507.41 0.927087 6.04027 0
M  V30 26859 C 2508.4 1.71157 6.61207 0
M  V30 26860 O 2508.09 2.59202 7.60966 0
M  V30 26861 H 2507.82 -0.114836 0.666175 0
M  V30 26862 H 2510.38 0.307547 2.03084 0
M  V30 26863 H 2508.61 -1.85293 3.39416 0
M  V30 26864 H 2510.3 -1.60195 3.72951 0
M  V30 26865 H 2511.06 0.634958 4.80826 0
M  V30 26866 H 2506.94 -0.568822 4.57477 0
M  V30 26867 H 2510.49 2.21623 6.6146 0
M  V30 26868 H 2506.38 1.00479 6.37632 0
M  V30 26869 H 2507.15 2.53037 7.78405 0
M  V30 26870 N 2509.81 -1.57429 -0.0734901 0
M  V30 26871 C 2511.06 -1.88308 -0.768876 0
M  V30 26872 C 2511.41 -0.793566 -1.75272 0
M  V30 26873 O 2510.71 0.202433 -1.90528 0
M  V30 26874 C 2510.9 -3.23564 -1.51793 0
M  V30 26875 C 2510.73 -4.45569 -0.608139 0
M  V30 26876 C 2509.5 -5.04702 -0.24572 0
M  V30 26877 C 2511.7 -5.14213 0.0943808 0
M  V30 26878 N 2509.68 -6.10233 0.669977 0
M  V30 26879 C 2511.05 -6.13903 0.86733 0
M  V30 26880 C 2513.11 -4.97623 0.16603 0
M  V30 26881 C 2511.81 -6.98794 1.70527 0
M  V30 26882 C 2513.84 -5.83039 0.990939 0
M  V30 26883 C 2513.2 -6.82266 1.75194 0
M  V30 26884 H 2509.3 -0.738619 -0.256837 0
M  V30 26885 H 2511.88 -1.94676 -0.0304648 0
M  V30 26886 H 2510.05 -3.18207 -2.22708 0
M  V30 26887 H 2511.78 -3.42098 -2.1622 0
M  V30 26888 H 2508.54 -4.69807 -0.598201 0
M  V30 26889 H 2508.96 -6.67654 1.12102 0
M  V30 26890 H 2513.6 -4.20827 -0.40799 0
M  V30 26891 H 2511.32 -7.74966 2.29027 0
M  V30 26892 H 2514.91 -5.72259 1.04933 0
M  V30 26893 H 2513.79 -7.47213 2.37996 0
M  V30 26894 N 2511.29 0.344839 -1.53781 0
M  V30 26895 C 2512.22 1.42903 -1.84665 0
M  V30 26896 C 2513.2 1.54953 -0.701675 0
M  V30 26897 O 2514.39 1.69182 -0.953467 0
M  V30 26898 C 2511.52 2.79971 -2.05508 0
M  V30 26899 C 2510.47 2.82728 -3.21323 0
M  V30 26900 C 2509.8 4.22669 -3.27498 0
M  V30 26901 C 2511.1 2.48381 -4.59461 0
M  V30 26902 H 2512.79 1.17306 -2.75463 0
M  V30 26903 H 2510.34 0.562872 -1.32543 0
M  V30 26904 H 2512.29 3.55863 -2.25697 0
M  V30 26905 H 2511.01 3.07 -1.1144 0
M  V30 26906 H 2509.67 2.09289 -3.00988 0
M  V30 26907 H 2509.32 4.46806 -2.31027 0
M  V30 26908 H 2509.02 4.25426 -4.05323 0
M  V30 26909 H 2510.55 5.00405 -3.49895 0
M  V30 26910 H 2511.96 3.13986 -4.79672 0
M  V30 26911 H 2510.36 2.62422 -5.3968 0
M  V30 26912 H 2511.43 1.43572 -4.63158 0
M  V30 26913 N 2512.77 1.45492 0.605781 0
M  V30 26914 C 2513.99 1.53363 1.39623 0
M  V30 26915 C 2514.42 0.167678 1.87351 0
M  V30 26916 O 2513.78 -0.848023 1.60244 0
M  V30 26917 C 2513.83 2.52385 2.57554 0
M  V30 26918 O 2512.93 2.04291 3.58244 0
M  V30 26919 H 2512.27 0.516919 0.416762 0
M  V30 26920 H 2514.8 1.90862 0.73707 0
M  V30 26921 H 2514.81 2.71249 3.04775 0
M  V30 26922 H 2513.49 3.5159 2.22165 0
M  V30 26923 H 2512.06 1.95311 3.1766 0
M  V30 26924 N 2514.25 -0.848441 1.32813 0
M  V30 26925 C 2515.2 -1.97893 1.22234 0
M  V30 26926 C 2516.19 -1.68932 0.125778 0
M  V30 26927 O 2517.4 -1.77663 0.289114 0
M  V30 26928 H 2513.77 -0.64947 0.379069 0
M  V30 26929 H 2515.74 -2.03942 2.17831 0
M  V30 26930 C 2514.49 -3.33935 0.968631 0
M  V30 26931 H 2513.81 -3.56753 1.80464 0
M  V30 26932 H 2515.25 -4.13565 0.934881 0
M  V30 26933 C 2513.71 -3.35294 -0.328569 0
M  V30 26934 O 2514.24 -3.78747 -1.33841 0
M  V30 26935 N 2512.45 -2.88451 -0.352737 0
M  V30 26936 H 2512 -2.53284 0.469586 0
M  V30 26937 H 2511.95 -2.89743 -1.22051 0
M  V30 26938 N 2515.73 -1.16125 -1.06549 0
M  V30 26939 C 2516.97 -0.941158 -1.793 0
M  V30 26940 C 2517.3 0.531202 -1.87106 0
M  V30 26941 O 2516.56 1.41016 -1.35695 0
M  V30 26942 C 2516.86 -1.51057 -3.23908 0
M  V30 26943 C 2516.52 -3.00481 -3.36187 0
M  V30 26944 C 2515.18 -3.41271 -3.39246 0
M  V30 26945 C 2517.54 -3.96471 -3.38319 0
M  V30 26946 C 2514.86 -4.76675 -3.42049 0
M  V30 26947 C 2517.22 -5.31758 -3.4266 0
M  V30 26948 C 2515.88 -5.72032 -3.44 0
M  V30 26949 H 2515.15 -0.344394 -0.656105 0
M  V30 26950 H 2517.8 -1.44798 -1.25322 0
M  V30 26951 H 2516.1 -0.925129 -3.80721 0
M  V30 26952 H 2517.8 -1.31599 -3.78791 0
M  V30 26953 H 2514.39 -2.67956 -3.34511 0
M  V30 26954 H 2518.57 -3.66026 -3.3517 0
M  V30 26955 H 2513.83 -5.07212 -3.41389 0
M  V30 26956 H 2518 -6.05927 -3.43257 0
M  V30 26957 H 2515.63 -6.76934 -3.45925 0
M  V30 26958 N 2517.2 1.25039 -0.959323 0
M  V30 26959 C 2518.45 1.93168 -0.617559 0
M  V30 26960 C 2518.78 1.74903 0.843951 0
M  V30 26961 O 2518.06 1.09699 1.60613 0
M  V30 26962 C 2518.34 3.46429 -0.982796 0
M  V30 26963 C 2518.19 3.739 -2.50038 0
M  V30 26964 C 2519.51 4.3712 -0.511253 0
M  V30 26965 H 2516.63 0.701548 -0.225832 0
M  V30 26966 H 2519.27 1.47568 -1.19682 0
M  V30 26967 H 2517.42 3.85399 -0.489874 0
M  V30 26968 H 2519.1 3.44538 -3.06743 0
M  V30 26969 H 2517.34 3.19342 -2.93603 0
M  V30 26970 H 2518.01 4.81099 -2.70644 0
M  V30 26971 H 2520.49 4.05479 -0.934146 0
M  V30 26972 H 2519.36 5.43106 -0.795456 0
M  V30 26973 H 2519.62 4.38162 0.588757 0
M  V30 26974 N 2518.68 0.728444 1.39755 0
M  V30 26975 C 2519.93 0.282797 2.01424 0
M  V30 26976 C 2520.28 -1.11558 1.56756 0
M  V30 26977 O 2519.58 -1.74847 0.783513 0
M  V30 26978 C 2519.77 0.315839 3.56002 0
M  V30 26979 C 2519.6 1.71589 4.15677 0
M  V30 26980 C 2518.37 2.32658 4.48551 0
M  V30 26981 C 2520.57 2.66836 4.39662 0
M  V30 26982 N 2518.55 3.64886 4.93692 0
M  V30 26983 C 2519.92 3.83789 4.86936 0
M  V30 26984 C 2521.98 2.64683 4.2172 0
M  V30 26985 C 2520.68 4.98913 5.18149 0
M  V30 26986 C 2522.7 3.78945 4.54043 0
M  V30 26987 C 2522.07 4.94632 5.01517 0
M  V30 26988 H 2518.17 0.149597 0.767558 0
M  V30 26989 H 2520.75 0.953006 1.69782 0
M  V30 26990 H 2518.92 -0.323989 3.87046 0
M  V30 26991 H 2520.65 -0.147737 4.0443 0
M  V30 26992 H 2517.41 1.84641 4.36125 0
M  V30 26993 H 2517.83 4.32754 5.20628 0
M  V30 26994 H 2522.47 1.7644 3.84225 0
M  V30 26995 H 2520.19 5.8779 5.54552 0
M  V30 26996 H 2523.78 3.78569 4.41788 0
M  V30 26997 H 2522.66 5.81581 5.26055 0
M  V30 26998 N 2520.16 -1.50253 0.475581 0
M  V30 26999 C 2521.44 -1.95101 -0.139651 0
M  V30 27000 C 2521.82 -1.41614 -1.56552 0
M  V30 27001 O 2521.17 -0.619032 -2.19955 0
M  V30 27002 C 2521.38 -3.48912 -0.0783685 0
M  V30 27003 C 2522.72 -4.23772 -0.26502 0
M  V30 27004 O 2523.75 -3.55864 -0.154745 0
M  V30 27005 O 2522.61 -5.44315 -0.488231 0
M  V30 27006 H 2519.7 -0.819756 -0.109222 0
M  V30 27007 H 2522.25 -1.61003 0.536304 0
M  V30 27008 H 2521.02 -3.80404 0.916985 0
M  V30 27009 H 2520.64 -3.89559 -0.795586 0
M  V30 27010 N 2521.64 -0.208365 -1.56217 0
M  V30 27011 C 2522.57 0.746804 -2.15634 0
M  V30 27012 C 2523.55 1.20032 -1.09687 0
M  V30 27013 O 2524.73 1.28544 -1.37872 0
M  V30 27014 C 2521.86 2.01018 -2.72597 0
M  V30 27015 C 2520.91 1.69772 -3.91254 0
M  V30 27016 S 2521.74 0.834116 -5.28964 0
M  V30 27017 C 2522.9 2.10735 -5.89357 0
M  V30 27018 H 2523.13 0.241737 -2.96316 0
M  V30 27019 H 2520.66 0.0067947 -1.54399 0
M  V30 27020 H 2522.62 2.73567 -3.06058 0
M  V30 27021 H 2521.28 2.48637 -1.91933 0
M  V30 27022 H 2520.47 2.63607 -4.29567 0
M  V30 27023 H 2520.08 1.05297 -3.58871 0
M  V30 27024 H 2522.37 3.05864 -6.04527 0
M  V30 27025 H 2523.31 1.76833 -6.85664 0
M  V30 27026 H 2523.72 2.24187 -5.18074 0
M  V30 27027 N 2523.12 1.57465 0.0651402 0
M  V30 27028 C 2524.36 1.89411 0.768295 0
M  V30 27029 C 2524.72 0.802925 1.74405 0
M  V30 27030 O 2525.92 1.00565 2.49279 0
M  V30 27031 C 2524.19 3.26579 1.45193 0
M  V30 27032 S 2525.75 3.80287 2.18923 0
M  V30 27033 H 2522.57 0.663565 0.255347 0
M  V30 27034 H 2525.17 1.95485 0.0241327 0
M  V30 27035 H 2523.88 4.03891 0.728052 0
M  V30 27036 H 2523.41 3.23719 2.23539 0
M  V30 27037 H 2525.42 3.56108 3.45545 0
M  V30 27038 N 2524.59 -0.336679 1.53962 0
M  V30 27039 C 2525.54 -1.43398 1.83139 0
M  V30 27040 C 2526.54 -1.54154 0.70234 0
M  V30 27041 O 2527.74 -1.56696 0.885792 0
M  V30 27042 H 2524.12 -0.478263 0.580318 0
M  V30 27043 H 2526.09 -1.16007 2.74927 0
M  V30 27044 C 2524.84 -2.79819 2.0639 0
M  V30 27045 H 2524.16 -2.72311 2.92723 0
M  V30 27046 H 2525.6 -3.557 2.30767 0
M  V30 27047 C 2524.06 -3.25963 0.851472 0
M  V30 27048 O 2524.59 -4.01663 0.054261 0
M  V30 27049 N 2522.8 -2.82847 0.66677 0
M  V30 27050 H 2522.34 -2.21407 1.31669 0
M  V30 27051 H 2522.3 -3.14075 -0.142977 0
M  V30 27052 N 2526.07 -1.45812 -0.598057 0
M  V30 27053 C 2527.3 -1.53645 -1.38119 0
M  V30 27054 C 2527.71 -0.171114 -1.88425 0
M  V30 27055 O 2527.05 0.839208 -1.6341 0
M  V30 27056 C 2527.12 -2.46771 -2.61428 0
M  V30 27057 C 2526.78 -3.93322 -2.32695 0
M  V30 27058 C 2527.78 -4.82961 -1.92471 0
M  V30 27059 C 2525.46 -4.38323 -2.45313 0
M  V30 27060 C 2527.46 -6.1561 -1.65237 0
M  V30 27061 C 2525.14 -5.7101 -2.17693 0
M  V30 27062 C 2526.14 -6.59473 -1.77718 0
M  V30 27063 O 2525.83 -7.897 -1.50428 0
M  V30 27064 H 2525.56 -0.522551 -0.428854 0
M  V30 27065 H 2528.11 -1.91779 -0.735537 0
M  V30 27066 H 2526.34 -2.03626 -3.28745 0
M  V30 27067 H 2528.03 -2.45181 -3.23483 0
M  V30 27068 H 2528.8 -4.49455 -1.8225 0
M  V30 27069 H 2524.68 -3.69702 -2.75393 0
M  V30 27070 H 2528.22 -6.84617 -1.33961 0
M  V30 27071 H 2524.12 -6.04069 -2.27533 0
M  V30 27072 H 2524.89 -8.0182 -1.64401 0
M  V30 27073 N 2527.55 0.841385 -1.33261 0
M  V30 27074 C 2528.8 1.59884 -1.2476 0
M  V30 27075 C 2529.13 1.93299 0.186879 0
M  V30 27076 O 2528.4 1.58482 1.12755 0
M  V30 27077 C 2528.69 2.91051 -2.12041 0
M  V30 27078 C 2528.54 2.64334 -3.63934 0
M  V30 27079 C 2529.86 3.92455 -1.99166 0
M  V30 27080 H 2526.98 0.58013 -0.454553 0
M  V30 27081 H 2529.62 0.970619 -1.63337 0
M  V30 27082 H 2527.77 3.44666 -1.79271 0
M  V30 27083 H 2529.44 2.17171 -4.06982 0
M  V30 27084 H 2527.69 1.98075 -3.85939 0
M  V30 27085 H 2528.36 3.57788 -4.20347 0
M  V30 27086 H 2530.83 3.48139 -2.27901 0
M  V30 27087 H 2529.71 4.82068 -2.62492 0
M  V30 27088 H 2529.97 4.31481 -0.963158 0
M  V30 27089 N 2529.03 1.16688 1.05932 0
M  V30 27090 C 2530.28 0.952062 1.79063 0
M  V30 27091 C 2530.61 -0.518597 1.87148 0
M  V30 27092 O 2529.88 -1.38481 1.36577 0
M  V30 27093 C 2530.17 1.58469 3.23357 0
M  V30 27094 C 2530.02 3.12694 3.2333 0
M  V30 27095 C 2531.34 1.2824 4.21002 0
M  V30 27096 H 2528.46 0.347292 0.650044 0
M  V30 27097 H 2531.1 1.44074 1.23866 0
M  V30 27098 H 2529.25 1.16915 3.7049 0
M  V30 27099 H 2530.92 3.63255 2.84329 0
M  V30 27100 H 2529.16 3.45834 2.6188 0
M  V30 27101 H 2529.84 3.52082 4.25138 0
M  V30 27102 H 2532.31 1.6421 3.82327 0
M  V30 27103 H 2531.19 1.75101 5.20222 0
M  V30 27104 H 2531.45 0.201869 4.41639 0
M  V30 27105 N 2530.51 -1.24529 0.96594 0
M  V30 27106 C 2531.92 -1.74419 0.66596 0
M  V30 27107 C 2532.27 -1.78317 -0.818376 0
M  V30 27108 O 2531.39 -1.41144 -1.64035 0
M  V30 27109 C 2531.99 -3.16754 1.20217 0
M  V30 27110 C 2530.55 -3.64159 0.952123 0
M  V30 27111 C 2529.7 -2.42856 1.33852 0
M  V30 27112 H 2532.65 -1.10256 1.14146 0
M  V30 27113 H 2532.67 -3.76243 0.56761 0
M  V30 27114 H 2532.18 -3.13885 2.2825 0
M  V30 27115 H 2530.28 -3.72429 -0.112756 0
M  V30 27116 H 2530.39 -4.51716 1.59653 0
M  V30 27117 H 2528.76 -2.43193 0.756907 0
M  V30 27118 H 2529.54 -2.42668 2.42831 0
M  V30 27119 N 2531.99 -0.735845 -1.39367 0
M  V30 27120 C 2532.95 -0.104914 -2.2896 0
M  V30 27121 C 2533.95 0.666248 -1.46348 0
M  V30 27122 O 2535.14 0.49514 -1.67015 0
M  V30 27123 C 2532.27 0.860598 -3.29858 0
M  V30 27124 H 2533.46 -0.894255 -2.86257 0
M  V30 27125 H 2531.02 -0.50173 -1.48028 0
M  V30 27126 H 2531.75 1.67626 -2.77618 0
M  V30 27127 H 2531.54 0.310258 -3.90871 0
M  V30 27128 H 2533.03 1.2986 -3.96896 0
M  V30 27129 N 2533.46 1.49999 -0.483543 0
M  V30 27130 C 2534.69 2.068 0.0644468 0
M  V30 27131 C 2535.11 1.34598 1.32397 0
M  V30 27132 O 2534.46 0.418977 1.77626 0
M  V30 27133 C 2534.51 3.59899 0.339863 0
M  V30 27134 O 2534.24 4.29381 -0.86971 0
M  V30 27135 C 2535.74 4.33361 0.933439 0
M  V30 27136 H 2532.96 0.670881 -0.0126451 0
M  V30 27137 H 2535.5 1.93007 -0.675897 0
M  V30 27138 H 2533.66 3.73452 1.03016 0
M  V30 27139 H 2534.07 5.208 -0.621882 0
M  V30 27140 H 2535.54 5.41415 1.07584 0
M  V30 27141 H 2536.02 3.94679 1.92678 0
M  V30 27142 H 2536.63 4.2437 0.281147 0
M  V30 27143 N 2534.94 0.216646 1.56104 0
M  V30 27144 C 2535.87 -0.690257 2.23064 0
M  V30 27145 C 2536.85 -1.20483 1.20074 0
M  V30 27146 O 2538.04 -1.24973 1.48645 0
M  V30 27147 C 2535.17 -1.90066 2.90675 0
M  V30 27148 C 2534.12 -1.52013 4.00095 0
M  V30 27149 C 2533.45 -2.80891 4.54977 0
M  V30 27150 C 2534.75 -0.713819 5.17399 0
M  V30 27151 H 2536.44 -0.131985 2.99109 0
M  V30 27152 H 2533.99 -0.0620411 1.43866 0
M  V30 27153 H 2535.94 -2.54051 3.36209 0
M  V30 27154 H 2534.66 -2.48382 2.1207 0
M  V30 27155 H 2533.32 -0.903777 3.55285 0
M  V30 27156 H 2532.97 -3.37342 3.73108 0
M  V30 27157 H 2532.67 -2.56166 5.28822 0
M  V30 27158 H 2534.2 -3.45827 5.03226 0
M  V30 27159 H 2535.61 -1.25725 5.59344 0
M  V30 27160 H 2534.01 -0.563846 5.97445 0
M  V30 27161 H 2535.08 0.280613 4.84087 0
M  V30 27162 N 2536.42 -1.57498 -0.0567885 0
M  V30 27163 C 2537.67 -1.88255 -0.754187 0
M  V30 27164 C 2538 -0.810896 -1.7646 0
M  V30 27165 O 2537.27 0.177225 -1.93691 0
M  V30 27166 C 2537.56 -3.29672 -1.44873 0
M  V30 27167 C 2537.41 -4.47506 -0.45371 0
M  V30 27168 C 2538.73 -3.69558 -2.38987 0
M  V30 27169 H 2535.85 -0.684688 -0.272712 0
M  V30 27170 H 2538.49 -1.89992 -0.0171779 0
M  V30 27171 H 2536.64 -3.28322 -2.07694 0
M  V30 27172 H 2538.31 -4.60985 0.170452 0
M  V30 27173 H 2536.55 -4.33192 0.229628 0
M  V30 27174 H 2537.23 -5.43274 -0.977603 0
M  V30 27175 H 2539.7 -3.72098 -1.86232 0
M  V30 27176 H 2538.58 -4.69368 -2.84579 0
M  V30 27177 H 2538.84 -3.00301 -3.24456 0
M  V30 27178 N 2537.9 0.328509 -1.54138 0
M  V30 27179 C 2539.15 1.06453 -1.7132 0
M  V30 27180 C 2539.46 1.89333 -0.491142 0
M  V30 27181 O 2540.67 2.6599 -0.544207 0
M  V30 27182 C 2539.12 1.94209 -3.03003 0
M  V30 27183 C 2538.73 1.16464 -4.32597 0
M  V30 27184 C 2540.47 2.67577 -3.29549 0
M  V30 27185 C 2538.38 2.03337 -5.55345 0
M  V30 27186 H 2537.31 0.401143 -0.638436 0
M  V30 27187 H 2539.96 0.323074 -1.80634 0
M  V30 27188 H 2538.34 2.72234 -2.87584 0
M  V30 27189 H 2539.52 0.432445 -4.58766 0
M  V30 27190 H 2537.83 0.54799 -4.12778 0
M  V30 27191 H 2540.43 3.32872 -4.1845 0
M  V30 27192 H 2540.77 3.34951 -2.47212 0
M  V30 27193 H 2541.31 1.96617 -3.45813 0
M  V30 27194 H 2538.04 1.4048 -6.4027 0
M  V30 27195 H 2537.56 2.74303 -5.33402 0
M  V30 27196 H 2539.24 2.62039 -5.91561 0
M  V30 27197 N 2539.38 1.46127 0.590316 0
M  V30 27198 C 2540.62 1.50311 1.34497 0
M  V30 27199 C 2540.94 0.156055 1.94976 0
M  V30 27200 O 2542.14 0.0756514 2.71395 0
M  V30 27201 C 2540.6 2.64819 2.43718 0
M  V30 27202 C 2540.21 4.05913 1.89575 0
M  V30 27203 C 2541.95 2.78267 3.20574 0
M  V30 27204 C 2539.86 5.11774 2.96381 0
M  V30 27205 H 2538.79 0.559377 0.505583 0
M  V30 27206 H 2541.44 1.72316 0.630818 0
M  V30 27207 H 2539.82 2.3613 3.17897 0
M  V30 27208 H 2541 4.44359 1.2199 0
M  V30 27209 H 2539.31 3.97066 1.25411 0
M  V30 27210 H 2541.91 3.54526 4.00269 0
M  V30 27211 H 2542.25 1.85512 3.72681 0
M  V30 27212 H 2542.78 3.06566 2.53499 0
M  V30 27213 H 2539.52 6.06296 2.4917 0
M  V30 27214 H 2539.04 4.7788 3.62479 0
M  V30 27215 H 2540.72 5.37284 3.60465 0
M  V30 27216 N 2540.85 -0.834306 1.33705 0
M  V30 27217 C 2542.1 -1.58481 1.24766 0
M  V30 27218 C 2542.42 -1.94735 -0.183741 0
M  V30 27219 O 2543.62 -2.68608 -0.395187 0
M  V30 27220 C 2542.08 -2.85872 2.18643 0
M  V30 27221 C 2541.69 -2.56965 3.66978 0
M  V30 27222 C 2543.43 -3.63895 2.18587 0
M  V30 27223 C 2541.34 -3.8048 4.52757 0
M  V30 27224 H 2540.27 -0.594764 0.463435 0
M  V30 27225 H 2542.92 -0.919523 1.58799 0
M  V30 27226 H 2541.3 -3.53967 1.77549 0
M  V30 27227 H 2542.47 -1.97053 4.16541 0
M  V30 27228 H 2540.79 -1.92238 3.69369 0
M  V30 27229 H 2543.39 -4.55586 2.79902 0
M  V30 27230 H 2543.73 -3.99163 1.18214 0
M  V30 27231 H 2544.26 -3.02731 2.58068 0
M  V30 27232 H 2541 -3.5034 5.54023 0
M  V30 27233 H 2540.52 -4.39715 4.07935 0
M  V30 27234 H 2542.2 -4.48012 4.66792 0
M  V30 27235 N 2542.33 -1.17248 -1.05312 0
M  V30 27236 C 2543.58 -0.960122 -1.78292 0
M  V30 27237 C 2543.91 0.511327 -1.87658 0
M  V30 27238 O 2543.16 1.39569 -1.37183 0
M  V30 27239 C 2543.46 -1.54484 -3.22288 0
M  V30 27240 C 2543.13 -3.0403 -3.32981 0
M  V30 27241 C 2541.79 -3.4485 -3.35607 0
M  V30 27242 C 2544.14 -4.00037 -3.34095 0
M  V30 27243 C 2541.47 -4.80276 -3.36974 0
M  V30 27244 C 2543.82 -5.35363 -3.37001 0
M  V30 27245 C 2542.48 -5.75648 -3.37913 0
M  V30 27246 H 2541.75 -0.351334 -0.652415 0
M  V30 27247 H 2544.4 -1.46119 -1.2378 0
M  V30 27248 H 2542.71 -0.965458 -3.79719 0
M  V30 27249 H 2544.4 -1.3561 -3.77374 0
M  V30 27250 H 2540.99 -2.71489 -3.3165 0
M  V30 27251 H 2545.18 -3.6956 -3.31269 0
M  V30 27252 H 2540.43 -5.10804 -3.3599 0
M  V30 27253 H 2544.61 -6.09534 -3.36811 0
M  V30 27254 H 2542.23 -6.80565 -3.38726 0
M  V30 27255 N 2543.81 1.24015 -0.972531 0
M  V30 27256 C 2545.06 1.91522 -0.632636 0
M  V30 27257 C 2545.37 1.76806 0.83661 0
M  V30 27258 O 2546.58 2.39045 1.28723 0
M  V30 27259 C 2545.03 3.43286 -1.08088 0
M  V30 27260 C 2544.64 3.66679 -2.57392 0
M  V30 27261 C 2546.39 4.16615 -0.814362 0
M  V30 27262 C 2544.29 5.12038 -2.95924 0
M  V30 27263 H 2543.22 0.717125 -0.232911 0
M  V30 27264 H 2545.87 1.4058 -1.17938 0
M  V30 27265 H 2544.26 3.93291 -0.462409 0
M  V30 27266 H 2545.43 3.27253 -3.24411 0
M  V30 27267 H 2543.75 3.06644 -2.81706 0
M  V30 27268 H 2546.34 5.23717 -1.07819 0
M  V30 27269 H 2546.69 4.15552 0.249477 0
M  V30 27270 H 2547.22 3.72574 -1.39404 0
M  V30 27271 H 2543.96 5.18227 -4.01399 0
M  V30 27272 H 2543.48 5.52444 -2.33593 0
M  V30 27273 H 2545.16 5.80309 -2.86096 0
M  V30 27274 N 2545.29 0.743226 1.38974 0
M  V30 27275 C 2546.53 0.299575 2.02193 0
M  V30 27276 C 2546.89 -1.09503 1.57712 0
M  V30 27277 O 2548.09 -1.63722 2.13187 0
M  V30 27278 C 2546.36 0.406885 3.55076 0
M  V30 27279 S 2547.92 0.044288 4.38778 0
M  V30 27280 H 2544.74 0.116849 0.701333 0
M  V30 27281 H 2547.34 0.971559 1.6965 0
M  V30 27282 H 2546.05 1.42302 3.84939 0
M  V30 27283 H 2545.58 -0.282638 3.92383 0
M  V30 27284 H 2547.59 -1.16939 4.82224 0
M  V30 27285 N 2546.77 -1.4974 0.491491 0
M  V30 27286 C 2548.01 -2.02421 -0.05639 0
M  V30 27287 C 2548.34 -1.37195 -1.37869 0
M  V30 27288 O 2547.6 -0.493542 -1.89374 0
M  V30 27289 C 2547.9 -3.56399 -0.267266 0
M  V30 27290 C 2547.56 -4.40213 0.975853 0
M  V30 27291 C 2546.22 -4.62837 1.31664 0
M  V30 27292 C 2548.58 -4.89036 1.80259 0
M  V30 27293 C 2545.9 -5.31528 2.48385 0
M  V30 27294 C 2548.26 -5.5901 2.96126 0
M  V30 27295 C 2546.92 -5.79882 3.30595 0
M  V30 27296 H 2546.19 -0.740713 -0.0206346 0
M  V30 27297 H 2548.84 -1.80141 0.649718 0
M  V30 27298 H 2547.14 -3.77306 -1.05581 0
M  V30 27299 H 2548.84 -3.94745 -0.70548 0
M  V30 27300 H 2545.43 -4.22839 0.700389 0
M  V30 27301 H 2549.61 -4.71394 1.55247 0
M  V30 27302 H 2544.87 -5.45892 2.7534 0
M  V30 27303 H 2549.04 -5.95817 3.6052 0
M  V30 27304 H 2546.67 -6.32884 4.21143 0
M  V30 27305 N 2548.24 -0.224922 -1.55987 0
M  V30 27306 C 2549.18 0.716186 -2.17723 0
M  V30 27307 C 2550.19 1.15507 -1.14725 0
M  V30 27308 O 2551.38 1.08564 -1.4169 0
M  V30 27309 C 2548.48 1.98233 -2.74876 0
M  V30 27310 C 2547.65 1.69846 -4.03077 0
M  V30 27311 C 2546.71 2.812 -4.44762 0
M  V30 27312 O 2545.74 2.49525 -5.11591 0
M  V30 27313 N 2546.94 4.10227 -4.10723 0
M  V30 27314 H 2549.7 0.188071 -2.99109 0
M  V30 27315 H 2547.26 -0.0440408 -1.6184 0
M  V30 27316 H 2549.26 2.71925 -2.99732 0
M  V30 27317 H 2547.83 2.42083 -1.97774 0
M  V30 27318 H 2547.05 0.797807 -3.86042 0
M  V30 27319 H 2548.33 1.48315 -4.86703 0
M  V30 27320 H 2547.73 4.38803 -3.57027 0
M  V30 27321 H 2546.29 4.80453 -4.40464 0
M  V30 27322 N 2549.72 1.57526 0.0484352 0
M  V30 27323 C 2550.65 2.02043 1.08219 0
M  V30 27324 C 2551.67 0.930036 1.3362 0
M  V30 27325 O 2552.86 1.20763 1.31448 0
M  V30 27326 C 2549.96 2.36421 2.42814 0
M  V30 27327 C 2549.13 3.676 2.37042 0
M  V30 27328 C 2548.19 3.89384 3.5393 0
M  V30 27329 O 2547.21 4.60687 3.343 0
M  V30 27330 N 2548.42 3.33528 4.7512 0
M  V30 27331 H 2551.18 2.91341 0.702895 0
M  V30 27332 H 2548.74 1.6016 0.236717 0
M  V30 27333 H 2550.73 2.48147 3.19695 0
M  V30 27334 H 2549.3 1.52893 2.72658 0
M  V30 27335 H 2548.52 3.66409 1.45388 0
M  V30 27336 H 2549.81 4.5369 2.3031 0
M  V30 27337 H 2549.21 2.75697 4.93971 0
M  V30 27338 H 2547.77 3.50666 5.49433 0
M  V30 27339 N 2551.2 -0.32033 1.5431 0
M  V30 27340 C 2552.15 -1.39435 1.8392 0
M  V30 27341 C 2553.12 -1.51247 0.686551 0
M  V30 27342 O 2554.3 -1.66416 0.933298 0
M  V30 27343 C 2551.44 -2.75746 2.07505 0
M  V30 27344 C 2550.56 -2.72538 3.35182 0
M  V30 27345 C 2549.69 -4.00717 3.48711 0
M  V30 27346 C 2548.73 -3.9183 4.7025 0
M  V30 27347 N 2547.87 -5.11745 4.80688 0
M  V30 27348 H 2552.71 -1.13484 2.75546 0
M  V30 27349 H 2550.24 -0.549285 1.3646 0
M  V30 27350 H 2552.2 -3.54992 2.19172 0
M  V30 27351 H 2550.83 -2.99998 1.19168 0
M  V30 27352 H 2549.88 -1.85265 3.32237 0
M  V30 27353 H 2551.2 -2.61856 4.24539 0
M  V30 27354 H 2550.35 -4.88396 3.59937 0
M  V30 27355 H 2549.09 -4.1421 2.57452 0
M  V30 27356 H 2548.09 -3.02536 4.59078 0
M  V30 27357 H 2549.32 -3.799 5.62897 0
M  V30 27358 H 2547.26 -5.25738 3.92347 0
M  V30 27359 H 2547.18 -5.0341 5.64016 0
M  V30 27360 H 2548.45 -6.01129 4.9625 0
M  V30 27361 N 2552.68 -1.46438 -0.582558 0
M  V30 27362 C 2553.9 -1.55565 -1.37165 0
M  V30 27363 C 2554.33 -0.197462 -1.87061 0
M  V30 27364 O 2553.69 0.822422 -1.61573 0
M  V30 27365 C 2553.73 -2.5645 -2.53506 0
M  V30 27366 O 2552.84 -2.09964 -3.54949 0
M  V30 27367 H 2552.18 -0.523484 -0.408485 0
M  V30 27368 H 2554.71 -1.92011 -0.706612 0
M  V30 27369 H 2554.72 -2.76064 -3.00421 0
M  V30 27370 H 2553.39 -3.5508 -2.16543 0
M  V30 27371 H 2551.97 -2.0034 -3.14513 0
M  V30 27372 N 2554.16 0.827204 -1.34146 0
M  V30 27373 C 2555.39 1.61265 -1.2914 0
M  V30 27374 C 2555.79 1.88699 0.137564 0
M  V30 27375 O 2555.14 1.47589 1.09376 0
M  V30 27376 C 2555.2 2.98076 -2.00975 0
M  V30 27377 C 2554.86 2.93557 -3.50248 0
M  V30 27378 C 2555.86 2.68444 -4.45235 0
M  V30 27379 C 2553.55 3.13324 -3.92598 0
M  V30 27380 C 2555.54 2.63144 -5.80546 0
M  V30 27381 C 2553.23 3.07649 -5.28011 0
M  V30 27382 C 2554.22 2.82591 -6.21797 0
M  V30 27383 O 2553.91 2.7684 -7.54728 0
M  V30 27384 H 2553.64 0.508119 -0.44586 0
M  V30 27385 H 2556.2 1.0376 -1.77265 0
M  V30 27386 H 2554.43 3.57482 -1.47458 0
M  V30 27387 H 2556.12 3.59047 -1.89316 0
M  V30 27388 H 2556.88 2.52911 -4.13837 0
M  V30 27389 H 2552.76 3.31845 -3.2 0
M  V30 27390 H 2556.31 2.43505 -6.53721 0
M  V30 27391 H 2552.2 3.22733 -5.59029 0
M  V30 27392 H 2552.97 2.92598 -7.64414 0
M  V30 27393 N 2555.63 1.17805 1.04688 0
M  V30 27394 C 2556.88 0.971 1.78043 0
M  V30 27395 C 2557.21 -0.498718 1.87687 0
M  V30 27396 O 2556.49 -1.37025 1.38038 0
M  V30 27397 C 2556.77 1.6189 3.21658 0
M  V30 27398 C 2556.62 3.16106 3.19995 0
M  V30 27399 C 2557.94 1.32698 4.19618 0
M  V30 27400 H 2555.06 0.354167 0.646324 0
M  V30 27401 H 2557.7 1.4538 1.22331 0
M  V30 27402 H 2555.85 1.20838 3.6923 0
M  V30 27403 H 2557.53 3.66251 2.80461 0
M  V30 27404 H 2555.77 3.48592 2.58197 0
M  V30 27405 H 2556.44 3.56571 4.2138 0
M  V30 27406 H 2558.92 1.68256 3.80564 0
M  V30 27407 H 2557.79 1.80608 5.18336 0
M  V30 27408 H 2558.05 0.248699 4.414 0
M  V30 27409 N 2557.11 -1.23497 0.979094 0
M  V30 27410 C 2558.34 -1.96454 0.66488 0
M  V30 27411 C 2558.76 -1.72007 -0.761256 0
M  V30 27412 O 2558.12 -0.99074 -1.51836 0
M  V30 27413 C 2558.17 -3.47599 0.95954 0
M  V30 27414 O 2557.27 -4.12369 0.0508893 0
M  V30 27415 H 2556.61 -0.615059 0.250196 0
M  V30 27416 H 2559.14 -1.56968 1.31233 0
M  V30 27417 H 2559.15 -3.98046 0.895712 0
M  V30 27418 H 2557.83 -3.64719 1.99882 0
M  V30 27419 H 2556.41 -3.72517 0.169015 0
M  V30 27420 N 2558.59 -0.750586 -1.38578 0
M  V30 27421 C 2559.82 -0.314848 -2.04996 0
M  V30 27422 C 2560.24 1.04746 -1.56237 0
M  V30 27423 O 2559.6 1.66691 -0.713011 0
M  V30 27424 C 2559.65 -0.343478 -3.5896 0
M  V30 27425 O 2558.75 0.663556 -4.07027 0
M  V30 27426 H 2558.09 -0.139973 -0.649079 0
M  V30 27427 H 2560.62 -1.02087 -1.77312 0
M  V30 27428 H 2560.63 -0.193305 -4.07542 0
M  V30 27429 H 2559.31 -1.33745 -3.93809 0
M  V30 27430 H 2557.88 0.478242 -3.69821 0
M  V30 27431 N 2560.07 1.49477 -0.499425 0
M  V30 27432 C 2561.3 2.06856 0.0425093 0
M  V30 27433 C 2561.71 1.35995 1.30962 0
M  V30 27434 O 2561.07 0.437793 1.77171 0
M  V30 27435 C 2561.12 3.60239 0.301672 0
M  V30 27436 O 2560.84 4.28434 -0.915203 0
M  V30 27437 C 2562.34 4.34327 0.887422 0
M  V30 27438 H 2559.56 0.670709 -0.0197599 0
M  V30 27439 H 2562.11 1.9228 -0.69633 0
M  V30 27440 H 2560.26 3.74524 0.99049 0
M  V30 27441 H 2560.68 5.20111 -0.677085 0
M  V30 27442 H 2562.15 5.42525 1.01835 0
M  V30 27443 H 2562.63 3.96701 1.88481 0
M  V30 27444 H 2563.23 4.24644 0.236121 0
M  V30 27445 N 2561.55 0.233191 1.55865 0
M  V30 27446 C 2562.5 -0.688471 2.22177 0
M  V30 27447 C 2563.49 -1.19074 1.20489 0
M  V30 27448 O 2564.7 -1.14922 1.38538 0
M  V30 27449 H 2561.07 -0.24047 0.712515 0
M  V30 27450 H 2563.04 -0.105883 2.98212 0
M  V30 27451 C 2561.79 -1.88066 2.92449 0
M  V30 27452 H 2561.11 -1.5033 3.7046 0
M  V30 27453 H 2562.55 -2.50308 3.42231 0
M  V30 27454 C 2561.01 -2.74332 1.9556 0
M  V30 27455 O 2561.54 -3.73445 1.47993 0
M  V30 27456 N 2559.75 -2.4061 1.62957 0
M  V30 27457 H 2559.3 -1.60065 2.01834 0
M  V30 27458 H 2559.25 -2.98607 0.983939 0
M  V30 27459 N 2563.03 -1.57549 -0.0400806 0
M  V30 27460 C 2563.96 -2.08871 -1.0438 0
M  V30 27461 C 2564.94 -0.988842 -1.38405 0
M  V30 27462 O 2566.12 -1.26345 -1.47481 0
M  V30 27463 C 2563.25 -2.55899 -2.34804 0
M  V30 27464 C 2562.21 -3.70051 -2.1505 0
M  V30 27465 C 2561.53 -4.03245 -3.51137 0
M  V30 27466 C 2562.83 -4.98905 -1.54567 0
M  V30 27467 H 2564.53 -2.92982 -0.616615 0
M  V30 27468 H 2562.07 -1.40943 -0.295159 0
M  V30 27469 H 2564.02 -2.90422 -3.05341 0
M  V30 27470 H 2562.75 -1.68858 -2.79562 0
M  V30 27471 H 2561.41 -3.3586 -1.46948 0
M  V30 27472 H 2561.06 -3.13286 -3.93523 0
M  V30 27473 H 2560.76 -4.80128 -3.38749 0
M  V30 27474 H 2562.28 -4.40292 -4.23054 0
M  V30 27475 H 2563.69 -5.31455 -2.15008 0
M  V30 27476 H 2562.09 -5.80324 -1.52786 0
M  V30 27477 H 2563.16 -4.82207 -0.510306 0
M  V30 27478 N 2564.5 0.312142 -1.54478 0
M  V30 27479 C 2565.91 0.885862 -1.64345 0
M  V30 27480 C 2566.27 1.88482 -0.544883 0
M  V30 27481 O 2565.39 2.14016 0.32035 0
M  V30 27482 C 2565.99 1.61351 -2.97911 0
M  V30 27483 C 2564.54 2.1358 -3.09937 0
M  V30 27484 C 2563.69 0.964852 -2.59973 0
M  V30 27485 H 2566.64 0.0894249 -1.58448 0
M  V30 27486 H 2566.66 2.47843 -2.88711 0
M  V30 27487 H 2566.18 0.88621 -3.77846 0
M  V30 27488 H 2564.28 2.89391 -2.34699 0
M  V30 27489 H 2564.39 2.37797 -4.1592 0
M  V30 27490 H 2562.75 1.34727 -2.1615 0
M  V30 27491 H 2563.54 0.251682 -3.42376 0
M  V30 27492 N 2565.98 1.46745 0.574784 0
M  V30 27493 C 2567.23 1.5269 1.33467 0
M  V30 27494 C 2567.56 0.181263 1.93352 0
M  V30 27495 O 2566.84 -0.808206 1.76913 0
M  V30 27496 C 2567.12 2.63156 2.45806 0
M  V30 27497 C 2566.97 4.07278 1.90904 0
M  V30 27498 C 2568.29 2.6965 3.47817 0
M  V30 27499 H 2565.41 0.555864 0.483925 0
M  V30 27500 H 2568.05 1.78719 0.644937 0
M  V30 27501 H 2566.2 2.41093 3.04641 0
M  V30 27502 H 2567.87 4.40653 1.36465 0
M  V30 27503 H 2566.12 4.16384 1.21684 0
M  V30 27504 H 2566.79 4.80314 2.72034 0
M  V30 27505 H 2569.26 2.89505 2.98875 0
M  V30 27506 H 2568.14 3.48749 4.23869 0
M  V30 27507 H 2568.4 1.76012 4.05552 0
M  V30 27508 N 2567.46 -0.820078 1.34583 0
M  V30 27509 C 2568.39 -1.94603 1.29042 0
M  V30 27510 C 2569.37 -1.69275 0.16733 0
M  V30 27511 O 2570.56 -1.90831 0.360146 0
M  V30 27512 C 2567.69 -3.31111 1.04799 0
M  V30 27513 C 2566.64 -3.70887 2.13604 0
M  V30 27514 C 2565.97 -5.05409 1.74545 0
M  V30 27515 C 2567.27 -3.82684 3.55458 0
M  V30 27516 H 2568.96 -1.99497 2.23252 0
M  V30 27517 H 2566.51 -0.95843 1.07472 0
M  V30 27518 H 2568.46 -4.09469 0.995664 0
M  V30 27519 H 2567.18 -3.26524 0.0703139 0
M  V30 27520 H 2565.84 -2.94806 2.1791 0
M  V30 27521 H 2565.49 -4.97312 0.754313 0
M  V30 27522 H 2565.19 -5.32993 2.47371 0
M  V30 27523 H 2566.71 -5.86221 1.70814 0
M  V30 27524 H 2568.13 -4.51305 3.53548 0
M  V30 27525 H 2566.52 -4.21725 4.26929 0
M  V30 27526 H 2567.59 -2.84604 3.92592 0
M  V30 27527 N 2568.94 -1.18359 -1.04062 0
M  V30 27528 C 2569.9 -0.912744 -2.10242 0
M  V30 27529 C 2570.9 0.1019 -1.60477 0
M  V30 27530 O 2572.09 -0.131547 -1.73703 0
M  V30 27531 C 2569.22 -0.369446 -3.38892 0
M  V30 27532 H 2570.42 -1.8543 -2.35702 0
M  V30 27533 H 2567.97 -0.995615 -1.20487 0
M  V30 27534 H 2568.7 0.57872 -3.19095 0
M  V30 27535 H 2568.49 -1.10086 -3.76329 0
M  V30 27536 H 2569.98 -0.198648 -4.17127 0
M  V30 27537 N 2570.42 1.22976 -0.98563 0
M  V30 27538 C 2571.35 2.26938 -0.549689 0
M  V30 27539 C 2572.33 1.64839 0.419774 0
M  V30 27540 O 2573.51 1.91677 0.311997 0
M  V30 27541 C 2570.64 3.47003 0.143591 0
M  V30 27542 C 2569.6 4.2149 -0.74368 0
M  V30 27543 C 2568.92 5.34637 0.0821087 0
M  V30 27544 C 2570.22 4.80939 -2.03703 0
M  V30 27545 H 2571.92 2.63655 -1.41867 0
M  V30 27546 H 2569.46 1.2674 -0.683594 0
M  V30 27547 H 2571.41 4.18883 0.459911 0
M  V30 27548 H 2570.14 3.09361 1.04706 0
M  V30 27549 H 2568.8 3.51434 -1.04353 0
M  V30 27550 H 2568.45 4.93236 0.986272 0
M  V30 27551 H 2568.15 5.85396 -0.50848 0
M  V30 27552 H 2569.67 6.09336 0.39269 0
M  V30 27553 H 2571.08 5.44799 -1.78513 0
M  V30 27554 H 2569.48 5.42007 -2.57583 0
M  V30 27555 H 2570.55 4.01394 -2.72049 0
M  V30 27556 N 2571.89 0.757924 1.38178 0
M  V30 27557 C 2572.82 0.148638 2.33026 0
M  V30 27558 C 2573.8 -0.698723 1.55087 0
M  V30 27559 O 2574.99 -0.63902 1.83385 0
M  V30 27560 C 2572.12 -0.741975 3.39282 0
M  V30 27561 C 2571.07 0.00299469 4.28 0
M  V30 27562 C 2570.4 -1.00615 5.25148 0
M  V30 27563 C 2571.7 1.17394 5.08936 0
M  V30 27564 H 2573.39 0.940959 2.84229 0
M  V30 27565 H 2570.94 0.453932 1.36658 0
M  V30 27566 H 2572.89 -1.17792 4.04602 0
M  V30 27567 H 2571.62 -1.56666 2.86571 0
M  V30 27568 H 2570.28 0.419568 3.64191 0
M  V30 27569 H 2569.92 -1.82502 4.68724 0
M  V30 27570 H 2569.62 -0.512325 5.85362 0
M  V30 27571 H 2571.15 -1.44133 5.93345 0
M  V30 27572 H 2572.56 0.815324 5.67473 0
M  V30 27573 H 2570.96 1.59892 5.78407 0
M  V30 27574 H 2572.03 1.98475 4.4242 0
M  V30 27575 N 2573.37 -1.4921 0.507345 0
M  V30 27576 C 2574.3 -2.32082 -0.256899 0
M  V30 27577 C 2575.28 -1.40654 -0.956584 0
M  V30 27578 O 2576.47 -1.69559 -0.946759 0
M  V30 27579 C 2573.6 -3.21321 -1.31797 0
M  V30 27580 C 2572.55 -4.21593 -0.737781 0
M  V30 27581 C 2571.88 -4.9981 -1.89983 0
M  V30 27582 C 2573.18 -5.21573 0.275417 0
M  V30 27583 H 2574.87 -2.96225 0.43485 0
M  V30 27584 H 2572.42 -1.42452 0.210571 0
M  V30 27585 H 2574.37 -3.78111 -1.86038 0
M  V30 27586 H 2573.1 -2.55133 -2.03899 0
M  V30 27587 H 2571.75 -3.65957 -0.217061 0
M  V30 27588 H 2571.4 -4.30065 -2.60869 0
M  V30 27589 H 2571.1 -5.67662 -1.51767 0
M  V30 27590 H 2572.63 -5.59446 -2.44647 0
M  V30 27591 H 2574.04 -5.7302 -0.179093 0
M  V30 27592 H 2572.44 -5.97351 0.573754 0
M  V30 27593 H 2573.51 -4.70094 1.18912 0
M  V30 27594 N 2574.85 -0.241454 -1.55739 0
M  V30 27595 C 2575.78 0.654682 -2.24134 0
M  V30 27596 C 2576.76 1.18558 -1.21976 0
M  V30 27597 O 2577.95 1.22592 -1.50615 0
M  V30 27598 C 2575.08 1.85418 -2.93662 0
M  V30 27599 C 2574.03 1.45629 -4.02463 0
M  V30 27600 C 2573.36 2.73618 -4.59388 0
M  V30 27601 C 2574.66 0.631415 -5.18469 0
M  V30 27602 H 2576.35 0.0843827 -2.99281 0
M  V30 27603 H 2573.9 0.0391454 -1.43947 0
M  V30 27604 H 2575.85 2.4867 -3.40208 0
M  V30 27605 H 2574.57 2.44977 -2.15995 0
M  V30 27606 H 2573.23 0.84714 -3.56678 0
M  V30 27607 H 2572.88 3.31363 -3.78428 0
M  V30 27608 H 2572.58 2.47721 -5.3283 0
M  V30 27609 H 2574.1 3.37777 -5.08664 0
M  V30 27610 H 2575.52 1.1681 -5.61274 0
M  V30 27611 H 2573.92 0.468726 -5.98267 0
M  V30 27612 H 2574.99 -0.357591 -4.8358 0
M  V30 27613 N 2576.33 1.57568 0.0317248 0
M  V30 27614 C 2577.26 2.09422 1.03271 0
M  V30 27615 C 2578.24 0.996168 1.37879 0
M  V30 27616 O 2579.42 1.27125 1.46809 0
M  V30 27617 C 2576.55 2.57141 2.33443 0
M  V30 27618 C 2575.51 3.71186 2.13085 0
M  V30 27619 C 2574.83 4.05102 3.48994 0
M  V30 27620 C 2576.13 4.99718 1.51919 0
M  V30 27621 H 2577.83 2.93304 0.601069 0
M  V30 27622 H 2575.37 1.41097 0.28768 0
M  V30 27623 H 2577.33 2.92037 3.03796 0
M  V30 27624 H 2576.05 1.70338 2.78662 0
M  V30 27625 H 2574.71 3.36634 1.45165 0
M  V30 27626 H 2574.36 3.15369 3.91857 0
M  V30 27627 H 2574.06 4.81917 3.36198 0
M  V30 27628 H 2575.58 4.4253 4.20714 0
M  V30 27629 H 2577 5.32588 2.12186 0
M  V30 27630 H 2575.39 5.81127 1.49706 0
M  V30 27631 H 2576.46 4.82471 0.484726 0
M  V30 27632 N 2577.81 -0.303946 1.54641 0
M  V30 27633 C 2579.04 -1.05702 1.77513 0
M  V30 27634 C 2579.44 -1.8153 0.533259 0
M  V30 27635 O 2578.79 -1.76582 -0.506392 0
M  V30 27636 C 2578.85 -2.08611 2.92782 0
M  V30 27637 C 2578.51 -1.52005 4.3098 0
M  V30 27638 C 2579.51 -0.951611 5.11117 0
M  V30 27639 C 2577.2 -1.55657 4.77573 0
M  V30 27640 C 2579.19 -0.427216 6.35967 0
M  V30 27641 C 2576.88 -1.0283 6.02386 0
M  V30 27642 C 2577.87 -0.464593 6.81418 0
M  V30 27643 O 2577.56 0.0556696 8.03881 0
M  V30 27644 H 2577.29 -0.31938 0.595796 0
M  V30 27645 H 2579.85 -0.349677 2.02402 0
M  V30 27646 H 2578.08 -2.83018 2.63511 0
M  V30 27647 H 2579.77 -2.69797 3.03257 0
M  V30 27648 H 2580.53 -0.916323 4.76265 0
M  V30 27649 H 2576.41 -1.98472 4.16089 0
M  V30 27650 H 2579.96 0.0134288 6.97599 0
M  V30 27651 H 2575.85 -1.06073 6.36725 0
M  V30 27652 H 2576.62 -0.0579084 8.1848 0
M  V30 27653 N 2579.28 -1.47047 -0.566994 0
M  V30 27654 C 2580.53 -1.52867 -1.32198 0
M  V30 27655 C 2580.85 -0.188422 -1.94088 0
M  V30 27656 O 2580.12 0.786661 -1.79411 0
M  V30 27657 H 2578.7 -0.563065 -0.490884 0
M  V30 27658 H 2581.37 -1.83282 -0.662847 0
M  V30 27659 H 2580.46 -2.28993 -2.12058 0
M  V30 27660 N 2580.76 0.812929 -1.35016 0
M  V30 27661 C 2582.01 1.57152 -1.29132 0
M  V30 27662 C 2582.36 1.91927 0.134889 0
M  V30 27663 O 2581.66 1.58008 1.0837 0
M  V30 27664 C 2581.85 2.87343 -2.12529 0
M  V30 27665 C 2581.68 2.65288 -3.63115 0
M  V30 27666 C 2580.45 2.61508 -4.32367 0
M  V30 27667 C 2582.65 2.36106 -4.56901 0
M  V30 27668 N 2580.63 2.31103 -5.68739 0
M  V30 27669 C 2582 2.15484 -5.81349 0
M  V30 27670 C 2584.06 2.21917 -4.4571 0
M  V30 27671 C 2582.76 1.8211 -6.95865 0
M  V30 27672 C 2584.78 1.89939 -5.60069 0
M  V30 27673 C 2584.15 1.70147 -6.83542 0
M  V30 27674 H 2580.25 0.577042 -0.527775 0
M  V30 27675 H 2582.83 0.952116 -1.69832 0
M  V30 27676 H 2581 3.47189 -1.7411 0
M  V30 27677 H 2582.73 3.52837 -1.98213 0
M  V30 27678 H 2579.49 2.75934 -3.84912 0
M  V30 27679 H 2579.91 2.18712 -6.40698 0
M  V30 27680 H 2584.55 2.35918 -3.50859 0
M  V30 27681 H 2582.27 1.66846 -7.90688 0
M  V30 27682 H 2585.86 1.79677 -5.5336 0
M  V30 27683 H 2584.74 1.45763 -7.70534 0
M  V30 27684 N 2582.24 1.18909 1.03433 0
M  V30 27685 C 2583.47 1.01409 1.80917 0
M  V30 27686 C 2583.89 -0.432689 1.83056 0
M  V30 27687 O 2583.25 -1.31077 1.25254 0
M  V30 27688 C 2583.3 1.58111 3.24089 0
M  V30 27689 O 2582.4 0.80674 4.04432 0
M  V30 27690 H 2581.74 0.358813 0.558703 0
M  V30 27691 H 2584.27 1.57809 1.30221 0
M  V30 27692 H 2584.28 1.61093 3.74851 0
M  V30 27693 H 2582.96 2.63415 3.21846 0
M  V30 27694 H 2581.53 0.84973 3.6309 0
M  V30 27695 N 2583.72 -1.22452 0.992137 0
M  V30 27696 C 2584.97 -1.90491 0.663026 0
M  V30 27697 C 2585.28 -1.78114 -0.808376 0
M  V30 27698 O 2586.49 -2.41063 -1.24904 0
M  V30 27699 C 2584.94 -3.41523 1.13536 0
M  V30 27700 C 2584.55 -3.62538 2.63193 0
M  V30 27701 C 2586.29 -4.15267 0.880538 0
M  V30 27702 C 2584.2 -5.07265 3.04033 0
M  V30 27703 H 2583.13 -0.713329 0.24429 0
M  V30 27704 H 2585.78 -1.38686 1.2016 0
M  V30 27705 H 2584.16 -3.92506 0.524919 0
M  V30 27706 H 2585.34 -3.2205 3.29576 0
M  V30 27707 H 2583.65 -3.02124 2.86549 0
M  V30 27708 H 2586.25 -5.21935 1.16138 0
M  V30 27709 H 2586.59 -4.15896 -0.183335 0
M  V30 27710 H 2587.13 -3.70309 1.45313 0
M  V30 27711 H 2583.87 -5.11775 4.09593 0
M  V30 27712 H 2583.39 -5.48658 2.42353 0
M  V30 27713 H 2585.06 -5.75684 2.95292 0
M  V30 27714 N 2585.2 -0.765242 -1.37774 0
M  V30 27715 C 2586.42 -0.337803 -2.04124 0
M  V30 27716 C 2586.84 1.03782 -1.57717 0
M  V30 27717 O 2586.2 1.66129 -0.755476 0
M  V30 27718 C 2586.25 -0.364505 -3.59658 0
M  V30 27719 O 2585.97 -1.68586 -4.04364 0
M  V30 27720 C 2587.47 0.0753442 -4.43236 0
M  V30 27721 H 2584.69 -0.142502 -0.655694 0
M  V30 27722 H 2587.23 -1.03735 -1.76237 0
M  V30 27723 H 2585.39 0.286403 -3.8634 0
M  V30 27724 H 2585.8 -1.62001 -4.98854 0
M  V30 27725 H 2587.28 0.00550365 -5.52 0
M  V30 27726 H 2587.75 1.12484 -4.24552 0
M  V30 27727 H 2588.36 -0.547129 -4.21766 0
M  V30 27728 N 2586.67 1.48939 -0.515251 0
M  V30 27729 C 2588.09 1.86565 -0.0710395 0
M  V30 27730 C 2588.44 1.42626 1.34731 0
M  V30 27731 O 2587.56 0.810414 2.00652 0
M  V30 27732 C 2588.16 3.3858 -0.122142 0
M  V30 27733 C 2586.72 3.75453 0.266797 0
M  V30 27734 C 2585.86 2.72965 -0.488424 0
M  V30 27735 H 2588.81 1.41054 -0.727291 0
M  V30 27736 H 2588.83 3.74559 0.669752 0
M  V30 27737 H 2588.35 3.70529 -1.15455 0
M  V30 27738 H 2586.45 3.49115 1.3019 0
M  V30 27739 H 2586.56 4.79059 -0.0625653 0
M  V30 27740 H 2584.92 2.54621 0.0635174 0
M  V30 27741 H 2585.71 3.07758 -1.52118 0
M  V30 27742 N 2588.15 0.249709 1.55609 0
M  V30 27743 C 2589.08 -0.642787 2.24478 0
M  V30 27744 C 2590.06 -1.17909 1.22603 0
M  V30 27745 O 2591.25 -1.21792 1.51263 0
M  V30 27746 C 2588.38 -1.83858 2.94641 0
M  V30 27747 C 2587.33 -1.43493 4.03229 0
M  V30 27748 C 2586.66 -2.71178 4.60833 0
M  V30 27749 C 2587.96 -0.60391 5.18797 0
M  V30 27750 H 2589.65 -0.0685099 2.99322 0
M  V30 27751 H 2587.2 -0.031511 1.43966 0
M  V30 27752 H 2589.15 -2.46862 3.41522 0
M  V30 27753 H 2587.88 -2.43828 2.17291 0
M  V30 27754 H 2586.54 -0.828212 3.57122 0
M  V30 27755 H 2586.18 -3.29352 3.8018 0
M  V30 27756 H 2585.88 -2.44892 5.34137 0
M  V30 27757 H 2587.41 -3.35075 5.10448 0
M  V30 27758 H 2588.82 -1.13832 5.61885 0
M  V30 27759 H 2587.22 -0.436992 5.98507 0
M  V30 27760 H 2588.29 0.383232 4.83383 0
M  V30 27761 N 2589.63 -1.57583 -0.0233682 0
M  V30 27762 C 2590.56 -2.02325 -1.05546 0
M  V30 27763 C 2591.54 -0.908649 -1.34842 0
M  V30 27764 O 2592.73 -1.17494 -1.47402 0
M  V30 27765 C 2589.85 -2.40112 -2.38881 0
M  V30 27766 C 2588.9 -3.62071 -2.25404 0
M  V30 27767 S 2589.73 -5.10973 -1.60208 0
M  V30 27768 C 2590.89 -5.52008 -2.95022 0
M  V30 27769 H 2591.12 -2.8955 -0.674384 0
M  V30 27770 H 2588.65 -1.52624 -0.233523 0
M  V30 27771 H 2590.61 -2.62553 -3.15557 0
M  V30 27772 H 2589.27 -1.53328 -2.74134 0
M  V30 27773 H 2588.47 -3.86185 -3.23848 0
M  V30 27774 H 2588.07 -3.39511 -1.5687 0
M  V30 27775 H 2590.36 -5.5304 -3.91347 0
M  V30 27776 H 2591.3 -6.52251 -2.75635 0
M  V30 27777 H 2591.71 -4.79522 -2.97857 0
M  V30 27778 N 2591.11 0.29574 -1.548 0
M  V30 27779 C 2592.34 1.04759 -1.78071 0
M  V30 27780 C 2592.75 1.81244 -0.542879 0
M  V30 27781 O 2592.09 1.76849 0.49702 0
M  V30 27782 C 2592.15 2.07056 -2.93885 0
M  V30 27783 C 2591.82 1.49717 -4.3178 0
M  V30 27784 C 2592.81 0.924491 -5.11614 0
M  V30 27785 C 2590.5 1.53122 -4.78392 0
M  V30 27786 C 2592.49 0.393483 -6.36184 0
M  V30 27787 C 2590.18 0.996341 -6.02923 0
M  V30 27788 C 2591.18 0.428449 -6.81655 0
M  V30 27789 O 2590.87 -0.0983006 -8.0384 0
M  V30 27790 H 2590.6 0.316216 -0.597481 0
M  V30 27791 H 2593.15 0.338938 -2.02584 0
M  V30 27792 H 2591.38 2.81616 -2.65008 0
M  V30 27793 H 2593.07 2.68184 -3.04683 0
M  V30 27794 H 2593.84 0.891052 -4.76744 0
M  V30 27795 H 2589.72 1.96263 -4.17135 0
M  V30 27796 H 2593.26 -0.050424 -6.97582 0
M  V30 27797 H 2589.16 1.02694 -6.37279 0
M  V30 27798 H 2589.92 0.0145016 -8.18499 0
M  V30 27799 N 2592.59 1.47346 0.559187 0
M  V30 27800 C 2594 1.47753 1.14132 0
M  V30 27801 C 2594.35 0.231137 1.94834 0
M  V30 27802 O 2593.47 -0.664101 2.05958 0
M  V30 27803 C 2594.07 2.67708 2.07648 0
M  V30 27804 C 2592.63 2.71081 2.61136 0
M  V30 27805 C 2591.78 2.40823 1.37476 0
M  V30 27806 H 2594.73 1.54885 0.34589 0
M  V30 27807 H 2594.75 2.44566 2.91492 0
M  V30 27808 H 2594.26 3.58407 1.48884 0
M  V30 27809 H 2592.36 1.84517 3.23704 0
M  V30 27810 H 2592.47 3.71716 3.02265 0
M  V30 27811 H 2590.84 1.91365 1.68082 0
M  V30 27812 H 2591.62 3.33727 0.805076 0
M  V30 27813 N 2594.07 -0.805758 1.35445 0
M  V30 27814 C 2595.03 -1.89922 1.28305 0
M  V30 27815 C 2596.03 -1.59622 0.194313 0
M  V30 27816 O 2597.22 -1.68339 0.448065 0
M  V30 27817 C 2594.35 -3.26358 0.985055 0
M  V30 27818 H 2595.54 -1.97673 2.25534 0
M  V30 27819 H 2593.1 -1.00171 1.19981 0
M  V30 27820 H 2593.83 -3.24296 0.01666 0
M  V30 27821 H 2593.62 -3.49737 1.77275 0
M  V30 27822 H 2595.11 -4.06399 0.960722 0
M  V30 27823 N 2595.54 -1.19456 -1.02801 0
M  V30 27824 C 2596.77 -1.02367 -1.80377 0
M  V30 27825 C 2597.19 0.422975 -1.83283 0
M  V30 27826 O 2596.55 1.30411 -1.25947 0
M  V30 27827 C 2596.6 -1.59827 -3.23246 0
M  V30 27828 O 2595.7 -0.828176 -4.03999 0
M  V30 27829 H 2595.04 -0.361771 -0.556792 0
M  V30 27830 H 2597.57 -1.58498 -1.29382 0
M  V30 27831 H 2597.58 -1.63079 -3.73991 0
M  V30 27832 H 2596.26 -2.65118 -3.20445 0
M  V30 27833 H 2594.84 -0.868973 -3.62634 0
M  V30 27834 N 2597.02 1.21924 -0.998617 0
M  V30 27835 C 2598.27 1.90823 -0.677697 0
M  V30 27836 C 2598.6 1.77695 0.790874 0
M  V30 27837 O 2597.85 1.14352 1.58815 0
M  V30 27838 C 2598.15 3.42039 -1.03654 0
M  V30 27839 C 2597.82 3.7536 -2.49832 0
M  V30 27840 C 2596.48 3.84165 -2.89777 0
M  V30 27841 C 2598.83 3.91067 -3.44552 0
M  V30 27842 C 2596.16 4.06119 -4.23419 0
M  V30 27843 C 2598.51 4.14527 -4.7786 0
M  V30 27844 C 2597.17 4.21557 -5.17538 0
M  V30 27845 H 2596.44 0.698272 -0.247987 0
M  V30 27846 H 2599.09 1.44569 -1.25587 0
M  V30 27847 H 2597.4 3.89987 -0.376525 0
M  V30 27848 H 2599.09 3.93612 -0.766182 0
M  V30 27849 H 2595.68 3.69093 -2.17872 0
M  V30 27850 H 2599.87 3.83637 -3.1486 0
M  V30 27851 H 2595.12 4.09791 -4.53741 0
M  V30 27852 H 2599.3 4.25623 -5.51197 0
M  V30 27853 H 2596.92 4.38322 -6.2111 0
M  V30 27854 N 2598.5 0.772537 1.37367 0
M  V30 27855 C 2599.75 0.337716 1.99968 0
M  V30 27856 C 2600.08 -1.08318 1.61185 0
M  V30 27857 O 2599.35 -1.74532 0.858426 0
M  V30 27858 C 2599.64 0.482184 3.56857 0
M  V30 27859 C 2599.49 1.94556 4.05547 0
M  V30 27860 C 2600.81 -0.113066 4.39955 0
M  V30 27861 H 2597.93 0.124183 0.726462 0
M  V30 27862 H 2600.57 0.975728 1.63032 0
M  V30 27863 H 2598.72 -0.0609678 3.88452 0
M  V30 27864 H 2600.39 2.54847 3.84513 0
M  V30 27865 H 2598.63 2.45409 3.5771 0
M  V30 27866 H 2599.31 1.99769 5.14584 0
M  V30 27867 H 2601.78 0.350383 4.14622 0
M  V30 27868 H 2600.66 0.0181479 5.48897 0
M  V30 27869 H 2600.92 -1.20346 4.25405 0
M  V30 27870 N 2599.98 -1.48664 0.523142 0
M  V30 27871 C 2601.22 -2.02496 -0.0134407 0
M  V30 27872 C 2601.55 -1.40088 -1.34928 0
M  V30 27873 O 2600.81 -0.5336 -1.88285 0
M  V30 27874 C 2601.11 -3.56886 -0.191608 0
M  V30 27875 C 2600.77 -4.38045 1.06901 0
M  V30 27876 C 2599.43 -4.5994 1.41451 0
M  V30 27877 C 2601.79 -4.85102 1.90592 0
M  V30 27878 C 2599.11 -5.2614 2.59603 0
M  V30 27879 C 2601.47 -5.52603 3.07916 0
M  V30 27880 C 2600.13 -5.72739 3.42821 0
M  V30 27881 H 2599.4 -0.740984 -0.00491831 0
M  V30 27882 H 2602.05 -1.78723 0.687782 0
M  V30 27883 H 2600.35 -3.79461 -0.975543 0
M  V30 27884 H 2602.05 -3.96153 -0.62159 0
M  V30 27885 H 2598.64 -4.21258 0.789922 0
M  V30 27886 H 2602.82 -4.67995 1.65211 0
M  V30 27887 H 2598.08 -5.39929 2.86857 0
M  V30 27888 H 2602.25 -5.88036 3.73077 0
M  V30 27889 H 2599.88 -6.23809 4.34473 0
M  V30 27890 N 2601.46 -0.257958 -1.55475 0
M  V30 27891 C 2602.4 0.6369 -2.21838 0
M  V30 27892 C 2603.37 1.16292 -1.18598 0
M  V30 27893 O 2604.56 1.21537 -1.47083 0
M  V30 27894 C 2601.7 1.82312 -2.93013 0
M  V30 27895 C 2600.81 1.33258 -4.10934 0
M  V30 27896 C 2599.95 2.47923 -4.69795 0
M  V30 27897 C 2598.98 1.95786 -5.79943 0
M  V30 27898 N 2598.12 3.03859 -6.32941 0
M  V30 27899 H 2602.96 0.0643067 -2.97931 0
M  V30 27900 H 2600.5 0.0199772 -1.47086 0
M  V30 27901 H 2602.46 2.52012 -3.32484 0
M  V30 27902 H 2601.09 2.36801 -2.19374 0
M  V30 27903 H 2600.14 0.529244 -3.767 0
M  V30 27904 H 2601.45 0.910568 -4.90418 0
M  V30 27905 H 2600.6 3.25647 -5.11898 0
M  V30 27906 H 2599.34 2.93431 -3.89551 0
M  V30 27907 H 2598.35 1.16536 -5.37308 0
M  V30 27908 H 2599.57 1.51234 -6.62046 0
M  V30 27909 H 2597.52 3.48781 -5.55597 0
M  V30 27910 H 2597.44 2.66023 -7.07649 0
M  V30 27911 H 2598.7 3.81609 -6.79702 0
M  V30 27912 N 2602.93 1.57593 0.0150108 0
M  V30 27913 C 2604.18 1.89086 0.702082 0
M  V30 27914 C 2604.5 0.858308 1.75762 0
M  V30 27915 O 2605.7 1.06295 2.49827 0
M  V30 27916 C 2604.16 3.35606 1.29986 0
M  V30 27917 C 2603.77 4.47125 0.279929 0
M  V30 27918 C 2605.51 3.7623 1.96599 0
M  V30 27919 C 2603.42 5.84713 0.886846 0
M  V30 27920 H 2602.35 0.705527 0.265985 0
M  V30 27921 H 2605 1.83449 -0.0430731 0
M  V30 27922 H 2603.38 3.36033 2.09519 0
M  V30 27923 H 2604.55 4.5819 -0.489711 0
M  V30 27924 H 2602.87 4.15424 -0.284908 0
M  V30 27925 H 2605.47 4.76352 2.42885 0
M  V30 27926 H 2605.81 3.08957 2.79019 0
M  V30 27927 H 2606.34 3.78038 1.23822 0
M  V30 27928 H 2603.08 6.55421 0.101761 0
M  V30 27929 H 2602.6 5.7734 1.626 0
M  V30 27930 H 2604.28 6.31893 1.38999 0
M  V30 27931 N 2604.41 -0.287527 1.54955 0
M  V30 27932 C 2605.82 -0.859604 1.65734 0
M  V30 27933 C 2606.17 -1.87591 0.5748 0
M  V30 27934 O 2605.3 -2.14498 -0.286261 0
M  V30 27935 C 2605.89 -1.56592 3.00441 0
M  V30 27936 C 2604.45 -2.08622 3.13295 0
M  V30 27937 C 2603.6 -0.92337 2.61475 0
M  V30 27938 H 2606.55 -0.0642059 1.5857 0
M  V30 27939 H 2606.57 -2.43219 2.92617 0
M  V30 27940 H 2606.08 -0.825986 3.79208 0
M  V30 27941 H 2604.19 -2.85621 2.39273 0
M  V30 27942 H 2604.3 -2.3115 4.19651 0
M  V30 27943 H 2602.66 -1.31271 2.18266 0
M  V30 27944 H 2603.45 -0.197181 3.42733 0
M  V30 27945 N 2605.89 -1.47641 -0.551365 0
M  V30 27946 C 2607.12 -1.58439 -1.33835 0
M  V30 27947 C 2607.54 -0.237096 -1.866 0
M  V30 27948 O 2606.9 0.787965 -1.63281 0
M  V30 27949 C 2606.95 -2.6177 -2.4801 0
M  V30 27950 O 2606.05 -2.17446 -3.50415 0
M  V30 27951 H 2605.39 -0.532031 -0.397289 0
M  V30 27952 H 2607.92 -1.93466 -0.665725 0
M  V30 27953 H 2607.93 -2.82374 -2.94498 0
M  V30 27954 H 2606.61 -3.59594 -2.08962 0
M  V30 27955 H 2605.18 -2.06966 -3.10193 0
M  V30 27956 N 2607.37 0.798563 -1.3587 0
M  V30 27957 C 2608.6 1.58719 -1.32725 0
M  V30 27958 C 2609.01 1.88568 0.09353 0
M  V30 27959 O 2608.37 1.49423 1.04781 0
M  V30 27960 C 2608.42 2.91367 -2.1398 0
M  V30 27961 O 2608.14 2.62809 -3.50518 0
M  V30 27962 C 2609.64 3.85705 -2.18511 0
M  V30 27963 H 2606.86 0.492588 -0.455629 0
M  V30 27964 H 2609.41 0.991812 -1.78839 0
M  V30 27965 H 2607.56 3.47399 -1.71444 0
M  V30 27966 H 2607.97 3.47562 -3.92812 0
M  V30 27967 H 2609.45 4.75867 -2.7974 0
M  V30 27968 H 2609.93 4.22883 -1.18604 0
M  V30 27969 H 2610.53 3.35608 -2.61242 0
M  V30 27970 N 2608.85 1.19999 1.02166 0
M  V30 27971 C 2609.81 0.946077 2.08763 0
M  V30 27972 C 2610.81 -0.0763563 1.60619 0
M  V30 27973 O 2612 0.159165 1.73471 0
M  V30 27974 C 2609.13 0.423314 3.38262 0
M  V30 27975 H 2610.32 1.89157 2.32722 0
M  V30 27976 H 2607.88 1.01466 1.18888 0
M  V30 27977 H 2608.61 -0.527881 3.19975 0
M  V30 27978 H 2608.4 1.1606 3.7453 0
M  V30 27979 H 2609.89 0.264985 4.16758 0
M  V30 27980 N 2610.32 -1.21392 1.00507 0
M  V30 27981 C 2611.55 -1.94177 0.705618 0
M  V30 27982 C 2611.96 -1.74305 -0.735815 0
M  V30 27983 O 2611.31 -1.04685 -1.50953 0
M  V30 27984 C 2611.37 -3.46804 0.946951 0
M  V30 27985 C 2611.03 -3.90425 2.37524 0
M  V30 27986 C 2612.03 -3.97121 3.35546 0
M  V30 27987 C 2609.71 -4.22737 2.71291 0
M  V30 27988 C 2611.71 -4.35522 4.65403 0
M  V30 27989 C 2609.39 -4.60815 4.01364 0
M  V30 27990 C 2610.39 -4.67178 4.98231 0
M  V30 27991 O 2610.08 -5.04388 6.25978 0
M  V30 27992 H 2609.81 -0.624321 0.259227 0
M  V30 27993 H 2612.37 -1.55156 1.34595 0
M  V30 27994 H 2610.6 -3.85895 0.249454 0
M  V30 27995 H 2612.29 -4.00809 0.640874 0
M  V30 27996 H 2613.05 -3.72334 3.10793 0
M  V30 27997 H 2608.93 -4.16982 1.96589 0
M  V30 27998 H 2612.47 -4.40403 5.41009 0
M  V30 27999 H 2608.37 -4.85055 4.25901 0
M  V30 28000 H 2609.14 -5.2242 6.30095 0
M  V30 28001 N 2611.8 -0.779811 -1.36955 0
M  V30 28002 C 2613.05 -0.348316 -1.99786 0
M  V30 28003 C 2613.38 1.07462 -1.61758 0
M  V30 28004 O 2612.66 1.74074 -0.867669 0
M  V30 28005 C 2612.94 -0.501102 -3.56596 0
M  V30 28006 C 2612.79 -1.96704 -4.04509 0
M  V30 28007 C 2614.11 0.0897324 -4.40009 0
M  V30 28008 H 2611.23 -0.128034 -0.725794 0
M  V30 28009 H 2613.87 -0.98436 -1.62513 0
M  V30 28010 H 2612.02 0.0403664 -3.88479 0
M  V30 28011 H 2613.69 -2.56883 -3.83156 0
M  V30 28012 H 2611.94 -2.47303 -3.56404 0
M  V30 28013 H 2612.61 -2.02495 -5.13517 0
M  V30 28014 H 2615.08 -0.372366 -4.14431 0
M  V30 28015 H 2613.96 -0.047257 -5.4888 0
M  V30 28016 H 2614.22 1.18088 -4.26037 0
M  V30 28017 N 2613.28 1.48384 -0.531019 0
M  V30 28018 C 2614.53 2.028 0.00270571 0
M  V30 28019 C 2614.86 1.40718 1.33836 0
M  V30 28020 O 2614.13 0.55331 1.86464 0
M  V30 28021 C 2614.42 3.59888 0.123613 0
M  V30 28022 C 2614.27 4.32448 -1.23728 0
M  V30 28023 C 2615.59 4.31816 0.849892 0
M  V30 28024 H 2612.71 0.737 -0.000490713 0
M  V30 28025 H 2615.35 1.77096 -0.688249 0
M  V30 28026 H 2613.5 3.81918 0.71209 0
M  V30 28027 H 2615.17 4.21833 -1.86694 0
M  V30 28028 H 2613.42 3.93826 -1.81889 0
M  V30 28029 H 2614.09 5.40813 -1.10567 0
M  V30 28030 H 2616.56 4.14621 0.350499 0
M  V30 28031 H 2615.44 5.41415 0.90339 0
M  V30 28032 H 2615.7 3.99171 1.9004 0
M  V30 28033 N 2614.76 0.2662 1.55336 0
M  V30 28034 C 2615.69 -0.618941 2.25147 0
M  V30 28035 C 2616.67 -1.16602 1.23847 0
M  V30 28036 O 2617.85 -1.20181 1.52546 0
M  V30 28037 C 2614.98 -1.80723 2.96575 0
M  V30 28038 C 2613.94 -1.39208 4.04729 0
M  V30 28039 C 2613.26 -2.66275 4.63683 0
M  V30 28040 C 2614.56 -0.548851 5.19408 0
M  V30 28041 H 2616.26 -0.036759 2.99377 0
M  V30 28042 H 2613.8 -0.0162398 1.43991 0
M  V30 28043 H 2615.76 -2.43226 3.44121 0
M  V30 28044 H 2614.48 -2.4151 2.19865 0
M  V30 28045 H 2613.14 -0.790288 3.5798 0
M  V30 28046 H 2612.79 -3.25301 3.83651 0
M  V30 28047 H 2612.49 -2.39213 5.36704 0
M  V30 28048 H 2614.01 -3.29642 5.13973 0
M  V30 28049 H 2615.43 -1.07866 5.63061 0
M  V30 28050 H 2613.82 -0.373488 5.98937 0
M  V30 28051 H 2614.89 0.434479 4.8295 0
M  V30 28052 N 2616.24 -1.57599 -0.0066531 0
M  V30 28053 C 2617.46 -1.94553 -0.704053 0
M  V30 28054 C 2617.88 -0.867775 -1.67676 0
M  V30 28055 O 2617.24 0.153893 -1.8185 0
M  V30 28056 C 2617.29 -3.31507 -1.44171 0
M  V30 28057 O 2617.01 -4.35145 -0.508021 0
M  V30 28058 C 2618.51 -3.8288 -2.23422 0
M  V30 28059 H 2615.73 -0.641579 -0.196512 0
M  V30 28060 H 2618.27 -2.04456 0.0424889 0
M  V30 28061 H 2616.43 -3.22933 -2.13994 0
M  V30 28062 H 2616.84 -5.14332 -1.02773 0
M  V30 28063 H 2618.32 -4.81155 -2.70543 0
M  V30 28064 H 2618.79 -3.15239 -3.05812 0
M  V30 28065 H 2619.4 -3.9461 -1.5863 0
M  V30 28066 N 2617.72 0.279305 -1.55105 0
M  V30 28067 C 2618.94 1.03442 -1.79762 0
M  V30 28068 C 2619.37 1.79383 -0.565984 0
M  V30 28069 O 2618.72 1.74714 0.484229 0
M  V30 28070 C 2618.77 1.97366 -3.01793 0
M  V30 28071 O 2617.88 3.06033 -2.76437 0
M  V30 28072 H 2617.22 0.296069 -0.594339 0
M  V30 28073 H 2619.75 0.31013 -2.02236 0
M  V30 28074 H 2619.76 2.39436 -3.30355 0
M  V30 28075 H 2618.43 1.41503 -3.91088 0
M  V30 28076 H 2617.01 2.68323 -2.58954 0
M  V30 28077 N 2619.19 1.47931 0.543528 0
M  V30 28078 C 2620.44 1.55487 1.30198 0
M  V30 28079 C 2620.77 0.222235 1.92924 0
M  V30 28080 O 2620.05 -0.770498 1.78588 0
M  V30 28081 C 2620.33 2.68311 2.40169 0
M  V30 28082 C 2620.18 4.11236 1.82222 0
M  V30 28083 C 2621.5 2.76967 3.42019 0
M  V30 28084 H 2618.62 0.566004 0.472026 0
M  V30 28085 H 2621.26 1.80047 0.606883 0
M  V30 28086 H 2619.41 2.47501 2.99459 0
M  V30 28087 H 2621.09 4.43448 1.27088 0
M  V30 28088 H 2619.33 4.18871 1.12824 0
M  V30 28089 H 2620 4.85976 2.61785 0
M  V30 28090 H 2622.48 2.95779 2.92667 0
M  V30 28091 H 2621.35 3.57661 4.16377 0
M  V30 28092 H 2621.61 1.84575 4.01727 0
M  V30 28093 N 2620.67 -0.791347 1.36292 0
M  V30 28094 C 2621.62 -1.9253 1.30518 0
M  V30 28095 C 2622.61 -1.68247 0.197315 0
M  V30 28096 O 2623.82 -1.76277 0.364207 0
M  V30 28097 H 2620.19 -0.632808 0.406274 0
M  V30 28098 H 2622.17 -1.94519 2.26285 0
M  V30 28099 C 2620.91 -3.29527 1.10939 0
M  V30 28100 H 2620.24 -3.48778 1.95433 0
M  V30 28101 H 2621.68 -4.09228 1.10945 0
M  V30 28102 C 2620.14 -3.36386 -0.186063 0
M  V30 28103 O 2620.67 -3.84083 -1.17657 0
M  V30 28104 N 2618.87 -2.89688 -0.230078 0
M  V30 28105 H 2618.42 -2.51064 0.57659 0
M  V30 28106 H 2618.38 -2.94659 -1.09653 0
M  V30 28107 N 2622.15 -1.2054 -1.01528 0
M  V30 28108 C 2623.08 -0.979333 -2.1197 0
M  V30 28109 C 2624.06 0.0921489 -1.6985 0
M  V30 28110 O 2625.25 -0.0656273 -1.94089 0
M  V30 28111 C 2622.38 -0.532044 -3.432 0
M  V30 28112 C 2621.33 -1.54692 -3.99067 0
M  V30 28113 C 2620.66 -0.95622 -5.2608 0
M  V30 28114 C 2621.96 -2.931 -4.32308 0
M  V30 28115 H 2623.65 -1.90302 -2.3114 0
M  V30 28116 H 2621.2 -0.916392 -1.11078 0
M  V30 28117 H 2623.15 -0.361118 -4.1985 0
M  V30 28118 H 2621.87 0.427271 -3.23793 0
M  V30 28119 H 2620.53 -1.70523 -3.24527 0
M  V30 28120 H 2620.18 0.0110654 -5.02999 0
M  V30 28121 H 2619.88 -1.63403 -5.64423 0
M  V30 28122 H 2621.4 -0.79639 -6.05384 0
M  V30 28123 H 2622.82 -2.80772 -4.9984 0
M  V30 28124 H 2621.21 -3.57799 -4.81767 0
M  V30 28125 H 2622.28 -3.44723 -3.41019 0
M  V30 28126 N 2623.63 1.20858 -1.01149 0
M  V30 28127 C 2624.87 1.90094 -0.697898 0
M  V30 28128 C 2625.2 1.78524 0.771982 0
M  V30 28129 O 2624.46 1.1603 1.57593 0
M  V30 28130 C 2624.76 3.4092 -1.07276 0
M  V30 28131 C 2624.42 3.72689 -2.53799 0
M  V30 28132 C 2623.08 3.8107 -2.93835 0
M  V30 28133 C 2625.44 3.8739 -3.4868 0
M  V30 28134 C 2622.76 4.01606 -4.27703 0
M  V30 28135 C 2625.12 4.09435 -4.8223 0
M  V30 28136 C 2623.78 4.16045 -5.2198 0
M  V30 28137 H 2623.05 0.695602 -0.255379 0
M  V30 28138 H 2625.7 1.43229 -1.27113 0
M  V30 28139 H 2624 3.89565 -0.417867 0
M  V30 28140 H 2625.7 3.92778 -0.807887 0
M  V30 28141 H 2622.29 3.66761 -2.21775 0
M  V30 28142 H 2626.47 3.80276 -3.18911 0
M  V30 28143 H 2621.73 4.04956 -4.58062 0
M  V30 28144 H 2625.9 4.19753 -5.5568 0
M  V30 28145 H 2623.53 4.3171 -6.25724 0
M  V30 28146 N 2625.11 0.787064 1.3654 0
M  V30 28147 C 2626.35 0.354975 1.98552 0
M  V30 28148 C 2626.67 -1.07861 1.63173 0
M  V30 28149 O 2627.87 -1.61285 2.18402 0
M  V30 28150 C 2626.33 0.583733 3.55135 0
M  V30 28151 C 2625.94 2.02858 3.9944 0
M  V30 28152 C 2627.68 0.216031 4.2395 0
M  V30 28153 C 2625.59 2.20412 5.48792 0
M  V30 28154 H 2624.52 0.128985 0.742886 0
M  V30 28155 H 2627.17 0.968364 1.55868 0
M  V30 28156 H 2625.55 -0.099335 3.95875 0
M  V30 28157 H 2626.73 2.74786 3.69905 0
M  V30 28158 H 2625.04 2.35431 3.43455 0
M  V30 28159 H 2627.64 0.325499 5.33708 0
M  V30 28160 H 2627.98 -0.835575 4.07828 0
M  V30 28161 H 2628.51 0.852243 3.88564 0
M  V30 28162 H 2625.25 3.23947 5.69858 0
M  V30 28163 H 2624.77 1.52987 5.79961 0
M  V30 28164 H 2626.45 2.01013 6.14982 0
M  V30 28165 N 2626.58 -1.48101 0.53888 0
M  V30 28166 C 2627.83 -2.02098 0.00802152 0
M  V30 28167 C 2628.15 -1.41741 -1.33919 0
M  V30 28168 O 2627.42 -0.585967 -1.86931 0
M  V30 28169 H 2626 -0.747 -2.30875e-05 0
M  V30 28170 H 2628.66 -1.81713 0.704732 0
M  V30 28171 H 2627.76 -3.11959 -0.0937124 0
M  V30 28172 N 2628.06 -0.274434 -1.55192 0
M  V30 28173 C 2629.31 0.343178 -1.98759 0
M  V30 28174 C 2629.62 1.57027 -1.16626 0
M  V30 28175 O 2630.83 2.26079 -1.50334 0
M  V30 28176 C 2629.29 0.661934 -3.5376 0
M  V30 28177 C 2628.89 -0.545318 -4.44669 0
M  V30 28178 C 2630.64 1.24221 -4.05918 0
M  V30 28179 C 2628.54 -0.201188 -5.91058 0
M  V30 28180 H 2627.47 0.132001 -0.742356 0
M  V30 28181 H 2630.13 -0.378979 -1.79544 0
M  V30 28182 H 2628.51 1.44297 -3.68774 0
M  V30 28183 H 2629.68 -1.32219 -4.41423 0
M  V30 28184 H 2628 -1.04239 -4.03142 0
M  V30 28185 H 2630.59 1.51348 -5.12833 0
M  V30 28186 H 2630.94 2.17586 -3.54911 0
M  V30 28187 H 2631.47 0.523472 -3.94341 0
M  V30 28188 H 2628.21 -1.10269 -6.46159 0
M  V30 28189 H 2627.73 0.53894 -5.97374 0
M  V30 28190 H 2629.41 0.20684 -6.46669 0
M  V30 28191 N 2629.54 1.576 -0.00170483 0
M  V30 28192 C 2630.49 2.09654 1.00737 0
M  V30 28193 C 2631.48 1.01691 1.35482 0
M  V30 28194 O 2632.69 1.20154 1.34026 0
M  V30 28195 H 2629.06 0.669463 0.342526 0
M  V30 28196 H 2631.03 2.93422 0.542789 0
M  V30 28197 C 2629.78 2.61651 2.28985 0
M  V30 28198 H 2629.11 3.44359 2.03118 0
M  V30 28199 H 2630.55 3.0175 2.97864 0
M  V30 28200 C 2629 1.53141 3.00082 0
M  V30 28201 O 2629.53 0.915309 3.91133 0
M  V30 28202 N 2627.74 1.25845 2.61938 0
M  V30 28203 H 2627.29 1.76132 1.87977 0
M  V30 28204 H 2627.25 0.53463 3.09821 0
M  V30 28205 N 2631.02 -0.271076 1.55251 0
M  V30 28206 C 2632.27 -1.00044 1.75601 0
M  V30 28207 C 2632.59 -1.86749 0.56122 0
M  V30 28208 O 2631.86 -1.91261 -0.423813 0
M  V30 28209 H 2630.44 -0.372376 0.647569 0
M  V30 28210 H 2633.1 -0.294843 1.92657 0
M  V30 28211 H 2632.19 -1.63626 2.65769 0
M  V30 28212 N 2632.5 -1.48217 -0.535675 0
M  V30 28213 C 2633.72 -1.5985 -1.32147 0
M  V30 28214 C 2634.15 -0.256874 -1.86338 0
M  V30 28215 O 2633.5 0.770603 -1.64108 0
M  V30 28216 C 2633.55 -2.64386 -2.45219 0
M  V30 28217 O 2632.66 -2.2115 -3.48089 0
M  V30 28218 H 2632 -0.536215 -0.391624 0
M  V30 28219 H 2634.53 -1.94162 -0.645168 0
M  V30 28220 H 2634.54 -2.85481 -2.91486 0
M  V30 28221 H 2633.21 -3.6179 -2.05137 0
M  V30 28222 H 2631.79 -2.10244 -3.0798 0
M  V30 28223 N 2633.97 0.784108 -1.3671 0
M  V30 28224 C 2635.22 1.54449 -1.31429 0
M  V30 28225 C 2635.55 1.93917 0.104726 0
M  V30 28226 O 2634.83 1.63122 1.05931 0
M  V30 28227 C 2635.11 2.81796 -2.24194 0
M  V30 28228 C 2634.96 2.4866 -3.74817 0
M  V30 28229 C 2636.28 3.83654 -2.15633 0
M  V30 28230 H 2633.4 0.560329 -0.478749 0
M  V30 28231 H 2636.04 0.900468 -1.67307 0
M  V30 28232 H 2634.19 3.36752 -1.93728 0
M  V30 28233 H 2635.87 1.99714 -4.15827 0
M  V30 28234 H 2634.11 1.81528 -3.93992 0
M  V30 28235 H 2634.78 3.39638 -4.35144 0
M  V30 28236 H 2637.26 3.38159 -2.42461 0
M  V30 28237 H 2636.13 4.70501 -2.82702 0
M  V30 28238 H 2636.39 4.27007 -1.1453 0
M  V30 28239 N 2635.45 1.21076 1.00888 0
M  V30 28240 C 2636.42 0.968165 2.07748 0
M  V30 28241 C 2637.42 -0.0593163 1.60691 0
M  V30 28242 O 2638.61 0.177555 1.73293 0
M  V30 28243 C 2635.74 0.459168 3.37794 0
M  V30 28244 H 2636.93 1.91614 2.30703 0
M  V30 28245 H 2634.48 1.02721 1.17805 0
M  V30 28246 H 2635.22 -0.493914 3.20517 0
M  V30 28247 H 2635 1.20025 3.73278 0
M  V30 28248 H 2636.49 0.309173 4.16454 0
M  V30 28249 N 2636.93 -1.2032 1.01789 0
M  V30 28250 C 2638.16 -1.93698 0.727228 0
M  V30 28251 C 2638.57 -1.74849 -0.712275 0
M  V30 28252 O 2637.93 -1.06329 -1.48325 0
M  V30 28253 C 2637.98 -3.45762 1.05504 0
M  V30 28254 O 2637.7 -3.63996 2.438 0
M  V30 28255 C 2639.2 -4.36283 0.785611 0
M  V30 28256 H 2636.42 -0.615613 0.26695 0
M  V30 28257 H 2638.97 -1.52775 1.35941 0
M  V30 28258 H 2637.12 -3.8456 0.468225 0
M  V30 28259 H 2637.54 -4.57969 2.55664 0
M  V30 28260 H 2639.01 -5.41628 1.06504 0
M  V30 28261 H 2639.49 -4.38305 -0.280196 0
M  V30 28262 H 2640.09 -4.0315 1.35463 0
M  V30 28263 N 2638.41 -0.794293 -1.3612 0
M  V30 28264 C 2639.66 -0.36894 -1.99111 0
M  V30 28265 C 2639.98 1.06067 -1.63034 0
M  V30 28266 O 2639.24 1.74832 -0.879334 0
M  V30 28267 C 2639.54 -0.485332 -3.54089 0
M  V30 28268 C 2639.2 -1.87646 -4.1 0
M  V30 28269 C 2637.87 -2.25707 -4.24982 0
M  V30 28270 C 2640.22 -2.78714 -4.40418 0
M  V30 28271 C 2637.55 -3.54229 -4.67695 0
M  V30 28272 C 2639.9 -4.06668 -4.84565 0
M  V30 28273 C 2638.56 -4.44745 -4.97753 0
M  V30 28274 H 2637.83 -0.135005 -0.728598 0
M  V30 28275 H 2640.48 -1.0127 -1.62532 0
M  V30 28276 H 2638.78 0.241916 -3.91052 0
M  V30 28277 H 2640.48 -0.13718 -4.00765 0
M  V30 28278 H 2637.07 -1.57071 -3.98782 0
M  V30 28279 H 2641.25 -2.5056 -4.28408 0
M  V30 28280 H 2636.51 -3.83595 -4.76093 0
M  V30 28281 H 2640.68 -4.77345 -5.07065 0
M  V30 28282 H 2638.31 -5.44388 -5.30608 0
M  V30 28283 N 2639.89 1.47813 -0.546727 0
M  V30 28284 C 2641.13 2.02791 -0.0188041 0
M  V30 28285 C 2641.47 1.4213 1.32336 0
M  V30 28286 O 2640.74 0.573056 1.85866 0
M  V30 28287 C 2641.02 3.59999 0.0854352 0
M  V30 28288 C 2640.88 4.31112 -1.28308 0
M  V30 28289 C 2642.2 4.32693 0.804044 0
M  V30 28290 H 2639.31 0.736953 -0.00830755 0
M  V30 28291 H 2641.96 1.76356 -0.706993 0
M  V30 28292 H 2640.11 3.82652 0.671542 0
M  V30 28293 H 2641.78 4.19829 -1.91158 0
M  V30 28294 H 2640.02 3.91875 -1.86056 0
M  V30 28295 H 2640.69 5.3961 -1.16296 0
M  V30 28296 H 2643.17 4.1497 0.306503 0
M  V30 28297 H 2642.04 5.42343 0.845915 0
M  V30 28298 H 2642.31 4.01164 1.85795 0
M  V30 28299 N 2641.36 0.28266 1.55044 0
M  V30 28300 C 2642.29 -0.595027 2.25791 0
M  V30 28301 C 2643.28 -1.15282 1.25076 0
M  V30 28302 O 2644.46 -1.18556 1.53812 0
M  V30 28303 C 2641.59 -1.77567 2.98475 0
M  V30 28304 C 2640.54 -1.34907 4.06182 0
M  V30 28305 C 2639.87 -2.61342 4.66481 0
M  V30 28306 C 2641.17 -0.49373 5.19961 0
M  V30 28307 H 2642.86 -0.00500391 2.994 0
M  V30 28308 H 2640.41 -0.00096669 1.44 0
M  V30 28309 H 2642.36 -2.39562 3.46681 0
M  V30 28310 H 2641.09 -2.39164 2.22414 0
M  V30 28311 H 2639.75 -0.752275 3.58799 0
M  V30 28312 H 2639.39 -3.21213 3.8708 0
M  V30 28313 H 2639.09 -2.33507 5.39211 0
M  V30 28314 H 2640.62 -3.24172 5.17441 0
M  V30 28315 H 2642.03 -1.01888 5.64173 0
M  V30 28316 H 2640.43 -0.309942 5.99299 0
M  V30 28317 H 2641.5 0.485678 4.82462 0
M  V30 28318 N 2642.84 -1.57597 0.0100627 0
M  V30 28319 C 2643.75 -2.12492 -0.994189 0
M  V30 28320 C 2644.77 -1.07256 -1.37011 0
M  V30 28321 O 2645.94 -1.39212 -1.4554 0
M  V30 28322 C 2643.01 -2.62559 -2.26415 0
M  V30 28323 C 2642.07 -3.82436 -1.95042 0
M  V30 28324 C 2641.3 -4.30105 -3.15983 0
M  V30 28325 O 2641.53 -3.77048 -4.28009 0
M  V30 28326 O 2640.46 -5.22156 -2.99393 0
M  V30 28327 H 2644.29 -2.98539 -0.557496 0
M  V30 28328 H 2641.87 -1.47925 -0.209387 0
M  V30 28329 H 2643.75 -2.94915 -3.01004 0
M  V30 28330 H 2642.43 -1.79605 -2.69303 0
M  V30 28331 H 2641.34 -3.55037 -1.17898 0
M  V30 28332 H 2642.67 -4.66494 -1.56984 0
M  V30 28333 N 2644.32 0.262839 -1.55393 0
M  V30 28334 C 2645.25 1.32913 -1.9198 0
M  V30 28335 C 2646.23 1.51016 -0.782826 0
M  V30 28336 O 2647.42 1.6389 -1.04181 0
M  V30 28337 C 2644.55 2.68684 -2.2006 0
M  V30 28338 C 2643.5 2.65298 -3.35858 0
M  V30 28339 C 2642.83 4.04715 -3.49442 0
M  V30 28340 C 2644.13 2.23677 -4.71981 0
M  V30 28341 H 2645.82 1.02539 -2.81293 0
M  V30 28342 H 2643.37 0.491823 -1.35341 0
M  V30 28343 H 2645.32 3.43399 -2.44243 0
M  V30 28344 H 2644.04 3.00661 -1.27556 0
M  V30 28345 H 2642.7 1.9304 -3.11659 0
M  V30 28346 H 2642.35 4.33932 -2.54386 0
M  V30 28347 H 2642.05 4.03342 -4.27304 0
M  V30 28348 H 2643.57 4.81155 -3.75929 0
M  V30 28349 H 2644.99 2.88118 -4.95642 0
M  V30 28350 H 2643.39 2.33446 -5.52832 0
M  V30 28351 H 2644.46 1.18819 -4.70117 0
M  V30 28352 N 2645.8 1.48499 0.527807 0
M  V30 28353 C 2647.05 1.56627 1.28352 0
M  V30 28354 C 2647.37 0.24113 1.93 0
M  V30 28355 O 2646.63 -0.768767 1.79968 0
M  V30 28356 C 2646.93 2.65489 2.39271 0
M  V30 28357 C 2646.59 4.07856 1.92261 0
M  V30 28358 C 2645.26 4.46605 1.79158 0
M  V30 28359 C 2647.61 4.97066 1.56763 0
M  V30 28360 C 2644.94 5.72366 1.28895 0
M  V30 28361 C 2647.29 6.23319 1.07961 0
M  V30 28362 C 2645.95 6.60922 0.93477 0
M  V30 28363 H 2645.22 0.57314 0.469672 0
M  V30 28364 H 2647.87 1.82225 0.588749 0
M  V30 28365 H 2646.17 2.33759 3.14426 0
M  V30 28366 H 2647.87 2.68993 2.97395 0
M  V30 28367 H 2644.46 3.77256 2.03411 0
M  V30 28368 H 2648.64 4.67806 1.65745 0
M  V30 28369 H 2643.9 6.00223 1.1637 0
M  V30 28370 H 2648.07 6.9184 0.795653 0
M  V30 28371 H 2645.7 7.58258 0.543098 0
M  V30 28372 N 2647.28 -0.776847 1.37123 0
M  V30 28373 C 2648.51 -1.56588 1.35233 0
M  V30 28374 C 2648.92 -1.88693 -0.0635186 0
M  V30 28375 O 2648.28 -1.51071 -1.02391 0
M  V30 28376 C 2648.33 -2.87926 2.18588 0
M  V30 28377 O 2648.05 -2.57199 3.54655 0
M  V30 28378 C 2649.55 -3.82179 2.24619 0
M  V30 28379 H 2646.77 -0.485277 0.463408 0
M  V30 28380 H 2649.31 -0.963235 1.80394 0
M  V30 28381 H 2647.47 -3.44627 1.76949 0
M  V30 28382 H 2647.88 -3.41268 3.98292 0
M  V30 28383 H 2649.36 -4.71356 2.87275 0
M  V30 28384 H 2649.83 -4.20942 1.25317 0
M  V30 28385 H 2650.44 -3.31409 2.66548 0
M  V30 28386 N 2648.76 -1.2161 -1.00244 0
M  V30 28387 C 2650.03 -0.943599 -1.71335 0
M  V30 28388 C 2650.41 0.543907 -2.03973 0
M  V30 28389 O 2649.76 1.50943 -1.71547 0
M  V30 28390 C 2649.97 -1.83133 -2.97091 0
M  V30 28391 C 2651.32 -2.08171 -3.70067 0
M  V30 28392 O 2652.34 -1.80503 -3.07078 0
M  V30 28393 O 2651.2 -2.54979 -4.83371 0
M  V30 28394 H 2648.3 -0.354052 -0.74738 0
M  V30 28395 H 2650.84 -1.32551 -1.05964 0
M  V30 28396 H 2649.61 -2.83793 -2.69402 0
M  V30 28397 H 2649.24 -1.4504 -3.70201 0
M  V30 28398 N 2650.23 1.19778 -1.02425 0
M  V30 28399 C 2651.18 2.24874 -0.594514 0
M  V30 28400 C 2652.18 1.65297 0.370569 0
M  V30 28401 O 2653.38 1.78397 0.239653 0
M  V30 28402 H 2649.76 0.731599 -0.173974 0
M  V30 28403 H 2651.73 2.58442 -1.49165 0
M  V30 28404 C 2650.48 3.47673 0.0435901 0
M  V30 28405 H 2649.8 3.938 -0.690032 0
M  V30 28406 H 2651.24 4.22885 0.307287 0
M  V30 28407 C 2649.7 3.11276 1.28876 0
M  V30 28408 O 2650.23 3.23508 2.3813 0
M  V30 28409 N 2648.43 2.65752 1.17576 0
M  V30 28410 H 2647.98 2.55999 0.286724 0
M  V30 28411 H 2647.94 2.4177 2.00984 0
M  V30 28412 N 2651.71 0.801501 1.35697 0
M  V30 28413 C 2652.66 0.206335 2.29876 0
M  V30 28414 C 2653.63 -0.656725 1.52566 0
M  V30 28415 O 2654.81 -0.602874 1.81025 0
M  V30 28416 C 2651.95 -0.643212 3.39053 0
M  V30 28417 C 2651.07 0.23972 4.31334 0
M  V30 28418 C 2650.2 -0.617347 5.276 0
M  V30 28419 C 2649.24 0.266298 6.1152 0
M  V30 28420 N 2648.38 -0.550448 6.99939 0
M  V30 28421 H 2653.22 1.01489 2.80186 0
M  V30 28422 H 2650.75 0.512022 1.37901 0
M  V30 28423 H 2652.71 -1.15087 4.01012 0
M  V30 28424 H 2651.34 -1.41708 2.90032 0
M  V30 28425 H 2650.39 0.865446 3.70424 0
M  V30 28426 H 2651.71 0.920071 4.90241 0
M  V30 28427 H 2650.86 -1.19034 5.94908 0
M  V30 28428 H 2649.6 -1.33128 4.69178 0
M  V30 28429 H 2648.6 0.851603 5.43165 0
M  V30 28430 H 2649.83 0.978018 6.72021 0
M  V30 28431 H 2647.78 -1.24845 6.44011 0
M  V30 28432 H 2647.69 0.0719648 7.55966 0
M  V30 28433 H 2648.96 -1.10688 7.71601 0
M  V30 28434 N 2653.19 -1.47521 0.554558 0
M  V30 28435 C 2654.12 -2.32782 -0.182933 0
M  V30 28436 C 2655.1 -1.43626 -0.911352 0
M  V30 28437 O 2656.29 -1.72485 -0.892336 0
M  V30 28438 C 2653.42 -3.25351 -1.21507 0
M  V30 28439 C 2652.37 -4.23727 -0.603281 0
M  V30 28440 C 2651.7 -5.05602 -1.73986 0
M  V30 28441 C 2653 -5.20433 0.441212 0
M  V30 28442 H 2654.69 -2.94692 0.528872 0
M  V30 28443 H 2652.24 -1.4171 0.255784 0
M  V30 28444 H 2654.19 -3.83838 -1.73915 0
M  V30 28445 H 2652.91 -2.61491 -1.95679 0
M  V30 28446 H 2651.57 -3.66462 -0.100525 0
M  V30 28447 H 2651.22 -4.38147 -2.47055 0
M  V30 28448 H 2650.92 -5.72203 -1.3363 0
M  V30 28449 H 2652.44 -5.66946 -2.26725 0
M  V30 28450 H 2653.86 -5.733 0.00330008 0
M  V30 28451 H 2652.25 -5.95223 0.763506 0
M  V30 28452 H 2653.32 -4.66073 1.33807 0
M  V30 28453 N 2654.67 -0.290879 -1.54892 0
M  V30 28454 C 2655.62 0.605537 -2.2458 0
M  V30 28455 C 2656.61 1.1452 -1.24826 0
M  V30 28456 O 2657.82 1.09701 -1.42708 0
M  V30 28457 H 2654.19 0.21386 -0.720949 0
M  V30 28458 H 2656.16 -0.00486975 -2.984 0
M  V30 28459 C 2654.91 1.77083 -2.99227 0
M  V30 28460 H 2654.23 1.36477 -3.75784 0
M  V30 28461 H 2655.67 2.37434 -3.51285 0
M  V30 28462 C 2654.13 2.66884 -2.05607 0
M  V30 28463 O 2654.66 3.67695 -1.61751 0
M  V30 28464 N 2652.87 2.34396 -1.71775 0
M  V30 28465 H 2652.42 1.52464 -2.07636 0
M  V30 28466 H 2652.37 2.94749 -1.09409 0
M  V30 28467 N 2656.15 1.57589 -0.0184203 0
M  V30 28468 C 2657.09 2.10711 0.985074 0
M  V30 28469 C 2658.09 1.03122 1.34395 0
M  V30 28470 O 2659.29 1.21569 1.32744 0
M  V30 28471 H 2655.67 0.673058 0.335406 0
M  V30 28472 H 2657.64 2.93981 0.511638 0
M  V30 28473 C 2656.39 2.64065 2.26197 0
M  V30 28474 H 2655.71 3.46494 1.99454 0
M  V30 28475 H 2657.15 3.04892 2.94647 0
M  V30 28476 C 2655.61 1.56315 2.98441 0
M  V30 28477 O 2656.14 0.956742 3.9014 0
M  V30 28478 N 2654.35 1.28617 2.60588 0
M  V30 28479 H 2653.89 1.78116 1.86098 0
M  V30 28480 H 2653.85 0.567461 3.09237 0
M  V30 28481 N 2657.62 -0.254594 1.5553 0
M  V30 28482 C 2658.87 -0.981581 1.76204 0
M  V30 28483 C 2659.19 -1.86775 0.580916 0
M  V30 28484 O 2660.39 -2.63091 0.670494 0
M  V30 28485 C 2658.85 -1.79531 3.11924 0
M  V30 28486 C 2658.46 -0.956914 4.37661 0
M  V30 28487 C 2660.2 -2.51549 3.4194 0
M  V30 28488 C 2658.11 -1.76609 5.64414 0
M  V30 28489 H 2657.04 -0.370226 0.656848 0
M  V30 28490 H 2659.69 -0.236524 1.81969 0
M  V30 28491 H 2658.07 -2.58203 3.00245 0
M  V30 28492 H 2659.24 -0.213069 4.60307 0
M  V30 28493 H 2657.56 -0.350424 4.14923 0
M  V30 28494 H 2660.16 -3.12529 4.33855 0
M  V30 28495 H 2660.5 -3.22775 2.62911 0
M  V30 28496 H 2661.03 -1.79894 3.548 0
M  V30 28497 H 2657.77 -1.09772 6.46243 0
M  V30 28498 H 2657.29 -2.48542 5.45882 0
M  V30 28499 H 2658.97 -2.33516 6.0339 0
M  V30 28500 N 2659.1 -1.48777 -0.519925 0
M  V30 28501 C 2660.05 -1.64506 -1.6444 0
M  V30 28502 C 2661.04 -0.511277 -1.615 0
M  V30 28503 O 2662.25 -0.690324 -1.66236 0
M  V30 28504 H 2658.62 -0.518394 -0.544767 0
M  V30 28505 H 2660.6 -2.58928 -1.48321 0
M  V30 28506 C 2659.34 -1.71132 -3.0267 0
M  V30 28507 H 2658.67 -2.57741 -3.0563 0
M  V30 28508 H 2660.11 -1.86179 -3.80938 0
M  V30 28509 C 2658.57 -0.45209 -3.33853 0
M  V30 28510 O 2659.1 0.430608 -3.99385 0
M  V30 28511 N 2657.3 -0.320741 -2.88825 0
M  V30 28512 H 2656.85 -1.04003 -2.35672 0
M  V30 28513 H 2656.81 0.520759 -3.10057 0
M  V30 28514 N 2660.58 0.769564 -1.37534 0
M  V30 28515 C 2661.86 1.51766 -1.23395 0
M  V30 28516 C 2662.24 2.10402 0.171533 0
M  V30 28517 O 2661.58 1.9571 1.1794 0
M  V30 28518 C 2661.79 2.59681 -2.33167 0
M  V30 28519 C 2663.14 3.27024 -2.70815 0
M  V30 28520 O 2664.17 2.69977 -2.3236 0
M  V30 28521 O 2663.03 4.30167 -3.37074 0
M  V30 28522 H 2660.12 0.672282 -0.481628 0
M  V30 28523 H 2662.67 0.806342 -1.49319 0
M  V30 28524 H 2661.44 2.14488 -3.27277 0
M  V30 28525 H 2661.06 3.38411 -2.08719 0
M  V30 28526 N 2662.06 1.22139 0.995977 0
M  V30 28527 C 2663.31 1.03824 1.72926 0
M  V30 28528 C 2663.62 -0.427411 1.90873 0
M  V30 28529 O 2664.83 -0.730166 2.61497 0
M  V30 28530 C 2663.28 1.80919 3.11121 0
M  V30 28531 C 2662.89 3.31713 3.01116 0
M  V30 28532 C 2664.63 1.71041 3.88517 0
M  V30 28533 C 2662.54 4.01261 4.34446 0
M  V30 28534 H 2661.47 0.384881 0.648369 0
M  V30 28535 H 2664.12 1.45961 1.1121 0
M  V30 28536 H 2662.5 1.31579 3.73501 0
M  V30 28537 H 2663.68 3.88423 2.4792 0
M  V30 28538 H 2661.99 3.42232 2.37204 0
M  V30 28539 H 2664.59 2.20327 4.87196 0
M  V30 28540 H 2664.93 0.670268 4.10869 0
M  V30 28541 H 2665.47 2.17907 3.32808 0
M  V30 28542 H 2662.21 5.05516 4.17294 0
M  V30 28543 H 2661.73 3.49339 4.87568 0
M  V30 28544 H 2663.4 4.06683 5.03208 0
M  V30 28545 N 2663.54 -1.19233 1.03059 0
M  V30 28546 C 2664.47 -2.24741 0.633537 0
M  V30 28547 C 2665.45 -1.66283 -0.358306 0
M  V30 28548 O 2666.63 -1.92703 -0.240642 0
M  V30 28549 C 2663.76 -3.47297 -0.0147038 0
M  V30 28550 C 2662.72 -4.18439 0.8996 0
M  V30 28551 C 2662.04 -5.34573 0.116375 0
M  V30 28552 C 2663.34 -4.73048 2.21412 0
M  V30 28553 H 2665.04 -2.58208 1.51555 0
M  V30 28554 H 2662.58 -1.24115 0.730161 0
M  V30 28555 H 2664.54 -4.20301 -0.304128 0
M  V30 28556 H 2663.26 -3.13034 -0.931522 0
M  V30 28557 H 2661.92 -3.47319 1.17325 0
M  V30 28558 H 2661.57 -4.96557 -0.802531 0
M  V30 28559 H 2661.27 -5.83105 0.725395 0
M  V30 28560 H 2662.79 -6.10374 -0.166269 0
M  V30 28561 H 2664.2 -5.37798 1.9861 0
M  V30 28562 H 2662.6 -5.32073 2.77521 0
M  V30 28563 H 2663.67 -3.91021 2.86759 0
M  V30 28564 N 2665.01 -0.808686 -1.3527 0
M  V30 28565 C 2665.96 -0.218523 -2.29763 0
M  V30 28566 C 2666.93 0.648625 -1.52912 0
M  V30 28567 O 2668.12 0.593265 -1.81342 0
M  V30 28568 C 2665.26 0.625222 -3.39389 0
M  V30 28569 C 2664.37 -0.262592 -4.31201 0
M  V30 28570 C 2663.5 0.589359 -5.2792 0
M  V30 28571 C 2662.54 -0.298724 -6.11371 0
M  V30 28572 N 2661.68 0.51332 -7.00221 0
M  V30 28573 H 2666.52 -1.02973 -2.79644 0
M  V30 28574 H 2664.06 -0.519328 -1.37628 0
M  V30 28575 H 2666.02 1.12959 -4.01617 0
M  V30 28576 H 2664.65 1.40168 -2.9078 0
M  V30 28577 H 2663.7 -0.885078 -3.6996 0
M  V30 28578 H 2665.01 -0.946057 -4.89746 0
M  V30 28579 H 2664.16 1.15878 -5.95531 0
M  V30 28580 H 2662.9 1.30638 -4.69878 0
M  V30 28581 H 2661.91 -0.880396 -5.42705 0
M  V30 28582 H 2663.13 -1.01364 -6.71492 0
M  V30 28583 H 2661.08 1.21428 -6.44664 0
M  V30 28584 H 2661 -0.112055 -7.55917 0
M  V30 28585 H 2662.26 1.06595 -7.72177 0
M  V30 28586 N 2666.49 1.47225 -0.562374 0
M  V30 28587 C 2667.72 2.07355 -0.0432997 0
M  V30 28588 C 2668.14 1.41151 1.2433 0
M  V30 28589 O 2667.5 0.488257 1.74602 0
M  V30 28590 C 2667.55 3.60365 0.130224 0
M  V30 28591 O 2666.65 3.9481 1.1916 0
M  V30 28592 H 2665.99 0.661829 -0.0536451 0
M  V30 28593 H 2668.52 1.89168 -0.779528 0
M  V30 28594 H 2668.53 4.06557 0.342809 0
M  V30 28595 H 2667.21 4.07947 -0.809461 0
M  V30 28596 H 2665.79 3.60355 0.95909 0
M  V30 28597 N 2667.97 0.299089 1.54736 0
M  V30 28598 C 2669.22 -0.311209 2.00398 0
M  V30 28599 C 2669.55 -1.53686 1.18719 0
M  V30 28600 O 2668.82 -1.92711 0.263188 0
M  V30 28601 C 2669.11 -0.669698 3.53818 0
M  V30 28602 C 2668.96 0.564961 4.46238 0
M  V30 28603 C 2670.28 -1.49695 4.13859 0
M  V30 28604 H 2667.4 -0.11164 0.728495 0
M  V30 28605 H 2670.04 0.410807 1.85506 0
M  V30 28606 H 2668.19 -1.28484 3.66639 0
M  V30 28607 H 2669.86 1.20345 4.45326 0
M  V30 28608 H 2668.11 1.19856 4.16914 0
M  V30 28609 H 2668.78 0.270015 5.51339 0
M  V30 28610 H 2671.25 -0.977213 4.04462 0
M  V30 28611 H 2670.13 -1.71657 5.21368 0
M  V30 28612 H 2670.39 -2.48556 3.65612 0
M  V30 28613 N 2669.45 -1.57577 0.0267774 0
M  V30 28614 C 2670.7 -1.91704 -0.652371 0
M  V30 28615 C 2671.02 -0.902967 -1.72269 0
M  V30 28616 O 2670.28 0.08845 -1.955 0
M  V30 28617 C 2670.58 -3.32562 -1.30909 0
M  V30 28618 C 2670.24 -4.49385 -0.369362 0
M  V30 28619 C 2668.91 -4.81073 -0.110707 0
M  V30 28620 C 2671.26 -5.20468 0.276063 0
M  V30 28621 C 2668.59 -5.81203 0.801218 0
M  V30 28622 C 2670.94 -6.21572 1.17603 0
M  V30 28623 C 2669.6 -6.51703 1.4436 0
M  V30 28624 H 2668.87 -0.701494 -0.238719 0
M  V30 28625 H 2671.52 -1.91298 0.0880428 0
M  V30 28626 H 2669.82 -3.29219 -2.12419 0
M  V30 28627 H 2671.52 -3.56237 -1.84109 0
M  V30 28628 H 2668.11 -4.24642 -0.581137 0
M  V30 28629 H 2672.29 -4.9622 0.0892872 0
M  V30 28630 H 2667.55 -6.02895 1.01625 0
M  V30 28631 H 2671.72 -6.75774 1.68235 0
M  V30 28632 H 2669.35 -7.29108 2.15188 0
M  V30 28633 N 2670.93 0.246342 -1.55663 0
M  V30 28634 C 2671.86 1.3087 -1.93379 0
M  V30 28635 C 2672.84 1.50177 -0.798799 0
M  V30 28636 O 2674.02 1.62776 -1.05913 0
M  V30 28637 C 2671.15 2.66334 -2.22897 0
M  V30 28638 C 2670.11 2.61721 -3.38653 0
M  V30 28639 C 2669.43 4.00986 -3.53715 0
M  V30 28640 C 2670.73 2.18658 -4.74327 0
M  V30 28641 H 2672.43 0.995502 -2.82365 0
M  V30 28642 H 2669.97 0.47744 -1.35855 0
M  V30 28643 H 2671.93 3.4079 -2.47872 0
M  V30 28644 H 2670.65 2.99291 -1.30738 0
M  V30 28645 H 2669.31 1.89723 -3.13689 0
M  V30 28646 H 2668.96 4.31209 -2.58975 0
M  V30 28647 H 2668.66 3.98787 -4.31558 0
M  V30 28648 H 2670.18 4.7714 -3.81011 0
M  V30 28649 H 2671.59 2.82845 -4.9867 0
M  V30 28650 H 2669.99 2.27569 -5.55277 0
M  V30 28651 H 2671.06 1.13826 -4.71351 0
M  V30 28652 N 2672.4 1.4905 0.512027 0
M  V30 28653 C 2673.65 1.57229 1.2634 0
M  V30 28654 C 2673.97 0.259189 1.93875 0
M  V30 28655 O 2675.17 0.219405 2.70612 0
M  V30 28656 C 2673.63 2.77366 2.29338 0
M  V30 28657 C 2673.24 4.15391 1.67792 0
M  V30 28658 C 2674.98 2.94869 3.05373 0
M  V30 28659 C 2672.89 5.26765 2.68836 0
M  V30 28660 H 2671.82 0.58539 0.475221 0
M  V30 28661 H 2674.47 1.75418 0.53859 0
M  V30 28662 H 2672.85 2.52649 3.04934 0
M  V30 28663 H 2674.02 4.50201 0.982636 0
M  V30 28664 H 2672.34 4.03155 1.04187 0
M  V30 28665 H 2674.94 3.75245 3.80914 0
M  V30 28666 H 2675.28 2.05006 3.62323 0
M  V30 28667 H 2675.81 3.19573 2.36892 0
M  V30 28668 H 2672.55 6.18651 2.16681 0
M  V30 28669 H 2672.07 4.96422 3.36638 0
M  V30 28670 H 2673.75 5.55636 3.31478 0
M  V30 28671 N 2673.88 -0.762259 1.3794 0
M  V30 28672 C 2675.13 -1.52113 1.33671 0
M  V30 28673 C 2675.46 -1.94352 -0.0759196 0
M  V30 28674 O 2674.71 -1.65072 -1.05118 0
M  V30 28675 C 2675.01 -2.79257 2.23047 0
M  V30 28676 C 2674.68 -2.56024 3.71164 0
M  V30 28677 C 2673.34 -2.49397 4.11527 0
M  V30 28678 C 2675.69 -2.35505 4.64959 0
M  V30 28679 C 2673.02 -2.20253 5.43788 0
M  V30 28680 C 2675.37 -2.07883 5.97467 0
M  V30 28681 C 2674.04 -1.99707 6.36925 0
M  V30 28682 H 2673.31 -0.55662 0.489137 0
M  V30 28683 H 2675.95 -0.877232 1.70226 0
M  V30 28684 H 2674.26 -3.48253 1.79519 0
M  V30 28685 H 2675.95 -3.37178 2.17053 0
M  V30 28686 H 2672.54 -2.6205 3.39158 0
M  V30 28687 H 2676.73 -2.39609 4.34627 0
M  V30 28688 H 2671.98 -2.12425 5.73311 0
M  V30 28689 H 2676.16 -1.91008 6.69693 0
M  V30 28690 H 2673.79 -1.76889 7.39334 0
M  V30 28691 N 2675.36 -1.22666 -0.989486 0
M  V30 28692 C 2676.77 -1.04958 -1.54404 0
M  V30 28693 C 2677.12 0.385917 -1.92367 0
M  V30 28694 O 2676.25 1.27139 -1.75113 0
M  V30 28695 C 2676.84 -1.89904 -2.80574 0
M  V30 28696 C 2675.4 -1.76483 -3.32461 0
M  V30 28697 C 2674.55 -1.86162 -2.05521 0
M  V30 28698 H 2677.5 -1.36461 -0.810187 0
M  V30 28699 H 2677.52 -1.41846 -3.53072 0
M  V30 28700 H 2677.03 -2.94375 -2.52913 0
M  V30 28701 H 2675.13 -0.747592 -3.65023 0
M  V30 28702 H 2675.25 -2.59349 -4.02833 0
M  V30 28703 H 2673.61 -1.2964 -2.19238 0
M  V30 28704 H 2674.39 -2.92171 -1.80252 0
M  V30 28705 N 2676.84 1.18685 -1.0369 0
M  V30 28706 C 2677.79 2.20097 -0.595105 0
M  V30 28707 C 2678.77 1.56811 0.360437 0
M  V30 28708 O 2679.97 1.76081 0.180105 0
M  V30 28709 C 2677.09 3.43271 0.0443891 0
M  V30 28710 C 2676.18 4.13686 -0.934075 0
M  V30 28711 N 2676.57 4.60161 -2.09965 0
M  V30 28712 C 2674.87 4.3949 -0.759254 0
M  V30 28713 C 2675.57 5.14325 -2.71744 0
M  V30 28714 N 2674.55 5.05611 -1.99647 0
M  V30 28715 H 2678.35 2.53717 -1.4834 0
M  V30 28716 H 2675.86 1.34848 -0.904973 0
M  V30 28717 H 2677.86 4.15178 0.378567 0
M  V30 28718 H 2676.52 3.11148 0.928271 0
M  V30 28719 H 2677.53 4.54731 -2.47871 0
M  V30 28720 H 2674.21 4.17433 0.0748558 0
M  V30 28721 H 2675.6 5.60516 -3.70501 0
M  V30 28722 N 2678.32 0.815849 1.34839 0
M  V30 28723 C 2679.56 0.40057 1.98499 0
M  V30 28724 C 2679.89 -1.0346 1.64701 0
M  V30 28725 O 2679.15 -1.73411 0.907037 0
M  V30 28726 C 2679.45 0.541603 3.53272 0
M  V30 28727 C 2679.11 1.94145 4.06963 0
M  V30 28728 C 2677.77 2.3244 4.21337 0
M  V30 28729 C 2680.13 2.85685 4.35928 0
M  V30 28730 C 2677.45 3.61625 4.62 0
M  V30 28731 C 2679.81 4.14326 4.78034 0
M  V30 28732 C 2678.47 4.52608 4.90614 0
M  V30 28733 H 2677.74 0.146579 0.726358 0
M  V30 28734 H 2680.39 1.03843 1.609 0
M  V30 28735 H 2678.69 -0.179672 3.91388 0
M  V30 28736 H 2680.39 0.20092 4.00496 0
M  V30 28737 H 2676.98 1.63395 3.96232 0
M  V30 28738 H 2681.16 2.57344 4.24367 0
M  V30 28739 H 2676.42 3.91121 4.6993 0
M  V30 28740 H 2680.59 4.85351 4.99407 0
M  V30 28741 H 2678.22 5.52761 5.21881 0
M  V30 28742 N 2679.8 -1.46924 0.570174 0
M  V30 28743 C 2681.04 -2.0433 0.0535102 0
M  V30 28744 C 2681.4 -1.43353 -1.27726 0
M  V30 28745 O 2682.6 -1.91882 -1.88241 0
M  V30 28746 C 2680.87 -3.57392 -0.0243668 0
M  V30 28747 S 2682.43 -4.36108 -0.485274 0
M  V30 28748 H 2679.25 -0.710306 0.0314033 0
M  V30 28749 H 2681.85 -1.8013 0.75984 0
M  V30 28750 H 2680.55 -3.99293 0.948331 0
M  V30 28751 H 2680.09 -3.8611 -0.753854 0
M  V30 28752 H 2682.1 -4.64598 -1.74249 0
M  V30 28753 N 2681.27 -0.307291 -1.54575 0
M  V30 28754 C 2682.2 0.55903 -2.26709 0
M  V30 28755 C 2683.18 1.13277 -1.26895 0
M  V30 28756 O 2684.37 1.16094 -1.55679 0
M  V30 28757 C 2681.5 1.72796 -3.01262 0
M  V30 28758 C 2680.45 1.28428 -4.08277 0
M  V30 28759 C 2679.78 2.53887 -4.7058 0
M  V30 28760 C 2681.08 0.410946 -5.20681 0
M  V30 28761 H 2682.77 -0.0426286 -2.9937 0
M  V30 28762 H 2680.32 -0.0219426 -1.43983 0
M  V30 28763 H 2682.27 2.34017 -3.50448 0
M  V30 28764 H 2681 2.35596 -2.26191 0
M  V30 28765 H 2679.66 0.695098 -3.5995 0
M  V30 28766 H 2679.3 3.15015 -3.92141 0
M  V30 28767 H 2679 2.24899 -5.42858 0
M  V30 28768 H 2680.53 3.15899 -5.22532 0
M  V30 28769 H 2681.94 0.928997 -5.65723 0
M  V30 28770 H 2680.34 0.214559 -5.99716 0
M  V30 28771 H 2681.41 -0.562372 -4.81628 0
M  V30 28772 N 2682.75 1.57561 -0.0351337 0
M  V30 28773 C 2684 1.91668 0.640926 0
M  V30 28774 C 2684.32 0.912712 1.72321 0
M  V30 28775 O 2683.59 -0.0448745 1.95849 0
M  V30 28776 H 2682.17 0.707487 0.23973 0
M  V30 28777 H 2684.83 1.94717 -0.0843552 0
M  V30 28778 H 2683.93 2.92454 1.08982 0
M  V30 28779 N 2684.23 -0.238084 1.55791 0
M  V30 28780 C 2685.65 -0.587019 1.48412 0
M  V30 28781 C 2685.85 -1.87926 0.727053 0
M  V30 28782 O 2684.9 -2.51158 0.259986 0
M  V30 28783 C 2686.21 -0.681572 2.92874 0
M  V30 28784 C 2687.76 -0.773309 3.03297 0
M  V30 28785 C 2688.24 -0.899349 4.49083 0
M  V30 28786 N 2689.73 -0.963995 4.53058 0
M  V30 28787 C 2690.46 -1.08094 5.63119 0
M  V30 28788 N 2689.96 -1.16287 6.82971 0
M  V30 28789 N 2691.75 -1.11479 5.50935 0
M  V30 28790 H 2683.9 0.610112 2.03449 0
M  V30 28791 H 2686.17 0.211829 0.92403 0
M  V30 28792 H 2685.87 0.198082 3.51142 0
M  V30 28793 H 2685.75 -1.55063 3.43854 0
M  V30 28794 H 2688.13 -1.64341 2.45104 0
M  V30 28795 H 2688.21 0.121079 2.55513 0
M  V30 28796 H 2687.86 -0.0337693 5.07889 0
M  V30 28797 H 2687.79 -1.80891 4.94556 0
M  V30 28798 H 2690.28 -0.911666 3.66738 0
M  V30 28799 H 2690.59 -1.25142 7.626 0
M  V30 28800 H 2688.94 -1.13229 6.85714 0
M  V30 28801 H 2692.13 -1.04732 4.56233 0
M  V30 28802 H 2692.3 -1.20247 6.36745 0
M  V30 28803 N 2685.71 -1.4932 -0.504115 0
M  V30 28804 C 2686.96 -1.58336 -1.25595 0
M  V30 28805 C 2687.28 -0.270572 -1.93114 0
M  V30 28806 O 2686.55 0.709859 -1.82586 0
M  V30 28807 H 2685.13 -0.583378 -0.466561 0
M  V30 28808 H 2687.79 -1.85929 -0.584514 0
M  V30 28809 H 2686.88 -2.37781 -2.02154 0
M  V30 28810 N 2687.19 0.754933 -1.38342 0
M  V30 28811 C 2688.12 1.88225 -1.3818 0
M  V30 28812 C 2689.1 1.68284 -0.247902 0
M  V30 28813 O 2690.28 1.88896 -0.450784 0
M  V30 28814 C 2687.41 3.25734 -1.20477 0
M  V30 28815 C 2686.37 3.60274 -2.31056 0
M  V30 28816 C 2685.69 4.96505 -1.9846 0
M  V30 28817 C 2686.99 3.65289 -3.73312 0
M  V30 28818 H 2688.69 1.88618 -2.32516 0
M  V30 28819 H 2686.23 0.906062 -1.11922 0
M  V30 28820 H 2688.18 4.04252 -1.18989 0
M  V30 28821 H 2686.91 3.25817 -0.226023 0
M  V30 28822 H 2685.57 2.84074 -2.31728 0
M  V30 28823 H 2685.22 4.93147 -0.990728 0
M  V30 28824 H 2684.92 5.20584 -2.72519 0
M  V30 28825 H 2686.44 5.77404 -1.98588 0
M  V30 28826 H 2687.85 4.33923 -3.74678 0
M  V30 28827 H 2686.25 4.00875 -4.46564 0
M  V30 28828 H 2687.32 2.65549 -4.05724 0
M  V30 28829 N 2688.66 1.23189 0.982967 0
M  V30 28830 C 2689.91 1.05652 1.71815 0
M  V30 28831 C 2690.23 -0.407142 1.91316 0
M  V30 28832 O 2691.43 -0.70239 2.62257 0
M  V30 28833 C 2689.89 1.84208 3.09185 0
M  V30 28834 C 2689.5 3.34888 2.97581 0
M  V30 28835 C 2691.24 1.75153 3.86681 0
M  V30 28836 C 2689.15 4.05846 4.30166 0
M  V30 28837 H 2688.08 0.391736 0.644251 0
M  V30 28838 H 2690.73 1.47132 1.09656 0
M  V30 28839 H 2689.11 1.35533 3.72084 0
M  V30 28840 H 2690.28 3.91031 2.43786 0
M  V30 28841 H 2688.6 3.44729 2.33561 0
M  V30 28842 H 2691.2 2.25482 4.84832 0
M  V30 28843 H 2691.54 0.713809 4.10135 0
M  V30 28844 H 2692.07 2.21425 3.30478 0
M  V30 28845 H 2688.81 5.09913 4.11909 0
M  V30 28846 H 2688.33 3.54491 4.83835 0
M  V30 28847 H 2690.01 4.11997 4.98866 0
M  V30 28848 N 2690.14 -1.18133 1.04318 0
M  V30 28849 C 2691.42 -1.8405 0.662199 0
M  V30 28850 C 2691.8 -1.92871 -0.858135 0
M  V30 28851 O 2691.15 -1.45655 -1.7606 0
M  V30 28852 C 2691.36 -3.2221 1.34096 0
M  V30 28853 C 2692.7 -3.98217 1.47337 0
M  V30 28854 O 2693.73 -3.31659 1.29927 0
M  V30 28855 O 2692.59 -5.17476 1.75731 0
M  V30 28856 H 2689.68 -0.793786 0.232019 0
M  V30 28857 H 2692.23 -1.25504 1.14223 0
M  V30 28858 H 2691 -3.10707 2.37859 0
M  V30 28859 H 2690.62 -3.88414 0.849717 0
M  V30 28860 N 2691.62 -0.822988 -1.34405 0
M  V30 28861 C 2692.55 -0.190164 -2.27406 0
M  V30 28862 C 2693.53 0.65346 -1.48891 0
M  V30 28863 O 2694.72 0.617185 -1.7811 0
M  V30 28864 C 2691.84 0.734419 -3.30642 0
M  V30 28865 C 2690.89 -0.0316848 -4.26488 0
M  V30 28866 S 2691.72 -1.37889 -5.17443 0
M  V30 28867 C 2692.88 -0.45918 -6.24213 0
M  V30 28868 H 2693.11 -0.978635 -2.80731 0
M  V30 28869 H 2690.64 -0.618891 -1.41454 0
M  V30 28870 H 2692.6 1.26231 -3.9061 0
M  V30 28871 H 2691.26 1.49641 -2.76163 0
M  V30 28872 H 2690.46 0.671197 -4.99511 0
M  V30 28873 H 2690.06 -0.490131 -3.70774 0
M  V30 28874 H 2692.35 0.349238 -6.76599 0
M  V30 28875 H 2693.29 -1.15908 -6.98549 0
M  V30 28876 H 2693.7 -0.0475817 -5.6448 0
M  V30 28877 N 2693.1 1.4662 -0.577957 0
M  V30 28878 C 2694.34 2.02706 -0.0618149 0
M  V30 28879 C 2694.68 1.44905 1.29291 0
M  V30 28880 O 2693.95 0.612352 1.84609 0
M  V30 28881 C 2694.24 3.60099 0.00905495 0
M  V30 28882 C 2694.09 4.28293 -1.37423 0
M  V30 28883 C 2695.41 4.34301 0.712082 0
M  V30 28884 H 2692.53 0.736611 -0.0239376 0
M  V30 28885 H 2695.17 1.74817 -0.744242 0
M  V30 28886 H 2693.32 3.8399 0.590225 0
M  V30 28887 H 2694.99 4.1568 -2.0002 0
M  V30 28888 H 2693.23 3.8784 -1.94326 0
M  V30 28889 H 2693.9 5.37022 -1.27716 0
M  V30 28890 H 2696.38 4.15526 0.218413 0
M  V30 28891 H 2695.26 5.44015 0.730686 0
M  V30 28892 H 2695.52 4.05015 1.77244 0
M  V30 28893 N 2694.58 0.315484 1.5441 0
M  V30 28894 C 2695.52 -0.554127 2.24049 0
M  V30 28895 C 2696.49 -1.1181 1.22832 0
M  V30 28896 O 2697.68 -1.15994 1.51493 0
M  V30 28897 C 2694.82 -1.71311 2.99577 0
M  V30 28898 C 2693.93 -1.17914 4.15596 0
M  V30 28899 C 2693.07 -2.30316 4.78673 0
M  V30 28900 C 2692.11 -1.74127 5.8681 0
M  V30 28901 N 2691.24 -2.80159 6.43782 0
M  V30 28902 H 2696.08 0.0463126 2.97964 0
M  V30 28903 H 2693.62 0.0346267 1.47059 0
M  V30 28904 H 2695.58 -2.39499 3.41608 0
M  V30 28905 H 2694.21 -2.28496 2.28012 0
M  V30 28906 H 2693.26 -0.38907 3.78405 0
M  V30 28907 H 2694.57 -0.727925 4.9346 0
M  V30 28908 H 2693.73 -3.06423 5.23631 0
M  V30 28909 H 2692.46 -2.78771 4.00173 0
M  V30 28910 H 2691.47 -0.96514 5.41262 0
M  V30 28911 H 2692.69 -1.26559 6.67203 0
M  V30 28912 H 2690.64 -3.2792 5.68159 0
M  V30 28913 H 2690.56 -2.39576 7.17035 0
M  V30 28914 H 2691.83 -3.5612 6.93397 0
M  V30 28915 N 2696.05 -1.5754 0.0434891 0
M  V30 28916 C 2697 -2.12251 -0.951427 0
M  V30 28917 C 2698 -1.05247 -1.32738 0
M  V30 28918 O 2699.2 -1.23665 -1.30793 0
M  V30 28919 H 2695.58 -0.678309 -0.324656 0
M  V30 28920 H 2697.55 -2.94758 -0.464803 0
M  V30 28921 C 2696.3 -2.6763 -2.21967 0
M  V30 28922 H 2695.62 -3.49623 -1.93917 0
M  V30 28923 H 2697.06 -3.09541 -2.89759 0
M  V30 28924 C 2695.52 -1.61044 -2.95917 0
M  V30 28925 O 2696.05 -1.01869 -3.88569 0
M  V30 28926 N 2694.26 -1.32746 -2.58509 0
M  V30 28927 H 2693.8 -1.81054 -1.83241 0
M  V30 28928 H 2693.76 -0.616586 -3.08295 0
M  V30 28929 N 2697.53 0.229818 -1.55915 0
M  V30 28930 C 2698.46 1.30802 -1.88211 0
M  V30 28931 C 2699.48 1.43456 -0.769697 0
M  V30 28932 O 2700.67 1.44501 -1.04794 0
M  V30 28933 C 2697.77 2.68464 -2.06834 0
M  V30 28934 C 2696.94 2.77863 -3.37803 0
M  V30 28935 C 2696 3.96483 -3.45959 0
M  V30 28936 O 2695.02 3.85209 -4.1905 0
M  V30 28937 N 2696.23 5.10421 -2.76497 0
M  V30 28938 H 2698.99 1.03427 -2.81288 0
M  V30 28939 H 2696.55 0.419882 -1.5636 0
M  V30 28940 H 2698.54 3.46185 -2.09614 0
M  V30 28941 H 2697.11 2.88474 -1.20421 0
M  V30 28942 H 2696.33 1.86683 -3.47193 0
M  V30 28943 H 2697.62 2.81106 -4.24096 0
M  V30 28944 H 2697.02 5.22476 -2.16877 0
M  V30 28945 H 2695.58 5.86215 -2.84948 0
M  V30 28946 N 2699.01 1.49585 0.49619 0
M  V30 28947 C 2699.97 1.66087 1.57949 0
M  V30 28948 C 2700.97 0.532466 1.51728 0
M  V30 28949 O 2702.16 0.799017 1.54795 0
M  V30 28950 C 2699.3 1.66273 2.97601 0
M  V30 28951 H 2700.49 2.62713 1.44645 0
M  V30 28952 H 2698.04 1.38689 0.720775 0
M  V30 28953 H 2698.78 0.712487 3.16377 0
M  V30 28954 H 2698.56 2.48225 3.03524 0
M  V30 28955 H 2700.05 1.8108 3.76297 0
M  V30 28956 N 2700.49 -0.747586 1.3874 0
M  V30 28957 C 2701.42 -1.8697 1.30834 0
M  V30 28958 C 2702.4 -1.61553 0.184257 0
M  V30 28959 O 2703.58 -1.8498 0.362593 0
M  V30 28960 C 2700.71 -3.22703 1.0286 0
M  V30 28961 C 2699.76 -3.66999 2.17287 0
M  V30 28962 S 2700.59 -3.77835 3.79475 0
M  V30 28963 C 2701.75 -5.16378 3.53701 0
M  V30 28964 H 2701.98 -1.93391 2.25803 0
M  V30 28965 H 2699.51 -0.911177 1.24647 0
M  V30 28966 H 2701.47 -4.01087 0.87404 0
M  V30 28967 H 2700.13 -3.13953 0.0959847 0
M  V30 28968 H 2699.32 -4.65468 1.93275 0
M  V30 28969 H 2698.93 -2.95786 2.28881 0
M  V30 28970 H 2701.22 -6.02321 3.10186 0
M  V30 28971 H 2702.16 -5.45414 4.51585 0
M  V30 28972 H 2702.57 -4.85459 2.88079 0
M  V30 28973 N 2701.97 -1.23709 -0.97642 0
M  V30 28974 C 2702.93 -1.02291 -2.05108 0
M  V30 28975 C 2703.93 0.0166912 -1.60791 0
M  V30 28976 O 2705.12 -0.223438 -1.72761 0
M  V30 28977 C 2702.25 -0.548566 -3.36457 0
M  V30 28978 H 2703.44 -1.97664 -2.25542 0
M  V30 28979 H 2701 -1.05808 -1.1504 0
M  V30 28980 H 2701.73 0.408761 -3.21714 0
M  V30 28981 H 2701.52 -1.2988 -3.69964 0
M  V30 28982 H 2703.01 -0.419479 -4.15488 0
M  V30 28983 N 2703.44 1.17579 -1.04943 0
M  V30 28984 C 2704.72 1.83696 -0.67195 0
M  V30 28985 C 2705.1 1.93323 0.847895 0
M  V30 28986 O 2704.45 1.46586 1.75285 0
M  V30 28987 C 2704.66 3.21494 -1.35803 0
M  V30 28988 C 2706.01 3.9743 -1.49447 0
M  V30 28989 O 2707.03 3.30965 -1.31684 0
M  V30 28990 O 2705.89 5.16536 -1.78472 0
M  V30 28991 H 2702.98 0.792544 -0.236226 0
M  V30 28992 H 2705.53 1.24897 -1.14887 0
M  V30 28993 H 2704.3 3.09441 -2.39503 0
M  V30 28994 H 2703.93 3.87958 -0.870304 0
M  V30 28995 N 2704.92 0.830104 1.33967 0
M  V30 28996 C 2705.89 0.26239 2.27693 0
M  V30 28997 C 2706.89 -0.563849 1.5059 0
M  V30 28998 O 2708.08 -0.378911 1.70029 0
M  V30 28999 C 2705.21 -0.631321 3.35003 0
M  V30 29000 H 2706.4 1.08933 2.79417 0
M  V30 29001 H 2703.95 0.602512 1.4422 0
M  V30 29002 H 2704.69 -1.48104 2.88506 0
M  V30 29003 H 2704.47 -0.0402587 3.92079 0
M  V30 29004 H 2705.96 -1.0221 4.04899 0
M  V30 29005 N 2706.4 -1.46311 0.585725 0
M  V30 29006 C 2707.33 -2.33118 -0.133516 0
M  V30 29007 C 2708.31 -1.45527 -0.880682 0
M  V30 29008 O 2709.5 -1.74339 -0.855548 0
M  V30 29009 C 2706.63 -3.27855 -1.14579 0
M  V30 29010 C 2705.58 -4.24911 -0.513266 0
M  V30 29011 C 2704.91 -5.09178 -1.63222 0
M  V30 29012 C 2706.21 -5.1938 0.551504 0
M  V30 29013 H 2707.9 -2.93504 0.591261 0
M  V30 29014 H 2705.45 -1.41136 0.285786 0
M  V30 29015 H 2707.4 -3.87441 -1.65734 0
M  V30 29016 H 2706.12 -2.65583 -1.90088 0
M  V30 29017 H 2704.78 -3.66593 -0.0227705 0
M  V30 29018 H 2704.43 -4.43289 -2.37706 0
M  V30 29019 H 2704.13 -5.74909 -1.21463 0
M  V30 29020 H 2705.66 -5.71628 -2.14648 0
M  V30 29021 H 2707.07 -5.73164 0.124905 0
M  V30 29022 H 2705.47 -5.9347 0.88959 0
M  V30 29023 H 2706.54 -4.6313 1.43663 0
M  V30 29024 N 2707.88 -0.323668 -1.54241 0
M  V30 29025 C 2708.79 0.551165 -2.28034 0
M  V30 29026 C 2709.81 1.12911 -1.3239 0
M  V30 29027 O 2710.98 1.14905 -1.65405 0
M  V30 29028 C 2708.05 1.696 -3.02385 0
M  V30 29029 C 2707.11 1.14986 -4.13614 0
M  V30 29030 C 2706.34 2.24013 -4.84411 0
M  V30 29031 O 2706.56 3.4436 -4.54722 0
M  V30 29032 O 2705.5 1.89426 -5.71315 0
M  V30 29033 H 2709.32 -0.0481193 -3.03662 0
M  V30 29034 H 2706.91 -0.0893551 -1.49133 0
M  V30 29035 H 2708.79 2.36252 -3.48945 0
M  V30 29036 H 2707.47 2.28147 -2.29632 0
M  V30 29037 H 2706.37 0.448419 -3.71403 0
M  V30 29038 H 2707.71 0.609522 -4.88411 0
M  V30 29039 N 2709.36 1.57515 -0.0518432 0
M  V30 29040 C 2710.77 1.56664 0.304707 0
M  V30 29041 C 2710.97 1.05956 1.71393 0
M  V30 29042 O 2710.03 0.716457 2.42122 0
M  V30 29043 C 2711.34 3.00408 0.132562 0
M  V30 29044 C 2712.89 3.12337 0.203615 0
M  V30 29045 C 2713.37 4.57961 0.0599901 0
M  V30 29046 N 2714.86 4.63054 0.116245 0
M  V30 29047 C 2715.59 5.73393 0.0292355 0
M  V30 29048 N 2715.09 6.92712 -0.11016 0
M  V30 29049 N 2716.88 5.62036 0.0848663 0
M  V30 29050 H 2709.03 1.88798 -0.973089 0
M  V30 29051 H 2711.29 0.869468 -0.377796 0
M  V30 29052 H 2711 3.41544 -0.839079 0
M  V30 29053 H 2710.87 3.66469 0.893311 0
M  V30 29054 H 2713.26 2.71099 1.16573 0
M  V30 29055 H 2713.34 2.48953 -0.587901 0
M  V30 29056 H 2712.99 4.99884 -0.898802 0
M  V30 29057 H 2712.92 5.19353 0.870659 0
M  V30 29058 H 2715.41 3.7724 0.223204 0
M  V30 29059 H 2715.72 7.72615 -0.16924 0
M  V30 29060 H 2714.07 6.94848 -0.145254 0
M  V30 29061 H 2717.26 4.67705 0.192329 0
M  V30 29062 H 2717.43 6.47999 0.0135992 0
M  V30 29063 N 2710.84 -0.221546 1.56035 0
M  V30 29064 C 2712.08 -0.945939 1.79048 0
M  V30 29065 C 2712.41 -1.84333 0.620602 0
M  V30 29066 O 2711.67 -1.91672 -0.39502 0
M  V30 29067 C 2711.96 -1.81615 3.07816 0
M  V30 29068 C 2711.63 -1.07199 4.37972 0
M  V30 29069 C 2710.29 -0.866424 4.73336 0
M  V30 29070 C 2712.64 -0.546474 5.18327 0
M  V30 29071 C 2709.97 -0.123446 5.8657 0
M  V30 29072 C 2712.32 0.183161 6.32335 0
M  V30 29073 C 2710.99 0.399978 6.66301 0
M  V30 29074 H 2710.26 -0.346143 0.655184 0
M  V30 29075 H 2712.91 -0.214112 1.90299 0
M  V30 29076 H 2711.21 -2.61584 2.91687 0
M  V30 29077 H 2712.91 -2.37878 3.22824 0
M  V30 29078 H 2709.5 -1.24218 4.10205 0
M  V30 29079 H 2713.68 -0.69276 4.91441 0
M  V30 29080 H 2708.94 0.0547665 6.11375 0
M  V30 29081 H 2713.11 0.597872 6.93829 0
M  V30 29082 H 2710.74 0.977621 7.53888 0
M  V30 29083 N 2712.31 -1.49846 -0.48825 0
M  V30 29084 C 2713.56 -1.59659 -1.23909 0
M  V30 29085 C 2713.88 -0.291039 -1.92816 0
M  V30 29086 O 2713.15 0.690453 -1.83329 0
M  V30 29087 H 2711.73 -0.588294 -0.460347 0
M  V30 29088 H 2714.39 -1.86538 -0.564761 0
M  V30 29089 H 2713.49 -2.39912 -1.99621 0
M  V30 29090 N 2713.79 0.740218 -1.39135 0
M  V30 29091 C 2714.7 1.8847 -1.397 0
M  V30 29092 C 2715.72 1.71525 -0.292434 0
M  V30 29093 O 2716.89 1.94218 -0.533055 0
M  V30 29094 C 2713.96 3.24001 -1.23387 0
M  V30 29095 C 2713.02 3.53377 -2.43769 0
M  V30 29096 C 2712.25 4.82441 -2.28225 0
M  V30 29097 O 2712.48 5.55784 -1.28298 0
M  V30 29098 O 2711.41 5.11597 -3.17099 0
M  V30 29099 H 2715.24 1.90948 -2.36162 0
M  V30 29100 H 2712.82 0.887325 -1.20195 0
M  V30 29101 H 2714.7 4.05004 -1.16402 0
M  V30 29102 H 2713.38 3.22305 -0.300177 0
M  V30 29103 H 2712.28 2.72481 -2.5633 0
M  V30 29104 H 2713.62 3.59846 -3.35815 0
M  V30 29105 N 2715.27 1.24225 0.969846 0
M  V30 29106 C 2716.22 1.03038 2.08533 0
M  V30 29107 C 2717.21 -0.0340082 1.69366 0
M  V30 29108 O 2718.42 0.120371 1.79597 0
M  V30 29109 H 2714.79 0.316166 0.682307 0
M  V30 29110 H 2716.76 1.97639 2.23565 0
M  V30 29111 C 2715.51 0.649569 3.41579 0
M  V30 29112 H 2714.84 1.46035 3.72174 0
M  V30 29113 H 2716.28 0.540915 4.20535 0
M  V30 29114 C 2714.73 -0.643136 3.30704 0
M  V30 29115 O 2715.26 -1.68944 3.64446 0
M  V30 29116 N 2713.47 -0.623045 2.83842 0
M  V30 29117 H 2713.02 0.228764 2.56582 0
M  V30 29118 H 2712.98 -1.48818 2.76949 0
M  V30 29119 N 2716.75 -1.1702 1.05565 0
M  V30 29120 C 2718.16 -1.39369 0.777709 0
M  V30 29121 C 2718.36 -1.91522 -0.626235 0
M  V30 29122 O 2717.42 -2.10927 -1.38803 0
M  V30 29123 C 2718.73 -2.38106 1.83646 0
M  V30 29124 C 2720.28 -2.51805 1.85911 0
M  V30 29125 C 2720.76 -3.53819 2.9082 0
M  V30 29126 N 2722.25 -3.6134 2.89806 0
M  V30 29127 C 2722.98 -4.40042 3.67628 0
M  V30 29128 N 2722.48 -5.22229 4.55246 0
M  V30 29129 N 2724.27 -4.34952 3.56052 0
M  V30 29130 H 2716.42 -0.815013 1.96141 0
M  V30 29131 H 2718.68 -0.420707 0.849535 0
M  V30 29132 H 2718.39 -2.06866 2.84428 0
M  V30 29133 H 2718.26 -3.37659 1.68126 0
M  V30 29134 H 2720.65 -2.82354 0.857915 0
M  V30 29135 H 2720.73 -1.52314 2.05509 0
M  V30 29136 H 2720.38 -3.24008 3.91128 0
M  V30 29137 H 2720.31 -4.53023 2.68473 0
M  V30 29138 H 2722.8 -3.02665 2.2628 0
M  V30 29139 H 2723.11 -5.79475 5.11301 0
M  V30 29140 H 2721.46 -5.21597 4.59306 0
M  V30 29141 H 2724.65 -3.69801 2.86992 0
M  V30 29142 H 2724.82 -4.96044 4.16947 0
M  V30 29143 N 2718.23 -0.837197 -1.33524 0
M  V30 29144 C 2719.47 -0.432099 -1.97836 0
M  V30 29145 C 2719.8 1.00826 -1.66326 0
M  V30 29146 O 2719.06 1.71946 -0.93451 0
M  V30 29147 C 2719.35 -0.597737 -3.52366 0
M  V30 29148 C 2719.02 -2.00595 -4.03823 0
M  V30 29149 C 2717.68 -2.39114 -4.17586 0
M  V30 29150 C 2720.03 -2.92584 -4.31328 0
M  V30 29151 C 2717.36 -3.68929 -4.56189 0
M  V30 29152 C 2719.71 -4.21879 -4.71382 0
M  V30 29153 C 2718.38 -4.60356 -4.83352 0
M  V30 29154 H 2717.65 -0.158116 -0.723934 0
M  V30 29155 H 2720.3 -1.0639 -1.59228 0
M  V30 29156 H 2718.6 0.117383 -3.91624 0
M  V30 29157 H 2720.3 -0.264611 -4.00126 0
M  V30 29158 H 2716.89 -1.69678 -3.93583 0
M  V30 29159 H 2721.07 -2.64063 -4.20219 0
M  V30 29160 H 2716.33 -3.98548 -4.63648 0
M  V30 29161 H 2720.5 -4.93235 -4.91622 0
M  V30 29162 H 2718.13 -5.60994 -5.13021 0
M  V30 29163 N 2719.7 1.45999 -0.593476 0
M  V30 29164 C 2720.95 2.02629 -0.0833111 0
M  V30 29165 C 2721.28 1.46268 1.27747 0
M  V30 29166 O 2720.56 0.631898 1.83949 0
M  V30 29167 C 2720.84 3.60088 -0.0291389 0
M  V30 29168 C 2720.69 4.26811 -1.41958 0
M  V30 29169 C 2722.01 4.35032 0.665979 0
M  V30 29170 H 2719.13 0.736316 -0.031749 0
M  V30 29171 H 2721.77 1.74018 -0.762742 0
M  V30 29172 H 2719.92 3.84595 0.549464 0
M  V30 29173 H 2721.6 4.13535 -2.04418 0
M  V30 29174 H 2719.84 3.85757 -1.98429 0
M  V30 29175 H 2720.51 5.35637 -1.33405 0
M  V30 29176 H 2722.99 4.15735 0.174328 0
M  V30 29177 H 2721.86 5.44759 0.672945 0
M  V30 29178 H 2722.12 4.06872 1.72938 0
M  V30 29179 N 2721.18 0.331843 1.54067 0
M  V30 29180 C 2722.41 -0.272669 2.056 0
M  V30 29181 C 2722.83 -1.44357 1.20593 0
M  V30 29182 O 2722.19 -1.79997 0.216939 0
M  V30 29183 C 2722.24 -0.676958 3.54189 0
M  V30 29184 O 2721.34 -1.77838 3.72085 0
M  V30 29185 H 2720.68 -0.0476685 0.662287 0
M  V30 29186 H 2723.21 0.482659 1.98825 0
M  V30 29187 H 2723.22 -0.957345 3.96609 0
M  V30 29188 H 2721.9 0.179398 4.15513 0
M  V30 29189 H 2720.48 -1.49616 3.41569 0
M  V30 29190 N 2722.66 -1.57485 0.0601958 0
M  V30 29191 C 2724.07 -1.80578 -0.474185 0
M  V30 29192 C 2724.42 -0.973177 -1.70363 0
M  V30 29193 O 2723.55 -0.192344 -2.15543 0
M  V30 29194 C 2724.14 -3.27518 -0.867044 0
M  V30 29195 C 2722.7 -3.51497 -1.34635 0
M  V30 29196 C 2721.85 -2.75378 -0.325892 0
M  V30 29197 H 2724.8 -1.56102 0.286001 0
M  V30 29198 H 2724.82 -3.38932 -1.72932 0
M  V30 29199 H 2724.33 -3.8809 0.0279609 0
M  V30 29200 H 2722.43 -2.96216 -2.26025 0
M  V30 29201 H 2722.55 -4.60203 -1.33228 0
M  V30 29202 H 2720.91 -2.41787 -0.800706 0
M  V30 29203 H 2721.69 -3.38682 0.561185 0
M  V30 29204 N 2724.14 0.213268 -1.5615 0
M  V30 29205 C 2725.07 1.26738 -1.96111 0
M  V30 29206 C 2726.05 1.48449 -0.830475 0
M  V30 29207 O 2727.23 1.60493 -1.09342 0
M  V30 29208 C 2724.36 2.61547 -2.28497 0
M  V30 29209 C 2723.32 2.54479 -3.44129 0
M  V30 29210 C 2722.64 3.93393 -3.62141 0
M  V30 29211 C 2723.94 2.08548 -4.78858 0
M  V30 29212 H 2725.64 0.935384 -2.84413 0
M  V30 29213 H 2723.18 0.448516 -1.36837 0
M  V30 29214 H 2725.14 3.35455 -2.55045 0
M  V30 29215 H 2723.86 2.96451 -1.37057 0
M  V30 29216 H 2722.52 1.83027 -3.17642 0
M  V30 29217 H 2722.17 4.25619 -2.68063 0
M  V30 29218 H 2721.87 3.89544 -4.3992 0
M  V30 29219 H 2723.39 4.68951 -3.91046 0
M  V30 29220 H 2724.81 2.72204 -5.04557 0
M  V30 29221 H 2723.2 2.1574 -5.59979 0
M  V30 29222 H 2724.27 1.03802 -4.73659 0
M  V30 29223 N 2725.62 1.50103 0.480296 0
M  V30 29224 C 2726.84 1.64644 1.26123 0
M  V30 29225 C 2727.27 0.325855 1.85256 0
M  V30 29226 O 2726.62 -0.709164 1.66855 0
M  V30 29227 C 2726.67 2.73305 2.35238 0
M  V30 29228 O 2725.78 2.33917 3.39642 0
M  V30 29229 H 2725.12 0.55038 0.371453 0
M  V30 29230 H 2727.65 1.96422 0.572661 0
M  V30 29231 H 2727.66 2.96103 2.8069 0
M  V30 29232 H 2726.33 3.69154 1.91568 0
M  V30 29233 H 2724.91 2.2153 2.99965 0
M  V30 29234 N 2727.09 -0.732829 1.39526 0
M  V30 29235 C 2728.34 -1.49355 1.38074 0
M  V30 29236 C 2728.7 -1.92387 -0.0227605 0
M  V30 29237 O 2727.99 -1.64058 -0.989731 0
M  V30 29238 C 2728.18 -2.74463 2.2892 0
M  V30 29239 C 2728.01 -2.43666 3.77964 0
M  V30 29240 C 2726.78 -2.35855 4.46879 0
M  V30 29241 C 2728.98 -2.09066 4.69889 0
M  V30 29242 N 2726.96 -1.97551 5.81246 0
M  V30 29243 C 2728.33 -1.81223 5.92923 0
M  V30 29244 C 2730.39 -1.95553 4.5789 0
M  V30 29245 C 2729.09 -1.41229 7.05299 0
M  V30 29246 C 2731.12 -1.56962 5.7019 0
M  V30 29247 C 2730.48 -1.30006 6.92299 0
M  V30 29248 H 2726.58 -0.54529 0.56052 0
M  V30 29249 H 2729.16 -0.851479 1.75094 0
M  V30 29250 H 2727.33 -3.36448 1.94056 0
M  V30 29251 H 2729.06 -3.4068 2.18447 0
M  V30 29252 H 2725.82 -2.53023 4.00345 0
M  V30 29253 H 2726.24 -1.80986 6.5236 0
M  V30 29254 H 2730.89 -2.15061 3.64017 0
M  V30 29255 H 2728.6 -1.20462 7.99071 0
M  V30 29256 H 2732.19 -1.47109 5.62894 0
M  V30 29257 H 2731.07 -1.00591 7.77722 0
M  V30 29258 N 2728.57 -1.24737 -0.963244 0
M  V30 29259 C 2729.85 -0.99763 -1.68246 0
M  V30 29260 C 2730.23 0.47874 -2.056 0
M  V30 29261 O 2729.58 1.45409 -1.76263 0
M  V30 29262 C 2729.79 -1.92492 -2.91115 0
M  V30 29263 C 2731.14 -2.19839 -3.63257 0
M  V30 29264 O 2732.16 -1.90181 -3.0118 0
M  V30 29265 O 2731.02 -2.70228 -4.75015 0
M  V30 29266 H 2728.11 -0.37765 -0.735738 0
M  V30 29267 H 2730.66 -1.35855 -1.01694 0
M  V30 29268 H 2729.43 -2.9222 -2.60237 0
M  V30 29269 H 2729.05 -1.56745 -3.654 0
M  V30 29270 N 2730.05 1.16459 -1.06184 0
M  V30 29271 C 2730.98 2.22982 -0.6929 0
M  V30 29272 C 2731.96 1.67175 0.314092 0
M  V30 29273 O 2733.15 1.93274 0.189465 0
M  V30 29274 C 2730.28 3.47214 -0.077381 0
M  V30 29275 C 2729.23 4.15907 -1.01023 0
M  V30 29276 C 2728.56 5.34077 -0.258067 0
M  V30 29277 C 2729.86 4.67011 -2.33876 0
M  V30 29278 H 2731.55 2.54099 -1.58347 0
M  V30 29279 H 2729.1 1.22136 -0.762812 0
M  V30 29280 H 2731.05 4.2096 0.192586 0
M  V30 29281 H 2729.77 3.15394 0.848199 0
M  V30 29282 H 2728.43 3.44086 -1.26492 0
M  V30 29283 H 2728.08 4.9851 0.670596 0
M  V30 29284 H 2727.78 5.80977 -0.87974 0
M  V30 29285 H 2729.3 6.106 0.00438055 0
M  V30 29286 H 2730.72 5.32343 -2.12799 0
M  V30 29287 H 2729.12 5.24528 -2.91531 0
M  V30 29288 H 2730.19 3.8328 -2.97025 0
M  V30 29289 N 2731.53 0.844266 1.33079 0
M  V30 29290 C 2732.77 0.44324 1.97897 0
M  V30 29291 C 2733.11 -0.996221 1.66701 0
M  V30 29292 O 2732.38 -1.69736 0.949734 0
M  V30 29293 C 2732.67 0.670668 3.53799 0
M  V30 29294 C 2732.52 2.15779 3.94664 0
M  V30 29295 C 2733.84 0.120304 4.39936 0
M  V30 29296 H 2730.96 0.162517 0.718858 0
M  V30 29297 H 2733.6 1.06078 1.57631 0
M  V30 29298 H 2731.75 0.145028 3.88229 0
M  V30 29299 H 2733.42 2.74871 3.70464 0
M  V30 29300 H 2731.66 2.64026 3.44199 0
M  V30 29301 H 2732.33 2.26765 5.03271 0
M  V30 29302 H 2734.81 0.569672 4.12182 0
M  V30 29303 H 2733.69 0.309081 5.48029 0
M  V30 29304 H 2733.95 -0.976271 4.31186 0
M  V30 29305 N 2733.01 -1.45682 0.60121 0
M  V30 29306 C 2734.25 -2.01883 0.0937311 0
M  V30 29307 C 2734.58 -1.47294 -1.27787 0
M  V30 29308 O 2733.85 -0.664724 -1.84278 0
M  V30 29309 H 2732.43 -0.746329 0.0316598 0
M  V30 29310 H 2735.09 -1.7856 0.781169 0
M  V30 29311 H 2734.18 -3.12076 0.0386845 0
M  V30 29312 N 2734.48 -0.340009 -1.53889 0
M  V30 29313 C 2735.9 0.0120472 -1.59595 0
M  V30 29314 C 2736.1 1.49039 -1.35608 0
M  V30 29315 O 2735.16 2.24863 -1.1486 0
M  V30 29316 C 2736.47 -0.420951 -2.97739 0
M  V30 29317 C 2738.02 -0.372995 -3.1077 0
M  V30 29318 C 2738.49 -0.781407 -4.51285 0
M  V30 29319 N 2739.98 -0.735454 -4.57324 0
M  V30 29320 C 2740.72 -1.02346 -5.64192 0
M  V30 29321 N 2740.21 -1.37945 -6.78928 0
M  V30 29322 N 2742.01 -0.947936 -5.54049 0
M  V30 29323 H 2734.16 -1.30302 -1.67736 0
M  V30 29324 H 2736.42 -0.530932 -0.785376 0
M  V30 29325 H 2736.13 -1.45158 -3.20347 0
M  V30 29326 H 2736 0.205655 -3.76639 0
M  V30 29327 H 2738.39 0.648454 -2.87887 0
M  V30 29328 H 2738.47 -1.03476 -2.33937 0
M  V30 29329 H 2738.11 -1.80085 -4.74902 0
M  V30 29330 H 2738.04 -0.0971604 -5.2651 0
M  V30 29331 H 2740.53 -0.472839 -3.7493 0
M  V30 29332 H 2740.85 -1.58415 -7.56389 0
M  V30 29333 H 2739.19 -1.41786 -6.80383 0
M  V30 29334 H 2742.38 -0.669196 -4.63292 0
M  V30 29335 H 2742.56 -1.17574 -6.37244 0
M  V30 29336 N 2735.96 1.57451 -0.0685468 0
M  V30 29337 C 2736.91 2.13738 0.91754 0
M  V30 29338 C 2737.91 1.07346 1.31047 0
M  V30 29339 O 2739.11 1.25731 1.28809 0
M  V30 29340 H 2735.49 0.683388 0.313823 0
M  V30 29341 H 2737.46 2.9546 0.417851 0
M  V30 29342 C 2736.21 2.71127 2.17682 0
M  V30 29343 H 2735.53 3.52664 1.8833 0
M  V30 29344 H 2736.97 3.14112 2.84798 0
M  V30 29345 C 2735.43 1.65731 2.93317 0
M  V30 29346 O 2735.96 1.08038 3.86899 0
M  V30 29347 N 2734.16 1.36842 2.56364 0
M  V30 29348 H 2733.71 1.83946 1.80337 0
M  V30 29349 H 2733.67 0.665555 3.07275 0
M  V30 29350 N 2737.44 -0.204984 1.56261 0
M  V30 29351 C 2738.37 -1.25696 1.96781 0
M  V30 29352 C 2739.35 -1.48007 0.838335 0
M  V30 29353 O 2740.54 -1.59911 1.10192 0
M  V30 29354 C 2737.67 -2.60331 2.2988 0
M  V30 29355 C 2736.62 -2.5265 3.45473 0
M  V30 29356 C 2735.95 -3.91467 3.64222 0
M  V30 29357 C 2737.25 -2.06005 4.79957 0
M  V30 29358 H 2738.94 -0.920288 2.84905 0
M  V30 29359 H 2736.49 -0.441253 1.37073 0
M  V30 29360 H 2738.44 -3.34098 2.5682 0
M  V30 29361 H 2737.16 -2.9572 1.38627 0
M  V30 29362 H 2735.82 -1.8134 3.18609 0
M  V30 29363 H 2735.47 -4.24191 2.70316 0
M  V30 29364 H 2735.17 -3.87205 4.4198 0
M  V30 29365 H 2736.7 -4.66871 3.93528 0
M  V30 29366 H 2738.11 -2.69524 5.05994 0
M  V30 29367 H 2736.51 -2.12767 5.61115 0
M  V30 29368 H 2737.58 -1.01289 4.74203 0
M  V30 29369 N 2738.92 -1.50356 -0.472329 0
M  V30 29370 C 2740.17 -1.61283 -1.2245 0
M  V30 29371 C 2740.49 -0.312594 -1.91972 0
M  V30 29372 O 2739.75 0.701443 -1.82697 0
M  V30 29373 C 2740.05 -2.74186 -2.29252 0
M  V30 29374 C 2739.71 -4.14711 -1.76991 0
M  V30 29375 C 2738.38 -4.52946 -1.62459 0
M  V30 29376 C 2740.73 -5.02542 -1.38206 0
M  V30 29377 C 2738.06 -5.76756 -1.07564 0
M  V30 29378 C 2740.41 -6.26897 -0.847528 0
M  V30 29379 C 2739.07 -6.63936 -0.688829 0
M  V30 29380 H 2738.34 -0.590176 -0.448077 0
M  V30 29381 H 2740.99 -1.84285 -0.520712 0
M  V30 29382 H 2739.29 -2.45268 -3.05534 0
M  V30 29383 H 2740.99 -2.79845 -2.87207 0
M  V30 29384 H 2737.58 -3.84545 -1.89269 0
M  V30 29385 H 2741.77 -4.73635 -1.48268 0
M  V30 29386 H 2737.02 -6.04129 -0.940131 0
M  V30 29387 H 2741.2 -6.94316 -0.538333 0
M  V30 29388 H 2738.82 -7.59751 -0.261301 0
M  V30 29389 N 2740.4 0.725419 -1.39912 0
M  V30 29390 C 2741.36 1.82119 -1.3916 0
M  V30 29391 C 2742.36 1.58217 -0.287046 0
M  V30 29392 O 2743.55 1.6544 -0.54545 0
M  V30 29393 C 2740.68 3.2006 -1.17366 0
M  V30 29394 H 2741.88 1.84187 -2.36675 0
M  V30 29395 H 2739.43 0.930057 -1.25617 0
M  V30 29396 H 2740.16 3.23647 -0.205705 0
M  V30 29397 H 2739.95 3.38806 -1.97364 0
M  V30 29398 H 2741.44 4.00106 -1.19603 0
M  V30 29399 N 2741.88 1.25246 0.956615 0
M  V30 29400 C 2742.81 0.997786 2.0523 0
M  V30 29401 C 2743.79 -0.0722852 1.62439 0
M  V30 29402 O 2744.97 0.0669591 1.88381 0
M  V30 29403 C 2742.1 0.50792 3.3487 0
M  V30 29404 C 2741.14 1.56822 3.96622 0
M  V30 29405 S 2741.98 3.15283 4.32847 0
M  V30 29406 C 2743.13 2.68027 5.65608 0
M  V30 29407 H 2743.37 1.92554 2.26518 0
M  V30 29408 H 2740.9 1.08754 1.09599 0
M  V30 29409 H 2742.86 0.23193 4.09844 0
M  V30 29410 H 2741.52 -0.399301 3.11552 0
M  V30 29411 H 2740.71 1.17612 4.90085 0
M  V30 29412 H 2740.31 1.79479 3.28121 0
M  V30 29413 H 2742.6 2.11529 6.43632 0
M  V30 29414 H 2743.55 3.60122 6.09686 0
M  V30 29415 H 2743.96 2.08089 5.24747 0
M  V30 29416 N 2743.35 -1.15894 1.068 0
M  V30 29417 C 2744.32 -2.1865 0.687366 0
M  V30 29418 C 2745.32 -1.58525 -0.269532 0
M  V30 29419 O 2746.51 -1.74125 -0.0512321 0
M  V30 29420 C 2743.64 -3.40898 0.0122241 0
M  V30 29421 H 2744.83 -2.53839 1.59705 0
M  V30 29422 H 2742.38 -1.30259 0.863851 0
M  V30 29423 H 2743.12 -3.11272 -0.90997 0
M  V30 29424 H 2742.9 -3.85794 0.700377 0
M  V30 29425 H 2744.39 -4.16912 -0.23963 0
M  V30 29426 N 2744.83 -0.851312 -1.32629 0
M  V30 29427 C 2746.08 -0.453729 -1.97659 0
M  V30 29428 C 2746.41 0.987366 -1.67227 0
M  V30 29429 O 2745.69 1.6923 -0.958722 0
M  V30 29430 C 2745.97 -0.689422 -3.53439 0
M  V30 29431 C 2745.82 -2.17869 -3.93514 0
M  V30 29432 C 2747.14 -0.143633 -4.39866 0
M  V30 29433 H 2744.26 -0.166327 -0.717986 0
M  V30 29434 H 2746.9 -1.06912 -1.57066 0
M  V30 29435 H 2745.05 -0.165615 -3.88147 0
M  V30 29436 H 2746.72 -2.76832 -3.69001 0
M  V30 29437 H 2744.97 -2.65847 -3.42794 0
M  V30 29438 H 2745.64 -2.29431 -5.02061 0
M  V30 29439 H 2748.11 -0.591523 -4.11874 0
M  V30 29440 H 2746.99 -0.33814 -5.47857 0
M  V30 29441 H 2747.25 0.95339 -4.31698 0
M  V30 29442 N 2746.31 1.45361 -0.608928 0
M  V30 29443 C 2747.22 2.34338 0.110928 0
M  V30 29444 C 2748.24 1.51319 0.858981 0
M  V30 29445 O 2749.41 1.84117 0.816264 0
M  V30 29446 C 2746.48 3.28958 1.09488 0
M  V30 29447 C 2745.54 4.27882 0.348643 0
M  V30 29448 C 2744.77 5.17981 1.28573 0
M  V30 29449 O 2744.99 5.11538 2.5236 0
M  V30 29450 O 2743.93 5.96798 0.782067 0
M  V30 29451 H 2747.75 2.97298 -0.62031 0
M  V30 29452 H 2745.34 1.44767 -0.369185 0
M  V30 29453 H 2747.22 3.8726 1.66156 0
M  V30 29454 H 2745.9 2.6856 1.80713 0
M  V30 29455 H 2744.8 3.73192 -0.260531 0
M  V30 29456 H 2746.14 4.91138 -0.323135 0
M  V30 29457 N 2747.79 0.348166 1.53706 0
M  V30 29458 C 2749.04 -0.246443 2.00592 0
M  V30 29459 C 2749.36 -1.50696 1.23756 0
M  V30 29460 O 2748.63 -1.9282 0.345998 0
M  V30 29461 H 2747.21 -0.0940548 0.741055 0
M  V30 29462 H 2749.87 0.470388 1.89138 0
M  V30 29463 H 2748.96 -0.485659 3.08298 0
M  V30 29464 N 2749.27 -1.57412 0.0768958 0
M  V30 29465 C 2750.51 -1.93969 -0.591927 0
M  V30 29466 C 2750.84 -0.957529 -1.68953 0
M  V30 29467 O 2750.12 0.0124334 -1.94496 0
M  V30 29468 C 2750.4 -3.40764 -1.16412 0
M  V30 29469 C 2750.26 -4.49741 -0.0728142 0
M  V30 29470 C 2751.57 -3.88483 -2.06807 0
M  V30 29471 H 2748.69 -0.705337 -0.213703 0
M  V30 29472 H 2751.34 -1.89454 0.143903 0
M  V30 29473 H 2749.49 -3.44743 -1.79122 0
M  V30 29474 H 2751.16 -4.57882 0.560526 0
M  V30 29475 H 2749.4 -4.29687 0.595934 0
M  V30 29476 H 2750.07 -5.49605 -0.513658 0
M  V30 29477 H 2752.55 -3.86542 -1.54027 0
M  V30 29478 H 2751.42 -4.91797 -2.43776 0
M  V30 29479 H 2751.68 -3.26719 -2.97838 0
M  V30 29480 N 2750.74 0.196695 -1.56368 0
M  V30 29481 C 2751.99 0.918693 -1.80798 0
M  V30 29482 C 2752.32 1.82975 -0.650677 0
M  V30 29483 O 2751.6 1.91346 0.348856 0
M  V30 29484 C 2751.88 1.7363 -3.15475 0
M  V30 29485 C 2751.73 0.850073 -4.41694 0
M  V30 29486 C 2753.05 2.7092 -3.46829 0
M  V30 29487 H 2750.17 0.33255 -0.657708 0
M  V30 29488 H 2752.81 0.186153 -1.89086 0
M  V30 29489 H 2750.96 2.36083 -3.08541 0
M  V30 29490 H 2752.64 0.240378 -4.60673 0
M  V30 29491 H 2750.88 0.156709 -4.33517 0
M  V30 29492 H 2751.55 1.4571 -5.32422 0
M  V30 29493 H 2754.03 2.186 -3.54052 0
M  V30 29494 H 2752.9 3.25212 -4.42186 0
M  V30 29495 H 2753.16 3.49888 -2.70242 0
M  V30 29496 N 2752.22 1.50604 0.464349 0
M  V30 29497 C 2753.47 1.6193 1.21593 0
M  V30 29498 C 2753.8 0.322771 1.91803 0
M  V30 29499 O 2753.05 -0.691744 1.83067 0
M  V30 29500 C 2753.35 2.75398 2.27795 0
M  V30 29501 C 2753.02 4.15643 1.74789 0
M  V30 29502 C 2751.68 4.53802 1.60055 0
M  V30 29503 C 2754.03 5.03268 1.35539 0
M  V30 29504 C 2751.36 5.77318 1.04503 0
M  V30 29505 C 2753.71 6.27338 0.814271 0
M  V30 29506 C 2752.38 6.64292 0.65361 0
M  V30 29507 H 2751.65 0.592544 0.444941 0
M  V30 29508 H 2754.29 1.84558 0.510931 0
M  V30 29509 H 2752.6 2.46885 3.04229 0
M  V30 29510 H 2754.29 2.81364 2.85719 0
M  V30 29511 H 2750.88 3.85544 1.87227 0
M  V30 29512 H 2755.07 4.74415 1.45754 0
M  V30 29513 H 2750.32 6.04619 0.90808 0
M  V30 29514 H 2754.5 6.94592 0.501504 0
M  V30 29515 H 2752.13 7.59879 0.221006 0
M  V30 29516 N 2753.7 -0.717989 1.40295 0
M  V30 29517 C 2754.95 -1.47783 1.38443 0
M  V30 29518 C 2755.28 -1.94495 -0.0140497 0
M  V30 29519 O 2754.53 -1.68332 -0.998135 0
M  V30 29520 C 2754.83 -2.7202 2.31819 0
M  V30 29521 C 2754.5 -2.44086 3.79121 0
M  V30 29522 C 2753.16 -2.36178 4.19253 0
M  V30 29523 C 2755.51 -2.20593 4.72216 0
M  V30 29524 C 2752.84 -2.02842 5.5052 0
M  V30 29525 C 2755.19 -1.8877 6.03779 0
M  V30 29526 C 2753.85 -1.79342 6.42956 0
M  V30 29527 H 2753.12 -0.540777 0.506598 0
M  V30 29528 H 2755.77 -0.822632 1.72931 0
M  V30 29529 H 2754.08 -3.42366 1.90507 0
M  V30 29530 H 2755.77 -3.30102 2.2767 0
M  V30 29531 H 2752.36 -2.51127 3.47323 0
M  V30 29532 H 2756.55 -2.25661 4.4203 0
M  V30 29533 H 2751.8 -1.94078 5.79779 0
M  V30 29534 H 2755.98 -1.69605 6.75431 0
M  V30 29535 H 2753.6 -1.53278 7.44587 0
M  V30 29536 N 2755.18 -1.25752 -0.94996 0
M  V30 29537 C 2756.11 -1.09032 -2.06481 0
M  V30 29538 C 2757.09 0.00198542 -1.701 0
M  V30 29539 O 2758.27 -0.168417 -1.93468 0
M  V30 29540 C 2755.4 -0.71322 -3.39898 0
M  V30 29541 C 2754.36 -1.75628 -3.90306 0
M  V30 29542 C 2753.68 -1.23374 -5.20272 0
M  V30 29543 C 2754.98 -3.15603 -4.16163 0
M  V30 29544 H 2756.68 -2.02287 -2.20727 0
M  V30 29545 H 2754.22 -0.973983 -1.06064 0
M  V30 29546 H 2756.18 -0.583164 -4.17345 0
M  V30 29547 H 2754.9 0.255034 -3.25603 0
M  V30 29548 H 2753.56 -1.87485 -3.15031 0
M  V30 29549 H 2753.21 -0.255579 -5.0235 0
M  V30 29550 H 2752.91 -1.93092 -5.54968 0
M  V30 29551 H 2754.43 -1.11617 -6.00312 0
M  V30 29552 H 2755.85 -3.06873 -4.84254 0
M  V30 29553 H 2754.24 -3.82834 -4.62124 0
M  V30 29554 H 2755.31 -3.62315 -3.22266 0
M  V30 29555 N 2756.66 1.15326 -1.07413 0
M  V30 29556 C 2757.91 1.85471 -0.792676 0
M  V30 29557 C 2758.22 1.8326 0.683757 0
M  V30 29558 O 2759.42 2.49094 1.08001 0
M  V30 29559 C 2757.88 3.3289 -1.36793 0
M  V30 29560 C 2757.49 3.43545 -2.87542 0
M  V30 29561 C 2759.23 4.08215 -1.16452 0
M  V30 29562 C 2757.14 4.85116 -3.38255 0
M  V30 29563 H 2756.07 0.694806 -0.29285 0
M  V30 29564 H 2758.72 1.30079 -1.29428 0
M  V30 29565 H 2757.1 3.87957 -0.794061 0
M  V30 29566 H 2758.28 2.98581 -3.50978 0
M  V30 29567 H 2756.59 2.81666 -3.06681 0
M  V30 29568 H 2759.19 5.12695 -1.51817 0
M  V30 29569 H 2759.53 4.16171 -0.103603 0
M  V30 29570 H 2760.06 3.59419 -1.70478 0
M  V30 29571 H 2756.8 4.82344 -4.43875 0
M  V30 29572 H 2756.32 5.30659 -2.79573 0
M  V30 29573 H 2758 5.53974 -3.34248 0
M  V30 29574 N 2758.13 0.858334 1.32176 0
M  V30 29575 C 2759.36 0.477617 2.01312 0
M  V30 29576 C 2759.78 -0.926707 1.64492 0
M  V30 29577 O 2759.13 -1.6053 0.868124 0
M  V30 29578 C 2759.19 0.6114 3.56292 0
M  V30 29579 O 2758.91 1.96041 3.9179 0
M  V30 29580 C 2760.41 0.230171 4.42702 0
M  V30 29581 H 2757.63 0.187333 0.644319 0
M  V30 29582 H 2760.17 1.15629 1.68672 0
M  V30 29583 H 2758.33 -0.0195813 3.87395 0
M  V30 29584 H 2758.74 1.95982 4.86509 0
M  V30 29585 H 2760.21 0.37477 5.50726 0
M  V30 29586 H 2760.69 -0.829704 4.31292 0
M  V30 29587 H 2761.3 0.836375 4.16995 0
M  V30 29588 N 2759.61 -1.45036 0.616628 0
M  V30 29589 C 2760.86 -2.02471 0.115537 0
M  V30 29590 C 2761.19 -1.48282 -1.25404 0
M  V30 29591 O 2760.47 -0.661083 -1.82921 0
M  V30 29592 C 2760.75 -3.59996 0.0864221 0
M  V30 29593 C 2760.6 -4.24499 1.4873 0
M  V30 29594 C 2761.92 -4.36036 -0.596685 0
M  V30 29595 H 2759.04 -0.735718 0.0434591 0
M  V30 29596 H 2761.68 -1.72782 0.79033 0
M  V30 29597 H 2759.83 -3.8542 -0.488209 0
M  V30 29598 H 2761.5 -4.1023 2.10971 0
M  V30 29599 H 2759.75 -3.82551 2.04541 0
M  V30 29600 H 2760.42 -5.33447 1.41909 0
M  V30 29601 H 2762.89 -4.15959 -0.108166 0
M  V30 29602 H 2761.77 -5.45761 -0.586193 0
M  V30 29603 H 2762.03 -4.09572 -1.66444 0
M  V30 29604 N 2761.09 -0.356312 -1.53519 0
M  V30 29605 C 2762.02 0.486621 -2.28373 0
M  V30 29606 C 2763 1.09183 -1.30434 0
M  V30 29607 O 2764.19 1.11082 -1.59293 0
M  V30 29608 C 2761.32 1.63124 -3.06607 0
M  V30 29609 C 2760.27 1.15374 -4.12156 0
M  V30 29610 C 2759.6 2.38788 -4.78419 0
M  V30 29611 C 2760.9 0.245088 -5.21725 0
M  V30 29612 H 2762.59 -0.137849 -2.99082 0
M  V30 29613 H 2760.14 -0.0677387 -1.43841 0
M  V30 29614 H 2762.09 2.22749 -3.57716 0
M  V30 29615 H 2760.81 2.2828 -2.33572 0
M  V30 29616 H 2759.47 0.580231 -3.61979 0
M  V30 29617 H 2759.12 3.02379 -4.01965 0
M  V30 29618 H 2758.82 2.07514 -5.49738 0
M  V30 29619 H 2760.34 2.99115 -5.32318 0
M  V30 29620 H 2761.76 0.748547 -5.68392 0
M  V30 29621 H 2760.16 0.0236553 -6.00095 0
M  V30 29622 H 2761.23 -0.715314 -4.79595 0
M  V30 29623 N 2762.57 1.57369 -0.0852427 0
M  V30 29624 C 2763.82 1.93169 0.580409 0
M  V30 29625 C 2764.13 0.968349 1.69948 0
M  V30 29626 O 2765.34 1.21968 2.42562 0
M  V30 29627 C 2763.79 3.43194 1.08379 0
M  V30 29628 C 2763.4 4.48 -0.00499263 0
M  V30 29629 C 2765.14 3.87971 1.72274 0
M  V30 29630 C 2763.05 5.89169 0.513195 0
M  V30 29631 H 2761.98 0.721014 0.220578 0
M  V30 29632 H 2764.63 1.82804 -0.159653 0
M  V30 29633 H 2763.01 3.48677 1.87724 0
M  V30 29634 H 2764.19 4.54149 -0.780112 0
M  V30 29635 H 2762.5 4.12771 -0.548526 0
M  V30 29636 H 2765.1 4.90834 2.12099 0
M  V30 29637 H 2765.44 3.26076 2.58805 0
M  V30 29638 H 2765.98 3.85148 0.995291 0
M  V30 29639 H 2762.72 6.54741 -0.315268 0
M  V30 29640 H 2762.24 5.86512 1.25554 0
M  V30 29641 H 2763.91 6.39453 0.985321 0
M  V30 29642 N 2764.05 -0.188399 1.5647 0
M  V30 29643 C 2764.98 -1.25766 1.91613 0
M  V30 29644 C 2765.99 -1.41364 0.807461 0
M  V30 29645 O 2767.18 -1.41671 1.08589 0
M  V30 29646 C 2764.28 -2.62886 2.13879 0
M  V30 29647 C 2763.45 -2.68809 3.45051 0
M  V30 29648 C 2762.51 -3.87172 3.56349 0
M  V30 29649 O 2761.54 -3.73963 4.29116 0
M  V30 29650 N 2762.74 -5.02911 2.89932 0
M  V30 29651 H 2765.51 -0.959323 2.83931 0
M  V30 29652 H 2763.07 -0.378278 1.57419 0
M  V30 29653 H 2765.06 -3.40506 2.18718 0
M  V30 29654 H 2763.63 -2.8518 1.28027 0
M  V30 29655 H 2762.85 -1.77412 3.52021 0
M  V30 29656 H 2764.14 -2.69763 4.314 0
M  V30 29657 H 2763.53 -5.16542 2.30653 0
M  V30 29658 H 2762.09 -5.78454 3.0039 0
M  V30 29659 N 2765.53 -1.50848 -0.456355 0
M  V30 29660 C 2766.76 -1.6611 -1.22845 0
M  V30 29661 C 2767.16 -0.34993 -1.85936 0
M  V30 29662 O 2766.51 0.679635 -1.70665 0
M  V30 29663 C 2766.57 -2.70565 -2.36717 0
M  V30 29664 C 2766.23 -4.1371 -1.94147 0
M  V30 29665 C 2767.23 -4.99107 -1.45561 0
M  V30 29666 C 2764.91 -4.59709 -2.02418 0
M  V30 29667 C 2766.91 -6.28556 -1.05809 0
M  V30 29668 C 2764.6 -5.8916 -1.62277 0
M  V30 29669 C 2765.59 -6.7341 -1.14052 0
M  V30 29670 O 2765.28 -8.00443 -0.744732 0
M  V30 29671 H 2765.01 -0.561048 -0.377095 0
M  V30 29672 H 2767.57 -1.97916 -0.549396 0
M  V30 29673 H 2765.8 -2.34033 -3.0784 0
M  V30 29674 H 2767.49 -2.74897 -2.98641 0
M  V30 29675 H 2768.25 -4.6478 -1.38581 0
M  V30 29676 H 2764.13 -3.94268 -2.38901 0
M  V30 29677 H 2767.68 -6.94268 -0.680978 0
M  V30 29678 H 2763.57 -6.23006 -1.68921 0
M  V30 29679 H 2764.34 -8.13839 -0.872277 0
M  V30 29680 N 2767 0.710538 -1.40674 0
M  V30 29681 C 2768.42 1.01925 -1.22814 0
M  V30 29682 C 2768.62 2.01216 -0.106905 0
M  V30 29683 O 2767.68 2.46798 0.533571 0
M  V30 29684 C 2768.99 1.55815 -2.57181 0
M  V30 29685 C 2770.54 1.67775 -2.64236 0
M  V30 29686 C 2771.01 2.25069 -3.98883 0
M  V30 29687 N 2772.5 2.32449 -4.00652 0
M  V30 29688 C 2773.24 2.77775 -5.01626 0
M  V30 29689 N 2772.73 3.22815 -6.12994 0
M  V30 29690 N 2774.53 2.77204 -4.88993 0
M  V30 29691 H 2766.68 0.0524927 -2.12335 0
M  V30 29692 H 2768.94 0.0858814 -0.944102 0
M  V30 29693 H 2768.65 0.903189 -3.39905 0
M  V30 29694 H 2768.52 2.54262 -2.78622 0
M  V30 29695 H 2770.91 2.32387 -1.8188 0
M  V30 29696 H 2770.99 0.679134 -2.4662 0
M  V30 29697 H 2770.63 1.61077 -4.81681 0
M  V30 29698 H 2770.56 3.25654 -4.13832 0
M  V30 29699 H 2773.05 2.00645 -3.20235 0
M  V30 29700 H 2773.37 3.55983 -6.85927 0
M  V30 29701 H 2771.71 3.20762 -6.16552 0
M  V30 29702 H 2774.9 2.41356 -4.0108 0
M  V30 29703 H 2775.08 3.12211 -5.67827 0
M  V30 29704 N 2768.48 1.26254 0.943277 0
M  V30 29705 C 2769.73 1.11674 1.68923 0
M  V30 29706 C 2770.06 -0.340295 1.915 0
M  V30 29707 O 2769.31 -1.26651 1.49191 0
M  V30 29708 C 2769.61 1.82874 3.0707 0
M  V30 29709 C 2769.28 3.32775 3.04256 0
M  V30 29710 C 2767.94 3.73665 3.03196 0
M  V30 29711 C 2770.29 4.28492 2.96722 0
M  V30 29712 C 2767.62 5.08665 2.92364 0
M  V30 29713 C 2769.97 5.6353 2.87432 0
M  V30 29714 C 2768.63 6.03734 2.84713 0
M  V30 29715 H 2767.9 0.408646 0.618134 0
M  V30 29716 H 2770.55 1.5667 1.10121 0
M  V30 29717 H 2768.86 1.30341 3.69484 0
M  V30 29718 H 2770.55 1.69035 3.63632 0
M  V30 29719 H 2767.14 3.00246 3.0586 0
M  V30 29720 H 2771.33 3.97884 2.96651 0
M  V30 29721 H 2766.58 5.3898 2.88636 0
M  V30 29722 H 2770.76 6.37382 2.80565 0
M  V30 29723 H 2768.38 7.08298 2.76076 0
M  V30 29724 N 2769.96 -1.14755 1.08024 0
M  V30 29725 C 2771.21 -1.85701 0.807541 0
M  V30 29726 C 2771.53 -1.82721 -0.666585 0
M  V30 29727 O 2770.79 -1.25021 -1.5056 0
M  V30 29728 C 2771.09 -3.34086 1.2697 0
M  V30 29729 C 2770.75 -3.57258 2.75096 0
M  V30 29730 C 2769.42 -3.6329 3.15553 0
M  V30 29731 C 2771.77 -3.66402 3.70673 0
M  V30 29732 C 2769.1 -3.75986 4.5039 0
M  V30 29733 C 2771.45 -3.80623 5.05281 0
M  V30 29734 C 2770.11 -3.84904 5.45349 0
M  V30 29735 H 2769.38 -0.67953 0.2955 0
M  V30 29736 H 2772.03 -1.35574 1.35248 0
M  V30 29737 H 2770.33 -3.86466 0.644284 0
M  V30 29738 H 2772.03 -3.87399 1.03551 0
M  V30 29739 H 2768.62 -3.53207 2.42781 0
M  V30 29740 H 2772.81 -3.61035 3.4054 0
M  V30 29741 H 2768.06 -3.7756 4.80893 0
M  V30 29742 H 2772.24 -3.86642 5.79207 0
M  V30 29743 H 2769.86 -3.94494 6.4983 0
M  V30 29744 N 2771.44 -0.865331 -1.31719 0
M  V30 29745 C 2772.69 -0.470132 -1.96144 0
M  V30 29746 C 2773 0.981644 -1.69184 0
M  V30 29747 O 2774.21 1.48277 -2.27434 0
M  V30 29748 C 2772.66 -0.789794 -3.51127 0
M  V30 29749 C 2772.27 -2.25802 -3.86934 0
M  V30 29750 C 2774.01 -0.462839 -4.21969 0
M  V30 29751 C 2771.92 -2.52034 -5.35007 0
M  V30 29752 H 2770.85 -0.172078 -0.734102 0
M  V30 29753 H 2773.5 -1.05759 -1.49957 0
M  V30 29754 H 2771.88 -0.131641 -3.95781 0
M  V30 29755 H 2773.06 -2.95885 -3.53255 0
M  V30 29756 H 2771.37 -2.55055 -3.29144 0
M  V30 29757 H 2773.97 -0.636113 -5.30903 0
M  V30 29758 H 2774.31 0.596378 -4.12006 0
M  V30 29759 H 2774.85 -1.07734 -3.82934 0
M  V30 29760 H 2771.58 -3.56621 -5.50002 0
M  V30 29761 H 2771.1 -1.8654 -5.70055 0
M  V30 29762 H 2772.78 -2.36526 -6.02216 0
M  V30 29763 N 2772.92 1.44707 -0.624311 0
M  V30 29764 C 2774.33 1.56955 -0.28935 0
M  V30 29765 C 2774.53 1.61297 1.2077 0
M  V30 29766 O 2773.59 1.55231 1.99147 0
M  V30 29767 C 2774.9 2.84445 -0.975265 0
M  V30 29768 C 2776.45 2.98147 -0.952762 0
M  V30 29769 C 2776.92 4.2843 -1.61901 0
M  V30 29770 N 2778.41 4.35228 -1.58528 0
M  V30 29771 C 2779.15 5.3474 -2.06979 0
M  V30 29772 N 2778.65 6.40697 -2.6359 0
M  V30 29773 N 2780.44 5.26205 -1.97648 0
M  V30 29774 H 2772.59 1.40132 -1.59615 0
M  V30 29775 H 2774.85 0.67107 -0.669604 0
M  V30 29776 H 2774.56 2.87197 -2.03004 0
M  V30 29777 H 2774.43 3.73752 -0.508815 0
M  V30 29778 H 2776.82 2.94952 0.0935162 0
M  V30 29779 H 2776.9 2.10206 -1.45764 0
M  V30 29780 H 2776.54 4.32384 -2.6647 0
M  V30 29781 H 2776.47 5.15216 -1.08902 0
M  V30 29782 H 2778.97 3.5927 -1.17189 0
M  V30 29783 H 2779.28 7.12903 -2.9831 0
M  V30 29784 H 2777.62 6.41401 -2.67637 0
M  V30 29785 H 2780.81 4.42339 -1.53147 0
M  V30 29786 H 2780.99 6.03606 -2.35719 0
M  V30 29787 N 2774.39 0.364449 1.53328 0
M  V30 29788 C 2775.8 -0.115006 1.86345 0
M  V30 29789 C 2776.16 -1.48258 1.28507 0
M  V30 29790 O 2775.28 -2.07722 0.606675 0
M  V30 29791 C 2775.88 -0.215462 3.38114 0
M  V30 29792 C 2774.43 -0.639171 3.70933 0
M  V30 29793 C 2773.58 0.214309 2.76471 0
M  V30 29794 H 2776.53 0.583284 1.47592 0
M  V30 29795 H 2776.55 -1.03924 3.66033 0
M  V30 29796 H 2776.07 0.780015 3.80181 0
M  V30 29797 H 2774.17 -1.64292 3.34423 0
M  V30 29798 H 2774.28 -0.414567 4.77303 0
M  V30 29799 H 2772.64 -0.316633 2.52724 0
M  V30 29800 H 2773.43 1.20731 3.21371 0
M  V30 29801 N 2775.87 -1.57322 0.0935872 0
M  V30 29802 C 2777.29 -1.57417 -0.263063 0
M  V30 29803 C 2777.49 -1.10463 -1.68524 0
M  V30 29804 O 2776.54 -0.780399 -2.40137 0
M  V30 29805 C 2777.86 -3.00654 -0.0528673 0
M  V30 29806 C 2779.4 -3.12767 -0.120733 0
M  V30 29807 C 2779.88 -4.57959 0.0614512 0
M  V30 29808 N 2781.37 -4.632 0.00656676 0
M  V30 29809 C 2782.11 -5.73268 0.1228 0
M  V30 29810 N 2781.6 -6.92177 0.293782 0
M  V30 29811 N 2783.39 -5.62063 0.0641775 0
M  V30 29812 H 2775.55 -1.86152 1.0228 0
M  V30 29813 H 2777.81 -0.859146 0.400715 0
M  V30 29814 H 2777.51 -3.39199 0.929338 0
M  V30 29815 H 2777.39 -3.68709 -0.795835 0
M  V30 29816 H 2779.78 -2.74095 -1.09344 0
M  V30 29817 H 2779.86 -2.47306 0.6537 0
M  V30 29818 H 2779.5 -4.97325 1.03102 0
M  V30 29819 H 2779.43 -5.21478 -0.732656 0
M  V30 29820 H 2781.92 -3.77699 -0.123107 0
M  V30 29821 H 2782.23 -7.71894 0.374026 0
M  V30 29822 H 2780.58 -6.94219 0.329429 0
M  V30 29823 H 2783.77 -4.6805 -0.0682574 0
M  V30 29824 H 2783.94 -6.47807 0.158211 0
M  V30 29825 N 2777.35 0.180099 -1.56568 0
M  V30 29826 C 2778.76 0.743392 -1.71262 0
M  V30 29827 C 2779.11 1.83186 -0.702662 0
M  V30 29828 O 2778.24 2.15961 0.137818 0
M  V30 29829 C 2778.83 1.35523 -3.10514 0
M  V30 29830 C 2777.39 1.86544 -3.26922 0
M  V30 29831 C 2776.54 0.741052 -2.67215 0
M  V30 29832 H 2779.49 -0.0451822 -1.58636 0
M  V30 29833 H 2779.51 2.22483 -3.08677 0
M  V30 29834 H 2779.02 0.562795 -3.83998 0
M  V30 29835 H 2777.12 2.68459 -2.58381 0
M  V30 29836 H 2777.24 2.01692 -4.34577 0
M  V30 29837 H 2775.6 1.15923 -2.2679 0
M  V30 29838 H 2776.38 -0.0393894 -3.43277 0
M  V30 29839 N 2778.83 1.51088 0.448349 0
M  V30 29840 C 2780.07 1.63452 1.20046 0
M  V30 29841 C 2780.41 0.344478 1.9112 0
M  V30 29842 O 2779.68 -0.655364 1.83126 0
M  V30 29843 C 2779.96 2.83042 2.22619 0
M  V30 29844 C 2779.82 4.21992 1.55701 0
M  V30 29845 C 2781.14 2.98157 3.23713 0
M  V30 29846 H 2778.26 0.594878 0.435074 0
M  V30 29847 H 2780.9 1.83542 0.491151 0
M  V30 29848 H 2779.05 2.66044 2.83113 0
M  V30 29849 H 2780.72 4.50633 0.986288 0
M  V30 29850 H 2778.96 4.25199 0.859573 0
M  V30 29851 H 2779.63 5.01641 2.30348 0
M  V30 29852 H 2782.11 3.13793 2.73264 0
M  V30 29853 H 2780.99 3.83417 3.92788 0
M  V30 29854 H 2781.25 2.09749 3.89175 0
M  V30 29855 N 2780.31 -0.703068 1.41049 0
M  V30 29856 C 2781.25 -1.8384 1.42498 0
M  V30 29857 C 2782.25 -1.66651 0.303914 0
M  V30 29858 O 2783.45 -1.73604 0.475575 0
M  V30 29859 H 2779.83 -0.605689 0.445696 0
M  V30 29860 H 2781.8 -1.79734 2.38198 0
M  V30 29861 C 2780.55 -3.21804 1.31671 0
M  V30 29862 H 2779.87 -3.35643 2.17218 0
M  V30 29863 H 2781.31 -4.01344 1.36745 0
M  V30 29864 C 2779.77 -3.36888 0.028242 0
M  V30 29865 O 2780.3 -3.90788 -0.929927 0
M  V30 29866 N 2778.51 -2.90565 -0.0453812 0
M  V30 29867 H 2778.05 -2.46889 0.73509 0
M  V30 29868 H 2778.01 -3.01036 -0.906915 0
M  V30 29869 N 2781.78 -1.26752 -0.936569 0
M  V30 29870 C 2782.75 -1.08764 -2.0175 0
M  V30 29871 C 2783.75 -0.0344718 -1.60763 0
M  V30 29872 O 2784.94 -0.278288 -1.71963 0
M  V30 29873 C 2782.07 -0.65533 -3.34542 0
M  V30 29874 H 2783.26 -2.04739 -2.19139 0
M  V30 29875 H 2780.82 -1.09415 -1.11616 0
M  V30 29876 H 2781.55 0.306203 -3.22851 0
M  V30 29877 H 2781.34 -1.41584 -3.65645 0
M  V30 29878 H 2782.83 -0.551451 -4.13943 0
M  V30 29879 N 2783.26 1.1418 -1.08631 0
M  V30 29880 C 2784.21 2.19337 -0.718338 0
M  V30 29881 C 2785.18 1.63431 0.296558 0
M  V30 29882 O 2786.36 1.89949 0.180046 0
M  V30 29883 C 2783.5 3.44831 -0.136264 0
M  V30 29884 C 2782.62 4.14877 -1.20421 0
M  V30 29885 C 2781.75 5.27961 -0.585759 0
M  V30 29886 C 2780.79 5.89843 -1.63559 0
M  V30 29887 N 2779.93 6.94373 -1.03876 0
M  V30 29888 H 2784.77 2.50161 -1.61937 0
M  V30 29889 H 2782.31 1.22842 -0.809211 0
M  V30 29890 H 2784.26 4.16625 0.218948 0
M  V30 29891 H 2782.89 3.14482 0.728065 0
M  V30 29892 H 2781.95 3.41448 -1.67682 0
M  V30 29893 H 2783.26 4.56962 -1.99967 0
M  V30 29894 H 2782.41 6.06436 -0.178924 0
M  V30 29895 H 2781.15 4.87103 0.241334 0
M  V30 29896 H 2780.16 5.10069 -2.05206 0
M  V30 29897 H 2781.38 6.32775 -2.4652 0
M  V30 29898 H 2779.33 6.55587 -0.232803 0
M  V30 29899 H 2779.24 7.34957 -1.77129 0
M  V30 29900 H 2780.51 7.76719 -0.65786 0
M  V30 29901 N 2784.74 0.872304 1.31258 0
M  V30 29902 C 2785.67 0.345595 2.30928 0
M  V30 29903 C 2786.65 -0.564772 1.6045 0
M  V30 29904 O 2787.84 -0.481301 1.88141 0
M  V30 29905 C 2784.97 -0.451762 3.44349 0
M  V30 29906 C 2783.92 0.365716 4.26435 0
M  V30 29907 C 2783.25 -0.557469 5.31786 0
M  V30 29908 C 2784.55 1.60104 4.97156 0
M  V30 29909 H 2786.24 1.17846 2.75232 0
M  V30 29910 H 2783.79 0.568117 1.32319 0
M  V30 29911 H 2785.74 -0.830782 4.13129 0
M  V30 29912 H 2784.46 -1.31816 2.98818 0
M  V30 29913 H 2783.12 0.726712 3.59325 0
M  V30 29914 H 2782.77 -1.42121 4.82505 0
M  V30 29915 H 2782.47 -0.0143845 5.87598 0
M  V30 29916 H 2783.99 -0.933281 6.03425 0
M  V30 29917 H 2785.41 1.29333 5.58521 0
M  V30 29918 H 2783.81 2.08337 5.62775 0
M  V30 29919 H 2784.88 2.35257 4.24007 0
M  V30 29920 N 2786.22 -1.44374 0.631976 0
M  V30 29921 C 2787.44 -2.06912 0.142182 0
M  V30 29922 C 2787.87 -1.46922 -1.17454 0
M  V30 29923 O 2787.23 -0.571005 -1.72073 0
M  V30 29924 C 2787.27 -3.60576 0.0418586 0
M  V30 29925 O 2786.38 -4.00045 -1.00187 0
M  V30 29926 H 2785.72 -0.658516 0.0851607 0
M  V30 29927 H 2788.25 -1.85233 0.868895 0
M  V30 29928 H 2788.26 -4.0773 -0.148445 0
M  V30 29929 H 2786.93 -4.0362 1.00318 0
M  V30 29930 H 2785.51 -3.64521 -0.786067 0
M  V30 29931 N 2787.7 -0.372575 -1.53133 0
M  V30 29932 C 2789.11 0.105123 -1.86404 0
M  V30 29933 C 2789.46 1.47574 -1.29292 0
M  V30 29934 O 2788.58 2.07397 -0.617683 0
M  V30 29935 C 2789.18 0.197528 -3.38224 0
M  V30 29936 C 2787.74 0.619491 -3.71267 0
M  V30 29937 C 2786.88 -0.228968 -2.76353 0
M  V30 29938 H 2789.84 -0.591103 -1.47281 0
M  V30 29939 H 2789.86 1.01981 -3.66579 0
M  V30 29940 H 2789.37 -0.800166 -3.79762 0
M  V30 29941 H 2787.47 1.62516 -3.3529 0
M  V30 29942 H 2787.58 0.389248 -4.77516 0
M  V30 29943 H 2785.95 0.303226 -2.52889 0
M  V30 29944 H 2786.73 -1.22433 -3.20726 0
M  V30 29945 N 2789.17 1.5727 -0.101929 0
M  V30 29946 C 2790.1 2.1742 0.851506 0
M  V30 29947 C 2791.09 1.10944 1.2894 0
M  V30 29948 O 2792.27 1.3911 1.35507 0
M  V30 29949 C 2789.4 2.76 2.10811 0
M  V30 29950 C 2788.35 3.87909 1.8086 0
M  V30 29951 C 2787.68 4.33221 3.13406 0
M  V30 29952 C 2788.98 5.10795 1.09021 0
M  V30 29953 H 2790.67 2.97343 0.350329 0
M  V30 29954 H 2788.22 1.43028 0.167065 0
M  V30 29955 H 2790.17 3.16733 2.77953 0
M  V30 29956 H 2788.9 1.93342 2.63223 0
M  V30 29957 H 2787.56 3.47726 1.16113 0
M  V30 29958 H 2787.2 3.47444 3.63719 0
M  V30 29959 H 2786.9 5.08677 2.94146 0
M  V30 29960 H 2788.43 4.76593 3.81695 0
M  V30 29961 H 2789.84 5.48655 1.66286 0
M  V30 29962 H 2788.24 5.91723 0.999166 0
M  V30 29963 H 2789.31 4.84843 0.0740852 0
M  V30 29964 N 2790.65 -0.171793 1.56661 0
M  V30 29965 C 2791.6 -1.23203 1.97291 0
M  V30 29966 C 2792.59 -1.45853 0.861591 0
M  V30 29967 O 2793.8 -1.46438 1.0467 0
M  V30 29968 H 2790.18 -0.414139 0.627689 0
M  V30 29969 H 2792.15 -0.862492 2.85664 0
M  V30 29970 C 2790.9 -2.56396 2.34854 0
M  V30 29971 H 2790.22 -2.39791 3.19907 0
M  V30 29972 H 2791.66 -3.29271 2.67127 0
M  V30 29973 C 2790.12 -3.15116 1.19177 0
M  V30 29974 O 2790.65 -3.98832 0.479183 0
M  V30 29975 N 2788.85 -2.74199 0.962463 0
M  V30 29976 H 2788.4 -2.06223 1.54369 0
M  V30 29977 H 2788.36 -3.13823 0.190327 0
M  V30 29978 N 2792.13 -1.51324 -0.44033 0
M  V30 29979 C 2793.41 -1.54382 -1.20106 0
M  V30 29980 C 2793.79 -0.306339 -2.08865 0
M  V30 29981 O 2793.14 0.708735 -2.17231 0
M  V30 29982 C 2793.35 -2.85623 -2.0055 0
M  V30 29983 C 2794.69 -3.3746 -2.57694 0
M  V30 29984 O 2795.72 -2.87153 -2.10764 0
M  V30 29985 O 2794.58 -4.2523 -3.43281 0
M  V30 29986 H 2791.67 -0.620561 -0.546657 0
M  V30 29987 H 2794.22 -1.63635 -0.449644 0
M  V30 29988 H 2792.99 -3.6715 -1.35339 0
M  V30 29989 H 2792.61 -2.79519 -2.82763 0
M  V30 29990 N 2793.61 0.695578 -1.41419 0
M  V30 29991 C 2794.52 1.8393 -1.45626 0
M  V30 29992 C 2795.53 1.70508 -0.346855 0
M  V30 29993 O 2796.71 1.92423 -0.594574 0
M  V30 29994 C 2793.78 3.19911 -1.33633 0
M  V30 29995 C 2792.84 3.45442 -2.54888 0
M  V30 29996 C 2792.07 4.74936 -2.43458 0
M  V30 29997 O 2792.29 5.51421 -1.45914 0
M  V30 29998 O 2791.23 5.0125 -3.33215 0
M  V30 29999 H 2795.05 1.83338 -2.42118 0
M  V30 30000 H 2792.64 0.848637 -1.22957 0
M  V30 30001 H 2794.52 4.01096 -1.29228 0
M  V30 30002 H 2793.19 3.21187 -0.402564 0
M  V30 30003 H 2792.1 2.64188 -2.64869 0
M  V30 30004 H 2793.43 3.48981 -3.47093 0
M  V30 30005 N 2795.09 1.27247 0.929833 0
M  V30 30006 C 2796.36 1.04189 1.65542 0
M  V30 30007 C 2796.74 -0.42406 2.06797 0
M  V30 30008 O 2796.09 -1.40684 1.80056 0
M  V30 30009 C 2796.3 2.00143 2.85909 0
M  V30 30010 C 2797.65 2.29393 3.57301 0
M  V30 30011 O 2798.67 1.981 2.96032 0
M  V30 30012 O 2797.53 2.82728 4.67683 0
M  V30 30013 H 2794.63 0.397024 0.725466 0
M  V30 30014 H 2797.17 1.38503 0.980559 0
M  V30 30015 H 2795.95 2.99017 2.52398 0
M  V30 30016 H 2795.57 1.66377 3.61115 0
M  V30 30017 N 2796.57 -1.13603 1.09235 0
M  V30 30018 C 2797.48 -2.22558 0.741978 0
M  V30 30019 C 2798.49 -1.72118 -0.255206 0
M  V30 30020 O 2799.67 -2.01166 -0.0970394 0
M  V30 30021 C 2796.73 -3.46304 0.165656 0
M  V30 30022 C 2795.79 -4.11643 1.21854 0
M  V30 30023 C 2795.03 -5.29483 0.669619 0
M  V30 30024 O 2795.25 -5.68132 -0.508128 0
M  V30 30025 O 2794.18 -5.8482 1.42371 0
M  V30 30026 H 2798.01 -2.54896 1.65111 0
M  V30 30027 H 2795.59 -1.21698 0.866605 0
M  V30 30028 H 2797.48 -4.21124 -0.152518 0
M  V30 30029 H 2796.15 -3.1567 -0.716518 0
M  V30 30030 H 2795.06 -3.38659 1.58937 0
M  V30 30031 H 2796.39 -4.46403 2.07328 0
M  V30 30032 N 2798.04 -0.879253 -1.30793 0
M  V30 30033 C 2799.32 -0.41512 -1.91144 0
M  V30 30034 C 2799.7 1.10365 -1.79952 0
M  V30 30035 O 2799.05 1.9364 -1.21309 0
M  V30 30036 C 2799.26 -0.906837 -3.37013 0
M  V30 30037 C 2800.61 -0.93843 -4.141 0
M  V30 30038 O 2801.63 -0.853114 -3.45833 0
M  V30 30039 O 2800.49 -1.06352 -5.36052 0
M  V30 30040 H 2797.58 -0.12592 -0.817357 0
M  V30 30041 H 2800.13 -0.967777 -1.39399 0
M  V30 30042 H 2798.9 -1.95059 -3.39216 0
M  V30 30043 H 2798.52 -0.333018 -3.96203 0
M  V30 30044 N 2799.52 1.44037 -0.639624 0
M  V30 30045 C 2800.77 2.02261 -0.147734 0
M  V30 30046 C 2801.1 1.50258 1.23029 0
M  V30 30047 O 2800.38 0.6901 1.81846 0
M  V30 30048 C 2800.66 3.59813 -0.143683 0
M  V30 30049 C 2800.51 4.22079 -1.55465 0
M  V30 30050 C 2801.83 4.3693 0.52724 0
M  V30 30051 H 2798.95 0.734933 -0.0551582 0
M  V30 30052 H 2801.59 1.71503 -0.817718 0
M  V30 30053 H 2799.74 3.86148 0.42683 0
M  V30 30054 H 2801.41 4.06822 -2.17471 0
M  V30 30055 H 2799.66 3.79249 -2.10601 0
M  V30 30056 H 2800.33 5.31122 -1.50378 0
M  V30 30057 H 2802.8 4.16079 0.0419772 0
M  V30 30058 H 2801.68 5.46624 0.499293 0
M  V30 30059 H 2801.94 4.12168 1.59907 0
M  V30 30060 N 2801 0.380691 1.52933 0
M  V30 30061 C 2802.42 0.030271 1.59571 0
M  V30 30062 C 2802.62 -1.45391 1.39512 0
M  V30 30063 O 2801.67 -2.21739 1.20781 0
M  V30 30064 C 2802.98 0.499743 2.96518 0
M  V30 30065 C 2804.53 0.455259 3.09671 0
M  V30 30066 C 2805.01 0.900782 4.49054 0
M  V30 30067 N 2806.5 0.856447 4.55213 0
M  V30 30068 C 2807.23 1.17269 5.6128 0
M  V30 30069 N 2806.73 1.55897 6.75032 0
M  V30 30070 N 2808.52 1.0945 5.51341 0
M  V30 30071 H 2800.67 1.34703 1.64222 0
M  V30 30072 H 2802.94 0.551568 0.771023 0
M  V30 30073 H 2802.64 1.536 3.16386 0
M  V30 30074 H 2802.52 -0.105723 3.77052 0
M  V30 30075 H 2804.9 -0.571898 2.89505 0
M  V30 30076 H 2804.98 1.09642 2.31111 0
M  V30 30077 H 2804.63 1.92613 4.6996 0
M  V30 30078 H 2804.56 0.236721 5.26068 0
M  V30 30079 H 2807.05 0.572079 3.73545 0
M  V30 30080 H 2807.36 1.78413 7.51923 0
M  V30 30081 H 2805.71 1.59776 6.76385 0
M  V30 30082 H 2808.9 0.791794 4.61355 0
M  V30 30083 H 2809.07 1.34428 6.33903 0
M  V30 30084 N 2802.48 -1.57214 0.110268 0
M  V30 30085 C 2803.89 -1.57687 -0.246352 0
M  V30 30086 C 2804.09 -1.12244 -1.67343 0
M  V30 30087 O 2803.15 -0.805825 -2.39296 0
M  V30 30088 C 2804.46 -3.00693 -0.020976 0
M  V30 30089 C 2806.01 -3.12878 -0.0875527 0
M  V30 30090 C 2806.49 -4.57868 0.11002 0
M  V30 30091 N 2807.98 -4.63167 0.0556949 0
M  V30 30092 C 2808.71 -5.73106 0.183596 0
M  V30 30093 N 2808.21 -6.91826 0.36718 0
M  V30 30094 N 2810 -5.61964 0.123788 0
M  V30 30095 H 2802.15 -1.85057 1.04249 0
M  V30 30096 H 2804.41 -0.854847 0.409805 0
M  V30 30097 H 2804.12 -3.38195 0.965263 0
M  V30 30098 H 2803.99 -3.69532 -0.756683 0
M  V30 30099 H 2806.38 -2.75239 -1.06431 0
M  V30 30100 H 2806.46 -2.46599 0.679893 0
M  V30 30101 H 2806.11 -4.96204 1.08371 0
M  V30 30102 H 2806.04 -5.22226 -0.677305 0
M  V30 30103 H 2808.53 -3.77809 -0.0830398 0
M  V30 30104 H 2808.84 -7.71454 0.455874 0
M  V30 30105 H 2807.19 -6.9383 0.403042 0
M  V30 30106 H 2810.38 -4.68096 -0.0186105 0
M  V30 30107 H 2810.55 -6.47603 0.226911 0
M  V30 30108 N 2803.96 0.163482 -1.5675 0
M  V30 30109 C 2804.87 1.22206 -2.00257 0
M  V30 30110 C 2805.88 1.47986 -0.91522 0
M  V30 30111 O 2807.06 1.5998 -1.22345 0
M  V30 30112 C 2804.12 2.53942 -2.36039 0
M  V30 30113 C 2803.18 2.35956 -3.58641 0
M  V30 30114 C 2802.42 3.61409 -3.92707 0
M  V30 30115 O 2802.64 4.66913 -3.27641 0
M  V30 30116 O 2801.57 3.55053 -4.86026 0
M  V30 30117 H 2805.4 0.882743 -2.90588 0
M  V30 30118 H 2802.98 0.370952 -1.44721 0
M  V30 30119 H 2804.87 3.31639 -2.59988 0
M  V30 30120 H 2803.54 2.87437 -1.48868 0
M  V30 30121 H 2802.45 1.56264 -3.39901 0
M  V30 30122 H 2803.78 2.07382 -4.46378 0
M  V30 30123 N 2805.43 1.51555 0.432299 0
M  V30 30124 C 2806.85 1.39843 0.76917 0
M  V30 30125 C 2807.05 0.48471 1.95583 0
M  V30 30126 O 2806.11 -0.0582385 2.52433 0
M  V30 30127 C 2807.42 2.81965 1.04482 0
M  V30 30128 C 2808.97 2.9115 1.14895 0
M  V30 30129 C 2809.44 4.3419 1.4575 0
M  V30 30130 N 2810.93 4.37319 1.52663 0
M  V30 30131 C 2811.67 5.45033 1.78119 0
M  V30 30132 N 2811.16 6.629 2.01334 0
M  V30 30133 N 2812.96 5.32519 1.79943 0
M  V30 30134 H 2805.11 2.0951 -0.349159 0
M  V30 30135 H 2807.37 0.943345 -0.0938279 0
M  V30 30136 H 2807.08 3.50842 0.245509 0
M  V30 30137 H 2806.95 3.21599 1.97114 0
M  V30 30138 H 2809.34 2.22467 1.93888 0
M  V30 30139 H 2809.42 2.55005 0.201523 0
M  V30 30140 H 2809.06 5.03424 0.672828 0
M  V30 30141 H 2808.99 4.67852 2.41707 0
M  V30 30142 H 2811.48 3.52345 1.36606 0
M  V30 30143 H 2811.8 7.40782 2.20142 0
M  V30 30144 H 2810.14 6.66007 1.98646 0
M  V30 30145 H 2813.33 4.39421 1.61329 0
M  V30 30146 H 2813.51 6.16544 1.99444 0
M  V30 30147 N 2806.91 -0.688069 1.41786 0
M  V30 30148 C 2807.84 -1.81348 1.40162 0
M  V30 30149 C 2808.86 -1.59962 0.302648 0
M  V30 30150 O 2810.05 -1.69326 0.564871 0
M  V30 30151 C 2807.15 -3.18238 1.16523 0
M  V30 30152 C 2806.32 -3.66589 2.38603 0
M  V30 30153 C 2805.38 -4.82171 2.10708 0
M  V30 30154 O 2804.4 -4.93399 2.83806 0
M  V30 30155 N 2805.61 -5.69945 1.10197 0
M  V30 30156 H 2808.37 -1.83231 2.37163 0
M  V30 30157 H 2805.93 -0.870673 1.36495 0
M  V30 30158 H 2807.92 -3.93197 0.95801 0
M  V30 30159 H 2806.49 -3.11335 0.280928 0
M  V30 30160 H 2805.71 -2.82454 2.74979 0
M  V30 30161 H 2807 -3.95632 3.19926 0
M  V30 30162 H 2806.4 -5.63512 0.497115 0
M  V30 30163 H 2804.96 -6.44771 0.954632 0
M  V30 30164 N 2808.39 -1.27739 -0.923072 0
M  V30 30165 C 2809.81 -1.05243 -1.19983 0
M  V30 30166 C 2810.01 0.211095 -2.00391 0
M  V30 30167 O 2809.06 0.915325 -2.35325 0
M  V30 30168 C 2810.37 -2.29454 -1.94348 0
M  V30 30169 C 2811.92 -2.34539 -2.07268 0
M  V30 30170 C 2812.4 -3.58492 -2.8504 0
M  V30 30171 N 2813.89 -3.59077 -2.92606 0
M  V30 30172 C 2814.62 -4.5166 -3.53258 0
M  V30 30173 N 2814.12 -5.54552 -4.15264 0
M  V30 30174 N 2815.91 -4.39274 -3.50706 0
M  V30 30175 H 2808.06 -2.08863 -0.386005 0
M  V30 30176 H 2810.33 -0.918821 -0.233391 0
M  V30 30177 H 2810.03 -3.21455 -1.42687 0
M  V30 30178 H 2809.91 -2.35135 -2.94943 0
M  V30 30179 H 2812.29 -1.43042 -2.58115 0
M  V30 30180 H 2812.37 -2.32859 -1.05879 0
M  V30 30181 H 2812.02 -4.50329 -2.34876 0
M  V30 30182 H 2811.95 -3.57425 -3.86724 0
M  V30 30183 H 2814.44 -2.84667 -2.48542 0
M  V30 30184 H 2814.75 -6.21356 -4.59496 0
M  V30 30185 H 2813.1 -5.58389 -4.13796 0
M  V30 30186 H 2816.29 -3.58098 -3.01469 0
M  V30 30187 H 2816.46 -5.11617 -3.97684 0
M  V30 30188 N 2809.87 1.13022 -1.09836 0
M  V30 30189 C 2811.12 1.83748 -0.831839 0
M  V30 30190 C 2811.43 1.84669 0.644731 0
M  V30 30191 O 2812.64 2.51329 1.02693 0
M  V30 30192 C 2811.09 3.29913 -1.43823 0
M  V30 30193 C 2810.7 3.37369 -2.94765 0
M  V30 30194 C 2812.44 4.05653 -1.25084 0
M  V30 30195 C 2810.35 4.77832 -3.48469 0
M  V30 30196 H 2809.28 0.688438 -0.307522 0
M  V30 30197 H 2811.93 1.27305 -1.32158 0
M  V30 30198 H 2810.31 3.86185 -0.876174 0
M  V30 30199 H 2811.49 2.91069 -3.57233 0
M  V30 30200 H 2809.8 2.75098 -3.12586 0
M  V30 30201 H 2812.4 5.09359 -1.62658 0
M  V30 30202 H 2812.74 4.15858 -0.191855 0
M  V30 30203 H 2813.28 3.55722 -1.78063 0
M  V30 30204 H 2810.02 4.7282 -4.54006 0
M  V30 30205 H 2809.54 5.24609 -2.90766 0
M  V30 30206 H 2811.21 5.4676 -3.45923 0
M  V30 30207 N 2811.35 0.886177 1.30325 0
M  V30 30208 C 2812.28 0.370068 2.30549 0
M  V30 30209 C 2813.26 -0.547722 1.6104 0
M  V30 30210 O 2814.44 -0.461319 1.88641 0
M  V30 30211 C 2811.57 -0.415214 3.44809 0
M  V30 30212 C 2810.53 0.410925 4.26023 0
M  V30 30213 C 2809.85 -0.501034 5.32347 0
M  V30 30214 C 2811.15 1.65368 4.9543 0
M  V30 30215 H 2812.85 1.20758 2.73967 0
M  V30 30216 H 2810.39 0.58212 1.31709 0
M  V30 30217 H 2812.35 -0.786917 4.13987 0
M  V30 30218 H 2811.07 -1.28639 3.00199 0
M  V30 30219 H 2809.73 0.764782 3.58534 0
M  V30 30220 H 2809.38 -1.36995 4.83985 0
M  V30 30221 H 2809.08 0.0479389 5.8758 0
M  V30 30222 H 2810.6 -0.869227 6.04381 0
M  V30 30223 H 2812.01 1.35249 5.57118 0
M  V30 30224 H 2810.41 2.14294 5.60534 0
M  V30 30225 H 2811.48 2.3974 4.21488 0
M  V30 30226 N 2812.82 -1.43695 0.647253 0
M  V30 30227 C 2814.1 -1.954 0.0884101 0
M  V30 30228 C 2814.48 -1.58875 -1.39003 0
M  V30 30229 O 2813.83 -0.870867 -2.11254 0
M  V30 30230 C 2814.04 -3.47452 0.328324 0
M  V30 30231 C 2815.39 -4.23976 0.230083 0
M  V30 30232 O 2816.41 -3.55246 0.260558 0
M  V30 30233 O 2815.27 -5.46298 0.148711 0
M  V30 30234 H 2812.36 -0.826897 -0.0130538 0
M  V30 30235 H 2814.91 -1.53665 0.720077 0
M  V30 30236 H 2813.68 -3.67143 1.35357 0
M  V30 30237 H 2813.31 -3.96172 -0.336702 0
M  V30 30238 N 2814.3 -0.388796 -1.52729 0
M  V30 30239 C 2815.55 0.193173 -2.01175 0
M  V30 30240 C 2815.87 1.47362 -1.27708 0
M  V30 30241 O 2815.14 1.91835 -0.396999 0
M  V30 30242 H 2813.72 0.074374 -0.743288 0
M  V30 30243 H 2816.38 -0.520369 -1.87825 0
M  V30 30244 H 2815.48 0.403749 -3.09477 0
M  V30 30245 N 2815.78 1.57153 -0.118604 0
M  V30 30246 C 2817.03 1.94796 0.538426 0
M  V30 30247 C 2817.35 1.00277 1.67241 0
M  V30 30248 O 2816.62 0.0590036 1.95811 0
M  V30 30249 H 2815.2 0.7192 0.201891 0
M  V30 30250 H 2817.86 1.93996 -0.187452 0
M  V30 30251 H 2816.96 2.9782 0.933262 0
M  V30 30252 N 2817.26 -0.155167 1.56834 0
M  V30 30253 C 2818.51 -0.86743 1.82538 0
M  V30 30254 C 2818.83 -1.82072 0.6982 0
M  V30 30255 O 2818.1 -1.93877 -0.280773 0
M  V30 30256 H 2816.68 -0.323315 0.673407 0
M  V30 30257 H 2819.34 -0.151122 1.94313 0
M  V30 30258 H 2818.44 -1.43461 2.77174 0
M  V30 30259 N 2818.74 -1.51782 -0.424256 0
M  V30 30260 C 2819.67 -1.70249 -1.53454 0
M  V30 30261 C 2820.68 -0.582993 -1.52003 0
M  V30 30262 O 2821.87 -0.857711 -1.56543 0
M  V30 30263 C 2818.97 -1.71394 -2.92365 0
M  V30 30264 C 2818.14 -3.00139 -3.18175 0
M  V30 30265 C 2817.2 -2.93298 -4.36879 0
M  V30 30266 O 2816.23 -3.67227 -4.34894 0
M  V30 30267 N 2817.43 -2.10046 -5.41166 0
M  V30 30268 H 2820.2 -2.66031 -1.38012 0
M  V30 30269 H 2817.76 -1.49831 -0.613368 0
M  V30 30270 H 2819.75 -1.64369 -3.69818 0
M  V30 30271 H 2818.32 -0.831502 -3.01338 0
M  V30 30272 H 2817.54 -3.20932 -2.28903 0
M  V30 30273 H 2818.83 -3.85337 -3.32254 0
M  V30 30274 H 2818.22 -1.49383 -5.4562 0
M  V30 30275 H 2816.78 -2.08889 -6.17421 0
M  V30 30276 N 2820.21 0.68054 -1.42149 0
M  V30 30277 C 2821.16 1.8155 -1.45404 0
M  V30 30278 C 2822.16 1.66147 -0.330389 0
M  V30 30279 O 2823.36 1.72825 -0.503134 0
M  V30 30280 H 2819.74 0.598522 -0.455275 0
M  V30 30281 H 2821.71 1.75922 -2.41027 0
M  V30 30282 C 2820.46 3.19669 -1.36774 0
M  V30 30283 H 2819.78 3.32145 -2.2253 0
M  V30 30284 H 2821.22 3.99117 -1.43113 0
M  V30 30285 C 2819.68 3.36801 -0.0818344 0
M  V30 30286 O 2820.21 3.92218 0.867638 0
M  V30 30287 N 2818.42 2.906 -0.000850892 0
M  V30 30288 H 2817.96 2.45688 -0.774275 0
M  V30 30289 H 2817.92 3.0244 0.858908 0
M  V30 30290 N 2821.69 1.28226 0.916285 0
M  V30 30291 C 2822.97 1.05939 1.64427 0
M  V30 30292 C 2823.35 -0.402103 2.07235 0
M  V30 30293 O 2822.7 -1.38767 1.81538 0
M  V30 30294 C 2822.91 2.03164 2.8377 0
M  V30 30295 C 2824.26 2.3317 3.54848 0
M  V30 30296 O 2825.28 2.01228 2.93914 0
M  V30 30297 O 2824.14 2.87672 4.64658 0
M  V30 30298 H 2821.23 0.404696 0.721214 0
M  V30 30299 H 2823.78 1.39535 0.965813 0
M  V30 30300 H 2822.55 3.01677 2.49212 0
M  V30 30301 H 2822.17 1.70198 3.5933 0
M  V30 30302 N 2823.17 -1.12438 1.10433 0
M  V30 30303 C 2824.42 -1.83304 0.841572 0
M  V30 30304 C 2824.73 -1.85008 -0.634928 0
M  V30 30305 O 2825.94 -2.5187 -1.01359 0
M  V30 30306 C 2824.39 -3.29146 1.45571 0
M  V30 30307 C 2824 -3.35801 2.9655 0
M  V30 30308 C 2825.75 -4.04984 1.27234 0
M  V30 30309 C 2823.65 -4.75977 3.50998 0
M  V30 30310 H 2822.58 -0.686797 0.311168 0
M  V30 30311 H 2825.23 -1.26602 1.32831 0
M  V30 30312 H 2823.62 -3.85715 0.896642 0
M  V30 30313 H 2824.79 -2.89171 3.58771 0
M  V30 30314 H 2823.11 -2.73436 3.14041 0
M  V30 30315 H 2825.7 -5.08489 1.65357 0
M  V30 30316 H 2826.05 -4.1575 0.213907 0
M  V30 30317 H 2826.58 -3.54773 1.79947 0
M  V30 30318 H 2823.32 -4.70405 4.56507 0
M  V30 30319 H 2822.84 -5.2306 2.93544 0
M  V30 30320 H 2824.52 -5.44917 3.48818 0
M  V30 30321 N 2824.65 -0.893076 -1.29853 0
M  V30 30322 C 2825.58 -0.382289 -2.30349 0
M  V30 30323 C 2826.56 0.539174 -1.61329 0
M  V30 30324 O 2827.75 0.451309 -1.88883 0
M  V30 30325 C 2824.88 0.396922 -3.45024 0
M  V30 30326 C 2823.83 -0.433512 -4.25799 0
M  V30 30327 C 2823.16 0.472796 -5.32606 0
M  V30 30328 C 2824.46 -1.67993 -4.94546 0
M  V30 30329 H 2826.15 -1.2221 -2.73322 0
M  V30 30330 H 2823.7 -0.589096 -1.31399 0
M  V30 30331 H 2825.65 0.764951 -4.14399 0
M  V30 30332 H 2824.37 1.27045 -3.00877 0
M  V30 30333 H 2823.03 -0.783786 -3.58123 0
M  V30 30334 H 2822.68 1.34427 -4.84704 0
M  V30 30335 H 2822.38 -0.0790991 -5.87547 0
M  V30 30336 H 2823.9 0.837163 -6.04834 0
M  V30 30337 H 2825.32 -1.38202 -5.56393 0
M  V30 30338 H 2823.71 -2.17264 -5.59389 0
M  V30 30339 H 2824.78 -2.41972 -4.20211 0
M  V30 30340 N 2826.13 1.4335 -0.654865 0
M  V30 30341 C 2827.04 2.34572 0.0363191 0
M  V30 30342 C 2828.05 1.53975 0.810405 0
M  V30 30343 O 2829.23 1.86621 0.757275 0
M  V30 30344 C 2826.29 3.32274 0.989675 0
M  V30 30345 C 2825.36 4.28775 0.212339 0
M  V30 30346 C 2824.59 5.2181 1.12028 0
M  V30 30347 O 2824.81 5.19307 2.35958 0
M  V30 30348 O 2823.75 5.98984 0.591805 0
M  V30 30349 H 2827.57 2.95174 -0.714579 0
M  V30 30350 H 2825.16 1.43519 -0.415055 0
M  V30 30351 H 2827.04 3.9235 1.53752 0
M  V30 30352 H 2825.71 2.74174 1.72077 0
M  V30 30353 H 2824.62 3.72174 -0.379127 0
M  V30 30354 H 2825.95 4.89861 -0.479224 0
M  V30 30355 N 2827.61 0.39689 1.52521 0
M  V30 30356 C 2828.85 -0.184149 2.00858 0
M  V30 30357 C 2829.17 -1.47263 1.28736 0
M  V30 30358 O 2830.37 -2.13418 1.67824 0
M  V30 30359 C 2828.83 -0.378724 3.57902 0
M  V30 30360 C 2828.44 0.89695 4.38929 0
M  V30 30361 C 2830.18 -0.915717 4.14506 0
M  V30 30362 C 2828.09 0.670236 5.8759 0
M  V30 30363 H 2827.02 -0.0725923 0.750497 0
M  V30 30364 H 2829.67 0.520456 1.75965 0
M  V30 30365 H 2828.05 -1.14536 3.79074 0
M  V30 30366 H 2829.23 1.66879 4.29521 0
M  V30 30367 H 2827.54 1.35945 3.93583 0
M  V30 30368 H 2830.14 -1.10117 5.23238 0
M  V30 30369 H 2830.48 -1.88694 3.7108 0
M  V30 30370 H 2831.01 -0.208453 3.97253 0
M  V30 30371 H 2827.75 1.61268 6.35353 0
M  V30 30372 H 2827.27 -0.0625314 5.99767 0
M  V30 30373 H 2828.95 0.307691 6.46268 0
M  V30 30374 N 2829.08 -1.57088 0.126936 0
M  V30 30375 C 2830.03 -2.1573 -0.820322 0
M  V30 30376 C 2831 -1.08449 -1.25809 0
M  V30 30377 O 2832.19 -1.36396 -1.3342 0
M  V30 30378 C 2829.33 -2.76727 -2.06194 0
M  V30 30379 C 2828.44 -3.9834 -1.67181 0
M  V30 30380 C 2827.57 -4.47399 -2.8637 0
M  V30 30381 C 2826.61 -5.61523 -2.43635 0
M  V30 30382 N 2825.75 -6.0529 -3.55764 0
M  V30 30383 H 2830.59 -2.96347 -0.31342 0
M  V30 30384 H 2828.13 -1.46403 -0.143004 0
M  V30 30385 H 2830.08 -3.10227 -2.78954 0
M  V30 30386 H 2828.71 -1.98787 -2.5433 0
M  V30 30387 H 2827.77 -3.7095 -0.842648 0
M  V30 30388 H 2829.08 -4.81077 -1.3178 0
M  V30 30389 H 2828.23 -4.82848 -3.67345 0
M  V30 30390 H 2826.97 -3.63627 -3.25003 0
M  V30 30391 H 2825.98 -5.2567 -1.61095 0
M  V30 30392 H 2827.2 -6.47067 -2.0611 0
M  V30 30393 H 2825.15 -5.24458 -3.94055 0
M  V30 30394 H 2825.06 -6.82903 -3.24313 0
M  V30 30395 H 2826.33 -6.4538 -4.37155 0
M  V30 30396 N 2830.56 0.146848 -1.56914 0
M  V30 30397 C 2831.47 1.20075 -2.01542 0
M  V30 30398 C 2832.49 1.47007 -0.930864 0
M  V30 30399 O 2833.66 1.58673 -1.24035 0
M  V30 30400 C 2830.73 2.51424 -2.38719 0
M  V30 30401 C 2829.79 2.32138 -3.61124 0
M  V30 30402 C 2829.02 3.57224 -3.96518 0
M  V30 30403 O 2829.25 4.63412 -3.32574 0
M  V30 30404 O 2828.18 3.49878 -4.89764 0
M  V30 30405 H 2832.01 0.851872 -2.91508 0
M  V30 30406 H 2829.59 0.355582 -1.45107 0
M  V30 30407 H 2831.47 3.28863 -2.63491 0
M  V30 30408 H 2830.15 2.85842 -1.51908 0
M  V30 30409 H 2829.05 1.5265 -3.41539 0
M  V30 30410 H 2830.39 2.02636 -4.48553 0
M  V30 30411 N 2832.04 1.52005 0.4162 0
M  V30 30412 C 2832.97 1.77797 1.51362 0
M  V30 30413 C 2833.95 0.628628 1.58058 0
M  V30 30414 O 2835.14 0.873509 1.73446 0
M  V30 30415 C 2832.27 1.92224 2.89253 0
M  V30 30416 C 2831.22 3.07785 2.9741 0
M  V30 30417 C 2830.55 3.07424 4.37486 0
M  V30 30418 C 2831.85 4.47374 2.69543 0
M  V30 30419 H 2833.54 2.69691 1.30028 0
M  V30 30420 H 2831.09 1.29773 0.624089 0
M  V30 30421 H 2833.04 2.08851 3.66004 0
M  V30 30422 H 2831.76 0.969972 3.11864 0
M  V30 30423 H 2830.42 2.90897 2.23102 0
M  V30 30424 H 2830.07 2.09933 4.57097 0
M  V30 30425 H 2829.77 3.85037 4.4387 0
M  V30 30426 H 2831.29 3.26171 5.16183 0
M  V30 30427 H 2832.71 4.64503 3.3602 0
M  V30 30428 H 2831.1 5.26851 2.87312 0
M  V30 30429 H 2832.17 4.55956 1.65021 0
M  V30 30430 N 2833.52 -0.672992 1.42508 0
M  V30 30431 C 2834.75 -1.46125 1.46476 0
M  V30 30432 C 2835.16 -1.88644 0.0766243 0
M  V30 30433 O 2834.52 -1.5825 -0.909029 0
M  V30 30434 C 2834.57 -2.70919 2.39343 0
M  V30 30435 O 2834.29 -2.30183 3.72756 0
M  V30 30436 C 2835.79 -3.64465 2.5235 0
M  V30 30437 H 2833.01 -0.449566 0.498128 0
M  V30 30438 H 2835.55 -0.826769 1.87042 0
M  V30 30439 H 2833.71 -3.30552 2.02025 0
M  V30 30440 H 2834.12 -3.10784 4.22509 0
M  V30 30441 H 2835.6 -4.48748 3.21448 0
M  V30 30442 H 2836.07 -4.10487 1.56196 0
M  V30 30443 H 2836.68 -3.10724 2.90397 0
M  V30 30444 N 2835 -1.2871 -0.909472 0
M  V30 30445 C 2835.94 -1.13004 -2.01243 0
M  V30 30446 C 2836.91 -0.0259976 -1.6608 0
M  V30 30447 O 2838.1 -0.191721 -1.89834 0
M  V30 30448 C 2835.24 -0.802374 -3.35643 0
M  V30 30449 C 2834.35 -1.98588 -3.83649 0
M  V30 30450 C 2833.49 -1.59846 -5.06579 0
M  V30 30451 C 2832.52 -2.74836 -5.46929 0
M  V30 30452 N 2831.66 -2.36557 -6.61048 0
M  V30 30453 H 2836.5 -2.07374 -2.14009 0
M  V30 30454 H 2834.04 -1.03207 -1.04818 0
M  V30 30455 H 2836 -0.593129 -4.12962 0
M  V30 30456 H 2834.63 0.1044 -3.22631 0
M  V30 30457 H 2833.68 -2.30713 -3.02449 0
M  V30 30458 H 2834.99 -2.84786 -4.0951 0
M  V30 30459 H 2834.14 -1.35153 -5.91455 0
M  V30 30460 H 2832.88 -0.707838 -4.82536 0
M  V30 30461 H 2831.89 -3.00223 -4.60593 0
M  V30 30462 H 2833.11 -3.64548 -5.72959 0
M  V30 30463 H 2831.06 -1.4997 -6.38627 0
M  V30 30464 H 2830.98 -3.16289 -6.86656 0
M  V30 30465 H 2832.24 -2.15159 -7.49218 0
M  V30 30466 N 2836.47 1.1185 -1.11028 0
M  V30 30467 C 2837.72 1.82855 -0.851281 0
M  V30 30468 C 2838.04 1.85342 0.625108 0
M  V30 30469 O 2839.24 2.52404 1.00022 0
M  V30 30470 C 2837.7 3.28369 -1.47314 0
M  V30 30471 C 2837.31 3.34224 -2.98326 0
M  V30 30472 C 2839.05 4.04303 -1.2938 0
M  V30 30473 C 2836.96 4.74109 -3.53517 0
M  V30 30474 H 2835.89 0.685137 -0.314806 0
M  V30 30475 H 2838.54 1.25896 -1.33501 0
M  V30 30476 H 2836.92 3.85234 -0.917085 0
M  V30 30477 H 2838.09 2.87264 -3.603 0
M  V30 30478 H 2836.41 2.71767 -3.15486 0
M  V30 30479 H 2839.01 5.07605 -1.68051 0
M  V30 30480 H 2839.35 4.15631 -0.235952 0
M  V30 30481 H 2839.88 3.53814 -1.81826 0
M  V30 30482 H 2836.62 4.67978 -4.58996 0
M  V30 30483 H 2836.14 5.21496 -2.96314 0
M  V30 30484 H 2837.82 5.4306 -3.51703 0
M  V30 30485 N 2837.95 0.89995 1.29378 0
M  V30 30486 C 2839.18 0.540636 1.99401 0
M  V30 30487 C 2839.59 -0.87911 1.67536 0
M  V30 30488 O 2838.93 -1.59184 0.916849 0
M  V30 30489 C 2838.99 0.653389 3.53512 0
M  V30 30490 C 2838.66 2.04016 4.08933 0
M  V30 30491 C 2839.66 3.01134 4.23809 0
M  V30 30492 C 2837.34 2.3496 4.43958 0
M  V30 30493 C 2839.33 4.27321 4.72943 0
M  V30 30494 C 2837.02 3.6139 4.92788 0
M  V30 30495 C 2838.02 4.57385 5.07236 0
M  V30 30496 O 2837.71 5.81569 5.55006 0
M  V30 30497 H 2837.44 0.206068 0.643826 0
M  V30 30498 H 2839.99 1.21137 1.65876 0
M  V30 30499 H 2838.22 -0.074377 3.86628 0
M  V30 30500 H 2839.91 0.303189 4.04766 0
M  V30 30501 H 2840.68 2.78542 3.97038 0
M  V30 30502 H 2836.56 1.61002 4.31972 0
M  V30 30503 H 2840.1 5.02254 4.84135 0
M  V30 30504 H 2836 3.83813 5.18997 0
M  V30 30505 H 2836.77 5.84163 5.7332 0
M  V30 30506 N 2839.43 -1.43001 0.662458 0
M  V30 30507 C 2840.85 -1.56133 0.330862 0
M  V30 30508 C 2841.05 -1.64443 -1.16451 0
M  V30 30509 O 2840.1 -1.60456 -1.94962 0
M  V30 30510 C 2841.42 -2.81759 1.05034 0
M  V30 30511 C 2842.96 -2.95516 1.03148 0
M  V30 30512 C 2843.44 -4.23987 1.73203 0
M  V30 30513 N 2844.93 -4.30872 1.70011 0
M  V30 30514 C 2845.66 -5.29065 2.21084 0
M  V30 30515 N 2845.16 -6.33483 2.80484 0
M  V30 30516 N 2846.95 -5.2078 2.1153 0
M  V30 30517 H 2839.1 -1.35851 1.63274 0
M  V30 30518 H 2841.37 -0.65308 0.687161 0
M  V30 30519 H 2841.07 -2.81714 2.10547 0
M  V30 30520 H 2840.95 -3.72272 0.60773 0
M  V30 30521 H 2843.33 -2.95096 -0.015282 0
M  V30 30522 H 2843.42 -2.06267 1.51286 0
M  V30 30523 H 2843.06 -4.25167 2.7784 0
M  V30 30524 H 2842.99 -5.12148 1.22524 0
M  V30 30525 H 2845.48 -3.56037 1.26673 0
M  V30 30526 H 2845.79 -7.04743 3.17107 0
M  V30 30527 H 2844.14 -6.3408 2.84549 0
M  V30 30528 H 2847.33 -4.38123 1.64821 0
M  V30 30529 H 2847.5 -5.97145 2.51639 0
M  V30 30530 N 2840.91 -0.404973 -1.52308 0
M  V30 30531 C 2842.32 -0.0556535 -1.59503 0
M  V30 30532 C 2842.52 1.43154 -1.41807 0
M  V30 30533 O 2841.58 2.19789 -1.24293 0
M  V30 30534 C 2842.89 -0.546853 -2.95686 0
M  V30 30535 C 2844.44 -0.504467 -3.08908 0
M  V30 30536 C 2844.92 -0.972109 -4.47565 0
M  V30 30537 N 2846.41 -0.928759 -4.53793 0
M  V30 30538 C 2847.14 -1.26183 -5.59344 0
M  V30 30539 N 2846.64 -1.66616 -6.72466 0
M  V30 30540 N 2848.43 -1.18207 -5.4953 0
M  V30 30541 H 2840.58 -1.37299 -1.62058 0
M  V30 30542 H 2842.85 -0.563764 -0.762151 0
M  V30 30543 H 2842.55 -1.58614 -3.13902 0
M  V30 30544 H 2842.43 0.0457242 -3.77172 0
M  V30 30545 H 2844.81 0.525768 -2.90379 0
M  V30 30546 H 2844.89 -1.13305 -2.29338 0
M  V30 30547 H 2844.54 -2.00065 -4.66837 0
M  V30 30548 H 2844.47 -0.320384 -5.25624 0
M  V30 30549 H 2846.96 -0.631434 -3.72587 0
M  V30 30550 H 2847.27 -1.90353 -7.4899 0
M  V30 30551 H 2845.62 -1.70516 -6.73758 0
M  V30 30552 H 2848.81 -0.865092 -4.60037 0
M  V30 30553 H 2848.98 -1.44496 -6.31684 0
M  V30 30554 N 2842.39 1.57018 -0.135265 0
M  V30 30555 C 2843.33 2.16162 0.80887 0
M  V30 30556 C 2844.3 1.09115 1.25232 0
M  V30 30557 O 2845.49 1.37101 1.32695 0
M  V30 30558 C 2842.63 2.77817 2.04724 0
M  V30 30559 C 2841.74 3.99221 1.65067 0
M  V30 30560 C 2840.88 4.48911 2.83994 0
M  V30 30561 C 2839.92 5.62808 2.40653 0
M  V30 30562 N 2839.05 6.07168 3.52549 0
M  V30 30563 H 2843.89 2.96509 0.297699 0
M  V30 30564 H 2841.43 1.46477 0.135238 0
M  V30 30565 H 2843.39 3.11702 2.77305 0
M  V30 30566 H 2842.02 2.00133 2.53272 0
M  V30 30567 H 2841.07 3.71391 0.822964 0
M  V30 30568 H 2842.38 4.81769 1.29227 0
M  V30 30569 H 2841.54 4.8479 3.64779 0
M  V30 30570 H 2840.27 3.65345 3.2307 0
M  V30 30571 H 2839.28 5.26517 1.58305 0
M  V30 30572 H 2840.5 6.48151 2.02676 0
M  V30 30573 H 2838.45 5.26541 3.91269 0
M  V30 30574 H 2838.37 6.84614 3.20687 0
M  V30 30575 H 2839.64 6.4769 4.33726 0
M  V30 30576 N 2843.86 -0.138524 1.5699 0
M  V30 30577 C 2845.28 -0.491446 1.51845 0
M  V30 30578 C 2845.48 -1.82922 0.845095 0
M  V30 30579 O 2844.54 -2.48996 0.419187 0
M  V30 30580 C 2845.85 -0.493935 2.96616 0
M  V30 30581 C 2847.4 -0.578859 3.07601 0
M  V30 30582 C 2847.87 -0.611929 4.53894 0
M  V30 30583 N 2849.36 -0.673916 4.58271 0
M  V30 30584 C 2850.1 -0.720629 5.68854 0
M  V30 30585 N 2849.59 -0.72617 6.88984 0
M  V30 30586 N 2851.39 -0.762155 5.56909 0
M  V30 30587 H 2843.54 0.738263 1.99157 0
M  V30 30588 H 2845.8 0.270165 0.908688 0
M  V30 30589 H 2845.51 0.420994 3.49171 0
M  V30 30590 H 2845.38 -1.32881 3.53019 0
M  V30 30591 H 2847.77 -1.48421 2.55059 0
M  V30 30592 H 2847.85 0.283331 2.54226 0
M  V30 30593 H 2847.49 0.289297 5.07075 0
M  V30 30594 H 2847.42 -1.49073 5.05059 0
M  V30 30595 H 2849.91 -0.676589 3.71794 0
M  V30 30596 H 2850.23 -0.763897 7.69015 0
M  V30 30597 H 2848.57 -0.693909 6.91527 0
M  V30 30598 H 2851.76 -0.755054 4.6197 0
M  V30 30599 H 2851.94 -0.795094 6.43104 0
M  V30 30600 N 2845.34 -1.52224 -0.408133 0
M  V30 30601 C 2846.29 -1.75637 -1.49734 0
M  V30 30602 C 2847.26 -0.598851 -1.54929 0
M  V30 30603 O 2848.44 -0.836511 -1.71485 0
M  V30 30604 C 2845.58 -1.91381 -2.87171 0
M  V30 30605 C 2844.7 -3.19032 -2.91277 0
M  V30 30606 C 2843.83 -3.25202 -4.2002 0
M  V30 30607 C 2842.87 -4.47051 -4.18105 0
M  V30 30608 N 2842.01 -4.50608 -5.38421 0
M  V30 30609 H 2846.85 -2.68598 -1.2907 0
M  V30 30610 H 2844.39 -1.33092 -0.626495 0
M  V30 30611 H 2846.34 -1.98493 -3.66956 0
M  V30 30612 H 2844.97 -1.018 -3.06327 0
M  V30 30613 H 2844.03 -3.21087 -2.03978 0
M  V30 30614 H 2845.34 -4.08854 -2.85727 0
M  V30 30615 H 2844.49 -3.31391 -5.08198 0
M  V30 30616 H 2843.23 -2.3332 -4.28267 0
M  V30 30617 H 2842.24 -4.41008 -3.28317 0
M  V30 30618 H 2843.46 -5.40228 -4.11497 0
M  V30 30619 H 2841.41 -3.6161 -5.47334 0
M  V30 30620 H 2841.32 -5.34276 -5.34869 0
M  V30 30621 H 2842.59 -4.61027 -6.28549 0
M  V30 30622 N 2846.82 0.665425 -1.42863 0
M  V30 30623 C 2848.23 1.24629 -1.39012 0
M  V30 30624 C 2848.58 1.96002 -0.0880629 0
M  V30 30625 O 2847.71 2.00551 0.812912 0
M  V30 30626 C 2848.3 2.26666 -2.51809 0
M  V30 30627 C 2846.86 2.80258 -2.51262 0
M  V30 30628 C 2846.01 1.54716 -2.30127 0
M  V30 30629 H 2848.96 0.45821 -1.51941 0
M  V30 30630 H 2848.98 3.08594 -2.22598 0
M  V30 30631 H 2848.49 1.74691 -3.46561 0
M  V30 30632 H 2846.59 3.36329 -1.60355 0
M  V30 30633 H 2846.71 3.28635 -3.4862 0
M  V30 30634 H 2845.07 1.81624 -1.78563 0
M  V30 30635 H 2845.85 1.04693 -3.26947 0
M  V30 30636 N 2848.3 1.29191 0.902633 0
M  V30 30637 C 2849.26 1.14075 1.98795 0
M  V30 30638 C 2850.26 0.0770832 1.60615 0
M  V30 30639 O 2851.45 0.323783 1.71165 0
M  V30 30640 C 2848.58 0.743797 3.32687 0
M  V30 30641 H 2849.78 2.10477 2.13634 0
M  V30 30642 H 2847.33 1.12336 1.08676 0
M  V30 30643 H 2848.06 -0.220498 3.2355 0
M  V30 30644 H 2847.85 1.51229 3.61763 0
M  V30 30645 H 2849.34 0.661007 4.12335 0
M  V30 30646 N 2849.78 -1.1126 1.1162 0
M  V30 30647 C 2851.02 -1.83309 0.867495 0
M  V30 30648 C 2851.36 -1.84525 -0.605333 0
M  V30 30649 O 2850.63 -1.29968 -1.44702 0
M  V30 30650 C 2850.91 -3.30397 1.43213 0
M  V30 30651 C 2850.77 -3.37565 2.97271 0
M  V30 30652 C 2852.09 -4.26526 1.08461 0
M  V30 30653 H 2849.2 -0.665537 0.31659 0
M  V30 30654 H 2851.85 -1.30452 1.38139 0
M  V30 30655 H 2850 -3.75541 0.995048 0
M  V30 30656 H 2851.67 -3.00965 3.49596 0
M  V30 30657 H 2849.91 -2.77727 3.33242 0
M  V30 30658 H 2850.58 -4.41099 3.31867 0
M  V30 30659 H 2853.06 -3.89571 1.46196 0
M  V30 30660 H 2851.93 -5.27824 1.50643 0
M  V30 30661 H 2852.2 -4.421 -0.00436797 0
M  V30 30662 N 2851.25 -0.906798 -1.28899 0
M  V30 30663 C 2852.53 -0.455571 -1.90221 0
M  V30 30664 C 2852.91 1.06523 -1.82252 0
M  V30 30665 O 2852.26 1.91023 -1.25389 0
M  V30 30666 C 2852.47 -0.978119 -3.35013 0
M  V30 30667 C 2853.82 -1.02606 -4.12016 0
M  V30 30668 O 2854.84 -0.926279 -3.43946 0
M  V30 30669 O 2853.7 -1.17698 -5.33675 0
M  V30 30670 H 2850.79 -0.143229 -0.814503 0
M  V30 30671 H 2853.34 -0.997128 -1.37315 0
M  V30 30672 H 2852.11 -2.0221 -3.35003 0
M  V30 30673 H 2851.74 -0.416983 -3.95407 0
M  V30 30674 N 2852.73 1.42648 -0.670032 0
M  V30 30675 C 2854.15 1.55955 -0.339137 0
M  V30 30676 C 2854.35 1.65058 1.15577 0
M  V30 30677 O 2853.4 1.61488 1.94108 0
M  V30 30678 C 2854.72 2.81198 -1.06527 0
M  V30 30679 C 2856.27 2.94965 -1.04713 0
M  V30 30680 C 2856.74 4.23062 -1.75449 0
M  V30 30681 N 2858.23 4.29964 -1.72294 0
M  V30 30682 C 2858.97 5.27885 -2.23886 0
M  V30 30683 N 2858.46 6.31986 -2.8384 0
M  V30 30684 N 2860.26 5.19651 -2.14288 0
M  V30 30685 H 2852.41 1.34983 -1.63992 0
M  V30 30686 H 2854.67 0.649427 -0.690615 0
M  V30 30687 H 2854.38 2.80594 -2.12038 0
M  V30 30688 H 2854.25 3.71945 -0.627464 0
M  V30 30689 H 2856.64 2.951 -0.000367837 0
M  V30 30690 H 2856.72 2.05462 -1.52378 0
M  V30 30691 H 2856.36 4.23688 -2.80091 0
M  V30 30692 H 2856.29 5.11491 -1.25238 0
M  V30 30693 H 2858.78 3.5536 -1.2856 0
M  V30 30694 H 2859.1 7.03052 -3.2084 0
M  V30 30695 H 2857.44 6.32562 -2.87908 0
M  V30 30696 H 2860.63 4.37243 -1.67142 0
M  V30 30697 H 2860.8 5.95802 -2.54803 0
M  V30 30698 N 2854.21 0.413044 1.52091 0
M  V30 30699 C 2855.46 -0.162835 2.01042 0
M  V30 30700 C 2855.77 -1.45889 1.30291 0
M  V30 30701 O 2856.98 -2.11626 1.70078 0
M  V30 30702 C 2855.44 -0.340743 3.58283 0
M  V30 30703 C 2855.04 0.943454 4.37953 0
M  V30 30704 C 2856.79 -0.871701 4.15454 0
M  V30 30705 C 2854.69 0.73252 5.86846 0
M  V30 30706 H 2853.62 -0.0646281 0.751225 0
M  V30 30707 H 2856.28 0.53909 1.75403 0
M  V30 30708 H 2854.66 -1.10509 3.80268 0
M  V30 30709 H 2855.83 1.71425 4.27727 0
M  V30 30710 H 2854.15 1.40112 3.92119 0
M  V30 30711 H 2856.74 -1.04561 5.24377 0
M  V30 30712 H 2857.09 -1.84748 3.7306 0
M  V30 30713 H 2857.62 -0.166308 3.97452 0
M  V30 30714 H 2854.36 1.67997 6.33606 0
M  V30 30715 H 2853.88 0.00108549 5.998 0
M  V30 30716 H 2855.56 0.376219 6.45905 0
M  V30 30717 N 2855.69 -1.56945 0.143591 0
M  V30 30718 C 2856.93 -1.97905 -0.511163 0
M  V30 30719 C 2857.29 -1.02643 -1.6226 0
M  V30 30720 O 2858.49 -1.32635 -2.33798 0
M  V30 30721 C 2856.77 -3.42906 -1.00747 0
M  V30 30722 S 2858.32 -4.0589 -1.6673 0
M  V30 30723 H 2855.14 -0.691497 -0.165387 0
M  V30 30724 H 2857.74 -1.94089 0.234498 0
M  V30 30725 H 2856.45 -4.0997 -0.187745 0
M  V30 30726 H 2855.98 -3.50428 -1.78783 0
M  V30 30727 H 2857.99 -3.98662 -2.95437 0
M  V30 30728 N 2857.17 0.130197 -1.57061 0
M  V30 30729 C 2858.41 0.841184 -1.84532 0
M  V30 30730 C 2858.75 1.80051 -0.727698 0
M  V30 30731 O 2858.02 1.92653 0.267386 0
M  V30 30732 C 2858.3 1.60094 -3.22555 0
M  V30 30733 C 2858.16 0.66197 -4.44902 0
M  V30 30734 C 2859.48 2.55967 -3.58007 0
M  V30 30735 H 2856.6 0.304355 -0.671221 0
M  V30 30736 H 2859.24 0.105787 -1.89705 0
M  V30 30737 H 2857.39 2.22784 -3.18276 0
M  V30 30738 H 2859.06 0.0447748 -4.61278 0
M  V30 30739 H 2857.3 -0.0273016 -4.33791 0
M  V30 30740 H 2857.97 1.22997 -5.38122 0
M  V30 30741 H 2860.45 2.03387 -3.63005 0
M  V30 30742 H 2859.33 3.06164 -4.55582 0
M  V30 30743 H 2859.59 3.38111 -2.84839 0
M  V30 30744 N 2858.65 1.52438 0.400055 0
M  V30 30745 C 2859.89 1.66612 1.14389 0
M  V30 30746 C 2860.21 0.402961 1.90791 0
M  V30 30747 O 2859.48 -0.582392 1.87043 0
M  V30 30748 H 2858.06 0.614133 0.425265 0
M  V30 30749 H 2860.73 1.89514 0.455043 0
M  V30 30750 H 2859.82 2.51142 1.85294 0
M  V30 30751 N 2860.12 -0.657839 1.43214 0
M  V30 30752 C 2861.37 -1.41362 1.43874 0
M  V30 30753 C 2861.69 -1.95492 0.0649324 0
M  V30 30754 O 2862.89 -2.71452 -0.0510319 0
M  V30 30755 C 2861.35 -2.55806 2.53162 0
M  V30 30756 C 2860.96 -2.08304 3.96628 0
M  V30 30757 C 2862.7 -3.33206 2.6301 0
M  V30 30758 C 2860.61 -3.19932 4.97391 0
M  V30 30759 H 2859.54 -0.531126 0.535183 0
M  V30 30760 H 2862.19 -0.710514 1.69186 0
M  V30 30761 H 2860.57 -3.28566 2.21043 0
M  V30 30762 H 2861.74 -1.42585 4.38185 0
M  V30 30763 H 2860.06 -1.43797 3.90783 0
M  V30 30764 H 2862.66 -4.16372 3.35468 0
M  V30 30765 H 2863 -3.80929 1.67925 0
M  V30 30766 H 2863.53 -2.67524 2.94407 0
M  V30 30767 H 2860.27 -2.77182 5.94012 0
M  V30 30768 H 2859.79 -3.84377 4.6045 0
M  V30 30769 H 2861.47 -3.85136 5.19884 0
M  V30 30770 N 2861.6 -1.29668 -0.895769 0
M  V30 30771 C 2863.01 -1.16122 -1.46193 0
M  V30 30772 C 2863.36 0.242161 -1.947 0
M  V30 30773 O 2862.49 1.13799 -1.84062 0
M  V30 30774 C 2863.08 -2.10193 -2.65715 0
M  V30 30775 C 2861.64 -2.00658 -3.18454 0
M  V30 30776 C 2860.79 -2.00894 -1.91146 0
M  V30 30777 H 2863.74 -1.42095 -0.706731 0
M  V30 30778 H 2863.76 -1.67646 -3.41578 0
M  V30 30779 H 2863.27 -3.12325 -2.3038 0
M  V30 30780 H 2861.37 -1.0163 -3.58472 0
M  V30 30781 H 2861.49 -2.88516 -3.82486 0
M  V30 30782 H 2859.85 -1.45546 -2.09018 0
M  V30 30783 H 2860.63 -3.04737 -1.58083 0
M  V30 30784 N 2863.08 1.10667 -1.12208 0
M  V30 30785 C 2864.49 1.64084 -0.890685 0
M  V30 30786 C 2864.84 1.87571 0.575469 0
M  V30 30787 O 2863.97 1.61589 1.43937 0
M  V30 30788 C 2864.56 2.98083 -1.61035 0
M  V30 30789 C 2863.12 3.48376 -1.42516 0
M  V30 30790 C 2862.27 2.2303 -1.64782 0
M  V30 30791 H 2865.22 0.941987 -1.2772 0
M  V30 30792 H 2865.24 3.65437 -1.06 0
M  V30 30793 H 2864.75 2.80957 -2.6774 0
M  V30 30794 H 2862.85 3.70651 -0.380562 0
M  V30 30795 H 2862.97 4.26647 -2.17966 0
M  V30 30796 H 2861.33 2.31053 -1.07175 0
M  V30 30797 H 2862.11 2.08438 -2.72779 0
M  V30 30798 N 2864.56 0.913621 1.28416 0
M  V30 30799 C 2865.81 0.545628 1.94595 0
M  V30 30800 C 2866.13 -0.913637 1.72272 0
M  V30 30801 O 2865.4 -1.64593 1.06236 0
M  V30 30802 H 2863.98 0.198796 0.720062 0
M  V30 30803 H 2866.64 1.16295 1.56402 0
M  V30 30804 H 2865.73 0.739965 3.03201 0
M  V30 30805 N 2866.04 -1.4229 0.677588 0
M  V30 30806 C 2866.95 -2.346 0.00100389 0
M  V30 30807 C 2867.96 -1.55245 -0.785806 0
M  V30 30808 O 2869.14 -1.87802 -0.72749 0
M  V30 30809 C 2866.2 -3.33807 -0.936688 0
M  V30 30810 C 2865.26 -4.29058 -0.144098 0
M  V30 30811 C 2864.5 -5.23526 -1.03713 0
M  V30 30812 O 2864.72 -5.22996 -2.27666 0
M  V30 30813 O 2863.65 -5.99849 -0.496437 0
M  V30 30814 H 2867.48 -2.93999 0.761448 0
M  V30 30815 H 2865.06 -1.4284 0.437835 0
M  V30 30816 H 2866.95 -3.94746 -1.4749 0
M  V30 30817 H 2865.62 -2.76876 -1.67693 0
M  V30 30818 H 2864.53 -3.71524 0.438289 0
M  V30 30819 H 2865.86 -4.89037 0.557096 0
M  V30 30820 N 2867.51 -0.421104 -1.5187 0
M  V30 30821 C 2868.75 0.150131 -2.03848 0
M  V30 30822 C 2869.12 1.4136 -1.29928 0
M  V30 30823 O 2870.32 2.06405 -1.72194 0
M  V30 30824 C 2868.59 0.379968 -3.55374 0
M  V30 30825 S 2870.15 0.916935 -4.29113 0
M  V30 30826 H 2866.97 0.0394514 -0.709905 0
M  V30 30827 H 2869.57 -0.576779 -1.86798 0
M  V30 30828 H 2868.27 -0.546194 -4.06749 0
M  V30 30829 H 2867.8 1.13442 -3.76689 0
M  V30 30830 H 2869.82 2.19627 -4.44948 0
M  V30 30831 N 2868.99 1.56866 -0.151912 0
M  V30 30832 C 2870.24 1.96282 0.49797 0
M  V30 30833 C 2870.57 1.03701 1.64549 0
M  V30 30834 O 2869.82 0.0671841 1.95585 0
M  V30 30835 C 2870.12 3.41913 1.04068 0
M  V30 30836 C 2869.79 4.50899 0.0110896 0
M  V30 30837 C 2868.45 4.80431 -0.271928 0
M  V30 30838 C 2870.8 5.16629 -0.688781 0
M  V30 30839 C 2868.13 5.72999 -1.26054 0
M  V30 30840 C 2870.48 6.10262 -1.66624 0
M  V30 30841 C 2869.15 6.3817 -1.95691 0
M  V30 30842 H 2868.42 0.718246 0.18222 0
M  V30 30843 H 2871.06 1.89993 -0.239779 0
M  V30 30844 H 2869.37 3.45058 1.85586 0
M  V30 30845 H 2871.06 3.69741 1.55218 0
M  V30 30846 H 2867.65 4.27917 0.241857 0
M  V30 30847 H 2871.84 4.93941 -0.483327 0
M  V30 30848 H 2867.09 5.92913 -1.49213 0
M  V30 30849 H 2871.27 6.60268 -2.21403 0
M  V30 30850 H 2868.9 7.09702 -2.72447 0
M  V30 30851 N 2870.47 -0.121866 1.57128 0
M  V30 30852 C 2871.72 -0.828516 1.84337 0
M  V30 30853 C 2872.04 -1.8055 0.736663 0
M  V30 30854 O 2871.31 -1.94429 -0.239585 0
M  V30 30855 H 2869.89 -0.308958 0.680113 0
M  V30 30856 H 2872.55 -0.109871 1.9459 0
M  V30 30857 H 2871.65 -1.37549 2.80155 0
M  V30 30858 N 2871.95 -1.52648 -0.391965 0
M  V30 30859 C 2872.88 -1.80183 -1.48514 0
M  V30 30860 C 2873.86 -0.653694 -1.57038 0
M  V30 30861 O 2875.04 -0.900992 -1.72034 0
M  V30 30862 C 2872.17 -1.96802 -2.86158 0
M  V30 30863 C 2871.13 -3.12477 -2.92476 0
M  V30 30864 C 2870.45 -3.14345 -4.3254 0
M  V30 30865 C 2871.75 -4.51606 -2.62392 0
M  V30 30866 H 2873.45 -2.71725 -1.25721 0
M  V30 30867 H 2870.99 -1.3075 -0.603364 0
M  V30 30868 H 2872.95 -2.14647 -3.62635 0
M  V30 30869 H 2871.67 -1.01946 -3.10281 0
M  V30 30870 H 2870.33 -2.9441 -2.18445 0
M  V30 30871 H 2869.98 -2.17178 -4.53699 0
M  V30 30872 H 2869.68 -3.92049 -4.37688 0
M  V30 30873 H 2871.2 -3.34342 -5.10928 0
M  V30 30874 H 2872.62 -4.6979 -3.28588 0
M  V30 30875 H 2871.01 -5.31355 -2.78894 0
M  V30 30876 H 2872.08 -4.58524 -1.57746 0
M  V30 30877 N 2873.43 0.650235 -1.43561 0
M  V30 30878 C 2874.36 1.77457 -1.51761 0
M  V30 30879 C 2875.34 1.65981 -0.372048 0
M  V30 30880 O 2876.52 1.85031 -0.58966 0
M  V30 30881 C 2873.65 3.159 -1.44307 0
M  V30 30882 C 2872.61 3.42142 -2.57144 0
M  V30 30883 C 2871.93 4.80416 -2.34743 0
M  V30 30884 C 2873.23 3.36591 -3.99379 0
M  V30 30885 H 2874.93 1.70851 -2.45866 0
M  V30 30886 H 2872.47 0.820545 -1.18335 0
M  V30 30887 H 2874.43 3.94312 -1.48648 0
M  V30 30888 H 2873.15 3.23243 -0.467083 0
M  V30 30889 H 2871.81 2.66102 -2.52161 0
M  V30 30890 H 2871.46 4.84439 -1.3538 0
M  V30 30891 H 2871.16 4.98935 -3.10384 0
M  V30 30892 H 2872.68 5.61082 -2.40872 0
M  V30 30893 H 2874.09 4.04935 -4.05833 0
M  V30 30894 H 2872.49 3.66646 -4.7507 0
M  V30 30895 H 2873.56 2.34721 -4.24304 0
M  V30 30896 N 2874.9 1.30141 0.88888 0
M  V30 30897 C 2876.15 1.18504 1.63711 0
M  V30 30898 C 2876.47 -0.261365 1.9324 0
M  V30 30899 O 2875.74 -1.17687 1.5661 0
M  V30 30900 H 2874.32 0.43559 0.606853 0
M  V30 30901 H 2876.99 1.63215 1.06522 0
M  V30 30902 H 2876.08 1.74304 2.58891 0
M  V30 30903 N 2876.38 -1.1007 1.12794 0
M  V30 30904 C 2877.63 -1.82379 0.886889 0
M  V30 30905 C 2877.96 -1.85156 -0.585728 0
M  V30 30906 O 2877.24 -1.31495 -1.43315 0
M  V30 30907 C 2877.52 -3.28859 1.46709 0
M  V30 30908 C 2877.37 -3.34393 3.00835 0
M  V30 30909 C 2878.69 -4.25351 1.12979 0
M  V30 30910 H 2875.81 -0.662142 0.323631 0
M  V30 30911 H 2878.45 -1.28979 1.39515 0
M  V30 30912 H 2876.6 -3.74464 1.03482 0
M  V30 30913 H 2878.27 -2.9724 3.52769 0
M  V30 30914 H 2876.52 -2.74177 3.36169 0
M  V30 30915 H 2877.19 -4.37554 3.36527 0
M  V30 30916 H 2879.66 -3.87999 1.5032 0
M  V30 30917 H 2878.54 -5.26196 1.56232 0
M  V30 30918 H 2878.8 -4.4208 0.0425229 0
M  V30 30919 N 2877.86 -0.920419 -1.2793 0
M  V30 30920 C 2878.81 -0.404231 -2.29061 0
M  V30 30921 C 2879.8 0.507606 -1.61616 0
M  V30 30922 O 2881.01 0.388113 -1.75766 0
M  V30 30923 H 2877.38 -0.112136 -0.743592 0
M  V30 30924 H 2879.35 -1.27013 -2.70019 0
M  V30 30925 C 2878.1 0.334405 -3.46088 0
M  V30 30926 H 2877.43 -0.35804 -3.98194 0
M  V30 30927 H 2878.87 0.660122 -4.1883 0
M  V30 30928 C 2877.33 1.54474 -2.99398 0
M  V30 30929 O 2877.86 2.64369 -3.02444 0
M  V30 30930 N 2876.06 1.39404 -2.5498 0
M  V30 30931 H 2875.61 0.499964 -2.52702 0
M  V30 30932 H 2875.57 2.20512 -2.24102 0
M  V30 30933 N 2879.34 1.41929 -0.685124 0
M  V30 30934 C 2880.59 2.00993 -0.211275 0
M  V30 30935 C 2880.91 1.54494 1.18982 0
M  V30 30936 O 2880.18 0.771032 1.80089 0
M  V30 30937 H 2878.76 0.743213 -0.075119 0
M  V30 30938 H 2881.42 1.73702 -0.883946 0
M  V30 30939 H 2880.52 3.1132 -0.220568 0
M  V30 30940 N 2880.82 0.429152 1.51644 0
M  V30 30941 C 2881.78 -0.374686 2.26117 0
M  V30 30942 C 2882.78 -0.956691 1.29244 0
M  V30 30943 O 2883.97 -0.832425 1.53024 0
M  V30 30944 C 2881.1 -1.52932 3.04671 0
M  V30 30945 H 2882.29 0.277871 2.9861 0
M  V30 30946 H 2879.85 0.182124 1.55235 0
M  V30 30947 H 2880.58 -2.21817 2.36575 0
M  V30 30948 H 2880.37 -1.11826 3.75816 0
M  V30 30949 H 2881.86 -2.09745 3.61105 0
M  V30 30950 N 2882.29 -1.56783 0.160229 0
M  V30 30951 C 2883.54 -1.96155 -0.48659 0
M  V30 30952 C 2883.86 -1.04676 -1.64523 0
M  V30 30953 O 2883.13 -0.110899 -1.95586 0
M  V30 30954 H 2881.71 -0.7243 -0.182752 0
M  V30 30955 H 2884.38 -1.93431 0.238821 0
M  V30 30956 H 2883.47 -3.00189 -0.853973 0
M  V30 30957 N 2883.77 0.113531 -1.57191 0
M  V30 30958 C 2884.72 1.13898 -2.00738 0
M  V30 30959 C 2885.69 1.40844 -0.880465 0
M  V30 30960 O 2886.88 1.52618 -1.1451 0
M  V30 30961 C 2884.02 2.45895 -2.42136 0
M  V30 30962 C 2883.13 2.25838 -3.68268 0
M  V30 30963 C 2882.26 3.51103 -3.98623 0
M  V30 30964 C 2881.3 3.26227 -5.17921 0
M  V30 30965 N 2880.44 4.4371 -5.44119 0
M  V30 30966 H 2885.28 0.760626 -2.88129 0
M  V30 30967 H 2882.82 0.364074 -1.42523 0
M  V30 30968 H 2884.77 3.22904 -2.64176 0
M  V30 30969 H 2883.4 2.81612 -1.5778 0
M  V30 30970 H 2882.46 1.39719 -3.53812 0
M  V30 30971 H 2883.77 2.03436 -4.55428 0
M  V30 30972 H 2882.92 4.36528 -4.21341 0
M  V30 30973 H 2881.66 3.76541 -3.09949 0
M  V30 30974 H 2880.67 2.39193 -4.95042 0
M  V30 30975 H 2881.89 3.02154 -6.08177 0
M  V30 30976 H 2879.84 4.69258 -4.58402 0
M  V30 30977 H 2879.75 4.24433 -6.25614 0
M  V30 30978 H 2881.02 5.30253 -5.7136 0
M  V30 30979 N 2885.25 1.52854 0.383864 0
M  V30 30980 C 2886.48 1.72332 1.15397 0
M  V30 30981 C 2886.9 0.443012 1.82809 0
M  V30 30982 O 2886.26 -0.601615 1.71027 0
M  V30 30983 C 2886.31 2.87712 2.17381 0
M  V30 30984 O 2885.41 2.55044 3.24078 0
M  V30 30985 H 2884.75 0.572889 0.335699 0
M  V30 30986 H 2887.28 1.99667 0.446585 0
M  V30 30987 H 2887.29 3.13355 2.61291 0
M  V30 30988 H 2885.97 3.8059 1.67703 0
M  V30 30989 H 2884.54 2.40158 2.85269 0
M  V30 30990 N 2886.73 -0.642612 1.43904 0
M  V30 30991 C 2887.95 -1.43481 1.4976 0
M  V30 30992 C 2888.38 -1.87717 0.119944 0
M  V30 30993 O 2887.74 -1.58034 -0.88853 0
M  V30 30994 C 2887.79 -2.63894 2.45749 0
M  V30 30995 O 2886.89 -3.63327 1.95108 0
M  V30 30996 H 2886.23 -0.429782 0.506146 0
M  V30 30997 H 2888.76 -0.785404 1.88925 0
M  V30 30998 H 2888.77 -3.1158 2.63405 0
M  V30 30999 H 2887.45 -2.3104 3.45822 0
M  V30 31000 H 2886.02 -3.22528 1.87163 0
M  V30 31001 N 2888.21 -1.30611 -0.881966 0
M  V30 31002 C 2889.44 -1.22539 -1.66708 0
M  V30 31003 C 2889.85 0.211267 -1.87614 0
M  V30 31004 O 2889.21 1.1392 -1.42578 0
M  V30 31005 C 2889.26 -1.9534 -3.04178 0
M  V30 31006 O 2888.98 -3.33398 -2.84214 0
M  V30 31007 C 2890.48 -1.93963 -3.98614 0
M  V30 31008 H 2887.7 -0.423934 -0.520116 0
M  V30 31009 H 2890.24 -1.72287 -1.10171 0
M  V30 31010 H 2888.4 -1.49384 -3.5744 0
M  V30 31011 H 2888.81 -3.70309 -3.71446 0
M  V30 31012 H 2890.29 -2.49435 -4.92429 0
M  V30 31013 H 2890.76 -0.919273 -4.29472 0
M  V30 31014 H 2891.37 -2.39744 -3.51287 0
M  V30 31015 N 2889.69 1.0947 -1.13376 0
M  V30 31016 C 2890.93 1.81637 -0.895222 0
M  V30 31017 C 2891.26 1.85693 0.578647 0
M  V30 31018 O 2890.52 1.32062 1.44423 0
M  V30 31019 C 2890.81 3.27648 -1.42765 0
M  V30 31020 C 2890.48 3.43725 -2.91828 0
M  V30 31021 C 2889.14 3.47821 -3.32527 0
M  V30 31022 C 2891.49 3.483 -3.87733 0
M  V30 31023 C 2888.82 3.54069 -4.67816 0
M  V30 31024 C 2891.17 3.56082 -5.22865 0
M  V30 31025 C 2889.84 3.58446 -5.63092 0
M  V30 31026 H 2889.11 0.664657 -0.327585 0
M  V30 31027 H 2891.76 1.28967 -1.41562 0
M  V30 31028 H 2890.06 3.82952 -0.827938 0
M  V30 31029 H 2891.76 3.82017 -1.21917 0
M  V30 31030 H 2888.35 3.41222 -2.59356 0
M  V30 31031 H 2892.53 3.44377 -3.57377 0
M  V30 31032 H 2887.79 3.54186 -4.98359 0
M  V30 31033 H 2891.96 3.58567 -5.96995 0
M  V30 31034 H 2889.59 3.6304 -6.67911 0
M  V30 31035 N 2891.16 0.92719 1.2744 0
M  V30 31036 C 2892.11 0.424499 2.26863 0
M  V30 31037 C 2893.08 -0.508319 1.58131 0
M  V30 31038 O 2894.27 -0.427587 1.85947 0
M  V30 31039 C 2891.41 -0.317119 3.4364 0
M  V30 31040 C 2890.52 0.64975 4.27086 0
M  V30 31041 C 2889.65 -0.11166 5.31083 0
M  V30 31042 C 2888.69 0.847949 6.06198 0
M  V30 31043 N 2887.83 0.119198 7.01999 0
M  V30 31044 H 2892.67 1.27732 2.69237 0
M  V30 31045 H 2890.21 0.64113 1.32393 0
M  V30 31046 H 2892.16 -0.763413 4.10156 0
M  V30 31047 H 2890.79 -1.13419 3.02219 0
M  V30 31048 H 2889.85 1.21457 3.60489 0
M  V30 31049 H 2891.16 1.38315 4.79239 0
M  V30 31050 H 2890.31 -0.617894 6.03545 0
M  V30 31051 H 2889.05 -0.87803 4.79731 0
M  V30 31052 H 2888.06 1.36544 5.32575 0
M  V30 31053 H 2889.28 1.61409 6.59639 0
M  V30 31054 H 2887.23 -0.628936 6.52978 0
M  V30 31055 H 2887.14 0.792178 7.51838 0
M  V30 31056 H 2888.41 -0.3664 7.78638 0
M  V30 31057 N 2892.64 -1.41564 0.692641 0
M  V30 31058 C 2893.57 -2.28186 -0.0250229 0
M  V30 31059 C 2894.55 -1.42069 -0.790888 0
M  V30 31060 O 2895.74 -1.715 -0.782314 0
M  V30 31061 C 2892.86 -3.22248 -1.04279 0
M  V30 31062 C 2891.91 -4.24888 -0.370441 0
M  V30 31063 S 2892.74 -5.28136 0.885035 0
M  V30 31064 C 2893.9 -6.25762 -0.131214 0
M  V30 31065 H 2894.13 -2.88706 0.709677 0
M  V30 31066 H 2891.66 -1.46657 0.482809 0
M  V30 31067 H 2893.62 -3.76973 -1.62486 0
M  V30 31068 H 2892.28 -2.6083 -1.75005 0
M  V30 31069 H 2891.48 -4.90961 -1.13902 0
M  V30 31070 H 2891.08 -3.73744 0.138477 0
M  V30 31071 H 2893.37 -6.70295 -0.985409 0
M  V30 31072 H 2894.31 -7.06364 0.495509 0
M  V30 31073 H 2894.72 -5.62415 -0.484678 0
M  V30 31074 N 2894.12 -0.437188 -1.51415 0
M  V30 31075 C 2895.05 0.364881 -2.30631 0
M  V30 31076 C 2896.03 1.02116 -1.36038 0
M  V30 31077 O 2897.22 1.02482 -1.64958 0
M  V30 31078 C 2894.35 1.46642 -3.14823 0
M  V30 31079 C 2893.3 0.933644 -4.17693 0
M  V30 31080 C 2892.63 2.13092 -4.90404 0
M  V30 31081 C 2893.93 -0.0318119 -5.2229 0
M  V30 31082 H 2895.62 -0.296193 -2.97931 0
M  V30 31083 H 2893.17 -0.14389 -1.43279 0
M  V30 31084 H 2895.12 2.03474 -3.69021 0
M  V30 31085 H 2893.84 2.15578 -2.45344 0
M  V30 31086 H 2892.5 0.387538 -3.64546 0
M  V30 31087 H 2892.15 2.80647 -4.17428 0
M  V30 31088 H 2891.85 1.78082 -5.59965 0
M  V30 31089 H 2893.37 2.70478 -5.47425 0
M  V30 31090 H 2894.79 0.446202 -5.71561 0
M  V30 31091 H 2893.18 -0.294475 -5.99377 0
M  V30 31092 H 2894.25 -0.968531 -4.75129 0
M  V30 31093 N 2895.6 1.56696 -0.168541 0
M  V30 31094 C 2896.83 2.01172 0.483468 0
M  V30 31095 C 2897.24 1.04875 1.56992 0
M  V30 31096 O 2896.6 0.0491658 1.82434 0
M  V30 31097 C 2896.65 3.45476 1.06434 0
M  V30 31098 O 2896.37 4.38095 0.0212604 0
M  V30 31099 C 2897.87 4.05339 1.79485 0
M  V30 31100 H 2895.09 0.659445 0.123991 0
M  V30 31101 H 2897.63 2.02717 -0.269455 0
M  V30 31102 H 2895.79 3.44715 1.76778 0
M  V30 31103 H 2896.2 5.22568 0.449745 0
M  V30 31104 H 2897.68 5.08242 2.15392 0
M  V30 31105 H 2898.15 3.47273 2.68883 0
M  V30 31106 H 2898.76 4.09795 1.1379 0
M  V30 31107 N 2897.08 -0.105193 1.57249 0
M  V30 31108 C 2898.32 -0.808918 1.85205 0
M  V30 31109 C 2898.64 -1.79758 0.755772 0
M  V30 31110 O 2897.91 -1.94673 -0.21895 0
M  V30 31111 H 2896.49 -0.301727 0.683352 0
M  V30 31112 H 2899.16 -0.0892263 1.94696 0
M  V30 31113 H 2898.25 -1.3457 2.81598 0
M  V30 31114 N 2898.55 -1.53055 -0.375752 0
M  V30 31115 C 2899.83 -1.59338 -1.1345 0
M  V30 31116 C 2900.21 -0.394651 -2.07378 0
M  V30 31117 O 2899.56 0.615962 -2.20041 0
M  V30 31118 C 2899.77 -2.93872 -1.88255 0
M  V30 31119 C 2901.12 -3.48086 -2.43149 0
M  V30 31120 O 2902.14 -2.95834 -1.98395 0
M  V30 31121 O 2901 -4.39407 -3.24937 0
M  V30 31122 H 2898.09 -0.643188 -0.519845 0
M  V30 31123 H 2900.64 -1.65394 -0.379836 0
M  V30 31124 H 2899.41 -3.7256 -1.19645 0
M  V30 31125 H 2899.04 -2.91261 -2.70653 0
M  V30 31126 N 2900.03 0.634971 -1.44242 0
M  V30 31127 C 2901.26 1.4219 -1.50298 0
M  V30 31128 C 2901.68 1.88375 -0.126613 0
M  V30 31129 O 2901.03 1.60604 0.866752 0
M  V30 31130 C 2901.08 2.64478 -2.46442 0
M  V30 31131 O 2900.8 2.20219 -3.78728 0
M  V30 31132 C 2902.31 3.57646 -2.61924 0
M  V30 31133 H 2899.53 0.436201 -0.509872 0
M  V30 31134 H 2902.07 0.776887 -1.89168 0
M  V30 31135 H 2900.22 3.25079 -2.10718 0
M  V30 31136 H 2900.64 2.99472 -4.306 0
M  V30 31137 H 2902.11 4.40068 -3.33233 0
M  V30 31138 H 2902.59 4.06201 -1.67024 0
M  V30 31139 H 2903.2 3.02916 -2.98533 0
M  V30 31140 N 2901.51 1.31076 0.875027 0
M  V30 31141 C 2902.74 1.23422 1.66056 0
M  V30 31142 C 2903.15 -0.201314 1.87724 0
M  V30 31143 O 2902.51 -1.13163 1.4318 0
M  V30 31144 C 2902.56 1.96951 3.03138 0
M  V30 31145 O 2902.28 3.349 2.82442 0
M  V30 31146 C 2903.78 1.96074 3.9758 0
M  V30 31147 H 2901 0.426686 0.517861 0
M  V30 31148 H 2903.55 1.72868 1.09255 0
M  V30 31149 H 2901.7 1.51278 3.56642 0
M  V30 31150 H 2902.12 3.72273 3.69476 0
M  V30 31151 H 2903.59 2.52043 4.91099 0
M  V30 31152 H 2904.07 0.942036 4.28978 0
M  V30 31153 H 2904.67 2.41604 3.50011 0
M  V30 31154 N 2902.99 -1.08867 1.13955 0
M  V30 31155 C 2904.23 -1.81428 0.906183 0
M  V30 31156 C 2904.57 -1.85767 -0.566057 0
M  V30 31157 O 2903.84 -1.33008 -1.41912 0
M  V30 31158 C 2904.13 -3.27285 1.50189 0
M  V30 31159 C 2903.98 -3.31183 3.04364 0
M  V30 31160 C 2905.3 -4.24129 1.17484 0
M  V30 31161 H 2902.42 -0.658672 0.330636 0
M  V30 31162 H 2905.06 -1.27492 1.40875 0
M  V30 31163 H 2903.21 -3.73346 1.07448 0
M  V30 31164 H 2904.88 -2.93482 3.55902 0
M  V30 31165 H 2903.12 -2.70596 3.39058 0
M  V30 31166 H 2903.79 -4.3396 3.41149 0
M  V30 31167 H 2906.27 -3.86383 1.54427 0
M  V30 31168 H 2905.15 -5.2451 1.61805 0
M  V30 31169 H 2905.41 -4.4201 0.0894089 0
M  V30 31170 N 2904.47 -0.933936 -1.26946 0
M  V30 31171 C 2905.69 -0.594175 -1.98185 0
M  V30 31172 C 2906.11 0.829228 -1.69615 0
M  V30 31173 O 2905.47 1.55195 -0.960241 0
M  V30 31174 C 2905.52 -0.818088 -3.52122 0
M  V30 31175 O 2905.24 -2.1855 -3.79694 0
M  V30 31176 C 2906.74 -0.487887 -4.40607 0
M  V30 31177 H 2903.96 -0.22458 -0.632301 0
M  V30 31178 H 2906.5 -1.25266 -1.61643 0
M  V30 31179 H 2904.66 -0.206314 -3.8685 0
M  V30 31180 H 2905.07 -2.24013 -4.74256 0
M  V30 31181 H 2906.55 -0.695222 -5.47604 0
M  V30 31182 H 2907.02 0.576837 -4.35395 0
M  V30 31183 H 2907.63 -1.07807 -4.11409 0
M  V30 31184 N 2905.94 1.41194 -0.700139 0
M  V30 31185 C 2907.36 1.55201 -0.372142 0
M  V30 31186 C 2907.56 1.67472 1.1205 0
M  V30 31187 O 2906.62 1.65569 1.90639 0
M  V30 31188 C 2907.93 2.78876 -1.12467 0
M  V30 31189 C 2909.48 2.92677 -1.10946 0
M  V30 31190 C 2909.95 4.19245 -1.84383 0
M  V30 31191 N 2911.44 4.26213 -1.81375 0
M  V30 31192 C 2912.18 5.23017 -2.35033 0
M  V30 31193 N 2911.67 6.25824 -2.97181 0
M  V30 31194 N 2913.47 5.14988 -2.25263 0
M  V30 31195 H 2905.62 1.31474 -1.66818 0
M  V30 31196 H 2907.88 0.634632 -0.704235 0
M  V30 31197 H 2907.59 2.76033 -2.17942 0
M  V30 31198 H 2907.46 3.7053 -0.706217 0
M  V30 31199 H 2909.85 2.95033 -0.0629628 0
M  V30 31200 H 2909.93 2.02184 -1.56701 0
M  V30 31201 H 2909.57 4.17651 -2.89015 0
M  V30 31202 H 2909.5 5.08719 -1.36059 0
M  V30 31203 H 2911.99 3.52553 -1.36069 0
M  V30 31204 H 2912.31 6.96088 -3.3568 0
M  V30 31205 H 2910.65 6.26312 -3.0126 0
M  V30 31206 H 2913.84 4.33599 -1.76379 0
M  V30 31207 H 2914.02 5.90263 -2.67383 0
M  V30 31208 N 2907.42 0.445212 1.51181 0
M  V30 31209 C 2908.67 -0.118375 2.01753 0
M  V30 31210 C 2908.99 -1.42521 1.33089 0
M  V30 31211 O 2908.26 -1.9023 0.467924 0
M  V30 31212 H 2906.84 -0.0467361 0.745537 0
M  V30 31213 H 2909.5 0.58972 1.85764 0
M  V30 31214 H 2908.6 -0.28861 3.10763 0
M  V30 31215 N 2908.9 -1.56605 0.176849 0
M  V30 31216 C 2910.18 -1.88744 -0.513332 0
M  V30 31217 C 2910.56 -1.0876 -1.80927 0
M  V30 31218 O 2909.91 -0.183167 -2.27765 0
M  V30 31219 C 2910.12 -3.40849 -0.749865 0
M  V30 31220 C 2911.46 -4.10703 -1.0774 0
M  V30 31221 O 2912.49 -3.46197 -0.838216 0
M  V30 31222 O 2911.35 -5.24677 -1.52892 0
M  V30 31223 H 2908.44 -0.783297 -0.265283 0
M  V30 31224 H 2910.99 -1.68324 0.215698 0
M  V30 31225 H 2909.76 -3.90947 0.166058 0
M  V30 31226 H 2909.38 -3.66899 -1.53201 0
M  V30 31227 N 2910.38 0.0968524 -1.57302 0
M  V30 31228 C 2911.34 1.10185 -2.00978 0
M  V30 31229 C 2912.34 1.33049 -0.903033 0
M  V30 31230 O 2913.53 1.29192 -1.16855 0
M  V30 31231 C 2910.66 2.45138 -2.36897 0
M  V30 31232 H 2911.86 0.725952 -2.90981 0
M  V30 31233 H 2909.41 0.341845 -1.52516 0
M  V30 31234 H 2910.14 2.87607 -1.49842 0
M  V30 31235 H 2909.93 2.29891 -3.17636 0
M  V30 31236 H 2911.42 3.17425 -2.71351 0
M  V30 31237 N 2911.86 1.53252 0.36763 0
M  V30 31238 C 2913.1 1.69335 1.11049 0
M  V30 31239 C 2913.43 0.444097 1.89362 0
M  V30 31240 O 2912.69 -0.57392 1.87095 0
M  V30 31241 C 2912.99 2.89328 2.09819 0
M  V30 31242 C 2912.65 4.25918 1.48002 0
M  V30 31243 C 2911.31 4.63062 1.30871 0
M  V30 31244 C 2913.67 5.10869 1.03259 0
M  V30 31245 C 2910.99 5.82795 0.675766 0
M  V30 31246 C 2913.35 6.31246 0.413659 0
M  V30 31247 C 2912.01 6.67104 0.229821 0
M  V30 31248 H 2911.28 0.619641 0.406357 0
M  V30 31249 H 2913.93 1.87434 0.392525 0
M  V30 31250 H 2912.23 2.65733 2.87912 0
M  V30 31251 H 2913.93 2.98965 2.67246 0
M  V30 31252 H 2910.52 3.9667 1.62329 0
M  V30 31253 H 2914.7 4.82724 1.15288 0
M  V30 31254 H 2909.96 6.0917 0.521726 0
M  V30 31255 H 2914.13 6.96375 0.0587544 0
M  V30 31256 H 2911.76 7.59746 -0.262696 0
M  V30 31257 N 2913.34 -0.627313 1.44577 0
M  V30 31258 C 2914.27 -1.7502 1.54565 0
M  V30 31259 C 2915.25 -1.65368 0.398407 0
M  V30 31260 O 2916.43 -1.8407 0.619022 0
M  V30 31261 C 2913.56 -3.13564 1.49315 0
M  V30 31262 C 2912.52 -3.38008 2.62555 0
M  V30 31263 C 2911.84 -4.76621 2.42356 0
M  V30 31264 C 2913.14 -3.30195 4.04684 0
M  V30 31265 H 2914.84 -1.66918 2.48553 0
M  V30 31266 H 2912.38 -0.801615 1.19625 0
M  V30 31267 H 2914.33 -3.91897 1.54902 0
M  V30 31268 H 2913.06 -3.22459 0.518449 0
M  V30 31269 H 2911.72 -2.62057 2.56363 0
M  V30 31270 H 2911.37 -4.82224 1.4307 0
M  V30 31271 H 2911.07 -4.93934 3.18282 0
M  V30 31272 H 2912.59 -5.57179 2.49768 0
M  V30 31273 H 2914 -3.98427 4.12224 0
M  V30 31274 H 2912.4 -3.59041 4.80842 0
M  V30 31275 H 2913.47 -2.27941 4.27984 0
M  V30 31276 N 2914.81 -1.31539 -0.868063 0
M  V30 31277 C 2915.76 -1.19283 -1.99686 0
M  V30 31278 C 2916.76 -0.100686 -1.69101 0
M  V30 31279 O 2917.96 -0.262708 -1.78073 0
M  V30 31280 H 2914.34 -0.369386 -0.655025 0
M  V30 31281 H 2916.31 -2.1478 -2.07153 0
M  V30 31282 C 2915.06 -0.918951 -3.35337 0
M  V30 31283 H 2914.38 -1.75148 -3.59393 0
M  V30 31284 H 2915.82 -0.873384 -4.14907 0
M  V30 31285 C 2914.28 0.378307 -3.34769 0
M  V30 31286 O 2914.81 1.39449 -3.76718 0
M  V30 31287 N 2913.01 0.395519 -2.87896 0
M  V30 31288 H 2912.56 -0.431934 -2.53953 0
M  V30 31289 H 2912.52 1.26339 -2.87899 0
M  V30 31290 N 2916.29 1.08262 -1.1453 0
M  V30 31291 C 2917.24 2.1522 -0.833593 0
M  V30 31292 C 2918.21 1.64773 0.20951 0
M  V30 31293 O 2919.39 1.90636 0.0791053 0
M  V30 31294 C 2916.53 3.43624 -0.31886 0
M  V30 31295 C 2915.65 4.0791 -1.42244 0
M  V30 31296 C 2914.78 5.24113 -0.864796 0
M  V30 31297 C 2913.82 5.80344 -1.94595 0
M  V30 31298 N 2912.96 6.87891 -1.40537 0
M  V30 31299 H 2917.8 2.41225 -1.74969 0
M  V30 31300 H 2915.33 1.1838 -0.87319 0
M  V30 31301 H 2917.29 4.172 -0.00220421 0
M  V30 31302 H 2915.92 3.17899 0.560342 0
M  V30 31303 H 2914.97 3.3208 -1.85546 0
M  V30 31304 H 2916.29 4.4572 -2.23909 0
M  V30 31305 H 2915.44 6.04635 -0.500131 0
M  V30 31306 H 2914.18 4.87697 -0.0172077 0
M  V30 31307 H 2913.18 4.98475 -2.31955 0
M  V30 31308 H 2914.41 6.18818 -2.79715 0
M  V30 31309 H 2912.36 6.53431 -0.579988 0
M  V30 31310 H 2912.27 7.24534 -2.15838 0
M  V30 31311 H 2913.54 7.7214 -1.06866 0
M  V30 31312 N 2917.77 0.940655 1.26449 0
M  V30 31313 C 2918.72 0.440621 2.28388 0
M  V30 31314 C 2919.71 -0.48183 1.62403 0
M  V30 31315 O 2920.92 -0.360101 1.76361 0
M  V30 31316 H 2917.29 0.123951 0.741714 0
M  V30 31317 H 2919.26 1.31292 2.67964 0
M  V30 31318 C 2918.01 -0.279303 3.46576 0
M  V30 31319 H 2917.34 0.421344 3.97574 0
M  V30 31320 H 2918.78 -0.593407 4.19827 0
M  V30 31321 C 2917.23 -1.49691 3.01818 0
M  V30 31322 O 2917.76 -2.59524 3.06611 0
M  V30 31323 N 2915.97 -1.3533 2.57166 0
M  V30 31324 H 2915.52 -0.459698 2.53465 0
M  V30 31325 H 2915.48 -2.16919 2.27582 0
M  V30 31326 N 2919.25 -1.40821 0.707617 0
M  V30 31327 C 2920.47 -2.05867 0.251662 0
M  V30 31328 C 2920.9 -1.52942 -1.09501 0
M  V30 31329 O 2920.26 -0.661415 -1.68805 0
M  V30 31330 C 2920.3 -3.59847 0.232933 0
M  V30 31331 O 2919.41 -4.04794 -0.788405 0
M  V30 31332 H 2918.75 -0.653076 0.119947 0
M  V30 31333 H 2921.28 -1.80367 0.965862 0
M  V30 31334 H 2921.29 -4.07944 0.0678921 0
M  V30 31335 H 2919.96 -3.97735 1.21572 0
M  V30 31336 H 2918.54 -3.68175 -0.591738 0
M  V30 31337 N 2920.73 -0.453223 -1.50943 0
M  V30 31338 C 2921.97 0.109475 -2.01403 0
M  V30 31339 C 2922.29 1.42384 -1.34113 0
M  V30 31340 O 2923.49 2.07042 -1.7563 0
M  V30 31341 C 2921.95 0.24563 -3.59061 0
M  V30 31342 C 2921.56 -1.05924 -4.35298 0
M  V30 31343 C 2923.3 0.761245 -4.17619 0
M  V30 31344 C 2921.21 -0.887855 -5.84697 0
M  V30 31345 H 2920.14 0.044688 -0.752675 0
M  V30 31346 H 2922.79 -0.585405 -1.73912 0
M  V30 31347 H 2921.17 1.00388 -3.83064 0
M  V30 31348 H 2922.35 -1.82706 -4.23031 0
M  V30 31349 H 2920.66 -1.50459 -3.88267 0
M  V30 31350 H 2923.26 0.906213 -5.26965 0
M  V30 31351 H 2923.6 1.74792 -3.77827 0
M  V30 31352 H 2924.13 0.0608717 -3.97753 0
M  V30 31353 H 2920.87 -1.84737 -6.2893 0
M  V30 31354 H 2920.39 -0.160111 -5.99586 0
M  V30 31355 H 2922.07 -0.547337 -6.44681 0
M  V30 31356 N 2922.2 1.56509 -0.185151 0
M  V30 31357 C 2923.13 2.21628 0.735059 0
M  V30 31358 C 2924.11 1.17622 1.22878 0
M  V30 31359 O 2925.3 1.46097 1.27942 0
M  V30 31360 C 2922.43 2.86787 1.95884 0
M  V30 31361 C 2921.38 3.96951 1.60043 0
M  V30 31362 C 2920.71 4.49225 2.90001 0
M  V30 31363 C 2922.01 5.15856 0.817917 0
M  V30 31364 H 2923.7 2.98782 0.192221 0
M  V30 31365 H 2921.25 1.43712 0.0910141 0
M  V30 31366 H 2923.2 3.31022 2.60773 0
M  V30 31367 H 2921.93 2.07023 2.52605 0
M  V30 31368 H 2920.59 3.53392 0.975174 0
M  V30 31369 H 2920.23 3.66236 3.4479 0
M  V30 31370 H 2919.93 5.23553 2.66769 0
M  V30 31371 H 2921.46 4.96156 3.55896 0
M  V30 31372 H 2922.87 5.56698 1.36969 0
M  V30 31373 H 2921.27 5.96188 0.684102 0
M  V30 31374 H 2922.34 4.84554 -0.183024 0
M  V30 31375 N 2923.68 -0.0885089 1.57351 0
M  V30 31376 C 2924.91 -0.808017 1.91013 0
M  V30 31377 C 2925.33 -1.71164 0.780039 0
M  V30 31378 O 2924.69 -1.79307 -0.268051 0
M  V30 31379 C 2924.74 -1.59179 3.23565 0
M  V30 31380 O 2923.84 -2.70124 3.11619 0
M  V30 31381 H 2923.18 -0.221554 0.625947 0
M  V30 31382 H 2925.71 -0.0617594 2.04507 0
M  V30 31383 H 2925.72 -1.97461 3.57034 0
M  V30 31384 H 2924.4 -0.92867 4.05399 0
M  V30 31385 H 2922.97 -2.34822 2.89678 0
M  V30 31386 N 2925.16 -1.53445 -0.359498 0
M  V30 31387 C 2926.11 -1.8099 -1.46101 0
M  V30 31388 C 2927.1 -0.679378 -1.5518 0
M  V30 31389 O 2928.31 -0.862433 -1.57994 0
M  V30 31390 H 2924.68 -0.573154 -0.486825 0
M  V30 31391 H 2926.65 -2.73175 -1.20075 0
M  V30 31392 C 2925.4 -2.02213 -2.82852 0
M  V30 31393 H 2924.73 -2.88648 -2.76626 0
M  V30 31394 H 2926.17 -2.25461 -3.59087 0
M  V30 31395 C 2924.62 -0.802988 -3.27191 0
M  V30 31396 O 2925.15 0.00537225 -4.017 0
M  V30 31397 N 2923.36 -0.624707 -2.83806 0
M  V30 31398 H 2922.91 -1.28368 -2.23337 0
M  V30 31399 H 2922.87 0.189586 -3.13828 0
M  V30 31400 N 2926.64 0.619637 -1.44908 0
M  V30 31401 C 2927.89 1.37498 -1.47571 0
M  V30 31402 C 2928.2 1.95251 -0.116741 0
M  V30 31403 O 2929.41 2.71492 -0.0209567 0
M  V30 31404 C 2927.86 2.49004 -2.59855 0
M  V30 31405 C 2927.47 1.97715 -4.02011 0
M  V30 31406 C 2929.21 3.26115 -2.71752 0
M  V30 31407 C 2927.12 3.06632 -5.05699 0
M  V30 31408 H 2926.05 0.51675 -0.549077 0
M  V30 31409 H 2928.7 0.665407 -1.7101 0
M  V30 31410 H 2927.08 3.2259 -2.29677 0
M  V30 31411 H 2928.26 1.30918 -4.41811 0
M  V30 31412 H 2926.57 1.33385 -3.94458 0
M  V30 31413 H 2929.17 4.07331 -3.46389 0
M  V30 31414 H 2929.51 3.76343 -1.77966 0
M  V30 31415 H 2930.05 2.59624 -3.01397 0
M  V30 31416 H 2926.78 2.61335 -6.01152 0
M  V30 31417 H 2926.3 3.72033 -4.7048 0
M  V30 31418 H 2927.98 3.71216 -5.29913 0
M  V30 31419 N 2928.12 1.31997 0.861075 0
M  V30 31420 C 2929.07 1.16983 1.95701 0
M  V30 31421 C 2930.05 0.0784483 1.60709 0
M  V30 31422 O 2931.24 0.304293 1.74365 0
M  V30 31423 C 2928.37 0.888446 3.31604 0
M  V30 31424 C 2927.46 2.02123 3.72836 0
M  V30 31425 N 2927.85 3.26918 3.85951 0
M  V30 31426 C 2926.15 1.92296 4.02415 0
M  V30 31427 C 2926.85 4.01072 4.21326 0
M  V30 31428 N 2925.82 3.29315 4.32496 0
M  V30 31429 H 2929.63 2.11602 2.03965 0
M  V30 31430 H 2927.14 1.23684 1.05243 0
M  V30 31431 H 2929.14 0.761854 4.0988 0
M  V30 31432 H 2927.8 -0.0494328 3.24662 0
M  V30 31433 H 2928.81 3.6193 3.70442 0
M  V30 31434 H 2925.48 1.0603 4.03812 0
M  V30 31435 H 2926.87 5.08657 4.38996 0
M  V30 31436 N 2929.59 -1.07653 1.15103 0
M  V30 31437 C 2930.5 -2.18312 0.858908 0
M  V30 31438 C 2931.52 -1.73229 -0.163611 0
M  V30 31439 O 2932.7 -2.01398 0.00973081 0
M  V30 31440 C 2929.76 -3.44939 0.348991 0
M  V30 31441 C 2928.82 -4.04605 1.43503 0
M  V30 31442 C 2928.06 -5.25189 0.949345 0
M  V30 31443 O 2928.28 -5.70027 -0.20626 0
M  V30 31444 O 2927.21 -5.76451 1.73171 0
M  V30 31445 H 2931.04 -2.45785 1.78391 0
M  V30 31446 H 2928.62 -1.16933 0.929896 0
M  V30 31447 H 2930.51 -4.2134 0.070925 0
M  V30 31448 H 2929.18 -3.19025 -0.548181 0
M  V30 31449 H 2928.09 -3.29758 1.76665 0
M  V30 31450 H 2929.42 -4.34786 2.307 0
M  V30 31451 N 2931.07 -0.947348 -1.25949 0
M  V30 31452 C 2932.32 -0.599098 -1.93749 0
M  V30 31453 C 2932.65 0.860602 -1.7409 0
M  V30 31454 O 2931.93 1.61652 -1.08161 0
M  V30 31455 C 2932.21 -0.949695 -3.47351 0
M  V30 31456 C 2932.06 -2.46459 -3.76269 0
M  V30 31457 C 2933.38 -0.469519 -4.37588 0
M  V30 31458 H 2930.5 -0.219127 -0.703671 0
M  V30 31459 H 2933.14 -1.18268 -1.48703 0
M  V30 31460 H 2931.29 -0.453076 -3.85849 0
M  V30 31461 H 2932.96 -3.03441 -3.4745 0
M  V30 31462 H 2931.21 -2.90543 -3.22129 0
M  V30 31463 H 2931.88 -2.66041 -4.83659 0
M  V30 31464 H 2934.35 -0.895412 -4.06352 0
M  V30 31465 H 2933.23 -0.743595 -5.4384 0
M  V30 31466 H 2933.49 0.630541 -4.3758 0
M  V30 31467 N 2932.55 1.40444 -0.715075 0
M  V30 31468 C 2933.5 2.27967 -0.0386311 0
M  V30 31469 C 2934.48 1.4323 0.733074 0
M  V30 31470 O 2935.68 1.66326 0.605359 0
M  V30 31471 C 2932.81 3.31757 0.882742 0
M  V30 31472 C 2931.89 4.23967 0.10625 0
M  V30 31473 N 2932.28 4.97542 -0.91023 0
M  V30 31474 C 2930.58 4.44711 0.338882 0
M  V30 31475 C 2931.28 5.65173 -1.37675 0
M  V30 31476 N 2930.26 5.39087 -0.699 0
M  V30 31477 H 2934.06 2.82296 -0.817699 0
M  V30 31478 H 2931.57 1.52889 -0.547618 0
M  V30 31479 H 2933.57 3.93304 1.38266 0
M  V30 31480 H 2932.23 2.78988 1.66119 0
M  V30 31481 H 2933.24 5.0155 -1.29106 0
M  V30 31482 H 2929.92 4.0292 1.0937 0
M  V30 31483 H 2931.31 6.34119 -2.22133 0
M  V30 31484 N 2934.03 0.461222 1.507 0
M  V30 31485 C 2934.96 -0.374204 2.26125 0
M  V30 31486 C 2935.97 -0.965692 1.31066 0
M  V30 31487 O 2937.16 -0.855774 1.56649 0
M  V30 31488 C 2934.26 -1.53785 3.01999 0
M  V30 31489 C 2933.44 -1.06094 4.24338 0
M  V30 31490 C 2932.49 -2.09748 4.82589 0
M  V30 31491 O 2931.52 -1.6821 5.43778 0
M  V30 31492 N 2932.72 -3.42467 4.68718 0
M  V30 31493 H 2935.49 0.272352 2.9846 0
M  V30 31494 H 2933.05 0.291443 1.59255 0
M  V30 31495 H 2935.04 -2.228 3.3785 0
M  V30 31496 H 2933.61 -2.08929 2.32524 0
M  V30 31497 H 2932.83 -0.197016 3.93707 0
M  V30 31498 H 2934.12 -0.720067 5.03679 0
M  V30 31499 H 2933.52 -3.78931 4.20033 0
M  V30 31500 H 2932.07 -4.07308 5.08865 0
M  V30 31501 N 2935.51 -1.56408 0.193449 0
M  V30 31502 C 2936.45 -2.20353 -0.744791 0
M  V30 31503 C 2937.45 -1.1742 -1.22102 0
M  V30 31504 O 2938.65 -1.35569 -1.18411 0
M  V30 31505 H 2935.03 -0.706165 -0.258525 0
M  V30 31506 H 2937 -2.97846 -0.181742 0
M  V30 31507 C 2935.75 -2.87568 -1.95448 0
M  V30 31508 H 2935.07 -3.66514 -1.5971 0
M  V30 31509 H 2936.51 -3.3575 -2.58936 0
M  V30 31510 C 2934.97 -1.88515 -2.7922 0
M  V30 31511 O 2935.5 -1.38441 -3.7709 0
M  V30 31512 N 2933.71 -1.56781 -2.44679 0
M  V30 31513 H 2933.25 -1.97695 -1.6515 0
M  V30 31514 H 2933.21 -0.907626 -3.01014 0
M  V30 31515 N 2936.98 0.0801629 -1.57396 0
M  V30 31516 C 2937.92 1.12771 -1.98388 0
M  V30 31517 C 2938.9 1.3803 -0.859447 0
M  V30 31518 O 2940.08 1.51542 -1.12104 0
M  V30 31519 C 2937.21 2.47382 -2.31344 0
M  V30 31520 C 2936.25 2.3831 -3.5371 0
M  V30 31521 S 2937.09 1.78525 -5.04865 0
M  V30 31522 C 2938.24 3.14731 -5.41013 0
M  V30 31523 H 2938.47 0.778331 -2.86931 0
M  V30 31524 H 2936.01 0.288393 -1.51683 0
M  V30 31525 H 2937.97 3.24817 -2.51006 0
M  V30 31526 H 2936.63 2.79483 -1.43345 0
M  V30 31527 H 2935.82 3.37559 -3.74259 0
M  V30 31528 H 2935.42 1.69008 -3.33635 0
M  V30 31529 H 2937.71 4.11031 -5.38572 0
M  V30 31530 H 2938.66 2.9897 -6.4189 0
M  V30 31531 H 2939.06 3.1495 -4.68473 0
M  V30 31532 N 2938.46 1.53634 0.351355 0
M  V30 31533 C 2939.71 1.70167 1.09031 0
M  V30 31534 C 2940.03 0.463456 1.89412 0
M  V30 31535 O 2939.3 -0.522591 1.88801 0
M  V30 31536 H 2937.88 0.627351 0.405511 0
M  V30 31537 H 2940.54 1.90865 0.39452 0
M  V30 31538 H 2939.64 2.5691 1.7721 0
M  V30 31539 N 2939.94 -0.611943 1.45234 0
M  V30 31540 C 2941.17 -1.39578 1.5232 0
M  V30 31541 C 2941.58 -1.88579 0.153126 0
M  V30 31542 O 2940.92 -1.62602 -0.854763 0
M  V30 31543 C 2940.98 -2.63771 2.44265 0
M  V30 31544 C 2940.65 -2.36438 3.91083 0
M  V30 31545 C 2941.64 -1.9707 4.81102 0
M  V30 31546 C 2939.33 -2.49484 4.35962 0
M  V30 31547 C 2941.32 -1.71104 6.14005 0
M  V30 31548 C 2939.01 -2.23132 5.68907 0
M  V30 31549 C 2940.01 -1.84003 6.57748 0
M  V30 31550 O 2939.7 -1.57956 7.88229 0
M  V30 31551 H 2939.43 -0.433821 0.518435 0
M  V30 31552 H 2941.98 -0.753803 1.91068 0
M  V30 31553 H 2940.21 -3.30673 2.0048 0
M  V30 31554 H 2941.9 -3.25808 2.42083 0
M  V30 31555 H 2942.67 -1.86531 4.47695 0
M  V30 31556 H 2938.55 -2.78908 3.67058 0
M  V30 31557 H 2942.09 -1.40488 6.83307 0
M  V30 31558 H 2937.99 -2.33287 6.0187 0
M  V30 31559 H 2938.76 -1.72044 8.00214 0
M  V30 31560 N 2941.42 -1.32452 -0.854063 0
M  V30 31561 C 2942.66 -1.24363 -1.62214 0
M  V30 31562 C 2943.02 0.19153 -1.91042 0
M  V30 31563 O 2944.22 0.396164 -2.65865 0
M  V30 31564 C 2942.49 -2.07976 -2.90656 0
M  V30 31565 S 2944.05 -2.16918 -3.81434 0
M  V30 31566 H 2940.87 -0.442678 -0.556378 0
M  V30 31567 H 2943.47 -1.67307 -1.01136 0
M  V30 31568 H 2942.18 -3.11307 -2.67425 0
M  V30 31569 H 2941.71 -1.65811 -3.5675 0
M  V30 31570 H 2943.72 -1.31911 -4.78345 0
M  V30 31571 N 2942.9 1.07041 -1.15672 0
M  V30 31572 C 2944.31 1.61168 -0.942437 0
M  V30 31573 C 2944.66 1.89307 0.515504 0
M  V30 31574 O 2943.78 1.66087 1.38723 0
M  V30 31575 C 2944.38 2.92809 -1.70436 0
M  V30 31576 C 2942.94 3.43666 -1.53527 0
M  V30 31577 C 2942.09 2.17675 -1.71794 0
M  V30 31578 H 2945.04 0.900877 -1.30652 0
M  V30 31579 H 2945.06 3.6188 -1.17572 0
M  V30 31580 H 2944.57 2.72297 -2.76543 0
M  V30 31581 H 2942.67 3.69253 -0.498289 0
M  V30 31582 H 2942.78 4.19496 -2.31429 0
M  V30 31583 H 2941.15 2.27527 -1.14472 0
M  V30 31584 H 2941.93 1.99654 -2.79272 0
M  V30 31585 N 2944.38 0.954014 1.25445 0
M  V30 31586 C 2945.31 0.431044 2.2511 0
M  V30 31587 C 2946.32 -0.452736 1.56378 0
M  V30 31588 O 2947.51 -0.261113 1.7658 0
M  V30 31589 C 2944.61 -0.398331 3.36551 0
M  V30 31590 C 2943.78 0.472306 4.34843 0
M  V30 31591 C 2942.84 -0.298767 5.25351 0
M  V30 31592 O 2941.87 0.302622 5.68395 0
M  V30 31593 N 2943.07 -1.59202 5.58243 0
M  V30 31594 H 2945.83 1.28789 2.70617 0
M  V30 31595 H 2943.4 0.824306 1.39344 0
M  V30 31596 H 2945.39 -0.921872 3.9406 0
M  V30 31597 H 2943.96 -1.15604 2.90438 0
M  V30 31598 H 2943.18 1.17695 3.7622 0
M  V30 31599 H 2944.47 1.06657 4.97495 0
M  V30 31600 H 2943.86 -2.10255 5.25176 0
M  V30 31601 H 2942.42 -2.06153 6.1834 0
M  V30 31602 N 2945.85 -1.40063 0.722513 0
M  V30 31603 C 2947.1 -2.00758 0.265014 0
M  V30 31604 C 2947.43 -1.57304 -1.14393 0
M  V30 31605 O 2946.68 -0.78733 -1.79164 0
M  V30 31606 C 2946.98 -3.56132 0.300745 0
M  V30 31607 C 2946.65 -4.19194 1.66095 0
M  V30 31608 C 2945.31 -4.36133 2.03327 0
M  V30 31609 C 2947.66 -4.54301 2.5546 0
M  V30 31610 C 2944.99 -4.85464 3.29456 0
M  V30 31611 C 2947.34 -5.05036 3.80948 0
M  V30 31612 C 2946.01 -5.20183 4.18289 0
M  V30 31613 H 2945.28 -0.734627 0.0969754 0
M  V30 31614 H 2947.92 -1.67573 0.926906 0
M  V30 31615 H 2946.23 -3.89268 -0.444722 0
M  V30 31616 H 2947.93 -4.00937 -0.0711837 0
M  V30 31617 H 2944.52 -4.06402 1.36144 0
M  V30 31618 H 2948.7 -4.40845 2.27968 0
M  V30 31619 H 2943.96 -4.95376 3.58347 0
M  V30 31620 H 2948.13 -5.31176 4.50361 0
M  V30 31621 H 2945.76 -5.5817 5.16091 0
M  V30 31622 N 2947.33 -0.469207 -1.50453 0
M  V30 31623 C 2948.61 0.14792 -1.9504 0
M  V30 31624 C 2948.99 1.57151 -1.40949 0
M  V30 31625 O 2948.34 2.20216 -0.609702 0
M  V30 31626 C 2948.55 0.0931585 -3.48876 0
M  V30 31627 C 2949.89 0.282982 -4.23656 0
M  V30 31628 O 2950.92 0.169829 -3.55795 0
M  V30 31629 O 2949.78 0.511301 -5.44103 0
M  V30 31630 H 2946.87 0.112696 -0.819285 0
M  V30 31631 H 2949.42 -0.529474 -1.61229 0
M  V30 31632 H 2948.19 -0.900851 -3.80789 0
M  V30 31633 H 2947.81 0.812093 -3.89218 0
M  V30 31634 N 2948.81 1.56303 -0.201741 0
M  V30 31635 C 2949.77 2.1816 0.702773 0
M  V30 31636 C 2950.77 1.13789 1.13617 0
M  V30 31637 O 2951.96 1.39136 1.04818 0
M  V30 31638 C 2949.09 2.78902 1.96027 0
M  V30 31639 H 2950.29 2.99452 0.163783 0
M  V30 31640 H 2947.84 1.56227 0.0478825 0
M  V30 31641 H 2948.58 2.01426 2.54162 0
M  V30 31642 H 2948.36 3.55312 1.65818 0
M  V30 31643 H 2949.85 3.26378 2.60513 0
M  V30 31644 N 2950.29 -0.0718147 1.57436 0
M  V30 31645 C 2951.54 -0.769793 1.86432 0
M  V30 31646 C 2951.85 -1.78742 0.794386 0
M  V30 31647 O 2953.06 -2.53497 0.972193 0
M  V30 31648 C 2951.51 -1.42 3.30702 0
M  V30 31649 C 2951.12 -0.440939 4.45825 0
M  V30 31650 C 2952.86 -2.10035 3.68898 0
M  V30 31651 C 2950.77 -1.09706 5.81136 0
M  V30 31652 H 2949.7 -0.291247 0.695479 0
M  V30 31653 H 2952.35 -0.0230901 1.83485 0
M  V30 31654 H 2950.73 -2.21497 3.28261 0
M  V30 31655 H 2951.91 0.324211 4.59658 0
M  V30 31656 H 2950.22 0.134959 4.16181 0
M  V30 31657 H 2952.82 -2.599 4.67286 0
M  V30 31658 H 2953.16 -2.89975 2.98697 0
M  V30 31659 H 2953.7 -1.3737 3.73329 0
M  V30 31660 H 2950.43 -0.33798 6.54628 0
M  V30 31661 H 2949.95 -1.83307 5.71103 0
M  V30 31662 H 2951.63 -1.61689 6.26471 0
M  V30 31663 N 2951.77 -1.53818 -0.343203 0
M  V30 31664 C 2952.99 -1.75019 -1.10345 0
M  V30 31665 C 2953.41 -0.489507 -1.82344 0
M  V30 31666 O 2952.77 0.538855 -1.74363 0
M  V30 31667 C 2952.82 -2.93052 -2.11667 0
M  V30 31668 O 2952.54 -4.14244 -1.42596 0
M  V30 31669 C 2954.04 -3.26307 -3.00065 0
M  V30 31670 H 2951.26 -0.584782 -0.329046 0
M  V30 31671 H 2953.8 -2.00643 -0.395304 0
M  V30 31672 H 2951.96 -2.69758 -2.78046 0
M  V30 31673 H 2952.37 -4.805 -2.10286 0
M  V30 31674 H 2953.85 -4.12245 -3.67094 0
M  V30 31675 H 2954.32 -2.42625 -3.66101 0
M  V30 31676 H 2954.93 -3.51608 -2.39274 0
M  V30 31677 N 2953.24 0.604233 -1.45557 0
M  V30 31678 C 2954.15 1.74297 -1.57028 0
M  V30 31679 C 2955.17 1.67957 -0.454589 0
M  V30 31680 O 2956.35 1.88253 -0.715745 0
M  V30 31681 C 2953.41 3.10765 -1.53707 0
M  V30 31682 C 2952.47 3.28533 -2.76341 0
M  V30 31683 C 2951.7 4.58491 -2.73169 0
M  V30 31684 O 2951.93 5.41025 -1.80687 0
M  V30 31685 O 2950.86 4.79044 -3.64418 0
M  V30 31686 H 2954.69 1.67569 -2.53287 0
M  V30 31687 H 2952.27 0.768722 -1.28105 0
M  V30 31688 H 2954.15 3.92066 -1.54475 0
M  V30 31689 H 2952.83 3.17977 -0.606013 0
M  V30 31690 H 2951.74 2.46808 -2.81134 0
M  V30 31691 H 2953.07 3.262 -3.68584 0
M  V30 31692 N 2954.72 1.32903 0.847027 0
M  V30 31693 C 2955.65 1.25095 1.97164 0
M  V30 31694 C 2956.63 0.133191 1.69578 0
M  V30 31695 O 2957.82 0.321625 1.91518 0
M  V30 31696 C 2954.95 0.981064 3.33155 0
M  V30 31697 C 2953.9 2.06088 3.75116 0
M  V30 31698 C 2953.23 1.64327 5.08823 0
M  V30 31699 C 2954.53 3.47676 3.89768 0
M  V30 31700 H 2956.22 2.19187 2.03954 0
M  V30 31701 H 2953.77 1.05519 0.979888 0
M  V30 31702 H 2955.72 0.912964 4.11391 0
M  V30 31703 H 2954.44 0.00451299 3.266 0
M  V30 31704 H 2953.1 2.11927 2.99137 0
M  V30 31705 H 2952.75 0.653964 4.98731 0
M  V30 31706 H 2952.45 2.36582 5.37869 0
M  V30 31707 H 2953.98 1.58968 5.89543 0
M  V30 31708 H 2955.39 3.44384 4.58337 0
M  V30 31709 H 2953.79 4.18346 4.30241 0
M  V30 31710 H 2954.86 3.86778 2.92456 0
M  V30 31711 N 2956.2 -1.06426 1.16238 0
M  V30 31712 C 2957.13 -2.15838 0.890845 0
M  V30 31713 C 2958.11 -1.69324 -0.162303 0
M  V30 31714 O 2959.3 -1.94194 -0.014685 0
M  V30 31715 C 2956.43 -3.45107 0.389675 0
M  V30 31716 C 2955.38 -4.05122 1.38058 0
M  V30 31717 C 2954.71 -5.29584 0.737867 0
M  V30 31718 C 2956.01 -4.44058 2.74973 0
M  V30 31719 H 2957.7 -2.38811 1.80582 0
M  V30 31720 H 2955.25 -1.14772 0.869677 0
M  V30 31721 H 2957.2 -4.20984 0.187201 0
M  V30 31722 H 2955.92 -3.21749 -0.560794 0
M  V30 31723 H 2954.58 -3.313 1.56958 0
M  V30 31724 H 2954.23 -5.02523 -0.219047 0
M  V30 31725 H 2953.93 -5.70697 1.39924 0
M  V30 31726 H 2955.45 -6.08159 0.545381 0
M  V30 31727 H 2956.87 -5.11022 2.59864 0
M  V30 31728 H 2955.26 -4.9615 3.37572 0
M  V30 31729 H 2956.33 -3.54982 3.30327 0
M  V30 31730 N 2957.68 -0.960653 -1.24937 0
M  V30 31731 C 2958.91 -0.636079 -1.9688 0
M  V30 31732 C 2959.32 0.793063 -1.71336 0
M  V30 31733 O 2958.68 1.53124 -0.992944 0
M  V30 31734 C 2958.73 -0.892595 -3.50307 0
M  V30 31735 O 2958.45 -2.26555 -3.74973 0
M  V30 31736 C 2959.95 -0.581237 -4.39473 0
M  V30 31737 H 2957.17 -0.237942 -0.627395 0
M  V30 31738 H 2959.72 -1.28667 -1.5895 0
M  V30 31739 H 2957.87 -0.288325 -3.86326 0
M  V30 31740 H 2958.28 -2.34022 -4.69397 0
M  V30 31741 H 2959.76 -0.811221 -5.46007 0
M  V30 31742 H 2960.24 0.484353 -4.36521 0
M  V30 31743 H 2960.84 -1.1651 -4.0903 0
M  V30 31744 N 2959.16 1.39677 -0.729931 0
M  V30 31745 C 2960.4 2.00219 -0.275112 0
M  V30 31746 C 2960.73 1.58201 1.14007 0
M  V30 31747 O 2960 0.827935 1.77544 0
M  V30 31748 H 2958.58 0.740447 -0.0987258 0
M  V30 31749 H 2961.24 1.70802 -0.93876 0
M  V30 31750 H 2960.33 3.1046 -0.3195 0
M  V30 31751 N 2960.63 0.47718 1.50202 0
M  V30 31752 C 2962.05 0.131691 1.59056 0
M  V30 31753 C 2962.25 -1.36225 1.48476 0
M  V30 31754 O 2961.31 -2.13609 1.34638 0
M  V30 31755 C 2962.62 0.687306 2.9274 0
M  V30 31756 C 2964.17 0.651277 3.06149 0
M  V30 31757 C 2964.64 1.18454 4.42417 0
M  V30 31758 N 2966.13 1.14421 4.48845 0
M  V30 31759 C 2966.87 1.52727 5.52686 0
M  V30 31760 N 2966.36 1.98511 6.63751 0
M  V30 31761 N 2968.16 1.44292 5.43265 0
M  V30 31762 H 2960.31 1.44874 1.55323 0
M  V30 31763 H 2962.57 0.599486 0.734385 0
M  V30 31764 H 2962.28 1.7341 3.05977 0
M  V30 31765 H 2962.15 0.134282 3.76961 0
M  V30 31766 H 2964.54 -0.386626 2.92556 0
M  V30 31767 H 2964.62 1.24118 2.2367 0
M  V30 31768 H 2964.26 2.22111 4.5676 0
M  V30 31769 H 2964.19 0.570801 5.23497 0
M  V30 31770 H 2966.68 0.808481 3.6915 0
M  V30 31771 H 2967 2.25872 7.39055 0
M  V30 31772 H 2965.34 2.02468 6.64855 0
M  V30 31773 H 2968.53 1.0836 4.55385 0
M  V30 31774 H 2968.71 1.7447 6.24071 0
M  V30 31775 N 2962.11 -1.56194 0.210027 0
M  V30 31776 C 2963.02 -2.23393 -0.716419 0
M  V30 31777 C 2964.04 -1.2378 -1.22289 0
M  V30 31778 O 2965.21 -1.56561 -1.26692 0
M  V30 31779 C 2962.28 -2.89175 -1.91256 0
M  V30 31780 C 2961.34 -4.041 -1.4492 0
M  V30 31781 C 2960.57 -4.66735 -2.58832 0
M  V30 31782 O 2960.8 -4.28327 -3.76686 0
M  V30 31783 O 2959.73 -5.55936 -2.30692 0
M  V30 31784 H 2963.56 -3.03201 -0.174036 0
M  V30 31785 H 2961.14 -1.49387 -0.0199242 0
M  V30 31786 H 2963.02 -3.30737 -2.61134 0
M  V30 31787 H 2961.7 -2.12336 -2.44326 0
M  V30 31788 H 2960.61 -3.6713 -0.718775 0
M  V30 31789 H 2961.94 -4.82648 -0.964999 0
M  V30 31790 N 2963.59 0.0634645 -1.57472 0
M  V30 31791 C 2964.54 1.08163 -2.00711 0
M  V30 31792 C 2965.52 1.34009 -0.890522 0
M  V30 31793 O 2966.72 1.3417 -1.15444 0
M  V30 31794 C 2963.85 2.39299 -2.46153 0
M  V30 31795 C 2962.93 2.1669 -3.64563 0
M  V30 31796 N 2963.32 1.64035 -4.78462 0
M  V30 31797 C 2961.62 2.47128 -3.71273 0
M  V30 31798 C 2962.32 1.56436 -5.6027 0
M  V30 31799 N 2961.3 2.02783 -5.04361 0
M  V30 31800 H 2965.1 0.667966 -2.86209 0
M  V30 31801 H 2962.61 0.270398 -1.60133 0
M  V30 31802 H 2964.61 3.13011 -2.75372 0
M  V30 31803 H 2963.27 2.81374 -1.62045 0
M  V30 31804 H 2964.28 1.32782 -5.00589 0
M  V30 31805 H 2960.96 2.92513 -2.97897 0
M  V30 31806 H 2962.35 1.16507 -6.61722 0
M  V30 31807 N 2965.07 1.53998 0.33504 0
M  V30 31808 C 2966.31 1.71907 1.07591 0
M  V30 31809 C 2966.65 0.485297 1.88039 0
M  V30 31810 O 2965.92 -0.51772 1.87483 0
M  V30 31811 C 2966.21 2.98775 2.01011 0
M  V30 31812 C 2966.06 4.32379 1.23969 0
M  V30 31813 C 2967.38 3.21348 3.00705 0
M  V30 31814 H 2964.5 0.625511 0.389749 0
M  V30 31815 H 2967.14 1.8668 0.353651 0
M  V30 31816 H 2965.29 2.86312 2.62598 0
M  V30 31817 H 2966.96 4.56708 0.649303 0
M  V30 31818 H 2965.2 4.30403 0.541803 0
M  V30 31819 H 2965.87 5.17346 1.92503 0
M  V30 31820 H 2968.35 3.33199 2.49235 0
M  V30 31821 H 2967.23 4.11497 3.63265 0
M  V30 31822 H 2967.49 2.3804 3.72545 0
M  V30 31823 N 2966.55 -0.596505 1.45875 0
M  V30 31824 C 2967.46 -1.73461 1.5795 0
M  V30 31825 C 2968.47 -1.67713 0.46349 0
M  V30 31826 O 2969.65 -1.8787 0.725718 0
M  V30 31827 C 2966.71 -3.09946 1.55353 0
M  V30 31828 C 2965.77 -3.27063 2.7808 0
M  V30 31829 C 2965.01 -4.57036 2.75597 0
M  V30 31830 O 2965.23 -5.40059 1.83554 0
M  V30 31831 O 2964.16 -4.77105 3.66953 0
M  V30 31832 H 2967.99 -1.66223 2.54172 0
M  V30 31833 H 2965.58 -0.761918 1.28511 0
M  V30 31834 H 2967.46 -3.91241 1.56552 0
M  V30 31835 H 2966.13 -3.17651 0.622867 0
M  V30 31836 H 2965.04 -2.45314 2.82439 0
M  V30 31837 H 2966.37 -3.24241 3.70309 0
M  V30 31838 N 2968.02 -1.3335 -0.839967 0
M  V30 31839 C 2969.27 -1.24745 -1.59515 0
M  V30 31840 C 2969.6 0.187043 -1.93599 0
M  V30 31841 O 2968.85 1.14395 -1.58784 0
M  V30 31842 C 2969.15 -2.06697 -2.91567 0
M  V30 31843 C 2968.82 -3.559 -2.7685 0
M  V30 31844 C 2967.48 -3.96577 -2.72544 0
M  V30 31845 C 2969.83 -4.50716 -2.61733 0
M  V30 31846 C 2967.16 -5.30289 -2.51019 0
M  V30 31847 C 2969.51 -5.84588 -2.41742 0
M  V30 31848 C 2968.18 -6.24449 -2.35837 0
M  V30 31849 H 2967.45 -0.456474 -0.583706 0
M  V30 31850 H 2970.09 -1.64926 -0.973232 0
M  V30 31851 H 2968.4 -1.5929 -3.57958 0
M  V30 31852 H 2970.1 -1.97397 -3.4905 0
M  V30 31853 H 2966.69 -3.23602 -2.81034 0
M  V30 31854 H 2970.87 -4.20199 -2.64095 0
M  V30 31855 H 2966.13 -5.60212 -2.44893 0
M  V30 31856 H 2970.3 -6.57662 -2.29028 0
M  V30 31857 H 2967.93 -7.27996 -2.18918 0
M  V30 31858 N 2969.5 1.05808 -1.16801 0
M  V30 31859 C 2970.75 1.78697 -0.952555 0
M  V30 31860 C 2971.08 1.8744 0.519277 0
M  V30 31861 O 2970.33 1.3659 1.40149 0
M  V30 31862 C 2970.63 3.2294 -1.53117 0
M  V30 31863 C 2970.3 3.34267 -3.02616 0
M  V30 31864 C 2968.96 3.37066 -3.43424 0
M  V30 31865 C 2971.31 3.35788 -3.98617 0
M  V30 31866 C 2968.64 3.39007 -4.78844 0
M  V30 31867 C 2970.99 3.39267 -5.33929 0
M  V30 31868 C 2969.66 3.4035 -5.74211 0
M  V30 31869 H 2968.93 0.653899 -0.348565 0
M  V30 31870 H 2971.57 1.24398 -1.45593 0
M  V30 31871 H 2969.88 3.80124 -0.949353 0
M  V30 31872 H 2971.57 3.77945 -1.34009 0
M  V30 31873 H 2968.16 3.32798 -2.70081 0
M  V30 31874 H 2972.35 3.32833 -3.68152 0
M  V30 31875 H 2967.6 3.38152 -5.09375 0
M  V30 31876 H 2971.78 3.39392 -6.081 0
M  V30 31877 H 2969.41 3.41608 -6.79123 0
M  V30 31878 N 2970.98 0.967265 1.24426 0
M  V30 31879 C 2971.94 0.501966 2.23636 0
M  V30 31880 C 2972.94 -0.401256 1.55713 0
M  V30 31881 O 2974.13 -0.196777 1.73085 0
M  V30 31882 C 2971.27 -0.273117 3.39804 0
M  V30 31883 H 2972.46 1.37901 2.66314 0
M  V30 31884 H 2970.01 0.751807 1.37031 0
M  V30 31885 H 2970.75 -1.16728 3.02564 0
M  V30 31886 H 2970.53 0.375049 3.90302 0
M  V30 31887 H 2972.02 -0.587703 4.13444 0
M  V30 31888 N 2972.46 -1.39288 0.737328 0
M  V30 31889 C 2973.39 -2.33221 0.114029 0
M  V30 31890 C 2974.37 -1.54032 -0.721668 0
M  V30 31891 O 2975.56 -1.82416 -0.666174 0
M  V30 31892 C 2972.69 -3.38143 -0.792259 0
M  V30 31893 C 2971.64 -4.27957 -0.0605426 0
M  V30 31894 C 2970.97 -5.23597 -1.084 0
M  V30 31895 C 2972.27 -5.10623 1.09826 0
M  V30 31896 H 2973.96 -2.85595 0.898661 0
M  V30 31897 H 2971.51 -1.37317 0.433595 0
M  V30 31898 H 2973.46 -4.02809 -1.23786 0
M  V30 31899 H 2972.18 -2.84214 -1.60903 0
M  V30 31900 H 2970.84 -3.64774 0.365457 0
M  V30 31901 H 2970.49 -4.65963 -1.8944 0
M  V30 31902 H 2970.19 -5.84537 -0.599166 0
M  V30 31903 H 2971.71 -5.9114 -1.52925 0
M  V30 31904 H 2973.13 -5.68621 0.730992 0
M  V30 31905 H 2971.52 -5.80717 1.51288 0
M  V30 31906 H 2972.59 -4.45318 1.91886 0
M  V30 31907 N 2973.94 -0.485139 -1.49947 0
M  V30 31908 C 2974.87 0.291323 -2.31676 0
M  V30 31909 C 2975.85 0.977359 -1.39218 0
M  V30 31910 O 2977.03 0.971825 -1.68134 0
M  V30 31911 C 2974.16 1.36552 -3.19329 0
M  V30 31912 C 2973.12 0.800285 -4.20451 0
M  V30 31913 C 2972.44 1.97382 -4.96935 0
M  V30 31914 C 2973.74 -0.197959 -5.21925 0
M  V30 31915 H 2975.44 -0.390827 -2.96838 0
M  V30 31916 H 2972.98 -0.189401 -1.42749 0
M  V30 31917 H 2974.94 1.91631 -3.75307 0
M  V30 31918 H 2973.66 2.07664 -2.52078 0
M  V30 31919 H 2972.32 0.271364 -3.65594 0
M  V30 31920 H 2971.97 2.67225 -4.26145 0
M  V30 31921 H 2971.67 1.60177 -5.65347 0
M  V30 31922 H 2973.19 2.52925 -5.55753 0
M  V30 31923 H 2974.61 0.264138 -5.72691 0
M  V30 31924 H 2973 -0.485014 -5.98137 0
M  V30 31925 H 2974.07 -1.1192 -4.71807 0
M  V30 31926 N 2975.42 1.56081 -0.218307 0
M  V30 31927 C 2976.83 1.5901 0.13714 0
M  V30 31928 C 2977.03 1.23505 1.59213 0
M  V30 31929 O 2976.09 0.968757 2.33177 0
M  V30 31930 C 2977.4 3.00123 -0.186215 0
M  V30 31931 C 2978.95 3.12737 -0.12819 0
M  V30 31932 C 2979.42 4.56022 -0.425174 0
M  V30 31933 N 2980.91 4.61683 -0.374628 0
M  V30 31934 C 2981.65 5.7048 -0.57796 0
M  V30 31935 N 2981.15 6.87653 -0.842892 0
M  V30 31936 N 2982.94 5.59776 -0.510619 0
M  V30 31937 H 2975.09 1.77435 -1.16749 0
M  V30 31938 H 2977.35 0.824586 -0.46772 0
M  V30 31939 H 2977.06 3.30742 -1.19594 0
M  V30 31940 H 2976.93 3.73867 0.500323 0
M  V30 31941 H 2979.32 2.81917 0.872174 0
M  V30 31942 H 2979.4 2.4133 -0.848155 0
M  V30 31943 H 2979.04 4.87559 -1.42296 0
M  V30 31944 H 2978.97 5.25651 0.315945 0
M  V30 31945 H 2981.47 3.77483 -0.177422 0
M  V30 31946 H 2981.78 7.66481 -0.98623 0
M  V30 31947 H 2980.12 6.89406 -0.88005 0
M  V30 31948 H 2983.31 4.67112 -0.303895 0
M  V30 31949 H 2983.49 6.44501 -0.672491 0
M  V30 31950 N 2976.89 -0.0551124 1.57504 0
M  V30 31951 C 2978.14 -0.749587 1.87685 0
M  V30 31952 C 2978.46 -1.77263 0.812578 0
M  V30 31953 O 2977.73 -1.95271 -0.156906 0
M  V30 31954 H 2976.31 -0.279834 0.692605 0
M  V30 31955 H 2978.97 -0.0272402 1.94881 0
M  V30 31956 H 2978.07 -1.25543 2.85736 0
M  V30 31957 N 2978.37 -1.54173 -0.326869 0
M  V30 31958 C 2979.62 -1.72475 -1.06678 0
M  V30 31959 C 2979.95 -0.495263 -1.87779 0
M  V30 31960 O 2979.23 0.50777 -1.87755 0
M  V30 31961 C 2979.51 -2.99837 -1.99423 0
M  V30 31962 C 2979.36 -4.3303 -1.21674 0
M  V30 31963 C 2980.68 -3.22939 -2.98996 0
M  V30 31964 H 2977.8 -0.62757 -0.386427 0
M  V30 31965 H 2980.44 -1.86865 -0.343746 0
M  V30 31966 H 2978.59 -2.877 -2.61076 0
M  V30 31967 H 2980.26 -4.57045 -0.625073 0
M  V30 31968 H 2978.51 -4.30685 -0.51897 0
M  V30 31969 H 2979.18 -5.18359 -1.89757 0
M  V30 31970 H 2981.65 -3.34516 -2.47464 0
M  V30 31971 H 2980.53 -4.13418 -3.61077 0
M  V30 31972 H 2980.79 -2.40012 -3.71277 0
M  V30 31973 N 2979.85 0.58876 -1.4619 0
M  V30 31974 C 2981.26 1.17085 -1.45423 0
M  V30 31975 C 2981.61 1.9526 -0.191836 0
M  V30 31976 O 2980.74 2.04578 0.705461 0
M  V30 31977 C 2981.33 2.12999 -2.63471 0
M  V30 31978 C 2979.89 2.66545 -2.65764 0
M  V30 31979 C 2979.04 1.423 -2.38004 0
M  V30 31980 H 2981.99 0.377025 -1.54156 0
M  V30 31981 H 2982.01 2.96361 -2.38643 0
M  V30 31982 H 2981.52 1.56075 -3.55334 0
M  V30 31983 H 2979.62 3.27356 -1.77957 0
M  V30 31984 H 2979.74 3.09693 -3.6555 0
M  V30 31985 H 2978.1 1.71904 -1.87939 0
M  V30 31986 H 2978.88 0.87215 -3.32037 0
M  V30 31987 N 2981.33 1.33794 0.832883 0
M  V30 31988 C 2982.24 1.26595 1.97511 0
M  V30 31989 C 2983.25 0.175421 1.73113 0
M  V30 31990 O 2984.43 0.400097 1.97386 0
M  V30 31991 C 2981.49 1.01127 3.31624 0
M  V30 31992 C 2980.56 2.1924 3.69097 0
M  V30 31993 C 2979.79 1.94977 4.96809 0
M  V30 31994 O 2980.01 0.903054 5.63206 0
M  V30 31995 O 2978.95 2.81669 5.31927 0
M  V30 31996 H 2982.77 2.22667 2.06526 0
M  V30 31997 H 2980.36 1.139 0.966806 0
M  V30 31998 H 2982.24 0.886643 4.11967 0
M  V30 31999 H 2980.91 0.0808789 3.23599 0
M  V30 32000 H 2979.82 2.37259 2.89239 0
M  V30 32001 H 2981.15 3.10634 3.81795 0
M  V30 32002 N 2982.81 -1.05187 1.1736 0
M  V30 32003 C 2983.75 -2.12935 0.890362 0
M  V30 32004 C 2984.72 -1.65271 -0.165749 0
M  V30 32005 O 2985.91 -1.90779 -0.0285337 0
M  V30 32006 C 2983.05 -3.42658 0.409854 0
M  V30 32007 C 2982.16 -4.03995 1.53009 0
M  V30 32008 C 2981.3 -5.21636 1.00345 0
M  V30 32009 C 2980.33 -5.74981 2.09913 0
M  V30 32010 N 2979.47 -6.83923 1.58726 0
M  V30 32011 H 2984.31 -2.36502 1.81304 0
M  V30 32012 H 2981.85 -1.16023 0.904269 0
M  V30 32013 H 2983.81 -4.17047 0.112817 0
M  V30 32014 H 2982.44 -3.19273 -0.475859 0
M  V30 32015 H 2981.49 -3.27043 1.94285 0
M  V30 32016 H 2982.8 -4.39627 2.35648 0
M  V30 32017 H 2981.95 -6.03097 0.660264 0
M  V30 32018 H 2980.69 -4.8748 0.146506 0
M  V30 32019 H 2979.7 -4.9215 2.45089 0
M  V30 32020 H 2980.92 -6.11185 2.96024 0
M  V30 32021 H 2978.87 -6.51664 0.753029 0
M  V30 32022 H 2978.79 -7.18557 2.34972 0
M  V30 32023 H 2980.05 -7.69035 1.273 0
M  V30 32024 N 2984.28 -0.97385 -1.23911 0
M  V30 32025 C 2985.19 -0.516776 -2.28837 0
M  V30 32026 C 2986.21 0.425253 -1.68723 0
M  V30 32027 O 2987.39 0.296784 -1.99201 0
M  V30 32028 C 2984.45 0.179853 -3.46233 0
M  V30 32029 C 2983.51 -0.802764 -4.21728 0
M  V30 32030 C 2982.74 -0.139285 -5.33518 0
M  V30 32031 O 2982.97 1.07108 -5.60253 0
M  V30 32032 O 2981.9 -0.834552 -5.96086 0
M  V30 32033 H 2985.73 -1.38921 -2.70064 0
M  V30 32034 H 2983.31 -0.741173 -1.29719 0
M  V30 32035 H 2985.19 0.570917 -4.17515 0
M  V30 32036 H 2983.87 1.02716 -3.06971 0
M  V30 32037 H 2982.78 -1.2444 -3.52797 0
M  V30 32038 H 2984.11 -1.61867 -4.64822 0
M  V30 32039 N 2985.76 1.38895 -0.744705 0
M  V30 32040 C 2987.01 2.00608 -0.297359 0
M  V30 32041 C 2987.34 1.5897 1.11544 0
M  V30 32042 O 2986.62 0.823088 1.76226 0
M  V30 32043 C 2986.9 3.57756 -0.410188 0
M  V30 32044 C 2986.75 4.09384 -1.86345 0
M  V30 32045 C 2988.07 4.39638 0.201683 0
M  V30 32046 H 2985.19 0.728817 -0.109522 0
M  V30 32047 H 2987.83 1.64965 -0.942682 0
M  V30 32048 H 2985.98 3.8825 0.139219 0
M  V30 32049 H 2987.65 3.8957 -2.47049 0
M  V30 32050 H 2985.9 3.62582 -2.38153 0
M  V30 32051 H 2986.57 5.18504 -1.89361 0
M  V30 32052 H 2989.04 4.15244 -0.266776 0
M  V30 32053 H 2987.92 5.48822 0.0924451 0
M  V30 32054 H 2988.18 4.22894 1.28892 0
M  V30 32055 N 2987.24 0.493084 1.49688 0
M  V30 32056 C 2988.49 -0.0541287 2.02028 0
M  V30 32057 C 2988.81 -1.38215 1.37556 0
M  V30 32058 O 2988.08 -1.88645 0.528207 0
M  V30 32059 H 2986.66 -0.0229938 0.746646 0
M  V30 32060 H 2989.32 0.648521 1.83794 0
M  V30 32061 H 2988.42 -0.189597 3.11524 0
M  V30 32062 N 2988.72 -1.55963 0.226582 0
M  V30 32063 C 2989.67 -2.2051 -0.681465 0
M  V30 32064 C 2990.64 -1.16231 -1.18658 0
M  V30 32065 O 2991.82 -1.44605 -1.24475 0
M  V30 32066 C 2988.96 -2.8928 -1.88178 0
M  V30 32067 C 2988.07 -4.08165 -1.4151 0
M  V30 32068 C 2987.21 -4.64705 -2.57338 0
M  V30 32069 C 2986.25 -5.75881 -2.07431 0
M  V30 32070 N 2985.38 -6.2669 -3.1655 0
M  V30 32071 H 2990.22 -2.97741 -0.124319 0
M  V30 32072 H 2987.76 -1.47016 -0.0496074 0
M  V30 32073 H 2989.72 -3.27339 -2.5866 0
M  V30 32074 H 2988.35 -2.14559 -2.41173 0
M  V30 32075 H 2987.4 -3.75558 -0.605033 0
M  V30 32076 H 2988.71 -4.88484 -1.00919 0
M  V30 32077 H 2987.87 -5.05233 -3.35894 0
M  V30 32078 H 2986.61 -3.8356 -3.0122 0
M  V30 32079 H 2985.61 -5.34851 -1.27338 0
M  V30 32080 H 2986.84 -6.58865 -1.64542 0
M  V30 32081 H 2984.78 -5.48457 -3.59904 0
M  V30 32082 H 2984.7 -7.02146 -2.80226 0
M  V30 32083 H 2985.97 -6.71875 -3.95226 0
M  V30 32084 N 2990.2 0.0467589 -1.57531 0
M  V30 32085 C 2991.44 0.742185 -1.88731 0
M  V30 32086 C 2991.78 1.7594 -0.822115 0
M  V30 32087 O 2991.05 1.938 0.164888 0
M  V30 32088 C 2991.33 1.42771 -3.30588 0
M  V30 32089 C 2991.19 0.425206 -4.47786 0
M  V30 32090 C 2992.51 2.36629 -3.71072 0
M  V30 32091 H 2989.62 0.268347 -0.68641 0
M  V30 32092 H 2992.27 0.00508001 -1.89999 0
M  V30 32093 H 2990.42 2.056 -3.29638 0
M  V30 32094 H 2992.09 -0.199802 -4.60867 0
M  V30 32095 H 2990.33 -0.257207 -4.33037 0
M  V30 32096 H 2991 0.942991 -5.43886 0
M  V30 32097 H 2993.48 1.83859 -3.73276 0
M  V30 32098 H 2992.35 2.81585 -4.7117 0
M  V30 32099 H 2992.62 3.22537 -3.02361 0
M  V30 32100 N 2991.67 1.54344 0.318688 0
M  V30 32101 C 2992.92 1.72441 1.05397 0
M  V30 32102 C 2993.24 0.503528 1.88387 0
M  V30 32103 O 2992.51 -0.482426 1.89867 0
M  V30 32104 H 2991.09 0.635812 0.392113 0
M  V30 32105 H 2993.76 1.91659 0.353946 0
M  V30 32106 H 2992.85 2.60611 1.71721 0
M  V30 32107 N 2993.15 -0.580999 1.465 0
M  V30 32108 C 2994.06 -1.71776 1.59781 0
M  V30 32109 C 2995.08 -1.67212 0.481252 0
M  V30 32110 O 2996.25 -1.8709 0.745603 0
M  V30 32111 C 2993.32 -3.0828 1.58632 0
M  V30 32112 C 2992.38 -3.24095 2.81533 0
M  V30 32113 C 2991.61 -4.54087 2.80429 0
M  V30 32114 O 2991.84 -5.38082 1.89272 0
M  V30 32115 O 2990.77 -4.73186 3.71993 0
M  V30 32116 H 2994.6 -1.63518 2.55921 0
M  V30 32117 H 2992.18 -0.748245 1.29312 0
M  V30 32118 H 2994.06 -3.89558 1.60693 0
M  V30 32119 H 2992.74 -3.16972 0.656523 0
M  V30 32120 H 2991.65 -2.42304 2.85025 0
M  V30 32121 H 2992.98 -3.20295 3.73727 0
M  V30 32122 N 2994.63 -1.34234 -0.825776 0
M  V30 32123 C 2995.88 -1.27626 -1.58377 0
M  V30 32124 C 2996.23 0.153197 -1.91789 0
M  V30 32125 O 2995.52 1.09873 -1.56967 0
M  V30 32126 C 2995.72 -2.09777 -2.89358 0
M  V30 32127 C 2995.55 -3.60567 -2.68741 0
M  V30 32128 C 2994.32 -4.29852 -2.65622 0
M  V30 32129 C 2996.52 -4.54627 -2.40455 0
M  V30 32130 N 2994.5 -5.66508 -2.3652 0
M  V30 32131 C 2995.87 -5.79266 -2.21022 0
M  V30 32132 C 2997.92 -4.43572 -2.2616 0
M  V30 32133 C 2996.63 -6.94096 -1.88742 0
M  V30 32134 C 2998.65 -5.58231 -1.95274 0
M  V30 32135 C 2998.01 -6.81887 -1.76662 0
M  V30 32136 H 2994.11 -0.522244 -0.582052 0
M  V30 32137 H 2996.7 -1.68916 -0.968278 0
M  V30 32138 H 2994.87 -1.70789 -3.48835 0
M  V30 32139 H 2996.6 -1.94837 -3.54712 0
M  V30 32140 H 2993.36 -3.82262 -2.79594 0
M  V30 32141 H 2993.78 -6.38582 -2.24816 0
M  V30 32142 H 2998.42 -3.48592 -2.39256 0
M  V30 32143 H 2996.14 -7.8906 -1.74383 0
M  V30 32144 H 2999.73 -5.5162 -1.84949 0
M  V30 32145 H 2998.61 -7.69108 -1.53109 0
M  V30 32146 N 2996.11 1.04563 -1.17917 0
M  V30 32147 C 2997.07 2.10627 -0.903824 0
M  V30 32148 C 2998.07 1.60432 0.108702 0
M  V30 32149 O 2999.26 1.73757 -0.124183 0
M  V30 32150 C 2996.39 3.39046 -0.355077 0
M  V30 32151 H 2997.59 2.36486 -1.8443 0
M  V30 32152 H 2995.14 1.20908 -0.990499 0
M  V30 32153 H 2995.87 3.18846 0.592241 0
M  V30 32154 H 2995.66 3.76792 -1.0849 0
M  V30 32155 H 2997.15 4.17208 -0.180964 0
M  V30 32156 N 2997.59 0.980408 1.23393 0
M  V30 32157 C 2998.84 0.644818 1.91115 0
M  V30 32158 C 2999.15 -0.825335 1.77335 0
M  V30 32159 O 3000.35 -1.27199 2.3986 0
M  V30 32160 C 2998.81 1.10272 3.4259 0
M  V30 32161 C 2998.42 2.59722 3.65032 0
M  V30 32162 C 3000.16 0.840873 4.16088 0
M  V30 32163 C 2998.07 2.99179 5.10143 0
M  V30 32164 H 2997 0.237473 0.715628 0
M  V30 32165 H 2999.65 1.18831 1.39827 0
M  V30 32166 H 2998.03 0.487442 3.92989 0
M  V30 32167 H 2999.21 3.26488 3.2518 0
M  V30 32168 H 2997.52 2.83653 3.04844 0
M  V30 32169 H 3000.12 1.11152 5.23019 0
M  V30 32170 H 3000.46 -0.223012 4.15702 0
M  V30 32171 H 3000.99 1.41773 3.71679 0
M  V30 32172 H 2997.73 4.04691 5.1566 0
M  V30 32173 H 2997.25 2.37106 5.50945 0
M  V30 32174 H 2998.93 2.89785 5.78475 0
M  V30 32175 N 2999.06 -1.38498 0.75206 0
M  V30 32176 C 3000.48 -1.53713 0.429487 0
M  V30 32177 C 3000.68 -1.71516 -1.05757 0
M  V30 32178 O 2999.74 -1.7253 -1.84363 0
M  V30 32179 C 3001.05 -2.74509 1.2274 0
M  V30 32180 C 3002.6 -2.88358 1.21732 0
M  V30 32181 C 3003.07 -4.12113 1.99816 0
M  V30 32182 N 3004.56 -4.19187 1.97069 0
M  V30 32183 C 3005.3 -5.13934 2.54283 0
M  V30 32184 N 3004.79 -6.14363 3.20204 0
M  V30 32185 N 3006.59 -5.06273 2.44221 0
M  V30 32186 H 2998.74 -1.25192 1.71583 0
M  V30 32187 H 3001 -0.608057 0.727303 0
M  V30 32188 H 3000.71 -2.67754 2.28037 0
M  V30 32189 H 3000.58 -3.67654 0.843251 0
M  V30 32190 H 3002.97 -2.94596 0.172419 0
M  V30 32191 H 3003.05 -1.96229 1.64097 0
M  V30 32192 H 3002.69 -4.06637 3.04317 0
M  V30 32193 H 3002.62 -5.03319 1.54846 0
M  V30 32194 H 3005.11 -3.4726 1.4906 0
M  V30 32195 H 3005.43 -6.8315 3.61284 0
M  V30 32196 H 3003.77 -6.147 3.24298 0
M  V30 32197 H 3006.96 -4.26754 1.92351 0
M  V30 32198 H 3007.14 -5.79932 2.89106 0
M  V30 32199 N 3000.54 -0.501015 -1.49424 0
M  V30 32200 C 3001.49 0.277403 -2.29127 0
M  V30 32201 C 3002.46 0.960339 -1.35524 0
M  V30 32202 O 3003.64 0.966998 -1.6448 0
M  V30 32203 C 3000.78 1.33588 -3.18195 0
M  V30 32204 C 2999.9 0.664716 -4.26855 0
M  V30 32205 C 2999.03 1.70363 -5.0314 0
M  V30 32206 C 2998.07 1.01434 -6.03637 0
M  V30 32207 N 2997.21 1.99746 -6.73087 0
M  V30 32208 H 3002.05 -0.40851 -2.95187 0
M  V30 32209 H 2999.59 -0.213301 -1.45545 0
M  V30 32210 H 3001.54 1.96155 -3.68211 0
M  V30 32211 H 3000.17 1.99055 -2.5412 0
M  V30 32212 H 2999.23 -0.0742377 -3.80328 0
M  V30 32213 H 3000.54 0.122109 -4.98651 0
M  V30 32214 H 2999.69 2.40435 -5.57024 0
M  V30 32215 H 2998.43 2.28009 -4.31118 0
M  V30 32216 H 2997.44 0.2994 -5.48984 0
M  V30 32217 H 2998.66 0.444378 -6.77645 0
M  V30 32218 H 2996.61 2.56354 -6.03836 0
M  V30 32219 H 2996.52 1.50552 -7.40858 0
M  V30 32220 H 2997.79 2.69106 -7.31575 0
M  V30 32221 N 3002.02 1.5584 -0.234849 0
M  V30 32222 C 3002.95 2.23855 0.664177 0
M  V30 32223 C 3003.93 1.21472 1.19074 0
M  V30 32224 O 3005.12 1.50094 1.2323 0
M  V30 32225 C 3002.25 2.92874 1.86661 0
M  V30 32226 C 3001.2 4.01842 1.47334 0
M  V30 32227 C 3000.53 4.58224 2.75563 0
M  V30 32228 C 3001.83 5.18197 0.653388 0
M  V30 32229 H 3003.52 2.99243 0.0970687 0
M  V30 32230 H 3001.07 1.43929 0.0452471 0
M  V30 32231 H 3003.02 3.39151 2.5011 0
M  V30 32232 H 3001.74 2.14954 2.45891 0
M  V30 32233 H 3000.4 3.56316 0.862252 0
M  V30 32234 H 3000.05 3.7702 3.32964 0
M  V30 32235 H 2999.75 5.31775 2.49977 0
M  V30 32236 H 3001.28 5.07227 3.39931 0
M  V30 32237 H 3002.69 5.60774 1.19189 0
M  V30 32238 H 3001.09 5.98063 0.494083 0
M  V30 32239 H 3002.16 4.83727 -0.337089 0
M  V30 32240 N 3003.5 -0.038404 1.57553 0
M  V30 32241 C 3004.75 -0.729638 1.88469 0
M  V30 32242 C 3005.07 -1.76391 0.831333 0
M  V30 32243 O 3004.34 -1.95426 -0.136186 0
M  V30 32244 H 3002.92 -0.272473 0.695534 0
M  V30 32245 H 3005.58 -0.00656894 1.94899 0
M  V30 32246 H 3004.68 -1.22506 2.87052 0
M  V30 32247 N 3004.98 -1.54511 -0.310498 0
M  V30 32248 C 3005.91 -1.87802 -1.38754 0
M  V30 32249 C 3006.89 -0.736018 -1.53352 0
M  V30 32250 O 3008.07 -0.990917 -1.67016 0
M  V30 32251 C 3005.2 -2.11694 -2.75323 0
M  V30 32252 C 3004.16 -3.27541 -2.75501 0
M  V30 32253 C 3003.48 -3.36832 -4.15269 0
M  V30 32254 C 3004.78 -4.6488 -2.38084 0
M  V30 32255 H 3006.48 -2.78007 -1.11141 0
M  V30 32256 H 3004.02 -1.33764 -0.533208 0
M  V30 32257 H 3005.98 -2.33568 -3.50748 0
M  V30 32258 H 3004.7 -1.1825 -3.04441 0
M  V30 32259 H 3003.36 -3.05575 -2.02532 0
M  V30 32260 H 3003.01 -2.40922 -4.41549 0
M  V30 32261 H 3002.71 -4.14699 -4.16291 0
M  V30 32262 H 3004.23 -3.60955 -4.92487 0
M  V30 32263 H 3005.65 -4.86548 -3.03223 0
M  V30 32264 H 3004.04 -5.45392 -2.50335 0
M  V30 32265 H 3005.11 -4.66241 -1.33219 0
M  V30 32266 N 3006.46 0.573222 -1.46806 0
M  V30 32267 C 3007.7 1.33305 -1.52832 0
M  V30 32268 C 3008.03 1.93333 -0.183321 0
M  V30 32269 O 3007.31 1.76999 0.806323 0
M  V30 32270 C 3007.59 2.45526 -2.63418 0
M  V30 32271 C 3007.45 1.90471 -4.07481 0
M  V30 32272 C 3008.76 3.4753 -2.7002 0
M  V30 32273 H 3005.88 0.483333 -0.556379 0
M  V30 32274 H 3008.53 0.643035 -1.78788 0
M  V30 32275 H 3006.68 3.04385 -2.41417 0
M  V30 32276 H 3008.35 1.35996 -4.40798 0
M  V30 32277 H 3006.59 1.21241 -4.16513 0
M  V30 32278 H 3007.26 2.71523 -4.80603 0
M  V30 32279 H 3009.74 2.98567 -2.89823 0
M  V30 32280 H 3008.61 4.23498 -3.492 0
M  V30 32281 H 3008.87 4.05364 -1.76444 0
M  V30 32282 N 3007.93 1.3467 0.818645 0
M  V30 32283 C 3008.88 1.26599 1.9298 0
M  V30 32284 C 3009.85 0.140345 1.65506 0
M  V30 32285 O 3011.04 0.322038 1.88063 0
M  V30 32286 C 3008.18 1.03169 3.29318 0
M  V30 32287 C 3007.29 2.24546 3.69057 0
M  V30 32288 C 3006.42 1.94364 4.94364 0
M  V30 32289 C 3005.46 3.1186 5.26697 0
M  V30 32290 N 3004.6 2.81534 6.43182 0
M  V30 32291 H 3009.44 2.21624 1.99216 0
M  V30 32292 H 3006.98 1.10182 0.974593 0
M  V30 32293 H 3008.93 0.876201 4.07895 0
M  V30 32294 H 3007.56 0.118102 3.22584 0
M  V30 32295 H 3006.62 2.51 2.85838 0
M  V30 32296 H 3007.93 3.12319 3.88919 0
M  V30 32297 H 3007.08 1.75576 5.80739 0
M  V30 32298 H 3005.82 1.03857 4.76514 0
M  V30 32299 H 3004.83 3.31239 4.38817 0
M  V30 32300 H 3006.05 4.03152 5.46484 0
M  V30 32301 H 3004 1.93607 6.26779 0
M  V30 32302 H 3003.91 3.6284 6.63237 0
M  V30 32303 H 3005.18 2.6626 7.32616 0
M  V30 32304 N 3009.41 -1.03936 1.1847 0
M  V30 32305 C 3010.64 -1.80545 1.00434 0
M  V30 32306 C 3011.05 -1.83761 -0.450374 0
M  V30 32307 O 3010.39 -1.27278 -1.32461 0
M  V30 32308 C 3010.45 -3.27422 1.48443 0
M  V30 32309 C 3010.12 -3.47864 2.96378 0
M  V30 32310 C 3011.12 -3.38946 3.94223 0
M  V30 32311 C 3008.8 -3.74418 3.34838 0
M  V30 32312 C 3010.79 -3.56289 5.28524 0
M  V30 32313 C 3008.48 -3.91408 4.69301 0
M  V30 32314 C 3009.48 -3.82344 5.65952 0
M  V30 32315 O 3009.17 -3.98845 6.97981 0
M  V30 32316 H 3008.9 -0.575368 0.354863 0
M  V30 32317 H 3011.45 -1.31873 1.57476 0
M  V30 32318 H 3009.68 -3.77069 0.857667 0
M  V30 32319 H 3011.37 -3.85593 1.26777 0
M  V30 32320 H 3012.14 -3.18394 3.65856 0
M  V30 32321 H 3008.02 -3.8057 2.60167 0
M  V30 32322 H 3011.56 -3.4913 6.03949 0
M  V30 32323 H 3007.46 -4.11455 4.97368 0
M  V30 32324 H 3008.23 -4.15998 7.04903 0
M  V30 32325 N 3010.89 -0.986938 -1.22871 0
M  V30 32326 C 3012.14 -0.658155 -1.91083 0
M  V30 32327 C 3012.46 0.811644 -1.77306 0
M  V30 32328 O 3011.73 1.58119 -1.15651 0
M  V30 32329 H 3010.31 -0.240439 -0.707247 0
M  V30 32330 H 3012.97 -1.25216 -1.49355 0
M  V30 32331 H 3012.07 -0.915481 -2.98371 0
M  V30 32332 N 3012.37 1.38098 -0.759394 0
M  V30 32333 C 3013.28 2.34195 -0.137781 0
M  V30 32334 C 3014.29 1.59563 0.693957 0
M  V30 32335 O 3015.47 1.91724 0.616759 0
M  V30 32336 C 3012.53 3.387 0.740475 0
M  V30 32337 C 3011.6 4.29168 -0.1063 0
M  V30 32338 C 3010.83 5.28682 0.730132 0
M  V30 32339 O 3011.05 5.35379 1.96787 0
M  V30 32340 O 3009.99 6.01723 0.145863 0
M  V30 32341 H 3013.81 2.8906 -0.931563 0
M  V30 32342 H 3011.4 1.40045 -0.52037 0
M  V30 32343 H 3013.28 4.02674 1.24225 0
M  V30 32344 H 3011.95 2.86183 1.51266 0
M  V30 32345 H 3010.86 3.68336 -0.654152 0
M  V30 32346 H 3012.19 4.84957 -0.841271 0
M  V30 32347 N 3013.85 0.508932 1.49156 0
M  V30 32348 C 3014.79 -0.265248 2.29271 0
M  V30 32349 C 3015.76 -0.953138 1.36031 0
M  V30 32350 O 3016.95 -0.958262 1.64991 0
M  V30 32351 C 3014.09 -1.31898 3.18899 0
M  V30 32352 C 3013.2 -0.642069 4.27202 0
M  V30 32353 C 3012.34 -1.67693 5.04036 0
M  V30 32354 C 3011.37 -0.982315 6.04166 0
M  V30 32355 N 3010.51 -1.96174 6.74137 0
M  V30 32356 H 3015.35 0.424159 2.94966 0
M  V30 32357 H 3012.89 0.221016 1.4543 0
M  V30 32358 H 3014.85 -1.94199 3.69246 0
M  V30 32359 H 3013.48 -1.97705 2.55172 0
M  V30 32360 H 3012.53 0.0944063 3.80283 0
M  V30 32361 H 3013.84 -0.095663 4.98708 0
M  V30 32362 H 3012.99 -2.37478 5.58291 0
M  V30 32363 H 3011.73 -2.2572 4.32321 0
M  V30 32364 H 3010.74 -0.270282 5.49135 0
M  V30 32365 H 3011.96 -0.408434 6.77871 0
M  V30 32366 H 3009.91 -2.53148 6.05188 0
M  V30 32367 H 3009.83 -1.46621 7.41646 0
M  V30 32368 H 3011.09 -2.65223 7.32992 0
M  V30 32369 N 3015.32 -1.55714 0.243111 0
M  V30 32370 C 3016.55 -2.02955 -0.386375 0
M  V30 32371 C 3016.96 -1.12179 -1.52356 0
M  V30 32372 O 3016.3 -0.127885 -1.83254 0
M  V30 32373 C 3016.37 -3.46464 -0.959327 0
M  V30 32374 C 3016.03 -4.56978 0.0451349 0
M  V30 32375 C 3017.03 -5.12849 0.853315 0
M  V30 32376 C 3014.71 -5.02012 0.170129 0
M  V30 32377 C 3016.71 -6.12245 1.77298 0
M  V30 32378 C 3014.39 -6.0124 1.09331 0
M  V30 32379 C 3015.39 -6.56235 1.89326 0
M  V30 32380 O 3015.08 -7.53529 2.80088 0
M  V30 32381 H 3014.81 -0.669088 -0.0964215 0
M  V30 32382 H 3017.37 -2.02159 0.363435 0
M  V30 32383 H 3015.6 -3.44397 -1.75863 0
M  V30 32384 H 3017.28 -3.77227 -1.49849 0
M  V30 32385 H 3018.05 -4.78892 0.767314 0
M  V30 32386 H 3013.93 -4.58872 -0.442447 0
M  V30 32387 H 3017.47 -6.55096 2.3978 0
M  V30 32388 H 3013.37 -6.34618 1.18025 0
M  V30 32389 H 3014.14 -7.71131 2.74407 0
M  V30 32390 N 3016.8 0.030048 -1.57571 0
M  V30 32391 C 3017.77 1.01561 -2.0547 0
M  V30 32392 C 3018.77 1.29099 -0.95865 0
M  V30 32393 O 3019.96 1.24119 -1.2223 0
M  V30 32394 C 3017.09 2.3487 -2.47081 0
M  V30 32395 H 3018.28 0.601884 -2.93798 0
M  V30 32396 H 3015.83 0.27685 -1.53829 0
M  V30 32397 H 3016.57 2.80993 -1.61906 0
M  V30 32398 H 3016.35 2.16212 -3.271 0
M  V30 32399 H 3017.84 3.0563 -2.8457 0
M  V30 32400 N 3018.28 1.54674 0.3023 0
M  V30 32401 C 3019.53 1.73549 1.03562 0
M  V30 32402 C 3019.85 0.523481 1.87842 0
M  V30 32403 O 3019.12 -0.462261 1.90368 0
M  V30 32404 H 3017.7 0.639935 0.385347 0
M  V30 32405 H 3020.36 1.92024 0.333598 0
M  V30 32406 H 3019.46 2.62418 1.68947 0
M  V30 32407 N 3019.76 -0.565428 1.47108 0
M  V30 32408 C 3020.71 -1.69421 1.59371 0
M  V30 32409 C 3021.7 -1.62996 0.461373 0
M  V30 32410 O 3022.91 -1.68281 0.638878 0
M  V30 32411 H 3019.28 -0.56045 0.501397 0
M  V30 32412 H 3021.25 -1.56213 2.54244 0
M  V30 32413 C 3020 -3.07789 1.61744 0
M  V30 32414 H 3019.32 -3.13411 2.48221 0
M  V30 32415 H 3020.76 -3.86483 1.74377 0
M  V30 32416 C 3019.22 -3.35085 0.349215 0
M  V30 32417 O 3019.75 -3.97872 -0.553218 0
M  V30 32418 N 3017.96 -2.89674 0.231774 0
M  V30 32419 H 3017.51 -2.38759 0.967063 0
M  V30 32420 H 3017.46 -3.08309 -0.615857 0
M  V30 32421 N 3021.24 -1.35102 -0.811492 0
M  V30 32422 C 3022.47 -1.31014 -1.59747 0
M  V30 32423 C 3022.87 0.115533 -1.88847 0
M  V30 32424 O 3022.22 1.07646 -1.48855 0
M  V30 32425 C 3022.28 -2.0444 -2.9571 0
M  V30 32426 C 3021.94 -3.5365 -2.89449 0
M  V30 32427 C 3022.94 -4.48337 -2.6323 0
M  V30 32428 C 3020.63 -3.96228 -3.08721 0
M  V30 32429 C 3022.62 -5.83578 -2.5635 0
M  V30 32430 C 3020.31 -5.31565 -3.01466 0
M  V30 32431 C 3021.3 -6.25052 -2.75315 0
M  V30 32432 O 3020.99 -7.57908 -2.68013 0
M  V30 32433 H 3020.72 -0.451759 -0.502881 0
M  V30 32434 H 3023.28 -1.78464 -1.01684 0
M  V30 32435 H 3021.51 -1.5162 -3.55736 0
M  V30 32436 H 3023.2 -1.93493 -3.56813 0
M  V30 32437 H 3023.96 -4.1676 -2.48064 0
M  V30 32438 H 3019.84 -3.23851 -3.28088 0
M  V30 32439 H 3023.39 -6.56518 -2.35859 0
M  V30 32440 H 3019.28 -5.62757 -3.16187 0
M  V30 32441 H 3020.05 -7.67777 -2.83657 0
M  V30 32442 N 3022.71 1.03306 -1.19019 0
M  V30 32443 C 3023.94 1.80809 -1.01602 0
M  V30 32444 C 3024.36 1.83102 0.43074 0
M  V30 32445 O 3023.72 1.25393 1.30943 0
M  V30 32446 C 3023.77 3.2392 -1.58455 0
M  V30 32447 O 3022.87 4.04346 -0.811043 0
M  V30 32448 H 3022.22 0.558321 -0.359408 0
M  V30 32449 H 3024.75 1.30053 -1.57948 0
M  V30 32450 H 3024.76 3.74679 -1.61492 0
M  V30 32451 H 3023.43 3.21566 -2.63758 0
M  V30 32452 H 3022.01 3.62999 -0.853593 0
M  V30 32453 N 3024.19 0.99344 1.22346 0
M  V30 32454 C 3025.44 0.668279 1.90731 0
M  V30 32455 C 3025.76 -0.802229 1.77734 0
M  V30 32456 O 3025.03 -1.57503 1.16488 0
M  V30 32457 H 3023.61 0.244187 0.705962 0
M  V30 32458 H 3026.27 1.26006 1.48689 0
M  V30 32459 H 3025.37 0.931291 2.97881 0
M  V30 32460 N 3025.67 -1.37693 0.766707 0
M  V30 32461 C 3026.92 -1.99419 0.3281 0
M  V30 32462 C 3027.24 -1.61168 -1.09772 0
M  V30 32463 O 3026.51 -0.874717 -1.75287 0
M  V30 32464 H 3025.09 -0.737569 0.118323 0
M  V30 32465 H 3027.75 -1.68253 0.983715 0
M  V30 32466 H 3026.85 -3.09504 0.401701 0
M  V30 32467 N 3027.15 -0.516835 -1.48884 0
M  V30 32468 C 3028.1 0.266616 -2.31067 0
M  V30 32469 C 3029.09 0.947925 -1.40395 0
M  V30 32470 O 3030.3 0.873808 -1.57368 0
M  V30 32471 H 3026.67 0.104844 -0.744655 0
M  V30 32472 H 3028.64 -0.446288 -2.95044 0
M  V30 32473 C 3027.39 1.30864 -3.22133 0
M  V30 32474 H 3026.71 0.793796 -3.9184 0
M  V30 32475 H 3028.15 1.8285 -3.82547 0
M  V30 32476 C 3026.61 2.33529 -2.42829 0
M  V30 32477 O 3027.14 3.39718 -2.1437 0
M  V30 32478 N 3025.35 2.06403 -2.04563 0
M  V30 32479 H 3024.9 1.20067 -2.27907 0
M  V30 32480 H 3024.85 2.75319 -1.51812 0
M  V30 32481 N 3028.63 1.55583 -0.251365 0
M  V30 32482 C 3029.57 2.21566 0.646298 0
M  V30 32483 C 3030.54 1.18104 1.16793 0
M  V30 32484 O 3031.73 1.46567 1.22159 0
M  V30 32485 C 3028.87 2.92237 1.83552 0
M  V30 32486 C 3027.98 4.10365 1.34999 0
M  V30 32487 C 3027.12 4.6874 2.49912 0
M  V30 32488 C 3026.16 5.79108 1.98243 0
M  V30 32489 N 3025.29 6.31647 3.0654 0
M  V30 32490 H 3030.13 2.97901 0.0769357 0
M  V30 32491 H 3027.67 1.47077 0.0262121 0
M  V30 32492 H 3029.63 3.31413 2.53419 0
M  V30 32493 H 3028.26 2.18369 2.37729 0
M  V30 32494 H 3027.31 3.76473 0.545208 0
M  V30 32495 H 3028.62 4.90028 0.931349 0
M  V30 32496 H 3027.78 5.10513 3.27814 0
M  V30 32497 H 3026.51 3.88303 2.9508 0
M  V30 32498 H 3025.52 5.36809 1.18813 0
M  V30 32499 H 3026.74 6.61399 1.54039 0
M  V30 32500 H 3024.69 5.54113 3.51133 0
M  V30 32501 H 3024.61 7.06515 2.6902 0
M  V30 32502 H 3025.88 6.78078 3.84487 0
M  V30 32503 N 3030.1 -0.0216912 1.57585 0
M  V30 32504 C 3031.52 -0.377457 1.55072 0
M  V30 32505 C 3031.72 -1.76149 0.978454 0
M  V30 32506 O 3030.78 -2.45201 0.602731 0
M  V30 32507 C 3032.09 -0.272552 2.99462 0
M  V30 32508 C 3033.64 -0.349093 3.11047 0
M  V30 32509 C 3034.11 -0.273556 4.57182 0
M  V30 32510 N 3035.6 -0.332125 4.62008 0
M  V30 32511 C 3036.34 -0.296682 5.72632 0
M  V30 32512 N 3035.83 -0.213099 6.92472 0
M  V30 32513 N 3037.63 -0.346954 5.61028 0
M  V30 32514 H 3029.78 0.883959 1.93132 0
M  V30 32515 H 3032.04 0.336825 0.886145 0
M  V30 32516 H 3031.75 0.678841 3.45086 0
M  V30 32517 H 3031.62 -1.06329 3.61903 0
M  V30 32518 H 3034.01 -1.29092 2.65366 0
M  V30 32519 H 3034.09 0.471129 2.51424 0
M  V30 32520 H 3033.73 0.664637 5.03533 0
M  V30 32521 H 3033.66 -1.11198 5.14726 0
M  V30 32522 H 3036.15 -0.398937 3.75788 0
M  V30 32523 H 3036.47 -0.191356 7.72563 0
M  V30 32524 H 3034.81 -0.179039 6.94769 0
M  V30 32525 H 3038 -0.410296 4.66298 0
M  V30 32526 H 3038.18 -0.315865 6.4723 0
M  V30 32527 N 3031.58 -1.54832 -0.294093 0
M  V30 32528 C 3032.53 -1.8626 -1.36293 0
M  V30 32529 C 3033.5 -0.712124 -1.5006 0
M  V30 32530 O 3034.69 -0.96141 -1.64808 0
M  V30 32531 C 3031.83 -2.12156 -2.72184 0
M  V30 32532 C 3030.94 -3.39759 -2.6681 0
M  V30 32533 C 3030.07 -3.55462 -3.94741 0
M  V30 32534 C 3029.11 -4.76833 -3.83792 0
M  V30 32535 N 3028.25 -4.89305 -5.03513 0
M  V30 32536 H 3033.09 -2.77432 -1.08791 0
M  V30 32537 H 3030.63 -1.37372 -0.526045 0
M  V30 32538 H 3032.58 -2.25166 -3.51221 0
M  V30 32539 H 3031.21 -1.24243 -2.97932 0
M  V30 32540 H 3030.27 -3.35333 -1.79599 0
M  V30 32541 H 3031.58 -4.28922 -2.54612 0
M  V30 32542 H 3030.73 -3.68175 -4.82216 0
M  V30 32543 H 3029.47 -2.64446 -4.0978 0
M  V30 32544 H 3028.48 -4.64146 -2.947 0
M  V30 32545 H 3029.7 -5.69264 -3.70291 0
M  V30 32546 H 3027.65 -4.01213 -5.19003 0
M  V30 32547 H 3027.56 -5.72479 -4.93765 0
M  V30 32548 H 3028.83 -5.06381 -5.9262 0
M  V30 32549 N 3033.06 0.557619 -1.47405 0
M  V30 32550 C 3033.99 1.67446 -1.62739 0
M  V30 32551 C 3034.97 1.63279 -0.476853 0
M  V30 32552 O 3036.16 1.80907 -0.706139 0
M  V30 32553 C 3033.29 3.06083 -1.64105 0
M  V30 32554 C 3032.24 3.25096 -2.78382 0
M  V30 32555 C 3031.57 4.64515 -2.64821 0
M  V30 32556 C 3032.87 3.10511 -4.19977 0
M  V30 32557 H 3034.56 1.54869 -2.56234 0
M  V30 32558 H 3032.11 0.743628 -1.23313 0
M  V30 32559 H 3034.06 3.8406 -1.73424 0
M  V30 32560 H 3032.78 3.19618 -0.671708 0
M  V30 32561 H 3031.44 2.49527 -2.68574 0
M  V30 32562 H 3031.09 4.74849 -1.65915 0
M  V30 32563 H 3030.79 4.78185 -3.41486 0
M  V30 32564 H 3032.32 5.44628 -2.76067 0
M  V30 32565 H 3033.73 3.78306 -4.30764 0
M  V30 32566 H 3032.13 3.35691 -4.97425 0
M  V30 32567 H 3033.2 2.07262 -4.38372 0
M  V30 32568 N 3034.54 1.35531 0.804316 0
M  V30 32569 C 3035.76 1.3221 1.59798 0
M  V30 32570 C 3036.19 -0.0973896 1.87848 0
M  V30 32571 O 3035.55 -1.06489 1.4673 0
M  V30 32572 C 3035.6 2.13668 2.9048 0
M  V30 32573 O 3034.7 1.51895 3.83408 0
M  V30 32574 H 3034.04 0.453192 0.485297 0
M  V30 32575 H 3036.57 1.78604 0.998087 0
M  V30 32576 H 3036.58 2.25706 3.39884 0
M  V30 32577 H 3035.26 3.16863 2.69389 0
M  V30 32578 H 3033.83 1.4871 3.41964 0
M  V30 32579 N 3036.02 -1.02674 1.19565 0
M  V30 32580 C 3037.25 -1.79731 1.02492 0
M  V30 32581 C 3037.66 -1.83925 -0.42627 0
M  V30 32582 O 3037.02 -1.28485 -1.29606 0
M  V30 32583 C 3037.07 -3.2468 1.58949 0
M  V30 32584 O 3036.79 -3.20774 2.98388 0
M  V30 32585 C 3038.29 -4.18327 1.46688 0
M  V30 32586 H 3035.51 -0.565546 0.361108 0
M  V30 32587 H 3038.05 -1.29309 1.58428 0
M  V30 32588 H 3036.21 -3.72285 1.07156 0
M  V30 32589 H 3036.62 -4.11681 3.2499 0
M  V30 32590 H 3038.1 -5.17914 1.90968 0
M  V30 32591 H 3038.57 -4.37209 0.41774 0
M  V30 32592 H 3039.18 -3.76597 1.97623 0
M  V30 32593 N 3037.5 -0.999914 -1.21817 0
M  V30 32594 C 3038.46 -0.561083 -2.22226 0
M  V30 32595 C 3039.46 0.35983 -1.56722 0
M  V30 32596 O 3040.65 0.150818 -1.73546 0
M  V30 32597 C 3037.78 0.182927 -3.40409 0
M  V30 32598 H 3038.97 -1.44914 -2.62564 0
M  V30 32599 H 3036.53 -0.787874 -1.3499 0
M  V30 32600 H 3037.26 1.08665 -3.05553 0
M  V30 32601 H 3037.05 -0.478399 -3.89171 0
M  V30 32602 H 3038.54 0.477879 -4.14857 0
M  V30 32603 N 3038.97 1.37284 -0.773999 0
M  V30 32604 C 3039.91 2.27944 -0.108059 0
M  V30 32605 C 3040.88 1.46439 0.706712 0
M  V30 32606 O 3042.07 1.75769 0.680994 0
M  V30 32607 C 3039.2 3.27779 0.853141 0
M  V30 32608 C 3038.24 4.26325 0.122089 0
M  V30 32609 S 3039.07 5.22077 -1.19145 0
M  V30 32610 C 3040.23 6.25463 -0.233847 0
M  V30 32611 H 3040.46 2.84077 -0.876793 0
M  V30 32612 H 3038 1.43593 -0.567493 0
M  V30 32613 H 3039.95 3.85805 1.40231 0
M  V30 32614 H 3038.62 2.70589 1.595 0
M  V30 32615 H 3037.81 4.96766 0.850839 0
M  V30 32616 H 3037.41 3.723 -0.356145 0
M  V30 32617 H 3039.7 6.749 0.592931 0
M  V30 32618 H 3040.65 7.02274 -0.906496 0
M  V30 32619 H 3041.05 5.64285 0.155949 0
M  V30 32620 N 3040.45 0.524724 1.48608 0
M  V30 32621 C 3041.41 -0.230126 2.28042 0
M  V30 32622 C 3042.41 -0.87256 1.35067 0
M  V30 32623 O 3043.6 -0.733423 1.58008 0
M  V30 32624 C 3040.74 -1.33247 3.1378 0
M  V30 32625 H 3041.93 0.467213 2.96238 0
M  V30 32626 H 3039.48 0.280479 1.53763 0
M  V30 32627 H 3040.22 -2.06322 2.50203 0
M  V30 32628 H 3040 -0.876991 3.82167 0
M  V30 32629 H 3041.49 -1.86355 3.73713 0
M  V30 32630 N 3041.93 -1.55447 0.259613 0
M  V30 32631 C 3042.86 -2.24883 -0.62848 0
M  V30 32632 C 3043.84 -1.23351 -1.17126 0
M  V30 32633 O 3045.03 -1.52035 -1.20826 0
M  V30 32634 C 3042.16 -2.95806 -1.81978 0
M  V30 32635 C 3041.11 -4.04135 -1.40922 0
M  V30 32636 C 3040.44 -4.6255 -2.68238 0
M  V30 32637 C 3041.74 -5.19171 -0.570864 0
M  V30 32638 H 3043.43 -2.99359 -0.0494495 0
M  V30 32639 H 3040.98 -1.43983 -0.0223435 0
M  V30 32640 H 3042.93 -3.43087 -2.44683 0
M  V30 32641 H 3041.65 -2.18839 -2.4244 0
M  V30 32642 H 3040.31 -3.57642 -0.805456 0
M  V30 32643 H 3039.96 -3.82269 -3.26924 0
M  V30 32644 H 3039.66 -5.35685 -2.41486 0
M  V30 32645 H 3041.18 -5.12571 -3.31818 0
M  V30 32646 H 3042.6 -5.62599 -1.10252 0
M  V30 32647 H 3040.99 -5.98773 -0.398874 0
M  V30 32648 H 3042.06 -4.83129 0.414003 0
M  V30 32649 N 3043.41 0.0133338 -1.57594 0
M  V30 32650 C 3044.66 0.70007 -1.89161 0
M  V30 32651 C 3044.97 1.75671 -0.860178 0
M  V30 32652 O 3046.18 2.49714 -1.06561 0
M  V30 32653 C 3044.63 1.29629 -3.35745 0
M  V30 32654 C 3044.24 0.27517 -4.47154 0
M  V30 32655 C 3045.98 1.96199 -3.76439 0
M  V30 32656 C 3043.89 0.880623 -5.84807 0
M  V30 32657 H 3042.82 0.265234 -0.705809 0
M  V30 32658 H 3045.47 -0.0450252 -1.83445 0
M  V30 32659 H 3043.85 2.09161 -3.36255 0
M  V30 32660 H 3045.03 -0.494587 -4.58138 0
M  V30 32661 H 3043.34 -0.289329 -4.15394 0
M  V30 32662 H 3045.94 2.42378 -4.7661 0
M  V30 32663 H 3046.28 2.7869 -3.09254 0
M  V30 32664 H 3046.82 1.23419 -3.7817 0
M  V30 32665 H 3043.55 0.0947861 -6.55431 0
M  V30 32666 H 3043.07 1.61985 -5.77513 0
M  V30 32667 H 3044.75 1.38327 -6.3204 0
M  V30 32668 N 3044.89 1.54985 0.285878 0
M  V30 32669 C 3046.13 1.74638 1.01715 0
M  V30 32670 C 3046.45 0.543375 1.87276 0
M  V30 32671 O 3045.72 -0.442044 1.90848 0
M  V30 32672 H 3044.3 0.643986 0.378538 0
M  V30 32673 H 3046.97 1.92367 0.313213 0
M  V30 32674 H 3046.06 2.64195 1.66154 0
M  V30 32675 N 3046.36 -0.549794 1.47699 0
M  V30 32676 C 3047.61 -1.30405 1.54399 0
M  V30 32677 C 3047.93 -1.93854 0.21106 0
M  V30 32678 O 3047.2 -1.80317 -0.765669 0
M  V30 32679 H 3045.78 -0.484279 0.568755 0
M  V30 32680 H 3048.45 -0.641412 1.84043 0
M  V30 32681 H 3047.54 -2.09371 2.31453 0
M  V30 32682 N 3047.84 -1.35955 -0.797117 0
M  V30 32683 C 3049.25 -1.26647 -1.37177 0
M  V30 32684 C 3049.6 0.0970702 -1.9596 0
M  V30 32685 O 3048.73 0.998321 -1.91996 0
M  V30 32686 C 3049.32 -2.29324 -2.49391 0
M  V30 32687 C 3047.88 -2.23728 -3.02693 0
M  V30 32688 C 3047.03 -2.1452 -1.75717 0
M  V30 32689 H 3049.98 -1.46946 -0.599381 0
M  V30 32690 H 3050 -1.92521 -3.28201 0
M  V30 32691 H 3049.51 -3.28553 -2.06578 0
M  V30 32692 H 3047.62 -1.2794 -3.49946 0
M  V30 32693 H 3047.73 -3.16093 -3.60031 0
M  V30 32694 H 3046.09 -1.60649 -1.97646 0
M  V30 32695 H 3046.88 -3.15624 -1.35043 0
M  V30 32696 N 3049.32 1.02038 -1.20108 0
M  V30 32697 C 3050.73 1.57025 -1.00995 0
M  V30 32698 C 3051.08 1.91323 0.434749 0
M  V30 32699 O 3050.21 1.71821 1.31554 0
M  V30 32700 C 3050.8 2.85316 -1.82702 0
M  V30 32701 C 3049.36 3.36845 -1.67965 0
M  V30 32702 C 3048.51 2.10192 -1.80871 0
M  V30 32703 H 3051.46 0.844653 -1.34355 0
M  V30 32704 H 3051.48 3.56568 -1.32815 0
M  V30 32705 H 3050.99 2.60323 -2.87843 0
M  V30 32706 H 3049.09 3.66807 -0.654454 0
M  V30 32707 H 3049.21 4.09303 -2.49013 0
M  V30 32708 H 3047.57 2.22467 -1.24019 0
M  V30 32709 H 3048.35 1.8763 -2.87489 0
M  V30 32710 N 3050.8 1.00636 1.21285 0
M  V30 32711 C 3052.04 0.690856 1.9067 0
M  V30 32712 C 3052.38 -0.776561 1.77998 0
M  V30 32713 O 3051.65 -1.56308 1.15751 0
M  V30 32714 C 3051.94 1.11434 3.42424 0
M  V30 32715 C 3051.79 2.64131 3.64081 0
M  V30 32716 C 3053.11 0.677763 4.3485 0
M  V30 32717 H 3050.23 0.252451 0.692414 0
M  V30 32718 H 3052.87 1.25228 1.42891 0
M  V30 32719 H 3051.02 0.636654 3.83248 0
M  V30 32720 H 3052.69 3.19673 3.32576 0
M  V30 32721 H 3050.93 3.05581 3.079 0
M  V30 32722 H 3051.6 2.88814 4.70415 0
M  V30 32723 H 3054.08 1.08827 4.01617 0
M  V30 32724 H 3052.96 1.00222 5.39673 0
M  V30 32725 H 3053.22 -0.421048 4.4009 0
M  V30 32726 N 3052.28 -1.36872 0.781268 0
M  V30 32727 C 3053.52 -1.99749 0.350442 0
M  V30 32728 C 3053.86 -1.61872 -1.0729 0
M  V30 32729 O 3053.13 -0.869521 -1.73982 0
M  V30 32730 C 3053.41 -3.56543 0.504897 0
M  V30 32731 C 3053.27 -4.043 1.97134 0
M  V30 32732 C 3054.59 -4.40018 -0.0850499 0
M  V30 32733 H 3051.7 -0.725657 0.128807 0
M  V30 32734 H 3054.35 -1.62408 0.986089 0
M  V30 32735 H 3052.5 -3.88483 -0.0362323 0
M  V30 32736 H 3054.17 -3.82883 2.57291 0
M  V30 32737 H 3052.41 -3.5614 2.47682 0
M  V30 32738 H 3053.08 -5.13301 2.03042 0
M  V30 32739 H 3055.56 -4.14391 0.376776 0
M  V30 32740 H 3054.43 -5.48874 0.0530979 0
M  V30 32741 H 3054.7 -4.26162 -1.17635 0
M  V30 32742 N 3053.75 -0.532597 -1.48328 0
M  V30 32743 C 3055 0.000546762 -2.025 0
M  V30 32744 C 3055.33 1.34033 -1.40944 0
M  V30 32745 O 3054.58 1.87941 -0.545578 0
M  V30 32746 C 3054.88 0.16888 -3.57001 0
M  V30 32747 C 3054.55 -1.09688 -4.37355 0
M  V30 32748 C 3053.21 -1.44377 -4.5903 0
M  V30 32749 C 3055.56 -1.93677 -4.83879 0
M  V30 32750 C 3052.89 -2.62948 -5.24476 0
M  V30 32751 C 3055.24 -3.11429 -5.50631 0
M  V30 32752 C 3053.91 -3.46461 -5.70545 0
M  V30 32753 H 3053.18 0.000200074 -0.741 0
M  V30 32754 H 3055.82 -0.699148 -1.78281 0
M  V30 32755 H 3054.13 0.951362 -3.80074 0
M  V30 32756 H 3055.83 0.596352 -3.96541 0
M  V30 32757 H 3052.42 -0.816729 -4.20746 0
M  V30 32758 H 3056.6 -1.68188 -4.66933 0
M  V30 32759 H 3051.86 -2.90289 -5.38091 0
M  V30 32760 H 3056.03 -3.76813 -5.85649 0
M  V30 32761 H 3053.66 -4.38436 -6.2103 0
M  V30 32762 N 3055.23 1.55307 -0.267853 0
M  V30 32763 C 3056.16 2.25213 0.616545 0
M  V30 32764 C 3057.14 1.23971 1.1647 0
M  V30 32765 O 3058.33 1.52674 1.20018 0
M  V30 32766 C 3055.46 2.96767 1.80407 0
M  V30 32767 C 3054.41 4.04876 1.38777 0
M  V30 32768 C 3053.74 4.63966 2.65781 0
M  V30 32769 C 3055.04 5.19466 0.543323 0
M  V30 32770 H 3056.73 2.99381 0.0335731 0
M  V30 32771 H 3054.28 1.43992 0.0147074 0
M  V30 32772 H 3056.23 3.44379 2.4286 0
M  V30 32773 H 3054.96 2.20122 2.41276 0
M  V30 32774 H 3053.61 3.58064 0.786478 0
M  V30 32775 H 3053.26 3.83997 3.24892 0
M  V30 32776 H 3052.96 5.36958 2.38641 0
M  V30 32777 H 3054.49 5.14324 3.29095 0
M  V30 32778 H 3055.9 5.63176 1.07267 0
M  V30 32779 H 3054.3 5.98976 0.367114 0
M  V30 32780 H 3055.37 4.82903 -0.439618 0
M  V30 32781 N 3056.71 -0.00497598 1.57599 0
M  V30 32782 C 3057.99 -0.727622 1.81563 0
M  V30 32783 C 3058.37 -1.92265 0.871638 0
M  V30 32784 O 3057.72 -2.28357 -0.0807831 0
M  V30 32785 C 3057.93 -1.13803 3.29924 0
M  V30 32786 C 3059.27 -1.54396 3.95534 0
M  V30 32787 O 3060.3 -1.23196 3.34217 0
M  V30 32788 O 3059.16 -2.12393 5.03539 0
M  V30 32789 H 3056.25 -0.353865 0.747468 0
M  V30 32790 H 3058.8 0.0200965 1.69688 0
M  V30 32791 H 3057.57 -0.286009 3.90253 0
M  V30 32792 H 3057.19 -1.94501 3.46778 0
M  V30 32793 N 3058.19 -1.55135 -0.277654 0
M  V30 32794 C 3059.1 -1.90786 -1.36521 0
M  V30 32795 C 3060.11 -0.804569 -1.54281 0
M  V30 32796 O 3061.29 -1.10321 -1.68497 0
M  V30 32797 C 3058.36 -2.1684 -2.7052 0
M  V30 32798 C 3057.42 -3.40429 -2.61546 0
M  V30 32799 C 3056.65 -3.65231 -3.89155 0
M  V30 32800 O 3056.87 -2.92625 -4.89619 0
M  V30 32801 O 3055.81 -4.58764 -3.89639 0
M  V30 32802 H 3059.63 -2.83356 -1.09285 0
M  V30 32803 H 3057.22 -1.41622 -0.475774 0
M  V30 32804 H 3059.1 -2.35044 -3.4976 0
M  V30 32805 H 3057.77 -1.27453 -2.97552 0
M  V30 32806 H 3056.68 -3.27565 -1.80698 0
M  V30 32807 H 3058.01 -4.3002 -2.39465 0
M  V30 32808 N 3059.67 0.541953 -1.47989 0
M  V30 32809 C 3061.08 1.124 -1.49075 0
M  V30 32810 C 3061.43 1.94551 -0.253859 0
M  V30 32811 O 3060.55 2.06719 0.640019 0
M  V30 32812 C 3061.15 2.04509 -2.70114 0
M  V30 32813 C 3059.71 2.57955 -2.7411 0
M  V30 32814 C 3058.85 1.34656 -2.42411 0
M  V30 32815 H 3061.81 0.32779 -1.55278 0
M  V30 32816 H 3061.83 2.88618 -2.47951 0
M  V30 32817 H 3061.34 1.44691 -3.6012 0
M  V30 32818 H 3059.44 3.21529 -1.88282 0
M  V30 32819 H 3059.55 2.97907 -3.75218 0
M  V30 32820 H 3057.92 1.65837 -1.93313 0
M  V30 32821 H 3058.7 0.766074 -3.34643 0
M  V30 32822 N 3061.15 1.36376 0.789896 0
M  V30 32823 C 3062.37 1.33732 1.57871 0
M  V30 32824 C 3062.79 -0.0815212 1.88624 0
M  V30 32825 O 3062.15 -1.03828 1.50087 0
M  V30 32826 C 3062.2 2.1583 2.89999 0
M  V30 32827 O 3061.92 3.52184 2.60572 0
M  V30 32828 C 3063.42 2.20962 3.84305 0
M  V30 32829 H 3060.64 0.458756 0.489677 0
M  V30 32830 H 3063.18 1.79467 0.980404 0
M  V30 32831 H 3061.34 1.73652 3.463 0
M  V30 32832 H 3061.75 3.95017 3.45053 0
M  V30 32833 H 3063.23 2.82765 4.74076 0
M  V30 32834 H 3063.7 1.21294 4.22119 0
M  V30 32835 H 3064.31 2.63374 3.33937 0
M  V30 32836 N 3062.62 -1.014 1.20647 0
M  V30 32837 C 3063.85 -1.78633 1.04392 0
M  V30 32838 C 3064.27 -1.84367 -0.406738 0
M  V30 32839 O 3063.62 -1.29853 -1.28236 0
M  V30 32840 C 3063.67 -3.22976 1.62384 0
M  V30 32841 O 3063.4 -3.17592 3.01773 0
M  V30 32842 C 3064.9 -4.16748 1.51117 0
M  V30 32843 H 3062.12 -0.561684 0.367086 0
M  V30 32844 H 3064.66 -1.27621 1.59791 0
M  V30 32845 H 3062.82 -3.71128 1.11099 0
M  V30 32846 H 3063.23 -4.08211 3.29339 0
M  V30 32847 H 3064.7 -5.1586 1.9645 0
M  V30 32848 H 3065.18 -4.36741 0.464088 0
M  V30 32849 H 3065.79 -3.7448 2.01606 0
M  V30 32850 N 3064.1 -1.01278 -1.2075 0
M  V30 32851 C 3065.35 -0.698538 -1.89644 0
M  V30 32852 C 3065.67 0.773852 -1.78988 0
M  V30 32853 O 3064.94 1.5563 -1.18979 0
M  V30 32854 H 3063.52 -0.255387 -0.701987 0
M  V30 32855 H 3066.18 -1.28356 -1.46666 0
M  V30 32856 H 3065.28 -0.978564 -2.96362 0
M  V30 32857 N 3065.58 1.36456 -0.788516 0
M  V30 32858 C 3066.51 2.27817 -0.132229 0
M  V30 32859 C 3067.49 1.4718 0.69114 0
M  V30 32860 O 3068.67 1.76481 0.662313 0
M  V30 32861 C 3065.8 3.28666 0.818328 0
M  V30 32862 C 3064.85 4.26431 0.0768642 0
M  V30 32863 S 3065.68 5.20784 -1.24675 0
M  V30 32864 C 3066.84 6.2518 -0.300172 0
M  V30 32865 H 3067.07 2.83131 -0.906874 0
M  V30 32866 H 3064.6 1.42983 -0.582691 0
M  V30 32867 H 3066.56 3.87271 1.36131 0
M  V30 32868 H 3065.22 2.72266 1.56621 0
M  V30 32869 H 3064.41 4.97641 0.798103 0
M  V30 32870 H 3064.02 3.71902 -0.395612 0
M  V30 32871 H 3066.31 6.75491 0.521315 0
M  V30 32872 H 3067.25 7.01273 -0.980931 0
M  V30 32873 H 3067.66 5.64418 0.0960906 0
M  V30 32874 N 3067.06 0.540456 1.48043 0
M  V30 32875 C 3068.33 -0.0546958 1.95524 0
M  V30 32876 C 3068.71 -1.50248 1.48287 0
M  V30 32877 O 3068.06 -2.17056 0.714075 0
M  V30 32878 C 3068.27 0.0734007 3.48923 0
M  V30 32879 C 3069.62 -0.0805279 4.24524 0
M  V30 32880 O 3070.64 0.00011848 3.562 0
M  V30 32881 O 3069.5 -0.25112 5.45923 0
M  V30 32882 H 3066.6 -0.0734785 0.823729 0
M  V30 32883 H 3069.14 0.605796 1.58519 0
M  V30 32884 H 3067.92 1.0815 3.76057 0
M  V30 32885 H 3067.54 -0.625467 3.9265 0
M  V30 32886 N 3068.54 -1.55163 0.276085 0
M  V30 32887 C 3069.95 -1.85382 -0.221483 0
M  V30 32888 C 3070.3 -1.1981 -1.5537 0
M  V30 32889 O 3069.42 -0.48678 -2.10854 0
M  V30 32890 C 3070.02 -3.36327 -0.408647 0
M  V30 32891 C 3068.58 -3.66667 -0.850447 0
M  V30 32892 C 3067.72 -2.77244 0.0557047 0
M  V30 32893 H 3070.67 -1.50689 0.497845 0
M  V30 32894 H 3070.7 -3.59484 -1.24705 0
M  V30 32895 H 3070.21 -3.84022 0.561119 0
M  V30 32896 H 3068.31 -3.24471 -1.83165 0
M  V30 32897 H 3068.42 -4.74147 -0.687097 0
M  V30 32898 H 3066.79 -2.50497 -0.460775 0
M  V30 32899 H 3067.57 -3.27754 1.02137 0
M  V30 32900 N 3070.01 -0.00338196 -1.576 0
M  V30 32901 C 3070.96 0.986938 -2.08634 0
M  V30 32902 C 3071.93 1.33925 -0.982514 0
M  V30 32903 O 3073.12 1.43703 -1.25515 0
M  V30 32904 C 3070.26 2.27256 -2.59709 0
M  V30 32905 C 3069.37 1.97898 -3.84006 0
M  V30 32906 C 3068.5 3.20567 -4.23569 0
M  V30 32907 C 3067.54 2.8691 -5.40693 0
M  V30 32908 N 3066.68 4.02126 -5.75534 0
M  V30 32909 H 3071.52 0.544804 -2.92978 0
M  V30 32910 H 3069.06 0.25735 -1.44831 0
M  V30 32911 H 3071.01 3.02418 -2.87401 0
M  V30 32912 H 3069.64 2.69133 -1.78234 0
M  V30 32913 H 3068.7 1.13089 -3.63201 0
M  V30 32914 H 3070.01 1.69093 -4.69264 0
M  V30 32915 H 3069.16 4.04071 -4.52561 0
M  V30 32916 H 3067.9 3.52512 -3.37026 0
M  V30 32917 H 3066.91 2.01814 -5.11421 0
M  V30 32918 H 3068.13 2.56209 -6.28915 0
M  V30 32919 H 3066.08 4.33962 -4.91948 0
M  V30 32920 H 3065.99 3.76857 -6.55374 0
M  V30 32921 H 3067.26 4.8641 -6.09119 0
M  V30 32922 N 3071.49 1.5528 0.269423 0
M  V30 32923 C 3072.45 1.87627 1.31639 0
M  V30 32924 C 3073.45 0.751083 1.42181 0
M  V30 32925 O 3074.64 1.01924 1.4127 0
M  V30 32926 C 3071.78 2.08472 2.69726 0
M  V30 32927 H 3072.97 2.81221 1.04185 0
M  V30 32928 H 3070.52 1.47826 0.507659 0
M  V30 32929 H 3071.26 1.17271 3.02354 0
M  V30 32930 H 3071.04 2.90399 2.6346 0
M  V30 32931 H 3072.53 2.34759 3.45366 0
M  V30 32932 N 3072.97 -0.534097 1.48274 0
M  V30 32933 C 3074.39 -0.862249 1.34304 0
M  V30 32934 C 3074.59 -1.9842 0.350937 0
M  V30 32935 O 3073.64 -2.51457 -0.22932 0
M  V30 32936 C 3074.95 -1.23366 2.74229 0
M  V30 32937 C 3076.5 -1.34378 2.82686 0
M  V30 32938 C 3076.98 -1.74864 4.23304 0
M  V30 32939 N 3078.47 -1.81974 4.25958 0
M  V30 32940 C 3079.2 -2.14677 5.31697 0
M  V30 32941 N 3078.7 -2.45832 6.47718 0
M  V30 32942 N 3080.49 -2.15648 5.19088 0
M  V30 32943 H 3072.64 0.206252 2.11396 0
M  V30 32944 H 3074.91 0.0296283 0.947537 0
M  V30 32945 H 3074.61 -0.482906 3.48369 0
M  V30 32946 H 3074.49 -2.18473 3.07489 0
M  V30 32947 H 3076.87 -2.0853 2.08804 0
M  V30 32948 H 3076.95 -0.374019 2.53051 0
M  V30 32949 H 3076.6 -1.01273 4.97701 0
M  V30 32950 H 3076.53 -2.72883 4.50381 0
M  V30 32951 H 3079.02 -1.6019 3.42268 0
M  V30 32952 H 3079.33 -2.69879 7.24144 0
M  V30 32953 H 3077.68 -2.43361 6.51 0
M  V30 32954 H 3080.87 -1.90762 4.27466 0
M  V30 32955 H 3081.04 -2.40803 6.01596 0
M  V30 32956 N 3074.45 -1.36793 -0.782652 0
M  V30 32957 C 3075.86 -1.17354 -1.08167 0
M  V30 32958 C 3076.06 -0.00223911 -2.015 0
M  V30 32959 O 3075.12 0.66105 -2.43693 0
M  V30 32960 C 3076.43 -2.4874 -1.68964 0
M  V30 32961 C 3077.98 -2.55164 -1.81274 0
M  V30 32962 C 3078.46 -3.86653 -2.45485 0
M  V30 32963 N 3079.95 -3.88036 -2.52947 0
M  V30 32964 C 3080.68 -4.8652 -3.03457 0
M  V30 32965 N 3080.18 -5.95398 -3.54222 0
M  V30 32966 N 3081.97 -4.73933 -3.02231 0
M  V30 32967 H 3074.12 -2.11776 -0.16272 0
M  V30 32968 H 3076.38 -0.938366 -0.134807 0
M  V30 32969 H 3076.09 -3.34754 -1.07853 0
M  V30 32970 H 3075.96 -2.65039 -2.68392 0
M  V30 32971 H 3078.35 -1.69563 -2.41521 0
M  V30 32972 H 3078.43 -2.42759 -0.806325 0
M  V30 32973 H 3078.08 -4.72663 -1.85881 0
M  V30 32974 H 3078.01 -3.96357 -3.46711 0
M  V30 32975 H 3080.5 -3.0938 -2.17008 0
M  V30 32976 H 3080.81 -6.66509 -3.91133 0
M  V30 32977 H 3079.16 -5.99058 -3.52356 0
M  V30 32978 H 3082.35 -3.88001 -2.61864 0
M  V30 32979 H 3082.52 -5.50843 -3.41286 0
M  V30 32980 N 3075.93 1.00759 -1.21184 0
M  V30 32981 C 3077.17 1.74496 -1.02749 0
M  V30 32982 C 3077.5 1.89474 0.43931 0
M  V30 32983 O 3076.76 1.42411 1.3423 0
M  V30 32984 C 3077.06 3.16155 -1.66676 0
M  V30 32985 C 3076.72 3.21131 -3.16521 0
M  V30 32986 C 3075.38 3.22197 -3.57411 0
M  V30 32987 C 3077.74 3.18579 -4.12501 0
M  V30 32988 C 3075.06 3.18392 -4.92791 0
M  V30 32989 C 3077.42 3.16316 -5.47838 0
M  V30 32990 C 3076.08 3.1569 -5.88129 0
M  V30 32991 H 3075.35 0.638527 -0.375985 0
M  V30 32992 H 3078 1.18111 -1.50738 0
M  V30 32993 H 3076.3 3.75756 -1.10972 0
M  V30 32994 H 3078 3.71922 -1.49918 0
M  V30 32995 H 3074.59 3.21043 -2.83953 0
M  V30 32996 H 3078.77 3.16919 -3.81938 0
M  V30 32997 H 3074.03 3.16244 -5.23259 0
M  V30 32998 H 3078.2 3.13295 -6.21948 0
M  V30 32999 H 3075.83 3.12496 -6.93001 0
M  V30 33000 N 3077.4 1.01917 1.20211 0
M  V30 33001 C 3078.33 0.612063 2.25335 0
M  V30 33002 C 3079.32 -0.374156 1.65934 0
M  V30 33003 O 3080.5 -0.259019 1.92465 0
M  V30 33004 C 3077.63 -0.047843 3.47267 0
M  V30 33005 C 3076.58 0.859631 4.19278 0
M  V30 33006 C 3075.91 0.0653594 5.3466 0
M  V30 33007 C 3077.21 2.16888 4.75139 0
M  V30 33008 H 3078.9 1.49084 2.59643 0
M  V30 33009 H 3076.45 0.718285 1.24807 0
M  V30 33010 H 3078.4 -0.344221 4.19992 0
M  V30 33011 H 3077.13 -0.96135 3.12131 0
M  V30 33012 H 3075.79 1.14005 3.48423 0
M  V30 33013 H 3075.43 -0.849877 4.95768 0
M  V30 33014 H 3075.13 0.669721 5.83771 0
M  V30 33015 H 3076.66 -0.224504 6.10187 0
M  V30 33016 H 3078.07 1.93469 5.39669 0
M  V30 33017 H 3076.47 2.72432 5.34697 0
M  V30 33018 H 3077.54 2.83015 3.93739 0
M  V30 33019 N 3078.88 -1.36036 0.795742 0
M  V30 33020 C 3080.13 -1.99805 0.380703 0
M  V30 33021 C 3080.48 -1.62011 -1.0378 0
M  V30 33022 O 3079.78 -0.867861 -1.70818 0
M  V30 33023 C 3079.97 -3.54038 0.4891 0
M  V30 33024 C 3079.8 -4.06813 1.91659 0
M  V30 33025 C 3078.57 -4.3667 2.54259 0
M  V30 33026 C 3080.77 -4.26124 2.87963 0
M  V30 33027 N 3078.75 -4.75307 3.88531 0
M  V30 33028 C 3080.12 -4.67637 4.07082 0
M  V30 33029 C 3082.18 -4.08308 2.84937 0
M  V30 33030 C 3080.88 -4.93198 5.23591 0
M  V30 33031 C 3082.9 -4.35019 4.0064 0
M  V30 33032 C 3082.27 -4.76794 5.18504 0
M  V30 33033 H 3078.37 -0.759348 0.186856 0
M  V30 33034 H 3080.95 -1.64932 1.03468 0
M  V30 33035 H 3079.12 -3.88166 -0.134825 0
M  V30 33036 H 3080.85 -4.04669 0.0496967 0
M  V30 33037 H 3077.61 -4.266 2.05693 0
M  V30 33038 H 3078.03 -4.98901 4.57632 0
M  V30 33039 H 3082.67 -3.75162 1.9497 0
M  V30 33040 H 3080.39 -5.25223 6.14139 0
M  V30 33041 H 3083.98 -4.22798 3.99666 0
M  V30 33042 H 3082.86 -4.97062 6.06547 0
M  V30 33043 N 3080.36 -0.5483 -1.47755 0
M  V30 33044 C 3081.31 0.217543 -2.3158 0
M  V30 33045 C 3082.3 0.917932 -1.42374 0
M  V30 33046 O 3083.51 0.840231 -1.59186 0
M  V30 33047 H 3079.88 0.0890257 -0.746712 0
M  V30 33048 H 3081.85 -0.50877 -2.94031 0
M  V30 33049 C 3080.6 1.24002 -3.24837 0
M  V30 33050 H 3079.93 0.710502 -3.93436 0
M  V30 33051 H 3081.37 1.74694 -3.86339 0
M  V30 33052 C 3079.83 2.28325 -2.47728 0
M  V30 33053 O 3080.36 3.35094 -2.21528 0
M  V30 33054 N 3078.56 2.02018 -2.08895 0
M  V30 33055 H 3078.11 1.15206 -2.30403 0
M  V30 33056 H 3078.07 2.72037 -1.57618 0
M  V30 33057 N 3081.84 1.55014 -0.28431 0
M  V30 33058 C 3083.08 2.01704 0.330906 0
M  V30 33059 C 3083.44 1.16835 1.5236 0
M  V30 33060 O 3084.64 1.53146 2.20907 0
M  V30 33061 C 3082.91 3.50584 0.69465 0
M  V30 33062 S 3084.47 4.19253 1.2951 0
M  V30 33063 H 3081.29 0.703579 0.102458 0
M  V30 33064 H 3083.89 1.91189 -0.40829 0
M  V30 33065 H 3082.6 4.09996 -0.182128 0
M  V30 33066 H 3082.13 3.65102 1.46507 0
M  V30 33067 H 3084.14 4.23642 2.58344 0
M  V30 33068 N 3083.32 0.0117398 1.57596 0
M  V30 33069 C 3084.28 -0.960779 2.08091 0
M  V30 33070 C 3085.28 -1.26512 0.992542 0
M  V30 33071 O 3086.47 -1.20835 1.25478 0
M  V30 33072 C 3083.6 -2.28236 2.53221 0
M  V30 33073 H 3084.79 -0.523777 2.95291 0
M  V30 33074 H 3082.35 -0.235968 1.54509 0
M  V30 33075 H 3083.08 -2.76602 1.69299 0
M  V30 33076 H 3082.87 -2.07464 3.32718 0
M  V30 33077 H 3084.36 -2.97978 2.92573 0
M  V30 33078 N 3084.79 -1.55421 -0.261185 0
M  V30 33079 C 3085.72 -1.92121 -1.32709 0
M  V30 33080 C 3086.71 -0.784433 -1.50933 0
M  V30 33081 O 3087.89 -1.04355 -1.63779 0
M  V30 33082 C 3085.02 -2.20346 -2.68449 0
M  V30 33083 C 3083.97 -3.36141 -2.64941 0
M  V30 33084 C 3083.3 -3.49872 -4.04343 0
M  V30 33085 C 3084.6 -4.72219 -2.23174 0
M  V30 33086 H 3086.29 -2.81402 -1.0224 0
M  V30 33087 H 3083.84 -1.35393 -0.490382 0
M  V30 33088 H 3085.79 -2.44609 -3.43139 0
M  V30 33089 H 3084.52 -1.27876 -3.00525 0
M  V30 33090 H 3083.18 -3.11864 -1.92708 0
M  V30 33091 H 3082.82 -2.54848 -4.33661 0
M  V30 33092 H 3082.52 -4.27733 -4.02887 0
M  V30 33093 H 3084.05 -3.76441 -4.80754 0
M  V30 33094 H 3085.46 -4.95948 -2.87591 0
M  V30 33095 H 3083.86 -5.5308 -2.32858 0
M  V30 33096 H 3084.93 -4.70243 -1.18318 0
M  V30 33097 N 3086.27 0.526227 -1.48555 0
M  V30 33098 C 3087.5 1.31126 -1.60688 0
M  V30 33099 C 3087.92 1.8617 -0.268734 0
M  V30 33100 O 3087.28 1.64595 0.760138 0
M  V30 33101 C 3087.33 2.43531 -2.65942 0
M  V30 33102 O 3086.43 3.46674 -2.23362 0
M  V30 33103 H 3085.77 0.388202 -0.538698 0
M  V30 33104 H 3088.3 0.632791 -1.94569 0
M  V30 33105 H 3088.31 2.89663 -2.87332 0
M  V30 33106 H 3086.99 2.02829 -3.63088 0
M  V30 33107 H 3085.57 3.06635 -2.12201 0
M  V30 33108 N 3087.75 1.37206 0.775387 0
M  V30 33109 C 3089 1.32409 1.53609 0
M  V30 33110 C 3089.33 -0.0923762 1.9398 0
M  V30 33111 O 3088.6 -1.04891 1.63793 0
M  V30 33112 C 3088.89 2.25984 2.80363 0
M  V30 33113 C 3088.74 3.76393 2.46269 0
M  V30 33114 C 3090.06 2.18071 3.82273 0
M  V30 33115 H 3087.18 0.482307 0.557269 0
M  V30 33116 H 3089.82 1.67877 0.889797 0
M  V30 33117 H 3087.97 1.95868 3.35512 0
M  V30 33118 H 3089.64 4.1709 1.97062 0
M  V30 33119 H 3087.89 3.9514 1.79016 0
M  V30 33120 H 3088.56 4.37297 3.3686 0
M  V30 33121 H 3091.03 2.4461 3.36609 0
M  V30 33122 H 3089.91 2.85692 4.68691 0
M  V30 33123 H 3090.17 1.17246 4.2627 0
M  V30 33124 N 3089.23 -1.00115 1.21716 0
M  V30 33125 C 3090.47 -1.74206 1.03827 0
M  V30 33126 C 3090.81 -1.89454 -0.4267 0
M  V30 33127 O 3090.08 -1.43168 -1.31655 0
M  V30 33128 C 3090.37 -3.15242 1.74052 0
M  V30 33129 C 3090.22 -3.07694 3.28092 0
M  V30 33130 C 3091.54 -4.14246 1.48621 0
M  V30 33131 H 3088.66 -0.632332 0.378584 0
M  V30 33132 H 3091.3 -1.16691 1.49944 0
M  V30 33133 H 3089.45 -3.64347 1.34846 0
M  V30 33134 H 3091.12 -2.66274 3.76691 0
M  V30 33135 H 3089.36 -2.447 3.58196 0
M  V30 33136 H 3090.03 -4.07459 3.72399 0
M  V30 33137 H 3092.51 -3.73863 1.82662 0
M  V30 33138 H 3091.39 -5.11062 2.00266 0
M  V30 33139 H 3091.65 -4.40129 0.417035 0
M  V30 33140 N 3090.71 -1.02553 -1.19669 0
M  V30 33141 C 3091.65 -0.603433 -2.22772 0
M  V30 33142 C 3092.62 0.381052 -1.6167 0
M  V30 33143 O 3093.81 0.278472 -1.88757 0
M  V30 33144 C 3090.95 0.0430427 -3.45073 0
M  V30 33145 C 3090.06 -0.98708 -4.20572 0
M  V30 33146 C 3089.2 -0.310719 -5.3029 0
M  V30 33147 C 3088.24 -1.32698 -5.97543 0
M  V30 33148 N 3087.37 -0.676665 -6.98832 0
M  V30 33149 H 3092.21 -1.48723 -2.58235 0
M  V30 33150 H 3089.75 -0.744308 -1.2688 0
M  V30 33151 H 3091.71 0.435068 -4.14925 0
M  V30 33152 H 3090.34 0.890441 -3.10276 0
M  V30 33153 H 3089.39 -1.49719 -3.49697 0
M  V30 33154 H 3090.7 -1.7596 -4.66733 0
M  V30 33155 H 3089.86 0.136331 -6.06547 0
M  V30 33156 H 3088.6 0.494034 -4.85191 0
M  V30 33157 H 3087.6 -1.78433 -5.2004 0
M  V30 33158 H 3088.83 -2.13317 -6.44727 0
M  V30 33159 H 3086.77 0.108057 -6.55911 0
M  V30 33160 H 3086.69 -1.38712 -7.43165 0
M  V30 33161 H 3087.96 -0.253504 -7.79088 0
M  V30 33162 N 3092.19 1.35612 -0.802945 0
M  V30 33163 C 3093.1 2.33638 -0.212218 0
M  V30 33164 C 3094.11 1.6169 0.642842 0
M  V30 33165 O 3095.29 1.93589 0.555451 0
M  V30 33166 C 3092.35 3.40885 0.632346 0
M  V30 33167 C 3091.41 4.28613 -0.242783 0
M  V30 33168 C 3090.65 5.30737 0.561567 0
M  V30 33169 O 3090.87 5.41369 1.79654 0
M  V30 33170 O 3089.8 6.01883 -0.0456445 0
M  V30 33171 H 3093.63 2.8595 -1.02305 0
M  V30 33172 H 3091.21 1.38318 -0.564661 0
M  V30 33173 H 3093.1 4.06422 1.11351 0
M  V30 33174 H 3091.77 2.9085 1.42084 0
M  V30 33175 H 3090.68 3.66069 -0.771005 0
M  V30 33176 H 3092.01 4.82035 -0.99513 0
M  V30 33177 N 3093.66 0.556128 1.47462 0
M  V30 33178 C 3094.91 0.0316067 2.02075 0
M  V30 33179 C 3095.23 -1.32256 1.43295 0
M  V30 33180 O 3094.5 -1.86235 0.607743 0
M  V30 33181 H 3093.08 0.00869473 0.746949 0
M  V30 33182 H 3095.74 0.725891 1.80878 0
M  V30 33183 H 3094.84 -0.057299 3.12047 0
M  V30 33184 N 3095.14 -1.54861 0.292527 0
M  V30 33185 C 3096.56 -1.59483 -0.061118 0
M  V30 33186 C 3096.76 -1.30961 -1.53139 0
M  V30 33187 O 3095.81 -1.07891 -2.28289 0
M  V30 33188 C 3097.13 -2.98893 0.329195 0
M  V30 33189 C 3098.67 -3.1177 0.277255 0
M  V30 33190 C 3099.15 -4.53474 0.642264 0
M  V30 33191 N 3100.64 -4.59369 0.594476 0
M  V30 33192 C 3101.38 -5.67073 0.849485 0
M  V30 33193 N 3100.87 -6.82849 1.17002 0
M  V30 33194 N 3102.66 -5.56702 0.777114 0
M  V30 33195 H 3094.82 -1.71663 1.25082 0
M  V30 33196 H 3097.08 -0.801331 0.50653 0
M  V30 33197 H 3096.78 -3.24659 1.35238 0
M  V30 33198 H 3096.66 -3.75828 -0.321376 0
M  V30 33199 H 3099.05 -2.85757 -0.736675 0
M  V30 33200 H 3099.13 -2.37008 0.96233 0
M  V30 33201 H 3098.77 -4.80215 1.65396 0
M  V30 33202 H 3098.7 -5.2656 -0.0647906 0
M  V30 33203 H 3101.19 -3.76207 0.357322 0
M  V30 33204 H 3101.5 -7.60903 1.3508 0
M  V30 33205 H 3099.85 -6.84422 1.20797 0
M  V30 33206 H 3103.04 -4.65131 0.526415 0
M  V30 33207 H 3103.21 -6.40558 0.979225 0
M  V30 33208 N 3096.62 -0.0200973 -1.57587 0
M  V30 33209 C 3097.84 0.674513 -1.96125 0
M  V30 33210 C 3098.27 1.65384 -0.896097 0
M  V30 33211 O 3097.63 1.80728 0.143894 0
M  V30 33212 C 3097.68 1.36511 -3.33762 0
M  V30 33213 O 3096.78 2.48016 -3.29487 0
M  V30 33214 H 3096.12 0.177908 -0.639722 0
M  V30 33215 H 3098.65 -0.0792677 -2.04446 0
M  V30 33216 H 3098.66 1.72397 -3.69788 0
M  V30 33217 H 3097.34 0.647193 -4.10834 0
M  V30 33218 H 3095.91 2.14309 -3.05166 0
M  V30 33219 N 3098.1 1.55557 0.252939 0
M  V30 33220 C 3099.34 1.77368 0.983275 0
M  V30 33221 C 3099.68 0.58429 1.85202 0
M  V30 33222 O 3098.95 -0.417611 1.89964 0
M  V30 33223 C 3099.23 3.09011 1.84891 0
M  V30 33224 C 3099.09 4.38343 1.00875 0
M  V30 33225 C 3100.41 3.36836 2.83248 0
M  V30 33226 H 3097.53 0.645292 0.356044 0
M  V30 33227 H 3100.17 1.88292 0.254199 0
M  V30 33228 H 3098.32 2.99829 2.47052 0
M  V30 33229 H 3099.99 4.59507 0.406299 0
M  V30 33230 H 3098.23 4.3267 0.312894 0
M  V30 33231 H 3098.9 5.26822 1.64809 0
M  V30 33232 H 3101.38 3.45942 2.31222 0
M  V30 33233 H 3100.26 4.30175 3.40941 0
M  V30 33234 H 3100.52 2.57453 3.59403 0
M  V30 33235 N 3099.58 -0.518341 1.48832 0
M  V30 33236 C 3100.82 -1.2754 1.57675 0
M  V30 33237 C 3101.15 -1.92519 0.254948 0
M  V30 33238 O 3100.43 -1.7987 -0.740075 0
M  V30 33239 C 3100.71 -2.3558 2.72349 0
M  V30 33240 C 3100.57 -1.75216 4.1427 0
M  V30 33241 C 3101.88 -3.37269 2.82732 0
M  V30 33242 H 3099 -0.462351 0.573934 0
M  V30 33243 H 3101.65 -0.576236 1.81051 0
M  V30 33244 H 3099.8 -2.95215 2.52548 0
M  V30 33245 H 3101.47 -1.19543 4.45542 0
M  V30 33246 H 3099.71 -1.05698 4.20726 0
M  V30 33247 H 3100.38 -2.53498 4.9035 0
M  V30 33248 H 3102.86 -2.87604 3.00704 0
M  V30 33249 H 3101.73 -4.10246 3.64677 0
M  V30 33250 H 3101.99 -3.98536 1.91367 0
M  V30 33251 N 3101.05 -1.37615 -0.7681 0
M  V30 33252 C 3101.98 -1.36377 -1.89535 0
M  V30 33253 C 3102.96 -0.231833 -1.68513 0
M  V30 33254 O 3104.15 -0.432738 -1.89317 0
M  V30 33255 C 3101.28 -1.17363 -3.26869 0
M  V30 33256 C 3100.23 -2.27608 -3.62462 0
M  V30 33257 C 3099.56 -1.93714 -4.98377 0
M  V30 33258 C 3100.86 -3.69809 -3.68834 0
M  V30 33259 H 3102.55 -2.30705 -1.90828 0
M  V30 33260 H 3100.1 -1.11052 -0.916701 0
M  V30 33261 H 3102.05 -1.15126 -4.05369 0
M  V30 33262 H 3100.78 -0.194922 -3.26018 0
M  V30 33263 H 3099.44 -2.29007 -2.86272 0
M  V30 33264 H 3099.08 -0.943626 -4.9407 0
M  V30 33265 H 3098.78 -2.67539 -5.2316 0
M  V30 33266 H 3100.31 -1.9307 -5.79272 0
M  V30 33267 H 3101.72 -3.7052 -4.37479 0
M  V30 33268 H 3100.12 -4.42718 -4.05118 0
M  V30 33269 H 3101.19 -4.03172 -2.69408 0
M  V30 33270 N 3102.53 0.994677 -1.22245 0
M  V30 33271 C 3103.76 1.7695 -1.07221 0
M  V30 33272 C 3104.17 1.8499 0.377356 0
M  V30 33273 O 3103.53 1.31876 1.26154 0
M  V30 33274 C 3103.58 3.20352 -1.67502 0
M  V30 33275 O 3103.3 3.1275 -3.06788 0
M  V30 33276 C 3104.8 4.14291 -1.57728 0
M  V30 33277 H 3102.02 0.555773 -0.375976 0
M  V30 33278 H 3104.57 1.25063 -1.61801 0
M  V30 33279 H 3102.72 3.69313 -1.16989 0
M  V30 33280 H 3103.14 4.0292 -3.35791 0
M  V30 33281 H 3104.61 5.12669 -2.04632 0
M  V30 33282 H 3105.09 4.35948 -0.533511 0
M  V30 33283 H 3105.69 3.71225 -2.07538 0
M  V30 33284 N 3104.01 1.03186 1.19123 0
M  V30 33285 C 3105.23 0.749662 1.93377 0
M  V30 33286 C 3105.66 -0.685754 1.75154 0
M  V30 33287 O 3105.02 -1.47385 1.05582 0
M  V30 33288 C 3105.07 1.10976 3.43099 0
M  V30 33289 O 3104.17 0.230125 4.11757 0
M  V30 33290 H 3103.51 0.2767 0.6036 0
M  V30 33291 H 3106.04 1.37934 1.51114 0
M  V30 33292 H 3106.05 1.06792 3.93776 0
M  V30 33293 H 3104.73 2.1555 3.55684 0
M  V30 33294 H 3103.3 0.330813 3.7143 0
M  V30 33295 N 3105.49 -1.35184 0.810125 0
M  V30 33296 C 3106.44 -2.2716 0.195581 0
M  V30 33297 C 3107.42 -1.4794 -0.632665 0
M  V30 33298 O 3108.61 -1.70101 -0.489342 0
M  V30 33299 C 3105.74 -3.3705 -0.652105 0
M  V30 33300 C 3104.83 -4.23692 0.186064 0
M  V30 33301 N 3105.22 -4.9009 1.25081 0
M  V30 33302 C 3103.52 -4.45989 -0.0317249 0
M  V30 33303 C 3104.22 -5.54346 1.76282 0
M  V30 33304 N 3103.2 -5.32991 1.06871 0
M  V30 33305 H 3107 -2.75992 1.01022 0
M  V30 33306 H 3104.51 -1.48753 0.651638 0
M  V30 33307 H 3106.51 -4.01895 -1.10844 0
M  V30 33308 H 3105.17 -2.89769 -1.46506 0
M  V30 33309 H 3106.18 -4.91464 1.6335 0
M  V30 33310 H 3102.86 -4.09497 -0.813535 0
M  V30 33311 H 3104.25 -6.1731 2.65289 0
M  V30 33312 N 3106.97 -0.56394 -1.47165 0
M  V30 33313 C 3108.19 -0.0455063 -2.0735 0
M  V30 33314 C 3108.62 1.2418 -1.41283 0
M  V30 33315 O 3107.97 1.7455 -0.490115 0
M  V30 33316 C 3108.02 0.126389 -3.60378 0
M  V30 33317 O 3107.13 1.18739 -3.94936 0
M  V30 33318 H 3106.47 -0.0543493 -0.661772 0
M  V30 33319 H 3109 -0.781541 -1.89085 0
M  V30 33320 H 3109.01 0.338483 -4.06594 0
M  V30 33321 H 3107.68 -0.813802 -4.0786 0
M  V30 33322 H 3106.26 0.955254 -3.60457 0
M  V30 33323 N 3108.44 1.54704 -0.300735 0
M  V30 33324 C 3109.38 2.19687 0.617475 0
M  V30 33325 C 3110.36 1.16619 1.13308 0
M  V30 33326 O 3111.54 1.4526 1.20133 0
M  V30 33327 C 3108.67 2.8405 1.84481 0
M  V30 33328 C 3107.71 4.00642 1.46246 0
M  V30 33329 S 3108.55 5.32983 0.518624 0
M  V30 33330 C 3109.7 6.00828 1.75376 0
M  V30 33331 H 3109.93 2.97228 0.0654025 0
M  V30 33332 H 3107.47 1.54167 -0.0848763 0
M  V30 33333 H 3109.43 3.21759 2.54915 0
M  V30 33334 H 3108.09 2.06355 2.36805 0
M  V30 33335 H 3107.28 4.44458 2.3764 0
M  V30 33336 H 3106.88 3.64489 0.838065 0
M  V30 33337 H 3109.17 6.21619 2.69437 0
M  V30 33338 H 3110.12 6.94953 1.35817 0
M  V30 33339 H 3110.52 5.30469 1.93036 0
M  V30 33340 N 3109.92 0.0284543 1.57574 0
M  V30 33341 C 3110.83 -0.969322 2.13638 0
M  V30 33342 C 3111.85 -1.3575 1.08848 0
M  V30 33343 O 3113.02 -1.43905 1.40902 0
M  V30 33344 C 3110.09 -2.23335 2.65183 0
M  V30 33345 C 3109.15 -1.90565 3.84686 0
M  V30 33346 C 3108.38 -3.10942 4.33763 0
M  V30 33347 O 3108.61 -4.23579 3.82017 0
M  V30 33348 O 3107.54 -2.93279 5.25615 0
M  V30 33349 H 3111.37 -0.522617 2.9917 0
M  V30 33350 H 3108.95 -0.192109 1.4816 0
M  V30 33351 H 3110.83 -2.97541 2.98408 0
M  V30 33352 H 3109.51 -2.67188 1.82735 0
M  V30 33353 H 3108.42 -1.13746 3.56388 0
M  V30 33354 H 3109.75 -1.51529 4.68294 0
M  V30 33355 N 3111.4 -1.55689 -0.244686 0
M  V30 33356 C 3112.31 -1.93639 -1.32443 0
M  V30 33357 C 3113.33 -0.837113 -1.5254 0
M  V30 33358 O 3114.5 -1.1387 -1.66119 0
M  V30 33359 C 3111.57 -2.22529 -2.6586 0
M  V30 33360 C 3110.63 -3.459 -2.54267 0
M  V30 33361 C 3109.86 -3.73404 -3.81321 0
M  V30 33362 O 3110.08 -3.02944 -4.83302 0
M  V30 33363 O 3109.02 -4.66926 -3.79821 0
M  V30 33364 H 3112.84 -2.8561 -1.0325 0
M  V30 33365 H 3110.43 -1.42599 -0.445627 0
M  V30 33366 H 3112.31 -2.4241 -3.44696 0
M  V30 33367 H 3110.99 -1.33736 -2.94782 0
M  V30 33368 H 3109.89 -3.31325 -1.73709 0
M  V30 33369 H 3111.23 -4.35003 -2.30289 0
M  V30 33370 N 3112.88 0.510441 -1.49105 0
M  V30 33371 C 3114.12 1.27542 -1.59726 0
M  V30 33372 C 3114.48 1.90041 -0.273558 0
M  V30 33373 O 3115.68 2.67589 -0.254882 0
M  V30 33374 C 3113.95 2.32105 -2.71775 0
M  V30 33375 S 3115.51 3.18069 -3.02288 0
M  V30 33376 H 3112.33 0.433581 -0.563497 0
M  V30 33377 H 3114.93 0.579295 -1.8672 0
M  V30 33378 H 3113.64 1.84704 -3.66487 0
M  V30 33379 H 3113.17 3.064 -2.46744 0
M  V30 33380 H 3115.18 4.32579 -2.43084 0
M  V30 33381 N 3114.36 1.38021 0.760791 0
M  V30 33382 C 3115.27 1.36887 1.90523 0
M  V30 33383 C 3116.28 0.266938 1.7194 0
M  V30 33384 O 3117.46 0.504164 1.94988 0
M  V30 33385 C 3114.52 1.18564 3.25797 0
M  V30 33386 C 3113.58 2.38496 3.56956 0
M  V30 33387 C 3112.82 2.21038 4.85776 0
M  V30 33388 O 3113.04 1.20033 5.57627 0
M  V30 33389 O 3111.97 3.09469 5.16248 0
M  V30 33390 H 3115.8 2.33302 1.94433 0
M  V30 33391 H 3113.39 1.18865 0.90507 0
M  V30 33392 H 3115.27 1.10377 4.06688 0
M  V30 33393 H 3113.94 0.252298 3.22715 0
M  V30 33394 H 3112.85 2.52257 2.76256 0
M  V30 33395 H 3114.18 3.30436 3.64792 0
M  V30 33396 N 3115.83 -0.98818 1.22771 0
M  V30 33397 C 3116.8 -2.06075 1.00329 0
M  V30 33398 C 3117.8 -1.60768 -0.0320335 0
M  V30 33399 O 3118.99 -1.72966 0.206943 0
M  V30 33400 C 3116.12 -3.36966 0.516436 0
M  V30 33401 H 3117.31 -2.27418 1.95503 0
M  V30 33402 H 3114.87 -1.16045 1.04706 0
M  V30 33403 H 3115.6 -3.21309 -0.439441 0
M  V30 33404 H 3115.39 -3.71187 1.26344 0
M  V30 33405 H 3116.88 -4.15869 0.379813 0
M  V30 33406 N 3117.31 -1.03816 -1.18575 0
M  V30 33407 C 3118.24 -0.647834 -2.24333 0
M  V30 33408 C 3119.22 0.34771 -1.66508 0
M  V30 33409 O 3120.41 0.228367 -1.92853 0
M  V30 33410 C 3117.54 -0.00741027 -3.47299 0
M  V30 33411 C 3116.49 -0.926226 -4.17858 0
M  V30 33412 C 3115.82 -0.150411 -5.34488 0
M  V30 33413 C 3117.12 -2.2442 -4.71628 0
M  V30 33414 H 3118.81 -1.53196 -2.57238 0
M  V30 33415 H 3116.36 -0.738049 -1.23648 0
M  V30 33416 H 3118.31 0.27736 -4.20486 0
M  V30 33417 H 3117.04 0.911571 -3.13621 0
M  V30 33418 H 3115.69 -1.19534 -3.46565 0
M  V30 33419 H 3115.34 0.770897 -4.97058 0
M  V30 33420 H 3115.04 -0.762509 -5.82632 0
M  V30 33421 H 3116.57 0.127401 -6.10467 0
M  V30 33422 H 3117.98 -2.02031 -5.36523 0
M  V30 33423 H 3116.38 -2.80904 -5.30295 0
M  V30 33424 H 3117.45 -2.89243 -3.89187 0
M  V30 33425 N 3118.79 1.34753 -0.817283 0
M  V30 33426 C 3120.03 2.00277 -0.408464 0
M  V30 33427 C 3120.39 1.63402 1.00816 0
M  V30 33428 O 3121.6 2.21727 1.51956 0
M  V30 33429 C 3119.87 3.52357 -0.598281 0
M  V30 33430 S 3121.43 4.37896 -0.281472 0
M  V30 33431 H 3118.24 0.693989 -0.154599 0
M  V30 33432 H 3120.85 1.64148 -1.06187 0
M  V30 33433 H 3119.55 3.76682 -1.62908 0
M  V30 33434 H 3119.08 3.93338 0.0700608 0
M  V30 33435 H 3121.1 4.87841 0.906938 0
M  V30 33436 N 3120.27 0.571737 1.46864 0
M  V30 33437 C 3121.5 0.0584339 2.06817 0
M  V30 33438 C 3121.91 -1.24173 1.4222 0
M  V30 33439 O 3121.27 -1.74825 0.523686 0
M  V30 33440 C 3121.32 -0.125609 3.61282 0
M  V30 33441 O 3121.04 1.12308 4.2346 0
M  V30 33442 C 3122.54 -0.674527 4.38138 0
M  V30 33443 H 3119.76 0.0524497 0.668947 0
M  V30 33444 H 3122.31 0.789285 1.88655 0
M  V30 33445 H 3120.46 -0.80664 3.78909 0
M  V30 33446 H 3120.88 0.929959 5.1619 0
M  V30 33447 H 3122.35 -0.75253 5.46846 0
M  V30 33448 H 3122.83 -1.68908 4.05422 0
M  V30 33449 H 3123.43 -0.0287231 4.2529 0
M  V30 33450 N 3121.75 -1.54542 0.308935 0
M  V30 33451 C 3123.16 -1.59539 -0.0441993 0
M  V30 33452 C 3123.36 -1.32578 -1.51741 0
M  V30 33453 O 3122.42 -1.10306 -2.27132 0
M  V30 33454 C 3123.73 -2.98527 0.360878 0
M  V30 33455 C 3125.28 -3.11458 0.310307 0
M  V30 33456 C 3125.76 -4.52768 0.690325 0
M  V30 33457 N 3127.25 -4.58713 0.643165 0
M  V30 33458 C 3127.98 -5.6614 0.909583 0
M  V30 33459 N 3127.48 -6.81569 1.24238 0
M  V30 33460 N 3129.27 -5.55847 0.836116 0
M  V30 33461 H 3121.42 -1.70327 1.26896 0
M  V30 33462 H 3123.68 -0.795914 0.515 0
M  V30 33463 H 3123.39 -3.23206 1.38674 0
M  V30 33464 H 3123.26 -3.76148 -0.281496 0
M  V30 33465 H 3125.65 -2.86522 -0.706325 0
M  V30 33466 H 3125.73 -2.35974 0.987414 0
M  V30 33467 H 3125.38 -4.78434 1.7048 0
M  V30 33468 H 3125.31 -5.26599 -0.00893818 0
M  V30 33469 H 3127.8 -3.75807 0.397204 0
M  V30 33470 H 3128.11 -7.59427 1.43143 0
M  V30 33471 H 3126.46 -6.83102 1.2805 0
M  V30 33472 H 3129.65 -4.64546 0.575718 0
M  V30 33473 H 3129.82 -6.39484 1.04711 0
M  V30 33474 N 3123.23 -0.0368104 -1.57557 0
M  V30 33475 C 3124.16 0.977443 -2.06207 0
M  V30 33476 C 3125.14 1.31275 -0.959467 0
M  V30 33477 O 3126.32 1.42809 -1.23036 0
M  V30 33478 C 3123.45 2.2954 -2.49057 0
M  V30 33479 C 3122.49 2.11416 -3.70413 0
M  V30 33480 S 3123.33 1.40584 -5.16717 0
M  V30 33481 C 3124.48 2.73732 -5.62869 0
M  V30 33482 H 3124.72 0.563349 -2.91914 0
M  V30 33483 H 3122.25 0.175084 -1.53404 0
M  V30 33484 H 3124.21 3.05303 -2.74409 0
M  V30 33485 H 3122.87 2.6808 -1.63682 0
M  V30 33486 H 3122.06 3.08868 -3.98267 0
M  V30 33487 H 3121.66 1.43794 -3.45252 0
M  V30 33488 H 3123.95 3.69948 -5.67578 0
M  V30 33489 H 3124.9 2.50533 -6.62298 0
M  V30 33490 H 3125.31 2.79332 -4.90544 0
M  V30 33491 N 3124.7 1.55817 0.236426 0
M  V30 33492 C 3125.67 1.90377 1.27629 0
M  V30 33493 C 3126.67 0.781073 1.40556 0
M  V30 33494 O 3127.86 1.04897 1.39076 0
M  V30 33495 C 3124.99 2.14147 2.65243 0
M  V30 33496 H 3126.18 2.83368 0.981969 0
M  V30 33497 H 3123.73 1.4887 0.476188 0
M  V30 33498 H 3124.47 1.23658 2.99798 0
M  V30 33499 H 3124.25 2.95922 2.57241 0
M  V30 33500 H 3125.74 2.42032 3.40309 0
M  V30 33501 N 3126.18 -0.502526 1.49373 0
M  V30 33502 C 3127.43 -1.25336 1.58031 0
M  V30 33503 C 3127.74 -1.93706 0.271528 0
M  V30 33504 O 3128.95 -2.70467 0.236632 0
M  V30 33505 C 3127.41 -2.27568 2.78821 0
M  V30 33506 C 3127.01 -1.65144 4.16451 0
M  V30 33507 C 3128.76 -3.03489 2.96807 0
M  V30 33508 C 3126.66 -2.65477 5.28466 0
M  V30 33509 H 3125.59 -0.471484 0.588404 0
M  V30 33510 H 3128.25 -0.527409 1.75757 0
M  V30 33511 H 3126.63 -3.03319 2.54585 0
M  V30 33512 H 3127.8 -0.95395 4.50818 0
M  V30 33513 H 3126.12 -1.01618 4.0381 0
M  V30 33514 H 3128.71 -3.78517 3.77662 0
M  V30 33515 H 3129.06 -3.61011 2.07309 0
M  V30 33516 H 3129.59 -2.34853 3.21075 0
M  V30 33517 H 3126.33 -2.12738 6.20018 0
M  V30 33518 H 3125.85 -3.3347 4.98556 0
M  V30 33519 H 3127.53 -3.27933 5.57736 0
M  V30 33520 N 3127.66 -1.38422 -0.75346 0
M  V30 33521 C 3128.59 -1.3004 -1.87523 0
M  V30 33522 C 3129.57 -0.177407 -1.61629 0
M  V30 33523 O 3130.75 -0.354748 -1.85132 0
M  V30 33524 C 3127.88 -1.01491 -3.23137 0
M  V30 33525 C 3126.93 -2.15729 -3.67917 0
M  V30 33526 S 3127.76 -3.7787 -3.7944 0
M  V30 33527 C 3128.92 -3.51509 -5.17873 0
M  V30 33528 H 3129.15 -2.24981 -1.94347 0
M  V30 33529 H 3126.68 -1.2426 -0.916453 0
M  V30 33530 H 3128.64 -0.85703 -4.01454 0
M  V30 33531 H 3127.3 -0.0826751 -3.13991 0
M  V30 33532 H 3126.49 -1.913 -4.66284 0
M  V30 33533 H 3126.1 -2.27625 -2.96754 0
M  V30 33534 H 3128.39 -3.0763 -6.03631 0
M  V30 33535 H 3129.33 -4.49269 -5.47323 0
M  V30 33536 H 3129.74 -2.86018 -4.86676 0
M  V30 33537 N 3129.14 0.981655 -1.23294 0
M  V30 33538 C 3130.38 1.72533 -1.06585 0
M  V30 33539 C 3130.72 1.90109 0.396505 0
M  V30 33540 O 3129.99 1.45245 1.29361 0
M  V30 33541 C 3130.27 3.12434 -1.79045 0
M  V30 33542 C 3130.13 3.02435 -3.32946 0
M  V30 33543 C 3131.45 4.11829 -1.55193 0
M  V30 33544 H 3128.57 0.626229 -0.388596 0
M  V30 33545 H 3131.21 1.14291 -1.51781 0
M  V30 33546 H 3129.36 3.62156 -1.40625 0
M  V30 33547 H 3131.03 2.60247 -3.80879 0
M  V30 33548 H 3129.27 2.38971 -3.62043 0
M  V30 33549 H 3129.94 4.01483 -3.78834 0
M  V30 33550 H 3132.42 3.7091 -1.88587 0
M  V30 33551 H 3131.3 5.07812 -2.08371 0
M  V30 33552 H 3131.56 4.39409 -0.487002 0
M  V30 33553 N 3130.62 1.04444 1.18022 0
M  V30 33554 C 3131.56 0.632596 2.23832 0
M  V30 33555 C 3132.56 -0.342459 1.65902 0
M  V30 33556 O 3133.76 -0.209339 1.78779 0
M  V30 33557 H 3130.14 0.186366 0.728541 0
M  V30 33558 H 3132.11 1.5353 2.55873 0
M  V30 33559 C 3130.86 0.0154272 3.47697 0
M  V30 33560 H 3130.18 0.756773 3.92572 0
M  V30 33561 H 3131.62 -0.235466 4.23346 0
M  V30 33562 C 3130.08 -1.23574 3.13418 0
M  V30 33563 O 3130.61 -2.32604 3.27503 0
M  V30 33564 N 3128.82 -1.13048 2.6771 0
M  V30 33565 H 3128.36 -0.243232 2.56449 0
M  V30 33566 H 3128.32 -1.96851 2.45147 0
M  V30 33567 N 3132.09 -1.34317 0.824418 0
M  V30 33568 C 3133.34 -1.97848 0.412385 0
M  V30 33569 C 3133.66 -1.65678 -1.02838 0
M  V30 33570 O 3132.93 -0.948275 -1.71419 0
M  V30 33571 H 3131.51 -0.731887 0.149499 0
M  V30 33572 H 3134.17 -1.63929 1.05419 0
M  V30 33573 H 3133.27 -3.07522 0.532611 0
M  V30 33574 N 3133.57 -0.579517 -1.46558 0
M  V30 33575 C 3134.99 -0.240948 -1.57771 0
M  V30 33576 C 3135.19 1.25673 -1.57507 0
M  V30 33577 O 3134.24 2.03827 -1.49034 0
M  V30 33578 C 3135.56 -0.887335 -2.8731 0
M  V30 33579 C 3137.1 -0.860629 -3.00935 0
M  V30 33580 C 3137.58 -1.4865 -4.33206 0
M  V30 33581 N 3139.07 -1.45069 -4.39897 0
M  V30 33582 C 3139.81 -1.90437 -5.40852 0
M  V30 33583 N 3139.3 -2.43764 -6.48499 0
M  V30 33584 N 3141.09 -1.81373 -5.32034 0
M  V30 33585 H 3133.25 -1.5523 -1.44974 0
M  V30 33586 H 3135.51 -0.648652 -0.691343 0
M  V30 33587 H 3135.21 -1.94076 -2.93304 0
M  V30 33588 H 3135.09 -0.393643 -3.7514 0
M  V30 33589 H 3137.48 0.184171 -2.94525 0
M  V30 33590 H 3137.56 -1.39231 -2.14589 0
M  V30 33591 H 3137.2 -2.53048 -4.40374 0
M  V30 33592 H 3137.13 -0.930072 -5.18322 0
M  V30 33593 H 3139.62 -1.06086 -3.62704 0
M  V30 33594 H 3139.93 -2.76247 -7.21739 0
M  V30 33595 H 3138.28 -2.47787 -6.49328 0
M  V30 33596 H 3141.47 -1.39473 -4.46839 0
M  V30 33597 H 3141.64 -2.17046 -6.10569 0
M  V30 33598 N 3135.05 1.54376 -0.317127 0
M  V30 33599 C 3136.3 2.00451 0.287375 0
M  V30 33600 C 3136.63 1.20538 1.52646 0
M  V30 33601 O 3135.88 0.273865 1.93774 0
M  V30 33602 C 3136.18 3.51009 0.672855 0
M  V30 33603 C 3135.85 4.48482 -0.466324 0
M  V30 33604 C 3134.51 4.74852 -0.779016 0
M  V30 33605 C 3136.86 5.06434 -1.23185 0
M  V30 33606 C 3134.19 5.56434 -1.86007 0
M  V30 33607 C 3136.54 5.89192 -2.30294 0
M  V30 33608 C 3135.2 6.13867 -2.62152 0
M  V30 33609 H 3134.47 0.7335 0.105158 0
M  V30 33610 H 3137.12 1.86387 -0.439571 0
M  V30 33611 H 3135.43 3.62766 1.48013 0
M  V30 33612 H 3137.12 3.84096 1.15202 0
M  V30 33613 H 3133.71 4.28073 -0.212524 0
M  V30 33614 H 3137.9 4.86048 -1.00353 0
M  V30 33615 H 3133.15 5.73784 -2.11144 0
M  V30 33616 H 3137.33 6.33118 -2.90059 0
M  V30 33617 H 3134.95 6.76871 -3.46049 0
M  V30 33618 N 3136.53 0.0451655 1.57535 0
M  V30 33619 C 3137.94 -0.311346 1.56534 0
M  V30 33620 C 3138.14 -1.71841 1.05228 0
M  V30 33621 O 3137.2 -2.42424 0.706187 0
M  V30 33622 C 3138.51 -0.145295 3.00349 0
M  V30 33623 C 3140.06 -0.216853 3.12248 0
M  V30 33624 C 3140.54 -0.0794029 4.57931 0
M  V30 33625 N 3142.03 -0.135873 4.63001 0
M  V30 33626 C 3142.76 -0.0535418 5.73375 0
M  V30 33627 N 3142.26 0.0807943 6.92753 0
M  V30 33628 N 3144.05 -0.108691 5.61995 0
M  V30 33629 H 3136.2 0.965077 1.89209 0
M  V30 33630 H 3138.47 0.374107 0.871062 0
M  V30 33631 H 3138.17 0.824593 3.41897 0
M  V30 33632 H 3138.05 -0.908838 3.66087 0
M  V30 33633 H 3140.43 -1.17721 2.70603 0
M  V30 33634 H 3140.51 0.577342 2.492 0
M  V30 33635 H 3140.16 0.877604 5.0026 0
M  V30 33636 H 3140.09 -0.892667 5.18979 0
M  V30 33637 H 3142.58 -0.239193 3.77142 0
M  V30 33638 H 3142.89 0.136487 7.72679 0
M  V30 33639 H 3141.24 0.115797 6.94904 0
M  V30 33640 H 3144.43 -0.212153 4.67619 0
M  V30 33641 H 3144.6 -0.0410683 6.47987 0
M  V30 33642 N 3138.01 -1.5594 -0.228159 0
M  V30 33643 C 3139.25 -1.80418 -0.960663 0
M  V30 33644 C 3139.61 -0.617647 -1.81794 0
M  V30 33645 O 3140.81 -0.741591 -2.58368 0
M  V30 33646 C 3139.08 -3.09753 -1.78292 0
M  V30 33647 S 3140.64 -3.55521 -2.57196 0
M  V30 33648 H 3137.46 -0.633492 -0.322814 0
M  V30 33649 H 3140.06 -1.9418 -0.226818 0
M  V30 33650 H 3138.77 -3.94157 -1.14316 0
M  V30 33651 H 3138.3 -2.9878 -2.55918 0
M  V30 33652 H 3140.31 -3.18336 -3.80626 0
M  V30 33653 N 3139.48 0.494597 -1.49638 0
M  V30 33654 C 3140.41 1.60393 -1.69695 0
M  V30 33655 C 3141.4 1.6111 -0.545676 0
M  V30 33656 O 3142.58 1.77749 -0.782233 0
M  V30 33657 C 3139.71 2.98847 -1.7694 0
M  V30 33658 C 3138.66 3.12996 -2.9192 0
M  V30 33659 C 3137.99 4.52865 -2.84284 0
M  V30 33660 C 3139.29 2.92418 -4.32769 0
M  V30 33661 H 3140.98 1.43862 -2.62572 0
M  V30 33662 H 3138.53 0.690657 -1.26356 0
M  V30 33663 H 3140.48 3.76359 -1.89557 0
M  V30 33664 H 3139.21 3.16481 -0.806664 0
M  V30 33665 H 3137.87 2.37911 -2.78916 0
M  V30 33666 H 3137.51 4.67384 -1.85905 0
M  V30 33667 H 3137.21 4.63272 -3.6146 0
M  V30 33668 H 3138.74 5.32429 -2.98918 0
M  V30 33669 H 3140.15 3.59695 -4.46422 0
M  V30 33670 H 3138.55 3.14291 -5.11215 0
M  V30 33671 H 3139.62 1.88483 -4.46769 0
M  V30 33672 N 3140.96 1.3882 0.746109 0
M  V30 33673 C 3142.21 1.3517 1.50245 0
M  V30 33674 C 3142.53 -0.0553188 1.94922 0
M  V30 33675 O 3141.8 -1.00446 1.68189 0
M  V30 33676 H 3140.38 0.497387 0.557328 0
M  V30 33677 H 3143.04 1.73575 0.886442 0
M  V30 33678 H 3142.14 2.00733 2.38983 0
M  V30 33679 N 3142.44 -0.975103 1.23812 0
M  V30 33680 C 3143.67 -1.75756 1.10112 0
M  V30 33681 C 3144.09 -1.84948 -0.34289 0
M  V30 33682 O 3143.45 -1.31498 -1.24812 0
M  V30 33683 C 3143.5 -3.15991 1.7373 0
M  V30 33684 O 3142.6 -4.00016 1.00304 0
M  V30 33685 H 3141.94 -0.540537 0.385636 0
M  V30 33686 H 3144.47 -1.22369 1.63973 0
M  V30 33687 H 3144.48 -3.66547 1.79185 0
M  V30 33688 H 3143.16 -3.08616 2.788 0
M  V30 33689 H 3141.73 -3.58513 1.02581 0
M  V30 33690 N 3143.92 -1.05068 -1.17467 0
M  V30 33691 C 3145.16 -0.761146 -1.87975 0
M  V30 33692 C 3145.5 0.709963 -1.80757 0
M  V30 33693 O 3144.77 1.51904 -1.21472 0
M  V30 33694 C 3145.06 -1.24066 -3.38053 0
M  V30 33695 C 3144.91 -2.77461 -3.54027 0
M  V30 33696 C 3146.23 -0.838688 -4.32035 0
M  V30 33697 H 3143.35 -0.277975 -0.682568 0
M  V30 33698 H 3145.99 -1.30445 -1.38145 0
M  V30 33699 H 3144.14 -0.778455 -3.80621 0
M  V30 33700 H 3145.81 -3.31796 -3.20483 0
M  V30 33701 H 3144.05 -3.16798 -2.96347 0
M  V30 33702 H 3144.72 -3.06074 -4.59372 0
M  V30 33703 H 3147.2 -1.23658 -3.97301 0
M  V30 33704 H 3146.08 -1.20183 -5.35581 0
M  V30 33705 H 3146.34 0.257421 -4.4135 0
M  V30 33706 N 3145.4 1.33878 -0.831529 0
M  V30 33707 C 3146.33 2.28171 -0.216948 0
M  V30 33708 C 3147.34 1.51415 0.598114 0
M  V30 33709 O 3148.53 1.73333 0.426385 0
M  V30 33710 C 3145.63 3.31298 0.713772 0
M  V30 33711 C 3144.8 4.37358 -0.0603442 0
M  V30 33712 C 3143.86 5.20196 0.792604 0
M  V30 33713 O 3142.89 5.68717 0.234464 0
M  V30 33714 N 3144.09 5.40752 2.1111 0
M  V30 33715 H 3146.86 2.81551 -1.02709 0
M  V30 33716 H 3144.42 1.46493 -0.689298 0
M  V30 33717 H 3146.41 3.83617 1.28919 0
M  V30 33718 H 3144.98 2.78249 1.42464 0
M  V30 33719 H 3144.2 3.85638 -0.817109 0
M  V30 33720 H 3145.49 5.05334 -0.592911 0
M  V30 33721 H 3144.88 5.0302 2.58819 0
M  V30 33722 H 3143.44 5.96156 2.63517 0
M  V30 33723 N 3146.87 0.587281 1.46249 0
M  V30 33724 C 3147.82 -0.164353 2.27407 0
M  V30 33725 C 3148.81 -0.857604 1.3614 0
M  V30 33726 O 3150 -0.750944 1.6028 0
M  V30 33727 C 3147.13 -1.17442 3.22587 0
M  V30 33728 C 3146.22 -0.483047 4.2134 0
M  V30 33729 N 3146.61 0.463939 5.03668 0
M  V30 33730 C 3144.9 -0.733213 4.39932 0
M  V30 33731 C 3145.61 0.868435 5.75181 0
M  V30 33732 N 3144.58 0.216583 5.43168 0
M  V30 33733 H 3148.38 0.563288 2.88452 0
M  V30 33734 H 3145.9 0.409415 1.57155 0
M  V30 33735 H 3147.89 -1.72712 3.79442 0
M  V30 33736 H 3146.55 -1.90283 2.63102 0
M  V30 33737 H 3147.57 0.839692 5.11048 0
M  V30 33738 H 3144.24 -1.44785 3.91591 0
M  V30 33739 H 3145.63 1.64833 6.51368 0
M  V30 33740 N 3148.35 -1.54206 0.325309 0
M  V30 33741 C 3149.28 -2.27346 -0.532534 0
M  V30 33742 C 3150.26 -1.28208 -1.11789 0
M  V30 33743 O 3151.45 -1.57023 -1.14269 0
M  V30 33744 C 3148.58 -3.03258 -1.69268 0
M  V30 33745 C 3147.53 -4.09748 -1.23655 0
M  V30 33746 C 3146.86 -4.73511 -2.48378 0
M  V30 33747 C 3148.16 -5.21125 -0.350152 0
M  V30 33748 H 3149.85 -2.993 0.0775635 0
M  V30 33749 H 3147.4 -1.43948 0.0387446 0
M  V30 33750 H 3149.35 -3.53156 -2.29911 0
M  V30 33751 H 3148.08 -2.28925 -2.3294 0
M  V30 33752 H 3146.73 -3.60737 -0.653043 0
M  V30 33753 H 3146.38 -3.95791 -3.10417 0
M  V30 33754 H 3146.08 -5.45445 -2.18548 0
M  V30 33755 H 3147.61 -5.26183 -3.09779 0
M  V30 33756 H 3149.02 -5.66769 -0.862912 0
M  V30 33757 H 3147.42 -5.99926 -0.144555 0
M  V30 33758 H 3148.49 -4.80939 0.618542 0
M  V30 33759 N 3149.83 -0.0535194 -1.57509 0
M  V30 33760 C 3150.78 0.920063 -2.11668 0
M  V30 33761 C 3151.75 1.30731 -1.02462 0
M  V30 33762 O 3152.93 1.39637 -1.30023 0
M  V30 33763 C 3150.07 2.18879 -2.66807 0
M  V30 33764 C 3149.19 1.85581 -3.90107 0
M  V30 33765 C 3148.32 3.06929 -4.33553 0
M  V30 33766 C 3147.36 2.69564 -5.49547 0
M  V30 33767 N 3146.5 3.83613 -5.88036 0
M  V30 33768 H 3151.34 0.451319 -2.94563 0
M  V30 33769 H 3148.87 0.211143 -1.45577 0
M  V30 33770 H 3150.83 2.93122 -2.96876 0
M  V30 33771 H 3149.46 2.63326 -1.86706 0
M  V30 33772 H 3148.51 1.01477 -3.66615 0
M  V30 33773 H 3149.83 1.54078 -4.74406 0
M  V30 33774 H 3148.98 3.89469 -4.65187 0
M  V30 33775 H 3147.72 3.41612 -3.4807 0
M  V30 33776 H 3146.72 1.85441 -5.17583 0
M  V30 33777 H 3147.95 2.36071 -6.36748 0
M  V30 33778 H 3145.9 4.18092 -5.05505 0
M  V30 33779 H 3145.81 3.55816 -6.67031 0
M  V30 33780 H 3147.08 4.66785 -6.24285 0
M  V30 33781 N 3151.31 1.56059 0.219886 0
M  V30 33782 C 3152.26 1.93409 1.29212 0
M  V30 33783 C 3153.25 0.816333 1.48433 0
M  V30 33784 O 3154.46 1.00118 1.49588 0
M  V30 33785 H 3150.83 0.614657 0.433245 0
M  V30 33786 H 3152.8 2.82876 0.949927 0
M  V30 33787 C 3151.55 2.26858 2.63497 0
M  V30 33788 H 3150.88 3.12382 2.49515 0
M  V30 33789 H 3152.32 2.56875 3.37329 0
M  V30 33790 C 3150.77 1.09431 3.18632 0
M  V30 33791 O 3151.3 0.356314 4.00117 0
M  V30 33792 N 3149.51 0.87769 2.77029 0
M  V30 33793 H 3149.06 1.47954 2.10873 0
M  V30 33794 H 3149.02 0.0937345 3.1426 0
M  V30 33795 N 3152.79 -0.486655 1.49898 0
M  V30 33796 C 3154.2 -0.819085 1.36979 0
M  V30 33797 C 3154.4 -1.97204 0.413885 0
M  V30 33798 O 3153.46 -2.52059 -0.149205 0
M  V30 33799 C 3154.77 -1.14579 2.78015 0
M  V30 33800 C 3156.32 -1.25316 2.86819 0
M  V30 33801 C 3156.8 -1.61308 4.28653 0
M  V30 33802 N 3158.29 -1.6833 4.31531 0
M  V30 33803 C 3159.02 -1.97652 5.38257 0
M  V30 33804 N 3158.52 -2.25101 6.55211 0
M  V30 33805 N 3160.31 -1.99024 5.25686 0
M  V30 33806 H 3152.46 0.273401 2.10633 0
M  V30 33807 H 3154.72 0.0597585 0.946115 0
M  V30 33808 H 3154.43 -0.371831 3.49729 0
M  V30 33809 H 3154.3 -2.08579 3.14284 0
M  V30 33810 H 3156.69 -2.01782 2.15333 0
M  V30 33811 H 3156.77 -0.293323 2.54113 0
M  V30 33812 H 3156.42 -0.85388 5.00671 0
M  V30 33813 H 3156.35 -2.58416 4.58834 0
M  V30 33814 H 3158.84 -1.4922 3.47191 0
M  V30 33815 H 3159.15 -2.46705 7.32364 0
M  V30 33816 H 3157.5 -2.22527 6.58412 0
M  V30 33817 H 3160.69 -1.77066 4.33319 0
M  V30 33818 H 3160.86 -2.21541 6.08953 0
M  V30 33819 N 3154.27 -1.39214 -0.738737 0
M  V30 33820 C 3155.51 -1.36234 -1.49822 0
M  V30 33821 C 3155.84 0.0429211 -1.94453 0
M  V30 33822 O 3155.1 1.02301 -1.66832 0
M  V30 33823 C 3155.39 -2.27755 -2.75431 0
M  V30 33824 C 3155.06 -3.75456 -2.49688 0
M  V30 33825 C 3153.72 -4.15701 -2.42376 0
M  V30 33826 C 3156.07 -4.68889 -2.27579 0
M  V30 33827 C 3153.4 -5.47448 -2.10992 0
M  V30 33828 C 3155.75 -6.0091 -1.97713 0
M  V30 33829 C 3154.42 -6.40223 -1.88867 0
M  V30 33830 H 3153.69 -0.498514 -0.548238 0
M  V30 33831 H 3156.34 -1.7169 -0.848213 0
M  V30 33832 H 3154.64 -1.85404 -3.45156 0
M  V30 33833 H 3156.34 -2.22744 -3.33446 0
M  V30 33834 H 3152.93 -3.43557 -2.56255 0
M  V30 33835 H 3157.11 -4.38632 -2.32198 0
M  V30 33836 H 3152.37 -5.76834 -2.02663 0
M  V30 33837 H 3156.54 -6.72839 -1.79613 0
M  V30 33838 H 3154.17 -7.4223 -1.64314 0
M  V30 33839 N 3155.74 0.968523 -1.24328 0
M  V30 33840 C 3156.99 1.70801 -1.08035 0
M  V30 33841 C 3157.31 1.91228 0.381695 0
M  V30 33842 O 3156.58 1.48944 1.2725 0
M  V30 33843 H 3155.16 0.632905 -0.396788 0
M  V30 33844 H 3157.82 1.1652 -1.56234 0
M  V30 33845 H 3156.92 2.69284 -1.57773 0
M  V30 33846 N 3157.22 1.0569 1.16908 0
M  V30 33847 C 3158.5 0.683633 1.83264 0
M  V30 33848 C 3158.88 -0.835568 1.93859 0
M  V30 33849 O 3158.23 -1.74348 1.47699 0
M  V30 33850 C 3158.44 1.37847 3.20623 0
M  V30 33851 C 3159.78 1.51974 3.96471 0
M  V30 33852 O 3160.81 1.33789 3.3012 0
M  V30 33853 O 3159.67 1.81758 5.1539 0
M  V30 33854 H 3156.76 0.241267 0.791024 0
M  V30 33855 H 3159.31 1.15679 1.24163 0
M  V30 33856 H 3158.08 2.41469 3.0791 0
M  V30 33857 H 3157.7 0.894989 3.87396 0
M  V30 33858 N 3158.7 -1.33435 0.838617 0
M  V30 33859 C 3159.95 -1.97399 0.433346 0
M  V30 33860 C 3160.27 -1.6676 -1.01075 0
M  V30 33861 O 3159.54 -0.966403 -1.70404 0
M  V30 33862 H 3158.12 -0.730261 0.157253 0
M  V30 33863 H 3160.78 -1.62802 1.07152 0
M  V30 33864 H 3159.88 -3.0694 0.565198 0
M  V30 33865 N 3160.18 -0.595029 -1.45935 0
M  V30 33866 C 3161.41 -0.0911969 -2.06399 0
M  V30 33867 C 3161.82 1.22441 -1.44239 0
M  V30 33868 O 3161.16 1.75389 -0.546296 0
M  V30 33869 C 3161.22 0.136016 -3.59243 0
M  V30 33870 C 3160.88 -1.09587 -4.43666 0
M  V30 33871 C 3161.88 -2.01096 -4.79433 0
M  V30 33872 C 3159.57 -1.32117 -4.84614 0
M  V30 33873 C 3161.56 -3.13473 -5.54989 0
M  V30 33874 C 3159.25 -2.44798 -5.59926 0
M  V30 33875 C 3160.25 -3.35305 -5.95029 0
M  V30 33876 O 3159.93 -4.46026 -6.68817 0
M  V30 33877 H 3159.67 -0.0601897 -0.673315 0
M  V30 33878 H 3162.22 -0.819038 -1.88364 0
M  V30 33879 H 3160.45 0.91861 -3.75631 0
M  V30 33880 H 3162.14 0.589884 -4.01591 0
M  V30 33881 H 3162.9 -1.8491 -4.48367 0
M  V30 33882 H 3158.78 -0.625742 -4.56733 0
M  V30 33883 H 3162.33 -3.84141 -5.82307 0
M  V30 33884 H 3158.22 -2.60942 -5.90406 0
M  V30 33885 H 3158.99 -4.44549 -6.87254 0
M  V30 33886 N 3161.66 1.54031 -0.333483 0
M  V30 33887 C 3162.88 2.0516 0.267777 0
M  V30 33888 C 3163.3 1.20906 1.45007 0
M  V30 33889 O 3162.66 0.242026 1.80888 0
M  V30 33890 C 3162.71 3.54803 0.692618 0
M  V30 33891 O 3162.43 4.35858 -0.442655 0
M  V30 33892 C 3163.93 4.22063 1.35565 0
M  V30 33893 H 3161.15 0.668865 0.0534807 0
M  V30 33894 H 3163.69 1.98725 -0.48255 0
M  V30 33895 H 3161.85 3.61493 1.3929 0
M  V30 33896 H 3162.26 5.24393 -0.106007 0
M  V30 33897 H 3163.74 5.28189 1.60376 0
M  V30 33898 H 3164.21 3.73787 2.30607 0
M  V30 33899 H 3164.82 4.19539 0.697674 0
M  V30 33900 N 3163.13 0.0618717 1.57479 0
M  V30 33901 C 3164.38 -0.609021 1.92286 0
M  V30 33902 C 3164.7 -1.71367 0.943013 0
M  V30 33903 O 3165.9 -2.44345 1.18353 0
M  V30 33904 C 3164.36 -1.13462 3.41547 0
M  V30 33905 C 3163.97 -0.0615139 4.47958 0
M  V30 33906 C 3165.71 -1.78015 3.85371 0
M  V30 33907 C 3163.62 -0.600601 5.88342 0
M  V30 33908 H 3162.55 -0.231257 0.71766 0
M  V30 33909 H 3165.2 0.132498 1.83021 0
M  V30 33910 H 3163.58 -1.9288 3.45852 0
M  V30 33911 H 3164.75 0.712607 4.55257 0
M  V30 33912 H 3163.07 0.487189 4.1354 0
M  V30 33913 H 3165.67 -2.19362 4.87631 0
M  V30 33914 H 3166.01 -2.63617 3.22198 0
M  V30 33915 H 3166.54 -1.05236 3.83628 0
M  V30 33916 H 3163.28 0.218037 6.55137 0
M  V30 33917 H 3162.8 -1.34247 5.84583 0
M  V30 33918 H 3164.48 -1.08014 6.3792 0
M  V30 33919 N 3164.61 -1.56173 -0.211607 0
M  V30 33920 C 3165.86 -1.79913 -0.935903 0
M  V30 33921 C 3166.19 -0.633188 -1.83588 0
M  V30 33922 O 3165.47 0.367099 -1.91004 0
M  V30 33923 C 3165.75 -3.13804 -1.76633 0
M  V30 33924 C 3165.6 -4.40863 -0.892181 0
M  V30 33925 C 3166.92 -3.44228 -2.74218 0
M  V30 33926 H 3164.04 -0.654505 -0.33881 0
M  V30 33927 H 3166.68 -1.889 -0.204187 0
M  V30 33928 H 3164.83 -3.06274 -2.39016 0
M  V30 33929 H 3166.5 -4.60423 -0.284326 0
M  V30 33930 H 3164.75 -4.33348 -0.198069 0
M  V30 33931 H 3165.42 -5.31007 -1.50783 0
M  V30 33932 H 3167.89 -3.5195 -2.21969 0
M  V30 33933 H 3166.77 -4.39063 -3.29416 0
M  V30 33934 H 3167.03 -2.66891 -3.52451 0
M  V30 33935 N 3166.09 0.478699 -1.50154 0
M  V30 33936 C 3167.34 1.23315 -1.61001 0
M  V30 33937 C 3167.67 1.91776 -0.305902 0
M  V30 33938 O 3166.94 1.81769 0.692126 0
M  V30 33939 C 3167.23 2.28277 -2.78499 0
M  V30 33940 C 3167.08 1.64171 -4.1877 0
M  V30 33941 C 3168.4 3.29654 -2.91575 0
M  V30 33942 H 3165.52 0.446971 -0.585991 0
M  V30 33943 H 3168.16 0.528031 -1.82515 0
M  V30 33944 H 3166.31 2.88415 -2.60286 0
M  V30 33945 H 3167.98 1.07688 -4.48554 0
M  V30 33946 H 3166.23 0.945065 -4.2338 0
M  V30 33947 H 3166.9 2.40408 -4.96898 0
M  V30 33948 H 3169.37 2.79531 -3.08224 0
M  V30 33949 H 3168.25 4.00433 -3.75426 0
M  V30 33950 H 3168.51 3.93322 -2.01866 0
M  V30 33951 N 3167.57 1.39603 0.731343 0
M  V30 33952 C 3168.98 1.21288 1.03737 0
M  V30 33953 C 3169.18 0.0770229 2.01353 0
M  V30 33954 O 3168.24 -0.570149 2.45979 0
M  V30 33955 C 3169.55 2.5484 1.59616 0
M  V30 33956 C 3171.1 2.61716 1.71679 0
M  V30 33957 C 3171.58 3.95498 2.30966 0
M  V30 33958 N 3173.07 3.97157 2.38371 0
M  V30 33959 C 3173.8 4.97447 2.85191 0
M  V30 33960 N 3173.3 6.08135 3.3188 0
M  V30 33961 N 3175.09 4.84824 2.84433 0
M  V30 33962 H 3167.24 2.12234 0.0840083 0
M  V30 33963 H 3169.51 0.942723 0.0998872 0
M  V30 33964 H 3169.21 3.38527 0.953549 0
M  V30 33965 H 3169.09 2.74817 2.58371 0
M  V30 33966 H 3171.47 1.78411 2.35061 0
M  V30 33967 H 3171.55 2.45585 0.715671 0
M  V30 33968 H 3171.2 4.79237 1.6821 0
M  V30 33969 H 3171.13 4.08952 3.31762 0
M  V30 33970 H 3173.62 3.17221 2.05376 0
M  V30 33971 H 3173.93 6.80567 3.66126 0
M  V30 33972 H 3172.28 6.11723 3.29879 0
M  V30 33973 H 3175.47 3.97453 2.47283 0
M  V30 33974 H 3175.64 5.6313 3.20607 0
M  V30 33975 N 3169.05 -0.961916 1.2484 0
M  V30 33976 C 3170.3 -1.69997 1.08553 0
M  V30 33977 C 3170.61 -1.91979 -0.374611 0
M  V30 33978 O 3171.81 -2.63411 -0.657775 0
M  V30 33979 C 3170.27 -3.06014 1.8943 0
M  V30 33980 C 3169.88 -2.91854 3.3989 0
M  V30 33981 C 3171.62 -3.83652 1.81691 0
M  V30 33982 C 3169.53 -4.23215 4.13089 0
M  V30 33983 H 3168.46 -0.637509 0.402614 0
M  V30 33984 H 3171.11 -1.07143 1.48972 0
M  V30 33985 H 3169.49 -3.6973 1.41829 0
M  V30 33986 H 3170.67 -2.37114 3.95112 0
M  V30 33987 H 3168.98 -2.27677 3.48644 0
M  V30 33988 H 3171.58 -4.80935 2.33678 0
M  V30 33989 H 3171.92 -4.08864 0.783319 0
M  V30 33990 H 3172.45 -3.26672 2.27002 0
M  V30 33991 H 3169.19 -4.03194 5.16831 0
M  V30 33992 H 3168.71 -4.77749 3.62652 0
M  V30 33993 H 3170.39 -4.91801 4.20405 0
M  V30 33994 N 3170.52 -1.06308 -1.16346 0
M  V30 33995 C 3171.49 -0.678092 -2.1894 0
M  V30 33996 C 3172.49 0.276249 -1.58409 0
M  V30 33997 O 3173.68 0.0586129 -1.74101 0
M  V30 33998 C 3170.81 0.00222692 -3.409 0
M  V30 33999 H 3172 -1.58628 -2.54514 0
M  V30 34000 H 3169.56 -0.858321 -1.30624 0
M  V30 34001 H 3170.29 0.923157 -3.10883 0
M  V30 34002 H 3170.08 -0.684017 -3.86088 0
M  V30 34003 H 3171.57 0.257301 -4.16807 0
M  V30 34004 N 3172 1.32989 -0.845682 0
M  V30 34005 C 3173.25 1.97167 -0.443809 0
M  V30 34006 C 3173.57 1.67294 1.00189 0
M  V30 34007 O 3172.84 0.975427 1.69889 0
M  V30 34008 H 3171.42 0.729416 -0.161124 0
M  V30 34009 H 3174.08 1.62231 -1.08014 0
M  V30 34010 H 3173.18 3.06636 -0.581467 0
M  V30 34011 N 3173.48 0.60276 1.45618 0
M  V30 34012 C 3174.71 0.100465 2.07157 0
M  V30 34013 C 3175.13 -1.2039 1.44526 0
M  V30 34014 O 3174.49 -1.73189 0.536221 0
M  V30 34015 C 3174.54 -0.030797 3.60587 0
M  V30 34016 O 3173.64 -1.08227 3.97946 0
M  V30 34017 H 3172.98 0.0718759 0.660098 0
M  V30 34018 H 3175.51 0.831399 1.86946 0
M  V30 34019 H 3175.52 -0.230563 4.07348 0
M  V30 34020 H 3174.2 0.921652 4.05559 0
M  V30 34021 H 3172.77 -0.85935 3.62863 0
M  V30 34022 N 3174.96 -1.53852 0.341647 0
M  V30 34023 C 3175.91 -2.26449 -0.531372 0
M  V30 34024 C 3176.9 -1.28523 -1.10354 0
M  V30 34025 O 3178.11 -1.46238 -1.0495 0
M  V30 34026 H 3174.48 -0.727591 -0.190041 0
M  V30 34027 H 3176.45 -2.98222 0.102974 0
M  V30 34028 C 3175.2 -3.04888 -1.67149 0
M  V30 34029 H 3174.52 -3.80068 -1.24049 0
M  V30 34030 H 3175.96 -3.58901 -2.25756 0
M  V30 34031 C 3174.42 -2.14271 -2.5998 0
M  V30 34032 O 3174.95 -1.73753 -3.62178 0
M  V30 34033 N 3173.16 -1.79389 -2.28622 0
M  V30 34034 H 3172.71 -2.12536 -1.45555 0
M  V30 34035 H 3172.66 -1.1904 -2.90993 0
M  V30 34036 N 3176.44 -0.0702223 -1.57443 0
M  V30 34037 C 3177.85 0.462677 -1.80876 0
M  V30 34038 C 3178.2 1.6974 -0.984005 0
M  V30 34039 O 3177.32 2.15417 -0.206064 0
M  V30 34040 C 3177.92 0.846172 -3.28063 0
M  V30 34041 C 3176.48 1.32394 -3.52347 0
M  V30 34042 C 3175.62 0.308351 -2.7558 0
M  V30 34043 H 3178.58 -0.295934 -1.55916 0
M  V30 34044 H 3178.6 1.7077 -3.40026 0
M  V30 34045 H 3178.11 -0.0526715 -3.88064 0
M  V30 34046 H 3176.21 2.24134 -2.97649 0
M  V30 34047 H 3176.32 1.30295 -4.61042 0
M  V30 34048 H 3174.69 0.785295 -2.42292 0
M  V30 34049 H 3175.47 -0.582738 -3.38318 0
M  V30 34050 N 3177.91 1.56283 0.203321 0
M  V30 34051 C 3179.19 1.70959 0.950385 0
M  V30 34052 C 3179.57 0.622683 2.01707 0
M  V30 34053 O 3178.92 -0.367595 2.25524 0
M  V30 34054 C 3179.13 3.12974 1.54428 0
M  V30 34055 C 3180.48 3.72953 2.02957 0
M  V30 34056 O 3181.5 3.16051 1.64287 0
M  V30 34057 O 3180.36 4.72798 2.74089 0
M  V30 34058 H 3177.45 0.696978 0.445141 0
M  V30 34059 H 3180 1.68591 0.193666 0
M  V30 34060 H 3178.77 3.83549 0.774983 0
M  V30 34061 H 3178.4 3.19536 2.36606 0
M  V30 34062 N 3179.39 -0.470729 1.50406 0
M  V30 34063 C 3180.32 -1.57673 1.72225 0
M  V30 34064 C 3181.3 -1.60221 0.571238 0
M  V30 34065 O 3182.49 -1.76482 0.810412 0
M  V30 34066 C 3179.62 -2.95994 1.81672 0
M  V30 34067 C 3178.57 -3.08312 2.96863 0
M  V30 34068 C 3177.9 -4.48285 2.91453 0
M  V30 34069 C 3179.2 -2.85496 4.37366 0
M  V30 34070 H 3180.89 -1.39666 2.64828 0
M  V30 34071 H 3178.44 -0.670468 1.27439 0
M  V30 34072 H 3180.39 -3.73296 1.95521 0
M  V30 34073 H 3179.12 -3.15158 0.856912 0
M  V30 34074 H 3177.78 -2.33444 2.82665 0
M  V30 34075 H 3177.42 -4.64368 1.93318 0
M  V30 34076 H 3177.12 -4.57462 3.68784 0
M  V30 34077 H 3178.65 -5.27606 3.07351 0
M  V30 34078 H 3180.06 -3.52548 4.52088 0
M  V30 34079 H 3178.46 -3.06118 5.16151 0
M  V30 34080 H 3179.53 -1.81351 4.49711 0
M  V30 34081 N 3180.87 -1.39989 -0.72393 0
M  V30 34082 C 3181.82 -1.39592 -1.83801 0
M  V30 34083 C 3182.79 -0.254025 -1.64146 0
M  V30 34084 O 3183.97 -0.450825 -1.85397 0
M  V30 34085 C 3181.11 -1.25609 -3.21428 0
M  V30 34086 C 3180.23 -2.49436 -3.52712 0
M  V30 34087 C 3179.36 -2.27958 -4.79801 0
M  V30 34088 C 3178.4 -3.47403 -5.03962 0
M  V30 34089 N 3177.54 -3.25172 -6.2226 0
M  V30 34090 H 3182.38 -2.34821 -1.83475 0
M  V30 34091 H 3179.91 -1.16634 -0.896375 0
M  V30 34092 H 3181.87 -1.15511 -4.0089 0
M  V30 34093 H 3180.5 -0.340043 -3.21004 0
M  V30 34094 H 3179.55 -2.70094 -2.67868 0
M  V30 34095 H 3180.87 -3.38369 -3.6648 0
M  V30 34096 H 3180.02 -2.15165 -5.67264 0
M  V30 34097 H 3178.76 -1.36436 -4.68227 0
M  V30 34098 H 3177.76 -3.60681 -4.14957 0
M  V30 34099 H 3178.99 -4.3984 -5.17414 0
M  V30 34100 H 3176.94 -2.36325 -6.11953 0
M  V30 34101 H 3176.85 -4.07667 -6.36666 0
M  V30 34102 H 3178.12 -3.16096 -7.12533 0
M  V30 34103 N 3182.35 0.955282 -1.25348 0
M  V30 34104 C 3183.76 1.51451 -1.09176 0
M  V30 34105 C 3184.11 1.93358 0.332721 0
M  V30 34106 O 3183.24 1.78553 1.22261 0
M  V30 34107 C 3183.83 2.75231 -1.97569 0
M  V30 34108 C 3182.39 3.27468 -1.85585 0
M  V30 34109 C 3181.54 2.00309 -1.91759 0
M  V30 34110 H 3184.49 0.772247 -1.38644 0
M  V30 34111 H 3184.51 3.49026 -1.51529 0
M  V30 34112 H 3184.02 2.44699 -3.01238 0
M  V30 34113 H 3182.12 3.62823 -0.84797 0
M  V30 34114 H 3182.24 3.95528 -2.7036 0
M  V30 34115 H 3180.6 2.1558 -1.35637 0
M  V30 34116 H 3181.38 1.72127 -2.97031 0
M  V30 34117 N 3183.83 1.06924 1.1578 0
M  V30 34118 C 3185.07 0.790954 1.8674 0
M  V30 34119 C 3185.41 -0.681117 1.81864 0
M  V30 34120 O 3184.68 -1.49952 1.23873 0
M  V30 34121 C 3184.96 1.29428 3.36036 0
M  V30 34122 C 3184.82 2.83058 3.49568 0
M  V30 34123 C 3186.14 0.907314 4.30646 0
M  V30 34124 H 3183.26 0.288799 0.678059 0
M  V30 34125 H 3185.9 1.32627 1.36052 0
M  V30 34126 H 3184.05 0.83891 3.79334 0
M  V30 34127 H 3185.72 3.36852 3.15164 0
M  V30 34128 H 3183.96 3.21473 2.91269 0
M  V30 34129 H 3184.63 3.13343 4.54445 0
M  V30 34130 H 3187.11 1.29963 3.95283 0
M  V30 34131 H 3185.99 1.28688 5.33602 0
M  V30 34132 H 3186.25 -0.187173 4.41704 0
M  V30 34133 N 3185.31 -1.32538 0.852723 0
M  V30 34134 C 3186.24 -2.27797 0.253221 0
M  V30 34135 C 3187.25 -1.52347 -0.57395 0
M  V30 34136 O 3188.44 -1.73989 -0.398756 0
M  V30 34137 C 3185.54 -3.32392 -0.660975 0
M  V30 34138 C 3184.71 -4.37207 0.129916 0
M  V30 34139 C 3183.77 -5.21391 -0.709745 0
M  V30 34140 O 3182.8 -5.69018 -0.143956 0
M  V30 34141 N 3184 -5.44042 -2.0248 0
M  V30 34142 H 3186.76 -2.79881 1.07175 0
M  V30 34143 H 3184.33 -1.45378 0.712517 0
M  V30 34144 H 3186.32 -3.85619 -1.22799 0
M  V30 34145 H 3184.89 -2.80481 -1.3802 0
M  V30 34146 H 3184.11 -3.8429 0.878357 0
M  V30 34147 H 3185.4 -5.04326 0.67323 0
M  V30 34148 H 3184.79 -5.07074 -2.50783 0
M  V30 34149 H 3183.35 -6.00273 -2.53999 0
M  V30 34150 N 3186.78 -0.610474 -1.45296 0
M  V30 34151 C 3188.06 -0.0386533 -1.95562 0
M  V30 34152 C 3188.44 1.43001 -1.55286 0
M  V30 34153 O 3187.79 2.13402 -0.816822 0
M  V30 34154 C 3188 -0.239793 -3.48175 0
M  V30 34155 C 3189.35 -0.122109 -4.24424 0
M  V30 34156 O 3190.37 -0.170066 -3.55794 0
M  V30 34157 O 3189.23 -0.00963301 -5.46499 0
M  V30 34158 H 3186.32 0.0340936 -0.826297 0
M  V30 34159 H 3188.87 -0.680737 -1.55448 0
M  V30 34160 H 3187.64 -1.25969 -3.70469 0
M  V30 34161 H 3187.26 0.437416 -3.95187 0
M  V30 34162 N 3188.26 1.53669 -0.349801 0
M  V30 34163 C 3189.51 2.01015 0.244791 0
M  V30 34164 C 3189.84 1.23749 1.50055 0
M  V30 34165 O 3189.09 0.314906 1.9315 0
M  V30 34166 C 3189.39 3.52357 0.598249 0
M  V30 34167 C 3189.06 4.47392 -0.561349 0
M  V30 34168 C 3187.72 4.73093 -0.879564 0
M  V30 34169 C 3190.07 5.03707 -1.33899 0
M  V30 34170 C 3187.4 5.52363 -1.97768 0
M  V30 34171 C 3189.75 5.84175 -2.4274 0
M  V30 34172 C 3188.41 6.08168 -2.75114 0
M  V30 34173 H 3187.68 0.735566 0.0895755 0
M  V30 34174 H 3190.33 1.85412 -0.479007 0
M  V30 34175 H 3188.64 3.65824 1.40285 0
M  V30 34176 H 3190.33 3.86453 1.07029 0
M  V30 34177 H 3186.92 4.27526 -0.303277 0
M  V30 34178 H 3191.11 4.8381 -1.1064 0
M  V30 34179 H 3186.36 5.69176 -2.23267 0
M  V30 34180 H 3190.54 6.26823 -3.03423 0
M  V30 34181 H 3188.16 6.69378 -3.60329 0
M  V30 34182 N 3189.74 0.0785709 1.57404 0
M  V30 34183 C 3190.99 -0.58899 1.93745 0
M  V30 34184 C 3191.31 -1.69208 0.959117 0
M  V30 34185 O 3190.57 -1.95685 -0.024126 0
M  V30 34186 C 3190.87 -1.19904 3.36687 0
M  V30 34187 C 3190.53 -0.221414 4.50356 0
M  V30 34188 C 3189.2 0.0475193 4.81177 0
M  V30 34189 C 3191.55 0.447032 5.19279 0
M  V30 34190 C 3188.88 0.991872 5.78255 0
M  V30 34191 C 3191.23 1.37975 6.1737 0
M  V30 34192 C 3189.89 1.65708 6.46604 0
M  V30 34193 H 3189.16 -0.215527 0.708964 0
M  V30 34194 H 3191.81 0.15089 1.90905 0
M  V30 34195 H 3190.11 -2.0148 3.36025 0
M  V30 34196 H 3191.81 -1.72297 3.62098 0
M  V30 34197 H 3188.4 -0.441209 4.26323 0
M  V30 34198 H 3192.59 0.252385 4.95658 0
M  V30 34199 H 3187.84 1.21392 5.99228 0
M  V30 34200 H 3192.02 1.90362 6.69877 0
M  V30 34201 H 3189.64 2.39044 7.21639 0
M  V30 34202 N 3191.22 -1.56389 -0.19503 0
M  V30 34203 C 3192.47 -1.80271 -0.913604 0
M  V30 34204 C 3192.79 -0.651638 -1.8379 0
M  V30 34205 O 3192.06 0.330023 -1.931 0
M  V30 34206 H 3190.64 -0.66496 -0.340348 0
M  V30 34207 H 3193.3 -1.93866 -0.200525 0
M  V30 34208 H 3192.39 -2.73433 -1.50468 0
M  V30 34209 N 3192.7 0.462746 -1.50653 0
M  V30 34210 C 3193.63 1.56757 -1.73059 0
M  V30 34211 C 3194.61 1.59916 -0.579727 0
M  V30 34212 O 3195.79 1.7605 -0.81976 0
M  V30 34213 C 3192.92 2.95027 -1.83239 0
M  V30 34214 C 3191.88 3.06734 -2.98494 0
M  V30 34215 C 3191.2 4.46733 -2.93826 0
M  V30 34216 C 3192.5 2.83173 -4.38874 0
M  V30 34217 H 3194.2 1.3826 -2.65565 0
M  V30 34218 H 3191.74 0.6637 -1.27793 0
M  V30 34219 H 3193.69 3.72254 -1.97497 0
M  V30 34220 H 3192.42 3.14699 -0.873613 0
M  V30 34221 H 3191.08 2.31941 -2.83899 0
M  V30 34222 H 3190.73 4.63336 -1.95777 0
M  V30 34223 H 3190.43 4.555 -3.71205 0
M  V30 34224 H 3191.95 5.25968 -3.10144 0
M  V30 34225 H 3193.36 3.50145 -4.53951 0
M  V30 34226 H 3191.76 3.03377 -5.17767 0
M  V30 34227 H 3192.83 1.78964 -4.50666 0
M  V30 34228 N 3194.17 1.40371 0.716495 0
M  V30 34229 C 3195.14 1.40316 1.81229 0
M  V30 34230 C 3196.14 0.297115 1.58031 0
M  V30 34231 O 3197.33 0.555973 1.6509 0
M  V30 34232 C 3194.46 1.19401 3.19306 0
M  V30 34233 H 3195.65 2.37843 1.82676 0
M  V30 34234 H 3193.21 1.26207 0.92204 0
M  V30 34235 H 3193.94 0.226309 3.23509 0
M  V30 34236 H 3193.73 1.99517 3.37543 0
M  V30 34237 H 3195.22 1.22148 3.99336 0
M  V30 34238 N 3195.65 -0.948621 1.25853 0
M  V30 34239 C 3196.9 -1.69395 1.10957 0
M  V30 34240 C 3197.23 -1.91354 -0.34841 0
M  V30 34241 O 3196.48 -1.48653 -1.27282 0
M  V30 34242 C 3196.78 -3.07843 1.8157 0
M  V30 34243 C 3196.45 -3.05664 3.31482 0
M  V30 34244 C 3195.11 -3.04777 3.72376 0
M  V30 34245 C 3197.46 -2.98536 4.27231 0
M  V30 34246 C 3194.79 -2.94518 5.07421 0
M  V30 34247 C 3197.14 -2.89818 5.62306 0
M  V30 34248 C 3195.81 -2.8727 6.02522 0
M  V30 34249 H 3195.08 -0.619861 0.406022 0
M  V30 34250 H 3197.72 -1.10784 1.56202 0
M  V30 34251 H 3196.03 -3.70033 1.28774 0
M  V30 34252 H 3197.72 -3.64345 1.67492 0
M  V30 34253 H 3194.31 -3.0713 2.98947 0
M  V30 34254 H 3198.5 -2.98335 3.96623 0
M  V30 34255 H 3193.75 -2.90918 5.37751 0
M  V30 34256 H 3197.93 -2.83264 6.36187 0
M  V30 34257 H 3195.56 -2.79076 7.07121 0
M  V30 34258 N 3197.13 -1.07536 -1.15212 0
M  V30 34259 C 3198.54 -0.822074 -1.67627 0
M  V30 34260 C 3198.89 0.652538 -1.85031 0
M  V30 34261 O 3198.02 1.50495 -1.55499 0
M  V30 34262 C 3198.61 -1.48571 -3.04487 0
M  V30 34263 C 3197.17 -1.27989 -3.53971 0
M  V30 34264 C 3196.32 -1.55418 -2.29653 0
M  V30 34265 H 3199.27 -1.23715 -0.993994 0
M  V30 34266 H 3199.29 -0.907981 -3.69508 0
M  V30 34267 H 3198.8 -2.55894 -2.91788 0
M  V30 34268 H 3196.9 -0.226971 -3.71908 0
M  V30 34269 H 3197.02 -2.00138 -4.35295 0
M  V30 34270 H 3195.38 -0.975293 -2.35287 0
M  V30 34271 H 3196.16 -2.63927 -2.19539 0
M  V30 34272 N 3198.61 1.32084 -0.85974 0
M  V30 34273 C 3199.86 1.96685 -0.464696 0
M  V30 34274 C 3200.18 1.68347 0.984091 0
M  V30 34275 O 3199.45 0.993391 1.68845 0
M  V30 34276 H 3198.03 0.727666 -0.168851 0
M  V30 34277 H 3200.69 1.61077 -1.09728 0
M  V30 34278 H 3199.79 3.06002 -0.613958 0
M  V30 34279 N 3200.09 0.618171 1.4497 0
M  V30 34280 C 3201.31 0.122432 2.07038 0
M  V30 34281 C 3201.74 -1.1885 1.45795 0
M  V30 34282 O 3201.09 -1.7261 0.55456 0
M  V30 34283 C 3201.14 0.00744978 3.60599 0
M  V30 34284 O 3200.25 -1.04 3.99071 0
M  V30 34285 H 3199.59 0.0788731 0.659299 0
M  V30 34286 H 3202.12 0.85118 1.86054 0
M  V30 34287 H 3202.13 -0.187345 4.0757 0
M  V30 34288 H 3200.8 0.964616 4.04559 0
M  V30 34289 H 3199.38 -0.820815 3.63754 0
M  V30 34290 N 3201.56 -1.53481 0.357946 0
M  V30 34291 C 3202.81 -2.0144 -0.234474 0
M  V30 34292 C 3203.14 -1.245 -1.49042 0
M  V30 34293 O 3202.42 -0.336569 -1.91566 0
M  V30 34294 C 3202.7 -3.56117 -0.53413 0
M  V30 34295 C 3202.55 -4.43756 0.734912 0
M  V30 34296 C 3203.87 -4.19272 -1.33786 0
M  V30 34297 H 3200.99 -0.732226 -0.0837466 0
M  V30 34298 H 3203.63 -1.83802 0.481329 0
M  V30 34299 H 3201.78 -3.71277 -1.14393 0
M  V30 34300 H 3203.46 -4.40406 1.37258 0
M  V30 34301 H 3201.7 -4.12034 1.35686 0
M  V30 34302 H 3202.37 -5.49906 0.480307 0
M  V30 34303 H 3204.85 -4.07898 -0.822086 0
M  V30 34304 H 3203.72 -5.27542 -1.51627 0
M  V30 34305 H 3203.98 -3.74835 -2.34417 0
M  V30 34306 N 3203.04 -0.0869173 -1.5736 0
M  V30 34307 C 3203.97 0.872214 -2.16598 0
M  V30 34308 C 3204.95 1.29993 -1.09708 0
M  V30 34309 O 3206.14 1.36828 -1.3781 0
M  V30 34310 C 3203.27 2.13435 -2.73976 0
M  V30 34311 C 3202.22 1.84553 -3.86166 0
M  V30 34312 C 3201.55 3.17526 -4.30211 0
M  V30 34313 C 3202.85 1.1389 -5.09732 0
M  V30 34314 H 3204.54 0.378686 -2.96996 0
M  V30 34315 H 3202.09 0.180705 -1.42862 0
M  V30 34316 H 3204.04 2.80963 -3.14067 0
M  V30 34317 H 3202.77 2.65056 -1.90821 0
M  V30 34318 H 3201.42 1.19426 -3.46602 0
M  V30 34319 H 3201.07 3.67018 -3.43958 0
M  V30 34320 H 3200.77 2.98987 -5.05847 0
M  V30 34321 H 3202.3 3.86226 -4.72929 0
M  V30 34322 H 3203.71 1.71513 -5.47043 0
M  V30 34323 H 3202.11 1.05558 -5.90743 0
M  V30 34324 H 3203.18 0.120347 -4.84751 0
M  V30 34325 N 3204.52 1.5649 0.186734 0
M  V30 34326 C 3205.47 1.95207 1.23138 0
M  V30 34327 C 3206.44 0.813805 1.44798 0
M  V30 34328 O 3207.62 1.07266 1.57793 0
M  V30 34329 C 3204.76 2.30402 2.56922 0
M  V30 34330 C 3203.88 3.57332 2.42771 0
M  V30 34331 C 3203.01 3.81811 3.69316 0
M  V30 34332 C 3202.05 5.02139 3.50032 0
M  V30 34333 N 3201.19 5.22829 4.68609 0
M  V30 34334 H 3206.03 2.84267 0.894206 0
M  V30 34335 H 3203.56 1.4067 0.430162 0
M  V30 34336 H 3205.52 2.48826 3.34876 0
M  V30 34337 H 3204.15 1.44471 2.88666 0
M  V30 34338 H 3203.2 3.46909 1.56072 0
M  V30 34339 H 3204.52 4.45443 2.2446 0
M  V30 34340 H 3203.67 4.00519 4.55708 0
M  V30 34341 H 3202.41 2.92046 3.9059 0
M  V30 34342 H 3201.41 4.83345 2.62026 0
M  V30 34343 H 3202.64 5.9342 3.30196 0
M  V30 34344 H 3200.58 4.36013 4.90131 0
M  V30 34345 H 3200.5 6.05134 4.53155 0
M  V30 34346 H 3201.77 5.46003 5.56328 0
M  V30 34347 N 3206 -0.45475 1.50897 0
M  V30 34348 C 3206.91 -1.57617 1.73764 0
M  V30 34349 C 3207.92 -1.62532 0.621234 0
M  V30 34350 O 3209.1 -1.80098 0.901481 0
M  V30 34351 C 3206.17 -2.93727 1.84188 0
M  V30 34352 C 3205.23 -2.99069 3.07987 0
M  V30 34353 C 3204.46 -4.28687 3.17904 0
M  V30 34354 O 3204.68 -5.20105 2.34194 0
M  V30 34355 O 3203.62 -4.39957 4.10757 0
M  V30 34356 H 3207.44 -1.4124 2.68858 0
M  V30 34357 H 3205.03 -0.63596 1.35188 0
M  V30 34358 H 3206.91 -3.74538 1.9313 0
M  V30 34359 H 3205.58 -3.10268 0.922797 0
M  V30 34360 H 3204.49 -2.17277 3.04535 0
M  V30 34361 H 3205.82 -2.87469 3.99528 0
M  V30 34362 N 3207.48 -1.40749 -0.709041 0
M  V30 34363 C 3208.42 -1.41534 -1.8231 0
M  V30 34364 C 3209.39 -0.27142 -1.63867 0
M  V30 34365 O 3210.58 -0.470464 -1.84909 0
M  V30 34366 C 3207.72 -1.29012 -3.20078 0
M  V30 34367 C 3206.83 -2.53163 -3.50047 0
M  V30 34368 C 3205.97 -2.33034 -4.77356 0
M  V30 34369 C 3205.01 -3.52728 -5.00249 0
M  V30 34370 N 3204.14 -3.31754 -6.18776 0
M  V30 34371 H 3208.98 -2.36754 -1.80974 0
M  V30 34372 H 3206.52 -1.17578 -0.883954 0
M  V30 34373 H 3208.48 -1.19756 -3.99643 0
M  V30 34374 H 3207.11 -0.37407 -3.20625 0
M  V30 34375 H 3206.16 -2.7292 -2.64988 0
M  V30 34376 H 3207.47 -3.42237 -3.62871 0
M  V30 34377 H 3206.63 -2.21169 -5.6495 0
M  V30 34378 H 3205.36 -1.41394 -4.66754 0
M  V30 34379 H 3204.37 -3.65062 -4.11108 0
M  V30 34380 H 3205.59 -4.45304 -5.1272 0
M  V30 34381 H 3203.54 -2.42802 -6.09412 0
M  V30 34382 H 3203.46 -4.14397 -6.32306 0
M  V30 34383 H 3204.73 -3.23635 -7.09141 0
M  V30 34384 N 3208.96 0.941933 -1.26354 0
M  V30 34385 C 3209.91 2.02633 -1.04516 0
M  V30 34386 C 3210.89 1.60885 0.0222031 0
M  V30 34387 O 3212.08 1.75926 -0.19466 0
M  V30 34388 C 3209.21 3.36511 -0.679341 0
M  V30 34389 C 3208.3 3.84746 -1.78412 0
M  V30 34390 N 3208.69 4.0564 -3.02143 0
M  V30 34391 C 3206.99 4.13653 -1.66755 0
M  V30 34392 C 3207.69 4.45582 -3.7394 0
M  V30 34393 N 3206.66 4.52243 -3.01624 0
M  V30 34394 H 3210.46 2.16798 -1.98434 0
M  V30 34395 H 3207.98 1.12772 -1.1686 0
M  V30 34396 H 3209.98 4.13842 -0.504048 0
M  V30 34397 H 3208.64 3.23718 0.252361 0
M  V30 34398 H 3209.65 3.9235 -3.38056 0
M  V30 34399 H 3206.32 4.09652 -0.805699 0
M  V30 34400 H 3207.71 4.69945 -4.80209 0
M  V30 34401 N 3210.43 1.08146 1.1464 0
M  V30 34402 C 3211.85 0.808561 1.37603 0
M  V30 34403 C 3212.05 -0.583418 1.92869 0
M  V30 34404 O 3211.11 -1.3407 2.13966 0
M  V30 34405 C 3212.42 1.88904 2.33957 0
M  V30 34406 C 3213.97 1.91474 2.47602 0
M  V30 34407 C 3214.44 2.98629 3.47253 0
M  V30 34408 N 3215.93 2.97784 3.54795 0
M  V30 34409 C 3216.67 3.77339 4.31744 0
M  V30 34410 N 3216.16 4.66766 5.11958 0
M  V30 34411 N 3217.96 3.65652 4.26913 0
M  V30 34412 H 3210.11 1.97908 0.771119 0
M  V30 34413 H 3212.37 0.858695 0.401679 0
M  V30 34414 H 3212.08 2.88966 2.00479 0
M  V30 34415 H 3211.95 1.75606 3.3383 0
M  V30 34416 H 3214.34 0.920598 2.80373 0
M  V30 34417 H 3214.42 2.08851 1.47699 0
M  V30 34418 H 3214.06 3.98248 3.15216 0
M  V30 34419 H 3213.99 2.78498 4.4693 0
M  V30 34420 H 3216.48 2.32965 2.97549 0
M  V30 34421 H 3216.8 5.24082 5.67941 0
M  V30 34422 H 3215.14 4.7081 5.11236 0
M  V30 34423 H 3218.33 2.95159 3.63317 0
M  V30 34424 H 3218.51 4.27893 4.86633 0
M  V30 34425 N 3211.91 -1.31626 0.866732 0
M  V30 34426 C 3212.86 -2.30536 0.309168 0
M  V30 34427 C 3213.85 -1.59379 -0.574 0
M  V30 34428 O 3215.06 -1.74011 -0.460461 0
M  V30 34429 H 3211.43 -0.747593 0.0812921 0
M  V30 34430 H 3213.41 -2.7504 1.15739 0
M  V30 34431 C 3212.15 -3.44409 -0.477227 0
M  V30 34432 H 3211.48 -3.99333 0.19308 0
M  V30 34433 H 3212.92 -4.15742 -0.832745 0
M  V30 34434 C 3211.38 -2.92755 -1.66722 0
M  V30 34435 O 3211.91 -2.91253 -2.76649 0
M  V30 34436 N 3210.11 -2.48998 -1.49828 0
M  V30 34437 H 3209.66 -2.50418 -0.604029 0
M  V30 34438 H 3209.62 -2.14792 -2.2959 0
M  V30 34439 N 3213.39 -0.62585 -1.4464 0
M  V30 34440 C 3214.32 0.131441 -2.27821 0
M  V30 34441 C 3215.3 0.8563 -1.38225 0
M  V30 34442 O 3216.48 0.861464 -1.67663 0
M  V30 34443 C 3213.61 1.19198 -3.17032 0
M  V30 34444 C 3212.66 0.568241 -4.22698 0
M  V30 34445 S 3213.49 -0.637705 -5.31689 0
M  V30 34446 C 3214.65 0.422979 -6.24469 0
M  V30 34447 H 3214.88 -0.574228 -2.91702 0
M  V30 34448 H 3212.41 -0.41387 -1.4875 0
M  V30 34449 H 3214.37 1.79894 -3.68983 0
M  V30 34450 H 3213.03 1.86982 -2.52382 0
M  V30 34451 H 3212.22 1.36681 -4.85113 0
M  V30 34452 H 3211.83 0.0360186 -3.73983 0
M  V30 34453 H 3214.12 1.29702 -6.64969 0
M  V30 34454 H 3215.06 -0.165462 -7.07907 0
M  V30 34455 H 3215.47 0.746508 -5.59542 0
M  V30 34456 N 3214.87 1.53289 -0.36608 0
M  V30 34457 C 3215.8 2.28678 0.47207 0
M  V30 34458 C 3216.78 1.31127 1.0835 0
M  V30 34459 O 3217.96 1.59997 1.10066 0
M  V30 34460 C 3215.09 3.07639 1.61168 0
M  V30 34461 C 3214.05 4.12883 1.12747 0
M  V30 34462 C 3213.37 4.7993 2.35736 0
M  V30 34463 C 3214.67 5.2187 0.211862 0
M  V30 34464 H 3216.37 2.98989 -0.15689 0
M  V30 34465 H 3213.91 1.43795 -0.0768962 0
M  V30 34466 H 3215.87 3.59127 2.20467 0
M  V30 34467 H 3214.59 2.3502 2.26788 0
M  V30 34468 H 3213.25 3.62341 0.55717 0
M  V30 34469 H 3212.9 4.03882 2.99814 0
M  V30 34470 H 3212.6 5.51048 2.0401 0
M  V30 34471 H 3214.12 5.34212 2.9572 0
M  V30 34472 H 3215.54 5.68857 0.71234 0
M  V30 34473 H 3213.93 6.00098 -0.0145556 0
M  V30 34474 H 3215 4.7913 -0.745837 0
M  V30 34475 N 3216.35 0.0952613 1.57312 0
M  V30 34476 C 3217.28 -0.893641 2.11061 0
M  V30 34477 C 3218.29 -1.24592 1.04789 0
M  V30 34478 O 3219.48 -1.19901 1.32235 0
M  V30 34479 C 3216.58 -2.20268 2.57556 0
M  V30 34480 C 3215.75 -2.02571 3.87664 0
M  V30 34481 C 3214.81 -3.16989 4.20006 0
M  V30 34482 O 3213.84 -2.90945 4.89224 0
M  V30 34483 N 3215.04 -4.42763 3.75422 0
M  V30 34484 H 3217.8 -0.43458 2.96532 0
M  V30 34485 H 3215.37 -0.0898377 1.61651 0
M  V30 34486 H 3217.36 -2.95762 2.76237 0
M  V30 34487 H 3215.93 -2.57597 1.77095 0
M  V30 34488 H 3215.15 -1.11406 3.7813 0
M  V30 34489 H 3216.44 -1.88024 4.72784 0
M  V30 34490 H 3215.83 -4.66803 3.19548 0
M  V30 34491 H 3214.39 -5.15205 3.99258 0
M  V30 34492 N 3217.82 -1.56587 -0.178432 0
M  V30 34493 C 3219.05 -1.85448 -0.910641 0
M  V30 34494 C 3219.46 -0.677706 -1.76646 0
M  V30 34495 O 3218.8 0.362553 -1.80087 0
M  V30 34496 C 3218.87 -3.0863 -1.84357 0
M  V30 34497 C 3218.53 -4.4182 -1.16806 0
M  V30 34498 C 3219.53 -5.1712 -0.536939 0
M  V30 34499 C 3217.21 -4.88557 -1.16694 0
M  V30 34500 C 3219.21 -6.37342 0.0862898 0
M  V30 34501 C 3216.89 -6.0871 -0.539885 0
M  V30 34502 C 3217.89 -6.82946 0.0856336 0
M  V30 34503 O 3217.58 -8.00822 0.702821 0
M  V30 34504 H 3217.31 -0.619579 -0.270366 0
M  V30 34505 H 3219.87 -2.0456 -0.185555 0
M  V30 34506 H 3218.1 -2.85445 -2.60879 0
M  V30 34507 H 3219.78 -3.23998 -2.445 0
M  V30 34508 H 3220.55 -4.82097 -0.52983 0
M  V30 34509 H 3216.43 -4.3072 -1.64322 0
M  V30 34510 H 3219.97 -6.95225 0.575133 0
M  V30 34511 H 3215.87 -6.43199 -0.544553 0
M  V30 34512 H 3216.64 -8.16288 0.601368 0
M  V30 34513 N 3219.3 0.446741 -1.51136 0
M  V30 34514 C 3220.23 1.55964 -1.67952 0
M  V30 34515 C 3221.25 1.52852 -0.560364 0
M  V30 34516 O 3222.44 1.57799 -0.834377 0
M  V30 34517 C 3219.54 2.94877 -1.67035 0
M  V30 34518 C 3218.71 3.22596 -2.95382 0
M  V30 34519 C 3217.77 4.41185 -2.8678 0
M  V30 34520 O 3216.79 4.40298 -3.6073 0
M  V30 34521 N 3218 5.44225 -2.01989 0
M  V30 34522 H 3220.76 1.41946 -2.63953 0
M  V30 34523 H 3218.32 0.635543 -1.48904 0
M  V30 34524 H 3220.31 3.72217 -1.58861 0
M  V30 34525 H 3218.88 3.0254 -0.786676 0
M  V30 34526 H 3218.1 2.33642 -3.17498 0
M  V30 34527 H 3219.39 3.37938 -3.80362 0
M  V30 34528 H 3218.79 5.47778 -1.41266 0
M  V30 34529 H 3217.35 6.20454 -1.997 0
M  V30 34530 N 3220.78 1.41123 0.701567 0
M  V30 34531 C 3221.71 1.45265 1.82812 0
M  V30 34532 C 3222.69 0.311969 1.67215 0
M  V30 34533 O 3223.88 0.522571 1.87037 0
M  V30 34534 C 3221.01 1.32825 3.20897 0
M  V30 34535 C 3219.96 2.44642 3.5119 0
M  V30 34536 C 3219.29 2.17271 4.88567 0
M  V30 34537 C 3220.59 3.86985 3.5077 0
M  V30 34538 H 3222.28 2.39547 1.79604 0
M  V30 34539 H 3219.83 1.15299 0.862672 0
M  V30 34540 H 3221.78 1.34336 3.99414 0
M  V30 34541 H 3220.5 0.350248 3.24717 0
M  V30 34542 H 3219.16 2.42404 2.7502 0
M  V30 34543 H 3218.81 1.17828 4.89005 0
M  V30 34544 H 3218.51 2.92195 5.098 0
M  V30 34545 H 3220.03 2.20488 5.69401 0
M  V30 34546 H 3221.45 3.90971 4.19302 0
M  V30 34547 H 3219.84 4.61543 3.83534 0
M  V30 34548 H 3220.91 4.15566 2.49865 0
M  V30 34549 N 3222.26 -0.935219 1.26852 0
M  V30 34550 C 3223.67 -1.49695 1.11572 0
M  V30 34551 C 3224.02 -1.93863 -0.301918 0
M  V30 34552 O 3223.14 -1.80475 -1.19405 0
M  V30 34553 C 3223.74 -2.72053 2.01923 0
M  V30 34554 C 3222.3 -3.24474 1.90771 0
M  V30 34555 C 3221.45 -1.97233 1.94921 0
M  V30 34556 H 3224.4 -0.750092 1.39855 0
M  V30 34557 H 3224.42 -3.46571 1.57063 0
M  V30 34558 H 3223.93 -2.39875 3.05093 0
M  V30 34559 H 3222.03 -3.61428 0.905585 0
M  V30 34560 H 3222.14 -3.91177 2.76618 0
M  V30 34561 H 3220.51 -2.13395 1.39049 0
M  V30 34562 H 3221.29 -1.67379 2.99732 0
M  V30 34563 N 3223.74 -1.08752 -1.14065 0
M  V30 34564 C 3224.96 -0.841072 -1.8958 0
M  V30 34565 C 3225.39 0.601404 -1.78227 0
M  V30 34566 O 3224.74 1.42179 -1.12493 0
M  V30 34567 C 3224.79 -1.27219 -3.37413 0
M  V30 34568 O 3223.9 -0.426318 -4.10191 0
M  V30 34569 H 3223.24 -0.305183 -0.589711 0
M  V30 34570 H 3225.77 -1.44986 -1.44361 0
M  V30 34571 H 3225.78 -1.25458 -3.88232 0
M  V30 34572 H 3224.45 -2.32274 -3.44995 0
M  V30 34573 H 3223.03 -0.50765 -3.69428 0
M  V30 34574 N 3225.21 1.31165 -0.873701 0
M  V30 34575 C 3226.44 2.01276 -0.500277 0
M  V30 34576 C 3226.86 1.65129 0.900782 0
M  V30 34577 O 3226.22 0.86189 1.59503 0
M  V30 34578 C 3226.27 3.54339 -0.669039 0
M  V30 34579 O 3225.37 4.11379 0.290023 0
M  V30 34580 H 3224.72 0.63363 -0.198518 0
M  V30 34581 H 3227.25 1.67275 -1.17814 0
M  V30 34582 H 3227.26 4.04087 -0.563745 0
M  V30 34583 H 3225.93 3.79988 -1.69062 0
M  V30 34584 H 3224.51 3.72639 0.139372 0
M  V30 34585 N 3226.69 0.633512 1.44307 0
M  V30 34586 C 3227.62 -0.0567992 2.33431 0
M  V30 34587 C 3228.6 -0.83236 1.48343 0
M  V30 34588 O 3229.79 -0.797767 1.77057 0
M  V30 34589 C 3226.92 -1.03738 3.31445 0
M  V30 34590 C 3225.87 -0.373287 4.26369 0
M  V30 34591 C 3225.2 -1.46394 5.14269 0
M  V30 34592 C 3226.5 0.721967 5.17286 0
M  V30 34593 H 3228.19 0.687439 2.91401 0
M  V30 34594 H 3225.74 0.332033 1.4012 0
M  V30 34595 H 3227.69 -1.52906 3.9268 0
M  V30 34596 H 3226.42 -1.81253 2.71689 0
M  V30 34597 H 3225.07 0.0977697 3.6647 0
M  V30 34598 H 3224.72 -2.23003 4.50864 0
M  V30 34599 H 3224.42 -1.02495 5.78592 0
M  V30 34600 H 3225.95 -1.95738 5.78376 0
M  V30 34601 H 3227.36 0.313281 5.72443 0
M  V30 34602 H 3225.76 1.08423 5.90224 0
M  V30 34603 H 3226.83 1.58812 4.58156 0
M  V30 34604 N 3228.17 -1.53093 0.374204 0
M  V30 34605 C 3229.4 -2.06274 -0.215867 0
M  V30 34606 C 3229.82 -1.24528 -1.40977 0
M  V30 34607 O 3229.18 -0.266494 -1.79331 0
M  V30 34608 C 3229.23 -3.55921 -0.579026 0
M  V30 34609 O 3228.33 -3.76848 -1.67509 0
M  V30 34610 H 3227.67 -0.663349 -0.0293865 0
M  V30 34611 H 3230.2 -1.97419 0.537305 0
M  V30 34612 H 3230.21 -3.99098 -0.847608 0
M  V30 34613 H 3228.89 -4.1486 0.293916 0
M  V30 34614 H 3227.46 -3.45565 -1.4014 0
M  V30 34615 N 3229.65 -0.103603 -1.57259 0
M  V30 34616 C 3230.87 0.569603 -1.99425 0
M  V30 34617 C 3231.3 1.60401 -0.982503 0
M  V30 34618 O 3230.66 1.81237 0.0478912 0
M  V30 34619 C 3230.7 1.18627 -3.40529 0
M  V30 34620 O 3229.81 2.30202 -3.42171 0
M  V30 34621 H 3229.15 0.143747 -0.648254 0
M  V30 34622 H 3231.68 -0.187529 -2.03739 0
M  V30 34623 H 3231.69 1.52553 -3.78407 0
M  V30 34624 H 3230.36 0.428509 -4.13687 0
M  V30 34625 H 3228.94 1.97831 -3.16097 0
M  V30 34626 N 3231.13 1.56679 0.170126 0
M  V30 34627 C 3232.06 1.99532 1.21282 0
M  V30 34628 C 3233.04 0.871097 1.46102 0
M  V30 34629 O 3234.22 1.13726 1.57417 0
M  V30 34630 C 3231.35 2.35622 2.55146 0
M  V30 34631 C 3230.31 3.51016 2.44892 0
M  V30 34632 C 3229.63 3.72852 3.83257 0
M  V30 34633 C 3230.93 4.84427 1.95263 0
M  V30 34634 H 3232.63 2.86885 0.856596 0
M  V30 34635 H 3230.17 1.38022 0.41061 0
M  V30 34636 H 3232.13 2.64199 3.28294 0
M  V30 34637 H 3230.85 1.4518 2.92558 0
M  V30 34638 H 3229.51 3.22569 1.74198 0
M  V30 34639 H 3229.16 2.79698 4.18064 0
M  V30 34640 H 3228.86 4.50495 3.77264 0
M  V30 34641 H 3230.38 4.0383 4.57989 0
M  V30 34642 H 3231.79 5.11872 2.58186 0
M  V30 34643 H 3230.19 5.65715 2.00215 0
M  V30 34644 H 3231.26 4.76342 0.907007 0
M  V30 34645 N 3232.6 -0.43872 1.5137 0
M  V30 34646 C 3233.57 -1.51493 1.71996 0
M  V30 34647 C 3234.57 -1.49585 0.590005 0
M  V30 34648 O 3235.76 -1.51631 0.857532 0
M  V30 34649 C 3232.89 -2.91036 1.77513 0
M  V30 34650 H 3234.08 -1.34509 2.68043 0
M  V30 34651 H 3231.64 -0.667302 1.41339 0
M  V30 34652 H 3232.37 -3.13426 0.832754 0
M  V30 34653 H 3232.16 -2.93826 2.59632 0
M  V30 34654 H 3233.65 -3.6911 1.95314 0
M  V30 34655 N 3234.08 -1.41493 -0.694073 0
M  V30 34656 C 3235.5 -1.23996 -1.00485 0
M  V30 34657 C 3235.7 -0.130381 -2.01078 0
M  V30 34658 O 3234.75 0.504732 -2.47404 0
M  V30 34659 C 3236.07 -2.58982 -1.52803 0
M  V30 34660 C 3237.62 -2.66176 -1.64679 0
M  V30 34661 C 3238.09 -4.01483 -2.20399 0
M  V30 34662 N 3239.58 -4.03337 -2.27757 0
M  V30 34663 C 3240.32 -5.04834 -2.71902 0
M  V30 34664 N 3239.81 -6.1672 -3.1564 0
M  V30 34665 N 3241.61 -4.92195 -2.71479 0
M  V30 34666 H 3233.76 -2.12382 -0.0277087 0
M  V30 34667 H 3236.02 -0.94504 -0.0748575 0
M  V30 34668 H 3235.73 -3.40936 -0.863459 0
M  V30 34669 H 3235.6 -2.81571 -2.50993 0
M  V30 34670 H 3237.99 -1.8458 -2.30248 0
M  V30 34671 H 3238.07 -2.47396 -0.650307 0
M  V30 34672 H 3237.71 -4.83528 -1.55445 0
M  V30 34673 H 3237.64 -4.17604 -3.20802 0
M  V30 34674 H 3240.13 -3.22554 -1.96894 0
M  V30 34675 H 3240.45 -6.90035 -3.47954 0
M  V30 34676 H 3238.79 -6.20254 -3.13545 0
M  V30 34677 H 3241.98 -4.03869 -2.36659 0
M  V30 34678 H 3242.15 -5.71432 -3.05563 0
M  V30 34679 N 3235.56 0.928479 -1.27346 0
M  V30 34680 C 3236.81 1.67059 -1.13022 0
M  V30 34681 C 3237.12 1.92905 0.32358 0
M  V30 34682 O 3238.33 2.65063 0.587705 0
M  V30 34683 C 3236.78 3.00884 -1.97477 0
M  V30 34684 C 3236.39 2.82739 -3.47509 0
M  V30 34685 C 3238.14 3.787 -1.91798 0
M  V30 34686 C 3236.04 4.12114 -4.24165 0
M  V30 34687 H 3234.97 0.62661 -0.419375 0
M  V30 34688 H 3237.62 1.03155 -1.5176 0
M  V30 34689 H 3236.01 3.6584 -1.51582 0
M  V30 34690 H 3237.18 2.26555 -4.0126 0
M  V30 34691 H 3235.5 2.18353 -3.54557 0
M  V30 34692 H 3238.09 4.7457 -2.46347 0
M  V30 34693 H 3238.44 4.06643 -0.891446 0
M  V30 34694 H 3238.97 3.20539 -2.35584 0
M  V30 34695 H 3235.71 3.8935 -5.27339 0
M  V30 34696 H 3235.23 4.67965 -3.75191 0
M  V30 34697 H 3236.91 4.80482 -4.33297 0
M  V30 34698 N 3237.04 1.09355 1.13486 0
M  V30 34699 C 3238.29 0.829158 1.84746 0
M  V30 34700 C 3238.61 -0.645215 1.83486 0
M  V30 34701 O 3237.87 -1.49091 1.26769 0
M  V30 34702 C 3238.17 1.3086 3.32581 0
M  V30 34703 C 3237.83 2.79247 3.54023 0
M  V30 34704 C 3236.5 3.19771 3.59583 0
M  V30 34705 C 3238.85 3.74924 3.62052 0
M  V30 34706 C 3236.18 4.54747 3.70704 0
M  V30 34707 C 3238.53 5.09688 3.74701 0
M  V30 34708 C 3237.19 5.49804 3.78513 0
M  V30 34709 H 3236.46 0.303411 0.676035 0
M  V30 34710 H 3239.11 1.36821 1.33986 0
M  V30 34711 H 3237.41 0.689343 3.85688 0
M  V30 34712 H 3239.11 1.08065 3.86164 0
M  V30 34713 H 3235.7 2.46886 3.5035 0
M  V30 34714 H 3239.88 3.4473 3.57037 0
M  V30 34715 H 3235.14 4.85267 3.71923 0
M  V30 34716 H 3239.31 5.8368 3.79856 0
M  V30 34717 H 3236.94 6.54389 3.86883 0
M  V30 34718 N 3238.52 -1.307 0.880644 0
M  V30 34719 C 3239.74 -2.01008 0.510944 0
M  V30 34720 C 3240.17 -1.65604 -0.892012 0
M  V30 34721 O 3239.53 -0.870337 -1.59043 0
M  V30 34722 C 3239.57 -3.53979 0.687821 0
M  V30 34723 O 3238.68 -4.11527 -0.268203 0
M  V30 34724 H 3238.02 -0.632568 0.201876 0
M  V30 34725 H 3240.55 -1.66648 1.187 0
M  V30 34726 H 3240.56 -4.03782 0.585166 0
M  V30 34727 H 3239.23 -3.79086 1.71075 0
M  V30 34728 H 3237.81 -3.72708 -0.119608 0
M  V30 34729 N 3240 -0.641156 -1.43969 0
M  V30 34730 C 3241.24 -0.147061 -2.01163 0
M  V30 34731 C 3241.56 1.24208 -1.51101 0
M  V30 34732 O 3242.76 1.83074 -2.0049 0
M  V30 34733 C 3241.22 -0.212131 -3.59274 0
M  V30 34734 C 3240.83 -1.60322 -4.18331 0
M  V30 34735 C 3242.57 0.224983 -4.23903 0
M  V30 34736 C 3240.48 -1.62286 -5.68698 0
M  V30 34737 H 3239.41 -0.0512142 -0.752259 0
M  V30 34738 H 3242.06 -0.801425 -1.65074 0
M  V30 34739 H 3240.44 0.50952 -3.92708 0
M  V30 34740 H 3241.62 -2.34925 -3.96417 0
M  V30 34741 H 3239.93 -1.98527 -3.66027 0
M  V30 34742 H 3242.53 0.22998 -5.34205 0
M  V30 34743 H 3242.87 1.25419 -3.96958 0
M  V30 34744 H 3243.4 -0.444509 -3.95309 0
M  V30 34745 H 3240.14 -2.63076 -6.00393 0
M  V30 34746 H 3239.66 -0.919902 -5.92704 0
M  V30 34747 H 3241.34 -1.36124 -6.32518 0
M  V30 34748 N 3241.47 1.52892 -0.382318 0
M  V30 34749 C 3242.4 2.29166 0.447789 0
M  V30 34750 C 3243.38 1.32269 1.06953 0
M  V30 34751 O 3244.57 1.61156 1.08363 0
M  V30 34752 C 3241.7 3.09332 1.57896 0
M  V30 34753 C 3240.65 4.14055 1.08362 0
M  V30 34754 C 3239.98 4.82403 2.30633 0
M  V30 34755 C 3241.28 5.22065 0.156499 0
M  V30 34756 H 3242.97 2.98805 -0.188593 0
M  V30 34757 H 3240.52 1.43705 -0.0921432 0
M  V30 34758 H 3242.47 3.61445 2.16645 0
M  V30 34759 H 3241.2 2.37413 2.24283 0
M  V30 34760 H 3239.86 3.62912 0.518708 0
M  V30 34761 H 3239.5 4.07039 2.95513 0
M  V30 34762 H 3239.2 5.53181 1.98154 0
M  V30 34763 H 3240.73 5.37318 2.90037 0
M  V30 34764 H 3242.14 5.69581 0.651965 0
M  V30 34765 H 3240.54 6.00049 -0.0782033 0
M  V30 34766 H 3241.61 4.78312 -0.796613 0
M  V30 34767 N 3242.95 0.111941 1.57202 0
M  V30 34768 C 3244.18 -0.559019 1.99724 0
M  V30 34769 C 3244.6 -1.59878 0.990996 0
M  V30 34770 O 3243.96 -1.8126 -0.0382791 0
M  V30 34771 C 3244.01 -1.1682 3.41153 0
M  V30 34772 O 3243.11 -2.28384 3.43387 0
M  V30 34773 H 3242.45 -0.140308 0.649007 0
M  V30 34774 H 3244.98 0.198331 2.03636 0
M  V30 34775 H 3244.99 -1.50544 3.7921 0
M  V30 34776 H 3243.67 -0.406564 4.13908 0
M  V30 34777 H 3242.24 -1.96152 3.17142 0
M  V30 34778 N 3244.43 -1.56767 -0.161814 0
M  V30 34779 C 3245.36 -1.9372 -1.22496 0
M  V30 34780 C 3246.37 -0.831339 -1.39974 0
M  V30 34781 O 3247.56 -1.10978 -1.39808 0
M  V30 34782 C 3244.66 -2.1831 -2.59218 0
M  V30 34783 C 3243.84 -3.49564 -2.62914 0
M  V30 34784 C 3242.9 -3.62869 -3.81067 0
M  V30 34785 O 3241.92 -4.35401 -3.66626 0
M  V30 34786 N 3243.12 -2.98427 -4.97917 0
M  V30 34787 H 3245.89 -2.85519 -0.910993 0
M  V30 34788 H 3243.45 -1.58038 -0.351505 0
M  V30 34789 H 3245.44 -2.24466 -3.36745 0
M  V30 34790 H 3244.01 -1.32849 -2.82966 0
M  V30 34791 H 3243.23 -3.54981 -1.71412 0
M  V30 34792 H 3244.52 -4.35916 -2.62402 0
M  V30 34793 H 3243.92 -2.39387 -5.12553 0
M  V30 34794 H 3242.47 -3.10165 -5.73272 0
M  V30 34795 N 3245.91 0.430686 -1.51601 0
M  V30 34796 C 3247.13 1.20642 -1.68702 0
M  V30 34797 C 3247.56 1.84085 -0.386587 0
M  V30 34798 O 3246.92 1.69096 0.653923 0
M  V30 34799 C 3246.96 2.26125 -2.80891 0
M  V30 34800 O 3246.07 3.31767 -2.44957 0
M  V30 34801 H 3245.41 0.353157 -0.562295 0
M  V30 34802 H 3247.94 0.507772 -1.98199 0
M  V30 34803 H 3247.95 2.70803 -3.05172 0
M  V30 34804 H 3246.62 1.79327 -3.75253 0
M  V30 34805 H 3245.2 2.92519 -2.31273 0
M  V30 34806 N 3247.39 1.4186 0.686559 0
M  V30 34807 C 3248.33 1.44416 1.80035 0
M  V30 34808 C 3249.3 0.297456 1.63415 0
M  V30 34809 O 3250.49 0.499822 1.84137 0
M  V30 34810 C 3247.63 1.34087 3.17985 0
M  V30 34811 C 3246.74 2.587 3.45975 0
M  V30 34812 C 3245.88 2.40599 4.73588 0
M  V30 34813 C 3244.91 3.60642 4.94574 0
M  V30 34814 N 3244.05 3.41556 6.1342 0
M  V30 34815 H 3248.89 2.39603 1.77185 0
M  V30 34816 H 3246.43 1.1897 0.865137 0
M  V30 34817 H 3248.39 1.26099 3.97687 0
M  V30 34818 H 3247.02 0.425032 3.1999 0
M  V30 34819 H 3246.07 2.77102 2.60612 0
M  V30 34820 H 3247.38 3.47967 3.5738 0
M  V30 34821 H 3246.53 2.30129 5.6136 0
M  V30 34822 H 3245.27 1.48802 4.64445 0
M  V30 34823 H 3244.28 3.71557 4.05248 0
M  V30 34824 H 3245.5 4.53404 5.0557 0
M  V30 34825 H 3243.45 2.52467 6.05472 0
M  V30 34826 H 3243.37 4.24404 6.25633 0
M  V30 34827 H 3244.63 3.34876 7.03902 0
M  V30 34828 N 3248.86 -0.921712 1.27837 0
M  V30 34829 C 3249.81 -2.02312 1.11079 0
M  V30 34830 C 3250.78 -1.66097 0.0101487 0
M  V30 34831 O 3251.97 -1.90009 0.173598 0
M  V30 34832 C 3249.11 -3.36393 0.77031 0
M  V30 34833 C 3248.22 -3.85527 1.94919 0
M  V30 34834 C 3247.35 -5.08082 1.55005 0
M  V30 34835 C 3246.39 -5.49527 2.69605 0
M  V30 34836 N 3245.53 -6.63276 2.30239 0
M  V30 34837 H 3250.37 -2.15979 2.05322 0
M  V30 34838 H 3247.91 -1.05798 1.02202 0
M  V30 34839 H 3249.86 -4.13509 0.553697 0
M  V30 34840 H 3248.49 -3.22517 -0.135181 0
M  V30 34841 H 3247.55 -3.04637 2.27816 0
M  V30 34842 H 3248.86 -4.12209 2.80865 0
M  V30 34843 H 3248.01 -5.92717 1.29503 0
M  V30 34844 H 3246.75 -4.83189 0.661761 0
M  V30 34845 H 3245.76 -4.63437 2.95814 0
M  V30 34846 H 3246.98 -5.76411 3.59064 0
M  V30 34847 H 3244.93 -6.40029 1.43869 0
M  V30 34848 H 3244.84 -6.89643 3.09723 0
M  V30 34849 H 3246.11 -7.51237 2.08 0
M  V30 34850 N 3250.34 -1.09956 -1.12905 0
M  V30 34851 C 3251.76 -0.83035 -1.36299 0
M  V30 34852 C 3251.96 0.55266 -1.93773 0
M  V30 34853 O 3251.01 1.30649 -2.16072 0
M  V30 34854 C 3252.33 -1.92602 -2.30922 0
M  V30 34855 C 3253.87 -1.95389 -2.44524 0
M  V30 34856 C 3254.35 -3.04116 -3.42458 0
M  V30 34857 N 3255.84 -3.0339 -3.50012 0
M  V30 34858 C 3256.58 -3.8416 -4.25686 0
M  V30 34859 N 3256.07 -4.74852 -5.04468 0
M  V30 34860 N 3257.86 -3.72398 -4.21042 0
M  V30 34861 H 3250.02 -1.9911 -0.739536 0
M  V30 34862 H 3252.28 -0.864977 -0.387967 0
M  V30 34863 H 3251.98 -2.92119 -1.95856 0
M  V30 34864 H 3251.86 -1.80894 -3.30994 0
M  V30 34865 H 3254.25 -0.965086 -2.78873 0
M  V30 34866 H 3254.33 -2.11174 -1.44357 0
M  V30 34867 H 3253.97 -4.03213 -3.0884 0
M  V30 34868 H 3253.9 -2.85573 -4.42443 0
M  V30 34869 H 3256.39 -2.3767 -2.93805 0
M  V30 34870 H 3256.7 -5.33051 -5.59532 0
M  V30 34871 H 3255.05 -4.78884 -5.03681 0
M  V30 34872 H 3258.24 -3.00901 -3.58575 0
M  V30 34873 H 3258.41 -4.35581 -4.79764 0
M  V30 34874 N 3251.82 1.30231 -0.887563 0
M  V30 34875 C 3252.75 2.30509 -0.372521 0
M  V30 34876 C 3253.73 1.61099 0.546008 0
M  V30 34877 O 3254.92 1.8869 0.459312 0
M  V30 34878 C 3252.05 3.44853 0.411544 0
M  V30 34879 C 3251 4.25979 -0.415458 0
M  V30 34880 C 3250.33 5.324 0.495369 0
M  V30 34881 C 3251.63 4.95254 -1.65895 0
M  V30 34882 H 3253.32 2.73838 -1.2105 0
M  V30 34883 H 3250.87 1.31647 -0.583521 0
M  V30 34884 H 3252.82 4.14071 0.782511 0
M  V30 34885 H 3251.54 3.00336 1.28319 0
M  V30 34886 H 3250.2 3.58452 -0.768597 0
M  V30 34887 H 3249.85 4.8413 1.3648 0
M  V30 34888 H 3249.55 5.87575 -0.0541917 0
M  V30 34889 H 3251.07 6.04473 0.862795 0
M  V30 34890 H 3252.49 5.56974 -1.35842 0
M  V30 34891 H 3250.88 5.60305 -2.14891 0
M  V30 34892 H 3251.95 4.21233 -2.40189 0
M  V30 34893 N 3253.3 0.648782 1.43627 0
M  V30 34894 C 3254.25 -0.0677539 2.27899 0
M  V30 34895 C 3255.23 -0.799091 1.39654 0
M  V30 34896 O 3256.42 -0.682288 1.63321 0
M  V30 34897 C 3253.55 -1.03654 3.27278 0
M  V30 34898 C 3252.64 -0.303908 4.2301 0
M  V30 34899 N 3253.03 0.677144 5.01247 0
M  V30 34900 C 3251.33 -0.545963 4.42646 0
M  V30 34901 C 3252.03 1.11161 5.7098 0
M  V30 34902 N 3251.01 0.446764 5.41761 0
M  V30 34903 H 3254.81 0.685123 2.85803 0
M  V30 34904 H 3252.32 0.475702 1.55277 0
M  V30 34905 H 3254.32 -1.56463 3.86426 0
M  V30 34906 H 3252.98 -1.78953 2.70935 0
M  V30 34907 H 3253.99 1.05569 5.07026 0
M  V30 34908 H 3250.67 -1.28046 3.97379 0
M  V30 34909 H 3252.06 1.92311 6.4379 0
M  V30 34910 N 3254.78 -1.52688 0.390421 0
M  V30 34911 C 3256.03 -2.00778 -0.192661 0
M  V30 34912 C 3256.34 -1.2811 -1.47808 0
M  V30 34913 O 3257.54 -1.66918 -2.14128 0
M  V30 34914 C 3256 -3.57738 -0.393892 0
M  V30 34915 C 3255.61 -4.39305 0.878336 0
M  V30 34916 C 3257.35 -4.14114 -0.93328 0
M  V30 34917 C 3255.26 -5.87869 0.645322 0
M  V30 34918 H 3254.19 -0.750183 -0.075773 0
M  V30 34919 H 3256.84 -1.76184 0.512992 0
M  V30 34920 H 3255.22 -3.78586 -1.16142 0
M  V30 34921 H 3256.4 -4.30224 1.65057 0
M  V30 34922 H 3254.71 -3.94156 1.34276 0
M  V30 34923 H 3257.31 -5.22767 -1.12334 0
M  V30 34924 H 3257.65 -3.70276 -1.90266 0
M  V30 34925 H 3258.18 -3.97162 -0.225291 0
M  V30 34926 H 3254.92 -6.36031 1.58573 0
M  V30 34927 H 3254.44 -5.99736 -0.0879555 0
M  V30 34928 H 3256.12 -6.46393 0.280292 0
M  V30 34929 N 3256.25 -0.120276 -1.5714 0
M  V30 34930 C 3257.16 0.843116 -2.18926 0
M  V30 34931 C 3258.18 1.29173 -1.16577 0
M  V30 34932 O 3259.36 1.35445 -1.49052 0
M  V30 34933 C 3256.42 2.07495 -2.77753 0
M  V30 34934 C 3255.48 1.67813 -3.95142 0
M  V30 34935 C 3254.72 2.85124 -4.51154 0
M  V30 34936 O 3254.94 4.00586 -4.06063 0
M  V30 34937 O 3253.87 2.62135 -5.4182 0
M  V30 34938 H 3257.7 0.347304 -3.01708 0
M  V30 34939 H 3255.28 0.105401 -1.49028 0
M  V30 34940 H 3257.17 2.79637 -3.15248 0
M  V30 34941 H 3255.84 2.5608 -1.98002 0
M  V30 34942 H 3254.75 0.927743 -3.62414 0
M  V30 34943 H 3256.08 1.23969 -4.76332 0
M  V30 34944 N 3257.73 1.56851 0.153498 0
M  V30 34945 C 3259.01 1.73896 0.895514 0
M  V30 34946 C 3259.39 0.686539 1.99624 0
M  V30 34947 O 3258.74 -0.29566 2.26579 0
M  V30 34948 C 3258.95 3.17729 1.44393 0
M  V30 34949 C 3260.3 3.79221 1.90989 0
M  V30 34950 O 3261.32 3.21118 1.54149 0
M  V30 34951 O 3260.18 4.81278 2.58908 0
M  V30 34952 H 3257.27 0.710787 0.422742 0
M  V30 34953 H 3259.82 1.69122 0.139932 0
M  V30 34954 H 3258.59 3.8582 0.652568 0
M  V30 34955 H 3258.21 3.26902 2.2632 0
M  V30 34956 N 3259.21 -0.42264 1.51827 0
M  V30 34957 C 3260.44 -1.19115 1.68805 0
M  V30 34958 C 3260.85 -1.8511 0.391261 0
M  V30 34959 O 3260.19 -1.72137 -0.64145 0
M  V30 34960 C 3260.25 -2.30631 2.75771 0
M  V30 34961 C 3259.92 -1.84883 4.17932 0
M  V30 34962 C 3260.91 -1.34407 5.02226 0
M  V30 34963 C 3258.6 -1.92127 4.64104 0
M  V30 34964 C 3260.59 -0.917814 6.30757 0
M  V30 34965 C 3258.28 -1.49113 5.92629 0
M  V30 34966 C 3259.28 -0.990233 6.75784 0
M  V30 34967 O 3258.97 -0.566245 8.01903 0
M  V30 34968 H 3258.7 -0.364504 0.569309 0
M  V30 34969 H 3261.25 -0.505173 1.99091 0
M  V30 34970 H 3259.48 -3.02551 2.40832 0
M  V30 34971 H 3261.17 -2.92443 2.81481 0
M  V30 34972 H 3261.94 -1.28194 4.67751 0
M  V30 34973 H 3257.82 -2.30059 3.99492 0
M  V30 34974 H 3261.36 -0.526158 6.95613 0
M  V30 34975 H 3257.26 -1.55001 6.26614 0
M  V30 34976 H 3258.03 -0.690774 8.1558 0
M  V30 34977 N 3260.69 -1.42222 -0.679027 0
M  V30 34978 C 3261.91 -1.4606 -1.47245 0
M  V30 34979 C 3262.34 -0.0721318 -1.87962 0
M  V30 34980 O 3261.7 0.928461 -1.55722 0
M  V30 34981 C 3261.74 -2.38953 -2.70063 0
M  V30 34982 O 3260.85 -1.85798 -3.68175 0
M  V30 34983 H 3260.19 -0.495044 -0.442524 0
M  V30 34984 H 3262.72 -1.86865 -0.83323 0
M  V30 34985 H 3262.73 -2.5539 -3.18182 0
M  V30 34986 H 3261.4 -3.39831 -2.39767 0
M  V30 34987 H 3259.98 -1.78895 -3.27187 0
M  V30 34988 N 3262.17 0.91492 -1.28324 0
M  V30 34989 C 3263.41 1.6664 -1.15581 0
M  V30 34990 C 3263.75 1.91944 0.295175 0
M  V30 34991 O 3263.02 1.51898 1.2148 0
M  V30 34992 C 3263.3 3.02503 -1.95355 0
M  V30 34993 C 3263.16 2.84361 -3.48509 0
M  V30 34994 C 3264.48 4.03024 -1.76805 0
M  V30 34995 H 3261.59 0.60475 -0.421244 0
M  V30 34996 H 3264.24 1.06085 -1.57626 0
M  V30 34997 H 3262.39 3.54192 -1.59625 0
M  V30 34998 H 3264.06 2.39692 -3.94139 0
M  V30 34999 H 3262.3 2.19444 -3.74202 0
M  V30 35000 H 3262.97 3.80838 -3.99583 0
M  V30 35001 H 3265.45 3.60392 -2.07983 0
M  V30 35002 H 3264.32 4.96053 -2.34996 0
M  V30 35003 H 3264.59 4.3621 -0.719239 0
M  V30 35004 N 3263.64 1.10553 1.1232 0
M  V30 35005 C 3264.87 0.871126 1.88218 0
M  V30 35006 C 3265.29 -0.572974 1.79161 0
M  V30 35007 O 3264.65 -1.40372 1.14741 0
M  V30 35008 C 3264.7 1.32571 3.35347 0
M  V30 35009 O 3263.8 0.491522 4.0946 0
M  V30 35010 H 3263.15 0.314526 0.584781 0
M  V30 35011 H 3265.68 1.47265 1.42036 0
M  V30 35012 H 3265.69 1.31619 3.86187 0
M  V30 35013 H 3264.36 2.37734 3.41256 0
M  V30 35014 H 3262.94 0.566359 3.68574 0
M  V30 35015 N 3265.12 -1.29758 0.894457 0
M  V30 35016 C 3266.05 -2.26876 0.325565 0
M  V30 35017 C 3267.07 -1.54096 -0.525191 0
M  V30 35018 O 3268.26 -1.7517 -0.343201 0
M  V30 35019 C 3265.36 -3.34326 -0.554893 0
M  V30 35020 C 3264.53 -4.36572 0.268945 0
M  V30 35021 C 3263.59 -5.23386 -0.543509 0
M  V30 35022 O 3262.61 -5.69188 0.0371455 0
M  V30 35023 N 3263.82 -5.50209 -1.85069 0
M  V30 35024 H 3266.58 -2.7633 1.16025 0
M  V30 35025 H 3264.14 -1.43038 0.758407 0
M  V30 35026 H 3266.13 -3.89331 -1.10469 0
M  V30 35027 H 3264.7 -2.8473 -1.29026 0
M  V30 35028 H 3263.92 -3.81301 1.00017 0
M  V30 35029 H 3265.21 -5.01929 0.833337 0
M  V30 35030 H 3264.61 -5.14796 -2.34524 0
M  V30 35031 H 3263.17 -6.0805 -2.34773 0
M  V30 35032 N 3266.6 -0.65639 -1.4328 0
M  V30 35033 C 3267.83 -0.178915 -2.06125 0
M  V30 35034 C 3268.24 1.1567 -1.49218 0
M  V30 35035 O 3267.6 1.71474 -0.624723 0
M  V30 35036 C 3267.65 -0.085242 -3.61399 0
M  V30 35037 O 3267.37 -1.36806 -4.16192 0
M  V30 35038 C 3268.87 0.417932 -4.41326 0
M  V30 35039 H 3266.09 -0.091362 -0.664751 0
M  V30 35040 H 3268.64 -0.897933 -1.83732 0
M  V30 35041 H 3266.79 0.584353 -3.82967 0
M  V30 35042 H 3267.21 -1.22933 -5.0989 0
M  V30 35043 H 3268.68 0.432422 -5.50304 0
M  V30 35044 H 3269.16 1.44983 -4.1458 0
M  V30 35045 H 3269.76 -0.219282 -4.24734 0
M  V30 35046 N 3268.08 1.52478 -0.398513 0
M  V30 35047 C 3269.31 2.06111 0.180521 0
M  V30 35048 C 3269.72 1.26948 1.39749 0
M  V30 35049 O 3269.08 0.318529 1.79699 0
M  V30 35050 C 3269.13 3.57421 0.541511 0
M  V30 35051 O 3268.85 4.33588 -0.627119 0
M  V30 35052 C 3270.35 4.27433 1.17542 0
M  V30 35053 H 3267.57 0.670532 0.0250637 0
M  V30 35054 H 3270.12 1.965 -0.566402 0
M  V30 35055 H 3268.27 3.67075 1.23833 0
M  V30 35056 H 3268.69 5.23471 -0.328325 0
M  V30 35057 H 3270.16 5.34516 1.3783 0
M  V30 35058 H 3270.64 3.83232 2.14546 0
M  V30 35059 H 3271.24 4.2212 0.519105 0
M  V30 35060 N 3269.56 0.128608 1.57074 0
M  V30 35061 C 3270.49 -0.81448 2.18834 0
M  V30 35062 C 3271.47 -1.27038 1.13116 0
M  V30 35063 O 3272.65 -1.33126 1.4139 0
M  V30 35064 C 3269.78 -2.06096 2.79539 0
M  V30 35065 C 3268.74 -1.7425 3.90923 0
M  V30 35066 C 3268.06 -3.06008 4.38479 0
M  V30 35067 C 3269.36 -1.00336 5.12572 0
M  V30 35068 H 3271.06 -0.29981 2.97895 0
M  V30 35069 H 3268.6 -0.142764 1.43291 0
M  V30 35070 H 3270.56 -2.72537 3.21406 0
M  V30 35071 H 3269.28 -2.59904 1.97782 0
M  V30 35072 H 3267.94 -1.10194 3.49647 0
M  V30 35073 H 3267.59 -3.57769 3.53568 0
M  V30 35074 H 3267.29 -2.8547 5.13596 0
M  V30 35075 H 3268.81 -3.73551 4.83003 0
M  V30 35076 H 3270.23 -1.56949 5.51398 0
M  V30 35077 H 3268.62 -0.898588 5.93334 0
M  V30 35078 H 3269.69 0.00821874 4.84899 0
M  V30 35079 N 3271.04 -1.5693 -0.145178 0
M  V30 35080 C 3272.31 -1.74369 -0.886279 0
M  V30 35081 C 3272.69 -0.697116 -1.99257 0
M  V30 35082 O 3272.04 0.28364 -2.26733 0
M  V30 35083 C 3272.25 -3.1849 -1.42706 0
M  V30 35084 C 3273.6 -3.80228 -1.88975 0
M  V30 35085 O 3274.62 -3.21931 -1.52444 0
M  V30 35086 O 3273.48 -4.82645 -2.56352 0
M  V30 35087 H 3270.58 -0.713019 -0.418967 0
M  V30 35088 H 3273.12 -1.69194 -0.130961 0
M  V30 35089 H 3271.89 -3.86161 -0.632097 0
M  V30 35090 H 3271.52 -3.28098 -2.24583 0
M  V30 35091 N 3272.51 0.414582 -1.52049 0
M  V30 35092 C 3273.45 1.52366 -1.71222 0
M  V30 35093 C 3274.46 1.51629 -0.59266 0
M  V30 35094 O 3275.65 1.55993 -0.867661 0
M  V30 35095 C 3272.75 2.91268 -1.73253 0
M  V30 35096 C 3271.92 3.16258 -3.02159 0
M  V30 35097 C 3270.98 4.35002 -2.96073 0
M  V30 35098 O 3270.01 4.32547 -3.69988 0
M  V30 35099 N 3271.21 5.39818 -2.13487 0
M  V30 35100 H 3273.97 1.36316 -2.66905 0
M  V30 35101 H 3271.53 0.603815 -1.50219 0
M  V30 35102 H 3273.53 3.68763 -1.6672 0
M  V30 35103 H 3272.1 3.00803 -0.850672 0
M  V30 35104 H 3271.32 2.26855 -3.22383 0
M  V30 35105 H 3272.6 3.29794 -3.87445 0
M  V30 35106 H 3272 5.44658 -1.52854 0
M  V30 35107 H 3270.56 6.16078 -2.12816 0
M  V30 35108 N 3273.99 1.4258 0.671475 0
M  V30 35109 C 3275.24 1.43439 1.43364 0
M  V30 35110 C 3275.57 0.0517681 1.94131 0
M  V30 35111 O 3274.85 -0.924518 1.71123 0
M  V30 35112 C 3275.13 2.46158 2.62827 0
M  V30 35113 C 3274.98 3.93624 2.1767 0
M  V30 35114 C 3276.3 2.45826 3.65044 0
M  V30 35115 H 3273.42 0.522315 0.519958 0
M  V30 35116 H 3276.06 1.74015 0.762819 0
M  V30 35117 H 3274.21 2.20216 3.20058 0
M  V30 35118 H 3275.88 4.30559 1.65581 0
M  V30 35119 H 3274.13 4.07331 1.49212 0
M  V30 35120 H 3274.8 4.6108 3.03495 0
M  V30 35121 H 3277.27 2.68905 3.17537 0
M  V30 35122 H 3276.15 3.19671 4.46208 0
M  V30 35123 H 3276.41 1.48543 4.16398 0
M  V30 35124 N 3275.47 -0.908102 1.28807 0
M  V30 35125 C 3276.72 -1.65779 1.1629 0
M  V30 35126 C 3277.04 -1.92366 -0.287356 0
M  V30 35127 O 3276.3 -1.52627 -1.22488 0
M  V30 35128 C 3276.6 -3.0191 1.91272 0
M  V30 35129 C 3276.26 -2.94964 3.41039 0
M  V30 35130 C 3274.93 -2.92776 3.81884 0
M  V30 35131 C 3277.28 -2.84792 4.36512 0
M  V30 35132 C 3274.61 -2.78226 5.16534 0
M  V30 35133 C 3276.96 -2.71782 5.71242 0
M  V30 35134 C 3275.62 -2.67956 6.11356 0
M  V30 35135 H 3274.89 -0.60663 0.425537 0
M  V30 35136 H 3277.54 -1.05759 1.59647 0
M  V30 35137 H 3275.84 -3.65749 1.40481 0
M  V30 35138 H 3277.54 -3.58832 1.78999 0
M  V30 35139 H 3274.13 -2.97464 3.08566 0
M  V30 35140 H 3278.32 -2.85566 4.05914 0
M  V30 35141 H 3273.57 -2.73663 5.46735 0
M  V30 35142 H 3277.75 -2.62881 6.44877 0
M  V30 35143 H 3275.37 -2.56439 7.15642 0
M  V30 35144 N 3276.95 -1.11147 -1.11732 0
M  V30 35145 C 3278.19 -0.859717 -1.83676 0
M  V30 35146 C 3278.53 0.61315 -1.84266 0
M  V30 35147 O 3277.8 1.45251 -1.29353 0
M  V30 35148 C 3278.08 -1.41811 -3.31001 0
M  V30 35149 C 3277.94 -2.95837 -3.38822 0
M  V30 35150 C 3279.26 -1.06652 -4.26982 0
M  V30 35151 H 3276.38 -0.313766 -0.666873 0
M  V30 35152 H 3279.02 -1.37585 -1.31036 0
M  V30 35153 H 3277.17 -0.97912 -3.75959 0
M  V30 35154 H 3278.84 -3.48317 -3.02444 0
M  V30 35155 H 3277.08 -3.32061 -2.79137 0
M  V30 35156 H 3277.75 -3.29994 -4.42502 0
M  V30 35157 H 3280.23 -1.44544 -3.90188 0
M  V30 35158 H 3279.11 -1.48404 -5.28458 0
M  V30 35159 H 3279.37 0.0231089 -4.42094 0
M  V30 35160 N 3278.43 1.29282 -0.901326 0
M  V30 35161 C 3279.37 2.29635 -0.370182 0
M  V30 35162 C 3280.37 1.60845 0.531542 0
M  V30 35163 O 3281.57 1.7517 0.414163 0
M  V30 35164 H 3277.95 0.745175 -0.101085 0
M  V30 35165 H 3279.92 2.71875 -1.2299 0
M  V30 35166 C 3278.67 3.45554 0.385745 0
M  V30 35167 H 3277.99 3.98681 -0.298888 0
M  V30 35168 H 3279.43 4.17804 0.722225 0
M  V30 35169 C 3277.89 2.97072 1.58902 0
M  V30 35170 O 3278.42 2.98486 2.68829 0
M  V30 35171 N 3276.63 2.52883 1.43174 0
M  V30 35172 H 3276.17 2.51932 0.537423 0
M  V30 35173 H 3276.13 2.20804 2.23815 0
M  V30 35174 N 3279.9 0.663979 1.4293 0
M  V30 35175 C 3281.15 0.181773 2.01683 0
M  V30 35176 C 3281.48 -1.20799 1.52439 0
M  V30 35177 O 3280.73 -1.82266 0.712572 0
M  V30 35178 C 3281.03 0.153226 3.57071 0
M  V30 35179 C 3280.7 1.48619 4.25703 0
M  V30 35180 C 3279.36 1.85119 4.44167 0
M  V30 35181 C 3281.71 2.36456 4.64476 0
M  V30 35182 C 3279.04 3.09101 4.98672 0
M  V30 35183 C 3281.39 3.59739 5.20356 0
M  V30 35184 C 3280.06 3.96422 5.37035 0
M  V30 35185 H 3279.33 0.0665155 0.738009 0
M  V30 35186 H 3281.97 0.856822 1.71262 0
M  V30 35187 H 3280.28 -0.605304 3.87096 0
M  V30 35188 H 3281.98 -0.236911 4.003 0
M  V30 35189 H 3278.57 1.19222 4.11684 0
M  V30 35190 H 3282.75 2.09544 4.49894 0
M  V30 35191 H 3278.01 3.37556 5.0977 0
M  V30 35192 H 3282.18 4.28011 5.49345 0
M  V30 35193 H 3279.81 4.92569 5.79033 0
M  V30 35194 N 3281.38 -1.52265 0.406593 0
M  V30 35195 C 3282.34 -2.25536 -0.408212 0
M  V30 35196 C 3283.34 -1.2781 -0.975772 0
M  V30 35197 O 3284.53 -1.51771 -0.85505 0
M  V30 35198 C 3281.67 -3.02367 -1.57438 0
M  V30 35199 H 3282.86 -2.9899 0.233511 0
M  V30 35200 H 3280.41 -1.55489 0.159059 0
M  V30 35201 H 3281.15 -2.33256 -2.25304 0
M  V30 35202 H 3280.93 -3.74114 -1.17393 0
M  V30 35203 H 3282.42 -3.57952 -2.15082 0
M  V30 35204 N 3282.86 -0.136936 -1.57004 0
M  V30 35205 C 3283.81 0.806569 -2.16248 0
M  V30 35206 C 3284.78 1.25116 -1.09248 0
M  V30 35207 O 3285.96 1.32549 -1.37242 0
M  V30 35208 C 3283.1 2.04428 -2.78034 0
M  V30 35209 C 3282.22 1.64642 -3.99396 0
M  V30 35210 C 3281.35 2.83516 -4.49213 0
M  V30 35211 C 3280.39 2.40054 -5.63063 0
M  V30 35212 N 3279.53 3.51903 -6.07543 0
M  V30 35213 H 3284.37 0.294544 -2.96541 0
M  V30 35214 H 3281.9 0.133679 -1.46491 0
M  V30 35215 H 3283.86 2.76973 -3.11997 0
M  V30 35216 H 3282.49 2.53059 -2.00402 0
M  V30 35217 H 3281.54 0.819012 -3.71479 0
M  V30 35218 H 3282.86 1.28715 -4.81907 0
M  V30 35219 H 3282.01 3.64263 -4.85178 0
M  V30 35220 H 3280.75 3.22681 -3.65689 0
M  V30 35221 H 3279.75 1.57744 -5.26685 0
M  V30 35222 H 3280.98 2.01986 -6.48366 0
M  V30 35223 H 3278.92 3.90708 -5.26957 0
M  V30 35224 H 3278.84 3.19958 -6.84955 0
M  V30 35225 H 3280.11 4.33037 -6.48151 0
M  V30 35226 N 3284.34 1.57005 0.136853 0
M  V30 35227 C 3285.62 1.74836 0.87702 0
M  V30 35228 C 3286 0.707674 1.98885 0
M  V30 35229 O 3285.34 -0.271612 2.2688 0
M  V30 35230 C 3285.55 3.19242 1.41015 0
M  V30 35231 C 3286.9 3.81225 1.86956 0
M  V30 35232 O 3287.93 3.22734 1.50735 0
M  V30 35233 O 3286.78 4.83997 2.53789 0
M  V30 35234 H 3283.88 0.715231 0.41518 0
M  V30 35235 H 3286.42 1.69261 0.121986 0
M  V30 35236 H 3285.2 3.86491 0.61161 0
M  V30 35237 H 3284.82 3.29284 2.2284 0
M  V30 35238 N 3285.82 -0.406513 1.52267 0
M  V30 35239 C 3286.75 -1.51456 1.72028 0
M  V30 35240 C 3287.76 -1.51313 0.600693 0
M  V30 35241 O 3288.95 -1.55531 0.875922 0
M  V30 35242 C 3286.05 -2.90345 1.74795 0
M  V30 35243 C 3285.22 -3.14651 3.03832 0
M  V30 35244 C 3284.28 -4.33426 2.98376 0
M  V30 35245 O 3283.31 -4.30579 3.72277 0
M  V30 35246 N 3284.51 -5.38678 2.16347 0
M  V30 35247 H 3287.28 -1.34898 2.67624 0
M  V30 35248 H 3284.84 -0.59584 1.50537 0
M  V30 35249 H 3286.83 -3.67874 1.68673 0
M  V30 35250 H 3285.4 -3.00347 0.866613 0
M  V30 35251 H 3284.62 -2.25142 3.23581 0
M  V30 35252 H 3285.91 -3.27735 3.89188 0
M  V30 35253 H 3285.3 -5.4384 1.5574 0
M  V30 35254 H 3283.86 -6.14941 2.1608 0
M  V30 35255 N 3287.29 -1.42934 -0.663904 0
M  V30 35256 C 3288.52 -1.47614 -1.45688 0
M  V30 35257 C 3288.94 -0.0920636 -1.87875 0
M  V30 35258 O 3288.3 0.911892 -1.56698 0
M  V30 35259 C 3288.35 -2.41804 -2.67513 0
M  V30 35260 O 3287.45 -1.89692 -3.66184 0
M  V30 35261 H 3286.8 -0.49971 -0.437248 0
M  V30 35262 H 3289.33 -1.87738 -0.813364 0
M  V30 35263 H 3289.34 -2.5875 -3.15456 0
M  V30 35264 H 3288.01 -3.42354 -2.36149 0
M  V30 35265 H 3286.59 -1.82355 -3.25271 0
M  V30 35266 N 3288.77 0.901258 -1.29287 0
M  V30 35267 C 3290.05 1.6318 -1.0785 0
M  V30 35268 C 3290.43 2.0769 0.37789 0
M  V30 35269 O 3289.78 1.83145 1.36639 0
M  V30 35270 C 3289.99 2.81379 -2.06462 0
M  V30 35271 C 3291.34 3.52102 -2.37295 0
M  V30 35272 O 3292.36 2.91546 -2.04645 0
M  V30 35273 O 3291.22 4.61269 -2.93075 0
M  V30 35274 H 3288.31 0.716442 -0.413085 0
M  V30 35275 H 3290.86 0.949463 -1.40653 0
M  V30 35276 H 3289.63 2.45674 -3.04565 0
M  V30 35277 H 3289.25 3.5732 -1.7438 0
M  V30 35278 N 3290.25 1.11738 1.11141 0
M  V30 35279 C 3291.53 0.779816 1.79383 0
M  V30 35280 C 3291.91 -0.731633 1.98016 0
M  V30 35281 O 3291.26 -1.66273 1.56734 0
M  V30 35282 C 3291.47 1.54649 3.12865 0
M  V30 35283 C 3292.81 1.72777 3.87857 0
M  V30 35284 O 3293.84 1.51099 3.22564 0
M  V30 35285 O 3292.7 2.08822 5.0503 0
M  V30 35286 H 3289.79 0.282859 0.777123 0
M  V30 35287 H 3292.34 1.22098 1.17856 0
M  V30 35288 H 3291.11 2.57451 2.94677 0
M  V30 35289 H 3290.73 1.09908 3.82107 0
M  V30 35290 N 3291.73 -1.28802 0.90817 0
M  V30 35291 C 3293.01 -1.90172 0.457595 0
M  V30 35292 C 3293.39 -1.82366 -1.06329 0
M  V30 35293 O 3292.73 -1.25592 -1.9089 0
M  V30 35294 C 3292.94 -3.34909 0.981683 0
M  V30 35295 C 3294.29 -4.11907 1.03044 0
M  V30 35296 O 3295.32 -3.43847 0.929938 0
M  V30 35297 O 3294.17 -5.3355 1.18266 0
M  V30 35298 H 3291.27 -0.81435 0.144095 0
M  V30 35299 H 3293.81 -1.37209 0.998589 0
M  V30 35300 H 3292.59 -3.34787 2.02567 0
M  V30 35301 H 3292.21 -3.95363 0.421191 0
M  V30 35302 N 3293.21 -0.67155 -1.42576 0
M  V30 35303 C 3294.16 0.0314885 -2.27978 0
M  V30 35304 C 3295.14 0.776772 -1.40908 0
M  V30 35305 O 3296.33 0.656219 -1.64386 0
M  V30 35306 C 3293.46 0.984342 -3.28885 0
M  V30 35307 C 3292.55 0.236572 -4.2344 0
M  V30 35308 N 3292.94 -0.756802 -5.00106 0
M  V30 35309 C 3291.24 0.475473 -4.43458 0
M  V30 35310 C 3291.94 -1.20231 -5.69139 0
M  V30 35311 N 3290.91 -0.532897 -5.40982 0
M  V30 35312 H 3294.72 -0.730505 -2.84677 0
M  V30 35313 H 3292.23 -0.500344 -1.545 0
M  V30 35314 H 3294.23 1.50295 -3.88866 0
M  V30 35315 H 3292.89 1.7462 -2.73748 0
M  V30 35316 H 3293.9 -1.13622 -5.05283 0
M  V30 35317 H 3290.57 1.21708 -3.99366 0
M  V30 35318 H 3291.96 -2.02529 -6.40649 0
M  V30 35319 N 3294.68 1.52047 -0.414663 0
M  V30 35320 C 3295.61 2.30064 0.399079 0
M  V30 35321 C 3296.6 1.34507 1.04124 0
M  V30 35322 O 3297.78 1.63418 1.0492 0
M  V30 35323 C 3294.91 3.12611 1.513 0
M  V30 35324 C 3293.86 4.16261 0.995548 0
M  V30 35325 C 3293.19 4.87186 2.20348 0
M  V30 35326 C 3294.49 5.2228 0.045726 0
M  V30 35327 H 3296.18 2.98338 -0.251932 0
M  V30 35328 H 3293.73 1.43477 -0.122604 0
M  V30 35329 H 3295.68 3.65959 2.0893 0
M  V30 35330 H 3294.41 2.42117 2.19197 0
M  V30 35331 H 3293.07 3.6393 0.441612 0
M  V30 35332 H 3292.71 4.13216 2.86813 0
M  V30 35333 H 3292.41 5.57259 1.86375 0
M  V30 35334 H 3293.94 5.43349 2.78575 0
M  V30 35335 H 3295.35 5.70836 0.531001 0
M  V30 35336 H 3293.75 5.99748 -0.205465 0
M  V30 35337 H 3294.82 4.76514 -0.897891 0
M  V30 35338 N 3296.16 0.145261 1.56929 0
M  V30 35339 C 3297.11 -0.79509 2.16672 0
M  V30 35340 C 3298.08 -1.24535 1.0991 0
M  V30 35341 O 3299.26 -1.31819 1.37943 0
M  V30 35342 C 3296.4 -2.02951 2.79115 0
M  V30 35343 C 3295.52 -1.62521 4.00263 0
M  V30 35344 C 3294.65 -2.8113 4.5071 0
M  V30 35345 C 3293.69 -2.37065 5.64329 0
M  V30 35346 N 3292.83 -3.48676 6.09401 0
M  V30 35347 H 3297.67 -0.278813 2.96693 0
M  V30 35348 H 3295.21 -0.125908 1.4656 0
M  V30 35349 H 3297.16 -2.75314 3.13461 0
M  V30 35350 H 3295.79 -2.51992 2.01741 0
M  V30 35351 H 3294.85 -0.7993 3.71908 0
M  V30 35352 H 3296.16 -1.26157 4.82582 0
M  V30 35353 H 3295.31 -3.61685 4.87103 0
M  V30 35354 H 3294.05 -3.20737 3.67395 0
M  V30 35355 H 3293.06 -1.54949 5.27514 0
M  V30 35356 H 3294.28 -1.98545 6.49428 0
M  V30 35357 H 3292.23 -3.87908 5.29021 0
M  V30 35358 H 3292.14 -3.16321 6.86642 0
M  V30 35359 H 3293.41 -4.29593 6.50438 0
M  V30 35360 N 3297.64 -1.57075 -0.128525 0
M  V30 35361 C 3298.92 -1.75299 -0.867735 0
M  V30 35362 C 3299.3 -0.718211 -1.98507 0
M  V30 35363 O 3298.65 0.259576 -2.27021 0
M  V30 35364 C 3298.86 -3.19986 -1.3932 0
M  V30 35365 C 3300.2 -3.82211 -1.84932 0
M  V30 35366 O 3301.23 -3.23529 -1.49021 0
M  V30 35367 O 3300.09 -4.85336 -2.51219 0
M  V30 35368 H 3297.18 -0.717422 -0.411381 0
M  V30 35369 H 3299.73 -1.69323 -0.113008 0
M  V30 35370 H 3298.5 -3.8681 -0.591104 0
M  V30 35371 H 3298.12 -3.30461 -2.21091 0
M  V30 35372 N 3299.12 0.398432 -1.5248 0
M  V30 35373 C 3300.05 1.49276 -1.79552 0
M  V30 35374 C 3301.03 1.57313 -0.647032 0
M  V30 35375 O 3302.22 1.72415 -0.893691 0
M  V30 35376 C 3299.35 2.8699 -1.95587 0
M  V30 35377 C 3298.3 2.93797 -3.11235 0
M  V30 35378 C 3297.63 4.33869 -3.12509 0
M  V30 35379 C 3298.93 2.64304 -4.50489 0
M  V30 35380 H 3300.62 1.26872 -2.7119 0
M  V30 35381 H 3298.17 0.608901 -1.30493 0
M  V30 35382 H 3300.12 3.63542 -2.13108 0
M  V30 35383 H 3298.84 3.10711 -1.0063 0
M  V30 35384 H 3297.5 2.19691 -2.93481 0
M  V30 35385 H 3297.15 4.54615 -2.15253 0
M  V30 35386 H 3296.85 4.39346 -3.9019 0
M  V30 35387 H 3298.37 5.12341 -3.32173 0
M  V30 35388 H 3299.79 3.30576 -4.68393 0
M  V30 35389 H 3298.18 2.81144 -5.30168 0
M  V30 35390 H 3299.25 1.59688 -4.57851 0
M  V30 35391 N 3300.6 1.43284 0.656314 0
M  V30 35392 C 3301.82 1.48384 1.44903 0
M  V30 35393 C 3302.25 0.102026 1.87823 0
M  V30 35394 O 3301.61 -0.903569 1.57179 0
M  V30 35395 C 3301.65 2.43219 2.66227 0
M  V30 35396 O 3300.76 1.91632 3.65173 0
M  V30 35397 H 3300.1 0.502022 0.434592 0
M  V30 35398 H 3302.63 1.88167 0.803396 0
M  V30 35399 H 3302.64 2.6042 3.14079 0
M  V30 35400 H 3301.31 3.43602 2.3433 0
M  V30 35401 H 3299.89 1.84077 3.24299 0
M  V30 35402 N 3302.08 -0.894389 1.29763 0
M  V30 35403 C 3303.01 -2.01545 1.17906 0
M  V30 35404 C 3303.99 -1.69948 0.0719701 0
M  V30 35405 O 3305.17 -1.92553 0.252372 0
M  V30 35406 C 3302.3 -3.36476 0.860321 0
M  V30 35407 C 3301.26 -3.82301 1.92431 0
M  V30 35408 C 3300.58 -5.14416 1.45877 0
M  V30 35409 C 3301.88 -4.02048 3.33398 0
M  V30 35410 H 3303.58 -2.11724 2.11692 0
M  V30 35411 H 3301.12 -1.01729 1.01918 0
M  V30 35412 H 3303.07 -4.14415 0.76406 0
M  V30 35413 H 3301.8 -3.26404 -0.113232 0
M  V30 35414 H 3300.46 -3.06582 2.01005 0
M  V30 35415 H 3300.11 -5.00764 0.473742 0
M  V30 35416 H 3299.81 -5.46048 2.17038 0
M  V30 35417 H 3301.33 -5.94891 1.37611 0
M  V30 35418 H 3302.74 -4.70454 3.27636 0
M  V30 35419 H 3301.14 -4.45043 4.02563 0
M  V30 35420 H 3302.21 -3.06209 3.75984 0
M  V30 35421 N 3303.55 -1.12326 -1.10547 0
M  V30 35422 C 3304.5 -0.759017 -2.14995 0
M  V30 35423 C 3305.49 0.241433 -1.59078 0
M  V30 35424 O 3306.68 0.0471128 -1.76937 0
M  V30 35425 C 3303.81 -0.21401 -3.42632 0
M  V30 35426 C 3302.89 -1.24268 -4.05485 0
M  V30 35427 N 3303.29 -2.43992 -4.43059 0
M  V30 35428 C 3301.58 -1.08777 -4.32532 0
M  V30 35429 C 3302.28 -3.09671 -4.92422 0
M  V30 35430 N 3301.26 -2.37122 -4.89156 0
M  V30 35431 H 3305.06 -1.67009 -2.41837 0
M  V30 35432 H 3302.58 -1.00387 -1.27657 0
M  V30 35433 H 3304.57 0.0651195 -4.16849 0
M  V30 35434 H 3303.23 0.691535 -3.1725 0
M  V30 35435 H 3304.24 -2.81382 -4.34792 0
M  V30 35436 H 3300.92 -0.239428 -4.16813 0
M  V30 35437 H 3302.31 -4.11624 -5.31051 0
M  V30 35438 N 3305.03 1.28319 -0.914988 0
M  V30 35439 C 3305.98 2.27257 -0.402832 0
M  V30 35440 C 3306.95 1.57638 0.523385 0
M  V30 35441 O 3308.13 1.85531 0.445311 0
M  V30 35442 C 3305.27 3.43322 0.349896 0
M  V30 35443 C 3304.39 4.27686 -0.608967 0
M  V30 35444 C 3303.52 5.30952 0.162332 0
M  V30 35445 C 3302.56 6.0698 -0.790066 0
M  V30 35446 N 3301.7 7.02081 -0.052206 0
M  V30 35447 H 3306.54 2.70443 -1.25157 0
M  V30 35448 H 3304.07 1.32999 -0.628467 0
M  V30 35449 H 3306.03 4.09409 0.802517 0
M  V30 35450 H 3304.66 3.01123 1.16297 0
M  V30 35451 H 3303.71 3.61632 -1.18012 0
M  V30 35452 H 3305.03 4.80537 -1.33736 0
M  V30 35453 H 3304.18 6.02928 0.675457 0
M  V30 35454 H 3302.92 4.78871 0.923767 0
M  V30 35455 H 3301.92 5.33853 -1.31456 0
M  V30 35456 H 3303.15 6.61149 -1.55108 0
M  V30 35457 H 3301.1 6.52348 0.691216 0
M  V30 35458 H 3301.01 7.5256 -0.7204 0
M  V30 35459 H 3302.28 7.78253 0.440683 0
M  V30 35460 N 3306.51 0.679102 1.42218 0
M  V30 35461 C 3307.46 -0.00815939 2.32599 0
M  V30 35462 C 3308.45 -0.78602 1.5006 0
M  V30 35463 O 3309.66 -0.693498 1.66104 0
M  V30 35464 H 3306.03 -0.021435 0.751694 0
M  V30 35465 H 3308 0.77143 2.88256 0
M  V30 35466 C 3306.75 -0.942522 3.34682 0
M  V30 35467 H 3306.08 -0.353393 3.98235 0
M  V30 35468 H 3307.52 -1.39201 4.00499 0
M  V30 35469 C 3305.97 -2.05094 2.67279 0
M  V30 35470 O 3306.5 -3.13789 2.50798 0
M  V30 35471 N 3304.71 -1.8239 2.26235 0
M  V30 35472 H 3304.26 -0.93994 2.39839 0
M  V30 35473 H 3304.22 -2.56741 1.8147 0
M  V30 35474 N 3307.99 -1.51825 0.42272 0
M  V30 35475 C 3308.92 -2.25099 -0.43163 0
M  V30 35476 C 3309.93 -1.28566 -0.998735 0
M  V30 35477 O 3311.12 -1.5442 -0.895363 0
M  V30 35478 C 3308.22 -2.97987 -1.61421 0
M  V30 35479 C 3307.39 -4.21501 -1.16859 0
M  V30 35480 C 3306.45 -4.77095 -2.21962 0
M  V30 35481 O 3305.48 -5.39321 -1.81994 0
M  V30 35482 N 3306.68 -4.59851 -3.54285 0
M  V30 35483 H 3309.45 -2.99056 0.196308 0
M  V30 35484 H 3307.01 -1.59945 0.250819 0
M  V30 35485 H 3309 -3.3207 -2.31326 0
M  V30 35486 H 3307.57 -2.27132 -2.14779 0
M  V30 35487 H 3306.79 -3.93078 -0.297148 0
M  V30 35488 H 3308.08 -5.01683 -0.848018 0
M  V30 35489 H 3307.48 -4.10253 -3.89498 0
M  V30 35490 H 3306.03 -4.98334 -4.20126 0
M  V30 35491 N 3309.47 -0.153581 -1.5685 0
M  V30 35492 C 3310.69 0.502642 -2.00702 0
M  V30 35493 C 3311.11 1.57986 -1.03372 0
M  V30 35494 O 3310.47 1.82472 -0.0317553 0
M  V30 35495 C 3310.52 1.09726 -3.44445 0
M  V30 35496 O 3310.24 0.0630635 -4.38055 0
M  V30 35497 C 3311.74 1.83345 -4.03608 0
M  V30 35498 H 3308.96 0.130278 -0.658232 0
M  V30 35499 H 3311.5 -0.250099 -2.02965 0
M  V30 35500 H 3309.66 1.80059 -3.43012 0
M  V30 35501 H 3310.07 0.49959 -5.22115 0
M  V30 35502 H 3311.55 2.20232 -5.06164 0
M  V30 35503 H 3312.02 2.72184 -3.44692 0
M  V30 35504 H 3312.63 1.17696 -4.0869 0
M  V30 35505 N 3310.94 1.57141 0.120193 0
M  V30 35506 C 3312.19 1.85064 0.829417 0
M  V30 35507 C 3312.52 0.739147 1.79584 0
M  V30 35508 O 3311.8 -0.255113 1.9282 0
M  V30 35509 C 3312.08 3.23568 1.58037 0
M  V30 35510 C 3311.93 4.45315 0.633628 0
M  V30 35511 C 3313.25 3.5963 2.53682 0
M  V30 35512 H 3310.37 0.673145 0.300075 0
M  V30 35513 H 3313.01 1.89769 0.0937059 0
M  V30 35514 H 3311.16 3.19688 2.20753 0
M  V30 35515 H 3312.84 4.61297 0.0154025 0
M  V30 35516 H 3311.08 4.33765 -0.0549222 0
M  V30 35517 H 3311.75 5.38895 1.19568 0
M  V30 35518 H 3314.23 3.64293 2.01071 0
M  V30 35519 H 3313.1 4.57522 3.03257 0
M  V30 35520 H 3313.36 2.86986 3.36291 0
M  V30 35521 N 3312.42 -0.39034 1.5269 0
M  V30 35522 C 3313.67 -1.13719 1.67916 0
M  V30 35523 C 3314 -1.89666 0.417192 0
M  V30 35524 O 3313.28 -1.85495 -0.584972 0
M  V30 35525 C 3313.56 -2.11651 2.91335 0
M  V30 35526 C 3313.41 -1.39476 4.27629 0
M  V30 35527 C 3314.73 -3.12094 3.10299 0
M  V30 35528 H 3311.85 -0.412046 0.611054 0
M  V30 35529 H 3314.49 -0.420721 1.85283 0
M  V30 35530 H 3312.64 -2.72749 2.76659 0
M  V30 35531 H 3314.31 -0.813528 4.5407 0
M  V30 35532 H 3312.56 -0.696615 4.2817 0
M  V30 35533 H 3313.23 -2.11029 5.10069 0
M  V30 35534 H 3315.7 -2.61085 3.23997 0
M  V30 35535 H 3314.58 -3.77863 3.98134 0
M  V30 35536 H 3314.84 -3.80884 2.24454 0
M  V30 35537 N 3313.9 -1.4363 -0.648706 0
M  V30 35538 C 3315.18 -1.35963 -1.40618 0
M  V30 35539 C 3315.56 -0.00964733 -2.11098 0
M  V30 35540 O 3314.91 1.00711 -2.05109 0
M  V30 35541 C 3315.12 -2.54591 -2.38715 0
M  V30 35542 C 3316.46 -2.97878 -3.02579 0
M  V30 35543 O 3317.49 -2.5467 -2.49042 0
M  V30 35544 O 3316.35 -3.72743 -3.99656 0
M  V30 35545 H 3313.44 -0.537541 -0.628473 0
M  V30 35546 H 3315.99 -1.55688 -0.675236 0
M  V30 35547 H 3314.76 -3.44475 -1.85613 0
M  V30 35548 H 3314.38 -2.36989 -3.19252 0
M  V30 35549 N 3315.38 0.887495 -1.30236 0
M  V30 35550 C 3316.62 1.64151 -1.19089 0
M  V30 35551 C 3316.96 1.92527 0.254394 0
M  V30 35552 O 3316.23 1.5444 1.1823 0
M  V30 35553 C 3316.52 2.98292 -2.01728 0
M  V30 35554 C 3316.37 2.76905 -3.54463 0
M  V30 35555 C 3317.69 3.99183 -1.85314 0
M  V30 35556 H 3314.81 0.595678 -0.433977 0
M  V30 35557 H 3317.45 1.02717 -1.59841 0
M  V30 35558 H 3315.6 3.50727 -1.67102 0
M  V30 35559 H 3317.27 2.31277 -3.99135 0
M  V30 35560 H 3315.51 2.11457 -3.78772 0
M  V30 35561 H 3316.18 3.72276 -4.07571 0
M  V30 35562 H 3318.66 3.55899 -2.15581 0
M  V30 35563 H 3317.54 4.90956 -2.45465 0
M  V30 35564 H 3317.8 4.34586 -0.811604 0
M  V30 35565 N 3316.86 1.12911 1.0995 0
M  V30 35566 C 3317.82 0.804586 2.14614 0
M  V30 35567 C 3318.82 -0.183422 1.5975 0
M  V30 35568 O 3320.01 0.0429929 1.74147 0
M  V30 35569 C 3317.14 0.196531 3.40333 0
M  V30 35570 H 3318.33 1.73197 2.44832 0
M  V30 35571 H 3315.89 0.933019 1.25397 0
M  V30 35572 H 3316.62 -0.740333 3.15737 0
M  V30 35573 H 3316.41 0.907953 3.81443 0
M  V30 35574 H 3317.9 -0.013853 4.17598 0
M  V30 35575 N 3318.33 -1.27832 0.92178 0
M  V30 35576 C 3319.58 -1.94917 0.559941 0
M  V30 35577 C 3319.91 -1.72321 -0.895502 0
M  V30 35578 O 3319.19 -1.04882 -1.63798 0
M  V30 35579 C 3319.47 -3.49194 0.879519 0
M  V30 35580 C 3319.32 -3.81158 2.38828 0
M  V30 35581 C 3320.64 -4.38445 0.38126 0
M  V30 35582 H 3317.76 -0.707943 0.204906 0
M  V30 35583 H 3320.4 -1.51056 1.15248 0
M  V30 35584 H 3318.55 -3.86684 0.375245 0
M  V30 35585 H 3320.23 -3.53493 2.96379 0
M  V30 35586 H 3318.47 -3.27918 2.83994 0
M  V30 35587 H 3319.14 -4.88921 2.56242 0
M  V30 35588 H 3321.62 -4.08073 0.81336 0
M  V30 35589 H 3320.49 -5.45228 0.633874 0
M  V30 35590 H 3320.75 -4.36221 -0.718575 0
M  V30 35591 N 3319.81 -0.686634 -1.41856 0
M  V30 35592 C 3320.74 -0.0298763 -2.33481 0
M  V30 35593 C 3321.72 0.776729 -1.51331 0
M  V30 35594 O 3322.91 0.731503 -1.79896 0
M  V30 35595 C 3320.04 0.913648 -3.35067 0
M  V30 35596 C 3318.99 0.214786 -4.27461 0
M  V30 35597 C 3318.32 1.27206 -5.19348 0
M  V30 35598 C 3319.62 -0.913457 -5.1425 0
M  V30 35599 H 3321.31 -0.795117 -2.88649 0
M  V30 35600 H 3318.86 -0.383809 -1.38791 0
M  V30 35601 H 3320.81 1.38227 -3.98085 0
M  V30 35602 H 3319.54 1.71045 -2.78229 0
M  V30 35603 H 3318.19 -0.233715 -3.65854 0
M  V30 35604 H 3317.84 2.06116 -4.5883 0
M  V30 35605 H 3317.54 0.809508 -5.81997 0
M  V30 35606 H 3319.07 1.74137 -5.85242 0
M  V30 35607 H 3320.48 -0.525524 -5.70886 0
M  V30 35608 H 3318.88 -1.30254 -5.85793 0
M  V30 35609 H 3319.95 -1.75707 -4.51946 0
M  V30 35610 N 3321.29 1.51599 -0.430766 0
M  V30 35611 C 3322.52 2.06448 0.136761 0
M  V30 35612 C 3322.93 1.29883 1.37025 0
M  V30 35613 O 3322.29 0.356574 1.78983 0
M  V30 35614 C 3322.34 3.58489 0.465574 0
M  V30 35615 O 3322.06 4.32161 -0.718948 0
M  V30 35616 C 3323.56 4.2983 1.08449 0
M  V30 35617 H 3320.78 0.670913 0.0108351 0
M  V30 35618 H 3323.33 1.95254 -0.607955 0
M  V30 35619 H 3321.48 3.69619 1.16019 0
M  V30 35620 H 3321.9 5.22657 -0.439287 0
M  V30 35621 H 3323.37 5.37319 1.26461 0
M  V30 35622 H 3323.85 3.87696 2.06369 0
M  V30 35623 H 3324.45 4.23126 0.429451 0
M  V30 35624 N 3322.77 0.161897 1.56766 0
M  V30 35625 C 3323.99 -0.495195 2.01402 0
M  V30 35626 C 3324.42 -1.56644 1.04136 0
M  V30 35627 O 3323.78 -1.8129 0.0194066 0
M  V30 35628 C 3323.82 -1.05907 3.44697 0
M  V30 35629 O 3322.93 -2.17344 3.50479 0
M  V30 35630 H 3322.27 -0.119589 0.653142 0
M  V30 35631 H 3324.8 0.263016 2.02902 0
M  V30 35632 H 3324.81 -1.38403 3.83808 0
M  V30 35633 H 3323.48 -0.274677 4.14992 0
M  V30 35634 H 3322.06 -1.85963 3.23221 0
M  V30 35635 N 3324.25 -1.57203 -0.111858 0
M  V30 35636 C 3325.49 -1.85226 -0.818378 0
M  V30 35637 C 3325.82 -0.748022 -1.79541 0
M  V30 35638 O 3325.08 0.259979 -1.93965 0
M  V30 35639 C 3325.38 -3.19766 -1.59638 0
M  V30 35640 C 3325.04 -4.44397 -0.763002 0
M  V30 35641 C 3323.7 -4.78237 -0.533206 0
M  V30 35642 C 3326.06 -5.2088 -0.182569 0
M  V30 35643 C 3323.38 -5.85997 0.287159 0
M  V30 35644 C 3325.74 -6.29505 0.625027 0
M  V30 35645 C 3324.4 -6.61871 0.865072 0
M  V30 35646 H 3323.67 -0.677791 -0.299466 0
M  V30 35647 H 3326.32 -1.91331 -0.0804746 0
M  V30 35648 H 3324.62 -3.0927 -2.4054 0
M  V30 35649 H 3326.32 -3.38672 -2.14714 0
M  V30 35650 H 3322.91 -4.17889 -0.952204 0
M  V30 35651 H 3327.09 -4.95083 -0.347303 0
M  V30 35652 H 3322.35 -6.09495 0.482286 0
M  V30 35653 H 3326.52 -6.87947 1.08174 0
M  V30 35654 H 3324.15 -7.45203 1.50257 0
M  V30 35655 N 3325.72 0.382237 -1.52894 0
M  V30 35656 C 3326.65 1.47363 -1.81125 0
M  V30 35657 C 3327.64 1.56618 -0.66368 0
M  V30 35658 O 3328.82 1.71457 -0.911928 0
M  V30 35659 C 3325.95 2.84899 -1.9862 0
M  V30 35660 C 3324.9 2.9048 -3.14333 0
M  V30 35661 C 3324.23 4.3053 -3.17093 0
M  V30 35662 C 3325.53 2.59511 -4.53267 0
M  V30 35663 H 3327.22 1.23988 -2.7252 0
M  V30 35664 H 3324.77 0.595026 -1.31131 0
M  V30 35665 H 3326.72 3.61261 -2.16952 0
M  V30 35666 H 3325.45 3.09626 -1.0392 0
M  V30 35667 H 3324.11 2.16566 -2.95795 0
M  V30 35668 H 3323.75 4.52307 -2.20063 0
M  V30 35669 H 3323.45 4.35183 -3.94828 0
M  V30 35670 H 3324.98 5.08789 -3.37589 0
M  V30 35671 H 3326.39 3.2559 -4.71873 0
M  V30 35672 H 3324.79 2.75505 -5.3312 0
M  V30 35673 H 3325.86 1.54823 -4.59519 0
M  V30 35674 N 3327.2 1.43972 0.64108 0
M  V30 35675 C 3328.14 1.46049 1.76642 0
M  V30 35676 C 3329.15 0.355077 1.58881 0
M  V30 35677 O 3330.34 0.620237 1.67378 0
M  V30 35678 C 3327.44 1.26923 3.14235 0
M  V30 35679 C 3326.61 2.50527 3.58546 0
M  V30 35680 C 3325.67 2.26447 4.74982 0
M  V30 35681 O 3324.7 2.99875 4.83801 0
M  V30 35682 N 3325.9 1.28876 5.66014 0
M  V30 35683 H 3328.66 2.43059 1.75335 0
M  V30 35684 H 3326.22 1.39284 0.825325 0
M  V30 35685 H 3328.22 1.08677 3.89835 0
M  V30 35686 H 3326.79 0.383136 3.10243 0
M  V30 35687 H 3326.01 2.84117 2.7326 0
M  V30 35688 H 3327.29 3.3276 3.849 0
M  V30 35689 H 3326.69 0.682117 5.61572 0
M  V30 35690 H 3325.25 1.1661 6.41284 0
M  V30 35691 N 3328.68 -0.880575 1.30704 0
M  V30 35692 C 3329.96 -1.61443 1.10433 0
M  V30 35693 C 3330.34 -2.08265 -0.344801 0
M  V30 35694 O 3329.69 -1.85296 -1.33708 0
M  V30 35695 C 3329.9 -2.78059 2.10913 0
M  V30 35696 C 3331.24 -3.48283 2.42867 0
M  V30 35697 O 3332.27 -2.88253 2.09257 0
M  V30 35698 O 3331.13 -4.56548 3.00377 0
M  V30 35699 H 3328.22 -0.70978 0.424431 0
M  V30 35700 H 3330.77 -0.926966 1.42146 0
M  V30 35701 H 3329.54 -2.40798 3.08435 0
M  V30 35702 H 3329.16 -3.545 1.80043 0
M  V30 35703 N 3330.16 -1.13492 -1.09349 0
M  V30 35704 C 3331.07 -0.826405 -2.19563 0
M  V30 35705 C 3332.09 0.189309 -1.72967 0
M  V30 35706 O 3333.26 0.0201679 -2.0139 0
M  V30 35707 C 3330.33 -0.297746 -3.45419 0
M  V30 35708 C 3329.39 -1.3748 -4.06691 0
M  V30 35709 C 3328.62 -0.871276 -5.2654 0
M  V30 35710 O 3328.84 0.290858 -5.69658 0
M  V30 35711 O 3327.78 -1.64594 -5.78958 0
M  V30 35712 H 3331.6 -1.74722 -2.48406 0
M  V30 35713 H 3329.19 -0.912435 -1.183 0
M  V30 35714 H 3331.07 -0.00836886 -4.21399 0
M  V30 35715 H 3329.75 0.59548 -3.18176 0
M  V30 35716 H 3328.65 -1.71751 -3.32344 0
M  V30 35717 H 3329.99 -2.2422 -4.38162 0
M  V30 35718 N 3331.64 1.27341 -0.928546 0
M  V30 35719 C 3332.58 2.26817 -0.426913 0
M  V30 35720 C 3333.55 1.58185 0.506635 0
M  V30 35721 O 3334.74 1.85993 0.425608 0
M  V30 35722 C 3331.88 3.43673 0.313462 0
M  V30 35723 C 3330.99 4.27016 -0.654295 0
M  V30 35724 C 3330.13 5.31094 0.106008 0
M  V30 35725 C 3329.17 6.06108 -0.8544 0
M  V30 35726 N 3328.3 7.01986 -0.126668 0
M  V30 35727 H 3333.14 2.69101 -1.28019 0
M  V30 35728 H 3330.68 1.32325 -0.642538 0
M  V30 35729 H 3332.64 4.10237 0.759048 0
M  V30 35730 H 3331.27 3.02339 1.13097 0
M  V30 35731 H 3330.32 3.6036 -1.21841 0
M  V30 35732 H 3331.63 4.79092 -1.38825 0
M  V30 35733 H 3330.79 6.03611 0.61147 0
M  V30 35734 H 3329.53 4.79824 0.872924 0
M  V30 35735 H 3328.53 5.32429 -1.3711 0
M  V30 35736 H 3329.76 6.59467 -1.62111 0
M  V30 35737 H 3327.7 6.53045 0.621987 0
M  V30 35738 H 3327.62 7.51753 -0.800178 0
M  V30 35739 H 3328.89 7.78677 0.358114 0
M  V30 35740 N 3333.12 0.694147 1.4149 0
M  V30 35741 C 3334.36 0.224845 2.0155 0
M  V30 35742 C 3334.69 -1.17202 1.54846 0
M  V30 35743 O 3333.97 -1.79079 0.759022 0
M  V30 35744 C 3334.25 0.280947 3.59002 0
M  V30 35745 C 3334.11 1.71466 4.15836 0
M  V30 35746 C 3335.42 -0.360045 4.38625 0
M  V30 35747 H 3332.54 0.0831761 0.732291 0
M  V30 35748 H 3335.19 0.882598 1.68256 0
M  V30 35749 H 3333.34 -0.279096 3.87496 0
M  V30 35750 H 3335.01 2.32844 3.98223 0
M  V30 35751 H 3333.25 2.24926 3.70932 0
M  V30 35752 H 3333.92 1.70546 5.24994 0
M  V30 35753 H 3336.4 0.116903 4.15936 0
M  V30 35754 H 3335.27 -0.29024 5.48132 0
M  V30 35755 H 3335.53 -1.44054 4.17972 0
M  V30 35756 N 3334.59 -1.51368 0.438799 0
M  V30 35757 C 3335.54 -2.27784 -0.37191 0
M  V30 35758 C 3336.51 -1.31437 -1.01556 0
M  V30 35759 O 3337.7 -1.60341 -1.03418 0
M  V30 35760 C 3334.84 -3.12399 -1.46631 0
M  V30 35761 C 3333.95 -4.23742 -0.840653 0
M  V30 35762 C 3333.08 -4.95665 -1.91022 0
M  V30 35763 C 3332.12 -5.98926 -1.26308 0
M  V30 35764 N 3331.26 -6.64252 -2.27408 0
M  V30 35765 H 3336.1 -2.96623 0.2861 0
M  V30 35766 H 3333.64 -1.46303 0.152935 0
M  V30 35767 H 3335.59 -3.59785 -2.11213 0
M  V30 35768 H 3334.22 -2.45671 -2.09393 0
M  V30 35769 H 3333.28 -3.80309 -0.083092 0
M  V30 35770 H 3334.59 -4.97719 -0.328198 0
M  V30 35771 H 3333.74 -5.46606 -2.63262 0
M  V30 35772 H 3332.48 -4.21321 -2.45641 0
M  V30 35773 H 3331.49 -5.47277 -0.52615 0
M  V30 35774 H 3332.71 -6.75227 -0.724205 0
M  V30 35775 H 3330.66 -5.9272 -2.81104 0
M  V30 35776 H 3330.57 -7.33999 -1.81058 0
M  V30 35777 H 3331.84 -7.19822 -2.99127 0
M  V30 35778 N 3336.07 -0.170208 -1.56678 0
M  V30 35779 C 3336.98 0.77304 -2.21498 0
M  V30 35780 C 3338 1.25399 -1.20628 0
M  V30 35781 O 3339.17 1.30635 -1.53286 0
M  V30 35782 C 3336.24 1.98553 -2.84214 0
M  V30 35783 C 3335.3 1.55157 -4.00281 0
M  V30 35784 C 3334.53 2.70626 -4.59997 0
M  V30 35785 O 3334.76 3.87465 -4.18602 0
M  V30 35786 O 3333.69 2.44765 -5.49885 0
M  V30 35787 H 3337.52 0.251142 -3.0266 0
M  V30 35788 H 3335.1 0.0579358 -1.49288 0
M  V30 35789 H 3336.98 2.69466 -3.23984 0
M  V30 35790 H 3335.66 2.49651 -2.06049 0
M  V30 35791 H 3334.56 0.811974 -3.65182 0
M  V30 35792 H 3335.9 1.08752 -4.80035 0
M  V30 35793 N 3337.55 1.5726 0.10352 0
M  V30 35794 C 3338.77 1.90233 0.826207 0
M  V30 35795 C 3339.2 0.763671 1.719 0
M  V30 35796 O 3338.56 -0.285149 1.79044 0
M  V30 35797 C 3338.61 3.22031 1.62259 0
M  V30 35798 O 3337.71 3.09028 2.73086 0
M  V30 35799 H 3337.05 0.623804 0.227517 0
M  V30 35800 H 3339.58 2.04439 0.0812711 0
M  V30 35801 H 3339.59 3.55133 2.00859 0
M  V30 35802 H 3338.27 4.04495 0.967312 0
M  V30 35803 H 3336.84 2.87424 2.37575 0
M  V30 35804 N 3339.03 -0.374123 1.53095 0
M  V30 35805 C 3340.26 -1.13684 1.7251 0
M  V30 35806 C 3340.67 -1.83772 0.449954 0
M  V30 35807 O 3340.01 -1.7409 -0.586361 0
M  V30 35808 C 3340.07 -2.21741 2.82968 0
M  V30 35809 C 3339.73 -1.71493 4.23602 0
M  V30 35810 C 3340.73 -1.18362 5.06248 0
M  V30 35811 C 3338.42 -1.77265 4.69981 0
M  V30 35812 C 3340.41 -0.716679 6.33358 0
M  V30 35813 C 3338.1 -1.30183 5.97072 0
M  V30 35814 C 3339.1 -0.774736 6.78592 0
M  V30 35815 O 3338.78 -0.310839 8.03299 0
M  V30 35816 H 3338.52 -0.346208 0.580617 0
M  V30 35817 H 3341.07 -0.441578 2.00597 0
M  V30 35818 H 3339.3 -2.94736 2.50335 0
M  V30 35819 H 3340.99 -2.8334 2.90643 0
M  V30 35820 H 3341.75 -1.13248 4.71593 0
M  V30 35821 H 3337.63 -2.17233 4.06609 0
M  V30 35822 H 3341.18 -0.304587 6.96935 0
M  V30 35823 H 3337.07 -1.34988 6.31228 0
M  V30 35824 H 3337.84 -0.430954 8.17365 0
M  V30 35825 N 3340.51 -1.4431 -0.633436 0
M  V30 35826 C 3341.75 -1.47189 -1.3951 0
M  V30 35827 C 3342.08 -0.10322 -1.93925 0
M  V30 35828 O 3341.36 0.878823 -1.73514 0
M  V30 35829 C 3341.64 -2.5304 -2.56208 0
M  V30 35830 C 3341.5 -3.99257 -2.07157 0
M  V30 35831 C 3342.81 -2.55419 -3.58398 0
M  V30 35832 H 3339.93 -0.535917 -0.505926 0
M  V30 35833 H 3342.58 -1.75976 -0.716414 0
M  V30 35834 H 3340.73 -2.28624 -3.14107 0
M  V30 35835 H 3342.4 -4.34797 -1.54107 0
M  V30 35836 H 3340.64 -4.11144 -1.3836 0
M  V30 35837 H 3341.31 -4.68965 -2.91163 0
M  V30 35838 H 3343.79 -2.77229 -3.10295 0
M  V30 35839 H 3342.66 -3.31389 -4.37575 0
M  V30 35840 H 3342.92 -1.59531 -4.12313 0
M  V30 35841 O 3342.02 0.776855 -1.41588 0
M  V30 35842 H 3342.71 1.4239 -1.31319 0
M  V30 END ATOM
M  V30 BEGIN BOND
M  V30 END BOND
M  V30 END CTAB
M  END
$$$$
