drugbank_target|P00492 Hypoxanthine-guanine phosphoribosyltransferase (DB01033; DB01632; DB02309; DB03153; DB04356)
 OpenBabel12092119233D

  0  0  0     0  0            999 V3000
M  V30 BEGIN CTAB
M  V30 COUNTS 3469 3502 0 0 0
M  V30 BEGIN ATOM
M  V30 1 H -0.908 1.98254 -0.117106 0
M  V30 2 N 0 1.576 0 0
M  V30 3 C 0.933 2.03868 1.02534 0
M  V30 4 C 1.911 0.928543 1.3348 0
M  V30 5 O 3.095 1.19667 1.45644 0
M  V30 6 C 0.222 2.43627 2.35294 0
M  V30 7 C -0.732 3.65373 2.2001 0
M  V30 8 S 0.101 5.13292 1.52614 0
M  V30 9 C 1.257 5.56322 2.86805 0
M  V30 10 H 1.49 2.90518 0.631377 0
M  V30 11 H -0.977 1.52953 0.210867 0
M  V30 12 H 0.981 2.67203 3.11629 0
M  V30 13 H -0.358 1.57376 2.7183 0
M  V30 14 H -1.165 3.90944 3.18086 0
M  V30 15 H -1.563 3.418 1.51819 0
M  V30 16 H 0.729 5.58782 3.83104 0
M  V30 17 H 1.672 6.56266 2.65933 0
M  V30 18 H 2.08 4.83886 2.90714 0
M  V30 19 N 1.4781 -0.272755 1.55222 0
M  V30 20 C 2.4411 -1.32041 1.87344 0
M  V30 21 C 3.4411 -1.42342 0.74803 0
M  V30 22 O 4.6311 -1.41488 1.0162 0
M  V30 23 C 1.7631 -2.70173 2.07893 0
M  V30 24 H 2.9561 -1.04789 2.80997 0
M  V30 25 H 0.5091 -0.51083 1.47717 0
M  V30 26 H 1.2441 -3.02605 1.16622 0
M  V30 27 H 1.0291 -2.64082 2.89833 0
M  V30 28 H 2.5191 -3.45869 2.34017 0
M  V30 29 N 2.9562 -1.48159 -0.537278 0
M  V30 30 C 4.1842 -1.59454 -1.31841 0
M  V30 31 C 4.5992 -0.252065 -1.8711 0
M  V30 32 O 3.9562 0.757621 -1.66031 0
M  V30 33 C 4.0072 -2.63546 -2.47439 0
M  V30 34 O 3.7282 -3.92583 -1.94449 0
M  V30 35 C 5.2292 -2.85212 -3.39366 0
M  V30 36 H 2.4492 -0.53785 -0.401196 0
M  V30 37 H 4.9932 -1.93932 -0.648891 0
M  V30 38 H 3.1482 -2.31946 -3.1029 0
M  V30 39 H 3.5622 -4.49629 -2.70063 0
M  V30 40 H 5.0362 -3.61863 -4.16844 0
M  V30 41 H 5.5132 -1.93765 -3.94147 0
M  V30 42 H 6.1192 -3.18086 -2.82314 0
M  V30 43 N 4.4343 0.785586 -1.36625 0
M  V30 44 C 5.8503 1.08419 -1.17122 0
M  V30 45 C 6.0503 2.015 0.00208491 0
M  V30 46 O 5.1063 2.43551 0.666278 0
M  V30 47 C 6.4193 1.69498 -2.48377 0
M  V30 48 C 7.9673 1.81821 -2.54775 0
M  V30 49 C 8.4423 2.46315 -3.86126 0
M  V30 50 N 9.9333 2.53779 -3.87492 0
M  V30 51 C 10.6683 3.045 -4.85868 0
M  V30 52 N 10.1643 3.55499 -5.94637 0
M  V30 53 N 11.9573 3.03247 -4.73284 0
M  V30 54 H 4.1083 0.167264 -2.1174 0
M  V30 55 H 6.3713 0.13682 -0.938075 0
M  V30 56 H 6.0773 1.08571 -3.34522 0
M  V30 57 H 5.9513 2.6896 -2.64462 0
M  V30 58 H 8.3383 2.41884 -1.69045 0
M  V30 59 H 8.4193 0.811532 -2.42586 0
M  V30 60 H 8.0633 1.86895 -4.72263 0
M  V30 61 H 7.9933 3.47561 -3.95612 0
M  V30 62 H 10.4843 2.17672 -3.08913 0
M  V30 63 H 10.7973 3.92562 -6.65669 0
M  V30 64 H 9.1423 3.5364 -5.98301 0
M  V30 65 H 12.3333 2.62696 -3.87438 0
M  V30 66 H 12.5063 3.42467 -5.50109 0
M  V30 67 N 5.9124 1.20967 1.01018 0
M  V30 68 C 7.1374 1.0503 1.78839 0
M  V30 69 C 7.5624 -0.395752 1.8389 0
M  V30 70 O 6.9204 -1.28529 1.27867 0
M  V30 71 C 6.9684 1.64602 3.2084 0
M  V30 72 O 6.0724 0.887988 4.02726 0
M  V30 73 H 5.4134 0.369987 0.551367 0
M  V30 74 H 7.9434 1.60399 1.27018 0
M  V30 75 H 7.9534 1.68607 3.71532 0
M  V30 76 H 6.6284 2.69841 3.16479 0
M  V30 77 H 5.2054 0.922648 3.61305 0
M  V30 78 N 7.3905 -1.2043 1.01659 0
M  V30 79 C 8.8015 -1.71517 0.737482 0
M  V30 80 C 9.1525 -1.81547 -0.743973 0
M  V30 81 O 8.2775 -1.47803 -1.58061 0
M  V30 82 C 8.8725 -3.11515 1.33206 0
M  V30 83 C 7.4315 -3.59912 1.10183 0
M  V30 84 C 6.5785 -2.37116 1.43776 0
M  V30 85 H 9.5295 -1.05444 1.18606 0
M  V30 86 H 9.5505 -3.73575 0.722636 0
M  V30 87 H 9.0625 -3.04182 2.41028 0
M  V30 88 H 7.1635 -3.72577 0.0412756 0
M  V30 89 H 7.2765 -4.44731 1.78188 0
M  V30 90 H 5.6405 -2.39857 0.856778 0
M  V30 91 H 6.4235 -2.32424 2.52654 0
M  V30 92 N 8.8686 -0.792821 -1.36206 0
M  V30 93 C 10.1166 -0.366062 -1.98757 0
M  V30 94 C 10.4376 1.0668 -1.63231 0
M  V30 95 O 9.7076 1.73587 -0.907978 0
M  V30 96 H 8.2876 -0.132364 -0.735179 0
M  V30 97 H 10.9496 -1.01562 -1.66347 0
M  V30 98 H 10.0456 -0.460638 -3.08682 0
M  V30 99 N 10.3467 1.47872 -0.545128 0
M  V30 100 C 11.5927 2.02793 -0.0166104 0
M  V30 101 C 11.9257 1.41987 1.32489 0
M  V30 102 O 11.2007 0.571045 1.85928 0
M  V30 103 C 11.4837 3.59989 0.0893294 0
M  V30 104 C 11.3367 4.3125 -1.27841 0
M  V30 105 C 12.6557 4.32606 0.808724 0
M  V30 106 H 9.7747 0.736962 -0.00751035 0
M  V30 107 H 12.4167 1.76433 -0.705085 0
M  V30 108 H 10.5667 3.82579 0.675681 0
M  V30 109 H 12.2387 4.20035 -1.90704 0
M  V30 110 H 10.4817 3.92076 -1.85632 0
M  V30 111 H 11.1527 5.39736 -1.15713 0
M  V30 112 H 13.6287 4.14936 0.310992 0
M  V30 113 H 12.5047 5.42251 0.851782 0
M  V30 114 H 12.7657 4.00963 1.86229 0
M  V30 115 N 11.8248 0.280983 1.55075 0
M  V30 116 C 13.0708 -0.33461 2.00021 0
M  V30 117 C 13.4038 -1.55063 1.16915 0
M  V30 118 O 12.6788 -1.93006 0.240646 0
M  V30 119 C 12.9618 -0.711007 3.53011 0
M  V30 120 C 12.8148 0.512766 4.46868 0
M  V30 121 C 14.1338 -1.54522 4.12081 0
M  V30 122 H 11.2528 -0.120147 0.727141 0
M  V30 123 H 13.8948 0.389097 1.85973 0
M  V30 124 H 12.0448 -1.32761 3.65112 0
M  V30 125 H 13.7168 1.15131 4.46702 0
M  V30 126 H 11.9598 1.14975 4.18286 0
M  V30 127 H 12.6308 0.205556 5.51617 0
M  V30 128 H 15.1068 -1.02442 4.03293 0
M  V30 129 H 13.9828 -1.77739 5.19327 0
M  V30 130 H 14.2438 -2.52813 3.62682 0
M  V30 131 N 13.3029 -1.57598 0.00835791 0
M  V30 132 C 14.5519 -1.90107 -0.673968 0
M  V30 133 C 14.8649 -0.884275 -1.7447 0
M  V30 134 O 16.0709 -1.09987 -2.48224 0
M  V30 135 C 14.5269 -3.37497 -1.24995 0
M  V30 136 C 14.1349 -4.47491 -0.2136 0
M  V30 137 C 15.8789 -3.79104 -1.90999 0
M  V30 138 C 13.7859 -5.85963 -0.80005 0
M  V30 139 H 12.7159 -0.709393 -0.255495 0
M  V30 140 H 15.3669 -1.83365 0.0702693 0
M  V30 141 H 13.7489 -3.39102 -2.04513 0
M  V30 142 H 14.9229 -4.57414 0.557596 0
M  V30 143 H 13.2379 -4.14956 0.346474 0
M  V30 144 H 15.8349 -4.79901 -2.35795 0
M  V30 145 H 16.1779 -3.1306 -2.74407 0
M  V30 146 H 16.7109 -3.79833 -1.18203 0
M  V30 147 H 13.4499 -6.555 -0.00456708 0
M  V30 148 H 12.9699 -5.79687 -1.54021 0
M  V30 149 H 14.6489 -6.33884 -1.29615 0
M  V30 150 N 14.781 0.264519 -1.55364 0
M  V30 151 C 16.006 1.01726 -1.80739 0
M  V30 152 C 16.431 1.78836 -0.583044 0
M  V30 153 O 15.789 1.75167 0.467566 0
M  V30 154 C 15.837 1.94482 -3.03659 0
M  V30 155 O 14.941 3.03386 -2.7934 0
M  V30 156 H 14.282 0.290395 -0.597132 0
M  V30 157 H 16.812 0.290854 -2.02522 0
M  V30 158 H 16.822 2.36278 -3.32621 0
M  V30 159 H 15.497 1.37772 -3.92418 0
M  V30 160 H 14.074 2.65844 -2.61498 0
M  V30 161 N 16.2591 1.48442 0.529413 0
M  V30 162 C 17.5361 1.46978 1.29062 0
M  V30 163 C 17.9161 0.181769 2.10316 0
M  V30 164 O 17.2641 -0.836481 2.12639 0
M  V30 165 C 17.4741 2.7321 2.17157 0
M  V30 166 C 18.8221 3.21562 2.77278 0
M  V30 167 O 19.8461 2.74131 2.27444 0
M  V30 168 O 18.7051 4.04094 3.67927 0
M  V30 169 H 15.7991 0.587003 0.582543 0
M  V30 170 H 18.3451 1.60676 0.546021 0
M  V30 171 H 17.1171 3.58465 1.56903 0
M  V30 172 H 16.7401 2.62235 2.98862 0
M  V30 173 N 17.7372 -0.778329 1.37039 0
M  V30 174 C 19.0142 -1.52551 1.22424 0
M  V30 175 C 19.3942 -2.10288 -0.184964 0
M  V30 176 O 18.7422 -1.94953 -1.19187 0
M  V30 177 C 18.9522 -2.61164 2.31504 0
M  V30 178 C 20.3002 -3.28746 2.68721 0
M  V30 179 O 21.3242 -2.71455 2.30631 0
M  V30 180 O 20.1832 -4.3231 3.3432 0
M  V30 181 H 17.2772 -0.675343 0.477326 0
M  V30 182 H 19.8232 -0.815859 1.48801 0
M  V30 183 H 18.5952 -2.16574 3.25901 0
M  V30 184 H 18.2182 -3.39737 2.06554 0
M  V30 185 N 19.2153 -1.21501 -1.00376 0
M  V30 186 C 20.1253 -0.991447 -2.12621 0
M  V30 187 C 21.1413 0.0568446 -1.73907 0
M  V30 188 O 22.3173 -0.13348 -2.00957 0
M  V30 189 C 19.3823 -0.560312 -3.42142 0
M  V30 190 C 18.4433 -1.68096 -3.95022 0
M  V30 191 C 17.6763 -1.2703 -5.18362 0
M  V30 192 O 17.8993 -0.144438 -5.70217 0
M  V30 193 O 16.8333 -2.08269 -5.64719 0
M  V30 194 H 20.6593 -1.93158 -2.34358 0
M  V30 195 H 18.2443 -0.999999 -1.10997 0
M  V30 196 H 20.1263 -0.329724 -4.20108 0
M  V30 197 H 18.8013 0.351089 -3.2179 0
M  V30 198 H 17.7083 -1.96597 -3.18278 0
M  V30 199 H 19.0413 -2.56983 -4.19786 0
M  V30 200 N 20.6934 1.19889 -1.02296 0
M  V30 201 C 22.1044 1.71124 -0.746568 0
M  V30 202 C 22.4554 1.81939 0.734335 0
M  V30 203 O 21.5804 1.48639 1.57275 0
M  V30 204 C 22.1754 3.10804 -1.34857 0
M  V30 205 C 20.7344 3.59323 -1.1209 0
M  V30 206 C 19.8814 2.3635 -1.45031 0
M  V30 207 H 22.8324 1.04813 -1.19163 0
M  V30 208 H 22.8534 3.73186 -0.742437 0
M  V30 209 H 22.3654 3.029 -2.42638 0
M  V30 210 H 20.4664 3.7255 -0.0610337 0
M  V30 211 H 20.5794 4.4378 -1.80544 0
M  V30 212 H 18.9434 2.39399 -0.869487 0
M  V30 213 H 19.7264 2.31081 -2.53883 0
M  V30 214 N 22.1715 0.800033 1.35784 0
M  V30 215 C 23.4195 0.376597 1.9856 0
M  V30 216 C 23.7405 -1.05812 1.63795 0
M  V30 217 O 23.0105 -1.73103 0.917171 0
M  V30 218 H 21.5905 0.136261 0.734467 0
M  V30 219 H 24.2525 1.02442 1.65806 0
M  V30 220 H 23.3485 0.477002 3.08433 0
M  V30 221 N 23.6496 -1.47581 0.552962 0
M  V30 222 C 24.8796 -2.06575 0.0320091 0
M  V30 223 C 25.2876 -1.4067 -1.26525 0
M  V30 224 O 24.6306 -0.495808 -1.76883 0
M  V30 225 C 24.6926 -3.58705 -0.238913 0
M  V30 226 C 24.3566 -4.46625 0.968272 0
M  V30 227 C 25.3536 -4.85 1.87274 0
M  V30 228 C 23.0386 -4.88201 1.18175 0
M  V30 229 C 25.0326 -5.63745 2.9744 0
M  V30 230 C 22.7196 -5.66712 2.28651 0
M  V30 231 C 23.7176 -6.04394 3.18114 0
M  V30 232 O 23.4056 -6.81324 4.26676 0
M  V30 233 H 23.1376 -0.674763 0.0408689 0
M  V30 234 H 25.6916 -1.90634 0.764719 0
M  V30 235 H 23.9216 -3.72844 -1.02588 0
M  V30 236 H 25.6106 -3.99735 -0.704731 0
M  V30 237 H 26.3766 -4.53482 1.71984 0
M  V30 238 H 22.2556 -4.58339 0.494593 0
M  V30 239 H 25.7996 -5.93077 3.67296 0
M  V30 240 H 21.6966 -5.97642 2.43915 0
M  V30 241 H 22.4646 -6.99712 4.24671 0
M  V30 242 N 25.1277 -0.289203 -1.54924 0
M  V30 243 C 26.4047 0.376032 -1.91951 0
M  V30 244 C 26.7847 1.72622 -1.21511 0
M  V30 245 O 26.1327 2.25853 -0.346767 0
M  V30 246 C 26.3427 0.502378 -3.45365 0
M  V30 247 C 27.6907 0.778741 -4.17398 0
M  V30 248 O 28.7147 0.586647 -3.51336 0
M  V30 249 O 27.5737 1.14698 -5.34328 0
M  V30 250 H 24.6677 0.208167 -0.800372 0
M  V30 251 H 27.2137 -0.336394 -1.66332 0
M  V30 252 H 25.9857 -0.447255 -3.88736 0
M  V30 253 H 25.6087 1.26373 -3.76982 0
M  V30 254 N 26.6058 1.57591 -0.0167156 0
M  V30 255 C 27.5358 2.12496 0.967858 0
M  V30 256 C 28.5168 1.03807 1.34752 0
M  V30 257 O 29.7018 1.31577 1.42833 0
M  V30 258 C 26.8318 2.64194 2.25431 0
M  V30 259 C 25.7858 3.77559 2.01576 0
M  V30 260 C 25.1118 4.15636 3.36379 0
M  V30 261 C 26.4118 5.04151 1.36489 0
M  V30 262 H 28.1058 2.95013 0.510643 0
M  V30 263 H 25.6518 1.41915 0.244181 0
M  V30 264 H 27.6048 3.01236 2.94678 0
M  V30 265 H 26.3288 1.78821 2.73296 0
M  V30 266 H 24.9878 3.40937 1.34751 0
M  V30 267 H 24.6358 3.27263 3.81979 0
M  V30 268 H 24.3358 4.92022 3.21229 0
M  V30 269 H 25.8598 4.5525 4.06915 0
M  V30 270 H 27.2738 5.38857 1.95718 0
M  V30 271 H 25.6708 5.85453 1.31776 0
M  V30 272 H 26.7408 4.83733 0.336219 0
M  V30 273 N 28.0839 -0.256276 1.55502 0
M  V30 274 C 29.3609 -1.00789 1.67633 0
M  V30 275 C 29.7409 -2.03706 0.553826 0
M  V30 276 O 29.0889 -2.24145 -0.443969 0
M  V30 277 C 29.2989 -1.64968 3.07549 0
M  V30 278 C 30.6469 -2.15505 3.65845 0
M  V30 279 O 31.6709 -1.74925 3.1029 0
M  V30 280 O 30.5299 -2.89986 4.63217 0
M  V30 281 H 27.6239 -0.468553 0.681459 0
M  V30 282 H 30.1699 -0.250806 1.67836 0
M  V30 283 H 28.9419 -0.904785 3.80696 0
M  V30 284 H 28.5649 -2.47321 3.11317 0
M  V30 285 N 29.562 -1.4872 -0.521534 0
M  V30 286 C 30.492 -1.66771 -1.63431 0
M  V30 287 C 31.473 -0.516499 -1.62069 0
M  V30 288 O 32.658 -0.750013 -1.79132 0
M  V30 289 C 29.788 -1.71515 -3.01993 0
M  V30 290 C 28.742 -2.86222 -3.18216 0
M  V30 291 C 28.068 -2.76061 -4.57924 0
M  V30 292 C 29.368 -4.27419 -3.00184 0
M  V30 293 H 31.062 -2.59932 -1.48579 0
M  V30 294 H 28.608 -1.25089 -0.713358 0
M  V30 295 H 30.561 -1.82731 -3.7972 0
M  V30 296 H 29.285 -0.749393 -3.17886 0
M  V30 297 H 27.944 -2.74575 -2.42908 0
M  V30 298 H 27.592 -1.77437 -4.70665 0
M  V30 299 H 27.292 -3.53037 -4.69722 0
M  V30 300 H 28.816 -2.89256 -5.37739 0
M  V30 301 H 30.23 -4.39855 -3.67697 0
M  V30 302 H 28.627 -5.05458 -3.2347 0
M  V30 303 H 29.697 -4.43293 -1.96518 0
M  V30 304 N 31.0401 0.771051 -1.3745 0
M  V30 305 C 32.2871 1.52963 -1.32697 0
M  V30 306 C 32.6151 1.94299 0.0883274 0
M  V30 307 O 31.8701 1.64397 1.0617 0
M  V30 308 C 32.1691 2.80676 -2.2126 0
M  V30 309 C 31.8351 2.58389 -3.69521 0
M  V30 310 C 30.4971 2.52019 -4.09927 0
M  V30 311 C 32.8491 2.38469 -4.63446 0
M  V30 312 C 30.1771 2.23721 -5.42371 0
M  V30 313 C 32.5291 2.11694 -5.96128 0
M  V30 314 C 31.1931 2.03769 -6.35637 0
M  V30 315 H 30.4631 0.559732 -0.485573 0
M  V30 316 H 33.1101 0.888083 -1.69662 0
M  V30 317 H 31.4151 3.49392 -1.77291 0
M  V30 318 H 33.1121 3.38557 -2.14895 0
M  V30 319 H 29.7021 2.6421 -3.37478 0
M  V30 320 H 33.8861 2.4238 -4.33089 0
M  V30 321 H 29.1421 2.16081 -5.71943 0
M  V30 322 H 33.3161 1.9528 -6.6846 0
M  V30 323 H 30.9431 1.81606 -7.38189 0
M  V30 324 N 32.5182 1.22032 0.997298 0
M  V30 325 C 33.7582 1.05375 1.75144 0
M  V30 326 C 34.1222 -0.404696 1.87686 0
M  V30 327 O 35.3232 -0.691998 2.5974 0
M  V30 328 C 33.5942 1.74046 3.12158 0
M  V30 329 S 35.1532 1.72745 4.03366 0
M  V30 330 H 31.9712 0.377449 0.602539 0
M  V30 331 H 34.5732 1.54902 1.19272 0
M  V30 332 H 33.2772 2.79332 3.00669 0
M  V30 333 H 32.8082 1.24731 3.73103 0
M  V30 334 H 34.8232 0.774015 4.90126 0
M  V30 335 N 33.9963 -1.19345 1.0293 0
M  V30 336 C 35.2453 -1.88363 0.721256 0
M  V30 337 C 35.5583 -1.80514 -0.753254 0
M  V30 338 O 36.7643 -2.44788 -1.17436 0
M  V30 339 C 35.2203 -3.37872 1.23978 0
M  V30 340 C 34.8283 -3.54278 2.74211 0
M  V30 341 C 36.5723 -4.12365 1.00775 0
M  V30 342 C 34.4793 -4.97682 3.19479 0
M  V30 343 H 33.4093 -0.705484 0.266098 0
M  V30 344 H 36.0603 -1.34928 1.24365 0
M  V30 345 H 34.4423 -3.90707 0.6453 0
M  V30 346 H 35.6163 -3.11769 3.39318 0
M  V30 347 H 33.9313 -2.93174 2.95699 0
M  V30 348 H 36.5283 -5.18119 1.32123 0
M  V30 349 H 36.8713 -4.16263 -0.0554308 0
M  V30 350 H 37.4043 -3.65668 1.56625 0
M  V30 351 H 34.1433 -4.98945 4.25128 0
M  V30 352 H 33.6633 -5.4095 2.591 0
M  V30 353 H 35.3423 -5.66337 3.12845 0
M  V30 354 N 35.4744 -0.807222 -1.35358 0
M  V30 355 C 36.8854 -0.44876 -1.81226 0
M  V30 356 C 37.2364 1.02929 -1.67033 0
M  V30 357 O 36.3614 1.79991 -1.20133 0
M  V30 358 C 36.9564 -0.807774 -3.2903 0
M  V30 359 C 35.5154 -0.501901 -3.73039 0
M  V30 360 C 34.6624 -1.03304 -2.57339 0
M  V30 361 H 37.6134 -0.998808 -1.23327 0
M  V30 362 H 37.6344 -0.10554 -3.80354 0
M  V30 363 H 37.1464 -1.88357 -3.39328 0
M  V30 364 H 35.2474 0.565128 -3.68289 0
M  V30 365 H 35.3604 -1.03497 -4.67787 0
M  V30 366 H 33.7244 -0.455339 -2.50597 0
M  V30 367 H 34.5074 -2.11496 -2.70415 0
M  V30 368 N 36.9525 1.47285 -0.560781 0
M  V30 369 C 37.9005 2.31756 0.197942 0
M  V30 370 C 38.8945 1.43146 0.905854 0
M  V30 371 O 40.1005 1.59891 0.826733 0
M  V30 372 H 36.4755 0.747438 0.0827049 0
M  V30 373 H 38.4465 2.9359 -0.533629 0
M  V30 374 C 37.1955 3.25874 1.21249 0
M  V30 375 H 36.5185 3.94023 0.67719 0
M  V30 376 H 37.9585 3.87803 1.71419 0
M  V30 377 C 36.4175 2.49651 2.26221 0
M  V30 378 O 36.9475 2.24355 3.33208 0
M  V30 379 N 35.1535 2.10597 2.00243 0
M  V30 380 H 34.7005 2.31369 1.13252 0
M  V30 381 H 34.6585 1.59913 2.70694 0
M  V30 382 N 38.4306 0.297415 1.54768 0
M  V30 383 C 39.3806 -0.595275 2.20092 0
M  V30 384 C 40.3646 -1.10163 1.17273 0
M  V30 385 O 41.5566 -1.043 1.43006 0
M  V30 386 C 38.6856 -1.7684 2.94249 0
M  V30 387 C 37.7716 -1.27818 4.0438 0
M  V30 388 N 38.1626 -0.505695 5.03266 0
M  V30 389 C 36.4606 -1.55923 4.17857 0
M  V30 390 C 37.1616 -0.245094 5.81183 0
M  V30 391 N 36.1376 -0.823881 5.3732 0
M  V30 392 H 39.9396 0.00250837 2.939 0
M  V30 393 H 37.4536 0.102007 1.62079 0
M  V30 394 H 39.4506 -2.41944 3.39513 0
M  V30 395 H 38.1106 -2.36992 2.21957 0
M  V30 396 H 39.1216 -0.150928 5.1768 0
M  V30 397 H 35.7986 -2.16849 3.56767 0
M  V30 398 H 37.1886 0.375084 6.70852 0
M  V30 399 N 39.9087 -1.5758 0.0250728 0
M  V30 400 C 41.1387 -1.95646 -0.663783 0
M  V30 401 C 41.5467 -0.899935 -1.66427 0
M  V30 402 O 40.8897 0.127191 -1.83259 0
M  V30 403 C 40.9517 -3.29835 -1.43 0
M  V30 404 C 40.6157 -4.53197 -0.588305 0
M  V30 405 C 41.6127 -5.19726 0.13469 0
M  V30 406 C 39.2977 -4.99529 -0.526897 0
M  V30 407 C 41.2917 -6.30902 0.90781 0
M  V30 408 C 38.9787 -6.10589 0.24993 0
M  V30 409 C 39.9767 -6.76134 0.965994 0
M  V30 410 O 39.6647 -7.85062 1.7301 0
M  V30 411 H 39.3967 -0.649282 -0.188174 0
M  V30 412 H 41.9507 -2.05245 0.0799006 0
M  V30 413 H 40.1807 -3.16716 -2.21873 0
M  V30 414 H 41.8697 -3.52833 -2.00658 0
M  V30 415 H 42.6357 -4.84904 0.0965562 0
M  V30 416 H 38.5147 -4.48319 -1.07381 0
M  V30 417 H 42.0587 -6.81995 1.46724 0
M  V30 418 H 37.9557 -6.44849 0.289795 0
M  V30 419 H 38.7237 -8.01708 1.64944 0
M  V30 420 N 41.3868 0.248026 -1.55636 0
M  V30 421 C 42.3498 1.29044 -1.89421 0
M  V30 422 C 43.3498 1.41134 -0.770581 0
M  V30 423 O 44.5398 1.39854 -1.03858 0
M  V30 424 C 41.6718 2.66831 -2.12165 0
M  V30 425 H 42.8648 1.00305 -2.82629 0
M  V30 426 H 40.4178 0.487265 -1.48511 0
M  V30 427 H 41.1528 3.00711 -1.21422 0
M  V30 428 H 40.9378 2.59438 -2.93997 0
M  V30 429 H 42.4278 3.42103 -2.3949 0
M  V30 430 N 42.8649 1.48995 0.513639 0
M  V30 431 C 43.7749 1.67443 1.64317 0
M  V30 432 C 44.7909 0.556947 1.64846 0
M  V30 433 O 45.9669 0.830082 1.83498 0
M  V30 434 C 43.0319 1.72515 3.00732 0
M  V30 435 C 42.0929 2.96009 3.1093 0
M  V30 436 C 41.3259 3.00829 4.40837 0
M  V30 437 O 41.5489 2.13594 5.28898 0
M  V30 438 O 40.4829 3.93168 4.55744 0
M  V30 439 H 44.3089 2.63106 1.51687 0
M  V30 440 H 41.8939 1.32588 0.688543 0
M  V30 441 H 43.7759 1.78277 3.81831 0
M  V30 442 H 42.4509 0.800278 3.13651 0
M  V30 443 H 41.3579 2.9577 2.29065 0
M  V30 444 H 42.6909 3.87934 3.02933 0
M  V30 445 N 44.343 -0.763751 1.37857 0
M  V30 446 C 45.62 -1.51244 1.24035 0
M  V30 447 C 46 -2.10472 -0.162649 0
M  V30 448 O 45.348 -1.96206 -1.17112 0
M  V30 449 C 45.558 -2.58694 2.34261 0
M  V30 450 C 46.906 -3.25878 2.72193 0
M  V30 451 O 47.93 -2.68993 2.33497 0
M  V30 452 O 46.789 -4.2874 3.38887 0
M  V30 453 H 43.883 -0.670243 0.484462 0
M  V30 454 H 46.429 -0.800031 1.49658 0
M  V30 455 H 45.201 -2.13105 3.2818 0
M  V30 456 H 44.824 -3.37527 2.10146 0
M  V30 457 N 45.8211 -1.22559 -0.990812 0
M  V30 458 C 46.7511 -1.0218 -2.09956 0
M  V30 459 C 47.7321 0.0579394 -1.70001 0
M  V30 460 O 48.9171 -0.104684 -1.93918 0
M  V30 461 C 46.0471 -0.601023 -3.4206 0
M  V30 462 C 45.0011 -1.62694 -3.95872 0
M  V30 463 C 44.3271 -1.06193 -5.24049 0
M  V30 464 C 45.6271 -3.01743 -4.2632 0
M  V30 465 H 47.3211 -1.94916 -2.27262 0
M  V30 466 H 44.8671 -0.938566 -1.09211 0
M  V30 467 H 46.8201 -0.445561 -4.19038 0
M  V30 468 H 45.5441 0.362005 -3.24588 0
M  V30 469 H 44.2031 -1.77021 -3.21028 0
M  V30 470 H 43.8511 -0.0901903 -5.02919 0
M  V30 471 H 43.5511 -1.74732 -5.61019 0
M  V30 472 H 45.0751 -0.918092 -6.03658 0
M  V30 473 H 46.4891 -2.90777 -4.94087 0
M  V30 474 H 44.8861 -3.67425 -4.74467 0
M  V30 475 H 45.9561 -3.51518 -3.34011 0
M  V30 476 N 47.2992 1.18797 -1.03562 0
M  V30 477 C 48.2092 2.25913 -0.632505 0
M  V30 478 C 49.2252 1.70668 0.338882 0
M  V30 479 O 50.4012 2.00453 0.195076 0
M  V30 480 C 47.4662 3.467 0.00350942 0
M  V30 481 C 46.5272 4.17098 -1.01624 0
M  V30 482 C 45.7602 5.32119 -0.410478 0
M  V30 483 O 45.9832 5.64976 0.784725 0
M  V30 484 O 44.9172 5.9107 -1.13667 0
M  V30 485 H 48.7432 2.62648 -1.52478 0
M  V30 486 H 46.3282 1.25781 -0.806195 0
M  V30 487 H 48.2102 4.19878 0.35781 0
M  V30 488 H 46.8852 3.11798 0.869686 0
M  V30 489 H 45.7922 3.4601 -1.42224 0
M  V30 490 H 47.1252 4.55987 -1.85301 0
M  V30 491 N 48.7773 0.814389 1.34928 0
M  V30 492 C 50.1933 0.499084 1.51596 0
M  V30 493 C 50.3933 -0.978319 1.76157 0
M  V30 494 O 49.4493 -1.76309 1.80752 0
M  V30 495 C 50.7623 1.35121 2.68631 0
M  V30 496 C 52.3103 1.34746 2.82511 0
M  V30 497 C 52.7853 2.18388 4.0258 0
M  V30 498 N 54.2763 2.15966 4.09772 0
M  V30 499 C 55.0113 2.77437 5.01813 0
M  V30 500 N 54.5073 3.47866 5.99134 0
M  V30 501 N 56.3003 2.67037 4.94619 0
M  V30 502 H 48.4513 1.7711 1.17243 0
M  V30 503 H 50.7143 0.754256 0.574284 0
M  V30 504 H 50.4203 2.40001 2.57085 0
M  V30 505 H 50.2943 1.00991 3.63429 0
M  V30 506 H 52.6813 0.30648 2.93504 0
M  V30 507 H 52.7623 1.72869 1.88547 0
M  V30 508 H 52.4063 3.2253 3.92347 0
M  V30 509 H 52.3363 1.77621 4.9574 0
M  V30 510 H 54.8273 1.64729 3.40107 0
M  V30 511 H 55.1403 3.92038 6.65977 0
M  V30 512 H 53.4853 3.51972 5.99284 0
M  V30 513 H 56.6763 2.11597 4.17546 0
M  V30 514 H 56.8493 3.15232 5.66156 0
M  V30 515 N 50.2554 -1.46986 0.568584 0
M  V30 516 C 51.5014 -2.02741 0.0488709 0
M  V30 517 C 51.8344 -1.44077 -1.30214 0
M  V30 518 O 51.1094 -0.600552 -1.84996 0
M  V30 519 C 51.3924 -3.60086 -0.032047 0
M  V30 520 C 51.2454 -4.29162 1.34686 0
M  V30 521 C 52.5644 -4.33838 -0.739798 0
M  V30 522 H 49.6834 -0.736749 0.0192338 0
M  V30 523 H 52.3254 -1.75289 0.733065 0
M  V30 524 H 50.4754 -3.83606 -0.61473 0
M  V30 525 H 52.1474 -4.16948 1.97362 0
M  V30 526 H 50.3904 -3.89073 1.91846 0
M  V30 527 H 51.0614 -5.37826 1.24285 0
M  V30 528 H 53.5374 -4.15378 -0.244939 0
M  V30 529 H 52.4134 -5.43537 -0.765406 0
M  V30 530 H 52.6744 -4.03875 -1.79827 0
M  V30 531 N 51.7335 -0.305618 -1.54608 0
M  V30 532 C 52.9805 0.302298 -2.00231 0
M  V30 533 C 53.3085 1.5354 -1.19398 0
M  V30 534 O 52.5635 1.93973 -0.259423 0
M  V30 535 C 52.8625 0.698983 -3.50498 0
M  V30 536 C 52.5285 -0.432903 -4.48817 0
M  V30 537 C 51.1905 -0.743622 -4.75419 0
M  V30 538 C 53.5425 -1.19409 -5.07337 0
M  V30 539 C 50.8705 -1.81857 -5.57804 0
M  V30 540 C 53.2225 -2.25899 -5.90891 0
M  V30 541 C 51.8865 -2.57572 -6.15803 0
M  V30 542 H 51.1565 0.110619 -0.732697 0
M  V30 543 H 53.8035 -0.425674 -1.86709 0
M  V30 544 H 52.1085 1.50711 -3.61654 0
M  V30 545 H 53.8055 1.1806 -3.83227 0
M  V30 546 H 50.3955 -0.18063 -4.28219 0
M  V30 547 H 54.5795 -0.967295 -4.86782 0
M  V30 548 H 49.8355 -2.06864 -5.75341 0
M  V30 549 H 54.0095 -2.85335 -6.35261 0
M  V30 550 H 51.6365 -3.40998 -6.7943 0
M  V30 551 N 53.2116 1.57565 -0.0334293 0
M  V30 552 C 54.4606 1.91155 0.643639 0
M  V30 553 C 54.7736 0.91192 1.73042 0
M  V30 554 O 55.9796 1.13923 2.46442 0
M  V30 555 C 54.4356 3.39443 1.1961 0
M  V30 556 C 54.0436 4.47774 0.142381 0
M  V30 557 C 55.7876 3.82094 1.84944 0
M  V30 558 C 53.6946 5.87162 0.706727 0
M  V30 559 H 52.6246 0.713368 0.244176 0
M  V30 560 H 55.2756 1.8323 -0.0994323 0
M  V30 561 H 53.6576 3.42313 1.99092 0
M  V30 562 H 54.8316 4.56469 -0.630296 0
M  V30 563 H 53.1466 4.14352 -0.412446 0
M  V30 564 H 55.7436 4.83591 2.2813 0
M  V30 565 H 56.0866 3.17386 2.69392 0
M  V30 566 H 56.6196 3.81665 1.12145 0
M  V30 567 H 53.3586 6.55424 -0.0997178 0
M  V30 568 H 52.8786 5.82064 1.44779 0
M  V30 569 H 54.5576 6.35866 1.19514 0
M  V30 570 N 54.6897 -0.239769 1.55765 0
M  V30 571 C 56.1007 -0.808263 1.68297 0
M  V30 572 C 56.4517 -1.85736 0.632181 0
M  V30 573 O 55.5767 -2.15277 -0.220204 0
M  V30 574 C 56.1717 -1.47284 3.05111 0
M  V30 575 C 54.7307 -1.98895 3.19559 0
M  V30 576 C 53.8777 -0.842575 2.64189 0
M  V30 577 H 56.8287 -0.0154422 1.58692 0
M  V30 578 H 56.8497 -2.34111 2.99954 0
M  V30 579 H 56.3617 -0.709053 3.81568 0
M  V30 580 H 54.4627 -2.78132 2.47938 0
M  V30 581 H 54.5757 -2.18143 4.26556 0
M  V30 582 H 52.9397 -1.24501 2.22197 0
M  V30 583 H 53.7227 -0.0917552 3.43177 0
M  V30 584 N 56.1678 -1.49265 -0.50573 0
M  V30 585 C 57.1178 -1.6198 -1.60457 0
M  V30 586 C 58.1018 -0.47568 -1.53708 0
M  V30 587 O 59.2938 -0.728392 -1.61318 0
M  V30 588 C 56.4228 -1.68526 -2.99089 0
M  V30 589 C 55.5088 -2.885 -3.10852 0
M  V30 590 N 55.8998 -4.12635 -2.92517 0
M  V30 591 C 54.1978 -2.86338 -3.41945 0
M  V30 592 C 54.8988 -4.93258 -3.08337 0
M  V30 593 N 53.8748 -4.26533 -3.37003 0
M  V30 594 H 57.6768 -2.55681 -1.44928 0
M  V30 595 H 55.1908 -1.45972 -0.711752 0
M  V30 596 H 57.1878 -1.75732 -3.78053 0
M  V30 597 H 55.8478 -0.759584 -3.1569 0
M  V30 598 H 56.8588 -4.42689 -2.68787 0
M  V30 599 H 53.5358 -2.03129 -3.64753 0
M  V30 600 H 54.9258 -6.01856 -2.98695 0
M  V30 601 N 57.6459 0.756429 -1.3826 0
M  V30 602 C 58.8939 1.51248 -1.34047 0
M  V30 603 C 59.2149 1.94875 0.0698372 0
M  V30 604 O 58.4849 1.67436 1.01696 0
M  V30 605 H 57.0649 0.561018 -0.493222 0
M  V30 606 H 59.7269 0.899347 -1.7291 0
M  V30 607 H 58.8229 2.40472 -1.98947 0
M  V30 608 N 59.124 1.23083 0.984299 0
M  V30 609 C 60.054 1.03292 2.09411 0
M  V30 610 C 61.035 -0.048923 1.7003 0
M  V30 611 O 62.22 0.114967 1.93859 0
M  V30 612 C 59.35 0.619155 3.41736 0
M  V30 613 C 58.304 1.64791 3.95004 0
M  V30 614 C 57.63 1.0897 5.23478 0
M  V30 615 C 58.93 3.03999 4.24714 0
M  V30 616 H 60.624 1.96119 2.26225 0
M  V30 617 H 58.17 0.944344 1.08711 0
M  V30 618 H 60.123 0.467777 4.18796 0
M  V30 619 H 58.847 -0.344786 3.24775 0
M  V30 620 H 57.506 1.78721 3.20085 0
M  V30 621 H 57.154 0.11686 5.02864 0
M  V30 622 H 56.854 1.77704 5.60085 0
M  V30 623 H 58.378 0.950093 6.03163 0
M  V30 624 H 59.792 2.93393 4.92538 0
M  V30 625 H 58.189 3.69936 4.72512 0
M  V30 626 H 59.259 3.53285 3.32142 0
M  V30 627 N 60.6021 -1.18246 1.0419 0
M  V30 628 C 61.8511 -1.87588 0.741194 0
M  V30 629 C 62.1641 -1.81303 -0.734066 0
M  V30 630 O 63.3701 -2.46019 -1.14834 0
M  V30 631 C 61.8261 -3.36538 1.27555 0
M  V30 632 C 61.4341 -3.51349 2.77953 0
M  V30 633 C 63.1781 -4.11273 1.05143 0
M  V30 634 C 61.0851 -4.94265 3.2474 0
M  V30 635 H 60.0151 -0.702622 0.273565 0
M  V30 636 H 62.6661 -1.33601 1.25789 0
M  V30 637 H 61.0481 -3.9 0.686703 0
M  V30 638 H 62.2221 -3.08153 3.42605 0
M  V30 639 H 60.5371 -2.90022 2.98791 0
M  V30 640 H 63.1341 -5.16689 1.37611 0
M  V30 641 H 63.4771 -4.16298 -0.0112774 0
M  V30 642 H 64.0101 -3.63987 1.60495 0
M  V30 643 H 60.7491 -4.94408 4.30396 0
M  V30 644 H 60.2691 -5.38172 2.64823 0
M  V30 645 H 61.9481 -5.62987 3.18834 0
M  V30 646 N 62.0802 -0.821533 -1.34494 0
M  V30 647 C 63.0132 -0.187704 -2.27427 0
M  V30 648 C 63.9912 0.65507 -1.48821 0
M  V30 649 O 65.1752 0.619111 -1.78043 0
M  V30 650 C 62.3022 0.737996 -3.30562 0
M  V30 651 C 61.3482 -0.0270713 -4.26491 0
M  V30 652 S 62.1812 -1.37329 -5.17592 0
M  V30 653 C 63.3372 -0.452427 -6.24263 0
M  V30 654 H 63.5702 -0.975598 -2.80837 0
M  V30 655 H 61.1032 -0.61736 -1.4152 0
M  V30 656 H 63.0612 1.26654 -3.90473 0
M  V30 657 H 61.7222 1.4994 -2.76001 0
M  V30 658 H 60.9152 0.6766 -4.99438 0
M  V30 659 H 60.5172 -0.48612 -3.70827 0
M  V30 660 H 62.8092 0.356557 -6.76561 0
M  V30 661 H 63.7522 -1.15153 -6.98674 0
M  V30 662 H 64.1602 -0.0414755 -5.64485 0
M  V30 663 N 63.5583 1.46682 -0.576371 0
M  V30 664 C 64.8353 1.95599 0.00703437 0
M  V30 665 C 65.2153 1.51904 1.46589 0
M  V30 666 O 64.5633 0.766755 2.15251 0
M  V30 667 C 64.7733 3.4864 -0.158404 0
M  V30 668 C 66.1213 4.24594 -0.0229439 0
M  V30 669 O 67.1453 3.56094 -0.0869173 0
M  V30 670 O 66.0043 5.46373 0.118015 0
M  V30 671 H 63.0983 0.825275 0.053384 0
M  V30 672 H 65.6443 1.56996 -0.644244 0
M  V30 673 H 64.4163 3.7331 -1.17282 0
M  V30 674 H 64.0393 3.94057 0.5296 0
M  V30 675 N 65.0364 0.313813 1.54444 0
M  V30 676 C 66.4524 -0.0391619 1.59552 0
M  V30 677 C 66.6524 -1.51322 1.33056 0
M  V30 678 O 65.7084 -2.26782 1.11022 0
M  V30 679 C 67.0214 0.370302 2.98411 0
M  V30 680 C 68.5694 0.320139 3.11358 0
M  V30 681 C 69.0444 0.704617 4.52547 0
M  V30 682 N 70.5354 0.657645 4.58508 0
M  V30 683 C 71.2704 0.927453 5.6585 0
M  V30 684 N 70.7664 1.26389 6.81174 0
M  V30 685 N 72.5594 0.853662 5.5558 0
M  V30 686 H 64.7104 1.27433 1.69925 0
M  V30 687 H 66.9734 0.517511 0.794284 0
M  V30 688 H 66.6794 1.39694 3.22767 0
M  V30 689 H 66.5534 -0.269619 3.76235 0
M  V30 690 H 68.9404 -0.697275 2.86744 0
M  V30 691 H 69.0214 0.99486 2.35661 0
M  V30 692 H 68.6654 1.7199 4.77893 0
M  V30 693 H 68.5954 0.00768843 5.26599 0
M  V30 694 H 71.0864 0.409067 3.75679 0
M  V30 695 H 71.3994 1.4554 7.58972 0
M  V30 696 H 69.7444 1.30206 6.82694 0
M  V30 697 H 72.9354 0.590383 4.64362 0
M  V30 698 H 73.1084 1.0673 6.3915 0
M  V30 699 N 66.5145 -1.57545 0.0417849 0
M  V30 700 C 67.7425 -1.96624 -0.643928 0
M  V30 701 C 68.1575 -0.918897 -1.64929 0
M  V30 702 O 67.5145 0.0979323 -1.82237 0
M  V30 703 C 67.5655 -3.35781 -1.33914 0
M  V30 704 O 67.2865 -4.365 -0.374048 0
M  V30 705 C 68.7875 -3.89566 -2.1155 0
M  V30 706 H 66.0075 -0.647316 -0.176702 0
M  V30 707 H 68.5515 -2.04229 0.105304 0
M  V30 708 H 66.7065 -3.29357 -2.03968 0
M  V30 709 H 67.1205 -5.17248 -0.869179 0
M  V30 710 H 68.5945 -4.89242 -2.55628 0
M  V30 711 H 69.0715 -3.24488 -2.9598 0
M  V30 712 H 69.6775 -3.99298 -1.46427 0
M  V30 713 N 67.9926 0.231505 -1.5589 0
M  V30 714 C 68.9026 1.308 -1.94752 0
M  V30 715 C 69.9186 1.51826 -0.849989 0
M  V30 716 O 71.0946 1.6515 -1.15271 0
M  V30 717 C 68.1596 2.63968 -2.24771 0
M  V30 718 C 67.2206 2.51331 -3.48039 0
M  V30 719 C 66.4536 3.78148 -3.76616 0
M  V30 720 O 66.6766 4.80722 -3.07022 0
M  V30 721 O 65.6106 3.75857 -4.70123 0
M  V30 722 H 69.4366 1.0083 -2.86474 0
M  V30 723 H 67.0216 0.433547 -1.42971 0
M  V30 724 H 68.9036 3.42633 -2.45318 0
M  V30 725 H 67.5786 2.9364 -1.36225 0
M  V30 726 H 66.4856 1.709 -3.32782 0
M  V30 727 H 67.8186 2.26601 -4.36936 0
M  V30 728 N 69.4707 1.49531 0.497807 0
M  V30 729 C 70.8867 1.36365 0.829266 0
M  V30 730 C 71.0867 0.399184 1.97506 0
M  V30 731 O 70.1427 -0.167977 2.51941 0
M  V30 732 C 71.4557 2.77153 1.16647 0
M  V30 733 C 73.0037 2.85877 1.27449 0
M  V30 734 C 73.4787 4.2744 1.64497 0
M  V30 735 N 74.9697 4.30265 1.7154 0
M  V30 736 C 75.7047 5.3677 2.01656 0
M  V30 737 N 75.2007 6.53516 2.29976 0
M  V30 738 N 76.9937 5.24189 2.02934 0
M  V30 739 H 69.1447 2.10831 -0.257703 0
M  V30 740 H 71.4077 0.946534 -0.0527091 0
M  V30 741 H 71.1137 3.49442 0.397872 0
M  V30 742 H 70.9877 3.12722 2.10915 0
M  V30 743 H 73.3747 2.13824 2.0338 0
M  V30 744 H 73.4557 2.53887 0.312244 0
M  V30 745 H 73.0997 5.00021 0.891151 0
M  V30 746 H 73.0297 4.56896 2.61827 0
M  V30 747 H 75.5207 3.4607 1.51802 0
M  V30 748 H 75.8337 7.30506 2.52153 0
M  V30 749 H 74.1787 6.56737 2.27425 0
M  V30 750 H 77.3697 4.31988 1.80289 0
M  V30 751 H 77.5427 6.07286 2.26071 0
M  V30 752 N 70.9488 -0.749086 1.3866 0
M  V30 753 C 71.8788 -1.8764 1.38973 0
M  V30 754 C 72.8598 -1.68178 0.255004 0
M  V30 755 O 74.0448 -1.88704 0.458754 0
M  V30 756 C 71.1748 -3.25222 1.21851 0
M  V30 757 C 70.1288 -3.59295 2.32575 0
M  V30 758 C 69.4548 -4.95663 2.00555 0
M  V30 759 C 70.7548 -3.63709 3.7485 0
M  V30 760 H 72.4488 -1.87635 2.3331 0
M  V30 761 H 69.9948 -0.901329 1.12303 0
M  V30 762 H 71.9478 -4.03746 1.20695 0
M  V30 763 H 70.6718 -3.25719 0.239775 0
M  V30 764 H 69.3308 -2.83093 2.32925 0
M  V30 765 H 68.9788 -4.92724 1.01154 0
M  V30 766 H 68.6788 -5.19429 2.74714 0
M  V30 767 H 70.2028 -5.7656 2.01024 0
M  V30 768 H 71.6168 -4.32338 3.76506 0
M  V30 769 H 70.0138 -3.98986 4.48252 0
M  V30 770 H 71.0838 -2.63834 4.06841 0
M  V30 771 N 72.4269 -1.23603 -0.977757 0
M  V30 772 C 73.3899 -1.02069 -2.05218 0
M  V30 773 C 74.3899 0.0184305 -1.60789 0
M  V30 774 O 75.5799 -0.221569 -1.72785 0
M  V30 775 C 72.7119 -0.544926 -3.36517 0
M  V30 776 H 73.9049 -1.9742 -2.25755 0
M  V30 777 H 71.4579 -1.05684 -1.15155 0
M  V30 778 H 72.1929 0.412241 -3.21669 0
M  V30 779 H 71.9779 -1.2948 -3.70105 0
M  V30 780 H 73.4679 -0.414985 -4.15533 0
M  V30 781 N 73.905 1.17692 -1.04816 0
M  V30 782 C 75.321 1.39863 -0.768794 0
M  V30 783 C 75.521 1.91118 0.638451 0
M  V30 784 O 74.577 2.10036 1.40146 0
M  V30 785 C 75.89 2.39274 -1.82122 0
M  V30 786 C 77.438 2.52987 -1.843 0
M  V30 787 C 77.913 3.55669 -2.88555 0
M  V30 788 N 79.404 3.63183 -2.87493 0
M  V30 789 C 80.139 4.42381 -3.64811 0
M  V30 790 N 79.635 5.25125 -4.51903 0
M  V30 791 N 81.428 4.37217 -3.53267 0
M  V30 792 H 73.579 0.82752 -1.95617 0
M  V30 793 H 75.842 0.426123 -0.846831 0
M  V30 794 H 75.548 2.08678 -2.83102 0
M  V30 795 H 75.422 3.38725 -1.65967 0
M  V30 796 H 77.809 2.82896 -0.839869 0
M  V30 797 H 77.89 1.53623 -2.04532 0
M  V30 798 H 77.534 3.26499 -3.89051 0
M  V30 799 H 77.464 4.54728 -2.65575 0
M  V30 800 H 79.955 3.04103 -2.24343 0
M  V30 801 H 80.268 5.82728 -5.07591 0
M  V30 802 H 78.613 5.24519 -4.55966 0
M  V30 803 H 81.804 3.71626 -2.84625 0
M  V30 804 H 81.977 4.98696 -4.13771 0
M  V30 805 N 75.3831 0.828654 1.34056 0
M  V30 806 C 76.6601 0.341809 1.9259 0
M  V30 807 C 77.0401 -1.17158 1.75605 0
M  V30 808 O 76.3881 -1.98132 1.13824 0
M  V30 809 C 76.5981 0.777453 3.4023 0
M  V30 810 C 77.9461 0.779579 4.17382 0
M  V30 811 O 78.9701 0.7204 3.48839 0
M  V30 812 O 77.8291 0.857996 5.39723 0
M  V30 813 H 74.9231 0.0946085 0.821571 0
M  V30 814 H 77.4691 0.913827 1.42994 0
M  V30 815 H 76.2411 1.8196 3.46419 0
M  V30 816 H 75.8641 0.181444 3.97186 0
M  V30 817 N 76.8612 -1.46375 0.584142 0
M  V30 818 C 78.1072 -2.02678 0.0703716 0
M  V30 819 C 78.4402 -1.4545 -1.28678 0
M  V30 820 O 77.7152 -0.62014 -1.84349 0
M  V30 821 C 77.9982 -3.60099 0.00614674 0
M  V30 822 C 77.8512 -4.27709 1.3923 0
M  V30 823 C 79.1702 -4.34598 -0.693742 0
M  V30 824 H 76.2892 -0.736504 0.027047 0
M  V30 825 H 78.9312 -1.74501 0.751615 0
M  V30 826 H 77.0812 -3.84236 -0.574009 0
M  V30 827 H 78.7532 -4.14832 2.01773 0
M  V30 828 H 76.9962 -3.87016 1.95962 0
M  V30 829 H 77.6672 -5.36478 1.29982 0
M  V30 830 H 80.1432 -4.15615 -0.200869 0
M  V30 831 H 79.0192 -5.44318 -0.707714 0
M  V30 832 H 79.2802 -4.05759 -1.75533 0
M  V30 833 N 78.3393 -0.321999 -1.54275 0
M  V30 834 C 79.2723 0.58718 -2.20516 0
M  V30 835 C 80.2503 1.11693 -1.18167 0
M  V30 836 O 81.4343 1.18122 -1.46899 0
M  V30 837 C 78.5613 1.80554 -2.86562 0
M  V30 838 C 77.6073 1.40718 -4.02617 0
M  V30 839 S 78.4403 0.445218 -5.33646 0
M  V30 840 C 79.5963 1.6709 -6.03185 0
M  V30 841 H 79.8293 0.0244875 -2.9729 0
M  V30 842 H 77.3623 -0.106087 -1.54035 0
M  V30 843 H 79.3203 2.50462 -3.25237 0
M  V30 844 H 77.9813 2.33942 -2.09595 0
M  V30 845 H 77.1743 2.31501 -4.47687 0
M  V30 846 H 76.7763 0.78782 -3.65608 0
M  V30 847 H 79.0683 2.60856 -6.25268 0
M  V30 848 H 80.0113 1.26239 -6.96756 0
M  V30 849 H 80.4193 1.85716 -5.33076 0
M  V30 850 N 79.8174 1.5752 -0.0501392 0
M  V30 851 C 80.7644 2.1147 0.924603 0
M  V30 852 C 81.7344 1.02182 1.30951 0
M  V30 853 O 82.9194 1.29723 1.39916 0
M  V30 854 C 80.0594 2.66337 2.19451 0
M  V30 855 C 79.1724 3.89708 1.86418 0
M  V30 856 C 78.3074 4.32893 3.07859 0
M  V30 857 C 77.3464 5.48967 2.70742 0
M  V30 858 N 76.4834 5.87211 3.84874 0
M  V30 859 H 81.3234 2.94465 0.457639 0
M  V30 860 H 78.8604 1.45531 0.214266 0
M  V30 861 H 80.8184 2.96247 2.93758 0
M  V30 862 H 79.4484 1.86141 2.63726 0
M  V30 863 H 78.5004 3.66396 1.02264 0
M  V30 864 H 79.8124 4.74074 1.55096 0
M  V30 865 H 78.9664 4.6435 3.90466 0
M  V30 866 H 77.7054 3.47336 3.42358 0
M  V30 867 H 76.7104 5.17183 1.86551 0
M  V30 868 H 77.9354 6.3624 2.37436 0
M  V30 869 H 75.8814 5.04607 4.19175 0
M  V30 870 H 75.7984 6.66266 3.57247 0
M  V30 871 H 77.0664 6.23282 4.68123 0
M  V30 872 N 81.2955 -0.223234 1.56011 0
M  V30 873 C 82.2055 -1.29766 1.95443 0
M  V30 874 C 83.2215 -1.51373 0.858028 0
M  V30 875 O 84.3975 -1.64536 1.16146 0
M  V30 876 C 81.4625 -2.62772 2.26167 0
M  V30 877 C 80.5235 -2.49482 3.49367 0
M  V30 878 C 79.7565 -3.76145 3.78616 0
M  V30 879 O 79.9795 -4.79087 3.09568 0
M  V30 880 O 78.9135 -3.73358 4.72109 0
M  V30 881 H 82.7395 -0.99309 2.87004 0
M  V30 882 H 80.3245 -0.425958 1.43199 0
M  V30 883 H 82.2065 -3.41327 2.47131 0
M  V30 884 H 80.8815 -2.92913 1.37781 0
M  V30 885 H 79.7885 -1.69133 3.33684 0
M  V30 886 H 81.1215 -2.2428 4.38131 0
M  V30 887 N 82.7736 -1.49793 -0.48987 0
M  V30 888 C 83.7066 -1.61898 -1.60823 0
M  V30 889 C 84.6846 -0.467651 -1.5573 0
M  V30 890 O 85.8686 -0.684682 -1.75626 0
M  V30 891 C 82.9956 -1.58422 -2.99366 0
M  V30 892 C 82.0416 -2.78889 -3.22682 0
M  V30 893 S 82.8746 -4.40429 -3.04602 0
M  V30 894 C 84.0306 -4.39617 -4.4552 0
M  V30 895 H 84.2636 -2.56502 -1.50312 0
M  V30 896 H 81.7966 -1.38822 -0.675849 0
M  V30 897 H 83.7546 -1.57103 -3.79248 0
M  V30 898 H 82.4156 -0.650866 -3.07283 0
M  V30 899 H 81.6086 -2.72708 -4.23847 0
M  V30 900 H 81.2106 -2.77678 -2.50541 0
M  V30 901 H 83.5026 -4.12022 -5.37814 0
M  V30 902 H 84.4456 -5.41097 -4.56749 0
M  V30 903 H 84.8536 -3.69554 -4.2672 0
M  V30 904 N 84.2517 0.741722 -1.39055 0
M  V30 905 C 85.4997 1.49818 -1.35643 0
M  V30 906 C 85.8207 1.94938 0.0491642 0
M  V30 907 O 85.0907 1.68505 0.999141 0
M  V30 908 H 83.6707 0.555755 -0.499144 0
M  V30 909 H 86.3327 0.880957 -1.73854 0
M  V30 910 H 85.4287 2.38348 -2.01486 0
M  V30 911 N 85.7298 1.2412 0.971189 0
M  V30 912 C 86.9778 1.07668 1.71032 0
M  V30 913 C 87.2988 -0.385797 1.91146 0
M  V30 914 O 86.5688 -1.27569 1.4867 0
M  V30 915 H 85.1488 0.395429 0.633755 0
M  V30 916 H 87.8108 1.55984 1.16855 0
M  V30 917 H 86.9068 1.57195 2.69622 0
M  V30 918 N 87.2079 -1.17134 1.05439 0
M  V30 919 C 88.1579 -2.1919 0.627675 0
M  V30 920 C 89.1419 -1.57328 -0.337147 0
M  V30 921 O 90.3339 -1.76329 -0.153976 0
M  V30 922 C 87.4629 -3.43299 0.00651435 0
M  V30 923 C 86.5489 -4.12255 0.995312 0
M  V30 924 N 86.9399 -4.56997 2.16765 0
M  V30 925 C 85.2379 -4.38316 0.824336 0
M  V30 926 C 85.9389 -5.10239 2.7934 0
M  V30 927 N 84.9149 -5.02595 2.07122 0
M  V30 928 H 88.7169 -2.5149 1.52086 0
M  V30 929 H 86.2309 -1.33491 0.924868 0
M  V30 930 H 88.2279 -4.15693 -0.316965 0
M  V30 931 H 86.8879 -3.1249 -0.882033 0
M  V30 932 H 87.8989 -4.51006 2.54587 0
M  V30 933 H 84.5759 -4.17498 -0.0129526 0
M  V30 934 H 85.9659 -5.54961 3.78772 0
M  V30 935 N 88.686 -0.835752 -1.33615 0
M  V30 936 C 89.636 -0.238856 -2.26745 0
M  V30 937 C 90.62 0.604343 -1.49119 0
M  V30 938 O 91.812 0.456822 -1.71003 0
M  V30 939 C 88.941 0.587725 -3.38232 0
M  V30 940 C 88.027 -0.266811 -4.2326 0
M  V30 941 N 88.418 -1.34403 -4.87616 0
M  V30 942 C 86.716 -0.0533131 -4.45968 0
M  V30 943 C 87.417 -1.86819 -5.50884 0
M  V30 944 N 86.393 -1.17013 -5.30857 0
M  V30 945 H 90.195 -1.06266 -2.74016 0
M  V30 946 H 87.709 -0.679881 -1.47483 0
M  V30 947 H 89.706 1.03161 -4.03935 0
M  V30 948 H 88.366 1.40954 -2.9251 0
M  V30 949 H 89.377 -1.7269 -4.88261 0
M  V30 950 H 86.054 0.735312 -4.10974 0
M  V30 951 H 87.444 -2.7701 -6.1214 0
M  V30 952 N 90.1641 1.46063 -0.591896 0
M  V30 953 C 91.4131 2.01547 -0.0786637 0
M  V30 954 C 91.7261 1.46796 1.29268 0
M  V30 955 O 92.9321 1.94157 1.89777 0
M  V30 956 C 91.3881 3.59787 -0.0900024 0
M  V30 957 C 90.9961 4.23534 -1.46023 0
M  V30 958 C 92.7401 4.22895 0.368806 0
M  V30 959 C 90.6471 5.73881 -1.4288 0
M  V30 960 H 89.5771 0.753564 -0.0256388 0
M  V30 961 H 92.2281 1.677 -0.744905 0
M  V30 962 H 90.6101 3.90752 0.642586 0
M  V30 963 H 91.7841 4.04167 -2.21328 0
M  V30 964 H 90.0991 3.72558 -1.85982 0
M  V30 965 H 92.6961 5.33116 0.411258 0
M  V30 966 H 93.0391 3.9247 1.38827 0
M  V30 967 H 93.5721 3.9659 -0.31001 0
M  V30 968 H 90.3111 6.0898 -2.42536 0
M  V30 969 H 89.8311 5.95486 -0.718095 0
M  V30 970 H 91.5101 6.36776 -1.14565 0
M  V30 971 N 91.6422 0.330177 1.54103 0
M  V30 972 C 92.8882 -0.270806 2.00984 0
M  V30 973 C 93.2212 -1.51265 1.21789 0
M  V30 974 O 92.4962 -1.92142 0.301927 0
M  V30 975 C 92.7792 -0.598339 3.55094 0
M  V30 976 C 92.6322 0.654674 4.4501 0
M  V30 977 C 93.9512 -1.41334 4.16789 0
M  V30 978 H 91.0702 -0.0969531 0.730595 0
M  V30 979 H 93.7122 0.448066 1.84641 0
M  V30 980 H 91.8622 -1.21078 3.69151 0
M  V30 981 H 93.5342 1.29285 4.42813 0
M  V30 982 H 91.7772 1.28224 4.14416 0
M  V30 983 H 92.4482 0.380944 5.50684 0
M  V30 984 H 94.9242 -0.895597 4.06347 0
M  V30 985 H 93.8002 -1.61127 5.24718 0
M  V30 986 H 94.0612 -2.41146 3.70541 0
M  V30 987 N 93.1203 -1.57491 0.0584922 0
M  V30 988 C 94.0833 -2.1085 -0.898617 0
M  V30 989 C 95.0833 -1.02964 -1.23511 0
M  V30 990 O 96.2733 -1.29007 -1.17059 0
M  V30 991 C 93.4053 -2.59881 -2.20623 0
M  V30 992 H 94.5983 -2.96715 -0.435936 0
M  V30 993 H 92.1513 -1.55141 -0.190023 0
M  V30 994 H 92.8863 -1.77431 -2.71457 0
M  V30 995 H 92.6713 -3.38727 -1.97501 0
M  V30 996 H 94.1613 -3.01285 -2.89166 0
M  V30 997 N 94.5984 0.214957 -1.56127 0
M  V30 998 C 95.5284 1.2695 -1.95974 0
M  V30 999 C 96.5094 1.48539 -0.828868 0
M  V30 1000 O 97.6944 1.60611 -1.09168 0
M  V30 1001 C 94.8244 2.61794 -2.28214 0
M  V30 1002 C 93.7784 2.54851 -3.43853 0
M  V30 1003 C 93.1044 3.93785 -3.61715 0
M  V30 1004 C 94.4044 2.09065 -4.78632 0
M  V30 1005 H 96.0984 0.93846 -2.84312 0
M  V30 1006 H 93.6444 0.449996 -1.36788 0
M  V30 1007 H 95.5974 3.35731 -2.54682 0
M  V30 1008 H 94.3214 2.96599 -1.36736 0
M  V30 1009 H 92.9804 1.8337 -3.17444 0
M  V30 1010 H 92.6284 4.25908 -2.67602 0
M  V30 1011 H 92.3284 3.90019 -4.39498 0
M  V30 1012 H 93.8524 4.69374 -3.90539 0
M  V30 1013 H 95.2664 2.7275 -5.04262 0
M  V30 1014 H 93.6634 2.16346 -5.59745 0
M  V30 1015 H 94.7334 1.04315 -4.73547 0
M  V30 1016 N 96.0765 1.50051 0.48192 0
M  V30 1017 C 97.3165 1.62128 1.24474 0
M  V30 1018 C 97.6805 0.309742 1.89485 0
M  V30 1019 O 98.8815 0.305854 2.67054 0
M  V30 1020 C 97.1525 2.76151 2.26882 0
M  V30 1021 S 98.7115 3.08297 3.12247 0
M  V30 1022 H 95.5295 0.571661 0.422759 0
M  V30 1023 H 98.1315 1.87791 0.54359 0
M  V30 1024 H 96.8355 3.69942 1.77683 0
M  V30 1025 H 96.3665 2.52541 3.0164 0
M  V30 1026 H 98.3815 2.51287 4.27866 0
M  V30 1027 N 97.5546 -0.734337 1.39446 0
M  V30 1028 C 98.8006 -1.49613 1.36908 0
M  V30 1029 C 99.1336 -1.94169 -0.0347829 0
M  V30 1030 O 98.4086 -1.66833 -0.999847 0
M  V30 1031 C 98.6916 -2.73534 2.34203 0
M  V30 1032 C 98.5446 -2.34993 3.83534 0
M  V30 1033 C 99.8636 -3.75635 2.29317 0
M  V30 1034 H 96.9826 -0.542714 0.498629 0
M  V30 1035 H 99.6246 -0.839597 1.70443 0
M  V30 1036 H 97.7746 -3.29553 2.05736 0
M  V30 1037 H 99.4466 -1.84601 4.22753 0
M  V30 1038 H 97.6896 -1.67213 4.00278 0
M  V30 1039 H 98.3606 -3.23738 4.47099 0
M  V30 1040 H 100.837 -3.29203 2.54489 0
M  V30 1041 H 99.7126 -4.60008 2.99472 0
M  V30 1042 H 99.9736 -4.22603 1.29842 0
M  V30 1043 N 99.0327 -1.24633 -0.964593 0
M  V30 1044 C 99.9627 -1.06611 -2.07741 0
M  V30 1045 C 100.944 0.0218666 -1.70086 0
M  V30 1046 O 102.129 -0.145793 -1.93652 0
M  V30 1047 C 99.2587 -0.673444 -3.40708 0
M  V30 1048 C 98.2127 -1.71054 -3.92332 0
M  V30 1049 C 97.5387 -1.17285 -5.21678 0
M  V30 1050 C 98.8387 -3.10718 -4.19824 0
M  V30 1051 H 100.533 -1.99693 -2.23076 0
M  V30 1052 H 98.0787 -0.96152 -1.07195 0
M  V30 1053 H 100.032 -0.534345 -4.17998 0
M  V30 1054 H 98.7557 0.293073 -3.25282 0
M  V30 1055 H 97.4147 -1.83791 -3.17201 0
M  V30 1056 H 97.0627 -0.196847 -5.02615 0
M  V30 1057 H 96.7627 -1.86592 -5.57187 0
M  V30 1058 H 98.2867 -1.04593 -6.01575 0
M  V30 1059 H 99.7007 -3.01192 -4.87808 0
M  V30 1060 H 98.0977 -3.77406 -4.66567 0
M  V30 1061 H 99.1677 -3.58524 -3.26479 0
M  V30 1062 N 100.511 1.16574 -1.06058 0
M  V30 1063 C 101.458 2.20883 -0.669263 0
M  V30 1064 C 102.428 1.62729 0.332918 0
M  V30 1065 O 103.613 1.895 0.222346 0
M  V30 1066 C 100.753 3.45049 -0.0593572 0
M  V30 1067 C 99.8658 4.17458 -1.11143 0
M  V30 1068 C 99.0008 5.29135 -0.467916 0
M  V30 1069 C 98.0398 5.93343 -1.50369 0
M  V30 1070 N 97.1768 6.96516 -0.883706 0
M  V30 1071 H 102.017 2.53709 -1.5632 0
M  V30 1072 H 99.5538 1.24616 -0.781625 0
M  V30 1073 H 101.512 4.16033 0.311771 0
M  V30 1074 H 100.142 3.12781 0.797992 0
M  V30 1075 H 99.1938 3.45101 -1.60029 0
M  V30 1076 H 100.506 4.61307 -1.89731 0
M  V30 1077 H 99.6598 6.06684 -0.0436871 0
M  V30 1078 H 98.3988 4.86443 0.349864 0
M  V30 1079 H 97.4038 5.14517 -1.93784 0
M  V30 1080 H 98.6288 6.38114 -2.32352 0
M  V30 1081 H 96.5748 6.55943 -0.086595 0
M  V30 1082 H 96.4918 7.38723 -1.607 0
M  V30 1083 H 97.7598 7.77993 -0.484543 0
M  V30 1084 N 101.989 0.842826 1.3317 0
M  V30 1085 C 103.237 0.439577 1.97262 0
M  V30 1086 C 103.558 -1.00548 1.67078 0
M  V30 1087 O 102.828 -1.70098 0.971779 0
M  V30 1088 H 101.408 0.159558 0.72976 0
M  V30 1089 H 104.07 1.07665 1.62463 0
M  V30 1090 H 103.166 0.574886 3.0676 0
M  V30 1091 N 103.467 -1.45747 0.599634 0
M  V30 1092 C 104.715 -2.01893 0.0915472 0
M  V30 1093 C 105.036 -1.47155 -1.27946 0
M  V30 1094 O 104.306 -0.66273 -1.84349 0
M  V30 1095 H 102.886 -0.746363 0.0308524 0
M  V30 1096 H 105.548 -1.78645 0.779237 0
M  V30 1097 H 104.644 -3.1208 0.0353086 0
M  V30 1098 N 104.945 -0.338344 -1.53925 0
M  V30 1099 C 106.175 0.260919 -2.04946 0
M  V30 1100 C 106.583 1.45174 -1.2133 0
M  V30 1101 O 105.926 1.82122 -0.240262 0
M  V30 1102 C 105.988 0.744596 -3.51704 0
M  V30 1103 C 105.652 -0.325883 -4.55837 0
M  V30 1104 C 106.649 -1.16687 -5.06636 0
M  V30 1105 C 104.334 -0.478317 -5.00017 0
M  V30 1106 C 106.328 -2.14588 -6.00192 0
M  V30 1107 C 104.015 -1.46073 -5.93385 0
M  V30 1108 C 105.013 -2.29297 -6.4336 0
M  V30 1109 O 104.701 -3.25867 -7.34892 0
M  V30 1110 H 104.433 0.0551207 -0.673749 0
M  V30 1111 H 106.987 -0.486984 -1.99544 0
M  V30 1112 H 105.217 1.54366 -3.54553 0
M  V30 1113 H 106.906 1.26383 -3.85723 0
M  V30 1114 H 107.672 -1.06016 -4.73271 0
M  V30 1115 H 103.551 0.159613 -4.60724 0
M  V30 1116 H 107.095 -2.79585 -6.39123 0
M  V30 1117 H 102.992 -1.56802 -6.26166 0
M  V30 1118 H 103.76 -3.21278 -7.5281 0
M  V30 1119 N 106.423 1.57458 -0.0668435 0
M  V30 1120 C 107.37 2.12439 0.902122 0
M  V30 1121 C 108.34 1.03565 1.2986 0
M  V30 1122 O 109.525 1.312 1.38532 0
M  V30 1123 C 106.665 2.6865 2.16614 0
M  V30 1124 C 105.778 3.91663 1.82274 0
M  V30 1125 C 104.913 4.36134 3.0325 0
M  V30 1126 C 103.952 5.51808 2.64904 0
M  V30 1127 N 103.089 5.9126 3.78624 0
M  V30 1128 H 107.929 2.94934 0.426382 0
M  V30 1129 H 105.466 1.4575 0.198819 0
M  V30 1130 H 107.424 2.99346 2.90599 0
M  V30 1131 H 106.054 1.88928 2.61737 0
M  V30 1132 H 105.106 3.6746 0.983719 0
M  V30 1133 H 106.418 4.75693 1.50059 0
M  V30 1134 H 105.572 4.68465 3.85519 0
M  V30 1135 H 104.311 3.50948 3.38655 0
M  V30 1136 H 103.316 5.19133 1.81055 0
M  V30 1137 H 104.541 6.38722 2.30675 0
M  V30 1138 H 102.487 5.09024 4.138 0
M  V30 1139 H 102.404 6.70018 3.5016 0
M  V30 1140 H 103.672 6.28212 4.61486 0
M  V30 1141 N 107.901 -0.206675 1.56239 0
M  V30 1142 C 109.148 -0.928842 1.79941 0
M  V30 1143 C 109.476 -1.83734 0.638131 0
M  V30 1144 O 108.731 -1.92039 -0.376746 0
M  V30 1145 C 109.03 -1.78675 3.09532 0
M  V30 1146 C 108.696 -1.03022 4.38973 0
M  V30 1147 C 107.358 -0.821302 4.74139 0
M  V30 1148 C 109.71 -0.497081 5.18824 0
M  V30 1149 C 107.038 -0.0675719 5.86661 0
M  V30 1150 C 109.39 0.24338 6.32132 0
M  V30 1151 C 108.054 0.463422 6.65889 0
M  V30 1152 H 107.324 -0.339887 0.658451 0
M  V30 1153 H 109.971 -0.195977 1.90495 0
M  V30 1154 H 108.276 -2.58794 2.94165 0
M  V30 1155 H 109.973 -2.34792 3.25075 0
M  V30 1156 H 106.563 -1.20306 4.11369 0
M  V30 1157 H 110.747 -0.645921 4.92079 0
M  V30 1158 H 106.003 0.112995 6.11296 0
M  V30 1159 H 110.177 0.66393 6.93228 0
M  V30 1160 H 107.804 1.04938 7.52922 0
M  V30 1161 N 109.379 -1.50304 -0.473955 0
M  V30 1162 C 110.626 -1.6115 -1.22625 0
M  V30 1163 C 110.954 -0.310517 -1.92005 0
M  V30 1164 O 110.209 0.703419 -1.82621 0
M  V30 1165 C 110.508 -2.73938 -2.29549 0
M  V30 1166 C 110.174 -4.14519 -1.7744 0
M  V30 1167 C 108.836 -4.5277 -1.62949 0
M  V30 1168 C 111.188 -5.02392 -1.3875 0
M  V30 1169 C 108.516 -5.76639 -1.08187 0
M  V30 1170 C 110.868 -6.26805 -0.854309 0
M  V30 1171 C 109.532 -6.63861 -0.696011 0
M  V30 1172 H 108.802 -0.589691 -0.448715 0
M  V30 1173 H 111.449 -1.84228 -0.522705 0
M  V30 1174 H 109.754 -2.44937 -3.05799 0
M  V30 1175 H 111.451 -2.79534 -2.87509 0
M  V30 1176 H 108.041 -3.8434 -1.89685 0
M  V30 1177 H 112.225 -4.73474 -1.4878 0
M  V30 1178 H 107.481 -6.04027 -0.946666 0
M  V30 1179 H 111.655 -6.94258 -0.545843 0
M  V30 1180 H 109.282 -7.59722 -0.26952 0
M  V30 1181 N 110.857 0.726932 -1.39834 0
M  V30 1182 C 111.82 1.82269 -1.38962 0
M  V30 1183 C 112.82 1.58248 -0.285334 0
M  V30 1184 O 114.01 1.65499 -0.54366 0
M  V30 1185 C 111.142 3.20186 -1.17019 0
M  V30 1186 H 112.335 1.84443 -2.36476 0
M  V30 1187 H 109.888 0.931416 -1.25516 0
M  V30 1188 H 110.623 3.23669 -0.202204 0
M  V30 1189 H 110.408 3.3902 -1.96998 0
M  V30 1190 H 111.898 4.00235 -1.1917 0
M  V30 1191 N 112.336 1.25143 0.95797 0
M  V30 1192 C 113.613 1.00472 1.67823 0
M  V30 1193 C 113.993 -0.470056 2.058 0
M  V30 1194 O 113.341 -1.44663 1.76875 0
M  V30 1195 C 113.551 1.9372 2.90299 0
M  V30 1196 C 114.899 2.21371 3.62326 0
M  V30 1197 O 115.923 1.91451 3.00375 0
M  V30 1198 O 114.782 2.72231 4.7387 0
M  V30 1199 H 111.876 0.380752 0.734137 0
M  V30 1200 H 114.422 1.36283 1.01119 0
M  V30 1201 H 113.194 2.93316 2.59001 0
M  V30 1202 H 112.817 1.58286 3.64735 0
M  V30 1203 N 113.814 -1.1601 1.06675 0
M  V30 1204 C 114.744 -2.22688 0.702307 0
M  V30 1205 C 115.725 -1.67306 -0.307032 0
M  V30 1206 O 116.91 -1.93352 -0.181305 0
M  V30 1207 C 114.04 -3.47178 0.092038 0
M  V30 1208 C 112.994 -4.15477 1.02777 0
M  V30 1209 C 112.32 -5.33963 0.28061 0
M  V30 1210 C 113.62 -4.66019 2.35846 0
M  V30 1211 H 115.314 -2.53429 1.59419 0
M  V30 1212 H 112.86 -1.21813 0.767961 0
M  V30 1213 H 114.813 -4.21037 -0.174814 0
M  V30 1214 H 113.537 -3.15749 -0.834877 0
M  V30 1215 H 112.196 -3.43549 1.27944 0
M  V30 1216 H 111.844 -4.98788 -0.649545 0
M  V30 1217 H 111.544 -5.806 0.904258 0
M  V30 1218 H 113.068 -6.10596 0.021396 0
M  V30 1219 H 114.482 -5.3144 2.15045 0
M  V30 1220 H 112.879 -5.23293 2.93743 0
M  V30 1221 H 113.949 -3.82023 2.98641 0
M  V30 1222 N 115.292 -0.849877 -1.32721 0
M  V30 1223 C 116.222 -0.306308 -2.31482 0
M  V30 1224 C 117.203 0.591952 -1.59468 0
M  V30 1225 O 118.388 0.513199 -1.87296 0
M  V30 1226 C 115.518 0.510204 -3.43532 0
M  V30 1227 C 114.472 -0.293209 -4.26994 0
M  V30 1228 C 113.798 0.647743 -5.30762 0
M  V30 1229 C 115.098 -1.51634 -4.99804 0
M  V30 1230 H 116.792 -1.13153 -2.77195 0
M  V30 1231 H 114.338 -0.545553 -1.33266 0
M  V30 1232 H 116.291 0.900856 -4.11658 0
M  V30 1233 H 115.015 1.36874 -2.96535 0
M  V30 1234 H 113.674 -0.665555 -3.60508 0
M  V30 1235 H 113.322 1.50299 -4.8002 0
M  V30 1236 H 113.022 0.11422 -5.87489 0
M  V30 1237 H 114.546 1.03567 -6.01753 0
M  V30 1238 H 115.96 -1.19824 -5.60638 0
M  V30 1239 H 114.357 -1.98745 -5.66234 0
M  V30 1240 H 115.427 -2.28018 -4.27943 0
M  V30 1241 N 116.77 1.45427 -0.607355 0
M  V30 1242 C 118.047 1.9557 -0.0344566 0
M  V30 1243 C 118.427 1.54979 1.43334 0
M  V30 1244 O 117.775 0.812241 2.13576 0
M  V30 1245 C 117.985 3.48226 -0.232321 0
M  V30 1246 C 119.333 4.2445 -0.113001 0
M  V30 1247 O 120.357 3.55829 -0.162431 0
M  V30 1248 O 119.216 5.465 0.00209442 0
M  V30 1249 H 116.31 0.826222 0.0358667 0
M  V30 1250 H 118.856 1.55594 -0.6774 0
M  V30 1251 H 117.628 3.70739 -1.25174 0
M  V30 1252 H 117.251 3.95092 0.445896 0
M  V30 1253 N 118.248 0.346503 1.53744 0
M  V30 1254 C 119.478 -0.250047 2.05081 0
M  V30 1255 C 119.886 -1.44529 1.22098 0
M  V30 1256 O 119.229 -1.81992 0.249917 0
M  V30 1257 C 119.291 -0.725934 3.52094 0
M  V30 1258 C 118.955 0.350053 4.55657 0
M  V30 1259 C 119.952 1.19372 5.0601 0
M  V30 1260 C 117.637 0.504827 4.99757 0
M  V30 1261 C 119.631 2.17768 5.99046 0
M  V30 1262 C 117.318 1.49218 5.92602 0
M  V30 1263 C 118.316 2.32706 6.42135 0
M  V30 1264 O 118.004 3.2976 7.33153 0
M  V30 1265 H 117.736 -0.0515469 0.674032 0
M  V30 1266 H 120.29 0.497559 1.99282 0
M  V30 1267 H 118.52 -1.52483 3.55367 0
M  V30 1268 H 120.209 -1.24336 3.86388 0
M  V30 1269 H 120.975 1.08525 4.72702 0
M  V30 1270 H 116.854 -0.135178 4.60802 0
M  V30 1271 H 120.398 2.82971 6.37631 0
M  V30 1272 H 116.295 1.6012 6.25325 0
M  V30 1273 H 117.063 3.25265 7.51096 0
M  V30 1274 N 119.726 -1.57421 0.075193 0
M  V30 1275 C 120.975 -1.92794 -0.592731 0
M  V30 1276 C 121.288 -0.957478 -1.70563 0
M  V30 1277 O 122.494 -1.20417 -2.43335 0
M  V30 1278 C 120.95 -3.42495 -1.10569 0
M  V30 1279 C 120.558 -4.47994 -0.0236121 0
M  V30 1280 C 122.302 -3.86864 -1.74748 0
M  V30 1281 C 120.209 -5.88829 -0.550803 0
M  V30 1282 H 119.139 -0.719591 -0.225177 0
M  V30 1283 H 121.79 -1.82902 0.147978 0
M  V30 1284 H 120.172 -3.47471 -1.89947 0
M  V30 1285 H 121.346 -4.54637 0.751099 0
M  V30 1286 H 119.661 -4.13113 0.522159 0
M  V30 1287 H 122.258 -4.8947 -2.15229 0
M  V30 1288 H 122.601 -3.24417 -2.60882 0
M  V30 1289 H 123.134 -3.84504 -1.01986 0
M  V30 1290 H 119.873 -6.54929 0.273457 0
M  V30 1291 H 119.393 -5.85698 -1.29296 0
M  V30 1292 H 121.072 -6.38811 -1.02613 0
M  V30 1293 N 121.204 0.198386 -1.56346 0
M  V30 1294 C 122.151 1.24589 -1.94284 0
M  V30 1295 C 123.121 1.454 -0.802997 0
M  V30 1296 O 124.306 1.58588 -1.06087 0
M  V30 1297 C 121.446 2.58631 -2.28482 0
M  V30 1298 C 120.559 2.45426 -3.55514 0
M  V30 1299 C 119.694 3.7215 -3.79049 0
M  V30 1300 C 118.733 3.53763 -4.99518 0
M  V30 1301 N 117.87 4.72491 -5.19323 0
M  V30 1302 H 122.71 0.915356 -2.83593 0
M  V30 1303 H 120.247 0.440629 -1.40346 0
M  V30 1304 H 122.205 3.3672 -2.46324 0
M  V30 1305 H 120.835 2.89734 -1.42317 0
M  V30 1306 H 119.887 1.58652 -3.45737 0
M  V30 1307 H 121.199 2.27772 -4.43758 0
M  V30 1308 H 120.353 4.58679 -3.97113 0
M  V30 1309 H 119.092 3.92754 -2.89129 0
M  V30 1310 H 118.097 2.65619 -4.8138 0
M  V30 1311 H 119.322 3.34607 -5.90944 0
M  V30 1312 H 117.268 4.93365 -4.3235 0
M  V30 1313 H 117.185 4.5765 -6.01741 0
M  V30 1314 H 118.453 5.6038 -5.41843 0
M  V30 1315 N 122.682 1.50554 0.465978 0
M  V30 1316 C 123.645 1.69233 1.54574 0
M  V30 1317 C 124.645 0.562901 1.50626 0
M  V30 1318 O 125.835 0.830016 1.53155 0
M  V30 1319 C 122.967 1.7223 2.94193 0
M  V30 1320 H 124.16 2.65571 1.39327 0
M  V30 1321 H 121.713 1.40111 0.692711 0
M  V30 1322 H 122.448 0.77603 3.14878 0
M  V30 1323 H 122.233 2.54285 2.98466 0
M  V30 1324 H 123.723 1.88618 3.72576 0
M  V30 1325 N 124.16 -0.719506 1.40217 0
M  V30 1326 C 125.09 -1.8465 1.42922 0
M  V30 1327 C 126.071 -1.67599 0.29062 0
M  V30 1328 O 127.256 -1.87688 0.498677 0
M  V30 1329 C 124.386 -3.22565 1.28722 0
M  V30 1330 C 123.34 -3.54281 2.40144 0
M  V30 1331 C 122.666 -4.91298 2.11023 0
M  V30 1332 C 123.966 -3.55676 3.82481 0
M  V30 1333 H 125.66 -1.82644 2.37237 0
M  V30 1334 H 123.206 -0.877305 1.1419 0
M  V30 1335 H 125.159 -4.01095 1.29232 0
M  V30 1336 H 123.883 -3.25137 0.308811 0
M  V30 1337 H 122.542 -2.78088 2.38877 0
M  V30 1338 H 122.19 -4.90468 1.11582 0
M  V30 1339 H 121.89 -5.13485 2.8567 0
M  V30 1340 H 123.414 -5.72166 2.13209 0
M  V30 1341 H 124.828 -4.24254 3.85592 0
M  V30 1342 H 123.225 -3.89388 4.56614 0
M  V30 1343 H 124.295 -2.55144 4.12346 0
M  V30 1344 N 125.638 -1.25649 -0.95132 0
M  V30 1345 C 126.586 -1.06118 -2.06982 0
M  V30 1346 C 127.58 0.00889169 -1.69398 0
M  V30 1347 O 128.786 -0.146988 -1.79399 0
M  V30 1348 H 125.161 -0.326248 -0.677544 0
M  V30 1349 H 127.132 -2.00932 -2.2061 0
M  V30 1350 C 125.881 -0.700145 -3.40578 0
M  V30 1351 H 125.204 -1.51537 -3.69968 0
M  V30 1352 H 126.644 -0.603211 -4.19687 0
M  V30 1353 C 125.103 0.59403 -3.31622 0
M  V30 1354 O 125.633 1.63522 -3.66911 0
M  V30 1355 N 123.839 0.58089 -2.84735 0
M  V30 1356 H 123.386 -0.266783 -2.56215 0
M  V30 1357 H 123.344 1.44695 -2.79125 0
M  V30 1358 N 127.117 1.15442 -1.07289 0
M  V30 1359 C 128.533 1.38201 -0.798288 0
M  V30 1360 C 128.733 1.92429 0.597769 0
M  V30 1361 O 127.789 2.12962 1.3566 0
M  V30 1362 C 129.102 2.35357 -1.87156 0
M  V30 1363 C 130.65 2.49021 -1.89624 0
M  V30 1364 C 131.125 3.49468 -2.96034 0
M  V30 1365 N 132.616 3.57003 -2.95132 0
M  V30 1366 C 133.351 4.34543 -3.74112 0
M  V30 1367 N 132.847 5.15421 -4.6294 0
M  V30 1368 N 134.64 4.29625 -3.62462 0
M  V30 1369 H 126.791 0.78584 -1.97328 0
M  V30 1370 H 129.054 0.408065 -0.855679 0
M  V30 1371 H 128.76 2.02626 -2.87464 0
M  V30 1372 H 128.634 3.35129 -1.73114 0
M  V30 1373 H 131.021 2.81051 -0.899687 0
M  V30 1374 H 131.102 1.4925 -2.07745 0
M  V30 1375 H 130.746 3.18173 -3.95889 0
M  V30 1376 H 130.676 4.48992 -2.75161 0
M  V30 1377 H 133.167 2.99276 -2.30743 0
M  V30 1378 H 133.48 5.7183 -5.19837 0
M  V30 1379 H 131.825 5.14729 -4.66989 0
M  V30 1380 H 135.016 3.65505 -2.92444 0
M  V30 1381 H 135.189 4.89807 -4.24256 0
M  V30 1382 N 128.595 0.856903 1.32268 0
M  V30 1383 C 129.543 0.291987 2.3076 0
M  V30 1384 C 130.537 -0.585857 1.58947 0
M  V30 1385 O 131.743 -0.47341 1.73663 0
M  V30 1386 H 128.118 0.075721 0.748178 0
M  V30 1387 H 130.089 1.13687 2.75895 0
M  V30 1388 C 128.838 -0.502869 3.44044 0
M  V30 1389 H 128.161 0.163328 3.99466 0
M  V30 1390 H 129.601 -0.863691 4.1511 0
M  V30 1391 C 128.06 -1.68898 2.91505 0
M  V30 1392 O 128.59 -2.78811 2.89184 0
M  V30 1393 N 126.796 -1.51679 2.47875 0
M  V30 1394 H 126.343 -0.622666 2.49961 0
M  V30 1395 H 126.301 -2.31184 2.13076 0
M  V30 1396 N 130.073 -1.45103 0.615059 0
M  V30 1397 C 131.298 -2.07064 0.117988 0
M  V30 1398 C 131.723 -1.4554 -1.19163 0
M  V30 1399 O 131.081 -0.550855 -1.72729 0
M  V30 1400 C 131.129 -3.606 -0.000288387 0
M  V30 1401 O 130.233 -3.98847 -1.04856 0
M  V30 1402 H 129.574 -0.659467 0.0774581 0
M  V30 1403 H 132.104 -1.86236 0.847186 0
M  V30 1404 H 132.114 -4.07529 -0.196091 0
M  V30 1405 H 130.789 -4.04765 0.955932 0
M  V30 1406 H 129.366 -3.63577 -0.828619 0
M  V30 1407 N 131.551 -0.354651 -1.53558 0
M  V30 1408 C 132.828 0.294281 -1.93374 0
M  V30 1409 C 133.208 1.67313 -1.28723 0
M  V30 1410 O 132.556 2.24179 -0.442247 0
M  V30 1411 C 132.766 0.355445 -3.47185 0
M  V30 1412 C 134.114 0.601007 -4.20325 0
M  V30 1413 O 135.138 0.437106 -3.53508 0
M  V30 1414 O 133.997 0.919322 -5.38712 0
M  V30 1415 H 131.091 0.174033 -0.808481 0
M  V30 1416 H 133.637 -0.406638 -1.64756 0
M  V30 1417 H 132.409 -0.611729 -3.86489 0
M  V30 1418 H 132.032 1.1027 -3.82003 0
M  V30 1419 N 133.029 1.57378 -0.0835403 0
M  V30 1420 C 134.445 1.57246 0.273109 0
M  V30 1421 C 134.645 1.09385 1.69225 0
M  V30 1422 O 133.701 0.765051 2.40631 0
M  V30 1423 C 135.014 3.00614 0.0720628 0
M  V30 1424 C 136.562 3.12684 0.1407 0
M  V30 1425 C 137.037 4.57989 -0.0322094 0
M  V30 1426 N 138.528 4.63194 0.0230085 0
M  V30 1427 C 139.263 5.73335 -0.0861941 0
M  V30 1428 N 138.759 6.9235 -0.24958 0
M  V30 1429 N 140.552 5.62093 -0.0282886 0
M  V30 1430 H 132.703 1.86801 -1.0109 0
M  V30 1431 H 134.966 0.861687 -0.395222 0
M  V30 1432 H 134.672 3.39786 -0.907662 0
M  V30 1433 H 134.546 3.68193 0.81936 0
M  V30 1434 H 136.933 2.73391 1.11092 0
M  V30 1435 H 137.014 2.47719 -0.637896 0
M  V30 1436 H 136.658 4.97973 -0.999247 0
M  V30 1437 H 136.588 5.21 0.765937 0
M  V30 1438 H 139.079 3.77613 0.14722 0
M  V30 1439 H 139.392 7.72117 -0.324733 0
M  V30 1440 H 137.737 6.94415 -0.285097 0
M  V30 1441 H 140.928 4.67997 0.0981408 0
M  V30 1442 H 141.101 6.47895 -0.116845 0
M  V30 1443 N 134.507 -0.190092 1.56449 0
M  V30 1444 C 135.732 -0.929864 1.85387 0
M  V30 1445 C 136.157 -1.7585 0.667704 0
M  V30 1446 O 135.515 -1.77198 -0.383459 0
M  V30 1447 C 135.563 -1.79773 3.12593 0
M  V30 1448 O 134.667 -2.89713 2.93496 0
M  V30 1449 H 134.008 -0.261574 0.610307 0
M  V30 1450 H 136.538 -0.193896 2.03679 0
M  V30 1451 H 136.548 -2.20139 3.43515 0
M  V30 1452 H 135.223 -1.18892 3.98544 0
M  V30 1453 H 133.8 -2.53065 2.73884 0
M  V30 1454 N 135.985 -1.50799 -0.457987 0
M  V30 1455 C 137.234 -1.6168 -1.20593 0
M  V30 1456 C 137.547 -0.32888 -1.92815 0
M  V30 1457 O 138.753 -0.316773 -2.69646 0
M  V30 1458 C 137.209 -2.8545 -2.19195 0
M  V30 1459 C 136.817 -4.21168 -1.52715 0
M  V30 1460 C 138.561 -3.05681 -2.94549 0
M  V30 1461 C 136.468 -5.3611 -2.4968 0
M  V30 1462 H 135.398 -0.602134 -0.453818 0
M  V30 1463 H 138.049 -1.77245 -0.475031 0
M  V30 1464 H 136.431 -2.63472 -2.95632 0
M  V30 1465 H 137.605 -4.53449 -0.819775 0
M  V30 1466 H 135.92 -4.06648 -0.895922 0
M  V30 1467 H 138.517 -3.88727 -3.67145 0
M  V30 1468 H 138.86 -2.17929 -3.54701 0
M  V30 1469 H 139.393 -3.27901 -2.25223 0
M  V30 1470 H 136.132 -6.26057 -1.94249 0
M  V30 1471 H 135.652 -5.0823 -3.18532 0
M  V30 1472 H 137.331 -5.6722 -3.11241 0
M  V30 1473 N 137.463 0.71206 -1.40597 0
M  V30 1474 C 138.874 1.29135 -1.34837 0
M  V30 1475 C 139.225 1.96186 -0.0235395 0
M  V30 1476 O 138.35 1.97768 0.878444 0
M  V30 1477 C 138.945 2.34827 -2.44217 0
M  V30 1478 C 137.504 2.88371 -2.41907 0
M  V30 1479 C 136.651 1.62202 -2.24913 0
M  V30 1480 H 139.602 0.507944 -1.50352 0
M  V30 1481 H 139.623 3.15749 -2.12327 0
M  V30 1482 H 139.135 1.85996 -3.40627 0
M  V30 1483 H 137.236 3.41422 -1.49204 0
M  V30 1484 H 137.349 3.39925 -3.37621 0
M  V30 1485 H 135.713 1.874 -1.72492 0
M  V30 1486 H 136.496 1.15391 -3.23326 0
M  V30 1487 N 138.941 1.26152 0.944643 0
M  V30 1488 C 139.874 1.01729 2.04271 0
M  V30 1489 C 140.852 -0.0568101 1.62501 0
M  V30 1490 O 142.036 0.0848987 1.88309 0
M  V30 1491 C 139.163 0.539792 3.34371 0
M  V30 1492 C 138.209 1.60593 3.9511 0
M  V30 1493 S 139.042 3.19392 4.29825 0
M  V30 1494 C 140.198 2.73402 5.63029 0
M  V30 1495 H 140.431 1.94703 2.24673 0
M  V30 1496 H 137.964 1.09793 1.08558 0
M  V30 1497 H 139.922 0.270956 4.09605 0
M  V30 1498 H 138.583 -0.369609 3.11918 0
M  V30 1499 H 137.776 1.22275 4.88943 0
M  V30 1500 H 137.378 1.82596 3.26397 0
M  V30 1501 H 139.67 2.1765 6.41588 0
M  V30 1502 H 140.613 3.65913 6.06229 0
M  V30 1503 H 141.021 2.13077 5.22741 0
M  V30 1504 N 140.419 -1.14872 1.07899 0
M  V30 1505 C 141.647 -1.89661 0.82683 0
M  V30 1506 C 142.062 -1.78312 -0.620519 0
M  V30 1507 O 141.419 -1.13888 -1.42604 0
M  V30 1508 C 141.47 -3.39817 1.23316 0
M  V30 1509 O 141.191 -3.50845 2.62372 0
M  V30 1510 C 142.692 -4.31615 1.0111 0
M  V30 1511 H 139.912 -0.60092 0.298557 0
M  V30 1512 H 142.456 -1.4551 1.43691 0
M  V30 1513 H 140.611 -3.8161 0.667286 0
M  V30 1514 H 141.025 -4.44076 2.79101 0
M  V30 1515 H 142.499 -5.35367 1.34486 0
M  V30 1516 H 142.976 -4.39169 -0.0522168 0
M  V30 1517 H 143.582 -3.95572 1.56215 0
M  V30 1518 N 141.898 -0.863906 -1.31812 0
M  V30 1519 C 143.144 -0.472535 -1.97218 0
M  V30 1520 C 143.477 0.971394 -1.68159 0
M  V30 1521 O 142.752 1.68309 -0.974798 0
M  V30 1522 C 143.035 -0.723054 -3.52766 0
M  V30 1523 C 142.888 -2.21608 -3.91421 0
M  V30 1524 C 144.207 -0.185522 -4.39709 0
M  V30 1525 H 141.326 -0.173158 -0.71637 0
M  V30 1526 H 143.968 -1.08403 -1.56041 0
M  V30 1527 H 142.118 -0.202577 -3.87971 0
M  V30 1528 H 143.79 -2.80334 -3.66347 0
M  V30 1529 H 142.033 -2.691 -3.40246 0
M  V30 1530 H 142.704 -2.34203 -4.99853 0
M  V30 1531 H 145.18 -0.630726 -4.11292 0
M  V30 1532 H 144.056 -0.390306 -5.47511 0
M  V30 1533 H 144.317 0.912229 -4.32586 0
M  V30 1534 N 143.376 1.44774 -0.622745 0
M  V30 1535 C 144.653 1.95522 -0.0551974 0
M  V30 1536 C 145.033 1.5649 1.41683 0
M  V30 1537 O 144.381 0.834848 2.12703 0
M  V30 1538 C 144.591 3.4796 -0.269242 0
M  V30 1539 C 145.939 4.24306 -0.158014 0
M  V30 1540 O 146.963 3.55637 -0.200162 0
M  V30 1541 O 145.822 5.46471 -0.0558693 0
M  V30 1542 H 142.916 0.826556 0.0271015 0
M  V30 1543 H 145.462 1.54866 -0.693864 0
M  V30 1544 H 144.234 3.6939 -1.29099 0
M  V30 1545 H 143.857 3.95543 0.403966 0
M  V30 1546 N 144.854 0.36279 1.53368 0
M  V30 1547 C 146.101 -0.227776 2.01215 0
M  V30 1548 C 146.429 -1.49003 1.25014 0
M  V30 1549 O 145.684 -1.92876 0.331236 0
M  V30 1550 C 145.983 -0.568417 3.52851 0
M  V30 1551 C 145.649 0.59918 4.46901 0
M  V30 1552 C 144.311 0.919559 4.72332 0
M  V30 1553 C 146.663 1.38156 5.02556 0
M  V30 1554 C 143.991 2.02434 5.5067 0
M  V30 1555 C 146.343 2.47674 5.821 0
M  V30 1556 C 145.007 2.8025 6.05819 0
M  V30 1557 H 144.277 -0.083349 0.736297 0
M  V30 1558 H 146.924 0.494677 1.85001 0
M  V30 1559 H 145.229 -1.37185 3.66998 0
M  V30 1560 H 146.926 -1.03756 3.87344 0
M  V30 1561 H 143.516 0.339437 4.27254 0
M  V30 1562 H 147.7 1.14729 4.82857 0
M  V30 1563 H 142.956 2.28075 5.67267 0
M  V30 1564 H 147.13 3.08716 6.24234 0
M  V30 1565 H 144.757 3.65979 6.66306 0
M  V30 1566 N 146.332 -1.57332 0.0918853 0
M  V30 1567 C 147.581 -1.93412 -0.572249 0
M  V30 1568 C 147.894 -0.975515 -1.69538 0
M  V30 1569 O 149.1 -1.22991 -2.42045 0
M  V30 1570 C 147.556 -3.43648 -1.0693 0
M  V30 1571 C 147.164 -4.47994 0.0239049 0
M  V30 1572 C 148.908 -3.88695 -1.70635 0
M  V30 1573 C 146.815 -5.89381 -0.488319 0
M  V30 1574 H 145.745 -0.721939 -0.217532 0
M  V30 1575 H 148.396 -1.82735 0.167369 0
M  V30 1576 H 146.778 -3.49466 -1.8625 0
M  V30 1577 H 147.952 -4.53815 0.799277 0
M  V30 1578 H 146.267 -4.12536 0.565946 0
M  V30 1579 H 148.864 -4.91725 -2.10025 0
M  V30 1580 H 149.207 -3.27166 -2.57426 0
M  V30 1581 H 149.74 -3.85564 -0.979023 0
M  V30 1582 H 146.479 -6.54602 0.342906 0
M  V30 1583 H 145.999 -5.87037 -1.23077 0
M  V30 1584 H 147.678 -6.39863 -0.958317 0
M  V30 1585 N 147.81 0.181792 -1.56548 0
M  V30 1586 C 149.226 0.53316 -1.50431 0
M  V30 1587 C 149.426 1.85184 -0.794297 0
M  V30 1588 O 148.482 2.50058 -0.350318 0
M  V30 1589 C 149.795 0.575597 -2.9514 0
M  V30 1590 C 151.343 0.663519 -3.05886 0
M  V30 1591 C 151.818 0.736946 -4.52032 0
M  V30 1592 N 153.309 0.800118 -4.56237 0
M  V30 1593 C 154.044 0.877327 -5.66649 0
M  V30 1594 N 153.54 0.916016 -6.86718 0
M  V30 1595 N 155.333 0.915542 -5.54594 0
M  V30 1596 H 147.484 -0.683025 -2.01118 0
M  V30 1597 H 149.747 -0.244988 -0.915797 0
M  V30 1598 H 149.453 -0.324482 -3.502 0
M  V30 1599 H 149.327 1.42572 -3.49218 0
M  V30 1600 H 151.714 1.55403 -2.50867 0
M  V30 1601 H 151.795 -0.21307 -2.54911 0
M  V30 1602 H 151.439 -0.149262 -5.07681 0
M  V30 1603 H 151.369 1.62953 -5.00753 0
M  V30 1604 H 153.86 0.778926 -3.69785 0
M  V30 1605 H 154.173 0.975813 -7.66614 0
M  V30 1606 H 152.518 0.884469 -6.89349 0
M  V30 1607 H 155.709 0.882245 -4.59711 0
M  V30 1608 H 155.882 0.972253 -6.40665 0
M  V30 1609 N 149.288 1.51039 0.449983 0
M  V30 1610 C 150.218 1.74379 1.55288 0
M  V30 1611 C 151.199 0.593236 1.5942 0
M  V30 1612 O 152.384 0.834625 1.7535 0
M  V30 1613 C 149.514 1.85728 2.93466 0
M  V30 1614 C 148.468 3.01078 3.04197 0
M  V30 1615 C 147.794 2.97595 4.44231 0
M  V30 1616 C 149.094 4.41254 2.7945 0
M  V30 1617 H 150.788 2.66725 1.36008 0
M  V30 1618 H 148.334 1.2835 0.652864 0
M  V30 1619 H 150.287 2.0064 3.70569 0
M  V30 1620 H 149.011 0.900207 3.13949 0
M  V30 1621 H 147.67 2.85851 2.29531 0
M  V30 1622 H 147.318 1.99691 4.61663 0
M  V30 1623 H 147.018 3.75046 4.52343 0
M  V30 1624 H 148.542 3.14583 5.23326 0
M  V30 1625 H 149.956 4.56897 3.46292 0
M  V30 1626 H 148.353 5.20315 2.98985 0
M  V30 1627 H 149.423 4.52164 1.75144 0
M  V30 1628 N 150.766 -0.704594 1.40972 0
M  V30 1629 C 151.713 -1.81862 1.42109 0
M  V30 1630 C 152.683 -1.63781 0.276593 0
M  V30 1631 O 153.868 -1.84759 0.4763 0
M  V30 1632 C 151.008 -3.19669 1.30022 0
M  V30 1633 C 150.121 -3.49246 2.54267 0
M  V30 1634 C 149.256 -4.76618 2.3454 0
M  V30 1635 C 148.295 -4.99133 3.54306 0
M  V30 1636 N 147.432 -6.17726 3.33706 0
M  V30 1637 H 152.272 -1.80226 2.37324 0
M  V30 1638 H 149.809 -0.880238 1.17857 0
M  V30 1639 H 151.767 -3.99263 1.21018 0
M  V30 1640 H 150.397 -3.20506 0.384192 0
M  V30 1641 H 149.449 -2.64125 2.73756 0
M  V30 1642 H 150.761 -3.61788 3.43381 0
M  V30 1643 H 149.915 -5.64249 2.22952 0
M  V30 1644 H 148.654 -4.66305 1.42867 0
M  V30 1645 H 147.659 -4.09953 3.66359 0
M  V30 1646 H 148.884 -5.11311 4.4692 0
M  V30 1647 H 146.83 -6.08642 2.44725 0
M  V30 1648 H 146.747 -6.30995 4.16391 0
M  V30 1649 H 148.015 -7.08115 3.25873 0
M  V30 1650 N 152.244 -1.26651 -0.937939 0
M  V30 1651 C 153.469 -1.15279 -1.72411 0
M  V30 1652 C 153.894 0.287866 -1.85884 0
M  V30 1653 O 153.252 1.20855 -1.35143 0
M  V30 1654 C 153.3 -1.83028 -3.10698 0
M  V30 1655 O 152.404 -1.12128 -3.96864 0
M  V30 1656 H 151.745 -0.401504 -0.528858 0
M  V30 1657 H 154.275 -1.67531 -1.1745 0
M  V30 1658 H 154.285 -1.89981 -3.6107 0
M  V30 1659 H 152.96 -2.87833 -3.00208 0
M  V30 1660 H 151.537 -1.13173 -3.55312 0
M  V30 1661 N 153.722 1.14298 -1.08507 0
M  V30 1662 C 154.952 1.88945 -0.835663 0
M  V30 1663 C 155.36 1.78894 0.615928 0
M  V30 1664 O 154.703 1.1468 1.43506 0
M  V30 1665 C 154.765 3.39585 -1.17994 0
M  V30 1666 C 154.429 3.7342 -2.63451 0
M  V30 1667 C 155.426 3.73454 -3.61702 0
M  V30 1668 C 153.111 4.03368 -2.99332 0
M  V30 1669 C 155.105 4.02961 -4.93864 0
M  V30 1670 C 152.792 4.32538 -4.31687 0
M  V30 1671 C 153.79 4.32318 -5.28763 0
M  V30 1672 O 153.478 4.6078 -6.58739 0
M  V30 1673 H 153.21 0.605307 -0.300965 0
M  V30 1674 H 155.764 1.45673 -1.44806 0
M  V30 1675 H 153.994 3.83315 -0.51055 0
M  V30 1676 H 155.683 3.9554 -0.911182 0
M  V30 1677 H 156.449 3.50403 -3.35325 0
M  V30 1678 H 152.328 4.02692 -2.24411 0
M  V30 1679 H 155.872 4.02704 -5.69627 0
M  V30 1680 H 151.769 4.55059 -4.57812 0
M  V30 1681 H 152.537 4.78492 -6.64069 0
M  V30 1682 N 155.201 0.870884 1.31352 0
M  V30 1683 C 156.441 0.488783 1.9847 0
M  V30 1684 C 156.805 -0.941536 1.67329 0
M  V30 1685 O 158.006 -1.42903 2.27667 0
M  V30 1686 C 156.277 0.739688 3.49662 0
M  V30 1687 S 157.836 0.457582 4.36408 0
M  V30 1688 H 154.654 0.18242 0.6872 0
M  V30 1689 H 157.256 1.12711 1.59739 0
M  V30 1690 H 155.96 1.77944 3.69816 0
M  V30 1691 H 155.491 0.0883905 3.93301 0
M  V30 1692 H 157.506 -0.709752 4.91098 0
M  V30 1693 N 156.679 -1.44442 0.630414 0
M  V30 1694 C 157.627 -2.32437 -0.0871428 0
M  V30 1695 C 158.621 -1.47304 -0.836525 0
M  V30 1696 O 159.827 -1.63653 -0.749506 0
M  V30 1697 H 156.202 -0.750533 -0.0469495 0
M  V30 1698 H 158.173 -2.90709 0.673096 0
M  V30 1699 C 156.922 -3.31288 -1.05563 0
M  V30 1700 H 156.245 -3.96805 -0.488426 0
M  V30 1701 H 157.685 -3.9554 -1.52721 0
M  V30 1702 C 156.144 -2.6016 -2.14052 0
M  V30 1703 O 156.674 -2.39997 -3.22124 0
M  V30 1704 N 154.88 -2.19911 -1.89967 0
M  V30 1705 H 154.427 -2.36509 -1.02085 0
M  V30 1706 H 154.385 -1.72646 -2.62756 0
M  V30 1707 N 158.157 -0.370918 -1.53173 0
M  V30 1708 C 159.434 0.273754 -1.93675 0
M  V30 1709 C 159.814 1.65938 -1.3049 0
M  V30 1710 O 159.162 2.23698 -0.465999 0
M  V30 1711 C 159.372 0.318602 -3.47543 0
M  V30 1712 C 160.72 0.556392 -4.20939 0
M  V30 1713 O 161.744 0.399587 -3.53952 0
M  V30 1714 O 160.603 0.862133 -5.39657 0
M  V30 1715 H 157.697 0.165448 -0.810281 0
M  V30 1716 H 160.243 -0.42409 -1.64315 0
M  V30 1717 H 159.015 -0.652687 -3.85818 0
M  V30 1718 H 158.638 1.06212 -3.83151 0
M  V30 1719 N 159.635 1.57281 -0.100228 0
M  V30 1720 C 160.567 2.11342 0.886972 0
M  V30 1721 C 161.58 1.05182 1.24261 0
M  V30 1722 O 162.769 1.32613 1.19483 0
M  V30 1723 C 159.869 2.5825 2.19454 0
M  V30 1724 C 159.042 3.88302 2.01346 0
M  V30 1725 C 158.101 4.21004 3.15661 0
M  V30 1726 O 157.127 4.9014 2.89398 0
M  V30 1727 N 158.329 3.76818 4.41575 0
M  V30 1728 H 161.094 2.96668 0.425216 0
M  V30 1729 H 158.655 1.61678 0.0847334 0
M  V30 1730 H 160.647 2.7717 2.94888 0
M  V30 1731 H 159.217 1.77907 2.57037 0
M  V30 1732 H 158.437 3.7848 1.10212 0
M  V30 1733 H 159.725 4.73375 1.8653 0
M  V30 1734 H 159.123 3.2102 4.65792 0
M  V30 1735 H 157.68 4.00882 5.13942 0
M  V30 1736 N 161.113 -0.173488 1.56642 0
M  V30 1737 C 162.338 -0.910149 1.86363 0
M  V30 1738 C 162.763 -1.75132 0.686318 0
M  V30 1739 O 162.121 -1.77595 -0.364643 0
M  V30 1740 C 162.169 -1.76447 3.14482 0
M  V30 1741 O 161.273 -2.86584 2.96553 0
M  V30 1742 H 160.614 -0.255086 0.613047 0
M  V30 1743 H 163.144 -0.172283 2.03873 0
M  V30 1744 H 163.154 -2.16483 3.45831 0
M  V30 1745 H 161.829 -1.14658 3.99783 0
M  V30 1746 H 160.406 -2.50146 2.76553 0
M  V30 1747 N 162.591 -1.51276 -0.441967 0
M  V30 1748 C 163.819 -1.67516 -1.21434 0
M  V30 1749 C 164.234 -0.37055 -1.85128 0
M  V30 1750 O 163.591 0.650498 -1.70513 0
M  V30 1751 C 163.642 -2.78748 -2.30177 0
M  V30 1752 O 163.363 -4.04154 -1.69089 0
M  V30 1753 C 164.864 -3.06217 -3.20541 0
M  V30 1754 H 162.084 -0.562276 -0.366178 0
M  V30 1755 H 164.628 -1.97666 -0.524244 0
M  V30 1756 H 162.783 -2.5121 -2.94911 0
M  V30 1757 H 163.197 -4.65894 -2.40922 0
M  V30 1758 H 164.671 -3.8764 -3.92987 0
M  V30 1759 H 165.148 -2.18439 -3.81026 0
M  V30 1760 H 165.754 -3.35397 -2.61513 0
M  V30 1761 N 164.069 0.697108 -1.41344 0
M  V30 1762 C 165.317 1.45426 -1.40341 0
M  V30 1763 C 165.638 1.94996 -0.0128787 0
M  V30 1764 O 164.908 1.71599 0.945027 0
M  V30 1765 H 163.488 0.539594 -0.516573 0
M  V30 1766 H 166.15 0.825201 -1.76569 0
M  V30 1767 H 165.246 2.31817 -2.08967 0
M  V30 1768 N 165.547 1.27147 0.931209 0
M  V30 1769 C 166.824 1.0401 1.65654 0
M  V30 1770 C 167.204 -0.426297 2.06751 0
M  V30 1771 O 166.552 -1.40879 1.79904 0
M  V30 1772 C 166.762 1.99834 2.86125 0
M  V30 1773 C 168.11 2.29007 3.57549 0
M  V30 1774 O 169.134 1.97779 2.96246 0
M  V30 1775 O 167.993 2.82222 4.67989 0
M  V30 1776 H 165.087 0.396239 0.725895 0
M  V30 1777 H 167.633 1.38397 0.982056 0
M  V30 1778 H 166.405 2.98744 2.52721 0
M  V30 1779 H 166.028 1.65987 3.61295 0
M  V30 1780 N 167.025 -1.13721 1.09112 0
M  V30 1781 C 168.274 -1.84275 0.82009 0
M  V30 1782 C 168.587 -1.84253 -0.656509 0
M  V30 1783 O 169.793 -2.50668 -1.04296 0
M  V30 1784 C 168.249 -3.30825 1.41714 0
M  V30 1785 C 167.857 -3.39244 2.92605 0
M  V30 1786 C 169.601 -4.06443 1.22492 0
M  V30 1787 C 167.508 -4.80047 3.45411 0
M  V30 1788 H 166.438 -0.690387 0.30312 0
M  V30 1789 H 169.089 -1.28146 1.31343 0
M  V30 1790 H 167.471 -3.86737 0.851498 0
M  V30 1791 H 168.645 -2.93344 3.55367 0
M  V30 1792 H 166.96 -2.77088 3.10823 0
M  V30 1793 H 169.557 -5.10387 1.59402 0
M  V30 1794 H 169.9 -4.15972 0.165299 0
M  V30 1795 H 170.433 -3.56852 1.75788 0
M  V30 1796 H 167.172 -4.75709 4.50978 0
M  V30 1797 H 166.692 -5.26455 2.87411 0
M  V30 1798 H 168.371 -5.48957 3.42425 0
M  V30 1799 N 168.503 -0.877838 -1.30888 0
M  V30 1800 C 169.45 -0.337538 -2.28318 0
M  V30 1801 C 170.42 0.568346 -1.56074 0
M  V30 1802 O 171.605 0.498298 -1.84178 0
M  V30 1803 C 168.745 0.448142 -3.42178 0
M  V30 1804 C 167.858 -0.48615 -4.29256 0
M  V30 1805 C 166.993 0.314427 -5.30269 0
M  V30 1806 C 166.032 -0.615791 -6.08995 0
M  V30 1807 N 165.169 0.14902 -7.01942 0
M  V30 1808 H 170.009 -1.17356 -2.73919 0
M  V30 1809 H 167.546 -0.590094 -1.34745 0
M  V30 1810 H 169.504 0.919517 -4.06941 0
M  V30 1811 H 168.134 1.24879 -2.97666 0
M  V30 1812 H 167.186 -1.076 -3.64865 0
M  V30 1813 H 168.498 -1.19909 -4.84173 0
M  V30 1814 H 167.652 0.847969 -6.00745 0
M  V30 1815 H 166.391 1.06062 -4.76027 0
M  V30 1816 H 165.396 -1.16102 -5.37401 0
M  V30 1817 H 166.621 -1.36097 -6.65323 0
M  V30 1818 H 164.567 0.877884 -6.50099 0
M  V30 1819 H 164.484 -0.504433 -7.54315 0
M  V30 1820 H 165.752 0.663537 -7.76671 0
M  V30 1821 N 169.982 1.44106 -0.638065 0
M  V30 1822 C 171.228 2.02277 -0.145546 0
M  V30 1823 C 171.561 1.50125 1.23191 0
M  V30 1824 O 170.836 0.688133 1.8192 0
M  V30 1825 C 171.119 3.59829 -0.139791 0
M  V30 1826 C 170.972 4.22247 -1.55008 0
M  V30 1827 C 172.291 4.36873 0.531966 0
M  V30 1828 H 169.41 0.734992 -0.0543632 0
M  V30 1829 H 172.052 1.71592 -0.815863 0
M  V30 1830 H 170.202 3.86102 0.431007 0
M  V30 1831 H 171.874 4.07057 -2.1703 0
M  V30 1832 H 170.117 3.79476 -2.10191 0
M  V30 1833 H 170.788 5.31284 -1.49804 0
M  V30 1834 H 173.264 4.16074 0.0464781 0
M  V30 1835 H 172.14 5.4657 0.505206 0
M  V30 1836 H 172.401 4.11995 1.60352 0
M  V30 1837 N 171.46 0.379036 1.52974 0
M  V30 1838 C 172.709 -0.207612 2.00629 0
M  V30 1839 C 173.022 -1.48758 1.27006 0
M  V30 1840 O 174.228 -2.15365 1.65318 0
M  V30 1841 C 172.684 -0.42053 3.57435 0
M  V30 1842 C 172.292 0.845587 4.39948 0
M  V30 1843 C 174.036 -0.964102 4.13407 0
M  V30 1844 C 171.943 0.601513 5.88333 0
M  V30 1845 H 170.873 -0.0813591 0.749598 0
M  V30 1846 H 173.524 0.499853 1.76561 0
M  V30 1847 H 171.906 -1.18959 3.7771 0
M  V30 1848 H 173.08 1.61848 4.31442 0
M  V30 1849 H 171.395 1.31336 3.95145 0
M  V30 1850 H 173.992 -1.16225 5.21916 0
M  V30 1851 H 174.335 -1.93019 3.68849 0
M  V30 1852 H 174.868 -0.25487 3.96983 0
M  V30 1853 H 171.607 1.53831 6.37194 0
M  V30 1854 H 171.127 -0.132628 5.99653 0
M  V30 1855 H 172.806 0.232134 6.46583 0
M  V30 1856 N 172.938 -1.57226 0.108567 0
M  V30 1857 C 174.186 -1.94448 -0.550853 0
M  V30 1858 C 174.507 -0.992074 -1.67878 0
M  V30 1859 O 173.777 -0.0465 -1.95845 0
M  V30 1860 H 172.357 -0.717897 -0.206479 0
M  V30 1861 H 175.019 -1.94112 0.175062 0
M  V30 1862 H 174.115 -2.97218 -0.952259 0
M  V30 1863 N 174.416 0.165178 -1.56732 0
M  V30 1864 C 175.664 0.879068 -1.8198 0
M  V30 1865 C 175.985 1.82514 -0.686561 0
M  V30 1866 O 175.255 1.93694 0.293146 0
M  V30 1867 H 173.835 0.327608 -0.671329 0
M  V30 1868 H 176.497 0.163526 -1.94213 0
M  V30 1869 H 175.593 1.45228 -2.76252 0
M  V30 1870 N 175.894 1.51508 0.433938 0
M  V30 1871 C 177.171 1.54888 1.19453 0
M  V30 1872 C 177.551 0.315154 2.08734 0
M  V30 1873 O 176.899 -0.699558 2.17528 0
M  V30 1874 C 177.109 2.86467 1.99342 0
M  V30 1875 C 178.457 3.38545 2.56267 0
M  V30 1876 O 179.481 2.88041 2.0955 0
M  V30 1877 O 178.34 4.26675 3.41483 0
M  V30 1878 H 175.434 0.622863 0.544032 0
M  V30 1879 H 177.98 1.63823 0.442732 0
M  V30 1880 H 176.752 3.67718 1.33788 0
M  V30 1881 H 176.375 2.8071 2.8158 0
M  V30 1882 N 177.372 -0.689602 1.41712 0
M  V30 1883 C 178.649 -1.44457 1.31877 0
M  V30 1884 C 179.029 -2.11039 -0.0508537 0
M  V30 1885 O 178.377 -2.02138 -1.06547 0
M  V30 1886 C 178.587 -2.45913 2.47645 0
M  V30 1887 C 179.935 -3.10991 2.89084 0
M  V30 1888 O 180.959 -2.56238 2.47428 0
M  V30 1889 O 179.818 -4.10174 3.61137 0
M  V30 1890 H 176.912 -0.64362 0.519309 0
M  V30 1891 H 179.458 -0.719576 1.53689 0
M  V30 1892 H 178.23 -1.95409 3.39015 0
M  V30 1893 H 177.853 -3.25913 2.27742 0
M  V30 1894 N 178.85 -1.27639 -0.924453 0
M  V30 1895 C 179.78 -1.13166 -2.04244 0
M  V30 1896 C 180.761 -0.032256 -1.70069 0
M  V30 1897 O 181.946 -0.207328 -1.9309 0
M  V30 1898 C 179.076 -0.781496 -3.38393 0
M  V30 1899 C 178.03 -1.83449 -3.86692 0
M  V30 1900 C 177.356 -1.33822 -5.17683 0
M  V30 1901 C 178.656 -3.23917 -4.09726 0
M  V30 1902 H 180.35 -2.06689 -2.1661 0
M  V30 1903 H 177.896 -0.995136 -1.04082 0
M  V30 1904 H 179.849 -0.667057 -4.16087 0
M  V30 1905 H 178.573 0.189439 -3.2605 0
M  V30 1906 H 177.232 -1.93789 -3.11193 0
M  V30 1907 H 176.88 -0.35665 -5.01734 0
M  V30 1908 H 176.58 -2.04224 -5.50968 0
M  V30 1909 H 178.104 -1.23679 -5.97943 0
M  V30 1910 H 179.518 -3.16559 -4.77978 0
M  V30 1911 H 177.915 -3.92059 -4.54324 0
M  V30 1912 H 178.985 -3.68729 -3.14908 0
M  V30 1913 N 180.328 1.1314 -1.09713 0
M  V30 1914 C 181.553 1.88862 -0.857081 0
M  V30 1915 C 181.978 1.78729 0.586304 0
M  V30 1916 O 181.336 1.13692 1.41222 0
M  V30 1917 C 181.384 3.36325 -1.30069 0
M  V30 1918 O 180.488 4.09815 -0.461007 0
M  V30 1919 H 179.829 0.587108 -0.310162 0
M  V30 1920 H 182.359 1.43129 -1.46203 0
M  V30 1921 H 182.369 3.87157 -1.28738 0
M  V30 1922 H 181.044 3.43017 -2.35185 0
M  V30 1923 H 179.621 3.68986 -0.538888 0
M  V30 1924 N 181.806 0.884767 1.30421 0
M  V30 1925 C 183.034 0.518044 2.0031 0
M  V30 1926 C 183.449 -0.893408 1.66324 0
M  V30 1927 O 182.806 -1.5875 0.900262 0
M  V30 1928 C 182.857 0.682997 3.54989 0
M  V30 1929 O 182.578 2.03888 3.87764 0
M  V30 1930 C 184.079 0.31924 4.42149 0
M  V30 1931 H 181.299 0.200265 0.640418 0
M  V30 1932 H 183.843 1.19001 1.6631 0
M  V30 1933 H 181.998 0.0584052 3.87356 0
M  V30 1934 H 182.412 2.05735 4.82466 0
M  V30 1935 H 183.886 0.485555 5.4986 0
M  V30 1936 H 184.363 -0.742717 4.32875 0
M  V30 1937 H 184.969 0.920147 4.15227 0
M  V30 1938 N 183.284 -1.43765 0.645699 0
M  V30 1939 C 184.214 -2.33471 -0.0370477 0
M  V30 1940 C 185.195 -1.49042 -0.819779 0
M  V30 1941 O 186.38 -1.77726 -0.782758 0
M  V30 1942 C 183.51 -3.32311 -1.0093 0
M  V30 1943 C 182.464 -4.2667 -0.337201 0
M  V30 1944 C 181.79 -5.1549 -1.42037 0
M  V30 1945 C 183.09 -5.16657 0.765706 0
M  V30 1946 H 184.784 -2.90809 0.712069 0
M  V30 1947 H 182.33 -1.39834 0.343876 0
M  V30 1948 H 184.283 -3.9396 -1.49578 0
M  V30 1949 H 183.007 -2.73213 -1.78948 0
M  V30 1950 H 181.666 -3.66374 0.128771 0
M  V30 1951 H 181.314 -4.52735 -2.1918 0
M  V30 1952 H 181.014 -5.79438 -0.975966 0
M  V30 1953 H 182.538 -5.80012 -1.90838 0
M  V30 1954 H 183.952 -5.72158 0.361702 0
M  V30 1955 H 182.349 -5.89286 1.13413 0
M  V30 1956 H 183.419 -4.56796 1.62683 0
M  V30 1957 N 184.763 -0.387143 -1.52771 0
M  V30 1958 C 185.991 0.195869 -2.05971 0
M  V30 1959 C 186.406 1.40691 -1.25903 0
M  V30 1960 O 185.763 1.79931 -0.305134 0
M  V30 1961 C 185.814 0.56812 -3.57008 0
M  V30 1962 O 185.535 -0.594803 -4.34043 0
M  V30 1963 C 187.036 1.20723 -4.26545 0
M  V30 1964 H 184.256 0.0300578 -0.670326 0
M  V30 1965 H 186.8 -0.551749 -1.96916 0
M  V30 1966 H 184.955 1.26564 -3.66143 0
M  V30 1967 H 185.369 -0.289322 -5.23701 0
M  V30 1968 H 186.843 1.41807 -5.33474 0
M  V30 1969 H 187.32 2.17395 -3.81623 0
M  V30 1970 H 187.926 0.550535 -4.21722 0
M  V30 1971 N 186.241 1.57166 -0.116904 0
M  V30 1972 C 187.489 1.94737 0.540533 0
M  V30 1973 C 187.81 1.00096 1.67349 0
M  V30 1974 O 187.08 0.0568854 1.95817 0
M  V30 1975 H 185.66 0.718981 0.202669 0
M  V30 1976 H 188.322 1.94017 -0.185353 0
M  V30 1977 H 187.418 2.97719 0.936483 0
M  V30 1978 N 187.719 -0.156864 1.56817 0
M  V30 1979 C 188.666 -1.19394 1.97519 0
M  V30 1980 C 189.636 -1.4322 0.841265 0
M  V30 1981 O 190.821 -1.55719 1.10255 0
M  V30 1982 C 187.961 -2.52483 2.35258 0
M  V30 1983 C 187.074 -2.35914 3.61896 0
M  V30 1984 C 186.209 -3.61969 3.88782 0
M  V30 1985 C 185.248 -3.40395 5.08722 0
M  V30 1986 N 184.385 -4.58556 5.31668 0
M  V30 1987 H 189.225 -0.839845 2.85921 0
M  V30 1988 H 186.762 -0.403264 1.41464 0
M  V30 1989 H 188.72 -3.30071 2.55165 0
M  V30 1990 H 187.35 -2.85859 1.49949 0
M  V30 1991 H 186.402 -1.49429 3.49821 0
M  V30 1992 H 187.714 -2.15926 4.49641 0
M  V30 1993 H 186.868 -4.47989 4.09135 0
M  V30 1994 H 185.607 -3.84951 2.9944 0
M  V30 1995 H 184.612 -2.52763 4.88253 0
M  V30 1996 H 185.837 -3.18822 5.99608 0
M  V30 1997 H 183.783 -4.81729 4.45279 0
M  V30 1998 H 183.7 -4.41535 6.13664 0
M  V30 1999 H 184.968 -5.45817 5.5651 0
M  V30 2000 N 189.197 -1.51736 -0.425897 0
M  V30 2001 C 190.145 -1.74464 -1.53834 0
M  V30 2002 C 191.139 -0.611241 -1.57988 0
M  V30 2003 O 192.345 -0.792899 -1.61596 0
M  V30 2004 H 188.72 -0.551437 -0.511293 0
M  V30 2005 H 190.691 -2.67694 -1.31843 0
M  V30 2006 C 189.44 -1.8972 -2.91379 0
M  V30 2007 H 188.763 -2.76344 -2.88919 0
M  V30 2008 H 190.203 -2.09629 -3.68553 0
M  V30 2009 C 188.662 -0.65992 -3.30374 0
M  V30 2010 O 189.192 0.180083 -4.01296 0
M  V30 2011 N 187.398 -0.500677 -2.86254 0
M  V30 2012 H 186.945 -1.18532 -2.28709 0
M  V30 2013 H 186.903 0.325903 -3.12706 0
M  V30 2014 N 190.675 0.682077 -1.42076 0
M  V30 2015 C 191.921 1.44428 -1.42367 0
M  V30 2016 C 192.254 1.94164 -0.0373056 0
M  V30 2017 O 191.529 1.70429 0.937239 0
M  V30 2018 C 191.812 2.64654 -2.44194 0
M  V30 2019 C 191.665 2.20596 -3.91991 0
M  V30 2020 C 192.984 3.66865 -2.431 0
M  V30 2021 H 190.103 0.523834 -0.518428 0
M  V30 2022 H 192.745 0.77576 -1.73442 0
M  V30 2023 H 190.895 3.2169 -2.17826 0
M  V30 2024 H 192.567 1.68783 -4.29313 0
M  V30 2025 H 190.81 1.52242 -4.06208 0
M  V30 2026 H 191.481 3.06921 -4.58807 0
M  V30 2027 H 193.957 3.19531 -2.66532 0
M  V30 2028 H 192.833 4.48577 -3.16339 0
M  V30 2029 H 193.094 4.17493 -1.45437 0
M  V30 2030 N 192.153 1.28127 0.917671 0
M  V30 2031 C 193.083 1.14248 2.03641 0
M  V30 2032 C 194.064 0.0412748 1.7005 0
M  V30 2033 O 195.249 0.217566 1.92977 0
M  V30 2034 C 192.379 0.799431 3.37974 0
M  V30 2035 C 191.333 1.85497 3.85713 0
M  V30 2036 C 190.659 1.36565 5.16966 0
M  V30 2037 C 191.959 3.26085 4.08002 0
M  V30 2038 H 193.653 2.07835 2.15511 0
M  V30 2039 H 191.199 1.00064 1.03553 0
M  V30 2040 H 193.152 0.689114 4.15727 0
M  V30 2041 H 191.876 -0.172145 3.26146 0
M  V30 2042 H 190.535 1.95437 3.10161 0
M  V30 2043 H 190.183 0.383253 5.01538 0
M  V30 2044 H 189.883 2.07143 5.49878 0
M  V30 2045 H 191.407 1.26848 5.97279 0
M  V30 2046 H 192.821 3.19089 4.76293 0
M  V30 2047 H 191.218 3.94462 4.52238 0
M  V30 2048 H 192.288 3.70394 3.12948 0
M  V30 2049 N 193.631 -1.12557 1.10312 0
M  V30 2050 C 194.88 -1.83395 0.839588 0
M  V30 2051 C 195.193 -1.84939 -0.636929 0
M  V30 2052 O 196.399 -2.51761 -1.01631 0
M  V30 2053 C 194.855 -3.29303 1.45215 0
M  V30 2054 C 194.463 -3.36122 2.96186 0
M  V30 2055 C 196.207 -4.05121 1.26796 0
M  V30 2056 C 194.114 -4.76357 3.50483 0
M  V30 2057 H 193.044 -0.687133 0.310425 0
M  V30 2058 H 195.695 -1.26746 1.32694 0
M  V30 2059 H 194.077 -3.85812 0.892469 0
M  V30 2060 H 195.251 -2.89559 3.58458 0
M  V30 2061 H 193.566 -2.73776 3.13745 0
M  V30 2062 H 196.163 -5.08668 1.64806 0
M  V30 2063 H 196.506 -4.15773 0.209409 0
M  V30 2064 H 197.039 -3.54967 1.79563 0
M  V30 2065 H 193.778 -4.70899 4.55998 0
M  V30 2066 H 193.298 -5.23377 2.92978 0
M  V30 2067 H 194.977 -5.45294 3.48228 0
M  V30 2068 N 195.109 -0.891671 -1.2995 0
M  V30 2069 C 196.355 -0.514261 -1.96171 0
M  V30 2070 C 196.688 0.935506 -1.70182 0
M  V30 2071 O 195.963 1.66204 -1.01028 0
M  V30 2072 C 196.246 -0.797719 -3.51153 0
M  V30 2073 C 196.099 -2.2986 -3.86632 0
M  V30 2074 C 197.418 -0.278749 -4.39216 0
M  V30 2075 H 194.537 -0.188314 -0.712535 0
M  V30 2076 H 197.179 -1.11689 -1.53706 0
M  V30 2077 H 195.329 -0.284826 -3.87455 0
M  V30 2078 H 197.001 -2.88042 -3.60319 0
M  V30 2079 H 195.244 -2.76257 -3.34462 0
M  V30 2080 H 195.915 -2.44753 -4.94773 0
M  V30 2081 H 198.391 -0.717825 -4.09862 0
M  V30 2082 H 197.267 -0.506353 -5.46559 0
M  V30 2083 H 197.528 0.820266 -4.34424 0
M  V30 2084 N 196.587 1.43421 -0.653314 0
M  V30 2085 C 197.497 2.34568 0.0388565 0
M  V30 2086 C 198.513 1.53888 0.81207 0
M  V30 2087 O 199.689 1.86539 0.759294 0
M  V30 2088 C 196.754 3.32167 0.993269 0
M  V30 2089 C 195.815 4.28751 0.216977 0
M  V30 2090 C 195.048 5.21688 1.12593 0
M  V30 2091 O 195.271 5.19052 2.36519 0
M  V30 2092 O 194.205 5.98919 0.598284 0
M  V30 2093 H 198.031 2.95251 -0.711386 0
M  V30 2094 H 195.616 1.43564 -0.413502 0
M  V30 2095 H 197.498 3.92183 1.54176 0
M  V30 2096 H 196.173 2.73987 1.72374 0
M  V30 2097 H 195.08 3.72215 -0.375101 0
M  V30 2098 H 196.413 4.89913 -0.473924 0
M  V30 2099 N 198.065 0.39524 1.52563 0
M  V30 2100 C 199.342 -0.242908 1.94086 0
M  V30 2101 C 199.722 -1.63841 1.33114 0
M  V30 2102 O 199.07 -2.22928 0.501529 0
M  V30 2103 C 199.28 -0.26327 3.48006 0
M  V30 2104 C 200.628 -0.489354 4.21771 0
M  V30 2105 O 201.652 -0.343226 3.54543 0
M  V30 2106 O 200.511 -0.776169 5.4096 0
M  V30 2107 H 197.605 -0.152536 0.812811 0
M  V30 2108 H 200.151 0.450178 1.6362 0
M  V30 2109 H 198.923 0.713985 3.84731 0
M  V30 2110 H 198.546 -1.00103 3.84792 0
M  V30 2111 N 199.544 -1.57102 0.125237 0
M  V30 2112 C 200.793 -1.94582 -0.531095 0
M  V30 2113 C 201.106 -1.01126 -1.6743 0
M  V30 2114 O 202.312 -1.28097 -2.39381 0
M  V30 2115 C 200.768 -3.45839 -0.996164 0
M  V30 2116 C 200.376 -4.47842 0.118926 0
M  V30 2117 C 202.12 -3.92227 -1.62352 0
M  V30 2118 C 200.027 -5.90284 -0.363192 0
M  V30 2119 H 198.957 -0.726391 -0.20217 0
M  V30 2120 H 201.608 -1.82339 0.206092 0
M  V30 2121 H 199.99 -3.53338 -1.78796 0
M  V30 2122 H 201.164 -4.52018 0.895358 0
M  V30 2123 H 199.479 -4.11243 0.653324 0
M  V30 2124 H 202.076 -4.96069 -1.99548 0
M  V30 2125 H 202.419 -3.32552 -2.50429 0
M  V30 2126 H 202.952 -3.87554 -0.897019 0
M  V30 2127 H 199.691 -6.53728 0.481679 0
M  V30 2128 H 199.211 -5.89515 -1.10597 0
M  V30 2129 H 200.89 -6.41752 -0.822377 0
M  V30 2130 N 201.022 0.148545 -1.56898 0
M  V30 2131 C 202.271 0.85984 -1.82454 0
M  V30 2132 C 202.584 1.82406 -0.706229 0
M  V30 2133 O 203.79 2.57938 -0.847349 0
M  V30 2134 C 202.246 1.57967 -3.2338 0
M  V30 2135 C 201.854 0.65794 -4.43142 0
M  V30 2136 C 203.598 2.27784 -3.58211 0
M  V30 2137 C 201.505 1.3793 -5.75091 0
M  V30 2138 H 200.435 0.324834 -0.68044 0
M  V30 2139 H 203.086 0.112588 -1.83154 0
M  V30 2140 H 201.468 2.37249 -3.17063 0
M  V30 2141 H 202.642 -0.0995497 -4.60692 0
M  V30 2142 H 200.957 0.0682643 -4.16344 0
M  V30 2143 H 203.554 2.8239 -4.54048 0
M  V30 2144 H 203.897 3.04204 -2.84193 0
M  V30 2145 H 204.43 1.55421 -3.66182 0
M  V30 2146 H 201.169 0.656982 -6.52199 0
M  V30 2147 H 200.689 2.10954 -5.61479 0
M  V30 2148 H 202.368 1.92063 -6.17835 0
M  V30 2149 N 202.5 1.5196 0.417844 0
M  V30 2150 C 203.777 1.56146 1.17803 0
M  V30 2151 C 204.157 0.337275 2.08388 0
M  V30 2152 O 203.505 -0.676447 2.18258 0
M  V30 2153 C 203.715 2.88566 1.96293 0
M  V30 2154 C 205.063 3.41244 2.52662 0
M  V30 2155 O 206.087 2.90247 2.06483 0
M  V30 2156 O 204.946 4.30273 3.36938 0
M  V30 2157 H 202.04 0.628598 0.537395 0
M  V30 2158 H 204.586 1.64283 0.425331 0
M  V30 2159 H 203.358 3.69116 1.2988 0
M  V30 2160 H 202.981 2.83681 2.78587 0
M  V30 2161 N 203.978 -0.674533 1.42435 0
M  V30 2162 C 205.206 -1.46283 1.46317 0
M  V30 2163 C 205.621 -1.88653 0.0745836 0
M  V30 2164 O 204.978 -1.58151 -0.91074 0
M  V30 2165 C 205.029 -2.71178 2.3905 0
M  V30 2166 O 204.75 -2.30586 3.72507 0
M  V30 2167 C 206.251 -3.64738 2.51955 0
M  V30 2168 H 203.471 -0.450104 0.497642 0
M  V30 2169 H 206.015 -0.828792 1.86953 0
M  V30 2170 H 204.17 -3.3077 2.01667 0
M  V30 2171 H 204.584 -3.11241 4.22172 0
M  V30 2172 H 206.058 -4.49096 3.20962 0
M  V30 2173 H 206.535 -4.10656 1.55752 0
M  V30 2174 H 207.141 -3.11038 2.90061 0
M  V30 2175 N 205.456 -1.28612 -0.910864 0
M  V30 2176 C 206.704 -1.15705 -1.65701 0
M  V30 2177 C 207.025 0.29416 -1.92769 0
M  V30 2178 O 206.295 1.20331 -1.54588 0
M  V30 2179 H 204.875 -0.425216 -0.614167 0
M  V30 2180 H 207.537 -1.61381 -1.0928 0
M  V30 2181 H 206.633 -1.6988 -2.61815 0
M  V30 2182 N 206.934 1.1197 -1.10907 0
M  V30 2183 C 207.881 2.17846 -0.762345 0
M  V30 2184 C 208.851 1.63995 0.263599 0
M  V30 2185 O 210.036 1.90273 0.141773 0
M  V30 2186 C 207.176 3.44487 -0.205651 0
M  V30 2187 C 206.289 4.12369 -1.28748 0
M  V30 2188 C 205.424 5.26674 -0.691919 0
M  V30 2189 C 204.463 5.86431 -1.75399 0
M  V30 2190 N 203.6 6.92142 -1.17833 0
M  V30 2191 H 208.44 2.46851 -1.6694 0
M  V30 2192 H 205.977 1.21188 -0.833776 0
M  V30 2193 H 207.935 4.16981 0.135037 0
M  V30 2194 H 206.565 3.15884 0.664613 0
M  V30 2195 H 205.617 3.38003 -1.74522 0
M  V30 2196 H 206.929 4.52844 -2.09125 0
M  V30 2197 H 206.083 6.05953 -0.300963 0
M  V30 2198 H 204.822 4.8749 0.143232 0
M  V30 2199 H 203.827 5.05835 -2.15432 0
M  V30 2200 H 205.052 6.27685 -2.59208 0
M  V30 2201 H 202.998 6.54985 -0.364725 0
M  V30 2202 H 202.915 7.31242 -1.91887 0
M  V30 2203 H 204.183 7.75237 -0.81408 0
M  V30 2204 N 208.412 0.89855 1.29475 0
M  V30 2205 C 209.64 0.539261 1.99749 0
M  V30 2206 C 210.055 -0.875716 1.67262 0
M  V30 2207 O 209.412 -1.57786 0.917049 0
M  V30 2208 C 209.463 0.72061 3.54245 0
M  V30 2209 O 209.184 2.07989 3.8558 0
M  V30 2210 C 210.685 0.366118 4.41786 0
M  V30 2211 H 207.905 0.207047 0.638258 0
M  V30 2212 H 210.449 1.20758 1.65039 0
M  V30 2213 H 208.604 0.0994862 3.87272 0
M  V30 2214 H 209.018 2.10841 4.80257 0
M  V30 2215 H 210.492 0.543848 5.49314 0
M  V30 2216 H 210.969 -0.696763 4.33638 0
M  V30 2217 H 211.575 0.964135 4.14228 0
M  V30 2218 N 209.89 -1.43072 0.660911 0
M  V30 2219 C 210.823 -2.28074 -0.0758862 0
M  V30 2220 C 211.801 -1.40271 -0.822362 0
M  V30 2221 O 212.985 -1.69713 -0.820352 0
M  V30 2222 C 210.112 -3.19843 -1.11437 0
M  V30 2223 C 209.158 -4.23957 -0.465069 0
M  V30 2224 S 209.991 -5.29978 0.767078 0
M  V30 2225 C 211.147 -6.25314 -0.270682 0
M  V30 2226 H 211.38 -2.90216 0.645139 0
M  V30 2227 H 208.913 -1.47697 0.449995 0
M  V30 2228 H 210.871 -3.73257 -1.70849 0
M  V30 2229 H 209.532 -2.56863 -1.80776 0
M  V30 2230 H 208.725 -4.88299 -1.24819 0
M  V30 2231 H 208.327 -3.73959 0.0551242 0
M  V30 2232 H 210.619 -6.67932 -1.13459 0
M  V30 2233 H 211.562 -7.07293 0.337916 0
M  V30 2234 H 211.97 -5.61195 -0.609937 0
M  V30 2235 N 211.368 -0.403325 -1.52352 0
M  V30 2236 C 212.3 0.4603 -2.2453 0
M  V30 2237 C 213.313 1.01505 -1.27282 0
M  V30 2238 O 214.502 0.914982 -1.53266 0
M  V30 2239 C 211.602 1.65208 -2.95905 0
M  V30 2240 C 210.775 1.22224 -4.19976 0
M  V30 2241 C 209.834 2.28028 -4.74226 0
M  V30 2242 O 208.86 1.88857 -5.36956 0
M  V30 2243 N 210.062 3.6012 -4.55295 0
M  V30 2244 H 212.827 -0.158156 -2.99282 0
M  V30 2245 H 210.388 -0.230402 -1.60252 0
M  V30 2246 H 212.38 2.35541 -3.29093 0
M  V30 2247 H 210.95 2.17658 -2.24374 0
M  V30 2248 H 210.17 0.34725 -3.92668 0
M  V30 2249 H 211.458 0.911924 -5.00561 0
M  V30 2250 H 210.856 3.94698 -4.05253 0
M  V30 2251 H 209.413 4.26447 -4.92936 0
M  V30 2252 N 212.846 1.57033 -0.133567 0
M  V30 2253 C 214.074 2.00044 0.528195 0
M  V30 2254 C 214.489 1.01349 1.59291 0
M  V30 2255 O 213.846 0.00848369 1.82498 0
M  V30 2256 C 213.897 3.43018 1.1411 0
M  V30 2257 O 213.618 4.37939 0.11892 0
M  V30 2258 C 215.119 4.01237 1.88477 0
M  V30 2259 H 212.339 0.656517 0.138661 0
M  V30 2260 H 214.883 2.03267 -0.224196 0
M  V30 2261 H 213.038 3.40688 1.84418 0
M  V30 2262 H 213.452 5.21436 0.56613 0
M  V30 2263 H 214.926 5.03314 2.26669 0
M  V30 2264 H 215.403 3.41193 2.76558 0
M  V30 2265 H 216.009 4.07156 1.22898 0
M  V30 2266 N 214.325 -0.140222 1.56975 0
M  V30 2267 C 215.255 -1.17456 2.01808 0
M  V30 2268 C 216.236 -1.44415 0.898794 0
M  V30 2269 O 217.421 -1.5522 1.16707 0
M  V30 2270 C 214.551 -2.50607 2.40444 0
M  V30 2271 C 213.505 -2.38155 3.55621 0
M  V30 2272 C 212.831 -3.76078 3.80091 0
M  V30 2273 C 214.131 -1.85991 4.88062 0
M  V30 2274 H 215.825 -0.801743 2.88466 0
M  V30 2275 H 213.371 -0.38422 1.38779 0
M  V30 2276 H 215.324 -3.23197 2.7041 0
M  V30 2277 H 214.048 -2.89737 1.50732 0
M  V30 2278 H 212.707 -1.68016 3.25832 0
M  V30 2279 H 212.355 -4.12656 2.87618 0
M  V30 2280 H 212.055 -3.68606 4.57606 0
M  V30 2281 H 213.579 -4.50206 4.12488 0
M  V30 2282 H 214.993 -2.4838 5.16701 0
M  V30 2283 H 213.39 -1.89393 5.6943 0
M  V30 2284 H 214.46 -0.816023 4.77984 0
M  V30 2285 N 215.803 -1.52179 -0.40978 0
M  V30 2286 C 216.733 -1.78435 -1.5061 0
M  V30 2287 C 217.714 -0.635295 -1.57791 0
M  V30 2288 O 218.899 -0.880823 -1.73076 0
M  V30 2289 C 216.029 -1.93444 -2.88439 0
M  V30 2290 C 214.983 -3.09038 -2.96108 0
M  V30 2291 C 214.309 -3.09268 -4.36185 0
M  V30 2292 C 215.609 -4.48508 -2.67652 0
M  V30 2293 H 217.303 -2.70237 -1.28889 0
M  V30 2294 H 214.849 -1.30036 -0.618605 0
M  V30 2295 H 216.802 -2.10394 -3.65119 0
M  V30 2296 H 215.526 -0.983129 -3.11452 0
M  V30 2297 H 214.185 -2.91837 -2.21872 0
M  V30 2298 H 213.833 -2.11861 -4.56206 0
M  V30 2299 H 213.533 -3.86907 -4.42241 0
M  V30 2300 H 215.057 -3.28348 -5.14801 0
M  V30 2301 H 216.471 -4.65918 -3.34056 0
M  V30 2302 H 214.868 -5.28059 -2.85085 0
M  V30 2303 H 215.938 -4.56649 -1.63095 0
M  V30 2304 N 217.281 0.66697 -1.42791 0
M  V30 2305 C 218.506 1.46004 -1.47301 0
M  V30 2306 C 218.931 1.87894 -0.0880317 0
M  V30 2307 O 218.289 1.56502 0.915253 0
M  V30 2308 C 218.337 2.68031 -2.41229 0
M  V30 2309 O 217.441 3.6659 -1.88906 0
M  V30 2310 H 216.782 0.43832 -0.49877 0
M  V30 2311 H 219.312 0.817391 -1.87563 0
M  V30 2312 H 219.322 3.1601 -2.58073 0
M  V30 2313 H 217.997 2.36883 -3.41847 0
M  V30 2314 H 216.574 3.25661 -1.81656 0
M  V30 2315 N 218.759 1.29093 0.90403 0
M  V30 2316 C 219.689 1.16401 2.02418 0
M  V30 2317 C 220.67 0.0593085 1.69997 0
M  V30 2318 O 221.855 0.238021 1.92736 0
M  V30 2319 C 218.985 0.835233 3.37107 0
M  V30 2320 C 217.939 1.89578 3.83724 0
M  V30 2321 C 217.265 1.42041 5.15489 0
M  V30 2322 C 218.565 3.30394 4.04521 0
M  V30 2323 H 220.259 2.10109 2.13295 0
M  V30 2324 H 217.805 1.01157 1.02486 0
M  V30 2325 H 219.758 0.733169 4.14973 0
M  V30 2326 H 218.482 -0.137543 3.2631 0
M  V30 2327 H 217.141 1.98715 3.08071 0
M  V30 2328 H 216.789 0.436426 5.01103 0
M  V30 2329 H 216.489 2.12964 5.4765 0
M  V30 2330 H 218.013 1.33176 5.959 0
M  V30 2331 H 219.427 3.24123 4.72882 0
M  V30 2332 H 217.824 3.99237 4.48029 0
M  V30 2333 H 218.894 3.73692 3.09002 0
M  V30 2334 N 220.237 -1.11381 1.11499 0
M  V30 2335 C 221.483 -1.83403 0.865512 0
M  V30 2336 C 221.816 -1.84459 -0.607329 0
M  V30 2337 O 221.091 -1.29811 -1.44842 0
M  V30 2338 C 221.374 -3.30552 1.42855 0
M  V30 2339 C 221.227 -3.37886 2.96906 0
M  V30 2340 C 222.546 -4.26643 1.08 0
M  V30 2341 H 219.665 -0.665879 0.31587 0
M  V30 2342 H 222.307 -1.30601 1.37998 0
M  V30 2343 H 220.457 -3.75648 0.990985 0
M  V30 2344 H 222.129 -3.01343 3.49271 0
M  V30 2345 H 220.372 -2.78088 3.32941 0
M  V30 2346 H 221.043 -4.41458 3.31389 0
M  V30 2347 H 223.519 -3.89729 1.45775 0
M  V30 2348 H 222.395 -5.27986 1.50072 0
M  V30 2349 H 222.656 -4.42099 -0.00915037 0
M  V30 2350 N 221.715 -0.905404 -1.28997 0
M  V30 2351 C 223.131 -0.60233 -1.47798 0
M  V30 2352 C 223.331 0.854645 -1.82478 0
M  V30 2353 O 222.387 1.63439 -1.92468 0
M  V30 2354 C 223.7 -1.53306 -2.58685 0
M  V30 2355 C 225.248 -1.53887 -2.72558 0
M  V30 2356 C 225.723 -2.45602 -3.86579 0
M  V30 2357 N 227.214 -2.43681 -3.93921 0
M  V30 2358 C 227.949 -3.11347 -4.81509 0
M  V30 2359 N 227.445 -3.88313 -5.73746 0
M  V30 2360 N 229.238 -3.00476 -4.75048 0
M  V30 2361 H 221.389 -1.84765 -1.04764 0
M  V30 2362 H 223.652 -0.792025 -0.520961 0
M  V30 2363 H 223.358 -2.57141 -2.39941 0
M  V30 2364 H 223.232 -1.25787 -3.55609 0
M  V30 2365 H 225.619 -0.507941 -2.90696 0
M  V30 2366 H 225.7 -1.85447 -1.76191 0
M  V30 2367 H 225.344 -3.48792 -3.69197 0
M  V30 2368 H 225.274 -2.11349 -4.82327 0
M  V30 2369 H 227.765 -1.87767 -3.27951 0
M  V30 2370 H 228.078 -4.36985 -6.37389 0
M  V30 2371 H 226.423 -3.92419 -5.73614 0
M  V30 2372 H 229.614 -2.39858 -4.01977 0
M  V30 2373 H 229.787 -3.53485 -5.43095 0
M  V30 2374 N 223.193 1.4272 -0.668489 0
M  V30 2375 C 224.125 2.2914 0.052613 0
M  V30 2376 C 225.138 1.43339 0.771857 0
M  V30 2377 O 226.327 1.67123 0.627067 0
M  V30 2378 C 223.427 3.20618 1.09804 0
M  V30 2379 C 222.6 4.35039 0.45389 0
M  V30 2380 C 221.659 5.07282 1.39825 0
M  V30 2381 O 220.685 5.62024 0.900978 0
M  V30 2382 N 221.887 5.12206 2.73176 0
M  V30 2383 H 224.652 2.91668 -0.689209 0
M  V30 2384 H 222.213 1.53577 -0.512422 0
M  V30 2385 H 224.205 3.65815 1.73094 0
M  V30 2386 H 222.775 2.59585 1.74167 0
M  V30 2387 H 221.995 3.92567 -0.358396 0
M  V30 2388 H 223.283 5.088 0.00486972 0
M  V30 2389 H 222.681 4.6913 3.16122 0
M  V30 2390 H 221.238 5.61069 3.31729 0
M  V30 2391 N 224.671 0.411399 1.52136 0
M  V30 2392 C 225.901 -0.16284 2.05957 0
M  V30 2393 C 226.309 -1.3922 1.28119 0
M  V30 2394 O 225.652 -1.80768 0.326881 0
M  V30 2395 C 225.714 -0.575946 3.54856 0
M  V30 2396 C 225.378 0.542998 4.53763 0
M  V30 2397 C 226.375 1.40726 5.00492 0
M  V30 2398 C 224.06 0.716337 4.97166 0
M  V30 2399 C 226.054 2.4298 5.8927 0
M  V30 2400 C 223.741 1.74218 5.8574 0
M  V30 2401 C 224.739 2.59731 6.31687 0
M  V30 2402 O 224.427 3.60558 7.18507 0
M  V30 2403 H 224.159 -0.0229125 0.675612 0
M  V30 2404 H 226.713 0.581634 1.96993 0
M  V30 2405 H 224.943 -1.37274 3.61515 0
M  V30 2406 H 226.632 -1.07836 3.91313 0
M  V30 2407 H 227.398 1.28476 4.67674 0
M  V30 2408 H 223.277 0.0603857 4.6096 0
M  V30 2409 H 226.821 3.0976 6.25055 0
M  V30 2410 H 222.718 1.86498 6.17971 0
M  V30 2411 H 223.486 3.56829 7.36624 0
M  V30 2412 N 226.149 -1.5696 0.141893 0
M  V30 2413 C 227.097 -2.17784 -0.816874 0
M  V30 2414 C 228.091 -1.1334 -1.25899 0
M  V30 2415 O 229.297 -1.316 -1.22806 0
M  V30 2416 H 225.672 -0.697278 -0.281615 0
M  V30 2417 H 227.643 -2.97087 -0.279621 0
M  V30 2418 C 226.392 -2.80983 -2.04802 0
M  V30 2419 H 225.715 -3.61062 -1.7168 0
M  V30 2420 H 227.155 -3.2705 -2.69841 0
M  V30 2421 C 225.614 -1.79228 -2.8527 0
M  V30 2422 O 226.144 -1.25962 -3.8144 0
M  V30 2423 N 224.35 -1.48647 -2.49704 0
M  V30 2424 H 223.897 -1.92155 -1.71564 0
M  V30 2425 H 223.855 -0.808115 -3.03837 0
M  V30 2426 N 227.627 0.131896 -1.57047 0
M  V30 2427 C 229.038 0.690407 -1.73465 0
M  V30 2428 C 229.389 1.8094 -0.758629 0
M  V30 2429 O 228.514 2.16282 0.0713813 0
M  V30 2430 C 229.109 1.25916 -3.14532 0
M  V30 2431 C 227.668 1.76409 -3.32501 0
M  V30 2432 C 226.815 0.658579 -2.69366 0
M  V30 2433 H 229.766 -0.0939144 -1.58422 0
M  V30 2434 H 229.787 2.12892 -3.15369 0
M  V30 2435 H 229.299 0.444515 -3.85546 0
M  V30 2436 H 227.4 2.60391 -2.66509 0
M  V30 2437 H 227.513 1.88241 -4.4057 0
M  V30 2438 H 225.877 1.08899 -2.30246 0
M  V30 2439 H 226.66 -0.14487 -3.42994 0
M  V30 2440 N 229.106 1.52395 0.401703 0
M  V30 2441 C 230.053 1.76268 1.48991 0
M  V30 2442 C 231.023 0.605386 1.54675 0
M  V30 2443 O 232.208 0.843742 1.7113 0
M  V30 2444 C 229.348 1.92592 2.86361 0
M  V30 2445 C 228.461 3.20259 2.89928 0
M  V30 2446 C 227.596 3.26972 4.18644 0
M  V30 2447 C 226.635 4.48812 4.16214 0
M  V30 2448 N 225.772 4.52877 5.36514 0
M  V30 2449 H 230.612 2.6914 1.27935 0
M  V30 2450 H 228.149 1.33355 0.620871 0
M  V30 2451 H 230.107 2.0004 3.66115 0
M  V30 2452 H 228.737 1.03093 3.05895 0
M  V30 2453 H 227.789 3.21945 2.02621 0
M  V30 2454 H 229.101 4.10056 2.83999 0
M  V30 2455 H 228.255 3.33533 5.06794 0
M  V30 2456 H 226.994 2.35126 4.27278 0
M  V30 2457 H 225.999 4.4239 3.26453 0
M  V30 2458 H 227.224 5.41961 4.09213 0
M  V30 2459 H 225.17 3.63917 5.45802 0
M  V30 2460 H 225.087 5.36529 5.32609 0
M  V30 2461 H 226.355 4.63676 6.26597 0
M  V30 2462 N 230.584 -0.659388 1.43143 0
M  V30 2463 C 231.517 -1.78425 1.42267 0
M  V30 2464 C 232.495 -1.60085 0.284894 0
M  V30 2465 O 233.679 -1.82351 0.477527 0
M  V30 2466 C 230.806 -3.15642 1.22833 0
M  V30 2467 C 229.852 -3.52698 2.39806 0
M  V30 2468 S 230.685 -3.53372 4.02353 0
M  V30 2469 C 231.841 -4.93256 3.85291 0
M  V30 2470 H 232.074 -1.78897 2.37452 0
M  V30 2471 H 229.607 -0.831469 1.301 0
M  V30 2472 H 231.565 -3.94838 1.12308 0
M  V30 2473 H 230.226 -3.12739 0.29207 0
M  V30 2474 H 229.419 -4.52475 2.21996 0
M  V30 2475 H 229.021 -2.80899 2.46925 0
M  V30 2476 H 231.313 -5.81751 3.47235 0
M  V30 2477 H 232.256 -5.16115 4.84799 0
M  V30 2478 H 232.664 -4.665 3.17865 0
M  V30 2479 N 232.062 -1.29571 -0.897171 0
M  V30 2480 C 233.308 -1.17863 -1.65034 0
M  V30 2481 C 233.641 0.268729 -1.92332 0
M  V30 2482 O 232.916 1.19378 -1.53555 0
M  V30 2483 C 233.199 -1.995 -2.99786 0
M  V30 2484 C 233.052 -3.5239 -2.79538 0
M  V30 2485 C 234.371 -1.82335 -4.00552 0
M  V30 2486 H 231.49 -0.429528 -0.598895 0
M  V30 2487 H 234.132 -1.59072 -1.03905 0
M  V30 2488 H 232.282 -1.64485 -3.51962 0
M  V30 2489 H 233.954 -3.97401 -2.34244 0
M  V30 2490 H 232.197 -3.77187 -2.14273 0
M  V30 2491 H 232.868 -4.04787 -3.75302 0
M  V30 2492 H 235.344 -2.12924 -3.57495 0
M  V30 2493 H 234.22 -2.41801 -4.92771 0
M  V30 2494 H 234.481 -0.779209 -4.35179 0
M  V30 2495 N 233.54 1.10788 -1.12088 0
M  V30 2496 C 234.487 2.17025 -0.785407 0
M  V30 2497 C 235.457 1.64265 0.246191 0
M  V30 2498 O 236.642 1.90412 0.121584 0
M  V30 2499 C 233.782 3.44249 -0.242177 0
M  V30 2500 C 232.895 4.1098 -1.33115 0
M  V30 2501 C 232.03 5.25911 -0.747741 0
M  V30 2502 C 231.069 5.84538 -1.81609 0
M  V30 2503 N 230.206 6.90853 -1.25167 0
M  V30 2504 H 235.046 2.45066 -1.69548 0
M  V30 2505 H 232.583 1.20297 -0.846582 0
M  V30 2506 H 234.541 4.17101 0.0908026 0
M  V30 2507 H 233.171 3.16571 0.631072 0
M  V30 2508 H 232.223 3.36133 -1.78097 0
M  V30 2509 H 233.535 4.50601 -2.13917 0
M  V30 2510 H 232.689 6.056 -0.365216 0
M  V30 2511 H 231.428 4.87614 0.0915188 0
M  V30 2512 H 230.433 5.03522 -2.20785 0
M  V30 2513 H 231.658 6.249 -2.6585 0
M  V30 2514 H 229.604 6.54562 -0.434174 0
M  V30 2515 H 229.521 7.29166 -1.99633 0
M  V30 2516 H 230.789 7.7433 -0.896259 0
M  V30 2517 N 235.018 0.912232 1.28515 0
M  V30 2518 C 236.264 0.545405 1.95328 0
M  V30 2519 C 236.597 -0.908313 1.71649 0
M  V30 2520 O 235.872 -1.64575 1.03659 0
M  V30 2521 C 236.155 0.853483 3.4984 0
M  V30 2522 C 236.008 2.35982 3.82926 0
M  V30 2523 C 237.327 0.348589 4.38717 0
M  V30 2524 H 234.446 0.199626 0.709449 0
M  V30 2525 H 237.088 1.1412 1.5191 0
M  V30 2526 H 235.238 0.34643 3.86952 0
M  V30 2527 H 236.91 2.93738 3.55691 0
M  V30 2528 H 235.153 2.81543 3.30024 0
M  V30 2529 H 235.824 2.52593 4.90816 0
M  V30 2530 H 238.3 0.78294 4.08668 0
M  V30 2531 H 237.176 0.593242 5.45685 0
M  V30 2532 H 237.437 -0.751049 4.35674 0
M  V30 2533 N 236.496 -1.42363 0.676048 0
M  V30 2534 C 237.459 -2.29199 0.00766941 0
M  V30 2535 C 238.459 -1.43389 -0.727745 0
M  V30 2536 O 239.649 -1.64764 -0.56556 0
M  V30 2537 C 236.781 -3.2591 -0.999785 0
M  V30 2538 H 237.974 -2.89794 0.771988 0
M  V30 2539 H 235.527 -1.50024 0.438468 0
M  V30 2540 H 236.262 -2.70256 -1.79255 0
M  V30 2541 H 236.047 -3.89202 -0.475829 0
M  V30 2542 H 237.537 -3.91028 -1.46583 0
M  V30 2543 N 237.974 -0.419461 -1.51915 0
M  V30 2544 C 239.199 0.154572 -2.06823 0
M  V30 2545 C 239.624 1.3722 -1.28656 0
M  V30 2546 O 238.982 1.78461 -0.319583 0
M  V30 2547 C 239.03 0.473172 -3.57482 0
M  V30 2548 O 238.134 1.56255 -3.81652 0
M  V30 2549 H 237.475 0.0096924 -0.663929 0
M  V30 2550 H 240.005 -0.595642 -1.95738 0
M  V30 2551 H 240.015 0.728825 -4.01438 0
M  V30 2552 H 238.69 -0.416873 -4.13805 0
M  V30 2553 H 237.267 1.29825 -3.49571 0
M  V30 2554 N 239.452 1.56882 -0.150215 0
M  V30 2555 C 240.382 2.19935 0.784284 0
M  V30 2556 C 241.363 1.14854 1.25469 0
M  V30 2557 O 242.548 1.43209 1.31168 0
M  V30 2558 C 239.678 2.82349 2.02229 0
M  V30 2559 C 238.632 3.93285 1.68853 0
M  V30 2560 C 237.958 4.42649 2.99944 0
M  V30 2561 C 239.258 5.13904 0.932714 0
M  V30 2562 H 240.952 2.9828 0.258781 0
M  V30 2563 H 238.498 1.43473 0.123029 0
M  V30 2564 H 240.451 3.25126 2.68088 0
M  V30 2565 H 239.175 2.0134 2.57157 0
M  V30 2566 H 237.834 3.5113 1.05371 0
M  V30 2567 H 237.482 3.58458 3.52869 0
M  V30 2568 H 237.182 5.17476 2.78374 0
M  V30 2569 H 238.706 4.88099 3.66868 0
M  V30 2570 H 240.12 5.53506 1.49345 0
M  V30 2571 H 238.517 5.94515 0.81684 0
M  V30 2572 H 239.587 4.84842 -0.0749568 0
M  V30 2573 N 240.93 -0.123565 1.57115 0
M  V30 2574 C 241.86 -1.15309 2.03042 0
M  V30 2575 C 242.841 -1.43454 0.914061 0
M  V30 2576 O 244.026 -1.53973 1.18347 0
M  V30 2577 C 241.156 -2.48043 2.43089 0
M  V30 2578 C 240.11 -2.3437 3.58127 0
M  V30 2579 C 239.436 -3.72026 3.84059 0
M  V30 2580 C 240.736 -1.80804 4.90007 0
M  V30 2581 H 242.43 -0.771102 2.893 0
M  V30 2582 H 239.976 -0.369479 1.39179 0
M  V30 2583 H 241.929 -3.20311 2.73823 0
M  V30 2584 H 240.653 -2.88122 1.53796 0
M  V30 2585 H 239.312 -1.64551 3.27595 0
M  V30 2586 H 238.96 -4.09582 2.91979 0
M  V30 2587 H 238.66 -3.63732 4.6149 0
M  V30 2588 H 240.184 -4.45806 4.1724 0
M  V30 2589 H 241.598 -2.42886 5.19307 0
M  V30 2590 H 239.995 -1.83343 5.71407 0
M  V30 2591 H 241.065 -0.76528 4.78823 0
M  V30 2592 N 242.408 -1.52605 -0.393616 0
M  V30 2593 C 243.654 -1.67672 -1.14079 0
M  V30 2594 C 243.987 -0.413121 -1.89755 0
M  V30 2595 O 243.262 0.588952 -1.85369 0
M  V30 2596 C 243.545 -2.9088 -2.12276 0
M  V30 2597 C 243.398 -4.27329 -1.40394 0
M  V30 2598 C 244.717 -3.09628 -3.12759 0
M  V30 2599 H 241.836 -0.610168 -0.413356 0
M  V30 2600 H 244.478 -1.85193 -0.424696 0
M  V30 2601 H 242.628 -2.76073 -2.73342 0
M  V30 2602 H 244.3 -4.53894 -0.82327 0
M  V30 2603 H 242.543 -4.2802 -0.705801 0
M  V30 2604 H 243.214 -5.09615 -2.12123 0
M  V30 2605 H 245.69 -3.23436 -2.61779 0
M  V30 2606 H 244.566 -3.97322 -3.78717 0
M  V30 2607 H 244.827 -2.23637 -3.81365 0
M  V30 2608 N 243.887 0.651787 -1.4349 0
M  V30 2609 C 244.834 1.76462 -1.4876 0
M  V30 2610 C 245.804 1.62641 -0.337189 0
M  V30 2611 O 246.989 1.82864 -0.544544 0
M  V30 2612 C 244.129 3.14623 -1.41796 0
M  V30 2613 C 243.242 3.39568 -2.67053 0
M  V30 2614 C 242.377 4.67585 -2.52068 0
M  V30 2615 C 241.416 4.85639 -3.72587 0
M  V30 2616 N 240.553 6.04915 -3.56402 0
M  V30 2617 H 245.393 1.71293 -2.43849 0
M  V30 2618 H 242.93 0.835889 -1.21043 0
M  V30 2619 H 244.888 3.94496 -1.35753 0
M  V30 2620 H 243.518 3.18859 -0.50288 0
M  V30 2621 H 242.57 2.53783 -2.8337 0
M  V30 2622 H 243.882 3.48795 -3.56572 0
M  V30 2623 H 243.036 5.55586 -2.4374 0
M  V30 2624 H 241.775 4.60681 -1.60075 0
M  V30 2625 H 240.78 3.96073 -3.81321 0
M  V30 2626 H 242.005 4.94372 -4.65589 0
M  V30 2627 H 239.951 5.9914 -2.67146 0
M  V30 2628 H 239.868 6.15106 -4.39524 0
M  V30 2629 H 241.136 6.95533 -3.51929 0
M  V30 2630 N 245.365 1.30045 0.890287 0
M  V30 2631 C 246.781 1.08261 1.17268 0
M  V30 2632 C 246.981 -0.160063 2.00863 0
M  V30 2633 O 246.037 -0.855181 2.37577 0
M  V30 2634 C 247.35 2.34323 1.8845 0
M  V30 2635 C 248.898 2.39735 2.01237 0
M  V30 2636 C 249.373 3.65625 2.7583 0
M  V30 2637 N 250.864 3.66402 2.83379 0
M  V30 2638 C 251.599 4.60498 3.41657 0
M  V30 2639 N 251.095 5.64933 4.01026 0
M  V30 2640 N 252.888 4.48051 3.39421 0
M  V30 2641 H 245.039 2.09777 0.332762 0
M  V30 2642 H 247.302 0.92446 0.209948 0
M  V30 2643 H 247.008 3.2498 1.34465 0
M  V30 2644 H 246.882 2.4256 2.88867 0
M  V30 2645 H 249.269 1.4956 2.54393 0
M  V30 2646 H 249.35 2.35476 0.999232 0
M  V30 2647 H 248.994 4.56156 2.23347 0
M  V30 2648 H 248.924 3.67144 3.77509 0
M  V30 2649 H 251.415 2.90896 2.41222 0
M  V30 2650 H 251.728 6.32841 4.43545 0
M  V30 2651 H 250.073 5.68732 3.99461 0
M  V30 2652 H 253.264 3.65649 2.92264 0
M  V30 2653 H 253.437 5.21565 3.84544 0
M  V30 2654 N 246.843 -1.10192 1.12674 0
M  V30 2655 C 248.071 -1.85983 0.906527 0
M  V30 2656 C 248.486 -1.80783 -0.544333 0
M  V30 2657 O 247.843 -1.19834 -1.37645 0
M  V30 2658 C 247.894 -3.34281 1.37618 0
M  V30 2659 O 247.615 -3.39401 2.77017 0
M  V30 2660 C 249.116 -4.26938 1.19325 0
M  V30 2661 H 246.336 -0.587716 0.323775 0
M  V30 2662 H 248.88 -1.39284 1.49734 0
M  V30 2663 H 247.035 -3.78436 0.828539 0
M  V30 2664 H 247.449 -4.31838 2.97684 0
M  V30 2665 H 248.923 -5.29181 1.57071 0
M  V30 2666 H 249.4 -4.38995 0.134097 0
M  V30 2667 H 250.006 -3.8859 1.72852 0
M  V30 2668 N 248.321 -0.919034 -1.28029 0
M  V30 2669 C 249.732 -0.600735 -1.76771 0
M  V30 2670 C 250.083 0.884024 -1.75156 0
M  V30 2671 O 249.208 1.69163 -1.34956 0
M  V30 2672 C 249.803 -1.08372 -3.21 0
M  V30 2673 C 248.362 -0.816248 -3.67443 0
M  V30 2674 C 247.509 -1.24742 -2.47658 0
M  V30 2675 H 250.46 -1.09974 -1.14418 0
M  V30 2676 H 250.481 -0.427512 -3.78091 0
M  V30 2677 H 249.993 -2.16437 -3.22144 0
M  V30 2678 H 248.094 0.250968 -3.71754 0
M  V30 2679 H 248.207 -1.4277 -4.57333 0
M  V30 2680 H 246.571 -0.666083 -2.45836 0
M  V30 2681 H 247.354 -2.33653 -2.51518 0
M  V30 2682 N 249.799 1.42003 -0.683588 0
M  V30 2683 C 251.215 1.55625 -0.353976 0
M  V30 2684 C 251.415 1.66151 1.14 0
M  V30 2685 O 250.471 1.63329 1.92561 0
M  V30 2686 C 251.784 2.80171 -1.092 0
M  V30 2687 C 253.332 2.93954 -1.07518 0
M  V30 2688 C 253.807 4.21372 -1.79471 0
M  V30 2689 N 255.298 4.28303 -1.76381 0
M  V30 2690 C 256.033 5.25729 -2.28904 0
M  V30 2691 N 255.529 6.29254 -2.89846 0
M  V30 2692 N 257.322 5.17586 -2.19228 0
M  V30 2693 H 249.473 1.33415 -1.6527 0
M  V30 2694 H 251.736 0.64282 -0.696769 0
M  V30 2695 H 251.442 2.78561 -2.14701 0
M  V30 2696 H 251.316 3.7133 -0.662862 0
M  V30 2697 H 253.703 2.95086 -0.028475 0
M  V30 2698 H 253.784 2.04002 -1.54328 0
M  V30 2699 H 253.428 4.21001 -2.84114 0
M  V30 2700 H 253.358 5.10275 -1.30104 0
M  V30 2701 H 255.849 3.54119 -1.31939 0
M  V30 2702 H 256.162 6.99964 -3.27522 0
M  V30 2703 H 254.507 6.29791 -2.93919 0
M  V30 2704 H 257.698 4.35631 -1.71299 0
M  V30 2705 H 257.871 5.93348 -2.60466 0
M  V30 2706 N 251.277 0.427512 1.51691 0
M  V30 2707 C 252.502 -0.143601 2.06902 0
M  V30 2708 C 252.927 -1.36536 1.29382 0
M  V30 2709 O 252.285 -1.78289 0.329043 0
M  V30 2710 C 252.333 -0.454207 3.57728 0
M  V30 2711 O 251.437 -1.54228 3.82475 0
M  V30 2712 H 250.778 -0.00617128 0.663971 0
M  V30 2713 H 253.308 0.606014 1.95419 0
M  V30 2714 H 253.318 -0.707525 4.01818 0
M  V30 2715 H 251.993 0.438812 4.13579 0
M  V30 2716 H 250.57 -1.2797 3.50254 0
M  V30 2717 N 252.755 -1.56801 0.158532 0
M  V30 2718 C 254.001 -1.96781 -0.490405 0
M  V30 2719 C 254.334 -1.04397 -1.63753 0
M  V30 2720 O 253.609 -0.0885805 -1.94298 0
M  V30 2721 C 253.892 -3.4635 -0.985594 0
M  V30 2722 C 253.745 -4.49512 0.160824 0
M  V30 2723 C 255.064 -3.98697 -1.86355 0
M  V30 2724 H 252.183 -0.715482 -0.176788 0
M  V30 2725 H 254.825 -1.88451 0.242088 0
M  V30 2726 H 252.975 -3.53579 -1.60978 0
M  V30 2727 H 254.647 -4.54353 0.797537 0
M  V30 2728 H 252.89 -4.26013 0.818256 0
M  V30 2729 H 253.561 -5.51531 -0.227569 0
M  V30 2730 H 256.037 -3.94019 -1.33746 0
M  V30 2731 H 254.913 -5.03792 -2.17909 0
M  V30 2732 H 255.174 -3.41744 -2.8047 0
M  V30 2733 N 254.233 0.115231 -1.57178 0
M  V30 2734 C 255.481 0.820727 -1.84685 0
M  V30 2735 C 255.802 1.80237 -0.744279 0
M  V30 2736 O 255.072 1.94529 0.231375 0
M  V30 2737 H 253.652 0.306084 -0.681411 0
M  V30 2738 H 256.314 0.101656 -1.94635 0
M  V30 2739 H 255.41 1.36366 -2.80733 0
M  V30 2740 N 255.711 1.52812 0.385517 0
M  V30 2741 C 256.941 1.71658 1.14966 0
M  V30 2742 C 257.349 0.436253 1.84102 0
M  V30 2743 O 256.692 -0.599313 1.73649 0
M  V30 2744 C 256.754 2.81309 2.23843 0
M  V30 2745 C 256.418 4.22313 1.74644 0
M  V30 2746 C 257.415 5.05352 1.22129 0
M  V30 2747 C 255.1 4.68648 1.80761 0
M  V30 2748 C 257.094 6.32807 0.763838 0
M  V30 2749 C 254.781 5.96086 1.34627 0
M  V30 2750 C 255.779 6.77996 0.825264 0
M  V30 2751 O 255.467 8.03045 0.370669 0
M  V30 2752 H 255.199 0.578022 0.350523 0
M  V30 2753 H 257.753 2.00263 0.456509 0
M  V30 2754 H 255.983 2.48133 2.96592 0
M  V30 2755 H 257.672 2.88524 2.85497 0
M  V30 2756 H 258.438 4.70736 1.16758 0
M  V30 2757 H 254.317 4.04979 2.20256 0
M  V30 2758 H 257.861 6.96689 0.356494 0
M  V30 2759 H 253.758 6.30205 1.39686 0
M  V30 2760 H 254.526 8.17021 0.491829 0
M  V30 2761 N 257.189 -0.644168 1.43834 0
M  V30 2762 C 258.136 -1.75671 1.49694 0
M  V30 2763 C 259.106 -1.6246 0.345809 0
M  V30 2764 O 260.291 -1.82573 0.554234 0
M  V30 2765 C 257.431 -3.13867 1.43463 0
M  V30 2766 C 256.544 -3.38147 2.6885 0
M  V30 2767 C 255.679 -4.66241 2.54544 0
M  V30 2768 C 254.718 -4.83657 3.75157 0
M  V30 2769 N 253.855 -6.03016 3.59605 0
M  V30 2770 H 258.695 -1.69998 2.44754 0
M  V30 2771 H 256.232 -0.829458 1.21484 0
M  V30 2772 H 258.19 -3.9377 1.37843 0
M  V30 2773 H 256.82 -3.18588 0.519783 0
M  V30 2774 H 255.872 -2.52276 2.84712 0
M  V30 2775 H 257.184 -3.46899 3.58417 0
M  V30 2776 H 256.338 -5.54285 2.46683 0
M  V30 2777 H 255.077 -4.59826 1.62516 0
M  V30 2778 H 254.082 -3.94046 3.83416 0
M  V30 2779 H 255.307 -4.91896 4.68204 0
M  V30 2780 H 253.253 -5.97715 2.7032 0
M  V30 2781 H 253.17 -6.12766 4.42779 0
M  V30 2782 H 254.438 -6.93657 3.55613 0
M  V30 2783 N 258.668 -1.30515 -0.883378 0
M  V30 2784 C 260.079 -1.17509 -1.45081 0
M  V30 2785 C 260.43 0.223605 -1.94922 0
M  V30 2786 O 259.555 1.12041 -1.85137 0
M  V30 2787 C 260.15 -2.12715 -2.63701 0
M  V30 2788 C 258.709 -2.03682 -3.16529 0
M  V30 2789 C 257.856 -2.02706 -1.89224 0
M  V30 2790 H 260.807 -1.42762 -0.693165 0
M  V30 2791 H 260.828 -1.70891 -3.39965 0
M  V30 2792 H 260.34 -3.14505 -2.27395 0
M  V30 2793 H 258.441 -1.05039 -3.57488 0
M  V30 2794 H 258.554 -2.92146 -3.7972 0
M  V30 2795 H 256.918 -1.4753 -2.07622 0
M  V30 2796 H 257.701 -3.06229 -1.55174 0
M  V30 2797 N 260.146 1.09593 -1.13257 0
M  V30 2798 C 261.423 1.78293 -0.804432 0
M  V30 2799 C 261.803 1.99004 0.70431 0
M  V30 2800 O 261.151 1.59007 1.641 0
M  V30 2801 C 261.361 3.10707 -1.5894 0
M  V30 2802 C 262.709 3.85443 -1.78099 0
M  V30 2803 O 263.733 3.20454 -1.55525 0
M  V30 2804 O 262.592 5.02108 -2.15753 0
M  V30 2805 H 259.686 0.773156 -0.293528 0
M  V30 2806 H 262.232 1.16164 -1.23709 0
M  V30 2807 H 261.004 2.91106 -2.61482 0
M  V30 2808 H 260.627 3.80558 -1.15157 0
M  V30 2809 N 261.624 0.925811 1.2754 0
M  V30 2810 C 262.871 0.565255 1.94451 0
M  V30 2811 C 263.199 -0.89316 1.7278 0
M  V30 2812 O 262.454 -1.65213 1.04895 0
M  V30 2813 C 262.753 0.835296 3.47502 0
M  V30 2814 C 262.419 2.27515 3.89291 0
M  V30 2815 C 261.081 2.66879 4.00411 0
M  V30 2816 C 263.433 3.21158 4.10496 0
M  V30 2817 C 260.761 3.99014 4.30122 0
M  V30 2818 C 263.113 4.52871 4.4169 0
M  V30 2819 C 261.777 4.92072 4.51023 0
M  V30 2820 H 261.047 0.206841 0.711546 0
M  V30 2821 H 263.694 1.16942 1.51647 0
M  V30 2822 H 261.999 0.148442 3.91519 0
M  V30 2823 H 263.696 0.535322 3.97411 0
M  V30 2824 H 260.286 1.95976 3.81171 0
M  V30 2825 H 264.47 2.9195 4.01346 0
M  V30 2826 H 259.726 4.2907 4.35556 0
M  V30 2827 H 263.9 5.25436 4.57045 0
M  V30 2828 H 261.527 5.9449 4.738 0
M  V30 2829 N 263.102 -1.41638 0.69111 0
M  V30 2830 C 264.348 -2.01598 0.220519 0
M  V30 2831 C 264.681 -1.54594 -1.17535 0
M  V30 2832 O 263.956 -0.755177 -1.79241 0
M  V30 2833 C 264.239 -3.59062 0.273243 0
M  V30 2834 C 264.092 -4.16203 1.70573 0
M  V30 2835 C 265.411 -4.38546 -0.369457 0
M  V30 2836 H 262.53 -0.732468 0.0816045 0
M  V30 2837 H 265.172 -1.68445 0.878986 0
M  V30 2838 H 263.322 -3.87435 -0.287411 0
M  V30 2839 H 264.994 -3.98722 2.31989 0
M  V30 2840 H 263.237 -3.71414 2.2413 0
M  V30 2841 H 263.908 -5.25358 1.69419 0
M  V30 2842 H 266.384 -4.1596 0.107977 0
M  V30 2843 H 265.26 -5.48069 -0.302002 0
M  V30 2844 H 265.521 -4.17662 -1.44951 0
M  V30 2845 N 264.58 -0.43555 -1.51462 0
M  V30 2846 C 265.828 0.131254 -2.01673 0
M  V30 2847 C 266.149 1.43368 -1.32177 0
M  V30 2848 O 265.419 1.90524 -0.455769 0
M  V30 2849 H 263.999 0.0514954 -0.745223 0
M  V30 2850 H 266.661 -0.577847 -1.86137 0
M  V30 2851 H 265.757 0.308446 -3.10572 0
M  V30 2852 N 266.058 1.56714 -0.166846 0
M  V30 2853 C 267.305 1.96747 0.479252 0
M  V30 2854 C 267.633 1.05263 1.63554 0
M  V30 2855 O 266.888 0.0858098 1.95512 0
M  V30 2856 C 267.187 3.42889 1.00806 0
M  V30 2857 C 266.853 4.50889 -0.0318574 0
M  V30 2858 C 265.515 4.8015 -0.317675 0
M  V30 2859 C 267.867 5.15949 -0.737956 0
M  V30 2860 C 265.195 5.71772 -1.31506 0
M  V30 2861 C 267.547 6.08647 -1.72429 0
M  V30 2862 C 266.211 6.36277 -2.0176 0
M  V30 2863 H 265.481 0.719949 0.175371 0
M  V30 2864 H 268.128 1.89756 -0.257864 0
M  V30 2865 H 266.433 3.4681 1.82291 0
M  V30 2866 H 268.13 3.71203 1.51689 0
M  V30 2867 H 264.72 4.28128 0.201088 0
M  V30 2868 H 268.904 4.93458 -0.530351 0
M  V30 2869 H 264.16 5.91465 -1.54853 0
M  V30 2870 H 268.334 6.58129 -2.27682 0
M  V30 2871 H 265.961 7.07075 -2.79194 0
M  V30 2872 N 267.536 -0.106894 1.57237 0
M  V30 2873 C 268.446 -1.14911 2.0453 0
M  V30 2874 C 269.462 -1.44592 0.96795 0
M  V30 2875 O 270.638 -1.55468 1.2803 0
M  V30 2876 C 267.703 -2.45272 2.45036 0
M  V30 2877 C 266.764 -2.22879 3.66911 0
M  V30 2878 C 265.997 -3.47024 4.05475 0
M  V30 2879 O 266.22 -4.54804 3.44252 0
M  V30 2880 O 265.154 -3.3731 4.98504 0
M  V30 2881 H 268.98 -0.777461 2.9358 0
M  V30 2882 H 266.565 -0.318563 1.45964 0
M  V30 2883 H 268.447 -3.22055 2.71769 0
M  V30 2884 H 267.122 -2.81886 1.59129 0
M  V30 2885 H 266.029 -1.43915 3.45311 0
M  V30 2886 H 267.362 -1.91163 4.53561 0
M  V30 2887 N 269.014 -1.53014 -0.377408 0
M  V30 2888 C 270.263 -1.67845 -1.11853 0
M  V30 2889 C 270.576 -0.430625 -1.90801 0
M  V30 2890 O 271.782 -0.459261 -2.67587 0
M  V30 2891 C 270.238 -2.96668 -2.03756 0
M  V30 2892 C 269.846 -4.28671 -1.30175 0
M  V30 2893 C 271.59 -3.20865 -2.77932 0
M  V30 2894 C 269.497 -5.48591 -2.20911 0
M  V30 2895 H 268.427 -0.625343 -0.421263 0
M  V30 2896 H 271.078 -1.79514 -0.380409 0
M  V30 2897 H 269.46 -2.78773 -2.8125 0
M  V30 2898 H 270.634 -4.57157 -0.578259 0
M  V30 2899 H 268.949 -4.10825 -0.679108 0
M  V30 2900 H 271.546 -4.07642 -3.46024 0
M  V30 2901 H 271.889 -2.36424 -3.4265 0
M  V30 2902 H 272.422 -3.39379 -2.07525 0
M  V30 2903 H 269.161 -6.35474 -1.6079 0
M  V30 2904 H 268.681 -5.244 -2.91144 0
M  V30 2905 H 270.36 -5.8292 -2.80736 0
M  V30 2906 N 270.492 0.636531 -1.44174 0
M  V30 2907 C 271.903 1.21806 -1.41493 0
M  V30 2908 C 272.254 1.95785 -0.1275 0
M  V30 2909 O 271.379 2.02147 0.772376 0
M  V30 2910 C 271.974 2.21551 -2.56321 0
M  V30 2911 C 270.533 2.75143 -2.56853 0
M  V30 2912 C 269.68 1.50052 -2.33195 0
M  V30 2913 H 272.631 0.427531 -1.52833 0
M  V30 2914 H 272.652 3.0405 -2.28765 0
M  V30 2915 H 272.164 1.67679 -3.50008 0
M  V30 2916 H 270.265 3.33033 -1.67093 0
M  V30 2917 H 270.378 3.2155 -3.55165 0
M  V30 2918 H 268.742 1.77993 -1.82183 0
M  V30 2919 H 269.525 0.980903 -3.28988 0
M  V30 2920 N 271.97 1.30982 0.876444 0
M  V30 2921 C 273.247 1.10942 1.61094 0
M  V30 2922 C 273.627 -0.338223 2.08373 0
M  V30 2923 O 272.975 -1.33122 1.85717 0
M  V30 2924 C 273.185 2.11789 2.77392 0
M  V30 2925 C 274.533 2.43965 3.47514 0
M  V30 2926 O 275.557 2.10166 2.87591 0
M  V30 2927 O 274.416 3.01817 4.55597 0
M  V30 2928 H 271.51 0.42667 0.708436 0
M  V30 2929 H 274.056 1.42438 0.922474 0
M  V30 2930 H 272.828 3.09194 2.39823 0
M  V30 2931 H 272.451 1.81161 3.5393 0
M  V30 2932 N 273.449 -1.08991 1.13837 0
M  V30 2933 C 274.396 -2.15748 0.819835 0
M  V30 2934 C 275.366 -1.64636 -0.220026 0
M  V30 2935 O 276.551 -1.90582 -0.0912757 0
M  V30 2936 C 273.691 -3.4382 0.296913 0
M  V30 2937 C 272.804 -4.0881 1.39636 0
M  V30 2938 C 271.939 -5.24655 0.831314 0
M  V30 2939 C 270.978 -5.81575 1.90886 0
M  V30 2940 N 270.115 -6.88774 1.36142 0
M  V30 2941 H 274.955 -2.42338 1.73426 0
M  V30 2942 H 272.492 -1.18935 0.865613 0
M  V30 2943 H 274.45 -4.17193 -0.0244339 0
M  V30 2944 H 273.08 -3.17535 -0.580628 0
M  V30 2945 H 272.132 -3.33258 1.83422 0
M  V30 2946 H 273.444 -4.47141 2.21058 0
M  V30 2947 H 272.598 -6.04942 0.461515 0
M  V30 2948 H 271.337 -4.87698 -0.013932 0
M  V30 2949 H 270.342 -4.99946 2.28767 0
M  V30 2950 H 271.567 -6.20592 2.75758 0
M  V30 2951 H 269.513 -6.53788 0.538254 0
M  V30 2952 H 269.43 -7.25898 2.11208 0
M  V30 2953 H 270.698 -7.72806 1.01933 0
M  V30 2954 N 274.927 -0.932562 -1.27047 0
M  V30 2955 C 276.174 -0.575559 -1.94148 0
M  V30 2956 C 276.502 0.883984 -1.73251 0
M  V30 2957 O 275.757 1.64655 -1.0577 0
M  V30 2958 C 276.056 -0.853713 -3.47054 0
M  V30 2959 C 275.722 -2.29577 -3.88079 0
M  V30 2960 C 274.384 -2.68999 -3.9899 0
M  V30 2961 C 276.736 -3.23331 -4.08787 0
M  V30 2962 C 274.064 -4.01289 -4.28 0
M  V30 2963 C 276.416 -4.55207 -4.39282 0
M  V30 2964 C 275.08 -4.94457 -4.48407 0
M  V30 2965 H 274.35 -0.210612 -0.710439 0
M  V30 2966 H 276.997 -1.17744 -1.51025 0
M  V30 2967 H 275.302 -0.169204 -3.91434 0
M  V30 2968 H 276.999 -0.55639 -3.97121 0
M  V30 2969 H 273.589 -1.97994 -3.80127 0
M  V30 2970 H 277.773 -2.94074 -3.99793 0
M  V30 2971 H 273.029 -4.31374 -4.33275 0
M  V30 2972 H 277.203 -5.27852 -4.54252 0
M  V30 2973 H 274.83 -5.96994 -4.7064 0
M  V30 2974 N 276.405 1.4127 -0.698611 0
M  V30 2975 C 277.651 2.01478 -0.231207 0
M  V30 2976 C 277.984 1.55215 1.16713 0
M  V30 2977 O 277.259 0.764672 1.78838 0
M  V30 2978 C 277.542 3.58912 -0.292281 0
M  V30 2979 C 277.395 4.15293 -1.72778 0
M  V30 2980 C 278.714 4.38736 0.346194 0
M  V30 2981 H 275.833 0.732025 -0.0854878 0
M  V30 2982 H 278.475 1.67977 -0.887906 0
M  V30 2983 H 276.625 3.87582 0.26686 0
M  V30 2984 H 278.297 3.97486 -2.341 0
M  V30 2985 H 276.54 3.7022 -2.26096 0
M  V30 2986 H 277.211 5.24452 -1.72202 0
M  V30 2987 H 279.687 4.15897 -0.130035 0
M  V30 2988 H 278.563 5.48221 0.272932 0
M  V30 2989 H 278.824 4.18425 1.42734 0
M  V30 2990 N 277.883 0.443576 1.51229 0
M  V30 2991 C 279.129 -0.120975 2.02439 0
M  V30 2992 C 279.462 -1.41815 1.32674 0
M  V30 2993 O 278.737 -1.89373 0.443622 0
M  V30 2994 C 279.02 -0.333291 3.58554 0
M  V30 2995 C 278.873 0.982968 4.38928 0
M  V30 2996 C 280.192 -1.10028 4.26124 0
M  V30 2997 H 277.311 -0.0424923 0.735774 0
M  V30 2998 H 279.953 0.583794 1.80809 0
M  V30 2999 H 278.103 -0.933614 3.77115 0
M  V30 3000 H 279.775 1.61775 4.32003 0
M  V30 3001 H 278.018 1.58611 4.03763 0
M  V30 3002 H 278.689 0.788379 5.46341 0
M  V30 3003 H 281.165 -0.591711 4.11871 0
M  V30 3004 H 280.041 -1.21761 5.35225 0
M  V30 3005 H 280.302 -2.12996 3.87408 0
M  V30 3006 N 279.361 -1.56624 0.175154 0
M  V30 3007 C 280.609 -1.96609 -0.467885 0
M  V30 3008 C 280.93 -1.06238 -1.63519 0
M  V30 3009 O 280.2 -0.129523 -1.95471 0
M  V30 3010 H 278.78 -0.726008 -0.175845 0
M  V30 3011 H 281.442 -1.93195 0.257234 0
M  V30 3012 H 280.538 -3.00989 -0.825342 0
M  V30 3013 N 280.839 0.0985539 -1.57292 0
M  V30 3014 C 282.069 0.815135 -1.8984 0
M  V30 3015 C 282.477 1.7297 -0.766679 0
M  V30 3016 O 281.82 1.81698 0.270483 0
M  V30 3017 C 281.882 1.6842 -3.17608 0
M  V30 3018 C 281.546 0.94182 -4.4719 0
M  V30 3019 C 282.543 0.273212 -5.19182 0
M  V30 3020 C 280.228 0.916927 -4.9386 0
M  V30 3021 C 282.222 -0.410361 -6.36078 0
M  V30 3022 C 279.909 0.229567 -6.10669 0
M  V30 3023 C 280.907 -0.432902 -6.81627 0
M  V30 3024 O 280.595 -1.10925 -7.9621 0
M  V30 3025 H 280.327 0.238501 -0.632529 0
M  V30 3026 H 282.881 0.0812659 -2.05239 0
M  V30 3027 H 281.111 2.46022 -2.98345 0
M  V30 3028 H 282.8 2.27704 -3.36015 0
M  V30 3029 H 283.566 0.283927 -4.84168 0
M  V30 3030 H 279.445 1.42201 -4.3852 0
M  V30 3031 H 282.989 -0.928013 -6.914 0
M  V30 3032 H 278.886 0.216686 -6.45136 0
M  V30 3033 H 279.654 -1.01579 -8.12172 0
M  V30 3034 N 282.317 1.53212 0.369288 0
M  V30 3035 C 283.28 1.7872 1.43498 0
M  V30 3036 C 284.28 0.657554 1.46741 0
M  V30 3037 O 285.47 0.925736 1.47566 0
M  V30 3038 C 282.602 1.90591 2.82645 0
M  V30 3039 H 283.795 2.73894 1.22156 0
M  V30 3040 H 281.348 1.44233 0.602203 0
M  V30 3041 H 282.083 0.974709 3.09306 0
M  V30 3042 H 281.868 2.72751 2.8169 0
M  V30 3043 H 283.358 2.11931 3.59826 0
M  V30 3044 N 283.795 -0.628877 1.44509 0
M  V30 3045 C 284.725 -1.75187 1.54376 0
M  V30 3046 C 285.706 -1.65411 0.396618 0
M  V30 3047 O 286.891 -1.84137 0.617031 0
M  V30 3048 C 284.021 -3.13725 1.48976 0
M  V30 3049 C 282.975 -3.38291 2.62189 0
M  V30 3050 C 282.301 -4.76883 2.41841 0
M  V30 3051 C 283.601 -3.30632 4.04326 0
M  V30 3052 H 285.295 -1.67187 2.48373 0
M  V30 3053 H 282.841 -0.802909 1.19538 0
M  V30 3054 H 284.794 -3.92064 1.54478 0
M  V30 3055 H 283.518 -3.22515 0.514961 0
M  V30 3056 H 282.177 -2.62334 2.56079 0
M  V30 3057 H 281.825 -4.82378 1.42548 0
M  V30 3058 H 281.525 -4.94278 3.17747 0
M  V30 3059 H 283.049 -5.57449 2.49165 0
M  V30 3060 H 284.463 -3.98873 4.11793 0
M  V30 3061 H 282.86 -3.59561 4.80454 0
M  V30 3062 H 283.93 -2.28404 4.27738 0
M  V30 3063 N 285.273 -1.31445 -0.869486 0
M  V30 3064 C 286.55 -1.11795 -1.60503 0
M  V30 3065 C 286.93 0.327168 -2.08549 0
M  V30 3066 O 286.278 1.32135 -1.8642 0
M  V30 3067 C 286.488 -2.13258 -2.76265 0
M  V30 3068 C 287.836 -2.45805 -3.46215 0
M  V30 3069 O 288.86 -2.11688 -2.86473 0
M  V30 3070 O 287.719 -3.04228 -4.5399 0
M  V30 3071 H 284.813 -0.430421 -0.706163 0
M  V30 3072 H 287.359 -1.42925 -0.914907 0
M  V30 3073 H 286.131 -3.10461 -2.3818 0
M  V30 3074 H 285.754 -1.83035 -3.52964 0
M  V30 3075 N 286.751 1.08385 -1.14413 0
M  V30 3076 C 287.981 1.8425 -0.934644 0
M  V30 3077 C 288.389 1.81907 0.520234 0
M  V30 3078 O 287.732 1.22126 1.37226 0
M  V30 3079 C 287.794 3.32853 -1.35828 0
M  V30 3080 C 287.458 3.5893 -2.82875 0
M  V30 3081 C 288.455 3.53756 -3.80989 0
M  V30 3082 C 286.14 3.86934 -3.20293 0
M  V30 3083 C 288.134 3.76216 -5.14529 0
M  V30 3084 C 285.821 4.09047 -4.54008 0
M  V30 3085 C 286.819 4.03682 -5.50936 0
M  V30 3086 O 286.507 4.25214 -6.82238 0
M  V30 3087 H 286.239 0.588502 -0.332628 0
M  V30 3088 H 288.793 1.37792 -1.52324 0
M  V30 3089 H 287.023 3.8007 -0.713019 0
M  V30 3090 H 288.712 3.90154 -1.11957 0
M  V30 3091 H 289.478 3.32135 -3.53428 0
M  V30 3092 H 285.357 3.9023 -2.45442 0
M  V30 3093 H 288.901 3.71943 -5.90173 0
M  V30 3094 H 284.798 4.30151 -4.8129 0
M  V30 3095 H 285.566 4.42619 -6.88499 0
M  V30 3096 N 288.23 0.939286 1.26551 0
M  V30 3097 C 289.178 0.43815 2.28436 0
M  V30 3098 C 290.172 -0.483587 1.62351 0
M  V30 3099 O 291.378 -0.362009 1.76322 0
M  V30 3100 H 287.753 0.123149 0.741848 0
M  V30 3101 H 289.724 1.31002 2.68106 0
M  V30 3102 C 288.473 -0.283052 3.46546 0
M  V30 3103 H 287.796 0.417043 3.97619 0
M  V30 3104 H 289.236 -0.597948 4.19763 0
M  V30 3105 C 287.695 -1.50018 3.01656 0
M  V30 3106 O 288.225 -2.59855 3.0633 0
M  V30 3107 N 286.431 -1.35608 2.57019 0
M  V30 3108 H 285.978 -0.46244 2.53415 0
M  V30 3109 H 285.936 -2.17165 2.27347 0
M  V30 3110 N 289.708 -1.40897 0.706093 0
M  V30 3111 C 290.618 -2.3455 0.0482286 0
M  V30 3112 C 291.634 -1.56796 -0.754396 0
M  V30 3113 O 292.81 -1.89228 -0.689538 0
M  V30 3114 C 289.875 -3.35625 -0.869303 0
M  V30 3115 C 288.936 -4.29261 -0.0576994 0
M  V30 3116 C 288.169 -5.25508 -0.931531 0
M  V30 3117 O 288.392 -5.27472 -2.17092 0
M  V30 3118 O 287.326 -6.00727 -0.375587 0
M  V30 3119 H 291.152 -2.92407 0.820476 0
M  V30 3120 H 288.737 -1.4193 0.4665 0
M  V30 3121 H 290.619 -3.97635 -1.39514 0
M  V30 3122 H 289.294 -2.80196 -1.62086 0
M  V30 3123 H 288.201 -3.70566 0.512988 0
M  V30 3124 H 289.534 -4.87817 0.655426 0
M  V30 3125 N 291.186 -0.45159 -1.50991 0
M  V30 3126 C 292.416 0.108177 -2.06317 0
M  V30 3127 C 292.824 1.35774 -1.31765 0
M  V30 3128 O 292.167 1.79838 -0.374694 0
M  V30 3129 C 292.229 0.481659 -3.56259 0
M  V30 3130 C 291.893 -0.663114 -4.52163 0
M  V30 3131 C 292.89 -1.53947 -4.96585 0
M  V30 3132 C 290.575 -0.8479 -4.95092 0
M  V30 3133 C 292.569 -2.58518 -5.82621 0
M  V30 3134 C 290.256 -1.89686 -5.80915 0
M  V30 3135 C 291.254 -2.76388 -6.24579 0
M  V30 3136 O 290.942 -3.79482 -7.08695 0
M  V30 3137 H 290.674 0.00499183 -0.675982 0
M  V30 3138 H 293.228 -0.633659 -1.95381 0
M  V30 3139 H 291.458 1.27641 -3.65027 0
M  V30 3140 H 293.147 0.974233 -3.94035 0
M  V30 3141 H 293.913 -1.4083 -4.64103 0
M  V30 3142 H 289.792 -0.18258 -4.60638 0
M  V30 3143 H 293.336 -3.26224 -6.16623 0
M  V30 3144 H 289.233 -2.02817 -6.12809 0
M  V30 3145 H 290.001 -3.76234 -7.26905 0
M  V30 3146 N 292.664 1.56529 -0.183458 0
M  V30 3147 C 293.911 1.97244 0.458357 0
M  V30 3148 C 294.239 1.06992 1.62428 0
M  V30 3149 O 293.494 0.106542 1.9541 0
M  V30 3150 C 293.793 3.43939 0.971637 0
M  V30 3151 C 293.459 4.5083 -0.0796784 0
M  V30 3152 C 292.121 4.79786 -0.368584 0
M  V30 3153 C 294.473 5.15138 -0.792638 0
M  V30 3154 C 291.801 5.70345 -1.37563 0
M  V30 3155 C 294.153 6.06784 -1.78875 0
M  V30 3156 C 292.817 6.34102 -2.08497 0
M  V30 3157 H 292.087 0.721768 0.167725 0
M  V30 3158 H 294.734 1.89472 -0.277976 0
M  V30 3159 H 293.039 3.48724 1.78602 0
M  V30 3160 H 294.736 3.72791 1.47744 0
M  V30 3161 H 291.326 4.28317 0.155668 0
M  V30 3162 H 295.51 4.92868 -0.582659 0
M  V30 3163 H 290.766 5.89789 -1.61118 0
M  V30 3164 H 294.94 6.55677 -2.3465 0
M  V30 3165 H 292.567 7.04074 -2.86678 0
M  V30 3166 N 294.142 -0.090211 1.57342 0
M  V30 3167 C 295.558 -0.444547 1.53284 0
M  V30 3168 C 295.758 -1.80238 0.900914 0
M  V30 3169 O 294.814 -2.4759 0.495513 0
M  V30 3170 C 296.127 -0.402543 2.97993 0
M  V30 3171 C 297.675 -0.48405 3.09234 0
M  V30 3172 C 298.15 -0.472144 4.5556 0
M  V30 3173 N 299.641 -0.532757 4.60126 0
M  V30 3174 C 300.376 -0.545462 5.708 0
M  V30 3175 N 299.872 -0.514082 6.9089 0
M  V30 3176 N 301.665 -0.59064 5.58988 0
M  V30 3177 H 293.816 0.799121 1.96794 0
M  V30 3178 H 296.079 0.297965 0.899956 0
M  V30 3179 H 295.785 0.528106 3.47712 0
M  V30 3180 H 295.659 -1.21969 3.56936 0
M  V30 3181 H 298.046 -1.40512 2.595 0
M  V30 3182 H 298.127 0.361328 2.53235 0
M  V30 3183 H 297.771 0.445 5.05947 0
M  V30 3184 H 297.701 -1.3348 5.09402 0
M  V30 3185 H 300.192 -0.562006 3.73698 0
M  V30 3186 H 300.505 -0.527195 7.71 0
M  V30 3187 H 298.85 -0.481054 6.93333 0
M  V30 3188 H 302.041 -0.61272 4.64073 0
M  V30 3189 H 302.214 -0.597073 6.45243 0
M  V30 3190 N 295.62 -1.53406 -0.361157 0
M  V30 3191 C 296.897 -1.60411 -1.11927 0
M  V30 3192 C 297.277 -0.414385 -2.06993 0
M  V30 3193 O 296.625 0.594976 -2.20618 0
M  V30 3194 C 296.835 -2.95652 -1.85448 0
M  V30 3195 C 298.183 -3.50386 -2.39823 0
M  V30 3196 O 299.207 -2.97711 -1.95568 0
M  V30 3197 O 298.066 -4.42482 -3.20737 0
M  V30 3198 H 295.16 -0.64811 -0.513695 0
M  V30 3199 H 297.706 -1.65749 -0.364065 0
M  V30 3200 H 296.478 -3.73682 -1.16091 0
M  V30 3201 H 296.101 -2.93825 -2.67866 0
M  V30 3202 N 297.098 0.621204 -1.44841 0
M  V30 3203 C 298.028 1.74366 -1.55303 0
M  V30 3204 C 299.009 1.65199 -0.405385 0
M  V30 3205 O 300.194 1.83807 -0.626787 0
M  V30 3206 C 297.324 3.12931 -1.50637 0
M  V30 3207 C 296.278 3.36896 -2.63979 0
M  V30 3208 C 295.604 4.75594 -2.44366 0
M  V30 3209 C 296.904 3.28483 -4.06074 0
M  V30 3210 H 298.598 1.65867 -2.49256 0
M  V30 3211 H 296.144 0.796558 -1.19962 0
M  V30 3212 H 298.097 3.9124 -1.56555 0
M  V30 3213 H 296.821 3.22237 -0.532057 0
M  V30 3214 H 295.48 2.60972 -2.57467 0
M  V30 3215 H 295.128 4.81616 -1.45105 0
M  V30 3216 H 294.828 4.92586 -3.20364 0
M  V30 3217 H 296.352 5.5612 -2.52117 0
M  V30 3218 H 297.766 3.96684 -4.13902 0
M  V30 3219 H 296.163 3.57008 -4.82354 0
M  V30 3220 H 297.233 2.26133 -4.28943 0
M  V30 3221 N 298.576 1.31904 0.862503 0
M  V30 3222 C 299.524 1.20125 1.9918 0
M  V30 3223 C 300.518 0.107824 1.69056 0
M  V30 3224 O 301.724 0.270223 1.7796 0
M  V30 3225 H 298.099 0.372148 0.65346 0
M  V30 3226 H 300.07 2.15652 2.06244 0
M  V30 3227 C 298.819 0.933099 3.34946 0
M  V30 3228 H 298.142 1.76664 3.5865 0
M  V30 3229 H 299.582 0.890892 4.14535 0
M  V30 3230 C 298.041 -0.364172 3.34926 0
M  V30 3231 O 298.571 -1.37858 3.77304 0
M  V30 3232 N 296.777 -0.383362 2.8806 0
M  V30 3233 H 296.324 0.442651 2.53768 0
M  V30 3234 H 296.282 -1.25123 2.8843 0
M  V30 3235 N 300.054 -1.07777 1.14986 0
M  V30 3236 C 301.004 -2.13082 0.811181 0
M  V30 3237 C 301.988 -1.59619 -0.202597 0
M  V30 3238 O 303.18 -1.77 -0.00398275 0
M  V30 3239 C 300.309 -3.42009 0.297439 0
M  V30 3240 C 299.395 -4.02337 1.34112 0
M  V30 3241 N 299.786 -4.36982 2.54716 0
M  V30 3242 C 298.084 -4.29752 1.19285 0
M  V30 3243 C 298.785 -4.84729 3.21578 0
M  V30 3244 N 297.761 -4.83233 2.48972 0
M  V30 3245 H 301.563 -2.37696 1.72853 0
M  V30 3246 H 299.077 -1.25173 1.03468 0
M  V30 3247 H 301.074 -4.16884 0.0364777 0
M  V30 3248 H 299.734 -3.18841 -0.614022 0
M  V30 3249 H 300.745 -4.27807 2.91894 0
M  V30 3250 H 297.422 -4.16106 0.340926 0
M  V30 3251 H 298.812 -5.20863 4.24442 0
M  V30 3252 N 301.532 -0.945985 -1.26051 0
M  V30 3253 C 302.778 -0.597002 -1.93814 0
M  V30 3254 C 303.111 0.862484 -1.73997 0
M  V30 3255 O 302.386 1.61769 -1.07986 0
M  V30 3256 C 302.669 -0.945937 -3.47454 0
M  V30 3257 C 302.522 -2.46052 -3.76535 0
M  V30 3258 C 303.841 -0.464785 -4.37639 0
M  V30 3259 H 300.96 -0.218366 -0.703907 0
M  V30 3260 H 303.602 -1.18107 -1.48831 0
M  V30 3261 H 301.752 -0.448902 -3.85898 0
M  V30 3262 H 303.424 -3.03065 -3.47778 0
M  V30 3263 H 301.667 -2.90194 -3.22444 0
M  V30 3264 H 302.338 -2.65517 -4.83947 0
M  V30 3265 H 304.814 -0.891016 -4.06448 0
M  V30 3266 H 303.69 -0.737712 -5.4392 0
M  V30 3267 H 303.951 0.635274 -4.37512 0
M  V30 3268 N 303.011 1.40521 -0.713556 0
M  V30 3269 C 304.251 2.02783 -0.256584 0
M  V30 3270 C 304.615 1.55352 1.12827 0
M  V30 3271 O 305.816 2.09663 1.68211 0
M  V30 3272 C 304.087 3.5586 -0.331414 0
M  V30 3273 S 305.646 4.38773 0.0488703 0
M  V30 3274 H 302.464 0.703655 -0.101934 0
M  V30 3275 H 305.066 1.71674 -0.935325 0
M  V30 3276 H 303.77 3.87874 -1.34098 0
M  V30 3277 H 303.301 3.91695 0.365873 0
M  V30 3278 H 305.316 4.79633 1.2715 0
M  V30 3279 N 304.489 0.459591 1.5075 0
M  V30 3280 C 305.735 -0.0994966 2.02556 0
M  V30 3281 C 306.068 -1.40399 1.3417 0
M  V30 3282 O 305.343 -1.88892 0.463683 0
M  V30 3283 C 305.626 -0.295242 3.58888 0
M  V30 3284 C 305.479 1.02947 4.37861 0
M  V30 3285 C 306.798 -1.05502 4.27267 0
M  V30 3286 H 303.917 -0.034686 0.736183 0
M  V30 3287 H 306.559 0.602938 1.8018 0
M  V30 3288 H 304.709 -0.893563 3.78084 0
M  V30 3289 H 306.381 1.66348 4.30263 0
M  V30 3290 H 304.624 1.62885 4.02058 0
M  V30 3291 H 305.295 0.846281 5.45474 0
M  V30 3292 H 307.771 -0.547993 4.12476 0
M  V30 3293 H 306.647 -1.16077 5.36486 0
M  V30 3294 H 306.908 -2.08875 3.89645 0
M  V30 3295 N 305.967 -1.56429 0.191757 0
M  V30 3296 C 307.216 -1.9666 -0.448088 0
M  V30 3297 C 307.529 -1.08136 -1.62991 0
M  V30 3298 O 308.735 -1.38135 -2.33733 0
M  V30 3299 C 307.191 -3.49753 -0.848585 0
M  V30 3300 C 306.799 -4.46935 0.308764 0
M  V30 3301 C 308.543 -3.9876 -1.4557 0
M  V30 3302 C 306.45 -5.91293 -0.112506 0
M  V30 3303 H 305.38 -0.734312 -0.171179 0
M  V30 3304 H 308.031 -1.81301 0.283242 0
M  V30 3305 H 306.413 -3.60604 -1.63649 0
M  V30 3306 H 307.587 -4.47813 1.08627 0
M  V30 3307 H 305.902 -4.08102 0.827158 0
M  V30 3308 H 308.499 -5.04086 -1.78328 0
M  V30 3309 H 308.842 -3.42875 -2.36099 0
M  V30 3310 H 309.375 -3.9101 -0.731836 0
M  V30 3311 H 306.114 -6.51097 0.758514 0
M  V30 3312 H 305.634 -5.93676 -0.854941 0
M  V30 3313 H 307.313 -6.44663 -0.549448 0
M  V30 3314 N 307.445 0.0818655 -1.57387 0
M  V30 3315 C 308.67 0.799946 -1.91352 0
M  V30 3316 C 309.095 1.70833 -0.787258 0
M  V30 3317 O 308.453 1.79419 0.26048 0
M  V30 3318 C 308.501 1.57812 -3.24234 0
M  V30 3319 O 307.605 2.68806 -3.12757 0
M  V30 3320 H 306.946 0.21891 -0.626877 0
M  V30 3321 H 309.476 0.0531256 -2.04531 0
M  V30 3322 H 309.486 1.95952 -3.57864 0
M  V30 3323 H 308.161 0.911548 -4.05788 0
M  V30 3324 H 306.738 2.33597 -2.90666 0
M  V30 3325 N 308.923 1.53595 0.353017 0
M  V30 3326 C 309.833 1.83897 1.45667 0
M  V30 3327 C 310.849 0.728334 1.58023 0
M  V30 3328 O 312.025 1.01968 1.73679 0
M  V30 3329 C 309.09 2.03383 2.80778 0
M  V30 3330 C 308.151 3.27262 2.77845 0
M  V30 3331 C 307.384 3.45809 4.06512 0
M  V30 3332 O 307.607 2.68387 5.03314 0
M  V30 3333 O 306.541 4.39207 4.11559 0
M  V30 3334 H 310.367 2.77686 1.2298 0
M  V30 3335 H 307.952 1.39132 0.544308 0
M  V30 3336 H 309.834 2.17698 3.60812 0
M  V30 3337 H 308.509 1.12783 3.03417 0
M  V30 3338 H 307.416 3.18359 1.96465 0
M  V30 3339 H 308.749 4.17824 2.60161 0
M  V30 3340 N 310.401 -0.613514 1.45168 0
M  V30 3341 C 311.629 -1.39946 1.5239 0
M  V30 3342 C 312.044 -1.88167 0.154531 0
M  V30 3343 O 311.401 -1.61872 -0.842843 0
M  V30 3344 C 311.452 -2.60795 2.50337 0
M  V30 3345 O 311.173 -2.1458 3.81952 0
M  V30 3346 C 312.674 -3.53723 2.67198 0
M  V30 3347 H 309.894 -0.428593 0.516284 0
M  V30 3348 H 312.438 -0.748753 1.903 0
M  V30 3349 H 310.593 -3.21919 2.15515 0
M  V30 3350 H 311.007 -2.93055 4.34993 0
M  V30 3351 H 312.481 -4.35079 3.39721 0
M  V30 3352 H 312.958 -4.0368 1.73029 0
M  V30 3353 H 313.564 -2.98456 3.02992 0
M  V30 3354 N 311.879 -1.3236 -0.855495 0
M  V30 3355 C 313.127 -1.22629 -1.60644 0
M  V30 3356 C 313.448 0.212136 -1.93843 0
M  V30 3357 O 312.718 1.13666 -1.59552 0
M  V30 3358 H 311.298 -0.450882 -0.595579 0
M  V30 3359 H 313.96 -1.65871 -1.02337 0
M  V30 3360 H 313.056 -1.80832 -2.54374 0
M  V30 3361 N 313.357 1.07166 -1.15556 0
M  V30 3362 C 314.304 2.14417 -0.854055 0
M  V30 3363 C 315.274 1.64965 0.193806 0
M  V30 3364 O 316.459 1.90703 0.0609443 0
M  V30 3365 C 313.599 3.43304 -0.351574 0
M  V30 3366 C 312.712 4.06537 -1.46123 0
M  V30 3367 C 311.847 5.23266 -0.914677 0
M  V30 3368 C 310.886 5.78464 -2.00114 0
M  V30 3369 N 310.023 6.86521 -1.47083 0
M  V30 3370 H 314.863 2.39548 -1.77259 0
M  V30 3371 H 312.4 1.17543 -0.884425 0
M  V30 3372 H 314.358 4.17179 -0.0419409 0
M  V30 3373 H 312.988 3.18419 0.530037 0
M  V30 3374 H 312.04 3.30297 -1.88701 0
M  V30 3375 H 313.352 4.43567 -2.28144 0
M  V30 3376 H 312.506 6.04131 -0.557698 0
M  V30 3377 H 311.245 4.87658 -0.0636583 0
M  V30 3378 H 310.25 4.96243 -2.36692 0
M  V30 3379 H 311.475 6.16126 -2.85597 0
M  V30 3380 H 309.421 6.52849 -0.642198 0
M  V30 3381 H 309.338 7.22446 -2.22729 0
M  V30 3382 H 310.606 7.71087 -1.14215 0
M  V30 3383 N 314.835 0.952656 1.25548 0
M  V30 3384 C 315.798 0.475794 2.24207 0
M  V30 3385 C 316.798 -0.419428 1.55234 0
M  V30 3386 O 317.988 -0.216994 1.72843 0
M  V30 3387 C 315.12 -0.312814 3.39462 0
M  V30 3388 H 316.313 1.34779 2.67908 0
M  V30 3389 H 313.866 0.735739 1.37901 0
M  V30 3390 H 314.601 -1.20257 3.01179 0
M  V30 3391 H 314.386 0.329404 3.90714 0
M  V30 3392 H 315.876 -0.635986 4.12729 0
M  V30 3393 N 316.313 -1.40141 0.720998 0
M  V30 3394 C 317.26 -2.30688 0.071919 0
M  V30 3395 C 318.23 -1.48476 -0.744584 0
M  V30 3396 O 319.415 -1.77201 -0.707423 0
M  V30 3397 C 316.555 -3.34724 -0.839855 0
M  V30 3398 C 315.668 -4.31998 -0.0122438 0
M  V30 3399 C 314.803 -5.23102 -0.923995 0
M  V30 3400 C 313.842 -6.12033 -0.0907969 0
M  V30 3401 N 312.979 -6.95537 -0.957718 0
M  V30 3402 H 317.819 -2.85628 0.849755 0
M  V30 3403 H 315.356 -1.40653 0.430726 0
M  V30 3404 H 317.314 -3.93618 -1.38279 0
M  V30 3405 H 315.944 -2.81274 -1.58381 0
M  V30 3406 H 314.996 -3.74841 0.64794 0
M  V30 3407 H 316.308 -4.94772 0.632595 0
M  V30 3408 H 315.462 -5.86953 -1.53527 0
M  V30 3409 H 314.201 -4.60615 -1.60264 0
M  V30 3410 H 313.206 -5.47207 0.533377 0
M  V30 3411 H 314.431 -6.76581 0.584428 0
M  V30 3412 H 312.377 -6.35633 -1.62192 0
M  V30 3413 H 312.294 -7.55099 -0.36904 0
M  V30 3414 H 313.562 -7.63832 -1.555 0
M  V30 3415 N 317.792 -0.46758 -1.50504 0
M  V30 3416 C 319.022 0.086288 -2.0642 0
M  V30 3417 C 319.43 1.34369 -1.33197 0
M  V30 3418 O 318.773 1.79431 -0.393747 0
M  V30 3419 C 318.835 0.443846 -3.5675 0
M  V30 3420 C 318.499 -0.711035 -4.51435 0
M  V30 3421 C 319.496 -1.59205 -4.94924 0
M  V30 3422 C 317.181 -0.900363 -4.94165 0
M  V30 3423 C 319.175 -2.64683 -5.79846 0
M  V30 3424 C 316.862 -1.95837 -5.7887 0
M  V30 3425 C 317.86 -2.82997 -6.21612 0
M  V30 3426 O 317.548 -3.86977 -7.0463 0
M  V30 3427 H 317.28 -0.00217814 -0.675996 0
M  V30 3428 H 319.834 -0.654346 -1.94698 0
M  V30 3429 H 318.064 1.23762 -3.6636 0
M  V30 3430 H 319.753 0.932386 -3.95046 0
M  V30 3431 H 320.519 -1.45745 -4.62583 0
M  V30 3432 H 316.398 -0.231427 -4.60419 0
M  V30 3433 H 319.942 -3.32745 -6.13128 0
M  V30 3434 H 315.839 -2.09305 -6.10624 0
M  V30 3435 H 316.607 -3.83923 -7.22873 0
M  V30 3436 N 319.27 1.56325 -0.20005 0
M  V30 3437 C 320.217 2.1932 0.718833 0
M  V30 3438 C 321.187 1.14198 1.20615 0
M  V30 3439 O 322.372 1.42469 1.26914 0
M  V30 3440 C 319.512 2.86041 1.93066 0
M  V30 3441 C 318.625 4.05702 1.48425 0
M  V30 3442 C 317.76 4.60266 2.65196 0
M  V30 3443 C 316.799 5.72273 2.17185 0
M  V30 3444 N 315.936 6.21221 3.27152 0
M  V30 3445 H 320.776 2.97486 0.17489 0
M  V30 3446 H 318.313 1.46911 0.0745794 0
M  V30 3447 H 320.271 3.22897 2.64184 0
M  V30 3448 H 318.901 2.1043 2.44783 0
M  V30 3449 H 317.953 3.74475 0.668755 0
M  V30 3450 H 319.265 4.86699 1.09204 0
M  V30 3451 H 318.419 4.99453 3.4443 0
M  V30 3452 H 317.158 3.78386 3.07693 0
M  V30 3453 H 316.163 5.3261 1.36407 0
M  V30 3454 H 317.388 6.55974 1.75713 0
M  V30 3455 H 315.334 5.42263 3.69171 0
M  V30 3456 H 315.251 6.97284 2.92116 0
M  V30 3457 H 316.519 6.65063 4.06585 0
M  V30 3458 N 320.748 -0.0735177 1.57428 0
M  V30 3459 C 321.711 -1.07192 2.02589 0
M  V30 3460 C 322.711 -1.31695 0.922661 0
M  V30 3461 O 323.901 -1.27445 1.18758 0
M  V30 3462 C 321.033 -2.41599 2.40506 0
M  V30 3463 H 322.226 -0.682727 2.92025 0
M  V30 3464 H 319.779 -0.319193 1.53006 0
M  V30 3465 H 320.514 -2.85354 1.5409 0
M  V30 3466 H 320.299 -2.25156 3.21009 0
M  V30 3467 H 321.789 -3.13367 2.76027 0
M  V30 3468 O 322.265 -1.60033 -0.217154 0
M  V30 3469 H 322.956 -1.73663 -0.857964 0
M  V30 END ATOM
M  V30 BEGIN BOND
M  V30 END BOND
M  V30 END CTAB
M  END
$$$$
