drugbank_target|Q9UDW1 Cytochrome b-c1 complex subunit 9 (DB04141; DB04799; DB07401; DB07636; DB07763; DB07778; DB08330; DB08453; DB08690)
 OpenBabel12092120423D

  0  0  0     0  0            999 V3000
M  V30 BEGIN CTAB
M  V30 COUNTS 1040 1052 0 0 0
M  V30 BEGIN ATOM
M  V30 1 H -0.908 1.98254 -0.117106 0
M  V30 2 N 0 1.576 0 0
M  V30 3 C 0.933 2.03868 1.02534 0
M  V30 4 C 1.911 0.928543 1.3348 0
M  V30 5 O 3.095 1.19667 1.45644 0
M  V30 6 C 0.222 2.43627 2.35294 0
M  V30 7 C -0.732 3.65373 2.2001 0
M  V30 8 S 0.101 5.13292 1.52614 0
M  V30 9 C 1.257 5.56322 2.86805 0
M  V30 10 H 1.49 2.90518 0.631377 0
M  V30 11 H -0.977 1.52953 0.210867 0
M  V30 12 H 0.981 2.67203 3.11629 0
M  V30 13 H -0.358 1.57376 2.7183 0
M  V30 14 H -1.165 3.90944 3.18086 0
M  V30 15 H -1.563 3.418 1.51819 0
M  V30 16 H 0.729 5.58782 3.83104 0
M  V30 17 H 1.672 6.56266 2.65933 0
M  V30 18 H 2.08 4.83886 2.90714 0
M  V30 19 N 1.4781 -0.272755 1.55222 0
M  V30 20 C 2.4411 -1.32041 1.87344 0
M  V30 21 C 3.4411 -1.42342 0.74803 0
M  V30 22 O 4.6311 -1.41488 1.0162 0
M  V30 23 C 1.7631 -2.70173 2.07893 0
M  V30 24 H 2.9561 -1.04789 2.80997 0
M  V30 25 H 0.5091 -0.51083 1.47717 0
M  V30 26 H 1.2441 -3.02605 1.16622 0
M  V30 27 H 1.0291 -2.64082 2.89833 0
M  V30 28 H 2.5191 -3.45869 2.34017 0
M  V30 29 N 2.9562 -1.48159 -0.537278 0
M  V30 30 C 3.9192 -1.61665 -1.62472 0
M  V30 31 C 4.9192 -0.490395 -1.5314 0
M  V30 32 O 6.1092 -0.755998 -1.5694 0
M  V30 33 C 3.2412 -1.57997 -3.02076 0
M  V30 34 H 4.4342 -2.58621 -1.51839 0
M  V30 35 H 1.9872 -1.36647 -0.758771 0
M  V30 36 H 2.7222 -0.624913 -3.18222 0
M  V30 37 H 2.5072 -2.39755 -3.10258 0
M  V30 38 H 3.9972 -1.70627 -3.81151 0
M  V30 39 N 4.4343 0.785586 -1.36625 0
M  V30 40 C 5.3973 1.87999 -1.31107 0
M  V30 41 C 6.3973 1.59316 -0.217959 0
M  V30 42 O 7.5873 1.67656 -0.472977 0
M  V30 43 C 4.7193 3.24861 -1.03334 0
M  V30 44 H 5.9123 1.94307 -2.2844 0
M  V30 45 H 3.4653 0.983813 -1.21453 0
M  V30 46 H 4.2003 3.24235 -0.0647432 0
M  V30 47 H 3.9853 3.4707 -1.82441 0
M  V30 48 H 5.4753 4.04929 -1.02088 0
M  V30 49 N 5.9124 1.20967 1.01018 0
M  V30 50 C 7.1404 1.04956 1.78303 0
M  V30 51 C 7.5554 -0.400915 1.84494 0
M  V30 52 O 6.9124 -1.27826 1.30257 0
M  V30 53 C 6.9634 1.63403 3.22462 0
M  V30 54 O 6.6844 3.02775 3.16637 0
M  V30 55 C 8.1854 1.52432 4.16268 0
M  V30 56 H 5.4054 0.368858 0.560522 0
M  V30 57 H 7.9494 1.60193 1.27116 0
M  V30 58 H 6.1044 1.1227 3.70775 0
M  V30 59 H 6.5184 3.30626 4.07169 0
M  V30 60 H 7.9924 1.98078 5.15237 0
M  V30 61 H 8.4694 0.477875 4.36592 0
M  V30 62 H 9.0754 2.02787 3.73841 0
M  V30 63 N 7.3905 -1.2043 1.01659 0
M  V30 64 C 8.3205 -2.25466 0.607226 0
M  V30 65 C 9.3015 -1.65853 -0.377716 0
M  V30 66 O 10.4865 -1.92409 -0.263149 0
M  V30 67 C 7.6165 -3.47256 -0.0552949 0
M  V30 68 C 6.5705 -4.19462 0.850632 0
M  V30 69 C 5.8965 -5.34673 0.0538859 0
M  V30 70 C 7.1965 -4.75603 2.15868 0
M  V30 71 H 8.8905 -2.59962 1.48526 0
M  V30 72 H 6.4365 -1.2496 0.715605 0
M  V30 73 H 8.3895 -4.19917 -0.353233 0
M  V30 74 H 7.1135 -3.11924 -0.968045 0
M  V30 75 H 5.7725 -3.48667 1.13257 0
M  V30 76 H 5.4205 -4.95585 -0.860514 0
M  V30 77 H 5.1205 -5.83913 0.657192 0
M  V30 78 H 6.6445 -6.10138 -0.237598 0
M  V30 79 H 8.0585 -5.40083 1.92311 0
M  V30 80 H 6.4555 -5.3528 2.71284 0
M  V30 81 H 7.5255 -3.94346 2.82169 0
M  V30 82 N 8.8686 -0.792821 -1.36206 0
M  V30 83 C 10.0966 -0.378825 -2.03402 0
M  V30 84 C 10.5116 1.00586 -1.59774 0
M  V30 85 O 9.8686 1.64574 -0.788764 0
M  V30 86 C 9.9196 -0.43683 -3.58851 0
M  V30 87 O 9.6406 -1.76691 -4.00889 0
M  V30 88 C 11.1416 -0.0138943 -4.43298 0
M  V30 89 H 8.3616 -0.155673 -0.652692 0
M  V30 90 H 10.9056 -1.07261 -1.74113 0
M  V30 91 H 9.0606 0.208575 -3.86838 0
M  V30 92 H 9.4746 -1.72011 -4.95492 0
M  V30 93 H 10.9486 -0.105615 -5.51899 0
M  V30 94 H 11.4256 1.03915 -4.2673 0
M  V30 95 H 12.0316 -0.63192 -4.20579 0
M  V30 96 N 10.3467 1.47872 -0.545128 0
M  V30 97 C 11.5717 2.07391 -0.0190611 0
M  V30 98 C 11.9967 1.39688 1.25971 0
M  V30 99 O 11.3547 0.467816 1.7516 0
M  V30 100 C 11.4027 3.60188 0.172335 0
M  V30 101 O 10.5067 3.9339 1.23766 0
M  V30 102 H 9.8477 0.662411 -0.0459059 0
M  V30 103 H 12.3777 1.90066 -0.757365 0
M  V30 104 H 12.3877 4.06129 0.390305 0
M  V30 105 H 11.0627 4.08865 -0.761725 0
M  V30 106 H 9.6397 3.5921 1.00114 0
M  V30 107 N 11.8248 0.280983 1.55075 0
M  V30 108 C 12.7718 -0.603937 2.22758 0
M  V30 109 C 13.7418 -1.1452 1.20309 0
M  V30 110 O 14.9268 -1.19343 1.48869 0
M  V30 111 C 12.0668 -1.77947 2.95684 0
M  V30 112 C 11.1798 -1.2715 4.12864 0
M  V30 113 C 10.3148 -2.4093 4.7342 0
M  V30 114 C 9.3538 -1.87165 5.82783 0
M  V30 115 N 8.4908 -2.94441 6.37377 0
M  V30 116 H 13.3308 -0.020124 2.97993 0
M  V30 117 H 10.8678 0.00183425 1.471 0
M  V30 118 H 12.8258 -2.47055 3.36184 0
M  V30 119 H 11.4558 -2.33522 2.22861 0
M  V30 120 H 10.5078 -0.473331 3.77444 0
M  V30 121 H 11.8198 -0.837751 4.91715 0
M  V30 122 H 10.9738 -3.18021 5.1667 0
M  V30 123 H 9.7128 -2.87623 3.93859 0
M  V30 124 H 8.7178 -1.08556 5.38976 0
M  V30 125 H 9.9428 -1.41401 6.64216 0
M  V30 126 H 7.8888 -3.40505 5.60707 0
M  V30 127 H 7.8058 -2.55501 7.11516 0
M  V30 128 H 9.0738 -3.71489 6.85285 0
M  V30 129 N 13.3029 -1.57598 0.00835791 0
M  V30 130 C 14.2329 -2.1198 -0.979113 0
M  V30 131 C 15.2139 -1.03091 -1.35301 0
M  V30 132 O 16.3989 -1.30818 -1.43528 0
M  V30 133 C 13.5289 -2.62995 -2.26828 0
M  V30 134 C 12.4829 -3.76485 -2.03576 0
M  V30 135 C 11.8089 -4.13846 -3.38579 0
M  V30 136 C 13.1089 -5.0342 -1.39161 0
M  V30 137 H 14.8029 -2.94738 -0.526281 0
M  V30 138 H 12.3489 -1.41783 -0.251704 0
M  V30 139 H 14.3019 -2.99669 -2.96271 0
M  V30 140 H 13.0259 -1.7737 -2.7424 0
M  V30 141 H 11.6849 -3.40217 -1.36557 0
M  V30 142 H 11.3329 -3.25232 -3.83709 0
M  V30 143 H 11.0329 -4.90312 -3.23834 0
M  V30 144 H 12.5569 -4.53086 -4.09323 0
M  V30 145 H 13.9709 -5.37812 -1.98573 0
M  V30 146 H 12.3679 -5.84746 -1.34878 0
M  V30 147 H 13.4379 -4.83548 -0.361868 0
M  V30 148 N 14.781 0.264519 -1.55364 0
M  V30 149 C 16.011 1.01153 -1.80143 0
M  V30 150 C 16.419 1.80115 -0.579253 0
M  V30 151 O 15.762 1.77813 0.46132 0
M  V30 152 C 15.824 2.01098 -2.97993 0
M  V30 153 C 15.488 1.40995 -4.34706 0
M  V30 154 C 16.485 0.821316 -5.13372 0
M  V30 155 C 14.17 1.43461 -4.81378 0
M  V30 156 C 16.164 0.265339 -6.36847 0
M  V30 157 C 13.851 0.874771 -6.04807 0
M  V30 158 C 14.849 0.291146 -6.82379 0
M  V30 159 O 14.537 -0.260093 -8.03479 0
M  V30 160 H 14.269 0.304125 -0.603725 0
M  V30 161 H 16.823 0.298089 -2.03225 0
M  V30 162 H 15.053 2.76224 -2.70623 0
M  V30 163 H 16.742 2.61997 -3.1002 0
M  V30 164 H 17.508 0.794903 -4.78442 0
M  V30 165 H 13.387 1.87826 -4.21002 0
M  V30 166 H 16.931 -0.190837 -6.97339 0
M  V30 167 H 12.828 0.898452 -6.39217 0
M  V30 168 H 13.596 -0.150265 -8.18362 0
M  V30 169 N 16.2591 1.48442 0.529413 0
M  V30 170 C 17.4841 1.60406 1.31471 0
M  V30 171 C 17.9091 0.264738 1.86228 0
M  V30 172 O 17.2671 -0.763668 1.64432 0
M  V30 173 C 17.3151 2.65419 2.44101 0
M  V30 174 O 16.4191 2.22618 3.47153 0
M  V30 175 H 15.7601 0.537863 0.389357 0
M  V30 176 H 18.2901 1.94432 0.636965 0
M  V30 177 H 18.3001 2.86709 2.90279 0
M  V30 178 H 16.9751 3.62652 2.03608 0
M  V30 179 H 15.5521 2.11543 3.0709 0
M  V30 180 N 17.7372 -0.778329 1.37039 0
M  V30 181 C 18.6672 -1.90546 1.34962 0
M  V30 182 C 19.6482 -1.68681 0.219274 0
M  V30 183 O 20.8332 -1.89634 0.418624 0
M  V30 184 C 17.9632 -3.27734 1.14925 0
M  V30 185 C 16.9172 -3.64147 2.24902 0
M  V30 186 C 16.2432 -4.99806 1.89996 0
M  V30 187 C 17.5432 -3.71579 3.67051 0
M  V30 188 H 19.2372 -1.92541 2.29277 0
M  V30 189 H 16.7832 -0.924948 1.10366 0
M  V30 190 H 18.7362 -4.06215 1.12104 0
M  V30 191 H 17.4602 -3.26154 0.170631 0
M  V30 192 H 16.1192 -2.8797 2.26868 0
M  V30 193 H 15.7672 -4.94759 0.906796 0
M  V30 194 H 15.4672 -5.25139 2.63634 0
M  V30 195 H 16.9912 -5.80694 1.88749 0
M  V30 196 H 18.4052 -4.40227 3.67251 0
M  V30 197 H 16.8022 -4.08405 4.39688 0
M  V30 198 H 17.8722 -2.72404 4.01154 0
M  V30 199 N 19.2153 -1.21501 -1.00376 0
M  V30 200 C 20.1453 -0.999478 -2.11028 0
M  V30 201 C 21.1263 0.0759671 -1.6993 0
M  V30 202 O 22.3113 -0.0841106 -1.94018 0
M  V30 203 C 19.4413 -0.564709 -3.42678 0
M  V30 204 C 18.3953 -1.58486 -3.97576 0
M  V30 205 C 17.7213 -1.00628 -5.25146 0
M  V30 206 C 19.0213 -2.97204 -4.29496 0
M  V30 207 H 20.7153 -1.92495 -2.29317 0
M  V30 208 H 18.2613 -0.92693 -1.102 0
M  V30 209 H 20.2143 -0.401091 -4.19487 0
M  V30 210 H 18.9383 0.396411 -3.24185 0
M  V30 211 H 17.5973 -1.73606 -3.22888 0
M  V30 212 H 17.2453 -0.0368439 -5.02987 0
M  V30 213 H 16.9453 -1.68771 -5.62841 0
M  V30 214 H 18.4693 -0.854015 -6.04598 0
M  V30 215 H 19.8833 -2.8552 -4.97143 0
M  V30 216 H 18.2803 -3.62372 -4.78338 0
M  V30 217 H 19.3503 -3.47956 -3.3772 0
M  V30 218 N 20.6934 1.19889 -1.02296 0
M  V30 219 C 21.9404 1.8942 -0.715972 0
M  V30 220 C 22.2684 1.79251 0.754944 0
M  V30 221 O 21.5234 1.17526 1.56481 0
M  V30 222 C 21.8224 3.39883 -1.10518 0
M  V30 223 C 21.4884 3.70254 -2.57337 0
M  V30 224 C 20.1504 3.78254 -2.97452 0
M  V30 225 C 22.5024 3.84052 -3.52354 0
M  V30 226 C 19.8304 3.97514 -4.31509 0
M  V30 227 C 22.1824 4.04824 -4.86108 0
M  V30 228 C 20.8464 4.11054 -5.25919 0
M  V30 229 H 20.1164 0.693138 -0.261993 0
M  V30 230 H 22.7634 1.42012 -1.28472 0
M  V30 231 H 21.0684 3.8915 -0.454953 0
M  V30 232 H 22.7654 3.9199 -0.845261 0
M  V30 233 H 19.3554 3.64632 -2.25258 0
M  V30 234 H 23.5394 3.77221 -3.22518 0
M  V30 235 H 18.7954 4.00574 -4.61898 0
M  V30 236 H 22.9694 4.14442 -5.59653 0
M  V30 237 H 20.5964 4.2573 -6.29808 0
M  V30 238 N 22.1715 0.800033 1.35784 0
M  V30 239 C 23.5875 0.482977 1.52117 0
M  V30 240 C 23.7875 -0.996948 1.75109 0
M  V30 241 O 22.8435 -1.78216 1.78872 0
M  V30 242 C 24.1565 1.32264 2.70049 0
M  V30 243 C 25.7045 1.31742 2.83924 0
M  V30 244 C 26.1795 2.14106 4.04874 0
M  V30 245 N 27.6705 2.11607 4.12039 0
M  V30 246 C 28.4055 2.72099 5.04727 0
M  V30 247 N 27.9015 3.41492 6.02789 0
M  V30 248 N 29.6945 2.61776 4.97423 0
M  V30 249 H 21.8455 1.75856 1.19115 0
M  V30 250 H 24.1085 0.748122 0.582252 0
M  V30 251 H 23.8145 2.37261 2.59616 0
M  V30 252 H 23.6885 0.971303 3.6448 0
M  V30 253 H 26.0755 0.275333 2.93813 0
M  V30 254 H 26.1565 1.70859 1.9037 0
M  V30 255 H 25.8005 3.18351 3.95746 0
M  V30 256 H 25.7305 1.72353 4.97596 0
M  V30 257 H 28.2215 1.61112 3.41835 0
M  V30 258 H 28.5345 3.84953 6.70098 0
M  V30 259 H 26.8795 3.45596 6.02983 0
M  V30 260 H 30.0705 2.07157 4.19766 0
M  V30 261 H 30.2435 3.0921 5.69468 0
M  V30 262 N 23.6496 -1.47581 0.552962 0
M  V30 263 C 25.0656 -1.5818 0.212424 0
M  V30 264 C 25.2656 -1.55213 -1.28496 0
M  V30 265 O 24.3216 -1.45329 -2.06484 0
M  V30 266 C 25.6346 -2.88865 0.835318 0
M  V30 267 C 27.1826 -3.0244 0.806156 0
M  V30 268 C 27.6576 -4.35819 1.40804 0
M  V30 269 N 29.1486 -4.42444 1.37103 0
M  V30 270 C 29.8836 -5.44202 1.80641 0
M  V30 271 N 29.3796 -6.52795 2.32015 0
M  V30 272 N 31.1726 -5.35222 1.71738 0
M  V30 273 H 23.3236 -1.47753 1.52587 0
M  V30 274 H 25.5866 -0.702941 0.636064 0
M  V30 275 H 25.2926 -2.9676 1.88749 0
M  V30 276 H 25.1666 -3.7579 0.325848 0
M  V30 277 H 27.5536 -2.94144 -0.237317 0
M  V30 278 H 27.6346 -2.17068 1.35334 0
M  V30 279 H 27.2786 -4.44871 2.45056 0
M  V30 280 H 27.2086 -5.19916 0.836338 0
M  V30 281 H 29.6996 -3.6456 0.995202 0
M  V30 282 H 30.0126 -7.26609 2.63171 0
M  V30 283 H 28.3576 -6.53696 2.36023 0
M  V30 284 H 31.5486 -4.49284 1.31382 0
M  V30 285 H 31.7216 -6.14389 2.05987 0
M  V30 286 N 25.1277 -0.289203 -1.54924 0
M  V30 287 C 26.3557 0.326463 -2.04308 0
M  V30 288 C 26.7707 1.48413 -1.16701 0
M  V30 289 O 26.1277 1.81507 -0.190087 0
M  V30 290 C 26.1787 0.794014 -3.52672 0
M  V30 291 O 25.8997 -0.317564 -4.36948 0
M  V30 292 C 27.4007 1.47605 -4.18004 0
M  V30 293 H 24.6207 0.0726272 -0.667058 0
M  V30 294 H 27.1647 -0.425401 -2.00026 0
M  V30 295 H 25.3197 1.49593 -3.57352 0
M  V30 296 H 25.7337 0.0443186 -5.24481 0
M  V30 297 H 27.2077 1.75447 -5.23376 0
M  V30 298 H 27.6847 2.41224 -3.67025 0
M  V30 299 H 28.2907 0.81762 -4.17367 0
M  V30 300 N 26.6058 1.57591 -0.0167156 0
M  V30 301 C 27.8308 1.9598 0.67872 0
M  V30 302 C 28.2558 0.892546 1.65575 0
M  V30 303 O 27.6138 -0.147772 1.80697 0
M  V30 304 C 27.6618 3.33468 1.37227 0
M  V30 305 O 26.7658 3.28954 2.48722 0
M  V30 306 H 26.1068 0.639339 0.17928 0
M  V30 307 H 28.6368 2.04463 -0.0748802 0
M  V30 308 H 28.6468 3.69417 1.7319 0
M  V30 309 H 27.3218 4.10694 0.656007 0
M  V30 310 H 25.8988 3.04705 2.14963 0
M  V30 311 N 28.0839 -0.256276 1.55502 0
M  V30 312 C 29.3119 -1.00342 1.8094 0
M  V30 313 C 29.7269 -1.79307 0.59114 0
M  V30 314 O 29.0839 -1.77114 -0.440081 0
M  V30 315 C 29.1349 -1.94875 3.04476 0
M  V30 316 O 28.8559 -1.19107 4.21598 0
M  V30 317 C 30.3569 -2.81266 3.42644 0
M  V30 318 H 27.5769 -0.295685 0.602338 0
M  V30 319 H 30.1209 -0.281998 2.02546 0
M  V30 320 H 28.2759 -2.62457 2.84947 0
M  V30 321 H 28.6899 -1.82969 4.91551 0
M  V30 322 H 30.1639 -3.43362 4.32211 0
M  V30 323 H 30.6409 -3.51897 2.62802 0
M  V30 324 H 31.2469 -2.1915 3.64491 0
M  V30 325 N 29.562 -1.4872 -0.521534 0
M  V30 326 C 30.809 -1.57168 -1.27689 0
M  V30 327 C 31.137 -0.249275 -1.92896 0
M  V30 328 O 30.392 0.761162 -1.80291 0
M  V30 329 C 30.691 -2.66497 -2.38148 0
M  V30 330 C 30.357 -4.08664 -1.90538 0
M  V30 331 C 29.019 -4.47357 -1.77271 0
M  V30 332 C 31.371 -4.97724 -1.54663 0
M  V30 333 C 28.699 -5.72905 -1.26478 0
M  V30 334 C 31.051 -6.2377 -1.05329 0
M  V30 335 C 29.715 -6.61311 -0.906861 0
M  V30 336 H 28.985 -0.575117 -0.467249 0
M  V30 337 H 31.632 -1.82472 -0.581051 0
M  V30 338 H 29.937 -2.35085 -3.13437 0
M  V30 339 H 31.634 -2.70246 -2.96257 0
M  V30 340 H 28.224 -3.78111 -2.01816 0
M  V30 341 H 32.408 -4.68501 -1.63768 0
M  V30 342 H 27.664 -6.00709 -1.13835 0
M  V30 343 H 31.838 -6.9217 -0.76644 0
M  V30 344 H 29.465 -7.5848 -0.511083 0
M  V30 345 N 31.0401 0.771051 -1.3745 0
M  V30 346 C 32.0031 1.86598 -1.33093 0
M  V30 347 C 33.0031 1.59076 -0.234845 0
M  V30 348 O 34.1931 1.67145 -0.490732 0
M  V30 349 C 31.3251 3.23747 -1.06773 0
M  V30 350 H 32.5181 1.91873 -2.30488 0
M  V30 351 H 30.0711 0.970876 -1.2249 0
M  V30 352 H 30.8061 3.24148 -0.099129 0
M  V30 353 H 30.5911 3.45115 -1.86112 0
M  V30 354 H 32.0811 4.03824 -1.06377 0
M  V30 355 N 32.5182 1.22032 0.997298 0
M  V30 356 C 33.4482 1.01065 2.10495 0
M  V30 357 C 34.4292 -0.0669542 1.69968 0
M  V30 358 O 35.6142 0.0943987 1.9397 0
M  V30 359 C 32.7442 0.582874 3.42374 0
M  V30 360 C 31.6982 1.60592 3.96729 0
M  V30 361 C 31.0242 1.03412 5.24605 0
M  V30 362 C 32.3242 2.99478 4.27914 0
M  V30 363 H 34.0182 1.93708 2.28292 0
M  V30 364 H 31.5642 0.932761 1.09707 0
M  V30 365 H 33.5172 0.423332 4.19268 0
M  V30 366 H 32.2412 -0.379213 3.24391 0
M  V30 367 H 30.9002 1.75316 3.21963 0
M  V30 368 H 30.5482 0.063518 5.0296 0
M  V30 369 H 30.2482 1.71754 5.61938 0
M  V30 370 H 31.7722 0.886066 6.04137 0
M  V30 371 H 33.1862 2.88153 4.95622 0
M  V30 372 H 31.5832 3.64903 4.76409 0
M  V30 373 H 32.6532 3.49742 3.3587 0
M  V30 374 N 33.9963 -1.19345 1.0293 0
M  V30 375 C 35.2243 -1.92997 0.745644 0
M  V30 376 C 35.6393 -1.75519 -0.695589 0
M  V30 377 O 34.9963 -1.07737 -1.47306 0
M  V30 378 C 35.0473 -3.44741 1.08792 0
M  V30 379 O 34.7683 -3.61658 2.47256 0
M  V30 380 C 36.2693 -4.35515 0.827129 0
M  V30 381 H 33.4893 -0.613042 0.272801 0
M  V30 382 H 36.0333 -1.51473 1.3739 0
M  V30 383 H 34.1883 -3.84097 0.504832 0
M  V30 384 H 34.6023 -4.55514 2.60015 0
M  V30 385 H 36.0763 -5.40589 1.11658 0
M  V30 386 H 36.5533 -4.38552 -0.238436 0
M  V30 387 H 37.1593 -4.01841 1.39297 0
M  V30 388 N 35.4744 -0.807222 -1.35358 0
M  V30 389 C 36.7234 -0.384376 -1.98004 0
M  V30 390 C 37.0364 1.0543 -1.64754 0
M  V30 391 O 38.2424 1.58029 -2.20769 0
M  V30 392 C 36.6984 -0.636326 -3.5423 0
M  V30 393 C 36.3064 -2.08759 -3.96388 0
M  V30 394 C 38.0504 -0.278869 -4.23583 0
M  V30 395 C 35.9574 -2.28525 -5.45463 0
M  V30 396 H 34.8874 -0.139986 -0.740891 0
M  V30 397 H 37.5384 -0.991369 -1.54415 0
M  V30 398 H 35.9204 0.0406256 -3.95979 0
M  V30 399 H 37.0944 -2.8024 -3.6579 0
M  V30 400 H 35.4094 -2.40497 -3.39926 0
M  V30 401 H 38.0064 -0.404599 -5.33167 0
M  V30 402 H 38.3494 0.775012 -4.09022 0
M  V30 403 H 38.8824 -0.909764 -3.87257 0
M  V30 404 H 35.6214 -3.32361 -5.64992 0
M  V30 405 H 35.1414 -1.61569 -5.77629 0
M  V30 406 H 36.8204 -2.10109 -6.11934 0
M  V30 407 N 36.9525 1.47285 -0.560781 0
M  V30 408 C 38.2015 2.01668 -0.035895 0
M  V30 409 C 38.5145 1.44021 1.32353 0
M  V30 410 O 39.7205 1.90088 1.93853 0
M  V30 411 C 38.1765 3.59897 -0.0136659 0
M  V30 412 C 37.7845 4.26536 -1.37006 0
M  V30 413 C 39.5285 4.22017 0.458425 0
M  V30 414 C 37.4355 5.76782 -1.30675 0
M  V30 415 H 36.3655 0.753938 -0.00964879 0
M  V30 416 H 39.0165 1.69243 -0.709166 0
M  V30 417 H 37.3985 3.89301 0.725325 0
M  V30 418 H 38.5725 4.0877 -2.12705 0
M  V30 419 H 36.8875 3.76419 -1.78038 0
M  V30 420 H 39.4845 5.32124 0.524247 0
M  V30 421 H 39.8275 3.89437 1.4712 0
M  V30 422 H 40.3605 3.97159 -0.225818 0
M  V30 423 H 37.0995 6.13988 -2.29564 0
M  V30 424 H 36.6195 5.96875 -0.591622 0
M  V30 425 H 38.2985 6.39063 -1.01033 0
M  V30 426 N 38.4306 0.297415 1.54768 0
M  V30 427 C 39.6766 -0.313376 2.00364 0
M  V30 428 C 40.0096 -1.53815 1.18553 0
M  V30 429 O 39.2846 -1.92739 0.261103 0
M  V30 430 C 39.5676 -0.673525 3.53745 0
M  V30 431 C 39.4206 0.560133 4.46299 0
M  V30 432 C 40.7396 -1.50143 4.13697 0
M  V30 433 H 37.8586 -0.112428 0.728374 0
M  V30 434 H 40.5006 0.4088 1.8555 0
M  V30 435 H 38.6506 -1.28881 3.665 0
M  V30 436 H 40.3226 1.19863 4.45455 0
M  V30 437 H 38.5656 1.19405 4.17043 0
M  V30 438 H 39.2366 0.26405 5.51368 0
M  V30 439 H 41.7126 -0.981588 4.04356 0
M  V30 440 H 40.5886 -1.72221 5.21182 0
M  V30 441 H 40.8496 -2.48952 3.65343 0
M  V30 442 N 39.9087 -1.5758 0.0250728 0
M  V30 443 C 41.1567 -1.91255 -0.653151 0
M  V30 444 C 41.4777 -0.901691 -1.729 0
M  V30 445 O 40.7477 0.0573785 -1.95816 0
M  V30 446 H 39.3277 -0.705942 -0.244243 0
M  V30 447 H 41.9897 -1.94767 0.0719209 0
M  V30 448 H 41.0857 -2.91752 -1.10847 0
M  V30 449 N 41.3868 0.248026 -1.55636 0
M  V30 450 C 42.6328 0.97767 -1.77678 0
M  V30 451 C 42.9658 1.85016 -0.590135 0
M  V30 452 O 42.2408 1.90095 0.411611 0
M  V30 453 C 42.5238 1.83914 -3.09593 0
M  V30 454 C 42.3768 0.99491 -4.38659 0
M  V30 455 C 43.6958 2.82183 -3.37729 0
M  V30 456 H 40.8148 0.354005 -0.646413 0
M  V30 457 H 43.4568 0.248253 -1.88371 0
M  V30 458 H 41.6068 2.46104 -3.00608 0
M  V30 459 H 43.2788 0.391789 -4.59633 0
M  V30 460 H 41.5218 0.299231 -4.32767 0
M  V30 461 H 42.1928 1.63145 -5.2734 0
M  V30 462 H 44.6688 2.30129 -3.4667 0
M  V30 463 H 43.5448 3.39582 -4.31249 0
M  V30 464 H 43.8058 3.58588 -2.58586 0
M  V30 465 N 42.8649 1.48995 0.513639 0
M  V30 466 C 43.7979 1.59319 1.63379 0
M  V30 467 C 44.7759 0.442816 1.56454 0
M  V30 468 O 45.9599 0.656655 1.76693 0
M  V30 469 C 43.0869 1.5364 3.01848 0
M  V30 470 C 42.1329 2.7372 3.27078 0
M  V30 471 S 42.9659 4.35528 3.1157 0
M  V30 472 C 44.1219 4.32473 4.52458 0
M  V30 473 H 44.3549 2.54079 1.54374 0
M  V30 474 H 41.8879 1.3773 0.697849 0
M  V30 475 H 43.8459 1.51049 3.81699 0
M  V30 476 H 42.5069 0.601898 3.08279 0
M  V30 477 H 41.6999 2.6593 4.28132 0
M  V30 478 H 41.3019 2.73657 2.54927 0
M  V30 479 H 43.5939 4.03414 5.44301 0
M  V30 480 H 44.5369 5.33762 4.65299 0
M  V30 481 H 44.9449 3.62718 4.32546 0
M  V30 482 N 44.343 -0.763751 1.37857 0
M  V30 483 C 45.59 -1.52257 1.33506 0
M  V30 484 C 45.918 -1.94343 -0.078022 0
M  V30 485 O 45.173 -1.64958 -1.05297 0
M  V30 486 C 45.472 -2.79499 2.22745 0
M  V30 487 C 45.138 -2.56426 3.70886 0
M  V30 488 C 43.8 -2.49842 4.11257 0
M  V30 489 C 46.152 -2.36008 4.64704 0
M  V30 490 C 43.48 -2.20841 5.43549 0
M  V30 491 C 45.832 -2.0853 5.97242 0
M  V30 492 C 44.496 -2.00396 6.36709 0
M  V30 493 H 43.766 -0.557149 0.488534 0
M  V30 494 H 46.413 -0.879073 1.70131 0
M  V30 495 H 44.718 -3.48447 1.79142 0
M  V30 496 H 46.415 -3.37413 2.16688 0
M  V30 497 H 43.005 -2.62416 3.38874 0
M  V30 498 H 47.189 -2.40079 4.34368 0
M  V30 499 H 42.445 -2.13045 5.73081 0
M  V30 500 H 46.619 -1.91732 6.69486 0
M  V30 501 H 44.246 -1.77688 7.39142 0
M  V30 502 N 45.8211 -1.22559 -0.990812 0
M  V30 503 C 47.0681 -1.05141 -1.73065 0
M  V30 504 C 47.3961 0.413191 -1.9006 0
M  V30 505 O 46.6511 1.32257 -1.44245 0
M  V30 506 C 46.9501 -1.71011 -3.13831 0
M  V30 507 C 46.6161 -3.20911 -3.16745 0
M  V30 508 C 45.2781 -3.61812 -3.17247 0
M  V30 509 C 47.6301 -4.16846 -3.12872 0
M  V30 510 C 44.9581 -4.97127 -3.1158 0
M  V30 511 C 47.3101 -5.5214 -3.08746 0
M  V30 512 C 45.9741 -5.92419 -3.07565 0
M  V30 513 H 45.2441 -0.384738 -0.633291 0
M  V30 514 H 47.8911 -1.5235 -1.16025 0
M  V30 515 H 46.1961 -1.16133 -3.74193 0
M  V30 516 H 47.8931 -1.55023 -3.69823 0
M  V30 517 H 44.4831 -2.88344 -3.17105 0
M  V30 518 H 48.6671 -3.86263 -3.11632 0
M  V30 519 H 43.9231 -5.27562 -3.09012 0
M  V30 520 H 48.0971 -6.26201 -3.04705 0
M  V30 521 H 45.7241 -6.97236 -3.02929 0
M  V30 522 N 47.2992 1.18797 -1.03562 0
M  V30 523 C 48.2092 2.25913 -0.632505 0
M  V30 524 C 49.2252 1.70668 0.338882 0
M  V30 525 O 50.4012 2.00453 0.195076 0
M  V30 526 C 47.4662 3.467 0.00350942 0
M  V30 527 C 46.5272 4.17098 -1.01624 0
M  V30 528 C 45.7602 5.32119 -0.410478 0
M  V30 529 O 45.9832 5.64976 0.784725 0
M  V30 530 O 44.9172 5.9107 -1.13667 0
M  V30 531 H 48.7432 2.62648 -1.52478 0
M  V30 532 H 46.3282 1.25781 -0.806195 0
M  V30 533 H 48.2102 4.19878 0.35781 0
M  V30 534 H 46.8852 3.11798 0.869686 0
M  V30 535 H 45.7922 3.4601 -1.42224 0
M  V30 536 H 47.1252 4.55987 -1.85301 0
M  V30 537 N 48.7773 0.814389 1.34928 0
M  V30 538 C 50.1933 0.499084 1.51596 0
M  V30 539 C 50.3933 -0.978319 1.76157 0
M  V30 540 O 49.4493 -1.76309 1.80752 0
M  V30 541 C 50.7623 1.35121 2.68631 0
M  V30 542 C 52.3103 1.34746 2.82511 0
M  V30 543 C 52.7853 2.18388 4.0258 0
M  V30 544 N 54.2763 2.15966 4.09772 0
M  V30 545 C 55.0113 2.77437 5.01813 0
M  V30 546 N 54.5073 3.47866 5.99134 0
M  V30 547 N 56.3003 2.67037 4.94619 0
M  V30 548 H 48.4513 1.7711 1.17243 0
M  V30 549 H 50.7143 0.754256 0.574284 0
M  V30 550 H 50.4203 2.40001 2.57085 0
M  V30 551 H 50.2943 1.00991 3.63429 0
M  V30 552 H 52.6813 0.30648 2.93504 0
M  V30 553 H 52.7623 1.72869 1.88547 0
M  V30 554 H 52.4063 3.2253 3.92347 0
M  V30 555 H 52.3363 1.77621 4.9574 0
M  V30 556 H 54.8273 1.64729 3.40107 0
M  V30 557 H 55.1403 3.92038 6.65977 0
M  V30 558 H 53.4853 3.51972 5.99284 0
M  V30 559 H 56.6763 2.11597 4.17546 0
M  V30 560 H 56.8493 3.15232 5.66156 0
M  V30 561 N 50.2554 -1.46986 0.568584 0
M  V30 562 C 51.2184 -2.28624 -0.162366 0
M  V30 563 C 52.2184 -1.37596 -0.832103 0
M  V30 564 O 53.4084 -1.60115 -0.68622 0
M  V30 565 C 50.5404 -3.17596 -1.23878 0
M  V30 566 H 51.7334 -2.94722 0.554899 0
M  V30 567 H 49.2864 -1.52863 0.325976 0
M  V30 568 H 50.0214 -2.56214 -1.98808 0
M  V30 569 H 49.8064 -3.846 -0.763219 0
M  V30 570 H 51.2964 -3.79078 -1.75185 0
M  V30 571 N 51.7335 -0.305618 -1.54608 0
M  V30 572 C 52.9805 0.302298 -2.00231 0
M  V30 573 C 53.3085 1.5354 -1.19398 0
M  V30 574 O 52.5635 1.93973 -0.259423 0
M  V30 575 C 52.8625 0.698983 -3.50498 0
M  V30 576 C 52.5285 -0.432903 -4.48817 0
M  V30 577 C 51.1905 -0.743622 -4.75419 0
M  V30 578 C 53.5425 -1.19409 -5.07337 0
M  V30 579 C 50.8705 -1.81857 -5.57804 0
M  V30 580 C 53.2225 -2.25899 -5.90891 0
M  V30 581 C 51.8865 -2.57572 -6.15803 0
M  V30 582 H 51.1565 0.110619 -0.732697 0
M  V30 583 H 53.8035 -0.425674 -1.86709 0
M  V30 584 H 52.1085 1.50711 -3.61654 0
M  V30 585 H 53.8055 1.1806 -3.83227 0
M  V30 586 H 50.3955 -0.18063 -4.28219 0
M  V30 587 H 54.5795 -0.967295 -4.86782 0
M  V30 588 H 49.8355 -2.06864 -5.75341 0
M  V30 589 H 54.0095 -2.85335 -6.35261 0
M  V30 590 H 51.6365 -3.40998 -6.7943 0
M  V30 591 N 53.2116 1.57565 -0.0334293 0
M  V30 592 C 54.4886 1.83282 0.683163 0
M  V30 593 C 54.8686 0.91823 1.90084 0
M  V30 594 O 54.2166 -0.025113 2.28486 0
M  V30 595 C 54.4266 3.32599 1.0573 0
M  V30 596 C 55.7746 3.99179 1.44711 0
M  V30 597 O 56.7986 3.3712 1.15015 0
M  V30 598 O 55.6576 5.08565 2.0006 0
M  V30 599 H 52.7516 0.755869 0.335546 0
M  V30 600 H 55.2976 1.69589 -0.0614402 0
M  V30 601 H 54.0696 3.90834 0.190828 0
M  V30 602 H 53.6926 3.51415 1.85993 0
M  V30 603 N 54.6897 -0.239769 1.55765 0
M  V30 604 C 55.6217 -1.32001 1.87372 0
M  V30 605 C 56.6347 -1.43944 0.760522 0
M  V30 606 O 57.8237 -1.45167 1.0387 0
M  V30 607 C 54.9237 -2.69779 2.05115 0
M  V30 608 C 54.0967 -2.80014 3.36022 0
M  V30 609 C 53.1557 -3.98684 3.4342 0
M  V30 610 O 52.1817 -3.87877 4.16582 0
M  V30 611 N 53.3837 -5.12176 2.73232 0
M  V30 612 H 56.1487 -1.0522 2.80622 0
M  V30 613 H 53.7097 -0.429857 1.56089 0
M  V30 614 H 55.7017 -3.47517 2.07399 0
M  V30 615 H 54.2717 -2.89237 1.18577 0
M  V30 616 H 53.4917 -1.88896 3.45994 0
M  V30 617 H 54.7797 -2.83808 4.22292 0
M  V30 618 H 54.1777 -5.2385 2.13536 0
M  V30 619 H 52.7347 -5.88022 2.81199 0
M  V30 620 N 56.1678 -1.49265 -0.50573 0
M  V30 621 C 57.4158 -1.582 -1.25766 0
M  V30 622 C 57.7368 -0.268482 -1.93143 0
M  V30 623 O 57.0068 0.711833 -1.8251 0
M  V30 624 H 55.5868 -0.582873 -0.467191 0
M  V30 625 H 58.2488 -1.85865 -0.586525 0
M  V30 626 H 57.3448 -2.37563 -2.02412 0
M  V30 627 N 57.6459 0.756429 -1.3826 0
M  V30 628 C 58.6089 1.85176 -1.35065 0
M  V30 629 C 59.6089 1.58818 -0.251703 0
M  V30 630 O 60.7989 1.66615 -0.508433 0
M  V30 631 C 57.9309 3.22596 -1.10201 0
M  V30 632 H 59.1239 1.89417 -2.3251 0
M  V30 633 H 56.6769 0.95783 -1.23512 0
M  V30 634 H 57.4119 3.24025 -0.133504 0
M  V30 635 H 57.1969 3.43122 -1.89762 0
M  V30 636 H 58.6869 4.02673 -1.10654 0
M  V30 637 N 59.124 1.23083 0.984299 0
M  V30 638 C 60.401 0.9689 1.69917 0
M  V30 639 C 60.781 -0.513604 2.04757 0
M  V30 640 O 60.129 -1.48383 1.73767 0
M  V30 641 C 60.339 1.87518 2.94343 0
M  V30 642 C 61.687 2.13636 3.6694 0
M  V30 643 O 62.711 1.85036 3.04368 0
M  V30 644 O 61.57 2.62119 4.79537 0
M  V30 645 H 58.664 0.365095 0.742048 0
M  V30 646 H 61.21 1.34107 1.03987 0
M  V30 647 H 59.982 2.87756 2.65164 0
M  V30 648 H 59.605 1.50514 3.6801 0
M  V30 649 N 60.6021 -1.18246 1.0419 0
M  V30 650 C 61.5651 -2.20128 0.638452 0
M  V30 651 C 62.5651 -1.57885 -0.304805 0
M  V30 652 O 63.7551 -1.73967 -0.0900369 0
M  V30 653 C 60.8871 -3.4084 -0.0637751 0
M  V30 654 H 62.0801 -2.57336 1.54007 0
M  V30 655 H 59.6331 -1.32152 0.834598 0
M  V30 656 H 60.3681 -3.09166 -0.979136 0
M  V30 657 H 60.1531 -3.8726 0.614198 0
M  V30 658 H 61.6431 -4.16274 -0.332512 0
M  V30 659 N 62.0802 -0.821533 -1.34494 0
M  V30 660 C 63.3292 -0.405355 -1.97585 0
M  V30 661 C 63.6422 1.03677 -1.65863 0
M  V30 662 O 64.8482 1.55679 -2.22433 0
M  V30 663 C 63.3042 -0.673861 -3.53535 0
M  V30 664 C 62.9122 -2.12951 -3.94152 0
M  V30 665 C 64.6562 -0.32378 -4.23263 0
M  V30 666 C 62.5632 -2.34298 -5.43009 0
M  V30 667 H 61.4932 -0.147836 -0.739365 0
M  V30 668 H 64.1442 -1.00769 -1.53355 0
M  V30 669 H 62.5262 -0.00137554 -3.96 0
M  V30 670 H 63.7002 -2.84104 -3.62797 0
M  V30 671 H 62.0152 -2.44089 -3.37356 0
M  V30 672 H 64.6122 -0.461126 -5.32708 0
M  V30 673 H 64.9552 0.731586 -4.09821 0
M  V30 674 H 65.4882 -0.950786 -3.8627 0
M  V30 675 H 62.2272 -3.38335 -5.61435 0
M  V30 676 H 61.7472 -1.67687 -5.75883 0
M  V30 677 H 63.4262 -2.16588 -6.09671 0
M  V30 678 N 63.5583 1.46682 -0.576371 0
M  V30 679 C 64.7883 2.06498 -0.0648694 0
M  V30 680 C 65.1963 1.42665 1.24271 0
M  V30 681 O 64.5393 0.523886 1.76071 0
M  V30 682 C 64.6013 3.5904 0.181816 0
M  V30 683 C 64.2653 4.45028 -1.0392 0
M  V30 684 C 65.2623 4.81959 -1.94966 0
M  V30 685 C 62.9473 4.86259 -1.25927 0
M  V30 686 C 64.9413 5.58942 -3.06371 0
M  V30 687 C 62.6283 5.63002 -2.37638 0
M  V30 688 C 63.6263 5.99257 -3.2769 0
M  V30 689 O 63.3143 6.7445 -4.37461 0
M  V30 690 H 63.0463 0.674028 -0.0515987 0
M  V30 691 H 65.6003 1.89393 -0.794951 0
M  V30 692 H 63.8303 3.74429 0.966436 0
M  V30 693 H 65.5193 4.00806 0.641047 0
M  V30 694 H 66.2853 4.50689 -1.79177 0
M  V30 695 H 62.1643 4.57494 -0.567448 0
M  V30 696 H 65.7083 5.87158 -3.76684 0
M  V30 697 H 61.6053 5.93686 -2.53392 0
M  V30 698 H 62.3733 6.92867 -4.35749 0
M  V30 699 N 65.0364 0.313813 1.54444 0
M  V30 700 C 66.3134 -0.345447 1.92525 0
M  V30 701 C 66.6934 -1.70667 1.24242 0
M  V30 702 O 66.0414 -2.25273 0.382654 0
M  V30 703 C 66.2514 -0.44737 3.46121 0
M  V30 704 C 67.5994 -0.712238 4.18584 0
M  V30 705 O 68.6234 -0.530678 3.52225 0
M  V30 706 O 67.4824 -1.06183 5.36085 0
M  V30 707 H 64.5764 -0.195407 0.803583 0
M  V30 708 H 67.1224 0.362813 1.65776 0
M  V30 709 H 65.8944 0.509043 3.87975 0
M  V30 710 H 65.5174 -1.20359 3.78945 0
M  V30 711 N 66.5145 -1.57545 0.0417849 0
M  V30 712 C 67.4645 -2.07483 -0.945247 0
M  V30 713 C 68.4485 -0.977983 -1.27767 0
M  V30 714 O 69.6405 -1.24142 -1.26166 0
M  V30 715 C 66.7695 -2.61576 -2.22335 0
M  V30 716 C 65.8555 -3.78213 -1.91874 0
M  V30 717 N 66.2465 -4.88344 -1.31733 0
M  V30 718 C 64.5445 -3.8694 -2.21796 0
M  V30 719 C 65.2455 -5.69462 -1.1869 0
M  V30 720 N 64.2215 -5.16771 -1.68666 0
M  V30 721 H 68.0235 -2.90029 -0.475441 0
M  V30 722 H 65.5375 -1.61581 -0.162911 0
M  V30 723 H 67.5345 -2.95651 -2.93932 0
M  V30 724 H 66.1945 -1.80465 -2.69931 0
M  V30 725 H 67.2055 -5.08335 -0.990729 0
M  V30 726 H 63.8825 -3.16757 -2.71977 0
M  V30 727 H 65.2725 -6.68023 -0.720793 0
M  V30 728 N 67.9926 0.231505 -1.5589 0
M  V30 729 C 69.2416 0.955346 -1.7764 0
M  V30 730 C 69.5546 1.85893 -0.608546 0
M  V30 731 O 70.7606 2.62067 -0.70943 0
M  V30 732 C 69.2166 1.74886 -3.14552 0
M  V30 733 C 68.8246 0.891915 -4.39032 0
M  V30 734 C 70.5686 2.46452 -3.45633 0
M  V30 735 C 68.4756 1.68221 -5.66971 0
M  V30 736 H 67.4056 0.360446 -0.662265 0
M  V30 737 H 70.0566 0.209516 -1.823 0
M  V30 738 H 68.4386 2.53723 -3.04041 0
M  V30 739 H 69.6126 0.144793 -4.60572 0
M  V30 740 H 67.9276 0.288863 -4.15397 0
M  V30 741 H 70.5246 3.06061 -4.38441 0
M  V30 742 H 70.8676 3.18841 -2.67668 0
M  V30 743 H 71.4006 1.74613 -3.57428 0
M  V30 744 H 68.1396 1.00178 -6.478 0
M  V30 745 H 67.6596 2.4042 -5.49507 0
M  V30 746 H 69.3386 2.24544 -6.06786 0
M  V30 747 N 69.4707 1.49531 0.497807 0
M  V30 748 C 70.4187 1.66926 1.61983 0
M  V30 749 C 71.4127 0.535167 1.60724 0
M  V30 750 O 72.6187 0.714896 1.65195 0
M  V30 751 H 68.9937 0.526415 0.537021 0
M  V30 752 H 70.9647 2.61098 1.44465 0
M  V30 753 C 69.7137 1.75602 3.00099 0
M  V30 754 H 69.0367 2.62244 3.01775 0
M  V30 755 H 70.4767 1.91807 3.78135 0
M  V30 756 C 68.9357 0.501543 3.33146 0
M  V30 757 O 69.4657 -0.371342 3.9998 0
M  V30 758 N 67.6717 0.363531 2.88317 0
M  V30 759 H 67.2187 1.07485 2.34104 0
M  V30 760 H 67.1767 -0.474728 3.10795 0
M  V30 761 N 70.9488 -0.749086 1.3866 0
M  V30 762 C 71.8588 -1.89358 1.38494 0
M  V30 763 C 72.8748 -1.71708 0.281476 0
M  V30 764 O 74.0508 -1.94554 0.520643 0
M  V30 765 C 71.1158 -3.24782 1.21316 0
M  V30 766 C 70.1768 -3.54926 2.41508 0
M  V30 767 C 69.4098 -4.83888 2.2514 0
M  V30 768 O 69.6328 -5.56592 1.24746 0
M  V30 769 O 68.5668 -5.13612 3.13826 0
M  V30 770 H 72.3928 -1.92452 2.34938 0
M  V30 771 H 69.9778 -0.894981 1.19626 0
M  V30 772 H 71.8598 -4.05739 1.13814 0
M  V30 773 H 70.5348 -3.2249 0.279592 0
M  V30 774 H 69.4418 -2.74112 2.54585 0
M  V30 775 H 70.7748 -3.61983 3.3351 0
M  V30 776 N 72.4269 -1.23603 -0.977757 0
M  V30 777 C 73.6749 -1.06759 -1.71601 0
M  V30 778 C 73.9959 0.395929 -1.90938 0
M  V30 779 O 73.2659 1.28356 -1.47992 0
M  V30 780 H 71.8459 -0.392062 -0.635843 0
M  V30 781 H 74.5079 -1.55362 -1.1768 0
M  V30 782 H 73.6039 -1.55763 -2.70452 0
M  V30 783 N 73.905 1.17692 -1.04816 0
M  V30 784 C 74.852 2.21581 -0.645797 0
M  V30 785 C 75.822 1.62367 0.350159 0
M  V30 786 O 77.007 1.89254 0.242433 0
M  V30 787 C 74.147 3.45092 -0.0227568 0
M  V30 788 C 73.26 4.18613 -1.06709 0
M  V30 789 C 72.395 5.29602 -0.411767 0
M  V30 790 C 71.434 5.94904 -1.44067 0
M  V30 791 N 70.571 6.97414 -0.809781 0
M  V30 792 H 75.411 2.55353 -1.5362 0
M  V30 793 H 72.948 1.25438 -0.768364 0
M  V30 794 H 74.906 4.15679 0.35588 0
M  V30 795 H 73.536 3.11917 0.831122 0
M  V30 796 H 72.588 3.46779 -1.5636 0
M  V30 797 H 73.9 4.63293 -1.84827 0
M  V30 798 H 73.054 6.06696 0.0206623 0
M  V30 799 H 71.793 4.86045 0.401438 0
M  V30 800 H 70.798 5.16544 -1.88316 0
M  V30 801 H 72.023 6.40542 -2.25571 0
M  V30 802 H 69.969 6.55998 -0.0170186 0
M  V30 803 H 69.886 7.40386 -1.52856 0
M  V30 804 H 71.154 7.78463 -0.401999 0
M  V30 805 N 75.3831 0.828654 1.34056 0
M  V30 806 C 76.3131 0.269443 2.3194 0
M  V30 807 C 77.2941 -0.617247 1.58506 0
M  V30 808 O 78.4791 -0.542931 1.86456 0
M  V30 809 C 75.6091 -0.564793 3.42677 0
M  V30 810 C 74.5631 0.225241 4.27407 0
M  V30 811 C 73.8891 -0.7321 5.29664 0
M  V30 812 C 75.1891 1.43663 5.02154 0
M  V30 813 H 76.8831 1.08728 2.7896 0
M  V30 814 H 74.4291 0.524283 1.34117 0
M  V30 815 H 76.3821 -0.966233 4.10173 0
M  V30 816 H 75.1061 -1.41574 2.9432 0
M  V30 817 H 73.7651 0.608117 3.61521 0
M  V30 818 H 73.4131 -1.57916 4.77568 0
M  V30 819 H 73.1131 -0.20767 5.87233 0
M  V30 820 H 74.6371 -1.13128 6.00029 0
M  V30 821 H 76.0511 1.1089 5.62473 0
M  V30 822 H 74.4481 1.89711 5.69324 0
M  V30 823 H 75.5181 2.21181 4.31517 0
M  V30 824 N 76.8612 -1.46375 0.584142 0
M  V30 825 C 78.1072 -2.03248 0.0787103 0
M  V30 826 C 78.4622 -1.44737 -1.26763 0
M  V30 827 O 77.7552 -0.603625 -1.81843 0
M  V30 828 C 77.9492 -3.57373 -0.0439342 0
M  V30 829 C 77.7782 -4.30831 1.28897 0
M  V30 830 C 76.5482 -4.69683 1.8635 0
M  V30 831 C 78.7462 -4.64278 2.21248 0
M  V30 832 N 76.7282 -5.27898 3.13365 0
M  V30 833 C 78.0992 -5.23078 3.32851 0
M  V30 834 C 80.1542 -4.46209 2.20911 0
M  V30 835 C 78.8572 -5.65715 4.44251 0
M  V30 836 C 80.8832 -4.89864 3.31341 0
M  V30 837 C 80.2452 -5.48736 4.41665 0
M  V30 838 H 76.3442 -0.778714 0.0716144 0
M  V30 839 H 78.9282 -1.78509 0.777355 0
M  V30 840 H 77.0992 -3.81823 -0.711749 0
M  V30 841 H 78.8312 -4.00892 -0.553881 0
M  V30 842 H 75.5862 -4.52488 1.39826 0
M  V30 843 H 76.0102 -5.61525 3.78178 0
M  V30 844 H 80.6522 -4.00027 1.36888 0
M  V30 845 H 78.3702 -6.10875 5.29015 0
M  V30 846 H 81.9562 -4.77634 3.322 0
M  V30 847 H 80.8362 -5.81898 5.25704 0
M  V30 848 N 78.3393 -0.321999 -1.54275 0
M  V30 849 C 79.2863 0.544664 -2.24281 0
M  V30 850 C 80.2563 1.1129 -1.23303 0
M  V30 851 O 81.4413 1.15354 -1.51981 0
M  V30 852 C 78.5813 1.70045 -3.00298 0
M  V30 853 C 77.6943 1.16159 -4.1609 0
M  V30 854 C 76.8293 2.28293 -4.79641 0
M  V30 855 C 75.8683 1.71648 -5.8754 0
M  V30 856 N 75.0053 2.77438 -6.44959 0
M  V30 857 H 79.8453 -0.0588907 -2.97942 0
M  V30 858 H 77.3823 -0.0408345 -1.47043 0
M  V30 859 H 79.3403 2.38054 -3.42616 0
M  V30 860 H 77.9703 2.27531 -2.28975 0
M  V30 861 H 77.0223 0.373092 -3.78566 0
M  V30 862 H 78.3343 0.707087 -4.93763 0
M  V30 863 H 77.4883 3.0421 -5.2492 0
M  V30 864 H 76.2273 2.77079 -4.01346 0
M  V30 865 H 75.2323 0.942282 -5.41665 0
M  V30 866 H 76.4573 1.23741 -6.67731 0
M  V30 867 H 74.4033 3.25519 -5.69538 0
M  V30 868 H 74.3203 2.36547 -7.1804 0
M  V30 869 H 75.5883 3.53189 -6.94894 0
M  V30 870 N 79.8174 1.5752 -0.0501392 0
M  V30 871 C 80.7674 2.07981 0.934231 0
M  V30 872 C 81.7514 0.984745 1.27246 0
M  V30 873 O 82.9434 1.24809 1.25506 0
M  V30 874 C 80.0724 2.62751 2.20945 0
M  V30 875 C 79.1584 3.79225 1.89865 0
M  V30 876 N 79.5494 4.89036 1.29142 0
M  V30 877 C 77.8474 3.88111 2.19741 0
M  V30 878 C 78.5484 5.70084 1.15669 0
M  V30 879 N 77.5244 5.17659 1.65923 0
M  V30 880 H 81.3264 2.90277 0.460053 0
M  V30 881 H 78.8404 1.61665 0.15434 0
M  V30 882 H 80.8374 2.97205 2.9236 0
M  V30 883 H 79.4974 1.81894 2.6897 0
M  V30 884 H 80.5084 5.08854 0.963756 0
M  V30 885 H 77.1854 3.18194 2.70293 0
M  V30 886 H 78.5754 6.68395 0.685356 0
M  V30 887 N 81.2955 -0.223234 1.56011 0
M  V30 888 C 82.5445 -0.945912 1.78144 0
M  V30 889 C 82.8575 -1.85567 0.618396 0
M  V30 890 O 84.0635 -2.61688 0.723318 0
M  V30 891 C 82.5195 -1.73216 3.15475 0
M  V30 892 C 82.1275 -0.868619 4.39499 0
M  V30 893 C 83.8715 -2.44615 3.46935 0
M  V30 894 C 81.7785 -1.65212 5.67855 0
M  V30 895 H 80.7085 -0.356929 0.664167 0
M  V30 896 H 83.3595 -0.199845 1.82409 0
M  V30 897 H 81.7415 -2.52107 3.05382 0
M  V30 898 H 82.9155 -0.120366 4.60643 0
M  V30 899 H 81.2305 -0.26683 4.15544 0
M  V30 900 H 83.8275 -3.03732 4.40058 0
M  V30 901 H 84.1705 -3.17417 2.69355 0
M  V30 902 H 84.7035 -1.72715 3.58349 0
M  V30 903 H 81.4425 -0.967407 6.48322 0
M  V30 904 H 80.9625 -2.37503 5.50774 0
M  V30 905 H 82.6415 -2.21322 6.07968 0
M  V30 906 N 82.7736 -1.49793 -0.48987 0
M  V30 907 C 83.7206 -1.67281 -1.59014 0
M  V30 908 C 84.6906 -0.514177 -1.57941 0
M  V30 909 O 85.8756 -0.742533 -1.75759 0
M  V30 910 C 83.0156 -1.75569 -2.97102 0
M  V30 911 C 82.1286 -3.0281 -3.08107 0
M  V30 912 C 81.2636 -3.02008 -4.36995 0
M  V30 913 C 80.3026 -4.23782 -4.41673 0
M  V30 914 N 79.4396 -4.20826 -5.62005 0
M  V30 915 H 84.2796 -2.61224 -1.43409 0
M  V30 916 H 81.8166 -1.29508 -0.697565 0
M  V30 917 H 83.7746 -1.78354 -3.77155 0
M  V30 918 H 82.4046 -0.850827 -3.11385 0
M  V30 919 H 81.4566 -3.09584 -2.21047 0
M  V30 920 H 82.7686 -3.92801 -3.07423 0
M  V30 921 H 81.9226 -3.03418 -5.25378 0
M  V30 922 H 80.6616 -2.09815 -4.4026 0
M  V30 923 H 79.6666 -4.22604 -3.5169 0
M  V30 924 H 80.8916 -5.17181 -4.40115 0
M  V30 925 H 78.8376 -3.31476 -5.66091 0
M  V30 926 H 78.7546 -5.04564 -5.62984 0
M  V30 927 H 80.0226 -4.26355 -6.52565 0
M  V30 928 N 84.2517 0.741722 -1.39055 0
M  V30 929 C 85.2017 1.84661 -1.33732 0
M  V30 930 C 86.1857 1.59397 -0.219401 0
M  V30 931 O 87.3777 1.71015 -0.456375 0
M  V30 932 C 84.5067 3.22512 -1.17647 0
M  V30 933 C 83.5927 3.53628 -2.34112 0
M  V30 934 N 83.9837 3.55723 -3.59576 0
M  V30 935 C 82.2817 3.83956 -2.26923 0
M  V30 936 C 82.9827 3.84443 -4.36553 0
M  V30 937 N 81.9587 4.01877 -3.66055 0
M  V30 938 H 85.7607 1.84576 -2.28711 0
M  V30 939 H 83.2747 0.939647 -1.32455 0
M  V30 940 H 85.2717 4.01597 -1.11917 0
M  V30 941 H 83.9317 3.2384 -0.236124 0
M  V30 942 H 84.9427 3.37196 -3.93089 0
M  V30 943 H 81.6197 3.92929 -1.41113 0
M  V30 944 H 83.0097 3.92588 -5.45274 0
M  V30 945 N 85.7298 1.2412 0.971189 0
M  V30 946 C 86.6768 1.0305 2.06517 0
M  V30 947 C 87.6468 -0.0550666 1.66009 0
M  V30 948 O 88.8318 0.0988688 1.90544 0
M  V30 949 C 85.9718 0.637653 3.39158 0
M  V30 950 C 85.0848 1.79633 3.92882 0
M  V30 951 C 84.2198 1.34939 5.13775 0
M  V30 952 C 83.2588 2.47823 5.59687 0
M  V30 953 N 82.3958 2.04022 6.71803 0
M  V30 954 H 87.2358 1.96685 2.23873 0
M  V30 955 H 84.7728 0.979694 1.09729 0
M  V30 956 H 86.7308 0.390931 4.15364 0
M  V30 957 H 85.3608 -0.261693 3.21737 0
M  V30 958 H 84.4128 2.15681 3.13346 0
M  V30 959 H 85.7248 2.64466 4.22918 0
M  V30 960 H 84.8788 1.06134 5.97345 0
M  V30 961 H 83.6178 0.471557 4.85415 0
M  V30 962 H 82.6228 2.77392 4.74693 0
M  V30 963 H 83.8478 3.36158 5.90063 0
M  V30 964 H 81.7938 1.18632 6.45184 0
M  V30 965 H 81.7108 2.82409 7.01271 0
M  V30 966 H 82.9788 1.78347 7.58823 0
M  V30 967 N 87.2079 -1.17134 1.05439 0
M  V30 968 C 88.4379 -1.91094 0.785274 0
M  V30 969 C 88.8459 -1.77198 -0.663142 0
M  V30 970 O 88.1889 -1.10835 -1.46497 0
M  V30 971 C 88.2509 -3.42594 1.08949 0
M  V30 972 C 87.9149 -3.80274 2.53458 0
M  V30 973 C 88.9119 -3.82912 3.51673 0
M  V30 974 C 86.5969 -4.11162 2.88532 0
M  V30 975 C 88.5909 -4.15913 4.83006 0
M  V30 976 C 86.2779 -4.43831 4.20068 0
M  V30 977 C 87.2759 -4.46185 5.17115 0
M  V30 978 O 86.9639 -4.78083 6.46291 0
M  V30 979 H 86.6959 -0.613073 0.284811 0
M  V30 980 H 89.2499 -1.49461 1.40893 0
M  V30 981 H 87.4799 -3.84534 0.408741 0
M  V30 982 H 89.1689 -3.97817 0.805991 0
M  V30 983 H 89.9349 -3.5917 3.25917 0
M  V30 984 H 85.8139 -4.085 2.13656 0
M  V30 985 H 89.3579 -4.17665 5.5875 0
M  V30 986 H 85.2549 -4.67037 4.45586 0
M  V30 987 H 86.0229 -4.9593 6.51149 0
M  V30 988 N 88.686 -0.835752 -1.33615 0
M  V30 989 C 89.596 -0.269088 -2.33052 0
M  V30 990 C 90.612 0.603251 -1.63208 0
M  V30 991 O 91.788 0.508112 -1.94885 0
M  V30 992 C 88.853 0.549091 -3.42324 0
M  V30 993 C 87.914 -0.347156 -4.27894 0
M  V30 994 C 87.147 0.43207 -5.31948 0
M  V30 995 O 87.37 1.66409 -5.45586 0
M  V30 996 O 86.304 -0.192298 -6.01593 0
M  V30 997 H 90.13 -1.09243 -2.83372 0
M  V30 998 H 87.715 -0.598198 -1.36901 0
M  V30 999 H 89.597 1.01414 -4.09015 0
M  V30 1000 H 88.272 1.34955 -2.94226 0
M  V30 1001 H 87.179 -0.859979 -3.64081 0
M  V30 1002 H 88.512 -1.1123 -4.79467 0
M  V30 1003 N 90.1641 1.46063 -0.591896 0
M  V30 1004 C 91.1121 2.32124 0.148739 0
M  V30 1005 C 92.1061 1.45035 0.875286 0
M  V30 1006 O 93.3121 1.61609 0.792632 0
M  V30 1007 H 89.6871 0.749024 0.066832 0
M  V30 1008 H 91.6581 2.92392 -0.595783 0
M  V30 1009 C 90.4071 3.28373 1.1431 0
M  V30 1010 H 89.7301 3.95371 0.59346 0
M  V30 1011 H 91.1701 3.91352 1.63155 0
M  V30 1012 C 89.6291 2.54393 2.20875 0
M  V30 1013 O 90.1591 2.31373 3.28374 0
M  V30 1014 N 88.3651 2.14797 1.95731 0
M  V30 1015 H 87.9121 2.33719 1.08319 0
M  V30 1016 H 87.8701 1.65619 2.67241 0
M  V30 1017 N 91.6422 0.330177 1.54103 0
M  V30 1018 C 92.5892 -0.532762 2.24567 0
M  V30 1019 C 93.5592 -1.10635 1.23892 0
M  V30 1020 O 94.7442 -1.14546 1.5259 0
M  V30 1021 C 91.8842 -1.6845 3.01195 0
M  V30 1022 C 90.9972 -1.13951 4.167 0
M  V30 1023 C 90.1322 -2.25746 4.80845 0
M  V30 1024 C 89.1712 -1.6853 5.88442 0
M  V30 1025 N 88.3082 -2.74014 6.46421 0
M  V30 1026 H 93.1482 0.0746905 2.97906 0
M  V30 1027 H 90.6852 0.048632 1.4702 0
M  V30 1028 H 92.6432 -2.36234 3.43874 0
M  V30 1029 H 91.2732 -2.26314 2.30178 0
M  V30 1030 H 90.3252 -0.35301 3.78758 0
M  V30 1031 H 91.6372 -0.680892 4.94131 0
M  V30 1032 H 90.7912 -3.01422 5.26526 0
M  V30 1033 H 89.5302 -2.74947 4.0281 0
M  V30 1034 H 88.5352 -0.913543 5.42157 0
M  V30 1035 H 89.7602 -1.20198 6.68378 0
M  V30 1036 H 87.7062 -3.22494 5.71256 0
M  V30 1037 H 87.6232 -2.32735 7.19285 0
M  V30 1038 H 88.8912 -3.49499 6.96757 0
M  V30 1039 O 93.1592 -1.60283 0.197925 0
M  V30 1040 H 93.8502 -1.89795 -0.386981 0
M  V30 END ATOM
M  V30 BEGIN BOND
M  V30 END BOND
M  V30 END CTAB
M  END
$$$$
