drugbank_target|P43220 Glucagon-like peptide 1 receptor (DB00040; DB01276; DB06655; DB09043; DB09045; DB09265; DB13928)
 OpenBabel12092119413D

  0  0  0     0  0            999 V3000
M  V30 BEGIN CTAB
M  V30 COUNTS 7468 7576 0 0 0
M  V30 BEGIN ATOM
M  V30 1 H -0.908 1.98254 -0.117106 0
M  V30 2 N 0 1.576 0 0
M  V30 3 C 0.933 2.03868 1.02534 0
M  V30 4 C 1.911 0.928543 1.3348 0
M  V30 5 O 3.095 1.19667 1.45644 0
M  V30 6 C 0.222 2.43627 2.35294 0
M  V30 7 C -0.732 3.65373 2.2001 0
M  V30 8 S 0.101 5.13292 1.52614 0
M  V30 9 C 1.257 5.56322 2.86805 0
M  V30 10 H 1.49 2.90518 0.631377 0
M  V30 11 H -0.977 1.52953 0.210867 0
M  V30 12 H 0.981 2.67203 3.11629 0
M  V30 13 H -0.358 1.57376 2.7183 0
M  V30 14 H -1.165 3.90944 3.18086 0
M  V30 15 H -1.563 3.418 1.51819 0
M  V30 16 H 0.729 5.58782 3.83104 0
M  V30 17 H 1.672 6.56266 2.65933 0
M  V30 18 H 2.08 4.83886 2.90714 0
M  V30 19 N 1.4781 -0.272755 1.55222 0
M  V30 20 C 2.4411 -1.32041 1.87344 0
M  V30 21 C 3.4411 -1.42342 0.74803 0
M  V30 22 O 4.6311 -1.41488 1.0162 0
M  V30 23 C 1.7631 -2.70173 2.07893 0
M  V30 24 H 2.9561 -1.04789 2.80997 0
M  V30 25 H 0.5091 -0.51083 1.47717 0
M  V30 26 H 1.2441 -3.02605 1.16622 0
M  V30 27 H 1.0291 -2.64082 2.89833 0
M  V30 28 H 2.5191 -3.45869 2.34017 0
M  V30 29 N 2.9562 -1.48159 -0.537278 0
M  V30 30 C 4.2042 -1.55497 -1.29094 0
M  V30 31 C 4.5252 -0.227454 -1.93669 0
M  V30 32 O 3.7952 0.750386 -1.80959 0
M  V30 33 H 2.3752 -0.572832 -0.47945 0
M  V30 34 H 5.0372 -1.84579 -0.625818 0
M  V30 35 H 4.1332 -2.33216 -2.07405 0
M  V30 36 N 4.4343 0.785586 -1.36625 0
M  V30 37 C 5.3973 1.87999 -1.31107 0
M  V30 38 C 6.3973 1.59316 -0.217959 0
M  V30 39 O 7.5873 1.67656 -0.472977 0
M  V30 40 C 4.7193 3.24861 -1.03334 0
M  V30 41 H 5.9123 1.94307 -2.2844 0
M  V30 42 H 3.4653 0.983813 -1.21453 0
M  V30 43 H 4.2003 3.24235 -0.0647432 0
M  V30 44 H 3.9853 3.4707 -1.82441 0
M  V30 45 H 5.4753 4.04929 -1.02088 0
M  V30 46 N 5.9124 1.20967 1.01018 0
M  V30 47 C 7.3234 1.02319 1.56165 0
M  V30 48 C 7.6744 -0.418546 1.91684 0
M  V30 49 O 6.7994 -1.30096 1.72928 0
M  V30 50 C 7.3944 1.85109 2.8376 0
M  V30 51 C 5.9534 1.70809 3.35412 0
M  V30 52 C 5.1004 1.82643 2.08655 0
M  V30 53 H 8.0514 1.35065 0.833255 0
M  V30 54 H 8.0724 1.35827 3.55431 0
M  V30 55 H 7.5844 2.90035 2.57878 0
M  V30 56 H 5.6854 0.685464 3.66241 0
M  V30 57 H 5.7984 2.52467 4.07182 0
M  V30 58 H 4.1624 1.25896 2.21409 0
M  V30 59 H 4.9454 2.89066 1.85191 0
M  V30 60 N 7.3905 -1.2043 1.01659 0
M  V30 61 C 8.6385 -1.89423 0.704522 0
M  V30 62 C 8.9595 -1.79231 -0.768197 0
M  V30 63 O 8.2295 -1.1947 -1.55254 0
M  V30 64 H 6.8095 -0.701178 0.257602 0
M  V30 65 H 9.4715 -1.4626 1.28818 0
M  V30 66 H 8.5675 -2.96052 0.987916 0
M  V30 67 N 8.8686 -0.792821 -1.36206 0
M  V30 68 C 10.2796 -0.429513 -1.81692 0
M  V30 69 C 10.6306 1.04695 -1.65932 0
M  V30 70 O 9.7556 1.81256 -1.18218 0
M  V30 71 C 10.3506 -0.772831 -3.29868 0
M  V30 72 C 8.9096 -0.462307 -3.7355 0
M  V30 73 C 8.0566 -1.00569 -2.5842 0
M  V30 74 H 11.0076 -0.985672 -1.24379 0
M  V30 75 H 11.0286 -0.0651928 -3.80444 0
M  V30 76 H 10.5406 -1.84747 -3.41307 0
M  V30 77 H 8.6416 0.604158 -3.67669 0
M  V30 78 H 8.7546 -0.985299 -4.68859 0
M  V30 79 H 7.1186 -0.428734 -2.51066 0
M  V30 80 H 7.9016 -2.08616 -2.72643 0
M  V30 81 N 10.3467 1.47872 -0.545128 0
M  V30 82 C 11.2767 2.32661 0.197793 0
M  V30 83 C 12.2577 1.43041 0.920504 0
M  V30 84 O 13.4427 1.71912 0.90333 0
M  V30 85 C 10.5727 3.24569 1.23582 0
M  V30 86 C 9.5267 4.23333 0.630323 0
M  V30 87 C 8.8527 5.0448 1.77211 0
M  V30 88 C 10.1527 5.20704 -0.407974 0
M  V30 89 H 11.8467 2.95024 -0.510045 0
M  V30 90 H 9.3927 1.4187 -0.246731 0
M  V30 91 H 11.3457 3.8272 1.76362 0
M  V30 92 H 10.0697 2.60236 1.97344 0
M  V30 93 H 8.7287 3.6639 0.123922 0
M  V30 94 H 8.3767 4.36561 2.49847 0
M  V30 95 H 8.0767 5.71339 1.37281 0
M  V30 96 H 9.6007 5.65487 2.3034 0
M  V30 97 H 11.0147 5.7329 0.033305 0
M  V30 98 H 9.4117 5.95699 -0.725486 0
M  V30 99 H 10.4817 4.66917 -1.30828 0
M  V30 100 N 11.8248 0.280983 1.55075 0
M  V30 101 C 13.2408 -0.0729964 1.59433 0
M  V30 102 C 13.4408 -1.5411 1.29817 0
M  V30 103 O 12.4968 -2.29086 1.06187 0
M  V30 104 C 13.8098 0.306921 2.9913 0
M  V30 105 C 15.3578 0.254023 3.11968 0
M  V30 106 C 15.8328 0.608467 4.5394 0
M  V30 107 N 17.3238 0.560241 4.59799 0
M  V30 108 C 18.0588 0.80722 5.6769 0
M  V30 109 N 17.5548 1.11912 6.83701 0
M  V30 110 N 19.3478 0.735623 5.57266 0
M  V30 111 H 11.4988 1.238 1.7259 0
M  V30 112 H 13.7618 0.500547 0.805082 0
M  V30 113 H 13.4678 1.32816 3.25657 0
M  V30 114 H 13.3418 -0.349363 3.75579 0
M  V30 115 H 15.7288 -0.75794 2.852 0
M  V30 116 H 15.8098 0.944649 2.37718 0
M  V30 117 H 15.4538 1.61814 4.81434 0
M  V30 118 H 15.3838 -0.104013 5.26497 0
M  V30 119 H 17.8748 0.329288 3.76463 0
M  V30 120 H 18.1878 1.29409 7.61888 0
M  V30 121 H 16.5328 1.15695 6.85303 0
M  V30 122 H 19.7238 0.491752 4.6551 0
M  V30 123 H 19.8968 0.931482 6.4127 0
M  V30 124 N 13.3029 -1.57598 0.00835791 0
M  V30 125 C 14.2329 -2.1198 -0.979113 0
M  V30 126 C 15.2139 -1.03091 -1.35301 0
M  V30 127 O 16.3989 -1.30818 -1.43528 0
M  V30 128 C 13.5289 -2.62995 -2.26828 0
M  V30 129 C 12.4829 -3.76485 -2.03576 0
M  V30 130 C 11.8089 -4.13846 -3.38579 0
M  V30 131 C 13.1089 -5.0342 -1.39161 0
M  V30 132 H 14.8029 -2.94738 -0.526281 0
M  V30 133 H 12.3489 -1.41783 -0.251704 0
M  V30 134 H 14.3019 -2.99669 -2.96271 0
M  V30 135 H 13.0259 -1.7737 -2.7424 0
M  V30 136 H 11.6849 -3.40217 -1.36557 0
M  V30 137 H 11.3329 -3.25232 -3.83709 0
M  V30 138 H 11.0329 -4.90312 -3.23834 0
M  V30 139 H 12.5569 -4.53086 -4.09323 0
M  V30 140 H 13.9709 -5.37812 -1.98573 0
M  V30 141 H 12.3679 -5.84746 -1.34878 0
M  V30 142 H 13.4379 -4.83548 -0.361868 0
M  V30 143 N 14.781 0.264519 -1.55364 0
M  V30 144 C 15.744 1.31046 -1.88042 0
M  V30 145 C 16.744 1.41943 -0.755569 0
M  V30 146 O 17.934 1.40947 -1.02369 0
M  V30 147 C 15.066 2.69067 -2.09323 0
M  V30 148 H 16.259 1.03297 -2.81549 0
M  V30 149 H 13.812 0.502989 -1.47986 0
M  V30 150 H 14.547 3.01982 -1.18226 0
M  V30 151 H 14.332 2.62542 -2.91229 0
M  V30 152 H 15.822 3.44623 -2.35848 0
M  V30 153 N 16.2591 1.48442 0.529413 0
M  V30 154 C 17.1891 1.65902 1.64313 0
M  V30 155 C 18.1701 0.507897 1.6234 0
M  V30 156 O 19.3551 0.740503 1.79528 0
M  V30 157 C 16.4851 1.69911 3.02898 0
M  V30 158 C 15.4391 2.8453 3.19729 0
M  V30 159 C 14.7651 2.73629 4.59381 0
M  V30 160 C 16.0651 4.25821 3.02447 0
M  V30 161 H 17.7591 2.5914 1.49955 0
M  V30 162 H 15.3051 1.24709 0.719982 0
M  V30 163 H 17.2581 1.80715 3.80684 0
M  V30 164 H 15.9821 0.732524 3.18279 0
M  V30 165 H 14.6411 2.73283 2.44361 0
M  V30 166 H 14.2891 1.74938 4.71599 0
M  V30 167 H 13.9891 3.50541 4.71588 0
M  V30 168 H 15.5131 2.86401 5.39265 0
M  V30 169 H 16.9271 4.37898 3.70024 0
M  V30 170 H 15.3241 5.03735 3.26146 0
M  V30 171 H 16.3941 4.42244 1.98867 0
M  V30 172 N 17.7372 -0.778329 1.37039 0
M  V30 173 C 18.6672 -1.90546 1.34962 0
M  V30 174 C 19.6482 -1.68681 0.219274 0
M  V30 175 O 20.8332 -1.89634 0.418624 0
M  V30 176 C 17.9632 -3.27734 1.14925 0
M  V30 177 C 16.9172 -3.64147 2.24902 0
M  V30 178 C 16.2432 -4.99806 1.89996 0
M  V30 179 C 17.5432 -3.71579 3.67051 0
M  V30 180 H 19.2372 -1.92541 2.29277 0
M  V30 181 H 16.7832 -0.924948 1.10366 0
M  V30 182 H 18.7362 -4.06215 1.12104 0
M  V30 183 H 17.4602 -3.26154 0.170631 0
M  V30 184 H 16.1192 -2.8797 2.26868 0
M  V30 185 H 15.7672 -4.94759 0.906796 0
M  V30 186 H 15.4672 -5.25139 2.63634 0
M  V30 187 H 16.9912 -5.80694 1.88749 0
M  V30 188 H 18.4052 -4.40227 3.67251 0
M  V30 189 H 16.8022 -4.08405 4.39688 0
M  V30 190 H 17.8722 -2.72404 4.01154 0
M  V30 191 N 19.2153 -1.21501 -1.00376 0
M  V30 192 C 20.1453 -0.999478 -2.11028 0
M  V30 193 C 21.1263 0.0759671 -1.6993 0
M  V30 194 O 22.3113 -0.0841106 -1.94018 0
M  V30 195 C 19.4413 -0.564709 -3.42678 0
M  V30 196 C 18.3953 -1.58486 -3.97576 0
M  V30 197 C 17.7213 -1.00628 -5.25146 0
M  V30 198 C 19.0213 -2.97204 -4.29496 0
M  V30 199 H 20.7153 -1.92495 -2.29317 0
M  V30 200 H 18.2613 -0.92693 -1.102 0
M  V30 201 H 20.2143 -0.401091 -4.19487 0
M  V30 202 H 18.9383 0.396411 -3.24185 0
M  V30 203 H 17.5973 -1.73606 -3.22888 0
M  V30 204 H 17.2453 -0.0368439 -5.02987 0
M  V30 205 H 16.9453 -1.68771 -5.62841 0
M  V30 206 H 18.4693 -0.854015 -6.04598 0
M  V30 207 H 19.8833 -2.8552 -4.97143 0
M  V30 208 H 18.2803 -3.62372 -4.78338 0
M  V30 209 H 19.3503 -3.47956 -3.3772 0
M  V30 210 N 20.6934 1.19889 -1.02296 0
M  V30 211 C 21.6234 2.25141 -0.619174 0
M  V30 212 C 22.6044 1.66051 0.368915 0
M  V30 213 O 23.7894 1.92546 0.252941 0
M  V30 214 C 20.9194 3.4728 0.0368783 0
M  V30 215 C 19.8734 4.19005 -0.872865 0
M  V30 216 C 19.1994 5.34637 -0.0822402 0
M  V30 217 C 20.4994 4.74452 -2.18387 0
M  V30 218 H 22.1934 2.59171 -1.49903 0
M  V30 219 H 19.7394 1.24579 -0.722222 0
M  V30 220 H 21.6924 4.20098 0.330958 0
M  V30 221 H 20.4164 3.12433 0.95149 0
M  V30 222 H 19.0754 3.48061 -1.15105 0
M  V30 223 H 18.7234 4.96034 0.83422 0
M  V30 224 H 18.4234 5.83557 -0.688149 0
M  V30 225 H 19.9474 6.10255 0.205238 0
M  V30 226 H 21.3614 5.39055 -1.95172 0
M  V30 227 H 19.7584 5.33834 -2.74119 0
M  V30 228 H 20.8284 3.92844 -2.84257 0
M  V30 229 N 22.1715 0.800033 1.35784 0
M  V30 230 C 23.4195 0.376597 1.9856 0
M  V30 231 C 23.7405 -1.05812 1.63795 0
M  V30 232 O 23.0105 -1.73103 0.917171 0
M  V30 233 H 21.5905 0.136261 0.734467 0
M  V30 234 H 24.2525 1.02442 1.65806 0
M  V30 235 H 23.3485 0.477002 3.08433 0
M  V30 236 N 23.6496 -1.47581 0.552962 0
M  V30 237 C 24.5826 -2.26883 -0.244857 0
M  V30 238 C 25.5606 -1.33784 -0.924147 0
M  V30 239 O 26.7446 -1.6316 -0.943981 0
M  V30 240 C 23.8716 -3.10695 -1.34856 0
M  V30 241 C 22.9176 -4.19339 -0.778268 0
M  V30 242 S 23.7506 -5.34207 0.37184 0
M  V30 243 C 24.9066 -6.21584 -0.733779 0
M  V30 244 H 25.1396 -2.94202 0.428087 0
M  V30 245 H 22.6726 -1.50628 0.339197 0
M  V30 246 H 24.6306 -3.59555 -1.98066 0
M  V30 247 H 23.2916 -2.42746 -1.99332 0
M  V30 248 H 22.4846 -4.77695 -1.60696 0
M  V30 249 H 22.0866 -3.73338 -0.222422 0
M  V30 250 H 24.3786 -6.57676 -1.62692 0
M  V30 251 H 25.3216 -7.07851 -0.187668 0
M  V30 252 H 25.7296 -5.55125 -1.02454 0
M  V30 253 N 25.1277 -0.289203 -1.54924 0
M  V30 254 C 26.3737 0.323998 -2.00195 0
M  V30 255 C 26.7067 1.54441 -1.17735 0
M  V30 256 O 25.9817 1.92875 -0.250878 0
M  V30 257 C 26.2647 0.692276 -3.53383 0
M  V30 258 C 26.1177 -0.536457 -4.46589 0
M  V30 259 C 27.4367 1.52335 -4.12895 0
M  V30 260 H 24.5557 0.116289 -0.727768 0
M  V30 261 H 27.1977 -0.398954 -1.85764 0
M  V30 262 H 25.3477 1.30822 -3.65811 0
M  V30 263 H 27.0197 -1.17499 -4.46085 0
M  V30 264 H 25.2627 -1.17192 -4.1767 0
M  V30 265 H 25.9337 -0.234806 -5.515 0
M  V30 266 H 28.4097 1.00302 -4.0383 0
M  V30 267 H 27.2857 1.74982 -5.20262 0
M  V30 268 H 27.5467 2.50886 -3.64018 0
M  V30 269 N 26.6058 1.57591 -0.0167156 0
M  V30 270 C 27.8538 1.90906 0.663285 0
M  V30 271 C 28.1748 0.892509 1.73376 0
M  V30 272 O 27.4448 -0.0677623 1.95783 0
M  V30 273 H 26.0248 0.704637 0.247983 0
M  V30 274 H 28.6868 1.94803 -0.0615909 0
M  V30 275 H 27.7828 2.9116 1.12393 0
M  V30 276 N 28.0839 -0.256276 1.55502 0
M  V30 277 C 29.4999 -0.604325 1.47716 0
M  V30 278 C 29.6999 -1.88763 0.705039 0
M  V30 279 O 28.7559 -2.51445 0.230613 0
M  V30 280 C 30.0689 -0.715756 2.92057 0
M  V30 281 C 31.6169 -0.808706 3.02372 0
M  V30 282 C 32.0919 -0.951777 4.48001 0
M  V30 283 N 33.5829 -1.01688 4.519 0
M  V30 284 C 34.3179 -1.14668 5.61817 0
M  V30 285 N 33.8139 -1.24261 6.81565 0
M  V30 286 N 35.6069 -1.1791 5.49594 0
M  V30 287 H 27.7579 0.586291 2.04148 0
M  V30 288 H 30.0209 0.201015 0.926443 0
M  V30 289 H 29.7269 0.157027 3.51349 0
M  V30 290 H 29.6009 -1.59071 3.42018 0
M  V30 291 H 31.9879 -1.67195 2.43166 0
M  V30 292 H 32.0689 0.0912063 2.55637 0
M  V30 293 H 31.7129 -0.0931291 5.07815 0
M  V30 294 H 31.6429 -1.86659 4.92408 0
M  V30 295 H 34.1339 -0.954468 3.65648 0
M  V30 296 H 34.4469 -1.34046 7.61086 0
M  V30 297 H 32.7919 -1.21236 6.84344 0
M  V30 298 H 35.9829 -1.10057 4.54978 0
M  V30 299 H 36.1559 -1.27681 6.35296 0
M  V30 300 N 29.562 -1.4872 -0.521534 0
M  V30 301 C 30.525 -1.63379 -1.60748 0
M  V30 302 C 31.525 -0.50661 -1.52611 0
M  V30 303 O 32.715 -0.772601 -1.5613 0
M  V30 304 C 29.847 -1.61192 -3.00383 0
M  V30 305 H 31.04 -2.60217 -1.49087 0
M  V30 306 H 28.593 -1.37444 -0.744235 0
M  V30 307 H 29.328 -0.65863 -3.17541 0
M  V30 308 H 29.113 -2.43032 -3.07698 0
M  V30 309 H 30.603 -1.7466 -3.7932 0
M  V30 310 N 31.0401 0.771051 -1.3745 0
M  V30 311 C 32.2881 1.52661 -1.32435 0
M  V30 312 C 32.6091 1.9479 0.0905024 0
M  V30 313 O 31.8791 1.66348 1.03466 0
M  V30 314 H 30.4591 0.566218 -0.487244 0
M  V30 315 H 33.1211 0.917636 -1.71946 0
M  V30 316 H 32.2171 2.42568 -1.96385 0
M  V30 317 N 32.5182 1.22032 0.997298 0
M  V30 318 C 33.9292 1.0397 1.55071 0
M  V30 319 C 34.2802 -0.398192 1.92117 0
M  V30 320 O 33.4052 -1.28254 1.74298 0
M  V30 321 C 34.0002 1.88109 2.81781 0
M  V30 322 C 32.5592 1.74357 3.33581 0
M  V30 323 C 31.7062 1.84846 2.06706 0
M  V30 324 H 34.6572 1.35941 0.818883 0
M  V30 325 H 34.6782 1.39589 3.53971 0
M  V30 326 H 34.1902 2.92754 2.54787 0
M  V30 327 H 32.2912 0.72427 3.65493 0
M  V30 328 H 32.4042 2.56772 4.04481 0
M  V30 329 H 30.7682 1.28238 2.20062 0
M  V30 330 H 31.5512 2.91014 1.82114 0
M  V30 331 N 33.9963 -1.19345 1.0293 0
M  V30 332 C 35.4123 -1.41069 0.746446 0
M  V30 333 C 35.6123 -1.90078 -0.668776 0
M  V30 334 O 34.6683 -2.0778 -1.4347 0
M  V30 335 C 35.9813 -2.42141 1.78292 0
M  V30 336 C 37.5293 -2.55887 1.80252 0
M  V30 337 C 38.0043 -3.60214 2.8286 0
M  V30 338 N 39.4953 -3.67711 2.81679 0
M  V30 339 C 40.2303 -4.48128 3.57727 0
M  V30 340 N 39.7263 -5.32248 4.43491 0
M  V30 341 N 41.5193 -4.42782 3.46267 0
M  V30 342 H 33.6703 -0.858536 1.94275 0
M  V30 343 H 35.9333 -0.439541 0.839945 0
M  V30 344 H 35.6393 -2.13155 2.79746 0
M  V30 345 H 35.5133 -3.41323 1.60557 0
M  V30 346 H 37.9003 -2.84196 0.794757 0
M  V30 347 H 37.9813 -1.56858 2.02062 0
M  V30 348 H 37.6253 -3.32647 3.83807 0
M  V30 349 H 37.5553 -4.58895 2.58307 0
M  V30 350 H 40.0463 -3.07634 2.19476 0
M  V30 351 H 40.3593 -5.90729 4.98256 0
M  V30 352 H 38.7043 -5.31707 4.47564 0
M  V30 353 H 41.8953 -3.76107 2.78677 0
M  V30 354 H 42.0683 -5.05215 4.05785 0
M  V30 355 N 35.4744 -0.807222 -1.35358 0
M  V30 356 C 36.8854 -0.44876 -1.81226 0
M  V30 357 C 37.2364 1.02929 -1.67033 0
M  V30 358 O 36.3614 1.79991 -1.20133 0
M  V30 359 C 36.9564 -0.807774 -3.2903 0
M  V30 360 C 35.5154 -0.501901 -3.73039 0
M  V30 361 C 34.6624 -1.03304 -2.57339 0
M  V30 362 H 37.6134 -0.998808 -1.23327 0
M  V30 363 H 37.6344 -0.10554 -3.80354 0
M  V30 364 H 37.1464 -1.88357 -3.39328 0
M  V30 365 H 35.2474 0.565128 -3.68289 0
M  V30 366 H 35.3604 -1.03497 -4.67787 0
M  V30 367 H 33.7244 -0.455339 -2.50597 0
M  V30 368 H 34.5074 -2.11496 -2.70415 0
M  V30 369 N 36.9525 1.47285 -0.560781 0
M  V30 370 C 37.8845 2.28118 0.222438 0
M  V30 371 C 38.8975 1.37219 0.876056 0
M  V30 372 O 40.0865 1.62011 0.749307 0
M  V30 373 C 37.1865 3.1159 1.33285 0
M  V30 374 C 36.3595 4.30473 0.77534 0
M  V30 375 C 35.4185 4.95513 1.77069 0
M  V30 376 O 34.4445 5.53792 1.31539 0
M  V30 377 N 35.6465 4.90531 3.10418 0
M  V30 378 H 38.4115 2.95976 -0.470958 0
M  V30 379 H 35.9725 1.56955 -0.39709 0
M  V30 380 H 37.9645 3.51967 1.99752 0
M  V30 381 H 36.5345 2.45951 1.92943 0
M  V30 382 H 35.7545 3.94144 -0.0662113 0
M  V30 383 H 37.0425 5.07362 0.382272 0
M  V30 384 H 36.4405 4.44389 3.5005 0
M  V30 385 H 34.9975 5.34917 3.72434 0
M  V30 386 N 38.4306 0.297415 1.54768 0
M  V30 387 C 39.6786 -0.312295 1.99673 0
M  V30 388 C 39.9996 -1.54686 1.18732 0
M  V30 389 O 39.2696 -1.93854 0.282382 0
M  V30 390 H 37.8496 -0.118381 0.73756 0
M  V30 391 H 40.5116 0.407915 1.90583 0
M  V30 392 H 39.6076 -0.586813 3.06534 0
M  V30 393 N 39.9087 -1.5758 0.0250728 0
M  V30 394 C 40.8717 -2.08896 -0.943139 0
M  V30 395 C 41.8717 -1.00321 -1.25668 0
M  V30 396 O 43.0617 -1.26495 -1.19769 0
M  V30 397 C 40.1937 -2.55143 -2.26086 0
M  V30 398 H 41.3867 -2.95723 -0.498775 0
M  V30 399 H 38.9397 -1.54703 -0.222888 0
M  V30 400 H 39.6747 -1.71633 -2.75159 0
M  V30 401 H 39.4597 -3.34461 -2.04641 0
M  V30 402 H 40.9497 -2.95083 -2.95492 0
M  V30 403 N 41.3868 0.248026 -1.55636 0
M  V30 404 C 42.6148 0.993808 -1.81469 0
M  V30 405 C 43.0298 1.78991 -0.60064 0
M  V30 406 O 42.3868 1.77345 0.430682 0
M  V30 407 C 42.4378 1.93258 -3.05506 0
M  V30 408 O 42.1588 1.16869 -4.22224 0
M  V30 409 C 43.6598 2.79444 -3.4413 0
M  V30 410 H 40.8798 0.292486 -0.603898 0
M  V30 411 H 43.4238 0.271253 -2.02693 0
M  V30 412 H 41.5788 2.60943 -2.86335 0
M  V30 413 H 41.9928 1.80359 -4.92515 0
M  V30 414 H 43.4668 3.41066 -4.34026 0
M  V30 415 H 43.9438 3.50499 -2.64665 0
M  V30 416 H 44.5498 2.17214 -3.65648 0
M  V30 417 N 42.8649 1.48995 0.513639 0
M  V30 418 C 44.1109 1.58076 1.27042 0
M  V30 419 C 44.4439 0.261026 1.92438 0
M  V30 420 O 43.7189 -0.734393 1.80103 0
M  V30 421 C 44.0019 2.73091 2.34719 0
M  V30 422 C 43.8549 4.14821 1.73907 0
M  V30 423 C 45.1739 2.83796 3.36375 0
M  V30 424 H 42.2929 0.575391 0.460536 0
M  V30 425 H 44.9349 1.81232 0.570516 0
M  V30 426 H 43.0849 2.53479 2.94416 0
M  V30 427 H 44.7569 4.45917 1.18135 0
M  V30 428 H 42.9999 4.21058 1.0437 0
M  V30 429 H 43.6709 4.91147 2.51949 0
M  V30 430 H 46.1469 3.01611 2.86653 0
M  V30 431 H 45.0229 3.65971 4.09093 0
M  V30 432 H 45.2839 1.92624 3.9793 0
M  V30 433 N 44.343 -0.763751 1.37857 0
M  V30 434 C 45.568 -1.55805 1.36893 0
M  V30 435 C 45.993 -1.88054 -0.0416135 0
M  V30 436 O 45.351 -1.49825 -1.02089 0
M  V30 437 C 45.399 -2.84012 2.22192 0
M  V30 438 O 44.503 -3.78732 1.63204 0
M  V30 439 H 43.844 -0.471638 0.46739 0
M  V30 440 H 46.374 -0.944657 1.81487 0
M  V30 441 H 46.384 -3.33037 2.35691 0
M  V30 442 H 45.059 -2.59869 3.24716 0
M  V30 443 H 43.636 -3.37402 1.58791 0
M  V30 444 N 45.8211 -1.22559 -0.990812 0
M  V30 445 C 46.7511 -1.0218 -2.09956 0
M  V30 446 C 47.7321 0.0579394 -1.70001 0
M  V30 447 O 48.9171 -0.104684 -1.93918 0
M  V30 448 C 46.0471 -0.601023 -3.4206 0
M  V30 449 C 45.0011 -1.62694 -3.95872 0
M  V30 450 C 44.3271 -1.06193 -5.24049 0
M  V30 451 C 45.6271 -3.01743 -4.2632 0
M  V30 452 H 47.3211 -1.94916 -2.27262 0
M  V30 453 H 44.8671 -0.938566 -1.09211 0
M  V30 454 H 46.8201 -0.445561 -4.19038 0
M  V30 455 H 45.5441 0.362005 -3.24588 0
M  V30 456 H 44.2031 -1.77021 -3.21028 0
M  V30 457 H 43.8511 -0.0901903 -5.02919 0
M  V30 458 H 43.5511 -1.74732 -5.61019 0
M  V30 459 H 45.0751 -0.918092 -6.03658 0
M  V30 460 H 46.4891 -2.90777 -4.94087 0
M  V30 461 H 44.8861 -3.67425 -4.74467 0
M  V30 462 H 45.9561 -3.51518 -3.34011 0
M  V30 463 N 47.2992 1.18797 -1.03562 0
M  V30 464 C 48.5452 1.89192 -0.746867 0
M  V30 465 C 48.9002 1.78531 0.717245 0
M  V30 466 O 48.1932 1.17137 1.51622 0
M  V30 467 C 48.3872 3.38692 -1.14117 0
M  V30 468 C 48.2162 3.63902 -2.64207 0
M  V30 469 C 46.9862 3.81553 -3.31279 0
M  V30 470 C 49.1842 3.64903 -3.62423 0
M  V30 471 N 47.1662 3.94455 -4.70402 0
M  V30 472 C 48.5372 3.83458 -4.87196 0
M  V30 473 C 50.5922 3.47965 -3.56125 0
M  V30 474 C 49.2952 3.86829 -6.06429 0
M  V30 475 C 51.3212 3.52616 -4.7478 0
M  V30 476 C 50.6832 3.71663 -5.9837 0
M  V30 477 H 46.7822 0.711141 -0.325273 0
M  V30 478 H 49.3662 1.42727 -1.32428 0
M  V30 479 H 47.5372 3.83864 -0.591889 0
M  V30 480 H 49.2692 3.96634 -0.803966 0
M  V30 481 H 46.0242 3.80723 -2.81686 0
M  V30 482 H 46.4482 4.0474 -5.42692 0
M  V30 483 H 51.0902 3.32189 -2.61553 0
M  V30 484 H 48.8082 4.01395 -7.01362 0
M  V30 485 H 52.3942 3.40791 -4.71543 0
M  V30 486 H 51.2742 3.75145 -6.88648 0
M  V30 487 N 48.7773 0.814389 1.34928 0
M  V30 488 C 49.6873 0.231978 2.3345 0
M  V30 489 C 50.7033 -0.629139 1.62228 0
M  V30 490 O 51.8793 -0.539052 1.94052 0
M  V30 491 C 48.9443 -0.603482 3.41407 0
M  V30 492 C 48.0053 0.279037 4.28392 0
M  V30 493 C 47.2383 -0.516643 5.31193 0
M  V30 494 O 47.4613 -1.75068 5.4287 0
M  V30 495 O 46.3953 0.0965652 6.01823 0
M  V30 496 H 50.2213 1.04721 2.85074 0
M  V30 497 H 47.8063 0.576343 1.37836 0
M  V30 498 H 49.6883 -1.07908 4.0735 0
M  V30 499 H 48.3633 -1.39618 2.92042 0
M  V30 500 H 47.2703 0.801948 3.65403 0
M  V30 501 H 48.6033 1.03588 4.81176 0
M  V30 502 N 50.2554 -1.46986 0.568584 0
M  V30 503 C 51.4834 -2.0683 0.0539956 0
M  V30 504 C 51.8984 -1.41953 -1.24478 0
M  V30 505 O 51.2554 -0.519933 -1.74937 0
M  V30 506 C 51.3064 -3.61254 -0.133362 0
M  V30 507 O 51.0274 -4.237 1.11399 0
M  V30 508 C 52.5284 -4.37992 -0.683927 0
M  V30 509 H 49.7484 -0.669058 0.0510141 0
M  V30 510 H 52.2924 -1.88824 0.785234 0
M  V30 511 H 50.4474 -3.78735 -0.81477 0
M  V30 512 H 50.8614 -5.16388 0.91888 0
M  V30 513 H 52.3354 -5.46684 -0.764263 0
M  V30 514 H 52.8124 -4.05058 -1.69778 0
M  V30 515 H 53.4184 -4.25283 -0.0378494 0
M  V30 516 N 51.7335 -0.305618 -1.54608 0
M  V30 517 C 52.9795 0.302746 -2.00528 0
M  V30 518 C 53.3125 1.53184 -1.19367 0
M  V30 519 O 52.5875 1.92598 -0.271321 0
M  V30 520 C 52.8705 0.654756 -3.54097 0
M  V30 521 C 52.7235 -0.583793 -4.45995 0
M  V30 522 C 54.0425 1.47947 -4.14487 0
M  V30 523 H 51.1615 0.108564 -0.72896 0
M  V30 524 H 53.8035 -0.418634 -1.85331 0
M  V30 525 H 51.9535 1.26935 -3.67178 0
M  V30 526 H 53.6255 -1.22224 -4.44814 0
M  V30 527 H 51.8685 -1.21615 -4.16404 0
M  V30 528 H 52.5395 -0.293287 -5.5122 0
M  V30 529 H 55.0155 0.96013 -4.04871 0
M  V30 530 H 53.8915 1.69454 -5.22088 0
M  V30 531 H 54.1525 2.47011 -3.66658 0
M  V30 532 N 53.2116 1.57565 -0.0334293 0
M  V30 533 C 54.1436 2.0739 0.975811 0
M  V30 534 C 55.1566 0.998166 1.2861 0
M  V30 535 O 56.3456 1.27426 1.25 0
M  V30 536 C 53.4456 2.4871 2.30209 0
M  V30 537 C 52.6186 3.79413 2.17634 0
M  V30 538 C 51.6776 4.07237 3.33233 0
M  V30 539 O 50.7036 4.77425 3.09927 0
M  V30 540 N 51.9056 3.5775 4.5716 0
M  V30 541 H 54.6706 2.94598 0.55066 0
M  V30 542 H 52.2316 1.61173 0.15323 0
M  V30 543 H 54.2236 2.64413 3.06378 0
M  V30 544 H 52.7936 1.66845 2.64351 0
M  V30 545 H 52.0136 3.73465 1.26165 0
M  V30 546 H 53.3016 4.65038 2.0644 0
M  V30 547 H 52.6996 3.00976 4.78989 0
M  V30 548 H 51.2566 3.78724 5.30482 0
M  V30 549 N 54.6897 -0.239769 1.55765 0
M  V30 550 C 55.6367 -1.29696 1.90913 0
M  V30 551 C 56.6067 -1.47478 0.764164 0
M  V30 552 O 57.7917 -1.61345 1.01845 0
M  V30 553 C 54.9317 -2.64598 2.21544 0
M  V30 554 C 54.0447 -2.54765 3.48882 0
M  V30 555 C 53.1797 -3.82069 3.69049 0
M  V30 556 C 52.2187 -3.66883 4.89963 0
M  V30 557 N 51.3557 -4.86094 5.06614 0
M  V30 558 H 56.1957 -0.990224 2.81067 0
M  V30 559 H 53.7327 -0.477684 1.39128 0
M  V30 560 H 55.6907 -3.43132 2.3731 0
M  V30 561 H 54.3207 -2.93405 1.34585 0
M  V30 562 H 53.3727 -1.67763 3.41409 0
M  V30 563 H 54.6847 -2.39457 4.37563 0
M  V30 564 H 53.8387 -4.69046 3.84812 0
M  V30 565 H 52.5777 -4.00282 2.78614 0
M  V30 566 H 51.5827 -2.78289 4.74168 0
M  V30 567 H 52.8077 -3.50157 5.81865 0
M  V30 568 H 50.7537 -5.04655 4.19117 0
M  V30 569 H 50.6707 -4.73443 5.89396 0
M  V30 570 H 51.9387 -5.74549 5.26795 0
M  V30 571 N 56.1678 -1.49265 -0.50573 0
M  V30 572 C 57.4138 -1.59723 -1.25937 0
M  V30 573 C 57.7688 -0.278236 -1.90378 0
M  V30 574 O 57.0618 0.72113 -1.77511 0
M  V30 575 C 57.2558 -2.69008 -2.35308 0
M  V30 576 C 57.0848 -4.11405 -1.81592 0
M  V30 577 C 55.8548 -4.78252 -1.63105 0
M  V30 578 C 58.0528 -4.96792 -1.33048 0
M  V30 579 N 56.0348 -6.0498 -1.04269 0
M  V30 580 C 57.4058 -6.13962 -0.863168 0
M  V30 581 C 59.4608 -4.82828 -1.21577 0
M  V30 582 C 58.1638 -7.18705 -0.292489 0
M  V30 583 C 60.1898 -5.87716 -0.65907 0
M  V30 584 C 59.5518 -7.0411 -0.201954 0
M  V30 585 H 55.6508 -0.638864 -0.450973 0
M  V30 586 H 58.2348 -1.86251 -0.567326 0
M  V30 587 H 56.4058 -2.4426 -3.01979 0
M  V30 588 H 58.1378 -2.69013 -3.02348 0
M  V30 589 H 54.8928 -4.34974 -1.87336 0
M  V30 590 H 55.3168 -6.72631 -0.767919 0
M  V30 591 H 59.9588 -3.93159 -1.55518 0
M  V30 592 H 57.6768 -8.08078 0.0591987 0
M  V30 593 H 61.2628 -5.7897 -0.573156 0
M  V30 594 H 60.1428 -7.83885 0.222101 0
M  V30 595 N 57.6459 0.756429 -1.3826 0
M  V30 596 C 59.0619 1.0591 -1.19395 0
M  V30 597 C 59.2619 2.01459 -0.0406567 0
M  V30 598 O 58.3179 2.44909 0.614467 0
M  V30 599 C 59.6309 1.64191 -2.51916 0
M  V30 600 C 61.1789 1.76376 -2.58574 0
M  V30 601 C 61.6539 2.38069 -3.91264 0
M  V30 602 N 63.1449 2.45503 -3.92788 0
M  V30 603 C 63.8799 2.94126 -4.92217 0
M  V30 604 N 63.3759 3.42805 -6.02043 0
M  V30 605 N 65.1689 2.9314 -4.7961 0
M  V30 606 H 57.3199 0.122313 -2.12048 0
M  V30 607 H 59.5829 0.116892 -0.940766 0
M  V30 608 H 59.2889 1.01451 -3.3675 0
M  V30 609 H 59.1629 2.6329 -2.70108 0
M  V30 610 H 61.5499 2.38244 -1.74137 0
M  V30 611 H 61.6309 0.759894 -2.44252 0
M  V30 612 H 61.2749 1.76835 -4.76121 0
M  V30 613 H 61.2049 3.39091 -4.02895 0
M  V30 614 H 63.6959 2.1107 -3.13461 0
M  V30 615 H 64.0089 3.78354 -6.73846 0
M  V30 616 H 62.3539 3.4087 -6.05667 0
M  V30 617 H 65.5449 2.54419 -3.92923 0
M  V30 618 H 65.7179 3.30721 -5.5725 0
M  V30 619 N 59.124 1.23083 0.984299 0
M  V30 620 C 60.034 1.02515 2.11016 0
M  V30 621 C 61.05 -0.0291702 1.73976 0
M  V30 622 O 62.226 0.165434 2.00719 0
M  V30 623 C 59.291 0.614673 3.41208 0
M  V30 624 C 58.352 1.74359 3.92297 0
M  V30 625 C 57.585 1.35261 5.16275 0
M  V30 626 O 57.808 0.235136 5.69915 0
M  V30 627 O 56.742 2.17227 5.61334 0
M  V30 628 H 60.568 1.96862 2.31255 0
M  V30 629 H 58.153 1.01753 1.09392 0
M  V30 630 H 60.035 0.396518 4.1953 0
M  V30 631 H 58.71 -0.299851 3.22308 0
M  V30 632 H 57.617 2.01635 3.1511 0
M  V30 633 H 58.95 2.63629 4.15645 0
M  V30 634 N 60.6021 -1.18246 1.0419 0
M  V30 635 C 61.8321 -1.91916 0.764961 0
M  V30 636 C 62.2401 -1.76485 -0.681898 0
M  V30 637 O 61.5831 -1.09275 -1.47664 0
M  V30 638 C 61.6451 -3.4373 1.05309 0
M  V30 639 C 61.3091 -3.8294 2.4941 0
M  V30 640 C 62.3061 -3.86621 3.47592 0
M  V30 641 C 59.9911 -4.142 2.84155 0
M  V30 642 C 61.9851 -4.21013 4.78568 0
M  V30 643 C 59.6721 -4.48262 4.15337 0
M  V30 644 C 60.6701 -4.51645 5.12353 0
M  V30 645 O 60.3581 -4.84911 6.41183 0
M  V30 646 H 60.0901 -0.61606 0.278292 0
M  V30 647 H 62.6441 -1.50947 1.39299 0
M  V30 648 H 60.8741 -3.84946 0.367933 0
M  V30 649 H 62.5631 -3.9865 0.763752 0
M  V30 650 H 63.3291 -3.62607 3.22089 0
M  V30 651 H 59.2081 -4.10743 2.09311 0
M  V30 652 H 62.7521 -4.23568 5.54289 0
M  V30 653 H 58.6491 -4.71737 4.40607 0
M  V30 654 H 59.4171 -5.02809 6.45852 0
M  V30 655 N 62.0802 -0.821533 -1.34494 0
M  V30 656 C 63.4962 -0.507117 -1.51329 0
M  V30 657 C 63.6962 0.968964 -1.76673 0
M  V30 658 O 62.7522 1.75348 -1.81685 0
M  V30 659 C 64.0652 -1.36544 -2.67911 0
M  V30 660 C 65.6132 -1.36242 -2.81793 0
M  V30 661 C 66.0882 -2.2052 -4.01416 0
M  V30 662 N 67.5792 -2.18136 -4.08621 0
M  V30 663 C 68.3142 -2.80095 -5.00334 0
M  V30 664 N 67.8102 -3.51039 -5.9728 0
M  V30 665 N 69.6032 -2.69656 -4.93196 0
M  V30 666 H 61.7542 -1.77729 -1.16302 0
M  V30 667 H 64.0172 -0.757291 -0.570276 0
M  V30 668 H 63.7232 -2.41361 -2.55808 0
M  V30 669 H 63.5972 -1.02917 -3.62888 0
M  V30 670 H 65.9842 -0.322041 -2.93338 0
M  V30 671 H 66.0652 -1.73866 -1.87628 0
M  V30 672 H 65.7092 -3.24607 -3.90631 0
M  V30 673 H 65.6392 -1.80247 -4.94791 0
M  V30 674 H 68.1302 -1.6653 -3.39229 0
M  V30 675 H 68.4432 -3.95565 -6.63889 0
M  V30 676 H 66.7882 -3.55145 -5.97409 0
M  V30 677 H 69.9792 -2.13808 -4.16418 0
M  V30 678 H 70.1522 -3.1823 -5.64476 0
M  V30 679 N 63.5583 1.46682 -0.576371 0
M  V30 680 C 64.9743 1.57822 -0.237562 0
M  V30 681 C 65.1743 1.57237 1.26011 0
M  V30 682 O 64.2303 1.48596 2.04146 0
M  V30 683 C 65.5433 2.87499 -0.881168 0
M  V30 684 C 67.0913 3.01119 -0.85417 0
M  V30 685 C 67.5663 4.33524 -1.4772 0
M  V30 686 N 69.0573 4.40207 -1.44125 0
M  V30 687 C 69.7923 5.4126 -1.89276 0
M  V30 688 N 69.2883 6.49021 -2.42371 0
M  V30 689 N 71.0813 5.32422 -1.80231 0
M  V30 690 H 63.2323 1.45306 -1.54919 0
M  V30 691 H 65.4953 0.692733 -0.647167 0
M  V30 692 H 65.2013 2.9372 -1.93447 0
M  V30 693 H 65.0753 3.75224 -0.385592 0
M  V30 694 H 67.4623 2.94485 0.190491 0
M  V30 695 H 67.5433 2.14887 -1.3877 0
M  V30 696 H 67.1873 4.40916 -2.52103 0
M  V30 697 H 67.1173 5.1852 -0.918947 0
M  V30 698 H 69.6083 3.62931 -1.05307 0
M  V30 699 H 69.9213 7.2233 -2.74698 0
M  V30 700 H 68.2663 6.49858 -2.46393 0
M  V30 701 H 71.4573 4.47137 -1.38514 0
M  V30 702 H 71.6303 6.11034 -2.15735 0
M  V30 703 N 65.0364 0.313813 1.54444 0
M  V30 704 C 65.9684 -0.590425 2.21465 0
M  V30 705 C 66.9814 -1.08753 1.21147 0
M  V30 706 O 68.1704 -1.00278 1.4767 0
M  V30 707 C 65.2704 -1.82179 2.85769 0
M  V30 708 C 64.4434 -1.46502 4.12136 0
M  V30 709 C 63.5024 -2.55288 4.60124 0
M  V30 710 O 62.5284 -2.19842 5.25032 0
M  V30 711 N 63.7304 -3.86053 4.33525 0
M  V30 712 H 66.4954 -0.0166033 2.99695 0
M  V30 713 H 64.0564 0.136578 1.61323 0
M  V30 714 H 66.0484 -2.54328 3.14801 0
M  V30 715 H 64.6184 -2.30369 2.11303 0
M  V30 716 H 63.8384 -0.575595 3.89975 0
M  V30 717 H 65.1264 -1.20221 4.94393 0
M  V30 718 H 64.5244 -4.17654 3.81552 0
M  V30 719 H 63.0814 -4.54461 4.67235 0
M  V30 720 N 66.5145 -1.57545 0.0417849 0
M  V30 721 C 67.7545 -1.94185 -0.63809 0
M  V30 722 C 68.1185 -0.919339 -1.68559 0
M  V30 723 O 69.3195 -1.17236 -2.41886 0
M  V30 724 C 67.5905 -3.35672 -1.22714 0
M  V30 725 S 69.1495 -3.94256 -1.92633 0
M  V30 726 H 65.9675 -0.679353 -0.209764 0
M  V30 727 H 68.5695 -1.95199 0.108479 0
M  V30 728 H 67.2735 -4.07898 -0.452503 0
M  V30 729 H 66.8045 -3.38132 -2.01073 0
M  V30 730 H 68.8195 -3.7872 -3.20602 0
M  V30 731 N 67.9926 0.231505 -1.5589 0
M  V30 732 C 68.9246 1.31006 -1.8807 0
M  V30 733 C 69.9376 1.43539 -0.768145 0
M  V30 734 O 71.1266 1.44614 -1.04638 0
M  V30 735 C 68.2266 2.68688 -2.06543 0
M  V30 736 C 67.3996 2.78228 -3.37502 0
M  V30 737 C 66.4586 3.96857 -3.4553 0
M  V30 738 O 65.4846 3.85662 -4.18633 0
M  V30 739 N 66.6866 5.1072 -2.75944 0
M  V30 740 H 69.4516 1.03731 -2.81176 0
M  V30 741 H 67.0126 0.421573 -1.56315 0
M  V30 742 H 69.0046 3.46412 -2.09239 0
M  V30 743 H 67.5746 2.88605 -1.20109 0
M  V30 744 H 66.7946 1.87059 -3.46991 0
M  V30 745 H 68.0826 2.81564 -4.23791 0
M  V30 746 H 67.4806 5.2271 -2.16311 0
M  V30 747 H 66.0376 5.86523 -2.84314 0
M  V30 748 N 69.4707 1.49531 0.497807 0
M  V30 749 C 70.8867 1.36365 0.829266 0
M  V30 750 C 71.0867 0.399184 1.97506 0
M  V30 751 O 70.1427 -0.167977 2.51941 0
M  V30 752 C 71.4557 2.77153 1.16647 0
M  V30 753 C 73.0037 2.85877 1.27449 0
M  V30 754 C 73.4787 4.2744 1.64497 0
M  V30 755 N 74.9697 4.30265 1.7154 0
M  V30 756 C 75.7047 5.3677 2.01656 0
M  V30 757 N 75.2007 6.53516 2.29976 0
M  V30 758 N 76.9937 5.24189 2.02934 0
M  V30 759 H 69.1447 2.10831 -0.257703 0
M  V30 760 H 71.4077 0.946534 -0.0527091 0
M  V30 761 H 71.1137 3.49442 0.397872 0
M  V30 762 H 70.9877 3.12722 2.10915 0
M  V30 763 H 73.3747 2.13824 2.0338 0
M  V30 764 H 73.4557 2.53887 0.312244 0
M  V30 765 H 73.0997 5.00021 0.891151 0
M  V30 766 H 73.0297 4.56896 2.61827 0
M  V30 767 H 75.5207 3.4607 1.51802 0
M  V30 768 H 75.8337 7.30506 2.52153 0
M  V30 769 H 74.1787 6.56737 2.27425 0
M  V30 770 H 77.3697 4.31988 1.80289 0
M  V30 771 H 77.5427 6.07286 2.26071 0
M  V30 772 N 70.9488 -0.749086 1.3866 0
M  V30 773 C 72.1738 -1.54344 1.38538 0
M  V30 774 C 72.5988 -1.88088 -0.0216655 0
M  V30 775 O 71.9568 -1.50899 -1.00494 0
M  V30 776 C 72.0048 -2.8164 2.25192 0
M  V30 777 O 71.1088 -3.7698 1.67212 0
M  V30 778 H 70.4498 -0.466654 0.472367 0
M  V30 779 H 72.9798 -0.925355 1.82478 0
M  V30 780 H 72.9898 -3.30519 2.3921 0
M  V30 781 H 71.6648 -2.56411 3.27454 0
M  V30 782 H 70.2418 -3.35699 1.6236 0
M  V30 783 N 72.4269 -1.23603 -0.977757 0
M  V30 784 C 73.3569 -1.04401 -2.0886 0
M  V30 785 C 74.3379 0.0399052 -1.70053 0
M  V30 786 O 75.5229 -0.125246 -1.93796 0
M  V30 787 C 72.6529 -0.637269 -3.41403 0
M  V30 788 C 71.6069 -1.66883 -3.94124 0
M  V30 789 C 70.9329 -1.11745 -5.22893 0
M  V30 790 C 72.2329 -3.06247 -4.23096 0
M  V30 791 H 73.9269 -1.97316 -2.25182 0
M  V30 792 H 71.4729 -0.950096 -1.08209 0
M  V30 793 H 73.4259 -0.48998 -4.18542 0
M  V30 794 H 72.1499 0.327557 -3.24953 0
M  V30 795 H 70.8089 -1.80416 -3.19133 0
M  V30 796 H 70.4569 -0.143527 -5.02795 0
M  V30 797 H 70.1569 -1.80672 -5.59134 0
M  V30 798 H 71.6809 -0.982067 -6.02651 0
M  V30 799 H 73.0949 -2.96001 -4.90975 0
M  V30 800 H 71.4919 -3.72436 -4.70544 0
M  V30 801 H 72.5619 -3.55041 -3.30263 0
M  V30 802 N 73.905 1.17692 -1.04816 0
M  V30 803 C 75.133 1.91786 -0.776254 0
M  V30 804 C 75.548 1.76604 0.667577 0
M  V30 805 O 74.905 1.10067 1.45573 0
M  V30 806 C 74.956 3.42967 -1.14263 0
M  V30 807 O 74.677 3.57678 -2.52978 0
M  V30 808 C 76.178 4.34144 -0.896311 0
M  V30 809 H 73.398 0.608624 -0.282519 0
M  V30 810 H 75.942 1.49268 -1.39783 0
M  V30 811 H 74.097 3.83245 -0.565874 0
M  V30 812 H 74.511 4.51319 -2.67229 0
M  V30 813 H 75.985 5.38744 -1.20244 0
M  V30 814 H 76.462 4.38876 0.168636 0
M  V30 815 H 77.068 3.99574 -1.45672 0
M  V30 816 N 75.3831 0.828654 1.34056 0
M  V30 817 C 76.2931 0.256725 2.33191 0
M  V30 818 C 77.3091 -0.611898 1.62886 0
M  V30 819 O 78.4851 -0.51844 1.94613 0
M  V30 820 C 75.5501 -0.567238 3.42028 0
M  V30 821 C 74.6111 0.324458 4.28072 0
M  V30 822 C 73.8441 -0.460274 5.31712 0
M  V30 823 O 74.0671 -1.693 5.44696 0
M  V30 824 O 73.0011 0.160391 6.01686 0
M  V30 825 H 76.8271 1.07739 2.83947 0
M  V30 826 H 74.4121 0.59093 1.37217 0
M  V30 827 H 76.2941 -1.03582 4.08471 0
M  V30 828 H 74.9691 -1.36513 2.93506 0
M  V30 829 H 73.8761 0.840659 3.64532 0
M  V30 830 H 75.2091 1.08685 4.8005 0
M  V30 831 N 76.8612 -1.46375 0.584142 0
M  V30 832 C 78.1382 -1.956 0.0033388 0
M  V30 833 C 78.5182 -1.52679 -1.45782 0
M  V30 834 O 77.8662 -0.77816 -2.14842 0
M  V30 835 C 78.0762 -3.48551 0.176891 0
M  V30 836 C 79.4242 -4.24576 0.0454609 0
M  V30 837 O 80.4482 -3.56043 0.105801 0
M  V30 838 O 79.3072 -5.46427 -0.0890376 0
M  V30 839 H 76.4012 -0.825547 -0.0490066 0
M  V30 840 H 78.9472 -1.56652 0.65256 0
M  V30 841 H 77.7192 -3.72683 1.1926 0
M  V30 842 H 77.3422 -3.94332 -0.508695 0
M  V30 843 N 78.3393 -0.321999 -1.54275 0
M  V30 844 C 79.7503 0.166384 -1.85957 0
M  V30 845 C 80.1013 1.51747 -1.24367 0
M  V30 846 O 79.2263 2.09317 -0.549124 0
M  V30 847 C 79.8213 0.308681 -3.37391 0
M  V30 848 C 78.3803 0.741286 -3.69028 0
M  V30 849 C 77.5273 -0.137937 -2.76957 0
M  V30 850 H 80.4783 -0.542335 -1.49146 0
M  V30 851 H 80.4993 1.13984 -3.63026 0
M  V30 852 H 80.0113 -0.674809 -3.82188 0
M  V30 853 H 78.1123 1.73458 -3.29762 0
M  V30 854 H 78.2253 0.546118 -4.75977 0
M  V30 855 H 76.5893 0.386251 -2.51754 0
M  V30 856 H 77.3723 -1.11816 -3.2458 0
M  V30 857 N 79.8174 1.5752 -0.0501392 0
M  V30 858 C 81.2284 1.80271 0.485705 0
M  V30 859 C 81.5794 0.96228 1.70981 0
M  V30 860 O 80.7044 0.178578 2.15662 0
M  V30 861 C 81.2994 3.26957 0.887938 0
M  V30 862 C 79.8584 3.5063 1.36877 0
M  V30 863 C 79.0054 2.75165 0.343468 0
M  V30 864 H 81.9564 1.56281 -0.276028 0
M  V30 865 H 81.9774 3.37821 1.75093 0
M  V30 866 H 81.4894 3.881 -0.0031809 0
M  V30 867 H 79.5904 2.94766 2.27911 0
M  V30 868 H 79.7034 4.59343 1.36164 0
M  V30 869 H 78.0674 2.4127 0.816128 0
M  V30 870 H 78.8504 3.39034 -0.539548 0
M  V30 871 N 81.2955 -0.223234 1.56011 0
M  V30 872 C 82.7065 -0.790368 1.69145 0
M  V30 873 C 83.0575 -1.85055 0.651845 0
M  V30 874 O 82.1825 -2.15498 -0.197359 0
M  V30 875 C 82.7775 -1.4404 3.06656 0
M  V30 876 C 81.3365 -1.95494 3.2165 0
M  V30 877 C 80.4835 -0.814506 2.65068 0
M  V30 878 H 83.4345 0.00139011 1.587 0
M  V30 879 H 83.4555 -2.30916 3.0242 0
M  V30 880 H 82.9675 -0.668543 3.82298 0
M  V30 881 H 81.0685 -2.75487 2.50874 0
M  V30 882 H 81.1815 -2.13607 4.28846 0
M  V30 883 H 79.5455 -1.22137 2.23505 0
M  V30 884 H 80.3285 -0.0553515 3.43255 0
M  V30 885 N 82.7736 -1.49793 -0.48987 0
M  V30 886 C 83.7366 -1.66752 -1.57246 0
M  V30 887 C 84.7366 -0.538867 -1.51502 0
M  V30 888 O 85.9266 -0.805545 -1.54456 0
M  V30 889 C 83.0586 -1.67528 -2.96896 0
M  V30 890 H 84.2516 -2.63321 -1.43534 0
M  V30 891 H 81.8046 -1.38992 -0.714914 0
M  V30 892 H 82.5396 -0.725837 -3.16073 0
M  V30 893 H 82.3246 -2.49504 -3.02473 0
M  V30 894 H 83.8146 -1.82667 -3.7553 0
M  V30 895 N 84.2517 0.741722 -1.39055 0
M  V30 896 C 85.4797 1.53098 -1.39171 0
M  V30 897 C 85.8947 1.88794 0.0155099 0
M  V30 898 O 85.2517 1.53626 0.985159 0
M  V30 899 C 85.3027 2.82274 -2.2584 0
M  V30 900 O 85.0237 2.48097 -3.61081 0
M  V30 901 C 86.5247 3.76343 -2.34266 0
M  V30 902 H 83.7447 0.473335 -0.4756 0
M  V30 903 H 86.2887 0.917045 -1.82785 0
M  V30 904 H 84.4437 3.40015 -1.85656 0
M  V30 905 H 84.8577 3.31029 -4.06842 0
M  V30 906 H 86.3317 4.63898 -2.9917 0
M  V30 907 H 86.8087 4.17619 -1.35982 0
M  V30 908 H 87.4147 3.24523 -2.74891 0
M  V30 909 N 85.7298 1.2412 0.971189 0
M  V30 910 C 87.0068 0.986867 1.6888 0
M  V30 911 C 87.3868 -0.491857 2.0529 0
M  V30 912 O 86.7348 -1.46531 1.75331 0
M  V30 913 C 86.9448 1.9063 2.92338 0
M  V30 914 C 88.2928 2.17515 3.64654 0
M  V30 915 O 89.3168 1.88254 3.02388 0
M  V30 916 O 88.1758 2.6719 4.7673 0
M  V30 917 H 85.2698 0.372944 0.738134 0
M  V30 918 H 87.8158 1.35203 1.02559 0
M  V30 919 H 86.5878 2.90552 2.62097 0
M  V30 920 H 86.2108 1.54408 3.66393 0
M  V30 921 N 87.2079 -1.17134 1.05439 0
M  V30 922 C 88.1379 -2.2342 0.678649 0
M  V30 923 C 89.1189 -1.66971 -0.32476 0
M  V30 924 O 90.3039 -1.93149 -0.201802 0
M  V30 925 C 87.4339 -3.47256 0.0552099 0
M  V30 926 C 86.3879 -4.16543 0.98365 0
M  V30 927 C 85.7139 -5.34231 0.223961 0
M  V30 928 C 87.0139 -4.68495 2.3089 0
M  V30 929 H 88.7079 -2.55105 1.56722 0
M  V30 930 H 86.2539 -1.2262 0.754998 0
M  V30 931 H 88.2069 -4.20828 -0.21946 0
M  V30 932 H 86.9309 -3.14846 -0.868319 0
M  V30 933 H 85.5899 -3.44887 1.24293 0
M  V30 934 H 85.2379 -4.98071 -0.702412 0
M  V30 935 H 84.9379 -5.81527 0.842627 0
M  V30 936 H 86.4619 -6.10585 -0.0433671 0
M  V30 937 H 87.8759 -5.33691 2.09396 0
M  V30 938 H 86.2729 -5.26379 2.88176 0
M  V30 939 H 87.3429 -3.85169 2.94572 0
M  V30 940 N 88.686 -0.835752 -1.33615 0
M  V30 941 C 89.933 -0.429959 -1.97883 0
M  V30 942 C 90.261 1.01006 -1.66217 0
M  V30 943 O 89.516 1.72047 -0.93265 0
M  V30 944 C 89.815 -0.593925 -3.52431 0
M  V30 945 C 89.481 -2.00158 -4.04039 0
M  V30 946 C 88.143 -2.38662 -4.17844 0
M  V30 947 C 90.495 -2.92117 -4.31644 0
M  V30 948 C 87.823 -3.68435 -4.56588 0
M  V30 949 C 90.175 -4.21368 -4.71838 0
M  V30 950 C 88.839 -4.59833 -4.83849 0
M  V30 951 H 88.109 -0.157333 -0.724104 0
M  V30 952 H 90.756 -1.06217 -1.59343 0
M  V30 953 H 89.061 0.121619 -3.91611 0
M  V30 954 H 90.758 -0.260282 -4.00154 0
M  V30 955 H 87.348 -1.69252 -3.93766 0
M  V30 956 H 91.532 -2.63608 -4.20505 0
M  V30 957 H 86.788 -3.98046 -4.64079 0
M  V30 958 H 90.962 -4.92703 -4.92155 0
M  V30 959 H 88.589 -5.60438 -5.13627 0
M  V30 960 N 90.1641 1.46063 -0.591896 0
M  V30 961 C 91.4041 2.04228 -0.0838014 0
M  V30 962 C 91.7681 1.45231 1.25587 0
M  V30 963 O 92.9691 1.94653 1.85375 0
M  V30 964 C 91.2401 3.57389 -0.0286282 0
M  V30 965 S 92.7991 4.3678 0.420557 0
M  V30 966 H 89.6171 0.709762 -0.0419319 0
M  V30 967 H 92.2191 1.78983 -0.786465 0
M  V30 968 H 90.9231 3.97843 -1.00743 0
M  V30 969 H 90.4541 3.87185 0.69652 0
M  V30 970 H 92.4691 4.67131 1.67341 0
M  V30 971 N 91.6422 0.330177 1.54103 0
M  V30 972 C 92.5902 -0.548226 2.26047 0
M  V30 973 C 93.5842 -1.11309 1.27698 0
M  V30 974 O 94.7902 -1.06036 1.45452 0
M  V30 975 H 91.1652 -0.195456 0.726155 0
M  V30 976 H 93.1362 0.0807567 2.98291 0
M  V30 977 C 91.8852 -1.69415 3.03634 0
M  V30 978 H 91.2082 -1.26876 3.79134 0
M  V30 979 H 92.6482 -2.28423 3.5721 0
M  V30 980 C 91.1072 -2.61569 2.12328 0
M  V30 981 O 91.6372 -3.63462 1.7105 0
M  V30 982 N 89.8432 -2.29952 1.77681 0
M  V30 983 H 89.3902 -1.47134 2.11446 0
M  V30 984 H 89.3482 -2.91871 1.16869 0
M  V30 985 N 93.1203 -1.57491 0.0584922 0
M  V30 986 C 94.5363 -1.56792 -0.298091 0
M  V30 987 C 94.7363 -1.06679 -1.70944 0
M  V30 988 O 93.7923 -0.726672 -2.41818 0
M  V30 989 C 95.1053 -3.00461 -0.119879 0
M  V30 990 C 96.6533 -3.1242 -0.190428 0
M  V30 991 C 97.1283 -4.57982 -0.0406567 0
M  V30 992 N 98.6193 -4.63099 -0.0966958 0
M  V30 993 C 99.3543 -5.734 -0.00502943 0
M  V30 994 N 98.8503 -6.9266 0.139402 0
M  V30 995 N 100.643 -5.62067 -0.0611391 0
M  V30 996 H 92.7943 -1.88386 0.98105 0
M  V30 997 H 95.0573 -0.867865 0.381463 0
M  V30 998 H 94.7633 -3.41187 0.85349 0
M  V30 999 H 94.6373 -3.66843 -0.877833 0
M  V30 1000 H 97.0243 -2.71589 -1.15427 0
M  V30 1001 H 97.1053 -2.48702 0.598405 0
M  V30 1002 H 96.7493 -4.995 0.919897 0
M  V30 1003 H 96.6793 -5.19715 -0.848727 0
M  V30 1004 H 99.1703 -3.77331 -0.207277 0
M  V30 1005 H 99.4833 -7.72536 0.201855 0
M  V30 1006 H 97.8283 -6.94781 0.174586 0
M  V30 1007 H 101.019 -4.67782 -0.172583 0
M  V30 1008 H 101.192 -6.47999 0.0137562 0
M  V30 1009 N 94.5984 0.214957 -1.56127 0
M  V30 1010 C 95.8264 0.955092 -1.83536 0
M  V30 1011 C 96.2414 1.77677 -0.638472 0
M  V30 1012 O 95.5984 1.78219 0.392968 0
M  V30 1013 C 95.6494 1.86734 -3.09536 0
M  V30 1014 O 95.3704 1.07887 -4.24608 0
M  V30 1015 C 96.8714 2.72082 -3.4998 0
M  V30 1016 H 94.0914 0.279611 -0.609966 0
M  V30 1017 H 96.6354 0.228197 -2.03223 0
M  V30 1018 H 94.7904 2.5481 -2.91806 0
M  V30 1019 H 95.2044 1.69872 -4.9623 0
M  V30 1020 H 96.6784 3.31782 -4.41163 0
M  V30 1021 H 97.1554 3.44806 -2.7204 0
M  V30 1022 H 97.7614 2.09409 -3.70173 0
M  V30 1023 N 96.0765 1.50051 0.48192 0
M  V30 1024 C 97.3235 1.60498 1.23477 0
M  V30 1025 C 97.6515 0.300331 1.92167 0
M  V30 1026 O 96.9065 -0.713094 1.82246 0
M  V30 1027 C 97.2055 2.72717 2.30998 0
M  V30 1028 C 96.8715 4.13572 1.79636 0
M  V30 1029 C 95.5335 4.519 1.65348 0
M  V30 1030 C 97.8855 5.01649 1.41412 0
M  V30 1031 C 95.2135 5.76057 1.11244 0
M  V30 1032 C 97.5655 6.26343 0.887538 0
M  V30 1033 C 96.2295 6.63483 0.731207 0
M  V30 1034 H 95.4995 0.587303 0.451836 0
M  V30 1035 H 98.1465 1.83948 0.532468 0
M  V30 1036 H 96.4515 2.43312 3.07094 0
M  V30 1037 H 98.1485 2.78006 2.88988 0
M  V30 1038 H 94.7385 3.83329 1.91721 0
M  V30 1039 H 98.9225 4.72679 1.51289 0
M  V30 1040 H 94.1785 6.03516 0.978686 0
M  V30 1041 H 98.3525 6.93958 0.582654 0
M  V30 1042 H 95.9795 7.59568 0.309806 0
M  V30 1043 N 97.5546 -0.734337 1.39446 0
M  V30 1044 C 98.8316 -1.48579 1.27215 0
M  V30 1045 C 99.2116 -2.1077 -0.117968 0
M  V30 1046 O 98.5596 -1.98646 -1.12924 0
M  V30 1047 C 98.7696 -2.53667 2.39696 0
M  V30 1048 C 100.118 -3.20031 2.79044 0
M  V30 1049 O 101.142 -2.6398 2.39151 0
M  V30 1050 O 100.001 -4.21455 3.47905 0
M  V30 1051 H 97.0946 -0.659816 0.49857 0
M  V30 1052 H 99.6406 -0.768106 1.51322 0
M  V30 1053 H 98.4126 -2.06096 3.32626 0
M  V30 1054 H 98.0356 -3.32994 2.17258 0
M  V30 1055 N 99.0327 -1.24633 -0.964593 0
M  V30 1056 C 99.9427 -1.05859 -2.09359 0
M  V30 1057 C 100.959 0.00148855 -1.74 0
M  V30 1058 O 102.135 -0.197346 -2.00431 0
M  V30 1059 C 99.1997 -0.668879 -3.40187 0
M  V30 1060 C 98.2607 -1.80578 -3.89474 0
M  V30 1061 C 97.4937 -1.43457 -5.14058 0
M  V30 1062 O 97.7167 -0.325775 -5.69469 0
M  V30 1063 O 96.6507 -2.2613 -5.57807 0
M  V30 1064 H 100.477 -2.00516 -2.28094 0
M  V30 1065 H 98.0617 -1.03481 -1.0776 0
M  V30 1066 H 99.9437 -0.463211 -4.18846 0
M  V30 1067 H 98.6187 0.248536 -3.22744 0
M  V30 1068 H 97.5257 -2.06623 -3.11862 0
M  V30 1069 H 98.8587 -2.70208 -4.11398 0
M  V30 1070 N 100.511 1.16574 -1.06058 0
M  V30 1071 C 101.741 1.90675 -0.795397 0
M  V30 1072 C 102.149 1.77547 0.653735 0
M  V30 1073 O 101.492 1.11611 1.45907 0
M  V30 1074 C 101.554 3.42011 -1.10764 0
M  V30 1075 C 101.218 3.78924 -2.55471 0
M  V30 1076 C 102.215 3.81042 -3.53699 0
M  V30 1077 C 99.8998 4.09626 -2.90708 0
M  V30 1078 C 101.894 4.13346 -4.85205 0
M  V30 1079 C 99.5808 4.41597 -4.22416 0
M  V30 1080 C 100.579 4.43436 -5.19474 0
M  V30 1081 O 100.267 4.74649 -6.48817 0
M  V30 1082 H 99.9988 0.611554 -0.288058 0
M  V30 1083 H 102.553 1.48711 -1.41683 0
M  V30 1084 H 100.783 3.84312 -0.429128 0
M  V30 1085 H 102.472 3.97384 -0.827077 0
M  V30 1086 H 103.238 3.57437 -3.27817 0
M  V30 1087 H 99.1168 4.07361 -2.15819 0
M  V30 1088 H 102.661 4.14696 -5.60957 0
M  V30 1089 H 98.5578 4.64667 -4.48056 0
M  V30 1090 H 99.3258 4.9247 -6.5377 0
M  V30 1091 N 101.989 0.842826 1.3317 0
M  V30 1092 C 102.952 0.284065 2.27433 0
M  V30 1093 C 103.952 -0.54948 1.5112 0
M  V30 1094 O 105.142 -0.362699 1.70382 0
M  V30 1095 C 102.274 -0.599384 3.35589 0
M  V30 1096 H 103.467 1.11589 2.78366 0
M  V30 1097 H 101.02 0.616221 1.4364 0
M  V30 1098 H 101.755 -1.45349 2.89904 0
M  V30 1099 H 101.54 -0.00291266 3.921 0
M  V30 1100 H 103.03 -0.983488 4.05854 0
M  V30 1101 N 103.467 -1.45747 0.599634 0
M  V30 1102 C 104.707 -2.04181 0.0946309 0
M  V30 1103 C 105.071 -1.45895 -1.24815 0
M  V30 1104 O 106.272 -1.95633 -1.8434 0
M  V30 1105 C 104.543 -3.57368 0.047581 0
M  V30 1106 S 106.102 -4.36997 -0.397387 0
M  V30 1107 H 102.92 -0.70953 0.0456954 0
M  V30 1108 H 105.522 -1.78564 0.795946 0
M  V30 1109 H 104.226 -3.97303 1.02852 0
M  V30 1110 H 103.757 -3.87549 -0.675977 0
M  V30 1111 H 105.772 -4.68012 -1.64862 0
M  V30 1112 N 104.945 -0.338344 -1.53925 0
M  V30 1113 C 106.191 0.252842 -2.01822 0
M  V30 1114 C 106.546 1.48612 -1.22197 0
M  V30 1115 O 105.839 1.89238 -0.299892 0
M  V30 1116 C 106.033 0.62448 -3.51902 0
M  V30 1117 C 105.862 -0.571235 -4.46057 0
M  V30 1118 C 104.632 -1.07493 -4.93734 0
M  V30 1119 C 106.83 -1.42807 -4.94076 0
M  V30 1120 N 104.812 -2.23351 -5.71828 0
M  V30 1121 C 106.183 -2.43362 -5.70241 0
M  V30 1122 C 108.238 -1.45412 -4.76193 0
M  V30 1123 C 106.941 -3.46346 -6.30426 0
M  V30 1124 C 108.967 -2.47274 -5.37224 0
M  V30 1125 C 108.329 -3.46555 -6.13253 0
M  V30 1126 H 104.428 0.0559669 -0.779995 0
M  V30 1127 H 107.012 -0.476732 -1.88773 0
M  V30 1128 H 105.183 1.32317 -3.65167 0
M  V30 1129 H 106.915 1.19841 -3.86549 0
M  V30 1130 H 103.67 -0.643848 -4.69203 0
M  V30 1131 H 104.094 -2.81834 -6.15548 0
M  V30 1132 H 108.736 -0.700171 -4.16962 0
M  V30 1133 H 106.454 -4.22638 -6.88769 0
M  V30 1134 H 110.04 -2.50109 -5.25297 0
M  V30 1135 H 108.92 -4.24083 -6.59638 0
M  V30 1136 N 106.423 1.57458 -0.0668435 0
M  V30 1137 C 107.834 1.80776 0.466558 0
M  V30 1138 C 108.185 0.980361 1.69951 0
M  V30 1139 O 107.31 0.201441 2.1546 0
M  V30 1140 C 107.905 3.27881 0.85321 0
M  V30 1141 C 106.464 3.52062 1.3315 0
M  V30 1142 C 105.611 2.75513 0.314264 0
M  V30 1143 H 108.562 1.5598 -0.292588 0
M  V30 1144 H 108.583 3.39659 1.715 0
M  V30 1145 H 108.095 3.88075 -0.0443439 0
M  V30 1146 H 106.196 2.97167 2.24772 0
M  V30 1147 H 106.309 4.60762 1.31285 0
M  V30 1148 H 104.673 2.42123 0.790492 0
M  V30 1149 H 105.456 3.38442 -0.575477 0
M  V30 1150 N 107.901 -0.206675 1.56239 0
M  V30 1151 C 109.178 -0.954051 1.70755 0
M  V30 1152 C 109.558 -2.01841 0.618353 0
M  V30 1153 O 108.906 -2.25444 -0.372434 0
M  V30 1154 C 109.116 -1.551 3.12642 0
M  V30 1155 C 110.464 -2.03757 3.72516 0
M  V30 1156 O 111.488 -1.64965 3.15698 0
M  V30 1157 O 110.347 -2.75103 4.72208 0
M  V30 1158 H 107.441 -0.446636 0.696021 0
M  V30 1159 H 109.987 -0.197283 1.68549 0
M  V30 1160 H 108.759 -0.783212 3.83382 0
M  V30 1161 H 108.382 -2.37291 3.19028 0
M  V30 1162 N 109.379 -1.50304 -0.473955 0
M  V30 1163 C 110.627 -1.60832 -1.22382 0
M  V30 1164 C 110.948 -0.30939 -1.9253 0
M  V30 1165 O 110.218 0.67296 -1.83978 0
M  V30 1166 H 108.798 -0.592652 -0.454723 0
M  V30 1167 H 111.46 -1.87068 -0.546968 0
M  V30 1168 H 110.556 -2.41803 -1.97327 0
M  V30 1169 N 110.857 0.726932 -1.39834 0
M  V30 1170 C 111.767 1.87131 -1.41489 0
M  V30 1171 C 112.783 1.71239 -0.308757 0
M  V30 1172 O 113.959 1.93701 -0.551529 0
M  V30 1173 C 111.024 3.22811 -1.26468 0
M  V30 1174 C 110.085 3.51039 -2.47124 0
M  V30 1175 C 109.318 4.80245 -2.3281 0
M  V30 1176 O 109.541 5.54537 -1.33585 0
M  V30 1177 O 108.475 5.08554 -3.21957 0
M  V30 1178 H 112.301 1.8869 -2.3797 0
M  V30 1179 H 109.886 0.875837 -1.21035 0
M  V30 1180 H 111.768 4.03877 -1.20255 0
M  V30 1181 H 110.443 3.22005 -0.330862 0
M  V30 1182 H 109.35 2.70027 -2.58914 0
M  V30 1183 H 110.683 3.56632 -3.39227 0
M  V30 1184 N 112.336 1.25143 0.95797 0
M  V30 1185 C 113.747 1.08851 1.51685 0
M  V30 1186 C 114.098 -0.33687 1.93286 0
M  V30 1187 O 113.223 -1.22644 1.7829 0
M  V30 1188 C 113.818 1.96978 2.75654 0
M  V30 1189 C 112.377 1.84881 3.27866 0
M  V30 1190 C 111.524 1.91329 2.0072 0
M  V30 1191 H 114.475 1.38478 0.77522 0
M  V30 1192 H 114.496 1.5078 3.4935 0
M  V30 1193 H 114.008 3.00712 2.45345 0
M  V30 1194 H 112.109 0.840182 3.63004 0
M  V30 1195 H 112.222 2.6951 3.96107 0
M  V30 1196 H 110.586 1.35174 2.15871 0
M  V30 1197 H 111.369 2.96661 1.72764 0
M  V30 1198 N 113.814 -1.1601 1.06675 0
M  V30 1199 C 115.062 -1.86264 0.784229 0
M  V30 1200 C 115.383 -1.82328 -0.691488 0
M  V30 1201 O 114.653 -1.25947 -1.50047 0
M  V30 1202 H 113.233 -0.689621 0.28711 0
M  V30 1203 H 115.895 -1.40664 1.34906 0
M  V30 1204 H 114.991 -2.91595 1.11259 0
M  V30 1205 N 115.292 -0.849877 -1.32721 0
M  V30 1206 C 116.517 -0.463856 -2.02146 0
M  V30 1207 C 116.942 0.930449 -1.63476 0
M  V30 1208 O 116.3 1.61033 -0.832952 0
M  V30 1209 C 116.348 -0.604955 -3.55489 0
M  V30 1210 O 115.452 0.36425 -4.10788 0
M  V30 1211 H 114.793 -0.187046 -0.637111 0
M  V30 1212 H 117.323 -1.14775 -1.69375 0
M  V30 1213 H 117.333 -0.490696 -4.05038 0
M  V30 1214 H 116.008 -1.62174 -3.82978 0
M  V30 1215 H 114.585 0.206628 -3.72327 0
M  V30 1216 N 116.77 1.45427 -0.607355 0
M  V30 1217 C 118.017 2.02241 -0.102455 0
M  V30 1218 C 118.345 1.4758 1.26691 0
M  V30 1219 O 117.6 0.640468 1.84923 0
M  V30 1220 C 117.899 3.57398 -0.0129263 0
M  V30 1221 C 117.565 4.3121 -1.31792 0
M  V30 1222 C 116.227 4.51092 -1.67539 0
M  V30 1223 C 118.579 4.73401 -2.18039 0
M  V30 1224 C 115.907 5.10422 -2.89285 0
M  V30 1225 C 118.259 5.34078 -3.39034 0
M  V30 1226 C 116.923 5.52184 -3.75033 0
M  V30 1227 H 116.193 0.740051 -0.037491 0
M  V30 1228 H 118.84 1.74494 -0.788926 0
M  V30 1229 H 117.145 3.84421 0.756806 0
M  V30 1230 H 118.842 3.99061 0.393881 0
M  V30 1231 H 115.432 4.16047 -1.02968 0
M  V30 1232 H 119.616 4.57774 -1.91721 0
M  V30 1233 H 114.872 5.22629 -3.17283 0
M  V30 1234 H 119.046 5.65724 -4.06115 0
M  V30 1235 H 116.673 5.97925 -4.69457 0
M  V30 1236 N 118.248 0.346503 1.53744 0
M  V30 1237 C 119.494 -0.249473 2.0126 0
M  V30 1238 C 119.827 -1.49965 1.23386 0
M  V30 1239 O 119.102 -1.91811 0.32229 0
M  V30 1240 C 119.385 -0.560643 3.55709 0
M  V30 1241 C 119.238 0.701836 4.44291 0
M  V30 1242 C 120.557 -1.36905 4.18264 0
M  V30 1243 H 117.676 -0.0891987 0.731582 0
M  V30 1244 H 120.318 0.467624 1.84156 0
M  V30 1245 H 118.468 -1.17156 3.70414 0
M  V30 1246 H 120.14 1.33974 4.41417 0
M  V30 1247 H 118.383 1.32612 4.13033 0
M  V30 1248 H 119.054 0.43933 5.50249 0
M  V30 1249 H 121.53 -0.852448 4.07275 0
M  V30 1250 H 120.406 -1.55553 5.26398 0
M  V30 1251 H 120.667 -2.37203 3.73078 0
M  V30 1252 N 119.726 -1.57421 0.075193 0
M  V30 1253 C 120.674 -2.14124 -0.908508 0
M  V30 1254 C 121.668 -1.07898 -1.30592 0
M  V30 1255 O 122.874 -1.26273 -1.28277 0
M  V30 1256 H 119.249 -0.684707 -0.310935 0
M  V30 1257 H 121.22 -2.95634 -0.405374 0
M  V30 1258 C 119.969 -2.72044 -2.16535 0
M  V30 1259 H 119.292 -3.53456 -1.86839 0
M  V30 1260 H 120.732 -3.15311 -2.83469 0
M  V30 1261 C 119.191 -1.66968 -2.92615 0
M  V30 1262 O 119.721 -1.0967 -3.86439 0
M  V30 1263 N 117.927 -1.37923 -2.55784 0
M  V30 1264 H 117.474 -1.84706 -1.79559 0
M  V30 1265 H 117.432 -0.67852 -3.06991 0
M  V30 1266 N 121.204 0.198386 -1.56346 0
M  V30 1267 C 122.45 0.920648 -1.80698 0
M  V30 1268 C 122.783 1.83045 -0.648697 0
M  V30 1269 O 122.058 1.91308 0.350925 0
M  V30 1270 C 122.341 1.73971 -3.15287 0
M  V30 1271 C 122.194 0.85485 -4.41602 0
M  V30 1272 C 123.513 2.71296 -3.46535 0
M  V30 1273 H 120.632 0.333261 -0.657348 0
M  V30 1274 H 123.274 0.188198 -1.89066 0
M  V30 1275 H 121.424 2.36416 -3.08285 0
M  V30 1276 H 123.096 0.245362 -4.60647 0
M  V30 1277 H 121.339 0.161398 -4.335 0
M  V30 1278 H 122.01 1.46286 -5.32264 0
M  V30 1279 H 124.486 2.18983 -3.53816 0
M  V30 1280 H 123.362 3.2569 -4.41834 0
M  V30 1281 H 123.623 3.5018 -2.69864 0
M  V30 1282 N 122.682 1.50554 0.465978 0
M  V30 1283 C 123.907 1.65838 1.24549 0
M  V30 1284 C 124.332 0.343486 1.84937 0
M  V30 1285 O 123.69 -0.69324 1.67523 0
M  V30 1286 C 123.738 2.75533 2.32624 0
M  V30 1287 O 122.842 2.37142 3.37398 0
M  V30 1288 H 122.183 0.553893 0.366194 0
M  V30 1289 H 124.713 1.96959 0.553927 0
M  V30 1290 H 124.723 2.98763 2.77857 0
M  V30 1291 H 123.398 3.70962 1.88043 0
M  V30 1292 H 121.975 2.24377 2.97841 0
M  V30 1293 N 124.16 -0.719506 1.40217 0
M  V30 1294 C 125.4 -1.49181 1.39729 0
M  V30 1295 C 125.764 -1.92 -0.00250614 0
M  V30 1296 O 126.965 -2.68473 -0.132479 0
M  V30 1297 C 125.236 -2.68767 2.35582 0
M  V30 1298 S 126.795 -3.58224 2.53418 0
M  V30 1299 H 123.613 -0.510091 0.495307 0
M  V30 1300 H 126.215 -0.841724 1.76452 0
M  V30 1301 H 124.919 -2.35475 3.36124 0
M  V30 1302 H 124.45 -3.38691 2.0013 0
M  V30 1303 H 126.465 -4.63033 1.78367 0
M  V30 1304 N 125.638 -1.25649 -0.95132 0
M  V30 1305 C 127.049 -1.09654 -1.51106 0
M  V30 1306 C 127.4 0.326615 -1.93462 0
M  V30 1307 O 126.525 1.21697 -1.78938 0
M  V30 1308 C 127.12 -1.98437 -2.74605 0
M  V30 1309 C 125.679 -1.86618 -3.2688 0
M  V30 1310 C 124.826 -1.9239 -1.99703 0
M  V30 1311 H 127.777 -1.38887 -0.767865 0
M  V30 1312 H 127.798 -1.5263 -3.48546 0
M  V30 1313 H 127.31 -3.02009 -2.43746 0
M  V30 1314 H 125.411 -0.859421 -3.62553 0
M  V30 1315 H 125.524 -2.71607 -3.94673 0
M  V30 1316 H 123.888 -1.36317 -2.15151 0
M  V30 1317 H 124.671 -2.97573 -1.71188 0
M  V30 1318 N 127.117 1.15442 -1.07289 0
M  V30 1319 C 128.363 1.8672 -0.806679 0
M  V30 1320 C 128.718 1.80723 0.660084 0
M  V30 1321 O 128.011 1.21902 1.47819 0
M  V30 1322 C 128.205 3.3489 -1.24834 0
M  V30 1323 C 128.034 3.55313 -2.7565 0
M  V30 1324 C 126.804 3.7082 -3.4325 0
M  V30 1325 C 129.002 3.53188 -3.73848 0
M  V30 1326 N 126.984 3.7929 -4.82713 0
M  V30 1327 C 128.355 3.67765 -4.99149 0
M  V30 1328 C 130.41 3.36459 -3.67015 0
M  V30 1329 C 129.113 3.6734 -6.18428 0
M  V30 1330 C 131.139 3.37333 -4.85758 0
M  V30 1331 C 130.501 3.52438 -6.09891 0
M  V30 1332 H 126.6 0.700433 -0.347733 0
M  V30 1333 H 129.184 1.38441 -1.36902 0
M  V30 1334 H 127.355 3.81786 -0.713713 0
M  V30 1335 H 129.087 3.93875 -0.929745 0
M  V30 1336 H 125.842 3.71568 -2.93656 0
M  V30 1337 H 126.266 3.8727 -5.55294 0
M  V30 1338 H 130.908 3.237 -2.71989 0
M  V30 1339 H 128.626 3.78878 -7.13777 0
M  V30 1340 H 132.212 3.25617 -4.82146 0
M  V30 1341 H 131.092 3.53047 -7.00234 0
M  V30 1342 N 128.595 0.856903 1.32268 0
M  V30 1343 C 129.825 0.47475 2.01071 0
M  V30 1344 C 130.233 -0.933746 1.64553 0
M  V30 1345 O 129.576 -1.62114 0.863989 0
M  V30 1346 C 129.638 0.536746 3.55471 0
M  V30 1347 C 129.302 1.90453 4.15423 0
M  V30 1348 C 130.299 2.87029 4.33486 0
M  V30 1349 C 127.984 2.20229 4.51447 0
M  V30 1350 C 129.978 4.11532 4.86744 0
M  V30 1351 C 127.665 3.44984 5.0441 0
M  V30 1352 C 128.663 4.40452 5.22007 0
M  V30 1353 O 128.351 5.62998 5.73837 0
M  V30 1354 H 128.083 0.184778 0.650256 0
M  V30 1355 H 130.637 1.15615 1.69771 0
M  V30 1356 H 128.867 -0.20152 3.86175 0
M  V30 1357 H 130.556 0.169875 4.05544 0
M  V30 1358 H 131.322 2.6533 4.05986 0
M  V30 1359 H 127.201 1.46705 4.37034 0
M  V30 1360 H 130.745 4.86056 5.00395 0
M  V30 1361 H 126.642 3.66532 5.31342 0
M  V30 1362 H 127.41 5.64987 5.92226 0
M  V30 1363 N 130.073 -1.45103 0.615059 0
M  V30 1364 C 131.003 -2.33339 -0.0865619 0
M  V30 1365 C 131.984 -1.4727 -0.851209 0
M  V30 1366 O 133.169 -1.76026 -0.820281 0
M  V30 1367 C 130.299 -3.30095 -1.07956 0
M  V30 1368 C 129.253 -4.25858 -0.427628 0
M  V30 1369 C 128.579 -5.12361 -1.5294 0
M  V30 1370 C 129.879 -5.18165 0.655944 0
M  V30 1371 H 131.573 -2.92254 0.650224 0
M  V30 1372 H 129.119 -1.40532 0.314138 0
M  V30 1373 H 131.072 -3.90698 -1.57901 0
M  V30 1374 H 129.796 -2.69355 -1.84703 0
M  V30 1375 H 128.455 -3.66564 0.0510292 0
M  V30 1376 H 128.103 -4.47984 -2.28734 0
M  V30 1377 H 127.803 -5.77238 -1.09865 0
M  V30 1378 H 129.327 -5.75833 -2.03098 0
M  V30 1379 H 130.741 -5.72796 0.240257 0
M  V30 1380 H 129.138 -5.91559 1.00888 0
M  V30 1381 H 130.208 -4.60144 1.52957 0
M  V30 1382 N 131.551 -0.354651 -1.53558 0
M  V30 1383 C 132.962 0.126902 -1.86268 0
M  V30 1384 C 133.313 1.49075 -1.27558 0
M  V30 1385 O 132.438 2.08105 -0.5934 0
M  V30 1386 C 133.033 0.237046 -3.3797 0
M  V30 1387 C 131.592 0.662842 -3.70518 0
M  V30 1388 C 130.739 -0.196652 -2.76602 0
M  V30 1389 H 133.69 -0.573849 -1.47962 0
M  V30 1390 H 133.711 1.06259 -3.65362 0
M  V30 1391 H 133.223 -0.755725 -3.80671 0
M  V30 1392 H 131.324 1.66424 -3.33367 0
M  V30 1393 H 131.437 0.445034 -4.77029 0
M  V30 1394 H 129.801 0.332763 -2.52517 0
M  V30 1395 H 130.584 -1.18676 -3.22135 0
M  V30 1396 N 133.029 1.57378 -0.0835403 0
M  V30 1397 C 134.275 1.95025 0.577664 0
M  V30 1398 C 134.63 0.964049 1.66505 0
M  V30 1399 O 133.923 -0.0118235 1.91596 0
M  V30 1400 C 134.117 3.37063 1.1884 0
M  V30 1401 C 133.946 4.49409 0.16171 0
M  V30 1402 C 132.716 5.04642 -0.257756 0
M  V30 1403 C 134.914 5.10722 -0.605634 0
M  V30 1404 N 132.896 6.00537 -1.27393 0
M  V30 1405 C 134.267 6.02225 -1.47395 0
M  V30 1406 C 136.322 4.93501 -0.660418 0
M  V30 1407 C 135.025 6.78355 -2.39221 0
M  V30 1408 C 137.051 5.70283 -1.56623 0
M  V30 1409 C 136.413 6.61444 -2.4222 0
M  V30 1410 H 132.512 0.760512 0.182058 0
M  V30 1411 H 135.096 1.94013 -0.163419 0
M  V30 1412 H 133.267 3.3879 1.89936 0
M  V30 1413 H 134.999 3.61917 1.81103 0
M  V30 1414 H 131.754 4.73428 0.127702 0
M  V30 1415 H 132.178 6.53184 -1.77987 0
M  V30 1416 H 136.82 4.22798 -0.0128221 0
M  V30 1417 H 134.538 7.48327 -3.05011 0
M  V30 1418 H 138.124 5.58976 -1.61361 0
M  V30 1419 H 137.004 7.1982 -3.11174 0
M  V30 1420 N 134.507 -0.190092 1.56449 0
M  V30 1421 C 135.47 -1.21925 1.9408 0
M  V30 1422 C 136.47 -1.38176 0.822431 0
M  V30 1423 O 137.66 -1.35903 1.08977 0
M  V30 1424 C 134.792 -2.58773 2.21922 0
M  V30 1425 H 135.985 -0.897464 2.86157 0
M  V30 1426 H 133.538 -0.43181 1.50217 0
M  V30 1427 H 134.273 -2.95998 1.32499 0
M  V30 1428 H 134.058 -2.48348 3.03424 0
M  V30 1429 H 135.548 -3.32978 2.52022 0
M  V30 1430 N 135.985 -1.50799 -0.457987 0
M  V30 1431 C 137.21 -1.66496 -1.23668 0
M  V30 1432 C 137.635 -0.353288 -1.84752 0
M  V30 1433 O 136.993 0.684346 -1.67888 0
M  V30 1434 C 137.041 -2.76763 -2.3116 0
M  V30 1435 O 136.145 -2.38928 -3.36136 0
M  V30 1436 H 135.486 -0.555828 -0.363252 0
M  V30 1437 H 138.016 -1.9725 -0.543474 0
M  V30 1438 H 138.026 -3.00232 -2.76269 0
M  V30 1439 H 136.701 -3.71954 -1.86073 0
M  V30 1440 H 135.278 -2.25953 -2.96647 0
M  V30 1441 N 137.463 0.71206 -1.40597 0
M  V30 1442 C 138.688 1.50617 -1.42581 0
M  V30 1443 C 139.113 1.88079 -0.0282102 0
M  V30 1444 O 138.471 1.53511 0.964579 0
M  V30 1445 C 138.519 2.7557 -2.3258 0
M  V30 1446 O 137.623 3.72414 -1.77148 0
M  V30 1447 H 136.964 0.453966 -0.484573 0
M  V30 1448 H 139.494 0.876649 -1.84868 0
M  V30 1449 H 139.504 3.2406 -2.47889 0
M  V30 1450 H 138.179 2.47639 -3.34138 0
M  V30 1451 H 136.756 3.31276 -1.71204 0
M  V30 1452 N 138.941 1.26152 0.944643 0
M  V30 1453 C 140.187 1.11657 1.69294 0
M  V30 1454 C 140.52 -0.339926 1.91202 0
M  V30 1455 O 139.795 -1.24994 1.49019 0
M  V30 1456 C 140.078 1.88236 3.06984 0
M  V30 1457 C 139.931 3.41772 2.92424 0
M  V30 1458 C 141.25 1.67343 4.07043 0
M  V30 1459 H 138.369 0.407004 0.614424 0
M  V30 1460 H 141.011 1.55106 1.09737 0
M  V30 1461 H 139.161 1.51308 3.57824 0
M  V30 1462 H 140.833 3.88433 2.48832 0
M  V30 1463 H 139.076 3.68974 2.28124 0
M  V30 1464 H 139.747 3.90579 3.90067 0
M  V30 1465 H 142.223 1.99509 3.65151 0
M  V30 1466 H 141.099 2.23346 5.01406 0
M  V30 1467 H 141.36 0.617158 4.37771 0
M  V30 1468 N 140.419 -1.14872 1.07899 0
M  V30 1469 C 141.83 -1.67367 0.827363 0
M  V30 1470 C 142.181 -1.85236 -0.646693 0
M  V30 1471 O 141.306 -1.55974 -1.50004 0
M  V30 1472 C 141.901 -3.04016 1.49532 0
M  V30 1473 C 140.46 -3.53566 1.29106 0
M  V30 1474 C 139.607 -2.29161 1.56143 0
M  V30 1475 H 142.558 -0.990083 1.24028 0
M  V30 1476 H 142.579 -3.69219 0.919643 0
M  V30 1477 H 142.091 -2.90978 2.56814 0
M  V30 1478 H 140.192 -3.71835 0.238713 0
M  V30 1479 H 140.305 -4.34661 2.01511 0
M  V30 1480 H 138.669 -2.34978 0.982717 0
M  V30 1481 H 139.452 -2.18705 2.64619 0
M  V30 1482 N 141.898 -0.863906 -1.31812 0
M  V30 1483 C 142.83 -0.272485 -2.27575 0
M  V30 1484 C 143.843 0.56104 -1.52827 0
M  V30 1485 O 145.032 0.384021 -1.7432 0
M  V30 1486 C 142.132 0.63283 -3.32939 0
M  V30 1487 C 141.305 -0.166902 -4.37081 0
M  V30 1488 C 140.364 0.665608 -5.21973 0
M  V30 1489 O 139.39 0.0958091 -5.69119 0
M  V30 1490 N 140.592 1.9787 -5.45736 0
M  V30 1491 H 143.357 -1.0954 -2.78964 0
M  V30 1492 H 140.918 -0.724791 -1.4477 0
M  V30 1493 H 142.91 1.19532 -3.86645 0
M  V30 1494 H 141.48 1.35642 -2.81638 0
M  V30 1495 H 140.7 -0.910838 -3.83533 0
M  V30 1496 H 141.988 -0.715874 -5.03739 0
M  V30 1497 H 141.386 2.46484 -5.09178 0
M  V30 1498 H 139.943 2.48911 -6.024 0
M  V30 1499 N 143.376 1.44774 -0.622745 0
M  V30 1500 C 144.624 2.01721 -0.123655 0
M  V30 1501 C 144.945 1.49172 1.25589 0
M  V30 1502 O 144.215 0.691974 1.83272 0
M  V30 1503 H 142.795 0.745777 -0.0427225 0
M  V30 1504 H 145.457 1.77382 -0.807559 0
M  V30 1505 H 144.553 3.11984 -0.0849534 0
M  V30 1506 N 144.854 0.36279 1.53368 0
M  V30 1507 C 145.804 -0.501391 2.22419 0
M  V30 1508 C 146.788 -1.0509 1.2184 0
M  V30 1509 O 147.98 -0.981404 1.47301 0
M  V30 1510 C 145.109 -1.64201 3.01484 0
M  V30 1511 C 144.195 -1.10552 4.09438 0
M  V30 1512 N 144.586 -0.291788 5.04958 0
M  V30 1513 C 142.884 -1.3806 4.24094 0
M  V30 1514 C 143.585 0.00162655 5.817 0
M  V30 1515 N 142.561 -0.595244 5.40331 0
M  V30 1516 H 146.363 0.127159 2.93625 0
M  V30 1517 H 143.877 0.170658 1.61501 0
M  V30 1518 H 145.874 -2.27326 3.49469 0
M  V30 1519 H 144.534 -2.27365 2.31809 0
M  V30 1520 H 145.545 0.0687731 5.17854 0
M  V30 1521 H 142.222 -2.01522 3.65644 0
M  V30 1522 H 143.612 0.659278 6.68658 0
M  V30 1523 N 146.332 -1.57332 0.0918853 0
M  V30 1524 C 147.578 -1.94524 -0.573425 0
M  V30 1525 C 147.911 -0.973578 -1.68033 0
M  V30 1526 O 147.186 -0.00609226 -1.94499 0
M  V30 1527 C 147.469 -3.41858 -1.13161 0
M  V30 1528 C 147.322 -4.4979 -0.0299747 0
M  V30 1529 C 148.641 -3.90435 -2.03098 0
M  V30 1530 H 145.76 -0.70734 -0.206975 0
M  V30 1531 H 148.402 -1.89309 0.161942 0
M  V30 1532 H 146.552 -3.46433 -1.7583 0
M  V30 1533 H 148.224 -4.57327 0.604112 0
M  V30 1534 H 146.467 -4.291 0.636833 0
M  V30 1535 H 147.138 -5.50069 -0.461287 0
M  V30 1536 H 149.614 -3.87992 -1.50338 0
M  V30 1537 H 148.49 -4.94097 -2.39081 0
M  V30 1538 H 148.751 -3.29541 -2.94712 0
M  V30 1539 N 147.81 0.181792 -1.56548 0
M  V30 1540 C 149.04 0.914618 -1.85252 0
M  V30 1541 C 149.448 1.76791 -0.673914 0
M  V30 1542 O 148.791 1.80009 0.366416 0
M  V30 1543 C 148.853 1.85019 -3.08234 0
M  V30 1544 C 148.517 1.17754 -4.41569 0
M  V30 1545 C 149.514 0.548035 -5.17003 0
M  V30 1546 C 147.199 1.17742 -4.88305 0
M  V30 1547 C 149.193 -0.0726128 -6.37359 0
M  V30 1548 C 146.88 0.552946 -6.08593 0
M  V30 1549 C 147.878 -0.070978 -6.82963 0
M  V30 1550 O 147.566 -0.685635 -8.00971 0
M  V30 1551 H 147.298 0.271695 -0.618998 0
M  V30 1552 H 149.852 0.189944 -2.0452 0
M  V30 1553 H 148.082 2.61491 -2.84885 0
M  V30 1554 H 149.771 2.45195 -3.23472 0
M  V30 1555 H 150.537 0.540174 -4.81982 0
M  V30 1556 H 146.416 1.65246 -4.30366 0
M  V30 1557 H 149.96 -0.560213 -6.95347 0
M  V30 1558 H 145.857 0.558354 -6.43081 0
M  V30 1559 H 146.625 -0.58385 -8.16415 0
M  V30 1560 N 149.288 1.51039 0.449983 0
M  V30 1561 C 150.704 1.38934 0.785462 0
M  V30 1562 C 150.904 0.461817 1.96136 0
M  V30 1563 O 149.96 -0.0877389 2.52348 0
M  V30 1564 C 151.273 2.80724 1.0777 0
M  V30 1565 C 152.821 2.89787 1.1829 0
M  V30 1566 C 153.296 4.32457 1.50815 0
M  V30 1567 N 154.787 4.35505 1.57764 0
M  V30 1568 C 155.522 5.42914 1.84477 0
M  V30 1569 N 155.018 6.60502 2.09068 0
M  V30 1570 N 156.811 5.3038 1.86155 0
M  V30 1571 H 148.962 2.09904 -0.324647 0
M  V30 1572 H 151.225 0.944378 -0.0827957 0
M  V30 1573 H 150.931 3.50531 0.286498 0
M  V30 1574 H 150.805 3.19273 2.00859 0
M  V30 1575 H 153.192 2.20186 1.96474 0
M  V30 1576 H 153.273 2.54752 0.231314 0
M  V30 1577 H 152.917 5.02603 0.731622 0
M  V30 1578 H 152.847 4.64995 2.47158 0
M  V30 1579 H 155.338 3.50724 1.40715 0
M  V30 1580 H 155.651 7.38158 2.28785 0
M  V30 1581 H 153.996 6.63639 2.06416 0
M  V30 1582 H 157.187 4.37505 1.66454 0
M  V30 1583 H 157.36 6.1417 2.06637 0
M  V30 1584 N 150.766 -0.704594 1.40972 0
M  V30 1585 C 152.013 -1.46458 1.39844 0
M  V30 1586 C 152.341 -1.94499 0.00447594 0
M  V30 1587 O 151.596 -1.69275 -0.982057 0
M  V30 1588 C 151.895 -2.698 2.34399 0
M  V30 1589 C 151.561 -2.40464 3.81429 0
M  V30 1590 C 150.223 -2.32174 4.21484 0
M  V30 1591 C 152.575 -2.16086 4.74296 0
M  V30 1592 C 149.903 -1.97589 5.52427 0
M  V30 1593 C 152.255 -1.83011 6.05549 0
M  V30 1594 C 150.919 -1.7321 6.44635 0
M  V30 1595 H 150.189 -0.535927 0.511725 0
M  V30 1596 H 152.836 -0.806124 1.73706 0
M  V30 1597 H 151.141 -3.40536 1.93759 0
M  V30 1598 H 152.838 -3.27919 2.30804 0
M  V30 1599 H 149.428 -2.47808 3.49699 0
M  V30 1600 H 153.612 -2.2144 4.4416 0
M  V30 1601 H 148.868 -1.88547 5.81601 0
M  V30 1602 H 153.042 -1.63164 6.77016 0
M  V30 1603 H 150.669 -1.46179 7.46013 0
M  V30 1604 N 152.244 -1.26651 -0.937939 0
M  V30 1605 C 153.484 -1.13611 -1.69917 0
M  V30 1606 C 153.848 0.314687 -1.89404 0
M  V30 1607 O 155.049 0.567285 -2.62746 0
M  V30 1608 C 153.32 -1.88742 -3.03498 0
M  V30 1609 S 154.879 -1.91794 -3.94665 0
M  V30 1610 H 151.697 -0.405767 -0.583844 0
M  V30 1611 H 154.299 -1.60416 -1.11745 0
M  V30 1612 H 153.003 -2.9336 -2.86999 0
M  V30 1613 H 152.534 -1.42391 -3.66727 0
M  V30 1614 H 154.549 -1.00698 -4.85875 0
M  V30 1615 N 153.722 1.14298 -1.08507 0
M  V30 1616 C 154.95 1.89219 -0.836876 0
M  V30 1617 C 155.365 1.78638 0.611054 0
M  V30 1618 O 154.722 1.14643 1.41998 0
M  V30 1619 C 154.773 3.39158 -1.25116 0
M  V30 1620 O 154.494 3.49449 -2.64229 0
M  V30 1621 C 155.995 4.31073 -1.03398 0
M  V30 1622 H 153.215 0.599328 -0.301739 0
M  V30 1623 H 155.759 1.44746 -1.44461 0
M  V30 1624 H 153.914 3.81251 -0.687514 0
M  V30 1625 H 154.328 4.42589 -2.81452 0
M  V30 1626 H 155.802 5.34646 -1.37323 0
M  V30 1627 H 156.279 4.3919 0.0289259 0
M  V30 1628 H 156.885 3.94738 -1.58311 0
M  V30 1629 N 155.201 0.870884 1.31352 0
M  V30 1630 C 156.164 0.332243 2.26779 0
M  V30 1631 C 157.164 -0.517302 1.52252 0
M  V30 1632 O 158.354 -0.326477 1.71113 0
M  V30 1633 C 155.486 -0.528066 3.36785 0
M  V30 1634 H 156.679 1.17469 2.75937 0
M  V30 1635 H 154.232 0.64655 1.423 0
M  V30 1636 H 154.967 -1.39167 2.92922 0
M  V30 1637 H 154.752 0.0802582 3.92018 0
M  V30 1638 H 156.242 -0.897179 4.07849 0
M  V30 1639 N 156.679 -1.44442 0.630414 0
M  V30 1640 C 157.589 -2.34476 -0.0761693 0
M  V30 1641 C 158.605 -1.52576 -0.836449 0
M  V30 1642 O 159.781 -1.85307 -0.788874 0
M  V30 1643 C 156.846 -3.30545 -1.04599 0
M  V30 1644 C 155.907 -4.28352 -0.28516 0
M  V30 1645 C 155.14 -5.19831 -1.20878 0
M  V30 1646 O 155.363 -5.15223 -2.44747 0
M  V30 1647 O 154.297 -5.97892 -0.693491 0
M  V30 1648 H 158.123 -2.96345 0.664324 0
M  V30 1649 H 155.708 -1.44203 0.39061 0
M  V30 1650 H 157.59 -3.89681 -1.60396 0
M  V30 1651 H 156.265 -2.7121 -1.76711 0
M  V30 1652 H 155.172 -3.72764 0.315837 0
M  V30 1653 H 156.505 -4.90605 0.395924 0
M  V30 1654 N 158.157 -0.370918 -1.53173 0
M  V30 1655 C 159.405 0.216673 -2.00935 0
M  V30 1656 C 159.726 1.48845 -1.25977 0
M  V30 1657 O 158.996 1.92286 -0.374551 0
M  V30 1658 H 157.576 0.0830565 -0.742368 0
M  V30 1659 H 160.238 -0.49838 -1.8842 0
M  V30 1660 H 159.334 0.439893 -3.08984 0
M  V30 1661 N 159.635 1.57281 -0.100228 0
M  V30 1662 C 160.565 2.17328 0.853857 0
M  V30 1663 C 161.546 1.10804 1.2906 0
M  V30 1664 O 162.731 1.38963 1.35657 0
M  V30 1665 C 159.861 2.75772 2.11109 0
M  V30 1666 C 158.815 3.87713 1.81279 0
M  V30 1667 C 158.141 4.32882 3.13874 0
M  V30 1668 C 159.441 5.10677 1.09574 0
M  V30 1669 H 161.135 2.97305 0.353545 0
M  V30 1670 H 158.681 1.43009 0.168612 0
M  V30 1671 H 160.634 3.16433 2.78296 0
M  V30 1672 H 159.358 1.93057 2.63432 0
M  V30 1673 H 158.017 3.476 1.16489 0
M  V30 1674 H 157.665 3.47051 3.64095 0
M  V30 1675 H 157.365 5.08358 2.94696 0
M  V30 1676 H 158.889 4.7618 3.82211 0
M  V30 1677 H 160.303 5.48474 1.66879 0
M  V30 1678 H 158.7 5.91615 1.00557 0
M  V30 1679 H 159.77 4.84835 0.0793299 0
M  V30 1680 N 161.113 -0.173488 1.56642 0
M  V30 1681 C 162.359 -0.887108 1.83035 0
M  V30 1682 C 162.714 -1.79965 0.680461 0
M  V30 1683 O 162.007 -1.88854 -0.323225 0
M  V30 1684 C 162.201 -1.72069 3.13252 0
M  V30 1685 C 162.03 -0.89035 4.40798 0
M  V30 1686 C 160.8 -0.566282 5.02117 0
M  V30 1687 C 162.998 -0.232921 5.13772 0
M  V30 1688 N 160.98 0.280427 6.13259 0
M  V30 1689 C 162.351 0.475046 6.18177 0
M  V30 1690 C 164.406 -0.150863 4.97671 0
M  V30 1691 C 163.109 1.25729 7.08227 0
M  V30 1692 C 165.135 0.618039 5.88162 0
M  V30 1693 C 164.497 1.31438 6.92029 0
M  V30 1694 H 160.596 -0.303303 0.720785 0
M  V30 1695 H 163.18 -0.154244 1.94088 0
M  V30 1696 H 161.351 -2.42499 3.03395 0
M  V30 1697 H 163.083 -2.37545 3.2765 0
M  V30 1698 H 159.838 -0.895852 4.6505 0
M  V30 1699 H 160.262 0.694027 6.73433 0
M  V30 1700 H 164.904 -0.674868 4.17379 0
M  V30 1701 H 162.622 1.79265 7.87966 0
M  V30 1702 H 166.208 0.683173 5.77775 0
M  V30 1703 H 165.088 1.89981 7.6084 0
M  V30 1704 N 162.591 -1.51276 -0.441967 0
M  V30 1705 C 163.521 -1.752 -1.54361 0
M  V30 1706 C 164.502 -0.601682 -1.59103 0
M  V30 1707 O 165.687 -0.843913 -1.74905 0
M  V30 1708 C 162.817 -1.87282 -2.92477 0
M  V30 1709 C 161.771 -3.02687 -3.02596 0
M  V30 1710 C 161.097 -2.99947 -4.42647 0
M  V30 1711 C 162.397 -4.4273 -2.77106 0
M  V30 1712 H 164.091 -2.67442 -1.34592 0
M  V30 1713 H 161.637 -1.28694 -0.646048 0
M  V30 1714 H 163.59 -2.02602 -3.695 0
M  V30 1715 H 162.314 -0.916844 -3.13467 0
M  V30 1716 H 160.973 -2.87065 -2.28012 0
M  V30 1717 H 160.621 -2.02136 -4.60597 0
M  V30 1718 H 160.321 -3.77439 -4.50348 0
M  V30 1719 H 161.845 -3.17354 -5.2165 0
M  V30 1720 H 163.259 -4.58727 -3.43864 0
M  V30 1721 H 161.656 -5.21893 -2.96222 0
M  V30 1722 H 162.726 -4.53087 -1.72744 0
M  V30 1723 N 164.069 0.697108 -1.41344 0
M  V30 1724 C 165.001 1.8224 -1.39001 0
M  V30 1725 C 166.014 1.60152 -0.292428 0
M  V30 1726 O 167.203 1.69684 -0.554048 0
M  V30 1727 C 164.303 3.18976 -1.14489 0
M  V30 1728 C 163.476 3.68105 -2.36258 0
M  V30 1729 C 162.535 4.83506 -2.07625 0
M  V30 1730 O 161.561 4.95201 -2.8065 0
M  V30 1731 N 162.763 5.70637 -1.06555 0
M  V30 1732 H 165.528 1.84742 -2.35988 0
M  V30 1733 H 163.089 0.87937 -1.35936 0
M  V30 1734 H 165.081 3.93801 -0.932885 0
M  V30 1735 H 163.651 3.11508 -0.261043 0
M  V30 1736 H 162.871 2.84204 -2.7317 0
M  V30 1737 H 164.159 3.97667 -3.17393 0
M  V30 1738 H 163.557 5.63817 -0.461125 0
M  V30 1739 H 162.114 6.45368 -0.913444 0
M  V30 1740 N 165.547 1.27147 0.931209 0
M  V30 1741 C 166.494 1.09568 2.03134 0
M  V30 1742 C 167.464 -0.00222433 1.661 0
M  V30 1743 O 168.649 0.159439 1.90133 0
M  V30 1744 C 165.789 0.745231 3.36957 0
M  V30 1745 C 164.902 1.92041 3.86968 0
M  V30 1746 C 164.037 1.51216 5.09222 0
M  V30 1747 C 163.076 2.65504 5.5152 0
M  V30 1748 N 162.213 2.25291 6.64972 0
M  V30 1749 H 167.053 2.03708 2.17502 0
M  V30 1750 H 164.59 1.01411 1.06556 0
M  V30 1751 H 166.548 0.522878 4.1391 0
M  V30 1752 H 165.178 -0.159202 3.22407 0
M  V30 1753 H 164.23 2.25541 3.06326 0
M  V30 1754 H 165.542 2.77787 4.1429 0
M  V30 1755 H 164.696 1.25084 5.93666 0
M  V30 1756 H 163.435 0.625749 4.83669 0
M  V30 1757 H 162.44 2.92354 4.65628 0
M  V30 1758 H 163.665 3.54761 5.7907 0
M  V30 1759 H 161.611 1.39098 6.41083 0
M  V30 1760 H 161.528 3.04577 6.91931 0
M  V30 1761 H 162.796 2.02398 7.52765 0
M  V30 1762 N 167.025 -1.13721 1.09112 0
M  V30 1763 C 168.302 -1.81155 0.737706 0
M  V30 1764 C 168.682 -1.96253 -0.777683 0
M  V30 1765 O 168.03 -1.52807 -1.69889 0
M  V30 1766 C 168.24 -3.16392 1.47299 0
M  V30 1767 C 169.588 -3.91787 1.63671 0
M  V30 1768 O 170.612 -3.26005 1.43524 0
M  V30 1769 O 169.471 -5.0977 1.96969 0
M  V30 1770 H 166.565 -0.783518 0.26463 0
M  V30 1771 H 169.111 -1.20676 1.19312 0
M  V30 1772 H 167.883 -3.0061 2.50498 0
M  V30 1773 H 167.506 -3.8457 1.00953 0
M  V30 1774 N 168.503 -0.877838 -1.30888 0
M  V30 1775 C 169.451 -0.328662 -2.30266 0
M  V30 1776 C 170.445 0.560496 -1.59859 0
M  V30 1777 O 171.651 0.445722 -1.74394 0
M  V30 1778 H 168.026 -0.0876142 -0.746879 0
M  V30 1779 H 169.997 -1.18061 -2.74051 0
M  V30 1780 C 168.746 0.448071 -3.44801 0
M  V30 1781 H 168.069 -0.226859 -3.99156 0
M  V30 1782 H 169.509 0.797541 -4.16432 0
M  V30 1783 C 167.968 1.64239 -2.94155 0
M  V30 1784 O 168.498 2.74175 -2.93583 0
M  V30 1785 N 166.704 1.47716 -2.50256 0
M  V30 1786 H 166.251 0.582821 -2.5092 0
M  V30 1787 H 166.209 2.27765 -2.16727 0
M  V30 1788 N 169.982 1.44106 -0.638065 0
M  V30 1789 C 171.207 2.0685 -0.150916 0
M  V30 1790 C 171.632 1.47417 1.16833 0
M  V30 1791 O 170.99 0.578264 1.71831 0
M  V30 1792 C 171.038 3.60555 -0.05708 0
M  V30 1793 O 170.142 4.00465 0.984972 0
M  V30 1794 H 169.483 0.658151 -0.0879399 0
M  V30 1795 H 172.013 1.84865 -0.876707 0
M  V30 1796 H 172.023 4.07789 0.131232 0
M  V30 1797 H 170.698 4.03193 -1.02021 0
M  V30 1798 H 169.275 3.64849 0.770672 0
M  V30 1799 N 171.46 0.379036 1.52974 0
M  V30 1800 C 172.685 -0.209353 2.06341 0
M  V30 1801 C 173.11 -1.40583 1.24972 0
M  V30 1802 O 172.468 -1.79246 0.272155 0
M  V30 1803 C 172.516 -0.567786 3.56102 0
M  V30 1804 O 171.62 -1.66318 3.77375 0
M  V30 1805 H 170.961 -0.0272919 0.663439 0
M  V30 1806 H 173.491 0.543536 1.97248 0
M  V30 1807 H 173.501 -0.835003 3.99364 0
M  V30 1808 H 172.176 0.307013 4.14765 0
M  V30 1809 H 170.753 -1.39048 3.46006 0
M  V30 1810 N 172.938 -1.57226 0.108567 0
M  V30 1811 C 173.868 -2.17778 -0.84232 0
M  V30 1812 C 174.849 -1.11487 -1.2847 0
M  V30 1813 O 176.034 -1.39681 -1.34918 0
M  V30 1814 C 173.164 -2.76888 -2.09644 0
M  V30 1815 C 172.118 -3.88669 -1.79221 0
M  V30 1816 C 171.444 -4.34541 -3.11574 0
M  V30 1817 C 172.744 -5.11251 -1.06864 0
M  V30 1818 H 174.438 -2.97489 -0.337774 0
M  V30 1819 H 171.984 -1.43097 -0.161025 0
M  V30 1820 H 173.937 -3.17904 -2.76614 0
M  V30 1821 H 172.661 -1.94451 -2.62405 0
M  V30 1822 H 171.32 -3.48213 -1.14644 0
M  V30 1823 H 170.968 -3.48977 -3.62249 0
M  V30 1824 H 170.668 -5.09914 -2.91996 0
M  V30 1825 H 172.192 -4.782 -3.7968 0
M  V30 1826 H 173.606 -5.49352 -1.63968 0
M  V30 1827 H 172.003 -5.9214 -0.974178 0
M  V30 1828 H 173.073 -4.8487 -0.0536168 0
M  V30 1829 N 174.416 0.165178 -1.56732 0
M  V30 1830 C 175.827 0.727046 -1.71962 0
M  V30 1831 C 176.178 1.82508 -0.720078 0
M  V30 1832 O 175.303 2.16082 0.117242 0
M  V30 1833 C 175.898 1.32559 -3.11791 0
M  V30 1834 C 174.457 1.83422 -3.28684 0
M  V30 1835 C 173.604 0.715567 -2.67908 0
M  V30 1836 H 176.555 -0.0602896 -1.58585 0
M  V30 1837 H 176.576 2.19533 -3.10782 0
M  V30 1838 H 176.088 0.526195 -3.84516 0
M  V30 1839 H 174.189 2.65986 -2.60926 0
M  V30 1840 H 174.302 1.97543 -4.36478 0
M  V30 1841 H 172.666 1.13758 -2.27884 0
M  V30 1842 H 173.449 -0.0720836 -3.43224 0
M  V30 1843 N 175.894 1.51508 0.433938 0
M  V30 1844 C 177.14 1.65549 1.18173 0
M  V30 1845 C 177.495 0.368751 1.88833 0
M  V30 1846 O 176.788 -0.635616 1.8075 0
M  V30 1847 C 176.982 2.79928 2.22205 0
M  V30 1848 C 176.811 4.19601 1.61756 0
M  V30 1849 C 175.581 4.85489 1.40101 0
M  V30 1850 C 177.779 5.02574 1.09194 0
M  V30 1851 N 175.761 6.09266 0.752859 0
M  V30 1852 C 177.132 6.17381 0.569255 0
M  V30 1853 C 179.187 4.88079 0.984025 0
M  V30 1854 C 177.89 7.19282 -0.0507472 0
M  V30 1855 C 179.916 5.90191 0.377912 0
M  V30 1856 C 179.278 7.04272 -0.134216 0
M  V30 1857 H 175.377 0.659653 0.419979 0
M  V30 1858 H 177.961 1.88746 0.477818 0
M  V30 1859 H 176.132 2.5839 2.89982 0
M  V30 1860 H 177.864 2.83132 2.89168 0
M  V30 1861 H 174.619 4.43417 1.66369 0
M  V30 1862 H 175.043 6.75528 0.446123 0
M  V30 1863 H 179.685 4.00131 1.36583 0
M  V30 1864 H 177.403 8.06876 -0.444676 0
M  V30 1865 H 180.989 5.81045 0.296269 0
M  V30 1866 H 179.869 7.81933 -0.59585 0
M  V30 1867 N 177.372 -0.689602 1.41712 0
M  V30 1868 C 178.788 -1.00093 1.24312 0
M  V30 1869 C 178.988 -2.01036 0.136729 0
M  V30 1870 O 178.044 -2.47562 -0.496918 0
M  V30 1871 C 179.357 -1.51985 2.59463 0
M  V30 1872 C 180.905 -1.63838 2.66695 0
M  V30 1873 C 181.38 -2.1913 4.02177 0
M  V30 1874 N 182.871 -2.26483 4.04054 0
M  V30 1875 C 183.606 -2.70306 5.0569 0
M  V30 1876 N 183.102 -3.13691 6.17713 0
M  V30 1877 N 184.895 -2.69923 4.9305 0
M  V30 1878 H 177.046 -0.0210029 2.1239 0
M  V30 1879 H 179.309 -0.0718733 0.945272 0
M  V30 1880 H 179.015 -0.85269 3.41207 0
M  V30 1881 H 178.889 -2.50103 2.82362 0
M  V30 1882 H 181.276 -2.29664 1.85306 0
M  V30 1883 H 181.357 -0.642492 2.476 0
M  V30 1884 H 181.001 -1.53918 4.84016 0
M  V30 1885 H 180.931 -3.19482 4.18615 0
M  V30 1886 H 183.422 -1.95874 3.23174 0
M  V30 1887 H 183.735 -3.45773 6.9113 0
M  V30 1888 H 182.08 -3.11585 6.21241 0
M  V30 1889 H 185.271 -2.35382 4.04614 0
M  V30 1890 H 185.444 -3.03758 5.72394 0
M  V30 1891 N 178.85 -1.27639 -0.924453 0
M  V30 1892 C 180.127 -1.04887 -1.651 0
M  V30 1893 C 180.507 0.415327 -2.06974 0
M  V30 1894 O 179.855 1.39923 -1.80648 0
M  V30 1895 C 180.065 -2.01348 -2.85061 0
M  V30 1896 C 181.413 -2.30899 -3.56329 0
M  V30 1897 O 182.437 -1.99348 -2.95193 0
M  V30 1898 O 181.296 -2.84699 -4.66485 0
M  V30 1899 H 178.39 -0.400083 -0.723784 0
M  V30 1900 H 180.936 -1.38916 -0.974703 0
M  V30 1901 H 179.708 -3.0008 -2.51133 0
M  V30 1902 H 179.331 -1.679 -3.6041 0
M  V30 1903 N 180.328 1.1314 -1.09713 0
M  V30 1904 C 181.258 2.20748 -0.761102 0
M  V30 1905 C 182.239 1.68061 0.262566 0
M  V30 1906 O 183.424 1.93765 0.129977 0
M  V30 1907 C 180.554 3.46812 -0.184054 0
M  V30 1908 C 179.508 4.12606 -1.13757 0
M  V30 1909 C 178.834 5.33031 -0.422083 0
M  V30 1910 C 180.134 4.59603 -2.48118 0
M  V30 1911 H 181.828 2.49113 -1.66082 0
M  V30 1912 H 179.374 1.19734 -0.799987 0
M  V30 1913 H 181.327 4.21353 0.0631215 0
M  V30 1914 H 180.051 3.17851 0.750868 0
M  V30 1915 H 178.71 3.40036 -1.37007 0
M  V30 1916 H 178.358 5.00335 0.517072 0
M  V30 1917 H 178.058 5.77999 -1.05788 0
M  V30 1918 H 179.582 6.10325 -0.183277 0
M  V30 1919 H 180.996 5.25552 -2.29059 0
M  V30 1920 H 179.393 5.15321 -3.07514 0
M  V30 1921 H 180.463 3.73971 -3.08665 0
M  V30 1922 N 181.806 0.884767 1.30421 0
M  V30 1923 C 183.031 0.517288 2.00845 0
M  V30 1924 C 183.456 -0.886779 1.65885 0
M  V30 1925 O 182.814 -1.58768 0.875354 0
M  V30 1926 C 182.862 0.698994 3.5376 0
M  V30 1927 O 181.966 -0.255208 4.1161 0
M  V30 1928 H 181.307 0.203872 0.631927 0
M  V30 1929 H 183.837 1.19225 1.66272 0
M  V30 1930 H 183.847 0.597912 4.03595 0
M  V30 1931 H 182.522 1.72271 3.78544 0
M  V30 1932 H 181.099 -0.10784 3.72744 0
M  V30 1933 N 183.284 -1.43765 0.645699 0
M  V30 1934 C 184.194 -2.34544 -0.0512957 0
M  V30 1935 C 185.21 -1.53455 -0.82022 0
M  V30 1936 O 186.386 -1.86133 -0.769176 0
M  V30 1937 C 183.451 -3.31636 -1.01087 0
M  V30 1938 C 182.512 -4.2863 -0.239712 0
M  V30 1939 C 181.745 -5.21084 -1.15358 0
M  V30 1940 O 181.968 -5.1779 -2.39269 0
M  V30 1941 O 180.902 -5.98593 -0.630038 0
M  V30 1942 H 184.728 -2.95624 0.695718 0
M  V30 1943 H 182.313 -1.43781 0.405882 0
M  V30 1944 H 184.195 -3.9136 -1.56254 0
M  V30 1945 H 182.87 -2.73069 -1.73824 0
M  V30 1946 H 181.777 -3.72408 0.355356 0
M  V30 1947 H 183.11 -4.90157 0.447936 0
M  V30 1948 N 184.763 -0.387143 -1.52771 0
M  V30 1949 C 186.003 0.195537 -2.03463 0
M  V30 1950 C 186.367 1.44222 -1.26744 0
M  V30 1951 O 187.568 2.10192 -1.67549 0
M  V30 1952 C 185.839 0.459097 -3.54439 0
M  V30 1953 S 187.398 1.01237 -4.26962 0
M  V30 1954 H 184.216 0.0552675 -0.708849 0
M  V30 1955 H 186.818 -0.534992 -1.88037 0
M  V30 1956 H 185.522 -0.455382 -4.07866 0
M  V30 1957 H 185.053 1.21811 -3.74066 0
M  V30 1958 H 187.068 2.29492 -4.39941 0
M  V30 1959 N 186.241 1.57166 -0.116904 0
M  V30 1960 C 187.151 2.18745 0.847812 0
M  V30 1961 C 188.167 1.163 1.29423 0
M  V30 1962 O 189.343 1.48761 1.35765 0
M  V30 1963 C 186.408 2.77307 2.0809 0
M  V30 1964 C 185.469 3.94781 1.68661 0
M  V30 1965 C 184.702 4.50541 2.86091 0
M  V30 1966 O 184.925 4.05202 4.01456 0
M  V30 1967 O 183.859 5.41256 2.63298 0
M  V30 1968 H 187.685 3.01632 0.353778 0
M  V30 1969 H 185.27 1.49005 0.108599 0
M  V30 1970 H 187.152 3.14647 2.80313 0
M  V30 1971 H 185.827 1.97452 2.56504 0
M  V30 1972 H 184.734 3.62214 0.935518 0
M  V30 1973 H 186.067 4.76065 1.24991 0
M  V30 1974 N 187.719 -0.156864 1.56817 0
M  V30 1975 C 188.629 -1.2136 2.00771 0
M  V30 1976 C 189.645 -1.47598 0.921459 0
M  V30 1977 O 190.821 -1.59462 1.2302 0
M  V30 1978 C 187.886 -2.52943 2.37109 0
M  V30 1979 C 186.947 -2.34439 3.59634 0
M  V30 1980 C 186.18 -3.59748 3.94229 0
M  V30 1981 O 186.403 -4.65526 3.29609 0
M  V30 1982 O 185.337 -3.52998 4.8752 0
M  V30 1983 H 189.163 -0.870468 2.90958 0
M  V30 1984 H 186.748 -0.36484 1.44877 0
M  V30 1985 H 188.63 -3.30538 2.61386 0
M  V30 1986 H 187.305 -2.86806 1.5008 0
M  V30 1987 H 186.212 -1.54828 3.40557 0
M  V30 1988 H 187.545 -2.05496 4.4725 0
M  V30 1989 N 189.197 -1.51736 -0.425897 0
M  V30 1990 C 190.422 -1.69082 -1.20108 0
M  V30 1991 C 190.847 -0.392398 -1.83962 0
M  V30 1992 O 190.205 0.64858 -1.69302 0
M  V30 1993 C 190.253 -2.81604 -2.25237 0
M  V30 1994 O 189.357 -2.46004 -3.30992 0
M  V30 1995 H 188.698 -0.563408 -0.35138 0
M  V30 1996 H 191.228 -1.98358 -0.501512 0
M  V30 1997 H 191.238 -3.06025 -2.69838 0
M  V30 1998 H 189.913 -3.75817 -1.78142 0
M  V30 1999 H 188.49 -2.32195 -2.91787 0
M  V30 2000 N 190.675 0.682077 -1.42076 0
M  V30 2001 C 191.622 1.79578 -1.44984 0
M  V30 2002 C 192.592 1.6332 -0.302614 0
M  V30 2003 O 193.777 1.83978 -0.505633 0
M  V30 2004 C 190.917 3.1756 -1.35091 0
M  V30 2005 C 190.03 3.45156 -2.59791 0
M  V30 2006 C 189.165 4.72826 -2.42093 0
M  V30 2007 C 188.204 4.93433 -3.62202 0
M  V30 2008 N 187.341 6.12338 -3.43491 0
M  V30 2009 H 192.181 1.76427 -2.40161 0
M  V30 2010 H 189.718 0.861376 -1.19242 0
M  V30 2011 H 191.676 3.97287 -1.27354 0
M  V30 2012 H 190.306 3.19854 -0.435133 0
M  V30 2013 H 189.358 2.59736 -2.77923 0
M  V30 2014 H 190.67 3.5628 -3.49094 0
M  V30 2015 H 189.824 5.60631 -2.319 0
M  V30 2016 H 188.563 4.63973 -1.50268 0
M  V30 2017 H 187.568 4.04073 -3.72834 0
M  V30 2018 H 188.793 5.04136 -4.54998 0
M  V30 2019 H 186.739 6.04672 -2.54377 0
M  V30 2020 H 186.656 6.2429 -4.26377 0
M  V30 2021 H 187.924 7.02841 -3.37097 0
M  V30 2022 N 192.153 1.28127 0.917671 0
M  V30 2023 C 193.569 1.05749 1.19538 0
M  V30 2024 C 193.769 -0.202633 2.00479 0
M  V30 2025 O 192.825 -0.905382 2.3571 0
M  V30 2026 C 194.138 2.30273 1.93378 0
M  V30 2027 C 195.686 2.35412 2.06277 0
M  V30 2028 C 196.161 3.59692 2.83524 0
M  V30 2029 N 197.652 3.60309 2.91087 0
M  V30 2030 C 198.387 4.53147 3.51348 0
M  V30 2031 N 197.883 5.563 4.12919 0
M  V30 2032 N 199.676 4.40751 3.48849 0
M  V30 2033 H 191.827 2.09024 0.377184 0
M  V30 2034 H 194.09 0.919798 0.22951 0
M  V30 2035 H 193.796 3.22055 1.41328 0
M  V30 2036 H 193.67 2.36378 2.93947 0
M  V30 2037 H 196.057 1.4413 2.57508 0
M  V30 2038 H 196.138 2.33304 1.04895 0
M  V30 2039 H 195.782 4.51316 2.32973 0
M  V30 2040 H 195.712 3.59054 3.85211 0
M  V30 2041 H 198.203 2.85714 2.47338 0
M  V30 2042 H 198.516 6.2329 4.56869 0
M  V30 2043 H 196.861 5.60131 4.11435 0
M  V30 2044 H 200.052 3.59367 2.99955 0
M  V30 2045 H 200.225 5.13291 3.9552 0
M  V30 2046 N 193.631 -1.12557 1.10312 0
M  V30 2047 C 194.879 -1.83675 0.843091 0
M  V30 2048 C 195.2 -1.84435 -0.633131 0
M  V30 2049 O 194.47 -1.30657 -1.45964 0
M  V30 2050 H 193.05 -0.680138 0.308904 0
M  V30 2051 H 195.712 -1.36301 1.39313 0
M  V30 2052 H 194.808 -2.87908 1.2048 0
M  V30 2053 N 195.109 -0.891671 -1.2995 0
M  V30 2054 C 196.019 -0.367691 -2.31701 0
M  V30 2055 C 197.035 0.533486 -1.6562 0
M  V30 2056 O 198.211 0.424997 -1.96865 0
M  V30 2057 C 195.276 0.403406 -3.44345 0
M  V30 2058 C 194.337 -0.528328 -4.26037 0
M  V30 2059 C 193.57 0.206063 -5.33302 0
M  V30 2060 O 193.793 1.43119 -5.52153 0
M  V30 2061 O 192.727 -0.447281 -6.00236 0
M  V30 2062 H 196.553 -1.21163 -2.78484 0
M  V30 2063 H 194.138 -0.655725 -1.34241 0
M  V30 2064 H 196.02 0.839753 -4.12948 0
M  V30 2065 H 194.695 1.22354 -2.99685 0
M  V30 2066 H 193.602 -1.01362 -3.60106 0
M  V30 2067 H 194.935 -1.31465 -4.74318 0
M  V30 2068 N 196.587 1.43421 -0.653314 0
M  V30 2069 C 198.003 1.56341 -0.320886 0
M  V30 2070 C 198.203 1.63696 1.17499 0
M  V30 2071 O 197.259 1.59208 1.95982 0
M  V30 2072 C 198.572 2.82424 -1.03233 0
M  V30 2073 C 200.12 2.96168 -1.01259 0
M  V30 2074 C 200.595 4.25084 -1.70492 0
M  V30 2075 N 202.086 4.31948 -1.67257 0
M  V30 2076 C 202.821 5.30466 -2.17701 0
M  V30 2077 N 202.317 6.35261 -2.76434 0
M  V30 2078 N 204.11 5.2212 -2.082 0
M  V30 2079 H 196.261 1.3689 -1.62403 0
M  V30 2080 H 198.524 0.657455 -0.682977 0
M  V30 2081 H 198.23 2.83053 -2.08744 0
M  V30 2082 H 198.104 3.72653 -0.583948 0
M  V30 2083 H 200.491 2.9508 0.0341235 0
M  V30 2084 H 200.572 2.07229 -1.49966 0
M  V30 2085 H 200.216 4.26932 -2.7512 0
M  V30 2086 H 200.146 5.1292 -1.19251 0
M  V30 2087 H 202.637 3.56838 -1.24398 0
M  V30 2088 H 202.95 7.06754 -3.12601 0
M  V30 2089 H 201.295 6.35884 -2.80495 0
M  V30 2090 H 204.486 4.39166 -1.62021 0
M  V30 2091 H 204.659 5.98739 -2.47822 0
M  V30 2092 N 198.065 0.39524 1.52563 0
M  V30 2093 C 199.29 -0.187456 2.06551 0
M  V30 2094 C 199.715 -1.39249 1.26457 0
M  V30 2095 O 199.073 -1.78947 0.291151 0
M  V30 2096 C 199.121 -0.529985 3.56684 0
M  V30 2097 O 198.225 -1.62307 3.79118 0
M  V30 2098 H 197.566 -0.0202537 0.663691 0
M  V30 2099 H 200.096 0.564426 1.96661 0
M  V30 2100 H 200.106 -0.792598 4.00227 0
M  V30 2101 H 198.781 0.350987 4.14416 0
M  V30 2102 H 197.358 -1.3537 3.47461 0
M  V30 2103 N 199.544 -1.57102 0.125237 0
M  V30 2104 C 200.769 -2.0019 -0.542101 0
M  V30 2105 C 201.194 -1.00449 -1.59034 0
M  V30 2106 O 200.552 0.0229423 -1.81285 0
M  V30 2107 C 200.6 -3.42129 -1.13929 0
M  V30 2108 O 199.704 -3.45307 -2.2547 0
M  V30 2109 H 199.045 -0.650171 -0.134812 0
M  V30 2110 H 201.575 -2.03461 0.215553 0
M  V30 2111 H 201.585 -3.80471 -1.4733 0
M  V30 2112 H 200.26 -4.14237 -0.371531 0
M  V30 2113 H 198.837 -3.1879 -1.93462 0
M  V30 2114 N 201.022 0.148545 -1.56898 0
M  V30 2115 C 202.433 0.708766 -1.72723 0
M  V30 2116 C 202.784 1.81734 -0.739395 0
M  V30 2117 O 201.909 2.16194 0.0943169 0
M  V30 2118 C 202.504 1.29245 -3.13179 0
M  V30 2119 C 201.063 1.79925 -3.30611 0
M  V30 2120 C 200.21 0.687111 -2.68652 0
M  V30 2121 H 203.161 -0.0771063 -1.58513 0
M  V30 2122 H 203.182 2.16224 -3.13093 0
M  V30 2123 H 202.694 0.485382 -3.85053 0
M  V30 2124 H 200.795 2.63203 -2.63732 0
M  V30 2125 H 200.908 1.92903 -4.38549 0
M  V30 2126 H 199.272 1.11335 -2.29078 0
M  V30 2127 H 200.055 -0.108483 -3.43129 0
M  V30 2128 N 202.5 1.5196 0.417844 0
M  V30 2129 C 203.41 1.77554 1.53336 0
M  V30 2130 C 204.426 0.660655 1.6097 0
M  V30 2131 O 205.602 0.945099 1.77848 0
M  V30 2132 C 202.667 1.91291 2.89152 0
M  V30 2133 C 201.728 3.15183 2.91475 0
M  V30 2134 C 200.961 3.28256 4.20813 0
M  V30 2135 O 201.184 2.46798 5.14244 0
M  V30 2136 O 200.118 4.21356 4.29817 0
M  V30 2137 H 203.944 2.7222 1.34647 0
M  V30 2138 H 201.529 1.36698 0.602828 0
M  V30 2139 H 203.411 2.02199 3.69721 0
M  V30 2140 H 202.086 0.998129 3.07927 0
M  V30 2141 H 200.993 3.09739 2.09791 0
M  V30 2142 H 202.326 4.06414 2.77648 0
M  V30 2143 N 203.978 -0.674533 1.42435 0
M  V30 2144 C 204.888 -1.81751 1.48337 0
M  V30 2145 C 205.904 -1.69975 0.372099 0
M  V30 2146 O 207.08 -1.91521 0.62304 0
M  V30 2147 C 204.145 -3.17895 1.38361 0
M  V30 2148 C 203.206 -3.41625 2.59982 0
M  V30 2149 C 202.439 -4.71274 2.50473 0
M  V30 2150 O 202.662 -5.49197 1.54075 0
M  V30 2151 O 201.596 -4.96254 3.4061 0
M  V30 2152 H 205.422 -1.79728 2.44809 0
M  V30 2153 H 203.007 -0.830312 1.24202 0
M  V30 2154 H 204.889 -3.99136 1.35161 0
M  V30 2155 H 203.564 -3.20555 0.450144 0
M  V30 2156 H 202.471 -2.60231 2.68757 0
M  V30 2157 H 203.804 -3.43796 3.52229 0
M  V30 2158 N 205.456 -1.28612 -0.910864 0
M  V30 2159 C 206.388 -1.08589 -2.01844 0
M  V30 2160 C 207.401 -0.0367419 -1.62759 0
M  V30 2161 O 208.59 -0.280101 -1.76289 0
M  V30 2162 C 205.69 -0.628626 -3.33019 0
M  V30 2163 C 204.863 -1.75382 -4.00699 0
M  V30 2164 C 203.922 -1.28945 -5.10156 0
M  V30 2165 O 202.948 -1.9922 -5.33198 0
M  V30 2166 N 204.15 -0.154224 -5.80295 0
M  V30 2167 H 206.915 -2.03973 -2.19579 0
M  V30 2168 H 204.476 -1.20403 -1.08234 0
M  V30 2169 H 206.468 -0.301508 -4.03575 0
M  V30 2170 H 205.038 0.232451 -3.11735 0
M  V30 2171 H 204.258 -2.25039 -3.23653 0
M  V30 2172 H 205.546 -2.50854 -4.42662 0
M  V30 2173 H 204.944 0.43194 -5.64049 0
M  V30 2174 H 203.501 0.113599 -6.51701 0
M  V30 2175 N 206.934 1.1197 -1.10907 0
M  V30 2176 C 207.864 2.19928 -0.784473 0
M  V30 2177 C 208.845 1.6833 0.244726 0
M  V30 2178 O 210.03 1.93892 0.109418 0
M  V30 2179 C 207.16 3.46597 -0.220827 0
M  V30 2180 C 206.114 4.11376 -1.18127 0
M  V30 2181 C 205.44 5.32554 -0.478594 0
M  V30 2182 C 206.74 4.56945 -2.52979 0
M  V30 2183 H 208.434 2.47337 -1.68715 0
M  V30 2184 H 205.98 1.18879 -0.812642 0
M  V30 2185 H 207.933 4.21396 0.0184278 0
M  V30 2186 H 206.657 3.1863 0.717113 0
M  V30 2187 H 205.316 3.38564 -1.40606 0
M  V30 2188 H 204.964 5.00856 0.463976 0
M  V30 2189 H 204.664 5.76844 -1.11912 0
M  V30 2190 H 206.188 6.10096 -0.248 0
M  V30 2191 H 207.602 5.23093 -2.3462 0
M  V30 2192 H 205.999 5.1203 -3.12962 0
M  V30 2193 H 207.069 3.70676 -3.12614 0
M  V30 2194 N 208.412 0.89855 1.29475 0
M  V30 2195 C 209.342 0.39201 2.30186 0
M  V30 2196 C 210.323 -0.532359 1.61555 0
M  V30 2197 O 211.508 -0.443331 1.89072 0
M  V30 2198 C 208.638 -0.382353 3.45189 0
M  V30 2199 C 207.592 0.451483 4.25612 0
M  V30 2200 C 206.918 -0.450307 5.328 0
M  V30 2201 C 208.218 1.70079 4.93832 0
M  V30 2202 H 209.912 1.23362 2.72804 0
M  V30 2203 H 207.458 0.594638 1.31149 0
M  V30 2204 H 209.411 -0.747451 4.14718 0
M  V30 2205 H 208.135 -1.25774 3.01411 0
M  V30 2206 H 206.794 0.798897 3.57789 0
M  V30 2207 H 206.442 -1.32379 4.85268 0
M  V30 2208 H 206.142 0.103902 5.87508 0
M  V30 2209 H 207.666 -0.811623 6.05182 0
M  V30 2210 H 209.08 1.40549 5.55805 0
M  V30 2211 H 207.477 2.19623 5.58467 0
M  V30 2212 H 208.547 2.43744 4.19186 0
M  V30 2213 N 209.89 -1.43072 0.660911 0
M  V30 2214 C 211.137 -2.01721 0.177445 0
M  V30 2215 C 211.465 -1.5218 -1.21126 0
M  V30 2216 O 210.72 -0.708659 -1.82419 0
M  V30 2217 C 211.019 -3.57103 0.145563 0
M  V30 2218 C 210.685 -4.26021 1.47705 0
M  V30 2219 C 209.347 -4.44563 1.84165 0
M  V30 2220 C 211.699 -4.64983 2.35458 0
M  V30 2221 C 209.027 -4.99334 3.0803 0
M  V30 2222 C 211.379 -5.21127 3.58622 0
M  V30 2223 C 210.043 -5.37884 3.95268 0
M  V30 2224 H 209.313 -0.73815 0.0649317 0
M  V30 2225 H 211.96 -1.71446 0.853144 0
M  V30 2226 H 210.265 -3.86965 -0.61361 0
M  V30 2227 H 211.962 -4.00248 -0.2455 0
M  V30 2228 H 208.552 -4.11939 1.18339 0
M  V30 2229 H 212.736 -4.50343 2.08579 0
M  V30 2230 H 207.992 -5.10493 3.36462 0
M  V30 2231 H 212.166 -5.50262 4.26831 0
M  V30 2232 H 209.793 -5.80089 4.91325 0
M  V30 2233 N 211.368 -0.403325 -1.52352 0
M  V30 2234 C 212.298 0.416205 -2.29761 0
M  V30 2235 C 213.279 1.05123 -1.33728 0
M  V30 2236 O 214.464 1.06134 -1.62632 0
M  V30 2237 C 211.594 1.53624 -3.11475 0
M  V30 2238 C 210.548 1.02653 -4.15507 0
M  V30 2239 C 209.874 2.23971 -4.85532 0
M  V30 2240 C 211.174 0.08463 -5.22231 0
M  V30 2241 H 212.868 -0.229701 -2.98518 0
M  V30 2242 H 210.414 -0.111913 -1.43564 0
M  V30 2243 H 212.367 2.1165 -3.64393 0
M  V30 2244 H 211.091 2.20994 -2.40477 0
M  V30 2245 H 209.75 0.46871 -3.63591 0
M  V30 2246 H 209.398 2.89883 -4.11068 0
M  V30 2247 H 209.098 1.90521 -5.55856 0
M  V30 2248 H 210.622 2.82614 -5.41259 0
M  V30 2249 H 212.036 0.573509 -5.70424 0
M  V30 2250 H 210.433 -0.160783 -5.99885 0
M  V30 2251 H 211.503 -0.86237 -4.7717 0
M  V30 2252 N 212.846 1.57033 -0.133567 0
M  V30 2253 C 214.076 1.99754 0.527429 0
M  V30 2254 C 214.484 1.01245 1.59832 0
M  V30 2255 O 213.827 -0.000645496 1.837 0
M  V30 2256 C 213.889 3.38903 1.19939 0
M  V30 2257 C 213.553 4.56174 0.274709 0
M  V30 2258 C 214.55 5.17563 -0.492398 0
M  V30 2259 C 212.235 5.01972 0.18153 0
M  V30 2260 C 214.229 6.2315 -1.34027 0
M  V30 2261 C 211.916 6.07416 -0.669958 0
M  V30 2262 C 212.914 6.67874 -1.42947 0
M  V30 2263 O 212.602 7.71279 -2.2668 0
M  V30 2264 H 212.334 0.660702 0.142999 0
M  V30 2265 H 214.888 2.04207 -0.221099 0
M  V30 2266 H 213.118 3.31248 1.99528 0
M  V30 2267 H 214.807 3.65818 1.75875 0
M  V30 2268 H 215.573 4.83087 -0.430367 0
M  V30 2269 H 211.452 4.54652 0.762422 0
M  V30 2270 H 214.996 6.70268 -1.93357 0
M  V30 2271 H 210.893 6.41321 -0.73333 0
M  V30 2272 H 211.661 7.88441 -2.1978 0
M  V30 2273 N 214.325 -0.140222 1.56975 0
M  V30 2274 C 215.574 -0.850152 1.82908 0
M  V30 2275 C 215.887 -1.82028 0.715892 0
M  V30 2276 O 217.093 -2.57485 0.861016 0
M  V30 2277 C 215.549 -1.5625 3.24213 0
M  V30 2278 C 215.157 -0.63443 4.43485 0
M  V30 2279 C 216.901 -2.25881 3.59413 0
M  V30 2280 C 214.808 -1.34879 5.75814 0
M  V30 2281 H 213.738 -0.321221 0.682153 0
M  V30 2282 H 216.389 -0.102874 1.83211 0
M  V30 2283 H 214.771 -2.35565 3.18316 0
M  V30 2284 H 215.945 0.12398 4.60633 0
M  V30 2285 H 214.26 -0.0461836 4.16374 0
M  V30 2286 H 216.857 -2.79978 4.5554 0
M  V30 2287 H 217.2 -3.02693 2.85802 0
M  V30 2288 H 217.733 -1.53477 3.67001 0
M  V30 2289 H 214.472 -0.622385 6.52539 0
M  V30 2290 H 213.992 -2.07974 5.6259 0
M  V30 2291 H 215.671 -1.88784 6.18845 0
M  V30 2292 N 215.803 -1.52179 -0.40978 0
M  V30 2293 C 217.052 -1.65434 -1.15388 0
M  V30 2294 C 217.365 -0.390056 -1.91671 0
M  V30 2295 O 218.571 -0.402399 -2.68501 0
M  V30 2296 C 217.027 -2.92279 -2.10003 0
M  V30 2297 C 216.635 -4.25813 -1.39239 0
M  V30 2298 C 218.379 -3.14897 -2.84675 0
M  V30 2299 C 216.286 -5.43782 -2.32498 0
M  V30 2300 H 215.216 -0.616267 -0.434432 0
M  V30 2301 H 217.867 -1.78666 -0.418401 0
M  V30 2302 H 216.249 -2.72744 -2.871 0
M  V30 2303 H 217.423 -4.55828 -0.675099 0
M  V30 2304 H 215.738 -4.09292 -0.766097 0
M  V30 2305 H 218.335 -4.0021 -3.54593 0
M  V30 2306 H 218.678 -2.29103 -3.47588 0
M  V30 2307 H 219.211 -3.34901 -2.14677 0
M  V30 2308 H 215.95 -6.3192 -1.74233 0
M  V30 2309 H 215.47 -5.18106 -3.02201 0
M  V30 2310 H 217.149 -5.76834 -2.93038 0
M  V30 2311 N 217.281 0.66697 -1.42791 0
M  V30 2312 C 218.511 1.45294 -1.46878 0
M  V30 2313 C 218.919 1.89027 -0.0809861 0
M  V30 2314 O 218.262 1.59219 0.916246 0
M  V30 2315 C 218.324 2.72908 -2.34012 0
M  V30 2316 C 217.988 2.51203 -3.81767 0
M  V30 2317 C 218.985 2.15302 -4.73224 0
M  V30 2318 C 216.67 2.65954 -4.26115 0
M  V30 2319 C 218.664 1.94431 -6.07022 0
M  V30 2320 C 216.351 2.44699 -5.59969 0
M  V30 2321 C 217.349 2.08992 -6.5024 0
M  V30 2322 O 217.037 1.87948 -7.81621 0
M  V30 2323 H 216.769 0.453306 -0.501487 0
M  V30 2324 H 219.323 0.826232 -1.88049 0
M  V30 2325 H 217.553 3.38089 -1.87703 0
M  V30 2326 H 219.242 3.34816 -2.29462 0
M  V30 2327 H 220.008 2.03495 -4.40244 0
M  V30 2328 H 215.887 2.92724 -3.56137 0
M  V30 2329 H 219.431 1.66484 -6.77443 0
M  V30 2330 H 215.328 2.56105 -5.9252 0
M  V30 2331 H 216.096 2.02483 -7.93059 0
M  V30 2332 N 218.759 1.29093 0.90403 0
M  V30 2333 C 219.987 1.19689 1.68766 0
M  V30 2334 C 220.402 -0.243113 1.87228 0
M  V30 2335 O 219.759 -1.16326 1.40621 0
M  V30 2336 C 219.81 1.90144 3.07453 0
M  V30 2337 O 219.531 3.2852 2.89838 0
M  V30 2338 C 221.032 1.87162 4.01852 0
M  V30 2339 H 218.252 0.415035 0.527244 0
M  V30 2340 H 220.796 1.7039 1.13082 0
M  V30 2341 H 218.951 1.43289 3.59926 0
M  V30 2342 H 219.365 3.63944 3.77684 0
M  V30 2343 H 220.839 2.41032 4.96596 0
M  V30 2344 H 221.316 0.84617 4.30972 0
M  V30 2345 H 221.922 2.33741 3.5531 0
M  V30 2346 N 220.237 -1.11381 1.11499 0
M  V30 2347 C 221.483 -1.83403 0.865512 0
M  V30 2348 C 221.816 -1.84459 -0.607329 0
M  V30 2349 O 221.091 -1.29811 -1.44842 0
M  V30 2350 C 221.374 -3.30552 1.42855 0
M  V30 2351 C 221.227 -3.37886 2.96906 0
M  V30 2352 C 222.546 -4.26643 1.08 0
M  V30 2353 H 219.665 -0.665879 0.31587 0
M  V30 2354 H 222.307 -1.30601 1.37998 0
M  V30 2355 H 220.457 -3.75648 0.990985 0
M  V30 2356 H 222.129 -3.01343 3.49271 0
M  V30 2357 H 220.372 -2.78088 3.32941 0
M  V30 2358 H 221.043 -4.41458 3.31389 0
M  V30 2359 H 223.519 -3.89729 1.45775 0
M  V30 2360 H 222.395 -5.27986 1.50072 0
M  V30 2361 H 222.656 -4.42099 -0.00915037 0
M  V30 2362 N 221.715 -0.905404 -1.28997 0
M  V30 2363 C 222.963 -0.533192 -1.9494 0
M  V30 2364 C 223.284 0.924618 -1.71685 0
M  V30 2365 O 222.554 1.65268 -1.05183 0
M  V30 2366 H 221.134 -0.194194 -0.721317 0
M  V30 2367 H 223.796 -1.15294 -1.57141 0
M  V30 2368 H 222.892 -0.72059 -3.03667 0
M  V30 2369 N 223.193 1.4272 -0.668489 0
M  V30 2370 C 224.423 2.05668 -0.196063 0
M  V30 2371 C 224.831 1.5028 1.14946 0
M  V30 2372 O 224.174 0.6348 1.72383 0
M  V30 2373 C 224.236 3.59469 -0.0468879 0
M  V30 2374 C 223.9 4.37518 -1.32012 0
M  V30 2375 C 224.897 4.68584 -2.25222 0
M  V30 2376 C 222.582 4.77266 -1.56596 0
M  V30 2377 C 224.576 5.38326 -3.41297 0
M  V30 2378 C 222.263 5.4675 -2.72962 0
M  V30 2379 C 223.261 5.77204 -3.65137 0
M  V30 2380 O 222.949 6.45264 -4.79468 0
M  V30 2381 H 222.681 0.669382 -0.0943599 0
M  V30 2382 H 225.235 1.83954 -0.913788 0
M  V30 2383 H 223.465 3.79817 0.726357 0
M  V30 2384 H 225.154 4.04071 0.384852 0
M  V30 2385 H 225.92 4.38382 -2.07477 0
M  V30 2386 H 221.799 4.52959 -0.857249 0
M  V30 2387 H 225.343 5.62014 -4.13263 0
M  V30 2388 H 221.24 5.76369 -2.90635 0
M  V30 2389 H 222.008 6.63753 -4.78931 0
M  V30 2390 N 224.671 0.411399 1.52136 0
M  V30 2391 C 225.634 -0.401089 2.25663 0
M  V30 2392 C 226.634 -0.971732 1.28117 0
M  V30 2393 O 227.824 -0.850254 1.52041 0
M  V30 2394 C 224.956 -1.56483 3.02863 0
M  V30 2395 H 226.149 0.24295 2.98914 0
M  V30 2396 H 223.702 0.163968 1.55438 0
M  V30 2397 H 224.437 -2.24567 2.33967 0
M  V30 2398 H 224.222 -1.16211 3.74483 0
M  V30 2399 H 225.712 -2.13951 3.58629 0
M  V30 2400 N 226.149 -1.5696 0.141893 0
M  V30 2401 C 227.079 -2.19516 -0.795936 0
M  V30 2402 C 228.06 -1.14187 -1.26077 0
M  V30 2403 O 229.245 -1.42511 -1.31925 0
M  V30 2404 C 226.375 -2.81272 -2.03723 0
M  V30 2405 C 225.329 -3.92384 -1.70936 0
M  V30 2406 C 224.655 -4.41052 -3.02287 0
M  V30 2407 C 225.955 -5.13403 -0.959954 0
M  V30 2408 H 227.649 -2.98138 -0.274596 0
M  V30 2409 H 225.195 -1.43406 -0.130636 0
M  V30 2410 H 227.148 -3.237 -2.69808 0
M  V30 2411 H 225.872 -1.99973 -2.58221 0
M  V30 2412 H 224.531 -3.50566 -1.07232 0
M  V30 2413 H 224.179 -3.56582 -3.54765 0
M  V30 2414 H 223.879 -5.15993 -2.81114 0
M  V30 2415 H 225.403 -4.86146 -3.69451 0
M  V30 2416 H 226.817 -5.52706 -1.52279 0
M  V30 2417 H 225.214 -5.94073 -0.848357 0
M  V30 2418 H 226.284 -4.84875 0.0492434 0
M  V30 2419 N 227.627 0.131896 -1.57047 0
M  V30 2420 C 228.852 0.860418 -1.8871 0
M  V30 2421 C 229.277 1.73251 -0.73251 0
M  V30 2422 O 228.635 1.785 0.317429 0
M  V30 2423 C 228.683 1.68047 -3.19049 0
M  V30 2424 O 227.787 2.7862 -3.04047 0
M  V30 2425 H 227.128 0.238743 -0.619595 0
M  V30 2426 H 229.658 0.118169 -2.04258 0
M  V30 2427 H 229.668 2.07238 -3.51449 0
M  V30 2428 H 228.343 1.04018 -4.02682 0
M  V30 2429 H 226.92 2.42726 -2.83088 0
M  V30 2430 N 229.106 1.52395 0.401703 0
M  V30 2431 C 230.353 1.66817 1.14796 0
M  V30 2432 C 230.681 0.401772 1.90305 0
M  V30 2433 O 229.936 -0.615487 1.85769 0
M  V30 2434 C 230.235 2.84578 2.16217 0
M  V30 2435 C 229.901 4.22513 1.5746 0
M  V30 2436 C 228.563 4.60029 1.41161 0
M  V30 2437 C 230.915 5.0844 1.14622 0
M  V30 2438 C 228.243 5.81144 0.80552 0
M  V30 2439 C 230.595 6.30167 0.55428 0
M  V30 2440 C 229.259 6.66426 0.378482 0
M  V30 2441 H 228.529 0.610428 0.420069 0
M  V30 2442 H 231.176 1.86512 0.434212 0
M  V30 2443 H 229.481 2.59248 2.93764 0
M  V30 2444 H 231.178 2.92933 2.73845 0
M  V30 2445 H 227.768 3.92953 1.71132 0
M  V30 2446 H 231.952 4.80034 1.26021 0
M  V30 2447 H 227.208 6.07855 0.657399 0
M  V30 2448 H 231.382 6.96071 0.213983 0
M  V30 2449 H 229.009 7.60143 -0.0932606 0
M  V30 2450 N 230.584 -0.659388 1.43143 0
M  V30 2451 C 231.809 -1.45221 1.48073 0
M  V30 2452 C 232.234 -1.87845 0.097995 0
M  V30 2453 O 231.592 -1.56985 -0.90694 0
M  V30 2454 C 231.64 -2.66748 2.42647 0
M  V30 2455 O 230.744 -3.65583 1.90848 0
M  V30 2456 H 230.085 -0.435669 0.501088 0
M  V30 2457 H 232.615 -0.807432 1.87994 0
M  V30 2458 H 232.625 -3.14637 2.59745 0
M  V30 2459 H 231.3 -2.35067 3.43098 0
M  V30 2460 H 229.877 -3.24693 1.83381 0
M  V30 2461 N 232.062 -1.29571 -0.897171 0
M  V30 2462 C 233.025 -1.14913 -1.98312 0
M  V30 2463 C 234.025 -0.0838629 -1.60581 0
M  V30 2464 O 235.215 -0.331006 -1.71026 0
M  V30 2465 C 232.347 -0.757835 -3.3237 0
M  V30 2466 H 233.54 -2.11377 -2.12743 0
M  V30 2467 H 231.093 -1.12793 -1.08201 0
M  V30 2468 H 231.828 0.206837 -3.2364 0
M  V30 2469 H 231.613 -1.52755 -3.61121 0
M  V30 2470 H 233.103 -0.678408 -4.12053 0
M  V30 2471 N 233.54 1.10788 -1.12088 0
M  V30 2472 C 234.47 2.19083 -0.807755 0
M  V30 2473 C 235.451 1.6858 0.226859 0
M  V30 2474 O 236.636 1.93997 0.0888475 0
M  V30 2475 C 233.766 3.46344 -0.257576 0
M  V30 2476 C 232.72 4.101 -1.22483 0
M  V30 2477 C 232.046 5.32016 -0.535052 0
M  V30 2478 C 233.346 4.54236 -2.57811 0
M  V30 2479 H 235.04 2.45534 -1.71328 0
M  V30 2480 H 232.586 1.1801 -0.825205 0
M  V30 2481 H 234.539 4.21392 -0.0262679 0
M  V30 2482 H 233.263 3.19373 0.683278 0
M  V30 2483 H 231.922 3.37054 -1.44189 0
M  V30 2484 H 231.57 5.01319 0.410827 0
M  V30 2485 H 231.27 5.75625 -1.18024 0
M  V30 2486 H 232.794 6.09799 -0.312695 0
M  V30 2487 H 234.208 5.20575 -2.40155 0
M  V30 2488 H 232.605 5.08682 -3.18375 0
M  V30 2489 H 233.675 3.6734 -3.16528 0
M  V30 2490 N 235.018 0.912232 1.28515 0
M  V30 2491 C 236.264 0.545405 1.95328 0
M  V30 2492 C 236.597 -0.908313 1.71649 0
M  V30 2493 O 235.872 -1.64575 1.03659 0
M  V30 2494 C 236.155 0.853483 3.4984 0
M  V30 2495 C 236.008 2.35982 3.82926 0
M  V30 2496 C 237.327 0.348589 4.38717 0
M  V30 2497 H 234.446 0.199626 0.709449 0
M  V30 2498 H 237.088 1.1412 1.5191 0
M  V30 2499 H 235.238 0.34643 3.86952 0
M  V30 2500 H 236.91 2.93738 3.55691 0
M  V30 2501 H 235.153 2.81543 3.30024 0
M  V30 2502 H 235.824 2.52593 4.90816 0
M  V30 2503 H 238.3 0.78294 4.08668 0
M  V30 2504 H 237.176 0.593242 5.45685 0
M  V30 2505 H 237.437 -0.751049 4.35674 0
M  V30 2506 N 236.496 -1.42363 0.676048 0
M  V30 2507 C 237.745 -2.00745 0.196037 0
M  V30 2508 C 238.058 -1.54083 -1.20489 0
M  V30 2509 O 239.264 -2.04891 -1.78134 0
M  V30 2510 C 237.72 -3.58651 0.299616 0
M  V30 2511 C 237.328 -4.143 1.70468 0
M  V30 2512 C 239.072 -4.24326 -0.121619 0
M  V30 2513 C 236.979 -5.64574 1.76096 0
M  V30 2514 H 235.909 -0.750787 0.0695301 0
M  V30 2515 H 238.56 -1.63072 0.841412 0
M  V30 2516 H 236.942 -3.93833 -0.413673 0
M  V30 2517 H 238.116 -3.90575 2.44515 0
M  V30 2518 H 236.431 -3.61081 2.07387 0
M  V30 2519 H 239.028 -5.34607 -0.0997362 0
M  V30 2520 H 239.371 -3.99897 -1.15708 0
M  V30 2521 H 239.904 -3.94108 0.540706 0
M  V30 2522 H 236.643 -5.93804 2.77628 0
M  V30 2523 H 236.163 -5.90286 1.06406 0
M  V30 2524 H 237.842 -6.29013 1.51496 0
M  V30 2525 N 237.974 -0.419461 -1.51915 0
M  V30 2526 C 238.937 0.389116 -2.25873 0
M  V30 2527 C 239.937 0.964924 -1.28631 0
M  V30 2528 O 241.127 0.842179 -1.52489 0
M  V30 2529 C 238.259 1.54874 -3.03689 0
M  V30 2530 H 239.452 -0.258799 -2.98781 0
M  V30 2531 H 237.005 -0.172209 -1.55348 0
M  V30 2532 H 237.74 2.23323 -2.35154 0
M  V30 2533 H 237.525 1.14223 -3.75094 0
M  V30 2534 H 239.015 2.12046 -3.59759 0
M  V30 2535 N 239.452 1.56882 -0.150215 0
M  V30 2536 C 240.677 2.01027 0.510184 0
M  V30 2537 C 241.102 1.02966 1.57415 0
M  V30 2538 O 240.46 0.00590158 1.81299 0
M  V30 2539 C 240.508 3.43899 1.08472 0
M  V30 2540 O 239.612 3.4885 2.19948 0
M  V30 2541 H 238.953 0.652233 0.124451 0
M  V30 2542 H 241.483 2.03093 -0.247894 0
M  V30 2543 H 241.493 3.82766 1.41259 0
M  V30 2544 H 240.168 4.14776 0.305582 0
M  V30 2545 H 238.745 3.21827 1.88366 0
M  V30 2546 N 240.93 -0.123565 1.57115 0
M  V30 2547 C 241.893 -1.13583 1.99076 0
M  V30 2548 C 242.893 -1.34564 0.880296 0
M  V30 2549 O 244.083 -1.31158 1.14644 0
M  V30 2550 C 241.215 -2.49128 2.32698 0
M  V30 2551 H 242.408 -0.775287 2.89706 0
M  V30 2552 H 239.961 -0.36771 1.51913 0
M  V30 2553 H 240.696 -2.90111 1.44934 0
M  V30 2554 H 240.481 -2.35255 3.13684 0
M  V30 2555 H 241.971 -3.2199 2.65918 0
M  V30 2556 N 242.408 -1.52605 -0.393616 0
M  V30 2557 C 243.657 -1.66649 -1.13627 0
M  V30 2558 C 243.97 -0.410364 -1.91247 0
M  V30 2559 O 245.176 -0.430854 -2.68059 0
M  V30 2560 C 243.632 -2.9449 -2.06891 0
M  V30 2561 C 243.24 -4.27266 -1.34714 0
M  V30 2562 C 244.984 -3.17899 -2.81319 0
M  V30 2563 C 242.891 -5.46217 -2.26717 0
M  V30 2564 H 241.821 -0.62084 -0.427871 0
M  V30 2565 H 244.472 -1.791 -0.399428 0
M  V30 2566 H 242.854 -2.75774 -2.84191 0
M  V30 2567 H 244.028 -4.56518 -0.626714 0
M  V30 2568 H 242.343 -4.10081 -0.722643 0
M  V30 2569 H 244.94 -4.03949 -3.50328 0
M  V30 2570 H 245.283 -2.32777 -3.45139 0
M  V30 2571 H 245.816 -3.37159 -2.11113 0
M  V30 2572 H 242.555 -6.33733 -1.67521 0
M  V30 2573 H 242.075 -5.21283 -2.96689 0
M  V30 2574 H 243.754 -5.7991 -2.86903 0
M  V30 2575 N 243.887 0.651787 -1.4349 0
M  V30 2576 C 244.817 1.77621 -1.51569 0
M  V30 2577 C 245.798 1.66022 -0.370253 0
M  V30 2578 O 246.983 1.85095 -0.587658 0
M  V30 2579 C 244.113 3.16056 -1.43966 0
M  V30 2580 C 243.067 3.4242 -2.56774 0
M  V30 2581 C 242.393 4.8067 -2.34223 0
M  V30 2582 C 243.693 3.37023 -3.99015 0
M  V30 2583 H 245.387 1.71117 -2.45681 0
M  V30 2584 H 242.933 0.821825 -1.18246 0
M  V30 2585 H 244.886 3.94472 -1.48221 0
M  V30 2586 H 243.61 3.23293 -0.463586 0
M  V30 2587 H 242.269 2.66375 -2.51873 0
M  V30 2588 H 241.917 4.84585 -1.34856 0
M  V30 2589 H 241.617 4.9927 -3.09844 0
M  V30 2590 H 243.141 5.61342 -2.40265 0
M  V30 2591 H 244.555 4.05374 -4.05395 0
M  V30 2592 H 242.952 3.67159 -4.74673 0
M  V30 2593 H 244.022 2.3518 -4.2405 0
M  V30 2594 N 245.365 1.30045 0.890287 0
M  V30 2595 C 246.295 1.18541 2.01172 0
M  V30 2596 C 247.276 0.0773356 1.69924 0
M  V30 2597 O 248.461 0.25845 1.92473 0
M  V30 2598 C 245.591 0.870941 3.36202 0
M  V30 2599 C 244.545 1.93637 3.81692 0
M  V30 2600 C 243.871 1.475 5.13953 0
M  V30 2601 C 245.171 3.34666 4.00994 0
M  V30 2602 H 246.865 2.12359 2.11054 0
M  V30 2603 H 244.411 1.02238 1.01407 0
M  V30 2604 H 246.364 0.777141 4.14172 0
M  V30 2605 H 245.088 -0.102926 3.26438 0
M  V30 2606 H 243.747 2.01972 3.05946 0
M  V30 2607 H 243.395 0.489551 5.00612 0
M  V30 2608 H 243.095 2.1876 5.4536 0
M  V30 2609 H 244.619 1.39489 5.94454 0
M  V30 2610 H 246.033 3.2912 4.69417 0
M  V30 2611 H 244.43 4.03966 4.43769 0
M  V30 2612 H 245.5 3.76949 3.05021 0
M  V30 2613 N 246.843 -1.10192 1.12674 0
M  V30 2614 C 248.091 -1.81845 0.881861 0
M  V30 2615 C 248.412 -1.85737 -0.593867 0
M  V30 2616 O 247.682 -1.33724 -1.4316 0
M  V30 2617 H 246.262 -0.673432 0.323261 0
M  V30 2618 H 248.924 -1.33316 1.42172 0
M  V30 2619 H 248.02 -2.85288 1.2656 0
M  V30 2620 N 248.321 -0.919034 -1.28029 0
M  V30 2621 C 249.568 -0.554934 -1.94748 0
M  V30 2622 C 249.896 0.90231 -1.72304 0
M  V30 2623 O 249.151 1.65767 -1.04018 0
M  V30 2624 C 249.45 -0.816855 -3.4794 0
M  V30 2625 C 249.116 -2.25448 -3.90492 0
M  V30 2626 C 247.778 -2.64752 -4.01821 0
M  V30 2627 C 250.13 -3.18977 -4.12193 0
M  V30 2628 C 247.458 -3.96727 -4.32232 0
M  V30 2629 C 249.81 -4.50523 -4.44086 0
M  V30 2630 C 248.474 -4.89673 -4.53626 0
M  V30 2631 H 247.744 -0.203065 -0.712633 0
M  V30 2632 H 250.391 -1.16136 -1.52265 0
M  V30 2633 H 248.696 -0.127677 -3.91592 0
M  V30 2634 H 250.393 -0.514238 -3.97689 0
M  V30 2635 H 246.983 -1.93952 -3.82205 0
M  V30 2636 H 251.167 -2.89817 -4.02889 0
M  V30 2637 H 246.423 -4.26754 -4.37825 0
M  V30 2638 H 250.597 -5.23005 -4.59825 0
M  V30 2639 H 248.224 -5.91969 -4.76946 0
M  V30 2640 N 249.799 1.42003 -0.683588 0
M  V30 2641 C 251.215 1.55625 -0.353976 0
M  V30 2642 C 251.415 1.66151 1.14 0
M  V30 2643 O 250.471 1.63329 1.92561 0
M  V30 2644 C 251.784 2.80171 -1.092 0
M  V30 2645 C 253.332 2.93954 -1.07518 0
M  V30 2646 C 253.807 4.21372 -1.79471 0
M  V30 2647 N 255.298 4.28303 -1.76381 0
M  V30 2648 C 256.033 5.25729 -2.28904 0
M  V30 2649 N 255.529 6.29254 -2.89846 0
M  V30 2650 N 257.322 5.17586 -2.19228 0
M  V30 2651 H 249.473 1.33415 -1.6527 0
M  V30 2652 H 251.736 0.64282 -0.696769 0
M  V30 2653 H 251.442 2.78561 -2.14701 0
M  V30 2654 H 251.316 3.7133 -0.662862 0
M  V30 2655 H 253.703 2.95086 -0.028475 0
M  V30 2656 H 253.784 2.04002 -1.54328 0
M  V30 2657 H 253.428 4.21001 -2.84114 0
M  V30 2658 H 253.358 5.10275 -1.30104 0
M  V30 2659 H 255.849 3.54119 -1.31939 0
M  V30 2660 H 256.162 6.99964 -3.27522 0
M  V30 2661 H 254.507 6.29791 -2.93919 0
M  V30 2662 H 257.698 4.35631 -1.71299 0
M  V30 2663 H 257.871 5.93348 -2.60466 0
M  V30 2664 N 251.277 0.427512 1.51691 0
M  V30 2665 C 252.227 -0.406604 2.24345 0
M  V30 2666 C 253.211 -0.998276 1.26187 0
M  V30 2667 O 254.403 -0.918045 1.51331 0
M  V30 2668 C 251.532 -1.51266 3.08177 0
M  V30 2669 C 250.618 -0.930868 4.13758 0
M  V30 2670 N 251.009 -0.0773552 5.05741 0
M  V30 2671 C 249.307 -1.19948 4.29568 0
M  V30 2672 C 250.008 0.248344 5.8117 0
M  V30 2673 N 248.984 -0.365535 5.4237 0
M  V30 2674 H 252.786 0.251581 2.92821 0
M  V30 2675 H 250.3 0.239003 1.60632 0
M  V30 2676 H 252.297 -2.123 3.58796 0
M  V30 2677 H 250.957 -2.17328 2.41244 0
M  V30 2678 H 251.968 0.288351 5.17097 0
M  V30 2679 H 248.645 -1.85832 3.73862 0
M  V30 2680 H 250.035 0.942286 6.6526 0
M  V30 2681 N 252.755 -1.56801 0.158532 0
M  V30 2682 C 253.685 -2.20347 -0.772609 0
M  V30 2683 C 254.666 -1.15518 -1.24859 0
M  V30 2684 O 255.851 -1.43902 -1.30406 0
M  V30 2685 C 252.981 -2.83417 -2.00729 0
M  V30 2686 C 251.935 -3.94174 -1.66765 0
M  V30 2687 C 251.261 -4.44233 -2.97592 0
M  V30 2688 C 252.561 -5.14392 -0.905447 0
M  V30 2689 H 254.255 -2.98413 -0.242959 0
M  V30 2690 H 251.801 -1.43537 -0.115419 0
M  V30 2691 H 253.754 -3.26543 -2.6636 0
M  V30 2692 H 252.478 -2.02701 -2.56086 0
M  V30 2693 H 251.137 -3.51684 -1.03508 0
M  V30 2694 H 250.785 -3.60325 -3.50963 0
M  V30 2695 H 250.485 -5.18945 -2.75626 0
M  V30 2696 H 252.009 -4.90037 -3.64274 0
M  V30 2697 H 253.423 -5.5429 -1.46408 0
M  V30 2698 H 251.82 -5.9494 -0.7853 0
M  V30 2699 H 252.89 -4.84795 0.100668 0
M  V30 2700 N 254.233 0.115231 -1.57178 0
M  V30 2701 C 255.183 1.14707 -1.97044 0
M  V30 2702 C 256.167 1.36866 -0.845957 0
M  V30 2703 O 257.359 1.37895 -1.10968 0
M  V30 2704 C 254.488 2.47266 -2.38148 0
M  V30 2705 C 253.574 2.28566 -3.57237 0
M  V30 2706 N 253.965 1.79685 -4.72807 0
M  V30 2707 C 252.263 2.59208 -3.62943 0
M  V30 2708 C 252.964 1.74781 -5.54821 0
M  V30 2709 N 251.94 2.19264 -4.97417 0
M  V30 2710 H 255.742 0.761754 -2.83857 0
M  V30 2711 H 253.256 0.322928 -1.59157 0
M  V30 2712 H 255.253 3.219 -2.64927 0
M  V30 2713 H 253.913 2.86552 -1.52702 0
M  V30 2714 H 254.924 1.49177 -4.9595 0
M  V30 2715 H 251.601 3.02154 -2.88113 0
M  V30 2716 H 252.991 1.38212 -6.57531 0
M  V30 2717 N 255.711 1.52812 0.385517 0
M  V30 2718 C 256.951 1.69716 1.13911 0
M  V30 2719 C 257.315 0.42962 1.87132 0
M  V30 2720 O 258.516 0.475071 2.64569 0
M  V30 2721 C 256.787 2.90021 2.0886 0
M  V30 2722 S 258.346 3.27531 2.92009 0
M  V30 2723 H 255.164 0.59739 0.385547 0
M  V30 2724 H 257.766 1.90868 0.423061 0
M  V30 2725 H 256.47 3.80493 1.53797 0
M  V30 2726 H 256.001 2.71213 2.84969 0
M  V30 2727 H 258.016 2.77989 4.11019 0
M  V30 2728 N 257.189 -0.644168 1.43834 0
M  V30 2729 C 258.417 -1.43147 1.49387 0
M  V30 2730 C 258.832 -1.88452 0.114583 0
M  V30 2731 O 258.189 -1.60047 -0.876989 0
M  V30 2732 C 258.24 -2.66046 2.44748 0
M  V30 2733 O 257.961 -2.22633 3.77314 0
M  V30 2734 C 259.462 -3.59311 2.59635 0
M  V30 2735 H 256.682 -0.439447 0.507077 0
M  V30 2736 H 259.226 -0.78895 1.88669 0
M  V30 2737 H 257.381 -3.26418 2.08638 0
M  V30 2738 H 257.795 -3.02216 4.28679 0
M  V30 2739 H 259.269 -4.42187 3.30416 0
M  V30 2740 H 259.746 -4.07259 1.64427 0
M  V30 2741 H 260.352 -3.04816 2.96593 0
M  V30 2742 N 258.668 -1.30515 -0.883378 0
M  V30 2743 C 260.084 -1.08881 -1.16692 0
M  V30 2744 C 260.284 0.149409 -2.00945 0
M  V30 2745 O 259.34 0.84257 -2.38027 0
M  V30 2746 C 260.653 -2.35319 -1.87204 0
M  V30 2747 C 262.201 -2.40799 -1.99962 0
M  V30 2748 C 262.676 -3.67083 -2.73887 0
M  V30 2749 N 264.167 -3.679 -2.81432 0
M  V30 2750 C 264.902 -4.62303 -3.3921 0
M  V30 2751 N 264.398 -5.67052 -3.98025 0
M  V30 2752 N 266.191 -4.49845 -3.3704 0
M  V30 2753 H 258.342 -2.09951 -0.321633 0
M  V30 2754 H 260.605 -0.92556 -0.205043 0
M  V30 2755 H 260.311 -3.25689 -1.3274 0
M  V30 2756 H 260.185 -2.44089 -2.87577 0
M  V30 2757 H 262.572 -1.50907 -2.53597 0
M  V30 2758 H 262.653 -2.36003 -0.98673 0
M  V30 2759 H 262.297 -4.57334 -2.20925 0
M  V30 2760 H 262.227 -3.69141 -3.75556 0
M  V30 2761 H 264.718 -2.92171 -2.39676 0
M  V30 2762 H 265.031 -6.35184 -4.40183 0
M  V30 2763 H 263.376 -5.70842 -3.96439 0
M  V30 2764 H 266.567 -3.67194 -2.90321 0
M  V30 2765 H 266.74 -5.23597 -3.81772 0
M  V30 2766 N 260.146 1.09593 -1.13257 0
M  V30 2767 C 261.094 2.18271 -0.803783 0
M  V30 2768 C 262.088 1.68054 0.213148 0
M  V30 2769 O 263.294 1.79862 0.0704699 0
M  V30 2770 H 259.669 0.711949 -0.242143 0
M  V30 2771 H 261.64 2.43235 -1.72856 0
M  V30 2772 C 260.389 3.46536 -0.28424 0
M  V30 2773 H 259.712 3.85545 -1.05807 0
M  V30 2774 H 261.152 4.23899 -0.0925945 0
M  V30 2775 C 259.611 3.22036 0.989684 0
M  V30 2776 O 260.141 3.44509 2.06584 0
M  V30 2777 N 258.347 2.7565 0.920086 0
M  V30 2778 H 257.894 2.57562 0.0442019 0
M  V30 2779 H 257.852 2.59635 1.77306 0
M  V30 2780 N 261.624 0.925811 1.2754 0
M  V30 2781 C 262.854 0.580666 1.98272 0
M  V30 2782 C 263.262 -0.845207 1.69272 0
M  V30 2783 O 262.605 -1.57306 0.948707 0
M  V30 2784 C 262.667 0.724418 3.52126 0
M  V30 2785 C 262.331 2.12206 4.04744 0
M  V30 2786 C 263.328 3.09604 4.17662 0
M  V30 2787 C 261.013 2.4385 4.39138 0
M  V30 2788 C 263.007 4.36755 4.64246 0
M  V30 2789 C 260.694 3.71237 4.85414 0
M  V30 2790 C 261.692 4.67503 4.97926 0
M  V30 2791 O 261.38 5.92624 5.43187 0
M  V30 2792 H 261.112 0.218987 0.639547 0
M  V30 2793 H 263.666 1.24452 1.63404 0
M  V30 2794 H 261.896 0.0034663 3.867 0
M  V30 2795 H 263.585 0.384607 4.04074 0
M  V30 2796 H 264.351 2.86478 3.91351 0
M  V30 2797 H 260.23 1.69665 4.28643 0
M  V30 2798 H 263.774 5.11898 4.73927 0
M  V30 2799 H 259.671 3.94182 5.11166 0
M  V30 2800 H 260.439 5.95585 5.61445 0
M  V30 2801 N 263.102 -1.41638 0.69111 0
M  V30 2802 C 264.351 -2.00526 0.217318 0
M  V30 2803 C 264.664 -1.55353 -1.18848 0
M  V30 2804 O 265.87 -2.06769 -1.75951 0
M  V30 2805 C 264.326 -3.58313 0.337639 0
M  V30 2806 C 263.934 -4.12469 1.74852 0
M  V30 2807 C 265.678 -4.24431 -0.0766066 0
M  V30 2808 C 263.585 -5.62675 1.82074 0
M  V30 2809 H 262.515 -0.750008 0.0774893 0
M  V30 2810 H 265.166 -1.6217 0.858661 0
M  V30 2811 H 263.548 -3.9425 -0.371879 0
M  V30 2812 H 264.722 -3.8796 2.48644 0
M  V30 2813 H 263.037 -3.58861 2.11205 0
M  V30 2814 H 265.634 -5.34683 -0.0430284 0
M  V30 2815 H 265.977 -4.01101 -1.1146 0
M  V30 2816 H 266.51 -3.93512 0.582476 0
M  V30 2817 H 263.249 -5.90826 2.83911 0
M  V30 2818 H 262.769 -5.89124 1.12661 0
M  V30 2819 H 264.448 -6.27371 1.58159 0
M  V30 2820 N 264.58 -0.43555 -1.51462 0
M  V30 2821 C 265.53 0.394701 -2.24558 0
M  V30 2822 C 266.514 0.99157 -1.26715 0
M  V30 2823 O 267.706 0.910007 -1.51815 0
M  V30 2824 C 264.835 1.4963 -3.08975 0
M  V30 2825 C 263.921 0.908912 -4.14246 0
M  V30 2826 N 264.312 0.0505335 -5.05775 0
M  V30 2827 C 262.61 1.17668 -4.30198 0
M  V30 2828 C 263.311 -0.279161 -5.8103 0
M  V30 2829 N 262.287 0.336767 -5.42556 0
M  V30 2830 H 266.089 -0.267106 -2.92684 0
M  V30 2831 H 263.603 -0.247518 -1.60503 0
M  V30 2832 H 265.6 2.10394 -3.59917 0
M  V30 2833 H 264.26 2.16046 -2.42393 0
M  V30 2834 H 265.271 -0.31577 -5.16936 0
M  V30 2835 H 261.948 1.83847 -3.74842 0
M  V30 2836 H 263.338 -0.977553 -6.64751 0
M  V30 2837 N 266.058 1.56714 -0.166846 0
M  V30 2838 C 266.988 2.20754 0.760913 0
M  V30 2839 C 267.969 1.16178 1.24244 0
M  V30 2840 O 269.154 1.44592 1.29641 0
M  V30 2841 C 266.284 2.84478 1.99223 0
M  V30 2842 C 265.238 3.95053 1.64672 0
M  V30 2843 C 264.564 4.45805 2.95232 0
M  V30 2844 C 265.864 5.14865 0.878155 0
M  V30 2845 H 267.558 2.98537 0.22713 0
M  V30 2846 H 265.104 1.43596 0.107805 0
M  V30 2847 H 267.057 3.27951 2.64624 0
M  V30 2848 H 265.781 2.04056 2.55007 0
M  V30 2849 H 264.44 3.52228 1.01641 0
M  V30 2850 H 264.088 3.62181 3.49047 0
M  V30 2851 H 263.788 5.204 2.7287 0
M  V30 2852 H 265.312 4.91962 3.6167 0
M  V30 2853 H 266.726 5.55059 1.43466 0
M  V30 2854 H 265.123 5.95348 0.753738 0
M  V30 2855 H 266.193 4.84735 -0.126377 0
M  V30 2856 N 267.536 -0.106894 1.57237 0
M  V30 2857 C 268.484 -1.14944 2.02215 0
M  V30 2858 C 269.478 -1.42167 0.92114 0
M  V30 2859 O 270.684 -1.41987 1.10634 0
M  V30 2860 H 267.059 -0.387841 0.64427 0
M  V30 2861 H 269.03 -0.743683 2.88984 0
M  V30 2862 C 267.779 -2.4647 2.4525 0
M  V30 2863 H 267.102 -2.26363 3.29545 0
M  V30 2864 H 268.542 -3.17948 2.80508 0
M  V30 2865 C 267.001 -3.09921 1.321 0
M  V30 2866 O 267.531 -3.9651 0.643622 0
M  V30 2867 N 265.737 -2.69986 1.07497 0
M  V30 2868 H 265.284 -1.99667 1.62761 0
M  V30 2869 H 265.242 -3.12769 0.319876 0
M  V30 2870 N 269.014 -1.53014 -0.377408 0
M  V30 2871 C 269.944 -1.81589 -1.46791 0
M  V30 2872 C 270.925 -0.668622 -1.56408 0
M  V30 2873 O 272.11 -0.917337 -1.71168 0
M  V30 2874 C 269.24 -1.99519 -2.8427 0
M  V30 2875 C 268.194 -3.15249 -2.89486 0
M  V30 2876 C 267.52 -3.18451 -4.29527 0
M  V30 2877 C 268.82 -4.54084 -2.58079 0
M  V30 2878 H 270.514 -2.7291 -1.23127 0
M  V30 2879 H 268.06 -1.31319 -0.590883 0
M  V30 2880 H 270.013 -2.18092 -3.60575 0
M  V30 2881 H 268.737 -1.04897 -3.09296 0
M  V30 2882 H 267.396 -2.96477 -2.15631 0
M  V30 2883 H 267.044 -2.2149 -4.5161 0
M  V30 2884 H 266.744 -3.962 -4.33934 0
M  V30 2885 H 268.268 -3.39193 -5.07721 0
M  V30 2886 H 269.682 -4.72899 -3.24098 0
M  V30 2887 H 268.079 -5.33987 -2.7382 0
M  V30 2888 H 269.149 -4.60006 -1.53372 0
M  V30 2889 N 270.492 0.636531 -1.44174 0
M  V30 2890 C 271.739 1.39619 -1.46672 0
M  V30 2891 C 272.067 1.94257 -0.0972691 0
M  V30 2892 O 271.322 1.73768 0.900175 0
M  V30 2893 C 271.621 2.58309 -2.47005 0
M  V30 2894 C 271.287 2.21992 -3.92467 0
M  V30 2895 C 269.949 2.118 -4.32081 0
M  V30 2896 C 272.301 1.9321 -4.84065 0
M  V30 2897 C 269.629 1.71007 -5.61225 0
M  V30 2898 C 271.981 1.53911 -6.13591 0
M  V30 2899 C 270.645 1.42257 -6.52165 0
M  V30 2900 H 269.915 0.510902 -0.536712 0
M  V30 2901 H 272.562 0.722328 -1.77355 0
M  V30 2902 H 270.867 3.30903 -2.09786 0
M  V30 2903 H 272.564 3.16533 -2.46186 0
M  V30 2904 H 269.154 2.30841 -3.61124 0
M  V30 2905 H 273.338 1.99997 -4.54219 0
M  V30 2906 H 268.594 1.60583 -5.89935 0
M  V30 2907 H 272.768 1.30677 -6.8403 0
M  V30 2908 H 270.395 1.10419 -7.52138 0
M  V30 2909 N 271.97 1.30982 0.876444 0
M  V30 2910 C 272.933 1.18054 1.96459 0
M  V30 2911 C 273.933 0.109399 1.60427 0
M  V30 2912 O 275.123 0.358173 1.70478 0
M  V30 2913 C 272.255 0.810616 3.31122 0
M  V30 2914 H 273.448 2.14735 2.09354 0
M  V30 2915 H 271.001 1.145 1.06392 0
M  V30 2916 H 271.736 -0.155322 3.23928 0
M  V30 2917 H 271.521 1.58481 3.58645 0
M  V30 2918 H 273.011 0.743876 4.10921 0
M  V30 2919 N 273.449 -1.08991 1.13837 0
M  V30 2920 C 274.674 -1.85551 0.926585 0
M  V30 2921 C 275.099 -1.80782 -0.519566 0
M  V30 2922 O 274.457 -1.18855 -1.36906 0
M  V30 2923 C 274.505 -3.31266 1.42462 0
M  V30 2924 O 273.609 -4.07822 0.612789 0
M  V30 2925 H 272.95 -0.575192 0.331738 0
M  V30 2926 H 275.48 -1.37604 1.51414 0
M  V30 2927 H 275.49 -3.82112 1.43019 0
M  V30 2928 H 274.165 -3.34052 2.47754 0
M  V30 2929 H 272.742 -3.66731 0.675463 0
M  V30 2930 N 274.927 -0.932562 -1.27047 0
M  V30 2931 C 276.174 -0.575559 -1.94148 0
M  V30 2932 C 276.502 0.883984 -1.73251 0
M  V30 2933 O 275.757 1.64655 -1.0577 0
M  V30 2934 C 276.056 -0.853713 -3.47054 0
M  V30 2935 C 275.722 -2.29577 -3.88079 0
M  V30 2936 C 274.384 -2.68999 -3.9899 0
M  V30 2937 C 276.736 -3.23331 -4.08787 0
M  V30 2938 C 274.064 -4.01289 -4.28 0
M  V30 2939 C 276.416 -4.55207 -4.39282 0
M  V30 2940 C 275.08 -4.94457 -4.48407 0
M  V30 2941 H 274.35 -0.210612 -0.710439 0
M  V30 2942 H 276.997 -1.17744 -1.51025 0
M  V30 2943 H 275.302 -0.169204 -3.91434 0
M  V30 2944 H 276.999 -0.55639 -3.97121 0
M  V30 2945 H 273.589 -1.97994 -3.80127 0
M  V30 2946 H 277.773 -2.94074 -3.99793 0
M  V30 2947 H 273.029 -4.31374 -4.33275 0
M  V30 2948 H 277.203 -5.27852 -4.54252 0
M  V30 2949 H 274.83 -5.96994 -4.7064 0
M  V30 2950 N 276.405 1.4127 -0.698611 0
M  V30 2951 C 277.654 2.00408 -0.227949 0
M  V30 2952 C 277.967 1.55981 1.18023 0
M  V30 2953 O 279.173 2.07699 1.74852 0
M  V30 2954 C 277.629 3.58129 -0.356636 0
M  V30 2955 C 277.237 4.11536 -1.77037 0
M  V30 2956 C 278.981 4.24466 0.0540969 0
M  V30 2957 C 276.888 5.61701 -1.85055 0
M  V30 2958 H 275.818 0.749586 -0.0814657 0
M  V30 2959 H 278.469 1.61713 -0.867249 0
M  V30 2960 H 276.851 3.94442 0.350965 0
M  V30 2961 H 278.025 3.86636 -2.50698 0
M  V30 2962 H 276.34 3.57736 -2.13105 0
M  V30 2963 H 278.937 5.34698 0.0146723 0
M  V30 2964 H 279.28 4.01687 1.09332 0
M  V30 2965 H 279.813 3.93198 -0.603337 0
M  V30 2966 H 276.552 5.89312 -2.8704 0
M  V30 2967 H 276.072 5.88519 -1.15783 0
M  V30 2968 H 277.751 6.26524 -1.61484 0
M  V30 2969 N 277.883 0.443576 1.51229 0
M  V30 2970 C 278.813 -0.355142 2.30783 0
M  V30 2971 C 279.794 -1.0154 1.36468 0
M  V30 2972 O 280.979 -1.01785 1.65389 0
M  V30 2973 C 278.109 -1.45312 3.15439 0
M  V30 2974 C 277.063 -0.916002 4.18083 0
M  V30 2975 C 276.389 -2.1102 4.91299 0
M  V30 2976 C 277.689 0.0538602 5.22272 0
M  V30 2977 H 279.383 0.308767 2.97804 0
M  V30 2978 H 276.929 0.149937 1.43217 0
M  V30 2979 H 278.882 -2.01914 3.69876 0
M  V30 2980 H 277.606 -2.14541 2.46252 0
M  V30 2981 H 276.265 -0.372145 3.64706 0
M  V30 2982 H 275.913 -2.78882 4.18609 0
M  V30 2983 H 275.613 -1.75717 5.60712 0
M  V30 2984 H 277.137 -2.68164 5.48562 0
M  V30 2985 H 278.551 -0.422069 5.71744 0
M  V30 2986 H 276.948 0.319776 5.99247 0
M  V30 2987 H 278.018 0.98858 4.74716 0
M  V30 2988 N 279.361 -1.56624 0.175154 0
M  V30 2989 C 280.777 -1.58571 -0.180966 0
M  V30 2990 C 280.977 -1.19065 -1.6256 0
M  V30 2991 O 280.033 -0.904044 -2.35761 0
M  V30 2992 C 281.346 -3.00522 0.103326 0
M  V30 2993 C 282.894 -3.12972 0.0418426 0
M  V30 2994 C 283.369 -4.57022 0.299175 0
M  V30 2995 N 284.86 -4.62541 0.247086 0
M  V30 2996 C 285.595 -5.71857 0.420318 0
M  V30 2997 N 285.091 -6.89717 0.652816 0
M  V30 2998 N 286.884 -5.60972 0.355957 0
M  V30 2999 H 279.035 -1.80589 1.11809 0
M  V30 3000 H 281.298 -0.837178 0.444788 0
M  V30 3001 H 281.004 -3.33916 1.10422 0
M  V30 3002 H 280.878 -3.72344 -0.603299 0
M  V30 3003 H 283.265 -2.79403 -0.949636 0
M  V30 3004 H 283.346 -2.43578 0.781238 0
M  V30 3005 H 282.99 -4.913 1.28788 0
M  V30 3006 H 282.92 -5.24579 -0.460876 0
M  V30 3007 H 285.411 -3.77829 0.0731895 0
M  V30 3008 H 285.724 -7.68911 0.774347 0
M  V30 3009 H 284.069 -6.91572 0.689476 0
M  V30 3010 H 287.26 -4.67773 0.174882 0
M  V30 3011 H 287.433 -6.46111 0.494388 0
M  V30 3012 N 280.839 0.0985539 -1.57292 0
M  V30 3013 C 281.802 1.10402 -2.00858 0
M  V30 3014 C 282.802 1.33146 -0.901593 0
M  V30 3015 O 283.992 1.29318 -1.16716 0
M  V30 3016 C 281.124 2.45394 -2.36632 0
M  V30 3017 H 282.317 0.729099 -2.90902 0
M  V30 3018 H 279.87 0.343495 -1.52479 0
M  V30 3019 H 280.605 2.87769 -1.49531 0
M  V30 3020 H 280.39 2.30235 -3.17387 0
M  V30 3021 H 281.88 3.17718 -2.71007 0
M  V30 3022 N 282.317 1.53212 0.369288 0
M  V30 3023 C 283.247 1.82365 1.45826 0
M  V30 3024 C 284.228 0.676907 1.56051 0
M  V30 3025 O 285.413 0.926401 1.70679 0
M  V30 3026 C 282.543 2.01023 2.83208 0
M  V30 3027 C 281.497 3.1678 2.8781 0
M  V30 3028 C 280.823 3.20724 4.27832 0
M  V30 3029 C 282.123 4.55447 2.55667 0
M  V30 3030 H 283.817 2.73559 1.21678 0
M  V30 3031 H 281.363 1.3163 0.583911 0
M  V30 3032 H 283.316 2.20001 3.59413 0
M  V30 3033 H 282.04 1.06536 3.08736 0
M  V30 3034 H 280.699 2.97616 2.14056 0
M  V30 3035 H 280.347 2.23882 4.50429 0
M  V30 3036 H 280.047 3.98496 4.31827 0
M  V30 3037 H 281.571 3.41881 5.05915 0
M  V30 3038 H 282.985 4.74611 3.21586 0
M  V30 3039 H 281.382 5.35432 2.70984 0
M  V30 3040 H 282.452 4.60812 1.5093 0
M  V30 3041 N 283.795 -0.628877 1.44509 0
M  V30 3042 C 285.02 -1.42048 1.5112 0
M  V30 3043 C 285.445 -1.87594 0.137818 0
M  V30 3044 O 284.803 -1.58873 -0.873437 0
M  V30 3045 C 284.851 -2.61541 2.48251 0
M  V30 3046 O 283.955 -3.61453 1.98559 0
M  V30 3047 H 283.296 -0.424942 0.510216 0
M  V30 3048 H 285.826 -0.767374 1.89664 0
M  V30 3049 H 285.836 -3.09057 2.66361 0
M  V30 3050 H 284.511 -2.27736 3.48007 0
M  V30 3051 H 283.088 -3.20731 1.90227 0
M  V30 3052 N 285.273 -1.31445 -0.869486 0
M  V30 3053 C 286.519 -1.21337 -1.62496 0
M  V30 3054 C 286.852 0.227872 -1.92858 0
M  V30 3055 O 286.127 1.16094 -1.56053 0
M  V30 3056 C 286.41 -2.05814 -2.95487 0
M  V30 3057 C 286.263 -3.5824 -2.72 0
M  V30 3058 C 287.582 -1.9079 -3.96594 0
M  V30 3059 H 284.701 -0.442135 -0.589649 0
M  V30 3060 H 287.343 -1.6124 -1.00507 0
M  V30 3061 H 285.493 -1.71913 -3.48394 0
M  V30 3062 H 287.165 -4.0228 -2.25762 0
M  V30 3063 H 285.408 -3.81647 -2.06224 0
M  V30 3064 H 286.079 -4.12657 -3.66631 0
M  V30 3065 H 288.555 -2.20459 -3.52898 0
M  V30 3066 H 287.431 -2.52199 -4.87531 0
M  V30 3067 H 287.692 -0.871341 -4.33428 0
M  V30 3068 N 286.751 1.08385 -1.14413 0
M  V30 3069 C 287.998 1.80776 -0.912482 0
M  V30 3070 C 288.326 1.86236 0.560934 0
M  V30 3071 O 287.581 1.33431 1.43159 0
M  V30 3072 C 287.88 3.26273 -1.45879 0
M  V30 3073 C 287.546 3.4093 -2.95089 0
M  V30 3074 C 286.208 3.44638 -3.35824 0
M  V30 3075 C 288.56 3.44591 -3.91033 0
M  V30 3076 C 285.888 3.49597 -4.71167 0
M  V30 3077 C 288.24 3.51086 -5.26233 0
M  V30 3078 C 286.904 3.53067 -5.6648 0
M  V30 3079 H 286.174 0.661507 -0.333901 0
M  V30 3080 H 288.821 1.27613 -1.42784 0
M  V30 3081 H 287.126 3.82146 -0.864376 0
M  V30 3082 H 288.823 3.80839 -1.2555 0
M  V30 3083 H 285.413 3.38736 -2.62594 0
M  V30 3084 H 289.597 3.40957 -3.60641 0
M  V30 3085 H 284.853 3.49424 -5.0171 0
M  V30 3086 H 289.027 3.52864 -6.00383 0
M  V30 3087 H 286.654 3.56662 -6.71339 0
M  V30 3088 N 288.23 0.939286 1.26551 0
M  V30 3089 C 289.479 0.581601 1.93133 0
M  V30 3090 C 289.792 -0.883224 1.74524 0
M  V30 3091 O 290.998 -1.3502 2.35546 0
M  V30 3092 C 289.454 0.989425 3.46032 0
M  V30 3093 C 289.062 2.47573 3.73379 0
M  V30 3094 C 290.806 0.703544 4.18629 0
M  V30 3095 C 288.713 2.82235 5.19709 0
M  V30 3096 H 287.643 0.213803 0.723052 0
M  V30 3097 H 290.294 1.14167 1.4366 0
M  V30 3098 H 288.676 0.357902 3.94379 0
M  V30 3099 H 289.85 3.15614 3.35744 0
M  V30 3100 H 288.165 2.73471 3.1401 0
M  V30 3101 H 290.762 0.938869 5.26393 0
M  V30 3102 H 291.105 -0.359639 4.14744 0
M  V30 3103 H 291.638 1.2947 3.76141 0
M  V30 3104 H 288.377 3.87509 5.28694 0
M  V30 3105 H 287.897 2.18854 5.58447 0
M  V30 3106 H 289.576 2.70599 5.87695 0
M  V30 3107 N 289.708 -1.40897 0.706093 0
M  V30 3108 C 290.655 -2.30751 0.0474474 0
M  V30 3109 C 291.625 -1.47678 -0.76029 0
M  V30 3110 O 292.81 -1.76441 -0.726177 0
M  V30 3111 C 289.95 -3.33815 -0.875309 0
M  V30 3112 C 289.063 -4.31961 -0.0580623 0
M  V30 3113 C 288.198 -5.22093 -0.979425 0
M  V30 3114 C 287.237 -6.11902 -0.155706 0
M  V30 3115 N 286.374 -6.94482 -1.03144 0
M  V30 3116 H 291.214 -2.86513 0.819413 0
M  V30 3117 H 288.751 -1.41102 0.415783 0
M  V30 3118 H 290.709 -3.92129 -1.42446 0
M  V30 3119 H 289.339 -2.79579 -1.61356 0
M  V30 3120 H 288.391 -3.75507 0.608147 0
M  V30 3121 H 289.703 -4.95415 0.580082 0
M  V30 3122 H 288.857 -5.85292 -1.59744 0
M  V30 3123 H 287.596 -4.5889 -1.65141 0
M  V30 3124 H 286.601 -5.47742 0.475309 0
M  V30 3125 H 287.826 -6.77162 0.512635 0
M  V30 3126 H 285.772 -6.33877 -1.68924 0
M  V30 3127 H 285.689 -7.54665 -0.449108 0
M  V30 3128 H 286.957 -7.6214 -1.63593 0
M  V30 3129 N 291.186 -0.45159 -1.50991 0
M  V30 3130 C 292.463 0.170707 -1.94854 0
M  V30 3131 C 292.843 1.58788 -1.39103 0
M  V30 3132 O 292.191 2.20913 -0.583921 0
M  V30 3133 C 292.401 0.133929 -3.48743 0
M  V30 3134 C 293.749 0.33248 -4.23296 0
M  V30 3135 O 294.773 0.211403 -3.55572 0
M  V30 3136 O 293.632 0.57486 -5.43468 0
M  V30 3137 H 290.726 0.122264 -0.817912 0
M  V30 3138 H 293.272 -0.510594 -1.61836 0
M  V30 3139 H 292.044 -0.856283 -3.81816 0
M  V30 3140 H 291.667 0.857529 -3.88242 0
M  V30 3141 N 292.664 1.56529 -0.183458 0
M  V30 3142 C 293.627 2.17324 0.728223 0
M  V30 3143 C 294.627 1.12453 1.14939 0
M  V30 3144 O 295.817 1.37902 1.06437 0
M  V30 3145 C 292.949 2.76591 1.99274 0
M  V30 3146 H 294.142 2.99241 0.198772 0
M  V30 3147 H 291.695 1.5616 0.0661391 0
M  V30 3148 H 292.43 1.98441 2.56499 0
M  V30 3149 H 292.215 3.5335 1.69959 0
M  V30 3150 H 293.705 3.23311 2.6431 0
M  V30 3151 N 294.142 -0.090211 1.57342 0
M  V30 3152 C 295.105 -1.09335 2.01441 0
M  V30 3153 C 296.105 -1.32666 0.908641 0
M  V30 3154 O 297.295 -1.28697 1.174 0
M  V30 3155 C 294.427 -2.44136 2.3793 0
M  V30 3156 H 295.62 -0.713662 2.91285 0
M  V30 3157 H 293.173 -0.335404 1.52659 0
M  V30 3158 H 293.908 -2.86972 1.51055 0
M  V30 3159 H 293.693 -2.28548 3.18603 0
M  V30 3160 H 295.183 -3.16277 2.72688 0
M  V30 3161 N 295.62 -1.53406 -0.361157 0
M  V30 3162 C 296.55 -1.83136 -1.44857 0
M  V30 3163 C 297.531 -0.685174 -1.5569 0
M  V30 3164 O 298.716 -0.93544 -1.70186 0
M  V30 3165 C 295.846 -2.02522 -2.82138 0
M  V30 3166 C 294.8 -3.18302 -2.86126 0
M  V30 3167 C 294.126 -3.22989 -4.26125 0
M  V30 3168 C 295.426 -4.56796 -2.53248 0
M  V30 3169 H 297.12 -2.74201 -1.20226 0
M  V30 3170 H 294.666 -1.31938 -0.576922 0
M  V30 3171 H 296.619 -2.21904 -3.58241 0
M  V30 3172 H 295.343 -1.08172 -3.08166 0
M  V30 3173 H 294.002 -2.98747 -2.12475 0
M  V30 3174 H 293.65 -2.26267 -4.49235 0
M  V30 3175 H 293.35 -4.00781 -4.29708 0
M  V30 3176 H 294.874 -3.44559 -5.04094 0
M  V30 3177 H 296.288 -4.7631 -3.19064 0
M  V30 3178 H 294.685 -5.36862 -2.68141 0
M  V30 3179 H 295.755 -4.61606 -1.48484 0
M  V30 3180 N 297.098 0.621204 -1.44841 0
M  V30 3181 C 298.045 1.73267 -1.5247 0
M  V30 3182 C 299.015 1.6189 -0.371611 0
M  V30 3183 O 300.2 1.81668 -0.58321 0
M  V30 3184 C 297.34 3.11545 -1.48438 0
M  V30 3185 C 296.453 3.33827 -2.74196 0
M  V30 3186 C 295.588 4.62133 -2.61929 0
M  V30 3187 C 294.627 4.77627 -3.82804 0
M  V30 3188 N 293.764 5.97219 -3.69153 0
M  V30 3189 H 298.604 1.66082 -2.47428 0
M  V30 3190 H 296.141 0.810026 -1.22788 0
M  V30 3191 H 298.099 3.91528 -1.4409 0
M  V30 3192 H 296.729 3.1772 -0.570402 0
M  V30 3193 H 295.781 2.47715 -2.88689 0
M  V30 3194 H 297.093 3.41153 -3.6389 0
M  V30 3195 H 296.247 5.50291 -2.5547 0
M  V30 3196 H 294.986 4.57182 -1.69811 0
M  V30 3197 H 293.991 3.87896 -3.89637 0
M  V30 3198 H 295.216 4.84385 -4.75971 0
M  V30 3199 H 293.162 5.93339 -2.79794 0
M  V30 3200 H 293.079 6.05644 -4.52472 0
M  V30 3201 H 294.347 6.87912 -3.66603 0
M  V30 3202 N 298.576 1.31904 0.862503 0
M  V30 3203 C 299.822 1.23207 1.61838 0
M  V30 3204 C 300.177 -0.206062 1.91293 0
M  V30 3205 O 299.47 -1.14162 1.53875 0
M  V30 3206 C 299.664 2.01713 2.95037 0
M  V30 3207 C 299.493 3.53014 2.78588 0
M  V30 3208 C 298.263 4.22359 2.77382 0
M  V30 3209 C 300.461 4.47819 2.52909 0
M  V30 3210 N 298.443 5.59766 2.52062 0
M  V30 3211 C 299.814 5.72947 2.36922 0
M  V30 3212 C 301.869 4.37162 2.38314 0
M  V30 3213 C 300.572 6.88623 2.07823 0
M  V30 3214 C 302.598 5.5263 2.10604 0
M  V30 3215 C 301.96 6.76752 1.95411 0
M  V30 3216 H 298.059 0.505984 0.596242 0
M  V30 3217 H 300.643 1.66179 1.01452 0
M  V30 3218 H 298.814 1.61098 3.53415 0
M  V30 3219 H 300.546 1.84975 3.59953 0
M  V30 3220 H 297.301 3.74401 2.90036 0
M  V30 3221 H 297.725 6.32135 2.42352 0
M  V30 3222 H 302.367 3.41857 2.48784 0
M  V30 3223 H 300.085 7.83948 1.9609 0
M  V30 3224 H 303.671 5.46307 2.00101 0
M  V30 3225 H 302.551 7.6459 1.74274 0
M  V30 3226 N 300.054 -1.07777 1.14986 0
M  V30 3227 C 300.987 -2.14228 0.786243 0
M  V30 3228 C 301.965 -1.60888 -0.235347 0
M  V30 3229 O 303.149 -1.88099 -0.122909 0
M  V30 3230 C 300.276 -3.38281 0.168433 0
M  V30 3231 C 299.322 -4.10387 1.16123 0
M  V30 3232 S 300.155 -4.62371 2.70135 0
M  V30 3233 C 301.311 -5.89704 2.09762 0
M  V30 3234 H 301.544 -2.44741 1.68787 0
M  V30 3235 H 299.077 -1.19984 0.971756 0
M  V30 3236 H 301.035 -4.10098 -0.181588 0
M  V30 3237 H 299.696 -3.05953 -0.710725 0
M  V30 3238 H 298.889 -4.99431 0.677086 0
M  V30 3239 H 298.491 -3.44513 1.45556 0
M  V30 3240 H 300.783 -6.61648 1.45701 0
M  V30 3241 H 301.726 -6.42824 2.96955 0
M  V30 3242 H 302.134 -5.4302 1.54239 0
M  V30 3243 N 301.532 -0.945985 -1.26051 0
M  V30 3244 C 302.762 -0.612136 -1.97323 0
M  V30 3245 C 303.17 0.818171 -1.70595 0
M  V30 3246 O 302.513 1.55777 -0.973613 0
M  V30 3247 C 302.575 -0.780347 -3.50929 0
M  V30 3248 C 302.239 -2.18619 -4.01317 0
M  V30 3249 C 303.236 -3.16209 -4.12683 0
M  V30 3250 C 300.921 -2.50805 -4.35203 0
M  V30 3251 C 302.915 -4.44085 -4.57238 0
M  V30 3252 C 300.602 -3.78912 -4.79446 0
M  V30 3253 C 301.6 -4.75365 -4.90425 0
M  V30 3254 O 301.288 -6.01191 -5.3369 0
M  V30 3255 H 301.02 -0.229134 -0.635982 0
M  V30 3256 H 303.574 -1.27036 -1.61404 0
M  V30 3257 H 301.804 -0.0649864 -3.86645 0
M  V30 3258 H 303.493 -0.448842 -4.03411 0
M  V30 3259 H 304.259 -2.92668 -3.86744 0
M  V30 3260 H 300.138 -1.76463 -4.2589 0
M  V30 3261 H 303.682 -5.19373 -4.65723 0
M  V30 3262 H 299.579 -4.02265 -5.0483 0
M  V30 3263 H 300.347 -6.04442 -5.51899 0
M  V30 3264 N 303.011 1.40521 -0.713556 0
M  V30 3265 C 304.236 2.05759 -0.26035 0
M  V30 3266 C 304.661 1.53403 1.08854 0
M  V30 3267 O 304.019 0.668535 1.68524 0
M  V30 3268 C 304.067 3.59745 -0.248122 0
M  V30 3269 O 303.171 4.05123 0.77131 0
M  V30 3270 H 302.512 0.652564 -0.122703 0
M  V30 3271 H 305.042 1.79958 -0.973467 0
M  V30 3272 H 305.052 4.07911 -0.0851129 0
M  V30 3273 H 303.727 3.97218 -1.2325 0
M  V30 3274 H 302.304 3.68422 0.57619 0
M  V30 3275 N 304.489 0.459591 1.5075 0
M  V30 3276 C 305.717 -0.0973749 2.06671 0
M  V30 3277 C 306.132 -1.34524 1.32472 0
M  V30 3278 O 305.489 -1.7827 0.390634 0
M  V30 3279 C 305.54 -0.39714 3.59312 0
M  V30 3280 O 305.261 0.801214 4.30711 0
M  V30 3281 C 306.762 -1.00234 4.31819 0
M  V30 3282 H 303.982 0.00195854 0.670997 0
M  V30 3283 H 306.526 0.645072 1.94059 0
M  V30 3284 H 304.681 -1.08951 3.71764 0
M  V30 3285 H 305.095 0.538857 5.21725 0
M  V30 3286 H 306.569 -1.16193 5.39632 0
M  V30 3287 H 307.046 -1.98939 3.91561 0
M  V30 3288 H 307.652 -0.348699 4.23868 0
M  V30 3289 N 305.967 -1.56429 0.191757 0
M  V30 3290 C 306.93 -2.17707 -0.716688 0
M  V30 3291 C 307.93 -1.13061 -1.14341 0
M  V30 3292 O 309.12 -1.38464 -1.05704 0
M  V30 3293 C 306.252 -2.77644 -1.97804 0
M  V30 3294 H 307.445 -2.99342 -0.1829 0
M  V30 3295 H 304.998 -1.56193 -0.0578566 0
M  V30 3296 H 305.733 -1.99799 -2.55443 0
M  V30 3297 H 305.518 -3.54246 -1.68083 0
M  V30 3298 H 307.008 -3.24708 -2.62592 0
M  V30 3299 N 307.445 0.0818655 -1.57387 0
M  V30 3300 C 308.408 1.08265 -2.02018 0
M  V30 3301 C 309.408 1.32183 -0.915664 0
M  V30 3302 O 310.598 1.28073 -1.18081 0
M  V30 3303 C 307.73 2.42871 -2.39221 0
M  V30 3304 H 308.923 0.698204 -2.91659 0
M  V30 3305 H 306.476 0.327303 -1.52835 0
M  V30 3306 H 307.211 2.86167 -1.52575 0
M  V30 3307 H 306.996 2.26855 -3.19811 0
M  V30 3308 H 308.486 3.14826 -2.74362 0
M  V30 3309 N 308.923 1.53595 0.353017 0
M  V30 3310 C 309.855 1.77219 1.45348 0
M  V30 3311 C 310.868 0.65324 1.49119 0
M  V30 3312 O 312.057 0.929775 1.52373 0
M  V30 3313 C 309.157 1.84841 2.84055 0
M  V30 3314 C 308.33 3.14649 3.03833 0
M  V30 3315 C 307.389 3.13351 4.22727 0
M  V30 3316 O 306.415 3.87107 4.17297 0
M  V30 3317 N 307.617 2.35052 5.30783 0
M  V30 3318 H 310.382 2.72178 1.25457 0
M  V30 3319 H 307.943 1.52528 0.542833 0
M  V30 3320 H 309.935 1.81435 3.61751 0
M  V30 3321 H 308.505 0.971114 2.97133 0
M  V30 3322 H 307.725 3.31256 2.13689 0
M  V30 3323 H 309.013 4.00411 3.13925 0
M  V30 3324 H 308.411 1.74663 5.38061 0
M  V30 3325 H 306.968 2.37453 6.07009 0
M  V30 3326 N 310.401 -0.613514 1.45168 0
M  V30 3327 C 311.333 -1.73825 1.4939 0
M  V30 3328 C 312.346 -1.58175 0.385304 0
M  V30 3329 O 313.535 -1.66165 0.652036 0
M  V30 3330 C 310.635 -3.11758 1.32891 0
M  V30 3331 C 309.808 -3.53704 2.57317 0
M  V30 3332 C 308.867 -4.70579 2.35462 0
M  V30 3333 O 307.893 -4.77996 3.09044 0
M  V30 3334 N 309.095 -5.63454 1.39644 0
M  V30 3335 H 311.86 -1.70669 2.46358 0
M  V30 3336 H 309.421 -0.79862 1.40832 0
M  V30 3337 H 311.413 -3.87692 1.1609 0
M  V30 3338 H 309.983 -3.09456 0.442218 0
M  V30 3339 H 309.203 -2.67794 2.89275 0
M  V30 3340 H 310.491 -3.78486 3.40038 0
M  V30 3341 H 309.889 -5.6017 0.789062 0
M  V30 3342 H 308.446 -6.38944 1.28816 0
M  V30 3343 N 311.879 -1.3236 -0.855495 0
M  V30 3344 C 312.829 -1.17809 -1.95205 0
M  V30 3345 C 313.813 -0.0852319 -1.60674 0
M  V30 3346 O 315.005 -0.311651 -1.74235 0
M  V30 3347 C 312.134 -0.902437 -3.31226 0
M  V30 3348 C 311.22 -2.03695 -3.7198 0
M  V30 3349 N 311.611 -3.28544 -3.84568 0
M  V30 3350 C 309.909 -1.93993 -4.016 0
M  V30 3351 C 310.61 -4.02847 -4.19629 0
M  V30 3352 N 309.586 -3.31138 -4.31102 0
M  V30 3353 H 313.388 -2.12462 -2.0307 0
M  V30 3354 H 310.902 -1.24127 -1.0472 0
M  V30 3355 H 312.899 -0.77915 -4.09554 0
M  V30 3356 H 311.559 0.0357267 -3.2468 0
M  V30 3357 H 312.57 -3.6349 -3.68911 0
M  V30 3358 H 309.247 -1.07733 -4.03361 0
M  V30 3359 H 310.637 -5.10506 -4.36845 0
M  V30 3360 N 313.357 1.07166 -1.15556 0
M  V30 3361 C 314.289 2.14341 -0.811815 0
M  V30 3362 C 315.302 1.61835 0.177015 0
M  V30 3363 O 316.491 1.78439 -0.0464996 0
M  V30 3364 C 313.591 3.38387 -0.186481 0
M  V30 3365 C 312.764 4.20238 -1.21321 0
M  V30 3366 C 311.823 5.2266 -0.609302 0
M  V30 3367 O 310.849 5.54719 -1.27576 0
M  V30 3368 N 312.051 5.77306 0.608099 0
M  V30 3369 H 314.816 2.44431 -1.73417 0
M  V30 3370 H 312.377 1.23089 -1.0517 0
M  V30 3371 H 314.369 4.04044 0.230339 0
M  V30 3372 H 312.939 3.05994 0.639249 0
M  V30 3373 H 312.159 3.50369 -1.80652 0
M  V30 3374 H 313.447 4.71736 -1.90638 0
M  V30 3375 H 312.845 5.53513 1.1679 0
M  V30 3376 H 311.402 6.44583 0.96725 0
M  V30 3377 N 314.835 0.952656 1.25548 0
M  V30 3378 C 316.081 0.616826 1.93822 0
M  V30 3379 C 316.436 -0.836684 1.73255 0
M  V30 3380 O 315.729 -1.59218 1.06584 0
M  V30 3381 C 315.923 0.908818 3.45652 0
M  V30 3382 C 315.752 2.38916 3.80984 0
M  V30 3383 C 314.522 3.04637 4.03143 0
M  V30 3384 C 316.72 3.36838 3.88645 0
M  V30 3385 N 314.702 4.42565 4.25453 0
M  V30 3386 C 316.073 4.60065 4.1562 0
M  V30 3387 C 318.128 3.31704 3.71318 0
M  V30 3388 C 316.831 5.78795 4.2707 0
M  V30 3389 C 318.857 4.4977 3.84006 0
M  V30 3390 C 318.219 5.71783 4.11392 0
M  V30 3391 H 314.318 0.27629 0.731565 0
M  V30 3392 H 316.902 1.22443 1.5138 0
M  V30 3393 H 315.073 0.330166 3.86994 0
M  V30 3394 H 316.805 0.533093 4.01174 0
M  V30 3395 H 313.56 2.55215 3.98952 0
M  V30 3396 H 313.984 5.1399 4.40617 0
M  V30 3397 H 318.626 2.3842 3.49164 0
M  V30 3398 H 316.344 6.72521 4.48041 0
M  V30 3399 H 319.93 4.47342 3.71989 0
M  V30 3400 H 318.81 6.61617 4.2099 0
M  V30 3401 N 316.313 -1.40141 0.720998 0
M  V30 3402 C 317.59 -1.94677 0.189757 0
M  V30 3403 C 317.97 -1.65879 -1.30566 0
M  V30 3404 O 317.318 -0.979391 -2.06447 0
M  V30 3405 C 317.528 -3.45279 0.508304 0
M  V30 3406 C 318.876 -4.22209 0.449934 0
M  V30 3407 O 319.9 -3.53413 0.444677 0
M  V30 3408 O 318.759 -5.44788 0.432189 0
M  V30 3409 H 315.853 -0.826459 0.0299026 0
M  V30 3410 H 318.399 -1.49719 0.7989 0
M  V30 3411 H 317.171 -3.59619 1.54239 0
M  V30 3412 H 316.794 -3.97386 -0.130525 0
M  V30 3413 N 317.792 -0.46758 -1.50504 0
M  V30 3414 C 319.04 0.0884469 -2.01906 0
M  V30 3415 C 319.361 1.40532 -1.35188 0
M  V30 3416 O 318.631 1.89515 -0.496079 0
M  V30 3417 H 317.211 0.0356765 -0.746148 0
M  V30 3418 H 319.873 -0.6172 -1.84869 0
M  V30 3419 H 318.969 0.2425 -3.11156 0
M  V30 3420 N 319.27 1.56325 -0.20005 0
M  V30 3421 C 320.2 2.22318 0.713916 0
M  V30 3422 C 321.181 1.18788 1.21752 0
M  V30 3423 O 322.366 1.47309 1.26545 0
M  V30 3424 C 319.496 2.88639 1.93144 0
M  V30 3425 C 318.45 3.98457 1.56255 0
M  V30 3426 C 317.776 4.51967 2.85709 0
M  V30 3427 C 319.076 5.16612 0.768747 0
M  V30 3428 H 320.77 2.98952 0.163755 0
M  V30 3429 H 318.316 1.43792 0.0773219 0
M  V30 3430 H 320.269 3.33491 2.57608 0
M  V30 3431 H 318.993 2.09419 2.50621 0
M  V30 3432 H 317.652 3.54305 0.941471 0
M  V30 3433 H 317.3 3.69503 3.41287 0
M  V30 3434 H 317 5.26071 2.6177 0
M  V30 3435 H 318.524 4.99523 3.51154 0
M  V30 3436 H 319.938 5.57977 1.3166 0
M  V30 3437 H 318.335 5.96812 0.627286 0
M  V30 3438 H 319.405 4.84358 -0.229168 0
M  V30 3439 N 320.748 -0.0735177 1.57428 0
M  V30 3440 C 321.678 -1.0879 2.06608 0
M  V30 3441 C 322.659 -1.40473 0.959237 0
M  V30 3442 O 323.844 -1.5013 1.23185 0
M  V30 3443 C 320.974 -2.40183 2.50857 0
M  V30 3444 C 319.928 -2.22858 3.65402 0
M  V30 3445 C 319.254 -3.59619 3.957 0
M  V30 3446 C 320.554 -1.65123 4.95511 0
M  V30 3447 H 322.248 -0.678673 2.91607 0
M  V30 3448 H 319.794 -0.325013 1.40284 0
M  V30 3449 H 321.747 -3.11437 2.83874 0
M  V30 3450 H 320.471 -2.83083 1.62885 0
M  V30 3451 H 319.13 -1.54045 3.32664 0
M  V30 3452 H 318.778 -4.00086 3.04861 0
M  V30 3453 H 318.478 -3.48866 4.72828 0
M  V30 3454 H 320.002 -4.32306 4.31212 0
M  V30 3455 H 321.416 -2.26241 5.26771 0
M  V30 3456 H 319.813 -1.65071 5.7695 0
M  V30 3457 H 320.883 -0.612559 4.81015 0
M  V30 3458 N 322.226 -1.5378 -0.344866 0
M  V30 3459 C 323.451 -1.75211 -1.10977 0
M  V30 3460 C 323.876 -0.48936 -1.81623 0
M  V30 3461 O 323.234 0.557925 -1.72502 0
M  V30 3462 C 323.282 -2.93147 -2.09993 0
M  V30 3463 O 322.386 -2.63203 -3.17487 0
M  V30 3464 H 321.727 -0.581241 -0.321021 0
M  V30 3465 H 324.257 -2.00738 -0.395661 0
M  V30 3466 H 324.267 -3.19898 -2.53237 0
M  V30 3467 H 322.942 -3.84731 -1.5797 0
M  V30 3468 H 321.519 -2.47336 -2.79069 0
M  V30 3469 N 323.704 0.605807 -1.45491 0
M  V30 3470 C 324.934 1.38934 -1.52908 0
M  V30 3471 C 325.342 1.88513 -0.161086 0
M  V30 3472 O 324.685 1.62962 0.847891 0
M  V30 3473 C 324.747 2.62737 -2.45376 0
M  V30 3474 C 324.411 2.34785 -3.92078 0
M  V30 3475 C 325.408 1.95038 -4.8193 0
M  V30 3476 C 323.093 2.47642 -4.37011 0
M  V30 3477 C 325.087 1.68511 -6.14722 0
M  V30 3478 C 322.774 2.20728 -5.69844 0
M  V30 3479 C 323.772 1.81225 -6.58519 0
M  V30 3480 O 323.46 1.54627 -7.88889 0
M  V30 3481 H 323.192 0.431629 -0.520262 0
M  V30 3482 H 325.746 0.74573 -1.91384 0
M  V30 3483 H 323.976 3.29824 -2.01874 0
M  V30 3484 H 325.665 3.24783 -2.43456 0
M  V30 3485 H 326.431 1.84639 -4.48479 0
M  V30 3486 H 322.31 2.77356 -3.68232 0
M  V30 3487 H 325.854 1.37602 -6.83894 0
M  V30 3488 H 321.751 2.30744 -6.02849 0
M  V30 3489 H 322.519 1.68665 -8.00933 0
M  V30 3490 N 325.182 1.32811 0.848464 0
M  V30 3491 C 326.114 1.18095 1.96433 0
M  V30 3492 C 327.127 0.114354 1.62398 0
M  V30 3493 O 328.316 0.363892 1.74751 0
M  V30 3494 C 325.416 0.786798 3.2964 0
M  V30 3495 C 324.589 1.943 3.91875 0
M  V30 3496 C 323.648 1.53138 5.03423 0
M  V30 3497 O 322.674 2.24432 5.23086 0
M  V30 3498 N 323.876 0.430915 5.78898 0
M  V30 3499 H 326.641 2.14218 2.09597 0
M  V30 3500 H 324.202 1.2543 1.02367 0
M  V30 3501 H 326.194 0.493715 4.01677 0
M  V30 3502 H 324.764 -0.0834541 3.12489 0
M  V30 3503 H 323.984 2.40224 3.12547 0
M  V30 3504 H 325.272 2.71689 4.30189 0
M  V30 3505 H 324.67 -0.162333 5.65467 0
M  V30 3506 H 323.227 0.197466 6.51501 0
M  V30 3507 N 326.66 -1.06551 1.16123 0
M  V30 3508 C 327.937 -1.76097 0.85142 0
M  V30 3509 C 328.317 -2.00802 -0.6513 0
M  V30 3510 O 327.665 -1.63302 -1.59827 0
M  V30 3511 C 327.875 -3.06384 1.67122 0
M  V30 3512 C 329.223 -3.80585 1.88255 0
M  V30 3513 O 330.247 -3.16218 1.63966 0
M  V30 3514 O 329.106 -4.96212 2.2899 0
M  V30 3515 H 326.2 -0.765102 0.313923 0
M  V30 3516 H 328.746 -1.12844 1.26745 0
M  V30 3517 H 327.518 -2.84071 2.69108 0
M  V30 3518 H 327.141 -3.77371 1.25206 0
M  V30 3519 N 328.138 -0.959301 -1.25041 0
M  V30 3520 C 329.363 -0.633507 -1.97488 0
M  V30 3521 C 329.788 0.788555 -1.70773 0
M  V30 3522 O 329.146 1.53394 -0.966431 0
M  V30 3523 C 329.194 -0.904057 -3.49083 0
M  V30 3524 O 328.298 0.0147939 -4.12397 0
M  V30 3525 H 327.639 -0.240368 -0.618966 0
M  V30 3526 H 330.169 -1.28717 -1.59038 0
M  V30 3527 H 330.179 -0.832203 -3.99423 0
M  V30 3528 H 328.854 -1.94048 -3.67856 0
M  V30 3529 H 327.431 -0.109664 -3.72739 0
M  V30 3530 N 329.616 1.39756 -0.72842 0
M  V30 3531 C 330.546 2.33289 -0.0991354 0
M  V30 3532 C 331.527 1.53568 0.731489 0
M  V30 3533 O 332.712 1.81987 0.677807 0
M  V30 3534 C 329.842 3.3763 0.813834 0
M  V30 3535 C 328.796 4.2791 0.0878663 0
M  V30 3536 C 328.122 5.22894 1.11741 0
M  V30 3537 C 329.422 5.11314 -1.06563 0
M  V30 3538 H 331.116 2.86163 -0.880408 0
M  V30 3539 H 328.662 1.37591 -0.424819 0
M  V30 3540 H 330.615 4.0201 1.26355 0
M  V30 3541 H 329.339 2.83181 1.62715 0
M  V30 3542 H 327.998 3.65 -0.342159 0
M  V30 3543 H 327.646 4.64744 1.92412 0
M  V30 3544 H 327.346 5.84143 0.636477 0
M  V30 3545 H 328.87 5.90151 1.56697 0
M  V30 3546 H 330.284 5.69076 -0.694671 0
M  V30 3547 H 328.681 5.81671 -1.47577 0
M  V30 3548 H 329.751 4.46534 -1.89038 0
M  V30 3549 N 331.094 0.475555 1.50254 0
M  V30 3550 C 332.319 -0.0777042 2.07254 0
M  V30 3551 C 332.744 -1.3235 1.3366 0
M  V30 3552 O 332.102 -1.77152 0.385597 0
M  V30 3553 C 332.15 -0.340169 3.58992 0
M  V30 3554 O 331.254 -1.41982 3.87188 0
M  V30 3555 H 330.595 0.0149556 0.663832 0
M  V30 3556 H 333.125 0.667878 1.93392 0
M  V30 3557 H 333.135 -0.579332 4.03866 0
M  V30 3558 H 331.81 0.570167 4.11973 0
M  V30 3559 H 330.387 -1.16762 3.54148 0
M  V30 3560 N 332.573 -1.56217 0.208337 0
M  V30 3561 C 333.813 -1.99849 -0.428927 0
M  V30 3562 C 334.177 -1.09262 -1.57879 0
M  V30 3563 O 335.378 -1.42185 -2.28116 0
M  V30 3564 C 333.649 -3.46777 -0.864879 0
M  V30 3565 S 335.208 -4.12434 -1.49811 0
M  V30 3566 H 332.026 -0.697742 -0.136665 0
M  V30 3567 H 334.628 -1.92953 0.314519 0
M  V30 3568 H 333.332 -4.10396 -0.0181326 0
M  V30 3569 H 332.863 -3.57518 -1.64147 0
M  V30 3570 H 334.878 -4.10532 -2.78707 0
M  V30 3571 N 334.051 0.0651679 -1.57465 0
M  V30 3572 C 335.467 0.420105 -1.53972 0
M  V30 3573 C 335.667 1.78782 -0.929474 0
M  V30 3574 O 334.723 2.46771 -0.534839 0
M  V30 3575 C 336.036 0.355084 -2.98596 0
M  V30 3576 C 337.584 0.434792 -3.09965 0
M  V30 3577 C 338.059 0.399609 -4.56253 0
M  V30 3578 N 339.55 0.459488 -4.60915 0
M  V30 3579 C 340.285 0.454584 -5.71595 0
M  V30 3580 N 339.781 0.404102 -6.9162 0
M  V30 3581 N 341.574 0.501635 -5.59857 0
M  V30 3582 H 333.725 -0.830328 -1.95498 0
M  V30 3583 H 335.988 -0.312244 -0.895102 0
M  V30 3584 H 335.694 -0.583357 -3.46828 0
M  V30 3585 H 335.568 1.16275 -3.58831 0
M  V30 3586 H 337.955 1.36366 -2.61703 0
M  V30 3587 H 338.036 -0.40157 -2.52628 0
M  V30 3588 H 337.68 -0.525436 -5.05175 0
M  V30 3589 H 337.61 1.25359 -5.11461 0
M  V30 3590 H 340.101 0.502482 -3.74544 0
M  V30 3591 H 340.414 0.404468 -7.71741 0
M  V30 3592 H 338.759 0.37069 -6.94011 0
M  V30 3593 H 341.95 0.538812 -4.64989 0
M  V30 3594 H 342.123 0.494345 -6.46112 0
M  V30 3595 N 335.529 1.53961 0.336706 0
M  V30 3596 C 336.459 1.85417 1.41925 0
M  V30 3597 C 337.44 0.709856 1.5458 0
M  V30 3598 O 338.625 0.962396 1.68676 0
M  V30 3599 C 335.755 2.06985 2.78881 0
M  V30 3600 C 334.709 3.22813 2.81026 0
M  V30 3601 C 334.035 3.29727 4.20932 0
M  V30 3602 C 335.335 4.60767 2.45949 0
M  V30 3603 H 337.029 2.76079 1.15848 0
M  V30 3604 H 334.575 1.32839 0.555859 0
M  V30 3605 H 336.528 2.27575 3.54665 0
M  V30 3606 H 335.252 1.13061 3.06406 0
M  V30 3607 H 333.911 3.0209 2.07695 0
M  V30 3608 H 333.559 2.33385 4.45579 0
M  V30 3609 H 333.259 4.07566 4.23277 0
M  V30 3610 H 334.783 3.52536 4.98549 0
M  V30 3611 H 336.197 4.81325 3.11446 0
M  V30 3612 H 334.594 5.4106 2.59566 0
M  V30 3613 H 335.664 4.6391 1.41122 0
M  V30 3614 N 337.007 -0.598083 1.45811 0
M  V30 3615 C 338.253 -1.35882 1.50545 0
M  V30 3616 C 338.586 -1.93616 0.150445 0
M  V30 3617 O 337.861 -1.75604 -0.83628 0
M  V30 3618 C 338.144 -2.49966 2.59208 0
M  V30 3619 C 337.997 -1.97367 4.04186 0
M  V30 3620 C 339.316 -3.52068 2.64076 0
M  V30 3621 H 336.435 -0.492717 0.548087 0
M  V30 3622 H 339.077 -0.673319 1.77669 0
M  V30 3623 H 337.227 -3.08443 2.3621 0
M  V30 3624 H 338.899 -1.43466 4.38423 0
M  V30 3625 H 337.142 -1.283 4.14393 0
M  V30 3626 H 337.813 -2.79649 4.75921 0
M  V30 3627 H 340.289 -3.03448 2.84708 0
M  V30 3628 H 339.165 -4.2937 3.41954 0
M  V30 3629 H 339.426 -4.08304 1.69531 0
M  V30 3630 N 338.485 -1.33259 -0.841409 0
M  V30 3631 C 339.732 -1.24572 -1.5965 0
M  V30 3632 C 340.06 0.189137 -1.93578 0
M  V30 3633 O 339.315 1.14566 -1.5866 0
M  V30 3634 C 339.614 -2.06381 -2.9179 0
M  V30 3635 C 339.28 -3.556 -2.77235 0
M  V30 3636 C 337.942 -3.96282 -2.72973 0
M  V30 3637 C 340.294 -4.50433 -2.62221 0
M  V30 3638 C 337.622 -5.30017 -2.51592 0
M  V30 3639 C 339.974 -5.84327 -2.42374 0
M  V30 3640 C 338.638 -6.24194 -2.36512 0
M  V30 3641 H 337.908 -0.455842 -0.5842 0
M  V30 3642 H 340.555 -1.6482 -0.975016 0
M  V30 3643 H 338.86 -1.58903 -3.5813 0
M  V30 3644 H 340.557 -1.97019 -3.49263 0
M  V30 3645 H 337.147 -3.23298 -2.81384 0
M  V30 3646 H 341.331 -4.19914 -2.64549 0
M  V30 3647 H 336.587 -5.59947 -2.45499 0
M  V30 3648 H 340.761 -6.57414 -2.29739 0
M  V30 3649 H 338.388 -7.27759 -2.19706 0
M  V30 3650 N 339.963 1.05934 -1.16686 0
M  V30 3651 C 340.893 2.1546 -0.899949 0
M  V30 3652 C 341.874 1.69391 0.155154 0
M  V30 3653 O 343.059 1.94199 0.00648693 0
M  V30 3654 C 340.189 3.44939 -0.404241 0
M  V30 3655 C 339.143 4.04536 -1.39767 0
M  V30 3656 C 338.469 5.29268 -0.760216 0
M  V30 3657 C 339.769 4.42893 -2.76845 0
M  V30 3658 H 341.463 2.38046 -1.81588 0
M  V30 3659 H 339.009 1.14404 -0.874514 0
M  V30 3660 H 340.962 4.20901 -0.204971 0
M  V30 3661 H 339.686 3.21983 0.547206 0
M  V30 3662 H 338.345 3.30635 -1.58355 0
M  V30 3663 H 337.993 5.02611 0.197831 0
M  V30 3664 H 337.693 5.70101 -1.42332 0
M  V30 3665 H 339.217 6.07924 -0.57105 0
M  V30 3666 H 340.631 5.09921 -2.62019 0
M  V30 3667 H 339.028 4.94721 -3.39663 0
M  V30 3668 H 340.098 3.53584 -3.31823 0
M  V30 3669 N 341.441 0.965919 1.2453 0
M  V30 3670 C 342.371 0.513476 2.27784 0
M  V30 3671 C 343.352 -0.445974 1.6415 0
M  V30 3672 O 344.537 -0.342485 1.91156 0
M  V30 3673 C 341.667 -0.198839 3.4673 0
M  V30 3674 C 340.621 0.676456 4.2262 0
M  V30 3675 C 339.947 -0.167248 5.34438 0
M  V30 3676 C 341.247 1.96017 4.84123 0
M  V30 3677 H 342.941 1.3765 2.65881 0
M  V30 3678 H 340.487 0.663321 1.27813 0
M  V30 3679 H 342.44 -0.526567 4.18097 0
M  V30 3680 H 341.164 -1.0962 3.07654 0
M  V30 3681 H 339.823 0.98743 3.53052 0
M  V30 3682 H 339.471 -1.0647 4.91603 0
M  V30 3683 H 339.171 0.415181 5.86131 0
M  V30 3684 H 340.695 -0.489688 6.08633 0
M  V30 3685 H 342.109 1.69814 5.47573 0
M  V30 3686 H 340.506 2.48918 5.4604 0
M  V30 3687 H 341.576 2.65622 4.05676 0
M  V30 3688 N 342.919 -1.39368 0.735821 0
M  V30 3689 C 343.852 -2.28155 0.0451175 0
M  V30 3690 C 344.83 -1.44433 -0.746852 0
M  V30 3691 O 346.014 -1.73823 -0.729237 0
M  V30 3692 C 343.141 -3.253 -0.943266 0
M  V30 3693 C 342.187 -4.25826 -0.239685 0
M  V30 3694 S 343.02 -5.25166 1.04693 0
M  V30 3695 C 344.176 -6.2587 0.0611639 0
M  V30 3696 H 344.409 -2.86388 0.79807 0
M  V30 3697 H 341.942 -1.45104 0.527653 0
M  V30 3698 H 343.9 -3.81789 -1.50824 0
M  V30 3699 H 342.561 -2.66085 -1.66906 0
M  V30 3700 H 341.754 -4.94229 -0.987596 0
M  V30 3701 H 341.356 -3.73141 0.253274 0
M  V30 3702 H 343.648 -6.73007 -0.778941 0
M  V30 3703 H 344.591 -7.04508 0.712362 0
M  V30 3704 H 344.999 -5.63639 -0.311602 0
M  V30 3705 N 344.397 -0.483516 -1.5 0
M  V30 3706 C 345.329 0.340634 -2.26655 0
M  V30 3707 C 346.342 0.946152 -1.32483 0
M  V30 3708 O 347.531 0.832453 -1.579 0
M  V30 3709 C 344.631 1.4929 -3.04246 0
M  V30 3710 C 343.804 0.997903 -4.25865 0
M  V30 3711 C 342.863 2.02569 -4.85646 0
M  V30 3712 O 341.889 1.60128 -5.46212 0
M  V30 3713 N 343.091 3.3548 -4.73744 0
M  V30 3714 H 345.856 -0.316577 -2.98023 0
M  V30 3715 H 343.417 -0.315024 -1.58806 0
M  V30 3716 H 345.409 2.17766 -3.41116 0
M  V30 3717 H 343.979 2.05458 -2.35597 0
M  V30 3718 H 343.199 0.138617 -3.93956 0
M  V30 3719 H 344.487 0.645305 -5.04691 0
M  V30 3720 H 343.885 3.72661 -4.25605 0
M  V30 3721 H 342.442 3.99718 -5.14848 0
M  V30 3722 N 345.875 1.56104 -0.216619 0
M  V30 3723 C 347.105 2.02269 0.420802 0
M  V30 3724 C 347.513 1.09575 1.5424 0
M  V30 3725 O 346.856 0.0967308 1.83445 0
M  V30 3726 C 346.918 3.44784 1.01806 0
M  V30 3727 C 346.582 4.56988 0.0325154 0
M  V30 3728 C 347.579 5.14225 -0.766055 0
M  V30 3729 C 345.264 5.02228 -0.0848092 0
M  V30 3730 C 347.258 6.15169 -1.6687 0
M  V30 3731 C 344.945 6.03011 -0.990994 0
M  V30 3732 C 345.943 6.59357 -1.78149 0
M  V30 3733 O 345.631 7.58179 -2.67245 0
M  V30 3734 H 345.363 0.667353 0.107776 0
M  V30 3735 H 347.917 2.02747 -0.329034 0
M  V30 3736 H 346.147 3.41359 1.81689 0
M  V30 3737 H 347.836 3.74626 1.56237 0
M  V30 3738 H 348.602 4.80126 -0.685836 0
M  V30 3739 H 344.481 4.58054 0.520349 0
M  V30 3740 H 348.025 6.59076 -2.28615 0
M  V30 3741 H 343.922 6.36532 -1.07225 0
M  V30 3742 H 344.69 7.75682 -2.61265 0
M  V30 3743 N 347.353 -0.0568162 1.57498 0
M  V30 3744 C 348.593 -0.758273 1.89815 0
M  V30 3745 C 348.957 -1.73978 0.812132 0
M  V30 3746 O 350.158 -2.48744 1.01881 0
M  V30 3747 C 348.429 -1.43465 3.27342 0
M  V30 3748 S 349.988 -2.1691 3.81439 0
M  V30 3749 H 346.806 -0.251836 0.664906 0
M  V30 3750 H 349.408 -0.0137997 1.95495 0
M  V30 3751 H 348.112 -0.706693 4.0427 0
M  V30 3752 H 347.643 -2.21825 3.24896 0
M  V30 3753 H 349.658 -3.43658 3.5793 0
M  V30 3754 N 348.832 -1.54138 -0.328536 0
M  V30 3755 C 350.078 -1.7236 -1.06865 0
M  V30 3756 C 350.411 -0.493231 -1.87832 0
M  V30 3757 O 349.686 0.5098 -1.877 0
M  V30 3758 C 349.969 -2.99621 -1.99747 0
M  V30 3759 C 349.822 -4.32899 -1.22143 0
M  V30 3760 C 351.141 -3.22615 -2.99345 0
M  V30 3761 H 348.26 -0.627151 -0.387105 0
M  V30 3762 H 350.902 -1.86827 -0.345767 0
M  V30 3763 H 349.052 -2.87418 -2.61387 0
M  V30 3764 H 350.724 -4.56978 -0.630017 0
M  V30 3765 H 348.967 -4.30628 -0.523628 0
M  V30 3766 H 349.638 -5.18154 -1.90318 0
M  V30 3767 H 352.114 -3.34248 -2.47826 0
M  V30 3768 H 350.99 -4.13027 -3.61524 0
M  V30 3769 H 351.251 -2.3961 -3.71536 0
M  V30 3770 N 350.31 0.590341 -1.46126 0
M  V30 3771 C 351.273 1.68194 -1.55703 0
M  V30 3772 C 352.273 1.54808 -0.434868 0
M  V30 3773 O 353.463 1.59564 -0.698928 0
M  V30 3774 C 350.595 3.07575 -1.47005 0
M  V30 3775 H 351.788 1.61064 -2.52979 0
M  V30 3776 H 349.341 0.807541 -1.33823 0
M  V30 3777 H 350.076 3.20268 -0.509785 0
M  V30 3778 H 349.861 3.187 -2.28414 0
M  V30 3779 H 351.351 3.87055 -1.56776 0
M  V30 3780 N 351.788 1.33704 0.83433 0
M  V30 3781 C 352.751 1.24244 1.92603 0
M  V30 3782 C 353.751 0.160383 1.59998 0
M  V30 3783 O 354.941 0.412228 1.69252 0
M  V30 3784 C 352.073 0.91555 3.28376 0
M  V30 3785 H 353.266 2.21287 2.02416 0
M  V30 3786 H 350.819 1.17827 1.02696 0
M  V30 3787 H 351.554 -0.0521886 3.24258 0
M  V30 3788 H 351.339 1.69811 3.53422 0
M  V30 3789 H 352.829 0.874231 4.08347 0
M  V30 3790 N 353.266 -1.05314 1.17247 0
M  V30 3791 C 354.214 -2.15137 0.884238 0
M  V30 3792 C 355.208 -1.68729 -0.15063 0
M  V30 3793 O 356.414 -1.8 -0.00366673 0
M  V30 3794 H 352.789 -0.702471 0.2684 0
M  V30 3795 H 354.76 -2.36652 1.81764 0
M  V30 3796 C 353.509 -3.45243 0.412659 0
M  V30 3797 H 352.832 -3.81352 1.20043 0
M  V30 3798 H 354.272 -4.23263 0.249858 0
M  V30 3799 C 352.731 -3.25487 -0.86948 0
M  V30 3800 O 353.261 -3.51938 -1.93655 0
M  V30 3801 N 351.467 -2.78875 -0.817147 0
M  V30 3802 H 351.014 -2.57549 0.0514211 0
M  V30 3803 H 350.972 -2.66036 -1.67547 0
M  V30 3804 N 354.744 -0.972509 -1.24016 0
M  V30 3805 C 355.974 -0.653853 -1.9598 0
M  V30 3806 C 356.382 0.781801 -1.72292 0
M  V30 3807 O 355.725 1.53677 -1.00644 0
M  V30 3808 C 355.787 -0.854608 -3.49194 0
M  V30 3809 C 355.451 -2.27082 -3.96589 0
M  V30 3810 C 356.448 -3.24892 -4.05883 0
M  V30 3811 C 354.133 -2.5998 -4.29786 0
M  V30 3812 C 356.127 -4.53684 -4.47716 0
M  V30 3813 C 353.814 -3.88997 -4.71301 0
M  V30 3814 C 354.812 -4.85661 -4.80232 0
M  V30 3815 O 354.5 -6.12376 -5.20818 0
M  V30 3816 H 354.232 -0.242572 -0.630979 0
M  V30 3817 H 356.786 -1.30431 -1.58673 0
M  V30 3818 H 355.016 -0.146985 -3.86421 0
M  V30 3819 H 356.705 -0.534311 -4.02368 0
M  V30 3820 H 357.471 -3.00805 -3.80449 0
M  V30 3821 H 353.35 -1.85457 -4.22051 0
M  V30 3822 H 356.894 -5.29135 -4.54601 0
M  V30 3823 H 352.791 -4.12882 -4.96184 0
M  V30 3824 H 353.559 -6.16013 -5.38953 0
M  V30 3825 N 356.222 1.38976 -0.743202 0
M  V30 3826 C 357.452 2.04339 -0.304807 0
M  V30 3827 C 357.86 1.56162 1.06819 0
M  V30 3828 O 357.203 0.725284 1.68776 0
M  V30 3829 C 357.265 3.58716 -0.237369 0
M  V30 3830 C 356.929 4.29905 -1.55018 0
M  V30 3831 C 357.926 4.55987 -2.49744 0
M  V30 3832 C 355.611 4.68294 -1.81675 0
M  V30 3833 C 357.605 5.19478 -3.69353 0
M  V30 3834 C 355.292 5.31512 -3.0156 0
M  V30 3835 C 356.29 5.57037 -3.9522 0
M  V30 3836 O 355.978 6.18941 -5.12998 0
M  V30 3837 H 355.71 0.663439 -0.12971 0
M  V30 3838 H 358.264 1.78852 -1.01001 0
M  V30 3839 H 356.494 3.83133 0.524003 0
M  V30 3840 H 358.183 4.05543 0.170121 0
M  V30 3841 H 358.949 4.26767 -2.30423 0
M  V30 3842 H 354.828 4.47779 -1.09615 0
M  V30 3843 H 358.372 5.39318 -4.42473 0
M  V30 3844 H 354.269 5.60153 -3.20778 0
M  V30 3845 H 355.037 6.37433 -5.13441 0
M  V30 3846 N 357.7 0.491464 1.49741 0
M  V30 3847 C 358.946 -0.0485431 2.03342 0
M  V30 3848 C 359.301 -1.35566 1.36527 0
M  V30 3849 O 358.594 -1.85262 0.488729 0
M  V30 3850 C 358.788 -0.267329 3.56399 0
M  V30 3851 C 358.617 1.01703 4.38049 0
M  V30 3852 C 357.387 1.56614 4.80417 0
M  V30 3853 C 359.585 1.91782 4.77204 0
M  V30 3854 N 357.567 2.7974 5.4646 0
M  V30 3855 C 358.938 2.99489 5.42868 0
M  V30 3856 C 360.993 1.92575 4.5915 0
M  V30 3857 C 359.696 4.08005 5.92389 0
M  V30 3858 C 361.722 3.0006 5.09626 0
M  V30 3859 C 361.084 4.06485 5.75282 0
M  V30 3860 H 357.183 0.0227779 0.781668 0
M  V30 3861 H 359.767 0.664204 1.8302 0
M  V30 3862 H 357.938 -0.949126 3.76625 0
M  V30 3863 H 359.67 -0.803492 3.96644 0
M  V30 3864 H 356.425 1.11256 4.60347 0
M  V30 3865 H 356.849 3.42323 5.84075 0
M  V30 3866 H 361.491 1.11605 4.07804 0
M  V30 3867 H 359.209 4.89779 6.42761 0
M  V30 3868 H 362.795 3.01681 4.97473 0
M  V30 3869 H 361.675 4.88287 6.13633 0
M  V30 3870 N 359.178 -1.55987 0.224894 0
M  V30 3871 C 360.108 -2.23426 -0.678457 0
M  V30 3872 C 361.089 -1.20709 -1.19847 0
M  V30 3873 O 362.274 -1.49304 -1.24186 0
M  V30 3874 C 359.404 -2.91676 -1.88527 0
M  V30 3875 C 358.358 -4.00893 -1.49896 0
M  V30 3876 C 357.684 -4.56455 -2.78483 0
M  V30 3877 C 358.984 -5.17769 -0.686461 0
M  V30 3878 H 360.678 -2.99175 -0.116173 0
M  V30 3879 H 358.224 -1.43897 -0.054436 0
M  V30 3880 H 360.177 -3.37547 -2.5227 0
M  V30 3881 H 358.901 -2.1338 -2.47258 0
M  V30 3882 H 357.56 -3.55758 -0.884985 0
M  V30 3883 H 357.208 -3.74886 -3.35365 0
M  V30 3884 H 356.908 -5.30169 -2.53368 0
M  V30 3885 H 358.432 -5.05047 -3.43162 0
M  V30 3886 H 359.846 -5.60001 -1.22767 0
M  V30 3887 H 358.243 -5.97735 -0.532259 0
M  V30 3888 H 359.313 -4.83932 0.306196 0
M  V30 3889 N 360.656 0.0484629 -1.57525 0
M  V30 3890 C 361.586 1.0549 -2.08313 0
M  V30 3891 C 362.567 1.38929 -0.981463 0
M  V30 3892 O 363.752 1.48151 -1.25558 0
M  V30 3893 C 360.882 2.36162 -2.54646 0
M  V30 3894 C 359.836 2.17016 -3.68901 0
M  V30 3895 C 359.162 3.53278 -4.01371 0
M  V30 3896 C 360.462 1.57219 -4.98076 0
M  V30 3897 H 362.156 0.632195 -2.92649 0
M  V30 3898 H 359.702 0.302654 -1.40784 0
M  V30 3899 H 361.655 3.06882 -2.88793 0
M  V30 3900 H 360.379 2.80456 -1.67368 0
M  V30 3901 H 359.038 1.48733 -3.35073 0
M  V30 3902 H 358.686 3.95185 -3.11188 0
M  V30 3903 H 358.386 3.41299 -4.78318 0
M  V30 3904 H 359.91 4.25391 -4.38035 0
M  V30 3905 H 361.324 2.17832 -5.30304 0
M  V30 3906 H 359.721 1.55871 -5.79503 0
M  V30 3907 H 360.791 0.535956 -4.81929 0
M  V30 3908 N 362.134 1.5431 0.320358 0
M  V30 3909 C 363.38 1.72924 1.05949 0
M  V30 3910 C 363.713 0.503185 1.87568 0
M  V30 3911 O 362.988 -0.499839 1.87968 0
M  V30 3912 C 363.271 3.00676 1.98156 0
M  V30 3913 C 363.124 4.3354 1.19845 0
M  V30 3914 C 364.443 3.24198 2.9763 0
M  V30 3915 H 361.562 0.629195 0.383774 0
M  V30 3916 H 364.204 1.87008 0.335854 0
M  V30 3917 H 362.354 2.888 2.59859 0
M  V30 3918 H 364.026 4.57305 0.605773 0
M  V30 3919 H 362.269 4.309 0.500784 0
M  V30 3920 H 362.94 5.19156 1.87567 0
M  V30 3921 H 365.416 3.35557 2.4605 0
M  V30 3922 H 364.292 4.14938 3.59329 0
M  V30 3923 H 364.553 2.41577 3.7026 0
M  V30 3924 N 363.613 -0.582584 1.46437 0
M  V30 3925 C 364.523 -1.71949 1.59595 0
M  V30 3926 C 365.539 -1.67264 0.479443 0
M  V30 3927 O 366.715 -1.87171 0.743579 0
M  V30 3928 C 363.78 -3.08452 1.58298 0
M  V30 3929 C 362.841 -3.244 2.81182 0
M  V30 3930 C 362.074 -4.54391 2.79937 0
M  V30 3931 O 362.297 -5.38287 1.8869 0
M  V30 3932 O 361.231 -4.73588 3.71481 0
M  V30 3933 H 365.057 -1.63795 2.55744 0
M  V30 3934 H 362.642 -0.749643 1.29231 0
M  V30 3935 H 364.524 -3.89732 1.60271 0
M  V30 3936 H 363.199 -3.17043 0.653094 0
M  V30 3937 H 362.106 -2.42613 2.84763 0
M  V30 3938 H 363.439 -3.20699 3.7338 0
M  V30 3939 N 365.091 -1.34144 -0.827227 0
M  V30 3940 C 366.339 -1.26009 -1.58007 0
M  V30 3941 C 366.66 0.170971 -1.94249 0
M  V30 3942 O 365.93 1.10256 -1.61927 0
M  V30 3943 H 364.51 -0.463414 -0.585881 0
M  V30 3944 H 367.172 -1.68005 -0.987951 0
M  V30 3945 H 366.268 -1.86187 -2.50481 0
M  V30 3946 N 366.569 1.04691 -1.17803 0
M  V30 3947 C 367.815 1.78045 -0.970969 0
M  V30 3948 C 368.148 1.87686 0.498751 0
M  V30 3949 O 367.423 1.38035 1.37027 0
M  V30 3950 C 367.706 3.2166 -1.61884 0
M  V30 3951 C 367.559 3.20001 -3.161 0
M  V30 3952 C 368.878 4.1962 -1.3269 0
M  V30 3953 H 365.997 0.64633 -0.354155 0
M  V30 3954 H 368.639 1.22333 -1.45378 0
M  V30 3955 H 366.789 3.69232 -1.20831 0
M  V30 3956 H 368.461 2.80467 -3.66246 0
M  V30 3957 H 366.704 2.58203 -3.48588 0
M  V30 3958 H 367.375 4.21386 -3.56564 0
M  V30 3959 H 369.851 3.80567 -1.68249 0
M  V30 3960 H 368.727 5.18339 -1.80599 0
M  V30 3961 H 368.988 4.414 -0.248622 0
M  V30 3962 N 368.047 0.979072 1.23499 0
M  V30 3963 C 369.277 0.664237 1.95631 0
M  V30 3964 C 369.685 -0.772653 1.72704 0
M  V30 3965 O 369.028 -1.53141 1.01457 0
M  V30 3966 C 369.09 0.873115 3.48736 0
M  V30 3967 C 368.754 2.29182 3.95379 0
M  V30 3968 C 369.751 3.2704 4.04155 0
M  V30 3969 C 367.436 2.62256 4.28401 0
M  V30 3970 C 369.43 4.56052 4.45304 0
M  V30 3971 C 367.117 3.91491 4.69231 0
M  V30 3972 C 368.115 4.88201 4.77649 0
M  V30 3973 O 367.803 6.15129 5.17563 0
M  V30 3974 H 367.535 0.245915 0.629684 0
M  V30 3975 H 370.089 1.3127 1.57979 0
M  V30 3976 H 368.319 0.167476 3.86337 0
M  V30 3977 H 370.008 0.555642 4.02079 0
M  V30 3978 H 370.774 3.02819 3.78848 0
M  V30 3979 H 366.653 1.87692 4.21061 0
M  V30 3980 H 370.197 5.31538 4.51789 0
M  V30 3981 H 366.094 4.15508 4.93987 0
M  V30 3982 H 366.862 6.18862 5.35679 0
M  V30 3983 N 369.525 -1.3858 0.750561 0
M  V30 3984 C 370.455 -2.33102 0.136237 0
M  V30 3985 C 371.436 -1.54713 -0.706965 0
M  V30 3986 O 372.621 -1.83043 -0.648769 0
M  V30 3987 C 369.751 -3.38882 -0.760017 0
M  V30 3988 C 368.705 -4.27995 -0.0197785 0
M  V30 3989 C 368.031 -5.24605 -1.03408 0
M  V30 3990 C 369.331 -5.09554 1.14684 0
M  V30 3991 H 371.025 -2.84726 0.925822 0
M  V30 3992 H 368.571 -1.36898 0.446654 0
M  V30 3993 H 370.524 -4.0397 -1.19943 0
M  V30 3994 H 369.248 -2.85734 -1.58189 0
M  V30 3995 H 367.907 -3.64409 0.400184 0
M  V30 3996 H 367.555 -4.67746 -1.84994 0
M  V30 3997 H 367.255 -5.85081 -0.543464 0
M  V30 3998 H 368.779 -5.9257 -1.47288 0
M  V30 3999 H 370.193 -5.67899 0.785118 0
M  V30 4000 H 368.59 -5.7925 1.56812 0
M  V30 4001 H 369.66 -4.4347 1.96118 0
M  V30 4002 N 371.003 -0.499398 -1.49478 0
M  V30 4003 C 372.233 0.0424839 -2.06556 0
M  V30 4004 C 372.641 1.31514 -1.36018 0
M  V30 4005 O 371.984 1.78555 -0.431718 0
M  V30 4006 C 372.046 0.368074 -3.57611 0
M  V30 4007 C 371.71 -0.806631 -4.49825 0
M  V30 4008 C 372.707 -1.69667 -4.91436 0
M  V30 4009 C 370.392 -1.00498 -4.92144 0
M  V30 4010 C 372.386 -2.76923 -5.74101 0
M  V30 4011 C 370.073 -2.08072 -5.74586 0
M  V30 4012 C 371.071 -2.96119 -6.15469 0
M  V30 4013 O 370.759 -4.01836 -6.96264 0
M  V30 4014 H 370.491 -0.0165165 -0.675798 0
M  V30 4015 H 373.045 -0.695497 -1.93267 0
M  V30 4016 H 371.275 1.15963 -3.68903 0
M  V30 4017 H 372.964 0.848381 -3.96935 0
M  V30 4018 H 373.73 -1.55524 -4.59388 0
M  V30 4019 H 369.609 -0.329036 -4.59824 0
M  V30 4020 H 373.153 -3.45676 -6.05932 0
M  V30 4021 H 369.05 -2.22211 -6.06047 0
M  V30 4022 H 369.818 -3.9917 -7.14567 0
M  V30 4023 N 372.481 1.55866 -0.233164 0
M  V30 4024 C 373.709 2.02998 0.399905 0
M  V30 4025 C 374.124 1.11274 1.52524 0
M  V30 4026 O 373.481 0.124528 1.82075 0
M  V30 4027 C 373.532 3.4958 0.920639 0
M  V30 4028 O 373.253 4.37808 -0.159834 0
M  V30 4029 C 374.754 4.12411 1.62578 0
M  V30 4030 H 371.974 0.664006 0.0966281 0
M  V30 4031 H 374.518 2.0143 -0.353013 0
M  V30 4032 H 372.673 3.51727 1.62379 0
M  V30 4033 H 373.087 5.23981 0.23337 0
M  V30 4034 H 374.561 5.16711 1.94201 0
M  V30 4035 H 375.038 3.5809 2.54299 0
M  V30 4036 H 375.644 4.14148 0.967553 0
M  V30 4037 N 373.959 -0.0401083 1.57549 0
M  V30 4038 C 374.889 -1.04384 2.08869 0
M  V30 4039 C 375.87 -1.38407 0.988817 0
M  V30 4040 O 377.055 -1.47483 1.26342 0
M  V30 4041 C 374.185 -2.34808 2.55895 0
M  V30 4042 C 373.139 -2.15057 3.70047 0
M  V30 4043 C 372.465 -3.51145 4.03239 0
M  V30 4044 C 373.765 -1.54576 4.98902 0
M  V30 4045 H 375.459 -0.616666 2.92981 0
M  V30 4046 H 373.005 -0.295184 1.40942 0
M  V30 4047 H 374.958 -3.05346 2.90417 0
M  V30 4048 H 373.682 -2.79565 1.68853 0
M  V30 4049 H 372.341 -1.46954 3.35857 0
M  V30 4050 H 371.989 -3.93529 3.13279 0
M  V30 4051 H 371.689 -3.38758 4.80122 0
M  V30 4052 H 373.213 -4.23062 4.40285 0
M  V30 4053 H 374.627 -2.15017 5.31451 0
M  V30 4054 H 373.024 -1.52796 5.80322 0
M  V30 4055 H 374.094 -0.51039 4.82206 0
M  V30 4056 N 375.437 -1.54477 -0.31217 0
M  V30 4057 C 376.367 -1.87652 -1.38957 0
M  V30 4058 C 377.348 -0.734358 -1.53431 0
M  V30 4059 O 378.533 -0.98911 -1.67123 0
M  V30 4060 C 375.663 -2.11396 -2.75552 0
M  V30 4061 C 374.617 -3.27243 -2.75855 0
M  V30 4062 C 373.943 -3.36382 -4.15633 0
M  V30 4063 C 375.243 -4.64622 -2.38587 0
M  V30 4064 H 376.937 -2.77887 -1.11442 0
M  V30 4065 H 374.483 -1.33707 -0.534655 0
M  V30 4066 H 376.436 -2.33189 -3.51 0
M  V30 4067 H 375.16 -1.17921 -3.04569 0
M  V30 4068 H 373.819 -3.05356 -2.02863 0
M  V30 4069 H 373.467 -2.40445 -4.41809 0
M  V30 4070 H 373.167 -4.14249 -4.1674 0
M  V30 4071 H 374.691 -3.60422 -4.92877 0
M  V30 4072 H 376.105 -4.86219 -3.03749 0
M  V30 4073 H 374.502 -5.45121 -2.50925 0
M  V30 4074 H 375.572 -4.66097 -1.33723 0
M  V30 4075 N 376.915 0.57481 -1.46744 0
M  V30 4076 C 377.878 1.66533 -1.57478 0
M  V30 4077 C 378.878 1.54338 -0.451263 0
M  V30 4078 O 380.068 1.58814 -0.715813 0
M  V30 4079 C 377.2 3.05999 -1.50259 0
M  V30 4080 H 378.393 1.58372 -2.54673 0
M  V30 4081 H 375.946 0.793301 -1.34672 0
M  V30 4082 H 376.681 3.19709 -0.543725 0
M  V30 4083 H 376.466 3.16259 -2.31781 0
M  V30 4084 H 377.956 3.8537 -1.60872 0
M  V30 4085 N 378.394 1.34581 0.820102 0
M  V30 4086 C 379.641 1.27096 1.57648 0
M  V30 4087 C 379.969 -0.158317 1.93855 0
M  V30 4088 O 379.224 -1.12028 1.60463 0
M  V30 4089 C 379.523 2.10997 2.8847 0
M  V30 4090 C 379.189 3.59966 2.71543 0
M  V30 4091 C 377.851 4.00575 2.66634 0
M  V30 4092 C 380.203 4.54548 2.55021 0
M  V30 4093 C 377.531 5.33953 2.43128 0
M  V30 4094 C 379.883 5.88109 2.33047 0
M  V30 4095 C 378.547 6.27878 2.26552 0
M  V30 4096 H 377.817 0.465078 0.576874 0
M  V30 4097 H 380.464 1.6635 0.948671 0
M  V30 4098 H 378.769 1.6458 3.55557 0
M  V30 4099 H 380.466 2.0255 3.46084 0
M  V30 4100 H 377.056 3.27733 2.76205 0
M  V30 4101 H 381.24 4.24069 2.57835 0
M  V30 4102 H 376.496 5.63781 2.3656 0
M  V30 4103 H 380.67 6.60985 2.19251 0
M  V30 4104 H 378.297 7.31162 2.081 0
M  V30 4105 N 379.872 -1.04064 1.18357 0
M  V30 4106 C 381.097 -1.81454 1.00445 0
M  V30 4107 C 381.522 -1.82823 -0.442423 0
M  V30 4108 O 380.88 -1.24555 -1.31741 0
M  V30 4109 C 380.928 -3.24925 1.56384 0
M  V30 4110 O 380.032 -4.04856 0.785209 0
M  V30 4111 H 379.373 -0.560604 0.355835 0
M  V30 4112 H 381.903 -1.31059 1.57114 0
M  V30 4113 H 381.913 -3.75702 1.59097 0
M  V30 4114 H 380.588 -3.23244 2.61699 0
M  V30 4115 H 379.165 -3.63537 0.830399 0
M  V30 4116 N 381.35 -0.985608 -1.22978 0
M  V30 4117 C 382.596 -0.65836 -1.91816 0
M  V30 4118 C 382.929 0.806692 -1.76653 0
M  V30 4119 O 382.204 1.58252 -1.13078 0
M  V30 4120 C 382.487 -1.056 -3.44268 0
M  V30 4121 C 382.34 -2.57906 -3.68516 0
M  V30 4122 C 383.659 -0.603781 -4.35939 0
M  V30 4123 H 380.778 -0.24065 -0.696604 0
M  V30 4124 H 383.42 -1.22783 -1.44998 0
M  V30 4125 H 381.57 -0.571445 -3.84274 0
M  V30 4126 H 383.242 -3.13976 -3.3796 0
M  V30 4127 H 381.485 -3.00305 -3.13048 0
M  V30 4128 H 382.156 -2.80779 -4.75255 0
M  V30 4129 H 384.632 -1.01987 -4.03408 0
M  V30 4130 H 383.508 -0.910383 -5.41298 0
M  V30 4131 H 383.769 0.495761 -4.39312 0
M  V30 4132 N 382.828 1.3818 -0.7579 0
M  V30 4133 C 383.758 2.33027 -0.148597 0
M  V30 4134 C 384.739 1.55085 0.69875 0
M  V30 4135 O 385.924 1.83384 0.639053 0
M  V30 4136 C 383.054 3.3928 0.742034 0
M  V30 4137 C 382.008 4.28 -0.00291946 0
M  V30 4138 C 381.334 5.25146 1.00625 0
M  V30 4139 C 382.634 5.08938 -1.17385 0
M  V30 4140 H 384.328 2.84231 -0.940909 0
M  V30 4141 H 381.874 1.36659 -0.453908 0
M  V30 4142 H 383.827 4.046 1.17799 0
M  V30 4143 H 382.551 2.86569 1.56671 0
M  V30 4144 H 381.21 3.64192 -0.419504 0
M  V30 4145 H 380.858 4.68721 1.8251 0
M  V30 4146 H 380.558 5.85361 0.512428 0
M  V30 4147 H 382.082 5.93342 1.44143 0
M  V30 4148 H 383.496 5.67474 -0.815224 0
M  V30 4149 H 381.893 5.7841 -1.59882 0
M  V30 4150 H 382.963 4.42424 -1.98468 0
M  V30 4151 N 384.306 0.507319 1.49211 0
M  V30 4152 C 385.531 -0.033725 2.07373 0
M  V30 4153 C 385.956 -1.29485 1.36437 0
M  V30 4154 O 385.314 -1.76294 0.423087 0
M  V30 4155 C 385.362 -0.263945 3.59633 0
M  V30 4156 O 384.466 -1.33737 3.90113 0
M  V30 4157 H 383.807 0.0290331 0.663365 0
M  V30 4158 H 386.337 0.708749 1.91932 0
M  V30 4159 H 386.347 -0.493536 4.05004 0
M  V30 4160 H 385.022 0.657424 4.10671 0
M  V30 4161 H 383.599 -1.09224 3.56545 0
M  V30 4162 N 385.784 -1.5574 0.241426 0
M  V30 4163 C 386.694 -2.2479 -0.671305 0
M  V30 4164 C 387.71 -1.26217 -1.19772 0
M  V30 4165 O 388.886 -1.59079 -1.23514 0
M  V30 4166 C 385.951 -2.92966 -1.85396 0
M  V30 4167 C 385.012 -4.06935 -1.36756 0
M  V30 4168 C 384.245 -4.71851 -2.49384 0
M  V30 4169 O 384.468 -4.35823 -3.67987 0
M  V30 4170 O 383.402 -5.60467 -2.19454 0
M  V30 4171 H 387.228 -3.0349 -0.112966 0
M  V30 4172 H 384.813 -1.49397 0.0101513 0
M  V30 4173 H 386.695 -3.35927 -2.54423 0
M  V30 4174 H 385.37 -2.17211 -2.40002 0
M  V30 4175 H 384.277 -3.68503 -0.644726 0
M  V30 4176 H 385.61 -4.84492 -0.867647 0
M  V30 4177 N 387.262 0.0317525 -1.57568 0
M  V30 4178 C 388.194 1.06073 -2.03178 0
M  V30 4179 C 389.207 1.32627 -0.944132 0
M  V30 4180 O 390.396 1.30162 -1.22148 0
M  V30 4181 C 387.496 2.40297 -2.38978 0
M  V30 4182 C 386.669 2.33137 -3.70089 0
M  V30 4183 C 385.728 3.49787 -3.9311 0
M  V30 4184 O 384.754 3.29403 -4.64201 0
M  V30 4185 N 385.956 4.71562 -3.38541 0
M  V30 4186 H 388.721 0.672006 -2.92069 0
M  V30 4187 H 386.282 0.219745 -1.60402 0
M  V30 4188 H 388.274 3.1705 -2.51518 0
M  V30 4189 H 386.844 2.71024 -1.55771 0
M  V30 4190 H 386.064 1.415 -3.67928 0
M  V30 4191 H 387.352 2.25493 -4.56104 0
M  V30 4192 H 386.75 4.91024 -2.80912 0
M  V30 4193 H 385.307 5.45689 -3.56464 0
M  V30 4194 N 388.74 1.54641 0.303973 0
M  V30 4195 C 389.986 1.74969 1.03718 0
M  V30 4196 C 390.341 0.527461 1.85029 0
M  V30 4197 O 389.634 -0.480143 1.85486 0
M  V30 4198 C 389.828 2.97753 1.97681 0
M  V30 4199 C 389.657 4.318 1.25613 0
M  V30 4200 C 388.427 4.95616 0.984518 0
M  V30 4201 C 390.625 5.10021 0.662081 0
M  V30 4202 N 388.607 6.13455 0.233794 0
M  V30 4203 C 389.978 6.19984 0.0439736 0
M  V30 4204 C 392.033 4.94663 0.566835 0
M  V30 4205 C 390.736 7.16264 -0.66016 0
M  V30 4206 C 392.762 5.91271 -0.123637 0
M  V30 4207 C 392.124 7.00601 -0.730608 0
M  V30 4208 H 388.223 0.692873 0.362562 0
M  V30 4209 H 390.807 1.92116 0.316135 0
M  V30 4210 H 388.978 2.82036 2.6704 0
M  V30 4211 H 390.71 3.06621 2.64132 0
M  V30 4212 H 387.465 4.55921 1.28191 0
M  V30 4213 H 387.889 6.76879 -0.127996 0
M  V30 4214 H 392.531 4.10267 1.02181 0
M  V30 4215 H 390.249 8.00204 -1.12691 0
M  V30 4216 H 393.835 5.81466 -0.197236 0
M  V30 4217 H 392.715 7.7407 -1.2564 0
M  V30 4218 N 390.218 -0.567019 1.47046 0
M  V30 4219 C 391.467 -1.32091 1.5243 0
M  V30 4220 C 391.78 -1.94704 0.187021 0
M  V30 4221 O 392.986 -2.7124 0.118771 0
M  V30 4222 C 391.442 -2.39479 2.68659 0
M  V30 4223 C 391.05 -1.831 4.08874 0
M  V30 4224 C 392.794 -3.16111 2.83327 0
M  V30 4225 C 390.701 -2.8821 5.16419 0
M  V30 4226 H 389.631 -0.496629 0.56734 0
M  V30 4227 H 392.282 -0.603354 1.73297 0
M  V30 4228 H 390.664 -3.14105 2.41152 0
M  V30 4229 H 391.838 -1.14913 4.46242 0
M  V30 4230 H 390.153 -1.19085 3.99008 0
M  V30 4231 H 392.75 -3.94585 3.60842 0
M  V30 4232 H 393.093 -3.69686 1.91411 0
M  V30 4233 H 393.626 -2.48595 3.10556 0
M  V30 4234 H 390.365 -2.39504 6.10179 0
M  V30 4235 H 389.885 -3.54839 4.8358 0
M  V30 4236 H 391.564 -3.51881 5.42945 0
M  V30 4237 N 391.696 -1.35014 -0.812953 0
M  V30 4238 C 392.943 -1.27931 -1.56971 0
M  V30 4239 C 393.271 0.148034 -1.93936 0
M  V30 4240 O 392.526 1.11175 -1.61054 0
M  V30 4241 C 392.825 -2.12524 -2.87347 0
M  V30 4242 C 392.491 -3.61401 -2.6963 0
M  V30 4243 C 391.153 -4.01983 -2.64506 0
M  V30 4244 C 393.505 -4.55894 -2.52607 0
M  V30 4245 C 390.833 -5.35235 -2.40293 0
M  V30 4246 C 393.185 -5.89336 -2.29925 0
M  V30 4247 C 391.849 -6.2907 -2.23219 0
M  V30 4248 H 391.119 -0.468131 -0.574399 0
M  V30 4249 H 393.766 -1.66851 -0.939836 0
M  V30 4250 H 392.071 -1.66463 -3.54679 0
M  V30 4251 H 393.768 -2.04383 -3.45005 0
M  V30 4252 H 390.358 -3.29193 -2.74463 0
M  V30 4253 H 394.542 -4.25431 -2.55583 0
M  V30 4254 H 389.798 -5.65028 -2.33566 0
M  V30 4255 H 393.972 -6.62139 -2.15743 0
M  V30 4256 H 391.599 -7.32256 -2.04219 0
M  V30 4257 N 393.175 1.03435 -1.18907 0
M  V30 4258 C 394.591 1.28973 -0.940111 0
M  V30 4259 C 394.791 1.97676 0.390691 0
M  V30 4260 O 393.847 2.26127 1.12352 0
M  V30 4261 C 395.16 2.14221 -2.11021 0
M  V30 4262 C 396.708 2.27547 -2.14922 0
M  V30 4263 C 397.183 3.16164 -3.31367 0
M  V30 4264 N 398.674 3.23752 -3.31269 0
M  V30 4265 C 399.409 3.92495 -4.18014 0
M  V30 4266 N 398.905 4.63515 -5.14904 0
M  V30 4267 N 400.698 3.88838 -4.05908 0
M  V30 4268 H 392.849 0.57252 -2.04538 0
M  V30 4269 H 395.112 0.315184 -0.894071 0
M  V30 4270 H 394.818 1.71054 -3.073 0
M  V30 4271 H 394.692 3.14919 -2.0762 0
M  V30 4272 H 397.079 2.69947 -1.19217 0
M  V30 4273 H 397.16 1.26418 -2.22378 0
M  V30 4274 H 396.804 2.74474 -4.27348 0
M  V30 4275 H 396.734 4.17339 -3.21148 0
M  V30 4276 H 399.225 2.73167 -2.61129 0
M  V30 4277 H 399.538 5.13583 -5.77453 0
M  V30 4278 H 397.883 4.62398 -5.18857 0
M  V30 4279 H 401.074 3.32491 -3.29495 0
M  V30 4280 H 401.247 4.4214 -4.73726 0
M  V30 4281 N 394.653 0.992116 1.22453 0
M  V30 4282 C 395.583 0.561677 2.26644 0
M  V30 4283 C 396.564 -0.411055 1.65059 0
M  V30 4284 O 397.749 -0.301861 1.9184 0
M  V30 4285 C 394.879 -0.125247 3.47074 0
M  V30 4286 C 393.833 0.765948 4.21091 0
M  V30 4287 C 393.159 -0.0538484 5.34673 0
M  V30 4288 C 394.459 2.06242 4.79856 0
M  V30 4289 H 396.153 1.43259 2.62902 0
M  V30 4290 H 393.699 0.690283 1.26377 0
M  V30 4291 H 395.652 -0.437764 4.1912 0
M  V30 4292 H 394.376 -1.03069 3.0991 0
M  V30 4293 H 393.035 1.0621 3.50878 0
M  V30 4294 H 392.683 -0.960188 4.9375 0
M  V30 4295 H 392.383 0.539415 5.85119 0
M  V30 4296 H 393.907 -0.360477 6.09535 0
M  V30 4297 H 395.321 1.8139 5.43848 0
M  V30 4298 H 393.718 2.60444 5.40638 0
M  V30 4299 H 394.788 2.74167 3.99951 0
M  V30 4300 N 396.131 -1.37776 0.765217 0
M  V30 4301 C 397.361 -2.03828 0.337277 0
M  V30 4302 C 397.769 -1.57841 -1.04321 0
M  V30 4303 O 397.112 -0.752043 -1.67601 0
M  V30 4304 C 397.174 -3.58292 0.294407 0
M  V30 4305 C 396.838 -4.27384 1.61838 0
M  V30 4306 C 397.835 -4.51956 2.56967 0
M  V30 4307 C 395.52 -4.65345 1.89102 0
M  V30 4308 C 397.514 -5.13536 3.77571 0
M  V30 4309 C 395.201 -5.26647 3.09978 0
M  V30 4310 C 396.199 -5.50679 4.04032 0
M  V30 4311 O 395.887 -6.10702 5.2278 0
M  V30 4312 H 395.619 -0.661292 0.140248 0
M  V30 4313 H 398.173 -1.77222 1.03834 0
M  V30 4314 H 396.403 -3.83918 -0.462983 0
M  V30 4315 H 398.092 -4.05763 -0.105581 0
M  V30 4316 H 398.858 -4.23048 2.37183 0
M  V30 4317 H 394.737 -4.45978 1.16725 0
M  V30 4318 H 398.281 -5.3221 4.50997 0
M  V30 4319 H 394.178 -5.54979 3.29649 0
M  V30 4320 H 394.946 -6.29183 5.23517 0
M  V30 4321 N 397.609 -0.515225 -1.4894 0
M  V30 4322 C 398.855 0.0242508 -2.02785 0
M  V30 4323 C 399.188 1.35323 -1.39289 0
M  V30 4324 O 398.463 1.87041 -0.533469 0
M  V30 4325 C 398.746 0.16184 -3.59736 0
M  V30 4326 C 398.599 -1.19127 -4.33738 0
M  V30 4327 C 399.918 0.895719 -4.30888 0
M  V30 4328 H 397.037 0.00733914 -0.736963 0
M  V30 4329 H 399.679 -0.669395 -1.77818 0
M  V30 4330 H 397.829 0.752624 -3.8114 0
M  V30 4331 H 399.501 -1.82202 -4.23792 0
M  V30 4332 H 397.744 -1.77695 -3.95736 0
M  V30 4333 H 398.415 -1.04815 -5.41957 0
M  V30 4334 H 400.891 0.394528 -4.14225 0
M  V30 4335 H 399.767 0.960859 -5.40425 0
M  V30 4336 H 400.028 1.9427 -3.97129 0
M  V30 4337 N 399.087 1.5561 -0.249682 0
M  V30 4338 C 400.312 2.03865 0.381305 0
M  V30 4339 C 400.737 1.12769 1.50548 0
M  V30 4340 O 400.095 0.121189 1.80895 0
M  V30 4341 C 400.143 3.50101 0.863816 0
M  V30 4342 O 399.247 3.62132 1.97318 0
M  V30 4343 H 398.588 0.658827 0.0827194 0
M  V30 4344 H 401.118 2.01105 -0.376552 0
M  V30 4345 H 401.128 3.90975 1.1663 0
M  V30 4346 H 399.803 4.1588 0.0411816 0
M  V30 4347 H 398.38 3.33155 1.67517 0
M  V30 4348 N 400.565 -0.0233959 1.57583 0
M  V30 4349 C 401.814 -0.712133 1.8871 0
M  V30 4350 C 402.127 -1.76217 0.848944 0
M  V30 4351 O 403.333 -2.50389 1.04964 0
M  V30 4352 C 401.789 -1.3177 3.3491 0
M  V30 4353 C 401.397 -0.303715 4.46969 0
M  V30 4354 C 403.141 -1.98598 3.75179 0
M  V30 4355 C 401.048 -0.917945 5.84233 0
M  V30 4356 H 399.978 -0.269735 0.704101 0
M  V30 4357 H 402.629 0.0333114 1.8347 0
M  V30 4358 H 401.011 -2.11304 3.34913 0
M  V30 4359 H 402.185 0.465325 4.58445 0
M  V30 4360 H 400.5 0.2628 4.1557 0
M  V30 4361 H 403.097 -2.45416 4.75053 0
M  V30 4362 H 403.44 -2.80659 3.07468 0
M  V30 4363 H 403.973 -1.25831 3.77374 0
M  V30 4364 H 400.712 -0.136633 6.55358 0
M  V30 4365 H 400.232 -1.65669 5.76467 0
M  V30 4366 H 401.911 -1.4236 6.31144 0
M  V30 4367 N 402.043 -1.548 -0.295768 0
M  V30 4368 C 403.291 -1.73985 -1.02828 0
M  V30 4369 C 403.612 -0.531406 -1.87619 0
M  V30 4370 O 402.882 0.454221 -1.90561 0
M  V30 4371 H 401.462 -0.641556 -0.382642 0
M  V30 4372 H 404.124 -1.92163 -0.325489 0
M  V30 4373 H 403.22 -2.63129 -1.67838 0
M  V30 4374 N 403.521 0.559213 -1.47345 0
M  V30 4375 C 404.767 1.31614 -1.55079 0
M  V30 4376 C 405.122 1.91257 -0.209422 0
M  V30 4377 O 404.415 1.74796 0.784656 0
M  V30 4378 C 404.609 2.44853 -2.6035 0
M  V30 4379 C 404.438 1.96305 -4.04591 0
M  V30 4380 C 403.208 1.8024 -4.72061 0
M  V30 4381 C 405.406 1.50872 -4.91673 0
M  V30 4382 N 403.388 1.26011 -6.00828 0
M  V30 4383 C 404.759 1.08395 -6.10451 0
M  V30 4384 C 406.814 1.38905 -4.78132 0
M  V30 4385 C 405.517 0.551399 -7.17183 0
M  V30 4386 C 407.543 0.870518 -5.84958 0
M  V30 4387 C 406.905 0.455661 -7.02925 0
M  V30 4388 H 403.004 0.473712 -0.62219 0
M  V30 4389 H 405.588 0.634103 -1.84085 0
M  V30 4390 H 403.759 3.10589 -2.33215 0
M  V30 4391 H 405.491 3.11849 -2.57938 0
M  V30 4392 H 402.246 2.02895 -4.27937 0
M  V30 4393 H 402.67 1.00991 -6.69425 0
M  V30 4394 H 407.312 1.69591 -3.87297 0
M  V30 4395 H 405.03 0.232159 -8.07766 0
M  V30 4396 H 408.616 0.781507 -5.76527 0
M  V30 4397 H 407.496 0.0606414 -7.84177 0
M  V30 4398 N 404.999 1.35443 0.805782 0
M  V30 4399 C 406.247 1.28507 1.55982 0
M  V30 4400 C 406.568 -0.140046 1.94496 0
M  V30 4401 O 405.838 -1.07666 1.63661 0
M  V30 4402 H 404.418 0.472676 0.578434 0
M  V30 4403 H 407.08 1.69555 0.961098 0
M  V30 4404 H 406.176 1.90148 2.47488 0
M  V30 4405 N 406.477 -1.02803 1.19454 0
M  V30 4406 C 407.723 -1.76478 0.999171 0
M  V30 4407 C 408.056 -1.88456 -0.468828 0
M  V30 4408 O 407.331 -1.40198 -1.34814 0
M  V30 4409 C 407.614 -3.19044 1.66981 0
M  V30 4410 C 407.467 -3.14932 3.21151 0
M  V30 4411 C 408.786 -4.17456 1.39349 0
M  V30 4412 H 405.905 -0.640614 0.364393 0
M  V30 4413 H 408.547 -1.20005 1.47305 0
M  V30 4414 H 406.697 -3.67263 1.2669 0
M  V30 4415 H 408.369 -2.74605 3.70661 0
M  V30 4416 H 406.612 -2.52625 3.52652 0
M  V30 4417 H 407.283 -4.1566 3.63223 0
M  V30 4418 H 409.759 -3.77842 1.74283 0
M  V30 4419 H 408.635 -5.154 1.88823 0
M  V30 4420 H 408.896 -4.40949 0.318813 0
M  V30 4421 N 407.956 -0.998596 -1.21925 0
M  V30 4422 C 409.367 -0.711939 -1.72593 0
M  V30 4423 C 409.718 0.770842 -1.80423 0
M  V30 4424 O 408.843 1.60237 -1.4544 0
M  V30 4425 C 409.438 -1.28567 -3.13458 0
M  V30 4426 C 407.997 -1.04828 -3.61508 0
M  V30 4427 C 407.144 -1.4024 -2.39224 0
M  V30 4428 H 410.095 -1.17027 -1.07193 0
M  V30 4429 H 410.116 -0.667098 -3.74607 0
M  V30 4430 H 409.628 -2.36486 -3.07727 0
M  V30 4431 H 407.729 0.0140383 -3.72597 0
M  V30 4432 H 407.842 -1.71566 -4.47328 0
M  V30 4433 H 406.206 -0.821077 -2.41103 0
M  V30 4434 H 406.989 -2.49176 -2.36149 0
M  V30 4435 N 409.434 1.37368 -0.772513 0
M  V30 4436 C 410.364 2.32856 -0.173304 0
M  V30 4437 C 411.345 1.55818 0.682262 0
M  V30 4438 O 412.53 1.84052 0.619566 0
M  V30 4439 C 409.66 3.40048 0.706007 0
M  V30 4440 C 408.614 4.27973 -0.0483144 0
M  V30 4441 C 407.94 5.26184 0.950491 0
M  V30 4442 C 409.24 5.07665 -1.22776 0
M  V30 4443 H 410.934 2.83217 -0.971002 0
M  V30 4444 H 408.48 1.3617 -0.468377 0
M  V30 4445 H 410.433 4.05827 1.13501 0
M  V30 4446 H 409.157 2.88214 1.53623 0
M  V30 4447 H 407.816 3.63726 -0.458107 0
M  V30 4448 H 407.464 4.7063 1.77529 0
M  V30 4449 H 407.164 5.85872 0.450314 0
M  V30 4450 H 408.688 5.94838 1.37842 0
M  V30 4451 H 410.102 5.66578 -0.875366 0
M  V30 4452 H 408.499 5.76681 -1.66007 0
M  V30 4453 H 409.569 4.40294 -2.03149 0
M  V30 4454 N 410.912 0.523116 1.48665 0
M  V30 4455 C 411.842 -0.23231 2.32342 0
M  V30 4456 C 412.823 -0.941637 1.41659 0
M  V30 4457 O 414.008 -0.928751 1.70552 0
M  V30 4458 C 411.138 -1.28387 3.22698 0
M  V30 4459 C 410.092 -0.693098 4.22351 0
M  V30 4460 C 409.418 -1.8468 5.01794 0
M  V30 4461 C 410.718 0.33063 5.21252 0
M  V30 4462 H 412.412 0.466192 2.95748 0
M  V30 4463 H 409.958 0.225643 1.42221 0
M  V30 4464 H 411.911 -1.82024 3.80059 0
M  V30 4465 H 410.635 -2.01186 2.57278 0
M  V30 4466 H 409.294 -0.178299 3.66166 0
M  V30 4467 H 408.942 -2.56301 4.32804 0
M  V30 4468 H 408.642 -1.45747 5.69238 0
M  V30 4469 H 410.166 -2.38709 5.62006 0
M  V30 4470 H 411.58 -0.118407 5.73178 0
M  V30 4471 H 409.977 0.636974 5.9671 0
M  V30 4472 H 411.047 1.23883 4.68808 0
M  V30 4473 N 412.39 -1.55475 0.257931 0
M  V30 4474 C 413.637 -1.99207 -0.363728 0
M  V30 4475 C 413.965 -1.1462 -1.57139 0
M  V30 4476 O 413.22 -0.199653 -1.94679 0
M  V30 4477 C 413.519 -3.48183 -0.806433 0
M  V30 4478 C 413.185 -4.49936 0.294684 0
M  V30 4479 C 411.847 -4.77481 0.597076 0
M  V30 4480 C 414.199 -5.10769 1.03751 0
M  V30 4481 C 411.527 -5.63132 1.64618 0
M  V30 4482 C 413.879 -5.97558 2.07622 0
M  V30 4483 C 412.543 -6.23432 2.38514 0
M  V30 4484 H 411.813 -0.728949 -0.133097 0
M  V30 4485 H 414.46 -1.8793 0.368059 0
M  V30 4486 H 412.765 -3.56848 -1.61761 0
M  V30 4487 H 414.462 -3.79415 -1.29789 0
M  V30 4488 H 411.052 -4.28572 0.0488649 0
M  V30 4489 H 415.236 -4.89527 0.817149 0
M  V30 4490 H 410.492 -5.8143 1.89074 0
M  V30 4491 H 414.666 -6.43735 2.65666 0
M  V30 4492 H 412.293 -6.89594 3.19943 0
M  V30 4493 N 413.868 0.0150385 -1.57593 0
M  V30 4494 C 415.114 0.704043 -1.90187 0
M  V30 4495 C 415.447 1.74249 -0.857366 0
M  V30 4496 O 414.722 1.94092 0.125843 0
M  V30 4497 C 415.005 1.36087 -3.33395 0
M  V30 4498 C 414.858 0.334981 -4.48551 0
M  V30 4499 C 416.177 2.29112 -3.7576 0
M  V30 4500 H 413.296 0.254475 -0.691673 0
M  V30 4501 H 415.938 -0.0331678 -1.89971 0
M  V30 4502 H 414.088 1.98922 -3.3371 0
M  V30 4503 H 415.76 -0.292534 -4.60372 0
M  V30 4504 H 414.003 -0.344325 -4.32431 0
M  V30 4505 H 414.674 0.833316 -5.45674 0
M  V30 4506 H 417.15 1.76308 -3.76902 0
M  V30 4507 H 416.026 2.72043 -4.76743 0
M  V30 4508 H 416.287 3.16385 -3.08793 0
M  V30 4509 N 415.346 1.54954 0.287554 0
M  V30 4510 C 416.592 1.75132 1.02257 0
M  V30 4511 C 416.925 0.542858 1.86458 0
M  V30 4512 O 416.2 -0.459856 1.88986 0
M  V30 4513 C 416.483 3.04812 1.91733 0
M  V30 4514 C 416.336 4.35985 1.10622 0
M  V30 4515 C 417.655 3.30438 2.90687 0
M  V30 4516 H 414.774 0.637194 0.370341 0
M  V30 4517 H 417.416 1.87678 0.296111 0
M  V30 4518 H 415.566 2.94247 2.53675 0
M  V30 4519 H 417.238 4.58487 0.508636 0
M  V30 4520 H 415.481 4.31865 0.409271 0
M  V30 4521 H 416.152 5.23017 1.76513 0
M  V30 4522 H 418.628 3.40701 2.38877 0
M  V30 4523 H 417.504 4.22467 3.50447 0
M  V30 4524 H 417.765 2.49377 3.65053 0
M  V30 4525 N 416.824 -0.551391 1.4764 0
M  V30 4526 C 418.235 -1.13349 1.48354 0
M  V30 4527 C 418.586 -1.94709 0.241432 0
M  V30 4528 O 417.711 -2.06306 -0.653205 0
M  V30 4529 C 418.306 -2.0623 2.68802 0
M  V30 4530 C 416.865 -2.597 2.72457 0
M  V30 4531 C 416.012 -1.36201 2.41546 0
M  V30 4532 H 418.963 -0.337698 1.55065 0
M  V30 4533 H 418.984 -2.90196 2.46103 0
M  V30 4534 H 418.496 -1.46987 3.59188 0
M  V30 4535 H 416.597 -3.22724 1.86225 0
M  V30 4536 H 416.71 -3.00296 3.73308 0
M  V30 4537 H 415.074 -1.67068 1.9225 0
M  V30 4538 H 415.857 -0.787425 3.34147 0
M  V30 4539 N 418.302 -1.35869 -0.798587 0
M  V30 4540 C 419.548 -1.30788 -1.55775 0
M  V30 4541 C 419.903 0.114558 -1.92059 0
M  V30 4542 O 419.196 1.06691 -1.59147 0
M  V30 4543 C 419.39 -2.1556 -2.85077 0
M  V30 4544 C 419.219 -3.65904 -2.61428 0
M  V30 4545 C 417.989 -4.35112 -2.56915 0
M  V30 4546 C 420.187 -4.59375 -2.31255 0
M  V30 4547 N 418.169 -5.71155 -2.25068 0
M  V30 4548 C 419.54 -5.83598 -2.09316 0
M  V30 4549 C 421.595 -4.48035 -2.17185 0
M  V30 4550 C 420.298 -6.97755 -1.74731 0
M  V30 4551 C 422.324 -5.62049 -1.83998 0
M  V30 4552 C 421.686 -6.85305 -1.629 0
M  V30 4553 H 417.785 -0.533855 -0.571422 0
M  V30 4554 H 420.369 -1.7083 -0.934079 0
M  V30 4555 H 418.54 -1.77776 -3.45326 0
M  V30 4556 H 420.272 -2.01938 -3.50718 0
M  V30 4557 H 417.027 -3.87812 -2.71843 0
M  V30 4558 H 417.451 -6.42978 -2.11916 0
M  V30 4559 H 422.093 -3.53338 -2.3219 0
M  V30 4560 H 419.811 -7.92411 -1.58464 0
M  V30 4561 H 423.397 -5.55232 -1.73808 0
M  V30 4562 H 422.277 -7.72034 -1.37596 0
M  V30 4563 N 419.78 1.02168 -1.19998 0
M  V30 4564 C 421.028 1.75338 -1.00504 0
M  V30 4565 C 421.349 1.89387 0.464506 0
M  V30 4566 O 420.619 1.43268 1.33608 0
M  V30 4567 H 419.199 0.649564 -0.368885 0
M  V30 4568 H 421.861 1.23205 -1.51018 0
M  V30 4569 H 420.957 2.75892 -1.45912 0
M  V30 4570 N 421.258 1.00505 1.21394 0
M  V30 4571 C 422.507 0.683159 1.89778 0
M  V30 4572 C 422.82 -0.789471 1.7896 0
M  V30 4573 O 424.026 -1.22344 2.42372 0
M  V30 4574 C 422.482 1.17146 3.40301 0
M  V30 4575 C 422.09 2.67017 3.5973 0
M  V30 4576 C 423.834 0.924461 4.14311 0
M  V30 4577 C 421.741 3.09387 5.04017 0
M  V30 4578 H 420.671 0.25183 0.710702 0
M  V30 4579 H 423.322 1.21622 1.37406 0
M  V30 4580 H 421.704 0.566451 3.91928 0
M  V30 4581 H 422.878 3.32968 3.18542 0
M  V30 4582 H 421.193 2.89732 2.99073 0
M  V30 4583 H 423.79 1.21658 5.20676 0
M  V30 4584 H 424.133 -0.139286 4.16067 0
M  V30 4585 H 424.666 1.49226 3.6875 0
M  V30 4586 H 421.405 4.14989 5.07409 0
M  V30 4587 H 420.925 2.48149 5.46061 0
M  V30 4588 H 422.604 3.01371 5.72525 0
M  V30 4589 N 422.737 -1.36956 0.779787 0
M  V30 4590 C 423.983 -1.99787 0.348281 0
M  V30 4591 C 424.316 -1.61756 -1.07465 0
M  V30 4592 O 423.591 -0.867639 -1.74075 0
M  V30 4593 C 423.874 -3.56597 0.50104 0
M  V30 4594 C 423.727 -4.04513 1.96697 0
M  V30 4595 C 425.046 -4.40008 -0.0898097 0
M  V30 4596 H 422.165 -0.725796 0.128022 0
M  V30 4597 H 424.807 -1.62514 0.984331 0
M  V30 4598 H 422.957 -3.88479 -0.0404347 0
M  V30 4599 H 424.629 -3.83161 2.56876 0
M  V30 4600 H 422.872 -3.56408 2.47297 0
M  V30 4601 H 423.543 -5.1352 2.02486 0
M  V30 4602 H 426.019 -4.14431 0.372293 0
M  V30 4603 H 424.895 -5.4888 0.0471605 0
M  V30 4604 H 425.156 -4.26035 -1.18096 0
M  V30 4605 N 424.215 -0.530993 -1.48385 0
M  V30 4606 C 425.162 0.231223 -2.29639 0
M  V30 4607 C 426.132 0.932864 -1.37429 0
M  V30 4608 O 427.317 0.933692 -1.66394 0
M  V30 4609 C 424.457 1.27155 -3.2082 0
M  V30 4610 C 423.57 0.578655 -4.28107 0
M  V30 4611 C 422.705 1.602 -5.06467 0
M  V30 4612 C 421.744 0.892625 -6.05556 0
M  V30 4613 N 420.881 1.86157 -6.76971 0
M  V30 4614 H 425.721 -0.467848 -2.94305 0
M  V30 4615 H 423.258 -0.242556 -1.45086 0
M  V30 4616 H 425.216 1.88703 -3.72085 0
M  V30 4617 H 423.846 1.939 -2.58075 0
M  V30 4618 H 422.898 -0.150782 -3.80101 0
M  V30 4619 H 424.21 0.0217065 -4.98795 0
M  V30 4620 H 423.364 2.29173 -5.61751 0
M  V30 4621 H 422.103 2.19285 -4.35621 0
M  V30 4622 H 421.108 0.188829 -5.49476 0
M  V30 4623 H 422.333 0.307878 -6.78402 0
M  V30 4624 H 420.279 2.44147 -6.08875 0
M  V30 4625 H 420.196 1.35608 -7.43738 0
M  V30 4626 H 421.464 2.54325 -7.36844 0
M  V30 4627 N 425.693 1.55336 -0.266172 0
M  V30 4628 C 426.923 2.03506 0.356239 0
M  V30 4629 C 427.331 1.14426 1.50676 0
M  V30 4630 O 426.674 0.155043 1.83045 0
M  V30 4631 C 426.736 3.47848 0.90785 0
M  V30 4632 C 426.4 4.56861 -0.112888 0
M  V30 4633 C 427.397 5.11528 -0.929264 0
M  V30 4634 C 425.082 5.01704 -0.244546 0
M  V30 4635 C 427.076 6.09549 -1.86357 0
M  V30 4636 C 424.763 5.99553 -1.18234 0
M  V30 4637 C 425.761 6.53356 -1.99036 0
M  V30 4638 O 425.449 7.49293 -2.91231 0
M  V30 4639 H 425.181 0.670444 0.08649 0
M  V30 4640 H 427.735 2.01598 -0.39337 0
M  V30 4641 H 425.965 3.46967 1.70737 0
M  V30 4642 H 427.654 3.79407 1.44239 0
M  V30 4643 H 428.42 4.77701 -0.838237 0
M  V30 4644 H 424.299 4.59477 0.374359 0
M  V30 4645 H 427.843 6.51469 -2.49467 0
M  V30 4646 H 423.74 6.32799 -1.27421 0
M  V30 4647 H 424.508 7.66978 -2.8581 0
M  V30 4648 N 427.171 -0.0066808 1.57599 0
M  V30 4649 C 428.101 -0.999296 2.11036 0
M  V30 4650 C 429.082 -1.36278 1.01795 0
M  V30 4651 O 430.267 -1.4477 1.29442 0
M  V30 4652 C 427.397 -2.29328 2.60818 0
M  V30 4653 C 426.351 -2.07159 3.74525 0
M  V30 4654 C 425.677 -3.42512 4.10596 0
M  V30 4655 C 426.977 -1.43959 5.02069 0
M  V30 4656 H 428.671 -0.554382 2.94223 0
M  V30 4657 H 426.217 -0.265221 1.41536 0
M  V30 4658 H 428.17 -2.99117 2.96828 0
M  V30 4659 H 426.894 -2.7592 1.74745 0
M  V30 4660 H 425.553 -1.39797 3.38899 0
M  V30 4661 H 425.201 -3.86795 3.21556 0
M  V30 4662 H 424.901 -3.28498 4.87199 0
M  V30 4663 H 426.425 -4.13628 4.4916 0
M  V30 4664 H 427.839 -2.03696 5.35893 0
M  V30 4665 H 426.236 -1.40452 5.83432 0
M  V30 4666 H 427.306 -0.407992 4.83181 0
M  V30 4667 N 428.649 -1.55105 -0.279332 0
M  V30 4668 C 429.879 -1.7917 -1.02867 0
M  V30 4669 C 430.287 -0.56204 -1.80659 0
M  V30 4670 O 429.63 0.478266 -1.77365 0
M  V30 4671 C 429.692 -2.96061 -2.03932 0
M  V30 4672 C 429.356 -4.33341 -1.45137 0
M  V30 4673 C 430.353 -5.12565 -0.870266 0
M  V30 4674 C 428.038 -4.79987 -1.48048 0
M  V30 4675 C 430.032 -6.36565 -0.326097 0
M  V30 4676 C 427.719 -6.03944 -0.932443 0
M  V30 4677 C 428.717 -6.8207 -0.356247 0
M  V30 4678 O 428.405 -8.03691 0.183412 0
M  V30 4679 H 428.137 -0.600796 -0.309872 0
M  V30 4680 H 430.691 -2.02932 -0.317468 0
M  V30 4681 H 428.921 -2.67975 -2.78794 0
M  V30 4682 H 430.61 -3.07506 -2.64943 0
M  V30 4683 H 431.376 -4.77661 -0.840521 0
M  V30 4684 H 427.255 -4.1919 -1.91835 0
M  V30 4685 H 430.799 -6.97489 0.124286 0
M  V30 4686 H 426.696 -6.3833 -0.959407 0
M  V30 4687 H 427.464 -8.18468 0.0721681 0
M  V30 4688 N 430.127 0.543554 -1.4793 0
M  V30 4689 C 431.037 1.67657 -1.64098 0
M  V30 4690 C 432.053 1.65934 -0.523622 0
M  V30 4691 O 433.229 1.85133 -0.792943 0
M  V30 4692 C 430.294 3.04146 -1.66421 0
M  V30 4693 C 429.355 3.16831 -2.89684 0
M  V30 4694 C 428.588 4.46809 -2.91886 0
M  V30 4695 O 428.811 5.33095 -2.02895 0
M  V30 4696 O 427.745 4.63573 -3.83906 0
M  V30 4697 H 431.571 1.56957 -2.59997 0
M  V30 4698 H 429.156 0.715116 -1.31173 0
M  V30 4699 H 431.038 3.85346 -1.70548 0
M  V30 4700 H 429.713 3.152 -0.736923 0
M  V30 4701 H 428.62 2.34977 -2.91095 0
M  V30 4702 H 429.953 3.10687 -3.81752 0
M  V30 4703 N 431.605 1.3629 0.791371 0
M  V30 4704 C 432.882 1.20962 1.53712 0
M  V30 4705 C 433.262 -0.205021 2.10102 0
M  V30 4706 O 432.61 -1.21042 1.93807 0
M  V30 4707 C 432.82 2.29002 2.63361 0
M  V30 4708 C 434.168 2.65572 3.31295 0
M  V30 4709 O 435.192 2.2803 2.73643 0
M  V30 4710 O 434.051 3.3018 4.35481 0
M  V30 4711 H 431.145 0.47086 0.679867 0
M  V30 4712 H 433.691 1.48016 0.830021 0
M  V30 4713 H 432.463 3.2382 2.19674 0
M  V30 4714 H 432.086 2.03303 3.41692 0
M  V30 4715 N 433.083 -1.0153 1.20538 0
M  V30 4716 C 433.993 -2.13557 0.971113 0
M  V30 4717 C 435.009 -1.73845 -0.0734366 0
M  V30 4718 O 436.185 -2.01075 0.114299 0
M  V30 4719 C 433.25 -3.42661 0.527639 0
M  V30 4720 C 432.311 -3.96608 1.64319 0
M  V30 4721 C 431.544 -5.1955 1.22078 0
M  V30 4722 O 431.767 -5.70329 0.0900198 0
M  V30 4723 O 430.701 -5.66681 2.02871 0
M  V30 4724 H 434.527 -2.3619 1.90913 0
M  V30 4725 H 432.112 -1.11946 0.989362 0
M  V30 4726 H 433.994 -4.20404 0.289621 0
M  V30 4727 H 432.669 -3.21441 -0.381779 0
M  V30 4728 H 431.576 -3.20139 1.93551 0
M  V30 4729 H 432.909 -4.22219 2.52966 0
M  V30 4730 N 434.561 -1.01147 -1.20859 0
M  V30 4731 C 435.809 -0.696486 -1.89719 0
M  V30 4732 C 436.13 0.775788 -1.78904 0
M  V30 4733 O 435.4 1.55759 -1.18811 0
M  V30 4734 H 433.98 -0.254628 -0.702263 0
M  V30 4735 H 436.642 -1.28197 -1.46804 0
M  V30 4736 H 435.738 -0.975357 -2.96468 0
M  V30 4737 N 436.039 1.36541 -0.78704 0
M  V30 4738 C 437.279 2.01138 -0.363714 0
M  V30 4739 C 437.643 1.61114 1.04433 0
M  V30 4740 O 438.844 2.18285 1.56861 0
M  V30 4741 C 437.115 3.53603 -0.519582 0
M  V30 4742 S 438.674 4.38415 -0.183782 0
M  V30 4743 H 435.492 0.697263 -0.13909 0
M  V30 4744 H 438.094 1.66475 -1.02501 0
M  V30 4745 H 436.798 3.8022 -1.5447 0
M  V30 4746 H 436.329 3.93084 0.15773 0
M  V30 4747 H 438.344 4.85698 1.01547 0
M  V30 4748 N 437.518 0.538854 1.48102 0
M  V30 4749 C 438.764 0.0161732 2.03394 0
M  V30 4750 C 439.119 -1.31154 1.40771 0
M  V30 4751 O 438.412 -1.83613 0.547421 0
M  V30 4752 C 438.606 -0.153808 3.57069 0
M  V30 4753 C 438.435 1.15588 4.34591 0
M  V30 4754 C 437.205 1.71818 4.75191 0
M  V30 4755 C 439.403 2.06867 4.70861 0
M  V30 4756 N 437.385 2.96983 5.37284 0
M  V30 4757 C 438.756 3.16609 5.33066 0
M  V30 4758 C 440.811 2.07085 4.52791 0
M  V30 4759 C 439.514 4.26645 5.79109 0
M  V30 4760 C 441.54 3.16121 4.99821 0
M  V30 4761 C 440.902 4.24582 5.62058 0
M  V30 4762 H 437.001 0.0476346 0.780548 0
M  V30 4763 H 439.585 0.722094 1.80815 0
M  V30 4764 H 437.756 -0.828825 3.79454 0
M  V30 4765 H 439.488 -0.676896 3.98999 0
M  V30 4766 H 436.243 1.25845 4.56574 0
M  V30 4767 H 436.667 3.60732 5.72889 0
M  V30 4768 H 441.309 1.24522 4.04047 0
M  V30 4769 H 439.027 5.0998 6.26854 0
M  V30 4770 H 442.613 3.17355 4.87624 0
M  V30 4771 H 441.493 5.07562 5.97788 0
M  V30 4772 N 438.996 -1.55193 0.274407 0
M  V30 4773 C 440.224 -2.03987 -0.345943 0
M  V30 4774 C 440.639 -1.15279 -1.4952 0
M  V30 4775 O 439.996 -0.172759 -1.8168 0
M  V30 4776 C 440.047 -3.51898 -0.827631 0
M  V30 4777 O 439.768 -4.37231 0.275855 0
M  V30 4778 C 441.269 -4.16577 -1.51587 0
M  V30 4779 H 438.489 -0.666335 -0.0789892 0
M  V30 4780 H 441.033 -2.00423 0.406294 0
M  V30 4781 H 439.188 -3.55909 -1.52996 0
M  V30 4782 H 439.602 -5.24415 -0.0943638 0
M  V30 4783 H 441.076 -5.21678 -1.80433 0
M  V30 4784 H 441.553 -3.64707 -2.44716 0
M  V30 4785 H 442.159 -4.16568 -0.857409 0
M  V30 4786 N 440.474 -0.00167713 -1.576 0
M  V30 4787 C 441.89 0.354422 -1.55615 0
M  V30 4788 C 442.09 1.74679 -1.00447 0
M  V30 4789 O 441.146 2.4428 -0.639022 0
M  V30 4790 C 442.459 0.22812 -2.99833 0
M  V30 4791 C 444.007 0.302934 -3.11531 0
M  V30 4792 C 444.482 0.205737 -4.57538 0
M  V30 4793 N 445.973 0.263584 -4.62449 0
M  V30 4794 C 446.708 0.211742 -5.73009 0
M  V30 4795 N 446.204 0.110399 -6.92712 0
M  V30 4796 N 447.997 0.263729 -5.61481 0
M  V30 4797 H 440.148 -0.912498 -1.918 0
M  V30 4798 H 442.411 -0.349928 -0.881053 0
M  V30 4799 H 442.117 -0.729934 -3.44042 0
M  V30 4800 H 441.991 1.00951 -3.6344 0
M  V30 4801 H 444.378 1.25143 -2.67251 0
M  V30 4802 H 444.459 -0.508357 -2.50698 0
M  V30 4803 H 444.103 -0.739225 -5.02492 0
M  V30 4804 H 444.033 1.03554 -5.16318 0
M  V30 4805 H 446.524 0.343173 -3.76339 0
M  V30 4806 H 446.837 0.0767828 -7.72762 0
M  V30 4807 H 445.182 0.0760025 -6.94958 0
M  V30 4808 H 448.373 0.34111 -4.66855 0
M  V30 4809 H 448.546 0.219862 -6.47627 0
M  V30 4810 N 441.952 1.55251 0.271103 0
M  V30 4811 C 442.9 1.89054 1.35504 0
M  V30 4812 C 443.894 0.767064 1.51038 0
M  V30 4813 O 445.1 0.951429 1.528 0
M  V30 4814 H 441.475 0.600072 0.45323 0
M  V30 4815 H 443.446 2.79598 1.04247 0
M  V30 4816 C 442.195 2.18068 2.70817 0
M  V30 4817 H 441.518 3.04005 2.59656 0
M  V30 4818 H 442.958 2.4564 3.45597 0
M  V30 4819 C 441.417 0.988901 3.2206 0
M  V30 4820 O 441.947 0.224501 4.01072 0
M  V30 4821 N 440.153 0.786085 2.79766 0
M  V30 4822 H 439.7 1.40937 2.15626 0
M  V30 4823 H 439.658 -0.00969349 3.14399 0
M  V30 4824 N 443.43 -0.535701 1.48216 0
M  V30 4825 C 444.655 -1.32149 1.59848 0
M  V30 4826 C 445.08 -1.86338 0.256842 0
M  V30 4827 O 444.438 -1.64107 -0.770632 0
M  V30 4828 C 444.486 -2.45224 2.64381 0
M  V30 4829 O 443.59 -3.48093 2.21144 0
M  V30 4830 H 442.931 -0.391634 0.536208 0
M  V30 4831 H 445.461 -0.645202 1.94161 0
M  V30 4832 H 445.471 -2.91491 2.85476 0
M  V30 4833 H 444.146 -2.05143 3.61786 0
M  V30 4834 H 442.723 -3.07984 2.10239 0
M  V30 4835 N 444.908 -1.36708 -0.784132 0
M  V30 4836 C 445.856 -1.31533 -1.91838 0
M  V30 4837 C 446.85 -0.206205 -1.6814 0
M  V30 4838 O 448.056 -0.373519 -1.76082 0
M  V30 4839 H 444.431 -0.409613 -0.630651 0
M  V30 4840 H 446.402 -2.2731 -1.9332 0
M  V30 4841 C 445.151 -1.12679 -3.28936 0
M  V30 4842 H 444.474 -1.97274 -3.4774 0
M  V30 4843 H 445.914 -1.13106 -4.08636 0
M  V30 4844 C 444.373 0.168281 -3.36479 0
M  V30 4845 O 444.903 1.15625 -3.84699 0
M  V30 4846 N 443.109 0.214762 -2.89805 0
M  V30 4847 H 442.656 -0.589852 -2.50756 0
M  V30 4848 H 442.614 1.08094 -2.95234 0
M  V30 4849 N 446.386 1.0089 -1.21074 0
M  V30 4850 C 447.319 2.09279 -0.909806 0
M  V30 4851 C 448.297 1.61986 0.141145 0
M  V30 4852 O 449.481 1.88495 0.0130332 0
M  V30 4853 C 446.608 3.36723 -0.365374 0
M  V30 4854 C 445.654 4.02919 -1.39852 0
M  V30 4855 S 446.487 4.45835 -2.96633 0
M  V30 4856 C 447.643 5.76471 -2.43786 0
M  V30 4857 H 447.876 2.34484 -1.82769 0
M  V30 4858 H 445.409 1.14115 -1.04006 0
M  V30 4859 H 447.367 4.10459 -0.0578203 0
M  V30 4860 H 446.028 3.09577 0.531136 0
M  V30 4861 H 445.221 4.94634 -0.967117 0
M  V30 4862 H 444.823 3.35441 -1.65395 0
M  V30 4863 H 447.115 6.52027 -1.84029 0
M  V30 4864 H 448.058 6.24418 -3.33928 0
M  V30 4865 H 448.466 5.33104 -1.85636 0
M  V30 4866 N 447.864 1.01787 1.20321 0
M  V30 4867 C 448.812 0.58254 2.25187 0
M  V30 4868 C 449.806 -0.379359 1.65098 0
M  V30 4869 O 451.012 -0.249142 1.78267 0
M  V30 4870 H 447.387 0.170078 0.732514 0
M  V30 4871 H 449.358 1.47788 2.59232 0
M  V30 4872 C 448.107 -0.0620885 3.47645 0
M  V30 4873 H 447.43 0.669069 3.94162 0
M  V30 4874 H 448.87 -0.329784 4.22716 0
M  V30 4875 C 447.329 -1.3053 3.10586 0
M  V30 4876 O 447.859 -2.39848 3.22236 0
M  V30 4877 N 446.065 -1.18988 2.65123 0
M  V30 4878 H 445.612 -0.300341 2.55843 0
M  V30 4879 H 445.57 -2.02267 2.40698 0
M  V30 4880 N 449.342 -1.36122 0.79427 0
M  V30 4881 C 450.572 -2.03067 0.380437 0
M  V30 4882 C 450.98 -1.60018 -1.00949 0
M  V30 4883 O 450.323 -0.787425 -1.65968 0
M  V30 4884 C 450.385 -3.57587 0.37034 0
M  V30 4885 C 450.049 -4.23855 1.70867 0
M  V30 4886 C 451.046 -4.46404 2.66496 0
M  V30 4887 C 448.731 -4.61229 1.9893 0
M  V30 4888 C 450.725 -5.05412 3.88378 0
M  V30 4889 C 448.412 -5.19953 3.21079 0
M  V30 4890 C 449.41 -5.41985 4.15621 0
M  V30 4891 O 449.098 -5.99475 5.35616 0
M  V30 4892 H 448.83 -0.658168 0.154243 0
M  V30 4893 H 451.384 -1.7498 1.0757 0
M  V30 4894 H 449.614 -3.84814 -0.381444 0
M  V30 4895 H 451.303 -4.05895 -0.0194894 0
M  V30 4896 H 452.069 -4.17921 2.46103 0
M  V30 4897 H 447.948 -4.43402 1.26158 0
M  V30 4898 H 451.492 -5.22524 4.62185 0
M  V30 4899 H 447.389 -5.47862 3.41347 0
M  V30 4900 H 448.157 -6.17937 5.36745 0
M  V30 4901 N 450.82 -0.546701 -1.47814 0
M  V30 4902 C 452.066 -0.0269594 -2.03382 0
M  V30 4903 C 452.421 1.30406 -1.41464 0
M  V30 4904 O 451.714 1.8332 -0.557151 0
M  V30 4905 C 451.908 0.134869 -3.57145 0
M  V30 4906 C 451.737 -1.17891 -4.33972 0
M  V30 4907 C 450.507 -1.74336 -4.74273 0
M  V30 4908 C 452.705 -2.09361 -4.69758 0
M  V30 4909 N 450.687 -2.99829 -5.35701 0
M  V30 4910 C 452.058 -3.19431 -5.31379 0
M  V30 4911 C 454.113 -2.09484 -4.51687 0
M  V30 4912 C 452.816 -4.2971 -5.76838 0
M  V30 4913 C 454.842 -3.18767 -4.98138 0
M  V30 4914 C 454.204 -4.27557 -5.59799 0
M  V30 4915 H 450.303 -0.0517733 -0.780284 0
M  V30 4916 H 452.887 -0.731673 -1.80429 0
M  V30 4917 H 451.058 0.80869 -3.79888 0
M  V30 4918 H 452.79 0.655726 -3.99352 0
M  V30 4919 H 449.545 -1.28265 -4.559 0
M  V30 4920 H 449.969 -3.63765 -5.70968 0
M  V30 4921 H 454.611 -1.26663 -4.03381 0
M  V30 4922 H 452.329 -5.13297 -6.24141 0
M  V30 4923 H 455.915 -3.19937 -4.85934 0
M  V30 4924 H 454.795 -5.10725 -5.95088 0
M  V30 4925 N 452.299 1.55045 -0.282633 0
M  V30 4926 C 453.229 2.2579 0.595066 0
M  V30 4927 C 454.21 1.25074 1.15284 0
M  V30 4928 O 455.395 1.5381 1.18559 0
M  V30 4929 C 452.525 2.98472 1.77572 0
M  V30 4930 C 451.479 4.0618 1.34914 0
M  V30 4931 C 450.805 4.66477 2.6135 0
M  V30 4932 C 452.105 5.1996 0.493821 0
M  V30 4933 H 453.799 2.994 0.00505653 0
M  V30 4934 H 451.345 1.44 0.000992001 0
M  V30 4935 H 453.298 3.46677 2.39568 0
M  V30 4936 H 452.022 2.2241 2.39168 0
M  V30 4937 H 450.681 3.58797 0.752338 0
M  V30 4938 H 450.329 3.87074 3.2122 0
M  V30 4939 H 450.029 5.39207 2.33516 0
M  V30 4940 H 451.553 5.17435 3.24181 0
M  V30 4941 H 452.967 5.64172 1.01898 0
M  V30 4942 H 451.364 5.99299 0.310047 0
M  V30 4943 H 452.434 4.82462 -0.485593 0
M  V30 4944 N 453.777 0.010035 1.57597 0
M  V30 4945 C 455.026 -0.671945 1.90178 0
M  V30 4946 C 455.339 -1.74376 0.886131 0
M  V30 4947 O 456.545 -2.48107 1.10252 0
M  V30 4948 C 455.001 -1.24636 3.3763 0
M  V30 4949 C 454.609 -0.208838 4.47513 0
M  V30 4950 C 456.353 -1.90595 3.79307 0
M  V30 4951 C 454.26 -0.793814 5.86048 0
M  V30 4952 H 453.19 -0.25474 0.709665 0
M  V30 4953 H 455.841 0.0722206 1.83358 0
M  V30 4954 H 454.223 -2.04152 3.3932 0
M  V30 4955 H 455.397 0.562463 4.57354 0
M  V30 4956 H 453.712 0.350889 4.14919 0
M  V30 4957 H 456.309 -2.35284 4.80151 0
M  V30 4958 H 456.652 -2.74074 3.13352 0
M  V30 4959 H 457.185 -1.17798 3.79958 0
M  V30 4960 H 453.924 0.00240855 6.555 0
M  V30 4961 H 453.444 -1.53404 5.79851 0
M  V30 4962 H 455.123 -1.2894 6.34022 0
M  V30 4963 N 455.255 -1.55392 -0.262866 0
M  V30 4964 C 456.504 -1.75679 -0.990943 0
M  V30 4965 C 456.817 -0.57097 -1.87081 0
M  V30 4966 O 458.023 -0.656486 -2.63444 0
M  V30 4967 C 456.479 -3.10964 -1.81188 0
M  V30 4968 C 456.087 -4.37146 -0.980188 0
M  V30 4969 C 457.831 -3.40597 -2.53365 0
M  V30 4970 C 455.738 -5.63466 -1.7961 0
M  V30 4971 H 454.668 -0.654868 -0.373716 0
M  V30 4972 H 457.319 -1.81841 -0.246203 0
M  V30 4973 H 455.701 -2.98867 -2.59797 0
M  V30 4974 H 456.875 -4.60187 -0.237558 0
M  V30 4975 H 455.19 -4.14731 -0.372497 0
M  V30 4976 H 457.787 -4.32186 -3.14833 0
M  V30 4977 H 458.13 -2.6119 -3.24169 0
M  V30 4978 H 458.663 -3.53838 -1.81779 0
M  V30 4979 H 455.402 -6.4565 -1.13209 0
M  V30 4980 H 454.922 -5.44552 -2.51443 0
M  V30 4981 H 456.601 -6.02139 -2.36723 0
M  V30 4982 N 456.733 0.527833 -1.48498 0
M  V30 4983 C 458.149 0.856571 -1.34666 0
M  V30 4984 C 458.349 1.98271 -0.35931 0
M  V30 4985 O 457.405 2.51551 0.218703 0
M  V30 4986 C 458.718 1.22207 -2.74747 0
M  V30 4987 C 460.266 1.33183 -2.83251 0
M  V30 4988 C 460.741 1.73075 -4.24039 0
M  V30 4989 N 462.232 1.80174 -4.26722 0
M  V30 4990 C 462.967 2.1243 -5.32598 0
M  V30 4991 N 462.463 2.43096 -6.4875 0
M  V30 4992 N 464.256 2.13454 -5.19994 0
M  V30 4993 H 456.407 -0.215174 -2.11307 0
M  V30 4994 H 458.67 -0.0336281 -0.947403 0
M  V30 4995 H 458.376 0.468195 -3.4857 0
M  V30 4996 H 458.25 2.17173 -3.08409 0
M  V30 4997 H 460.637 2.07647 -2.09683 0
M  V30 4998 H 460.718 0.363333 -2.53206 0
M  V30 4999 H 460.362 0.991712 -4.98124 0
M  V30 5000 H 460.292 2.70979 -4.51529 0
M  V30 5001 H 462.783 1.58744 -3.42942 0
M  V30 5002 H 463.096 2.6682 -7.25277 0
M  V30 5003 H 461.441 2.40611 -6.52021 0
M  V30 5004 H 464.632 1.88956 -4.28268 0
M  V30 5005 H 464.805 2.38261 -6.02608 0
M  V30 5006 N 458.211 1.37122 0.776871 0
M  V30 5007 C 459.141 1.35164 1.90402 0
M  V30 5008 C 460.122 0.221069 1.68657 0
M  V30 5009 O 461.307 0.420642 1.8959 0
M  V30 5010 C 458.437 1.15274 3.27611 0
M  V30 5011 C 457.391 2.25289 3.63908 0
M  V30 5012 C 456.717 1.90527 4.99603 0
M  V30 5013 C 458.017 3.67446 3.71188 0
M  V30 5014 H 459.711 2.29482 1.92297 0
M  V30 5015 H 457.257 1.10465 0.923773 0
M  V30 5016 H 459.21 1.12536 4.06096 0
M  V30 5017 H 457.934 0.174102 3.26136 0
M  V30 5018 H 456.593 2.27174 2.87728 0
M  V30 5019 H 456.241 0.91206 4.94662 0
M  V30 5020 H 455.941 2.64193 5.24858 0
M  V30 5021 H 457.465 1.89367 5.80493 0
M  V30 5022 H 458.879 3.67719 4.39836 0
M  V30 5023 H 457.276 4.40123 4.07936 0
M  V30 5024 H 458.346 4.01443 2.71977 0
M  V30 5025 N 459.689 -1.00246 1.21608 0
M  V30 5026 C 461.1 -1.55511 1.03312 0
M  V30 5027 C 461.451 -1.91946 -0.406332 0
M  V30 5028 O 460.576 -1.73753 -1.28992 0
M  V30 5029 C 461.171 -2.82576 1.86913 0
M  V30 5030 C 459.73 -3.34318 1.72941 0
M  V30 5031 C 458.877 -2.07487 1.83968 0
M  V30 5032 H 461.828 -0.824638 1.35593 0
M  V30 5033 H 461.849 -3.54559 1.38087 0
M  V30 5034 H 461.361 -2.56026 2.91672 0
M  V30 5035 H 459.462 -3.65797 0.70877 0
M  V30 5036 H 459.575 -4.05566 2.55055 0
M  V30 5037 H 457.939 -2.20603 1.27304 0
M  V30 5038 H 458.722 -1.83346 2.9024 0
M  V30 5039 N 461.167 -1.02423 -1.1978 0
M  V30 5040 C 462.416 -0.713265 -1.88667 0
M  V30 5041 C 462.729 0.7609 -1.80193 0
M  V30 5042 O 463.935 1.18473 -2.44288 0
M  V30 5043 C 462.391 -1.22545 -3.38394 0
M  V30 5044 C 461.999 -2.72706 -3.55437 0
M  V30 5045 C 463.743 -0.990257 -4.12788 0
M  V30 5046 C 461.65 -3.17367 -4.99031 0
M  V30 5047 H 460.58 -0.263105 -0.706606 0
M  V30 5048 H 463.231 -1.23792 -1.35454 0
M  V30 5049 H 461.613 -0.628732 -3.90977 0
M  V30 5050 H 462.787 -3.37993 -3.13205 0
M  V30 5051 H 461.102 -2.94453 -2.94425 0
M  V30 5052 H 463.699 -1.29926 -5.18675 0
M  V30 5053 H 464.042 0.0730761 -4.16236 0
M  V30 5054 H 464.575 -1.55074 -3.66329 0
M  V30 5055 H 461.314 -4.23009 -5.00743 0
M  V30 5056 H 460.834 -2.56805 -5.42044 0
M  V30 5057 H 462.513 -3.10441 -5.67658 0
M  V30 5058 N 462.645 1.35699 -0.801477 0
M  V30 5059 C 463.575 2.32436 -0.222658 0
M  V30 5060 C 464.556 1.5723 0.649057 0
M  V30 5061 O 465.741 1.85324 0.580387 0
M  V30 5062 C 462.871 3.41469 0.633719 0
M  V30 5063 C 461.825 4.27774 -0.139083 0
M  V30 5064 C 461.151 5.28082 0.838666 0
M  V30 5065 C 462.451 5.04946 -1.33517 0
M  V30 5066 H 464.145 2.81094 -1.03086 0
M  V30 5067 H 461.691 1.35146 -0.497155 0
M  V30 5068 H 463.644 4.08143 1.04868 0
M  V30 5069 H 462.368 2.91408 1.47475 0
M  V30 5070 H 461.027 3.62673 -0.535156 0
M  V30 5071 H 460.675 4.7429 1.67506 0
M  V30 5072 H 460.375 5.86695 0.32594 0
M  V30 5073 H 461.899 5.97628 1.25194 0
M  V30 5074 H 463.313 5.64593 -0.995349 0
M  V30 5075 H 461.71 5.7303 -1.78202 0
M  V30 5076 H 462.78 4.35886 -2.12442 0
M  V30 5077 N 464.123 0.554532 1.47522 0
M  V30 5078 C 465.37 0.029479 2.02479 0
M  V30 5079 C 465.698 -1.31929 1.42916 0
M  V30 5080 O 464.953 -1.87112 0.573385 0
M  V30 5081 C 465.252 -0.115927 3.57212 0
M  V30 5082 C 464.918 1.16161 4.3568 0
M  V30 5083 C 463.58 1.51168 4.56839 0
M  V30 5084 C 465.932 2.0083 4.80954 0
M  V30 5085 C 463.26 2.70696 5.2052 0
M  V30 5086 C 465.612 3.19559 5.45953 0
M  V30 5087 C 464.276 3.54882 5.65345 0
M  V30 5088 H 463.546 0.0107871 0.740921 0
M  V30 5089 H 466.193 0.725506 1.77225 0
M  V30 5090 H 464.498 -0.894902 3.81443 0
M  V30 5091 H 466.195 -0.53749 3.97381 0
M  V30 5092 H 462.785 0.879026 4.19489 0
M  V30 5093 H 466.969 1.75093 4.64388 0
M  V30 5094 H 462.225 2.98236 5.33728 0
M  V30 5095 H 466.399 3.85456 5.79997 0
M  V30 5096 H 464.026 4.47596 6.1446 0
M  V30 5097 N 465.601 -1.54893 0.290851 0
M  V30 5098 C 466.564 -2.21824 -0.576784 0
M  V30 5099 C 467.564 -1.20104 -1.06919 0
M  V30 5100 O 468.754 -1.44906 -0.966843 0
M  V30 5101 C 465.886 -2.89662 -1.79747 0
M  V30 5102 H 467.079 -2.99899 0.00784051 0
M  V30 5103 H 464.632 -1.56245 0.0415934 0
M  V30 5104 H 465.367 -2.15639 -2.42219 0
M  V30 5105 H 465.152 -3.64219 -1.45214 0
M  V30 5106 H 466.642 -3.4075 -2.4141 0
M  V30 5107 N 467.08 -0.0183926 -1.57589 0
M  V30 5108 C 468.329 0.66185 -1.90532 0
M  V30 5109 C 468.642 1.73904 -0.895366 0
M  V30 5110 O 469.848 2.47518 -1.11566 0
M  V30 5111 C 468.304 1.22844 -3.38286 0
M  V30 5112 C 467.912 0.185103 -4.47617 0
M  V30 5113 C 469.656 1.88581 -3.80312 0
M  V30 5114 C 467.563 0.762723 -5.86461 0
M  V30 5115 H 466.493 0.250972 -0.711006 0
M  V30 5116 H 469.144 -0.0819435 -1.83317 0
M  V30 5117 H 467.526 2.0235 -3.40398 0
M  V30 5118 H 468.7 -0.58671 -4.5705 0
M  V30 5119 H 467.015 -0.372889 -4.14727 0
M  V30 5120 H 469.612 2.32735 -4.81392 0
M  V30 5121 H 469.955 2.72408 -3.14801 0
M  V30 5122 H 470.488 1.15782 -3.80578 0
M  V30 5123 H 467.227 -0.0371713 -6.55489 0
M  V30 5124 H 466.747 1.50327 -5.80656 0
M  V30 5125 H 468.426 1.25576 -6.34697 0
M  V30 5126 N 468.558 1.5553 0.254621 0
M  V30 5127 C 469.806 1.7665 0.981793 0
M  V30 5128 C 470.127 0.580963 1.86145 0
M  V30 5129 O 469.397 -0.403537 1.91699 0
M  V30 5130 H 467.977 0.651475 0.365498 0
M  V30 5131 H 470.639 1.92958 0.274426 0
M  V30 5132 H 469.735 2.67486 1.60802 0
M  V30 5133 N 470.036 -0.519951 1.48776 0
M  V30 5134 C 471.282 -1.27711 1.57536 0
M  V30 5135 C 471.615 -1.92547 0.252866 0
M  V30 5136 O 470.89 -1.7979 -0.742021 0
M  V30 5137 C 471.173 -2.35875 2.72094 0
M  V30 5138 C 471.026 -1.75664 4.1408 0
M  V30 5139 C 472.345 -3.37575 2.82367 0
M  V30 5140 H 469.464 -0.462971 0.573434 0
M  V30 5141 H 472.106 -0.578194 1.80989 0
M  V30 5142 H 470.256 -2.95488 2.52228 0
M  V30 5143 H 471.928 -1.20025 4.45412 0
M  V30 5144 H 470.171 -1.06154 4.20611 0
M  V30 5145 H 470.842 -2.54029 4.90075 0
M  V30 5146 H 473.318 -2.87929 3.00393 0
M  V30 5147 H 472.194 -4.1064 3.64233 0
M  V30 5148 H 472.455 -3.98743 1.90936 0
M  V30 5149 N 471.514 -1.37532 -0.769588 0
M  V30 5150 C 472.462 -1.33561 -1.90432 0
M  V30 5151 C 473.456 -0.224027 -1.67912 0
M  V30 5152 O 474.662 -0.392174 -1.75676 0
M  V30 5153 H 471.037 -0.416279 -0.626271 0
M  V30 5154 H 473.008 -2.29348 -1.90899 0
M  V30 5155 C 471.757 -1.16162 -3.27722 0
M  V30 5156 H 471.08 -2.00951 -3.45628 0
M  V30 5157 H 472.52 -1.17434 -4.07413 0
M  V30 5158 C 470.979 0.132583 -3.36639 0
M  V30 5159 O 471.509 1.11539 -3.85904 0
M  V30 5160 N 469.715 0.184013 -2.90017 0
M  V30 5161 H 469.262 -0.616415 -2.50116 0
M  V30 5162 H 469.22 1.04956 -2.96364 0
M  V30 5163 N 472.992 0.995999 -1.22138 0
M  V30 5164 C 474.239 1.7351 -1.04406 0
M  V30 5165 C 474.567 1.89884 0.421244 0
M  V30 5166 O 473.822 1.43683 1.32867 0
M  V30 5167 C 474.121 3.14553 -1.6968 0
M  V30 5168 C 473.787 3.18102 -3.19565 0
M  V30 5169 C 472.449 3.18778 -3.60464 0
M  V30 5170 C 474.801 3.14636 -4.15516 0
M  V30 5171 C 472.129 3.13684 -4.95801 0
M  V30 5172 C 474.481 3.11084 -5.50826 0
M  V30 5173 C 473.145 3.10074 -5.91109 0
M  V30 5174 H 472.415 0.634916 -0.38205 0
M  V30 5175 H 475.062 1.1667 -1.51857 0
M  V30 5176 H 473.367 3.74682 -1.14546 0
M  V30 5177 H 475.064 3.70477 -1.53454 0
M  V30 5178 H 471.654 3.18324 -2.86998 0
M  V30 5179 H 475.838 3.13266 -3.84939 0
M  V30 5180 H 471.094 3.11245 -5.26247 0
M  V30 5181 H 475.268 3.07357 -6.24904 0
M  V30 5182 H 472.895 3.05882 -6.95946 0
M  V30 5183 N 474.47 1.03057 1.19235 0
M  V30 5184 C 475.4 0.633497 2.24742 0
M  V30 5185 C 476.381 -0.358335 1.66283 0
M  V30 5186 O 477.566 -0.240676 1.92703 0
M  V30 5187 C 474.696 -0.0147648 3.47297 0
M  V30 5188 C 473.65 0.899527 4.18441 0
M  V30 5189 C 472.976 0.116281 5.34574 0
M  V30 5190 C 474.276 2.21404 4.73051 0
M  V30 5191 H 475.97 1.5155 2.58211 0
M  V30 5192 H 473.516 0.73014 1.24117 0
M  V30 5193 H 475.469 -0.304202 4.20301 0
M  V30 5194 H 474.193 -0.931577 3.13032 0
M  V30 5195 H 472.852 1.17319 3.47321 0
M  V30 5196 H 472.5 -0.802619 4.96555 0
M  V30 5197 H 472.2 0.725293 5.83107 0
M  V30 5198 H 473.724 -0.166376 6.10373 0
M  V30 5199 H 475.138 1.98601 5.37802 0
M  V30 5200 H 473.535 2.77512 5.32078 0
M  V30 5201 H 474.605 2.86752 3.91026 0
M  V30 5202 N 475.948 -1.35272 0.808662 0
M  V30 5203 C 477.197 -1.97963 0.386483 0
M  V30 5204 C 477.51 -1.64866 -1.05255 0
M  V30 5205 O 478.716 -2.20937 -1.57794 0
M  V30 5206 C 477.172 -3.54162 0.640096 0
M  V30 5207 C 476.78 -3.96166 2.0918 0
M  V30 5208 C 478.524 -4.23553 0.283376 0
M  V30 5209 C 476.431 -5.4522 2.29106 0
M  V30 5210 H 475.361 -0.740742 0.140774 0
M  V30 5211 H 478.012 -1.5431 0.993012 0
M  V30 5212 H 476.394 -3.95983 -0.0364117 0
M  V30 5213 H 477.568 -3.65491 2.80629 0
M  V30 5214 H 475.883 -3.3967 2.40859 0
M  V30 5215 H 478.48 -5.33124 0.410273 0
M  V30 5216 H 478.823 -4.09105 -0.770659 0
M  V30 5217 H 479.356 -3.8716 0.913884 0
M  V30 5218 H 476.095 -5.64638 3.32962 0
M  V30 5219 H 475.615 -5.77457 1.62184 0
M  V30 5220 H 477.294 -6.1171 2.1076 0
M  V30 5221 N 477.426 -0.562348 -1.47226 0
M  V30 5222 C 478.673 -0.0402165 -2.0246 0
M  V30 5223 C 479.001 1.31169 -1.43614 0
M  V30 5224 O 478.256 1.86805 -0.5833 0
M  V30 5225 C 478.555 0.0969817 -3.57268 0
M  V30 5226 C 478.221 -1.1847 -4.35058 0
M  V30 5227 C 476.883 -1.53588 -4.56031 0
M  V30 5228 C 479.235 -2.03378 -4.79882 0
M  V30 5229 C 476.563 -2.73452 -5.19077 0
M  V30 5230 C 478.915 -3.2245 -5.44251 0
M  V30 5231 C 477.579 -3.57876 -5.63455 0
M  V30 5232 H 476.849 -0.0147163 -0.740854 0
M  V30 5233 H 479.496 -0.734895 -1.76838 0
M  V30 5234 H 477.801 0.87466 -3.81912 0
M  V30 5235 H 479.498 0.516408 -3.97661 0
M  V30 5236 H 476.088 -0.90126 -4.19017 0
M  V30 5237 H 480.272 -1.77553 -4.63453 0
M  V30 5238 H 475.528 -3.01062 -5.32139 0
M  V30 5239 H 479.702 -3.88526 -5.77945 0
M  V30 5240 H 477.329 -4.50849 -6.12078 0
M  V30 5241 N 478.904 1.54736 -0.299062 0
M  V30 5242 C 480.15 2.00397 0.311244 0
M  V30 5243 C 480.483 1.18716 1.53688 0
M  V30 5244 O 479.758 0.263154 1.92712 0
M  V30 5245 C 480.041 3.53817 0.669761 0
M  V30 5246 C 479.894 4.46239 -0.564882 0
M  V30 5247 C 481.213 4.13856 1.49702 0
M  V30 5248 H 478.332 0.728493 0.111653 0
M  V30 5249 H 480.974 1.85506 -0.410774 0
M  V30 5250 H 479.124 3.66637 1.28491 0
M  V30 5251 H 480.796 4.45328 -1.20337 0
M  V30 5252 H 479.039 4.16916 -1.19849 0
M  V30 5253 H 479.71 5.5134 -0.269918 0
M  V30 5254 H 482.186 4.04461 0.977284 0
M  V30 5255 H 481.062 5.21365 1.71666 0
M  V30 5256 H 481.323 3.65608 2.48563 0
M  V30 5257 N 480.382 0.0267497 1.57577 0
M  V30 5258 C 481.798 -0.32962 1.56159 0
M  V30 5259 C 481.998 -1.73059 1.03213 0
M  V30 5260 O 481.054 -2.43233 0.677804 0
M  V30 5261 C 482.367 -0.18039 3.00158 0
M  V30 5262 C 483.915 -0.253334 3.11973 0
M  V30 5263 C 484.39 -0.132921 4.57807 0
M  V30 5264 N 485.881 -0.189979 4.6281 0
M  V30 5265 C 486.616 -0.120554 5.73273 0
M  V30 5266 N 486.112 -0.000180315 6.928 0
M  V30 5267 N 487.905 -0.174369 5.61829 0
M  V30 5268 H 480.056 0.942896 1.90324 0
M  V30 5269 H 482.319 0.3639 0.875375 0
M  V30 5270 H 482.025 0.784576 3.42837 0
M  V30 5271 H 481.899 -0.951565 3.65 0
M  V30 5272 H 484.286 -1.20876 2.69208 0
M  V30 5273 H 484.367 0.548177 2.49857 0
M  V30 5274 H 484.011 0.819073 5.01252 0
M  V30 5275 H 483.941 -0.953264 5.179 0
M  V30 5276 H 486.432 -0.283257 3.76837 0
M  V30 5277 H 486.745 0.0461666 7.72786 0
M  V30 5278 H 485.09 0.034569 6.94991 0
M  V30 5279 H 488.281 -0.266794 4.67339 0
M  V30 5280 H 488.454 -0.116802 6.47895 0
M  V30 5281 N 481.861 -1.55662 -0.24637 0
M  V30 5282 C 483.107 -1.77782 -0.975779 0
M  V30 5283 C 483.44 -0.592103 -1.84953 0
M  V30 5284 O 482.715 0.409588 -1.90138 0
M  V30 5285 C 482.998 -3.09788 -1.83584 0
M  V30 5286 C 482.851 -4.38764 -0.990241 0
M  V30 5287 C 484.17 -3.38029 -2.81823 0
M  V30 5288 H 481.289 -0.646789 -0.353317 0
M  V30 5289 H 483.931 -1.88398 -0.246248 0
M  V30 5290 H 482.081 -3.00869 -2.45784 0
M  V30 5291 H 483.753 -4.59675 -0.386897 0
M  V30 5292 H 481.996 -4.32798 -0.294626 0
M  V30 5293 H 482.667 -5.27514 -1.62584 0
M  V30 5294 H 485.143 -3.46915 -2.2976 0
M  V30 5295 H 484.019 -4.3161 -3.39122 0
M  V30 5296 H 484.28 -2.58968 -3.58313 0
M  V30 5297 N 483.339 0.512053 -1.4905 0
M  V30 5298 C 484.588 1.26343 -1.57227 0
M  V30 5299 C 484.901 1.93876 -0.259155 0
M  V30 5300 O 486.107 2.70612 -0.219358 0
M  V30 5301 C 484.563 2.29343 -2.77362 0
M  V30 5302 C 484.171 1.67799 -4.15388 0
M  V30 5303 C 485.915 3.05378 -2.94864 0
M  V30 5304 C 483.822 2.68845 -5.2676 0
M  V30 5305 H 482.752 0.475231 -0.585382 0
M  V30 5306 H 485.403 0.53862 -1.75417 0
M  V30 5307 H 483.785 3.04938 -2.52643 0
M  V30 5308 H 484.959 0.982715 -4.50199 0
M  V30 5309 H 483.274 1.04194 -4.03153 0
M  V30 5310 H 485.871 3.80921 -3.75238 0
M  V30 5311 H 486.214 3.62327 -2.05 0
M  V30 5312 H 486.747 2.36898 -3.19569 0
M  V30 5313 H 483.486 2.16692 -6.18647 0
M  V30 5314 H 483.006 3.36647 -4.96416 0
M  V30 5315 H 484.685 3.31487 -5.5563 0
M  V30 5316 N 484.817 1.37938 0.762283 0
M  V30 5317 C 486.057 1.35076 1.53407 0
M  V30 5318 C 486.421 -0.061546 1.91901 0
M  V30 5319 O 487.622 -0.214973 2.67939 0
M  V30 5320 C 485.893 2.27206 2.75884 0
M  V30 5321 S 487.452 2.42283 3.65848 0
M  V30 5322 H 484.27 0.479387 0.52508 0
M  V30 5323 H 486.872 1.7378 0.895586 0
M  V30 5324 H 485.576 3.28724 2.457 0
M  V30 5325 H 485.107 1.8962 3.44685 0
M  V30 5326 H 487.122 1.64044 4.68299 0
M  V30 5327 N 486.295 -0.989507 1.22664 0
M  V30 5328 C 487.544 -1.72375 1.04737 0
M  V30 5329 C 487.857 -1.91096 -0.417316 0
M  V30 5330 O 489.063 -2.6188 -0.716334 0
M  V30 5331 C 487.519 -3.10161 1.82561 0
M  V30 5332 C 487.127 -2.99358 3.333 0
M  V30 5333 C 488.871 -3.87607 1.73093 0
M  V30 5334 C 486.778 -4.32319 4.03552 0
M  V30 5335 H 485.708 -0.646326 0.388302 0
M  V30 5336 H 488.359 -1.10437 1.46546 0
M  V30 5337 H 486.741 -3.728 1.33552 0
M  V30 5338 H 487.915 -2.45863 3.89728 0
M  V30 5339 H 486.23 -2.35392 3.43481 0
M  V30 5340 H 488.827 -4.86025 2.22899 0
M  V30 5341 H 489.17 -4.10509 0.691976 0
M  V30 5342 H 489.703 -3.31652 2.19663 0
M  V30 5343 H 486.442 -4.14616 5.07714 0
M  V30 5344 H 485.962 -4.85714 3.51911 0
M  V30 5345 H 487.641 -5.01051 4.09337 0
M  V30 5346 N 487.773 -1.03688 -1.18687 0
M  V30 5347 C 489.019 -0.739123 -1.88851 0
M  V30 5348 C 489.352 0.731042 -1.79915 0
M  V30 5349 O 488.627 1.53313 -1.19688 0
M  V30 5350 C 488.91 -1.20106 -3.3948 0
M  V30 5351 C 488.763 -2.73304 -3.57246 0
M  V30 5352 C 490.082 -0.788134 -4.32986 0
M  V30 5353 H 487.201 -0.269978 -0.68577 0
M  V30 5354 H 489.843 -1.28822 -1.3966 0
M  V30 5355 H 487.993 -0.733915 -3.81505 0
M  V30 5356 H 489.665 -3.28027 -3.24339 0
M  V30 5357 H 487.908 -3.13313 -3.00029 0
M  V30 5358 H 488.579 -3.00684 -4.62918 0
M  V30 5359 H 491.055 -1.19005 -3.98719 0
M  V30 5360 H 489.931 -1.13915 -5.36949 0
M  V30 5361 H 490.192 0.308988 -4.41019 0
M  V30 5362 N 489.251 1.34841 -0.815825 0
M  V30 5363 C 490.497 1.98793 -0.401129 0
M  V30 5364 C 490.83 1.64548 1.03139 0
M  V30 5365 O 490.105 0.913487 1.71714 0
M  V30 5366 C 490.388 3.55143 -0.595409 0
M  V30 5367 C 490.241 3.99155 -2.07352 0
M  V30 5368 C 491.56 4.40092 -0.0268823 0
M  V30 5369 H 488.679 0.722146 -0.14722 0
M  V30 5370 H 491.321 1.59847 -1.02707 0
M  V30 5371 H 489.471 3.8845 -0.0625779 0
M  V30 5372 H 491.143 3.76216 -2.66945 0
M  V30 5373 H 489.386 3.49726 -2.56659 0
M  V30 5374 H 490.057 5.07971 -2.1603 0
M  V30 5375 H 492.533 4.13298 -0.482042 0
M  V30 5376 H 491.409 5.48562 -0.19267 0
M  V30 5377 H 491.67 4.29016 1.06759 0
M  V30 5378 N 490.729 0.570148 1.46925 0
M  V30 5379 C 491.954 0.0542592 2.07329 0
M  V30 5380 C 492.379 -1.23582 1.41806 0
M  V30 5381 O 491.737 -1.74341 0.497479 0
M  V30 5382 C 491.785 -0.111175 3.60429 0
M  V30 5383 O 490.889 -1.17071 3.95434 0
M  V30 5384 H 490.23 0.0571425 0.661537 0
M  V30 5385 H 492.76 0.789516 1.88753 0
M  V30 5386 H 492.77 -0.321315 4.06733 0
M  V30 5387 H 491.445 0.831012 4.07513 0
M  V30 5388 H 490.022 -0.940029 3.60857 0
M  V30 5389 N 492.207 -1.54576 0.307264 0
M  V30 5390 C 493.154 -2.23751 -0.56604 0
M  V30 5391 C 494.124 -1.22235 -1.12462 0
M  V30 5392 O 495.309 -1.50873 -1.16799 0
M  V30 5393 C 492.449 -2.98661 -1.72903 0
M  V30 5394 C 491.562 -4.14963 -1.20124 0
M  V30 5395 C 490.697 -4.77441 -2.3286 0
M  V30 5396 C 489.736 -5.85875 -1.77247 0
M  V30 5397 N 488.873 -6.42282 -2.8358 0
M  V30 5398 H 493.713 -2.97984 0.0304578 0
M  V30 5399 H 491.25 -1.47076 0.0268015 0
M  V30 5400 H 493.208 -3.40329 -2.41313 0
M  V30 5401 H 491.838 -2.26793 -2.29706 0
M  V30 5402 H 490.89 -3.78193 -0.409198 0
M  V30 5403 H 492.202 -4.93066 -0.754171 0
M  V30 5404 H 491.356 -5.21993 -3.09205 0
M  V30 5405 H 490.095 -3.98684 -2.80896 0
M  V30 5406 H 489.1 -5.40741 -0.993926 0
M  V30 5407 H 490.325 -6.6652 -1.30107 0
M  V30 5408 H 488.271 -5.66406 -3.30939 0
M  V30 5409 H 488.188 -7.1575 -2.43388 0
M  V30 5410 H 489.456 -6.91492 -3.59804 0
M  V30 5411 N 493.685 -0.035106 -1.57561 0
M  V30 5412 C 494.615 0.942993 -2.13612 0
M  V30 5413 C 495.596 1.33531 -1.05373 0
M  V30 5414 O 496.781 1.41287 -1.33235 0
M  V30 5415 C 493.911 2.22332 -2.66807 0
M  V30 5416 C 492.865 1.97156 -3.79886 0
M  V30 5417 C 492.191 3.31506 -4.19533 0
M  V30 5418 C 493.491 1.30596 -5.05709 0
M  V30 5419 H 495.185 0.476179 -2.95589 0
M  V30 5420 H 492.731 0.227602 -1.4219 0
M  V30 5421 H 494.684 2.91142 -3.04654 0
M  V30 5422 H 493.408 2.7119 -1.81999 0
M  V30 5423 H 492.067 1.30763 -3.42486 0
M  V30 5424 H 491.715 3.78134 -3.31698 0
M  V30 5425 H 491.415 3.15465 -4.95738 0
M  V30 5426 H 492.939 4.01574 -4.59968 0
M  V30 5427 H 494.353 1.89416 -5.41105 0
M  V30 5428 H 492.75 1.24934 -5.86951 0
M  V30 5429 H 493.82 0.279742 -4.84092 0
M  V30 5430 N 495.163 1.55791 0.238111 0
M  V30 5431 C 496.11 1.9105 1.29493 0
M  V30 5432 C 497.08 0.765733 1.47397 0
M  V30 5433 O 498.265 1.02017 1.61236 0
M  V30 5434 C 495.405 2.21826 2.64362 0
M  V30 5435 C 494.518 3.49153 2.54394 0
M  V30 5436 C 493.653 3.69455 3.81676 0
M  V30 5437 C 492.692 4.90353 3.66361 0
M  V30 5438 N 491.829 5.07131 4.85554 0
M  V30 5439 H 496.669 2.81172 0.987233 0
M  V30 5440 H 494.206 1.39179 0.476203 0
M  V30 5441 H 496.164 2.37675 3.4288 0
M  V30 5442 H 494.794 1.34897 2.93262 0
M  V30 5443 H 493.846 3.41587 1.67399 0
M  V30 5444 H 495.158 4.37818 2.38991 0
M  V30 5445 H 494.312 3.85311 4.68636 0
M  V30 5446 H 493.051 2.7904 3.99985 0
M  V30 5447 H 492.056 4.74464 2.77784 0
M  V30 5448 H 493.281 5.82237 3.49538 0
M  V30 5449 H 491.227 4.19654 5.04209 0
M  V30 5450 H 491.144 5.89899 4.72816 0
M  V30 5451 H 492.412 5.27407 5.73988 0
M  V30 5452 N 496.642 -0.504142 1.49319 0
M  V30 5453 C 497.605 -1.5883 1.65244 0
M  V30 5454 C 498.605 -1.52009 0.524386 0
M  V30 5455 O 499.795 -1.55218 0.79077 0
M  V30 5456 C 496.927 -2.98481 1.64687 0
M  V30 5457 H 498.12 -1.4604 2.61939 0
M  V30 5458 H 495.673 -0.728144 1.38303 0
M  V30 5459 H 496.408 -3.16751 0.695644 0
M  V30 5460 H 496.193 -3.0484 2.46607 0
M  V30 5461 H 497.683 -3.77256 1.79075 0
M  V30 5462 N 498.12 -1.38341 -0.754957 0
M  V30 5463 C 499.068 -1.35573 -1.89005 0
M  V30 5464 C 500.062 -0.241824 -1.67665 0
M  V30 5465 O 501.268 -0.410785 -1.7525 0
M  V30 5466 H 497.643 -0.422898 -0.621821 0
M  V30 5467 H 499.614 -2.31359 -1.88455 0
M  V30 5468 C 498.363 -1.19631 -3.26471 0
M  V30 5469 H 497.686 -2.04605 -3.43477 0
M  V30 5470 H 499.126 -1.21748 -4.06144 0
M  V30 5471 C 497.585 0.0968705 -3.36761 0
M  V30 5472 O 498.115 1.07439 -3.87066 0
M  V30 5473 N 496.321 0.153242 -2.90196 0
M  V30 5474 H 495.868 -0.642908 -2.49448 0
M  V30 5475 H 495.826 1.01807 -2.9746 0
M  V30 5476 N 499.598 0.982988 -1.23187 0
M  V30 5477 C 500.528 2.09301 -1.03515 0
M  V30 5478 C 501.509 1.70035 0.0471136 0
M  V30 5479 O 502.694 1.93847 -0.117029 0
M  V30 5480 C 499.824 3.4167 -0.622791 0
M  V30 5481 C 498.778 3.94828 -1.65211 0
M  V30 5482 C 498.104 5.23362 -1.09527 0
M  V30 5483 C 499.404 4.2439 -3.04451 0
M  V30 5484 H 501.098 2.26016 -1.96359 0
M  V30 5485 H 498.644 1.08611 -0.945501 0
M  V30 5486 H 500.597 4.18746 -0.472233 0
M  V30 5487 H 499.321 3.24811 0.341329 0
M  V30 5488 H 497.98 3.19895 -1.79061 0
M  V30 5489 H 497.628 5.02852 -0.122211 0
M  V30 5490 H 497.328 5.59895 -1.783 0
M  V30 5491 H 498.852 6.03062 -0.956511 0
M  V30 5492 H 500.266 4.92225 -2.93917 0
M  V30 5493 H 498.663 4.72118 -3.70438 0
M  V30 5494 H 499.733 3.31765 -3.53638 0
M  V30 5495 N 501.076 1.04316 1.18135 0
M  V30 5496 C 502.009 0.580823 2.20685 0
M  V30 5497 C 502.987 -0.385943 1.57953 0
M  V30 5498 O 504.171 -0.299654 1.86103 0
M  V30 5499 C 501.298 -0.151162 3.38363 0
M  V30 5500 C 500.344 0.769247 4.19505 0
M  V30 5501 S 501.177 2.25352 4.85774 0
M  V30 5502 C 502.333 1.53246 6.0685 0
M  V30 5503 H 502.566 1.44968 2.5956 0
M  V30 5504 H 500.099 0.85434 1.28609 0
M  V30 5505 H 502.057 -0.567315 4.06561 0
M  V30 5506 H 500.718 -0.995936 2.97892 0
M  V30 5507 H 499.911 0.203335 5.0359 0
M  V30 5508 H 499.513 1.12436 3.56699 0
M  V30 5509 H 501.805 0.82689 6.72435 0
M  V30 5510 H 502.748 2.35044 6.67952 0
M  V30 5511 H 503.156 1.0237 5.5514 0
M  V30 5512 N 502.554 -1.34406 0.822964 0
M  V30 5513 C 503.794 -2.00103 0.416915 0
M  V30 5514 C 504.158 -1.63826 -1.00125 0
M  V30 5515 O 505.359 -2.22367 -1.51018 0
M  V30 5516 C 503.63 -3.52101 0.613151 0
M  V30 5517 S 505.189 -4.37774 0.299956 0
M  V30 5518 H 502.007 -0.69333 0.157527 0
M  V30 5519 H 504.609 -1.63698 1.06879 0
M  V30 5520 H 503.313 -3.75991 1.64496 0
M  V30 5521 H 502.844 -3.93364 -0.0534554 0
M  V30 5522 H 504.859 -4.8822 -0.886336 0
M  V30 5523 N 504.032 -0.577932 -1.46621 0
M  V30 5524 C 504.979 0.158048 -2.30258 0
M  V30 5525 C 505.949 0.888669 -1.40328 0
M  V30 5526 O 507.134 0.880283 -1.6928 0
M  V30 5527 C 504.274 1.16884 -3.24703 0
M  V30 5528 C 503.387 0.442163 -4.29731 0
M  V30 5529 C 502.522 1.44007 -5.11308 0
M  V30 5530 C 501.561 0.69952 -6.0809 0
M  V30 5531 N 500.698 1.64525 -6.82551 0
M  V30 5532 H 505.538 -0.561242 -2.92667 0
M  V30 5533 H 503.075 -0.288591 -1.44241 0
M  V30 5534 H 505.033 1.7677 -3.779 0
M  V30 5535 H 503.663 1.85591 -2.64113 0
M  V30 5536 H 502.715 -0.271632 -3.79429 0
M  V30 5537 H 504.027 -0.136992 -4.98612 0
M  V30 5538 H 503.181 2.11186 -5.68758 0
M  V30 5539 H 501.92 2.05315 -4.42377 0
M  V30 5540 H 500.925 0.0139217 -5.49798 0
M  V30 5541 H 502.15 0.091894 -6.79038 0
M  V30 5542 H 500.096 2.24653 -6.16334 0
M  V30 5543 H 500.013 1.11878 -7.47676 0
M  V30 5544 H 501.281 2.30754 -7.44562 0
M  V30 5545 N 505.51 1.54411 -0.315457 0
M  V30 5546 C 506.738 2.04833 0.291738 0
M  V30 5547 C 507.153 1.19203 1.46411 0
M  V30 5548 O 506.51 0.220867 1.81159 0
M  V30 5549 C 506.561 3.53969 0.73404 0
M  V30 5550 O 506.282 4.36346 -0.391682 0
M  V30 5551 C 507.783 4.2045 1.40489 0
M  V30 5552 H 505.003 0.668195 0.0612947 0
M  V30 5553 H 507.547 1.99276 -0.45929 0
M  V30 5554 H 505.702 3.5984 1.43506 0
M  V30 5555 H 506.116 5.24481 -0.0447088 0
M  V30 5556 H 507.59 5.26278 1.66539 0
M  V30 5557 H 508.067 3.71067 2.3496 0
M  V30 5558 H 508.673 4.18694 0.746662 0
M  V30 5559 N 506.988 0.0434614 1.5754 0
M  V30 5560 C 508.265 -0.671479 1.83713 0
M  V30 5561 C 508.645 -1.89495 0.930315 0
M  V30 5562 O 507.993 -2.28498 -0.0105639 0
M  V30 5563 C 508.203 -1.0361 3.33266 0
M  V30 5564 C 509.551 -1.42167 4.00092 0
M  V30 5565 O 510.575 -1.12866 3.37846 0
M  V30 5566 O 509.434 -1.96817 5.09829 0
M  V30 5567 H 506.528 -0.330726 0.75799 0
M  V30 5568 H 509.074 0.0722373 1.69546 0
M  V30 5569 H 507.846 -0.165938 3.90948 0
M  V30 5570 H 507.469 -1.83751 3.52592 0
M  V30 5571 N 508.466 -1.55915 -0.229846 0
M  V30 5572 C 509.715 -1.77742 -0.953455 0
M  V30 5573 C 510.028 -0.610524 -1.85828 0
M  V30 5574 O 511.234 -0.712219 -2.61992 0
M  V30 5575 C 509.69 -3.14738 -1.74551 0
M  V30 5576 C 509.298 -4.39126 -0.887242 0
M  V30 5577 C 511.042 -3.45895 -2.46084 0
M  V30 5578 C 508.949 -5.67149 -1.67617 0
M  V30 5579 H 507.879 -0.662648 -0.359741 0
M  V30 5580 H 510.53 -1.82322 -0.207576 0
M  V30 5581 H 508.912 -3.04311 -2.53399 0
M  V30 5582 H 510.086 -4.60588 -0.139892 0
M  V30 5583 H 508.401 -4.15427 -0.284443 0
M  V30 5584 H 510.998 -4.38767 -3.05594 0
M  V30 5585 H 511.341 -2.68007 -3.18556 0
M  V30 5586 H 511.874 -3.57614 -1.74233 0
M  V30 5587 H 508.613 -6.47906 -0.994881 0
M  V30 5588 H 508.133 -5.49763 -2.39836 0
M  V30 5589 H 509.812 -6.07025 -2.23898 0
M  V30 5590 N 509.944 0.496216 -1.49584 0
M  V30 5591 C 510.891 1.59722 -1.66606 0
M  V30 5592 C 511.861 1.58158 -0.507477 0
M  V30 5593 O 513.046 1.76072 -0.735076 0
M  V30 5594 C 510.186 2.97844 -1.74308 0
M  V30 5595 C 509.299 3.09388 -3.01502 0
M  V30 5596 C 508.434 4.38271 -3.00153 0
M  V30 5597 C 507.473 4.43466 -4.21906 0
M  V30 5598 N 506.61 5.63784 -4.1844 0
M  V30 5599 H 511.45 1.44515 -2.60613 0
M  V30 5600 H 508.987 0.703048 -1.29212 0
M  V30 5601 H 510.945 3.77907 -1.76754 0
M  V30 5602 H 509.575 3.11743 -0.837619 0
M  V30 5603 H 508.627 2.22357 -3.08645 0
M  V30 5604 H 509.939 3.09085 -3.91494 0
M  V30 5605 H 509.093 5.2666 -3.01188 0
M  V30 5606 H 507.832 4.41146 -2.07947 0
M  V30 5607 H 506.837 3.53478 -4.21109 0
M  V30 5608 H 508.062 4.42303 -5.1531 0
M  V30 5609 H 506.008 5.67491 -3.29074 0
M  V30 5610 H 505.925 5.65118 -5.02173 0
M  V30 5611 H 507.193 6.54367 -4.23585 0
M  V30 5612 N 511.423 1.38739 0.74761 0
M  V30 5613 C 512.663 1.36695 1.51966 0
M  V30 5614 C 513.027 -0.0411889 1.91956 0
M  V30 5615 O 514.228 -0.186543 2.68152 0
M  V30 5616 C 512.499 2.30119 2.73459 0
M  V30 5617 S 514.058 2.4615 3.63257 0
M  V30 5618 H 510.876 0.484929 0.519966 0
M  V30 5619 H 513.478 1.7472 0.877104 0
M  V30 5620 H 512.182 3.31312 2.422 0
M  V30 5621 H 511.713 1.93265 3.42655 0
M  V30 5622 H 513.728 1.69001 4.66533 0
M  V30 5623 N 512.901 -0.976442 1.23707 0
M  V30 5624 C 514.317 -1.24341 1.00058 0
M  V30 5625 C 514.517 -1.99315 -0.295932 0
M  V30 5626 O 513.573 -2.3123 -1.01435 0
M  V30 5627 C 514.886 -2.03909 2.21001 0
M  V30 5628 C 516.434 -2.17034 2.25534 0
M  V30 5629 C 516.909 -2.99994 3.46075 0
M  V30 5630 N 518.4 -3.07578 3.46338 0
M  V30 5631 C 519.135 -3.72104 4.36264 0
M  V30 5632 N 518.631 -4.3842 5.36432 0
M  V30 5633 N 520.424 -3.69029 4.23998 0
M  V30 5634 H 512.575 -0.47428 2.07037 0
M  V30 5635 H 514.838 -0.272167 0.908091 0
M  V30 5636 H 514.544 -1.56198 3.15111 0
M  V30 5637 H 514.418 -3.04654 2.22409 0
M  V30 5638 H 516.805 -2.63951 1.31961 0
M  V30 5639 H 516.886 -1.15664 2.28156 0
M  V30 5640 H 516.53 -2.53772 4.39957 0
M  V30 5641 H 516.46 -4.01541 3.40694 0
M  V30 5642 H 518.951 -2.60397 2.73865 0
M  V30 5643 H 519.264 -4.85447 6.013 0
M  V30 5644 H 517.609 -4.37116 5.40328 0
M  V30 5645 H 520.8 -3.16392 3.44984 0
M  V30 5646 H 520.973 -4.19034 4.94282 0
M  V30 5647 N 514.379 -1.04941 -1.1758 0
M  V30 5648 C 515.309 -0.669172 -2.23706 0
M  V30 5649 C 516.29 0.331835 -1.66832 0
M  V30 5650 O 517.475 0.209988 -1.93061 0
M  V30 5651 C 514.605 -0.0404889 -3.47276 0
M  V30 5652 C 513.559 -0.965983 -4.16957 0
M  V30 5653 C 512.885 -0.201312 -5.34321 0
M  V30 5654 C 514.185 -2.28902 -4.69469 0
M  V30 5655 H 515.879 -1.55639 -2.55767 0
M  V30 5656 H 513.425 -0.749793 -1.22939 0
M  V30 5657 H 515.378 0.237298 -4.20731 0
M  V30 5658 H 514.102 0.881658 -3.14475 0
M  V30 5659 H 512.761 -1.22829 -3.45411 0
M  V30 5660 H 512.409 0.723519 -4.97769 0
M  V30 5661 H 512.109 -0.817968 -5.81879 0
M  V30 5662 H 513.633 0.0692499 -6.10561 0
M  V30 5663 H 515.047 -2.07132 -5.34574 0
M  V30 5664 H 513.444 -2.85942 -5.27596 0
M  V30 5665 H 514.514 -2.92937 -3.86414 0
M  V30 5666 N 515.857 1.33968 -0.830081 0
M  V30 5667 C 516.82 2.27694 -0.26235 0
M  V30 5668 C 517.82 1.50589 0.563876 0
M  V30 5669 O 519.01 1.70028 0.378941 0
M  V30 5670 C 516.142 3.35002 0.63138 0
M  V30 5671 H 517.335 2.79419 -1.08928 0
M  V30 5672 H 514.888 1.44221 -0.602486 0
M  V30 5673 H 515.623 2.88504 1.48109 0
M  V30 5674 H 515.408 3.92079 0.0403276 0
M  V30 5675 H 516.898 4.04897 1.02217 0
M  V30 5676 N 517.335 0.585699 1.46312 0
M  V30 5677 C 518.282 -0.145835 2.30339 0
M  V30 5678 C 519.252 -0.881215 1.40797 0
M  V30 5679 O 520.437 -0.871293 1.69744 0
M  V30 5680 C 517.577 -1.15161 3.25318 0
M  V30 5681 C 516.69 -0.419367 4.2996 0
M  V30 5682 C 515.825 -1.41293 5.12064 0
M  V30 5683 C 514.864 -0.667261 6.08452 0
M  V30 5684 N 514.001 -1.60903 6.83414 0
M  V30 5685 H 518.841 0.576755 2.92365 0
M  V30 5686 H 516.378 0.296237 1.44086 0
M  V30 5687 H 518.336 -1.74763 3.78832 0
M  V30 5688 H 516.966 -1.84188 2.65094 0
M  V30 5689 H 516.018 0.291751 3.7928 0
M  V30 5690 H 517.33 0.163433 4.98532 0
M  V30 5691 H 516.484 -2.08167 5.6987 0
M  V30 5692 H 515.223 -2.02966 4.43459 0
M  V30 5693 H 514.228 0.0152356 5.49798 0
M  V30 5694 H 515.453 -0.0558817 6.79077 0
M  V30 5695 H 513.399 -2.21381 6.17516 0
M  V30 5696 H 513.316 -1.07911 7.48259 0
M  V30 5697 H 514.584 -2.26802 7.45775 0
M  V30 5698 N 518.813 -1.54241 0.323641 0
M  V30 5699 C 520.038 -2.05452 -0.283605 0
M  V30 5700 C 520.463 -1.19823 -1.44997 0
M  V30 5701 O 519.821 -0.207358 -1.8011 0
M  V30 5702 C 519.869 -3.53823 -0.695795 0
M  V30 5703 O 518.973 -3.71134 -1.79815 0
M  V30 5704 H 518.314 -0.662024 -0.0511917 0
M  V30 5705 H 520.844 -1.99079 0.472073 0
M  V30 5706 H 520.854 -3.96094 -0.978434 0
M  V30 5707 H 519.529 -4.15602 0.157287 0
M  V30 5708 H 518.106 -3.40768 -1.51431 0
M  V30 5709 N 520.291 -0.0518155 -1.57515 0
M  V30 5710 C 521.519 0.631395 -1.9703 0
M  V30 5711 C 521.934 1.64341 -0.92938 0
M  V30 5712 O 521.291 1.82296 0.0863266 0
M  V30 5713 C 521.342 1.31774 -3.36627 0
M  V30 5714 O 521.063 0.346247 -4.3673 0
M  V30 5715 C 522.564 2.09065 -3.90905 0
M  V30 5716 H 519.784 0.172576 -0.648428 0
M  V30 5717 H 522.328 -0.118306 -2.04158 0
M  V30 5718 H 520.483 2.01867 -3.30649 0
M  V30 5719 H 520.897 0.836226 -5.17791 0
M  V30 5720 H 522.371 2.52508 -4.9086 0
M  V30 5721 H 522.848 2.93908 -3.26366 0
M  V30 5722 H 523.454 1.43882 -4.00223 0
M  V30 5723 N 521.769 1.56035 0.221574 0
M  V30 5724 C 522.699 1.95434 1.2778 0
M  V30 5725 C 523.68 0.822564 1.48889 0
M  V30 5726 O 524.865 1.08486 1.61072 0
M  V30 5727 C 521.995 2.27102 2.62759 0
M  V30 5728 C 520.949 3.4277 2.56306 0
M  V30 5729 C 520.275 3.60043 3.95314 0
M  V30 5730 C 521.575 4.77742 2.11093 0
M  V30 5731 H 523.269 2.83912 0.950504 0
M  V30 5732 H 520.815 1.36596 0.455791 0
M  V30 5733 H 522.768 2.53256 3.36807 0
M  V30 5734 H 521.492 1.35478 2.97176 0
M  V30 5735 H 520.151 3.16664 1.84715 0
M  V30 5736 H 519.799 2.65794 4.27039 0
M  V30 5737 H 519.499 4.37841 3.91879 0
M  V30 5738 H 521.023 3.88545 4.71025 0
M  V30 5739 H 522.437 5.03102 2.74885 0
M  V30 5740 H 520.834 5.58823 2.18716 0
M  V30 5741 H 521.904 4.731 1.06321 0
M  V30 5742 N 523.247 -0.488276 1.49845 0
M  V30 5743 C 524.475 -1.26527 1.63702 0
M  V30 5744 C 524.89 -1.8618 0.313447 0
M  V30 5745 O 524.247 -1.68432 -0.702624 0
M  V30 5746 C 524.298 -2.3864 2.71538 0
M  V30 5747 O 524.019 -1.81437 3.98763 0
M  V30 5748 C 525.52 -3.29805 2.96215 0
M  V30 5749 H 522.74 -0.383295 0.55075 0
M  V30 5750 H 525.284 -0.584779 1.95961 0
M  V30 5751 H 523.439 -3.02496 2.42023 0
M  V30 5752 H 523.853 -2.55135 4.58265 0
M  V30 5753 H 525.327 -4.04722 3.75372 0
M  V30 5754 H 525.804 -3.87563 2.06619 0
M  V30 5755 H 526.41 -2.71703 3.27196 0
M  V30 5756 N 524.725 -1.39134 -0.740242 0
M  V30 5757 C 525.655 -1.40165 -1.86751 0
M  V30 5758 C 526.636 -0.265708 -1.68012 0
M  V30 5759 O 527.821 -0.47076 -1.88408 0
M  V30 5760 C 524.951 -1.2392 -3.2444 0
M  V30 5761 C 523.905 -2.34858 -3.57807 0
M  V30 5762 C 523.231 -2.03707 -4.94376 0
M  V30 5763 C 524.531 -3.77159 -3.61315 0
M  V30 5764 H 526.225 -2.345 -1.86145 0
M  V30 5765 H 523.771 -1.12875 -0.89416 0
M  V30 5766 H 525.724 -1.23263 -4.02969 0
M  V30 5767 H 524.448 -0.26051 -3.25559 0
M  V30 5768 H 523.107 -2.34723 -2.81604 0
M  V30 5769 H 522.755 -1.04289 -4.9207 0
M  V30 5770 H 522.455 -2.78016 -5.17669 0
M  V30 5771 H 523.979 -2.04691 -5.75268 0
M  V30 5772 H 525.393 -3.79252 -4.29931 0
M  V30 5773 H 523.79 -4.50784 -3.96124 0
M  V30 5774 H 524.86 -4.08513 -2.61238 0
M  V30 5775 N 526.204 0.969867 -1.24223 0
M  V30 5776 C 527.453 1.70687 -1.07466 0
M  V30 5777 C 527.766 1.91736 0.386861 0
M  V30 5778 O 528.972 2.62986 0.674581 0
M  V30 5779 C 527.428 3.07217 -1.87472 0
M  V30 5780 C 527.036 2.94018 -3.3802 0
M  V30 5781 C 528.78 3.84804 -1.79237 0
M  V30 5782 C 526.687 4.25844 -4.10379 0
M  V30 5783 H 525.617 0.640067 -0.398536 0
M  V30 5784 H 528.268 1.08092 -1.48285 0
M  V30 5785 H 526.65 3.70628 -1.39466 0
M  V30 5786 H 527.824 2.39632 -3.9359 0
M  V30 5787 H 526.139 2.29898 -3.47183 0
M  V30 5788 H 528.736 4.82417 -2.30603 0
M  V30 5789 H 529.079 4.09356 -0.757197 0
M  V30 5790 H 529.612 3.28115 -2.24912 0
M  V30 5791 H 526.351 4.06486 -5.14246 0
M  V30 5792 H 525.871 4.80054 -3.59594 0
M  V30 5793 H 527.55 4.94475 -4.17257 0
M  V30 5794 N 527.682 1.05563 1.17022 0
M  V30 5795 C 529.093 0.793475 1.69 0
M  V30 5796 C 529.444 -0.683882 1.83895 0
M  V30 5797 O 528.569 -1.53116 1.5292 0
M  V30 5798 C 529.164 1.43376 3.06967 0
M  V30 5799 C 527.723 1.21956 3.56095 0
M  V30 5800 C 526.87 1.51494 2.3226 0
M  V30 5801 H 529.821 1.22008 1.01487 0
M  V30 5802 H 529.842 0.845068 3.70997 0
M  V30 5803 H 529.354 2.50899 2.96093 0
M  V30 5804 H 527.455 0.163749 3.7224 0
M  V30 5805 H 527.568 1.92713 4.38633 0
M  V30 5806 H 525.932 0.935175 2.3691 0
M  V30 5807 H 526.715 2.60159 2.23992 0
M  V30 5808 N 529.16 -1.33526 0.837174 0
M  V30 5809 C 530.09 -2.31764 0.284206 0
M  V30 5810 C 531.071 -1.58896 -0.607142 0
M  V30 5811 O 532.256 -1.86798 -0.531047 0
M  V30 5812 C 529.386 -3.43029 -0.542962 0
M  V30 5813 C 528.34 -4.27255 0.252451 0
M  V30 5814 C 527.666 -5.3012 -0.69836 0
M  V30 5815 C 528.966 -5.01229 1.46858 0
M  V30 5816 H 530.66 -2.78262 1.10502 0
M  V30 5817 H 528.206 -1.3378 0.532812 0
M  V30 5818 H 530.159 -4.1078 -0.940096 0
M  V30 5819 H 528.883 -2.95216 -1.39697 0
M  V30 5820 H 527.542 -3.61127 0.631124 0
M  V30 5821 H 527.19 -4.78564 -1.54872 0
M  V30 5822 H 526.89 -5.87353 -0.170274 0
M  V30 5823 H 528.414 -6.00737 -1.09305 0
M  V30 5824 H 529.828 -5.61756 1.14469 0
M  V30 5825 H 528.225 -5.68104 1.93333 0
M  V30 5826 H 529.295 -4.301 2.23924 0
M  V30 5827 N 530.638 -0.59345 -1.46 0
M  V30 5828 C 531.568 0.121192 -2.33185 0
M  V30 5829 C 532.549 0.872977 -1.4599 0
M  V30 5830 O 533.734 0.846321 -1.74789 0
M  V30 5831 C 530.864 1.12844 -3.28456 0
M  V30 5832 C 529.818 0.4908 -4.25177 0
M  V30 5833 C 529.144 1.60529 -5.10034 0
M  V30 5834 C 530.444 -0.578949 -5.19081 0
M  V30 5835 H 532.138 -0.606767 -2.93187 0
M  V30 5836 H 529.684 -0.293242 -1.40983 0
M  V30 5837 H 531.637 1.63684 -3.88311 0
M  V30 5838 H 530.361 1.88681 -2.66584 0
M  V30 5839 H 529.02 0.00339328 -3.666 0
M  V30 5840 H 528.668 2.35359 -4.44539 0
M  V30 5841 H 528.368 1.18422 -5.75543 0
M  V30 5842 H 529.892 2.11623 -5.72755 0
M  V30 5843 H 531.306 -0.155199 -5.7309 0
M  V30 5844 H 529.703 -0.920947 -5.92991 0
M  V30 5845 H 530.773 -1.46109 -4.62364 0
M  V30 5846 N 532.116 1.54067 -0.331816 0
M  V30 5847 C 533.364 2.00319 0.267739 0
M  V30 5848 C 533.685 1.22148 1.52003 0
M  V30 5849 O 532.955 0.325494 1.93177 0
M  V30 5850 H 531.535 0.740014 0.101922 0
M  V30 5851 H 534.197 1.89628 -0.450267 0
M  V30 5852 H 533.293 3.07765 0.518385 0
M  V30 5853 N 533.594 0.0601682 1.57485 0
M  V30 5854 C 534.822 -0.620937 1.97363 0
M  V30 5855 C 535.237 -1.63846 0.938082 0
M  V30 5856 O 534.594 -1.82339 -0.0766578 0
M  V30 5857 C 534.645 -1.29987 3.37321 0
M  V30 5858 O 534.366 -0.323081 4.36907 0
M  V30 5859 C 535.867 -2.06989 3.92008 0
M  V30 5860 H 533.087 -0.169135 0.649334 0
M  V30 5861 H 535.631 0.129132 2.04092 0
M  V30 5862 H 533.786 -2.0011 3.31715 0
M  V30 5863 H 534.2 -0.808754 5.18227 0
M  V30 5864 H 535.674 -2.49901 4.92192 0
M  V30 5865 H 536.151 -2.92173 3.2792 0
M  V30 5866 H 536.757 -1.41757 4.0098 0
M  V30 5867 N 535.072 -1.5615 -0.213296 0
M  V30 5868 C 536.022 -1.89485 -1.26804 0
M  V30 5869 C 537.006 -0.758713 -1.41889 0
M  V30 5870 O 538.198 -1.02127 -1.44565 0
M  V30 5871 C 535.327 -2.22219 -2.61675 0
M  V30 5872 C 534.413 -3.42245 -2.50458 0
M  V30 5873 N 534.804 -4.60645 -2.089 0
M  V30 5874 C 533.102 -3.46023 -2.81397 0
M  V30 5875 C 533.803 -5.42805 -2.09135 0
M  V30 5876 N 532.779 -4.82732 -2.49941 0
M  V30 5877 H 536.581 -2.78537 -0.937771 0
M  V30 5878 H 534.095 -1.56826 -0.421824 0
M  V30 5879 H 536.092 -2.44278 -3.37837 0
M  V30 5880 H 534.752 -1.34484 -2.95541 0
M  V30 5881 H 535.763 -4.85651 -1.79899 0
M  V30 5882 H 532.44 -2.68654 -3.1958 0
M  V30 5883 H 533.83 -6.47601 -1.79059 0
M  V30 5884 N 536.55 0.480323 -1.50102 0
M  V30 5885 C 537.46 1.60547 -1.71061 0
M  V30 5886 C 538.476 1.63564 -0.593529 0
M  V30 5887 O 539.652 1.81604 -0.870751 0
M  V30 5888 C 536.717 2.96814 -1.79171 0
M  V30 5889 C 535.778 3.04259 -3.02861 0
M  V30 5890 C 535.011 4.34027 -3.10574 0
M  V30 5891 O 535.234 5.24009 -2.25323 0
M  V30 5892 O 534.168 4.46873 -4.03223 0
M  V30 5893 H 537.994 1.45788 -2.6642 0
M  V30 5894 H 535.579 0.658838 -1.34088 0
M  V30 5895 H 537.461 3.77765 -1.86738 0
M  V30 5896 H 536.136 3.11791 -0.869947 0
M  V30 5897 H 535.043 2.22419 -3.008 0
M  V30 5898 H 536.376 2.94216 -3.94586 0
M  V30 5899 N 538.028 1.39524 0.732853 0
M  V30 5900 C 539.274 1.37068 1.49467 0
M  V30 5901 C 539.607 -0.0327166 1.94172 0
M  V30 5902 O 538.882 -0.998071 1.66939 0
M  V30 5903 C 539.165 2.34494 2.73285 0
M  V30 5904 C 539.018 3.83784 2.34585 0
M  V30 5905 C 540.337 2.29717 3.75391 0
M  V30 5906 H 537.456 0.499206 0.542183 0
M  V30 5907 H 540.098 1.70532 0.837783 0
M  V30 5908 H 538.248 2.06087 3.29333 0
M  V30 5909 H 539.92 4.22949 1.84151 0
M  V30 5910 H 538.163 4.00455 1.66787 0
M  V30 5911 H 538.834 4.47444 3.23262 0
M  V30 5912 H 541.31 2.54839 3.28932 0
M  V30 5913 H 540.186 2.99962 4.59689 0
M  V30 5914 H 540.447 1.30291 4.22465 0
M  V30 5915 N 539.506 -0.963266 1.24736 0
M  V30 5916 C 540.755 -1.70115 1.08369 0
M  V30 5917 C 541.068 -1.91939 -0.376688 0
M  V30 5918 O 542.274 -2.6334 -0.660624 0
M  V30 5919 C 540.73 -3.06218 1.89099 0
M  V30 5920 C 540.338 -2.92221 3.39574 0
M  V30 5921 C 542.082 -3.83848 1.81275 0
M  V30 5922 C 539.989 -4.23662 4.12631 0
M  V30 5923 H 538.919 -0.637944 0.401924 0
M  V30 5924 H 541.57 -1.07304 1.48856 0
M  V30 5925 H 539.952 -3.69884 1.41429 0
M  V30 5926 H 541.126 -2.37541 3.94856 0
M  V30 5927 H 539.441 -2.28054 3.48397 0
M  V30 5928 H 542.038 -4.81188 2.33158 0
M  V30 5929 H 542.381 -4.08949 0.778895 0
M  V30 5930 H 542.914 -3.26918 2.26649 0
M  V30 5931 H 539.653 -4.03753 5.16395 0
M  V30 5932 H 539.173 -4.78141 3.62135 0
M  V30 5933 H 540.852 -4.92256 4.19873 0
M  V30 5934 N 540.985 -1.06182 -1.16461 0
M  V30 5935 C 542.232 -0.777863 -1.86964 0
M  V30 5936 C 542.56 0.695602 -1.81636 0
M  V30 5937 O 541.815 1.52532 -1.22607 0
M  V30 5938 C 542.114 -1.21633 -3.36066 0
M  V30 5939 C 541.78 -2.69371 -3.61594 0
M  V30 5940 C 540.442 -3.09727 -3.6827 0
M  V30 5941 C 542.794 -3.64791 -3.7226 0
M  V30 5942 C 540.122 -4.44345 -3.83112 0
M  V30 5943 C 542.474 -4.99155 -3.88623 0
M  V30 5944 C 541.138 -5.39149 -3.93541 0
M  V30 5945 H 540.408 -0.28464 -0.68415 0
M  V30 5946 H 543.055 -1.33071 -1.37711 0
M  V30 5947 H 541.36 -0.582651 -3.87443 0
M  V30 5948 H 543.057 -0.973682 -3.88999 0
M  V30 5949 H 539.647 -2.37124 -3.57029 0
M  V30 5950 H 543.831 -3.34746 -3.66413 0
M  V30 5951 H 539.087 -4.74819 -3.85172 0
M  V30 5952 H 543.261 -5.72976 -3.95817 0
M  V30 5953 H 540.888 -6.43464 -4.04794 0
M  V30 5954 N 542.463 1.3308 -0.844243 0
M  V30 5955 C 543.426 2.27403 -0.286485 0
M  V30 5956 C 544.426 1.51179 0.547872 0
M  V30 5957 O 545.616 1.70421 0.360886 0
M  V30 5958 C 542.748 3.35653 0.595813 0
M  V30 5959 H 543.941 2.78248 -1.11885 0
M  V30 5960 H 541.494 1.43574 -0.617749 0
M  V30 5961 H 542.229 2.90058 1.4504 0
M  V30 5962 H 542.014 3.921 -0.00125994 0
M  V30 5963 H 543.504 4.05958 0.979168 0
M  V30 5964 N 543.941 0.601185 1.45683 0
M  V30 5965 C 545.188 0.0938811 2.02282 0
M  V30 5966 C 545.516 -1.27315 1.47041 0
M  V30 5967 O 544.771 -1.85193 0.632623 0
M  V30 5968 C 545.07 -0.00222425 3.574 0
M  V30 5969 C 544.736 1.29963 4.31764 0
M  V30 5970 C 543.398 1.65625 4.51798 0
M  V30 5971 C 545.75 2.1603 4.74321 0
M  V30 5972 C 543.078 2.87119 5.11644 0
M  V30 5973 C 545.43 3.36766 5.3551 0
M  V30 5974 C 544.094 3.72689 5.53768 0
M  V30 5975 H 543.364 0.0343535 0.740203 0
M  V30 5976 H 546.011 0.781522 1.74827 0
M  V30 5977 H 544.316 -0.773096 3.84097 0
M  V30 5978 H 546.013 -0.410794 3.9889 0
M  V30 5979 H 542.603 1.01204 4.1648 0
M  V30 5980 H 546.787 1.89778 4.58582 0
M  V30 5981 H 542.043 3.15065 5.2397 0
M  V30 5982 H 546.217 4.03713 5.67441 0
M  V30 5983 H 543.844 4.66918 5.99909 0
M  V30 5984 N 545.419 -1.53889 0.339982 0
M  V30 5985 C 546.665 -2.01152 -0.258003 0
M  V30 5986 C 546.998 -1.22749 -1.50487 0
M  V30 5987 O 546.273 -0.314156 -1.91946 0
M  V30 5988 C 546.556 -3.55468 -0.575717 0
M  V30 5989 C 546.409 -4.44584 0.682996 0
M  V30 5990 C 547.728 -4.1768 -1.38677 0
M  V30 5991 H 544.847 -0.731198 -0.0922992 0
M  V30 5992 H 547.489 -1.84352 0.459814 0
M  V30 5993 H 545.639 -3.69914 -1.18725 0
M  V30 5994 H 547.311 -4.41981 1.32102 0
M  V30 5995 H 545.554 -4.13592 1.3086 0
M  V30 5996 H 546.225 -5.5043 0.416001 0
M  V30 5997 H 548.701 -4.0691 -0.869705 0
M  V30 5998 H 547.577 -5.25734 -1.57783 0
M  V30 5999 H 547.838 -3.72069 -2.38782 0
M  V30 6000 N 546.897 -0.0685191 -1.57451 0
M  V30 6001 C 547.83 0.935736 -2.08133 0
M  V30 6002 C 548.808 1.29317 -0.985698 0
M  V30 6003 O 549.992 1.40304 -1.25886 0
M  V30 6004 C 547.119 2.2448 -2.53627 0
M  V30 6005 C 546.165 2.03917 -3.74593 0
M  V30 6006 S 546.998 1.30154 -5.19442 0
M  V30 6007 C 548.154 2.62346 -5.68265 0
M  V30 6008 H 548.387 0.504473 -2.92989 0
M  V30 6009 H 545.92 0.144169 -1.53725 0
M  V30 6010 H 547.878 2.99718 -2.80499 0
M  V30 6011 H 546.539 2.64731 -1.69045 0
M  V30 6012 H 545.732 3.00788 -4.04404 0
M  V30 6013 H 545.334 1.36815 -3.48077 0
M  V30 6014 H 547.626 3.58448 -5.7491 0
M  V30 6015 H 548.569 2.3715 -6.67207 0
M  V30 6016 H 548.977 2.69401 -4.96068 0
M  V30 6017 N 548.375 1.56261 0.205012 0
M  V30 6018 C 549.652 1.70856 0.952233 0
M  V30 6019 C 550.032 0.620501 2.01775 0
M  V30 6020 O 549.38 -0.370035 2.25484 0
M  V30 6021 C 549.59 3.12807 1.54767 0
M  V30 6022 C 550.938 3.72733 2.0336 0
M  V30 6023 O 551.962 3.15873 1.64629 0
M  V30 6024 O 550.821 4.72501 2.746 0
M  V30 6025 H 547.915 0.696496 0.445895 0
M  V30 6026 H 550.461 1.6857 0.195489 0
M  V30 6027 H 549.233 3.83465 0.779132 0
M  V30 6028 H 548.856 3.1928 2.36951 0
M  V30 6029 N 549.853 -0.472356 1.50355 0
M  V30 6030 C 550.763 -1.59637 1.7191 0
M  V30 6031 C 551.779 -1.63247 0.602195 0
M  V30 6032 O 552.955 -1.81139 0.880369 0
M  V30 6033 C 550.02 -2.9586 1.80742 0
M  V30 6034 C 549.081 -3.02649 3.04471 0
M  V30 6035 C 548.314 -4.32374 3.12872 0
M  V30 6036 O 548.537 -5.22807 2.28099 0
M  V30 6037 O 547.471 -4.44728 4.05587 0
M  V30 6038 H 551.297 -1.44373 2.67189 0
M  V30 6039 H 548.882 -0.651717 1.34436 0
M  V30 6040 H 550.764 -3.7677 1.88739 0
M  V30 6041 H 549.439 -3.11325 0.88647 0
M  V30 6042 H 548.346 -2.20821 3.01975 0
M  V30 6043 H 549.679 -2.92119 3.9614 0
M  V30 6044 N 551.331 -1.39911 -0.725443 0
M  V30 6045 C 552.281 -1.35878 -1.83088 0
M  V30 6046 C 553.265 -0.237989 -1.5913 0
M  V30 6047 O 554.457 -0.476302 -1.70471 0
M  V30 6048 C 551.586 -1.21403 -3.21117 0
M  V30 6049 C 550.672 -2.38223 -3.50871 0
M  V30 6050 N 551.063 -3.63703 -3.51502 0
M  V30 6051 C 549.361 -2.31388 -3.81281 0
M  V30 6052 C 550.062 -4.4101 -3.79322 0
M  V30 6053 N 549.038 -3.7072 -3.97577 0
M  V30 6054 H 552.84 -2.3085 -1.81895 0
M  V30 6055 H 550.354 -1.33543 -0.924125 0
M  V30 6056 H 552.351 -1.16597 -4.00263 0
M  V30 6057 H 551.011 -0.273902 -3.23543 0
M  V30 6058 H 552.022 -3.96998 -3.32586 0
M  V30 6059 H 548.699 -1.45689 -3.91256 0
M  V30 6060 H 550.089 -5.49819 -3.86198 0
M  V30 6061 N 552.809 0.956637 -1.25245 0
M  V30 6062 C 553.772 2.03457 -1.05537 0
M  V30 6063 C 554.772 1.60798 -0.00886317 0
M  V30 6064 O 555.962 1.72384 -0.250865 0
M  V30 6065 C 553.094 3.35543 -0.601965 0
M  V30 6066 H 554.287 2.22372 -2.01223 0
M  V30 6067 H 551.84 1.13344 -1.07623 0
M  V30 6068 H 552.575 3.22323 0.357584 0
M  V30 6069 H 552.36 3.67854 -1.35743 0
M  V30 6070 H 553.85 4.14769 -0.485454 0
M  V30 6071 N 554.287 1.06798 1.15896 0
M  V30 6072 C 555.703 0.792423 1.38538 0
M  V30 6073 C 555.903 -0.60592 1.92174 0
M  V30 6074 O 554.959 -1.36561 2.12385 0
M  V30 6075 C 556.272 1.86157 2.36149 0
M  V30 6076 C 557.82 1.88567 2.49823 0
M  V30 6077 C 558.295 2.9455 3.5072 0
M  V30 6078 N 559.786 2.93616 3.58251 0
M  V30 6079 C 560.521 3.72267 4.36125 0
M  V30 6080 N 560.017 4.60751 5.17379 0
M  V30 6081 N 561.81 3.60637 4.31158 0
M  V30 6082 H 553.961 1.96993 0.794198 0
M  V30 6083 H 556.224 0.853942 0.411688 0
M  V30 6084 H 555.93 2.86603 2.03843 0
M  V30 6085 H 555.804 1.71692 3.3586 0
M  V30 6086 H 558.191 0.887765 2.8143 0
M  V30 6087 H 558.272 2.0711 1.5013 0
M  V30 6088 H 557.916 3.94537 3.19849 0
M  V30 6089 H 557.846 2.73255 4.50155 0
M  V30 6090 H 560.337 2.29472 3.00252 0
M  V30 6091 H 560.65 5.17408 5.74028 0
M  V30 6092 H 558.995 4.64803 5.16704 0
M  V30 6093 H 562.186 2.90892 3.66742 0
M  V30 6094 H 562.359 4.22176 4.91601 0
M  V30 6095 N 555.766 -1.3263 0.851289 0
M  V30 6096 C 557.014 -1.96978 0.452128 0
M  V30 6097 C 557.335 -1.67715 -0.99482 0
M  V30 6098 O 556.605 -0.98259 -1.69476 0
M  V30 6099 H 555.185 -0.72873 0.164202 0
M  V30 6100 H 557.847 -1.61774 1.08698 0
M  V30 6101 H 556.943 -3.06387 0.594407 0
M  V30 6102 N 557.244 -0.608902 -1.45362 0
M  V30 6103 C 558.472 -0.111013 -2.06602 0
M  V30 6104 C 558.887 1.20516 -1.45332 0
M  V30 6105 O 558.244 1.73437 -0.567978 0
M  V30 6106 C 558.295 0.033688 -3.61484 0
M  V30 6107 O 558.016 -1.23041 -4.20467 0
M  V30 6108 C 559.517 0.562882 -4.39712 0
M  V30 6109 H 556.737 -0.0694453 -0.667397 0
M  V30 6110 H 559.281 -0.837008 -1.86586 0
M  V30 6111 H 557.436 0.710016 -3.80838 0
M  V30 6112 H 557.85 -1.06094 -5.13658 0
M  V30 6113 H 559.324 0.613213 -5.48583 0
M  V30 6114 H 559.801 1.58543 -4.09586 0
M  V30 6115 H 560.407 -0.0794454 -4.25226 0
M  V30 6116 N 558.722 1.53707 -0.348139 0
M  V30 6117 C 559.652 2.28111 0.498766 0
M  V30 6118 C 560.633 1.29851 1.09876 0
M  V30 6119 O 561.818 1.587 1.11928 0
M  V30 6120 C 558.948 3.05735 1.64753 0
M  V30 6121 C 557.902 4.11537 1.17565 0
M  V30 6122 C 557.228 4.77142 2.4133 0
M  V30 6123 C 558.528 5.21587 0.272844 0
M  V30 6124 H 560.222 2.99152 -0.121934 0
M  V30 6125 H 557.768 1.43875 -0.0600842 0
M  V30 6126 H 559.721 3.56526 2.24649 0
M  V30 6127 H 558.445 2.32354 2.2952 0
M  V30 6128 H 557.104 3.61665 0.599483 0
M  V30 6129 H 556.752 4.0035 3.04514 0
M  V30 6130 H 556.452 5.48626 2.10436 0
M  V30 6131 H 557.976 5.30719 3.01943 0
M  V30 6132 H 559.39 5.67986 0.778779 0
M  V30 6133 H 557.787 6.00074 0.0555849 0
M  V30 6134 H 558.857 4.79969 -0.689785 0
M  V30 6135 N 560.2 0.0768682 1.57412 0
M  V30 6136 C 561.616 -0.279772 1.57129 0
M  V30 6137 C 561.816 -1.69688 1.08666 0
M  V30 6138 O 560.872 -2.40953 0.754843 0
M  V30 6139 C 562.185 -0.0848055 3.0058 0
M  V30 6140 C 563.733 -0.153954 3.12621 0
M  V30 6141 C 564.208 0.0127946 4.57998 0
M  V30 6142 N 565.699 -0.0426435 4.6318 0
M  V30 6143 C 566.434 0.0618892 5.73367 0
M  V30 6144 N 565.93 0.220229 6.9245 0
M  V30 6145 N 567.723 0.00446072 5.621 0
M  V30 6146 H 559.874 1.00297 1.87228 0
M  V30 6147 H 562.137 0.391565 0.863354 0
M  V30 6148 H 561.843 0.89325 3.40168 0
M  V30 6149 H 561.717 -0.834961 3.67843 0
M  V30 6150 H 564.104 -1.1225 2.72917 0
M  V30 6151 H 564.185 0.627389 2.47987 0
M  V30 6152 H 563.829 0.978128 4.98392 0
M  V30 6153 H 563.759 -0.788016 5.20671 0
M  V30 6154 H 566.25 -0.163226 3.77547 0
M  V30 6155 H 566.563 0.291999 7.72248 0
M  V30 6156 H 564.908 0.255658 6.9453 0
M  V30 6157 H 568.099 -0.117979 4.67951 0
M  V30 6158 H 568.272 0.0893796 6.47938 0
M  V30 6159 N 561.678 -1.56367 -0.196722 0
M  V30 6160 C 562.925 -1.80529 -0.917366 0
M  V30 6161 C 563.253 -0.649817 -1.83324 0
M  V30 6162 O 562.508 0.36451 -1.92275 0
M  V30 6163 C 562.807 -3.10663 -1.767 0
M  V30 6164 C 562.473 -4.3962 -1.00225 0
M  V30 6165 C 561.135 -4.74653 -0.791095 0
M  V30 6166 C 563.487 -5.1913 -0.464035 0
M  V30 6167 C 560.815 -5.86692 -0.0302155 0
M  V30 6168 C 563.167 -6.31964 0.283625 0
M  V30 6169 C 561.831 -6.65581 0.505813 0
M  V30 6170 H 561.101 -0.660602 -0.335688 0
M  V30 6171 H 563.748 -1.90615 -0.183844 0
M  V30 6172 H 562.053 -2.95807 -2.56915 0
M  V30 6173 H 563.75 -3.26563 -2.32718 0
M  V30 6174 H 560.34 -4.12127 -1.17684 0
M  V30 6175 H 564.524 -4.9248 -0.614575 0
M  V30 6176 H 559.78 -6.11211 0.151917 0
M  V30 6177 H 563.954 -6.92791 0.708057 0
M  V30 6178 H 561.581 -7.52239 1.0973 0
M  V30 6179 N 563.156 0.464375 -1.50603 0
M  V30 6180 C 564.405 1.21277 -1.61167 0
M  V30 6181 C 564.718 1.92953 -0.320704 0
M  V30 6182 O 565.924 2.69778 -0.30534 0
M  V30 6183 C 564.38 2.20403 -2.84518 0
M  V30 6184 C 563.988 1.54499 -4.20516 0
M  V30 6185 C 565.732 2.95843 -3.0443 0
M  V30 6186 C 563.639 2.51951 -5.35047 0
M  V30 6187 H 562.569 0.456367 -0.600204 0
M  V30 6188 H 565.22 0.48254 -1.77042 0
M  V30 6189 H 563.602 2.96746 -2.62217 0
M  V30 6190 H 564.776 0.83899 -4.53098 0
M  V30 6191 H 563.091 0.913152 -4.06264 0
M  V30 6192 H 565.688 3.6879 -3.87167 0
M  V30 6193 H 566.031 3.55622 -2.16423 0
M  V30 6194 H 566.564 2.26611 -3.26944 0
M  V30 6195 H 563.303 1.96901 -6.25228 0
M  V30 6196 H 562.823 3.20683 -5.06875 0
M  V30 6197 H 564.502 3.13643 -5.65895 0
M  V30 6198 N 564.634 1.40294 0.718013 0
M  V30 6199 C 565.581 1.40367 1.8321 0
M  V30 6200 C 566.551 0.260952 1.64037 0
M  V30 6201 O 567.736 0.458648 1.85205 0
M  V30 6202 C 564.876 1.26965 3.20895 0
M  V30 6203 C 563.989 2.50922 3.51656 0
M  V30 6204 C 563.124 2.29981 4.78834 0
M  V30 6205 C 562.163 3.49527 5.02491 0
M  V30 6206 N 561.3 3.27796 6.20882 0
M  V30 6207 H 566.14 2.35593 1.82482 0
M  V30 6208 H 563.677 1.17012 0.891444 0
M  V30 6209 H 565.635 1.17202 4.00399 0
M  V30 6210 H 564.265 0.353591 3.20858 0
M  V30 6211 H 563.317 2.71223 2.66725 0
M  V30 6212 H 564.629 3.39913 3.65048 0
M  V30 6213 H 563.783 2.17558 5.66351 0
M  V30 6214 H 562.522 1.38411 4.67647 0
M  V30 6215 H 561.527 3.6243 4.1343 0
M  V30 6216 H 562.752 4.42021 5.15553 0
M  V30 6217 H 560.698 2.38906 6.1095 0
M  V30 6218 H 560.615 4.10351 6.34939 0
M  V30 6219 H 561.883 3.19101 7.11193 0
M  V30 6220 N 566.112 -0.949982 1.2575 0
M  V30 6221 C 567.042 -2.06483 1.09028 0
M  V30 6222 C 568.023 -1.701 -0.00201532 0
M  V30 6223 O 569.208 -1.93469 0.168383 0
M  V30 6224 C 566.338 -3.39899 0.71316 0
M  V30 6225 C 565.292 -3.90309 1.75621 0
M  V30 6226 C 564.618 -5.20274 1.23365 0
M  V30 6227 C 565.918 -4.16169 3.15596 0
M  V30 6228 H 567.612 -2.20731 2.02283 0
M  V30 6229 H 565.158 -1.06066 0.973964 0
M  V30 6230 H 567.111 -4.17346 0.58309 0
M  V30 6231 H 565.835 -3.25602 -0.255091 0
M  V30 6232 H 564.494 -3.15035 1.8748 0
M  V30 6233 H 564.142 -5.02351 0.255491 0
M  V30 6234 H 563.842 -5.54971 1.93082 0
M  V30 6235 H 565.366 -6.00314 1.11607 0
M  V30 6236 H 566.78 -4.84259 3.06864 0
M  V30 6237 H 565.177 -4.62131 3.82825 0
M  V30 6238 H 566.247 -3.22273 3.6231 0
M  V30 6239 N 567.59 -1.07411 -1.15328 0
M  V30 6240 C 568.837 -0.797649 -1.86128 0
M  V30 6241 C 569.165 0.676298 -1.82364 0
M  V30 6242 O 568.42 1.51223 -1.24218 0
M  V30 6243 C 568.719 -1.25191 -3.34757 0
M  V30 6244 C 568.385 -2.73191 -3.58716 0
M  V30 6245 C 567.047 -3.13616 -3.64964 0
M  V30 6246 C 569.399 -3.68718 -3.6837 0
M  V30 6247 C 566.727 -4.48383 -3.78377 0
M  V30 6248 C 569.079 -5.03248 -3.83306 0
M  V30 6249 C 567.743 -5.43293 -3.878 0
M  V30 6250 H 567.013 -0.29188 -0.681092 0
M  V30 6251 H 569.66 -1.34524 -1.36292 0
M  V30 6252 H 567.965 -0.623712 -3.86804 0
M  V30 6253 H 569.662 -1.01489 -3.87945 0
M  V30 6254 H 566.252 -2.40898 -3.54494 0
M  V30 6255 H 570.436 -3.38614 -3.62842 0
M  V30 6256 H 565.692 -4.78877 -3.80114 0
M  V30 6257 H 569.866 -5.77142 -3.89718 0
M  V30 6258 H 567.493 -6.47721 -3.97946 0
M  V30 6259 N 569.068 1.32177 -0.85831 0
M  V30 6260 C 570.296 2.01313 -0.477582 0
M  V30 6261 C 570.711 1.6449 0.926736 0
M  V30 6262 O 570.068 0.868096 1.60531 0
M  V30 6263 C 570.119 3.56293 -0.611337 0
M  V30 6264 O 569.84 3.91794 -1.96034 0
M  V30 6265 C 571.341 4.42702 -0.230093 0
M  V30 6266 H 568.561 0.644323 -0.187322 0
M  V30 6267 H 571.105 1.68674 -1.15626 0
M  V30 6268 H 569.26 3.87395 0.0196494 0
M  V30 6269 H 569.674 4.86513 -1.95973 0
M  V30 6270 H 571.148 5.50727 -0.374674 0
M  V30 6271 H 571.625 4.3129 0.829779 0
M  V30 6272 H 572.231 4.16997 -0.836302 0
M  V30 6273 N 570.547 0.616602 1.45037 0
M  V30 6274 C 571.457 -0.0985401 2.34393 0
M  V30 6275 C 572.473 -0.850971 1.51771 0
M  V30 6276 O 573.649 -0.806521 1.84546 0
M  V30 6277 C 570.714 -1.07748 3.29532 0
M  V30 6278 C 569.775 -0.326022 4.2806 0
M  V30 6279 C 569.008 -1.25833 5.18654 0
M  V30 6280 O 569.231 -2.49652 5.12864 0
M  V30 6281 O 568.165 -0.750512 5.97203 0
M  V30 6282 H 571.991 0.636016 2.96966 0
M  V30 6283 H 569.576 0.376832 1.44569 0
M  V30 6284 H 571.458 -1.64107 3.88133 0
M  V30 6285 H 570.133 -1.79291 2.69512 0
M  V30 6286 H 569.04 0.280253 3.73049 0
M  V30 6287 H 570.373 0.349091 4.9096 0
M  V30 6288 N 572.025 -1.5352 0.356285 0
M  V30 6289 C 572.955 -2.28372 -0.486661 0
M  V30 6290 C 573.936 -1.30432 -1.09185 0
M  V30 6291 O 575.121 -1.59291 -1.11085 0
M  V30 6292 C 572.251 -3.06604 -1.63129 0
M  V30 6293 C 571.205 -4.12154 -1.15381 0
M  V30 6294 C 570.531 -4.78415 -2.38796 0
M  V30 6295 C 571.831 -5.21724 -0.245179 0
M  V30 6296 H 573.525 -2.99083 0.137797 0
M  V30 6297 H 571.071 -1.43841 0.0677134 0
M  V30 6298 H 573.024 -3.57712 -2.22755 0
M  V30 6299 H 571.748 -2.33568 -2.28284 0
M  V30 6300 H 570.407 -3.61978 -0.580294 0
M  V30 6301 H 570.055 -4.01959 -3.02387 0
M  V30 6302 H 569.755 -5.49734 -2.07524 0
M  V30 6303 H 571.279 -5.32313 -2.99125 0
M  V30 6304 H 572.693 -5.68391 -0.748646 0
M  V30 6305 H 571.09 -6.00095 -0.0237608 0
M  V30 6306 H 572.16 -4.79596 0.715229 0
M  V30 6307 N 573.503 -0.0852151 -1.57369 0
M  V30 6308 C 574.728 0.592872 -1.98746 0
M  V30 6309 C 575.153 1.61538 -0.963689 0
M  V30 6310 O 574.511 1.81168 0.069071 0
M  V30 6311 C 574.559 1.22599 -3.39119 0
M  V30 6312 O 573.663 2.34185 -3.39457 0
M  V30 6313 H 573.004 0.151314 -0.646529 0
M  V30 6314 H 575.534 -0.163703 -2.03944 0
M  V30 6315 H 575.544 1.56965 -3.76598 0
M  V30 6316 H 574.219 0.476831 -4.13158 0
M  V30 6317 H 572.796 2.01512 -3.13763 0
M  V30 6318 N 574.981 1.5647 0.188427 0
M  V30 6319 C 576.228 1.81013 0.907779 0
M  V30 6320 C 576.556 0.65953 1.82977 0
M  V30 6321 O 575.811 -0.354308 1.92466 0
M  V30 6322 C 576.11 3.11596 1.7505 0
M  V30 6323 C 575.776 4.40145 0.978922 0
M  V30 6324 C 574.438 4.75066 0.765912 0
M  V30 6325 C 576.79 5.19369 0.436498 0
M  V30 6326 C 574.118 5.867 -0.00089868 0
M  V30 6327 C 576.47 6.31805 -0.317136 0
M  V30 6328 C 575.134 6.65303 -0.541103 0
M  V30 6329 H 574.404 0.662373 0.33218 0
M  V30 6330 H 577.051 1.9071 0.173732 0
M  V30 6331 H 575.356 2.97165 2.55343 0
M  V30 6332 H 577.053 3.27793 2.30983 0
M  V30 6333 H 573.643 4.12745 1.15497 0
M  V30 6334 H 577.827 4.92799 0.588449 0
M  V30 6335 H 573.083 6.11122 -0.184329 0
M  V30 6336 H 577.257 6.92406 -0.744788 0
M  V30 6337 H 574.884 7.51646 -1.13718 0
M  V30 6338 N 576.459 -0.456382 1.50847 0
M  V30 6339 C 577.687 -1.23026 1.66349 0
M  V30 6340 C 578.102 -1.85473 0.352868 0
M  V30 6341 O 577.459 -1.69885 -0.666739 0
M  V30 6342 C 577.51 -2.32827 2.76539 0
M  V30 6343 O 577.231 -1.72938 4.02522 0
M  V30 6344 C 578.732 -3.23448 3.03144 0
M  V30 6345 H 575.952 -0.371527 0.558756 0
M  V30 6346 H 578.496 -0.543082 1.97157 0
M  V30 6347 H 576.651 -2.97294 2.48384 0
M  V30 6348 H 577.065 -2.45357 4.63573 0
M  V30 6349 H 578.539 -3.96669 3.83872 0
M  V30 6350 H 579.016 -3.83094 2.14793 0
M  V30 6351 H 579.622 -2.64702 3.32886 0
M  V30 6352 N 577.937 -1.40673 -0.710563 0
M  V30 6353 C 579.162 -1.42741 -1.50465 0
M  V30 6354 C 579.587 -0.0302116 -1.88076 0
M  V30 6355 O 578.945 0.962945 -1.53613 0
M  V30 6356 C 578.993 -2.32873 -2.75322 0
M  V30 6357 O 578.097 -1.77544 -3.72226 0
M  V30 6358 H 577.438 -0.485056 -0.45345 0
M  V30 6359 H 579.968 -1.84961 -0.874681 0
M  V30 6360 H 579.978 -2.48233 -3.23797 0
M  V30 6361 H 578.653 -3.34401 -2.47283 0
M  V30 6362 H 577.23 -1.71556 -3.31093 0
M  V30 6363 N 579.415 0.9433 -1.26252 0
M  V30 6364 C 580.662 1.68925 -1.11672 0
M  V30 6365 C 580.99 1.91499 0.340329 0
M  V30 6366 O 580.245 1.49189 1.26653 0
M  V30 6367 C 580.544 3.07073 -1.82868 0
M  V30 6368 C 580.21 3.04262 -3.32769 0
M  V30 6369 C 578.872 3.03203 -3.7366 0
M  V30 6370 C 581.224 2.96729 -4.28487 0
M  V30 6371 C 578.552 2.92373 -5.0866 0
M  V30 6372 C 580.904 2.87442 -5.63525 0
M  V30 6373 C 579.568 2.84724 -6.03729 0
M  V30 6374 H 578.838 0.618141 -0.408635 0
M  V30 6375 H 581.485 1.10124 -1.56668 0
M  V30 6376 H 579.79 3.69486 -1.30335 0
M  V30 6377 H 581.487 3.63635 -1.69029 0
M  V30 6378 H 578.077 3.05865 -3.00241 0
M  V30 6379 H 582.261 2.96658 -3.97879 0
M  V30 6380 H 577.517 2.88645 -5.38975 0
M  V30 6381 H 581.691 2.80576 -6.37377 0
M  V30 6382 H 579.318 2.76089 -7.08293 0
M  V30 6383 N 580.893 1.08022 1.14757 0
M  V30 6384 C 581.825 0.664566 2.19354 0
M  V30 6385 C 582.838 -0.286374 1.60261 0
M  V30 6386 O 584.027 -0.0746362 1.78344 0
M  V30 6387 C 581.127 -0.0434634 3.38872 0
M  V30 6388 C 580.3 0.925381 4.27499 0
M  V30 6389 C 579.359 0.253398 5.2559 0
M  V30 6390 O 578.385 0.896581 5.62094 0
M  V30 6391 N 579.587 -0.998263 5.71852 0
M  V30 6392 H 582.352 1.56438 2.55631 0
M  V30 6393 H 579.913 0.965788 1.29939 0
M  V30 6394 H 581.905 -0.503857 4.01551 0
M  V30 6395 H 580.475 -0.845321 3.00954 0
M  V30 6396 H 579.695 1.56472 3.61815 0
M  V30 6397 H 580.983 1.58203 4.8358 0
M  V30 6398 H 580.381 -1.54063 5.44317 0
M  V30 6399 H 578.938 -1.40222 6.36538 0
M  V30 6400 N 582.371 -1.3172 0.865308 0
M  V30 6401 C 583.619 -1.96487 0.472995 0
M  V30 6402 C 583.94 -1.68761 -0.976975 0
M  V30 6403 O 583.21 -1.00051 -1.68424 0
M  V30 6404 H 581.79 -0.726947 0.171922 0
M  V30 6405 H 584.452 -1.60612 1.10407 0
M  V30 6406 H 583.548 -3.0574 0.62687 0
M  V30 6407 N 583.85 -0.624285 -1.44708 0
M  V30 6408 C 584.779 0.0717025 -2.3339 0
M  V30 6409 C 585.76 0.841814 -1.47809 0
M  V30 6410 O 586.946 0.809056 -1.76544 0
M  V30 6411 C 584.076 1.05852 -3.30776 0
M  V30 6412 C 583.029 0.400503 -4.26122 0
M  V30 6413 C 582.356 1.49674 -5.13324 0
M  V30 6414 C 583.656 -0.688924 -5.17737 0
M  V30 6415 H 585.35 -0.668819 -2.91834 0
M  V30 6416 H 582.896 -0.32308 -1.40329 0
M  V30 6417 H 584.849 1.5541 -3.91696 0
M  V30 6418 H 583.572 1.82984 -2.70526 0
M  V30 6419 H 582.231 -0.0743687 -3.66525 0
M  V30 6420 H 581.88 2.25877 -4.49431 0
M  V30 6421 H 581.58 1.06188 -5.77926 0
M  V30 6422 H 583.104 1.99427 -5.77115 0
M  V30 6423 H 584.518 -0.276724 -5.72632 0
M  V30 6424 H 582.915 -1.04652 -5.90904 0
M  V30 6425 H 583.985 -1.55884 -4.5916 0
M  V30 6426 N 585.328 1.53329 -0.364422 0
M  V30 6427 C 586.261 2.22052 0.526145 0
M  V30 6428 C 587.239 1.21203 1.08391 0
M  V30 6429 O 588.423 1.50101 1.14026 0
M  V30 6430 C 585.55 2.91432 1.72583 0
M  V30 6431 C 584.596 4.06345 1.29562 0
M  V30 6432 S 585.429 5.34671 0.297885 0
M  V30 6433 C 586.585 6.07563 1.50392 0
M  V30 6434 H 586.818 2.97244 -0.0575055 0
M  V30 6435 H 584.351 1.53684 -0.148525 0
M  V30 6436 H 586.309 3.3202 2.41398 0
M  V30 6437 H 584.97 2.15966 2.28073 0
M  V30 6438 H 584.163 4.53901 2.19067 0
M  V30 6439 H 583.765 3.67642 0.686696 0
M  V30 6440 H 586.057 6.32224 2.43513 0
M  V30 6441 H 587 6.99973 1.06977 0
M  V30 6442 H 587.408 5.37994 1.70945 0
M  V30 6443 N 586.806 0.0935595 1.57322 0
M  V30 6444 C 588.052 -0.571355 1.94585 0
M  V30 6445 C 588.385 -1.67929 0.975366 0
M  V30 6446 O 587.66 -1.94498 0.00816206 0
M  V30 6447 C 587.943 -1.12797 3.41978 0
M  V30 6448 C 587.796 -0.0251881 4.49793 0
M  V30 6449 C 589.115 -2.02682 3.90651 0
M  V30 6450 H 586.234 -0.206223 0.70756 0
M  V30 6451 H 588.876 0.163956 1.89291 0
M  V30 6452 H 587.026 -1.75461 3.4662 0
M  V30 6453 H 588.698 0.608979 4.57263 0
M  V30 6454 H 586.941 0.641399 4.29032 0
M  V30 6455 H 587.612 -0.455433 5.50118 0
M  V30 6456 H 590.088 -1.49925 3.88152 0
M  V30 6457 H 588.964 -2.38555 4.94351 0
M  V30 6458 H 589.225 -2.94362 3.29854 0
M  V30 6459 N 588.284 -1.56567 -0.180126 0
M  V30 6460 C 589.247 -1.94852 -1.20686 0
M  V30 6461 C 590.247 -0.831212 -1.3765 0
M  V30 6462 O 591.437 -1.09841 -1.35206 0
M  V30 6463 C 588.569 -2.23565 -2.57355 0
M  V30 6464 H 589.762 -2.86722 -0.879225 0
M  V30 6465 H 587.315 -1.50489 -0.422237 0
M  V30 6466 H 588.05 -1.34381 -2.95148 0
M  V30 6467 H 587.835 -3.04999 -2.46411 0
M  V30 6468 H 589.325 -2.54137 -3.31367 0
M  V30 6469 N 589.762 0.448376 -1.51087 0
M  V30 6470 C 591.011 1.19561 -1.62444 0
M  V30 6471 C 591.324 1.92602 -0.341151 0
M  V30 6472 O 592.53 2.69439 -0.333936 0
M  V30 6473 C 590.986 2.17373 -2.8684 0
M  V30 6474 C 590.594 1.5003 -4.22131 0
M  V30 6475 C 592.338 2.92597 -3.0755 0
M  V30 6476 C 590.245 2.46262 -5.37689 0
M  V30 6477 H 589.175 0.449975 -0.605011 0
M  V30 6478 H 591.826 0.463735 -1.77544 0
M  V30 6479 H 590.208 2.93948 -2.65349 0
M  V30 6480 H 591.382 0.790886 -4.53962 0
M  V30 6481 H 589.697 0.870011 -4.0721 0
M  V30 6482 H 592.294 3.64663 -3.91056 0
M  V30 6483 H 592.637 3.53306 -2.20183 0
M  V30 6484 H 593.17 2.23131 -3.29329 0
M  V30 6485 H 589.909 1.90258 -6.27281 0
M  V30 6486 H 589.429 3.15289 -5.10248 0
M  V30 6487 H 591.108 3.07623 -5.6919 0
M  V30 6488 N 591.24 1.41047 0.703093 0
M  V30 6489 C 592.17 1.45067 1.82969 0
M  V30 6490 C 593.151 0.31016 1.67248 0
M  V30 6491 O 594.336 0.520548 1.87093 0
M  V30 6492 C 591.466 1.32478 3.2104 0
M  V30 6493 C 590.42 2.44262 3.51454 0
M  V30 6494 C 589.746 2.16742 4.88801 0
M  V30 6495 C 591.046 3.86606 3.51189 0
M  V30 6496 H 592.74 2.39353 1.79863 0
M  V30 6497 H 590.286 1.15206 0.863919 0
M  V30 6498 H 592.239 1.33904 3.99559 0
M  V30 6499 H 590.963 0.346735 3.24754 0
M  V30 6500 H 589.622 2.42107 2.75282 0
M  V30 6501 H 589.27 1.17299 4.89132 0
M  V30 6502 H 588.97 2.91643 5.10116 0
M  V30 6503 H 590.494 2.19872 5.69639 0
M  V30 6504 H 591.908 3.90517 4.19725 0
M  V30 6505 H 590.305 4.61128 3.84033 0
M  V30 6506 H 591.375 4.15296 2.50315 0
M  V30 6507 N 592.718 -0.936591 1.26751 0
M  V30 6508 C 593.948 -1.71509 1.15188 0
M  V30 6509 C 594.356 -1.86885 -0.295037 0
M  V30 6510 O 593.699 -1.37915 -1.21347 0
M  V30 6511 C 593.761 -3.13853 1.75318 0
M  V30 6512 C 593.425 -3.21845 3.24445 0
M  V30 6513 C 594.422 -3.04771 4.21201 0
M  V30 6514 C 592.107 -3.45088 3.64992 0
M  V30 6515 C 594.101 -3.10816 5.56482 0
M  V30 6516 C 591.788 -3.50767 5.00405 0
M  V30 6517 C 592.786 -3.33648 5.9596 0
M  V30 6518 O 592.474 -3.39045 7.28906 0
M  V30 6519 H 592.206 -0.543658 0.401761 0
M  V30 6520 H 594.76 -1.18234 1.67958 0
M  V30 6521 H 592.99 -3.6857 1.17016 0
M  V30 6522 H 594.679 -3.73634 1.58596 0
M  V30 6523 H 595.445 -2.86665 3.91214 0
M  V30 6524 H 591.324 -3.57467 2.91098 0
M  V30 6525 H 594.868 -2.97372 6.31043 0
M  V30 6526 H 590.765 -3.68396 5.30052 0
M  V30 6527 H 591.533 -3.55558 7.37238 0
M  V30 6528 N 594.196 -1.08629 -1.14182 0
M  V30 6529 C 595.436 -0.826884 -1.86928 0
M  V30 6530 C 595.8 0.635808 -1.81167 0
M  V30 6531 O 597.001 1.0108 -2.49071 0
M  V30 6532 C 595.272 -1.33721 -3.31442 0
M  V30 6533 S 596.831 -1.21045 -4.21774 0
M  V30 6534 H 593.649 -0.299286 -0.644941 0
M  V30 6535 H 596.251 -1.38802 -1.37674 0
M  V30 6536 H 594.955 -2.39617 -3.33184 0
M  V30 6537 H 594.486 -0.771839 -3.85754 0
M  V30 6538 H 596.501 -0.156168 -4.95954 0
M  V30 6539 N 595.674 1.31259 -0.872281 0
M  V30 6540 C 596.921 1.96622 -0.484365 0
M  V30 6541 C 597.249 1.68939 0.963841 0
M  V30 6542 O 596.504 0.97974 1.6941 0
M  V30 6543 C 596.803 3.50659 -0.690889 0
M  V30 6544 C 596.469 3.98366 -2.11224 0
M  V30 6545 C 595.131 4.11104 -2.50094 0
M  V30 6546 C 597.483 4.23425 -3.0391 0
M  V30 6547 C 594.811 4.46254 -3.80887 0
M  V30 6548 C 597.163 4.60039 -4.3422 0
M  V30 6549 C 595.827 4.70984 -4.73001 0
M  V30 6550 H 595.097 0.71949 -0.177242 0
M  V30 6551 H 597.744 1.56353 -1.10571 0
M  V30 6552 H 596.049 3.91798 0.0135782 0
M  V30 6553 H 597.746 3.99284 -0.370534 0
M  V30 6554 H 594.336 3.88949 -1.80047 0
M  V30 6555 H 598.52 4.13075 -2.75104 0
M  V30 6556 H 593.776 4.52926 -4.10692 0
M  V30 6557 H 597.95 4.78381 -5.06088 0
M  V30 6558 H 595.577 4.97977 -5.7439 0
M  V30 6559 N 597.152 0.631951 1.44375 0
M  V30 6560 C 598.398 0.13697 2.02337 0
M  V30 6561 C 598.731 -1.23826 1.49602 0
M  V30 6562 O 598.006 -1.8221 0.680415 0
M  V30 6563 C 598.289 0.124536 3.59885 0
M  V30 6564 C 598.142 1.53217 4.229 0
M  V30 6565 C 599.461 -0.550481 4.36644 0
M  V30 6566 H 596.58 0.051247 0.735216 0
M  V30 6567 H 599.222 0.808581 1.71936 0
M  V30 6568 H 597.372 -0.44737 3.85916 0
M  V30 6569 H 599.044 2.15303 4.07973 0
M  V30 6570 H 597.287 2.0858 3.80364 0
M  V30 6571 H 597.958 1.4755 5.31914 0
M  V30 6572 H 600.434 -0.0641154 4.16051 0
M  V30 6573 H 599.31 -0.528371 5.46351 0
M  V30 6574 H 599.571 -1.62097 4.11311 0
M  V30 6575 N 598.631 -1.53133 0.372548 0
M  V30 6576 C 599.579 -2.27473 -0.485681 0
M  V30 6577 C 600.573 -1.30719 -1.07745 0
M  V30 6578 O 601.779 -1.48321 -1.01985 0
M  V30 6579 H 598.154 -0.731269 -0.175356 0
M  V30 6580 H 600.125 -2.97955 0.162986 0
M  V30 6581 C 598.874 -3.08191 -1.60978 0
M  V30 6582 H 598.197 -3.82488 -1.16373 0
M  V30 6583 H 599.637 -3.63373 -2.18485 0
M  V30 6584 C 598.096 -2.19461 -2.55614 0
M  V30 6585 O 598.626 -1.81008 -3.58607 0
M  V30 6586 N 596.832 -1.83955 -2.24965 0
M  V30 6587 H 596.379 -2.15423 -1.41247 0
M  V30 6588 H 596.337 -1.24874 -2.88538 0
M  V30 6589 N 600.109 -0.101901 -1.5727 0
M  V30 6590 C 601.057 0.872034 -2.15635 0
M  V30 6591 C 602.051 1.28742 -1.10099 0
M  V30 6592 O 603.257 1.26116 -1.28432 0
M  V30 6593 H 599.632 0.299269 -0.689886 0
M  V30 6594 H 601.603 0.355137 -2.96279 0
M  V30 6595 C 600.352 2.11886 -2.7568 0
M  V30 6596 H 599.675 1.80813 -3.56576 0
M  V30 6597 H 601.115 2.78077 -3.20077 0
M  V30 6598 C 599.574 2.89739 -1.7191 0
M  V30 6599 O 600.104 3.84522 -1.16213 0
M  V30 6600 N 598.31 2.53407 -1.42245 0
M  V30 6601 H 597.857 1.76398 -1.87727 0
M  V30 6602 H 597.815 3.05795 -0.730529 0
M  V30 6603 N 601.587 1.56661 0.17182 0
M  V30 6604 C 602.497 1.99604 1.2327 0
M  V30 6605 C 603.513 0.907333 1.4847 0
M  V30 6606 O 604.689 1.21492 1.60629 0
M  V30 6607 C 601.754 2.34685 2.55194 0
M  V30 6608 C 600.815 3.57381 2.3786 0
M  V30 6609 C 600.048 3.90779 3.63494 0
M  V30 6610 O 600.271 3.25152 4.6865 0
M  V30 6611 O 599.205 4.84129 3.57634 0
M  V30 6612 H 603.031 2.90114 0.898192 0
M  V30 6613 H 600.616 1.44522 0.378647 0
M  V30 6614 H 602.498 2.5822 3.33017 0
M  V30 6615 H 601.173 1.47336 2.88225 0
M  V30 6616 H 600.08 3.39064 1.5807 0
M  V30 6617 H 601.413 4.45268 2.09754 0
M  V30 6618 N 603.065 -0.440357 1.51323 0
M  V30 6619 C 604.311 -1.19181 1.64085 0
M  V30 6620 C 604.644 -1.90936 0.354575 0
M  V30 6621 O 603.919 -1.8347 -0.645675 0
M  V30 6622 C 604.202 -2.2112 2.84215 0
M  V30 6623 C 604.055 -1.53468 4.22809 0
M  V30 6624 C 605.374 -3.22133 2.99864 0
M  V30 6625 H 602.493 -0.431924 0.597169 0
M  V30 6626 H 605.135 -0.481443 1.83799 0
M  V30 6627 H 603.285 -2.81703 2.67537 0
M  V30 6628 H 604.957 -0.962455 4.51148 0
M  V30 6629 H 603.2 -0.837086 4.25647 0
M  V30 6630 H 603.871 -2.27694 5.02852 0
M  V30 6631 H 606.347 -2.71601 3.15233 0
M  V30 6632 H 605.223 -3.90756 3.85488 0
M  V30 6633 H 605.484 -3.88061 2.11804 0
M  V30 6634 N 604.543 -1.41418 -0.695603 0
M  V30 6635 C 605.475 -1.39195 -1.82092 0
M  V30 6636 C 606.488 -0.294132 -1.60121 0
M  V30 6637 O 607.677 -0.555854 -1.69625 0
M  V30 6638 C 604.777 -1.14828 -3.18854 0
M  V30 6639 C 603.95 -2.36649 -3.67853 0
M  V30 6640 C 603.009 -2.08139 -4.83285 0
M  V30 6641 O 602.035 -2.81177 -4.94902 0
M  V30 6642 N 603.237 -1.07162 -5.70523 0
M  V30 6643 H 606.002 -2.36185 -1.84491 0
M  V30 6644 H 603.563 -1.3603 -0.877923 0
M  V30 6645 H 605.555 -0.937075 -3.93702 0
M  V30 6646 H 604.125 -0.264358 -3.1148 0
M  V30 6647 H 603.345 -2.73472 -2.83913 0
M  V30 6648 H 604.633 -3.17816 -3.97329 0
M  V30 6649 H 604.031 -0.467124 -5.63768 0
M  V30 6650 H 602.588 -0.920311 -6.4527 0
M  V30 6651 N 606.021 0.929856 -1.27246 0
M  V30 6652 C 606.951 2.04722 -1.12299 0
M  V30 6653 C 607.932 1.70082 -0.0250464 0
M  V30 6654 O 609.117 1.93176 -0.199141 0
M  V30 6655 C 606.247 3.38721 -0.767145 0
M  V30 6656 C 605.201 3.87466 -1.81808 0
M  V30 6657 C 604.527 5.18246 -1.31626 0
M  V30 6658 C 605.827 4.11095 -3.22177 0
M  V30 6659 H 607.521 2.17485 -2.05769 0
M  V30 6660 H 605.067 1.04503 -0.990715 0
M  V30 6661 H 607.02 4.16366 -0.649413 0
M  V30 6662 H 605.744 3.25967 0.203259 0
M  V30 6663 H 604.403 3.12012 -1.92468 0
M  V30 6664 H 604.051 5.01881 -0.335378 0
M  V30 6665 H 603.751 5.51829 -2.01887 0
M  V30 6666 H 605.275 5.98462 -1.21143 0
M  V30 6667 H 606.689 4.79316 -3.1453 0
M  V30 6668 H 605.086 4.55982 -3.90129 0
M  V30 6669 H 606.156 3.16468 -3.67391 0
M  V30 6670 N 607.499 1.09233 1.13605 0
M  V30 6671 C 608.409 0.741939 2.22559 0
M  V30 6672 C 609.425 -0.255236 1.72118 0
M  V30 6673 O 610.601 -0.0970747 2.01166 0
M  V30 6674 C 607.666 0.165595 3.46304 0
M  V30 6675 C 606.727 1.21846 4.11645 0
M  V30 6676 C 605.96 0.669526 5.29484 0
M  V30 6677 O 606.183 -0.508228 5.68131 0
M  V30 6678 O 605.117 1.42361 5.84822 0
M  V30 6679 H 608.943 1.65107 2.54899 0
M  V30 6680 H 606.528 0.866584 1.21699 0
M  V30 6681 H 608.41 -0.152592 4.21124 0
M  V30 6682 H 607.085 -0.716573 3.15669 0
M  V30 6683 H 605.992 1.58931 3.38662 0
M  V30 6684 H 607.325 2.07321 4.46407 0
M  V30 6685 N 608.977 -1.30795 0.87923 0
M  V30 6686 C 610.224 -1.96362 0.494786 0
M  V30 6687 C 610.552 -1.69448 -0.954868 0
M  V30 6688 O 609.807 -0.988711 -1.68888 0
M  V30 6689 C 610.106 -3.50287 0.709476 0
M  V30 6690 C 609.772 -3.9724 2.13333 0
M  V30 6691 C 608.434 -4.09772 2.52271 0
M  V30 6692 C 610.786 -4.21807 3.06151 0
M  V30 6693 C 608.114 -4.44227 3.83248 0
M  V30 6694 C 610.466 -4.5773 4.36654 0
M  V30 6695 C 609.13 -4.68469 4.75492 0
M  V30 6696 H 608.4 -0.71854 0.181055 0
M  V30 6697 H 611.047 -1.55764 1.11399 0
M  V30 6698 H 609.352 -3.91799 0.0072 0
M  V30 6699 H 611.049 -3.99082 0.391703 0
M  V30 6700 H 607.639 -3.87988 1.82107 0
M  V30 6701 H 611.823 -4.11611 2.77291 0
M  V30 6702 H 607.079 -4.50741 4.13089 0
M  V30 6703 H 611.253 -4.7569 5.08617 0
M  V30 6704 H 608.88 -4.94923 5.77022 0
M  V30 6705 N 610.455 -0.639598 -1.44038 0
M  V30 6706 C 611.871 -0.305953 -1.5664 0
M  V30 6707 C 612.071 1.19055 -1.62567 0
M  V30 6708 O 611.127 1.97492 -1.57331 0
M  V30 6709 C 612.44 -1.00533 -2.83397 0
M  V30 6710 C 613.988 -0.984278 -2.97121 0
M  V30 6711 C 614.463 -1.66428 -4.26691 0
M  V30 6712 N 615.954 -1.63127 -4.33525 0
M  V30 6713 C 616.689 -2.12629 -5.32519 0
M  V30 6714 N 616.185 -2.70359 -6.3787 0
M  V30 6715 N 617.978 -2.03208 -5.24083 0
M  V30 6716 H 610.129 -1.6109 -1.38434 0
M  V30 6717 H 612.392 -0.676672 -0.663942 0
M  V30 6718 H 612.098 -2.06034 -2.85032 0
M  V30 6719 H 611.972 -0.548362 -3.73193 0
M  V30 6720 H 614.359 0.0622792 -2.95034 0
M  V30 6721 H 614.44 -1.47981 -2.08651 0
M  V30 6722 H 614.084 -2.71034 -4.29538 0
M  V30 6723 H 614.014 -1.14351 -5.14034 0
M  V30 6724 H 616.505 -1.20987 -3.58009 0
M  V30 6725 H 616.818 -3.05842 -7.09704 0
M  V30 6726 H 615.163 -2.74414 -6.38531 0
M  V30 6727 H 618.354 -1.57823 -4.40692 0
M  V30 6728 H 618.527 -2.42097 -6.01077 0
M  V30 6729 N 611.933 1.52934 -0.380664 0
M  V30 6730 C 612.88 2.26197 0.458641 0
M  V30 6731 C 613.85 1.27462 1.06502 0
M  V30 6732 O 615.035 1.56274 1.09467 0
M  V30 6733 C 612.175 3.06571 1.58456 0
M  V30 6734 C 611.288 4.20222 1.00189 0
M  V30 6735 C 610.423 4.88007 2.09815 0
M  V30 6736 C 609.462 5.93665 1.49092 0
M  V30 6737 N 608.599 6.55081 2.52613 0
M  V30 6738 H 613.439 2.975 -0.172595 0
M  V30 6739 H 610.976 1.4678 -0.0969426 0
M  V30 6740 H 612.934 3.51455 2.24801 0
M  V30 6741 H 611.564 2.37494 2.18624 0
M  V30 6742 H 610.616 3.79714 0.228292 0
M  V30 6743 H 611.928 4.96102 0.518064 0
M  V30 6744 H 611.082 5.36151 2.83948 0
M  V30 6745 H 609.821 4.11632 2.61555 0
M  V30 6746 H 608.826 5.44868 0.7348 0
M  V30 6747 H 610.051 6.71969 0.981582 0
M  V30 6748 H 607.997 5.8155 3.03538 0
M  V30 6749 H 607.914 7.26548 2.08961 0
M  V30 6750 H 609.182 7.07871 3.26402 0
M  V30 6751 N 613.412 0.11024 1.57214 0
M  V30 6752 C 614.637 -0.561179 1.99664 0
M  V30 6753 C 615.062 -1.59985 0.989266 0
M  V30 6754 O 614.42 -1.81255 -0.0402399 0
M  V30 6755 C 614.468 -1.17189 3.41027 0
M  V30 6756 O 613.572 -2.28755 3.4314 0
M  V30 6757 H 612.913 -0.14101 0.648855 0
M  V30 6758 H 615.443 0.196128 2.03658 0
M  V30 6759 H 615.453 -1.50954 3.79047 0
M  V30 6760 H 614.128 -0.411041 4.13864 0
M  V30 6761 H 612.705 -1.96495 3.16929 0
M  V30 6762 N 614.89 -1.56749 -0.16351 0
M  V30 6763 C 616.136 -1.83597 -0.875436 0
M  V30 6764 C 616.491 -0.691907 -1.79528 0
M  V30 6765 O 615.784 0.311193 -1.89056 0
M  V30 6766 C 615.978 -3.14342 -1.70071 0
M  V30 6767 C 615.807 -4.41356 -0.862265 0
M  V30 6768 C 614.577 -5.02467 -0.534299 0
M  V30 6769 C 616.775 -5.1391 -0.200203 0
M  V30 6770 N 614.757 -6.13068 0.31947 0
M  V30 6771 C 616.128 -6.17862 0.514398 0
M  V30 6772 C 618.183 -4.97757 -0.119171 0
M  V30 6773 C 616.886 -7.07412 1.30236 0
M  V30 6774 C 618.912 -5.87756 0.655477 0
M  V30 6775 C 618.274 -6.91178 1.35842 0
M  V30 6776 H 614.373 -0.722702 -0.298708 0
M  V30 6777 H 616.957 -1.94182 -0.141883 0
M  V30 6778 H 615.128 -3.04933 -2.40562 0
M  V30 6779 H 616.86 -3.29156 -2.35453 0
M  V30 6780 H 613.615 -4.65611 -0.866222 0
M  V30 6781 H 614.039 -6.72978 0.736893 0
M  V30 6782 H 618.681 -4.178 -0.648278 0
M  V30 6783 H 616.399 -7.86808 1.84278 0
M  V30 6784 H 619.985 -5.77328 0.719948 0
M  V30 6785 H 618.865 -7.59614 1.94822 0
M  V30 6786 N 616.368 0.432326 -1.51554 0
M  V30 6787 C 617.278 1.55023 -1.76082 0
M  V30 6788 C 618.294 1.61593 -0.645265 0
M  V30 6789 O 619.47 1.78742 -0.928086 0
M  V30 6790 C 616.535 2.90964 -1.88523 0
M  V30 6791 C 615.596 2.9447 -3.12388 0
M  V30 6792 C 614.829 4.23926 -3.24225 0
M  V30 6793 O 615.052 5.16576 -2.4188 0
M  V30 6794 O 613.986 4.33818 -4.17235 0
M  V30 6795 H 617.812 1.37238 -2.70923 0
M  V30 6796 H 615.397 0.615845 -1.36117 0
M  V30 6797 H 617.279 3.71633 -1.98662 0
M  V30 6798 H 615.954 3.08865 -0.9687 0
M  V30 6799 H 614.861 2.12737 -3.07723 0
M  V30 6800 H 616.194 2.81514 -4.03746 0
M  V30 6801 N 617.846 1.41785 0.688094 0
M  V30 6802 C 619.262 1.24419 0.999608 0
M  V30 6803 C 619.462 0.138868 2.01021 0
M  V30 6804 O 618.518 -0.494283 2.47615 0
M  V30 6805 C 619.831 2.59625 1.51709 0
M  V30 6806 C 621.379 2.66869 1.63554 0
M  V30 6807 C 621.854 4.0241 2.18702 0
M  V30 6808 N 623.345 4.04295 2.26053 0
M  V30 6809 C 624.08 5.05977 2.69768 0
M  V30 6810 N 623.576 6.18047 3.13033 0
M  V30 6811 N 625.369 4.93336 2.69398 0
M  V30 6812 H 617.52 2.12392 0.0187427 0
M  V30 6813 H 619.783 0.945347 0.0708673 0
M  V30 6814 H 619.489 3.41297 0.849059 0
M  V30 6815 H 619.363 2.82628 2.49803 0
M  V30 6816 H 621.75 1.8555 2.29467 0
M  V30 6817 H 621.831 2.47668 0.639857 0
M  V30 6818 H 621.475 4.8418 1.53402 0
M  V30 6819 H 621.405 4.18955 3.19037 0
M  V30 6820 H 623.896 3.23383 1.9553 0
M  V30 6821 H 624.209 6.91498 3.45038 0
M  V30 6822 H 622.554 6.21572 3.10923 0
M  V30 6823 H 625.745 4.04865 2.34952 0
M  V30 6824 H 625.918 5.72717 3.03148 0
M  V30 6825 N 619.324 -0.923095 1.27737 0
M  V30 6826 C 620.57 -1.67409 1.15524 0
M  V30 6827 C 620.925 -1.90124 -0.295072 0
M  V30 6828 O 620.218 -1.48382 -1.21216 0
M  V30 6829 C 620.412 -3.04125 1.8773 0
M  V30 6830 C 620.241 -2.94752 3.39634 0
M  V30 6831 C 619.011 -2.96783 4.0896 0
M  V30 6832 C 621.209 -2.73524 4.35533 0
M  V30 6833 N 619.191 -2.779 5.47398 0
M  V30 6834 C 620.562 -2.63391 5.61271 0
M  V30 6835 C 622.617 -2.58447 4.2557 0
M  V30 6836 C 621.32 -2.3972 6.78179 0
M  V30 6837 C 623.346 -2.36154 5.42204 0
M  V30 6838 C 622.708 -2.26768 6.669 0
M  V30 6839 H 618.807 -0.619196 0.477619 0
M  V30 6840 H 621.391 -1.09094 1.61266 0
M  V30 6841 H 619.562 -3.60545 1.44436 0
M  V30 6842 H 621.294 -3.6819 1.67982 0
M  V30 6843 H 618.049 -3.07186 3.60463 0
M  V30 6844 H 618.473 -2.71576 6.20141 0
M  V30 6845 H 623.115 -2.6446 3.2988 0
M  V30 6846 H 620.833 -2.32447 7.73947 0
M  V30 6847 H 624.419 -2.25367 5.36378 0
M  V30 6848 H 623.299 -2.09751 7.55628 0
M  V30 6849 N 620.802 -1.09834 -1.13024 0
M  V30 6850 C 622.218 -0.828875 -1.36388 0
M  V30 6851 C 622.418 0.554756 -1.93713 0
M  V30 6852 O 621.474 1.30882 -2.15931 0
M  V30 6853 C 622.787 -1.92352 -2.3113 0
M  V30 6854 C 624.335 -1.95124 -2.44735 0
M  V30 6855 C 624.81 -3.03745 -3.42787 0
M  V30 6856 N 626.301 -3.03012 -3.5034 0
M  V30 6857 C 627.036 -3.83699 -4.26101 0
M  V30 6858 N 626.532 -4.74306 -5.04981 0
M  V30 6859 N 628.325 -3.71942 -4.21445 0
M  V30 6860 H 620.476 -1.99029 -0.74169 0
M  V30 6861 H 622.739 -0.864557 -0.388903 0
M  V30 6862 H 622.445 -2.91906 -1.96172 0
M  V30 6863 H 622.319 -1.80536 -3.3119 0
M  V30 6864 H 624.706 -0.962069 -2.78977 0
M  V30 6865 H 624.787 -2.11018 -1.44586 0
M  V30 6866 H 624.431 -4.02878 -3.09276 0
M  V30 6867 H 624.361 -2.85094 -4.42752 0
M  V30 6868 H 626.852 -2.37352 -2.94062 0
M  V30 6869 H 627.165 -5.32446 -5.60108 0
M  V30 6870 H 625.51 -4.78339 -5.04199 0
M  V30 6871 H 628.701 -3.00513 -3.589 0
M  V30 6872 H 628.874 -4.35062 -4.80235 0
M  V30 6873 N 622.28 1.30327 -0.886154 0
M  V30 6874 C 623.21 2.30549 -0.370028 0
M  V30 6875 C 624.191 1.61039 0.547751 0
M  V30 6876 O 625.376 1.8864 0.461353 0
M  V30 6877 C 622.506 3.44808 0.415275 0
M  V30 6878 C 621.46 4.26024 -0.41085 0
M  V30 6879 C 620.786 5.32347 0.501128 0
M  V30 6880 C 622.086 4.95433 -1.65359 0
M  V30 6881 H 623.78 2.73969 -1.20754 0
M  V30 6882 H 621.326 1.3171 -0.582097 0
M  V30 6883 H 623.279 4.13986 0.78699 0
M  V30 6884 H 622.003 3.00197 1.28644 0
M  V30 6885 H 620.662 3.58535 -0.764719 0
M  V30 6886 H 620.31 4.83982 1.37004 0
M  V30 6887 H 620.01 5.87581 -0.0478356 0
M  V30 6888 H 621.534 6.0438 0.869333 0
M  V30 6889 H 622.948 5.5712 -1.35239 0
M  V30 6890 H 621.345 5.60537 -2.14284 0
M  V30 6891 H 622.415 4.21493 -2.39733 0
M  V30 6892 N 623.758 0.647228 1.43697 0
M  V30 6893 C 624.668 -0.0487997 2.34549 0
M  V30 6894 C 625.684 -0.818586 1.53542 0
M  V30 6895 O 626.86 -0.767195 1.86215 0
M  V30 6896 C 623.925 -1.00734 3.31743 0
M  V30 6897 C 622.986 -0.23515 4.28655 0
M  V30 6898 C 622.219 -1.14803 5.21206 0
M  V30 6899 O 622.442 -2.38717 5.18045 0
M  V30 6900 O 621.376 -0.623667 5.9866 0
M  V30 6901 H 625.202 0.698863 2.9555 0
M  V30 6902 H 622.787 0.407412 1.43738 0
M  V30 6903 H 624.669 -1.55837 3.91526 0
M  V30 6904 H 623.344 -1.73534 2.73254 0
M  V30 6905 H 622.251 0.359319 3.7237 0
M  V30 6906 H 623.584 0.453152 4.9011 0
M  V30 6907 N 625.236 -1.5273 0.388769 0
M  V30 6908 C 626.186 -2.23238 -0.463567 0
M  V30 6909 C 627.17 -1.23606 -1.03007 0
M  V30 6910 O 628.362 -1.48945 -0.956261 0
M  V30 6911 C 625.491 -3.04228 -1.5906 0
M  V30 6912 C 624.577 -4.11255 -1.03587 0
M  V30 6913 N 624.968 -5.0538 -0.206038 0
M  V30 6914 C 623.266 -4.26376 -1.30841 0
M  V30 6915 C 623.967 -5.81613 0.100359 0
M  V30 6916 N 622.943 -5.41264 -0.503447 0
M  V30 6917 H 626.745 -2.93367 0.176978 0
M  V30 6918 H 624.259 -1.61188 0.198046 0
M  V30 6919 H 626.256 -3.53277 -2.21362 0
M  V30 6920 H 624.916 -2.35634 -2.23398 0
M  V30 6921 H 625.927 -5.17663 0.156659 0
M  V30 6922 H 622.604 -3.69011 -1.95287 0
M  V30 6923 H 623.994 -6.67442 0.772676 0
M  V30 6924 N 626.714 -0.118576 -1.57153 0
M  V30 6925 C 627.644 0.828436 -2.1831 0
M  V30 6926 C 628.625 1.27758 -1.12303 0
M  V30 6927 O 629.81 1.34026 -1.40537 0
M  V30 6928 C 626.94 2.07876 -2.78217 0
M  V30 6929 C 625.894 1.76742 -3.89803 0
M  V30 6930 C 625.22 3.08801 -4.36516 0
M  V30 6931 C 626.52 1.03606 -5.11921 0
M  V30 6932 H 628.214 0.318824 -2.97698 0
M  V30 6933 H 625.76 0.151911 -1.43196 0
M  V30 6934 H 627.713 2.74584 -3.19659 0
M  V30 6935 H 626.437 2.61161 -1.96118 0
M  V30 6936 H 625.096 1.12424 -3.48936 0
M  V30 6937 H 624.744 3.6002 -3.51276 0
M  V30 6938 H 624.444 2.88743 -5.11763 0
M  V30 6939 H 625.968 3.76627 -4.80608 0
M  V30 6940 H 627.382 1.60467 -5.50385 0
M  V30 6941 H 625.779 0.936454 -5.92748 0
M  V30 6942 H 626.849 0.0227421 -4.84895 0
M  V30 6943 N 628.193 1.56834 0.155195 0
M  V30 6944 C 629.143 1.94061 1.19684 0
M  V30 6945 C 630.127 0.810851 1.38975 0
M  V30 6946 O 631.319 1.07422 1.40675 0
M  V30 6947 C 628.448 2.31778 2.53247 0
M  V30 6948 C 627.534 3.51305 2.37583 0
M  V30 6949 N 627.925 4.68081 1.9166 0
M  V30 6950 C 626.223 3.56228 2.6836 0
M  V30 6951 C 626.924 5.50193 1.88845 0
M  V30 6952 N 625.9 4.91676 2.31852 0
M  V30 6953 H 629.702 2.81826 0.833747 0
M  V30 6954 H 627.216 1.58284 0.363328 0
M  V30 6955 H 629.213 2.56649 3.28538 0
M  V30 6956 H 627.873 1.4536 2.90346 0
M  V30 6957 H 628.884 4.91993 1.6175 0
M  V30 6958 H 625.561 2.8033 3.09389 0
M  V30 6959 H 626.951 6.53801 1.54901 0
M  V30 6960 N 629.671 -0.424282 1.51781 0
M  V30 6961 C 630.92 -1.16961 1.64326 0
M  V30 6962 C 631.233 -1.92035 0.371749 0
M  V30 6963 O 632.439 -2.68873 0.37676 0
M  V30 6964 C 630.895 -2.12782 2.90262 0
M  V30 6965 C 630.503 -1.43295 4.24465 0
M  V30 6966 C 632.247 -2.87667 3.12166 0
M  V30 6967 C 630.154 -2.37676 5.41538 0
M  V30 6968 H 629.084 -0.440293 0.612093 0
M  V30 6969 H 631.735 -0.435431 1.78259 0
M  V30 6970 H 630.117 -2.8969 2.69992 0
M  V30 6971 H 631.291 -0.718564 4.55163 0
M  V30 6972 H 629.606 -0.805118 4.08542 0
M  V30 6973 H 632.203 -3.58395 3.96808 0
M  V30 6974 H 632.546 -3.49758 2.25776 0
M  V30 6975 H 633.079 -2.17863 3.32837 0
M  V30 6976 H 629.818 -1.80255 6.30229 0
M  V30 6977 H 629.338 -3.07132 5.15199 0
M  V30 6978 H 631.017 -2.98529 5.74012 0
M  V30 6979 N 631.149 -1.42148 -0.680565 0
M  V30 6980 C 632.081 -1.41119 -1.80605 0
M  V30 6981 C 633.094 -0.311099 -1.598 0
M  V30 6982 O 634.283 -0.573813 -1.69026 0
M  V30 6983 C 631.383 -1.18204 -3.17618 0
M  V30 6984 C 630.556 -2.40537 -3.65322 0
M  V30 6985 C 629.615 -2.13254 -4.8105 0
M  V30 6986 O 628.641 -2.8641 -4.91892 0
M  V30 6987 N 629.843 -1.13208 -5.69354 0
M  V30 6988 H 632.608 -2.38128 -1.81975 0
M  V30 6989 H 630.169 -1.36953 -0.863446 0
M  V30 6990 H 632.161 -0.97878 -3.92686 0
M  V30 6991 H 630.731 -0.29738 -3.11182 0
M  V30 6992 H 629.951 -2.76468 -2.80996 0
M  V30 6993 H 631.239 -3.22012 -3.93936 0
M  V30 6994 H 630.637 -0.526893 -5.63241 0
M  V30 6995 H 629.194 -0.988699 -6.44258 0
M  V30 6996 N 632.627 0.916307 -1.28225 0
M  V30 6997 C 634.043 1.19425 -1.05876 0
M  V30 6998 C 634.243 2.005 0.2005 0
M  V30 6999 O 633.299 2.35806 0.902873 0
M  V30 7000 C 634.612 1.93133 -2.30478 0
M  V30 7001 C 636.16 2.06026 -2.35632 0
M  V30 7002 C 636.635 2.83141 -3.59994 0
M  V30 7003 N 638.126 2.90704 -3.60618 0
M  V30 7004 C 638.861 3.50865 -4.53521 0
M  V30 7005 N 638.357 4.12327 -5.56739 0
M  V30 7006 N 640.15 3.48379 -4.41122 0
M  V30 7007 H 632.301 0.37496 -2.09064 0
M  V30 7008 H 634.564 0.228531 -0.920042 0
M  V30 7009 H 634.27 1.40985 -3.22205 0
M  V30 7010 H 634.144 2.93696 -2.36691 0
M  V30 7011 H 636.531 2.57355 -1.44404 0
M  V30 7012 H 636.612 1.04647 -2.33415 0
M  V30 7013 H 636.256 2.32492 -4.51564 0
M  V30 7014 H 636.186 3.84829 -3.59464 0
M  V30 7015 H 638.677 2.47034 -2.85977 0
M  V30 7016 H 638.99 4.56205 -6.23776 0
M  V30 7017 H 637.335 4.10839 -5.60568 0
M  V30 7018 H 640.526 2.99572 -3.59686 0
M  V30 7019 H 640.699 3.94974 -5.13712 0
M  V30 7020 N 634.105 1.10431 1.1244 0
M  V30 7021 C 635.382 0.758797 1.80282 0
M  V30 7022 C 635.762 -0.754727 1.97147 0
M  V30 7023 O 635.11 -1.68094 1.54779 0
M  V30 7024 C 635.32 1.50982 3.14651 0
M  V30 7025 C 636.668 1.68232 3.8985 0
M  V30 7026 O 637.692 1.47319 3.24308 0
M  V30 7027 O 636.551 2.02905 5.07437 0
M  V30 7028 H 633.645 0.273756 0.780376 0
M  V30 7029 H 636.191 1.20713 1.19275 0
M  V30 7030 H 634.963 2.53989 2.97666 0
M  V30 7031 H 634.586 1.05435 3.83366 0
M  V30 7032 N 635.583 -1.29855 0.893053 0
M  V30 7033 C 636.808 -2.00512 0.530066 0
M  V30 7034 C 637.233 -1.66446 -0.876199 0
M  V30 7035 O 636.591 -0.885446 -1.58207 0
M  V30 7036 C 636.639 -3.53308 0.721505 0
M  V30 7037 O 635.743 -4.11764 -0.228994 0
M  V30 7038 H 635.084 -0.630617 0.207891 0
M  V30 7039 H 637.614 -1.6551 1.20282 0
M  V30 7040 H 637.624 -4.03206 0.623599 0
M  V30 7041 H 636.299 -3.77439 1.74678 0
M  V30 7042 H 634.876 -3.72805 -0.0841034 0
M  V30 7043 N 637.061 -0.65484 -1.43351 0
M  V30 7044 C 638.286 -0.175046 -2.0666 0
M  V30 7045 C 638.711 1.15104 -1.4877 0
M  V30 7046 O 638.069 1.71144 -0.598279 0
M  V30 7047 C 638.117 -0.0991544 -3.60464 0
M  V30 7048 O 637.221 0.938169 -4.01587 0
M  V30 7049 H 636.562 -0.0956148 -0.65708 0
M  V30 7050 H 639.092 -0.898222 -1.83829 0
M  V30 7051 H 639.102 0.083632 -4.07914 0
M  V30 7052 H 637.777 -1.06719 -4.01975 0
M  V30 7053 H 636.354 0.72804 -3.65724 0
M  V30 7054 N 638.539 1.52521 -0.396863 0
M  V30 7055 C 639.472 2.23118 0.478926 0
M  V30 7056 C 640.45 1.23475 1.05796 0
M  V30 7057 O 641.634 1.52486 1.10817 0
M  V30 7058 C 638.761 2.95028 1.66362 0
M  V30 7059 C 637.807 4.09002 1.20913 0
M  V30 7060 S 638.64 5.35182 0.184407 0
M  V30 7061 C 639.796 6.10616 1.37471 0
M  V30 7062 H 640.029 2.97056 -0.120542 0
M  V30 7063 H 637.562 1.53334 -0.18109 0
M  V30 7064 H 639.52 3.37066 2.34301 0
M  V30 7065 H 638.181 2.20756 2.23441 0
M  V30 7066 H 637.374 4.58445 2.09389 0
M  V30 7067 H 636.976 3.69016 0.608559 0
M  V30 7068 H 639.268 6.37247 2.30048 0
M  V30 7069 H 640.211 7.02084 0.921051 0
M  V30 7070 H 640.619 5.41499 1.59495 0
M  V30 7071 N 640.017 0.126909 1.57088 0
M  V30 7072 C 640.964 -0.82036 2.15728 0
M  V30 7073 C 641.934 -1.25811 1.08447 0
M  V30 7074 O 643.119 -1.33422 1.36393 0
M  V30 7075 C 640.259 -2.06199 2.76724 0
M  V30 7076 C 639.372 -1.67188 3.98337 0
M  V30 7077 C 638.507 -2.86378 4.47393 0
M  V30 7078 C 637.546 -2.43644 5.61519 0
M  V30 7079 N 636.683 -3.55775 6.05284 0
M  V30 7080 H 641.523 -0.313472 2.96347 0
M  V30 7081 H 639.06 -0.14303 1.46403 0
M  V30 7082 H 641.018 -2.78959 3.10222 0
M  V30 7083 H 639.648 -2.54333 1.98782 0
M  V30 7084 H 638.7 -0.842714 3.70948 0
M  V30 7085 H 640.012 -1.31789 4.81075 0
M  V30 7086 H 639.166 -3.67353 4.82842 0
M  V30 7087 H 637.905 -3.25009 3.63621 0
M  V30 7088 H 636.91 -1.61104 5.25667 0
M  V30 7089 H 638.135 -2.06122 6.47063 0
M  V30 7090 H 636.081 -3.94065 5.24451 0
M  V30 7091 H 635.998 -3.24325 6.82898 0
M  V30 7092 H 637.266 -4.37166 6.45373 0
M  V30 7093 N 641.495 -1.56914 -0.146875 0
M  V30 7094 C 642.906 -1.72799 -0.706928 0
M  V30 7095 C 643.257 -0.741329 -1.81656 0
M  V30 7096 O 642.382 0.0920162 -2.16204 0
M  V30 7097 C 642.977 -3.13317 -1.28911 0
M  V30 7098 C 641.536 -3.30803 -1.79573 0
M  V30 7099 C 640.683 -2.68725 -0.684252 0
M  V30 7100 H 643.634 -1.58504 0.0787931 0
M  V30 7101 H 643.655 -3.13323 -2.15891 0
M  V30 7102 H 643.167 -3.85104 -0.481284 0
M  V30 7103 H 641.268 -2.64012 -2.62923 0
M  V30 7104 H 641.381 -4.38754 -1.92436 0
M  V30 7105 H 639.745 -2.29196 -1.11091 0
M  V30 7106 H 640.528 -3.43117 0.112134 0
M  V30 7107 N 642.974 0.416227 -1.52004 0
M  V30 7108 C 643.904 1.51365 -1.77795 0
M  V30 7109 C 644.885 1.58059 -0.628601 0
M  V30 7110 O 646.07 1.73447 -0.873478 0
M  V30 7111 C 643.2 2.89256 -1.92219 0
M  V30 7112 C 642.154 2.97415 -3.0778 0
M  V30 7113 C 641.48 4.37492 -3.07417 0
M  V30 7114 C 642.78 2.69551 -4.47369 0
M  V30 7115 H 644.474 1.30033 -2.69688 0
M  V30 7116 H 642.02 0.624112 -1.29772 0
M  V30 7117 H 643.973 3.66008 -2.08845 0
M  V30 7118 H 642.697 3.11866 -0.969917 0
M  V30 7119 H 641.356 2.23107 -2.90893 0
M  V30 7120 H 641.004 4.571 -2.09925 0
M  V30 7121 H 640.704 4.43877 -3.85029 0
M  V30 7122 H 642.228 5.16188 -3.26162 0
M  V30 7123 H 643.642 3.36028 -4.64497 0
M  V30 7124 H 642.039 2.87321 -5.26846 0
M  V30 7125 H 643.109 1.65029 -4.55953 0
M  V30 7126 N 644.452 1.42507 0.673017 0
M  V30 7127 C 645.399 1.46124 1.78651 0
M  V30 7128 C 646.369 0.313007 1.63124 0
M  V30 7129 O 647.554 0.517337 1.83653 0
M  V30 7130 C 644.694 1.3711 3.16694 0
M  V30 7131 C 643.807 2.61983 3.43495 0
M  V30 7132 C 642.942 2.45098 4.71275 0
M  V30 7133 C 641.981 3.65336 4.91117 0
M  V30 7134 N 641.118 3.47383 6.10139 0
M  V30 7135 H 645.958 2.4128 1.74895 0
M  V30 7136 H 643.495 1.19788 0.853766 0
M  V30 7137 H 645.453 1.29881 3.96468 0
M  V30 7138 H 644.083 0.45549 3.1957 0
M  V30 7139 H 643.135 2.79571 2.57961 0
M  V30 7140 H 644.447 3.51355 3.5405 0
M  V30 7141 H 643.601 2.35466 5.59143 0
M  V30 7142 H 642.34 1.53219 4.63007 0
M  V30 7143 H 641.345 3.754 4.0169 0
M  V30 7144 H 642.57 4.58199 5.01229 0
M  V30 7145 H 640.516 2.58222 6.0304 0
M  V30 7146 H 640.433 4.30344 6.21563 0
M  V30 7147 H 641.701 3.41565 7.00681 0
M  V30 7148 N 645.93 -0.909495 1.28709 0
M  V30 7149 C 647.17 -1.67344 1.17368 0
M  V30 7150 C 647.534 -1.90058 -0.272419 0
M  V30 7151 O 648.735 -2.63944 -0.508617 0
M  V30 7152 C 647.006 -2.99219 1.95455 0
M  V30 7153 S 648.565 -3.90295 2.00538 0
M  V30 7154 H 645.383 -0.57466 0.418672 0
M  V30 7155 H 647.985 -1.08144 1.62865 0
M  V30 7156 H 646.689 -2.80393 2.9968 0
M  V30 7157 H 646.22 -3.63464 1.50524 0
M  V30 7158 H 648.235 -4.83511 1.11496 0
M  V30 7159 N 647.408 -1.11026 -1.11852 0
M  V30 7160 C 648.819 -0.873203 -1.65021 0
M  V30 7161 C 649.17 0.595364 -1.86949 0
M  V30 7162 O 648.295 1.45645 -1.60051 0
M  V30 7163 C 648.89 -1.57859 -2.99777 0
M  V30 7164 C 647.449 -1.38807 -3.49871 0
M  V30 7165 C 646.596 -1.62403 -2.24768 0
M  V30 7166 H 649.547 -1.26712 -0.955503 0
M  V30 7167 H 649.568 -1.02111 -3.66543 0
M  V30 7168 H 649.08 -2.6474 -2.83786 0
M  V30 7169 H 647.181 -0.341163 -3.71035 0
M  V30 7170 H 647.294 -2.13421 -4.28938 0
M  V30 7171 H 645.658 -1.04714 -2.32179 0
M  V30 7172 H 646.441 -2.70549 -2.11324 0
M  V30 7173 N 648.886 1.2938 -0.899927 0
M  V30 7174 C 650.114 1.99691 -0.541386 0
M  V30 7175 C 650.529 1.67355 0.873936 0
M  V30 7176 O 649.886 0.918728 1.57688 0
M  V30 7177 C 649.937 3.54168 -0.72438 0
M  V30 7178 O 649.658 3.85359 -2.08399 0
M  V30 7179 C 651.159 4.41746 -0.370819 0
M  V30 7180 H 648.379 0.638037 -0.207726 0
M  V30 7181 H 650.923 1.6491 -1.20934 0
M  V30 7182 H 649.078 3.87261 -0.103607 0
M  V30 7183 H 649.492 4.80032 -2.11352 0
M  V30 7184 H 650.966 5.49256 -0.549693 0
M  V30 7185 H 651.443 4.33712 0.692148 0
M  V30 7186 H 652.049 4.14125 -0.968543 0
M  V30 7187 N 650.364 0.662433 1.43002 0
M  V30 7188 C 651.589 0.186003 2.06564 0
M  V30 7189 C 652.014 -1.14314 1.49379 0
M  V30 7190 O 651.372 -1.70824 0.607346 0
M  V30 7191 C 651.42 0.118269 3.60406 0
M  V30 7192 O 650.524 -0.916859 4.02079 0
M  V30 7193 H 649.865 0.0990981 0.656563 0
M  V30 7194 H 652.395 0.907958 1.8335 0
M  V30 7195 H 652.405 -0.0619981 4.07953 0
M  V30 7196 H 651.08 1.08849 4.01403 0
M  V30 7197 H 649.657 -0.708635 3.66105 0
M  V30 7198 N 651.842 -1.52309 0.404946 0
M  V30 7199 C 653.067 -2.06666 -0.1743 0
M  V30 7200 C 653.492 -1.27341 -1.38441 0
M  V30 7201 O 652.85 -0.302539 -1.78758 0
M  V30 7202 C 652.898 -3.57014 -0.507262 0
M  V30 7203 O 652.002 -3.80144 -1.59889 0
M  V30 7204 H 651.343 -0.663807 -0.0160273 0
M  V30 7205 H 653.873 -1.96297 0.576937 0
M  V30 7206 H 653.883 -4.00724 -0.767098 0
M  V30 7207 H 652.558 -4.14184 0.377368 0
M  V30 7208 H 651.135 -3.48316 -1.33155 0
M  V30 7209 N 653.32 -0.135238 -1.57019 0
M  V30 7210 C 654.25 0.805235 -2.19176 0
M  V30 7211 C 655.231 1.2656 -1.13651 0
M  V30 7212 O 656.416 1.32528 -1.4195 0
M  V30 7213 C 653.546 2.04914 -2.80406 0
M  V30 7214 C 652.5 1.72598 -3.91655 0
M  V30 7215 C 651.826 3.04154 -4.39766 0
M  V30 7216 C 653.126 0.981709 -5.12991 0
M  V30 7217 H 654.82 0.287232 -2.98019 0
M  V30 7218 H 652.366 0.136714 -1.4335 0
M  V30 7219 H 654.319 2.71178 -3.22553 0
M  V30 7220 H 653.043 2.59067 -1.98877 0
M  V30 7221 H 651.702 1.08717 -3.50109 0
M  V30 7222 H 651.35 3.56274 -3.55075 0
M  V30 7223 H 651.05 2.83299 -5.14796 0
M  V30 7224 H 652.574 3.71509 -4.84576 0
M  V30 7225 H 653.988 1.5462 -5.52056 0
M  V30 7226 H 652.385 0.873533 -5.93708 0
M  V30 7227 H 653.455 -0.0286887 -4.84892 0
M  V30 7228 N 654.798 1.5699 0.138552 0
M  V30 7229 C 656.023 1.88344 0.86841 0
M  V30 7230 C 656.448 0.725159 1.7356 0
M  V30 7231 O 655.806 -0.324992 1.78363 0
M  V30 7232 C 655.854 3.18334 1.69398 0
M  V30 7233 O 654.958 3.02863 2.79907 0
M  V30 7234 H 654.299 0.618577 0.241367 0
M  V30 7235 H 656.829 2.04207 0.126826 0
M  V30 7236 H 656.839 3.50567 2.08726 0
M  V30 7237 H 655.514 4.02238 1.05725 0
M  V30 7238 H 654.091 2.82056 2.43924 0
M  V30 7239 N 656.276 -0.40816 1.52223 0
M  V30 7240 C 657.501 -1.18127 1.70472 0
M  V30 7241 C 657.926 -1.83491 0.41384 0
M  V30 7242 O 657.284 -1.70047 -0.628778 0
M  V30 7243 C 657.332 -2.21935 2.84213 0
M  V30 7244 O 656.436 -3.28099 2.4985 0
M  V30 7245 H 655.777 -0.344781 0.56747 0
M  V30 7246 H 658.307 -0.478328 1.9893 0
M  V30 7247 H 658.317 -2.66248 3.09153 0
M  V30 7248 H 656.992 -1.73744 3.7787 0
M  V30 7249 H 655.569 -2.89058 2.35584 0
M  V30 7250 N 657.755 -1.42862 -0.66545 0
M  V30 7251 C 659.003 -1.43546 -1.42264 0
M  V30 7252 C 659.324 -0.0563116 -1.94919 0
M  V30 7253 O 658.594 0.906568 -1.73661 0
M  V30 7254 H 657.174 -0.528464 -0.527953 0
M  V30 7255 H 659.836 -1.78363 -0.785665 0
M  V30 7256 H 658.932 -2.14079 -2.27105 0
M  V30 7257 N 659.233 0.902656 -1.29189 0
M  V30 7258 C 660.196 1.98797 -1.14071 0
M  V30 7259 C 661.196 1.60615 -0.0770549 0
M  V30 7260 O 662.386 1.71165 -0.323753 0
M  V30 7261 C 659.518 3.32688 -0.743739 0
M  V30 7262 H 660.711 2.13637 -2.10473 0
M  V30 7263 H 658.264 1.08678 -1.12334 0
M  V30 7264 H 658.999 3.23549 0.220554 0
M  V30 7265 H 658.784 3.61765 -1.51223 0
M  V30 7266 H 660.274 4.12337 -0.660935 0
M  V30 7267 N 660.711 1.11618 1.11262 0
M  V30 7268 C 661.939 0.888739 1.8684 0
M  V30 7269 C 662.354 -0.561558 1.80255 0
M  V30 7270 O 661.711 -1.38782 1.18515 0
M  V30 7271 C 661.762 1.34422 3.35579 0
M  V30 7272 O 661.483 2.73766 3.42029 0
M  V30 7273 C 662.984 1.15246 4.28058 0
M  V30 7274 H 660.204 0.318152 0.590779 0
M  V30 7275 H 662.748 1.48398 1.40707 0
M  V30 7276 H 660.903 0.79239 3.7921 0
M  V30 7277 H 661.317 2.9355 4.34659 0
M  V30 7278 H 662.791 1.52015 5.30656 0
M  V30 7279 H 663.268 0.0922007 4.39103 0
M  V30 7280 H 663.874 1.69136 3.90222 0
M  V30 7281 N 662.189 -1.289 0.906776 0
M  V30 7282 C 663.152 -2.25777 0.394656 0
M  V30 7283 C 664.152 -1.53621 -0.475119 0
M  V30 7284 O 665.342 -1.71949 -0.279165 0
M  V30 7285 C 662.474 -3.38113 -0.43499 0
M  V30 7286 H 663.667 -2.72592 1.25033 0
M  V30 7287 H 661.22 -1.40463 0.685547 0
M  V30 7288 H 661.955 -2.96648 -1.31036 0
M  V30 7289 H 661.74 -3.91647 0.188334 0
M  V30 7290 H 663.23 -4.10168 -0.784365 0
M  V30 7291 N 663.667 -0.670007 -1.42649 0
M  V30 7292 C 664.915 -0.18991 -2.01206 0
M  V30 7293 C 665.236 1.20617 -1.53221 0
M  V30 7294 O 664.506 1.80898 -0.751856 0
M  V30 7295 H 663.086 -0.0672189 -0.743969 0
M  V30 7296 H 665.748 -0.865442 -1.74631 0
M  V30 7297 H 664.844 -0.187481 -3.11536 0
M  V30 7298 N 665.145 1.52092 -0.413018 0
M  V30 7299 C 666.37 2.06756 0.163338 0
M  V30 7300 C 666.795 1.28073 1.37764 0
M  V30 7301 O 666.153 0.312015 1.78595 0
M  V30 7302 C 666.201 3.57278 0.488322 0
M  V30 7303 O 665.305 3.80986 1.57871 0
M  V30 7304 H 664.646 0.663882 0.0125068 0
M  V30 7305 H 667.176 1.95988 -0.587339 0
M  V30 7306 H 667.186 4.01125 0.745836 0
M  V30 7307 H 665.861 4.13978 -0.399327 0
M  V30 7308 H 664.438 3.49017 1.31306 0
M  V30 7309 N 666.623 0.143563 1.56945 0
M  V30 7310 C 667.848 -0.518701 2.00809 0
M  V30 7311 C 668.273 -1.5785 1.02298 0
M  V30 7312 O 667.631 -1.813 -0.0017839 0
M  V30 7313 C 667.679 -1.09929 3.43436 0
M  V30 7314 O 666.783 -2.21425 3.47915 0
M  V30 7315 H 666.124 -0.127215 0.6517 0
M  V30 7316 H 668.654 0.239283 2.03196 0
M  V30 7317 H 668.664 -1.4288 3.82164 0
M  V30 7318 H 667.339 -0.323162 4.14643 0
M  V30 7319 H 665.916 -1.89728 3.21026 0
M  V30 7320 N 668.101 -1.57061 -0.130224 0
M  V30 7321 C 669.034 -1.94698 -1.19029 0
M  V30 7322 C 670.012 -0.815074 -1.40696 0
M  V30 7323 O 671.196 -1.07223 -1.55034 0
M  V30 7324 C 668.323 -2.23352 -2.5462 0
M  V30 7325 C 667.369 -3.45945 -2.49448 0
M  V30 7326 S 668.202 -4.98927 -1.94505 0
M  V30 7327 C 669.358 -5.30721 -3.31792 0
M  V30 7328 H 669.591 -2.84308 -0.869272 0
M  V30 7329 H 667.124 -1.50688 -0.336531 0
M  V30 7330 H 669.082 -2.40539 -3.32643 0
M  V30 7331 H 667.743 -1.34376 -2.83905 0
M  V30 7332 H 666.936 -3.63324 -3.49302 0
M  V30 7333 H 666.538 -3.28086 -1.79543 0
M  V30 7334 H 668.83 -5.25215 -4.27966 0
M  V30 7335 H 669.773 -6.32048 -3.19251 0
M  V30 7336 H 670.181 -4.5821 -3.29703 0
M  V30 7337 N 669.579 0.400081 -1.52437 0
M  V30 7338 C 670.809 1.16598 -1.70553 0
M  V30 7339 C 671.217 1.8451 -0.418665 0
M  V30 7340 O 670.56 1.73069 0.615855 0
M  V30 7341 C 670.622 2.26517 -2.7916 0
M  V30 7342 C 670.286 1.78666 -4.20628 0
M  V30 7343 C 671.283 1.26946 -5.04163 0
M  V30 7344 C 668.968 1.85225 -4.66902 0
M  V30 7345 C 670.962 0.824187 -6.32049 0
M  V30 7346 C 668.649 1.40309 -5.94774 0
M  V30 7347 C 669.647 0.889922 -6.77178 0
M  V30 7348 O 669.335 0.447281 -8.02655 0
M  V30 7349 H 669.067 0.356023 -0.574651 0
M  V30 7350 H 671.621 0.475598 -1.99818 0
M  V30 7351 H 669.851 2.98946 -2.45292 0
M  V30 7352 H 671.54 2.88237 -2.85787 0
M  V30 7353 H 672.306 1.21244 -4.69601 0
M  V30 7354 H 668.185 2.24111 -4.02859 0
M  V30 7355 H 671.729 0.422958 -6.96317 0
M  V30 7356 H 667.626 1.45693 -6.28843 0
M  V30 7357 H 668.394 0.569768 -8.16514 0
M  V30 7358 N 671.057 1.43213 0.657864 0
M  V30 7359 C 672.285 1.48015 1.44566 0
M  V30 7360 C 672.7 0.0965951 1.88553 0
M  V30 7361 O 672.057 -0.892221 1.59203 0
M  V30 7362 C 672.108 2.42199 2.68369 0
M  V30 7363 O 671.829 3.75173 2.26223 0
M  V30 7364 C 673.33 2.56195 3.61772 0
M  V30 7365 H 670.55 0.502861 0.444266 0
M  V30 7366 H 673.094 1.87907 0.806917 0
M  V30 7367 H 671.249 2.05514 3.28394 0
M  V30 7368 H 671.663 4.25776 3.06293 0
M  V30 7369 H 673.137 3.26182 4.4532 0
M  V30 7370 H 673.614 1.60534 4.0881 0
M  V30 7371 H 674.22 2.93671 3.07632 0
M  V30 7372 N 672.536 -0.895792 1.29666 0
M  V30 7373 C 673.499 -1.98189 1.15124 0
M  V30 7374 C 674.499 -1.60572 0.0855717 0
M  V30 7375 O 675.689 -1.70991 0.332826 0
M  V30 7376 C 672.821 -3.32289 0.761372 0
M  V30 7377 H 674.014 -2.12518 2.11603 0
M  V30 7378 H 671.567 -1.0808 1.12908 0
M  V30 7379 H 672.302 -3.23662 -0.203393 0
M  V30 7380 H 672.087 -3.60958 1.53139 0
M  V30 7381 H 673.577 -4.1198 0.682792 0
M  V30 7382 N 674.014 -1.12206 -1.10668 0
M  V30 7383 C 675.242 -0.898635 -1.86366 0
M  V30 7384 C 675.657 0.551991 -1.80551 0
M  V30 7385 O 675.014 1.38152 -1.19249 0
M  V30 7386 C 675.065 -1.36199 -3.34861 0
M  V30 7387 O 674.786 -2.75576 -3.40573 0
M  V30 7388 C 676.287 -1.17515 -4.2744 0
M  V30 7389 H 673.507 -0.321281 -0.589084 0
M  V30 7390 H 676.051 -1.49142 -1.39918 0
M  V30 7391 H 674.206 -0.81249 -3.78784 0
M  V30 7392 H 674.62 -2.95851 -4.33096 0
M  V30 7393 H 676.094 -1.54827 -5.29842 0
M  V30 7394 H 676.571 -0.115486 -4.39048 0
M  V30 7395 H 677.177 -1.71203 -3.89319 0
M  V30 7396 N 675.492 1.28418 -0.913599 0
M  V30 7397 C 676.732 1.96756 -0.553771 0
M  V30 7398 C 677.096 1.70334 0.886013 0
M  V30 7399 O 678.297 2.32242 1.35341 0
M  V30 7400 C 676.568 3.47041 -0.854249 0
M  V30 7401 S 678.127 4.34667 -0.600816 0
M  V30 7402 H 674.945 0.680831 -0.204915 0
M  V30 7403 H 677.547 1.55947 -1.17902 0
M  V30 7404 H 676.251 3.63766 -1.90007 0
M  V30 7405 H 675.782 3.92797 -0.217651 0
M  V30 7406 H 677.797 4.93166 0.547906 0
M  V30 7407 N 676.97 0.677563 1.42291 0
M  V30 7408 C 677.902 -0.0380218 2.29168 0
M  V30 7409 C 678.915 -0.762714 1.43828 0
M  V30 7410 O 680.104 -0.616413 1.67519 0
M  V30 7411 C 677.204 -1.07761 3.21311 0
M  V30 7412 C 676.377 -0.42618 4.35319 0
M  V30 7413 C 675.436 -1.36592 5.08162 0
M  V30 7414 O 674.462 -0.865174 5.62586 0
M  V30 7415 N 675.664 -2.69909 5.13935 0
M  V30 7416 H 678.429 0.707766 2.91223 0
M  V30 7417 H 675.99 0.52219 1.53247 0
M  V30 7418 H 677.982 -1.70761 3.6691 0
M  V30 7419 H 676.552 -1.72511 2.60689 0
M  V30 7420 H 675.772 0.383385 3.92331 0
M  V30 7421 H 677.06 0.0275277 5.08793 0
M  V30 7422 H 676.458 -3.13129 4.71134 0
M  V30 7423 H 675.015 -3.2815 5.6317 0
M  V30 7424 N 678.448 -1.51871 0.421078 0
M  V30 7425 C 679.411 -2.25914 -0.386712 0
M  V30 7426 C 680.411 -1.28733 -0.963555 0
M  V30 7427 O 681.601 -1.52579 -0.840556 0
M  V30 7428 C 678.733 -3.03853 -1.54551 0
M  V30 7429 H 679.926 -2.98754 0.261978 0
M  V30 7430 H 677.479 -1.5533 0.173862 0
M  V30 7431 H 678.214 -2.35392 -2.23072 0
M  V30 7432 H 677.999 -3.75215 -1.13824 0
M  V30 7433 H 679.489 -3.59984 -2.11663 0
M  V30 7434 N 679.926 -0.151884 -1.56866 0
M  V30 7435 C 681.151 0.508044 -2.01081 0
M  V30 7436 C 681.576 1.57306 -1.03134 0
M  V30 7437 O 680.934 1.81298 -0.0078309 0
M  V30 7438 C 680.982 1.08106 -3.44014 0
M  V30 7439 O 680.086 2.19577 -3.49084 0
M  V30 7440 H 679.427 0.123757 -0.652365 0
M  V30 7441 H 681.957 -0.250055 -2.03066 0
M  V30 7442 H 681.967 1.40851 -3.82916 0
M  V30 7443 H 680.642 0.301168 -4.14808 0
M  V30 7444 H 679.219 1.88023 -3.22027 0
M  V30 7445 N 681.404 1.57128 0.121893 0
M  V30 7446 C 682.644 1.86517 0.836113 0
M  V30 7447 C 683.008 0.739497 1.77188 0
M  V30 7448 O 684.209 0.91508 2.52744 0
M  V30 7449 C 682.48 3.21129 1.56878 0
M  V30 7450 S 684.039 3.72143 2.32497 0
M  V30 7451 H 680.857 0.653923 0.279115 0
M  V30 7452 H 683.459 1.95271 0.0946254 0
M  V30 7453 H 682.163 4.01002 0.873255 0
M  V30 7454 H 681.694 3.15446 2.35069 0
M  V30 7455 H 683.709 3.43413 3.58164 0
M  V30 7456 N 682.882 -0.391992 1.52647 0
M  V30 7457 C 684.107 -1.16312 1.71716 0
M  V30 7458 C 684.532 -1.83042 0.433279 0
M  V30 7459 O 683.89 -1.70705 -0.610707 0
M  V30 7460 C 683.938 -2.18908 2.86551 0
M  V30 7461 O 683.042 -3.2543 2.53316 0
M  V30 7462 H 682.383 -0.338743 0.571095 0
M  V30 7463 H 684.913 -0.457202 1.99426 0
M  V30 7464 H 684.923 -2.62954 3.1196 0
M  V30 7465 H 683.598 -1.69726 3.79692 0
M  V30 7466 H 682.175 -2.86543 2.38637 0
M  V30 7467 O 684.399 -1.52278 -0.537924 0
M  V30 7468 H 685.09 -1.52597 -1.19306 0
M  V30 END ATOM
M  V30 BEGIN BOND
M  V30 END BOND
M  V30 END CTAB
M  END
$$$$
