drugbank_target|P43005 Excitatory amino acid transporter 3 (DB00128; DB00142)
 OpenBabel12092119473D

  0  0  0     0  0            999 V3000
M  V30 BEGIN CTAB
M  V30 COUNTS 8194 8257 0 0 0
M  V30 BEGIN ATOM
M  V30 1 H -0.908 1.98254 -0.117106 0
M  V30 2 N 0 1.576 0 0
M  V30 3 C 0.933 2.03868 1.02534 0
M  V30 4 C 1.911 0.928543 1.3348 0
M  V30 5 O 3.095 1.19667 1.45644 0
M  V30 6 C 0.222 2.43627 2.35294 0
M  V30 7 C -0.732 3.65373 2.2001 0
M  V30 8 S 0.101 5.13292 1.52614 0
M  V30 9 C 1.257 5.56322 2.86805 0
M  V30 10 H 1.49 2.90518 0.631377 0
M  V30 11 H -0.977 1.52953 0.210867 0
M  V30 12 H 0.981 2.67203 3.11629 0
M  V30 13 H -0.358 1.57376 2.7183 0
M  V30 14 H -1.165 3.90944 3.18086 0
M  V30 15 H -1.563 3.418 1.51819 0
M  V30 16 H 0.729 5.58782 3.83104 0
M  V30 17 H 1.672 6.56266 2.65933 0
M  V30 18 H 2.08 4.83886 2.90714 0
M  V30 19 N 1.4781 -0.272755 1.55222 0
M  V30 20 C 2.7261 -1.00234 1.75492 0
M  V30 21 C 3.0471 -1.8681 0.5592 0
M  V30 22 O 2.3171 -1.91215 -0.425882 0
M  V30 23 H 0.8971 -0.373076 0.647166 0
M  V30 24 H 3.5591 -0.296926 1.92625 0
M  V30 25 H 2.6551 -1.63913 2.65592 0
M  V30 26 N 2.9562 -1.48159 -0.537278 0
M  V30 27 C 3.9032 -1.62138 -1.64256 0
M  V30 28 C 4.8732 -0.463668 -1.59497 0
M  V30 29 O 6.0582 -0.686241 -1.78032 0
M  V30 30 C 3.1982 -1.66028 -3.02537 0
M  V30 31 C 2.3112 -2.92855 -3.17585 0
M  V30 32 C 1.4462 -2.87952 -4.46382 0
M  V30 33 C 0.4852 -4.09516 -4.54932 0
M  V30 34 N -0.3778 -4.02733 -5.75109 0
M  V30 35 H 4.4622 -2.56529 -1.51647 0
M  V30 36 H 1.9992 -1.27224 -0.738414 0
M  V30 37 H 3.9572 -1.66265 -3.82638 0
M  V30 38 H 2.5872 -0.751331 -3.13934 0
M  V30 39 H 1.6392 -3.02395 -2.30784 0
M  V30 40 H 2.9512 -3.82822 -3.19764 0
M  V30 41 H 2.1052 -2.8655 -5.34765 0
M  V30 42 H 0.8442 -1.95702 -4.46712 0
M  V30 43 H -0.1508 -4.11201 -3.64957 0
M  V30 44 H 1.0742 -5.02917 -4.56346 0
M  V30 45 H -0.9798 -3.13299 -5.76351 0
M  V30 46 H -1.0628 -4.86397 -5.78752 0
M  V30 47 H 0.2052 -4.05379 -6.65799 0
M  V30 48 N 4.4343 0.785586 -1.36625 0
M  V30 49 C 5.8453 1.36101 -1.27803 0
M  V30 50 C 6.1963 1.96035 0.0804875 0
M  V30 51 O 5.3213 1.92834 0.982042 0
M  V30 52 C 5.9163 2.47442 -2.31426 0
M  V30 53 C 4.4753 3.00789 -2.26281 0
M  V30 54 C 3.6223 1.73896 -2.15999 0
M  V30 55 H 6.5733 0.586928 -1.47448 0
M  V30 56 H 6.5943 3.2656 -1.95291 0
M  V30 57 H 6.1063 2.03791 -3.30289 0
M  V30 58 H 4.2073 3.48851 -1.30896 0
M  V30 59 H 4.3203 3.57343 -3.19128 0
M  V30 60 H 2.6843 1.9628 -1.62316 0
M  V30 61 H 3.4673 1.32368 -3.16755 0
M  V30 62 N 5.9124 1.20967 1.01018 0
M  V30 63 C 6.8754 0.965918 2.07853 0
M  V30 64 C 7.8754 -0.0610545 1.60684 0
M  V30 65 O 9.0654 0.175681 1.73312 0
M  V30 66 C 6.1974 0.455513 3.37843 0
M  V30 67 H 7.3904 1.91365 2.3091 0
M  V30 68 H 4.9434 1.02594 1.17916 0
M  V30 69 H 5.6784 -0.497381 3.20463 0
M  V30 70 H 5.4634 1.19622 3.73407 0
M  V30 71 H 6.9534 0.304667 4.16487 0
M  V30 72 N 7.3905 -1.2043 1.01659 0
M  V30 73 C 8.8065 -1.41852 0.731442 0
M  V30 74 C 9.0065 -1.89358 -0.688898 0
M  V30 75 O 8.0625 -2.06247 -1.45666 0
M  V30 76 C 9.3755 -2.44019 1.75714 0
M  V30 77 C 10.9235 -2.57785 1.77527 0
M  V30 78 C 11.3985 -3.63194 2.79023 0
M  V30 79 N 12.8895 -3.70678 2.77763 0
M  V30 80 C 13.6245 -4.51897 3.52954 0
M  V30 81 N 13.1205 -5.36921 4.37821 0
M  V30 82 N 14.9135 -4.4643 3.41551 0
M  V30 83 H 7.0645 -0.879093 1.93354 0
M  V30 84 H 9.3275 -0.448425 0.835236 0
M  V30 85 H 9.0335 -2.1611 2.77469 0
M  V30 86 H 8.9075 -3.43007 1.56927 0
M  V30 87 H 11.2945 -2.85023 0.764569 0
M  V30 88 H 11.3755 -1.58992 2.00387 0
M  V30 89 H 11.0195 -3.36699 3.80258 0
M  V30 90 H 10.9495 -4.61609 2.53425 0
M  V30 91 H 13.4405 -3.09944 2.16201 0
M  V30 92 H 13.7535 -5.95981 4.91962 0
M  V30 93 H 12.0985 -5.36424 4.41899 0
M  V30 94 H 15.2895 -3.79042 2.74672 0
M  V30 95 H 15.4625 -5.09491 4.00404 0
M  V30 96 N 8.8686 -0.792821 -1.36206 0
M  V30 97 C 9.8156 -0.191653 -2.30003 0
M  V30 98 C 10.7856 0.666453 -1.52143 0
M  V30 99 O 11.9706 0.61442 -1.80636 0
M  V30 100 C 9.1106 0.664848 -3.38635 0
M  V30 101 C 8.2236 -0.212175 -4.31479 0
M  V30 102 C 7.3586 0.651022 -5.27196 0
M  V30 103 C 6.3976 -0.227247 -6.11678 0
M  V30 104 N 5.5346 0.595127 -6.99573 0
M  V30 105 H 10.3746 -0.996978 -2.80828 0
M  V30 106 H 7.9116 -0.503206 -1.38225 0
M  V30 107 H 9.8696 1.17645 -4.00269 0
M  V30 108 H 8.4996 1.43557 -2.89122 0
M  V30 109 H 7.5516 -0.841777 -3.70969 0
M  V30 110 H 8.8636 -0.888751 -4.90818 0
M  V30 111 H 8.0176 1.2283 -5.94136 0
M  V30 112 H 6.7566 1.36121 -4.68319 0
M  V30 113 H 5.7616 -0.816904 -5.43697 0
M  V30 114 H 6.9866 -0.93509 -6.72631 0
M  V30 115 H 4.9326 1.28955 -6.432 0
M  V30 116 H 4.8496 -0.0236952 -7.55996 0
M  V30 117 H 6.1176 1.15613 -7.70879 0
M  V30 118 N 10.3467 1.47872 -0.545128 0
M  V30 119 C 11.5947 2.02093 -0.016553 0
M  V30 120 C 11.9157 1.42305 1.3332 0
M  V30 121 O 11.1857 0.593853 1.86682 0
M  V30 122 H 9.7657 0.746993 -0.00313038 0
M  V30 123 H 12.4277 1.81414 -0.712397 0
M  V30 124 H 11.5237 3.11996 0.0805422 0
M  V30 125 N 11.8248 0.280983 1.55075 0
M  V30 126 C 13.0648 -0.335234 2.01632 0
M  V30 127 C 13.4288 -1.5261 1.16508 0
M  V30 128 O 14.6298 -2.21235 1.52672 0
M  V30 129 C 12.9008 -0.702172 3.50434 0
M  V30 130 S 14.4598 -1.30409 4.18974 0
M  V30 131 H 11.2778 -0.103967 0.703358 0
M  V30 132 H 13.8798 0.404187 1.91276 0
M  V30 133 H 12.5838 0.17333 4.10034 0
M  V30 134 H 12.1148 -1.4729 3.64786 0
M  V30 135 H 14.1298 -2.59253 4.23087 0
M  V30 136 N 13.3029 -1.57598 0.00835791 0
M  V30 137 C 14.2129 -2.12385 -0.996487 0
M  V30 138 C 15.2289 -1.07108 -1.37127 0
M  V30 139 O 16.4049 -1.39055 -1.4569 0
M  V30 140 C 13.4699 -2.62314 -2.26699 0
M  V30 141 C 12.5309 -3.82225 -1.95456 0
M  V30 142 C 11.7639 -4.29763 -3.16449 0
M  V30 143 O 11.9869 -3.76584 -4.28416 0
M  V30 144 O 10.9209 -5.21832 -2.99958 0
M  V30 145 H 14.7469 -2.98479 -0.560725 0
M  V30 146 H 12.3319 -1.47903 -0.210987 0
M  V30 147 H 14.2139 -2.94589 -3.01322 0
M  V30 148 H 12.8889 -1.79313 -2.69497 0
M  V30 149 H 11.7959 -3.54909 -1.18282 0
M  V30 150 H 13.1289 -4.66324 -1.57489 0
M  V30 151 N 14.781 0.264519 -1.55364 0
M  V30 152 C 16.027 0.992314 -1.77552 0
M  V30 153 C 16.382 1.83626 -0.574379 0
M  V30 154 O 15.675 1.86648 0.432782 0
M  V30 155 C 15.869 1.9004 -3.02687 0
M  V30 156 C 15.698 1.14583 -4.34857 0
M  V30 157 C 14.468 0.858068 -4.97961 0
M  V30 158 C 16.666 0.532069 -5.1154 0
M  V30 159 N 14.648 0.0775974 -6.13851 0
M  V30 160 C 16.019 -0.113823 -6.19896 0
M  V30 161 C 18.074 0.440763 -4.95945 0
M  V30 162 C 16.777 -0.842231 -7.14352 0
M  V30 163 C 18.803 -0.274072 -5.90765 0
M  V30 164 C 18.165 -0.90867 -6.98515 0
M  V30 165 H 14.264 0.344811 -0.701875 0
M  V30 166 H 16.848 0.267141 -1.92859 0
M  V30 167 H 15.019 2.59775 -2.88741 0
M  V30 168 H 16.751 2.56243 -3.13243 0
M  V30 169 H 13.506 1.16547 -4.59036 0
M  V30 170 H 13.93 -0.300216 -6.76334 0
M  V30 171 H 18.572 0.917064 -4.12735 0
M  V30 172 H 16.29 -1.33019 -7.97077 0
M  V30 173 H 19.876 -0.345151 -5.80775 0
M  V30 174 H 18.756 -1.45299 -7.70622 0
M  V30 175 N 16.2591 1.48442 0.529413 0
M  V30 176 C 17.2061 1.63007 1.63394 0
M  V30 177 C 18.1761 0.47212 1.59249 0
M  V30 178 O 19.3611 0.695673 1.77666 0
M  V30 179 C 16.5011 1.6763 3.01653 0
M  V30 180 C 15.6141 2.94535 3.16027 0
M  V30 181 C 14.7491 2.90316 4.44849 0
M  V30 182 C 13.7881 4.11923 4.52754 0
M  V30 183 N 12.9251 4.05777 5.72965 0
M  V30 184 H 17.7651 2.5733 1.50285 0
M  V30 185 H 15.3021 1.27613 0.731656 0
M  V30 186 H 17.2601 1.68292 3.81751 0
M  V30 187 H 15.8901 0.76797 3.13532 0
M  V30 188 H 14.9421 3.03615 2.29177 0
M  V30 189 H 16.2541 3.84512 3.17729 0
M  V30 190 H 15.4081 2.89382 5.33238 0
M  V30 191 H 14.1471 1.98068 4.45668 0
M  V30 192 H 13.1521 4.13131 3.62771 0
M  V30 193 H 14.3771 5.0533 4.53672 0
M  V30 194 H 12.3231 3.16351 5.74681 0
M  V30 195 H 12.2401 4.8946 5.76164 0
M  V30 196 H 13.5081 4.08904 6.6364 0
M  V30 197 N 17.7372 -0.778329 1.37039 0
M  V30 198 C 19.1532 -1.07796 1.17695 0
M  V30 199 C 19.3532 -2.01498 0.00860115 0
M  V30 200 O 18.4092 -2.43901 -0.653352 0
M  V30 201 C 19.7222 -1.68178 2.49272 0
M  V30 202 C 21.2702 -1.80467 2.55735 0
M  V30 203 C 21.7452 -2.44263 3.87427 0
M  V30 204 N 23.2362 -2.51721 3.88833 0
M  V30 205 C 23.9712 -3.01919 4.87476 0
M  V30 206 N 23.4672 -3.5234 5.96513 0
M  V30 207 N 25.2602 -3.00733 4.74885 0
M  V30 208 H 17.4112 -0.156032 2.11826 0
M  V30 209 H 19.6742 -0.131844 0.938787 0
M  V30 210 H 19.3802 -1.06796 3.35093 0
M  V30 211 H 19.2542 -2.67554 2.65885 0
M  V30 212 H 21.6412 -2.40984 1.70325 0
M  V30 213 H 21.7222 -0.798656 2.43013 0
M  V30 214 H 21.3662 -1.84388 4.73248 0
M  V30 215 H 21.2962 -3.45458 3.9745 0
M  V30 216 H 23.7872 -2.1603 3.10063 0
M  V30 217 H 24.1002 -3.89027 6.67741 0
M  V30 218 H 22.4452 -3.50462 6.00168 0
M  V30 219 H 25.6362 -2.60638 3.88826 0
M  V30 220 H 25.8092 -3.39545 5.51918 0
M  V30 221 N 19.2153 -1.21501 -1.00376 0
M  V30 222 C 20.4623 -1.03299 -1.74171 0
M  V30 223 C 20.7903 0.433326 -1.89612 0
M  V30 224 O 20.0453 1.33779 -1.42834 0
M  V30 225 C 20.3443 -1.67673 -3.15627 0
M  V30 226 C 20.0103 -3.17533 -3.2013 0
M  V30 227 C 18.6723 -3.58427 -3.21067 0
M  V30 228 C 21.0243 -4.13504 -3.17275 0
M  V30 229 C 18.3523 -4.93794 -3.16835 0
M  V30 230 C 20.7043 -5.48834 -3.14585 0
M  V30 231 C 19.3683 -5.89123 -3.13831 0
M  V30 232 H 18.6383 -0.377999 -0.637336 0
M  V30 233 H 21.2853 -1.51111 -1.17634 0
M  V30 234 H 19.5903 -1.12158 -3.75404 0
M  V30 235 H 21.2873 -1.51091 -3.71446 0
M  V30 236 H 17.8773 -2.84965 -3.20145 0
M  V30 237 H 22.0613 -3.82936 -3.15711 0
M  V30 238 H 17.3173 -5.24255 -3.1459 0
M  V30 239 H 21.4913 -6.22934 -3.1133 0
M  V30 240 H 19.1183 -6.93984 -3.10307 0
M  V30 241 N 20.6934 1.19889 -1.02296 0
M  V30 242 C 21.6234 2.25141 -0.619174 0
M  V30 243 C 22.6044 1.66051 0.368915 0
M  V30 244 O 23.7894 1.92546 0.252941 0
M  V30 245 C 20.9194 3.4728 0.0368783 0
M  V30 246 C 19.8734 4.19005 -0.872865 0
M  V30 247 C 19.1994 5.34637 -0.0822402 0
M  V30 248 C 20.4994 4.74452 -2.18387 0
M  V30 249 H 22.1934 2.59171 -1.49903 0
M  V30 250 H 19.7394 1.24579 -0.722222 0
M  V30 251 H 21.6924 4.20098 0.330958 0
M  V30 252 H 20.4164 3.12433 0.95149 0
M  V30 253 H 19.0754 3.48061 -1.15105 0
M  V30 254 H 18.7234 4.96034 0.83422 0
M  V30 255 H 18.4234 5.83557 -0.688149 0
M  V30 256 H 19.9474 6.10255 0.205238 0
M  V30 257 H 21.3614 5.39055 -1.95172 0
M  V30 258 H 19.7584 5.33834 -2.74119 0
M  V30 259 H 20.8284 3.92844 -2.84257 0
M  V30 260 N 22.1715 0.800033 1.35784 0
M  V30 261 C 23.1185 0.203848 2.29898 0
M  V30 262 C 24.0885 -0.658375 1.52495 0
M  V30 263 O 25.2735 -0.604832 1.8096 0
M  V30 264 C 22.4135 -0.64688 3.38983 0
M  V30 265 C 21.5265 0.235054 4.3136 0
M  V30 266 C 20.6615 -0.623054 5.27533 0
M  V30 267 C 19.7005 0.259682 6.11549 0
M  V30 268 N 18.8375 -0.558019 6.99879 0
M  V30 269 H 23.6775 1.01186 2.80295 0
M  V30 270 H 21.2145 0.51053 1.37957 0
M  V30 271 H 23.1725 -1.15521 4.00887 0
M  V30 272 H 21.8025 -1.42021 2.89879 0
M  V30 273 H 20.8545 0.861438 3.70518 0
M  V30 274 H 22.1665 0.914768 4.9034 0
M  V30 275 H 21.3205 -1.19678 5.94779 0
M  V30 276 H 20.0595 -1.33636 4.69034 0
M  V30 277 H 19.0645 0.845726 5.43256 0
M  V30 278 H 20.2895 0.970748 6.72126 0
M  V30 279 H 18.2355 -1.25542 6.43875 0
M  V30 280 H 18.1525 0.0637872 7.55973 0
M  V30 281 H 19.4205 -1.11523 7.71481 0
M  V30 282 N 23.6496 -1.47581 0.552962 0
M  V30 283 C 24.5976 -2.31648 -0.21023 0
M  V30 284 C 25.5916 -1.42663 -0.913432 0
M  V30 285 O 26.7976 -1.5945 -0.835201 0
M  V30 286 H 23.1726 -0.746989 -0.0866676 0
M  V30 287 H 25.1436 -2.93869 0.518051 0
M  V30 288 C 23.8926 -3.25226 -1.22976 0
M  V30 289 H 23.2156 -3.93658 -0.698077 0
M  V30 290 H 24.6556 -3.86889 -1.73473 0
M  V30 291 C 23.1146 -2.48448 -2.27542 0
M  V30 292 O 23.6446 -2.22585 -3.34393 0
M  V30 293 N 21.8506 -2.09532 -2.01357 0
M  V30 294 H 21.3976 -2.30765 -1.14478 0
M  V30 295 H 21.3556 -1.58476 -2.71538 0
M  V30 296 N 25.1277 -0.289203 -1.54924 0
M  V30 297 C 26.0757 0.607966 -2.24514 0
M  V30 298 C 27.0697 1.14655 -1.24702 0
M  V30 299 O 28.2757 1.09856 -1.4259 0
M  V30 300 H 24.6507 0.21464 -0.720718 0
M  V30 301 H 26.6217 -0.00164182 -2.984 0
M  V30 302 C 25.3707 1.77406 -2.99036 0
M  V30 303 H 24.6937 1.36884 -3.75637 0
M  V30 304 H 26.1337 2.37814 -3.51028 0
M  V30 305 C 24.5927 2.67107 -2.05318 0
M  V30 306 O 25.1227 3.6787 -1.61353 0
M  V30 307 N 23.3287 2.34582 -1.71521 0
M  V30 308 H 22.8757 1.52688 -2.07471 0
M  V30 309 H 22.8337 2.94867 -1.0909 0
M  V30 310 N 26.6058 1.57591 -0.0167156 0
M  V30 311 C 27.8518 1.92399 0.659861 0
M  V30 312 C 28.2068 0.892561 1.70444 0
M  V30 313 O 27.4998 -0.0930755 1.91374 0
M  V30 314 C 27.6938 3.3172 1.33029 0
M  V30 315 C 27.5228 4.48319 0.352174 0
M  V30 316 C 26.2928 5.05281 -0.0434883 0
M  V30 317 C 28.4908 5.12831 -0.388474 0
M  V30 318 N 26.4728 6.05399 -1.01807 0
M  V30 319 C 27.8438 6.07934 -1.2172 0
M  V30 320 C 29.8988 4.95858 -0.450513 0
M  V30 321 C 28.6018 6.87891 -2.10235 0
M  V30 322 C 30.6278 5.76413 -1.32295 0
M  V30 323 C 29.9898 6.71123 -2.13948 0
M  V30 324 H 26.0888 0.752106 0.21415 0
M  V30 325 H 28.6728 1.94532 -0.0809846 0
M  V30 326 H 26.8438 3.3043 2.04134 0
M  V30 327 H 28.5758 3.5391 1.9629 0
M  V30 328 H 25.3308 4.7246 0.328384 0
M  V30 329 H 25.7548 6.60145 -1.50123 0
M  V30 330 H 30.3968 4.22472 0.166512 0
M  V30 331 H 28.1148 7.60591 -2.72997 0
M  V30 332 H 31.7008 5.65317 -1.37508 0
M  V30 333 H 30.5808 7.3237 -2.80364 0
M  V30 334 N 28.0839 -0.256276 1.55502 0
M  V30 335 C 29.3299 -0.987079 1.77157 0
M  V30 336 C 29.6629 -1.85327 0.580315 0
M  V30 337 O 28.9379 -1.89874 -0.421686 0
M  V30 338 C 29.2209 -1.85553 3.08613 0
M  V30 339 C 29.0739 -1.01816 4.38125 0
M  V30 340 C 30.3929 -2.8397 3.36228 0
M  V30 341 H 27.5119 -0.357428 0.644526 0
M  V30 342 H 30.1539 -0.258239 1.88237 0
M  V30 343 H 28.3039 -2.47695 2.99298 0
M  V30 344 H 29.9759 -0.416159 4.59419 0
M  V30 345 H 28.2189 -0.322178 4.32602 0
M  V30 346 H 28.8899 -1.65939 5.26468 0
M  V30 347 H 31.3659 -2.31964 3.45445 0
M  V30 348 H 30.2419 -3.41864 4.29442 0
M  V30 349 H 30.5029 -3.59955 2.56681 0
M  V30 350 N 29.562 -1.4872 -0.521534 0
M  V30 351 C 30.492 -1.66771 -1.63431 0
M  V30 352 C 31.473 -0.516499 -1.62069 0
M  V30 353 O 32.658 -0.750013 -1.79132 0
M  V30 354 C 29.788 -1.71515 -3.01993 0
M  V30 355 C 28.742 -2.86222 -3.18216 0
M  V30 356 C 28.068 -2.76061 -4.57924 0
M  V30 357 C 29.368 -4.27419 -3.00184 0
M  V30 358 H 31.062 -2.59932 -1.48579 0
M  V30 359 H 28.608 -1.25089 -0.713358 0
M  V30 360 H 30.561 -1.82731 -3.7972 0
M  V30 361 H 29.285 -0.749393 -3.17886 0
M  V30 362 H 27.944 -2.74575 -2.42908 0
M  V30 363 H 27.592 -1.77437 -4.70665 0
M  V30 364 H 27.292 -3.53037 -4.69722 0
M  V30 365 H 28.816 -2.89256 -5.37739 0
M  V30 366 H 30.23 -4.39855 -3.67697 0
M  V30 367 H 28.627 -5.05458 -3.2347 0
M  V30 368 H 29.697 -4.43293 -1.96518 0
M  V30 369 N 31.0401 0.771051 -1.3745 0
M  V30 370 C 31.9701 1.89827 -1.3597 0
M  V30 371 C 32.9511 1.68562 -0.228216 0
M  V30 372 O 34.1361 1.8941 -0.428675 0
M  V30 373 C 31.2661 3.2712 -1.16662 0
M  V30 374 C 30.2201 3.6295 -2.2683 0
M  V30 375 C 29.5461 4.98791 -1.92644 0
M  V30 376 C 30.8461 3.69627 -3.69017 0
M  V30 377 H 32.5401 1.91323 -2.30295 0
M  V30 378 H 30.0861 0.919082 -1.10855 0
M  V30 379 H 32.0391 4.05615 -1.14256 0
M  V30 380 H 30.7631 3.26059 -0.187926 0
M  V30 381 H 29.4221 2.86763 -2.28392 0
M  V30 382 H 29.0701 4.94271 -0.933021 0
M  V30 383 H 28.7701 5.23733 -2.66416 0
M  V30 384 H 30.2941 5.79685 -1.91826 0
M  V30 385 H 31.7081 4.38273 -3.69581 0
M  V30 386 H 30.1051 4.06067 -4.41848 0
M  V30 387 H 31.1751 2.70273 -4.02592 0
M  V30 388 N 32.5182 1.22032 0.997298 0
M  V30 389 C 33.7432 1.06921 1.77715 0
M  V30 390 C 34.1682 -0.376226 1.84299 0
M  V30 391 O 33.5262 -1.27165 1.29223 0
M  V30 392 C 33.5742 1.67996 3.19076 0
M  V30 393 O 32.6782 0.930653 4.01762 0
M  V30 394 H 32.0192 0.375814 0.547412 0
M  V30 395 H 34.5492 1.61737 1.25309 0
M  V30 396 H 34.5592 1.72538 3.69723 0
M  V30 397 H 33.2342 2.73182 3.13599 0
M  V30 398 H 31.8112 0.960917 3.60307 0
M  V30 399 N 33.9963 -1.19345 1.0293 0
M  V30 400 C 35.2243 -1.92997 0.745644 0
M  V30 401 C 35.6393 -1.75519 -0.695589 0
M  V30 402 O 34.9963 -1.07737 -1.47306 0
M  V30 403 C 35.0473 -3.44741 1.08792 0
M  V30 404 O 34.7683 -3.61658 2.47256 0
M  V30 405 C 36.2693 -4.35515 0.827129 0
M  V30 406 H 33.4893 -0.613042 0.272801 0
M  V30 407 H 36.0333 -1.51473 1.3739 0
M  V30 408 H 34.1883 -3.84097 0.504832 0
M  V30 409 H 34.6023 -4.55514 2.60015 0
M  V30 410 H 36.0763 -5.40589 1.11658 0
M  V30 411 H 36.5533 -4.38552 -0.238436 0
M  V30 412 H 37.1593 -4.01841 1.39297 0
M  V30 413 N 35.4744 -0.807222 -1.35358 0
M  V30 414 C 36.7204 -0.388463 -1.99045 0
M  V30 415 C 37.0534 1.04184 -1.63888 0
M  V30 416 O 36.3284 1.72292 -0.902535 0
M  V30 417 C 36.6114 -0.572783 -3.55515 0
M  V30 418 C 36.4644 -2.04807 -4.00468 0
M  V30 419 C 37.7834 0.00114064 -4.401 0
M  V30 420 H 34.9024 -0.142619 -0.723069 0
M  V30 421 H 37.5444 -1.01687 -1.60498 0
M  V30 422 H 35.6944 -0.0378425 -3.88482 0
M  V30 423 H 37.3664 -2.64544 -3.77908 0
M  V30 424 H 35.6094 -2.54427 -3.51353 0
M  V30 425 H 36.2804 -2.12792 -5.09337 0
M  V30 426 H 38.7564 -0.455716 -4.13597 0
M  V30 427 H 37.6324 -0.157737 -5.48673 0
M  V30 428 H 37.8934 1.09488 -4.28328 0
M  V30 429 N 36.9525 1.47285 -0.560781 0
M  V30 430 C 37.9155 2.28535 0.174488 0
M  V30 431 C 38.9155 1.37153 0.839388 0
M  V30 432 O 40.1055 1.59748 0.694702 0
M  V30 433 C 37.2375 3.16934 1.25561 0
M  V30 434 H 38.4305 2.95012 -0.539262 0
M  V30 435 H 35.9835 1.53034 -0.317865 0
M  V30 436 H 36.7185 2.55157 2.00164 0
M  V30 437 H 36.5035 3.8419 0.783604 0
M  V30 438 H 37.9935 3.78143 1.77193 0
M  V30 439 N 38.4306 0.297415 1.54768 0
M  V30 440 C 39.3936 -0.567375 2.22066 0
M  V30 441 C 40.3936 -1.06409 1.20556 0
M  V30 442 O 41.5836 -0.960691 1.45315 0
M  V30 443 C 38.7156 -1.78517 2.90421 0
M  V30 444 H 39.9086 0.0205534 2.99893 0
M  V30 445 H 37.4616 0.0482163 1.56226 0
M  V30 446 H 38.1966 -2.41303 2.16664 0
M  V30 447 H 37.9816 -1.43669 3.64831 0
M  V30 448 H 39.4716 -2.39964 3.41771 0
M  V30 449 N 39.9087 -1.5758 0.0250728 0
M  V30 450 C 41.1547 -1.91917 -0.655413 0
M  V30 451 C 41.4877 -0.901433 -1.72011 0
M  V30 452 O 40.7627 0.0764069 -1.9435 0
M  V30 453 C 41.0457 -3.36751 -1.27558 0
M  V30 454 C 40.8987 -4.49258 -0.220719 0
M  V30 455 C 42.2177 -3.81469 -2.19475 0
M  V30 456 H 39.3367 -0.697925 -0.23679 0
M  V30 457 H 41.9787 -1.89825 0.0815036 0
M  V30 458 H 40.1287 -3.38664 -1.90365 0
M  V30 459 H 41.8007 -4.59478 0.409601 0
M  V30 460 H 40.0437 -4.31415 0.454264 0
M  V30 461 H 40.7147 -5.47618 -0.694175 0
M  V30 462 H 43.1907 -3.81266 -1.66659 0
M  V30 463 H 42.0667 -4.83512 -2.59822 0
M  V30 464 H 42.3277 -3.16744 -3.08424 0
M  V30 465 N 41.3868 0.248026 -1.55636 0
M  V30 466 C 42.6328 0.97767 -1.77678 0
M  V30 467 C 42.9658 1.85016 -0.590135 0
M  V30 468 O 42.2408 1.90095 0.411611 0
M  V30 469 C 42.5238 1.83914 -3.09593 0
M  V30 470 C 42.3768 0.99491 -4.38659 0
M  V30 471 C 43.6958 2.82183 -3.37729 0
M  V30 472 H 40.8148 0.354005 -0.646413 0
M  V30 473 H 43.4568 0.248253 -1.88371 0
M  V30 474 H 41.6068 2.46104 -3.00608 0
M  V30 475 H 43.2788 0.391789 -4.59633 0
M  V30 476 H 41.5218 0.299231 -4.32767 0
M  V30 477 H 42.1928 1.63145 -5.2734 0
M  V30 478 H 44.6688 2.30129 -3.4667 0
M  V30 479 H 43.5448 3.39582 -4.31249 0
M  V30 480 H 43.8058 3.58588 -2.58586 0
M  V30 481 N 42.8649 1.48995 0.513639 0
M  V30 482 C 43.7949 1.67636 1.62544 0
M  V30 483 C 44.7759 0.525087 1.61793 0
M  V30 484 O 45.9609 0.759502 1.78732 0
M  V30 485 C 43.0909 1.73114 3.01079 0
M  V30 486 C 42.0449 2.87905 3.16693 0
M  V30 487 C 41.3709 2.78486 4.56453 0
M  V30 488 C 42.6709 4.29005 2.97913 0
M  V30 489 H 44.3649 2.60716 1.47198 0
M  V30 490 H 41.9109 1.25465 0.706714 0
M  V30 491 H 43.8639 1.84742 3.78746 0
M  V30 492 H 42.5879 0.766241 3.17484 0
M  V30 493 H 41.2469 2.75859 2.41448 0
M  V30 494 H 40.8949 1.7993 4.69717 0
M  V30 495 H 40.5949 3.55523 4.67843 0
M  V30 496 H 42.1189 2.92104 5.36197 0
M  V30 497 H 43.5329 4.41798 3.65359 0
M  V30 498 H 41.9299 5.07166 3.20785 0
M  V30 499 H 42.9999 4.44329 1.94165 0
M  V30 500 N 44.343 -0.763751 1.37857 0
M  V30 501 C 45.591 -1.51957 1.33243 0
M  V30 502 C 45.912 -1.94835 -0.0801709 0
M  V30 503 O 45.182 -1.66894 -1.02582 0
M  V30 504 H 43.762 -0.563626 0.49024 0
M  V30 505 H 46.424 -0.908504 1.7243 0
M  V30 506 H 45.52 -2.41523 1.97669 0
M  V30 507 N 45.8211 -1.22559 -0.990812 0
M  V30 508 C 47.0701 -1.04553 -1.72486 0
M  V30 509 C 47.3831 0.419349 -1.91052 0
M  V30 510 O 48.5891 0.719121 -2.61803 0
M  V30 511 C 47.0451 -1.82231 -3.10355 0
M  V30 512 C 46.6531 -3.32981 -2.99713 0
M  V30 513 C 48.3971 -1.7268 -3.87791 0
M  V30 514 C 46.3041 -4.03091 -4.32748 0
M  V30 515 H 45.2341 -0.387614 -0.646739 0
M  V30 516 H 47.8851 -1.46429 -1.10593 0
M  V30 517 H 46.2671 -1.33155 -3.72942 0
M  V30 518 H 47.4411 -3.89466 -2.46278 0
M  V30 519 H 45.7561 -3.43231 -2.35758 0
M  V30 520 H 48.3531 -2.22381 -4.86262 0
M  V30 521 H 48.6961 -0.687607 -4.10582 0
M  V30 522 H 49.2291 -2.1931 -3.31885 0
M  V30 523 H 45.9681 -5.07273 -4.15156 0
M  V30 524 H 45.4881 -3.51394 -4.86089 0
M  V30 525 H 47.1671 -4.08804 -5.01486 0
M  V30 526 N 47.2992 1.18797 -1.03562 0
M  V30 527 C 48.5272 1.92599 -0.755869 0
M  V30 528 C 48.9422 1.75886 0.686271 0
M  V30 529 O 48.2992 1.08517 1.46732 0
M  V30 530 C 48.3502 3.44159 -1.10619 0
M  V30 531 O 48.0712 3.60341 -2.4917 0
M  V30 532 C 49.5722 4.3507 -0.850214 0
M  V30 533 H 46.7922 0.611587 -0.276048 0
M  V30 534 H 49.3362 1.50742 -1.38192 0
M  V30 535 H 47.4912 3.83823 -0.525194 0
M  V30 536 H 47.9052 4.54128 -2.62427 0
M  V30 537 H 49.3792 5.39989 -1.14523 0
M  V30 538 H 49.8562 4.38673 0.215176 0
M  V30 539 H 50.4622 4.01097 -1.41426 0
M  V30 540 N 48.7773 0.814389 1.34928 0
M  V30 541 C 50.0053 0.411136 2.02774 0
M  V30 542 C 50.4203 -0.980316 1.61354 0
M  V30 543 O 49.7773 -1.63299 0.814847 0
M  V30 544 C 49.8283 0.493865 3.58111 0
M  V30 545 O 49.5493 1.83047 3.98027 0
M  V30 546 C 51.0503 0.0844174 4.4322 0
M  V30 547 H 48.2703 0.166037 0.650133 0
M  V30 548 H 50.8143 1.10018 1.72384 0
M  V30 549 H 48.9693 -0.147006 3.87121 0
M  V30 550 H 49.3833 1.79872 4.92693 0
M  V30 551 H 50.8573 0.193404 5.51661 0
M  V30 552 H 51.3343 -0.97113 4.28329 0
M  V30 553 H 51.9403 0.69875 4.19521 0
M  V30 554 N 50.2554 -1.46986 0.568584 0
M  V30 555 C 51.5034 -2.02041 0.0487022 0
M  V30 556 C 51.8244 -1.44408 -1.31039 0
M  V30 557 O 51.0944 -0.623477 -1.85714 0
M  V30 558 H 49.6744 -0.746849 0.015014 0
M  V30 559 H 52.3364 -1.80257 0.741168 0
M  V30 560 H 51.4324 -3.12085 -0.0308961 0
M  V30 561 N 51.7335 -0.305618 -1.54608 0
M  V30 562 C 52.9795 0.302746 -2.00528 0
M  V30 563 C 53.3125 1.53184 -1.19367 0
M  V30 564 O 52.5875 1.92598 -0.271321 0
M  V30 565 C 52.8705 0.654756 -3.54097 0
M  V30 566 C 52.7235 -0.583793 -4.45995 0
M  V30 567 C 54.0425 1.47947 -4.14487 0
M  V30 568 H 51.1615 0.108564 -0.72896 0
M  V30 569 H 53.8035 -0.418634 -1.85331 0
M  V30 570 H 51.9535 1.26935 -3.67178 0
M  V30 571 H 53.6255 -1.22224 -4.44814 0
M  V30 572 H 51.8685 -1.21615 -4.16404 0
M  V30 573 H 52.5395 -0.293287 -5.5122 0
M  V30 574 H 55.0155 0.96013 -4.04871 0
M  V30 575 H 53.8915 1.69454 -5.22088 0
M  V30 576 H 54.1525 2.47011 -3.66658 0
M  V30 577 N 53.2116 1.57565 -0.0334293 0
M  V30 578 C 54.1416 2.13511 0.945265 0
M  V30 579 C 55.1226 1.05231 1.33643 0
M  V30 580 O 56.3076 1.33084 1.41429 0
M  V30 581 C 53.4376 2.6657 2.22616 0
M  V30 582 C 52.3916 3.79676 1.97561 0
M  V30 583 C 51.7176 4.1918 3.31952 0
M  V30 584 C 53.0176 5.0557 1.31135 0
M  V30 585 H 54.7116 2.95538 0.479325 0
M  V30 586 H 52.2576 1.42166 0.229115 0
M  V30 587 H 54.2106 3.04344 2.91466 0
M  V30 588 H 52.9346 1.8171 2.71384 0
M  V30 589 H 51.5936 3.42347 1.31127 0
M  V30 590 H 51.2416 3.31296 3.78487 0
M  V30 591 H 50.9416 4.95402 3.15992 0
M  V30 592 H 52.4656 4.59541 4.02063 0
M  V30 593 H 53.8796 5.40903 1.89992 0
M  V30 594 H 52.2766 5.86818 1.25559 0
M  V30 595 H 53.3466 4.84062 0.284894 0
M  V30 596 N 54.6897 -0.239769 1.55765 0
M  V30 597 C 55.9357 -0.968234 1.78194 0
M  V30 598 C 56.2687 -1.84701 0.599938 0
M  V30 599 O 55.5437 -1.9031 -0.401524 0
M  V30 600 C 55.8267 -1.8227 3.10564 0
M  V30 601 C 55.6797 -0.971633 4.3918 0
M  V30 602 C 56.9987 -2.80388 3.39221 0
M  V30 603 H 54.1177 -0.350572 0.648281 0
M  V30 604 H 56.7597 -0.238259 1.885 0
M  V30 605 H 54.9097 -2.44507 3.01908 0
M  V30 606 H 56.5817 -0.367408 4.59835 0
M  V30 607 H 54.8247 -0.276276 4.32919 0
M  V30 608 H 55.4957 -1.60346 5.28198 0
M  V30 609 H 57.9717 -2.28287 3.47885 0
M  V30 610 H 56.8477 -3.3729 4.33044 0
M  V30 611 H 57.1087 -3.57212 2.60484 0
M  V30 612 N 56.1678 -1.49265 -0.50573 0
M  V30 613 C 57.5838 -1.35923 -0.836486 0
M  V30 614 C 57.7838 -0.388704 -1.97715 0
M  V30 615 O 56.8398 0.181336 -2.51848 0
M  V30 616 C 58.1528 -2.76531 -1.18115 0
M  V30 617 C 59.7008 -2.85197 -1.28964 0
M  V30 618 C 60.1758 -4.26561 -1.66761 0
M  V30 619 N 61.6668 -4.2935 -1.73819 0
M  V30 620 C 62.4018 -5.35693 -2.045 0
M  V30 621 N 61.8978 -6.52287 -2.33438 0
M  V30 622 N 63.6908 -5.23105 -2.05711 0
M  V30 623 H 55.8418 -2.10965 0.246519 0
M  V30 624 H 58.1048 -0.9468 0.0476887 0
M  V30 625 H 57.8108 -3.49226 -0.416398 0
M  V30 626 H 57.6848 -3.11599 -2.1257 0
M  V30 627 H 60.0718 -2.12742 -2.04511 0
M  V30 628 H 60.1528 -2.53718 -0.325704 0
M  V30 629 H 59.7968 -4.99541 -0.917656 0
M  V30 630 H 59.7268 -4.55502 -2.64246 0
M  V30 631 H 62.2178 -3.4526 -1.53635 0
M  V30 632 H 62.5308 -7.29158 -2.56024 0
M  V30 633 H 60.8758 -6.55521 -2.30905 0
M  V30 634 H 64.0668 -4.31026 -1.82577 0
M  V30 635 H 64.2398 -6.06078 -2.29289 0
M  V30 636 N 57.6459 0.756429 -1.3826 0
M  V30 637 C 58.5559 1.9009 -1.37488 0
M  V30 638 C 59.5719 1.71855 -0.272366 0
M  V30 639 O 60.7479 1.94827 -0.510318 0
M  V30 640 C 57.8129 3.25421 -1.19592 0
M  V30 641 C 56.8739 3.56202 -2.39622 0
M  V30 642 C 56.1069 4.85075 -2.2257 0
M  V30 643 O 56.3299 5.57246 -1.21793 0
M  V30 644 O 55.2639 5.15269 -3.11098 0
M  V30 645 H 59.0899 1.93695 -2.33914 0
M  V30 646 H 56.6749 0.901313 -1.1915 0
M  V30 647 H 58.5569 4.06337 -1.11661 0
M  V30 648 H 57.2319 3.22634 -0.262486 0
M  V30 649 H 56.1389 2.75458 -2.53128 0
M  V30 650 H 57.4719 3.63747 -3.31586 0
M  V30 651 N 59.124 1.23083 0.984299 0
M  V30 652 C 60.074 0.975749 2.06066 0
M  V30 653 C 61.058 -0.0768251 1.60716 0
M  V30 654 O 62.25 0.134805 1.76486 0
M  V30 655 C 59.379 0.564673 3.38624 0
M  V30 656 C 58.465 1.65244 3.90583 0
M  V30 657 N 58.856 2.88193 4.15666 0
M  V30 658 C 57.154 1.52612 4.19077 0
M  V30 659 C 57.855 3.58593 4.58024 0
M  V30 660 N 56.831 2.86093 4.62225 0
M  V30 661 H 60.633 1.90957 2.23411 0
M  V30 662 H 58.147 1.12963 1.16675 0
M  V30 663 H 60.144 0.36322 4.15315 0
M  V30 664 H 58.804 -0.362147 3.22674 0
M  V30 665 H 59.815 3.24537 4.03604 0
M  V30 666 H 56.492 0.666121 4.12152 0
M  V30 667 H 57.882 4.63974 4.85982 0
M  V30 668 N 60.6021 -1.18246 1.0419 0
M  V30 669 C 61.8271 -1.92736 0.765996 0
M  V30 670 C 62.2521 -1.75728 -0.67091 0
M  V30 671 O 61.6101 -1.06825 -1.46486 0
M  V30 672 C 61.6581 -3.42148 1.13875 0
M  V30 673 O 60.7621 -4.11548 0.264954 0
M  V30 674 H 60.1031 -0.601238 0.281797 0
M  V30 675 H 62.6331 -1.49942 1.39207 0
M  V30 676 H 62.6431 -3.92858 1.1012 0
M  V30 677 H 61.3181 -3.53848 2.18551 0
M  V30 678 H 59.8951 -3.71137 0.362226 0
M  V30 679 N 62.0802 -0.821533 -1.34494 0
M  V30 680 C 63.0282 -0.230702 -2.31453 0
M  V30 681 C 64.0222 0.627793 -1.57338 0
M  V30 682 O 65.2282 0.519288 -1.72347 0
M  V30 683 H 61.6032 -0.0558577 -0.749923 0
M  V30 684 H 63.5742 -1.06332 -2.78812 0
M  V30 685 C 62.3232 0.59391 -3.4259 0
M  V30 686 H 61.6462 -0.0573588 -3.99759 0
M  V30 687 H 63.0862 0.973446 -4.12674 0
M  V30 688 C 61.5452 1.76568 -2.86924 0
M  V30 689 O 62.0752 2.8638 -2.81691 0
M  V30 690 N 60.2812 1.58198 -2.43766 0
M  V30 691 H 59.8282 0.68872 -2.48222 0
M  V30 692 H 59.7862 2.36752 -2.06871 0
M  V30 693 N 63.5583 1.46682 -0.576371 0
M  V30 694 C 64.4883 2.33028 0.148397 0
M  V30 695 C 65.4693 1.44961 0.889956 0
M  V30 696 O 66.6543 1.73789 0.866662 0
M  V30 697 C 63.7843 3.27117 1.1667 0
M  V30 698 C 62.7383 4.24575 0.540386 0
M  V30 699 C 62.0643 5.08126 1.6647 0
M  V30 700 C 63.3643 5.19722 -0.518331 0
M  V30 701 H 65.0583 2.93875 -0.572509 0
M  V30 702 H 62.6043 1.41315 -0.276768 0
M  V30 703 H 64.5573 3.86374 1.68204 0
M  V30 704 H 63.2813 2.64364 1.9178 0
M  V30 705 H 61.9403 3.66571 0.0461769 0
M  V30 706 H 61.5883 4.41762 2.40531 0
M  V30 707 H 61.2883 5.74122 1.25131 0
M  V30 708 H 62.8123 5.70246 2.18293 0
M  V30 709 H 64.2263 5.73232 -0.0883058 0
M  V30 710 H 62.6233 5.94026 -0.851679 0
M  V30 711 H 63.6933 4.64037 -1.40703 0
M  V30 712 N 65.0364 0.313813 1.54444 0
M  V30 713 C 66.2614 -0.296681 2.05267 0
M  V30 714 C 66.6864 -1.45757 1.18897 0
M  V30 715 O 66.0444 -1.80239 0.195886 0
M  V30 716 C 66.0924 -0.71831 3.53373 0
M  V30 717 O 65.1964 -1.82175 3.69981 0
M  V30 718 H 64.5374 -0.0554061 0.661684 0
M  V30 719 H 67.0674 0.459387 1.99376 0
M  V30 720 H 67.0774 -1.00364 3.95463 0
M  V30 721 H 65.7524 0.130821 4.15694 0
M  V30 722 H 64.3294 -1.53598 3.39797 0
M  V30 723 N 66.5145 -1.57545 0.0417849 0
M  V30 724 C 67.7425 -1.96624 -0.643928 0
M  V30 725 C 68.1575 -0.918897 -1.64929 0
M  V30 726 O 67.5145 0.0979323 -1.82237 0
M  V30 727 C 67.5655 -3.35781 -1.33914 0
M  V30 728 O 67.2865 -4.365 -0.374048 0
M  V30 729 C 68.7875 -3.89566 -2.1155 0
M  V30 730 H 66.0075 -0.647316 -0.176702 0
M  V30 731 H 68.5515 -2.04229 0.105304 0
M  V30 732 H 66.7065 -3.29357 -2.03968 0
M  V30 733 H 67.1205 -5.17248 -0.869179 0
M  V30 734 H 68.5945 -4.89242 -2.55628 0
M  V30 735 H 69.0715 -3.24488 -2.9598 0
M  V30 736 H 69.6775 -3.99298 -1.46427 0
M  V30 737 N 67.9926 0.231505 -1.5589 0
M  V30 738 C 68.9226 1.29022 -1.94617 0
M  V30 739 C 69.9036 1.4941 -0.813067 0
M  V30 740 O 71.0886 1.6176 -1.07459 0
M  V30 741 C 68.2186 2.64199 -2.25424 0
M  V30 742 C 67.1726 2.58484 -3.41131 0
M  V30 743 C 66.4986 3.97599 -3.57518 0
M  V30 744 C 67.7986 2.1413 -4.76388 0
M  V30 745 H 69.4926 0.968563 -2.83301 0
M  V30 746 H 67.0386 0.464479 -1.36303 0
M  V30 747 H 68.9916 3.38413 -2.51107 0
M  V30 748 H 67.7156 2.98032 -1.33583 0
M  V30 749 H 66.3746 1.86727 -3.15481 0
M  V30 750 H 66.0226 4.28723 -2.6307 0
M  V30 751 H 65.7226 3.94659 -4.35337 0
M  V30 752 H 67.2466 4.7349 -3.85538 0
M  V30 753 H 68.6606 2.78083 -5.01341 0
M  V30 754 H 67.0576 2.2227 -5.57419 0
M  V30 755 H 68.1276 1.09331 -4.72414 0
M  V30 756 N 69.4707 1.49531 0.497807 0
M  V30 757 C 70.3807 1.69176 1.62532 0
M  V30 758 C 71.3967 0.5744 1.64246 0
M  V30 759 O 72.5727 0.849497 1.82608 0
M  V30 760 C 69.6377 1.75695 2.98885 0
M  V30 761 C 68.6987 2.9929 3.07773 0
M  V30 762 C 67.9317 3.05488 4.37622 0
M  V30 763 O 68.1547 2.19192 5.26603 0
M  V30 764 O 67.0887 3.9798 4.51548 0
M  V30 765 H 70.9147 2.647 1.48887 0
M  V30 766 H 68.4997 1.3331 0.674441 0
M  V30 767 H 70.3817 1.82317 3.79919 0
M  V30 768 H 69.0567 0.8335 3.12785 0
M  V30 769 H 67.9637 2.98183 2.25915 0
M  V30 770 H 69.2967 3.91125 2.98801 0
M  V30 771 N 70.9488 -0.749086 1.3866 0
M  V30 772 C 71.8958 -1.86291 1.36251 0
M  V30 773 C 72.8658 -1.64578 0.224347 0
M  V30 774 O 74.0508 -1.86181 0.417279 0
M  V30 775 C 71.1908 -3.23644 1.19786 0
M  V30 776 C 70.3038 -3.57158 2.43027 0
M  V30 777 C 69.4388 -4.83838 2.19258 0
M  V30 778 C 68.4778 -5.10152 3.38247 0
M  V30 779 N 67.6148 -6.28029 3.13884 0
M  V30 780 H 72.4548 -1.87685 2.3147 0
M  V30 781 H 69.9918 -0.917287 1.14997 0
M  V30 782 H 71.9498 -4.0291 1.08254 0
M  V30 783 H 70.5798 -3.21566 0.282031 0
M  V30 784 H 69.6318 -2.72701 2.65214 0
M  V30 785 H 70.9438 -3.7253 3.31697 0
M  V30 786 H 70.0978 -5.71057 2.04888 0
M  V30 787 H 68.8368 -4.70614 1.2796 0
M  V30 788 H 67.8418 -4.21401 3.53131 0
M  V30 789 H 69.0668 -5.25271 4.30427 0
M  V30 790 H 67.0128 -6.1612 2.25238 0
M  V30 791 H 66.9298 -6.43922 3.96106 0
M  V30 792 H 68.1978 -7.18124 3.03179 0
M  V30 793 N 72.4269 -1.23603 -0.977757 0
M  V30 794 C 73.6739 -1.06971 -1.71941 0
M  V30 795 C 74.0019 0.393009 -1.90488 0
M  V30 796 O 73.2569 1.30719 -1.4564 0
M  V30 797 C 73.5559 -1.7433 -3.11999 0
M  V30 798 C 73.2219 -3.24252 -3.13323 0
M  V30 799 C 71.8839 -3.65156 -3.13392 0
M  V30 800 C 74.2359 -4.20141 -3.08433 0
M  V30 801 C 71.5639 -5.00403 -3.0629 0
M  V30 802 C 73.9159 -5.55384 -3.02873 0
M  V30 803 C 72.5799 -5.95647 -3.01265 0
M  V30 804 H 71.8499 -0.391433 -0.629175 0
M  V30 805 H 74.4969 -1.53572 -1.14403 0
M  V30 806 H 72.8019 -1.20096 -3.7294 0
M  V30 807 H 74.4989 -1.58936 -3.68158 0
M  V30 808 H 71.0889 -2.91692 -3.14029 0
M  V30 809 H 75.2729 -3.89547 -3.07517 0
M  V30 810 H 70.5289 -5.3081 -3.03399 0
M  V30 811 H 74.7029 -6.29398 -2.98046 0
M  V30 812 H 72.3299 -7.0041 -2.95516 0
M  V30 813 N 73.905 1.17692 -1.04816 0
M  V30 814 C 75.135 1.91508 -0.775128 0
M  V30 815 C 75.543 1.76844 0.67253 0
M  V30 816 O 74.886 1.10057 1.47082 0
M  V30 817 C 74.948 3.43167 -1.0713 0
M  V30 818 C 74.612 3.81612 -2.51438 0
M  V30 819 C 75.609 3.84772 -3.49638 0
M  V30 820 C 73.294 4.12687 -2.86348 0
M  V30 821 C 75.288 4.18469 -4.80794 0
M  V30 822 C 72.975 4.46053 -4.17708 0
M  V30 823 C 73.973 4.48921 -5.14741 0
M  V30 824 O 73.661 4.81504 -6.43746 0
M  V30 825 H 73.393 0.614575 -0.281555 0
M  V30 826 H 75.947 1.50206 -1.40098 0
M  V30 827 H 74.177 3.84745 -0.388342 0
M  V30 828 H 75.866 3.98239 -0.784883 0
M  V30 829 H 76.632 3.60893 -3.24008 0
M  V30 830 H 72.511 4.09627 -2.11486 0
M  V30 831 H 76.055 4.20623 -5.56527 0
M  V30 832 H 71.952 4.69393 -4.43103 0
M  V30 833 H 72.72 4.99377 -6.4851 0
M  V30 834 N 75.3831 0.828654 1.34056 0
M  V30 835 C 76.6301 0.419458 1.98108 0
M  V30 836 C 76.9581 -1.01886 1.65679 0
M  V30 837 O 76.2131 -1.72539 0.923512 0
M  V30 838 C 76.5121 0.575226 3.52741 0
M  V30 839 C 76.1781 1.98012 4.05095 0
M  V30 840 C 74.8401 2.36442 4.19104 0
M  V30 841 C 77.1921 2.89824 4.33188 0
M  V30 842 C 74.5201 3.66009 4.58535 0
M  V30 843 C 76.8721 4.1886 4.74066 0
M  V30 844 C 75.5361 4.5726 4.86281 0
M  V30 845 H 74.8061 0.153491 0.724929 0
M  V30 846 H 77.4531 1.05371 1.59904 0
M  V30 847 H 75.7581 -0.142385 3.91541 0
M  V30 848 H 77.4551 0.239057 4.00287 0
M  V30 849 H 74.0451 1.67162 3.94658 0
M  V30 850 H 78.2291 2.61375 4.21897 0
M  V30 851 H 73.4851 3.95579 4.66184 0
M  V30 852 H 77.6591 4.90086 4.94761 0
M  V30 853 H 75.2861 5.57707 5.16592 0
M  V30 854 N 76.8612 -1.46375 0.584142 0
M  V30 855 C 77.8242 -2.28784 -0.138108 0
M  V30 856 C 78.8242 -1.38471 -0.817462 0
M  V30 857 O 80.0142 -1.60833 -0.669199 0
M  V30 858 C 77.1462 -3.18892 -1.20503 0
M  V30 859 H 78.3392 -2.94117 0.586127 0
M  V30 860 H 75.8922 -1.52509 0.342171 0
M  V30 861 H 76.6272 -2.58309 -1.96079 0
M  V30 862 H 76.4122 -3.85388 -0.722384 0
M  V30 863 H 77.9022 -3.80914 -1.71155 0
M  V30 864 N 78.3393 -0.321999 -1.54275 0
M  V30 865 C 79.5863 0.281044 -2.0054 0
M  V30 866 C 79.9143 1.52265 -1.21019 0
M  V30 867 O 79.1693 1.93687 -0.279982 0
M  V30 868 C 79.4683 0.661769 -3.5122 0
M  V30 869 C 79.1343 -0.480482 -4.48333 0
M  V30 870 C 77.7963 -0.794005 -4.74604 0
M  V30 871 C 80.1483 -1.24783 -5.06042 0
M  V30 872 C 77.4763 -1.87763 -5.55844 0
M  V30 873 C 79.8283 -2.32153 -5.88462 0
M  V30 874 C 78.4923 -2.64089 -6.13036 0
M  V30 875 H 77.7623 0.102841 -0.733829 0
M  V30 876 H 80.4093 -0.445453 -1.86247 0
M  V30 877 H 78.7143 1.46867 -3.63232 0
M  V30 878 H 80.4113 1.13989 -3.84457 0
M  V30 879 H 77.0013 -0.226039 -4.28004 0
M  V30 880 H 81.1853 -1.01887 -4.85729 0
M  V30 881 H 76.4413 -2.12954 -5.73115 0
M  V30 882 H 80.6153 -2.92057 -6.32199 0
M  V30 883 H 78.2423 -3.48185 -6.75775 0
M  V30 884 N 79.8174 1.5752 -0.0501392 0
M  V30 885 C 81.2284 1.80271 0.485705 0
M  V30 886 C 81.5794 0.96228 1.70981 0
M  V30 887 O 80.7044 0.178578 2.15662 0
M  V30 888 C 81.2994 3.26957 0.887938 0
M  V30 889 C 79.8584 3.5063 1.36877 0
M  V30 890 C 79.0054 2.75165 0.343468 0
M  V30 891 H 81.9564 1.56281 -0.276028 0
M  V30 892 H 81.9774 3.37821 1.75093 0
M  V30 893 H 81.4894 3.881 -0.0031809 0
M  V30 894 H 79.5904 2.94766 2.27911 0
M  V30 895 H 79.7034 4.59343 1.36164 0
M  V30 896 H 78.0674 2.4127 0.816128 0
M  V30 897 H 78.8504 3.39034 -0.539548 0
M  V30 898 N 81.2955 -0.223234 1.56011 0
M  V30 899 C 82.5435 -0.946003 1.78592 0
M  V30 900 C 82.8645 -1.84936 0.618349 0
M  V30 901 O 82.1345 -1.92473 -0.364833 0
M  V30 902 H 80.7145 -0.352298 0.658707 0
M  V30 903 H 83.3765 -0.235494 1.93472 0
M  V30 904 H 82.4725 -1.55381 2.70672 0
M  V30 905 N 82.7736 -1.49793 -0.48987 0
M  V30 906 C 83.6836 -1.70036 -1.61632 0
M  V30 907 C 84.6996 -0.583102 -1.63939 0
M  V30 908 O 85.8756 -0.859169 -1.82154 0
M  V30 909 C 82.9406 -1.77277 -2.97949 0
M  V30 910 C 82.0016 -3.00918 -3.06181 0
M  V30 911 C 81.2346 -3.07804 -4.35996 0
M  V30 912 O 81.4576 -2.21982 -5.25433 0
M  V30 913 O 80.3916 -4.00369 -4.49431 0
M  V30 914 H 84.2176 -2.65486 -1.47482 0
M  V30 915 H 81.8026 -1.33666 -0.667362 0
M  V30 916 H 83.6846 -1.84329 -3.78947 0
M  V30 917 H 82.3596 -0.850076 -3.12339 0
M  V30 918 H 81.2666 -2.99377 -2.2433 0
M  V30 919 H 82.5996 -3.92704 -2.96723 0
M  V30 920 N 84.2517 0.741722 -1.39055 0
M  V30 921 C 85.5007 1.49656 -1.35225 0
M  V30 922 C 85.8137 1.95533 0.0512708 0
M  V30 923 O 87.0197 2.7067 0.212138 0
M  V30 924 C 85.4757 2.70389 -2.37525 0
M  V30 925 C 85.0837 2.31489 -3.83558 0
M  V30 926 C 86.8277 3.48236 -2.42759 0
M  V30 927 C 84.7347 3.48903 -4.77515 0
M  V30 928 H 83.6647 0.56197 -0.502699 0
M  V30 929 H 86.3157 0.809727 -1.64668 0
M  V30 930 H 84.6977 3.41113 -2.01142 0
M  V30 931 H 85.8717 1.68354 -4.28945 0
M  V30 932 H 84.1867 1.66749 -3.81554 0
M  V30 933 H 86.7837 4.35558 -3.1015 0
M  V30 934 H 87.1267 3.90229 -1.45008 0
M  V30 935 H 87.6597 2.84535 -2.78002 0
M  V30 936 H 84.3987 3.11966 -5.76504 0
M  V30 937 H 83.9187 4.11041 -4.36813 0
M  V30 938 H 85.5977 4.15328 -4.96096 0
M  V30 939 N 85.7298 1.2412 0.971189 0
M  V30 940 C 86.6598 1.05508 2.08304 0
M  V30 941 C 87.6408 -0.0308864 1.70072 0
M  V30 942 O 88.8258 0.135521 1.93727 0
M  V30 943 C 85.9558 0.655365 3.4106 0
M  V30 944 C 84.9098 1.68971 3.93234 0
M  V30 945 C 84.2358 1.14516 5.22293 0
M  V30 946 C 85.5358 3.08487 4.21465 0
M  V30 947 H 87.2298 1.98507 2.24132 0
M  V30 948 H 84.7758 0.955821 1.07704 0
M  V30 949 H 86.7288 0.51217 4.18276 0
M  V30 950 H 85.4528 -0.31032 3.25122 0
M  V30 951 H 84.1118 1.82106 3.18171 0
M  V30 952 H 83.7598 0.170189 5.02712 0
M  V30 953 H 83.4598 1.83635 5.58168 0
M  V30 954 H 84.9838 1.01401 6.02121 0
M  V30 955 H 86.3978 2.98601 4.89398 0
M  V30 956 H 84.7948 3.74926 4.68562 0
M  V30 957 H 85.8648 3.56787 3.28376 0
M  V30 958 N 87.2079 -1.17134 1.05439 0
M  V30 959 C 88.1409 -2.2012 0.601855 0
M  V30 960 C 89.1189 -1.58314 -0.370854 0
M  V30 961 O 90.3029 -1.8638 -0.281882 0
M  V30 962 C 87.4299 -3.38491 -0.118868 0
M  V30 963 C 86.4759 -4.18752 0.809242 0
M  V30 964 S 87.3089 -4.83602 2.29977 0
M  V30 965 C 88.4649 -6.0536 1.59029 0
M  V30 966 H 88.6979 -2.58165 1.47438 0
M  V30 967 H 86.2309 -1.27788 0.866573 0
M  V30 968 H 88.1889 -4.07084 -0.528495 0
M  V30 969 H 86.8499 -2.98829 -0.967465 0
M  V30 970 H 86.0429 -5.03373 0.251379 0
M  V30 971 H 85.6449 -3.5561 1.15835 0
M  V30 972 H 87.9369 -6.71615 0.891017 0
M  V30 973 H 88.8799 -6.65679 2.41407 0
M  V30 974 H 89.2879 -5.54138 1.07663 0
M  V30 975 N 88.686 -0.835752 -1.33615 0
M  V30 976 C 90.102 -0.523139 -1.50783 0
M  V30 977 C 90.302 0.950171 -1.77691 0
M  V30 978 O 89.358 1.73411 -1.83534 0
M  V30 979 C 90.671 -1.39378 -2.66448 0
M  V30 980 C 92.219 -1.39223 -2.80332 0
M  V30 981 C 92.694 -2.24765 -3.99055 0
M  V30 982 N 94.185 -2.22458 -4.06284 0
M  V30 983 C 94.92 -2.85386 -4.97336 0
M  V30 984 N 94.416 -3.57354 -5.93523 0
M  V30 985 N 96.209 -2.74872 -4.90308 0
M  V30 986 H 88.36 -1.78952 -1.14411 0
M  V30 987 H 90.623 -0.763297 -0.562212 0
M  V30 988 H 90.329 -2.44061 -2.53234 0
M  V30 989 H 90.203 -1.0676 -3.61776 0
M  V30 990 H 92.59 -0.353136 -2.92979 0
M  V30 991 H 92.671 -1.75846 -1.85773 0
M  V30 992 H 92.315 -3.28732 -3.87167 0
M  V30 993 H 92.245 -1.85485 -4.92852 0
M  V30 994 H 94.736 -1.70119 -3.37443 0
M  V30 995 H 95.049 -4.02584 -6.59656 0
M  V30 996 H 93.394 -3.61461 -5.93608 0
M  V30 997 H 96.585 -2.18213 -4.14126 0
M  V30 998 H 96.758 -3.24199 -5.61069 0
M  V30 999 N 90.1641 1.46063 -0.591896 0
M  V30 1000 C 91.0971 2.27452 0.184617 0
M  V30 1001 C 92.0751 1.36188 0.888351 0
M  V30 1002 O 93.2591 1.65606 0.90039 0
M  V30 1003 C 90.3861 3.14162 1.26571 0
M  V30 1004 C 89.4321 4.21255 0.666814 0
M  V30 1005 S 90.2651 5.33034 -0.513345 0
M  V30 1006 C 91.4211 6.23311 0.56872 0
M  V30 1007 H 91.6541 2.92963 -0.505939 0
M  V30 1008 H 89.1871 1.49676 -0.379014 0
M  V30 1009 H 91.1451 3.6468 1.88463 0
M  V30 1010 H 89.8061 2.47946 1.92826 0
M  V30 1011 H 88.9991 4.81788 1.47974 0
M  V30 1012 H 88.6011 3.73797 0.123359 0
M  V30 1013 H 90.8931 6.61758 1.45198 0
M  V30 1014 H 91.8361 7.081 -7.23824e-05 0
M  V30 1015 H 92.2441 5.57646 0.876996 0
M  V30 1016 N 91.6422 0.330177 1.54103 0
M  V30 1017 C 92.5722 -0.525353 2.27513 0
M  V30 1018 C 93.5532 -1.11383 1.2856 0
M  V30 1019 O 94.7382 -1.13773 1.57383 0
M  V30 1020 C 91.8682 -1.6831 3.03791 0
M  V30 1021 C 90.8222 -1.2236 4.10137 0
M  V30 1022 C 90.1482 -2.46882 4.74293 0
M  V30 1023 C 91.4482 -0.333697 5.21233 0
M  V30 1024 H 93.1422 0.087013 2.99274 0
M  V30 1025 H 90.6882 0.0432893 1.43935 0
M  V30 1026 H 92.6412 -2.28795 3.5388 0
M  V30 1027 H 91.3652 -2.32216 2.29659 0
M  V30 1028 H 90.0242 -0.64165 3.60941 0
M  V30 1029 H 89.6722 -3.09165 3.96769 0
M  V30 1030 H 89.3722 -2.16825 5.46133 0
M  V30 1031 H 90.8962 -3.08117 5.27159 0
M  V30 1032 H 92.3102 -0.845013 5.67038 0
M  V30 1033 H 90.7072 -0.125612 5.99969 0
M  V30 1034 H 91.7772 0.633724 4.80741 0
M  V30 1035 N 93.1203 -1.57491 0.0584922 0
M  V30 1036 C 94.0673 -2.11958 -0.913376 0
M  V30 1037 C 95.0373 -1.02875 -1.30407 0
M  V30 1038 O 96.2223 -1.30464 -1.39226 0
M  V30 1039 C 93.3623 -2.67497 -2.18035 0
M  V30 1040 C 92.4753 -3.90691 -1.84349 0
M  V30 1041 C 91.6103 -4.3452 -3.05559 0
M  V30 1042 C 90.6493 -5.50395 -2.67827 0
M  V30 1043 N 89.7863 -5.89244 -3.81754 0
M  V30 1044 H 94.6263 -2.94704 -0.442017 0
M  V30 1045 H 92.1633 -1.45643 -0.206545 0
M  V30 1046 H 94.1213 -2.978 -2.92183 0
M  V30 1047 H 92.7513 -1.87537 -2.62735 0
M  V30 1048 H 91.8033 -3.66934 -1.00319 0
M  V30 1049 H 93.1153 -4.7489 -1.5258 0
M  V30 1050 H 92.2693 -4.66414 -3.87998 0
M  V30 1051 H 91.0083 -3.49147 -3.40511 0
M  V30 1052 H 90.0133 -5.18165 -1.83806 0
M  V30 1053 H 91.2383 -6.3749 -2.34059 0
M  V30 1054 H 89.1843 -5.06823 -4.16493 0
M  V30 1055 H 89.1013 -6.68151 -3.53708 0
M  V30 1056 H 90.3693 -6.25756 -4.64811 0
M  V30 1057 N 94.5984 0.214957 -1.56127 0
M  V30 1058 C 95.5284 1.2695 -1.95974 0
M  V30 1059 C 96.5094 1.48539 -0.828868 0
M  V30 1060 O 97.6944 1.60611 -1.09168 0
M  V30 1061 C 94.8244 2.61794 -2.28214 0
M  V30 1062 C 93.7784 2.54851 -3.43853 0
M  V30 1063 C 93.1044 3.93785 -3.61715 0
M  V30 1064 C 94.4044 2.09065 -4.78632 0
M  V30 1065 H 96.0984 0.93846 -2.84312 0
M  V30 1066 H 93.6444 0.449996 -1.36788 0
M  V30 1067 H 95.5974 3.35731 -2.54682 0
M  V30 1068 H 94.3214 2.96599 -1.36736 0
M  V30 1069 H 92.9804 1.8337 -3.17444 0
M  V30 1070 H 92.6284 4.25908 -2.67602 0
M  V30 1071 H 92.3284 3.90019 -4.39498 0
M  V30 1072 H 93.8524 4.69374 -3.90539 0
M  V30 1073 H 95.2664 2.7275 -5.04262 0
M  V30 1074 H 93.6634 2.16346 -5.59745 0
M  V30 1075 H 94.7334 1.04315 -4.73547 0
M  V30 1076 N 96.0765 1.50051 0.48192 0
M  V30 1077 C 97.3255 1.59741 1.23149 0
M  V30 1078 C 97.6385 0.298163 1.93314 0
M  V30 1079 O 98.8445 0.273835 2.70116 0
M  V30 1080 C 97.3005 2.81926 2.23708 0
M  V30 1081 C 96.9085 4.18685 1.59396 0
M  V30 1082 C 98.6525 3.00956 2.99375 0
M  V30 1083 C 96.5595 5.3207 2.58178 0
M  V30 1084 H 95.4895 0.594838 0.46334 0
M  V30 1085 H 98.1405 1.76467 0.503169 0
M  V30 1086 H 96.5225 2.58736 2.99786 0
M  V30 1087 H 97.6965 4.52088 0.891811 0
M  V30 1088 H 96.0115 4.05171 0.960503 0
M  V30 1089 H 98.6085 3.82836 3.73283 0
M  V30 1090 H 98.9515 2.12258 3.58123 0
M  V30 1091 H 99.4845 3.24277 2.30411 0
M  V30 1092 H 96.2235 6.22888 2.04184 0
M  V30 1093 H 95.7435 5.03098 3.26577 0
M  V30 1094 H 97.4225 5.62196 3.20225 0
M  V30 1095 N 97.5546 -0.734337 1.39446 0
M  V30 1096 C 98.8036 -1.48937 1.36017 0
M  V30 1097 C 99.1166 -1.95557 -0.0409005 0
M  V30 1098 O 100.323 -2.70779 -0.19778 0
M  V30 1099 C 98.7786 -2.69125 2.38955 0
M  V30 1100 C 98.3866 -2.29452 3.8478 0
M  V30 1101 C 100.131 -3.46944 2.44603 0
M  V30 1102 C 98.0376 -3.46366 4.79358 0
M  V30 1103 H 96.9676 -0.559296 0.505672 0
M  V30 1104 H 99.6186 -0.800983 1.65095 0
M  V30 1105 H 98.0006 -3.40041 2.02948 0
M  V30 1106 H 99.1746 -1.66077 4.29831 0
M  V30 1107 H 97.4896 -1.64723 3.82433 0
M  V30 1108 H 100.087 -4.33907 3.12456 0
M  V30 1109 H 100.43 -3.89454 1.47076 0
M  V30 1110 H 100.963 -2.83056 2.79507 0
M  V30 1111 H 97.7016 -3.08905 5.78151 0
M  V30 1112 H 97.2216 -4.08719 4.38986 0
M  V30 1113 H 98.9006 -4.12691 4.98292 0
M  V30 1114 N 99.0327 -1.24633 -0.964593 0
M  V30 1115 C 99.9627 -1.06611 -2.07741 0
M  V30 1116 C 100.944 0.0218666 -1.70086 0
M  V30 1117 O 102.129 -0.145793 -1.93652 0
M  V30 1118 C 99.2587 -0.673444 -3.40708 0
M  V30 1119 C 98.2127 -1.71054 -3.92332 0
M  V30 1120 C 97.5387 -1.17285 -5.21678 0
M  V30 1121 C 98.8387 -3.10718 -4.19824 0
M  V30 1122 H 100.533 -1.99693 -2.23076 0
M  V30 1123 H 98.0787 -0.96152 -1.07195 0
M  V30 1124 H 100.032 -0.534345 -4.17998 0
M  V30 1125 H 98.7557 0.293073 -3.25282 0
M  V30 1126 H 97.4147 -1.83791 -3.17201 0
M  V30 1127 H 97.0627 -0.196847 -5.02615 0
M  V30 1128 H 96.7627 -1.86592 -5.57187 0
M  V30 1129 H 98.2867 -1.04593 -6.01575 0
M  V30 1130 H 99.7007 -3.01192 -4.87808 0
M  V30 1131 H 98.0977 -3.77406 -4.66567 0
M  V30 1132 H 99.1677 -3.58524 -3.26479 0
M  V30 1133 N 100.511 1.16574 -1.06058 0
M  V30 1134 C 101.922 1.68662 -0.800632 0
M  V30 1135 C 102.273 1.84184 0.67608 0
M  V30 1136 O 101.398 1.53568 1.52466 0
M  V30 1137 C 101.993 3.06356 -1.44676 0
M  V30 1138 C 100.552 3.55575 -1.23465 0
M  V30 1139 C 99.6988 2.31616 -1.52477 0
M  V30 1140 H 102.65 1.00969 -1.22438 0
M  V30 1141 H 102.671 3.70636 -0.860788 0
M  V30 1142 H 102.183 2.95027 -2.52152 0
M  V30 1143 H 100.284 3.72167 -0.179527 0
M  V30 1144 H 100.397 4.37812 -1.94571 0
M  V30 1145 H 98.7608 2.36512 -0.945209 0
M  V30 1146 H 99.5438 2.22887 -2.61106 0
M  V30 1147 N 101.989 0.842826 1.3317 0
M  V30 1148 C 102.919 0.294028 2.31641 0
M  V30 1149 C 103.9 -0.600401 1.59151 0
M  V30 1150 O 105.085 -0.523124 1.87022 0
M  V30 1151 C 102.215 -0.528416 3.43257 0
M  V30 1152 C 101.169 0.27056 4.27144 0
M  V30 1153 C 100.495 -0.675881 5.30411 0
M  V30 1154 C 101.795 1.48981 5.00602 0
M  V30 1155 H 103.489 1.11681 2.77791 0
M  V30 1156 H 101.035 0.538478 1.33553 0
M  V30 1157 H 102.988 -0.922674 4.11175 0
M  V30 1158 H 101.712 -1.38445 2.95805 0
M  V30 1159 H 100.371 0.646427 3.60856 0
M  V30 1160 H 100.019 -1.52842 4.79216 0
M  V30 1161 H 99.7189 -0.145374 5.8742 0
M  V30 1162 H 101.243 -1.06757 6.01195 0
M  V30 1163 H 102.657 1.16849 5.61266 0
M  V30 1164 H 101.054 1.95739 5.6728 0
M  V30 1165 H 102.124 2.25746 4.29147 0
M  V30 1166 N 103.467 -1.45747 0.599634 0
M  V30 1167 C 104.716 -2.01502 0.0893511 0
M  V30 1168 C 105.029 -1.4748 -1.28488 0
M  V30 1169 O 106.235 -1.95161 -1.88745 0
M  V30 1170 C 104.691 -3.59735 0.109082 0
M  V30 1171 C 104.299 -4.22754 1.48267 0
M  V30 1172 C 106.043 -4.23085 -0.346374 0
M  V30 1173 C 103.95 -5.73115 1.45921 0
M  V30 1174 H 102.88 -0.753417 0.0296347 0
M  V30 1175 H 105.531 -1.67303 0.753788 0
M  V30 1176 H 103.913 -3.91087 -0.621854 0
M  V30 1177 H 105.087 -4.02987 2.23468 0
M  V30 1178 H 103.402 -3.71567 1.87955 0
M  V30 1179 H 105.999 -5.33327 -0.38298 0
M  V30 1180 H 106.342 -3.93201 -1.36743 0
M  V30 1181 H 106.875 -3.9642 0.331038 0
M  V30 1182 H 103.614 -6.07685 2.45762 0
M  V30 1183 H 103.134 -5.95097 0.749665 0
M  V30 1184 H 104.813 -6.3616 1.17941 0
M  V30 1185 N 104.945 -0.338344 -1.53925 0
M  V30 1186 C 106.194 0.260732 -2.00008 0
M  V30 1187 C 106.507 1.52073 -1.23017 0
M  V30 1188 O 107.713 2.19672 -1.5955 0
M  V30 1189 C 106.169 0.51515 -3.56194 0
M  V30 1190 C 105.777 -0.728645 -4.42035 0
M  V30 1191 C 107.521 1.07337 -4.10706 0
M  V30 1192 C 105.428 -0.445315 -5.89721 0
M  V30 1193 H 104.358 0.101205 -0.747177 0
M  V30 1194 H 107.009 -0.452866 -1.77824 0
M  V30 1195 H 105.391 1.28932 -3.74423 0
M  V30 1196 H 106.565 -1.50352 -4.35581 0
M  V30 1197 H 104.88 -1.20813 -3.98489 0
M  V30 1198 H 107.477 1.30022 -5.18651 0
M  V30 1199 H 107.82 2.0273 -3.63602 0
M  V30 1200 H 108.353 0.360034 -3.96167 0
M  V30 1201 H 105.092 -1.36883 -6.41049 0
M  V30 1202 H 104.612 0.291569 -5.99091 0
M  V30 1203 H 106.291 -0.0606218 -6.46972 0
M  V30 1204 N 106.423 1.57458 -0.0668435 0
M  V30 1205 C 107.648 1.9804 0.616027 0
M  V30 1206 C 108.073 0.944771 1.62652 0
M  V30 1207 O 107.431 -0.0902094 1.81075 0
M  V30 1208 C 107.479 3.37665 1.26549 0
M  V30 1209 O 106.583 3.36701 2.38131 0
M  V30 1210 H 105.924 0.644719 0.158849 0
M  V30 1211 H 108.454 2.04121 -0.139891 0
M  V30 1212 H 108.464 3.7474 1.6135 0
M  V30 1213 H 107.139 4.12573 0.525016 0
M  V30 1214 H 105.716 3.1139 2.0516 0
M  V30 1215 N 107.901 -0.206675 1.56239 0
M  V30 1216 C 109.126 -0.949474 1.8439 0
M  V30 1217 C 109.551 -1.76549 0.649016 0
M  V30 1218 O 108.909 -1.76782 -0.402231 0
M  V30 1219 C 108.957 -1.83078 3.10668 0
M  V30 1220 O 108.061 -2.9281 2.90407 0
M  V30 1221 H 107.402 -0.268033 0.607499 0
M  V30 1222 H 109.932 -0.215488 2.03462 0
M  V30 1223 H 109.942 -2.2377 3.41161 0
M  V30 1224 H 108.617 -1.23112 3.97261 0
M  V30 1225 H 107.194 -2.55956 2.71184 0
M  V30 1226 N 109.379 -1.50304 -0.473955 0
M  V30 1227 C 110.312 -1.63595 -1.59097 0
M  V30 1228 C 111.29 -0.484142 -1.55225 0
M  V30 1229 O 112.474 -0.703271 -1.7489 0
M  V30 1230 C 109.601 -1.61589 -2.97669 0
M  V30 1231 C 108.647 -2.82295 -3.19705 0
M  V30 1232 S 109.48 -4.43635 -2.99913 0
M  V30 1233 C 110.636 -4.44317 -4.40832 0
M  V30 1234 H 110.869 -2.58082 -1.47583 0
M  V30 1235 H 108.402 -1.39531 -0.661087 0
M  V30 1236 H 110.36 -1.61116 -3.7756 0
M  V30 1237 H 109.021 -0.683421 -3.06575 0
M  V30 1238 H 108.214 -2.77188 -4.20931 0
M  V30 1239 H 107.816 -2.8032 -2.47582 0
M  V30 1240 H 110.108 -4.17703 -5.33414 0
M  V30 1241 H 111.051 -5.45911 -4.50984 0
M  V30 1242 H 111.459 -3.74059 -4.22777 0
M  V30 1243 N 110.857 0.726932 -1.39834 0
M  V30 1244 C 112.106 1.48214 -1.36805 0
M  V30 1245 C 112.419 1.95576 0.0305291 0
M  V30 1246 O 113.625 2.7088 0.183417 0
M  V30 1247 C 112.081 2.67854 -2.40379 0
M  V30 1248 C 111.689 2.27408 -3.85992 0
M  V30 1249 C 113.433 3.45641 -2.46439 0
M  V30 1250 C 111.34 3.43819 -4.81189 0
M  V30 1251 H 110.27 0.556606 -0.508631 0
M  V30 1252 H 112.921 0.792216 -1.65518 0
M  V30 1253 H 111.303 3.3896 -2.04749 0
M  V30 1254 H 112.477 1.63795 -4.30706 0
M  V30 1255 H 110.792 1.62692 -3.83302 0
M  V30 1256 H 113.389 4.32244 -3.14753 0
M  V30 1257 H 113.732 3.88669 -1.49139 0
M  V30 1258 H 114.265 2.8157 -2.81004 0
M  V30 1259 H 111.004 3.05834 -5.79781 0
M  V30 1260 H 110.524 4.06385 -4.41148 0
M  V30 1261 H 112.203 4.10043 -5.00474 0
M  V30 1262 N 112.336 1.25143 0.95797 0
M  V30 1263 C 113.564 1.12424 1.73691 0
M  V30 1264 C 113.979 -0.322304 1.86029 0
M  V30 1265 O 113.336 -1.22186 1.35561 0
M  V30 1266 C 113.387 1.76933 3.15241 0
M  V30 1267 O 113.108 3.15932 3.03511 0
M  V30 1268 C 114.609 1.6995 4.09429 0
M  V30 1269 H 111.829 0.3923 0.544373 0
M  V30 1270 H 114.373 1.6544 1.20207 0
M  V30 1271 H 112.528 1.27895 3.6568 0
M  V30 1272 H 112.942 3.47598 3.9278 0
M  V30 1273 H 114.416 2.19753 5.06372 0
M  V30 1274 H 114.893 0.662619 4.34173 0
M  V30 1275 H 115.499 2.18461 3.64904 0
M  V30 1276 N 113.814 -1.1601 1.06675 0
M  V30 1277 C 115.062 -1.86264 0.784229 0
M  V30 1278 C 115.383 -1.82328 -0.691488 0
M  V30 1279 O 114.653 -1.25947 -1.50047 0
M  V30 1280 H 113.233 -0.689621 0.28711 0
M  V30 1281 H 115.895 -1.40664 1.34906 0
M  V30 1282 H 114.991 -2.91595 1.11259 0
M  V30 1283 N 115.292 -0.849877 -1.32721 0
M  V30 1284 C 116.538 -0.451591 -1.97708 0
M  V30 1285 C 116.871 0.989175 -1.6712 0
M  V30 1286 O 116.146 1.69334 -0.956891 0
M  V30 1287 C 116.429 -0.685598 -3.53513 0
M  V30 1288 C 116.282 -2.17444 -3.93749 0
M  V30 1289 C 117.601 -0.138874 -4.39881 0
M  V30 1290 H 114.72 -0.16555 -0.718166 0
M  V30 1291 H 117.362 -1.06742 -1.57182 0
M  V30 1292 H 115.512 -0.161416 -3.88165 0
M  V30 1293 H 117.184 -2.76433 -3.693 0
M  V30 1294 H 115.427 -2.65476 -3.43081 0
M  V30 1295 H 116.098 -2.28888 -5.02309 0
M  V30 1296 H 118.574 -0.587068 -4.11938 0
M  V30 1297 H 117.45 -0.332213 -5.47894 0
M  V30 1298 H 117.711 0.95806 -4.31594 0
M  V30 1299 N 116.77 1.45427 -0.607355 0
M  V30 1300 C 117.733 2.28974 0.101693 0
M  V30 1301 C 118.733 1.39754 0.795329 0
M  V30 1302 O 119.923 1.61878 0.643527 0
M  V30 1303 C 117.055 3.20768 1.15414 0
M  V30 1304 H 118.248 2.93147 -0.632844 0
M  V30 1305 H 115.801 1.51945 -0.366391 0
M  V30 1306 H 116.536 2.61395 1.91945 0
M  V30 1307 H 116.321 3.86489 0.66098 0
M  V30 1308 H 117.811 3.83589 1.65073 0
M  V30 1309 N 118.248 0.346503 1.53744 0
M  V30 1310 C 119.211 -0.496439 2.23759 0
M  V30 1311 C 120.211 -1.0252 1.2388 0
M  V30 1312 O 121.401 -0.913974 1.48297 0
M  V30 1313 C 118.533 -1.69187 2.95954 0
M  V30 1314 H 119.726 0.115952 2.99676 0
M  V30 1315 H 117.279 0.0978939 1.55993 0
M  V30 1316 H 118.014 -2.34288 2.24231 0
M  V30 1317 H 117.799 -1.31989 3.69217 0
M  V30 1318 H 119.289 -2.28969 3.49232 0
M  V30 1319 N 119.726 -1.57421 0.075193 0
M  V30 1320 C 120.656 -2.15942 -0.888324 0
M  V30 1321 C 121.637 -1.08737 -1.30806 0
M  V30 1322 O 122.822 -1.36787 -1.37851 0
M  V30 1323 C 119.952 -2.72379 -2.1547 0
M  V30 1324 C 118.906 -3.8478 -1.87425 0
M  V30 1325 C 118.232 -4.27834 -3.20721 0
M  V30 1326 C 119.532 -5.08869 -1.17684 0
M  V30 1327 H 121.226 -2.96705 -0.400799 0
M  V30 1328 H 118.772 -1.42723 -0.191342 0
M  V30 1329 H 120.725 -3.11965 -2.83295 0
M  V30 1330 H 119.449 -1.88841 -2.6647 0
M  V30 1331 H 118.108 -3.45703 -1.22004 0
M  V30 1332 H 117.756 -3.41214 -3.6957 0
M  V30 1333 H 117.456 -5.03605 -3.02746 0
M  V30 1334 H 118.98 -4.70039 -3.89738 0
M  V30 1335 H 120.394 -5.4575 -1.75584 0
M  V30 1336 H 118.791 -5.8994 -1.09956 0
M  V30 1337 H 119.861 -4.84648 -0.156453 0
M  V30 1338 N 121.204 0.198386 -1.56346 0
M  V30 1339 C 122.481 0.944982 -1.71258 0
M  V30 1340 C 122.861 2.0151 -0.629048 0
M  V30 1341 O 122.209 2.25639 0.360473 0
M  V30 1342 C 122.419 1.5344 -3.1346 0
M  V30 1343 C 123.767 2.01778 -3.73591 0
M  V30 1344 O 124.791 1.63288 -3.16568 0
M  V30 1345 O 123.65 2.72594 -4.73661 0
M  V30 1346 H 120.744 0.442939 -0.69838 0
M  V30 1347 H 123.29 0.188342 -1.68652 0
M  V30 1348 H 122.062 0.762869 -3.83792 0
M  V30 1349 H 121.685 2.35596 -3.20282 0
M  V30 1350 N 122.682 1.50554 0.465978 0
M  V30 1351 C 123.907 1.65838 1.24549 0
M  V30 1352 C 124.332 0.343486 1.84937 0
M  V30 1353 O 123.69 -0.69324 1.67523 0
M  V30 1354 C 123.738 2.75533 2.32624 0
M  V30 1355 O 122.842 2.37142 3.37398 0
M  V30 1356 H 122.183 0.553893 0.366194 0
M  V30 1357 H 124.713 1.96959 0.553927 0
M  V30 1358 H 124.723 2.98763 2.77857 0
M  V30 1359 H 123.398 3.70962 1.88043 0
M  V30 1360 H 121.975 2.24377 2.97841 0
M  V30 1361 N 124.16 -0.719506 1.40217 0
M  V30 1362 C 125.108 -1.85493 1.40339 0
M  V30 1363 C 126.102 -1.66995 0.284415 0
M  V30 1364 O 127.308 -1.74148 0.455252 0
M  V30 1365 H 123.683 -0.610857 0.438586 0
M  V30 1366 H 125.654 -1.82506 2.36081 0
M  V30 1367 C 124.403 -3.23321 1.27901 0
M  V30 1368 H 123.726 -3.38159 2.1328 0
M  V30 1369 H 125.166 -4.02914 1.32045 0
M  V30 1370 C 123.625 -3.36898 -0.0111355 0
M  V30 1371 O 124.155 -3.89674 -0.975538 0
M  V30 1372 N 122.361 -2.90492 -0.0793393 0
M  V30 1373 H 121.908 -2.47731 0.706183 0
M  V30 1374 H 121.866 -2.99955 -0.942038 0
M  V30 1375 N 125.638 -1.25649 -0.95132 0
M  V30 1376 C 126.884 -1.10757 -1.69884 0
M  V30 1377 C 127.217 0.350061 -1.91019 0
M  V30 1378 O 126.492 1.25783 -1.48354 0
M  V30 1379 C 126.775 -1.86606 -3.07978 0
M  V30 1380 C 126.628 -3.40217 -2.94232 0
M  V30 1381 C 127.947 -1.65182 -4.07925 0
M  V30 1382 H 125.066 -0.40374 -0.616574 0
M  V30 1383 H 127.708 -1.54521 -1.10558 0
M  V30 1384 H 125.858 -1.49409 -3.58621 0
M  V30 1385 H 127.53 -3.87108 -2.50889 0
M  V30 1386 H 125.773 -3.67759 -2.30078 0
M  V30 1387 H 126.444 -3.88505 -3.92133 0
M  V30 1388 H 128.92 -1.9757 -3.66204 0
M  V30 1389 H 127.796 -2.20683 -5.02583 0
M  V30 1390 H 128.057 -0.593933 -4.38092 0
M  V30 1391 N 127.117 1.15442 -1.07289 0
M  V30 1392 C 128.342 1.90638 -0.816828 0
M  V30 1393 C 128.767 1.77445 0.624083 0
M  V30 1394 O 128.125 1.10671 1.43602 0
M  V30 1395 C 128.173 3.39008 -1.22906 0
M  V30 1396 O 127.277 4.10701 -0.373975 0
M  V30 1397 H 126.618 0.593555 -0.297638 0
M  V30 1398 H 129.148 1.46198 -1.43134 0
M  V30 1399 H 129.158 3.89801 -1.20497 0
M  V30 1400 H 127.833 3.47929 -2.27856 0
M  V30 1401 H 126.41 3.70046 -0.460499 0
M  V30 1402 N 128.595 0.856903 1.32268 0
M  V30 1403 C 129.843 0.460474 1.96784 0
M  V30 1404 C 130.164 -0.987701 1.68135 0
M  V30 1405 O 129.434 -1.69058 0.989765 0
M  V30 1406 H 128.014 0.167289 0.728027 0
M  V30 1407 H 130.676 1.09383 1.61312 0
M  V30 1408 H 129.772 0.60739 3.06133 0
M  V30 1409 N 130.073 -1.45103 0.615059 0
M  V30 1410 C 131.02 -2.30586 -0.0993978 0
M  V30 1411 C 131.99 -1.42544 -0.852669 0
M  V30 1412 O 133.175 -1.71465 -0.836917 0
M  V30 1413 C 130.315 -3.27572 -1.08583 0
M  V30 1414 C 129.428 -4.30717 -0.332656 0
M  V30 1415 C 128.563 -5.14807 -1.30947 0
M  V30 1416 C 127.602 -6.09673 -0.544538 0
M  V30 1417 N 126.739 -6.86517 -1.47101 0
M  V30 1418 H 131.579 -2.91144 0.635542 0
M  V30 1419 H 129.116 -1.4346 0.325206 0
M  V30 1420 H 131.074 -3.82276 -1.67095 0
M  V30 1421 H 129.704 -2.68751 -1.78809 0
M  V30 1422 H 128.756 -3.78615 0.368107 0
M  V30 1423 H 130.068 -4.98102 0.263842 0
M  V30 1424 H 129.222 -5.73948 -1.96643 0
M  V30 1425 H 127.961 -4.47458 -1.9399 0
M  V30 1426 H 126.966 -5.49656 0.126003 0
M  V30 1427 H 128.191 -6.79052 0.080947 0
M  V30 1428 H 126.137 -6.21851 -2.08895 0
M  V30 1429 H 126.054 -7.50281 -0.928137 0
M  V30 1430 H 127.322 -7.50194 -2.11731 0
M  V30 1431 N 131.551 -0.354651 -1.53558 0
M  V30 1432 C 132.8 0.239504 -2.00273 0
M  V30 1433 C 133.113 1.50759 -1.24623 0
M  V30 1434 O 134.319 2.17968 -1.61871 0
M  V30 1435 C 132.775 0.477341 -3.5672 0
M  V30 1436 C 132.383 -0.775488 -4.41237 0
M  V30 1437 C 134.127 1.02975 -4.11821 0
M  V30 1438 C 132.034 -0.507838 -5.89216 0
M  V30 1439 H 130.964 0.0932743 -0.748208 0
M  V30 1440 H 133.615 -0.471701 -1.77334 0
M  V30 1441 H 131.997 1.24953 -3.7577 0
M  V30 1442 H 133.171 -1.54963 -4.33962 0
M  V30 1443 H 131.486 -1.25033 -3.97185 0
M  V30 1444 H 134.083 1.24513 -5.2 0
M  V30 1445 H 134.426 1.98862 -3.65731 0
M  V30 1446 H 134.959 0.317994 -3.96527 0
M  V30 1447 H 131.698 -1.43674 -6.39561 0
M  V30 1448 H 131.218 0.228011 -5.99366 0
M  V30 1449 H 132.897 -0.129238 -6.46871 0
M  V30 1450 N 133.029 1.57378 -0.0835403 0
M  V30 1451 C 134.277 1.93547 0.581718 0
M  V30 1452 C 134.598 0.96524 1.69435 0
M  V30 1453 O 133.868 0.0153369 1.95894 0
M  V30 1454 H 132.448 0.714521 0.217874 0
M  V30 1455 H 135.11 1.94366 -0.144158 0
M  V30 1456 H 134.206 2.95665 0.999423 0
M  V30 1457 N 134.507 -0.190092 1.56449 0
M  V30 1458 C 135.437 -1.23816 1.97969 0
M  V30 1459 C 136.418 -1.47201 0.852395 0
M  V30 1460 O 137.603 -1.58854 1.1171 0
M  V30 1461 C 134.733 -2.5813 2.3235 0
M  V30 1462 C 133.687 -2.49348 3.47864 0
M  V30 1463 C 133.013 -3.8798 3.67934 0
M  V30 1464 C 134.313 -2.01424 4.81898 0
M  V30 1465 H 136.007 -0.89311 2.85769 0
M  V30 1466 H 133.553 -0.428177 1.37487 0
M  V30 1467 H 135.506 -3.31637 2.59991 0
M  V30 1468 H 134.23 -2.94386 1.41438 0
M  V30 1469 H 132.889 -1.78297 3.20321 0
M  V30 1470 H 132.537 -4.21597 2.74344 0
M  V30 1471 H 132.237 -3.82978 4.45648 0
M  V30 1472 H 133.761 -4.63101 3.97957 0
M  V30 1473 H 135.175 -2.64693 5.08538 0
M  V30 1474 H 133.572 -2.07413 5.63116 0
M  V30 1475 H 134.642 -0.967677 4.75146 0
M  V30 1476 N 135.985 -1.50799 -0.457987 0
M  V30 1477 C 137.401 -1.38515 -0.792819 0
M  V30 1478 C 137.601 -0.451409 -1.96379 0
M  V30 1479 O 136.657 0.10112 -2.52297 0
M  V30 1480 C 137.97 -2.80149 -1.09258 0
M  V30 1481 C 139.518 -2.89156 -1.19825 0
M  V30 1482 C 139.993 -4.31651 -1.53106 0
M  V30 1483 N 141.484 -4.34662 -1.60072 0
M  V30 1484 C 142.219 -5.41928 -1.87354 0
M  V30 1485 N 141.715 -6.59384 -2.12568 0
M  V30 1486 N 143.508 -5.29385 -1.88965 0
M  V30 1487 H 135.659 -2.10073 0.313511 0
M  V30 1488 H 137.922 -0.944803 0.0777862 0
M  V30 1489 H 137.628 -3.50374 -0.305084 0
M  V30 1490 H 137.502 -3.18204 -2.02549 0
M  V30 1491 H 139.889 -2.19141 -1.97639 0
M  V30 1492 H 139.97 -2.54626 -0.244821 0
M  V30 1493 H 139.614 -5.02208 -0.758266 0
M  V30 1494 H 139.544 -4.63678 -2.49621 0
M  V30 1495 H 142.035 -3.49973 -1.42573 0
M  V30 1496 H 142.348 -7.36934 -2.32696 0
M  V30 1497 H 140.693 -6.62535 -2.09933 0
M  V30 1498 H 143.884 -4.36616 -1.68772 0
M  V30 1499 H 144.057 -6.13066 -2.09891 0
M  V30 1500 N 137.463 0.71206 -1.40597 0
M  V30 1501 C 138.426 1.80785 -1.40888 0
M  V30 1502 C 139.426 1.57937 -0.302103 0
M  V30 1503 O 140.616 1.64913 -0.561182 0
M  V30 1504 C 137.748 3.18927 -1.20409 0
M  V30 1505 H 138.941 1.81924 -2.38419 0
M  V30 1506 H 136.494 0.91805 -1.26497 0
M  V30 1507 H 137.229 3.23436 -0.236522 0
M  V30 1508 H 137.014 3.36911 -2.00582 0
M  V30 1509 H 138.504 3.98949 -1.23408 0
M  V30 1510 N 138.941 1.26152 0.944643 0
M  V30 1511 C 140.187 1.11657 1.69294 0
M  V30 1512 C 140.52 -0.339926 1.91202 0
M  V30 1513 O 139.795 -1.24994 1.49019 0
M  V30 1514 C 140.078 1.88236 3.06984 0
M  V30 1515 C 139.931 3.41772 2.92424 0
M  V30 1516 C 141.25 1.67343 4.07043 0
M  V30 1517 H 138.369 0.407004 0.614424 0
M  V30 1518 H 141.011 1.55106 1.09737 0
M  V30 1519 H 139.161 1.51308 3.57824 0
M  V30 1520 H 140.833 3.88433 2.48832 0
M  V30 1521 H 139.076 3.68974 2.28124 0
M  V30 1522 H 139.747 3.90579 3.90067 0
M  V30 1523 H 142.223 1.99509 3.65151 0
M  V30 1524 H 141.099 2.23346 5.01406 0
M  V30 1525 H 141.36 0.617158 4.37771 0
M  V30 1526 N 140.419 -1.14872 1.07899 0
M  V30 1527 C 141.665 -1.86064 0.806725 0
M  V30 1528 C 141.998 -1.82434 -0.665706 0
M  V30 1529 O 141.273 -1.25138 -1.48899 0
M  V30 1530 C 141.556 -3.34929 1.32267 0
M  V30 1531 C 141.409 -3.47161 2.86006 0
M  V30 1532 C 142.728 -4.29863 0.943717 0
M  V30 1533 H 139.847 -0.675591 0.294526 0
M  V30 1534 H 142.489 -1.34925 1.33773 0
M  V30 1535 H 140.639 -3.78611 0.870974 0
M  V30 1536 H 142.311 -3.12302 3.39507 0
M  V30 1537 H 140.554 -2.88539 3.23925 0
M  V30 1538 H 141.225 -4.51777 3.17177 0
M  V30 1539 H 143.701 -3.9417 1.33302 0
M  V30 1540 H 142.577 -5.32494 1.33198 0
M  V30 1541 H 142.838 -4.41846 -0.149796 0
M  V30 1542 N 141.898 -0.863906 -1.31812 0
M  V30 1543 C 143.128 -0.485406 -2.00817 0
M  V30 1544 C 143.536 0.925007 -1.65046 0
M  V30 1545 O 142.879 1.61653 -0.872574 0
M  V30 1546 C 142.941 -0.555589 -3.55181 0
M  V30 1547 C 142.605 -1.92654 -4.14407 0
M  V30 1548 C 143.602 -2.89324 -4.31958 0
M  V30 1549 C 141.287 -2.2262 -4.50273 0
M  V30 1550 C 143.281 -4.14108 -4.84555 0
M  V30 1551 C 140.968 -3.47654 -5.02573 0
M  V30 1552 C 141.966 -4.43214 -5.19664 0
M  V30 1553 O 141.654 -5.66033 -5.70843 0
M  V30 1554 H 141.386 -0.188224 -0.649267 0
M  V30 1555 H 143.94 -1.16514 -1.69156 0
M  V30 1556 H 142.17 0.181037 -3.86276 0
M  V30 1557 H 143.859 -0.19138 -4.05449 0
M  V30 1558 H 144.625 -2.6748 -4.04573 0
M  V30 1559 H 140.504 -1.4902 -4.3625 0
M  V30 1560 H 144.048 -4.88703 -4.9781 0
M  V30 1561 H 139.945 -3.69345 -5.29391 0
M  V30 1562 H 140.713 -5.6812 -5.89222 0
M  V30 1563 N 143.376 1.44774 -0.622745 0
M  V30 1564 C 144.606 2.06187 -0.130532 0
M  V30 1565 C 145.014 1.46547 1.19669 0
M  V30 1566 O 144.357 0.579636 1.74316 0
M  V30 1567 C 144.419 3.59437 0.0674983 0
M  V30 1568 C 144.083 4.41496 -1.18026 0
M  V30 1569 C 145.08 4.75512 -2.102 0
M  V30 1570 C 142.765 4.82007 -1.41333 0
M  V30 1571 C 144.759 5.48912 -3.23998 0
M  V30 1572 C 142.446 5.55157 -2.55429 0
M  V30 1573 C 143.444 5.88528 -3.46589 0
M  V30 1574 O 143.132 6.60191 -4.58697 0
M  V30 1575 H 142.864 0.672045 -0.0730162 0
M  V30 1576 H 145.418 1.86768 -0.854802 0
M  V30 1577 H 143.648 3.77314 0.846825 0
M  V30 1578 H 145.337 4.02642 0.513209 0
M  V30 1579 H 146.103 4.4476 -1.93425 0
M  V30 1580 H 141.982 4.55457 -0.712709 0
M  V30 1581 H 145.526 5.74877 -3.95174 0
M  V30 1582 H 141.423 5.85324 -2.72151 0
M  V30 1583 H 142.191 6.78654 -4.57571 0
M  V30 1584 N 144.854 0.36279 1.53368 0
M  V30 1585 C 146.101 -0.227776 2.01215 0
M  V30 1586 C 146.429 -1.49003 1.25014 0
M  V30 1587 O 145.684 -1.92876 0.331236 0
M  V30 1588 C 145.983 -0.568417 3.52851 0
M  V30 1589 C 145.649 0.59918 4.46901 0
M  V30 1590 C 144.311 0.919559 4.72332 0
M  V30 1591 C 146.663 1.38156 5.02556 0
M  V30 1592 C 143.991 2.02434 5.5067 0
M  V30 1593 C 146.343 2.47674 5.821 0
M  V30 1594 C 145.007 2.8025 6.05819 0
M  V30 1595 H 144.277 -0.083349 0.736297 0
M  V30 1596 H 146.924 0.494677 1.85001 0
M  V30 1597 H 145.229 -1.37185 3.66998 0
M  V30 1598 H 146.926 -1.03756 3.87344 0
M  V30 1599 H 143.516 0.339437 4.27254 0
M  V30 1600 H 147.7 1.14729 4.82857 0
M  V30 1601 H 142.956 2.28075 5.67267 0
M  V30 1602 H 147.13 3.08716 6.24234 0
M  V30 1603 H 144.757 3.65979 6.66306 0
M  V30 1604 N 146.332 -1.57332 0.0918853 0
M  V30 1605 C 147.572 -1.96117 -0.575988 0
M  V30 1606 C 147.936 -0.972499 -1.65549 0
M  V30 1607 O 149.137 -1.24872 -2.38034 0
M  V30 1608 C 147.408 -3.39407 -1.11973 0
M  V30 1609 S 148.967 -4.00185 -1.79992 0
M  V30 1610 H 145.785 -0.685682 -0.188045 0
M  V30 1611 H 148.387 -1.94755 0.170525 0
M  V30 1612 H 147.091 -4.09131 -0.322504 0
M  V30 1613 H 146.622 -3.44358 -1.90214 0
M  V30 1614 H 148.637 -3.88728 -3.08391 0
M  V30 1615 N 147.81 0.181792 -1.56548 0
M  V30 1616 C 149.038 0.915947 -1.85521 0
M  V30 1617 C 149.453 1.76282 -0.676016 0
M  V30 1618 O 148.81 1.79012 0.355077 0
M  V30 1619 C 148.861 1.80126 -3.13427 0
M  V30 1620 O 148.582 0.988562 -4.26801 0
M  V30 1621 C 150.083 2.64597 -3.55673 0
M  V30 1622 H 147.303 0.26661 -0.61576 0
M  V30 1623 H 149.847 0.185039 -2.03661 0
M  V30 1624 H 148.002 2.48563 -2.97145 0
M  V30 1625 H 148.416 1.59308 -4.99721 0
M  V30 1626 H 149.89 3.2235 -4.48101 0
M  V30 1627 H 150.367 3.38958 -2.79292 0
M  V30 1628 H 150.973 2.0151 -3.74532 0
M  V30 1629 N 149.288 1.51039 0.449983 0
M  V30 1630 C 150.516 1.66869 1.2232 0
M  V30 1631 C 150.931 0.360727 1.85322 0
M  V30 1632 O 150.288 -0.659531 1.70166 0
M  V30 1633 C 150.339 2.77524 2.31652 0
M  V30 1634 O 150.06 4.03252 1.7123 0
M  V30 1635 C 151.561 3.04512 3.2216 0
M  V30 1636 H 148.781 0.560326 0.369155 0
M  V30 1637 H 151.325 1.97385 0.534719 0
M  V30 1638 H 149.48 2.49642 2.96239 0
M  V30 1639 H 149.894 4.64609 2.43389 0
M  V30 1640 H 151.368 3.85551 3.95038 0
M  V30 1641 H 151.845 2.16415 3.8218 0
M  V30 1642 H 152.451 3.34005 2.63288 0
M  V30 1643 N 150.766 -0.704594 1.40972 0
M  V30 1644 C 151.696 -1.83124 1.44872 0
M  V30 1645 C 152.677 -1.67281 0.30838 0
M  V30 1646 O 153.862 -1.87149 0.518556 0
M  V30 1647 C 150.992 -3.21181 1.32136 0
M  V30 1648 C 149.946 -3.51714 2.43888 0
M  V30 1649 C 149.272 -4.89032 2.16222 0
M  V30 1650 C 150.572 -3.516 3.86232 0
M  V30 1651 H 152.266 -1.80117 2.39161 0
M  V30 1652 H 149.812 -0.865145 1.15114 0
M  V30 1653 H 151.765 -3.99702 1.33479 0
M  V30 1654 H 150.489 -3.24791 0.343279 0
M  V30 1655 H 149.148 -2.75539 2.41813 0
M  V30 1656 H 148.796 -4.89256 1.16778 0
M  V30 1657 H 148.496 -5.10426 2.911 0
M  V30 1658 H 150.02 -5.69873 2.19265 0
M  V30 1659 H 151.434 -4.2014 3.9007 0
M  V30 1660 H 149.831 -3.84523 4.60719 0
M  V30 1661 H 150.901 -2.50757 4.15029 0
M  V30 1662 N 152.244 -1.26651 -0.937939 0
M  V30 1663 C 153.493 -1.11775 -1.67897 0
M  V30 1664 C 153.806 0.33794 -1.92659 0
M  V30 1665 O 155.012 0.607434 -2.64618 0
M  V30 1666 C 153.468 -1.9523 -3.02346 0
M  V30 1667 C 153.076 -3.45393 -2.8532 0
M  V30 1668 C 154.82 -1.88972 -3.80118 0
M  V30 1669 C 152.727 -4.21083 -4.15263 0
M  V30 1670 H 151.657 -0.414696 -0.629717 0
M  V30 1671 H 154.308 -1.50988 -1.04283 0
M  V30 1672 H 152.69 -1.48853 -3.66959 0
M  V30 1673 H 153.864 -3.99561 -2.29537 0
M  V30 1674 H 152.179 -3.52921 -2.20988 0
M  V30 1675 H 154.776 -2.42805 -4.76392 0
M  V30 1676 H 155.119 -0.86113 -4.07296 0
M  V30 1677 H 155.652 -2.33189 -3.22285 0
M  V30 1678 H 152.391 -5.24425 -3.93267 0
M  V30 1679 H 151.911 -3.71695 -4.70747 0
M  V30 1680 H 153.59 -4.29706 -4.83696 0
M  V30 1681 N 153.722 1.14298 -1.08507 0
M  V30 1682 C 154.685 2.17607 -0.719711 0
M  V30 1683 C 155.685 1.58907 0.245997 0
M  V30 1684 O 156.875 1.74181 0.0254081 0
M  V30 1685 C 154.007 3.40842 -0.0627695 0
M  V30 1686 H 155.2 2.51443 -1.63452 0
M  V30 1687 H 152.753 1.28963 -0.88307 0
M  V30 1688 H 153.488 3.12587 0.863716 0
M  V30 1689 H 153.273 3.84713 -0.757504 0
M  V30 1690 H 154.763 4.17221 0.177786 0
M  V30 1691 N 155.201 0.870884 1.31352 0
M  V30 1692 C 156.447 0.482987 1.96965 0
M  V30 1693 C 156.78 -0.962462 1.68672 0
M  V30 1694 O 156.055 -1.6779 0.98371 0
M  V30 1695 C 156.338 0.741752 3.52378 0
M  V30 1696 C 156.191 2.2368 3.9024 0
M  V30 1697 C 157.51 0.208838 4.39604 0
M  V30 1698 H 154.629 0.176955 0.715441 0
M  V30 1699 H 157.271 1.09229 1.55464 0
M  V30 1700 H 155.421 0.223149 3.87859 0
M  V30 1701 H 157.093 2.82273 3.64856 0
M  V30 1702 H 155.336 2.70901 3.38814 0
M  V30 1703 H 156.007 2.3685 4.98604 0
M  V30 1704 H 158.483 0.652529 4.10952 0
M  V30 1705 H 157.359 0.419336 5.47296 0
M  V30 1706 H 157.62 -0.889275 4.33064 0
M  V30 1707 N 156.679 -1.44442 0.630414 0
M  V30 1708 C 157.928 -2.01267 0.132073 0
M  V30 1709 C 158.241 -1.50172 -1.25331 0
M  V30 1710 O 159.447 -1.9912 -1.84562 0
M  V30 1711 C 157.903 -3.59422 0.185362 0
M  V30 1712 C 157.511 -4.19514 1.57201 0
M  V30 1713 C 159.255 -4.23724 -0.256553 0
M  V30 1714 C 157.162 -5.69891 1.58045 0
M  V30 1715 H 156.092 -0.752619 0.0456092 0
M  V30 1716 H 158.743 -1.65666 0.789106 0
M  V30 1717 H 157.125 -3.92318 -0.538759 0
M  V30 1718 H 158.299 -3.98156 2.31966 0
M  V30 1719 H 156.614 -3.67496 1.95795 0
M  V30 1720 H 159.211 -5.34019 -0.269767 0
M  V30 1721 H 159.554 -3.96013 -1.28372 0
M  V30 1722 H 160.087 -3.95629 0.41505 0
M  V30 1723 H 156.826 -6.02336 2.58597 0
M  V30 1724 H 156.346 -5.93373 0.875725 0
M  V30 1725 H 158.025 -6.33515 1.31408 0
M  V30 1726 N 158.157 -0.370918 -1.53173 0
M  V30 1727 C 159.087 0.464847 -2.28826 0
M  V30 1728 C 160.068 1.07936 -1.31468 0
M  V30 1729 O 161.253 1.0956 -1.60344 0
M  V30 1730 C 158.383 1.60196 -3.08147 0
M  V30 1731 C 157.337 1.11443 -4.13237 0
M  V30 1732 C 156.663 2.3422 -4.80672 0
M  V30 1733 C 157.963 0.195384 -5.21934 0
M  V30 1734 H 159.657 -0.166329 -2.98938 0
M  V30 1735 H 157.203 -0.0814359 -1.4377 0
M  V30 1736 H 159.156 2.19332 -3.59822 0
M  V30 1737 H 157.88 2.26045 -2.35735 0
M  V30 1738 H 156.539 0.545727 -3.62515 0
M  V30 1739 H 156.187 2.98537 -4.04827 0
M  V30 1740 H 155.887 2.02269 -5.51689 0
M  V30 1741 H 157.411 2.94032 -5.35143 0
M  V30 1742 H 158.825 0.694375 -5.69079 0
M  V30 1743 H 157.222 -0.0335027 -6.00091 0
M  V30 1744 H 158.292 -0.760961 -4.78892 0
M  V30 1745 N 159.635 1.57281 -0.100228 0
M  V30 1746 C 160.883 1.94153 0.561157 0
M  V30 1747 C 161.204 0.983157 1.68401 0
M  V30 1748 O 160.474 0.0361132 1.95867 0
M  V30 1749 H 159.054 0.716791 0.210283 0
M  V30 1750 H 161.716 1.94202 -0.164765 0
M  V30 1751 H 160.812 2.96709 0.968008 0
M  V30 1752 N 161.113 -0.173488 1.56642 0
M  V30 1753 C 162.362 -0.888758 1.81063 0
M  V30 1754 C 162.675 -1.83506 0.67712 0
M  V30 1755 O 163.881 -2.59254 0.806206 0
M  V30 1756 C 162.337 -1.63091 3.20826 0
M  V30 1757 C 161.945 -0.728357 4.4204 0
M  V30 1758 C 163.689 -2.33454 3.54541 0
M  V30 1759 C 161.596 -1.47062 5.72823 0
M  V30 1760 H 160.526 -0.335618 0.675186 0
M  V30 1761 H 163.177 -0.141712 1.82952 0
M  V30 1762 H 161.559 -2.42263 3.13248 0
M  V30 1763 H 162.733 0.0262449 4.60793 0
M  V30 1764 H 161.048 -0.134492 4.16183 0
M  V30 1765 H 163.645 -2.89578 4.49498 0
M  V30 1766 H 163.988 -3.08687 2.79317 0
M  V30 1767 H 164.521 -1.61227 3.63663 0
M  V30 1768 H 161.26 -0.760658 6.51072 0
M  V30 1769 H 160.78 -2.1986 5.58052 0
M  V30 1770 H 162.459 -2.01868 6.14702 0
M  V30 1771 N 162.591 -1.51276 -0.441967 0
M  V30 1772 C 163.837 -1.63958 -1.19355 0
M  V30 1773 C 164.17 -0.352543 -1.90973 0
M  V30 1774 O 163.445 0.647627 -1.83401 0
M  V30 1775 C 163.728 -2.83979 -2.21422 0
M  V30 1776 C 163.581 -4.22646 -1.53918 0
M  V30 1777 C 164.9 -2.99521 -3.22451 0
M  V30 1778 H 162.019 -0.596709 -0.432559 0
M  V30 1779 H 164.661 -1.83748 -0.483398 0
M  V30 1780 H 162.811 -2.67237 -2.81987 0
M  V30 1781 H 164.483 -4.51045 -0.967256 0
M  V30 1782 H 162.726 -4.25558 -0.841615 0
M  V30 1783 H 163.397 -5.02609 -2.28229 0
M  V30 1784 H 165.873 -3.14944 -2.71937 0
M  V30 1785 H 164.749 -3.85072 -3.91166 0
M  V30 1786 H 165.01 -2.11391 -3.88287 0
M  V30 1787 N 164.069 0.697108 -1.41344 0
M  V30 1788 C 164.999 1.82353 -1.45841 0
M  V30 1789 C 165.98 1.67115 -0.317247 0
M  V30 1790 O 167.165 1.86871 -0.528474 0
M  V30 1791 C 164.295 3.20476 -1.33838 0
M  V30 1792 C 163.249 3.50415 -2.4575 0
M  V30 1793 C 162.575 4.87878 -2.18813 0
M  V30 1794 C 163.875 3.49546 -3.88091 0
M  V30 1795 H 165.569 1.78846 -2.40113 0
M  V30 1796 H 163.115 0.859028 -1.15571 0
M  V30 1797 H 165.068 3.98988 -1.35596 0
M  V30 1798 H 163.792 3.24604 -0.360498 0
M  V30 1799 H 162.451 2.74253 -2.43271 0
M  V30 1800 H 162.099 4.8863 -1.19371 0
M  V30 1801 H 161.799 5.08875 -2.93803 0
M  V30 1802 H 163.323 5.68702 -2.22284 0
M  V30 1803 H 164.737 4.18066 -3.92293 0
M  V30 1804 H 163.134 3.82075 -4.62751 0
M  V30 1805 H 164.204 2.48552 -4.16353 0
M  V30 1806 N 165.547 1.27147 0.931209 0
M  V30 1807 C 166.793 1.13446 1.68101 0
M  V30 1808 C 167.126 -0.319628 1.91552 0
M  V30 1809 O 166.401 -1.23407 1.50336 0
M  V30 1810 C 166.684 1.91482 3.0497 0
M  V30 1811 C 166.537 3.44855 2.88782 0
M  V30 1812 C 167.856 1.71651 4.05246 0
M  V30 1813 H 164.975 0.413498 0.610072 0
M  V30 1814 H 167.617 1.56261 1.08086 0
M  V30 1815 H 165.767 1.55095 3.56199 0
M  V30 1816 H 167.439 3.9105 2.44698 0
M  V30 1817 H 165.682 3.71373 2.24198 0
M  V30 1818 H 166.353 3.94694 3.85902 0
M  V30 1819 H 168.829 2.0337 3.63015 0
M  V30 1820 H 167.705 2.28651 4.99009 0
M  V30 1821 H 167.966 0.663555 4.37092 0
M  V30 1822 N 167.025 -1.13721 1.09112 0
M  V30 1823 C 168.271 -1.85198 0.826414 0
M  V30 1824 C 168.604 -1.83129 -0.646319 0
M  V30 1825 O 167.879 -1.2671 -1.47563 0
M  V30 1826 C 168.162 -3.33507 1.35812 0
M  V30 1827 C 168.015 -3.44108 2.89672 0
M  V30 1828 C 169.334 -4.28838 0.989256 0
M  V30 1829 H 166.453 -0.67243 0.301675 0
M  V30 1830 H 169.095 -1.33499 1.35197 0
M  V30 1831 H 167.245 -3.77666 0.911082 0
M  V30 1832 H 168.917 -3.08684 3.428 0
M  V30 1833 H 167.16 -2.85087 3.26967 0
M  V30 1834 H 167.831 -4.48388 3.21951 0
M  V30 1835 H 170.307 -3.92734 1.37475 0
M  V30 1836 H 169.183 -5.31051 1.38838 0
M  V30 1837 H 169.444 -4.4198 -0.102924 0
M  V30 1838 N 168.503 -0.877838 -1.30888 0
M  V30 1839 C 169.728 -0.506629 -2.01117 0
M  V30 1840 C 170.153 0.895564 -1.65412 0
M  V30 1841 O 169.511 1.5923 -0.866922 0
M  V30 1842 C 169.559 -0.680223 -3.54126 0
M  V30 1843 O 168.663 0.277033 -4.11468 0
M  V30 1844 H 168.004 -0.200518 -0.633 0
M  V30 1845 H 170.534 -1.18342 -1.66902 0
M  V30 1846 H 170.544 -0.5765 -4.03907 0
M  V30 1847 H 169.219 -1.70261 -3.79452 0
M  V30 1848 H 167.796 0.127606 -3.72682 0
M  V30 1849 N 169.982 1.44106 -0.638065 0
M  V30 1850 C 171.231 2.01194 -0.142744 0
M  V30 1851 C 171.544 1.50835 1.24532 0
M  V30 1852 O 172.75 2.00096 1.83504 0
M  V30 1853 C 171.206 3.59319 -0.20442 0
M  V30 1854 C 170.814 4.18674 -1.59423 0
M  V30 1855 C 172.558 4.23854 0.234079 0
M  V30 1856 C 170.465 5.69045 -1.61065 0
M  V30 1857 H 169.395 0.752367 -0.0495998 0
M  V30 1858 H 172.046 1.65246 -0.797881 0
M  V30 1859 H 170.428 3.92598 0.517946 0
M  V30 1860 H 171.602 3.96921 -2.34074 0
M  V30 1861 H 169.917 3.66453 -1.97741 0
M  V30 1862 H 172.514 5.34155 0.241443 0
M  V30 1863 H 172.857 3.96688 1.2627 0
M  V30 1864 H 173.39 3.95403 -0.436025 0
M  V30 1865 H 170.129 6.00956 -2.61787 0
M  V30 1866 H 169.649 5.929 -0.90718 0
M  V30 1867 H 171.328 6.32809 -1.34766 0
M  V30 1868 N 171.46 0.379036 1.52974 0
M  V30 1869 C 172.407 -0.461048 2.26148 0
M  V30 1870 C 173.377 -1.06637 1.27349 0
M  V30 1871 O 174.562 -1.09633 1.56157 0
M  V30 1872 C 171.702 -1.58782 3.06402 0
M  V30 1873 C 170.815 -1.00636 4.20115 0
M  V30 1874 C 169.95 -2.10334 4.87784 0
M  V30 1875 C 168.989 -1.49724 5.93506 0
M  V30 1876 N 168.126 -2.5331 6.54812 0
M  V30 1877 H 172.966 0.169429 2.97518 0
M  V30 1878 H 170.503 0.0953806 1.4679 0
M  V30 1879 H 172.461 -2.25174 3.51215 0
M  V30 1880 H 171.091 -2.18876 2.37261 0
M  V30 1881 H 170.143 -0.232332 3.7969 0
M  V30 1882 H 171.455 -0.523343 4.96047 0
M  V30 1883 H 170.609 -2.84519 5.35849 0
M  V30 1884 H 169.348 -2.61992 4.11353 0
M  V30 1885 H 168.353 -0.740598 5.44789 0
M  V30 1886 H 169.578 -0.988732 6.71864 0
M  V30 1887 H 167.524 -3.04156 5.81227 0
M  V30 1888 H 167.441 -2.09734 7.26325 0
M  V30 1889 H 168.709 -3.27155 7.07524 0
M  V30 1890 N 172.938 -1.57226 0.108567 0
M  V30 1891 C 174.349 -1.8195 -0.418464 0
M  V30 1892 C 174.7 -1.02508 -1.67292 0
M  V30 1893 O 173.825 -0.258496 -2.14851 0
M  V30 1894 C 174.42 -3.30028 -0.765979 0
M  V30 1895 C 172.979 -3.55469 -1.23769 0
M  V30 1896 C 172.126 -2.7625 -0.241106 0
M  V30 1897 H 175.077 -1.55149 0.33384 0
M  V30 1898 H 175.098 -3.44086 -1.62434 0
M  V30 1899 H 174.61 -3.87821 0.147219 0
M  V30 1900 H 172.711 -3.03022 -2.16814 0
M  V30 1901 H 172.824 -4.6408 -1.19022 0
M  V30 1902 H 171.188 -2.44133 -0.72602 0
M  V30 1903 H 171.971 -3.36797 0.665007 0
M  V30 1904 N 174.416 0.165178 -1.56732 0
M  V30 1905 C 175.664 0.879068 -1.8198 0
M  V30 1906 C 175.985 1.82514 -0.686561 0
M  V30 1907 O 175.255 1.93694 0.293146 0
M  V30 1908 H 173.835 0.327608 -0.671329 0
M  V30 1909 H 176.497 0.163526 -1.94213 0
M  V30 1910 H 175.593 1.45228 -2.76252 0
M  V30 1911 N 175.894 1.51508 0.433938 0
M  V30 1912 C 177.14 1.64588 1.18484 0
M  V30 1913 C 177.473 0.362666 1.90784 0
M  V30 1914 O 176.748 -0.637892 1.83742 0
M  V30 1915 C 177.031 2.85149 2.19913 0
M  V30 1916 C 176.884 4.23456 1.51674 0
M  V30 1917 C 178.203 3.01227 3.20858 0
M  V30 1918 H 175.322 0.598994 0.429389 0
M  V30 1919 H 177.964 1.84002 0.473647 0
M  V30 1920 H 176.114 2.68729 2.80566 0
M  V30 1921 H 177.786 4.51552 0.943322 0
M  V30 1922 H 176.029 4.25998 0.819035 0
M  V30 1923 H 176.7 5.03812 2.2556 0
M  V30 1924 H 179.176 3.16382 2.70263 0
M  V30 1925 H 178.052 3.87141 3.89118 0
M  V30 1926 H 178.313 2.13447 3.8716 0
M  V30 1927 N 177.372 -0.689602 1.41712 0
M  V30 1928 C 178.6 -1.47827 1.44758 0
M  V30 1929 C 179.015 -1.88721 0.0545703 0
M  V30 1930 O 178.372 -1.57176 -0.927463 0
M  V30 1931 C 178.423 -2.73698 2.3616 0
M  V30 1932 O 178.144 -2.34524 3.7004 0
M  V30 1933 C 179.645 -3.67389 2.48072 0
M  V30 1934 H 176.865 -0.455357 0.49284 0
M  V30 1935 H 179.409 -0.848574 1.86063 0
M  V30 1936 H 177.564 -3.32891 1.98148 0
M  V30 1937 H 177.978 -3.15701 4.18847 0
M  V30 1938 H 179.452 -4.52475 3.16181 0
M  V30 1939 H 179.929 -4.12284 1.51388 0
M  V30 1940 H 180.535 -3.14097 2.86746 0
M  V30 1941 N 178.85 -1.27639 -0.924453 0
M  V30 1942 C 179.782 -1.06442 -2.02985 0
M  V30 1943 C 180.795 -0.0194771 -1.62788 0
M  V30 1944 O 181.984 -0.261388 -1.76576 0
M  V30 1945 C 179.084 -0.59327 -3.33667 0
M  V30 1946 C 178.257 -1.71123 -4.02537 0
M  V30 1947 C 177.316 -1.23527 -5.11495 0
M  V30 1948 O 176.342 -1.93553 -5.35281 0
M  V30 1949 N 177.544 -0.0926678 -5.80426 0
M  V30 1950 H 180.309 -2.01633 -2.2173 0
M  V30 1951 H 177.87 -1.19248 -1.09505 0
M  V30 1952 H 179.862 -0.258686 -4.03872 0
M  V30 1953 H 178.432 0.265502 -3.1147 0
M  V30 1954 H 177.652 -2.21593 -3.26022 0
M  V30 1955 H 178.94 -2.46145 -4.45298 0
M  V30 1956 H 178.338 0.491741 -5.63559 0
M  V30 1957 H 176.895 0.182714 -6.51544 0
M  V30 1958 N 180.328 1.1314 -1.09713 0
M  V30 1959 C 181.275 2.18642 -0.739196 0
M  V30 1960 C 182.245 1.63706 0.280978 0
M  V30 1961 O 183.43 1.90111 0.161946 0
M  V30 1962 C 180.57 3.44685 -0.169102 0
M  V30 1963 C 179.683 4.13711 -1.24367 0
M  V30 1964 C 178.818 5.27379 -0.636019 0
M  V30 1965 C 177.857 5.88259 -1.69169 0
M  V30 1966 N 176.994 6.93352 -1.10485 0
M  V30 1967 H 181.834 2.48607 -1.64312 0
M  V30 1968 H 179.371 1.22066 -0.820875 0
M  V30 1969 H 181.329 4.16815 0.179256 0
M  V30 1970 H 179.959 3.15161 0.698079 0
M  V30 1971 H 179.011 3.39835 -1.70927 0
M  V30 1972 H 180.323 4.55037 -2.04311 0
M  V30 1973 H 179.477 6.06238 -0.236677 0
M  V30 1974 H 178.216 4.8731 0.194928 0
M  V30 1975 H 177.221 5.08092 -2.10055 0
M  V30 1976 H 178.446 6.30399 -2.52536 0
M  V30 1977 H 176.392 6.55335 -0.295234 0
M  V30 1978 H 176.309 7.33236 -1.84121 0
M  V30 1979 H 177.577 7.76057 -0.73181 0
M  V30 1980 N 181.806 0.884767 1.30421 0
M  V30 1981 C 183.052 0.503851 1.96441 0
M  V30 1982 C 183.385 -0.944518 1.69684 0
M  V30 1983 O 182.66 -1.66737 1.00145 0
M  V30 1984 C 182.943 0.779085 3.51571 0
M  V30 1985 C 182.796 2.27807 3.87846 0
M  V30 1986 C 184.115 0.255452 4.39358 0
M  V30 1987 H 181.234 0.184533 0.713524 0
M  V30 1988 H 183.876 1.10872 1.54297 0
M  V30 1989 H 182.026 0.264274 3.876 0
M  V30 1990 H 183.698 2.86127 3.61841 0
M  V30 1991 H 181.941 2.74479 3.35922 0
M  V30 1992 H 182.612 2.42125 4.96064 0
M  V30 1993 H 185.088 0.696079 4.10236 0
M  V30 1994 H 183.964 0.477361 5.4682 0
M  V30 1995 H 184.225 -0.843293 4.33983 0
M  V30 1996 N 183.284 -1.43765 0.645699 0
M  V30 1997 C 184.532 -2.01499 0.155731 0
M  V30 1998 C 184.853 -1.51151 -1.232 0
M  V30 1999 O 184.123 -0.721044 -1.82148 0
M  V30 2000 H 182.703 -0.745003 0.0545817 0
M  V30 2001 H 185.365 -1.76075 0.835677 0
M  V30 2002 H 184.461 -3.1181 0.134577 0
M  V30 2003 N 184.763 -0.387143 -1.52771 0
M  V30 2004 C 185.673 0.456442 -2.30117 0
M  V30 2005 C 186.689 1.07342 -1.36944 0
M  V30 2006 O 187.865 1.07971 -1.70013 0
M  V30 2007 C 184.93 1.56957 -3.09136 0
M  V30 2008 C 183.991 0.977916 -4.18014 0
M  V30 2009 C 183.224 2.038 -4.93256 0
M  V30 2010 O 183.447 3.25271 -4.68567 0
M  V30 2011 O 182.381 1.6565 -5.78657 0
M  V30 2012 H 186.207 -0.17359 -3.03203 0
M  V30 2013 H 183.792 -0.150919 -1.48636 0
M  V30 2014 H 185.674 2.21628 -3.58412 0
M  V30 2015 H 184.349 2.18461 -2.38865 0
M  V30 2016 H 183.256 0.294525 -3.72939 0
M  V30 2017 H 184.589 0.407128 -4.90513 0
M  V30 2018 N 186.241 1.57166 -0.116904 0
M  V30 2019 C 187.49 1.94298 0.541407 0
M  V30 2020 C 187.803 1.00236 1.67964 0
M  V30 2021 O 189.009 1.26826 2.40057 0
M  V30 2022 C 187.465 3.45306 1.01449 0
M  V30 2023 C 187.073 4.47899 -0.0951738 0
M  V30 2024 C 188.817 3.91361 1.6443 0
M  V30 2025 C 186.724 5.90083 0.394491 0
M  V30 2026 H 185.654 0.725308 0.206019 0
M  V30 2027 H 188.305 1.82446 -0.196419 0
M  V30 2028 H 186.687 3.52385 1.80667 0
M  V30 2029 H 187.861 4.52486 -0.871374 0
M  V30 2030 H 186.176 4.11583 -0.631505 0
M  V30 2031 H 188.773 4.95004 2.02176 0
M  V30 2032 H 189.116 3.3122 2.52189 0
M  V30 2033 H 189.649 3.87073 0.917559 0
M  V30 2034 H 186.388 6.53974 -0.447004 0
M  V30 2035 H 185.908 5.88921 1.13722 0
M  V30 2036 H 187.587 6.41307 0.856399 0
M  V30 2037 N 187.719 -0.156864 1.56817 0
M  V30 2038 C 188.682 -1.17781 1.96622 0
M  V30 2039 C 189.682 -1.36401 0.851555 0
M  V30 2040 O 190.872 -1.33561 1.11836 0
M  V30 2041 C 188.004 -2.54008 2.27361 0
M  V30 2042 H 189.197 -0.836564 2.87996 0
M  V30 2043 H 186.75 -0.39985 1.51099 0
M  V30 2044 H 187.485 -2.9312 1.38748 0
M  V30 2045 H 187.27 -2.41856 3.08623 0
M  V30 2046 H 188.76 -3.27558 2.59029 0
M  V30 2047 N 189.197 -1.51736 -0.425897 0
M  V30 2048 C 190.613 -1.40166 -0.76326 0
M  V30 2049 C 190.813 -0.492962 -1.95377 0
M  V30 2050 O 189.869 0.0475815 -2.52455 0
M  V30 2051 C 191.182 -2.82403 -1.03291 0
M  V30 2052 C 192.73 -2.91632 -1.13665 0
M  V30 2053 C 193.205 -4.34801 -1.43916 0
M  V30 2054 N 194.696 -4.3796 -1.50816 0
M  V30 2055 C 195.431 -5.4578 -1.75817 0
M  V30 2056 N 194.927 -6.63744 -1.98534 0
M  V30 2057 N 196.72 -5.33274 -1.77694 0
M  V30 2058 H 188.871 -2.09361 0.358 0
M  V30 2059 H 191.134 -0.942941 0.0978094 0
M  V30 2060 H 190.84 -3.50943 -0.230696 0
M  V30 2061 H 190.714 -3.22428 -1.95754 0
M  V30 2062 H 193.101 -2.23284 -1.92947 0
M  V30 2063 H 193.182 -2.55088 -0.190756 0
M  V30 2064 H 192.826 -5.03703 -0.65157 0
M  V30 2065 H 192.756 -4.68868 -2.39729 0
M  V30 2066 H 195.247 -3.52919 -1.35118 0
M  V30 2067 H 195.56 -7.41704 -2.17013 0
M  V30 2068 H 193.905 -6.66839 -1.95832 0
M  V30 2069 H 197.096 -4.40098 -1.59473 0
M  V30 2070 H 197.269 -6.1738 -1.9684 0
M  V30 2071 N 190.675 0.682077 -1.42076 0
M  V30 2072 C 191.903 1.47057 -1.4554 0
M  V30 2073 C 192.318 1.8869 -0.0645779 0
M  V30 2074 O 191.675 1.57666 0.919115 0
M  V30 2075 C 191.726 2.72442 -2.37609 0
M  V30 2076 O 191.447 2.32559 -3.71279 0
M  V30 2077 C 192.948 3.66069 -2.50017 0
M  V30 2078 H 190.168 0.452737 -0.495248 0
M  V30 2079 H 192.712 0.838695 -1.8651 0
M  V30 2080 H 190.867 3.31835 -1.9991 0
M  V30 2081 H 191.281 3.13475 -4.20516 0
M  V30 2082 H 192.755 4.50792 -3.18576 0
M  V30 2083 H 193.232 4.11476 -1.53572 0
M  V30 2084 H 193.838 3.12572 -2.88407 0
M  V30 2085 N 192.153 1.28127 0.917671 0
M  V30 2086 C 193.401 1.14825 1.66312 0
M  V30 2087 C 193.722 -0.304379 1.9261 0
M  V30 2088 O 192.992 -1.21149 1.53947 0
M  V30 2089 H 191.572 0.421953 0.616413 0
M  V30 2090 H 194.234 1.608 1.10134 0
M  V30 2091 H 193.33 1.68489 2.62712 0
M  V30 2092 N 193.631 -1.12557 1.10312 0
M  V30 2093 C 194.856 -1.88405 0.867085 0
M  V30 2094 C 195.281 -1.79038 -0.576817 0
M  V30 2095 O 194.639 -1.14439 -1.40618 0
M  V30 2096 C 194.687 -3.3563 1.31851 0
M  V30 2097 O 193.791 -4.09565 0.482734 0
M  V30 2098 H 193.132 -0.585455 0.313271 0
M  V30 2099 H 195.662 -1.42352 1.4696 0
M  V30 2100 H 195.672 -3.86469 1.3079 0
M  V30 2101 H 194.347 -3.41765 2.37001 0
M  V30 2102 H 192.924 -3.68695 0.558448 0
M  V30 2103 N 195.109 -0.891671 -1.2995 0
M  V30 2104 C 196.337 -0.52866 -2.00032 0
M  V30 2105 C 196.752 0.884574 -1.66795 0
M  V30 2106 O 196.109 1.5827 -0.908669 0
M  V30 2107 C 196.16 -0.701814 -3.54622 0
M  V30 2108 O 195.881 -2.05942 -3.86678 0
M  V30 2109 C 197.382 -0.342683 -4.41973 0
M  V30 2110 H 194.602 -0.203659 -0.639347 0
M  V30 2111 H 197.146 -1.19881 -1.65677 0
M  V30 2112 H 195.301 -0.0789468 -3.8732 0
M  V30 2113 H 195.715 -2.08291 -4.81368 0
M  V30 2114 H 197.189 -0.514709 -5.49595 0
M  V30 2115 H 197.666 0.71975 -4.33262 0
M  V30 2116 H 198.272 -0.942154 -4.14733 0
M  V30 2117 N 196.587 1.43421 -0.653314 0
M  V30 2118 C 197.998 1.85065 -0.246537 0
M  V30 2119 C 198.349 1.54688 1.2069 0
M  V30 2120 O 197.474 0.995896 1.92122 0
M  V30 2121 C 198.069 3.35922 -0.440666 0
M  V30 2122 C 196.628 3.76297 -0.0882064 0
M  V30 2123 C 195.775 2.67147 -0.743484 0
M  V30 2124 H 198.726 1.33572 -0.856979 0
M  V30 2125 H 198.747 3.79204 0.313798 0
M  V30 2126 H 198.259 3.58 -1.49858 0
M  V30 2127 H 196.36 3.5983 0.96711 0
M  V30 2128 H 196.473 4.76338 -0.513738 0
M  V30 2129 H 194.837 2.54086 -0.176712 0
M  V30 2130 H 195.62 2.92053 -1.80443 0
M  V30 2131 N 198.065 0.39524 1.52563 0
M  V30 2132 C 198.975 -0.444232 2.30356 0
M  V30 2133 C 199.991 -1.06615 1.37511 0
M  V30 2134 O 201.167 -1.07067 1.70583 0
M  V30 2135 C 198.232 -1.55315 3.09964 0
M  V30 2136 C 197.293 -0.955734 4.18526 0
M  V30 2137 C 196.526 -2.01181 4.9433 0
M  V30 2138 O 196.749 -3.22781 4.70285 0
M  V30 2139 O 195.683 -1.62579 5.79527 0
M  V30 2140 H 199.509 0.189667 3.03107 0
M  V30 2141 H 197.094 0.1588 1.48554 0
M  V30 2142 H 198.976 -2.19724 3.59582 0
M  V30 2143 H 197.651 -2.17191 2.4002 0
M  V30 2144 H 196.558 -0.274743 3.7309 0
M  V30 2145 H 197.891 -0.381109 4.90722 0
M  V30 2146 N 199.544 -1.57102 0.125237 0
M  V30 2147 C 200.79 -1.95697 -0.532035 0
M  V30 2148 C 201.123 -1.009 -1.6593 0
M  V30 2149 O 200.398 -0.047347 -1.94442 0
M  V30 2150 C 200.681 -3.44181 -1.05884 0
M  V30 2151 C 200.534 -4.49752 0.0654392 0
M  V30 2152 C 201.853 -3.94655 -1.9477 0
M  V30 2153 H 198.972 -0.711571 -0.191925 0
M  V30 2154 H 201.614 -1.88923 0.20206 0
M  V30 2155 H 199.764 -3.50085 -1.68442 0
M  V30 2156 H 201.436 -4.55943 0.700982 0
M  V30 2157 H 199.679 -4.27653 0.727709 0
M  V30 2158 H 200.35 -5.50924 -0.344505 0
M  V30 2159 H 202.826 -3.91094 -1.42074 0
M  V30 2160 H 201.702 -4.99057 -2.28546 0
M  V30 2161 H 201.963 -3.35718 -2.87656 0
M  V30 2162 N 201.022 0.148545 -1.56898 0
M  V30 2163 C 202.247 0.880385 -1.87787 0
M  V30 2164 C 202.672 1.74018 -0.714093 0
M  V30 2165 O 202.03 1.78153 0.336343 0
M  V30 2166 C 202.078 1.71422 -3.17249 0
M  V30 2167 O 201.182 2.8183 -3.01074 0
M  V30 2168 H 200.523 0.245301 -0.617028 0
M  V30 2169 H 203.053 0.139826 -2.04122 0
M  V30 2170 H 203.063 2.10954 -3.49231 0
M  V30 2171 H 201.738 1.08284 -4.01556 0
M  V30 2172 H 200.315 2.45715 -2.80497 0
M  V30 2173 N 202.5 1.5196 0.417844 0
M  V30 2174 C 203.728 1.69426 1.18753 0
M  V30 2175 C 204.143 0.399955 1.84515 0
M  V30 2176 O 203.5 -0.623288 1.71527 0
M  V30 2177 C 203.551 2.82375 2.25714 0
M  V30 2178 O 203.272 4.06793 1.62638 0
M  V30 2179 C 204.773 3.11277 3.15628 0
M  V30 2180 H 201.993 0.568031 0.357186 0
M  V30 2181 H 204.537 1.98475 0.49273 0
M  V30 2182 H 202.692 2.5587 2.90877 0
M  V30 2183 H 203.106 4.69667 2.3348 0
M  V30 2184 H 204.58 3.93843 3.86771 0
M  V30 2185 H 205.057 2.24473 3.77503 0
M  V30 2186 H 205.663 3.39515 2.56144 0
M  V30 2187 N 203.978 -0.674533 1.42435 0
M  V30 2188 C 205.224 -1.43671 1.43131 0
M  V30 2189 C 205.557 -1.94142 0.0476021 0
M  V30 2190 O 204.832 -1.70924 -0.928188 0
M  V30 2191 C 205.115 -2.63355 2.45594 0
M  V30 2192 C 204.968 -2.18514 3.93156 0
M  V30 2193 C 206.287 -3.65571 2.45043 0
M  V30 2194 H 203.406 -0.521077 0.521198 0
M  V30 2195 H 206.048 -0.766551 1.7385 0
M  V30 2196 H 204.198 -3.2053 2.19528 0
M  V30 2197 H 205.87 -1.66504 4.30202 0
M  V30 2198 H 204.113 -1.50086 4.07009 0
M  V30 2199 H 204.784 -3.04484 4.60428 0
M  V30 2200 H 207.26 -3.18113 2.68223 0
M  V30 2201 H 206.136 -4.46893 3.18713 0
M  V30 2202 H 206.397 -4.16716 1.47649 0
M  V30 2203 N 205.456 -1.28612 -0.910864 0
M  V30 2204 C 206.733 -1.06632 -1.63979 0
M  V30 2205 C 207.113 0.393351 -2.07403 0
M  V30 2206 O 206.461 1.37999 -1.82122 0
M  V30 2207 C 206.671 -2.0436 -2.8291 0
M  V30 2208 C 208.019 -2.34666 -3.5386 0
M  V30 2209 O 209.043 -2.02467 -2.93062 0
M  V30 2210 O 207.902 -2.89631 -4.63439 0
M  V30 2211 H 204.996 -0.407737 -0.7195 0
M  V30 2212 H 207.542 -1.39942 -0.959914 0
M  V30 2213 H 206.314 -3.02727 -2.47936 0
M  V30 2214 H 205.937 -1.71714 -3.58609 0
M  V30 2215 N 206.934 1.1197 -1.10907 0
M  V30 2216 C 207.897 2.16031 -0.765707 0
M  V30 2217 C 208.897 1.59393 0.212235 0
M  V30 2218 O 210.087 1.74196 -0.0115441 0
M  V30 2219 C 207.219 3.40632 -0.135053 0
M  V30 2220 H 208.412 2.47919 -1.68748 0
M  V30 2221 H 205.965 1.27061 -0.910226 0
M  V30 2222 H 206.7 3.14348 0.797218 0
M  V30 2223 H 206.485 3.8302 -0.838937 0
M  V30 2224 H 207.975 4.17505 0.0892469 0
M  V30 2225 N 208.412 0.89855 1.29475 0
M  V30 2226 C 209.345 0.319981 2.25945 0
M  V30 2227 C 210.323 -0.567189 1.52387 0
M  V30 2228 O 211.507 -0.514254 1.8135 0
M  V30 2229 C 208.634 -0.544013 3.34303 0
M  V30 2230 C 207.68 0.275682 4.25608 0
M  V30 2231 S 208.513 1.67272 5.08704 0
M  V30 2232 C 209.669 0.815621 6.20563 0
M  V30 2233 H 209.902 1.13767 2.74671 0
M  V30 2234 H 207.435 0.69882 1.3768 0
M  V30 2235 H 209.393 -1.03673 3.97193 0
M  V30 2236 H 208.054 -1.33593 2.84274 0
M  V30 2237 H 207.247 -0.384263 5.02533 0
M  V30 2238 H 206.849 0.701496 3.67362 0
M  V30 2239 H 209.141 0.0385042 6.77489 0
M  V30 2240 H 210.084 1.55691 6.90772 0
M  V30 2241 H 210.492 0.370516 5.63283 0
M  V30 2242 N 209.89 -1.43072 0.660911 0
M  V30 2243 C 210.82 -2.33497 -0.0122829 0
M  V30 2244 C 211.801 -1.49903 -0.803925 0
M  V30 2245 O 212.986 -1.78546 -0.763864 0
M  V30 2246 C 210.116 -3.33363 -0.973994 0
M  V30 2247 C 209.07 -4.27003 -0.291928 0
M  V30 2248 C 208.396 -5.16967 -1.36562 0
M  V30 2249 C 209.696 -5.15816 0.820462 0
M  V30 2250 H 211.39 -2.90038 0.742873 0
M  V30 2251 H 208.936 -1.39461 0.358688 0
M  V30 2252 H 210.889 -3.95524 -1.45392 0
M  V30 2253 H 209.613 -2.75095 -1.7604 0
M  V30 2254 H 208.272 -3.66217 0.167623 0
M  V30 2255 H 207.92 -4.55034 -2.14366 0
M  V30 2256 H 207.62 -5.80441 -0.914454 0
M  V30 2257 H 209.144 -5.82003 -1.84675 0
M  V30 2258 H 210.558 -5.71742 0.422366 0
M  V30 2259 H 208.955 -5.8805 1.19656 0
M  V30 2260 H 210.025 -4.55045 1.67518 0
M  V30 2261 N 211.368 -0.403325 -1.52352 0
M  V30 2262 C 212.645 0.232611 -1.94212 0
M  V30 2263 C 213.025 1.63133 -1.33981 0
M  V30 2264 O 212.373 2.22659 -0.513344 0
M  V30 2265 C 212.583 0.244811 -3.4814 0
M  V30 2266 C 213.931 0.46698 -4.22024 0
M  V30 2267 O 214.955 0.324419 -3.5472 0
M  V30 2268 O 213.814 0.74747 -5.41364 0
M  V30 2269 H 210.908 0.148223 -0.813609 0
M  V30 2270 H 213.454 -0.458848 -1.63379 0
M  V30 2271 H 212.226 -0.734378 -3.84347 0
M  V30 2272 H 211.849 0.980611 -3.85318 0
M  V30 2273 N 212.846 1.57033 -0.133567 0
M  V30 2274 C 213.776 2.1909 0.807567 0
M  V30 2275 C 214.757 1.13517 1.26681 0
M  V30 2276 O 215.942 1.41809 1.32679 0
M  V30 2277 C 213.072 2.80188 2.05212 0
M  V30 2278 C 212.026 3.91471 1.73015 0
M  V30 2279 C 211.352 4.39443 3.04622 0
M  V30 2280 C 212.652 5.12886 0.987168 0
M  V30 2281 H 214.346 2.97988 0.290403 0
M  V30 2282 H 211.892 1.43335 0.138239 0
M  V30 2283 H 213.845 3.22264 2.71521 0
M  V30 2284 H 212.569 1.98601 2.59278 0
M  V30 2285 H 211.228 3.49993 1.0909 0
M  V30 2286 H 210.876 3.54695 3.56651 0
M  V30 2287 H 210.576 5.14495 2.83847 0
M  V30 2288 H 212.1 4.8418 3.72024 0
M  V30 2289 H 213.514 5.51891 1.55208 0
M  V30 2290 H 211.911 5.93615 0.87985 0
M  V30 2291 H 212.981 4.84894 -0.0235286 0
M  V30 2292 N 214.325 -0.140222 1.56975 0
M  V30 2293 C 215.574 -0.850152 1.82908 0
M  V30 2294 C 215.887 -1.82028 0.715892 0
M  V30 2295 O 217.093 -2.57485 0.861016 0
M  V30 2296 C 215.549 -1.5625 3.24213 0
M  V30 2297 C 215.157 -0.63443 4.43485 0
M  V30 2298 C 216.901 -2.25881 3.59413 0
M  V30 2299 C 214.808 -1.34879 5.75814 0
M  V30 2300 H 213.738 -0.321221 0.682153 0
M  V30 2301 H 216.389 -0.102874 1.83211 0
M  V30 2302 H 214.771 -2.35565 3.18316 0
M  V30 2303 H 215.945 0.12398 4.60633 0
M  V30 2304 H 214.26 -0.0461836 4.16374 0
M  V30 2305 H 216.857 -2.79978 4.5554 0
M  V30 2306 H 217.2 -3.02693 2.85802 0
M  V30 2307 H 217.733 -1.53477 3.67001 0
M  V30 2308 H 214.472 -0.622385 6.52539 0
M  V30 2309 H 213.992 -2.07974 5.6259 0
M  V30 2310 H 215.671 -1.88784 6.18845 0
M  V30 2311 N 215.803 -1.52179 -0.40978 0
M  V30 2312 C 217.219 -1.40968 -0.74835 0
M  V30 2313 C 217.419 -0.513657 -1.94843 0
M  V30 2314 O 216.475 0.0208026 -2.52491 0
M  V30 2315 C 217.788 -2.83483 -1.0029 0
M  V30 2316 C 219.336 -2.92821 -1.10565 0
M  V30 2317 C 219.811 -4.36303 -1.39296 0
M  V30 2318 N 221.302 -4.39535 -1.46162 0
M  V30 2319 C 222.037 -5.47614 -1.70018 0
M  V30 2320 N 221.533 -6.65812 -1.91483 0
M  V30 2321 N 223.326 -5.35129 -1.72027 0
M  V30 2322 H 215.477 -2.0897 0.380186 0
M  V30 2323 H 217.74 -0.94185 0.107805 0
M  V30 2324 H 217.446 -3.51168 -0.193461 0
M  V30 2325 H 217.32 -3.24487 -1.92323 0
M  V30 2326 H 219.707 -2.25318 -1.90568 0
M  V30 2327 H 219.788 -2.55276 -0.16369 0
M  V30 2328 H 219.432 -5.04366 -0.598109 0
M  V30 2329 H 219.362 -4.71385 -2.34743 0
M  V30 2330 H 221.853 -3.54332 -1.31367 0
M  V30 2331 H 222.166 -7.43964 -2.09134 0
M  V30 2332 H 220.511 -6.68879 -1.88749 0
M  V30 2333 H 223.702 -4.41764 -1.54796 0
M  V30 2334 H 223.875 -6.19433 -1.9028 0
M  V30 2335 N 217.281 0.66697 -1.42791 0
M  V30 2336 C 218.229 1.80157 -1.47127 0
M  V30 2337 C 219.223 1.65825 -0.346199 0
M  V30 2338 O 220.429 1.72338 -0.519572 0
M  V30 2339 H 216.804 0.594158 -0.460956 0
M  V30 2340 H 218.775 1.73619 -2.42692 0
M  V30 2341 C 217.524 3.18351 -1.39813 0
M  V30 2342 H 216.847 3.3001 -2.25684 0
M  V30 2343 H 218.287 3.97736 -1.46908 0
M  V30 2344 C 216.746 3.36707 -0.11391 0
M  V30 2345 O 217.276 3.93027 0.830241 0
M  V30 2346 N 215.482 2.90586 -0.0285295 0
M  V30 2347 H 215.029 2.4494 -0.79764 0
M  V30 2348 H 214.987 3.03245 0.830063 0
M  V30 2349 N 218.759 1.29093 0.90403 0
M  V30 2350 C 219.692 1.08176 2.00931 0
M  V30 2351 C 220.67 -0.005083 1.62599 0
M  V30 2352 O 221.854 0.144765 1.87943 0
M  V30 2353 C 218.981 0.645897 3.32484 0
M  V30 2354 C 218.027 1.73081 3.89801 0
M  V30 2355 S 218.86 3.32905 4.19446 0
M  V30 2356 C 220.016 2.91176 5.54046 0
M  V30 2357 H 220.249 2.01752 2.18365 0
M  V30 2358 H 217.782 1.13191 1.0501 0
M  V30 2359 H 219.74 0.401131 4.08535 0
M  V30 2360 H 218.401 -0.270188 3.12936 0
M  V30 2361 H 217.594 1.37768 4.84805 0
M  V30 2362 H 217.196 1.92888 3.20422 0
M  V30 2363 H 219.488 2.37952 6.34338 0
M  V30 2364 H 220.431 3.85014 5.94281 0
M  V30 2365 H 220.839 2.296 5.15698 0
M  V30 2366 N 220.237 -1.11381 1.11499 0
M  V30 2367 C 221.484 -1.83132 0.864231 0
M  V30 2368 C 221.812 -1.84683 -0.610114 0
M  V30 2369 O 221.067 -1.29589 -1.46646 0
M  V30 2370 C 221.366 -3.30026 1.37177 0
M  V30 2371 C 221.032 -3.48634 2.85946 0
M  V30 2372 C 219.694 -3.53421 3.26569 0
M  V30 2373 C 222.046 -3.54837 3.81759 0
M  V30 2374 C 219.374 -3.61967 4.61733 0
M  V30 2375 C 221.726 -3.64915 5.1674 0
M  V30 2376 C 220.39 -3.67962 5.5692 0
M  V30 2377 H 219.66 -0.670127 0.316245 0
M  V30 2378 H 222.307 -1.31354 1.3935 0
M  V30 2379 H 220.612 -3.84304 0.762753 0
M  V30 2380 H 222.309 -3.84034 1.15408 0
M  V30 2381 H 218.899 -3.45579 2.53521 0
M  V30 2382 H 223.083 -3.50399 3.51474 0
M  V30 2383 H 218.339 -3.62603 4.92269 0
M  V30 2384 H 222.513 -3.68658 5.90816 0
M  V30 2385 H 220.14 -3.74336 6.61647 0
M  V30 2386 N 221.715 -0.905404 -1.28997 0
M  V30 2387 C 223.126 -0.581953 -1.77398 0
M  V30 2388 C 223.477 0.902552 -1.74208 0
M  V30 2389 O 222.602 1.70584 -1.33154 0
M  V30 2390 C 223.197 -1.04961 -3.22131 0
M  V30 2391 C 221.756 -0.777229 -3.68288 0
M  V30 2392 C 220.903 -1.22109 -2.48967 0
M  V30 2393 H 223.854 -1.08754 -1.15578 0
M  V30 2394 H 223.875 -0.387387 -3.78523 0
M  V30 2395 H 223.387 -2.13008 -3.24421 0
M  V30 2396 H 221.488 0.290383 -3.71467 0
M  V30 2397 H 221.601 -1.37911 -4.58822 0
M  V30 2398 H 219.965 -0.639971 -2.46529 0
M  V30 2399 H 220.748 -2.30972 -2.53982 0
M  V30 2400 N 223.193 1.4272 -0.668489 0
M  V30 2401 C 224.103 2.34596 0.0139753 0
M  V30 2402 C 225.119 1.5474 0.795703 0
M  V30 2403 O 226.295 1.87334 0.739466 0
M  V30 2404 C 223.36 3.33202 0.957982 0
M  V30 2405 C 222.421 4.28957 0.17149 0
M  V30 2406 C 221.654 5.22853 1.07053 0
M  V30 2407 O 221.877 5.21531 2.31001 0
M  V30 2408 O 220.811 5.9952 0.534727 0
M  V30 2409 H 224.637 2.9448 -0.742661 0
M  V30 2410 H 222.222 1.43117 -0.428705 0
M  V30 2411 H 224.104 3.93796 1.50008 0
M  V30 2412 H 222.779 2.758 1.69458 0
M  V30 2413 H 221.686 3.71796 -0.414558 0
M  V30 2414 H 223.019 4.89383 -0.52586 0
M  V30 2415 N 224.671 0.411399 1.52136 0
M  V30 2416 C 225.619 -0.427633 2.28635 0
M  V30 2417 C 226.613 -1.04383 1.33419 0
M  V30 2418 O 227.819 -0.981772 1.50868 0
M  V30 2419 H 224.194 -0.156689 0.735495 0
M  V30 2420 H 226.165 0.238761 2.97443 0
M  V30 2421 C 224.914 -1.53082 3.12188 0
M  V30 2422 H 224.237 -1.06601 3.85326 0
M  V30 2423 H 225.677 -2.09167 3.68816 0
M  V30 2424 C 224.136 -2.49946 2.25895 0
M  V30 2425 O 224.666 -3.53884 1.90076 0
M  V30 2426 N 222.872 -2.2021 1.8962 0
M  V30 2427 H 222.419 -1.35719 2.18948 0
M  V30 2428 H 222.377 -2.85266 1.32176 0
M  V30 2429 N 226.149 -1.5696 0.141893 0
M  V30 2430 C 227.079 -2.19516 -0.795936 0
M  V30 2431 C 228.06 -1.14187 -1.26077 0
M  V30 2432 O 229.245 -1.42511 -1.31925 0
M  V30 2433 C 226.375 -2.81272 -2.03723 0
M  V30 2434 C 225.329 -3.92384 -1.70936 0
M  V30 2435 C 224.655 -4.41052 -3.02287 0
M  V30 2436 C 225.955 -5.13403 -0.959954 0
M  V30 2437 H 227.649 -2.98138 -0.274596 0
M  V30 2438 H 225.195 -1.43406 -0.130636 0
M  V30 2439 H 227.148 -3.237 -2.69808 0
M  V30 2440 H 225.872 -1.99973 -2.58221 0
M  V30 2441 H 224.531 -3.50566 -1.07232 0
M  V30 2442 H 224.179 -3.56582 -3.54765 0
M  V30 2443 H 223.879 -5.15993 -2.81114 0
M  V30 2444 H 225.403 -4.86146 -3.69451 0
M  V30 2445 H 226.817 -5.52706 -1.52279 0
M  V30 2446 H 225.214 -5.94073 -0.848357 0
M  V30 2447 H 226.284 -4.84875 0.0492434 0
M  V30 2448 N 227.627 0.131896 -1.57047 0
M  V30 2449 C 228.873 0.843179 -1.84441 0
M  V30 2450 C 229.206 1.80129 -0.725749 0
M  V30 2451 O 228.481 1.92624 0.269469 0
M  V30 2452 C 228.764 1.60442 -3.22382 0
M  V30 2453 C 228.617 0.666782 -4.4483 0
M  V30 2454 C 229.936 2.56354 -3.5773 0
M  V30 2455 H 227.055 0.305081 -0.670891 0
M  V30 2456 H 229.697 0.107839 -1.89694 0
M  V30 2457 H 227.847 2.23128 -3.18035 0
M  V30 2458 H 229.519 0.0497646 -4.61273 0
M  V30 2459 H 227.762 -0.022609 -4.33794 0
M  V30 2460 H 228.433 1.23579 -5.37989 0
M  V30 2461 H 230.909 2.0378 -3.62785 0
M  V30 2462 H 229.785 3.06657 -4.5525 0
M  V30 2463 H 230.046 3.38419 -2.84473 0
M  V30 2464 N 229.106 1.52395 0.401703 0
M  V30 2465 C 230.038 1.72505 1.50912 0
M  V30 2466 C 231.051 0.605468 1.51122 0
M  V30 2467 O 232.24 0.880828 1.55254 0
M  V30 2468 C 229.34 1.75711 2.89791 0
M  V30 2469 C 228.513 3.04824 3.1369 0
M  V30 2470 C 227.572 2.99743 4.32482 0
M  V30 2471 O 226.598 3.73635 4.29402 0
M  V30 2472 N 227.8 2.18047 5.37992 0
M  V30 2473 H 230.565 2.68049 1.34052 0
M  V30 2474 H 228.126 1.50724 0.591084 0
M  V30 2475 H 230.118 1.69834 3.6734 0
M  V30 2476 H 228.688 0.876092 3.00072 0
M  V30 2477 H 227.908 3.2429 2.24119 0
M  V30 2478 H 229.196 3.90221 3.26504 0
M  V30 2479 H 228.594 1.57456 5.43345 0
M  V30 2480 H 227.151 2.18021 6.14256 0
M  V30 2481 N 230.584 -0.659388 1.43143 0
M  V30 2482 C 231.547 -1.75432 1.47501 0
M  V30 2483 C 232.547 -1.56707 0.360512 0
M  V30 2484 O 233.737 -1.62717 0.622002 0
M  V30 2485 C 230.869 -3.14239 1.32162 0
M  V30 2486 H 232.062 -1.7295 2.45006 0
M  V30 2487 H 229.615 -0.870469 1.29817 0
M  V30 2488 H 230.35 -3.22336 0.356401 0
M  V30 2489 H 230.135 -3.29235 2.12948 0
M  V30 2490 H 231.625 -3.94094 1.3813 0
M  V30 2491 N 232.062 -1.29571 -0.897171 0
M  V30 2492 C 233.302 -1.18959 -1.66217 0
M  V30 2493 C 233.666 0.254271 -1.90309 0
M  V30 2494 O 234.867 0.483407 -2.64417 0
M  V30 2495 C 233.138 -1.98302 -2.9734 0
M  V30 2496 S 234.697 -2.04253 -3.88364 0
M  V30 2497 H 231.515 -0.424137 -0.570639 0
M  V30 2498 H 234.117 -1.6389 -1.06585 0
M  V30 2499 H 232.821 -3.02342 -2.77521 0
M  V30 2500 H 232.352 -1.53986 -3.62011 0
M  V30 2501 H 234.367 -1.16105 -4.82425 0
M  V30 2502 N 233.54 1.10788 -1.12088 0
M  V30 2503 C 234.787 1.82671 -0.873931 0
M  V30 2504 C 235.115 1.85004 0.600311 0
M  V30 2505 O 234.37 1.30365 1.45957 0
M  V30 2506 C 234.669 3.29294 -1.38926 0
M  V30 2507 C 234.335 3.47113 -2.87791 0
M  V30 2508 C 232.997 3.51684 -3.28439 0
M  V30 2509 C 235.349 3.52808 -3.83635 0
M  V30 2510 C 232.677 3.59513 -4.63646 0
M  V30 2511 C 235.029 3.62169 -5.18668 0
M  V30 2512 C 233.693 3.65003 -5.58864 0
M  V30 2513 H 232.963 0.668441 -0.319794 0
M  V30 2514 H 235.61 1.30613 -1.40045 0
M  V30 2515 H 233.915 3.83894 -0.783122 0
M  V30 2516 H 235.612 3.83416 -1.17443 0
M  V30 2517 H 232.202 3.4423 -2.5535 0
M  V30 2518 H 236.386 3.4853 -3.53328 0
M  V30 2519 H 231.642 3.59987 -4.94185 0
M  V30 2520 H 235.816 3.6552 -5.92763 0
M  V30 2521 H 233.443 3.70822 -6.63623 0
M  V30 2522 N 235.018 0.912232 1.28515 0
M  V30 2523 C 235.95 0.35676 2.26406 0
M  V30 2524 C 236.963 -0.503933 1.54804 0
M  V30 2525 O 238.152 -0.319059 1.75625 0
M  V30 2526 C 235.252 -0.508825 3.35058 0
M  V30 2527 C 234.425 0.329007 4.36161 0
M  V30 2528 C 233.484 -0.471422 5.24084 0
M  V30 2529 O 232.51 0.115482 5.69083 0
M  V30 2530 N 233.712 -1.77479 5.52704 0
M  V30 2531 H 236.477 1.19818 2.74707 0
M  V30 2532 H 234.038 0.778022 1.4198 0
M  V30 2533 H 236.03 -1.051 3.90815 0
M  V30 2534 H 234.6 -1.25095 2.86478 0
M  V30 2535 H 233.82 1.05256 3.79888 0
M  V30 2536 H 235.108 0.90234 5.00735 0
M  V30 2537 H 234.506 -2.27417 5.17975 0
M  V30 2538 H 233.063 -2.26382 6.11224 0
M  V30 2539 N 236.496 -1.42363 0.676048 0
M  V30 2540 C 237.428 -2.29164 -0.0404605 0
M  V30 2541 C 238.441 -1.43747 -0.764245 0
M  V30 2542 O 239.63 -1.67453 -0.618195 0
M  V30 2543 C 236.73 -3.21196 -1.08103 0
M  V30 2544 C 235.903 -4.35273 -0.430812 0
M  V30 2545 C 234.962 -5.08017 -1.37133 0
M  V30 2546 O 233.988 -5.62494 -0.87116 0
M  V30 2547 N 235.19 -5.13647 -2.70456 0
M  V30 2548 H 237.955 -2.91298 0.704667 0
M  V30 2549 H 235.516 -1.53303 0.520559 0
M  V30 2550 H 237.508 -3.66728 -1.71152 0
M  V30 2551 H 236.078 -2.60505 -1.72788 0
M  V30 2552 H 235.298 -3.92372 0.379209 0
M  V30 2553 H 236.586 -5.08795 0.0221132 0
M  V30 2554 H 235.984 -4.708 -3.1363 0
M  V30 2555 H 234.541 -5.62821 -3.28749 0
M  V30 2556 N 237.974 -0.419461 -1.51915 0
M  V30 2557 C 239.204 0.151915 -2.06041 0
M  V30 2558 C 239.612 1.38539 -1.28855 0
M  V30 2559 O 238.955 1.80592 -0.336463 0
M  V30 2560 C 239.017 0.557119 -3.55157 0
M  V30 2561 C 238.681 -0.567054 -4.53468 0
M  V30 2562 C 239.678 -1.43379 -4.99738 0
M  V30 2563 C 237.363 -0.742693 -4.96779 0
M  V30 2564 C 239.357 -2.46102 -5.87973 0
M  V30 2565 C 237.044 -1.77322 -5.84808 0
M  V30 2566 C 238.042 -2.63078 -6.30301 0
M  V30 2567 O 237.73 -3.64364 -7.16585 0
M  V30 2568 H 237.462 0.0193293 -0.675724 0
M  V30 2569 H 240.016 -0.592073 -1.96682 0
M  V30 2570 H 238.246 1.35355 -3.62238 0
M  V30 2571 H 239.935 1.05759 -3.9188 0
M  V30 2572 H 240.701 -1.30954 -4.66986 0
M  V30 2573 H 236.58 -0.0848307 -4.60922 0
M  V30 2574 H 240.124 -3.13071 -6.23404 0
M  V30 2575 H 236.021 -1.89773 -6.16974 0
M  V30 2576 H 236.789 -3.60731 -7.34721 0
M  V30 2577 N 239.452 1.56882 -0.150215 0
M  V30 2578 C 240.399 2.16922 0.788244 0
M  V30 2579 C 241.369 1.10303 1.24187 0
M  V30 2580 O 242.554 1.38359 1.31383 0
M  V30 2581 C 239.694 2.79754 2.02068 0
M  V30 2582 C 238.807 4.00775 1.61257 0
M  V30 2583 C 237.942 4.51595 2.79705 0
M  V30 2584 C 236.981 5.65074 2.35282 0
M  V30 2585 N 236.118 6.10499 3.4675 0
M  V30 2586 H 240.958 2.96779 0.269444 0
M  V30 2587 H 238.495 1.46599 0.12128 0
M  V30 2588 H 240.453 3.14329 2.74323 0
M  V30 2589 H 239.083 2.02536 2.51354 0
M  V30 2590 H 238.135 3.72158 0.787553 0
M  V30 2591 H 239.447 4.82978 1.24633 0
M  V30 2592 H 238.601 4.88242 3.60145 0
M  V30 2593 H 237.34 3.68406 3.19576 0
M  V30 2594 H 236.345 5.28 1.53283 0
M  V30 2595 H 237.57 6.50052 1.96493 0
M  V30 2596 H 235.516 5.30243 3.86236 0
M  V30 2597 H 235.433 6.87637 3.14152 0
M  V30 2598 H 236.701 6.51791 4.27537 0
M  V30 2599 N 240.93 -0.123565 1.57115 0
M  V30 2600 C 242.158 -0.846461 1.88793 0
M  V30 2601 C 242.573 -1.73652 0.740976 0
M  V30 2602 O 241.93 -1.80207 -0.288393 0
M  V30 2603 C 241.981 -1.6837 3.19897 0
M  V30 2604 O 241.702 -0.829477 4.30176 0
M  V30 2605 C 243.203 -2.51214 3.65248 0
M  V30 2606 H 240.423 -0.243573 0.625231 0
M  V30 2607 H 242.967 -0.109324 2.04208 0
M  V30 2608 H 241.122 -2.37364 3.06165 0
M  V30 2609 H 241.536 -1.40651 5.0529 0
M  V30 2610 H 243.01 -3.05497 4.59756 0
M  V30 2611 H 243.487 -3.28359 2.9168 0
M  V30 2612 H 244.093 -1.8747 3.81752 0
M  V30 2613 N 242.408 -1.52605 -0.393616 0
M  V30 2614 C 243.355 -1.77055 -1.48054 0
M  V30 2615 C 244.325 -0.61358 -1.54352 0
M  V30 2616 O 245.51 -0.852806 -1.70681 0
M  V30 2617 C 242.65 -1.94108 -2.85335 0
M  V30 2618 C 241.763 -3.21792 -2.88226 0
M  V30 2619 C 240.898 -3.29188 -4.16904 0
M  V30 2620 C 239.937 -4.51013 -4.13828 0
M  V30 2621 N 239.074 -4.55716 -5.34105 0
M  V30 2622 H 243.914 -2.69815 -1.26506 0
M  V30 2623 H 241.451 -1.33683 -0.61379 0
M  V30 2624 H 243.409 -2.01979 -3.65049 0
M  V30 2625 H 242.039 -1.04713 -3.05344 0
M  V30 2626 H 241.091 -3.23015 -2.00911 0
M  V30 2627 H 242.403 -4.11557 -2.8182 0
M  V30 2628 H 241.557 -3.36216 -5.05018 0
M  V30 2629 H 240.296 -2.37389 -4.26026 0
M  V30 2630 H 239.301 -4.44115 -3.24102 0
M  V30 2631 H 240.526 -5.44123 -4.06333 0
M  V30 2632 H 238.472 -3.66807 -5.43865 0
M  V30 2633 H 238.389 -5.39346 -5.29756 0
M  V30 2634 H 239.657 -4.66993 -6.2413 0
M  V30 2635 N 243.887 0.651787 -1.4349 0
M  V30 2636 C 245.303 0.96762 -1.26922 0
M  V30 2637 C 245.503 2.00602 -0.189982 0
M  V30 2638 O 244.559 2.48793 0.431107 0
M  V30 2639 C 245.872 1.45052 -2.63401 0
M  V30 2640 C 247.42 1.5671 -2.70945 0
M  V30 2641 C 247.895 2.0839 -4.07845 0
M  V30 2642 N 249.386 2.1569 -4.09917 0
M  V30 2643 C 250.121 2.56804 -5.12679 0
M  V30 2644 N 249.617 2.97203 -6.25813 0
M  V30 2645 N 251.41 2.56756 -5.00033 0
M  V30 2646 H 243.561 -0.0353158 -2.12371 0
M  V30 2647 H 245.824 0.0467858 -0.946845 0
M  V30 2648 H 245.53 0.761926 -3.43348 0
M  V30 2649 H 245.404 2.42529 -2.88894 0
M  V30 2650 H 247.791 2.2467 -1.9133 0
M  V30 2651 H 247.872 0.57662 -2.49216 0
M  V30 2652 H 247.516 1.41031 -4.87927 0
M  V30 2653 H 247.446 3.08271 -4.26938 0
M  V30 2654 H 249.937 1.87237 -3.28254 0
M  V30 2655 H 250.25 3.27328 -7.00055 0
M  V30 2656 H 248.595 2.95004 -6.29283 0
M  V30 2657 H 251.786 2.24572 -4.10713 0
M  V30 2658 H 251.959 2.88475 -5.80247 0
M  V30 2659 N 245.365 1.30045 0.890287 0
M  V30 2660 C 246.275 1.17885 2.02831 0
M  V30 2661 C 247.291 0.0999609 1.73713 0
M  V30 2662 O 248.467 0.313867 1.98939 0
M  V30 2663 C 245.532 0.866079 3.35708 0
M  V30 2664 C 244.593 2.02979 3.78283 0
M  V30 2665 C 243.826 1.73184 5.0482 0
M  V30 2666 O 244.049 0.657237 5.66601 0
M  V30 2667 O 242.983 2.58267 5.43674 0
M  V30 2668 H 246.809 2.13474 2.16015 0
M  V30 2669 H 244.394 1.09587 1.01543 0
M  V30 2670 H 246.276 0.706623 4.15433 0
M  V30 2671 H 244.951 -0.0599443 3.23644 0
M  V30 2672 H 243.858 2.24454 2.99285 0
M  V30 2673 H 245.191 2.93734 3.94944 0
M  V30 2674 N 246.843 -1.10192 1.12674 0
M  V30 2675 C 247.753 -2.20172 0.810026 0
M  V30 2676 C 248.769 -1.72821 -0.202188 0
M  V30 2677 O 249.945 -2.01369 -0.0351691 0
M  V30 2678 C 247.01 -3.45631 0.272007 0
M  V30 2679 C 246.071 -4.07704 1.34447 0
M  V30 2680 C 245.304 -5.27175 0.832029 0
M  V30 2681 O 245.527 -5.69425 -0.333284 0
M  V30 2682 O 244.461 -5.80168 1.60277 0
M  V30 2683 H 248.287 -2.49701 1.72867 0
M  V30 2684 H 245.872 -1.18977 0.903597 0
M  V30 2685 H 247.754 -4.21394 -0.0230219 0
M  V30 2686 H 246.429 -3.17723 -0.619164 0
M  V30 2687 H 245.336 -3.33614 1.6927 0
M  V30 2688 H 246.669 -4.3982 2.2095 0
M  V30 2689 N 248.321 -0.919034 -1.28029 0
M  V30 2690 C 249.567 -0.555757 -1.95036 0
M  V30 2691 C 249.9 0.899198 -1.72128 0
M  V30 2692 O 249.175 1.64023 -1.04531 0
M  V30 2693 C 249.458 -0.872024 -3.49382 0
M  V30 2694 C 249.311 -2.3801 -3.81669 0
M  V30 2695 C 250.63 -0.37185 -4.38526 0
M  V30 2696 H 247.749 -0.203386 -0.708381 0
M  V30 2697 H 250.391 -1.14924 -1.51303 0
M  V30 2698 H 248.541 -0.366946 -3.86763 0
M  V30 2699 H 250.213 -2.9562 -3.54128 0
M  V30 2700 H 248.456 -2.83289 -3.28526 0
M  V30 2701 H 249.127 -2.55192 -4.8947 0
M  V30 2702 H 251.603 -0.804602 -4.08247 0
M  V30 2703 H 250.479 -0.622173 -5.45362 0
M  V30 2704 H 250.74 0.727934 -4.36066 0
M  V30 2705 N 249.799 1.42003 -0.683588 0
M  V30 2706 C 250.746 2.30798 -0.0107309 0
M  V30 2707 C 251.716 1.4645 0.783688 0
M  V30 2708 O 252.901 1.75263 0.754156 0
M  V30 2709 C 250.041 3.3238 0.928306 0
M  V30 2710 C 249.154 4.31814 0.126776 0
M  V30 2711 C 248.289 5.20468 1.06236 0
M  V30 2712 C 247.328 6.11577 0.253035 0
M  V30 2713 N 246.465 6.92754 1.14179 0
M  V30 2714 H 251.305 2.8778 -0.773727 0
M  V30 2715 H 248.842 1.41745 -0.393283 0
M  V30 2716 H 250.8 3.89813 1.48666 0
M  V30 2717 H 249.43 2.76976 1.65783 0
M  V30 2718 H 248.482 3.76427 -0.54833 0
M  V30 2719 H 249.794 4.96276 -0.501192 0
M  V30 2720 H 248.948 5.82677 1.69035 0
M  V30 2721 H 247.687 4.56204 1.7242 0
M  V30 2722 H 246.692 5.48428 -0.388108 0
M  V30 2723 H 247.917 6.77892 -0.404839 0
M  V30 2724 H 245.863 6.3111 1.78987 0
M  V30 2725 H 245.78 7.53855 0.569111 0
M  V30 2726 H 247.048 7.59441 1.75697 0
M  V30 2727 N 251.277 0.427512 1.51691 0
M  V30 2728 C 252.688 -0.0378867 1.86662 0
M  V30 2729 C 253.039 -1.42819 1.34525 0
M  V30 2730 O 252.164 -2.05037 0.692014 0
M  V30 2731 C 252.759 -0.0755266 3.38716 0
M  V30 2732 C 251.318 -0.485309 3.73258 0
M  V30 2733 C 250.465 0.328399 2.75349 0
M  V30 2734 H 253.416 0.64379 1.45055 0
M  V30 2735 H 253.437 -0.887056 3.70016 0
M  V30 2736 H 252.949 0.936487 3.76632 0
M  V30 2737 H 251.05 -1.50329 3.40928 0
M  V30 2738 H 251.163 -0.21693 4.78609 0
M  V30 2739 H 249.527 -0.211905 2.53817 0
M  V30 2740 H 250.31 1.3391 3.16106 0
M  V30 2741 N 252.755 -1.56801 0.158532 0
M  V30 2742 C 254.166 -1.83189 -0.360366 0
M  V30 2743 C 254.517 -1.07778 -1.63946 0
M  V30 2744 O 253.642 -0.326718 -2.13919 0
M  V30 2745 C 254.237 -3.32297 -0.660595 0
M  V30 2746 C 252.796 -3.59227 -1.12398 0
M  V30 2747 C 251.943 -2.76877 -0.153097 0
M  V30 2748 H 254.894 -1.54008 0.383031 0
M  V30 2749 H 254.915 -3.4908 -1.51405 0
M  V30 2750 H 254.427 -3.87156 0.270527 0
M  V30 2751 H 252.528 -3.09766 -2.07064 0
M  V30 2752 H 252.641 -4.67632 -1.04197 0
M  V30 2753 H 251.005 -2.46319 -0.647983 0
M  V30 2754 H 251.788 -3.34511 0.77182 0
M  V30 2755 N 254.233 0.115231 -1.57178 0
M  V30 2756 C 255.458 0.840354 -1.89612 0
M  V30 2757 C 255.883 1.72464 -0.750845 0
M  V30 2758 O 255.241 1.78826 0.298478 0
M  V30 2759 C 255.289 1.64654 -3.20814 0
M  V30 2760 O 254.393 2.7538 -3.06985 0
M  V30 2761 H 253.734 0.232158 -0.622092 0
M  V30 2762 H 256.264 0.0964977 -2.04372 0
M  V30 2763 H 256.274 2.03499 -3.53627 0
M  V30 2764 H 254.949 0.997416 -4.03763 0
M  V30 2765 H 253.526 2.3971 -2.85646 0
M  V30 2766 N 255.711 1.52812 0.385517 0
M  V30 2767 C 256.988 1.5861 1.14465 0
M  V30 2768 C 257.368 0.381402 2.07626 0
M  V30 2769 O 256.716 -0.629999 2.19643 0
M  V30 2770 C 256.926 2.92664 1.90128 0
M  V30 2771 C 258.274 3.46526 2.45367 0
M  V30 2772 O 259.298 2.94562 2.0028 0
M  V30 2773 O 258.157 4.37323 3.27736 0
M  V30 2774 H 255.251 0.639855 0.523941 0
M  V30 2775 H 257.797 1.65149 0.390389 0
M  V30 2776 H 256.569 3.71788 1.22022 0
M  V30 2777 H 256.192 2.89527 2.72507 0
M  V30 2778 N 257.189 -0.644168 1.43834 0
M  V30 2779 C 258.6 -1.22554 1.40845 0
M  V30 2780 C 258.951 -1.9585 0.117115 0
M  V30 2781 O 258.076 -2.01734 -0.783086 0
M  V30 2782 C 258.671 -2.22907 2.55143 0
M  V30 2783 C 257.23 -2.76501 2.5539 0
M  V30 2784 C 256.377 -1.51287 2.32396 0
M  V30 2785 H 259.328 -0.43563 1.52604 0
M  V30 2786 H 259.349 -3.05259 2.2715 0
M  V30 2787 H 258.861 -1.69533 3.49114 0
M  V30 2788 H 256.962 -3.33914 1.65324 0
M  V30 2789 H 257.075 -3.23429 3.53455 0
M  V30 2790 H 255.439 -1.78957 1.81236 0
M  V30 2791 H 256.222 -0.998336 3.28463 0
M  V30 2792 N 258.668 -1.30515 -0.883378 0
M  V30 2793 C 259.578 -1.18959 -2.02203 0
M  V30 2794 C 260.594 -0.109172 -1.73657 0
M  V30 2795 O 261.77 -0.324413 -1.9877 0
M  V30 2796 C 258.835 -0.883871 -3.35244 0
M  V30 2797 C 257.896 -2.04982 -3.77201 0
M  V30 2798 C 257.129 -1.75859 -5.03894 0
M  V30 2799 O 257.352 -0.687276 -5.66244 0
M  V30 2800 O 256.286 -2.61146 -5.42297 0
M  V30 2801 H 260.112 -2.14616 -2.1488 0
M  V30 2802 H 257.697 -1.10124 -1.0096 0
M  V30 2803 H 259.579 -0.728644 -4.15053 0
M  V30 2804 H 258.254 0.0427798 -3.23672 0
M  V30 2805 H 257.161 -2.26038 -2.9809 0
M  V30 2806 H 258.494 -2.95825 -3.93381 0
M  V30 2807 N 260.146 1.09593 -1.13257 0
M  V30 2808 C 261.079 2.15451 -0.752061 0
M  V30 2809 C 262.057 1.60493 0.260913 0
M  V30 2810 O 263.241 1.8788 0.152819 0
M  V30 2811 C 260.368 3.38506 -0.114594 0
M  V30 2812 C 259.414 4.12183 -1.09579 0
M  V30 2813 S 260.247 4.6661 -2.62745 0
M  V30 2814 C 261.403 5.92966 -2.00354 0
M  V30 2815 H 261.636 2.47395 -1.64872 0
M  V30 2816 H 259.169 1.21515 -0.952545 0
M  V30 2817 H 261.127 4.09757 0.246808 0
M  V30 2818 H 259.788 3.04784 0.759309 0
M  V30 2819 H 258.981 5.00445 -0.597545 0
M  V30 2820 H 258.583 3.46785 -1.40057 0
M  V30 2821 H 260.875 6.63882 -1.35156 0
M  V30 2822 H 261.818 6.47467 -2.86691 0
M  V30 2823 H 262.226 5.45405 -1.4558 0
M  V30 2824 N 261.624 0.925811 1.2754 0
M  V30 2825 C 262.572 0.413897 2.28888 0
M  V30 2826 C 263.566 -0.500779 1.61829 0
M  V30 2827 O 264.772 -0.38069 1.75928 0
M  V30 2828 H 261.147 0.115274 0.743112 0
M  V30 2829 H 263.118 1.28151 2.69481 0
M  V30 2830 C 261.867 -0.319792 3.46226 0
M  V30 2831 H 261.19 0.374846 3.98039 0
M  V30 2832 H 262.63 -0.642435 4.19105 0
M  V30 2833 C 261.089 -1.53209 3.00048 0
M  V30 2834 O 261.619 -2.6309 3.03557 0
M  V30 2835 N 259.825 -1.38326 2.55566 0
M  V30 2836 H 259.372 -0.489292 2.5291 0
M  V30 2837 H 259.33 -2.19564 2.25031 0
M  V30 2838 N 263.102 -1.41638 0.69111 0
M  V30 2839 C 264.035 -2.28183 -0.0274913 0
M  V30 2840 C 265.013 -1.41984 -0.792424 0
M  V30 2841 O 266.197 -1.71415 -0.784169 0
M  V30 2842 C 263.324 -3.22135 -1.04628 0
M  V30 2843 C 262.37 -4.24848 -0.375037 0
M  V30 2844 S 263.203 -5.28231 0.879321 0
M  V30 2845 C 264.359 -6.25748 -0.137983 0
M  V30 2846 H 264.592 -2.88782 0.706553 0
M  V30 2847 H 262.125 -1.46709 0.481222 0
M  V30 2848 H 264.083 -3.76797 -1.62894 0
M  V30 2849 H 262.744 -2.6064 -1.75287 0
M  V30 2850 H 261.937 -4.90837 -1.14433 0
M  V30 2851 H 261.539 -3.73758 0.134434 0
M  V30 2852 H 263.831 -6.70188 -0.992659 0
M  V30 2853 H 264.774 -7.06417 0.487867 0
M  V30 2854 H 265.182 -5.62363 -0.490762 0
M  V30 2855 N 264.58 -0.43555 -1.51462 0
M  V30 2856 C 265.808 0.130242 -2.0649 0
M  V30 2857 C 266.223 1.36614 -1.30315 0
M  V30 2858 O 265.58 1.78869 -0.362223 0
M  V30 2859 C 265.631 0.454253 -3.58635 0
M  V30 2860 O 265.352 -0.73259 -4.31931 0
M  V30 2861 C 266.853 1.07091 -4.3017 0
M  V30 2862 H 264.073 0.00871669 -0.670943 0
M  V30 2863 H 266.617 -0.614117 -1.95061 0
M  V30 2864 H 264.772 1.14851 -3.69984 0
M  V30 2865 H 265.186 -0.455787 -5.22516 0
M  V30 2866 H 266.66 1.24764 -5.37716 0
M  V30 2867 H 267.137 2.05144 -3.88346 0
M  V30 2868 H 267.743 0.416089 -4.2326 0
M  V30 2869 N 266.058 1.56714 -0.166846 0
M  V30 2870 C 266.968 2.21331 0.777791 0
M  V30 2871 C 267.984 1.20358 1.25658 0
M  V30 2872 O 269.16 1.53005 1.30964 0
M  V30 2873 C 266.225 2.83787 1.99163 0
M  V30 2874 C 265.286 3.99947 1.56016 0
M  V30 2875 C 264.519 4.59415 2.71613 0
M  V30 2876 O 264.742 4.17769 3.88362 0
M  V30 2877 O 263.676 5.49359 2.45945 0
M  V30 2878 H 267.502 3.02605 0.257636 0
M  V30 2879 H 265.087 1.49275 0.0611393 0
M  V30 2880 H 266.969 3.23405 2.70161 0
M  V30 2881 H 265.644 2.05513 2.50092 0
M  V30 2882 H 264.551 3.65007 0.819809 0
M  V30 2883 H 265.884 4.79801 1.09782 0
M  V30 2884 N 267.536 -0.106894 1.57237 0
M  V30 2885 C 268.446 -1.14911 2.0453 0
M  V30 2886 C 269.462 -1.44592 0.96795 0
M  V30 2887 O 270.638 -1.55468 1.2803 0
M  V30 2888 C 267.703 -2.45272 2.45036 0
M  V30 2889 C 266.764 -2.22879 3.66911 0
M  V30 2890 C 265.997 -3.47024 4.05475 0
M  V30 2891 O 266.22 -4.54804 3.44252 0
M  V30 2892 O 265.154 -3.3731 4.98504 0
M  V30 2893 H 268.98 -0.777461 2.9358 0
M  V30 2894 H 266.565 -0.318563 1.45964 0
M  V30 2895 H 268.447 -3.22055 2.71769 0
M  V30 2896 H 267.122 -2.81886 1.59129 0
M  V30 2897 H 266.029 -1.43915 3.45311 0
M  V30 2898 H 267.362 -1.91163 4.53561 0
M  V30 2899 N 269.014 -1.53014 -0.377408 0
M  V30 2900 C 270.239 -1.72818 -1.14668 0
M  V30 2901 C 270.664 -0.450725 -1.8262 0
M  V30 2902 O 270.022 0.59439 -1.7128 0
M  V30 2903 C 270.07 -2.88627 -2.16164 0
M  V30 2904 O 269.174 -2.56409 -3.22998 0
M  V30 2905 H 268.515 -0.574301 -0.333278 0
M  V30 2906 H 271.045 -1.99853 -0.438152 0
M  V30 2907 H 271.055 -3.14455 -2.59966 0
M  V30 2908 H 269.73 -3.81294 -1.66095 0
M  V30 2909 H 268.307 -2.4136 -2.84253 0
M  V30 2910 N 270.492 0.636531 -1.44174 0
M  V30 2911 C 271.739 1.39619 -1.46672 0
M  V30 2912 C 272.067 1.94257 -0.0972691 0
M  V30 2913 O 271.322 1.73768 0.900175 0
M  V30 2914 C 271.621 2.58309 -2.47005 0
M  V30 2915 C 271.287 2.21992 -3.92467 0
M  V30 2916 C 269.949 2.118 -4.32081 0
M  V30 2917 C 272.301 1.9321 -4.84065 0
M  V30 2918 C 269.629 1.71007 -5.61225 0
M  V30 2919 C 271.981 1.53911 -6.13591 0
M  V30 2920 C 270.645 1.42257 -6.52165 0
M  V30 2921 H 269.915 0.510902 -0.536712 0
M  V30 2922 H 272.562 0.722328 -1.77355 0
M  V30 2923 H 270.867 3.30903 -2.09786 0
M  V30 2924 H 272.564 3.16533 -2.46186 0
M  V30 2925 H 269.154 2.30841 -3.61124 0
M  V30 2926 H 273.338 1.99997 -4.54219 0
M  V30 2927 H 268.594 1.60583 -5.89935 0
M  V30 2928 H 272.768 1.30677 -6.8403 0
M  V30 2929 H 270.395 1.10419 -7.52138 0
M  V30 2930 N 271.97 1.30982 0.876444 0
M  V30 2931 C 273.198 1.23242 1.6619 0
M  V30 2932 C 273.613 -0.203345 1.87702 0
M  V30 2933 O 272.97 -1.13317 1.43057 0
M  V30 2934 C 273.021 1.96623 3.03351 0
M  V30 2935 O 272.742 3.34594 2.82804 0
M  V30 2936 C 274.243 1.95644 3.97792 0
M  V30 2937 H 271.463 0.426126 0.518322 0
M  V30 2938 H 274.007 1.7275 1.09442 0
M  V30 2939 H 272.162 1.50892 3.56806 0
M  V30 2940 H 272.576 3.71873 3.69879 0
M  V30 2941 H 274.05 2.51511 4.91372 0
M  V30 2942 H 274.527 0.937395 4.2908 0
M  V30 2943 H 275.133 2.41225 3.50272 0
M  V30 2944 N 273.449 -1.08991 1.13837 0
M  V30 2945 C 274.412 -2.13925 0.822715 0
M  V30 2946 C 275.412 -1.599 -0.1699 0
M  V30 2947 O 276.602 -1.74104 0.0577251 0
M  V30 2948 C 273.734 -3.40155 0.225318 0
M  V30 2949 H 274.927 -2.43358 1.75262 0
M  V30 2950 H 272.48 -1.24603 0.943594 0
M  V30 2951 H 273.215 -3.16352 -0.713594 0
M  V30 2952 H 273 -3.80661 0.940193 0
M  V30 2953 H 274.49 -4.17594 0.0214784 0
M  V30 2954 N 274.927 -0.932562 -1.27047 0
M  V30 2955 C 276.173 -0.576412 -1.94436 0
M  V30 2956 C 276.506 0.880891 -1.73072 0
M  V30 2957 O 275.781 1.62905 -1.06264 0
M  V30 2958 C 276.064 -0.909031 -3.48437 0
M  V30 2959 C 275.917 -2.42044 -3.79123 0
M  V30 2960 C 277.236 -0.418341 -4.38107 0
M  V30 2961 H 274.355 -0.210888 -0.706184 0
M  V30 2962 H 276.997 -1.16522 -1.50075 0
M  V30 2963 H 275.147 -0.407947 -3.86352 0
M  V30 2964 H 276.819 -2.99359 -3.50973 0
M  V30 2965 H 275.062 -2.86758 -3.25503 0
M  V30 2966 H 275.733 -2.6037 -4.86736 0
M  V30 2967 H 278.209 -0.847856 -4.0737 0
M  V30 2968 H 277.085 -0.679981 -5.44672 0
M  V30 2969 H 277.346 0.681642 -4.36814 0
M  V30 2970 N 276.405 1.4127 -0.698611 0
M  V30 2971 C 277.338 2.28195 0.0153898 0
M  V30 2972 C 278.316 1.42402 0.784883 0
M  V30 2973 O 279.5 1.71828 0.775067 0
M  V30 2974 C 276.627 3.22685 1.02918 0
M  V30 2975 C 275.673 4.25041 0.352501 0
M  V30 2976 S 276.506 5.27757 -0.907322 0
M  V30 2977 C 277.662 6.25812 0.104796 0
M  V30 2978 H 277.895 2.88403 -0.721858 0
M  V30 2979 H 275.428 1.46452 -0.488996 0
M  V30 2980 H 277.386 3.77655 1.60893 0
M  V30 2981 H 276.047 2.61566 1.73902 0
M  V30 2982 H 275.24 4.91437 1.11828 0
M  V30 2983 H 274.842 3.73682 -0.154254 0
M  V30 2984 H 277.134 6.70705 0.957103 0
M  V30 2985 H 278.077 7.06149 -0.525323 0
M  V30 2986 H 278.485 5.62615 0.460931 0
M  V30 2987 N 277.883 0.443576 1.51229 0
M  V30 2988 C 279.111 -0.11929 2.06556 0
M  V30 2989 C 279.526 -1.35921 1.31038 0
M  V30 2990 O 278.883 -1.78675 0.371704 0
M  V30 2991 C 278.934 -0.435228 3.5887 0
M  V30 2992 O 278.655 0.755486 4.31537 0
M  V30 2993 C 280.156 -1.04808 4.30732 0
M  V30 2994 H 277.376 -0.0051584 0.67098 0
M  V30 2995 H 279.92 0.624453 1.94733 0
M  V30 2996 H 278.075 -1.12887 3.70588 0
M  V30 2997 H 278.489 0.483491 5.22267 0
M  V30 2998 H 279.963 -1.2191 5.3837 0
M  V30 2999 H 280.44 -2.03081 3.89429 0
M  V30 3000 H 281.046 -0.393637 4.23474 0
M  V30 3001 N 279.361 -1.56624 0.175154 0
M  V30 3002 C 280.589 -2.01374 -0.474971 0
M  V30 3003 C 281.004 -1.05537 -1.56548 0
M  V30 3004 O 280.361 -0.0568668 -1.82411 0
M  V30 3005 C 280.412 -3.45923 -1.04975 0
M  V30 3006 O 280.133 -4.381 -0.00276605 0
M  V30 3007 C 281.634 -4.06093 -1.77773 0
M  V30 3008 H 278.854 -0.659962 -0.121206 0
M  V30 3009 H 281.398 -2.02601 0.27801 0
M  V30 3010 H 279.553 -3.45458 -1.75321 0
M  V30 3011 H 279.967 -5.22753 -0.427681 0
M  V30 3012 H 281.441 -5.09147 -2.13245 0
M  V30 3013 H 281.918 -3.48405 -2.67414 0
M  V30 3014 H 282.524 -4.10272 -1.12059 0
M  V30 3015 N 280.839 0.0985539 -1.57292 0
M  V30 3016 C 281.802 1.10402 -2.00858 0
M  V30 3017 C 282.802 1.33146 -0.901593 0
M  V30 3018 O 283.992 1.29318 -1.16716 0
M  V30 3019 C 281.124 2.45394 -2.36632 0
M  V30 3020 H 282.317 0.729099 -2.90902 0
M  V30 3021 H 279.87 0.343495 -1.52479 0
M  V30 3022 H 280.605 2.87769 -1.49531 0
M  V30 3023 H 280.39 2.30235 -3.17387 0
M  V30 3024 H 281.88 3.17718 -2.71007 0
M  V30 3025 N 282.317 1.53212 0.369288 0
M  V30 3026 C 283.566 1.68436 1.10961 0
M  V30 3027 C 283.879 0.440738 1.9057 0
M  V30 3028 O 285.085 0.473446 2.6734 0
M  V30 3029 C 283.541 2.97744 2.0218 0
M  V30 3030 C 283.149 4.29355 1.279 0
M  V30 3031 C 284.893 3.22334 2.76226 0
M  V30 3032 C 282.8 5.49755 2.17999 0
M  V30 3033 H 281.73 0.627568 0.41794 0
M  V30 3034 H 284.381 1.79713 0.370884 0
M  V30 3035 H 282.763 2.8026 2.79768 0
M  V30 3036 H 283.937 4.57458 0.554007 0
M  V30 3037 H 282.252 4.11179 0.657311 0
M  V30 3038 H 284.849 4.09471 3.43857 0
M  V30 3039 H 285.192 2.38238 3.41392 0
M  V30 3040 H 285.725 3.40475 2.05723 0
M  V30 3041 H 282.464 6.36318 1.57417 0
M  V30 3042 H 281.984 5.25937 2.88359 0
M  V30 3043 H 283.663 5.84401 2.77641 0
M  V30 3044 N 283.795 -0.628877 1.44509 0
M  V30 3045 C 285.02 -1.42048 1.5112 0
M  V30 3046 C 285.445 -1.87594 0.137818 0
M  V30 3047 O 284.803 -1.58873 -0.873437 0
M  V30 3048 C 284.851 -2.61541 2.48251 0
M  V30 3049 O 283.955 -3.61453 1.98559 0
M  V30 3050 H 283.296 -0.424942 0.510216 0
M  V30 3051 H 285.826 -0.767374 1.89664 0
M  V30 3052 H 285.836 -3.09057 2.66361 0
M  V30 3053 H 284.511 -2.27736 3.48007 0
M  V30 3054 H 283.088 -3.20731 1.90227 0
M  V30 3055 N 285.273 -1.31445 -0.869486 0
M  V30 3056 C 286.22 -1.19135 -1.97675 0
M  V30 3057 C 287.19 -0.0770266 -1.65921 0
M  V30 3058 O 288.375 -0.249972 -1.89155 0
M  V30 3059 C 285.515 -0.905149 -3.33018 0
M  V30 3060 C 284.628 -2.10285 -3.77365 0
M  V30 3061 C 283.763 -1.75339 -5.01427 0
M  V30 3062 C 282.802 -2.91515 -5.38224 0
M  V30 3063 N 281.939 -2.56762 -6.53466 0
M  V30 3064 H 286.779 -2.13853 -2.07535 0
M  V30 3065 H 284.316 -1.06379 -1.01597 0
M  V30 3066 H 286.274 -0.719765 -4.10944 0
M  V30 3067 H 284.904 0.00519624 -3.228 0
M  V30 3068 H 283.956 -2.39899 -2.95216 0
M  V30 3069 H 285.268 -2.97237 -4.00564 0
M  V30 3070 H 284.422 -1.53266 -5.87022 0
M  V30 3071 H 283.161 -0.855801 -4.80133 0
M  V30 3072 H 282.166 -3.14237 -4.51149 0
M  V30 3073 H 283.391 -3.81985 -5.61484 0
M  V30 3074 H 281.337 -1.69526 -6.33717 0
M  V30 3075 H 281.254 -3.37243 -6.76612 0
M  V30 3076 H 282.522 -2.38083 -7.42251 0
M  V30 3077 N 286.751 1.08385 -1.14413 0
M  V30 3078 C 287.699 2.17406 -0.826888 0
M  V30 3079 C 288.693 1.6827 0.195312 0
M  V30 3080 O 289.899 1.79927 0.0513892 0
M  V30 3081 H 286.274 0.70934 -0.249681 0
M  V30 3082 H 288.245 2.41388 -1.75426 0
M  V30 3083 C 286.994 3.46215 -0.320979 0
M  V30 3084 H 286.317 3.84401 -1.0989 0
M  V30 3085 H 287.757 4.23777 -0.137549 0
M  V30 3086 C 286.216 3.23067 0.955472 0
M  V30 3087 O 286.746 3.4668 2.02918 0
M  V30 3088 N 284.952 2.7661 0.890798 0
M  V30 3089 H 284.499 2.57594 0.0168815 0
M  V30 3090 H 284.457 2.61501 1.74542 0
M  V30 3091 N 288.23 0.939286 1.26551 0
M  V30 3092 C 289.177 0.446088 2.26448 0
M  V30 3093 C 290.147 -0.493234 1.58608 0
M  V30 3094 O 291.332 -0.409857 1.86346 0
M  V30 3095 C 288.472 -0.284375 3.43926 0
M  V30 3096 C 287.585 0.690399 4.26448 0
M  V30 3097 C 286.72 -0.0610712 5.31165 0
M  V30 3098 C 285.759 0.905649 6.05363 0
M  V30 3099 N 284.896 0.186055 7.01853 0
M  V30 3100 H 289.736 1.30291 2.68008 0
M  V30 3101 H 287.273 0.65371 1.31776 0
M  V30 3102 H 289.231 -0.724313 4.10864 0
M  V30 3103 H 287.861 -1.10535 3.03285 0
M  V30 3104 H 286.913 1.24885 3.59316 0
M  V30 3105 H 288.225 1.42873 4.779 0
M  V30 3106 H 287.379 -0.56038 6.04106 0
M  V30 3107 H 286.118 -0.832297 4.80546 0
M  V30 3108 H 285.123 1.4161 5.3125 0
M  V30 3109 H 286.348 1.67685 6.58072 0
M  V30 3110 H 284.294 -0.566714 6.53548 0
M  V30 3111 H 284.211 0.863752 7.51049 0
M  V30 3112 H 285.479 -0.292221 7.78952 0
M  V30 3113 N 289.708 -1.40897 0.706093 0
M  V30 3114 C 290.936 -2.05373 0.250887 0
M  V30 3115 C 291.351 -1.53172 -1.10381 0
M  V30 3116 O 290.708 -0.684305 -1.69185 0
M  V30 3117 C 290.759 -3.6088 0.211571 0
M  V30 3118 O 290.48 -4.11153 1.51276 0
M  V30 3119 C 291.981 -4.42517 -0.263346 0
M  V30 3120 H 289.201 -0.66115 0.114552 0
M  V30 3121 H 291.745 -1.80479 0.961635 0
M  V30 3122 H 289.9 -3.84777 -0.450073 0
M  V30 3123 H 290.314 -5.05279 1.40689 0
M  V30 3124 H 291.788 -5.51479 -0.239718 0
M  V30 3125 H 292.265 -4.19396 -1.30397 0
M  V30 3126 H 292.871 -4.23708 0.367677 0
M  V30 3127 N 291.186 -0.45159 -1.50991 0
M  V30 3128 C 292.133 0.352625 -2.2809 0
M  V30 3129 C 293.103 1.0044 -1.32291 0
M  V30 3130 O 294.288 1.02058 -1.6121 0
M  V30 3131 C 291.428 1.43983 -3.13629 0
M  V30 3132 C 290.541 0.804772 -4.24438 0
M  V30 3133 C 289.676 1.86822 -4.97263 0
M  V30 3134 C 288.715 1.21236 -5.99973 0
M  V30 3135 N 287.852 2.2178 -6.66152 0
M  V30 3136 H 292.692 -0.311186 -2.96371 0
M  V30 3137 H 290.229 -0.165308 -1.46168 0
M  V30 3138 H 292.187 2.08161 -3.61559 0
M  V30 3139 H 290.817 2.07307 -2.47434 0
M  V30 3140 H 289.869 0.0509129 -3.80366 0
M  V30 3141 H 291.181 0.286076 -4.97979 0
M  V30 3142 H 290.335 2.58628 -5.48813 0
M  V30 3143 H 289.074 2.42068 -4.23385 0
M  V30 3144 H 288.079 0.479828 -5.47702 0
M  V30 3145 H 289.304 0.667051 -6.75816 0
M  V30 3146 H 287.25 2.76079 -5.95077 0
M  V30 3147 H 287.167 1.74841 -7.35504 0
M  V30 3148 H 288.435 2.93026 -7.22327 0
M  V30 3149 N 292.664 1.56529 -0.183458 0
M  V30 3150 C 293.574 2.22144 0.754272 0
M  V30 3151 C 294.59 1.21684 1.24374 0
M  V30 3152 O 295.766 1.54385 1.29333 0
M  V30 3153 C 292.831 2.85884 1.96141 0
M  V30 3154 C 291.892 4.01579 1.51765 0
M  V30 3155 C 291.125 4.6227 2.66725 0
M  V30 3156 O 291.348 4.21865 3.83909 0
M  V30 3157 O 290.282 5.51936 2.40104 0
M  V30 3158 H 294.108 3.02861 0.225527 0
M  V30 3159 H 291.693 1.49331 0.0453032 0
M  V30 3160 H 293.575 3.26253 2.66715 0
M  V30 3161 H 292.25 2.08154 2.47899 0
M  V30 3162 H 291.157 3.65856 0.781049 0
M  V30 3163 H 292.49 4.80938 1.04686 0
M  V30 3164 N 294.142 -0.090211 1.57342 0
M  V30 3165 C 295.372 -0.805055 1.90269 0
M  V30 3166 C 295.78 -1.72561 0.775842 0
M  V30 3167 O 295.123 -1.81839 -0.260843 0
M  V30 3168 C 295.185 -1.66734 3.18497 0
M  V30 3169 C 294.849 -0.918092 4.47683 0
M  V30 3170 C 295.846 -0.245674 5.19319 0
M  V30 3171 C 293.531 -0.890724 4.94339 0
M  V30 3172 C 295.525 0.444088 6.35851 0
M  V30 3173 C 293.212 -0.197179 6.10782 0
M  V30 3174 C 294.21 0.469044 6.81388 0
M  V30 3175 O 293.898 1.15146 7.95611 0
M  V30 3176 H 293.63 -0.235143 0.633785 0
M  V30 3177 H 296.184 -0.0703805 2.05279 0
M  V30 3178 H 294.414 -2.44437 2.99646 0
M  V30 3179 H 296.103 -2.25919 3.37217 0
M  V30 3180 H 296.869 -0.258246 4.84312 0
M  V30 3181 H 292.748 -1.39873 4.39268 0
M  V30 3182 H 296.292 0.964667 6.90898 0
M  V30 3183 H 292.189 -0.18247 6.45242 0
M  V30 3184 H 292.957 1.05885 8.11622 0
M  V30 3185 N 295.62 -1.53406 -0.361157 0
M  V30 3186 C 296.567 -1.80156 -1.44265 0
M  V30 3187 C 297.537 -0.646183 -1.53015 0
M  V30 3188 O 298.722 -0.888818 -1.68833 0
M  V30 3189 C 295.862 -2.00116 -2.81154 0
M  V30 3190 C 294.975 -3.27833 -2.81335 0
M  V30 3191 C 294.11 -3.37957 -4.09828 0
M  V30 3192 C 293.149 -4.59689 -4.04168 0
M  V30 3193 N 292.286 -4.66942 -5.24318 0
M  V30 3194 H 297.126 -2.72438 -1.20754 0
M  V30 3195 H 294.663 -1.34954 -0.585296 0
M  V30 3196 H 296.621 -2.09677 -3.60682 0
M  V30 3197 H 295.251 -1.11167 -3.03054 0
M  V30 3198 H 294.303 -3.27204 -1.94014 0
M  V30 3199 H 295.615 -4.17442 -2.73027 0
M  V30 3200 H 294.769 -3.46853 -4.97773 0
M  V30 3201 H 293.508 -2.46372 -4.20894 0
M  V30 3202 H 292.513 -4.50889 -3.14609 0
M  V30 3203 H 293.738 -5.5262 -3.947 0
M  V30 3204 H 291.684 -3.7826 -5.35962 0
M  V30 3205 H 291.601 -5.50462 -5.18197 0
M  V30 3206 H 292.869 -4.80127 -6.14084 0
M  V30 3207 N 297.098 0.621204 -1.44841 0
M  V30 3208 C 298.347 1.37658 -1.47422 0
M  V30 3209 C 298.66 1.95264 -0.114629 0
M  V30 3210 O 299.866 2.71494 -0.0180199 0
M  V30 3211 C 298.322 2.49285 -2.59586 0
M  V30 3212 C 297.93 1.98149 -4.01797 0
M  V30 3213 C 299.674 3.26409 -2.71399 0
M  V30 3214 C 297.581 3.07178 -5.05367 0
M  V30 3215 H 296.511 0.517344 -0.548517 0
M  V30 3216 H 299.162 0.667257 -1.70938 0
M  V30 3217 H 297.544 3.22839 -2.29328 0
M  V30 3218 H 298.718 1.31395 -4.41669 0
M  V30 3219 H 297.033 1.33812 -3.94314 0
M  V30 3220 H 299.63 4.07706 -3.45948 0
M  V30 3221 H 299.973 3.76535 -1.77559 0
M  V30 3222 H 300.506 2.5995 -3.01116 0
M  V30 3223 H 297.245 2.61985 -6.00869 0
M  V30 3224 H 296.765 3.72542 -4.70077 0
M  V30 3225 H 298.444 3.71789 -5.29511 0
M  V30 3226 N 298.576 1.31904 0.862503 0
M  V30 3227 C 299.822 1.22197 1.61851 0
M  V30 3228 C 300.155 -0.217641 1.92977 0
M  V30 3229 O 299.43 -1.15264 1.56666 0
M  V30 3230 C 299.713 2.07378 2.94391 0
M  V30 3231 C 299.566 3.59678 2.70096 0
M  V30 3232 C 300.885 1.92891 3.95577 0
M  V30 3233 H 298.004 0.445255 0.587296 0
M  V30 3234 H 300.646 1.6177 0.99651 0
M  V30 3235 H 298.796 1.73758 3.47477 0
M  V30 3236 H 300.468 4.03472 2.23625 0
M  V30 3237 H 298.711 3.82735 2.04197 0
M  V30 3238 H 299.382 4.14595 3.64438 0
M  V30 3239 H 301.858 2.22327 3.51724 0
M  V30 3240 H 300.734 2.54781 4.86187 0
M  V30 3241 H 300.995 0.894315 4.3296 0
M  V30 3242 N 300.054 -1.07777 1.14986 0
M  V30 3243 C 301.302 -1.79934 0.920235 0
M  V30 3244 C 301.623 -1.86955 -0.554336 0
M  V30 3245 O 300.893 -1.36731 -1.40291 0
M  V30 3246 H 299.473 -0.666424 0.337473 0
M  V30 3247 H 302.135 -1.3027 1.44968 0
M  V30 3248 H 301.231 -2.82539 1.32583 0
M  V30 3249 N 301.532 -0.945985 -1.26051 0
M  V30 3250 C 302.465 -0.403619 -2.24602 0
M  V30 3251 C 303.443 0.510241 -1.54387 0
M  V30 3252 O 304.627 0.446593 -1.83133 0
M  V30 3253 C 301.754 0.419564 -3.36091 0
M  V30 3254 C 300.8 -0.433454 -4.24292 0
M  V30 3255 S 301.633 -1.86037 -5.02146 0
M  V30 3256 C 302.789 -1.04538 -6.17108 0
M  V30 3257 H 303.022 -1.23883 -2.7026 0
M  V30 3258 H 300.555 -0.749438 -1.34992 0
M  V30 3259 H 302.513 0.888595 -4.00767 0
M  V30 3260 H 301.174 1.22951 -2.89036 0
M  V30 3261 H 300.367 0.197486 -5.03613 0
M  V30 3262 H 299.969 -0.837357 -3.64506 0
M  V30 3263 H 302.261 -0.289923 -6.76879 0
M  V30 3264 H 303.204 -1.81222 -6.84518 0
M  V30 3265 H 303.612 -0.579319 -5.61519 0
M  V30 3266 N 303.011 1.40521 -0.713556 0
M  V30 3267 C 304.241 2.0494 -0.261395 0
M  V30 3268 C 304.649 1.53861 1.10107 0
M  V30 3269 O 303.992 0.689321 1.70276 0
M  V30 3270 C 304.054 3.59138 -0.161227 0
M  V30 3271 C 303.718 4.33096 -1.45865 0
M  V30 3272 C 304.715 4.61182 -2.40016 0
M  V30 3273 C 302.4 4.72043 -1.71701 0
M  V30 3274 C 304.394 5.27196 -3.58251 0
M  V30 3275 C 302.081 5.37789 -2.90218 0
M  V30 3276 C 303.079 5.65295 -3.83315 0
M  V30 3277 O 302.767 6.29683 -4.99754 0
M  V30 3278 H 302.499 0.666041 -0.115608 0
M  V30 3279 H 305.053 1.80954 -0.971849 0
M  V30 3280 H 303.283 3.81936 0.605153 0
M  V30 3281 H 304.972 4.05091 0.256105 0
M  V30 3282 H 305.738 4.31559 -2.21318 0
M  V30 3283 H 301.617 4.50003 -1.00092 0
M  V30 3284 H 305.161 5.48582 -4.30934 0
M  V30 3285 H 301.058 5.66831 -3.08825 0
M  V30 3286 H 301.826 6.4818 -4.99805 0
M  V30 3287 N 304.489 0.459591 1.5075 0
M  V30 3288 C 305.714 -0.0996819 2.0716 0
M  V30 3289 C 306.139 -1.33761 1.32249 0
M  V30 3290 O 305.497 -1.77551 0.366786 0
M  V30 3291 C 305.545 -0.378226 3.58611 0
M  V30 3292 O 304.649 -1.46081 3.85661 0
M  V30 3293 H 303.99 0.00791392 0.663953 0
M  V30 3294 H 306.52 0.647329 1.9409 0
M  V30 3295 H 306.53 -0.622135 4.03229 0
M  V30 3296 H 305.205 0.526439 4.12555 0
M  V30 3297 H 303.782 -1.20511 3.5289 0
M  V30 3298 N 305.967 -1.56429 0.191757 0
M  V30 3299 C 307.244 -1.89224 -0.495332 0
M  V30 3300 C 307.624 -1.10478 -1.79883 0
M  V30 3301 O 306.972 -0.204852 -2.2758 0
M  V30 3302 C 307.182 -3.41548 -0.717367 0
M  V30 3303 C 308.53 -4.11711 -1.03823 0
M  V30 3304 O 309.554 -3.4698 -0.805204 0
M  V30 3305 O 308.413 -5.2611 -1.47887 0
M  V30 3306 H 305.507 -0.785788 -0.25781 0
M  V30 3307 H 308.053 -1.68111 0.231721 0
M  V30 3308 H 306.825 -3.90772 0.203287 0
M  V30 3309 H 306.448 -3.68342 -1.497 0
M  V30 3310 N 307.445 0.0818655 -1.57387 0
M  V30 3311 C 308.693 0.781368 -1.86384 0
M  V30 3312 C 309.014 1.78618 -0.782342 0
M  V30 3313 O 308.284 1.94976 0.190061 0
M  V30 3314 H 306.864 0.291562 -0.687751 0
M  V30 3315 H 309.526 0.060348 -1.94807 0
M  V30 3316 H 308.622 1.3038 -2.83562 0
M  V30 3317 N 308.923 1.53595 0.353017 0
M  V30 3318 C 310.172 1.69603 1.09168 0
M  V30 3319 C 310.485 0.460925 1.90092 0
M  V30 3320 O 311.691 0.501774 2.66823 0
M  V30 3321 C 310.147 2.99872 1.9901 0
M  V30 3322 C 309.755 4.30687 1.23339 0
M  V30 3323 C 311.499 3.25246 2.72792 0
M  V30 3324 C 309.406 5.52036 2.12156 0
M  V30 3325 H 308.336 0.631966 0.411261 0
M  V30 3326 H 310.987 1.80096 0.351802 0
M  V30 3327 H 309.369 2.83212 2.7678 0
M  V30 3328 H 310.543 4.58019 0.505456 0
M  V30 3329 H 308.858 4.11853 0.613663 0
M  V30 3330 H 311.455 4.13095 3.39495 0
M  V30 3331 H 311.798 2.41846 3.38846 0
M  V30 3332 H 312.331 3.42638 2.021 0
M  V30 3333 H 309.07 6.37951 1.50659 0
M  V30 3334 H 308.59 5.28966 2.82764 0
M  V30 3335 H 310.269 5.87313 2.71427 0
M  V30 3336 N 310.401 -0.613514 1.45168 0
M  V30 3337 C 311.349 -1.74572 1.53712 0
M  V30 3338 C 312.343 -1.64426 0.407505 0
M  V30 3339 O 313.549 -1.70291 0.583176 0
M  V30 3340 H 309.924 -0.576641 0.48269 0
M  V30 3341 H 311.895 -1.64492 2.48968 0
M  V30 3342 C 310.644 -3.12943 1.51532 0
M  V30 3343 H 309.967 -3.21407 2.37776 0
M  V30 3344 H 311.407 -3.9201 1.61569 0
M  V30 3345 C 309.866 -3.36053 0.238798 0
M  V30 3346 O 310.396 -3.95837 -0.6838 0
M  V30 3347 N 308.602 -2.9028 0.136359 0
M  V30 3348 H 308.149 -2.41811 0.887999 0
M  V30 3349 H 308.107 -3.06116 -0.716944 0
M  V30 3350 N 311.879 -1.3236 -0.855495 0
M  V30 3351 C 313.125 -1.23054 -1.612 0
M  V30 3352 C 313.458 0.207404 -1.93089 0
M  V30 3353 O 312.733 1.14432 -1.57275 0
M  V30 3354 C 313.016 -2.08937 -2.93287 0
M  V30 3355 C 312.869 -3.61105 -2.68185 0
M  V30 3356 C 314.188 -1.94986 -3.94549 0
M  V30 3357 H 311.307 -0.448364 -0.584926 0
M  V30 3358 H 313.949 -1.62297 -0.987917 0
M  V30 3359 H 312.099 -1.75599 -3.46551 0
M  V30 3360 H 313.771 -4.04652 -2.21483 0
M  V30 3361 H 312.014 -3.83813 -2.02164 0
M  V30 3362 H 312.685 -4.16522 -3.62234 0
M  V30 3363 H 315.161 -2.24189 -3.5054 0
M  V30 3364 H 314.037 -2.57356 -4.84829 0
M  V30 3365 H 314.298 -0.917263 -4.3248 0
M  V30 3366 N 313.357 1.07166 -1.15556 0
M  V30 3367 C 314.287 2.16403 -0.877046 0
M  V30 3368 C 315.268 1.69217 0.173111 0
M  V30 3369 O 316.453 1.94181 0.027084 0
M  V30 3370 C 313.583 3.45349 -0.367632 0
M  V30 3371 C 312.537 4.05995 -1.35468 0
M  V30 3372 C 311.863 5.30045 -0.704038 0
M  V30 3373 C 313.163 4.45804 -2.72132 0
M  V30 3374 H 314.857 2.39959 -1.79053 0
M  V30 3375 H 312.403 1.15325 -0.862331 0
M  V30 3376 H 314.356 4.21095 -0.160317 0
M  V30 3377 H 313.08 3.21385 0.581326 0
M  V30 3378 H 311.739 3.32296 -1.54839 0
M  V30 3379 H 311.387 5.02373 0.251128 0
M  V30 3380 H 311.087 5.71579 -1.36277 0
M  V30 3381 H 312.611 6.08495 -0.50654 0
M  V30 3382 H 314.025 5.12671 -2.56595 0
M  V30 3383 H 312.422 4.98296 -3.34397 0
M  V30 3384 H 313.492 3.57083 -3.28054 0
M  V30 3385 N 314.835 0.952656 1.25548 0
M  V30 3386 C 316.083 0.605176 1.92826 0
M  V30 3387 C 316.404 -0.860261 1.74999 0
M  V30 3388 O 315.674 -1.6125 1.11244 0
M  V30 3389 H 314.254 0.220832 0.713612 0
M  V30 3390 H 316.916 1.21047 1.52754 0
M  V30 3391 H 316.012 0.832798 3.00784 0
M  V30 3392 N 316.313 -1.40141 0.720998 0
M  V30 3393 C 317.243 -2.33339 0.0867621 0
M  V30 3394 C 318.224 -1.53178 -0.739622 0
M  V30 3395 O 319.409 -1.81625 -0.687449 0
M  V30 3396 C 316.539 -3.37194 -0.831728 0
M  V30 3397 C 315.493 -4.27857 -0.110558 0
M  V30 3398 C 314.819 -5.22294 -1.14513 0
M  V30 3399 C 316.119 -5.11872 1.0385 0
M  V30 3400 H 317.813 -2.86626 0.865219 0
M  V30 3401 H 315.359 -1.37814 0.417516 0
M  V30 3402 H 317.312 -4.01335 -1.28485 0
M  V30 3403 H 316.036 -2.82314 -1.64214 0
M  V30 3404 H 314.695 -3.65176 0.322797 0
M  V30 3405 H 314.343 -4.63717 -1.94874 0
M  V30 3406 H 314.043 -5.83797 -0.667446 0
M  V30 3407 H 315.567 -5.89312 -1.59824 0
M  V30 3408 H 316.981 -5.69436 0.664482 0
M  V30 3409 H 315.378 -5.82445 1.4449 0
M  V30 3410 H 316.448 -4.4753 1.86668 0
M  V30 3411 N 317.792 -0.46758 -1.50504 0
M  V30 3412 C 319.041 0.0902868 -2.01498 0
M  V30 3413 C 319.354 1.411 -1.35463 0
M  V30 3414 O 320.56 2.0536 -1.77594 0
M  V30 3415 C 319.016 0.21142 -3.59278 0
M  V30 3416 C 318.624 -1.10065 -4.34269 0
M  V30 3417 C 320.368 0.721433 -4.18325 0
M  V30 3418 C 318.275 -0.943505 -5.83825 0
M  V30 3419 H 317.205 0.037517 -0.753066 0
M  V30 3420 H 319.856 -0.601943 -1.73346 0
M  V30 3421 H 318.238 0.967352 -3.84003 0
M  V30 3422 H 319.412 -1.86726 -4.21272 0
M  V30 3423 H 317.727 -1.5415 -3.86816 0
M  V30 3424 H 320.324 0.85598 -5.27804 0
M  V30 3425 H 320.667 1.71186 -3.79475 0
M  V30 3426 H 321.2 0.0229843 -3.97793 0
M  V30 3427 H 317.939 -1.90719 -6.27141 0
M  V30 3428 H 317.459 -0.217213 -5.99407 0
M  V30 3429 H 319.138 -0.608715 -6.4413 0
M  V30 3430 N 319.27 1.56325 -0.20005 0
M  V30 3431 C 320.516 1.98012 0.438059 0
M  V30 3432 C 320.849 1.08702 1.60927 0
M  V30 3433 O 320.124 0.140064 1.93995 0
M  V30 3434 C 320.407 3.48841 0.893419 0
M  V30 3435 C 320.26 4.48928 -0.279947 0
M  V30 3436 C 321.579 4.03498 1.75719 0
M  V30 3437 H 318.698 0.719918 0.157757 0
M  V30 3438 H 321.34 1.87743 -0.291968 0
M  V30 3439 H 319.49 3.57723 1.51547 0
M  V30 3440 H 321.162 4.52079 -0.91772 0
M  V30 3441 H 319.405 4.23694 -0.930919 0
M  V30 3442 H 320.076 5.5194 0.0812601 0
M  V30 3443 H 322.552 3.97427 1.23253 0
M  V30 3444 H 321.428 5.09393 2.04476 0
M  V30 3445 H 321.689 3.4906 2.71311 0
M  V30 3446 N 320.748 -0.0735177 1.57428 0
M  V30 3447 C 321.995 -0.772999 1.87166 0
M  V30 3448 C 322.323 -1.77665 0.791551 0
M  V30 3449 O 321.578 -1.94541 -0.212636 0
M  V30 3450 C 321.877 -1.51799 3.23561 0
M  V30 3451 C 321.543 -0.654484 4.46125 0
M  V30 3452 C 320.205 -0.416511 4.79394 0
M  V30 3453 C 322.557 -0.0555862 5.2117 0
M  V30 3454 C 319.885 0.429869 5.85123 0
M  V30 3455 C 322.237 0.778239 6.27795 0
M  V30 3456 C 320.901 1.0261 6.59566 0
M  V30 3457 H 320.171 -0.282861 0.684888 0
M  V30 3458 H 322.818 -0.0338272 1.9147 0
M  V30 3459 H 321.123 -2.32932 3.1504 0
M  V30 3460 H 322.82 -2.06397 3.43804 0
M  V30 3461 H 319.41 -0.850091 4.20085 0
M  V30 3462 H 323.594 -0.226558 4.95783 0
M  V30 3463 H 318.85 0.630665 6.08139 0
M  V30 3464 H 323.024 1.24906 6.85107 0
M  V30 3465 H 320.651 1.68371 7.4132 0
M  V30 3466 N 322.226 -1.5378 -0.344866 0
M  V30 3467 C 323.466 -1.72677 -1.09371 0
M  V30 3468 C 323.83 -0.479084 -1.85927 0
M  V30 3469 O 325.031 -0.54505 -2.63216 0
M  V30 3470 C 323.302 -2.95457 -2.01097 0
M  V30 3471 S 324.861 -3.35158 -2.83222 0
M  V30 3472 H 321.679 -0.607402 -0.369573 0
M  V30 3473 H 324.281 -1.91922 -0.372307 0
M  V30 3474 H 322.985 -3.84437 -1.43655 0
M  V30 3475 H 322.516 -2.78673 -2.77678 0
M  V30 3476 H 324.531 -2.88789 -4.03504 0
M  V30 3477 N 323.704 0.605807 -1.45491 0
M  V30 3478 C 324.634 1.72709 -1.57143 0
M  V30 3479 C 325.615 1.6476 -0.422884 0
M  V30 3480 O 326.8 1.83132 -0.646247 0
M  V30 3481 C 323.93 3.11316 -1.53948 0
M  V30 3482 C 322.884 3.34077 -2.67537 0
M  V30 3483 C 322.21 4.72975 -2.49397 0
M  V30 3484 C 323.51 3.24158 -4.09535 0
M  V30 3485 H 325.204 1.63214 -2.51001 0
M  V30 3486 H 322.75 0.78379 -1.208 0
M  V30 3487 H 324.703 3.89557 -1.60696 0
M  V30 3488 H 323.427 3.21655 -0.566205 0
M  V30 3489 H 322.086 2.58227 -2.6022 0
M  V30 3490 H 321.734 4.8005 -1.50205 0
M  V30 3491 H 321.434 4.8916 -3.25571 0
M  V30 3492 H 322.958 5.53414 -2.58002 0
M  V30 3493 H 324.372 3.92271 -4.18086 0
M  V30 3494 H 322.769 3.51872 -4.86113 0
M  V30 3495 H 323.839 2.2157 -4.31317 0
M  V30 3496 N 325.182 1.32811 0.848464 0
M  V30 3497 C 326.428 1.23907 1.60546 0
M  V30 3498 C 326.761 -0.197161 1.93197 0
M  V30 3499 O 326.036 -1.13596 1.5788 0
M  V30 3500 C 326.319 2.10489 2.92175 0
M  V30 3501 C 326.172 3.62522 2.66266 0
M  V30 3502 C 327.491 1.97075 3.93509 0
M  V30 3503 H 324.61 0.451459 0.58254 0
M  V30 3504 H 327.252 1.62818 0.979296 0
M  V30 3505 H 325.402 1.77434 3.45614 0
M  V30 3506 H 327.074 4.05821 2.19334 0
M  V30 3507 H 325.317 3.84879 2.00126 0
M  V30 3508 H 325.988 4.18437 3.6002 0
M  V30 3509 H 328.464 2.26045 3.49346 0
M  V30 3510 H 327.34 2.59923 4.83457 0
M  V30 3511 H 327.601 0.940186 4.31987 0
M  V30 3512 N 326.66 -1.06551 1.16123 0
M  V30 3513 C 327.907 -1.79302 0.941126 0
M  V30 3514 C 328.235 -1.87105 -0.531235 0
M  V30 3515 O 327.49 -1.35692 -1.41018 0
M  V30 3516 C 327.789 -3.23911 1.51052 0
M  V30 3517 C 327.455 -3.36193 3.00475 0
M  V30 3518 C 326.117 -3.39252 3.41265 0
M  V30 3519 C 328.469 -3.38326 3.96465 0
M  V30 3520 C 325.797 -3.42057 4.76669 0
M  V30 3521 C 328.149 -3.4267 5.31752 0
M  V30 3522 C 326.813 -3.4401 5.72026 0
M  V30 3523 H 326.083 -0.656111 0.344382 0
M  V30 3524 H 328.73 -1.25325 1.44796 0
M  V30 3525 H 327.035 -3.80723 0.925063 0
M  V30 3526 H 328.732 -3.78793 1.31593 0
M  V30 3527 H 325.322 -3.34516 2.6795 0
M  V30 3528 H 329.506 -3.35176 3.6602 0
M  V30 3529 H 324.762 -3.41398 5.07206 0
M  V30 3530 H 328.936 -3.43268 6.05921 0
M  V30 3531 H 326.563 -3.45937 6.76928 0
M  V30 3532 N 328.138 -0.959301 -1.25041 0
M  V30 3533 C 329.386 -0.615393 -1.92503 0
M  V30 3534 C 329.707 0.850969 -1.75452 0
M  V30 3535 O 328.977 1.60658 -1.12098 0
M  V30 3536 H 327.557 -0.224613 -0.712431 0
M  V30 3537 H 330.219 -1.21855 -1.5211 0
M  V30 3538 H 329.315 -0.848738 -3.00338 0
M  V30 3539 N 329.616 1.39756 -0.72842 0
M  V30 3540 C 330.546 2.33289 -0.0991354 0
M  V30 3541 C 331.527 1.53568 0.731489 0
M  V30 3542 O 332.712 1.81987 0.677807 0
M  V30 3543 C 329.842 3.3763 0.813834 0
M  V30 3544 C 328.796 4.2791 0.0878663 0
M  V30 3545 C 328.122 5.22894 1.11741 0
M  V30 3546 C 329.422 5.11314 -1.06563 0
M  V30 3547 H 331.116 2.86163 -0.880408 0
M  V30 3548 H 328.662 1.37591 -0.424819 0
M  V30 3549 H 330.615 4.0201 1.26355 0
M  V30 3550 H 329.339 2.83181 1.62715 0
M  V30 3551 H 327.998 3.65 -0.342159 0
M  V30 3552 H 327.646 4.64744 1.92412 0
M  V30 3553 H 327.346 5.84143 0.636477 0
M  V30 3554 H 328.87 5.90151 1.56697 0
M  V30 3555 H 330.284 5.69076 -0.694671 0
M  V30 3556 H 328.681 5.81671 -1.47577 0
M  V30 3557 H 329.751 4.46534 -1.89038 0
M  V30 3558 N 331.094 0.475555 1.50254 0
M  V30 3559 C 332.34 -0.0780073 2.0265 0
M  V30 3560 C 332.673 -1.38968 1.35652 0
M  V30 3561 O 331.948 -1.8839 0.483691 0
M  V30 3562 C 332.231 -0.257161 3.59181 0
M  V30 3563 C 332.084 1.07585 4.36744 0
M  V30 3564 C 333.403 -1.00965 4.28362 0
M  V30 3565 H 330.522 -0.0268758 0.73651 0
M  V30 3566 H 333.164 0.622015 1.7953 0
M  V30 3567 H 331.314 -0.853412 3.79011 0
M  V30 3568 H 332.986 1.70902 4.28474 0
M  V30 3569 H 331.229 1.6714 4.00308 0
M  V30 3570 H 331.9 0.904088 5.44546 0
M  V30 3571 H 334.376 -0.504214 4.13034 0
M  V30 3572 H 333.252 -1.10381 5.37687 0
M  V30 3573 H 333.513 -2.04731 3.91839 0
M  V30 3574 N 332.573 -1.56217 0.208337 0
M  V30 3575 C 333.822 -1.97124 -0.427204 0
M  V30 3576 C 334.135 -1.09859 -1.61835 0
M  V30 3577 O 335.341 -1.40606 -2.32255 0
M  V30 3578 C 333.797 -3.50633 -0.811442 0
M  V30 3579 C 333.405 -4.46582 0.35615 0
M  V30 3580 C 335.149 -4.00282 -1.41332 0
M  V30 3581 C 333.056 -5.91379 -0.0497852 0
M  V30 3582 H 331.986 -0.736086 -0.163381 0
M  V30 3583 H 334.637 -1.8099 0.302456 0
M  V30 3584 H 333.019 -3.62319 -1.59815 0
M  V30 3585 H 334.193 -4.46636 1.1337 0
M  V30 3586 H 332.508 -4.07202 0.870396 0
M  V30 3587 H 335.105 -5.0595 -1.72972 0
M  V30 3588 H 335.448 -3.45359 -2.32449 0
M  V30 3589 H 335.981 -3.91764 -0.690323 0
M  V30 3590 H 332.72 -6.50255 0.827529 0
M  V30 3591 H 332.24 -5.94549 -0.791926 0
M  V30 3592 H 333.919 -6.45209 -0.481042 0
M  V30 3593 N 334.051 0.0651679 -1.57465 0
M  V30 3594 C 335.299 0.761555 -1.87202 0
M  V30 3595 C 335.62 1.77778 -0.801243 0
M  V30 3596 O 334.89 1.95166 0.16937 0
M  V30 3597 H 333.47 0.284251 -0.690804 0
M  V30 3598 H 336.132 0.0396827 -1.9486 0
M  V30 3599 H 335.228 1.27365 -2.84929 0
M  V30 3600 N 335.529 1.53961 0.336706 0
M  V30 3601 C 336.476 1.82428 1.41381 0
M  V30 3602 C 337.446 0.670444 1.51968 0
M  V30 3603 O 338.631 0.915565 1.67398 0
M  V30 3604 C 335.771 2.04564 2.77934 0
M  V30 3605 C 334.884 3.32267 2.76084 0
M  V30 3606 C 334.019 3.44434 4.04399 0
M  V30 3607 C 333.058 4.66061 3.96804 0
M  V30 3608 N 332.195 4.75224 5.16823 0
M  V30 3609 H 337.035 2.74324 1.16405 0
M  V30 3610 H 334.572 1.35869 0.563752 0
M  V30 3611 H 336.53 2.15388 3.57301 0
M  V30 3612 H 335.16 1.15974 3.01247 0
M  V30 3613 H 334.212 3.3025 1.88784 0
M  V30 3614 H 335.524 4.21733 2.66351 0
M  V30 3615 H 334.678 3.54728 4.92192 0
M  V30 3616 H 333.417 2.53037 4.16921 0
M  V30 3617 H 332.422 4.55838 3.07396 0
M  V30 3618 H 333.647 5.58829 3.85858 0
M  V30 3619 H 331.593 3.86739 5.29876 0
M  V30 3620 H 331.51 5.58636 5.09374 0
M  V30 3621 H 332.778 4.89835 6.06367 0
M  V30 3622 N 337.007 -0.598083 1.45811 0
M  V30 3623 C 337.94 -1.7223 1.49706 0
M  V30 3624 C 338.918 -1.58732 0.352535 0
M  V30 3625 O 340.102 -1.80162 0.554438 0
M  V30 3626 C 337.229 -3.10148 1.3611 0
M  V30 3627 C 336.275 -3.42209 2.54549 0
M  V30 3628 S 337.108 -3.35989 4.16979 0
M  V30 3629 C 338.264 -4.76471 4.05865 0
M  V30 3630 H 338.497 -1.68665 2.44826 0
M  V30 3631 H 336.03 -0.775541 1.33509 0
M  V30 3632 H 337.988 -3.8972 1.28953 0
M  V30 3633 H 336.649 -3.11219 0.424451 0
M  V30 3634 H 335.842 -4.42652 2.40988 0
M  V30 3635 H 335.444 -2.70173 2.58617 0
M  V30 3636 H 337.736 -5.665 3.71596 0
M  V30 3637 H 338.679 -4.95089 5.06253 0
M  V30 3638 H 339.087 -4.52599 3.37364 0
M  V30 3639 N 338.485 -1.33259 -0.841409 0
M  V30 3640 C 339.733 -1.24326 -1.59334 0
M  V30 3641 C 340.054 0.191564 -1.94057 0
M  V30 3642 O 339.324 1.11967 -1.60749 0
M  V30 3643 H 337.904 -0.457174 -0.590763 0
M  V30 3644 H 340.566 -1.66947 -1.00571 0
M  V30 3645 H 339.662 -1.8352 -2.52442 0
M  V30 3646 N 339.963 1.05934 -1.16686 0
M  V30 3647 C 340.873 2.17014 -0.891183 0
M  V30 3648 C 341.889 1.73453 0.137907 0
M  V30 3649 O 343.065 2.01361 -0.039592 0
M  V30 3650 C 340.13 3.44384 -0.400099 0
M  V30 3651 C 339.191 4.02433 -1.49486 0
M  V30 3652 C 338.424 5.23723 -1.02711 0
M  V30 3653 O 338.647 5.7027 0.121716 0
M  V30 3654 O 337.581 5.7382 -1.81699 0
M  V30 3655 H 341.407 2.43113 -1.82015 0
M  V30 3656 H 338.992 1.15541 -0.947132 0
M  V30 3657 H 340.874 4.21189 -0.133392 0
M  V30 3658 H 339.549 3.19802 0.500817 0
M  V30 3659 H 338.456 3.27102 -1.81535 0
M  V30 3660 H 339.789 4.31317 -2.37121 0
M  V30 3661 N 341.441 0.965919 1.2453 0
M  V30 3662 C 342.388 0.49402 2.25451 0
M  V30 3663 C 343.358 -0.45948 1.59618 0
M  V30 3664 O 344.543 -0.370238 1.87173 0
M  V30 3665 C 341.683 -0.211359 3.44452 0
M  V30 3666 C 340.796 0.7807 4.24887 0
M  V30 3667 C 339.931 0.0516105 5.31175 0
M  V30 3668 C 338.97 1.03385 6.03306 0
M  V30 3669 N 338.107 0.334887 7.01301 0
M  V30 3670 H 342.947 1.35946 2.65184 0
M  V30 3671 H 340.484 0.681515 1.3036 0
M  V30 3672 H 342.442 -0.637 4.12308 0
M  V30 3673 H 341.072 -1.04077 3.05562 0
M  V30 3674 H 340.124 1.32479 3.56586 0
M  V30 3675 H 341.436 1.52978 4.74762 0
M  V30 3676 H 340.59 -0.432114 6.05159 0
M  V30 3677 H 339.329 -0.730179 4.82203 0
M  V30 3678 H 338.334 1.52847 5.28127 0
M  V30 3679 H 339.559 1.81606 6.54367 0
M  V30 3680 H 337.505 -0.427959 6.54603 0
M  V30 3681 H 337.422 1.02287 7.49048 0
M  V30 3682 H 338.69 -0.126928 7.79397 0
M  V30 3683 N 342.919 -1.39368 0.735821 0
M  V30 3684 C 344.167 -2.00101 0.283562 0
M  V30 3685 C 344.488 -1.5868 -1.13338 0
M  V30 3686 O 343.758 -0.835423 -1.77193 0
M  V30 3687 H 342.338 -0.740024 0.101851 0
M  V30 3688 H 345 -1.70404 0.945962 0
M  V30 3689 H 344.096 -3.10323 0.332604 0
M  V30 3690 N 344.397 -0.483516 -1.5 0
M  V30 3691 C 345.329 0.340634 -2.26655 0
M  V30 3692 C 346.342 0.946152 -1.32483 0
M  V30 3693 O 347.531 0.832453 -1.579 0
M  V30 3694 C 344.631 1.4929 -3.04246 0
M  V30 3695 C 343.804 0.997903 -4.25865 0
M  V30 3696 C 342.863 2.02569 -4.85646 0
M  V30 3697 O 341.889 1.60128 -5.46212 0
M  V30 3698 N 343.091 3.3548 -4.73744 0
M  V30 3699 H 345.856 -0.316577 -2.98023 0
M  V30 3700 H 343.417 -0.315024 -1.58806 0
M  V30 3701 H 345.409 2.17766 -3.41116 0
M  V30 3702 H 343.979 2.05458 -2.35597 0
M  V30 3703 H 343.199 0.138617 -3.93956 0
M  V30 3704 H 344.487 0.645305 -5.04691 0
M  V30 3705 H 343.885 3.72661 -4.25605 0
M  V30 3706 H 342.442 3.99718 -5.14848 0
M  V30 3707 N 345.875 1.56104 -0.216619 0
M  V30 3708 C 347.124 1.97348 0.416744 0
M  V30 3709 C 347.437 1.10715 1.6125 0
M  V30 3710 O 348.643 1.41836 2.31506 0
M  V30 3711 C 347.099 3.51059 0.792835 0
M  V30 3712 C 346.707 4.46387 -0.379828 0
M  V30 3713 C 348.451 4.01026 1.39208 0
M  V30 3714 C 346.358 5.91397 0.0184223 0
M  V30 3715 H 345.288 0.736942 0.159475 0
M  V30 3716 H 347.939 1.80827 -0.31205 0
M  V30 3717 H 346.321 3.63162 1.57891 0
M  V30 3718 H 347.495 4.46029 -1.15737 0
M  V30 3719 H 345.81 4.06734 -0.891979 0
M  V30 3720 H 348.407 5.0686 1.70286 0
M  V30 3721 H 348.75 3.46587 2.30614 0
M  V30 3722 H 349.283 3.92125 0.669537 0
M  V30 3723 H 346.022 6.49807 -0.862002 0
M  V30 3724 H 345.542 5.94961 0.760384 0
M  V30 3725 H 347.221 6.45455 0.446818 0
M  V30 3726 N 347.353 -0.0568162 1.57498 0
M  V30 3727 C 348.283 -1.06593 2.0775 0
M  V30 3728 C 349.264 -1.39448 0.974082 0
M  V30 3729 O 350.449 -1.48815 1.24771 0
M  V30 3730 C 347.579 -2.37509 2.5339 0
M  V30 3731 C 346.533 -2.1897 3.67745 0
M  V30 3732 C 345.859 -3.55402 3.99492 0
M  V30 3733 C 347.159 -1.59859 4.97235 0
M  V30 3734 H 348.853 -0.647706 2.9231 0
M  V30 3735 H 346.399 -0.310116 1.40621 0
M  V30 3736 H 348.352 -3.08409 2.87162 0
M  V30 3737 H 347.076 -2.8134 1.65878 0
M  V30 3738 H 345.735 -1.50508 3.3428 0
M  V30 3739 H 345.383 -3.9683 3.09088 0
M  V30 3740 H 345.083 -3.43831 4.76502 0
M  V30 3741 H 346.607 -4.27708 4.35773 0
M  V30 3742 H 348.021 -2.20642 5.29141 0
M  V30 3743 H 346.418 -1.58942 5.78669 0
M  V30 3744 H 347.488 -0.561506 4.81638 0
M  V30 3745 N 348.832 -1.54138 -0.328536 0
M  V30 3746 C 350.078 -1.7236 -1.06865 0
M  V30 3747 C 350.411 -0.493231 -1.87832 0
M  V30 3748 O 349.686 0.5098 -1.877 0
M  V30 3749 C 349.969 -2.99621 -1.99747 0
M  V30 3750 C 349.822 -4.32899 -1.22143 0
M  V30 3751 C 351.141 -3.22615 -2.99345 0
M  V30 3752 H 348.26 -0.627151 -0.387105 0
M  V30 3753 H 350.902 -1.86827 -0.345767 0
M  V30 3754 H 349.052 -2.87418 -2.61387 0
M  V30 3755 H 350.724 -4.56978 -0.630017 0
M  V30 3756 H 348.967 -4.30628 -0.523628 0
M  V30 3757 H 349.638 -5.18154 -1.90318 0
M  V30 3758 H 352.114 -3.34248 -2.47826 0
M  V30 3759 H 350.99 -4.13027 -3.61524 0
M  V30 3760 H 351.251 -2.3961 -3.71536 0
M  V30 3761 N 350.31 0.590341 -1.46126 0
M  V30 3762 C 351.587 1.35029 -1.41515 0
M  V30 3763 C 351.967 2.10888 -0.0946472 0
M  V30 3764 O 351.315 2.08998 0.923693 0
M  V30 3765 C 351.525 2.28269 -2.63997 0
M  V30 3766 C 352.873 2.90338 -3.09821 0
M  V30 3767 O 353.897 2.38585 -2.64492 0
M  V30 3768 O 352.756 3.84321 -3.88535 0
M  V30 3769 H 349.85 0.606317 -0.562413 0
M  V30 3770 H 352.396 0.611994 -1.58281 0
M  V30 3771 H 351.168 1.71591 -3.51671 0
M  V30 3772 H 350.791 3.0945 -2.49652 0
M  V30 3773 N 351.788 1.33704 0.83433 0
M  V30 3774 C 353.035 1.25417 1.58987 0
M  V30 3775 C 353.363 -0.178869 1.93676 0
M  V30 3776 O 352.618 -1.13723 1.59265 0
M  V30 3777 C 352.917 2.07926 2.90692 0
M  V30 3778 C 352.583 3.57066 2.75345 0
M  V30 3779 C 351.245 3.97724 2.70867 0
M  V30 3780 C 353.597 4.51817 2.59828 0
M  V30 3781 C 350.925 5.31344 2.48778 0
M  V30 3782 C 353.277 5.85604 2.39272 0
M  V30 3783 C 351.941 6.25439 2.33199 0
M  V30 3784 H 351.211 0.458934 0.581774 0
M  V30 3785 H 353.858 1.65335 0.966261 0
M  V30 3786 H 352.163 1.608 3.57282 0
M  V30 3787 H 353.86 1.98868 3.48213 0
M  V30 3788 H 350.45 3.24785 2.79665 0
M  V30 3789 H 354.634 4.21311 2.62319 0
M  V30 3790 H 349.89 5.61241 2.42526 0
M  V30 3791 H 354.064 6.58623 2.2625 0
M  V30 3792 H 351.691 7.28914 2.15843 0
M  V30 3793 N 353.266 -1.05314 1.17247 0
M  V30 3794 C 354.513 -1.78293 0.960091 0
M  V30 3795 C 354.841 -1.87658 -0.51136 0
M  V30 3796 O 354.096 -1.3718 -1.39571 0
M  V30 3797 C 354.395 -3.2229 1.54479 0
M  V30 3798 C 354.061 -3.32987 3.04024 0
M  V30 3799 C 352.723 -3.35613 3.44844 0
M  V30 3800 C 355.075 -3.34102 4.00031 0
M  V30 3801 C 352.403 -3.36982 4.8027 0
M  V30 3802 C 354.755 -3.3701 5.35357 0
M  V30 3803 C 353.419 -3.37923 5.75642 0
M  V30 3804 H 352.689 -0.652422 0.351322 0
M  V30 3805 H 355.336 -1.23782 1.46117 0
M  V30 3806 H 353.641 -3.7972 0.965391 0
M  V30 3807 H 355.338 -3.77376 1.35603 0
M  V30 3808 H 351.928 -3.31655 2.71483 0
M  V30 3809 H 356.112 -3.31276 3.69554 0
M  V30 3810 H 351.368 -3.35999 5.10798 0
M  V30 3811 H 355.542 -3.36822 6.09528 0
M  V30 3812 H 353.169 -3.38738 6.80559 0
M  V30 3813 N 354.744 -0.972509 -1.24016 0
M  V30 3814 C 355.692 -0.498562 -2.27194 0
M  V30 3815 C 356.686 0.440372 -1.63576 0
M  V30 3816 O 357.892 0.315133 -1.7722 0
M  V30 3817 H 354.267 -0.142775 -0.738322 0
M  V30 3818 H 356.238 -1.38065 -2.64539 0
M  V30 3819 C 354.987 0.191072 -3.47175 0
M  V30 3820 H 354.31 -0.522318 -3.96373 0
M  V30 3821 H 355.75 0.486445 -4.212 0
M  V30 3822 C 354.209 1.41967 -3.05527 0
M  V30 3823 O 354.739 2.51642 -3.13112 0
M  V30 3824 N 352.945 1.28746 -2.60524 0
M  V30 3825 H 352.492 0.395089 -2.54552 0
M  V30 3826 H 352.45 2.11061 -2.33025 0
M  V30 3827 N 356.222 1.38976 -0.743202 0
M  V30 3828 C 357.185 2.28901 -0.117014 0
M  V30 3829 C 358.185 1.46698 0.658503 0
M  V30 3830 O 359.375 1.67274 0.486305 0
M  V30 3831 C 356.507 3.30309 0.84315 0
M  V30 3832 H 357.7 2.8578 -0.909373 0
M  V30 3833 H 355.253 1.47761 -0.509547 0
M  V30 3834 H 355.988 2.785 1.66157 0
M  V30 3835 H 355.773 3.91029 0.289594 0
M  V30 3836 H 357.263 3.97577 1.2776 0
M  V30 3837 N 357.7 0.491464 1.49741 0
M  V30 3838 C 358.63 -0.28154 2.31796 0
M  V30 3839 C 359.611 -0.971473 1.3963 0
M  V30 3840 O 360.796 -0.964719 1.68543 0
M  V30 3841 C 357.926 -1.35203 3.19902 0
M  V30 3842 C 356.88 -0.782529 4.20786 0
M  V30 3843 C 356.206 -1.95283 4.97764 0
M  V30 3844 C 357.506 0.21999 5.21837 0
M  V30 3845 H 359.2 0.403355 2.96671 0
M  V30 3846 H 356.746 0.195425 1.42668 0
M  V30 3847 H 358.699 -1.90045 3.76113 0
M  V30 3848 H 357.423 -2.06598 2.52953 0
M  V30 3849 H 356.082 -0.255928 3.65706 0
M  V30 3850 H 355.73 -2.65423 4.2727 0
M  V30 3851 H 355.43 -1.57789 5.66018 0
M  V30 3852 H 356.954 -2.50577 5.56816 0
M  V30 3853 H 358.368 -0.23996 5.72798 0
M  V30 3854 H 356.765 0.51026 5.97927 0
M  V30 3855 H 357.835 1.13911 4.7133 0
M  V30 3856 N 359.178 -1.55987 0.224894 0
M  V30 3857 C 360.403 -2.03232 -0.41369 0
M  V30 3858 C 360.828 -1.10359 -1.52323 0
M  V30 3859 O 360.186 -0.092395 -1.81064 0
M  V30 3860 C 360.234 -3.48682 -0.919405 0
M  V30 3861 O 359.338 -3.58947 -2.03054 0
M  V30 3862 H 358.679 -0.657428 -0.0931903 0
M  V30 3863 H 361.209 -2.01679 0.34451 0
M  V30 3864 H 361.219 -3.8907 -1.22835 0
M  V30 3865 H 359.894 -4.15761 -0.107339 0
M  V30 3866 H 358.471 -3.30448 -1.72796 0
M  V30 3867 N 360.656 0.0484629 -1.57525 0
M  V30 3868 C 361.933 0.777447 -1.79486 0
M  V30 3869 C 362.313 1.94597 -0.818251 0
M  V30 3870 O 361.661 2.28047 0.143767 0
M  V30 3871 C 361.871 1.22864 -3.26658 0
M  V30 3872 C 363.219 1.65251 -3.91123 0
M  V30 3873 O 364.243 1.32372 -3.3069 0
M  V30 3874 O 363.102 2.26207 -4.97486 0
M  V30 3875 H 360.196 0.374357 -0.737419 0
M  V30 3876 H 362.742 0.0267359 -1.69679 0
M  V30 3877 H 361.514 0.393589 -3.89316 0
M  V30 3878 H 361.137 2.03996 -3.41279 0
M  V30 3879 N 362.134 1.5431 0.320358 0
M  V30 3880 C 363.097 1.83195 1.3774 0
M  V30 3881 C 364.097 0.703906 1.44575 0
M  V30 3882 O 365.287 0.972214 1.44546 0
M  V30 3883 C 362.419 1.99487 2.76438 0
M  V30 3884 H 363.612 2.77642 1.1338 0
M  V30 3885 H 361.165 1.46076 0.556012 0
M  V30 3886 H 361.9 1.07262 3.06048 0
M  V30 3887 H 361.685 2.81575 2.7287 0
M  V30 3888 H 363.175 2.23271 3.52902 0
M  V30 3889 N 363.613 -0.582584 1.46437 0
M  V30 3890 C 364.841 -1.36682 1.55324 0
M  V30 3891 C 365.256 -1.87796 0.194409 0
M  V30 3892 O 364.613 -1.63623 -0.808318 0
M  V30 3893 C 364.664 -2.55426 2.55812 0
M  V30 3894 O 364.385 -2.0643 3.86417 0
M  V30 3895 C 365.886 -3.47976 2.74641 0
M  V30 3896 H 363.106 -0.417545 0.525259 0
M  V30 3897 H 365.65 -0.708219 1.91845 0
M  V30 3898 H 363.805 -3.17275 2.22295 0
M  V30 3899 H 364.219 -2.83762 4.41111 0
M  V30 3900 H 365.693 -4.27775 3.48874 0
M  V30 3901 H 366.17 -3.99919 1.81553 0
M  V30 3902 H 366.776 -2.91962 3.09255 0
M  V30 3903 N 365.091 -1.34144 -0.827227 0
M  V30 3904 C 366.024 -1.19707 -1.94282 0
M  V30 3905 C 367.002 -0.0897256 -1.62352 0
M  V30 3906 O 368.186 -0.254095 -1.8678 0
M  V30 3907 C 365.313 -0.838646 -3.28153 0
M  V30 3908 C 364.359 -1.95514 -3.79047 0
M  V30 3909 S 365.192 -3.56793 -3.99323 0
M  V30 3910 C 366.348 -3.22983 -5.36127 0
M  V30 3911 H 366.581 -2.1414 -2.06231 0
M  V30 3912 H 364.114 -1.19121 -0.982321 0
M  V30 3913 H 366.072 -0.638637 -4.05502 0
M  V30 3914 H 364.733 0.0872776 -3.13979 0
M  V30 3915 H 363.926 -1.658 -4.75948 0
M  V30 3916 H 363.528 -2.11241 -3.08631 0
M  V30 3917 H 365.82 -2.74531 -6.19386 0
M  V30 3918 H 366.763 -4.19008 -5.70822 0
M  V30 3919 H 367.171 -2.59276 -5.01434 0
M  V30 3920 N 366.569 1.04691 -1.17803 0
M  V30 3921 C 367.516 2.12557 -0.899343 0
M  V30 3922 C 368.486 1.65339 0.158771 0
M  V30 3923 O 369.671 1.90789 0.0204797 0
M  V30 3924 C 366.811 3.42481 -0.424315 0
M  V30 3925 C 365.924 4.03346 -1.54713 0
M  V30 3926 C 365.059 5.21208 -1.02546 0
M  V30 3927 C 364.098 5.74089 -2.12339 0
M  V30 3928 N 363.235 6.83247 -1.61612 0
M  V30 3929 H 368.075 2.35734 -1.823 0
M  V30 3930 H 365.612 1.1564 -0.909159 0
M  V30 3931 H 367.57 4.16996 -0.130421 0
M  V30 3932 H 366.2 3.19471 0.462377 0
M  V30 3933 H 365.252 3.2622 -1.95664 0
M  V30 3934 H 366.564 4.38628 -2.37501 0
M  V30 3935 H 365.718 6.02812 -0.685718 0
M  V30 3936 H 364.457 4.87414 -0.167084 0
M  V30 3937 H 363.462 4.91111 -2.47165 0
M  V30 3938 H 364.687 6.0993 -2.98601 0
M  V30 3939 H 362.633 6.5134 -0.780533 0
M  V30 3940 H 362.55 7.17559 -2.38003 0
M  V30 3941 H 363.818 7.68491 -1.30545 0
M  V30 3942 N 368.047 0.979072 1.23499 0
M  V30 3943 C 369.296 0.642751 1.91185 0
M  V30 3944 C 369.609 -0.827253 1.77245 0
M  V30 3945 O 370.815 -1.27458 2.39722 0
M  V30 3946 C 369.271 1.09901 3.42709 0
M  V30 3947 C 368.879 2.59327 3.65313 0
M  V30 3948 C 370.623 0.836371 4.16179 0
M  V30 3949 C 368.53 2.98627 5.10467 0
M  V30 3950 H 367.46 0.236698 0.715884 0
M  V30 3951 H 370.111 1.1868 1.39955 0
M  V30 3952 H 368.493 0.48319 3.93041 0
M  V30 3953 H 369.667 3.26136 3.25533 0
M  V30 3954 H 367.982 2.83323 3.05151 0
M  V30 3955 H 370.579 1.10586 5.23139 0
M  V30 3956 H 370.922 -0.227509 4.15678 0
M  V30 3957 H 371.455 1.41371 3.71832 0
M  V30 3958 H 368.194 4.04133 5.16098 0
M  V30 3959 H 367.714 2.3651 5.51201 0
M  V30 3960 H 369.393 2.89159 5.78788 0
M  V30 3961 N 369.525 -1.3858 0.750561 0
M  V30 3962 C 370.771 -2.00481 0.305825 0
M  V30 3963 C 371.104 -1.5944 -1.10872 0
M  V30 3964 O 370.379 -0.83052 -1.75877 0
M  V30 3965 C 370.662 -3.5758 0.425287 0
M  V30 3966 C 370.515 -4.08594 1.88072 0
M  V30 3967 C 371.834 -4.39719 -0.183122 0
M  V30 3968 H 368.953 -0.728348 0.112598 0
M  V30 3969 H 371.595 -1.64566 0.949638 0
M  V30 3970 H 369.745 -3.88306 -0.122828 0
M  V30 3971 H 371.417 -3.88523 2.48691 0
M  V30 3972 H 369.66 -3.61574 2.39681 0
M  V30 3973 H 370.331 -5.177 1.91548 0
M  V30 3974 H 372.807 -4.15128 0.284303 0
M  V30 3975 H 371.683 -5.48856 -0.0692757 0
M  V30 3976 H 371.944 -4.23434 -1.27106 0
M  V30 3977 N 371.003 -0.499398 -1.49478 0
M  V30 3978 C 371.935 0.316575 -2.27003 0
M  V30 3979 C 372.948 0.932047 -1.33479 0
M  V30 3980 O 374.137 0.815658 -1.58774 0
M  V30 3981 C 371.237 1.46055 -3.05812 0
M  V30 3982 C 370.41 0.952679 -4.26899 0
M  V30 3983 C 369.469 1.97407 -4.87767 0
M  V30 3984 O 368.495 1.54326 -5.4788 0
M  V30 3985 N 369.697 3.30436 -4.77276 0
M  V30 3986 H 372.462 -0.348168 -2.97671 0
M  V30 3987 H 370.023 -0.33185 -1.58463 0
M  V30 3988 H 372.015 2.14135 -3.43407 0
M  V30 3989 H 370.585 2.02948 -2.37762 0
M  V30 3990 H 369.805 0.0968248 -3.94081 0
M  V30 3991 H 371.093 0.59174 -5.05347 0
M  V30 3992 H 370.491 3.68126 -4.29534 0
M  V30 3993 H 369.048 3.94235 -5.19059 0
M  V30 3994 N 372.481 1.55866 -0.233164 0
M  V30 3995 C 373.73 1.97779 0.39579 0
M  V30 3996 C 374.043 1.12419 1.60066 0
M  V30 3997 O 375.249 1.44283 2.29988 0
M  V30 3998 C 373.705 3.5188 0.755556 0
M  V30 3999 C 373.313 4.45959 -0.427152 0
M  V30 4000 C 375.057 4.02479 1.34946 0
M  V30 4001 C 372.964 5.91383 -0.0443043 0
M  V30 4002 H 371.894 0.738592 0.15165 0
M  V30 4003 H 374.545 1.80486 -0.331212 0
M  V30 4004 H 372.927 3.64816 1.5403 0
M  V30 4005 H 374.101 4.44776 -1.20462 0
M  V30 4006 H 372.416 4.05765 -0.935068 0
M  V30 4007 H 375.013 5.08637 1.649 0
M  V30 4008 H 375.356 3.49014 2.26925 0
M  V30 4009 H 375.889 3.92813 0.62791 0
M  V30 4010 H 372.628 6.48857 -0.930874 0
M  V30 4011 H 372.148 5.95734 0.697238 0
M  V30 4012 H 373.827 6.45893 0.378334 0
M  V30 4013 N 373.959 -0.0401083 1.57549 0
M  V30 4014 C 375.208 -0.732108 1.87944 0
M  V30 4015 C 375.521 -1.77107 0.830206 0
M  V30 4016 O 376.727 -2.51488 1.02302 0
M  V30 4017 C 375.183 -1.35315 3.33494 0
M  V30 4018 C 374.791 -0.351105 4.46622 0
M  V30 4019 C 376.535 -2.02566 3.73051 0
M  V30 4020 C 374.442 -0.979859 5.83226 0
M  V30 4021 H 373.372 -0.277188 0.701201 0
M  V30 4022 H 376.023 0.0138501 1.83495 0
M  V30 4023 H 374.405 -2.14844 3.32653 0
M  V30 4024 H 375.579 0.416674 4.58912 0
M  V30 4025 H 373.894 0.218708 4.15825 0
M  V30 4026 H 376.491 -2.50441 4.72423 0
M  V30 4027 H 376.834 -2.83904 3.04474 0
M  V30 4028 H 377.367 -1.29827 3.76018 0
M  V30 4029 H 374.106 -0.206135 6.55176 0
M  V30 4030 H 373.626 -1.71774 5.74677 0
M  V30 4031 H 375.305 -1.49046 6.29599 0
M  V30 4032 N 375.437 -1.54477 -0.31217 0
M  V30 4033 C 376.37 -1.79519 -1.40884 0
M  V30 4034 C 377.348 -0.645753 -1.49227 0
M  V30 4035 O 378.532 -0.884468 -1.66461 0
M  V30 4036 C 375.659 -1.92194 -2.78889 0
M  V30 4037 C 374.705 -3.14555 -2.88023 0
M  V30 4038 S 375.538 -4.72893 -2.51262 0
M  V30 4039 C 376.694 -4.8849 -3.91317 0
M  V30 4040 H 376.927 -2.72256 -1.19432 0
M  V30 4041 H 374.46 -1.45746 -0.509654 0
M  V30 4042 H 376.418 -2.00182 -3.58382 0
M  V30 4043 H 375.079 -1.00414 -2.97617 0
M  V30 4044 H 374.272 -3.20193 -3.89221 0
M  V30 4045 H 373.874 -3.04955 -2.16514 0
M  V30 4046 H 376.166 -4.71826 -4.86196 0
M  V30 4047 H 377.109 -5.90588 -3.90656 0
M  V30 4048 H 377.517 -4.16715 -3.80801 0
M  V30 4049 N 376.915 0.57481 -1.46744 0
M  V30 4050 C 378.155 1.34369 -1.54027 0
M  V30 4051 C 378.519 1.91051 -0.190642 0
M  V30 4052 O 379.72 2.68444 -0.138255 0
M  V30 4053 C 377.991 2.43706 -2.61423 0
M  V30 4054 S 379.55 3.30915 -2.88167 0
M  V30 4055 H 376.368 0.45768 -0.544105 0
M  V30 4056 H 378.97 0.659959 -1.84024 0
M  V30 4057 H 377.674 2.0047 -3.58106 0
M  V30 4058 H 377.205 3.16842 -2.33184 0
M  V30 4059 H 379.22 4.42742 -2.24039 0
M  V30 4060 N 378.394 1.34581 0.820102 0
M  V30 4061 C 379.624 1.29991 1.6058 0
M  V30 4062 C 380.032 -0.127588 1.88769 0
M  V30 4063 O 379.375 -1.08595 1.48165 0
M  V30 4064 C 379.437 2.02548 2.9701 0
M  V30 4065 C 379.101 3.51794 2.91701 0
M  V30 4066 C 380.098 4.46647 2.66087 0
M  V30 4067 C 377.783 3.94249 3.11245 0
M  V30 4068 C 379.777 5.81929 2.60071 0
M  V30 4069 C 377.464 5.2963 3.04853 0
M  V30 4070 C 378.462 6.23282 2.793 0
M  V30 4071 O 378.15 7.56181 2.72847 0
M  V30 4072 H 377.882 0.448539 0.505756 0
M  V30 4073 H 380.436 1.77811 1.02822 0
M  V30 4074 H 378.666 1.49345 3.56697 0
M  V30 4075 H 380.355 1.91211 3.58041 0
M  V30 4076 H 381.121 4.15168 2.5072 0
M  V30 4077 H 377 3.21749 3.30149 0
M  V30 4078 H 380.544 6.54999 2.40046 0
M  V30 4079 H 376.441 5.60727 3.19774 0
M  V30 4080 H 377.209 7.6595 2.88553 0
M  V30 4081 N 379.872 -1.04064 1.18357 0
M  V30 4082 C 380.805 -2.11618 0.854 0
M  V30 4083 C 381.783 -1.61555 -0.184043 0
M  V30 4084 O 382.967 -1.88395 -0.0630048 0
M  V30 4085 C 380.094 -3.37574 0.27597 0
M  V30 4086 C 379.14 -4.06485 1.2912 0
M  V30 4087 S 379.973 -4.53543 2.84709 0
M  V30 4088 C 381.129 -5.82732 2.28417 0
M  V30 4089 H 381.362 -2.39247 1.76488 0
M  V30 4090 H 378.895 -1.16832 1.00944 0
M  V30 4091 H 380.853 -4.10468 -0.051026 0
M  V30 4092 H 379.514 -3.0806 -0.613028 0
M  V30 4093 H 378.707 -4.97024 0.835633 0
M  V30 4094 H 378.309 -3.39708 1.56443 0
M  V30 4095 H 380.601 -6.56677 1.66677 0
M  V30 4096 H 381.544 -6.33052 3.17256 0
M  V30 4097 H 381.952 -5.37838 1.71436 0
M  V30 4098 N 381.35 -0.985608 -1.22978 0
M  V30 4099 C 382.761 -0.693593 -1.73338 0
M  V30 4100 C 383.112 0.789935 -1.79595 0
M  V30 4101 O 382.237 1.61771 -1.43733 0
M  V30 4102 C 382.832 -1.25235 -3.14804 0
M  V30 4103 C 381.391 -1.00987 -3.626 0
M  V30 4104 C 380.538 -1.37695 -2.40698 0
M  V30 4105 H 383.489 -1.15884 -1.08428 0
M  V30 4106 H 383.51 -0.627329 -3.75293 0
M  V30 4107 H 383.022 -2.33209 -3.10218 0
M  V30 4108 H 381.123 0.0535565 -3.72562 0
M  V30 4109 H 381.236 -1.66812 -4.49122 0
M  V30 4110 H 379.6 -0.795459 -2.4196 0
M  V30 4111 H 380.383 -2.46657 -2.38779 0
M  V30 4112 N 382.828 1.3818 -0.7579 0
M  V30 4113 C 383.758 2.33027 -0.148597 0
M  V30 4114 C 384.739 1.55085 0.69875 0
M  V30 4115 O 385.924 1.83384 0.639053 0
M  V30 4116 C 383.054 3.3928 0.742034 0
M  V30 4117 C 382.008 4.28 -0.00291946 0
M  V30 4118 C 381.334 5.25146 1.00625 0
M  V30 4119 C 382.634 5.08938 -1.17385 0
M  V30 4120 H 384.328 2.84231 -0.940909 0
M  V30 4121 H 381.874 1.36659 -0.453908 0
M  V30 4122 H 383.827 4.046 1.17799 0
M  V30 4123 H 382.551 2.86569 1.56671 0
M  V30 4124 H 381.21 3.64192 -0.419504 0
M  V30 4125 H 380.858 4.68721 1.8251 0
M  V30 4126 H 380.558 5.85361 0.512428 0
M  V30 4127 H 382.082 5.93342 1.44143 0
M  V30 4128 H 383.496 5.67474 -0.815224 0
M  V30 4129 H 381.893 5.7841 -1.59882 0
M  V30 4130 H 382.963 4.42424 -1.98468 0
M  V30 4131 N 384.306 0.507319 1.49211 0
M  V30 4132 C 385.554 -0.0348839 2.0207 0
M  V30 4133 C 385.875 -1.36898 1.38866 0
M  V30 4134 O 385.145 -1.88133 0.546151 0
M  V30 4135 H 383.725 -0.0158812 0.746831 0
M  V30 4136 H 386.387 0.665998 1.83168 0
M  V30 4137 H 385.483 -0.159917 3.1169 0
M  V30 4138 N 385.784 -1.5574 0.241426 0
M  V30 4139 C 387.033 -1.97986 -0.385295 0
M  V30 4140 C 387.346 -1.13267 -1.59468 0
M  V30 4141 O 388.552 -1.45501 -2.2922 0
M  V30 4142 C 387.008 -3.52275 -0.736884 0
M  V30 4143 C 386.616 -4.45726 0.450796 0
M  V30 4144 C 388.36 -4.03189 -1.3281 0
M  V30 4145 C 386.267 -5.91352 0.0756662 0
M  V30 4146 H 385.197 -0.739386 -0.147731 0
M  V30 4147 H 387.848 -1.80308 0.340779 0
M  V30 4148 H 386.23 -3.65628 -1.52094 0
M  V30 4149 H 387.404 -4.44131 1.22819 0
M  V30 4150 H 385.719 -4.05264 0.956573 0
M  V30 4151 H 388.316 -5.09505 -1.62201 0
M  V30 4152 H 388.659 -3.50212 -2.25071 0
M  V30 4153 H 389.192 -3.93141 -0.607069 0
M  V30 4154 H 385.931 -6.48354 0.965272 0
M  V30 4155 H 385.451 -5.96095 -0.665635 0
M  V30 4156 H 387.13 -6.46084 -0.344075 0
M  V30 4157 N 387.262 0.0317525 -1.57568 0
M  V30 4158 C 388.192 1.03274 -2.0942 0
M  V30 4159 C 389.173 1.3788 -0.996143 0
M  V30 4160 O 390.358 1.46811 -1.27122 0
M  V30 4161 C 387.488 2.33448 -2.57137 0
M  V30 4162 C 386.442 2.13091 -3.71182 0
M  V30 4163 C 385.768 3.49001 -4.05095 0
M  V30 4164 C 387.068 1.51928 -4.99715 0
M  V30 4165 H 388.762 0.60112 -2.93303 0
M  V30 4166 H 386.308 0.287705 -1.41097 0
M  V30 4167 H 388.261 3.03802 -2.92032 0
M  V30 4168 H 386.985 2.78665 -1.70333 0
M  V30 4169 H 385.644 1.45171 -3.36632 0
M  V30 4170 H 385.292 3.91862 -3.15362 0
M  V30 4171 H 384.992 3.36207 -4.81911 0
M  V30 4172 H 386.516 4.20721 -4.42522 0
M  V30 4173 H 387.93 2.12196 -5.32584 0
M  V30 4174 H 386.327 1.49716 -5.81124 0
M  V30 4175 H 387.397 0.484811 -4.8247 0
M  V30 4176 N 388.74 1.54641 0.303973 0
M  V30 4177 C 389.987 1.7378 1.03955 0
M  V30 4178 C 390.315 0.521986 1.87365 0
M  V30 4179 O 389.57 -0.496099 1.89308 0
M  V30 4180 C 389.869 2.97753 1.97681 0
M  V30 4181 C 389.535 4.31671 1.30271 0
M  V30 4182 C 388.197 4.68075 1.11619 0
M  V30 4183 C 390.549 5.147 0.82055 0
M  V30 4184 C 387.877 5.8509 0.434304 0
M  V30 4185 C 390.229 6.32416 0.152395 0
M  V30 4186 C 388.893 6.67484 -0.0461067 0
M  V30 4187 H 388.163 0.635908 0.380398 0
M  V30 4188 H 390.81 1.88896 0.314718 0
M  V30 4189 H 389.115 2.77406 2.76682 0
M  V30 4190 H 390.812 3.09756 2.54661 0
M  V30 4191 H 387.402 4.03041 1.45795 0
M  V30 4192 H 391.586 4.87077 0.952374 0
M  V30 4193 H 386.842 6.10806 0.269495 0
M  V30 4194 H 391.016 6.96023 -0.229126 0
M  V30 4195 H 388.643 7.58011 -0.576494 0
M  V30 4196 N 390.218 -0.567019 1.47046 0
M  V30 4197 C 391.148 -1.68482 1.61667 0
M  V30 4198 C 392.129 -1.6358 0.466418 0
M  V30 4199 O 393.314 -1.81354 0.694574 0
M  V30 4200 C 390.444 -3.07124 1.62148 0
M  V30 4201 C 389.398 -3.26867 2.76301 0
M  V30 4202 C 388.724 -4.66196 2.61849 0
M  V30 4203 C 390.024 -3.13186 4.17986 0
M  V30 4204 H 391.718 -1.56502 2.5524 0
M  V30 4205 H 389.264 -0.751486 1.22836 0
M  V30 4206 H 391.217 -3.8516 1.70968 0
M  V30 4207 H 389.941 -3.2004 0.651287 0
M  V30 4208 H 388.6 -2.51237 2.66975 0
M  V30 4209 H 388.248 -4.75898 1.62879 0
M  V30 4210 H 387.948 -4.80356 3.38425 0
M  V30 4211 H 389.472 -5.46379 2.72584 0
M  V30 4212 H 390.886 -3.81049 4.2834 0
M  V30 4213 H 389.283 -3.3886 4.95272 0
M  V30 4214 H 390.353 -2.10057 4.3704 0
M  V30 4215 N 391.696 -1.35014 -0.812953 0
M  V30 4216 C 392.945 -1.27269 -1.56479 0
M  V30 4217 C 393.258 0.152771 -1.95002 0
M  V30 4218 O 394.464 0.352451 -2.69203 0
M  V30 4219 C 392.92 -2.23159 -2.82362 0
M  V30 4220 C 392.528 -3.71016 -2.511 0
M  V30 4221 C 394.272 -2.24342 -3.60376 0
M  V30 4222 C 392.179 -4.58746 -3.73237 0
M  V30 4223 H 391.109 -0.472829 -0.587324 0
M  V30 4224 H 393.76 -1.6024 -0.894171 0
M  V30 4225 H 392.142 -1.83151 -3.51101 0
M  V30 4226 H 393.316 -4.1962 -1.90409 0
M  V30 4227 H 391.631 -3.72378 -1.86343 0
M  V30 4228 H 394.228 -2.87107 -4.51081 0
M  V30 4229 H 394.571 -1.24542 -3.97234 0
M  V30 4230 H 395.104 -2.62846 -2.98591 0
M  V30 4231 H 391.843 -5.59521 -3.41492 0
M  V30 4232 H 391.363 -4.14871 -4.33176 0
M  V30 4233 H 393.042 -4.73852 -4.40537 0
M  V30 4234 N 393.175 1.03435 -1.18907 0
M  V30 4235 C 394.138 2.09756 -0.923844 0
M  V30 4236 C 395.138 1.60528 0.093416 0
M  V30 4237 O 396.328 1.73631 -0.140727 0
M  V30 4238 C 393.46 3.38692 -0.387354 0
M  V30 4239 H 394.653 2.34719 -1.86674 0
M  V30 4240 H 392.206 1.19959 -1.00197 0
M  V30 4241 H 392.941 3.19396 0.561845 0
M  V30 4242 H 392.726 3.75742 -1.12074 0
M  V30 4243 H 394.216 4.17016 -0.220694 0
M  V30 4244 N 394.653 0.992116 1.22453 0
M  V30 4245 C 395.901 0.666215 1.90804 0
M  V30 4246 C 396.222 -0.804152 1.77647 0
M  V30 4247 O 395.492 -1.57629 1.16318 0
M  V30 4248 H 394.072 0.243423 0.706225 0
M  V30 4249 H 396.734 1.25845 1.48825 0
M  V30 4250 H 395.83 0.928069 2.97982 0
M  V30 4251 N 396.131 -1.37776 0.765217 0
M  V30 4252 C 397.078 -2.30342 0.145274 0
M  V30 4253 C 398.048 -1.5077 -0.696971 0
M  V30 4254 O 399.233 -1.79362 -0.650689 0
M  V30 4255 C 396.373 -3.37227 -0.732939 0
M  V30 4256 C 395.486 -4.31819 0.125199 0
M  V30 4257 C 394.621 -5.25777 -0.757107 0
M  V30 4258 C 393.66 -6.12012 0.103963 0
M  V30 4259 N 392.797 -6.98232 -0.735953 0
M  V30 4260 H 397.637 -2.8278 0.940195 0
M  V30 4261 H 395.174 -1.39211 0.475255 0
M  V30 4262 H 397.132 -3.97818 -1.25686 0
M  V30 4263 H 395.762 -2.86171 -1.49353 0
M  V30 4264 H 394.814 -3.7259 0.766865 0
M  V30 4265 H 396.126 -4.92509 0.789683 0
M  V30 4266 H 395.28 -5.91541 -1.34776 0
M  V30 4267 H 394.019 -4.65481 -1.45529 0
M  V30 4268 H 393.024 -5.45233 0.707197 0
M  V30 4269 H 394.249 -6.74379 0.799381 0
M  V30 4270 H 392.195 -6.40472 -1.41887 0
M  V30 4271 H 392.112 -7.55891 -0.128624 0
M  V30 4272 H 393.38 -7.68393 -1.31121 0
M  V30 4273 N 397.609 -0.515225 -1.4894 0
M  V30 4274 C 398.858 0.0261361 -2.01683 0
M  V30 4275 C 399.171 1.36719 -1.39883 0
M  V30 4276 O 400.377 1.99606 -1.84037 0
M  V30 4277 C 398.833 0.0970111 -3.59769 0
M  V30 4278 C 398.441 -1.23825 -4.30548 0
M  V30 4279 C 400.185 0.587981 -4.20408 0
M  V30 4280 C 398.092 -1.12877 -5.80528 0
M  V30 4281 H 397.022 0.0135398 -0.753878 0
M  V30 4282 H 399.673 -0.656787 -1.71343 0
M  V30 4283 H 398.055 0.844694 -3.86886 0
M  V30 4284 H 399.229 -2.00034 -4.15118 0
M  V30 4285 H 397.544 -1.66379 -3.81716 0
M  V30 4286 H 400.141 0.68763 -5.3026 0
M  V30 4287 H 400.484 1.59026 -3.84729 0
M  V30 4288 H 401.017 -0.103582 -3.97665 0
M  V30 4289 H 397.756 -2.10575 -6.20756 0
M  V30 4290 H 397.276 -0.407799 -5.98412 0
M  V30 4291 H 398.955 -0.813332 -6.41868 0
M  V30 4292 N 399.087 1.5561 -0.249682 0
M  V30 4293 C 400.336 1.98187 0.37479 0
M  V30 4294 C 400.649 1.14111 1.58865 0
M  V30 4295 O 401.855 1.46714 2.28445 0
M  V30 4296 C 400.311 3.52661 0.718192 0
M  V30 4297 C 399.919 4.45481 -0.474428 0
M  V30 4298 C 401.663 4.03888 1.3067 0
M  V30 4299 C 399.57 5.91303 -0.107026 0
M  V30 4300 H 398.5 0.740159 0.143808 0
M  V30 4301 H 401.151 1.80125 -0.350336 0
M  V30 4302 H 399.533 3.66429 1.50152 0
M  V30 4303 H 400.707 4.43473 -1.25172 0
M  V30 4304 H 399.022 4.04751 -0.978052 0
M  V30 4305 H 401.619 5.10358 1.59496 0
M  V30 4306 H 401.962 3.51401 2.23211 0
M  V30 4307 H 402.495 3.93457 0.586211 0
M  V30 4308 H 399.234 6.47833 -0.999642 0
M  V30 4309 H 398.754 5.9644 0.634013 0
M  V30 4310 H 400.433 6.46258 0.309807 0
M  V30 4311 N 400.565 -0.0233959 1.57583 0
M  V30 4312 C 401.475 -1.03907 2.10334 0
M  V30 4313 C 402.491 -1.39257 1.04323 0
M  V30 4314 O 403.667 -1.48462 1.36091 0
M  V30 4315 C 400.732 -2.31938 2.57693 0
M  V30 4316 C 399.793 -2.03117 3.78209 0
M  V30 4317 C 399.026 -3.25043 4.233 0
M  V30 4318 O 399.249 -4.35916 3.67876 0
M  V30 4319 O 398.183 -3.10411 5.15683 0
M  V30 4320 H 402.009 -0.620748 2.97288 0
M  V30 4321 H 399.594 -0.240743 1.47448 0
M  V30 4322 H 401.476 -3.07196 2.88458 0
M  V30 4323 H 400.151 -2.73055 1.73847 0
M  V30 4324 H 399.058 -1.25408 3.52454 0
M  V30 4325 H 400.391 -1.66852 4.63056 0
M  V30 4326 N 402.043 -1.548 -0.295768 0
M  V30 4327 C 403.289 -1.74588 -1.03184 0
M  V30 4328 C 403.622 -0.532962 -1.86744 0
M  V30 4329 O 402.897 0.469872 -1.88739 0
M  V30 4330 C 403.18 -3.03791 -1.93347 0
M  V30 4331 C 403.033 -4.35392 -1.12933 0
M  V30 4332 C 404.352 -3.28892 -2.92435 0
M  V30 4333 H 401.471 -0.635221 -0.373715 0
M  V30 4334 H 404.113 -1.87519 -0.30606 0
M  V30 4335 H 402.263 -2.92898 -2.55232 0
M  V30 4336 H 403.935 -4.58211 -0.532943 0
M  V30 4337 H 402.178 -4.31642 -0.432168 0
M  V30 4338 H 402.849 -5.22074 -1.79284 0
M  V30 4339 H 405.325 -3.39429 -2.4068 0
M  V30 4340 H 404.201 -4.20603 -3.52682 0
M  V30 4341 H 404.462 -2.47437 -3.6637 0
M  V30 4342 N 403.521 0.559213 -1.47345 0
M  V30 4343 C 404.431 1.69388 -1.62311 0
M  V30 4344 C 405.447 1.6648 -0.505993 0
M  V30 4345 O 406.623 1.85964 -0.773262 0
M  V30 4346 C 403.688 3.05894 -1.63185 0
M  V30 4347 C 402.749 3.19885 -2.86307 0
M  V30 4348 C 401.982 4.49879 -2.87131 0
M  V30 4349 O 402.205 5.35217 -1.97229 0
M  V30 4350 O 401.139 4.67618 -3.78968 0
M  V30 4351 H 404.965 1.59706 -2.58317 0
M  V30 4352 H 402.55 0.728989 -1.30407 0
M  V30 4353 H 404.432 3.87133 -1.66451 0
M  V30 4354 H 403.107 3.15964 -0.70345 0
M  V30 4355 H 402.014 2.38052 -2.88587 0
M  V30 4356 H 403.347 3.14718 -3.78435 0
M  V30 4357 N 404.999 1.35443 0.805782 0
M  V30 4358 C 406.276 1.19325 1.54987 0
M  V30 4359 C 406.656 -0.227294 2.09873 0
M  V30 4360 O 406.004 -1.2309 1.92512 0
M  V30 4361 C 406.214 2.26196 2.65775 0
M  V30 4362 C 407.562 2.62043 3.34094 0
M  V30 4363 O 408.586 2.25115 2.76046 0
M  V30 4364 O 407.445 3.25542 4.38958 0
M  V30 4365 H 404.539 0.463623 0.684823 0
M  V30 4366 H 407.085 1.47127 0.845674 0
M  V30 4367 H 405.857 3.21471 2.23096 0
M  V30 4368 H 405.48 1.99667 3.43829 0
M  V30 4369 N 406.477 -1.02803 1.19454 0
M  V30 4370 C 407.723 -1.76598 1.0092 0
M  V30 4371 C 408.078 -1.86939 -0.455142 0
M  V30 4372 O 407.371 -1.37575 -1.33355 0
M  V30 4373 C 407.565 -3.18941 1.6128 0
M  V30 4374 C 407.394 -3.22476 3.13431 0
M  V30 4375 C 406.164 -3.30375 3.82336 0
M  V30 4376 C 408.362 -3.09451 4.10785 0
M  V30 4377 N 406.344 -3.23292 5.21877 0
M  V30 4378 C 407.715 -3.10012 5.36929 0
M  V30 4379 C 409.77 -2.93585 4.02135 0
M  V30 4380 C 408.473 -2.96334 6.55423 0
M  V30 4381 C 410.499 -2.81256 5.20239 0
M  V30 4382 C 409.861 -2.82472 6.45282 0
M  V30 4383 H 405.96 -0.657447 0.423424 0
M  V30 4384 H 408.544 -1.22369 1.5144 0
M  V30 4385 H 406.715 -3.71489 1.1336 0
M  V30 4386 H 408.447 -3.81102 1.36173 0
M  V30 4387 H 405.202 -3.3663 3.33132 0
M  V30 4388 H 405.626 -3.23156 5.94894 0
M  V30 4389 H 410.268 -2.91466 3.0628 0
M  V30 4390 H 407.986 -2.97203 7.51463 0
M  V30 4391 H 411.572 -2.70014 5.15348 0
M  V30 4392 H 410.452 -2.73036 7.35133 0
M  V30 4393 N 407.956 -0.998596 -1.21925 0
M  V30 4394 C 408.866 -0.562736 -2.27751 0
M  V30 4395 C 409.882 0.391203 -1.69545 0
M  V30 4396 O 411.058 0.256625 -1.99758 0
M  V30 4397 C 408.123 0.11012 -3.46525 0
M  V30 4398 C 407.184 -0.887495 -4.20026 0
M  V30 4399 C 406.417 -0.246654 -5.3313 0
M  V30 4400 O 406.64 0.958088 -5.62296 0
M  V30 4401 O 405.574 -0.954374 -5.94286 0
M  V30 4402 H 409.4 -1.44329 -2.67213 0
M  V30 4403 H 406.985 -0.767135 -1.28201 0
M  V30 4404 H 408.867 0.486756 -4.18579 0
M  V30 4405 H 407.542 0.965154 -3.08976 0
M  V30 4406 H 406.449 -1.31517 -3.5022 0
M  V30 4407 H 407.782 -1.71191 -4.6147 0
M  V30 4408 N 409.434 1.37368 -0.772513 0
M  V30 4409 C 410.683 1.98918 -0.333861 0
M  V30 4410 C 410.996 1.62017 1.09589 0
M  V30 4411 O 412.202 2.16676 1.63596 0
M  V30 4412 C 410.658 3.55735 -0.545971 0
M  V30 4413 C 410.266 4.01573 -1.98603 0
M  V30 4414 C 412.01 4.24156 -0.170979 0
M  V30 4415 C 409.917 5.51102 -2.1457 0
M  V30 4416 H 408.847 0.744214 -0.121085 0
M  V30 4417 H 411.498 1.56888 -0.95175 0
M  V30 4418 H 409.88 3.95748 0.141387 0
M  V30 4419 H 411.054 3.72803 -2.7084 0
M  V30 4420 H 409.369 3.45937 -2.31769 0
M  V30 4421 H 411.966 5.34024 -0.26878 0
M  V30 4422 H 412.309 4.06917 0.878855 0
M  V30 4423 H 412.842 3.89447 -0.810914 0
M  V30 4424 H 409.581 5.73268 -3.17875 0
M  V30 4425 H 409.101 5.81554 -1.46817 0
M  V30 4426 H 410.78 6.17083 -1.94468 0
M  V30 4427 N 410.912 0.523116 1.48665 0
M  V30 4428 C 412.159 -0.0134763 2.02496 0
M  V30 4429 C 412.487 -1.3493 1.40086 0
M  V30 4430 O 411.742 -1.88286 0.533567 0
M  V30 4431 C 412.041 -0.191671 3.56886 0
M  V30 4432 C 411.707 1.06893 4.38046 0
M  V30 4433 C 410.369 1.41443 4.59943 0
M  V30 4434 C 412.721 1.90584 4.85106 0
M  V30 4435 C 410.049 2.59594 5.26144 0
M  V30 4436 C 412.401 3.07907 5.52609 0
M  V30 4437 C 411.065 3.42811 5.72745 0
M  V30 4438 H 410.335 -0.00493133 0.740984 0
M  V30 4439 H 412.982 0.687751 1.78724 0
M  V30 4440 H 411.287 -0.97561 3.79459 0
M  V30 4441 H 412.984 -0.621659 3.96152 0
M  V30 4442 H 409.574 0.789848 4.21259 0
M  V30 4443 H 413.758 1.65203 4.67997 0
M  V30 4444 H 409.014 2.86847 5.39934 0
M  V30 4445 H 413.188 3.73066 5.88043 0
M  V30 4446 H 410.815 4.34462 6.23816 0
M  V30 4447 N 412.39 -1.55475 0.257931 0
M  V30 4448 C 413.806 -1.59307 -0.0966563 0
M  V30 4449 C 414.006 -1.27514 -1.5602 0
M  V30 4450 O 413.062 -1.02774 -2.30637 0
M  V30 4451 C 414.375 -2.99552 0.262481 0
M  V30 4452 C 415.923 -3.1231 0.207683 0
M  V30 4453 C 416.398 -4.54793 0.541012 0
M  V30 4454 N 417.889 -4.6058 0.491921 0
M  V30 4455 C 418.624 -5.68825 0.722857 0
M  V30 4456 N 418.12 -6.85287 1.0175 0
M  V30 4457 N 419.913 -5.58296 0.652815 0
M  V30 4458 H 412.064 -1.74409 1.21224 0
M  V30 4459 H 414.327 -0.812424 0.48854 0
M  V30 4460 H 414.033 -3.27593 1.27967 0
M  V30 4461 H 413.907 -3.75019 -0.40508 0
M  V30 4462 H 416.294 -2.84044 -0.800195 0
M  V30 4463 H 416.375 -2.39095 0.909255 0
M  V30 4464 H 416.019 -4.83783 1.5465 0
M  V30 4465 H 415.949 -5.26285 -0.18216 0
M  V30 4466 H 418.44 -3.7691 0.273366 0
M  V30 4467 H 418.753 -7.63725 1.18084 0
M  V30 4468 H 417.098 -6.86945 1.05509 0
M  V30 4469 H 420.289 -4.66189 0.422592 0
M  V30 4470 H 420.462 -6.42582 0.836182 0
M  V30 4471 N 413.868 0.0150385 -1.57593 0
M  V30 4472 C 414.815 1.01126 -2.07466 0
M  V30 4473 C 415.785 1.35064 -0.966794 0
M  V30 4474 O 416.97 1.4516 -1.23827 0
M  V30 4475 C 414.11 2.30276 -2.57035 0
M  V30 4476 C 413.223 2.02373 -3.81666 0
M  V30 4477 C 412.358 3.25496 -4.19793 0
M  V30 4478 C 411.397 2.93211 -5.37303 0
M  V30 4479 N 410.534 4.08826 -5.70794 0
M  V30 4480 H 415.374 0.57901 -2.92321 0
M  V30 4481 H 412.911 0.27426 -1.44521 0
M  V30 4482 H 414.869 3.05757 -2.83846 0
M  V30 4483 H 413.499 2.71197 -1.75077 0
M  V30 4484 H 412.551 1.17327 -3.61854 0
M  V30 4485 H 413.863 1.74567 -4.67256 0
M  V30 4486 H 413.017 4.09333 -4.47807 0
M  V30 4487 H 411.756 3.56428 -3.32882 0
M  V30 4488 H 410.761 2.07777 -5.09027 0
M  V30 4489 H 411.986 2.63542 -6.25877 0
M  V30 4490 H 409.932 4.39682 -4.86842 0
M  V30 4491 H 409.849 3.84491 -6.50924 0
M  V30 4492 H 411.117 4.93496 -6.03392 0
M  V30 4493 N 415.346 1.54954 0.287554 0
M  V30 4494 C 416.276 1.89839 1.35954 0
M  V30 4495 C 417.257 0.758675 1.52244 0
M  V30 4496 O 418.442 1.01557 1.65529 0
M  V30 4497 C 415.572 2.15753 2.72154 0
M  V30 4498 C 414.526 3.3159 2.70614 0
M  V30 4499 C 413.852 3.42952 4.10229 0
M  V30 4500 C 415.152 4.68359 2.31165 0
M  V30 4501 H 416.846 2.79625 1.07007 0
M  V30 4502 H 414.392 1.3454 0.513316 0
M  V30 4503 H 416.345 2.38743 3.47246 0
M  V30 4504 H 415.069 1.22752 3.02654 0
M  V30 4505 H 413.728 3.08545 1.97979 0
M  V30 4506 H 413.376 2.47443 4.37928 0
M  V30 4507 H 413.076 4.20826 4.10097 0
M  V30 4508 H 414.6 3.68218 4.87081 0
M  V30 4509 H 416.014 4.9099 2.95976 0
M  V30 4510 H 414.411 5.49044 2.42221 0
M  V30 4511 H 415.481 4.68165 1.26291 0
M  V30 4512 N 416.824 -0.551391 1.4764 0
M  V30 4513 C 418.072 -1.30572 1.54258 0
M  V30 4514 C 418.393 -1.93877 0.208963 0
M  V30 4515 O 417.663 -1.80234 -0.767619 0
M  V30 4516 H 416.243 -0.484894 0.568231 0
M  V30 4517 H 418.905 -0.643402 1.83974 0
M  V30 4518 H 418.001 -2.09621 2.31226 0
M  V30 4519 N 418.302 -1.35869 -0.798587 0
M  V30 4520 C 419.232 -1.32118 -1.92528 0
M  V30 4521 C 420.213 -0.194209 -1.68988 0
M  V30 4522 O 421.398 -0.390426 -1.90235 0
M  V30 4523 C 418.528 -1.10047 -3.29404 0
M  V30 4524 C 417.482 -2.19471 -3.67446 0
M  V30 4525 C 416.808 -1.82555 -5.02571 0
M  V30 4526 C 418.108 -3.61495 -3.76987 0
M  V30 4527 H 419.802 -2.26394 -1.95924 0
M  V30 4528 H 417.348 -1.08981 -0.94123 0
M  V30 4529 H 419.301 -1.06061 -4.07835 0
M  V30 4530 H 418.025 -0.122195 -3.26371 0
M  V30 4531 H 416.684 -2.22568 -2.91306 0
M  V30 4532 H 416.332 -0.833249 -4.9605 0
M  V30 4533 H 416.032 -2.5581 -5.28995 0
M  V30 4534 H 417.556 -1.80108 -5.83432 0
M  V30 4535 H 418.97 -3.60676 -4.4563 0
M  V30 4536 H 417.367 -4.33577 -4.14887 0
M  V30 4537 H 418.437 -3.97065 -2.78329 0
M  V30 4538 N 419.78 1.02168 -1.19998 0
M  V30 4539 C 421.01 1.79036 -1.031 0
M  V30 4540 C 421.418 1.84409 0.423078 0
M  V30 4541 O 420.761 1.29228 1.30559 0
M  V30 4542 C 420.823 3.25185 -1.53281 0
M  V30 4543 C 420.487 3.43431 -3.01503 0
M  V30 4544 C 421.484 3.33063 -3.99206 0
M  V30 4545 C 419.169 3.69412 -3.40353 0
M  V30 4546 C 421.163 3.48413 -5.33748 0
M  V30 4547 C 418.85 3.84406 -4.75053 0
M  V30 4548 C 419.848 3.7391 -5.71559 0
M  V30 4549 O 419.536 3.88452 -7.03818 0
M  V30 4550 H 419.268 0.570043 -0.363355 0
M  V30 4551 H 421.822 1.29524 -1.59414 0
M  V30 4552 H 420.052 3.75756 -0.913483 0
M  V30 4553 H 421.741 3.83671 -1.32481 0
M  V30 4554 H 422.507 3.12934 -3.70537 0
M  V30 4555 H 418.386 3.76671 -2.65782 0
M  V30 4556 H 421.93 3.40137 -6.09059 0
M  V30 4557 H 417.827 4.04035 -5.03415 0
M  V30 4558 H 418.595 4.055 -7.10993 0
M  V30 4559 N 421.258 1.00505 1.21394 0
M  V30 4560 C 422.191 0.51032 2.22421 0
M  V30 4561 C 423.169 -0.436 1.56645 0
M  V30 4562 O 424.353 -0.358709 1.85055 0
M  V30 4563 C 421.48 -0.258733 3.3771 0
M  V30 4564 C 420.526 0.635395 4.2174 0
M  V30 4565 S 421.359 2.09783 4.92698 0
M  V30 4566 C 422.515 1.33862 6.11418 0
M  V30 4567 H 422.748 1.36637 2.64041 0
M  V30 4568 H 420.281 0.812991 1.31262 0
M  V30 4569 H 422.239 -0.696372 4.0455 0
M  V30 4570 H 420.9 -1.0902 2.94573 0
M  V30 4571 H 420.093 0.0430189 5.03982 0
M  V30 4572 H 419.695 1.01031 3.60095 0
M  V30 4573 H 421.987 0.612541 6.74725 0
M  V30 4574 H 422.93 2.13675 6.75092 0
M  V30 4575 H 423.338 0.846568 5.58116 0
M  V30 4576 N 422.737 -1.36956 0.779787 0
M  V30 4577 C 423.7 -2.2851 0.177662 0
M  V30 4578 C 424.7 -1.48393 -0.619377 0
M  V30 4579 O 425.89 -1.68505 -0.441785 0
M  V30 4580 C 423.022 -3.32428 -0.755279 0
M  V30 4581 H 424.215 -2.83269 0.984823 0
M  V30 4582 H 421.768 -1.46358 0.548544 0
M  V30 4583 H 422.503 -2.82808 -1.58714 0
M  V30 4584 H 422.288 -3.91659 -0.185817 0
M  V30 4585 H 423.778 -4.00824 -1.17174 0
M  V30 4586 N 424.215 -0.530993 -1.48385 0
M  V30 4587 C 425.443 -0.00134122 -2.069 0
M  V30 4588 C 425.858 1.2805 -1.3874 0
M  V30 4589 O 425.215 1.76204 -0.475244 0
M  V30 4590 C 425.266 0.225256 -3.60798 0
M  V30 4591 O 424.987 -1.0058 -4.26398 0
M  V30 4592 C 426.488 0.795172 -4.3611 0
M  V30 4593 H 423.708 -0.0339704 -0.67014 0
M  V30 4594 H 426.252 -0.736926 -1.90761 0
M  V30 4595 H 424.407 0.910891 -3.76539 0
M  V30 4596 H 424.821 -0.787165 -5.1856 0
M  V30 4597 H 426.295 0.903143 -5.44562 0
M  V30 4598 H 426.772 1.80031 -4.00606 0
M  V30 4599 H 427.378 0.146069 -4.25049 0
M  V30 4600 N 425.693 1.55336 -0.266172 0
M  V30 4601 C 426.939 1.99692 0.353681 0
M  V30 4602 C 427.272 1.1543 1.56172 0
M  V30 4603 O 426.547 0.222218 1.93226 0
M  V30 4604 C 426.83 3.52316 0.74466 0
M  V30 4605 C 426.683 4.47337 -0.470101 0
M  V30 4606 C 428.002 4.10588 1.58447 0
M  V30 4607 H 425.121 0.725961 0.12708 0
M  V30 4608 H 427.763 1.86336 -0.371333 0
M  V30 4609 H 425.913 3.63829 1.36239 0
M  V30 4610 H 427.585 4.4778 -1.10864 0
M  V30 4611 H 425.828 4.19364 -1.10978 0
M  V30 4612 H 426.499 5.51788 -0.15291 0
M  V30 4613 H 428.975 4.02297 1.06286 0
M  V30 4614 H 427.851 5.17607 1.82686 0
M  V30 4615 H 428.112 3.60253 2.56262 0
M  V30 4616 N 427.171 -0.0066808 1.57599 0
M  V30 4617 C 428.101 -0.999296 2.11036 0
M  V30 4618 C 429.082 -1.36278 1.01795 0
M  V30 4619 O 430.267 -1.4477 1.29442 0
M  V30 4620 C 427.397 -2.29328 2.60818 0
M  V30 4621 C 426.351 -2.07159 3.74525 0
M  V30 4622 C 425.677 -3.42512 4.10596 0
M  V30 4623 C 426.977 -1.43959 5.02069 0
M  V30 4624 H 428.671 -0.554382 2.94223 0
M  V30 4625 H 426.217 -0.265221 1.41536 0
M  V30 4626 H 428.17 -2.99117 2.96828 0
M  V30 4627 H 426.894 -2.7592 1.74745 0
M  V30 4628 H 425.553 -1.39797 3.38899 0
M  V30 4629 H 425.201 -3.86795 3.21556 0
M  V30 4630 H 424.901 -3.28498 4.87199 0
M  V30 4631 H 426.425 -4.13628 4.4916 0
M  V30 4632 H 427.839 -2.03696 5.35893 0
M  V30 4633 H 426.236 -1.40452 5.83432 0
M  V30 4634 H 427.306 -0.407992 4.83181 0
M  V30 4635 N 428.649 -1.55105 -0.279332 0
M  V30 4636 C 429.877 -1.7943 -1.03017 0
M  V30 4637 C 430.292 -0.564456 -1.80165 0
M  V30 4638 O 429.649 0.466326 -1.76442 0
M  V30 4639 C 429.7 -3.0155 -1.99374 0
M  V30 4640 O 429.421 -4.19784 -1.25352 0
M  V30 4641 C 430.922 -3.3843 -2.86321 0
M  V30 4642 H 428.142 -0.597882 -0.304594 0
M  V30 4643 H 430.686 -2.02105 -0.312035 0
M  V30 4644 H 428.841 -2.81019 -2.66659 0
M  V30 4645 H 429.255 -4.88781 -1.90246 0
M  V30 4646 H 430.729 -4.27066 -3.49741 0
M  V30 4647 H 431.206 -2.57549 -3.5576 0
M  V30 4648 H 431.812 -3.61197 -2.24536 0
M  V30 4649 N 430.127 0.543554 -1.4793 0
M  V30 4650 C 431.375 1.29752 -1.54948 0
M  V30 4651 C 431.696 1.93764 -0.219242 0
M  V30 4652 O 430.966 1.80639 0.75805 0
M  V30 4653 H 429.546 0.481874 -0.570795 0
M  V30 4654 H 432.208 0.633636 -1.84312 0
M  V30 4655 H 431.304 2.08392 -2.32334 0
M  V30 4656 N 431.605 1.3629 0.791371 0
M  V30 4657 C 432.535 1.33137 1.91825 0
M  V30 4658 C 433.516 0.203168 1.68882 0
M  V30 4659 O 434.701 0.400509 1.90025 0
M  V30 4660 C 431.831 1.11793 3.28816 0
M  V30 4661 C 430.785 2.21417 3.66277 0
M  V30 4662 C 430.111 1.85218 5.01596 0
M  V30 4663 C 431.411 3.63489 3.75064 0
M  V30 4664 H 433.105 2.2743 1.9472 0
M  V30 4665 H 430.651 1.09479 0.935437 0
M  V30 4666 H 432.604 1.08222 4.07266 0
M  V30 4667 H 431.328 0.139501 3.26302 0
M  V30 4668 H 429.987 2.2411 2.90121 0
M  V30 4669 H 429.635 0.859544 4.95602 0
M  V30 4670 H 429.335 2.58611 5.27631 0
M  V30 4671 H 430.859 1.832 5.82469 0
M  V30 4672 H 432.273 3.63034 4.43711 0
M  V30 4673 H 430.67 4.35771 4.12582 0
M  V30 4674 H 431.74 3.98536 2.76219 0
M  V30 4675 N 433.083 -1.0153 1.20538 0
M  V30 4676 C 434.046 -2.0826 0.957098 0
M  V30 4677 C 435.046 -1.60657 -0.0678655 0
M  V30 4678 O 436.236 -1.73385 0.168332 0
M  V30 4679 C 433.368 -3.38033 0.441188 0
M  V30 4680 H 434.561 -2.31719 1.90384 0
M  V30 4681 H 432.114 -1.1835 1.02093 0
M  V30 4682 H 432.849 -3.20249 -0.510961 0
M  V30 4683 H 432.634 -3.73911 1.18038 0
M  V30 4684 H 434.124 -4.16613 0.287009 0
M  V30 4685 N 434.561 -1.01147 -1.20859 0
M  V30 4686 C 435.81 -0.693214 -1.89413 0
M  V30 4687 C 436.123 0.779969 -1.79376 0
M  V30 4688 O 437.329 1.21057 -2.43017 0
M  V30 4689 C 435.785 -1.18949 -3.39675 0
M  V30 4690 C 435.393 -2.68921 -3.58309 0
M  V30 4691 C 437.137 -0.94642 -4.13815 0
M  V30 4692 C 435.044 -3.12056 -5.0237 0
M  V30 4693 H 433.974 -0.255595 -0.709357 0
M  V30 4694 H 436.625 -1.22349 -1.36759 0
M  V30 4695 H 435.007 -0.587228 -3.91622 0
M  V30 4696 H 436.181 -3.34652 -3.16772 0
M  V30 4697 H 434.496 -2.91314 -2.97532 0
M  V30 4698 H 437.093 -1.24417 -5.20023 0
M  V30 4699 H 437.436 0.117219 -4.16135 0
M  V30 4700 H 437.969 -1.5118 -3.67953 0
M  V30 4701 H 434.708 -4.17674 -5.05202 0
M  V30 4702 H 434.228 -2.51041 -5.44737 0
M  V30 4703 H 435.907 -3.04403 -5.70918 0
M  V30 4704 N 436.039 1.36541 -0.78704 0
M  V30 4705 C 436.989 2.27459 -0.156957 0
M  V30 4706 C 437.973 1.46843 0.657709 0
M  V30 4707 O 439.165 1.69245 0.518173 0
M  V30 4708 C 436.294 3.35893 0.709278 0
M  V30 4709 C 435.38 4.23947 -0.114049 0
M  V30 4710 N 435.771 4.92145 -1.16736 0
M  V30 4711 C 434.069 4.4587 0.107497 0
M  V30 4712 C 434.77 5.57261 -1.66837 0
M  V30 4713 N 433.746 5.3473 -0.977992 0
M  V30 4714 H 437.548 2.77669 -0.963185 0
M  V30 4715 H 435.062 1.49839 -0.62627 0
M  V30 4716 H 437.059 3.99953 1.17656 0
M  V30 4717 H 435.719 2.87238 1.51408 0
M  V30 4718 H 436.73 4.94169 -1.54976 0
M  V30 4719 H 433.407 4.08056 0.882994 0
M  V30 4720 H 434.797 6.21728 -2.54762 0
M  V30 4721 N 437.518 0.538854 1.48102 0
M  V30 4722 C 438.743 0.0102694 2.07397 0
M  V30 4723 C 439.168 -1.26562 1.39153 0
M  V30 4724 O 438.526 -1.75357 0.460387 0
M  V30 4725 C 438.574 -0.187602 3.60112 0
M  V30 4726 O 437.678 -1.25432 3.92862 0
M  V30 4727 H 437.019 0.0430975 0.6626 0
M  V30 4728 H 439.549 0.749301 1.90385 0
M  V30 4729 H 439.559 -0.407517 4.0596 0
M  V30 4730 H 438.234 0.744386 4.09184 0
M  V30 4731 H 436.811 -1.01636 3.58782 0
M  V30 4732 N 438.996 -1.55193 0.274407 0
M  V30 4733 C 440.245 -1.98758 -0.343213 0
M  V30 4734 C 440.558 -1.16624 -1.5703 0
M  V30 4735 O 441.764 -1.5033 -2.26082 0
M  V30 4736 C 440.22 -3.53759 -0.661996 0
M  V30 4737 C 439.828 -4.4467 0.54524 0
M  V30 4738 C 441.572 -4.05916 -1.24228 0
M  V30 4739 C 439.479 -5.91058 0.201084 0
M  V30 4740 H 438.409 -0.742353 -0.132014 0
M  V30 4741 H 441.06 -1.79545 0.378948 0
M  V30 4742 H 439.442 -3.68772 -1.44304 0
M  V30 4743 H 440.616 -4.41426 1.32212 0
M  V30 4744 H 438.931 -4.03143 1.04232 0
M  V30 4745 H 441.528 -5.12831 -1.51357 0
M  V30 4746 H 441.871 -3.54908 -2.17592 0
M  V30 4747 H 442.404 -3.9434 -0.523542 0
M  V30 4748 H 439.143 -6.46161 1.10258 0
M  V30 4749 H 438.663 -5.97373 -0.539045 0
M  V30 4750 H 440.342 -6.46669 -0.206954 0
M  V30 4751 N 440.474 -0.00167713 -1.576 0
M  V30 4752 C 441.72 0.683832 -1.90923 0
M  V30 4753 C 442.053 1.7333 -0.875799 0
M  V30 4754 O 441.328 1.94215 0.10525 0
M  V30 4755 C 441.611 1.32543 -3.3482 0
M  V30 4756 C 441.464 0.287387 -4.48881 0
M  V30 4757 C 442.783 2.25114 -3.78169 0
M  V30 4758 H 439.902 0.247125 -0.694333 0
M  V30 4759 H 442.544 -0.0533149 -1.89925 0
M  V30 4760 H 440.694 1.95372 -3.35801 0
M  V30 4761 H 442.366 -0.341346 -4.60035 0
M  V30 4762 H 440.609 -0.39017 -4.32042 0
M  V30 4763 H 441.28 0.775393 -5.46527 0
M  V30 4764 H 443.756 1.723 -3.7875 0
M  V30 4765 H 442.632 2.66971 -4.79602 0
M  V30 4766 H 442.893 3.13092 -3.12131 0
M  V30 4767 N 441.952 1.55251 0.271103 0
M  V30 4768 C 443.201 1.75151 1.00025 0
M  V30 4769 C 443.514 0.561041 1.87381 0
M  V30 4770 O 444.72 0.642506 2.63788 0
M  V30 4771 C 443.176 3.09999 1.82835 0
M  V30 4772 C 442.784 4.3662 1.00336 0
M  V30 4773 C 444.528 3.39249 2.55168 0
M  V30 4774 C 442.435 5.62506 1.82595 0
M  V30 4775 H 441.365 0.652877 0.377183 0
M  V30 4776 H 444.016 1.81708 0.255843 0
M  V30 4777 H 442.398 2.97485 2.61378 0
M  V30 4778 H 443.572 4.60055 0.261959 0
M  V30 4779 H 441.887 4.14527 0.394486 0
M  V30 4780 H 444.484 4.3051 3.1712 0
M  V30 4781 H 444.827 2.59467 3.2555 0
M  V30 4782 H 445.36 3.52869 1.83653 0
M  V30 4783 H 442.099 6.45041 1.16631 0
M  V30 4784 H 441.619 5.43211 2.54327 0
M  V30 4785 H 443.298 6.00875 2.39913 0
M  V30 4786 N 443.43 -0.535701 1.48216 0
M  V30 4787 C 444.36 -1.65014 1.65204 0
M  V30 4788 C 445.341 -1.62554 0.501011 0
M  V30 4789 O 446.526 -1.7984 0.732886 0
M  V30 4790 C 443.656 -3.03616 1.68626 0
M  V30 4791 C 442.61 -3.20932 2.83172 0
M  V30 4792 C 441.936 -4.60537 2.71679 0
M  V30 4793 C 443.236 -3.04249 4.24535 0
M  V30 4794 H 444.93 -1.51053 2.58502 0
M  V30 4795 H 442.476 -0.725262 1.24402 0
M  V30 4796 H 444.429 -3.81446 1.79099 0
M  V30 4797 H 443.153 -3.18587 0.719026 0
M  V30 4798 H 441.812 -2.45517 2.72244 0
M  V30 4799 H 441.46 -4.72336 1.72937 0
M  V30 4800 H 441.16 -4.73069 3.48538 0
M  V30 4801 H 442.684 -5.40475 2.84112 0
M  V30 4802 H 444.098 -3.71877 4.36326 0
M  V30 4803 H 442.495 -3.28278 5.02348 0
M  V30 4804 H 443.565 -2.00739 4.41397 0
M  V30 4805 N 444.908 -1.36708 -0.784132 0
M  V30 4806 C 446.319 -1.27947 -1.35965 0
M  V30 4807 C 446.67 0.0784013 -1.96043 0
M  V30 4808 O 445.795 0.979989 -1.92938 0
M  V30 4809 C 446.39 -2.31689 -2.47195 0
M  V30 4810 C 444.949 -2.26601 -3.00548 0
M  V30 4811 C 444.096 -2.16184 -1.73666 0
M  V30 4812 H 447.047 -1.4751 -0.585358 0
M  V30 4813 H 447.068 -1.95638 -3.26352 0
M  V30 4814 H 446.58 -3.30506 -2.03439 0
M  V30 4815 H 444.681 -1.31268 -3.48711 0
M  V30 4816 H 444.794 -3.19508 -3.57004 0
M  V30 4817 H 443.158 -1.62524 -1.96107 0
M  V30 4818 H 443.941 -3.16896 -1.32031 0
M  V30 4819 N 446.386 1.0089 -1.21074 0
M  V30 4820 C 447.316 2.1145 -0.990523 0
M  V30 4821 C 448.297 1.69897 0.0831699 0
M  V30 4822 O 449.482 1.94052 -0.0758853 0
M  V30 4823 C 446.612 3.42914 -0.550177 0
M  V30 4824 C 445.566 3.98244 -1.56799 0
M  V30 4825 C 444.892 5.25568 -0.984013 0
M  V30 4826 C 446.192 4.30752 -2.95381 0
M  V30 4827 H 447.886 2.3013 -1.91521 0
M  V30 4828 H 445.432 1.10592 -0.92225 0
M  V30 4829 H 447.385 4.19653 -0.383305 0
M  V30 4830 H 446.109 3.24014 0.41015 0
M  V30 4831 H 444.768 3.23621 -1.72236 0
M  V30 4832 H 444.416 5.02998 -0.0155216 0
M  V30 4833 H 444.116 5.63551 -1.66384 0
M  V30 4834 H 445.64 6.04955 -0.828378 0
M  V30 4835 H 447.054 4.98349 -2.8341 0
M  V30 4836 H 445.451 4.79869 -3.60341 0
M  V30 4837 H 446.521 3.39192 -3.46521 0
M  V30 4838 N 447.864 1.01787 1.20321 0
M  V30 4839 C 449.113 0.703249 1.89043 0
M  V30 4840 C 449.426 -0.770445 1.79787 0
M  V30 4841 O 450.632 -1.19767 2.43656 0
M  V30 4842 C 449.088 1.20749 3.3904 0
M  V30 4843 C 448.696 2.70817 3.56878 0
M  V30 4844 C 450.44 0.968352 4.13308 0
M  V30 4845 C 448.347 3.14716 5.00708 0
M  V30 4846 H 447.277 0.259354 0.707991 0
M  V30 4847 H 449.928 1.23072 1.36108 0
M  V30 4848 H 448.31 0.607989 3.91305 0
M  V30 4849 H 449.484 3.36327 3.14993 0
M  V30 4850 H 447.799 2.92888 2.95983 0
M  V30 4851 H 450.396 1.27173 5.19356 0
M  V30 4852 H 450.739 -0.095149 4.16191 0
M  V30 4853 H 451.272 1.53129 3.67146 0
M  V30 4854 H 448.011 4.20347 5.02979 0
M  V30 4855 H 447.531 2.53927 5.43398 0
M  V30 4856 H 449.21 3.07426 5.69296 0
M  V30 4857 N 449.342 -1.36122 0.79427 0
M  V30 4858 C 450.572 -2.03067 0.380437 0
M  V30 4859 C 450.98 -1.60018 -1.00949 0
M  V30 4860 O 450.323 -0.787425 -1.65968 0
M  V30 4861 C 450.385 -3.57587 0.37034 0
M  V30 4862 C 450.049 -4.23855 1.70867 0
M  V30 4863 C 451.046 -4.46404 2.66496 0
M  V30 4864 C 448.731 -4.61229 1.9893 0
M  V30 4865 C 450.725 -5.05412 3.88378 0
M  V30 4866 C 448.412 -5.19953 3.21079 0
M  V30 4867 C 449.41 -5.41985 4.15621 0
M  V30 4868 O 449.098 -5.99475 5.35616 0
M  V30 4869 H 448.83 -0.658168 0.154243 0
M  V30 4870 H 451.384 -1.7498 1.0757 0
M  V30 4871 H 449.614 -3.84814 -0.381444 0
M  V30 4872 H 451.303 -4.05895 -0.0194894 0
M  V30 4873 H 452.069 -4.17921 2.46103 0
M  V30 4874 H 447.948 -4.43402 1.26158 0
M  V30 4875 H 451.492 -5.22524 4.62185 0
M  V30 4876 H 447.389 -5.47862 3.41347 0
M  V30 4877 H 448.157 -6.17937 5.36745 0
M  V30 4878 N 450.82 -0.546701 -1.47814 0
M  V30 4879 C 452.067 -0.0187407 -2.02491 0
M  V30 4880 C 452.395 1.32685 -1.42215 0
M  V30 4881 O 451.65 1.87413 -0.563454 0
M  V30 4882 C 451.949 0.134869 -3.57145 0
M  V30 4883 C 451.615 -1.13849 -4.3629 0
M  V30 4884 C 450.277 -1.48743 -4.57634 0
M  V30 4885 C 452.629 -1.98277 -4.82012 0
M  V30 4886 C 449.957 -2.67932 -5.21948 0
M  V30 4887 C 452.309 -3.16659 -5.4764 0
M  V30 4888 C 450.973 -3.51879 -5.67219 0
M  V30 4889 H 450.243 -0.0068577 -0.740968 0
M  V30 4890 H 452.89 -0.716097 -1.77607 0
M  V30 4891 H 451.195 0.915118 -3.80963 0
M  V30 4892 H 452.892 0.558556 -3.97091 0
M  V30 4893 H 449.482 -0.856767 -4.19949 0
M  V30 4894 H 453.666 -1.72628 -4.6531 0
M  V30 4895 H 448.922 -2.95401 -5.35302 0
M  V30 4896 H 453.096 -3.82374 -5.82033 0
M  V30 4897 H 450.723 -4.44331 -6.16825 0
M  V30 4898 N 452.299 1.55045 -0.282633 0
M  V30 4899 C 453.548 1.98938 0.332667 0
M  V30 4900 C 453.861 1.17455 1.56409 0
M  V30 4901 O 455.067 1.51527 2.25282 0
M  V30 4902 C 453.523 3.54105 0.643226 0
M  V30 4903 C 453.131 4.44374 -0.568814 0
M  V30 4904 C 454.875 4.06569 1.22074 0
M  V30 4905 C 452.782 5.90943 -0.232426 0
M  V30 4906 H 451.712 0.743043 0.128075 0
M  V30 4907 H 454.363 1.79341 -0.388464 0
M  V30 4908 H 452.745 3.69532 1.42346 0
M  V30 4909 H 453.919 4.40718 -1.34551 0
M  V30 4910 H 452.234 4.02585 -1.06369 0
M  V30 4911 H 454.831 5.13626 1.48635 0
M  V30 4912 H 455.174 3.56057 2.15707 0
M  V30 4913 H 455.707 3.94612 0.502621 0
M  V30 4914 H 452.446 6.45567 -1.13683 0
M  V30 4915 H 451.966 5.9765 0.507357 0
M  V30 4916 H 453.645 6.4677 0.172657 0
M  V30 4917 N 453.777 0.010035 1.57597 0
M  V30 4918 C 455.023 -0.673697 1.91283 0
M  V30 4919 C 455.356 -1.72863 0.884979 0
M  V30 4920 O 454.631 -1.94268 -0.0949487 0
M  V30 4921 C 454.914 -1.30766 3.35518 0
M  V30 4922 C 454.767 -0.263578 4.49027 0
M  V30 4923 C 456.086 -2.23105 3.79358 0
M  V30 4924 H 453.205 -0.243439 0.695634 0
M  V30 4925 H 455.847 0.0633864 1.89894 0
M  V30 4926 H 453.997 -1.93588 3.36832 0
M  V30 4927 H 455.669 0.365738 4.59848 0
M  V30 4928 H 453.912 0.413077 4.31829 0
M  V30 4929 H 454.583 -0.746398 5.4693 0
M  V30 4930 H 457.059 -1.70289 3.79659 0
M  V30 4931 H 455.935 -2.64424 4.81011 0
M  V30 4932 H 456.196 -3.11433 3.13787 0
M  V30 4933 N 455.255 -1.55392 -0.262866 0
M  V30 4934 C 456.501 -1.76737 -0.99458 0
M  V30 4935 C 456.834 -0.572453 -1.85571 0
M  V30 4936 O 456.109 0.429732 -1.89693 0
M  V30 4937 C 456.392 -3.07824 -1.8686 0
M  V30 4938 C 456.245 -4.3769 -1.03672 0
M  V30 4939 C 457.564 -3.35021 -2.85393 0
M  V30 4940 H 454.683 -0.643005 -0.360157 0
M  V30 4941 H 457.325 -1.88126 -0.266216 0
M  V30 4942 H 455.475 -2.98245 -2.48962 0
M  V30 4943 H 457.147 -4.59238 -0.43563 0
M  V30 4944 H 455.39 -4.32461 -0.340513 0
M  V30 4945 H 456.061 -5.25759 -1.6817 0
M  V30 4946 H 458.537 -3.44458 -2.33426 0
M  V30 4947 H 457.413 -4.27989 -3.43681 0
M  V30 4948 H 457.674 -2.55153 -3.61039 0
M  V30 4949 N 456.733 0.527833 -1.48498 0
M  V30 4950 C 458.149 0.856571 -1.34666 0
M  V30 4951 C 458.349 1.98271 -0.35931 0
M  V30 4952 O 457.405 2.51551 0.218703 0
M  V30 4953 C 458.718 1.22207 -2.74747 0
M  V30 4954 C 460.266 1.33183 -2.83251 0
M  V30 4955 C 460.741 1.73075 -4.24039 0
M  V30 4956 N 462.232 1.80174 -4.26722 0
M  V30 4957 C 462.967 2.1243 -5.32598 0
M  V30 4958 N 462.463 2.43096 -6.4875 0
M  V30 4959 N 464.256 2.13454 -5.19994 0
M  V30 4960 H 456.407 -0.215174 -2.11307 0
M  V30 4961 H 458.67 -0.0336281 -0.947403 0
M  V30 4962 H 458.376 0.468195 -3.4857 0
M  V30 4963 H 458.25 2.17173 -3.08409 0
M  V30 4964 H 460.637 2.07647 -2.09683 0
M  V30 4965 H 460.718 0.363333 -2.53206 0
M  V30 4966 H 460.362 0.991712 -4.98124 0
M  V30 4967 H 460.292 2.70979 -4.51529 0
M  V30 4968 H 462.783 1.58744 -3.42942 0
M  V30 4969 H 463.096 2.6682 -7.25277 0
M  V30 4970 H 461.441 2.40611 -6.52021 0
M  V30 4971 H 464.632 1.88956 -4.28268 0
M  V30 4972 H 464.805 2.38261 -6.02608 0
M  V30 4973 N 458.211 1.37122 0.776871 0
M  V30 4974 C 459.158 1.3247 1.88998 0
M  V30 4975 C 460.128 0.191143 1.64997 0
M  V30 4976 O 461.313 0.379683 1.86984 0
M  V30 4977 C 458.453 1.13241 3.25992 0
M  V30 4978 C 457.566 2.35782 3.61982 0
M  V30 4979 C 456.701 2.09465 4.88158 0
M  V30 4980 C 455.74 3.279 5.16864 0
M  V30 4981 N 454.877 3.01167 6.34226 0
M  V30 4982 H 459.717 2.27642 1.9231 0
M  V30 4983 H 457.254 1.13125 0.94027 0
M  V30 4984 H 459.212 1.00115 4.0501 0
M  V30 4985 H 457.842 0.217186 3.22069 0
M  V30 4986 H 456.894 2.59666 2.77989 0
M  V30 4987 H 458.206 3.24125 3.79137 0
M  V30 4988 H 457.36 1.93341 5.75069 0
M  V30 4989 H 456.099 1.18452 4.73097 0
M  V30 4990 H 455.104 3.44569 4.2843 0
M  V30 4991 H 456.329 4.19757 5.33836 0
M  V30 4992 H 454.275 2.12779 6.20533 0
M  V30 4993 H 454.192 3.83052 6.51772 0
M  V30 4994 H 455.46 2.88649 7.24087 0
M  V30 4995 N 459.689 -1.00246 1.21608 0
M  V30 4996 C 460.637 -2.11193 0.97469 0
M  V30 4997 C 461.631 -1.69216 -0.0789303 0
M  V30 4998 O 462.837 -1.79853 0.0726806 0
M  V30 4999 H 459.212 -0.690455 0.297953 0
M  V30 5000 H 461.183 -2.2873 1.91638 0
M  V30 5001 C 459.932 -3.43182 0.558717 0
M  V30 5002 H 459.255 -3.75918 1.3611 0
M  V30 5003 H 460.695 -4.21823 0.429154 0
M  V30 5004 C 459.154 -3.28882 -0.730648 0
M  V30 5005 O 459.684 -3.59835 -1.78554 0
M  V30 5006 N 457.89 -2.8209 -0.698131 0
M  V30 5007 H 457.437 -2.57099 0.16061 0
M  V30 5008 H 457.395 -2.72903 -1.56113 0
M  V30 5009 N 461.167 -1.02423 -1.1978 0
M  V30 5010 C 462.578 -0.748389 -1.71044 0
M  V30 5011 C 462.929 0.732398 -1.82017 0
M  V30 5012 O 462.054 1.57116 -1.48807 0
M  V30 5013 C 462.649 -1.35187 -3.1066 0
M  V30 5014 C 461.208 -1.12472 -3.59203 0
M  V30 5015 C 460.355 -1.45283 -2.36195 0
M  V30 5016 H 463.306 -1.19275 -1.04686 0
M  V30 5017 H 463.327 -0.746408 -3.73107 0
M  V30 5018 H 462.839 -2.4296 -3.02642 0
M  V30 5019 H 460.94 -0.0649983 -3.72543 0
M  V30 5020 H 461.053 -1.81016 -4.43588 0
M  V30 5021 H 459.417 -0.872034 -2.39307 0
M  V30 5022 H 460.2 -2.54129 -2.30811 0
M  V30 5023 N 462.645 1.35699 -0.801477 0
M  V30 5024 C 463.892 1.98913 -0.379459 0
M  V30 5025 C 464.22 1.63592 1.05204 0
M  V30 5026 O 463.475 0.888563 1.74365 0
M  V30 5027 C 463.774 3.53828 -0.504041 0
M  V30 5028 C 463.44 4.09002 -1.8981 0
M  V30 5029 C 462.102 4.23783 -2.27951 0
M  V30 5030 C 464.454 4.38939 -2.81038 0
M  V30 5031 C 461.782 4.65816 -3.56696 0
M  V30 5032 C 464.134 4.82409 -4.09224 0
M  V30 5033 C 462.798 4.95395 -4.4737 0
M  V30 5034 H 462.068 0.727874 -0.138854 0
M  V30 5035 H 464.715 1.61994 -1.02128 0
M  V30 5036 H 463.02 3.91175 0.221242 0
M  V30 5037 H 464.717 4.00687 -0.158361 0
M  V30 5038 H 461.307 3.97946 -1.59176 0
M  V30 5039 H 465.491 4.27077 -2.52821 0
M  V30 5040 H 460.747 4.74059 -3.86106 0
M  V30 5041 H 464.921 5.04535 -4.80018 0
M  V30 5042 H 462.548 5.27724 -5.47185 0
M  V30 5043 N 464.123 0.554532 1.47522 0
M  V30 5044 C 465.539 0.214107 1.58157 0
M  V30 5045 C 465.739 -1.28331 1.55349 0
M  V30 5046 O 464.795 -2.06329 1.45549 0
M  V30 5047 C 466.108 0.838391 2.88776 0
M  V30 5048 C 467.656 0.809374 3.02354 0
M  V30 5049 C 468.131 1.41268 4.35669 0
M  V30 5050 N 469.622 1.37574 4.42298 0
M  V30 5051 C 470.357 1.8122 5.4401 0
M  V30 5052 N 469.853 2.3271 6.52547 0
M  V30 5053 N 471.646 1.72307 5.35039 0
M  V30 5054 H 463.797 1.52744 1.4759 0
M  V30 5055 H 466.06 0.636812 0.702264 0
M  V30 5056 H 465.766 1.89065 2.96559 0
M  V30 5057 H 465.64 0.329847 3.75755 0
M  V30 5058 H 468.027 -0.234187 2.94169 0
M  V30 5059 H 468.108 1.35565 2.16924 0
M  V30 5060 H 467.752 2.45529 4.4461 0
M  V30 5061 H 467.682 0.841871 5.19827 0
M  V30 5062 H 470.173 0.999081 3.64454 0
M  V30 5063 H 470.486 2.63944 7.26329 0
M  V30 5064 H 468.831 2.36719 6.53444 0
M  V30 5065 H 472.022 1.3186 4.49144 0
M  V30 5066 H 472.195 2.06641 6.14169 0
M  V30 5067 N 465.601 -1.54893 0.290851 0
M  V30 5068 C 466.848 -1.99933 -0.321391 0
M  V30 5069 C 467.176 -1.17927 -1.54672 0
M  V30 5070 O 466.431 -0.240902 -1.94212 0
M  V30 5071 C 466.73 -3.49815 -0.732397 0
M  V30 5072 C 466.396 -4.4921 0.390056 0
M  V30 5073 C 465.058 -4.76107 0.698223 0
M  V30 5074 C 467.41 -5.08453 1.14562 0
M  V30 5075 C 464.738 -5.59514 1.76526 0
M  V30 5076 C 467.09 -5.9302 2.2025 0
M  V30 5077 C 465.754 -6.18232 2.51684 0
M  V30 5078 H 465.024 -0.731608 -0.117605 0
M  V30 5079 H 467.671 -1.87107 0.407839 0
M  V30 5080 H 465.976 -3.60199 -1.54155 0
M  V30 5081 H 467.673 -3.82083 -1.21712 0
M  V30 5082 H 464.263 -4.28372 0.13976 0
M  V30 5083 H 468.447 -4.87683 0.920801 0
M  V30 5084 H 463.703 -5.77289 2.01364 0
M  V30 5085 H 467.877 -6.37955 2.7926 0
M  V30 5086 H 465.504 -6.82653 3.34499 0
M  V30 5087 N 467.08 -0.0183926 -1.57589 0
M  V30 5088 C 468.043 0.951986 -2.08494 0
M  V30 5089 C 469.043 1.26092 -0.997874 0
M  V30 5090 O 470.233 1.20304 -1.25987 0
M  V30 5091 C 467.365 2.27165 -2.54182 0
M  V30 5092 H 468.558 0.511307 -2.95509 0
M  V30 5093 H 466.111 0.229444 -1.54607 0
M  V30 5094 H 466.846 2.75884 -1.70465 0
M  V30 5095 H 466.631 2.06057 -3.33591 0
M  V30 5096 H 468.121 2.9674 -2.93828 0
M  V30 5097 N 468.558 1.5553 0.254621 0
M  V30 5098 C 469.491 1.84624 1.34124 0
M  V30 5099 C 470.469 0.700693 1.46728 0
M  V30 5100 O 471.653 0.94564 1.63064 0
M  V30 5101 C 468.78 2.02412 2.71564 0
M  V30 5102 C 467.826 3.25028 2.7615 0
M  V30 5103 S 468.659 4.81893 2.33538 0
M  V30 5104 C 469.815 5.02677 3.72917 0
M  V30 5105 H 470.048 2.76501 1.09245 0
M  V30 5106 H 467.581 1.47537 0.455211 0
M  V30 5107 H 469.539 2.13345 3.50705 0
M  V30 5108 H 468.2 1.11391 2.93685 0
M  V30 5109 H 467.393 3.34418 3.77069 0
M  V30 5110 H 466.995 3.12781 2.05046 0
M  V30 5111 H 469.287 4.89546 4.68349 0
M  V30 5112 H 470.23 6.0468 3.68467 0
M  V30 5113 H 470.638 4.30561 3.65072 0
M  V30 5114 N 470.036 -0.519951 1.48776 0
M  V30 5115 C 471.284 -1.2727 1.56993 0
M  V30 5116 C 471.605 -1.9339 0.25004 0
M  V30 5117 O 470.875 -1.81822 -0.729216 0
M  V30 5118 H 469.455 -0.472732 0.578389 0
M  V30 5119 H 472.117 -0.604234 1.85297 0
M  V30 5120 H 471.213 -2.04669 2.3562 0
M  V30 5121 N 471.514 -1.37532 -0.769588 0
M  V30 5122 C 472.447 -1.27839 -1.8903 0
M  V30 5123 C 473.425 -0.158504 -1.61826 0
M  V30 5124 O 474.609 -0.333086 -1.85534 0
M  V30 5125 C 471.736 -0.977072 -3.24301 0
M  V30 5126 C 470.782 -2.11414 -3.70414 0
M  V30 5127 S 471.615 -3.73409 -3.83831 0
M  V30 5128 C 472.771 -3.45432 -5.21946 0
M  V30 5129 H 473.004 -2.22694 -1.96963 0
M  V30 5130 H 470.537 -1.2318 -0.930914 0
M  V30 5131 H 472.495 -0.810049 -4.02428 0
M  V30 5132 H 471.156 -0.0459701 -3.14066 0
M  V30 5133 H 470.349 -1.85837 -4.68488 0
M  V30 5134 H 469.951 -2.24141 -2.99394 0
M  V30 5135 H 472.243 -3.00554 -6.07185 0
M  V30 5136 H 473.186 -4.42841 -5.52537 0
M  V30 5137 H 473.594 -2.80311 -4.89986 0
M  V30 5138 N 472.992 0.995999 -1.22138 0
M  V30 5139 C 473.955 2.06711 -0.990109 0
M  V30 5140 C 474.955 1.60744 0.0422978 0
M  V30 5141 O 476.145 1.73095 -0.195895 0
M  V30 5142 C 473.277 3.37288 -0.49491 0
M  V30 5143 H 474.47 2.28661 -1.94047 0
M  V30 5144 H 472.023 1.16711 -1.03963 0
M  V30 5145 H 472.758 3.21022 0.459948 0
M  V30 5146 H 472.543 3.71986 -1.23971 0
M  V30 5147 H 474.033 4.16103 -0.353253 0
M  V30 5148 N 474.47 1.03057 1.19235 0
M  V30 5149 C 475.402 0.570932 2.21975 0
M  V30 5150 C 476.415 -0.354088 1.58903 0
M  V30 5151 O 477.604 -0.150211 1.77867 0
M  V30 5152 C 474.704 -0.187152 3.38383 0
M  V30 5153 C 473.877 0.743231 4.31039 0
M  V30 5154 C 472.936 0.0302493 5.26191 0
M  V30 5155 O 471.962 0.657371 5.65391 0
M  V30 5156 N 473.164 -1.23991 5.67104 0
M  V30 5157 H 475.929 1.45456 2.62036 0
M  V30 5158 H 473.49 0.909807 1.33918 0
M  V30 5159 H 475.482 -0.673715 3.99053 0
M  V30 5160 H 474.052 -0.972205 2.97098 0
M  V30 5161 H 473.272 1.40985 3.68126 0
M  V30 5162 H 474.56 1.3755 4.89854 0
M  V30 5163 H 473.958 -1.77011 5.37293 0
M  V30 5164 H 472.515 -1.67093 6.30018 0
M  V30 5165 N 475.948 -1.35272 0.808662 0
M  V30 5166 C 476.911 -2.28082 0.226093 0
M  V30 5167 C 477.911 -1.49673 -0.587762 0
M  V30 5168 O 479.101 -1.69404 -0.405943 0
M  V30 5169 C 476.233 -3.33955 -0.684596 0
M  V30 5170 H 477.426 -2.81116 1.04469 0
M  V30 5171 H 474.979 -1.45162 0.579466 0
M  V30 5172 H 475.714 -2.86111 -1.5268 0
M  V30 5173 H 475.499 -3.91965 -0.102699 0
M  V30 5174 H 476.989 -4.03219 -1.08646 0
M  V30 5175 N 477.426 -0.562348 -1.47226 0
M  V30 5176 C 478.356 0.170627 -2.32876 0
M  V30 5177 C 479.337 0.903748 -1.44106 0
M  V30 5178 O 480.522 0.883206 -1.72954 0
M  V30 5179 C 477.652 1.19786 -3.25989 0
M  V30 5180 C 476.606 0.580875 -4.2404 0
M  V30 5181 C 475.932 1.71311 -5.06514 0
M  V30 5182 C 477.232 -0.468714 -5.20193 0
M  V30 5183 H 478.926 -0.544441 -2.94408 0
M  V30 5184 H 476.472 -0.263271 -1.41573 0
M  V30 5185 H 478.425 1.71884 -3.84752 0
M  V30 5186 H 477.149 1.94294 -2.62521 0
M  V30 5187 H 475.808 0.0811538 -3.6651 0
M  V30 5188 H 475.456 2.44736 -4.39447 0
M  V30 5189 H 475.156 1.30604 -5.72902 0
M  V30 5190 H 476.68 2.23725 -5.68137 0
M  V30 5191 H 478.094 -0.0336028 -5.7329 0
M  V30 5192 H 476.491 -0.794957 -5.94811 0
M  V30 5193 H 477.561 -1.36269 -4.65359 0
M  V30 5194 N 478.904 1.54736 -0.299062 0
M  V30 5195 C 479.834 2.26409 0.571085 0
M  V30 5196 C 480.815 1.2629 1.13951 0
M  V30 5197 O 482 1.55059 1.16921 0
M  V30 5198 C 479.13 3.00338 1.74396 0
M  V30 5199 C 478.084 4.07588 1.30599 0
M  V30 5200 C 477.41 4.69222 2.56387 0
M  V30 5201 C 478.71 5.20455 0.438645 0
M  V30 5202 H 480.404 2.99388 -0.0266991 0
M  V30 5203 H 477.95 1.43993 -0.0142812 0
M  V30 5204 H 479.903 3.49198 2.35878 0
M  V30 5205 H 478.627 2.24934 2.36796 0
M  V30 5206 H 477.286 3.59575 0.71424 0
M  V30 5207 H 476.934 3.9046 3.17097 0
M  V30 5208 H 476.634 5.41653 2.27784 0
M  V30 5209 H 478.158 5.20844 3.18675 0
M  V30 5210 H 479.572 5.65221 0.959085 0
M  V30 5211 H 477.969 5.99594 0.246466 0
M  V30 5212 H 479.039 4.8192 -0.536738 0
M  V30 5213 N 480.382 0.0267497 1.57577 0
M  V30 5214 C 481.61 -0.662661 1.96001 0
M  V30 5215 C 482.025 -1.65799 0.903117 0
M  V30 5216 O 481.382 -1.82135 -0.115317 0
M  V30 5217 C 481.433 -1.37112 3.34488 0
M  V30 5218 O 481.154 -0.415683 4.36123 0
M  V30 5219 C 482.655 -2.15257 3.8753 0
M  V30 5220 H 479.875 -0.18287 0.6456 0
M  V30 5221 H 482.419 0.0858116 2.0432 0
M  V30 5222 H 480.574 -2.07101 3.27395 0
M  V30 5223 H 480.988 -0.918496 5.16395 0
M  V30 5224 H 482.462 -2.60285 4.86781 0
M  V30 5225 H 482.939 -2.99063 3.21649 0
M  V30 5226 H 483.545 -1.50231 3.97883 0
M  V30 5227 N 481.861 -1.55662 -0.24637 0
M  V30 5228 C 482.824 -1.89558 -1.28842 0
M  V30 5229 C 483.824 -0.772082 -1.41052 0
M  V30 5230 O 485.014 -1.04007 -1.39743 0
M  V30 5231 C 482.146 -2.12449 -2.66605 0
M  V30 5232 H 483.339 -2.82735 -1.00004 0
M  V30 5233 H 480.892 -1.48562 -0.485684 0
M  V30 5234 H 481.627 -1.21742 -3.00582 0
M  V30 5235 H 481.412 -2.94273 -2.59125 0
M  V30 5236 H 482.902 -2.39854 -3.41847 0
M  V30 5237 N 483.339 0.512053 -1.4905 0
M  V30 5238 C 484.269 1.62365 -1.67809 0
M  V30 5239 C 485.25 1.61737 -0.526809 0
M  V30 5240 O 486.435 1.78651 -0.761404 0
M  V30 5241 C 483.565 3.00895 -1.73435 0
M  V30 5242 C 482.519 3.16387 -2.88242 0
M  V30 5243 C 481.845 4.56157 -2.78971 0
M  V30 5244 C 483.145 2.97457 -4.29321 0
M  V30 5245 H 484.839 1.46921 -2.60873 0
M  V30 5246 H 482.385 0.705379 -1.2554 0
M  V30 5247 H 484.338 3.78549 -1.85145 0
M  V30 5248 H 483.062 3.17403 -0.769619 0
M  V30 5249 H 481.721 2.41155 -2.76116 0
M  V30 5250 H 481.369 4.69525 -1.8043 0
M  V30 5251 H 481.069 4.67465 -3.5602 0
M  V30 5252 H 482.593 5.35886 -2.92675 0
M  V30 5253 H 484.007 3.64888 -4.42187 0
M  V30 5254 H 482.404 3.20245 -5.07507 0
M  V30 5255 H 483.474 1.93692 -4.44535 0
M  V30 5256 N 484.817 1.37938 0.762283 0
M  V30 5257 C 485.75 1.2884 1.88349 0
M  V30 5258 C 486.728 0.167084 1.61739 0
M  V30 5259 O 487.912 0.34292 1.85355 0
M  V30 5260 C 485.039 0.994257 3.23778 0
M  V30 5261 C 484.085 2.13376 3.69287 0
M  V30 5262 S 484.918 3.75439 3.81845 0
M  V30 5263 C 486.074 3.48195 5.20107 0
M  V30 5264 H 486.307 2.23736 1.95779 0
M  V30 5265 H 483.84 1.23672 0.924368 0
M  V30 5266 H 485.798 0.83138 4.01993 0
M  V30 5267 H 484.459 0.0626251 3.14038 0
M  V30 5268 H 483.652 1.88319 4.67495 0
M  V30 5269 H 483.254 2.25726 2.98201 0
M  V30 5270 H 485.546 3.0377 6.05583 0
M  V30 5271 H 486.489 4.45765 5.50181 0
M  V30 5272 H 486.897 2.82905 4.88493 0
M  V30 5273 N 486.295 -0.989507 1.22664 0
M  V30 5274 C 487.544 -1.72375 1.04737 0
M  V30 5275 C 487.857 -1.91096 -0.417316 0
M  V30 5276 O 489.063 -2.6188 -0.716334 0
M  V30 5277 C 487.519 -3.10161 1.82561 0
M  V30 5278 C 487.127 -2.99358 3.333 0
M  V30 5279 C 488.871 -3.87607 1.73093 0
M  V30 5280 C 486.778 -4.32319 4.03552 0
M  V30 5281 H 485.708 -0.646326 0.388302 0
M  V30 5282 H 488.359 -1.10437 1.46546 0
M  V30 5283 H 486.741 -3.728 1.33552 0
M  V30 5284 H 487.915 -2.45863 3.89728 0
M  V30 5285 H 486.23 -2.35392 3.43481 0
M  V30 5286 H 488.827 -4.86025 2.22899 0
M  V30 5287 H 489.17 -4.10509 0.691976 0
M  V30 5288 H 489.703 -3.31652 2.19663 0
M  V30 5289 H 486.442 -4.14616 5.07714 0
M  V30 5290 H 485.962 -4.85714 3.51911 0
M  V30 5291 H 487.641 -5.01051 4.09337 0
M  V30 5292 N 487.773 -1.03688 -1.18687 0
M  V30 5293 C 488.998 -0.757819 -1.93059 0
M  V30 5294 C 489.423 0.678353 -1.75442 0
M  V30 5295 O 488.781 1.46938 -1.06203 0
M  V30 5296 C 488.829 -1.12423 -3.42627 0
M  V30 5297 O 487.933 -0.247505 -4.11657 0
M  V30 5298 H 487.274 -0.279245 -0.602427 0
M  V30 5299 H 489.804 -1.3857 -1.5053 0
M  V30 5300 H 489.814 -1.08454 -3.93322 0
M  V30 5301 H 488.489 -2.17049 -3.54771 0
M  V30 5302 H 487.066 -0.34649 -3.71287 0
M  V30 5303 N 489.251 1.34841 -0.815825 0
M  V30 5304 C 490.476 2.03261 -0.41226 0
M  V30 5305 C 490.901 1.61055 0.971751 0
M  V30 5306 O 490.259 0.7917 1.63101 0
M  V30 5307 C 490.307 3.56914 -0.514289 0
M  V30 5308 O 489.411 4.09728 0.468675 0
M  V30 5309 H 488.752 0.641664 -0.170771 0
M  V30 5310 H 491.282 1.72241 -1.10427 0
M  V30 5311 H 491.292 4.06156 -0.387457 0
M  V30 5312 H 489.967 3.86982 -1.52375 0
M  V30 5313 H 488.544 3.71681 0.301316 0
M  V30 5314 N 490.729 0.570148 1.46925 0
M  V30 5315 C 491.954 0.0542592 2.07329 0
M  V30 5316 C 492.379 -1.23582 1.41806 0
M  V30 5317 O 491.737 -1.74341 0.497479 0
M  V30 5318 C 491.785 -0.111175 3.60429 0
M  V30 5319 O 490.889 -1.17071 3.95434 0
M  V30 5320 H 490.23 0.0571425 0.661537 0
M  V30 5321 H 492.76 0.789516 1.88753 0
M  V30 5322 H 492.77 -0.321315 4.06733 0
M  V30 5323 H 491.445 0.831012 4.07513 0
M  V30 5324 H 490.022 -0.940029 3.60857 0
M  V30 5325 N 492.207 -1.54576 0.307264 0
M  V30 5326 C 493.432 -2.05139 -0.305379 0
M  V30 5327 C 493.857 -1.18278 -1.46259 0
M  V30 5328 O 493.215 -0.188243 -1.8032 0
M  V30 5329 C 493.263 -3.53066 -0.733283 0
M  V30 5330 O 492.367 -3.69206 -1.83741 0
M  V30 5331 H 491.708 -0.661444 -0.0582105 0
M  V30 5332 H 494.238 -1.99569 0.450931 0
M  V30 5333 H 494.248 -3.95034 -1.02039 0
M  V30 5334 H 492.923 -4.15746 0.113198 0
M  V30 5335 H 491.5 -3.39143 -1.55037 0
M  V30 5336 N 493.685 -0.035106 -1.57561 0
M  V30 5337 C 494.648 0.929819 -2.09492 0
M  V30 5338 C 495.648 1.25026 -1.01119 0
M  V30 5339 O 496.838 1.18961 -1.27255 0
M  V30 5340 C 493.97 2.24457 -2.56577 0
M  V30 5341 H 495.163 0.479935 -2.96035 0
M  V30 5342 H 492.716 0.213033 -1.54841 0
M  V30 5343 H 493.451 2.74061 -1.73382 0
M  V30 5344 H 493.236 2.02508 -3.35757 0
M  V30 5345 H 494.726 2.93607 -2.96959 0
M  V30 5346 N 495.163 1.55791 0.238111 0
M  V30 5347 C 496.391 1.82098 0.982233 0
M  V30 5348 C 496.806 0.612025 1.78605 0
M  V30 5349 O 496.163 -0.419381 1.77616 0
M  V30 5350 C 496.214 3.0673 1.91309 0
M  V30 5351 O 495.935 4.2296 1.14179 0
M  V30 5352 C 497.436 3.45903 2.77248 0
M  V30 5353 H 494.656 0.605748 0.288635 0
M  V30 5354 H 497.2 2.02862 0.258341 0
M  V30 5355 H 495.355 2.87991 2.59114 0
M  V30 5356 H 495.769 4.93653 1.7722 0
M  V30 5357 H 497.243 4.36189 3.38295 0
M  V30 5358 H 497.72 2.66891 3.48806 0
M  V30 5359 H 498.326 3.67024 2.14881 0
M  V30 5360 N 496.642 -0.504142 1.49319 0
M  V30 5361 C 497.572 -1.61473 1.68667 0
M  V30 5362 C 498.553 -1.61455 0.535378 0
M  V30 5363 O 499.738 -1.78245 0.770868 0
M  V30 5364 C 496.868 -2.99971 1.75028 0
M  V30 5365 C 495.822 -3.14854 2.89916 0
M  V30 5366 C 495.148 -4.54671 2.81387 0
M  V30 5367 C 496.448 -2.95176 4.30893 0
M  V30 5368 H 498.142 -1.45535 2.61648 0
M  V30 5369 H 495.688 -0.698711 1.25913 0
M  V30 5370 H 497.641 -3.77562 1.8715 0
M  V30 5371 H 496.365 -3.1699 0.786441 0
M  V30 5372 H 495.024 -2.39687 2.77391 0
M  V30 5373 H 494.672 -4.68562 1.82917 0
M  V30 5374 H 494.372 -4.6557 3.58494 0
M  V30 5375 H 495.896 -5.34327 2.95512 0
M  V30 5376 H 497.31 -3.62538 4.44116 0
M  V30 5377 H 495.707 -3.17549 5.09198 0
M  V30 5378 H 496.777 -1.91332 4.45556 0
M  V30 5379 N 498.12 -1.38341 -0.754957 0
M  V30 5380 C 499.531 -1.30803 -1.3322 0
M  V30 5381 C 499.882 0.0368 -1.96165 0
M  V30 5382 O 499.007 0.938844 -1.94974 0
M  V30 5383 C 499.602 -2.3688 -2.42225 0
M  V30 5384 C 498.161 -2.32925 -2.95674 0
M  V30 5385 C 497.308 -2.19819 -1.69042 0
M  V30 5386 H 500.259 -1.48719 -0.553937 0
M  V30 5387 H 500.28 -2.02517 -3.22129 0
M  V30 5388 H 499.792 -3.34747 -1.96383 0
M  V30 5389 H 497.893 -1.38635 -3.45848 0
M  V30 5390 H 498.006 -3.27008 -3.50146 0
M  V30 5391 H 496.37 -1.66648 -1.92615 0
M  V30 5392 H 497.153 -3.19625 -1.25279 0
M  V30 5393 N 499.598 0.982988 -1.23187 0
M  V30 5394 C 500.844 1.72648 -1.06398 0
M  V30 5395 C 501.177 1.90066 0.398561 0
M  V30 5396 O 500.452 1.45105 1.29518 0
M  V30 5397 C 500.735 3.12627 -1.78707 0
M  V30 5398 C 500.588 3.02795 -3.32618 0
M  V30 5399 C 501.907 4.11997 -1.54747 0
M  V30 5400 H 499.026 0.626649 -0.387918 0
M  V30 5401 H 501.668 1.14455 -1.51658 0
M  V30 5402 H 499.818 3.62308 -1.40234 0
M  V30 5403 H 501.49 2.60659 -3.80598 0
M  V30 5404 H 499.733 2.39362 -3.61785 0
M  V30 5405 H 500.404 4.01893 -3.78399 0
M  V30 5406 H 502.88 3.71114 -1.88186 0
M  V30 5407 H 501.756 5.08037 -2.07821 0
M  V30 5408 H 502.017 4.39462 -0.482249 0
M  V30 5409 N 501.076 1.04316 1.18135 0
M  V30 5410 C 502.304 0.768117 1.92113 0
M  V30 5411 C 502.719 -0.675057 1.76319 0
M  V30 5412 O 502.076 -1.46038 1.09449 0
M  V30 5413 C 502.127 1.12808 3.43448 0
M  V30 5414 O 501.848 2.5146 3.58747 0
M  V30 5415 C 503.349 0.8779 4.3452 0
M  V30 5416 H 500.569 0.279937 0.609817 0
M  V30 5417 H 503.113 1.39149 1.49859 0
M  V30 5418 H 501.268 0.549623 3.83481 0
M  V30 5419 H 501.682 2.65313 4.52448 0
M  V30 5420 H 503.156 1.17959 5.39249 0
M  V30 5421 H 503.633 -0.187239 4.38801 0
M  V30 5422 H 504.239 1.43977 4.00188 0
M  V30 5423 N 502.554 -1.34406 0.822964 0
M  V30 5424 C 503.801 -1.98284 0.411057 0
M  V30 5425 C 504.129 -1.65245 -1.02588 0
M  V30 5426 O 503.384 -0.91619 -1.72929 0
M  V30 5427 C 503.683 -3.52981 0.560268 0
M  V30 5428 C 503.349 -4.05931 1.96293 0
M  V30 5429 C 502.011 -4.20103 2.34664 0
M  V30 5430 C 504.363 -4.34412 2.87985 0
M  V30 5431 C 501.691 -4.60082 3.64062 0
M  V30 5432 C 504.043 -4.75838 4.16847 0
M  V30 5433 C 502.707 -4.88215 4.55195 0
M  V30 5434 H 501.977 -0.725573 0.150416 0
M  V30 5435 H 504.624 -1.60349 1.04692 0
M  V30 5436 H 502.929 -3.91477 -0.158982 0
M  V30 5437 H 504.626 -4.00385 0.222087 0
M  V30 5438 H 501.216 -3.95363 1.65487 0
M  V30 5439 H 505.4 -4.23001 2.59584 0
M  V30 5440 H 500.656 -4.67856 3.93599 0
M  V30 5441 H 504.83 -4.96834 4.87984 0
M  V30 5442 H 502.457 -5.18952 5.55512 0
M  V30 5443 N 504.032 -0.577932 -1.46621 0
M  V30 5444 C 505.448 -0.239242 -1.57797 0
M  V30 5445 C 505.648 1.25843 -1.57371 0
M  V30 5446 O 504.704 2.03988 -1.48813 0
M  V30 5447 C 506.017 -0.884227 -2.87405 0
M  V30 5448 C 507.565 -0.857373 -3.01028 0
M  V30 5449 C 508.04 -1.48181 -4.33366 0
M  V30 5450 N 509.531 -1.44593 -4.40053 0
M  V30 5451 C 510.266 -1.89852 -5.41058 0
M  V30 5452 N 509.762 -2.43062 -6.48762 0
M  V30 5453 N 511.555 -1.80797 -5.3223 0
M  V30 5454 H 503.706 -1.55073 -1.45142 0
M  V30 5455 H 505.969 -0.647903 -0.692044 0
M  V30 5456 H 505.675 -1.93759 -2.93514 0
M  V30 5457 H 505.549 -0.389585 -3.75183 0
M  V30 5458 H 507.936 0.187357 -2.94505 0
M  V30 5459 H 508.017 -1.38999 -2.14739 0
M  V30 5460 H 507.661 -2.52572 -4.40647 0
M  V30 5461 H 507.591 -0.924464 -5.18422 0
M  V30 5462 H 510.082 -1.05694 -3.62819 0
M  V30 5463 H 510.395 -2.75466 -7.22038 0
M  V30 5464 H 508.74 -2.47085 -6.49595 0
M  V30 5465 H 511.931 -1.38989 -4.46989 0
M  V30 5466 H 512.104 -2.16385 -6.10804 0
M  V30 5467 N 505.51 1.54411 -0.315457 0
M  V30 5468 C 506.75 2.02329 0.290236 0
M  V30 5469 C 507.114 1.19878 1.49977 0
M  V30 5470 O 508.315 1.57562 2.17779 0
M  V30 5471 C 506.586 3.51912 0.623937 0
M  V30 5472 S 508.145 4.21775 1.21044 0
M  V30 5473 H 504.963 0.705499 0.0882739 0
M  V30 5474 H 507.565 1.90328 -0.446694 0
M  V30 5475 H 506.269 4.09546 -0.264624 0
M  V30 5476 H 505.8 3.67977 1.39128 0
M  V30 5477 H 507.815 4.28757 2.49764 0
M  V30 5478 N 506.988 0.0434614 1.5754 0
M  V30 5479 C 507.951 -0.918696 2.09982 0
M  V30 5480 C 508.951 -1.24488 1.01781 0
M  V30 5481 O 510.141 -1.18284 1.27885 0
M  V30 5482 C 507.273 -2.23093 2.57764 0
M  V30 5483 H 508.466 -0.464229 2.96285 0
M  V30 5484 H 506.019 -0.204818 1.54952 0
M  V30 5485 H 506.754 -2.73137 1.74832 0
M  V30 5486 H 506.539 -2.00724 3.36827 0
M  V30 5487 H 508.029 -2.92028 2.98512 0
M  V30 5488 N 508.466 -1.55915 -0.229846 0
M  V30 5489 C 509.376 -1.94891 -1.30593 0
M  V30 5490 C 510.392 -0.851604 -1.51736 0
M  V30 5491 O 511.568 -1.15447 -1.65027 0
M  V30 5492 C 508.633 -2.25052 -2.63728 0
M  V30 5493 C 507.694 -3.48306 -2.5096 0
M  V30 5494 C 506.927 -3.77019 -3.77747 0
M  V30 5495 O 507.15 -3.07534 -4.80395 0
M  V30 5496 O 506.084 -4.70523 -3.75356 0
M  V30 5497 H 509.91 -2.86581 -1.00525 0
M  V30 5498 H 507.495 -1.43017 -0.432025 0
M  V30 5499 H 509.377 -2.45682 -3.42372 0
M  V30 5500 H 508.052 -1.36538 -2.93495 0
M  V30 5501 H 506.959 -3.32964 -1.70546 0
M  V30 5502 H 508.292 -4.37177 -2.26136 0
M  V30 5503 N 509.944 0.496216 -1.49584 0
M  V30 5504 C 510.854 1.62352 -1.69349 0
M  V30 5505 C 511.87 1.64184 -0.576147 0
M  V30 5506 O 513.046 1.82517 -0.85144 0
M  V30 5507 C 510.111 2.98698 -1.76013 0
M  V30 5508 C 509.172 3.07454 -2.99617 0
M  V30 5509 C 508.405 4.37296 -3.05953 0
M  V30 5510 O 508.628 5.2637 -2.19752 0
M  V30 5511 O 507.562 4.51124 -3.9846 0
M  V30 5512 H 511.388 1.48606 -2.64859 0
M  V30 5513 H 508.973 0.673022 -1.33382 0
M  V30 5514 H 510.855 3.79725 -1.82721 0
M  V30 5515 H 509.53 3.12696 -0.836828 0
M  V30 5516 H 508.437 2.25597 -2.98424 0
M  V30 5517 H 509.77 2.98385 -3.91443 0
M  V30 5518 N 511.423 1.38739 0.74761 0
M  V30 5519 C 512.371 1.36573 1.88283 0
M  V30 5520 C 513.365 0.250712 1.67534 0
M  V30 5521 O 514.571 0.420073 1.7503 0
M  V30 5522 H 510.946 0.42619 0.619569 0
M  V30 5523 H 512.917 2.32356 1.87226 0
M  V30 5524 C 511.666 1.21361 3.25832 0
M  V30 5525 H 510.989 2.06424 3.42388 0
M  V30 5526 H 512.429 1.23901 4.05493 0
M  V30 5527 C 510.888 -0.0790099 3.36807 0
M  V30 5528 O 511.418 -1.05385 3.8763 0
M  V30 5529 N 509.624 -0.13785 2.90273 0
M  V30 5530 H 509.171 0.656128 2.49104 0
M  V30 5531 H 509.129 -1.00228 2.97996 0
M  V30 5532 N 512.901 -0.976442 1.23707 0
M  V30 5533 C 513.849 -2.09078 1.01927 0
M  V30 5534 C 514.843 -1.69345 -0.0430193 0
M  V30 5535 O 516.049 -1.79659 0.110814 0
M  V30 5536 H 512.424 -0.68398 0.312531 0
M  V30 5537 H 514.395 -2.24614 1.96447 0
M  V30 5538 C 513.144 -3.41919 0.631385 0
M  V30 5539 H 512.467 -3.72946 1.44053 0
M  V30 5540 H 513.907 -4.20817 0.518532 0
M  V30 5541 C 512.366 -3.30357 -0.660723 0
M  V30 5542 O 512.896 -3.63542 -1.70881 0
M  V30 5543 N 511.102 -2.83507 -0.638139 0
M  V30 5544 H 510.649 -2.567 0.215108 0
M  V30 5545 H 510.607 -2.76153 -1.50289 0
M  V30 5546 N 514.379 -1.04941 -1.1758 0
M  V30 5547 C 515.311 -0.606174 -2.21039 0
M  V30 5548 C 516.324 0.328763 -1.59446 0
M  V30 5549 O 517.513 0.121895 -1.78083 0
M  V30 5550 C 514.613 0.133294 -3.38638 0
M  V30 5551 C 513.786 -0.811711 -4.29802 0
M  V30 5552 C 512.845 -0.113958 -5.26077 0
M  V30 5553 O 511.871 -0.747237 -5.64274 0
M  V30 5554 N 513.073 1.14953 -5.69004 0
M  V30 5555 H 515.838 -1.49606 -2.59689 0
M  V30 5556 H 513.399 -0.930997 -1.32454 0
M  V30 5557 H 515.391 0.610144 -4.00074 0
M  V30 5558 H 513.961 0.924816 -2.98607 0
M  V30 5559 H 513.181 -1.46824 -3.65837 0
M  V30 5560 H 514.469 -1.45326 -4.87604 0
M  V30 5561 H 513.867 1.68441 -5.40041 0
M  V30 5562 H 512.424 1.57049 -6.32597 0
M  V30 5563 N 515.857 1.33968 -0.830081 0
M  V30 5564 C 517.103 1.98357 -0.422191 0
M  V30 5565 C 517.436 1.65633 1.01387 0
M  V30 5566 O 516.711 0.931648 1.70735 0
M  V30 5567 C 516.994 3.54492 -0.633043 0
M  V30 5568 C 516.847 3.96934 -2.11574 0
M  V30 5569 C 518.166 4.40039 -0.0735584 0
M  V30 5570 H 515.285 0.720544 -0.154871 0
M  V30 5571 H 517.927 1.58749 -1.04397 0
M  V30 5572 H 516.077 3.88361 -0.103775 0
M  V30 5573 H 517.749 3.73363 -2.7092 0
M  V30 5574 H 515.992 3.46984 -2.60354 0
M  V30 5575 H 516.663 5.05651 -2.21406 0
M  V30 5576 H 519.139 4.12764 -0.52585 0
M  V30 5577 H 518.015 5.48327 -0.250841 0
M  V30 5578 H 518.276 4.30124 1.02202 0
M  V30 5579 N 517.335 0.585699 1.46312 0
M  V30 5580 C 518.612 0.00542031 1.95599 0
M  V30 5581 C 518.992 -1.45619 1.52834 0
M  V30 5582 O 518.34 -2.14759 0.780446 0
M  V30 5583 C 518.55 0.180601 3.48532 0
M  V30 5584 C 519.898 0.049979 4.24571 0
M  V30 5585 O 520.922 0.109589 3.56031 0
M  V30 5586 O 519.781 -0.0832226 5.46437 0
M  V30 5587 H 516.875 -0.0481281 0.825598 0
M  V30 5588 H 519.421 0.654227 1.56582 0
M  V30 5589 H 518.193 1.19657 3.72556 0
M  V30 5590 H 517.816 -0.504498 3.94386 0
M  V30 5591 N 518.813 -1.54241 0.323641 0
M  V30 5592 C 519.76 -2.24339 -0.542277 0
M  V30 5593 C 520.73 -1.23421 -1.11159 0
M  V30 5594 O 521.915 -1.52104 -1.15192 0
M  V30 5595 C 519.055 -3.00479 -1.69725 0
M  V30 5596 C 518.168 -4.16214 -1.15716 0
M  V30 5597 C 517.303 -4.79884 -2.27783 0
M  V30 5598 C 516.342 -5.87722 -1.71023 0
M  V30 5599 N 515.479 -6.45254 -2.76752 0
M  V30 5600 H 520.319 -2.97935 0.0620613 0
M  V30 5601 H 517.856 -1.47039 0.0423993 0
M  V30 5602 H 519.814 -3.42869 -2.3769 0
M  V30 5603 H 518.444 -2.29217 -2.27288 0
M  V30 5604 H 517.496 -3.78605 -0.369063 0
M  V30 5605 H 518.808 -4.93838 -0.701832 0
M  V30 5606 H 517.962 -5.25243 -3.03651 0
M  V30 5607 H 516.701 -4.01641 -2.76652 0
M  V30 5608 H 515.706 -5.41765 -0.936518 0
M  V30 5609 H 516.931 -6.67863 -1.2303 0
M  V30 5610 H 514.877 -5.69884 -3.24912 0
M  V30 5611 H 514.794 -7.18292 -2.35782 0
M  V30 5612 H 516.062 -6.95269 -3.5245 0
M  V30 5613 N 520.291 -0.0518155 -1.57515 0
M  V30 5614 C 521.707 0.304735 -1.56664 0
M  V30 5615 C 521.907 1.71395 -1.05953 0
M  V30 5616 O 520.963 2.42123 -0.716414 0
M  V30 5617 C 522.276 0.132614 -3.00407 0
M  V30 5618 C 523.824 0.20367 -3.12337 0
M  V30 5619 C 524.299 0.0600706 -4.57961 0
M  V30 5620 N 525.79 0.116326 -4.63054 0
M  V30 5621 C 526.525 0.0293363 -5.73392 0
M  V30 5622 N 526.021 -0.110038 -6.92713 0
M  V30 5623 N 527.814 0.0849651 -5.62036 0
M  V30 5624 H 519.965 -0.973056 -1.888 0
M  V30 5625 H 522.228 -0.377781 -0.869474 0
M  V30 5626 H 521.934 -0.839019 -3.41546 0
M  V30 5627 H 521.808 0.893376 -3.66468 0
M  V30 5628 H 524.195 1.16578 -2.71097 0
M  V30 5629 H 524.276 -0.587857 -2.48954 0
M  V30 5630 H 523.92 -0.898715 -4.99886 0
M  V30 5631 H 523.85 0.87075 -5.19351 0
M  V30 5632 H 526.341 0.22327 -3.7724 0
M  V30 5633 H 526.654 -0.169104 -7.72615 0
M  V30 5634 H 524.999 -0.145132 -6.94848 0
M  V30 5635 H 528.19 0.192411 -4.67704 0
M  V30 5636 H 528.363 0.0137131 -6.47999 0
M  V30 5637 N 521.769 1.56035 0.221574 0
M  V30 5638 C 523.018 1.78245 0.944016 0
M  V30 5639 C 523.331 0.620371 1.85501 0
M  V30 5640 O 524.537 0.726103 2.6161 0
M  V30 5641 C 522.993 3.15659 1.7288 0
M  V30 5642 C 522.601 4.39591 0.863942 0
M  V30 5643 C 524.345 3.47195 2.44246 0
M  V30 5644 C 522.252 5.6803 1.64607 0
M  V30 5645 H 521.182 0.664547 0.356222 0
M  V30 5646 H 523.833 1.8243 0.197904 0
M  V30 5647 H 522.215 3.0565 2.51781 0
M  V30 5648 H 523.389 4.60655 0.115464 0
M  V30 5649 H 521.704 4.15572 0.262407 0
M  V30 5650 H 524.301 4.40381 3.03263 0
M  V30 5651 H 524.644 2.69693 3.1713 0
M  V30 5652 H 525.177 3.58533 1.72334 0
M  V30 5653 H 521.916 6.48425 0.960507 0
M  V30 5654 H 521.436 5.51027 2.36917 0
M  V30 5655 H 523.115 6.08203 2.20675 0
M  V30 5656 N 523.247 -0.488276 1.49845 0
M  V30 5657 C 524.475 -1.26527 1.63702 0
M  V30 5658 C 524.89 -1.8618 0.313447 0
M  V30 5659 O 524.247 -1.68432 -0.702624 0
M  V30 5660 C 524.298 -2.3864 2.71538 0
M  V30 5661 O 524.019 -1.81437 3.98763 0
M  V30 5662 C 525.52 -3.29805 2.96215 0
M  V30 5663 H 522.74 -0.383295 0.55075 0
M  V30 5664 H 525.284 -0.584779 1.95961 0
M  V30 5665 H 523.439 -3.02496 2.42023 0
M  V30 5666 H 523.853 -2.55135 4.58265 0
M  V30 5667 H 525.327 -4.04722 3.75372 0
M  V30 5668 H 525.804 -3.87563 2.06619 0
M  V30 5669 H 526.41 -2.71703 3.27196 0
M  V30 5670 N 524.725 -1.39134 -0.740242 0
M  V30 5671 C 526.141 -1.20623 -1.0451 0
M  V30 5672 C 526.341 -0.0641651 -2.01398 0
M  V30 5673 O 525.397 0.585843 -2.4561 0
M  V30 5674 C 526.71 -2.53815 -1.6124 0
M  V30 5675 C 528.258 -2.60615 -1.73346 0
M  V30 5676 C 528.733 -3.94015 -2.33486 0
M  V30 5677 N 530.224 -3.95627 -2.40902 0
M  V30 5678 C 530.959 -4.95616 -2.88361 0
M  V30 5679 N 530.455 -6.06003 -3.35756 0
M  V30 5680 N 532.248 -4.82998 -2.87523 0
M  V30 5681 H 524.399 -2.12176 -0.0975576 0
M  V30 5682 H 526.662 -0.942066 -0.105904 0
M  V30 5683 H 526.368 -3.37911 -0.975144 0
M  V30 5684 H 526.242 -2.73162 -2.6012 0
M  V30 5685 H 528.629 -1.76906 -2.36195 0
M  V30 5686 H 528.71 -2.45123 -0.731336 0
M  V30 5687 H 528.354 -4.78153 -1.71267 0
M  V30 5688 H 528.284 -4.06825 -3.34366 0
M  V30 5689 H 530.775 -3.15903 -2.07398 0
M  V30 5690 H 531.088 -6.78215 -3.70464 0
M  V30 5691 H 529.433 -6.09604 -3.33778 0
M  V30 5692 H 532.624 -3.95866 -2.49816 0
M  V30 5693 H 532.797 -5.61072 -3.24196 0
M  V30 5694 N 526.204 0.969867 -1.24223 0
M  V30 5695 C 527.451 1.71256 -1.08063 0
M  V30 5696 C 527.779 1.90734 0.380872 0
M  V30 5697 O 527.034 1.46469 1.29789 0
M  V30 5698 C 527.333 3.10883 -1.76314 0
M  V30 5699 C 526.999 3.11252 -3.26241 0
M  V30 5700 C 525.661 3.1106 -3.67144 0
M  V30 5701 C 528.013 3.05751 -4.22097 0
M  V30 5702 C 525.341 3.03097 -5.02344 0
M  V30 5703 C 527.693 2.9933 -5.57301 0
M  V30 5704 C 526.357 2.97466 -5.97554 0
M  V30 5705 H 525.627 0.62667 -0.395431 0
M  V30 5706 H 528.274 1.13422 -1.54297 0
M  V30 5707 H 526.579 3.72168 -1.22468 0
M  V30 5708 H 528.276 3.67138 -1.61277 0
M  V30 5709 H 524.866 3.12165 -2.93685 0
M  V30 5710 H 529.05 3.05031 -3.91497 0
M  V30 5711 H 524.306 3.00013 -5.32731 0
M  V30 5712 H 528.48 2.94033 -6.31283 0
M  V30 5713 H 526.107 2.91051 -7.02277 0
M  V30 5714 N 527.682 1.05563 1.17022 0
M  V30 5715 C 528.928 0.769074 1.87652 0
M  V30 5716 C 529.261 -0.702326 1.81055 0
M  V30 5717 O 528.536 -1.5139 1.22112 0
M  V30 5718 C 528.819 1.25492 3.37526 0
M  V30 5719 C 528.672 2.78953 3.52853 0
M  V30 5720 C 529.991 0.856919 4.31677 0
M  V30 5721 H 527.11 0.280854 0.681388 0
M  V30 5722 H 529.752 1.31027 1.37593 0
M  V30 5723 H 527.902 0.794516 3.80289 0
M  V30 5724 H 529.574 3.33146 3.19079 0
M  V30 5725 H 527.817 3.18046 2.95007 0
M  V30 5726 H 528.488 3.08011 4.58076 0
M  V30 5727 H 530.964 1.25334 3.96775 0
M  V30 5728 H 529.84 1.22443 5.35069 0
M  V30 5729 H 530.101 -0.238787 4.41455 0
M  V30 5730 N 529.16 -1.33526 0.837174 0
M  V30 5731 C 530.09 -2.31764 0.284206 0
M  V30 5732 C 531.071 -1.58896 -0.607142 0
M  V30 5733 O 532.256 -1.86798 -0.531047 0
M  V30 5734 C 529.386 -3.43029 -0.542962 0
M  V30 5735 C 528.34 -4.27255 0.252451 0
M  V30 5736 C 527.666 -5.3012 -0.69836 0
M  V30 5737 C 528.966 -5.01229 1.46858 0
M  V30 5738 H 530.66 -2.78262 1.10502 0
M  V30 5739 H 528.206 -1.3378 0.532812 0
M  V30 5740 H 530.159 -4.1078 -0.940096 0
M  V30 5741 H 528.883 -2.95216 -1.39697 0
M  V30 5742 H 527.542 -3.61127 0.631124 0
M  V30 5743 H 527.19 -4.78564 -1.54872 0
M  V30 5744 H 526.89 -5.87353 -0.170274 0
M  V30 5745 H 528.414 -6.00737 -1.09305 0
M  V30 5746 H 529.828 -5.61756 1.14469 0
M  V30 5747 H 528.225 -5.68104 1.93333 0
M  V30 5748 H 529.295 -4.301 2.23924 0
M  V30 5749 N 530.638 -0.59345 -1.46 0
M  V30 5750 C 532.049 -0.169801 -1.85926 0
M  V30 5751 C 532.4 1.26984 -1.49565 0
M  V30 5752 O 531.525 1.96076 -0.915602 0
M  V30 5753 C 532.12 -0.301385 -3.37457 0
M  V30 5754 C 530.679 0.0674684 -3.7634 0
M  V30 5755 C 529.826 -0.632383 -2.69993 0
M  V30 5756 H 532.777 -0.801014 -1.37002 0
M  V30 5757 H 532.798 0.470331 -3.77582 0
M  V30 5758 H 532.31 -1.34927 -3.63891 0
M  V30 5759 H 530.411 1.11507 -3.55523 0
M  V30 5760 H 530.524 -0.316332 -4.78055 0
M  V30 5761 H 528.888 -0.0714961 -2.546 0
M  V30 5762 H 529.671 -1.68212 -2.99265 0
M  V30 5763 N 532.116 1.54067 -0.331816 0
M  V30 5764 C 533.362 2.01012 0.268667 0
M  V30 5765 C 533.695 1.2195 1.51136 0
M  V30 5766 O 532.97 0.303972 1.9211 0
M  V30 5767 C 533.253 3.55158 0.59456 0
M  V30 5768 C 533.106 4.4494 -0.659409 0
M  V30 5769 C 534.425 4.16939 1.4089 0
M  V30 5770 H 531.544 0.730698 0.0961756 0
M  V30 5771 H 534.186 1.84593 -0.450031 0
M  V30 5772 H 532.336 3.6928 1.20685 0
M  V30 5773 H 534.008 4.42675 -1.29756 0
M  V30 5774 H 532.251 4.1428 -1.28665 0
M  V30 5775 H 532.922 5.50643 -0.386804 0
M  V30 5776 H 535.398 4.06443 0.891272 0
M  V30 5777 H 534.274 5.24889 1.60569 0
M  V30 5778 H 534.535 3.70798 2.40752 0
M  V30 5779 N 533.594 0.0601682 1.57485 0
M  V30 5780 C 534.842 -0.610386 1.92662 0
M  V30 5781 C 535.163 -1.70849 0.939981 0
M  V30 5782 O 534.433 -1.95895 -0.0137455 0
M  V30 5783 H 533.013 -0.228457 0.711208 0
M  V30 5784 H 535.675 0.115288 1.94559 0
M  V30 5785 H 534.771 -1.0432 2.94149 0
M  V30 5786 N 535.072 -1.5615 -0.213296 0
M  V30 5787 C 536.035 -1.92249 -1.24792 0
M  V30 5788 C 537.035 -0.801828 -1.39382 0
M  V30 5789 O 538.225 -1.06948 -1.37506 0
M  V30 5790 C 535.357 -2.18056 -2.62039 0
M  V30 5791 H 536.55 -2.84793 -0.939845 0
M  V30 5792 H 534.103 -1.49559 -0.454062 0
M  V30 5793 H 534.838 -1.2809 -2.97932 0
M  V30 5794 H 534.623 -2.99703 -2.52825 0
M  V30 5795 H 536.113 -2.47051 -3.36683 0
M  V30 5796 N 536.55 0.480323 -1.50102 0
M  V30 5797 C 537.778 1.25657 -1.64371 0
M  V30 5798 C 538.193 1.86011 -0.323316 0
M  V30 5799 O 537.55 1.68803 0.693682 0
M  V30 5800 C 537.601 2.37197 -2.728 0
M  V30 5801 O 537.322 1.7932 -3.9972 0
M  V30 5802 C 538.823 3.2823 -2.9796 0
M  V30 5803 H 536.043 0.380369 -0.552775 0
M  V30 5804 H 538.587 0.574379 -1.96268 0
M  V30 5805 H 536.742 3.01208 -2.43623 0
M  V30 5806 H 537.156 2.52701 -4.59611 0
M  V30 5807 H 538.63 4.02725 -3.77513 0
M  V30 5808 H 539.107 3.86462 -2.08671 0
M  V30 5809 H 539.713 2.69964 -3.28633 0
M  V30 5810 N 538.028 1.39524 0.732853 0
M  V30 5811 C 539.277 1.36175 1.48792 0
M  V30 5812 C 539.59 -0.0388195 1.95561 0
M  V30 5813 O 540.796 -0.194899 2.708 0
M  V30 5814 C 539.252 2.39242 2.68871 0
M  V30 5815 C 538.86 3.85024 2.29042 0
M  V30 5816 C 540.604 2.44972 3.46683 0
M  V30 5817 C 538.511 4.79727 3.45856 0
M  V30 5818 H 537.441 0.506267 0.558757 0
M  V30 5819 H 540.092 1.65181 0.799226 0
M  V30 5820 H 538.474 2.0331 3.39825 0
M  V30 5821 H 539.648 4.30008 1.6562 0
M  V30 5822 H 537.963 3.82609 1.64316 0
M  V30 5823 H 540.56 3.12918 4.33574 0
M  V30 5824 H 540.903 1.4749 3.89297 0
M  V30 5825 H 541.436 2.79808 2.82759 0
M  V30 5826 H 538.175 5.78479 3.08289 0
M  V30 5827 H 537.695 4.39421 4.08251 0
M  V30 5828 H 539.374 4.98731 4.12161 0
M  V30 5829 N 539.506 -0.963266 1.24736 0
M  V30 5830 C 540.454 -2.07985 1.04139 0
M  V30 5831 C 541.448 -1.69381 -0.0250556 0
M  V30 5832 O 542.654 -1.79531 0.129863 0
M  V30 5833 H 539.029 -0.680627 0.319768 0
M  V30 5834 H 541 -2.22517 1.98818 0
M  V30 5835 C 539.749 -3.4123 0.667615 0
M  V30 5836 H 539.072 -3.71397 1.48 0
M  V30 5837 H 540.512 -4.20244 0.563136 0
M  V30 5838 C 538.971 -3.3104 -0.625647 0
M  V30 5839 O 539.501 -3.65334 -1.67016 0
M  V30 5840 N 537.707 -2.84168 -0.608033 0
M  V30 5841 H 537.254 -2.56458 0.242323 0
M  V30 5842 H 537.212 -2.77732 -1.47352 0
M  V30 5843 N 540.985 -1.06182 -1.16461 0
M  V30 5844 C 541.918 -0.615859 -2.19733 0
M  V30 5845 C 542.896 0.360766 -1.58547 0
M  V30 5846 O 544.08 0.270009 -1.86556 0
M  V30 5847 C 541.207 0.097312 -3.3856 0
M  V30 5848 C 540.253 -0.835889 -4.18229 0
M  V30 5849 S 541.086 -2.33052 -4.82128 0
M  V30 5850 C 542.242 -1.62881 -6.04335 0
M  V30 5851 H 542.475 -1.49079 -2.57221 0
M  V30 5852 H 540.008 -0.874692 -1.27234 0
M  V30 5853 H 541.966 0.502563 -4.07412 0
M  V30 5854 H 540.627 0.948418 -2.99439 0
M  V30 5855 H 539.82 -0.283426 -5.03202 0
M  V30 5856 H 539.422 -1.18097 -3.54865 0
M  V30 5857 H 541.714 -0.933764 -6.71034 0
M  V30 5858 H 542.657 -2.45641 -6.64128 0
M  V30 5859 H 543.065 -1.11189 -5.53441 0
M  V30 5860 N 542.463 1.3308 -0.844243 0
M  V30 5861 C 543.74 1.92178 -0.364261 0
M  V30 5862 C 544.12 1.76961 1.15101 0
M  V30 5863 O 543.468 1.16128 1.9679 0
M  V30 5864 C 543.678 3.393 -0.817106 0
M  V30 5865 C 545.026 4.16444 -0.828236 0
M  V30 5866 O 546.05 3.47975 -0.761062 0
M  V30 5867 O 544.909 5.38685 -0.920926 0
M  V30 5868 H 542.003 0.820411 -0.10419 0
M  V30 5869 H 544.549 1.41918 -0.930453 0
M  V30 5870 H 543.321 3.44272 -1.85991 0
M  V30 5871 H 542.944 3.96947 -0.227785 0
M  V30 5872 N 543.941 0.601185 1.45683 0
M  V30 5873 C 545.189 0.0936957 2.01883 0
M  V30 5874 C 545.51 -1.2779 1.47291 0
M  V30 5875 O 544.78 -1.84279 0.664691 0
M  V30 5876 H 543.36 0.0316466 0.746329 0
M  V30 5877 H 546.022 0.781137 1.78562 0
M  V30 5878 H 545.118 0.0386297 3.12076 0
M  V30 5879 N 545.419 -1.53889 0.339982 0
M  V30 5880 C 546.647 -2.05271 -0.259114 0
M  V30 5881 C 547.062 -1.21517 -1.44496 0
M  V30 5882 O 546.419 -0.24966 -1.80784 0
M  V30 5883 C 546.47 -3.55092 -0.677634 0
M  V30 5884 O 546.191 -4.35667 0.461051 0
M  V30 5885 C 547.692 -4.22631 -1.33782 0
M  V30 5886 H 544.912 -0.669085 -0.0506566 0
M  V30 5887 H 547.456 -1.9852 0.490935 0
M  V30 5888 H 545.611 -3.62077 -1.37763 0
M  V30 5889 H 546.025 -5.24343 0.128144 0
M  V30 5890 H 547.499 -5.28861 -1.58145 0
M  V30 5891 H 547.976 -3.74758 -2.29027 0
M  V30 5892 H 548.582 -4.19829 -0.679957 0
M  V30 5893 N 546.897 -0.0685191 -1.57451 0
M  V30 5894 C 547.86 0.885173 -2.11417 0
M  V30 5895 C 548.86 1.22853 -1.03748 0
M  V30 5896 O 550.05 1.16235 -1.2975 0
M  V30 5897 C 547.182 2.18964 -2.61281 0
M  V30 5898 H 548.375 0.417034 -2.96986 0
M  V30 5899 H 545.928 0.18014 -1.55258 0
M  V30 5900 H 546.663 2.70321 -1.79156 0
M  V30 5901 H 546.448 1.9534 -3.39977 0
M  V30 5902 H 547.938 2.87242 -3.0312 0
M  V30 5903 N 548.375 1.56261 0.205012 0
M  V30 5904 C 549.305 1.96779 1.257 0
M  V30 5905 C 550.286 0.838309 1.48008 0
M  V30 5906 O 551.471 1.10189 1.59913 0
M  V30 5907 C 548.601 2.29876 2.60335 0
M  V30 5908 C 547.555 3.45469 2.52656 0
M  V30 5909 C 546.881 3.64215 3.91473 0
M  V30 5910 C 548.181 4.79954 2.06014 0
M  V30 5911 H 549.875 2.84904 0.920338 0
M  V30 5912 H 547.421 1.37072 0.441277 0
M  V30 5913 H 549.374 2.56814 3.34102 0
M  V30 5914 H 548.098 1.38622 2.95722 0
M  V30 5915 H 546.757 3.18605 1.81345 0
M  V30 5916 H 546.405 2.70309 4.24196 0
M  V30 5917 H 546.105 4.41973 3.87213 0
M  V30 5918 H 547.629 3.93519 4.66878 0
M  V30 5919 H 549.043 5.05989 2.69533 0
M  V30 5920 H 547.44 5.61111 2.12777 0
M  V30 5921 H 548.51 4.74201 1.01297 0
M  V30 5922 N 549.853 -0.472356 1.50355 0
M  V30 5923 C 551.083 -1.24603 1.64796 0
M  V30 5924 C 551.491 -1.86297 0.330156 0
M  V30 5925 O 550.834 -1.69934 -0.697728 0
M  V30 5926 C 550.896 -2.39578 2.68035 0
M  V30 5927 C 550.56 -1.98531 4.11624 0
M  V30 5928 C 551.557 -1.50856 4.97532 0
M  V30 5929 C 549.242 -2.0729 4.57532 0
M  V30 5930 C 551.236 -1.12481 6.27397 0
M  V30 5931 C 548.923 -1.68527 5.87403 0
M  V30 5932 C 549.921 -1.212 6.7216 0
M  V30 5933 O 549.609 -0.829728 7.99607 0
M  V30 5934 H 549.341 -0.383035 0.55701 0
M  V30 5935 H 551.895 -0.570392 1.97321 0
M  V30 5936 H 550.125 -3.10309 2.30749 0
M  V30 5937 H 551.814 -3.01544 2.71709 0
M  V30 5938 H 552.58 -1.43511 4.63281 0
M  V30 5939 H 548.459 -2.43076 3.91708 0
M  V30 5940 H 552.003 -0.754698 6.93506 0
M  V30 5941 H 547.9 -1.7553 6.21176 0
M  V30 5942 H 548.668 -0.958689 8.12866 0
M  V30 5943 N 551.331 -1.39911 -0.725443 0
M  V30 5944 C 552.241 -1.41688 -1.8698 0
M  V30 5945 C 553.257 -0.310579 -1.71206 0
M  V30 5946 O 554.433 -0.55359 -1.93642 0
M  V30 5947 C 551.498 -1.26811 -3.22676 0
M  V30 5948 C 550.559 -2.47497 -3.50776 0
M  V30 5949 C 549.792 -2.3332 -4.79997 0
M  V30 5950 O 550.015 -1.34175 -5.54394 0
M  V30 5951 O 548.949 -3.22498 -5.08211 0
M  V30 5952 H 552.775 -2.38171 -1.88436 0
M  V30 5953 H 550.36 -1.21128 -0.874548 0
M  V30 5954 H 552.242 -1.20684 -4.03749 0
M  V30 5955 H 550.917 -0.334289 -3.21969 0
M  V30 5956 H 549.824 -2.59201 -2.69751 0
M  V30 5957 H 551.157 -3.39606 -3.5627 0
M  V30 5958 N 552.809 0.956637 -1.25245 0
M  V30 5959 C 553.772 2.03457 -1.05537 0
M  V30 5960 C 554.772 1.60798 -0.00886317 0
M  V30 5961 O 555.962 1.72384 -0.250865 0
M  V30 5962 C 553.094 3.35543 -0.601965 0
M  V30 5963 H 554.287 2.22372 -2.01223 0
M  V30 5964 H 551.84 1.13344 -1.07623 0
M  V30 5965 H 552.575 3.22323 0.357584 0
M  V30 5966 H 552.36 3.67854 -1.35743 0
M  V30 5967 H 553.85 4.14769 -0.485454 0
M  V30 5968 N 554.287 1.06798 1.15896 0
M  V30 5969 C 555.533 0.788934 1.86825 0
M  V30 5970 C 555.866 -0.683084 1.8179 0
M  V30 5971 O 555.141 -1.50086 1.23711 0
M  V30 5972 C 555.424 1.29065 3.36176 0
M  V30 5973 C 555.277 2.8268 3.49874 0
M  V30 5974 C 556.596 0.902655 4.30744 0
M  V30 5975 H 553.715 0.288066 0.678371 0
M  V30 5976 H 556.357 1.32479 1.36195 0
M  V30 5977 H 554.507 0.834806 3.79425 0
M  V30 5978 H 556.179 3.36511 3.15528 0
M  V30 5979 H 554.422 3.21157 2.91617 0
M  V30 5980 H 555.093 3.12852 4.54783 0
M  V30 5981 H 557.569 1.29535 3.95424 0
M  V30 5982 H 556.445 1.28111 5.3374 0
M  V30 5983 H 556.706 -0.191951 4.41683 0
M  V30 5984 N 555.766 -1.3263 0.851289 0
M  V30 5985 C 556.729 -2.27247 0.298541 0
M  V30 5986 C 557.729 -1.51467 -0.539847 0
M  V30 5987 O 558.919 -1.7061 -0.351843 0
M  V30 5988 C 556.051 -3.35964 -0.578004 0
M  V30 5989 H 557.244 -2.7765 1.13359 0
M  V30 5990 H 554.797 -1.43245 0.625354 0
M  V30 5991 H 555.532 -2.90823 -1.435 0
M  V30 5992 H 555.317 -3.92094 0.0220539 0
M  V30 5993 H 556.807 -4.06472 -0.957626 0
M  V30 5994 N 557.244 -0.608902 -1.45362 0
M  V30 5995 C 558.207 0.0992563 -2.28985 0
M  V30 5996 C 559.207 0.793841 -1.39838 0
M  V30 5997 O 560.397 0.641804 -1.61946 0
M  V30 5998 C 557.529 1.15073 -3.20891 0
M  V30 5999 H 558.722 -0.635964 -2.93079 0
M  V30 6000 H 556.275 -0.368007 -1.51906 0
M  V30 6001 H 557.01 1.91667 -2.616 0
M  V30 6002 H 556.795 0.656867 -3.86559 0
M  V30 6003 H 558.285 1.64665 -3.83765 0
M  V30 6004 N 558.722 1.53707 -0.348139 0
M  V30 6005 C 559.968 2.01286 0.247332 0
M  V30 6006 C 560.301 1.23546 1.49834 0
M  V30 6007 O 559.576 0.324331 1.91777 0
M  V30 6008 C 559.859 3.55768 0.556858 0
M  V30 6009 C 559.712 4.44216 -0.706564 0
M  V30 6010 C 561.031 4.1841 1.3646 0
M  V30 6011 H 558.15 0.731677 0.0884201 0
M  V30 6012 H 560.792 1.84106 -0.469584 0
M  V30 6013 H 558.942 3.70539 1.16761 0
M  V30 6014 H 560.614 4.41274 -1.34444 0
M  V30 6015 H 558.857 4.12892 -1.33052 0
M  V30 6016 H 559.528 5.50202 -0.445186 0
M  V30 6017 H 562.004 4.07365 0.848113 0
M  V30 6018 H 560.88 5.26563 1.54992 0
M  V30 6019 H 561.141 3.7333 2.36805 0
M  V30 6020 N 560.2 0.0768682 1.57412 0
M  V30 6021 C 561.447 -0.591085 1.93681 0
M  V30 6022 C 561.775 -1.69311 0.957286 0
M  V30 6023 O 561.03 -1.95682 -0.0262428 0
M  V30 6024 C 561.329 -1.20268 3.36557 0
M  V30 6025 C 560.995 -0.226286 4.50332 0
M  V30 6026 C 559.657 0.0423142 4.81181 0
M  V30 6027 C 562.009 0.441415 5.19327 0
M  V30 6028 C 559.337 0.985616 5.78362 0
M  V30 6029 C 561.689 1.37307 6.17519 0
M  V30 6030 C 560.353 1.65009 6.46783 0
M  V30 6031 H 559.623 -0.216293 0.70873 0
M  V30 6032 H 562.27 0.148824 1.90921 0
M  V30 6033 H 560.575 -2.01844 3.35807 0
M  V30 6034 H 562.272 -1.72688 3.61911 0
M  V30 6035 H 558.862 -0.445821 4.26275 0
M  V30 6036 H 563.046 0.247023 4.95685 0
M  V30 6037 H 558.302 1.20743 5.99359 0
M  V30 6038 H 562.476 1.89637 6.70083 0
M  V30 6039 H 560.103 2.38263 7.21897 0
M  V30 6040 N 561.678 -1.56367 -0.196722 0
M  V30 6041 C 562.927 -1.79724 -0.915539 0
M  V30 6042 C 563.24 -0.649804 -1.84491 0
M  V30 6043 O 564.446 -0.767631 -2.60422 0
M  V30 6044 C 562.902 -3.18369 -1.67836 0
M  V30 6045 C 562.51 -4.4091 -0.793897 0
M  V30 6046 C 564.254 -3.51037 -2.38691 0
M  V30 6047 C 562.161 -5.70577 -1.55549 0
M  V30 6048 H 561.091 -0.67013 -0.345604 0
M  V30 6049 H 563.742 -1.82721 -0.168856 0
M  V30 6050 H 562.124 -3.09617 -2.46887 0
M  V30 6051 H 563.298 -4.60781 -0.042163 0
M  V30 6052 H 561.613 -4.15937 -0.19626 0
M  V30 6053 H 564.21 -4.4515 -2.96219 0
M  V30 6054 H 564.553 -2.74704 -3.12799 0
M  V30 6055 H 565.086 -3.61229 -1.66608 0
M  V30 6056 H 561.825 -6.49871 -0.857226 0
M  V30 6057 H 561.345 -5.54726 -2.2812 0
M  V30 6058 H 563.024 -6.11637 -2.10971 0
M  V30 6059 N 563.156 0.464375 -1.50603 0
M  V30 6060 C 564.119 1.54393 -1.69397 0
M  V30 6061 C 565.119 1.50566 -0.564504 0
M  V30 6062 O 566.309 1.53066 -0.831645 0
M  V30 6063 C 563.441 2.9401 -1.72543 0
M  V30 6064 H 564.634 1.39044 -2.65719 0
M  V30 6065 H 562.187 0.69122 -1.40185 0
M  V30 6066 H 562.922 3.14795 -0.77938 0
M  V30 6067 H 562.707 2.98195 -2.54602 0
M  V30 6068 H 564.197 3.72375 -1.89015 0
M  V30 6069 N 564.634 1.40294 0.718013 0
M  V30 6070 C 565.566 1.36281 1.84283 0
M  V30 6071 C 566.579 0.268621 1.60569 0
M  V30 6072 O 567.768 0.528798 1.70487 0
M  V30 6073 C 564.868 1.09741 3.2064 0
M  V30 6074 C 564.041 2.30767 3.71571 0
M  V30 6075 C 563.1 2.00424 4.86535 0
M  V30 6076 O 562.126 2.73268 4.99313 0
M  V30 6077 N 563.328 0.980724 5.72156 0
M  V30 6078 H 566.093 2.3322 1.88225 0
M  V30 6079 H 563.654 1.34616 0.899453 0
M  V30 6080 H 565.646 0.874322 3.95143 0
M  V30 6081 H 564.216 0.214771 3.11861 0
M  V30 6082 H 563.436 2.68921 2.88228 0
M  V30 6083 H 564.724 3.11455 4.02335 0
M  V30 6084 H 564.122 0.377375 5.6444 0
M  V30 6085 H 562.679 0.817538 6.46653 0
M  V30 6086 N 566.112 -0.949982 1.2575 0
M  V30 6087 C 567.042 -2.06483 1.09028 0
M  V30 6088 C 568.023 -1.701 -0.00201532 0
M  V30 6089 O 569.208 -1.93469 0.168383 0
M  V30 6090 C 566.338 -3.39899 0.71316 0
M  V30 6091 C 565.292 -3.90309 1.75621 0
M  V30 6092 C 564.618 -5.20274 1.23365 0
M  V30 6093 C 565.918 -4.16169 3.15596 0
M  V30 6094 H 567.612 -2.20731 2.02283 0
M  V30 6095 H 565.158 -1.06066 0.973964 0
M  V30 6096 H 567.111 -4.17346 0.58309 0
M  V30 6097 H 565.835 -3.25602 -0.255091 0
M  V30 6098 H 564.494 -3.15035 1.8748 0
M  V30 6099 H 564.142 -5.02351 0.255491 0
M  V30 6100 H 563.842 -5.54971 1.93082 0
M  V30 6101 H 565.366 -6.00314 1.11607 0
M  V30 6102 H 566.78 -4.84259 3.06864 0
M  V30 6103 H 565.177 -4.62131 3.82825 0
M  V30 6104 H 566.247 -3.22273 3.6231 0
M  V30 6105 N 567.59 -1.07411 -1.15328 0
M  V30 6106 C 568.538 -0.689316 -2.22151 0
M  V30 6107 C 569.532 0.300156 -1.6672 0
M  V30 6108 O 570.738 0.163804 -1.79253 0
M  V30 6109 H 567.113 -0.204834 -0.723566 0
M  V30 6110 H 569.084 -1.59988 -2.51886 0
M  V30 6111 C 567.833 -0.103848 -3.47545 0
M  V30 6112 H 567.156 -0.856367 -3.90521 0
M  V30 6113 H 568.596 0.127725 -4.23808 0
M  V30 6114 C 567.055 1.15563 -3.1646 0
M  V30 6115 O 567.585 2.242 -3.33312 0
M  V30 6116 N 565.791 1.06203 -2.70498 0
M  V30 6117 H 565.338 0.177933 -2.56985 0
M  V30 6118 H 565.296 1.90553 -2.50074 0
M  V30 6119 N 569.068 1.32177 -0.85831 0
M  V30 6120 C 570.345 1.91781 -0.384624 0
M  V30 6121 C 570.725 1.78171 1.13217 0
M  V30 6122 O 570.073 1.18209 1.95548 0
M  V30 6123 C 570.283 3.38414 -0.853047 0
M  V30 6124 C 571.631 4.15542 -0.872359 0
M  V30 6125 O 572.655 3.47148 -0.797926 0
M  V30 6126 O 571.514 5.37678 -0.978009 0
M  V30 6127 H 568.608 0.819259 -0.112886 0
M  V30 6128 H 571.154 1.40923 -0.945453 0
M  V30 6129 H 569.926 3.4228 -1.89632 0
M  V30 6130 H 569.549 3.96683 -0.269874 0
M  V30 6131 N 570.547 0.616602 1.45037 0
M  V30 6132 C 571.477 -0.0840787 2.33349 0
M  V30 6133 C 572.458 -0.849641 1.4736 0
M  V30 6134 O 573.643 -0.818407 1.76113 0
M  V30 6135 C 570.773 -1.07604 3.3021 0
M  V30 6136 C 569.727 -0.423096 4.25904 0
M  V30 6137 C 569.053 -1.52394 5.12523 0
M  V30 6138 C 570.353 0.661457 5.18095 0
M  V30 6139 H 572.047 0.653333 2.92185 0
M  V30 6140 H 569.593 0.315634 1.40498 0
M  V30 6141 H 571.546 -1.57485 3.90866 0
M  V30 6142 H 570.27 -1.84416 2.69552 0
M  V30 6143 H 568.929 0.05493 3.66559 0
M  V30 6144 H 568.577 -2.28257 4.48227 0
M  V30 6145 H 568.277 -1.09251 5.77354 0
M  V30 6146 H 569.801 -2.02485 5.76049 0
M  V30 6147 H 571.215 0.246353 5.7277 0
M  V30 6148 H 569.612 1.01517 5.91451 0
M  V30 6149 H 570.682 1.53446 4.59981 0
M  V30 6150 N 572.025 -1.5352 0.356285 0
M  V30 6151 C 573.302 -1.93405 -0.292223 0
M  V30 6152 C 573.682 -1.28901 -1.67176 0
M  V30 6153 O 573.03 -0.444632 -2.24132 0
M  V30 6154 C 573.24 -3.47223 -0.35175 0
M  V30 6155 C 574.588 -4.20389 -0.596534 0
M  V30 6156 O 575.612 -3.53554 -0.433344 0
M  V30 6157 O 574.471 -5.3881 -0.913589 0
M  V30 6158 H 571.565 -0.808666 -0.173172 0
M  V30 6159 H 574.111 -1.64713 0.408391 0
M  V30 6160 H 572.883 -3.86423 0.615841 0
M  V30 6161 H 572.506 -3.8212 -1.09864 0
M  V30 6162 N 573.503 -0.0852151 -1.57369 0
M  V30 6163 C 574.433 0.874556 -2.16503 0
M  V30 6164 C 575.414 1.30111 -1.09568 0
M  V30 6165 O 576.599 1.36977 -1.37662 0
M  V30 6166 C 573.729 2.13731 -2.73745 0
M  V30 6167 C 572.683 1.84971 -3.85966 0
M  V30 6168 C 572.009 3.17991 -4.29867 0
M  V30 6169 C 573.309 1.14442 -5.09608 0
M  V30 6170 H 575.003 0.381899 -2.96954 0
M  V30 6171 H 572.549 0.18225 -1.42842 0
M  V30 6172 H 574.502 2.81302 -3.13763 0
M  V30 6173 H 573.226 2.65263 -1.90534 0
M  V30 6174 H 571.885 1.19801 -3.46473 0
M  V30 6175 H 571.533 3.6739 -3.4356 0
M  V30 6176 H 571.233 2.99534 -5.05523 0
M  V30 6177 H 572.757 3.86737 -4.72511 0
M  V30 6178 H 574.171 1.72105 -5.46857 0
M  V30 6179 H 572.568 1.06197 -5.90629 0
M  V30 6180 H 573.638 0.12559 -4.84737 0
M  V30 6181 N 574.981 1.5647 0.188427 0
M  V30 6182 C 576.229 1.80655 0.905986 0
M  V30 6183 C 576.55 0.659391 1.83513 0
M  V30 6184 O 575.82 -0.321868 1.93238 0
M  V30 6185 H 574.4 0.666391 0.337538 0
M  V30 6186 H 577.062 1.93949 0.192339 0
M  V30 6187 H 576.158 2.74066 1.49313 0
M  V30 6188 N 576.459 -0.456382 1.50847 0
M  V30 6189 C 577.708 -1.2042 1.61808 0
M  V30 6190 C 578.021 -1.9278 0.330932 0
M  V30 6191 O 579.227 -2.69612 0.319643 0
M  V30 6192 C 577.683 -2.18891 2.85683 0
M  V30 6193 C 577.291 -1.52267 4.2133 0
M  V30 6194 C 579.035 -2.94224 3.05994 0
M  V30 6195 C 576.942 -2.4911 5.36375 0
M  V30 6196 H 575.872 -0.453177 0.602616 0
M  V30 6197 H 578.523 -0.473144 1.77295 0
M  V30 6198 H 576.905 -2.95351 2.63787 0
M  V30 6199 H 578.079 -0.814949 4.53536 0
M  V30 6200 H 576.394 -0.891594 4.06743 0
M  V30 6201 H 578.991 -3.66732 3.89117 0
M  V30 6202 H 579.334 -3.54469 2.18306 0
M  V30 6203 H 579.867 -2.24874 3.28141 0
M  V30 6204 H 576.606 -1.93582 6.26264 0
M  V30 6205 H 576.126 -3.17991 5.08569 0
M  V30 6206 H 577.805 -3.10637 5.67551 0
M  V30 6207 N 577.937 -1.40673 -0.710563 0
M  V30 6208 C 579.185 -1.38947 -1.46759 0
M  V30 6209 C 579.506 0.00572879 -1.94999 0
M  V30 6210 O 578.776 0.961358 -1.70689 0
M  V30 6211 H 577.356 -0.5114 -0.544499 0
M  V30 6212 H 580.018 -1.75773 -0.842012 0
M  V30 6213 H 579.114 -2.06745 -2.33801 0
M  V30 6214 N 579.415 0.9433 -1.26252 0
M  V30 6215 C 580.347 2.04542 -1.03417 0
M  V30 6216 C 581.36 1.62799 0.0046911 0
M  V30 6217 O 582.549 1.76944 -0.235146 0
M  V30 6218 C 579.649 3.34511 -0.543671 0
M  V30 6219 C 578.822 4.05033 -1.65128 0
M  V30 6220 C 577.881 5.13273 -1.1592 0
M  V30 6221 O 576.907 5.38095 -1.85586 0
M  V30 6222 N 578.109 5.805 -0.00649279 0
M  V30 6223 H 580.874 2.24699 -1.98319 0
M  V30 6224 H 578.435 1.11264 -1.1761 0
M  V30 6225 H 580.427 4.04212 -0.198703 0
M  V30 6226 H 578.997 3.11042 0.311711 0
M  V30 6227 H 578.217 3.29275 -2.16729 0
M  V30 6228 H 579.505 4.48903 -2.39508 0
M  V30 6229 H 578.903 5.62767 0.575347 0
M  V30 6230 H 577.46 6.51201 0.279416 0
M  V30 6231 N 580.893 1.08022 1.14757 0
M  V30 6232 C 582.142 0.802468 1.8505 0
M  V30 6233 C 582.455 -0.674061 1.83619 0
M  V30 6234 O 583.661 -1.06683 2.49662 0
M  V30 6235 C 582.117 1.38551 3.32162 0
M  V30 6236 C 581.725 2.89354 3.42021 0
M  V30 6237 C 583.469 1.18608 4.07594 0
M  V30 6238 C 581.376 3.40815 4.83321 0
M  V30 6239 H 580.306 0.296518 0.693248 0
M  V30 6240 H 582.957 1.30114 1.29393 0
M  V30 6241 H 581.339 0.814556 3.87532 0
M  V30 6242 H 582.513 3.52552 2.96722 0
M  V30 6243 H 580.828 3.08165 2.80041 0
M  V30 6244 H 583.425 1.54525 5.11885 0
M  V30 6245 H 583.768 0.125599 4.1611 0
M  V30 6246 H 584.301 1.72375 3.58513 0
M  V30 6247 H 581.04 4.46418 4.79991 0
M  V30 6248 H 580.56 2.82374 5.29174 0
M  V30 6249 H 582.239 3.37171 5.522 0
M  V30 6250 N 582.371 -1.3172 0.865308 0
M  V30 6251 C 583.62 -1.96145 0.470098 0
M  V30 6252 C 583.933 -1.69182 -0.981674 0
M  V30 6253 O 585.139 -2.27431 -1.48281 0
M  V30 6254 C 583.595 -3.51129 0.789732 0
M  V30 6255 C 583.203 -3.86938 2.25795 0
M  V30 6256 C 584.947 -4.2197 0.462765 0
M  V30 6257 C 582.854 -5.35012 2.52024 0
M  V30 6258 H 581.784 -0.734105 0.172065 0
M  V30 6259 H 584.435 -1.49959 1.05757 0
M  V30 6260 H 582.817 -3.95781 0.131571 0
M  V30 6261 H 583.991 -3.5326 2.95879 0
M  V30 6262 H 582.306 -3.29149 2.55049 0
M  V30 6263 H 584.903 -5.30904 0.636019 0
M  V30 6264 H 585.246 -4.12005 -0.59645 0
M  V30 6265 H 585.779 -3.82936 1.07727 0
M  V30 6266 H 582.518 -5.50008 3.56611 0
M  V30 6267 H 582.038 -5.70058 1.8653 0
M  V30 6268 H 583.717 -6.0222 2.36515 0
M  V30 6269 N 583.85 -0.624285 -1.44708 0
M  V30 6270 C 585.077 -0.132919 -2.06473 0
M  V30 6271 C 585.493 1.18967 -1.46602 0
M  V30 6272 O 584.85 1.72824 -0.586341 0
M  V30 6273 C 584.901 -0.00465418 -3.615 0
M  V30 6274 O 584.622 -1.27494 -4.19138 0
M  V30 6275 C 586.123 0.516213 -4.40284 0
M  V30 6276 H 583.343 -0.0765201 -0.666623 0
M  V30 6277 H 585.887 -0.856751 -1.85688 0
M  V30 6278 H 584.042 0.669583 -3.8157 0
M  V30 6279 H 584.456 -1.11536 -5.12504 0
M  V30 6280 H 585.93 0.554994 -5.49203 0
M  V30 6281 H 586.407 1.5419 -4.11245 0
M  V30 6282 H 587.013 -0.124542 -4.25118 0
M  V30 6283 N 585.328 1.53329 -0.364422 0
M  V30 6284 C 586.577 2.00421 0.226747 0
M  V30 6285 C 586.89 1.25581 1.49963 0
M  V30 6286 O 588.096 1.63256 2.16933 0
M  V30 6287 C 586.552 3.57017 0.454618 0
M  V30 6288 C 586.16 4.40734 -0.803568 0
M  V30 6289 C 587.904 4.12468 1.00351 0
M  V30 6290 C 585.811 5.8888 -0.545345 0
M  V30 6291 H 584.741 0.748787 0.0885082 0
M  V30 6292 H 587.392 1.7703 -0.482983 0
M  V30 6293 H 585.774 3.76558 1.22558 0
M  V30 6294 H 586.948 4.32967 -1.57723 0
M  V30 6295 H 585.263 3.96381 -1.27559 0
M  V30 6296 H 587.86 5.20783 1.212 0
M  V30 6297 H 588.203 3.6699 1.9653 0
M  V30 6298 H 588.736 3.96721 0.29274 0
M  V30 6299 H 585.475 6.38633 -1.47743 0
M  V30 6300 H 584.995 5.99499 0.189842 0
M  V30 6301 H 586.674 6.46776 -0.170425 0
M  V30 6302 N 586.806 0.0935595 1.57322 0
M  V30 6303 C 588.031 -0.582324 1.99057 0
M  V30 6304 C 588.456 -1.61025 0.972242 0
M  V30 6305 O 587.814 -1.81202 -0.0594622 0
M  V30 6306 C 587.862 -1.20799 3.39765 0
M  V30 6307 O 586.966 -2.32382 3.40694 0
M  V30 6308 H 586.307 -0.147884 0.647323 0
M  V30 6309 H 588.837 0.174516 2.03854 0
M  V30 6310 H 588.847 -1.54966 3.77425 0
M  V30 6311 H 587.522 -0.454914 4.13405 0
M  V30 6312 H 586.099 -1.99845 3.14827 0
M  V30 6313 N 588.284 -1.56567 -0.180126 0
M  V30 6314 C 589.533 -1.80685 -0.896426 0
M  V30 6315 C 589.846 -0.669335 -1.83791 0
M  V30 6316 O 591.052 -0.795209 -2.59593 0
M  V30 6317 C 589.508 -3.20132 -1.6445 0
M  V30 6318 C 589.116 -4.41727 -0.747088 0
M  V30 6319 C 590.86 -3.53549 -2.34955 0
M  V30 6320 C 588.767 -5.72195 -1.49489 0
M  V30 6321 H 587.697 -0.673758 -0.338477 0
M  V30 6322 H 590.348 -1.8289 -0.149467 0
M  V30 6323 H 588.73 -3.12218 -2.43589 0
M  V30 6324 H 589.904 -4.608 0.00671129 0
M  V30 6325 H 588.219 -4.16122 -0.152134 0
M  V30 6326 H 590.816 -4.48267 -2.91481 0
M  V30 6327 H 591.159 -2.78006 -3.09868 0
M  V30 6328 H 591.692 -3.62976 -1.62768 0
M  V30 6329 H 588.431 -6.50743 -0.788251 0
M  V30 6330 H 587.951 -5.57115 -2.22224 0
M  V30 6331 H 589.63 -6.1384 -2.04472 0
M  V30 6332 N 589.762 0.448376 -1.51087 0
M  V30 6333 C 590.99 1.22143 -1.66999 0
M  V30 6334 C 591.405 1.85283 -0.362699 0
M  V30 6335 O 590.762 1.70236 0.65772 0
M  V30 6336 C 590.813 2.31357 -2.7777 0
M  V30 6337 O 590.534 1.70801 -4.03434 0
M  V30 6338 C 592.035 3.21836 -3.04855 0
M  V30 6339 H 589.255 0.368558 -0.560719 0
M  V30 6340 H 591.799 0.532618 -1.97442 0
M  V30 6341 H 589.954 2.95973 -2.49958 0
M  V30 6342 H 590.368 2.42895 -4.64868 0
M  V30 6343 H 591.842 3.94627 -3.85971 0
M  V30 6344 H 592.319 3.81949 -2.16821 0
M  V30 6345 H 592.925 2.62933 -3.34285 0
M  V30 6346 N 591.24 1.41047 0.703093 0
M  V30 6347 C 592.203 1.42036 1.79884 0
M  V30 6348 C 593.203 0.312153 1.57741 0
M  V30 6349 O 594.393 0.571672 1.64553 0
M  V30 6350 C 591.525 1.22437 3.18154 0
M  V30 6351 H 592.718 2.39572 1.80403 0
M  V30 6352 H 590.271 1.27079 0.909977 0
M  V30 6353 H 591.006 0.257112 3.23279 0
M  V30 6354 H 590.791 2.02723 3.35627 0
M  V30 6355 H 592.281 1.25946 3.98155 0
M  V30 6356 N 592.718 -0.936591 1.26751 0
M  V30 6357 C 593.946 -1.71758 1.15355 0
M  V30 6358 C 594.361 -1.86549 -0.290683 0
M  V30 6359 O 593.718 -1.37616 -1.19868 0
M  V30 6360 C 593.769 -3.12193 1.82258 0
M  V30 6361 O 593.49 -2.98105 3.21038 0
M  V30 6362 C 594.991 -4.06485 1.76875 0
M  V30 6363 H 592.211 -0.537636 0.401483 0
M  V30 6364 H 594.755 -1.17382 1.67457 0
M  V30 6365 H 592.91 -3.63456 1.34083 0
M  V30 6366 H 593.324 -3.86824 3.54214 0
M  V30 6367 H 594.798 -5.02569 2.28316 0
M  V30 6368 H 595.275 -4.32986 0.736216 0
M  V30 6369 H 595.881 -3.61144 2.24623 0
M  V30 6370 N 594.196 -1.08629 -1.14182 0
M  V30 6371 C 595.421 -0.83902 -1.89671 0
M  V30 6372 C 595.846 0.603332 -1.78161 0
M  V30 6373 O 595.204 1.42301 -1.12339 0
M  V30 6374 C 595.252 -1.26854 -3.37551 0
M  V30 6375 O 594.356 -0.42188 -4.10236 0
M  V30 6376 H 593.697 -0.304545 -0.590041 0
M  V30 6377 H 596.227 -1.4483 -1.44518 0
M  V30 6378 H 596.237 -1.25038 -3.88368 0
M  V30 6379 H 594.912 -2.31901 -3.45246 0
M  V30 6380 H 593.489 -0.503654 -3.69483 0
M  V30 6381 N 595.674 1.31259 -0.872281 0
M  V30 6382 C 596.637 2.26744 -0.334656 0
M  V30 6383 C 597.637 1.52307 0.515681 0
M  V30 6384 O 598.827 1.71148 0.324656 0
M  V30 6385 C 595.959 3.36841 0.524482 0
M  V30 6386 H 597.152 2.75812 -1.17762 0
M  V30 6387 H 594.705 1.42232 -0.648064 0
M  V30 6388 H 595.44 2.93069 1.38855 0
M  V30 6389 H 595.225 3.92009 -0.0844299 0
M  V30 6390 H 596.715 4.07944 0.892838 0
M  V30 6391 N 597.152 0.631951 1.44375 0
M  V30 6392 C 598.377 0.142146 2.06912 0
M  V30 6393 C 598.802 -1.17456 1.4692 0
M  V30 6394 O 598.16 -1.72074 0.570975 0
M  V30 6395 C 598.208 0.0417952 3.60576 0
M  V30 6396 O 597.312 -1.00194 4.00044 0
M  V30 6397 H 596.653 0.0851491 0.658518 0
M  V30 6398 H 599.183 0.868863 1.85235 0
M  V30 6399 H 599.193 -0.148517 4.0773 0
M  V30 6400 H 597.868 1.0031 4.03622 0
M  V30 6401 H 596.445 -0.786131 3.64519 0
M  V30 6402 N 598.631 -1.53133 0.372548 0
M  V30 6403 C 599.88 -2.00539 -0.216115 0
M  V30 6404 C 600.193 -1.26374 -1.49295 0
M  V30 6405 O 601.399 -1.64404 -2.16064 0
M  V30 6406 C 599.855 -3.57253 -0.435678 0
M  V30 6407 C 599.463 -4.40302 0.82693 0
M  V30 6408 C 601.207 -4.12995 -0.981618 0
M  V30 6409 C 599.114 -5.88583 0.576567 0
M  V30 6410 H 598.044 -0.749246 -0.084536 0
M  V30 6411 H 600.695 -1.76771 0.492364 0
M  V30 6412 H 599.077 -3.77202 -1.20559 0
M  V30 6413 H 600.251 -4.32124 1.60017 0
M  V30 6414 H 598.566 -3.95699 1.29659 0
M  V30 6415 H 601.163 -5.21418 -1.18436 0
M  V30 6416 H 601.506 -3.68027 -1.94581 0
M  V30 6417 H 602.039 -3.96871 -0.271696 0
M  V30 6418 H 598.778 -6.37841 1.51128 0
M  V30 6419 H 598.298 -5.99592 -0.158047 0
M  V30 6420 H 599.977 -6.46676 0.204722 0
M  V30 6421 N 600.109 -0.101901 -1.5727 0
M  V30 6422 C 601.357 0.559091 -1.94213 0
M  V30 6423 C 601.678 1.68297 -0.984948 0
M  V30 6424 O 600.948 1.95863 -0.0381975 0
M  V30 6425 H 599.528 0.20952 -0.717015 0
M  V30 6426 H 602.19 -0.166831 -1.94185 0
M  V30 6427 H 601.286 0.96485 -2.96811 0
M  V30 6428 N 601.587 1.56661 0.17182 0
M  V30 6429 C 602.55 1.9549 1.19651 0
M  V30 6430 C 603.55 0.838501 1.37207 0
M  V30 6431 O 604.74 1.10556 1.34622 0
M  V30 6432 C 601.872 2.24927 2.56166 0
M  V30 6433 H 603.065 2.87184 0.864007 0
M  V30 6434 H 600.618 1.50711 0.41425 0
M  V30 6435 H 601.353 1.35944 2.94431 0
M  V30 6436 H 601.138 3.06301 2.4479 0
M  V30 6437 H 602.628 2.55891 3.30014 0
M  V30 6438 N 603.065 -0.440357 1.51323 0
M  V30 6439 C 604.028 -1.51679 1.71832 0
M  V30 6440 C 605.028 -1.49648 0.588386 0
M  V30 6441 O 606.218 -1.51724 0.855891 0
M  V30 6442 C 603.35 -2.91228 1.77199 0
M  V30 6443 H 604.543 -1.34799 2.67898 0
M  V30 6444 H 602.096 -0.66883 1.41267 0
M  V30 6445 H 602.831 -3.13516 0.829363 0
M  V30 6446 H 602.616 -2.94107 2.59314 0
M  V30 6447 H 604.106 -3.69321 1.94915 0
M  V30 6448 N 604.543 -1.41418 -0.695603 0
M  V30 6449 C 605.791 -1.40496 -1.45277 0
M  V30 6450 C 606.112 -0.0149538 -1.94994 0
M  V30 6451 O 605.382 0.9432 -1.71699 0
M  V30 6452 H 603.962 -0.517147 -0.539044 0
M  V30 6453 H 606.624 -1.76656 -0.823321 0
M  V30 6454 H 605.72 -2.09214 -2.31595 0
M  V30 6455 N 606.021 0.929856 -1.27246 0
M  V30 6456 C 607.267 1.6798 -1.13625 0
M  V30 6457 C 607.6 1.91586 0.317589 0
M  V30 6458 O 606.875 1.50467 1.23247 0
M  V30 6459 C 607.158 3.04766 -1.91806 0
M  V30 6460 C 607.011 2.88415 -3.45162 0
M  V30 6461 C 608.33 4.05063 -1.72082 0
M  V30 6462 H 605.449 0.609632 -0.414147 0
M  V30 6463 H 608.091 1.0792 -1.56376 0
M  V30 6464 H 606.241 3.56034 -1.55474 0
M  V30 6465 H 607.913 2.44282 -3.91311 0
M  V30 6466 H 606.156 2.23802 -3.71611 0
M  V30 6467 H 606.827 3.85482 -3.95105 0
M  V30 6468 H 609.303 3.62798 -2.03757 0
M  V30 6469 H 608.179 4.98765 -2.29182 0
M  V30 6470 H 608.44 4.37021 -0.668206 0
M  V30 6471 N 607.499 1.09233 1.13605 0
M  V30 6472 C 608.91 0.846839 1.6639 0
M  V30 6473 C 609.261 -0.625031 1.85978 0
M  V30 6474 O 608.386 -1.48173 1.57714 0
M  V30 6475 C 608.981 1.5307 3.0225 0
M  V30 6476 C 607.54 1.33223 3.52035 0
M  V30 6477 C 606.687 1.58806 2.27323 0
M  V30 6478 H 609.638 1.25175 0.975541 0
M  V30 6479 H 609.659 0.96267 3.68121 0
M  V30 6480 H 609.171 2.60192 2.87961 0
M  V30 6481 H 607.272 0.282091 3.71531 0
M  V30 6482 H 607.385 2.0657 4.32279 0
M  V30 6483 H 605.749 1.01007 2.33815 0
M  V30 6484 H 606.532 2.67153 2.15602 0
M  V30 6485 N 608.977 -1.30795 0.87923 0
M  V30 6486 C 609.909 -2.27241 0.299025 0
M  V30 6487 C 610.922 -1.53472 -0.543166 0
M  V30 6488 O 612.111 -1.74756 -0.363651 0
M  V30 6489 C 609.211 -3.33655 -0.593931 0
M  V30 6490 C 608.384 -4.36857 0.2179 0
M  V30 6491 C 607.443 -5.22715 -0.604646 0
M  V30 6492 O 606.469 -5.69192 -0.0293838 0
M  V30 6493 N 607.671 -5.48008 -1.91488 0
M  V30 6494 H 610.436 -2.77667 1.12788 0
M  V30 6495 H 607.997 -1.43914 0.741637 0
M  V30 6496 H 609.989 -3.88013 -1.15012 0
M  V30 6497 H 608.559 -2.83202 -1.32346 0
M  V30 6498 H 607.779 -3.82444 0.955536 0
M  V30 6499 H 609.067 -5.02869 0.774614 0
M  V30 6500 H 608.465 -5.1202 -2.40525 0
M  V30 6501 H 607.022 -6.05264 -2.41864 0
M  V30 6502 N 610.455 -0.639598 -1.44038 0
M  V30 6503 C 611.418 0.0506628 -2.29144 0
M  V30 6504 C 612.418 0.764001 -1.41491 0
M  V30 6505 O 613.608 0.607309 -1.63271 0
M  V30 6506 C 610.74 1.0824 -3.2326 0
M  V30 6507 H 611.933 -0.697987 -2.91664 0
M  V30 6508 H 609.486 -0.400146 -1.51091 0
M  V30 6509 H 610.221 1.86075 -2.65606 0
M  V30 6510 H 610.006 0.574725 -3.87865 0
M  V30 6511 H 611.496 1.56487 -3.87171 0
M  V30 6512 N 611.933 1.52934 -0.380664 0
M  V30 6513 C 613.181 2.01069 0.203874 0
M  V30 6514 C 613.502 1.26922 1.4804 0
M  V30 6515 O 612.772 0.386787 1.92044 0
M  V30 6516 H 611.352 0.742882 0.0783279 0
M  V30 6517 H 614.014 1.88099 -0.510368 0
M  V30 6518 H 613.11 3.09258 0.42021 0
M  V30 6519 N 613.412 0.11024 1.57214 0
M  V30 6520 C 614.342 -0.840002 2.17867 0
M  V30 6521 C 615.323 -1.28352 1.11624 0
M  V30 6522 O 616.508 -1.3477 1.39824 0
M  V30 6523 C 613.638 -2.09349 2.77111 0
M  V30 6524 C 612.592 -1.78807 3.8886 0
M  V30 6525 C 611.918 -3.11112 4.34872 0
M  V30 6526 C 613.218 -1.0632 5.11364 0
M  V30 6527 H 614.912 -0.334608 2.97524 0
M  V30 6528 H 612.458 -0.159502 1.43114 0
M  V30 6529 H 614.411 -2.76275 3.18198 0
M  V30 6530 H 613.135 -2.62198 1.9473 0
M  V30 6531 H 611.794 -1.14273 3.48335 0
M  V30 6532 H 611.442 -3.61877 3.49362 0
M  V30 6533 H 611.142 -2.91453 5.10224 0
M  V30 6534 H 612.666 -3.79171 4.78604 0
M  V30 6535 H 614.08 -1.63383 5.49526 0
M  V30 6536 H 612.477 -0.967876 5.92243 0
M  V30 6537 H 613.547 -0.0484569 4.84876 0
M  V30 6538 N 614.89 -1.56749 -0.16351 0
M  V30 6539 C 616.136 -1.82704 -0.880168 0
M  V30 6540 C 616.469 -0.689311 -1.81555 0
M  V30 6541 O 615.744 0.308224 -1.92042 0
M  V30 6542 C 616.027 -3.19084 -1.66905 0
M  V30 6543 C 615.88 -4.43397 -0.756269 0
M  V30 6544 C 617.199 -3.52493 -2.63509 0
M  V30 6545 H 614.318 -0.664608 -0.318535 0
M  V30 6546 H 616.96 -1.89438 -0.146036 0
M  V30 6547 H 615.11 -3.13475 -2.2949 0
M  V30 6548 H 616.782 -4.61079 -0.14269 0
M  V30 6549 H 615.025 -4.33752 -0.0647944 0
M  V30 6550 H 615.696 -5.3539 -1.34393 0
M  V30 6551 H 618.172 -3.58606 -2.11047 0
M  V30 6552 H 617.048 -4.48979 -3.15767 0
M  V30 6553 H 617.309 -2.77597 -3.44082 0
M  V30 6554 N 616.368 0.432326 -1.51554 0
M  V30 6555 C 617.596 1.20364 -1.68286 0
M  V30 6556 C 618.011 1.84888 -0.38233 0
M  V30 6557 O 617.368 1.70924 0.639627 0
M  V30 6558 C 617.419 2.28398 -2.80208 0
M  V30 6559 O 617.14 1.66512 -4.05223 0
M  V30 6560 C 618.641 3.18584 -3.08251 0
M  V30 6561 H 615.861 0.36259 -0.564596 0
M  V30 6562 H 618.405 0.511647 -1.97996 0
M  V30 6563 H 616.56 2.93305 -2.53083 0
M  V30 6564 H 616.974 2.37951 -4.67418 0
M  V30 6565 H 618.448 3.90511 -3.90135 0
M  V30 6566 H 618.925 3.79628 -2.2086 0
M  V30 6567 H 619.531 2.59372 -3.37055 0
M  V30 6568 N 617.846 1.41785 0.688094 0
M  V30 6569 C 618.779 1.38643 1.81255 0
M  V30 6570 C 619.757 0.252583 1.60626 0
M  V30 6571 O 620.941 0.440691 1.83276 0
M  V30 6572 C 618.068 1.16449 3.18053 0
M  V30 6573 C 617.114 2.32651 3.57457 0
M  V30 6574 S 617.947 3.95152 3.61407 0
M  V30 6575 C 619.103 3.75275 5.00919 0
M  V30 6576 H 619.336 2.33799 1.83644 0
M  V30 6577 H 616.869 1.28398 0.857513 0
M  V30 6578 H 618.827 1.0433 3.97021 0
M  V30 6579 H 617.488 0.229002 3.13264 0
M  V30 6580 H 616.681 2.12835 4.56856 0
M  V30 6581 H 616.283 2.41215 2.85817 0
M  V30 6582 H 618.575 3.35443 5.88629 0
M  V30 6583 H 619.518 4.74302 5.25778 0
M  V30 6584 H 619.926 3.08401 4.7281 0
M  V30 6585 N 619.324 -0.923095 1.27737 0
M  V30 6586 C 620.57 -1.67375 1.14514 0
M  V30 6587 C 620.903 -1.91751 -0.307424 0
M  V30 6588 O 620.178 -1.51119 -1.22447 0
M  V30 6589 C 620.461 -3.03745 1.9342 0
M  V30 6590 C 620.314 -2.86581 3.46686 0
M  V30 6591 C 621.633 -4.04144 1.74228 0
M  V30 6592 H 618.752 -0.607427 0.417374 0
M  V30 6593 H 621.394 -1.07089 1.56946 0
M  V30 6594 H 619.544 -3.55204 1.5736 0
M  V30 6595 H 621.216 -2.42203 3.92601 0
M  V30 6596 H 619.459 -2.21829 3.72793 0
M  V30 6597 H 620.13 -3.83381 3.97143 0
M  V30 6598 H 622.606 -3.61712 2.05678 0
M  V30 6599 H 621.482 -4.97543 2.31824 0
M  V30 6600 H 621.743 -4.36661 0.691373 0
M  V30 6601 N 620.802 -1.09834 -1.13024 0
M  V30 6602 C 622.051 -0.831806 -1.83749 0
M  V30 6603 C 622.364 0.644763 -1.84668 0
M  V30 6604 O 623.57 1.02697 -2.51327 0
M  V30 6605 C 622.026 -1.43817 -3.29916 0
M  V30 6606 C 621.634 -2.94759 -3.37374 0
M  V30 6607 C 623.378 -1.25077 -4.05655 0
M  V30 6608 C 621.285 -3.48461 -4.77838 0
M  V30 6609 H 620.215 -0.30751 -0.688443 0
M  V30 6610 H 622.866 -1.32156 -1.27307 0
M  V30 6611 H 621.248 -0.876106 -3.86187 0
M  V30 6612 H 622.422 -3.57228 -2.91076 0
M  V30 6613 H 620.737 -3.12581 -2.75103 0
M  V30 6614 H 623.334 -1.62649 -5.09362 0
M  V30 6615 H 623.677 -0.191782 -4.15858 0
M  V30 6616 H 624.21 -1.78057 -3.55725 0
M  V30 6617 H 620.949 -4.53998 -4.72828 0
M  V30 6618 H 620.469 -2.90757 -5.24615 0
M  V30 6619 H 622.148 -3.45914 -5.46766 0
M  V30 6620 N 622.28 1.30327 -0.886154 0
M  V30 6621 C 623.526 1.96388 -0.505941 0
M  V30 6622 C 623.859 1.69784 0.942712 0
M  V30 6623 O 623.134 1.00322 1.6663 0
M  V30 6624 C 623.417 3.51488 -0.782826 0
M  V30 6625 C 623.27 3.87603 -2.28219 0
M  V30 6626 C 624.589 4.39331 -0.260128 0
M  V30 6627 H 621.708 0.713327 -0.185292 0
M  V30 6628 H 624.35 1.54178 -1.11036 0
M  V30 6629 H 622.5 3.87572 -0.268399 0
M  V30 6630 H 624.172 3.61537 -2.86512 0
M  V30 6631 H 622.415 3.3563 -2.74837 0
M  V30 6632 H 623.086 4.95806 -2.42653 0
M  V30 6633 H 625.562 4.10162 -0.700444 0
M  V30 6634 H 624.438 5.46769 -0.483179 0
M  V30 6635 H 624.699 4.34072 0.838674 0
M  V30 6636 N 623.758 0.647228 1.43697 0
M  V30 6637 C 624.688 -0.0345631 2.33474 0
M  V30 6638 C 625.669 -0.818193 1.4913 0
M  V30 6639 O 626.854 -0.780867 1.77809 0
M  V30 6640 C 623.984 -1.00576 3.32418 0
M  V30 6641 C 622.938 -0.33266 4.26705 0
M  V30 6642 C 622.264 -1.41489 5.1564 0
M  V30 6643 C 623.564 0.771204 5.16575 0
M  V30 6644 H 625.258 0.715163 2.90733 0
M  V30 6645 H 622.804 0.345364 1.39797 0
M  V30 6646 H 624.757 -1.49159 3.94119 0
M  V30 6647 H 623.481 -1.78657 2.73403 0
M  V30 6648 H 622.14 0.13267 3.6636 0
M  V30 6649 H 621.788 -2.18698 4.52968 0
M  V30 6650 H 621.488 -0.969799 5.79542 0
M  V30 6651 H 623.012 -1.9022 5.80214 0
M  V30 6652 H 624.426 0.36779 5.72119 0
M  V30 6653 H 622.823 1.1404 5.89165 0
M  V30 6654 H 623.893 1.63169 4.56622 0
M  V30 6655 N 625.236 -1.5273 0.388769 0
M  V30 6656 C 626.461 -2.0647 -0.19621 0
M  V30 6657 C 626.886 -1.25865 -1.39784 0
M  V30 6658 O 626.244 -0.283562 -1.79069 0
M  V30 6659 C 626.292 -3.56456 -0.5451 0
M  V30 6660 O 625.396 -3.78426 -1.63912 0
M  V30 6661 H 624.737 -0.663599 -0.023067 0
M  V30 6662 H 627.267 -1.96898 0.556084 0
M  V30 6663 H 627.277 -3.99888 -0.809557 0
M  V30 6664 H 625.952 -4.14561 0.333417 0
M  V30 6665 H 624.529 -3.46884 -1.36842 0
M  V30 6666 N 626.714 -0.118576 -1.57153 0
M  V30 6667 C 627.677 0.817464 -2.14127 0
M  V30 6668 C 628.677 1.1949 -1.07604 0
M  V30 6669 O 629.867 1.12048 -1.33382 0
M  V30 6670 C 626.999 2.10541 -2.68115 0
M  V30 6671 H 628.192 0.322339 -2.98163 0
M  V30 6672 H 625.745 0.130655 -1.55753 0
M  V30 6673 H 626.48 2.64485 -1.87665 0
M  V30 6674 H 626.265 1.84425 -3.4602 0
M  V30 6675 H 627.755 2.77453 -3.12105 0
M  V30 6676 N 628.193 1.56834 0.155195 0
M  V30 6677 C 629.439 1.83169 0.870467 0
M  V30 6678 C 629.772 0.698929 1.81187 0
M  V30 6679 O 629.047 -0.298035 1.92203 0
M  V30 6680 C 629.33 3.19965 1.65211 0
M  V30 6681 C 629.183 4.43792 0.732744 0
M  V30 6682 C 630.502 3.53885 2.61636 0
M  V30 6683 H 627.621 0.666288 0.315006 0
M  V30 6684 H 630.263 1.89513 0.135988 0
M  V30 6685 H 628.413 3.14687 2.27825 0
M  V30 6686 H 630.085 4.61148 0.118236 0
M  V30 6687 H 628.328 4.3378 0.0417906 0
M  V30 6688 H 628.999 5.36095 1.31552 0
M  V30 6689 H 631.475 3.5972 2.09143 0
M  V30 6690 H 630.351 4.50648 3.13381 0
M  V30 6691 H 630.612 2.79418 3.42605 0
M  V30 6692 N 629.671 -0.424282 1.51781 0
M  V30 6693 C 630.919 -1.17028 1.64769 0
M  V30 6694 C 631.24 -1.91409 0.372523 0
M  V30 6695 O 630.51 -1.86091 -0.612108 0
M  V30 6696 H 629.09 -0.434992 0.607282 0
M  V30 6697 H 631.752 -0.485169 1.88765 0
M  V30 6698 H 630.848 -1.8927 2.4816 0
M  V30 6699 N 631.149 -1.42148 -0.680565 0
M  V30 6700 C 632.079 -1.4796 -1.80638 0
M  V30 6701 C 633.06 -0.336728 -1.66734 0
M  V30 6702 O 634.245 -0.550247 -1.86242 0
M  V30 6703 C 631.375 -1.37569 -3.18892 0
M  V30 6704 C 630.329 -2.49823 -3.47524 0
M  V30 6705 C 629.655 -2.24491 -4.85291 0
M  V30 6706 C 630.955 -3.92144 -3.44994 0
M  V30 6707 H 632.649 -2.42184 -1.76032 0
M  V30 6708 H 630.195 -1.16566 -0.845481 0
M  V30 6709 H 632.148 -1.40243 -3.97379 0
M  V30 6710 H 630.872 -0.398357 -3.24162 0
M  V30 6711 H 629.531 -2.46455 -2.71395 0
M  V30 6712 H 629.179 -1.25066 -4.87204 0
M  V30 6713 H 628.879 -2.99722 -5.05411 0
M  V30 6714 H 630.403 -2.28906 -5.66069 0
M  V30 6715 H 631.817 -3.97145 -4.13459 0
M  V30 6716 H 630.214 -4.67179 -3.76648 0
M  V30 6717 H 631.284 -4.19225 -2.43676 0
M  V30 6718 N 632.627 0.916307 -1.28225 0
M  V30 6719 C 634.038 1.48024 -1.13779 0
M  V30 6720 C 634.389 1.94289 0.273139 0
M  V30 6721 O 633.514 1.82226 1.16716 0
M  V30 6722 C 634.109 2.69029 -2.05935 0
M  V30 6723 C 632.668 3.2161 -1.95561 0
M  V30 6724 C 631.815 1.94321 -1.97825 0
M  V30 6725 H 634.766 0.729272 -1.40951 0
M  V30 6726 H 634.787 3.44204 -1.62184 0
M  V30 6727 H 634.299 2.35325 -3.08616 0
M  V30 6728 H 632.4 3.60045 -0.959076 0
M  V30 6729 H 632.513 3.87032 -2.82388 0
M  V30 6730 H 630.877 2.1131 -1.42198 0
M  V30 6731 H 631.66 1.62917 -3.0218 0
M  V30 6732 N 634.105 1.10431 1.1244 0
M  V30 6733 C 635.068 0.756542 2.16354 0
M  V30 6734 C 636.068 -0.21899 1.59302 0
M  V30 6735 O 637.258 0.00415969 1.742 0
M  V30 6736 C 634.39 0.120612 3.40687 0
M  V30 6737 H 635.583 1.67696 2.48632 0
M  V30 6738 H 633.136 0.904832 1.27446 0
M  V30 6739 H 633.871 -0.810536 3.14008 0
M  V30 6740 H 633.656 0.822693 3.83372 0
M  V30 6741 H 635.146 -0.106945 4.17463 0
M  V30 6742 N 635.583 -1.29855 0.893053 0
M  V30 6743 C 636.493 -2.31661 0.370157 0
M  V30 6744 C 637.509 -1.65677 -0.531723 0
M  V30 6745 O 638.685 -1.9691 -0.422902 0
M  V30 6746 C 635.75 -3.44388 -0.399741 0
M  V30 6747 C 634.811 -4.2598 0.532861 0
M  V30 6748 C 634.044 -5.33324 -0.200388 0
M  V30 6749 O 634.267 -5.52305 -1.42531 0
M  V30 6750 O 633.201 -6.00188 0.453668 0
M  V30 6751 H 637.027 -2.78354 1.2146 0
M  V30 6752 H 634.612 -1.34171 0.657153 0
M  V30 6753 H 636.494 -4.13037 -0.835358 0
M  V30 6754 H 635.169 -2.99815 -1.22035 0
M  V30 6755 H 634.076 -3.59998 1.01746 0
M  V30 6756 H 635.409 -4.74178 1.3197 0
M  V30 6757 N 637.061 -0.65484 -1.43351 0
M  V30 6758 C 638.338 -0.0987371 -1.95351 0
M  V30 6759 C 638.718 1.38161 -1.59608 0
M  V30 6760 O 638.066 2.10791 -0.882021 0
M  V30 6761 C 638.276 -0.346684 -3.47274 0
M  V30 6762 C 639.624 -0.25249 -4.23849 0
M  V30 6763 O 640.648 -0.279332 -3.55103 0
M  V30 6764 O 639.507 -0.177584 -5.46211 0
M  V30 6765 H 636.601 0.0086829 -0.826954 0
M  V30 6766 H 639.147 -0.728189 -1.53282 0
M  V30 6767 H 637.919 -1.37296 -3.66423 0
M  V30 6768 H 637.542 0.315757 -3.96344 0
M  V30 6769 N 638.539 1.52521 -0.396863 0
M  V30 6770 C 639.785 2.01971 0.183169 0
M  V30 6771 C 640.118 1.2825 1.45827 0
M  V30 6772 O 639.393 0.385179 1.90648 0
M  V30 6773 C 639.676 3.5736 0.443391 0
M  V30 6774 C 639.529 4.41743 -0.84753 0
M  V30 6775 C 640.848 4.22539 1.2308 0
M  V30 6776 H 637.967 0.734119 0.0650976 0
M  V30 6777 H 640.609 1.82519 -0.527918 0
M  V30 6778 H 638.759 3.74066 1.04914 0
M  V30 6779 H 640.431 4.36773 -1.48414 0
M  V30 6780 H 638.674 4.0845 -1.4612 0
M  V30 6781 H 639.345 5.48507 -0.620003 0
M  V30 6782 H 641.821 4.09857 0.718084 0
M  V30 6783 H 640.697 5.31227 1.38162 0
M  V30 6784 H 640.958 3.80675 2.24808 0
M  V30 6785 N 640.017 0.126909 1.57088 0
M  V30 6786 C 641.245 -0.53667 1.99819 0
M  V30 6787 C 641.66 -1.5972 1.00673 0
M  V30 6788 O 641.017 -1.825 0.000747365 0
M  V30 6789 C 641.068 -1.15563 3.42531 0
M  V30 6790 O 640.789 -0.137483 4.37884 0
M  V30 6791 C 642.29 -1.90176 4.00435 0
M  V30 6792 H 639.51 -0.141443 0.655923 0
M  V30 6793 H 642.054 0.215578 2.03361 0
M  V30 6794 H 640.209 -1.85861 3.39904 0
M  V30 6795 H 640.623 -0.588229 5.21191 0
M  V30 6796 H 642.097 -2.28801 5.02349 0
M  V30 6797 H 642.574 -2.78002 3.40017 0
M  V30 6798 H 643.18 -1.24623 4.06632 0
M  V30 6799 N 641.495 -1.56914 -0.146875 0
M  V30 6800 C 642.425 -2.01308 -1.1831 0
M  V30 6801 C 643.406 -0.892664 -1.44795 0
M  V30 6802 O 644.591 -1.16048 -1.55713 0
M  V30 6803 C 641.721 -2.3938 -2.51624 0
M  V30 6804 C 640.675 -3.54608 -2.3966 0
M  V30 6805 C 640.001 -3.78493 -3.77686 0
M  V30 6806 C 641.301 -4.87269 -1.88058 0
M  V30 6807 H 642.995 -2.88123 -0.813964 0
M  V30 6808 H 640.541 -1.38615 -0.3901 0
M  V30 6809 H 642.494 -2.69037 -3.24341 0
M  V30 6810 H 641.218 -1.49502 -2.90373 0
M  V30 6811 H 639.877 -3.25116 -1.69396 0
M  V30 6812 H 639.525 -2.85866 -4.13871 0
M  V30 6813 H 639.225 -4.56039 -3.70543 0
M  V30 6814 H 640.749 -4.10576 -4.51951 0
M  V30 6815 H 642.163 -5.15644 -2.50568 0
M  V30 6816 H 640.56 -5.68622 -1.91805 0
M  V30 6817 H 641.63 -4.77634 -0.836277 0
M  V30 6818 N 642.974 0.416227 -1.52004 0
M  V30 6819 C 644.223 1.16088 -1.64944 0
M  V30 6820 C 644.536 1.91835 -0.381928 0
M  V30 6821 O 645.742 2.6867 -0.391013 0
M  V30 6822 C 644.198 2.1124 -2.91386 0
M  V30 6823 C 643.806 1.41042 -4.25219 0
M  V30 6824 C 645.55 2.86008 -3.13688 0
M  V30 6825 C 643.457 2.34801 -5.42791 0
M  V30 6826 H 642.387 0.437041 -0.61442 0
M  V30 6827 H 645.038 0.425971 -1.78487 0
M  V30 6828 H 643.42 2.88254 -2.71525 0
M  V30 6829 H 644.594 0.694416 -4.55538 0
M  V30 6830 H 642.909 0.78344 -4.08964 0
M  V30 6831 H 645.506 3.56286 -3.98703 0
M  V30 6832 H 645.849 3.48556 -2.27628 0
M  V30 6833 H 646.382 2.16095 -3.33988 0
M  V30 6834 H 643.121 1.7691 -6.31176 0
M  V30 6835 H 642.641 3.04395 -5.16821 0
M  V30 6836 H 644.32 2.9548 -5.75587 0
M  V30 6837 N 644.452 1.42507 0.673017 0
M  V30 6838 C 645.701 1.42364 1.42883 0
M  V30 6839 C 646.014 0.0441598 1.9555 0
M  V30 6840 O 647.22 -0.0798679 2.71382 0
M  V30 6841 C 645.676 2.5043 2.58482 0
M  V30 6842 C 645.284 3.94392 2.12506 0
M  V30 6843 C 647.028 2.59455 3.35981 0
M  V30 6844 C 644.935 4.93964 3.25198 0
M  V30 6845 H 643.865 0.52951 0.536782 0
M  V30 6846 H 646.516 1.68422 0.728448 0
M  V30 6847 H 644.898 2.1754 3.30896 0
M  V30 6848 H 646.072 4.36645 1.47233 0
M  V30 6849 H 644.387 3.89233 1.4794 0
M  V30 6850 H 646.984 3.31025 4.19912 0
M  V30 6851 H 647.327 1.63869 3.82691 0
M  V30 6852 H 647.86 2.91549 2.70637 0
M  V30 6853 H 644.599 5.91034 2.83477 0
M  V30 6854 H 644.119 4.56341 3.89247 0
M  V30 6855 H 645.798 5.15763 3.90637 0
M  V30 6856 N 645.93 -0.909495 1.28709 0
M  V30 6857 C 646.893 -1.99399 1.13016 0
M  V30 6858 C 647.893 -1.60654 0.068536 0
M  V30 6859 O 649.083 -1.71334 0.314671 0
M  V30 6860 C 646.215 -3.33078 0.726085 0
M  V30 6861 H 647.408 -2.14751 2.09338 0
M  V30 6862 H 644.961 -1.09272 1.11756 0
M  V30 6863 H 645.696 -3.23428 -0.23771 0
M  V30 6864 H 645.481 -3.62562 1.49302 0
M  V30 6865 H 646.971 -4.12681 0.639058 0
M  V30 6866 N 647.408 -1.11026 -1.11852 0
M  V30 6867 C 648.654 -0.857729 -1.83768 0
M  V30 6868 C 648.987 0.615143 -1.842 0
M  V30 6869 O 648.262 1.45391 -1.29196 0
M  V30 6870 C 648.545 -1.41453 -3.31154 0
M  V30 6871 C 648.398 -2.95471 -3.39142 0
M  V30 6872 C 649.717 -1.0619 -4.27097 0
M  V30 6873 H 646.836 -0.313044 -0.667212 0
M  V30 6874 H 649.478 -1.37443 -1.31185 0
M  V30 6875 H 647.628 -0.975052 -3.76065 0
M  V30 6876 H 649.3 -3.4799 -3.02821 0
M  V30 6877 H 647.543 -3.31759 -2.79497 0
M  V30 6878 H 648.214 -3.29515 -4.42859 0
M  V30 6879 H 650.69 -1.44122 -3.90344 0
M  V30 6880 H 649.566 -1.47832 -5.28618 0
M  V30 6881 H 649.827 0.0278912 -4.42091 0
M  V30 6882 N 648.886 1.2938 -0.899927 0
M  V30 6883 C 650.163 1.9046 -0.445443 0
M  V30 6884 C 650.543 1.81683 1.07492 0
M  V30 6885 O 649.891 1.24371 1.91688 0
M  V30 6886 C 650.101 3.35529 -0.960279 0
M  V30 6887 C 651.449 4.12556 -1.00412 0
M  V30 6888 O 652.473 3.44434 -0.907965 0
M  V30 6889 O 651.332 5.34294 -1.14857 0
M  V30 6890 H 648.426 0.815253 -0.138893 0
M  V30 6891 H 650.972 1.37844 -0.989808 0
M  V30 6892 H 649.744 3.36074 -2.00425 0
M  V30 6893 H 649.367 3.95624 -0.395939 0
M  V30 6894 N 650.364 0.662433 1.43002 0
M  V30 6895 C 651.61 0.188492 2.02525 0
M  V30 6896 C 651.965 -1.18752 1.51379 0
M  V30 6897 O 651.258 -1.78313 0.701065 0
M  V30 6898 C 651.452 0.149363 3.57088 0
M  V30 6899 C 651.281 1.52004 4.23231 0
M  V30 6900 C 650.051 2.11473 4.5892 0
M  V30 6901 C 652.249 2.46028 4.51635 0
M  V30 6902 N 650.231 3.4145 5.10181 0
M  V30 6903 C 651.602 3.60647 5.04315 0
M  V30 6904 C 653.657 2.44715 4.33612 0
M  V30 6905 C 652.36 4.74189 5.40867 0
M  V30 6906 C 654.386 3.57344 4.71232 0
M  V30 6907 C 653.748 4.70689 5.24053 0
M  V30 6908 H 649.847 0.113615 0.773703 0
M  V30 6909 H 652.431 0.872738 1.74044 0
M  V30 6910 H 650.602 -0.504255 3.85113 0
M  V30 6911 H 652.334 -0.336307 4.033 0
M  V30 6912 H 649.089 1.64087 4.44266 0
M  V30 6913 H 649.513 4.07987 5.40255 0
M  V30 6914 H 654.155 1.58318 3.9204 0
M  V30 6915 H 651.873 5.61271 5.81378 0
M  V30 6916 H 655.459 3.5754 4.58973 0
M  V30 6917 H 654.339 5.56398 5.52621 0
M  V30 6918 N 651.842 -1.52309 0.404946 0
M  V30 6919 C 652.772 -2.29805 -0.41376 0
M  V30 6920 C 653.753 -1.3384 -1.0498 0
M  V30 6921 O 654.938 -1.62745 -1.05961 0
M  V30 6922 C 652.068 -3.11639 -1.53292 0
M  V30 6923 C 651.022 -4.15616 -1.02211 0
M  V30 6924 C 650.348 -4.8577 -2.23455 0
M  V30 6925 C 651.648 -5.2224 -0.0790725 0
M  V30 6926 H 653.342 -2.98493 0.232878 0
M  V30 6927 H 650.888 -1.43552 0.113441 0
M  V30 6928 H 652.841 -3.64618 -2.11262 0
M  V30 6929 H 651.565 -2.40712 -2.20738 0
M  V30 6930 H 650.224 -3.63641 -0.46484 0
M  V30 6931 H 649.872 -4.11376 -2.89445 0
M  V30 6932 H 649.572 -5.56058 -1.89929 0
M  V30 6933 H 651.096 -5.4156 -2.82038 0
M  V30 6934 H 652.51 -5.70485 -0.567438 0
M  V30 6935 H 650.907 -5.99867 0.167167 0
M  V30 6936 H 651.977 -4.77078 0.867447 0
M  V30 6937 N 653.32 -0.135238 -1.57019 0
M  V30 6938 C 654.25 0.805235 -2.19176 0
M  V30 6939 C 655.231 1.2656 -1.13651 0
M  V30 6940 O 656.416 1.32528 -1.4195 0
M  V30 6941 C 653.546 2.04914 -2.80406 0
M  V30 6942 C 652.5 1.72598 -3.91655 0
M  V30 6943 C 651.826 3.04154 -4.39766 0
M  V30 6944 C 653.126 0.981709 -5.12991 0
M  V30 6945 H 654.82 0.287232 -2.98019 0
M  V30 6946 H 652.366 0.136714 -1.4335 0
M  V30 6947 H 654.319 2.71178 -3.22553 0
M  V30 6948 H 653.043 2.59067 -1.98877 0
M  V30 6949 H 651.702 1.08717 -3.50109 0
M  V30 6950 H 651.35 3.56274 -3.55075 0
M  V30 6951 H 651.05 2.83299 -5.14796 0
M  V30 6952 H 652.574 3.71509 -4.84576 0
M  V30 6953 H 653.988 1.5462 -5.52056 0
M  V30 6954 H 652.385 0.873533 -5.93708 0
M  V30 6955 H 653.455 -0.0286887 -4.84892 0
M  V30 6956 N 654.798 1.5699 0.138552 0
M  V30 6957 C 656.075 1.74741 0.87891 0
M  V30 6958 C 656.455 0.705522 1.98961 0
M  V30 6959 O 655.803 -0.274066 2.2685 0
M  V30 6960 C 656.013 3.1909 1.4136 0
M  V30 6961 C 657.361 3.81023 1.87368 0
M  V30 6962 O 658.385 3.22571 1.51084 0
M  V30 6963 O 657.244 4.83722 2.54312 0
M  V30 6964 H 654.338 0.714781 0.415953 0
M  V30 6965 H 656.884 1.69248 0.123817 0
M  V30 6966 H 655.656 3.86424 0.61579 0
M  V30 6967 H 655.279 3.29043 2.23196 0
M  V30 6968 N 656.276 -0.40816 1.52223 0
M  V30 6969 C 657.692 -0.74685 1.41047 0
M  V30 6970 C 657.892 -1.94788 0.51573 0
M  V30 6971 O 656.948 -2.52494 -0.0181156 0
M  V30 6972 C 658.261 -0.999878 2.83589 0
M  V30 6973 C 659.809 -1.10253 2.92939 0
M  V30 6974 C 660.284 -1.38832 4.36451 0
M  V30 6975 N 661.775 -1.45694 4.3969 0
M  V30 6976 C 662.51 -1.69435 5.47795 0
M  V30 6977 N 662.006 -1.90774 6.66016 0
M  V30 6978 N 663.799 -1.71458 5.35312 0
M  V30 6979 H 655.95 0.382409 2.08929 0
M  V30 6980 H 658.213 0.108807 0.941735 0
M  V30 6981 H 657.919 -0.189723 3.51188 0
M  V30 6982 H 657.793 -1.91978 3.24691 0
M  V30 6983 H 660.18 -1.90328 2.2552 0
M  V30 6984 H 660.261 -0.160973 2.55293 0
M  V30 6985 H 659.905 -0.592741 5.04429 0
M  V30 6986 H 659.835 -2.34241 4.71634 0
M  V30 6987 H 662.326 -1.3099 3.54472 0
M  V30 6988 H 662.639 -2.08342 7.44186 0
M  V30 6989 H 660.984 -1.88037 6.69079 0
M  V30 6990 H 664.175 -1.54326 4.41929 0
M  V30 6991 H 664.348 -1.89621 6.19635 0
M  V30 6992 N 657.755 -1.42862 -0.66545 0
M  V30 6993 C 659.002 -1.4383 -1.42546 0
M  V30 6994 C 659.33 -0.0581114 -1.94413 0
M  V30 6995 O 658.585 0.935002 -1.71919 0
M  V30 6996 C 658.884 -2.4175 -2.63233 0
M  V30 6997 C 658.55 -3.87915 -2.29854 0
M  V30 6998 C 657.212 -4.27726 -2.20463 0
M  V30 6999 C 659.564 -4.80074 -2.02924 0
M  V30 7000 C 656.892 -5.57666 -1.82279 0
M  V30 7001 C 659.244 -6.10366 -1.66242 0
M  V30 7002 C 657.908 -6.49167 -1.55367 0
M  V30 7003 H 657.178 -0.52631 -0.521612 0
M  V30 7004 H 659.825 -1.75863 -0.757914 0
M  V30 7005 H 658.13 -2.03077 -3.35063 0
M  V30 7006 H 659.827 -2.39759 -3.21429 0
M  V30 7007 H 656.417 -3.564 -2.3807 0
M  V30 7008 H 660.601 -4.50097 -2.09108 0
M  V30 7009 H 655.857 -5.8658 -1.72436 0
M  V30 7010 H 660.031 -6.81258 -1.44432 0
M  V30 7011 H 657.658 -7.49761 -1.2555 0
M  V30 7012 N 659.233 0.902656 -1.29189 0
M  V30 7013 C 660.649 1.18296 -1.07137 0
M  V30 7014 C 660.849 2.00701 0.179223 0
M  V30 7015 O 659.905 2.3675 0.877812 0
M  V30 7016 C 661.218 1.90677 -2.32514 0
M  V30 7017 C 662.766 2.03515 -2.37804 0
M  V30 7018 C 663.241 2.79307 -3.62976 0
M  V30 7019 N 664.732 2.86862 -3.63681 0
M  V30 7020 C 665.467 3.46035 -4.57217 0
M  V30 7021 N 664.963 4.06399 -5.61081 0
M  V30 7022 N 666.756 3.43681 -4.44792 0
M  V30 7023 H 658.907 0.352765 -2.0945 0
M  V30 7024 H 661.17 0.21876 -0.922414 0
M  V30 7025 H 660.876 1.3756 -3.23682 0
M  V30 7026 H 660.75 2.91169 -2.39793 0
M  V30 7027 H 663.137 2.55809 -1.47125 0
M  V30 7028 H 663.218 1.02166 -2.34512 0
M  V30 7029 H 662.862 2.2769 -4.54004 0
M  V30 7030 H 662.792 3.80995 -3.63525 0
M  V30 7031 H 665.283 2.43987 -2.88581 0
M  V30 7032 H 665.596 4.49564 -6.2858 0
M  V30 7033 H 663.941 4.0487 -5.64894 0
M  V30 7034 H 667.132 2.9574 -3.62843 0
M  V30 7035 H 667.305 3.89503 -5.17872 0
M  V30 7036 N 660.711 1.11618 1.11262 0
M  V30 7037 C 661.939 0.888739 1.8684 0
M  V30 7038 C 662.354 -0.561558 1.80255 0
M  V30 7039 O 661.711 -1.38782 1.18515 0
M  V30 7040 C 661.762 1.34422 3.35579 0
M  V30 7041 O 661.483 2.73766 3.42029 0
M  V30 7042 C 662.984 1.15246 4.28058 0
M  V30 7043 H 660.204 0.318152 0.590779 0
M  V30 7044 H 662.748 1.48398 1.40707 0
M  V30 7045 H 660.903 0.79239 3.7921 0
M  V30 7046 H 661.317 2.9355 4.34659 0
M  V30 7047 H 662.791 1.52015 5.30656 0
M  V30 7048 H 663.268 0.0922007 4.39103 0
M  V30 7049 H 663.874 1.69136 3.90222 0
M  V30 7050 N 662.189 -1.289 0.906776 0
M  V30 7051 C 663.122 -2.25737 0.334362 0
M  V30 7052 C 664.1 -1.52745 -0.557474 0
M  V30 7053 O 665.284 -1.81673 -0.502697 0
M  V30 7054 C 662.411 -3.34642 -0.522716 0
M  V30 7055 C 661.457 -4.25424 0.302777 0
M  V30 7056 S 662.29 -5.07629 1.70508 0
M  V30 7057 C 663.446 -6.20031 0.855118 0
M  V30 7058 H 663.679 -2.73941 1.15514 0
M  V30 7059 H 661.212 -1.37233 0.707573 0
M  V30 7060 H 663.17 -3.97845 -1.01141 0
M  V30 7061 H 661.831 -2.85119 -1.31781 0
M  V30 7062 H 661.024 -5.02767 -0.352257 0
M  V30 7063 H 660.626 -3.66908 0.724873 0
M  V30 7064 H 662.918 -6.77451 0.0816418 0
M  V30 7065 H 663.861 -6.89767 1.60087 0
M  V30 7066 H 664.269 -5.63035 0.406375 0
M  V30 7067 N 663.667 -0.670007 -1.42649 0
M  V30 7068 C 664.913 -0.190568 -2.01903 0
M  V30 7069 C 665.246 1.19817 -1.52832 0
M  V30 7070 O 664.521 1.80342 -0.728485 0
M  V30 7071 C 664.804 -0.21991 -3.59428 0
M  V30 7072 C 664.657 -1.64376 -4.18689 0
M  V30 7073 C 665.976 0.434519 -4.3795 0
M  V30 7074 H 663.095 -0.0707219 -0.733599 0
M  V30 7075 H 665.737 -0.853883 -1.69732 0
M  V30 7076 H 663.887 0.344894 -3.86966 0
M  V30 7077 H 665.559 -2.26044 -4.02122 0
M  V30 7078 H 663.802 -2.18591 -3.747 0
M  V30 7079 H 664.473 -1.61601 -5.27815 0
M  V30 7080 H 666.949 -0.0462156 -4.16074 0
M  V30 7081 H 665.825 0.38333 -5.4756 0
M  V30 7082 H 666.086 1.51135 -4.15464 0
M  V30 7083 N 665.145 1.52092 -0.413018 0
M  V30 7084 C 666.093 2.28681 0.425199 0
M  V30 7085 C 667.087 1.3353 1.04241 0
M  V30 7086 O 668.293 1.50973 0.980166 0
M  V30 7087 H 664.668 0.735661 0.155906 0
M  V30 7088 H 666.639 2.97418 -0.241926 0
M  V30 7089 C 665.388 3.1235 1.5275 0
M  V30 7090 H 664.711 3.85439 1.06191 0
M  V30 7091 H 666.151 3.69038 2.08774 0
M  V30 7092 C 664.61 2.26161 2.49706 0
M  V30 7093 O 665.14 1.90452 3.53682 0
M  V30 7094 N 663.346 1.89854 2.20008 0
M  V30 7095 H 662.893 2.19092 1.35486 0
M  V30 7096 H 662.851 1.3248 2.85125 0
M  V30 7097 N 666.623 0.143563 1.56945 0
M  V30 7098 C 667.869 -0.50916 1.96304 0
M  V30 7099 C 668.202 -1.64741 1.0283 0
M  V30 7100 O 667.477 -1.94374 0.0700361 0
M  V30 7101 C 667.76 -1.0186 3.45393 0
M  V30 7102 C 667.613 0.117923 4.49645 0
M  V30 7103 C 668.932 -1.90151 3.96901 0
M  V30 7104 H 666.051 -0.183608 0.713763 0
M  V30 7105 H 668.693 0.224095 1.88674 0
M  V30 7106 H 666.843 -1.64345 3.52027 0
M  V30 7107 H 668.515 0.754145 4.55094 0
M  V30 7108 H 666.758 0.777568 4.26774 0
M  V30 7109 H 667.429 -0.280187 5.51288 0
M  V30 7110 H 669.905 -1.375 3.92725 0
M  V30 7111 H 668.781 -2.22707 5.0169 0
M  V30 7112 H 669.042 -2.83718 3.39052 0
M  V30 7113 N 668.101 -1.57061 -0.130224 0
M  V30 7114 C 669.031 -2.02552 -1.16168 0
M  V30 7115 C 670.012 -0.907971 -1.4384 0
M  V30 7116 O 671.197 -1.17693 -1.54473 0
M  V30 7117 C 668.327 -2.42035 -2.49071 0
M  V30 7118 C 667.281 -3.5713 -2.35886 0
M  V30 7119 C 666.607 -3.82478 -3.7365 0
M  V30 7120 C 667.907 -4.89236 -1.8288 0
M  V30 7121 H 669.601 -2.8897 -0.783359 0
M  V30 7122 H 667.147 -1.39021 -0.375376 0
M  V30 7123 H 669.1 -2.72462 -3.21469 0
M  V30 7124 H 667.824 -1.52573 -2.88771 0
M  V30 7125 H 666.483 -3.26895 -1.65938 0
M  V30 7126 H 666.131 -2.9024 -4.10816 0
M  V30 7127 H 665.831 -4.59944 -3.65685 0
M  V30 7128 H 667.355 -4.15347 -4.47571 0
M  V30 7129 H 668.769 -5.18272 -2.45085 0
M  V30 7130 H 667.166 -5.70624 -1.85763 0
M  V30 7131 H 668.236 -4.78494 -0.785571 0
M  V30 7132 N 669.579 0.400081 -1.52437 0
M  V30 7133 C 670.827 1.14392 -1.6661 0
M  V30 7134 C 671.148 1.90792 -0.402927 0
M  V30 7135 O 670.418 1.87042 0.582425 0
M  V30 7136 H 668.998 0.425275 -0.614125 0
M  V30 7137 H 671.66 0.455076 -1.89513 0
M  V30 7138 H 670.756 1.85298 -2.51139 0
M  V30 7139 N 671.057 1.43213 0.657864 0
M  V30 7140 C 672.334 1.35063 1.41483 0
M  V30 7141 C 672.714 -0.0038314 2.111 0
M  V30 7142 O 672.062 -1.02018 2.04462 0
M  V30 7143 C 672.272 2.53061 2.40335 0
M  V30 7144 C 673.62 2.9594 3.04474 0
M  V30 7145 O 674.644 2.53074 2.50663 0
M  V30 7146 O 673.503 3.70184 4.02027 0
M  V30 7147 H 670.597 0.533517 0.631893 0
M  V30 7148 H 673.143 1.55253 0.685162 0
M  V30 7149 H 671.915 3.43283 1.87809 0
M  V30 7150 H 671.538 2.34945 3.20759 0
M  V30 7151 N 672.536 -0.895792 1.29666 0
M  V30 7152 C 673.499 -1.98189 1.15124 0
M  V30 7153 C 674.499 -1.60572 0.0855717 0
M  V30 7154 O 675.689 -1.70991 0.332826 0
M  V30 7155 C 672.821 -3.32289 0.761372 0
M  V30 7156 H 674.014 -2.12518 2.11603 0
M  V30 7157 H 671.567 -1.0808 1.12908 0
M  V30 7158 H 672.302 -3.23662 -0.203393 0
M  V30 7159 H 672.087 -3.60958 1.53139 0
M  V30 7160 H 673.577 -4.1198 0.682792 0
M  V30 7161 N 674.014 -1.12206 -1.10668 0
M  V30 7162 C 675.261 -0.875875 -1.82578 0
M  V30 7163 C 675.589 0.598342 -1.85068 0
M  V30 7164 O 674.844 1.45818 -1.3052 0
M  V30 7165 C 675.143 -1.39276 -3.29146 0
M  V30 7166 C 674.809 -2.8816 -3.46806 0
M  V30 7167 C 673.471 -3.28813 -3.51334 0
M  V30 7168 C 675.823 -3.8401 -3.52399 0
M  V30 7169 C 673.151 -4.64028 -3.59019 0
M  V30 7170 C 675.503 -5.19053 -3.61617 0
M  V30 7171 C 674.167 -5.59252 -3.64408 0
M  V30 7172 H 673.437 -0.320505 -0.6681 0
M  V30 7173 H 676.084 -1.40184 -1.30464 0
M  V30 7174 H 674.389 -0.787207 -3.8381 0
M  V30 7175 H 676.086 -1.17851 -3.83291 0
M  V30 7176 H 672.676 -2.55716 -3.43958 0
M  V30 7177 H 676.86 -3.53698 -3.48154 0
M  V30 7178 H 672.116 -4.94568 -3.59461 0
M  V30 7179 H 676.29 -5.93152 -3.64889 0
M  V30 7180 H 673.917 -6.64017 -3.70116 0
M  V30 7181 N 675.492 1.28418 -0.913599 0
M  V30 7182 C 676.74 1.94596 -0.545594 0
M  V30 7183 C 677.061 1.7227 0.913668 0
M  V30 7184 O 676.331 1.06233 1.64595 0
M  V30 7185 H 674.911 0.720065 -0.198783 0
M  V30 7186 H 677.573 1.56404 -1.16292 0
M  V30 7187 H 676.669 3.03202 -0.739911 0
M  V30 7188 N 676.97 0.677563 1.42291 0
M  V30 7189 C 678.198 0.209459 2.05837 0
M  V30 7190 C 678.613 -1.13444 1.50917 0
M  V30 7191 O 677.97 -1.70529 0.65008 0
M  V30 7192 C 678.021 0.138819 3.61233 0
M  V30 7193 O 677.742 1.42962 4.14118 0
M  V30 7194 C 679.243 -0.352449 4.41897 0
M  V30 7195 H 676.463 0.101209 0.663323 0
M  V30 7196 H 679.007 0.925077 1.8238 0
M  V30 7197 H 677.162 -0.527505 3.83792 0
M  V30 7198 H 677.576 1.3048 5.08011 0
M  V30 7199 H 679.05 -0.350778 5.50884 0
M  V30 7200 H 679.527 -1.3882 4.16684 0
M  V30 7201 H 680.133 0.282236 4.24362 0
M  V30 7202 N 678.448 -1.51871 0.421078 0
M  V30 7203 C 679.696 -2.01539 -0.150492 0
M  V30 7204 C 680.017 -1.30803 -1.44623 0
M  V30 7205 O 679.287 -0.437568 -1.90951 0
M  V30 7206 H 677.867 -0.744698 -0.0586041 0
M  V30 7207 H 680.529 -1.8668 0.560059 0
M  V30 7208 H 679.625 -3.10264 -0.338068 0
M  V30 7209 N 679.926 -0.151884 -1.56866 0
M  V30 7210 C 681.175 0.497992 -1.95456 0
M  V30 7211 C 681.488 1.6569 -1.03953 0
M  V30 7212 O 682.694 2.37173 -1.32142 0
M  V30 7213 C 681.15 0.93732 -3.4748 0
M  V30 7214 C 680.758 -0.194921 -4.47576 0
M  V30 7215 C 682.502 1.55671 -3.94926 0
M  V30 7216 C 680.409 0.26295 -5.90815 0
M  V30 7217 H 679.339 0.189811 -0.729717 0
M  V30 7218 H 681.99 -0.237011 -1.81963 0
M  V30 7219 H 680.372 1.72773 -3.56322 0
M  V30 7220 H 681.546 -0.971951 -4.50433 0
M  V30 7221 H 679.861 -0.72303 -4.10075 0
M  V30 7222 H 682.458 1.91099 -4.99385 0
M  V30 7223 H 682.801 2.44748 -3.36755 0
M  V30 7224 H 683.334 0.831109 -3.89021 0
M  V30 7225 H 680.073 -0.592568 -6.52816 0
M  V30 7226 H 679.593 1.00575 -5.91308 0
M  V30 7227 H 681.272 0.713333 -6.43056 0
M  V30 7228 N 681.404 1.57128 0.121893 0
M  V30 7229 C 682.65 1.84974 0.831418 0
M  V30 7230 C 682.983 0.737204 1.79663 0
M  V30 7231 O 682.258 -0.257199 1.92792 0
M  V30 7232 C 682.541 3.23397 1.58386 0
M  V30 7233 C 682.394 4.45246 0.638445 0
M  V30 7234 C 683.713 3.59355 2.54071 0
M  V30 7235 H 680.832 0.67282 0.300803 0
M  V30 7236 H 683.474 1.89759 0.0957587 0
M  V30 7237 H 681.624 3.19449 2.21098 0
M  V30 7238 H 683.296 4.61295 0.0203925 0
M  V30 7239 H 681.539 4.33771 -0.05023 0
M  V30 7240 H 682.21 5.38765 1.20151 0
M  V30 7241 H 684.686 3.64075 2.01465 0
M  V30 7242 H 683.562 4.57193 3.03752 0
M  V30 7243 H 683.823 2.86622 3.36601 0
M  V30 7244 N 682.882 -0.391992 1.52647 0
M  V30 7245 C 683.792 -1.503 1.80131 0
M  V30 7246 C 684.808 -1.59825 0.687882 0
M  V30 7247 O 685.984 -1.76218 0.975149 0
M  V30 7248 C 683.049 -2.85863 1.96171 0
M  V30 7249 C 682.11 -2.86084 3.20085 0
M  V30 7250 C 681.343 -4.15181 3.35351 0
M  V30 7251 O 681.566 -5.09981 2.55491 0
M  V30 7252 O 680.5 -4.22603 4.28591 0
M  V30 7253 H 684.326 -1.30007 2.74466 0
M  V30 7254 H 681.911 -0.579539 1.37701 0
M  V30 7255 H 683.793 -3.66236 2.08445 0
M  V30 7256 H 682.468 -3.06189 1.05025 0
M  V30 7257 H 681.375 -2.04504 3.13256 0
M  V30 7258 H 682.708 -2.7071 4.11068 0
M  V30 7259 N 684.36 -1.4356 -0.65026 0
M  V30 7260 C 685.307 -1.48948 -1.76304 0
M  V30 7261 C 686.277 -0.338919 -1.62605 0
M  V30 7262 O 687.462 -0.54649 -1.82806 0
M  V30 7263 C 684.602 -1.42131 -3.14472 0
M  V30 7264 C 683.715 -2.67415 -3.39284 0
M  V30 7265 C 682.85 -2.52565 -4.67316 0
M  V30 7266 C 681.889 -3.73103 -4.85243 0
M  V30 7267 N 681.026 -3.57046 -6.04535 0
M  V30 7268 H 685.866 -2.44032 -1.71034 0
M  V30 7269 H 683.403 -1.21131 -0.834601 0
M  V30 7270 H 685.361 -1.36172 -3.94351 0
M  V30 7271 H 683.991 -0.506273 -3.18805 0
M  V30 7272 H 683.043 -2.8364 -2.53481 0
M  V30 7273 H 684.355 -3.56943 -3.48415 0
M  V30 7274 H 683.509 -2.44331 -5.55326 0
M  V30 7275 H 682.248 -1.60566 -4.60511 0
M  V30 7276 H 681.253 -3.81743 -3.95667 0
M  V30 7277 H 682.478 -4.66115 -4.93876 0
M  V30 7278 H 680.424 -2.67783 -5.98856 0
M  V30 7279 H 680.341 -4.40178 -6.14638 0
M  V30 7280 H 681.609 -3.52669 -6.95158 0
M  V30 7281 N 685.838 0.888903 -1.30139 0
M  V30 7282 C 686.768 2.01046 -1.18755 0
M  V30 7283 C 687.749 1.69916 -0.0791438 0
M  V30 7284 O 688.934 1.92445 -0.260498 0
M  V30 7285 C 686.064 3.36109 -0.874518 0
M  V30 7286 C 685.018 3.81486 -1.94043 0
M  V30 7287 C 684.344 5.13796 -1.48047 0
M  V30 7288 C 685.644 4.00637 -3.35093 0
M  V30 7289 H 687.338 2.10828 -2.12584 0
M  V30 7290 H 684.884 1.01298 -1.02346 0
M  V30 7291 H 686.837 4.14089 -0.781548 0
M  V30 7292 H 685.561 3.26449 0.0994519 0
M  V30 7293 H 684.22 3.05731 -2.02297 0
M  V30 7294 H 683.868 5.0056 -0.494878 0
M  V30 7295 H 683.568 5.45127 -2.19341 0
M  V30 7296 H 685.092 5.94305 -1.40121 0
M  V30 7297 H 686.506 4.69067 -3.2962 0
M  V30 7298 H 684.903 4.43339 -4.04438 0
M  V30 7299 H 685.973 3.0462 -3.77273 0
M  V30 7300 N 687.317 1.12792 1.10072 0
M  V30 7301 C 688.542 0.908838 1.86427 0
M  V30 7302 C 688.967 -0.536793 1.80278 0
M  V30 7303 O 688.325 -1.38033 1.17543 0
M  V30 7304 C 688.373 1.39295 3.3261 0
M  V30 7305 O 687.477 0.573846 4.08388 0
M  V30 7306 H 686.818 0.326234 0.578331 0
M  V30 7307 H 689.348 1.50094 1.39043 0
M  V30 7308 H 689.358 1.39366 3.83459 0
M  V30 7309 H 688.033 2.44555 3.36401 0
M  V30 7310 H 686.61 0.640438 3.67359 0
M  V30 7311 N 688.795 -1.27931 0.920396 0
M  V30 7312 C 689.742 -2.27085 0.412422 0
M  V30 7313 C 690.712 -1.57858 -0.516725 0
M  V30 7314 O 691.897 -1.85717 -0.437475 0
M  V30 7315 C 689.037 -3.43466 -0.335399 0
M  V30 7316 C 688.15 -4.27425 0.627017 0
M  V30 7317 C 687.285 -5.31016 -0.139916 0
M  V30 7318 C 686.324 -6.06641 0.815683 0
M  V30 7319 N 685.461 -7.02052 0.0818439 0
M  V30 7320 H 690.301 -2.69913 1.26298 0
M  V30 7321 H 687.838 -1.32732 0.634076 0
M  V30 7322 H 689.796 -4.09744 -0.785226 0
M  V30 7323 H 688.426 -3.01611 -1.15025 0
M  V30 7324 H 687.478 -3.6113 1.19537 0
M  V30 7325 H 688.79 -4.79969 1.35763 0
M  V30 7326 H 687.944 -6.03208 -0.649998 0
M  V30 7327 H 686.683 -4.79257 -0.903543 0
M  V30 7328 H 685.688 -5.33294 1.33708 0
M  V30 7329 H 686.913 -6.60489 1.57897 0
M  V30 7330 H 684.859 -6.52634 -0.663671 0
M  V30 7331 H 684.776 -7.52249 0.752163 0
M  V30 7332 H 686.044 -7.78432 -0.407825 0
M  V30 7333 N 690.273 -0.685099 -1.4193 0
M  V30 7334 C 691.22 -0.0131869 -2.30796 0
M  V30 7335 C 692.19 0.782129 -1.46533 0
M  V30 7336 O 693.375 0.75229 -1.75343 0
M  V30 7337 C 690.515 0.924768 -3.32479 0
M  V30 7338 C 689.628 0.122181 -4.31827 0
M  V30 7339 C 688.763 1.05682 -5.20581 0
M  V30 7340 C 687.802 0.246526 -6.11603 0
M  V30 7341 N 686.939 1.13442 -6.92875 0
M  V30 7342 H 691.779 -0.776789 -2.87698 0
M  V30 7343 H 689.316 -0.394791 -1.41703 0
M  V30 7344 H 691.274 1.48251 -3.89971 0
M  V30 7345 H 689.904 1.65488 -2.77152 0
M  V30 7346 H 688.956 -0.552335 -3.76369 0
M  V30 7347 H 690.268 -0.506473 -4.96222 0
M  V30 7348 H 689.422 1.68415 -5.82856 0
M  V30 7349 H 688.161 1.71935 -4.56388 0
M  V30 7350 H 687.166 -0.393944 -5.48387 0
M  V30 7351 H 688.391 -0.412053 -6.77849 0
M  V30 7352 H 686.337 1.78316 -6.313 0
M  V30 7353 H 686.254 0.561089 -7.53915 0
M  V30 7354 H 687.522 1.74889 -7.59628 0
M  V30 7355 N 691.751 1.51645 -0.429126 0
M  V30 7356 C 692.661 2.31288 0.392809 0
M  V30 7357 C 693.677 1.39852 1.03525 0
M  V30 7358 O 694.853 1.72926 1.03241 0
M  V30 7359 C 691.918 3.13347 1.48372 0
M  V30 7360 C 690.979 4.20551 0.862268 0
M  V30 7361 C 690.212 4.98688 1.9012 0
M  V30 7362 O 690.435 4.77359 3.12225 0
M  V30 7363 O 689.369 5.83005 1.4963 0
M  V30 7364 H 693.195 3.02609 -0.257138 0
M  V30 7365 H 690.78 1.48163 -0.191851 0
M  V30 7366 H 692.662 3.64387 2.1166 0
M  V30 7367 H 691.337 2.44799 2.1179 0
M  V30 7368 H 690.244 3.73609 0.191568 0
M  V30 7369 H 691.577 4.91449 0.271704 0
M  V30 7370 N 693.229 0.160201 1.56784 0
M  V30 7371 C 694.159 -0.770264 2.2043 0
M  V30 7372 C 695.14 -1.24736 1.15651 0
M  V30 7373 O 696.325 -1.30253 1.44041 0
M  V30 7374 C 693.455 -2.00427 2.83631 0
M  V30 7375 C 692.409 -1.66345 3.94352 0
M  V30 7376 C 691.735 -2.97119 4.4455 0
M  V30 7377 C 693.035 -0.899972 5.14488 0
M  V30 7378 H 694.729 -0.239783 2.98438 0
M  V30 7379 H 692.275 -0.113891 1.43549 0
M  V30 7380 H 694.228 -2.66012 3.26827 0
M  V30 7381 H 692.952 -2.5587 2.02973 0
M  V30 7382 H 691.611 -1.03133 3.51794 0
M  V30 7383 H 691.259 -3.5058 3.60698 0
M  V30 7384 H 690.959 -2.75073 5.19238 0
M  V30 7385 H 692.483 -3.63753 4.90425 0
M  V30 7386 H 693.897 -1.45818 5.54446 0
M  V30 7387 H 692.294 -0.778968 5.95023 0
M  V30 7388 H 693.364 0.105827 4.84785 0
M  V30 7389 N 694.707 -1.5719 -0.113559 0
M  V30 7390 C 695.617 -2.04041 -1.15777 0
M  V30 7391 C 696.633 -0.961812 -1.45001 0
M  V30 7392 O 697.809 -1.2737 -1.56009 0
M  V30 7393 C 694.874 -2.43994 -2.46308 0
M  V30 7394 C 693.935 -3.65962 -2.24433 0
M  V30 7395 C 693.168 -4.04 -3.4874 0
M  V30 7396 O 693.391 -3.42321 -4.56259 0
M  V30 7397 O 692.325 -4.97069 -3.3942 0
M  V30 7398 H 696.151 -2.93248 -0.789899 0
M  V30 7399 H 693.736 -1.45828 -0.324748 0
M  V30 7400 H 695.618 -2.70401 -3.23204 0
M  V30 7401 H 694.293 -1.57932 -2.82558 0
M  V30 7402 H 693.2 -3.44697 -1.45377 0
M  V30 7403 H 694.533 -4.52746 -1.93084 0
M  V30 7404 N 696.185 0.383891 -1.52853 0
M  V30 7405 C 697.117 1.48889 -1.74255 0
M  V30 7406 C 698.13 1.50405 -0.623063 0
M  V30 7407 O 699.319 1.54215 -0.898887 0
M  V30 7408 C 696.419 2.87721 -1.79081 0
M  V30 7409 C 695.592 3.10111 -3.08464 0
M  V30 7410 C 694.651 4.28954 -3.0477 0
M  V30 7411 O 693.677 4.25012 -3.78621 0
M  V30 7412 N 694.879 5.35411 -2.24311 0
M  V30 7413 H 697.644 1.30915 -2.69595 0
M  V30 7414 H 695.205 0.573454 -1.51404 0
M  V30 7415 H 697.197 3.65333 -1.7411 0
M  V30 7416 H 695.767 2.99029 -0.911052 0
M  V30 7417 H 694.987 2.20319 -3.26884 0
M  V30 7418 H 696.275 3.21928 -3.94005 0
M  V30 7419 H 695.673 5.41471 -1.63787 0
M  V30 7420 H 694.23 6.1167 -2.25175 0
M  V30 7421 N 697.663 1.43903 0.642637 0
M  V30 7422 C 698.596 1.44339 1.76753 0
M  V30 7423 C 699.574 0.303558 1.59741 0
M  V30 7424 O 700.758 0.498775 1.81781 0
M  V30 7425 C 697.885 1.26508 3.14187 0
M  V30 7426 C 696.931 2.43905 3.49875 0
M  V30 7427 S 697.764 4.0645 3.48653 0
M  V30 7428 C 698.92 3.91021 4.88726 0
M  V30 7429 H 699.153 2.39523 1.76113 0
M  V30 7430 H 696.686 1.31061 0.81623 0
M  V30 7431 H 698.644 1.16908 3.93501 0
M  V30 7432 H 697.305 0.328548 3.12377 0
M  V30 7433 H 696.498 2.27262 4.49853 0
M  V30 7434 H 696.1 2.50186 2.77998 0
M  V30 7435 H 698.392 3.54 5.77659 0
M  V30 7436 H 699.335 4.9079 5.10423 0
M  V30 7437 H 699.743 3.23287 4.62759 0
M  V30 7438 N 699.141 -0.881989 1.30609 0
M  V30 7439 C 700.418 -1.61563 1.10258 0
M  V30 7440 C 700.798 -2.08228 -0.347053 0
M  V30 7441 O 700.146 -1.85151 -1.33908 0
M  V30 7442 C 700.356 -2.78287 2.10612 0
M  V30 7443 C 701.704 -3.48545 2.4249 0
M  V30 7444 O 702.728 -2.88479 2.08945 0
M  V30 7445 O 701.587 -4.56873 2.99883 0
M  V30 7446 H 698.681 -0.710238 0.423663 0
M  V30 7447 H 701.227 -0.928503 1.42045 0
M  V30 7448 H 699.999 -2.41131 3.08174 0
M  V30 7449 H 699.622 -3.54695 1.79659 0
M  V30 7450 N 700.619 -1.13374 -1.09472 0
M  V30 7451 C 701.865 -0.896516 -1.81908 0
M  V30 7452 C 702.198 0.575933 -1.85463 0
M  V30 7453 O 701.473 1.42618 -1.32251 0
M  V30 7454 C 701.756 -1.48445 -3.28079 0
M  V30 7455 C 701.609 -3.02598 -3.32798 0
M  V30 7456 C 702.928 -1.15226 -4.24748 0
M  V30 7457 H 700.047 -0.327127 -0.660422 0
M  V30 7458 H 702.689 -1.40195 -1.2824 0
M  V30 7459 H 700.839 -1.0546 -3.73912 0
M  V30 7460 H 702.511 -3.54335 -2.95372 0
M  V30 7461 H 700.754 -3.37613 -2.72397 0
M  V30 7462 H 701.425 -3.38835 -4.3577 0
M  V30 7463 H 703.901 -1.52369 -3.87199 0
M  V30 7464 H 702.777 -1.59012 -5.25363 0
M  V30 7465 H 703.038 -0.0658891 -4.42051 0
M  V30 7466 N 702.098 1.27442 -0.927168 0
M  V30 7467 C 703.323 1.99036 -0.583042 0
M  V30 7468 C 703.748 1.68711 0.83176 0
M  V30 7469 O 703.106 0.927081 1.55804 0
M  V30 7470 C 703.154 3.51271 -0.814925 0
M  V30 7471 O 702.258 4.12226 0.119742 0
M  V30 7472 H 701.599 0.624883 -0.224538 0
M  V30 7473 H 704.129 1.62263 -1.24628 0
M  V30 7474 H 704.139 4.01411 -0.730282 0
M  V30 7475 H 702.814 3.72676 -1.84623 0
M  V30 7476 H 701.391 3.72897 -0.0147688 0
M  V30 7477 N 703.576 0.692616 1.41565 0
M  V30 7478 C 704.801 0.229776 2.06123 0
M  V30 7479 C 705.226 -1.11119 1.5177 0
M  V30 7480 O 704.584 -1.69498 0.643444 0
M  V30 7481 C 704.632 0.19469 3.60074 0
M  V30 7482 O 703.736 -0.831366 4.03933 0
M  V30 7483 H 703.077 0.113002 0.654314 0
M  V30 7484 H 705.607 0.946645 1.81383 0
M  V30 7485 H 705.617 0.0245487 4.07993 0
M  V30 7486 H 704.292 1.17339 3.99004 0
M  V30 7487 H 702.869 -0.630819 3.67526 0
M  V30 7488 N 705.054 -1.51416 0.437162 0
M  V30 7489 C 705.964 -2.31493 -0.380537 0
M  V30 7490 C 706.98 -1.40399 -1.02782 0
M  V30 7491 O 708.156 -1.73471 -1.02323 0
M  V30 7492 C 705.221 -3.1413 -1.46709 0
M  V30 7493 C 704.282 -4.21003 -0.839953 0
M  V30 7494 C 703.515 -4.9969 -1.87473 0
M  V30 7495 O 703.738 -4.79008 -3.09689 0
M  V30 7496 O 702.672 -5.8379 -1.46536 0
M  V30 7497 H 706.498 -3.02469 0.273183 0
M  V30 7498 H 704.083 -1.48059 0.199706 0
M  V30 7499 H 705.965 -3.65505 -2.09724 0
M  V30 7500 H 704.64 -2.45919 -2.10489 0
M  V30 7501 H 703.547 -3.73706 -0.171752 0
M  V30 7502 H 704.88 -4.91587 -0.245638 0
M  V30 7503 N 706.532 -0.168513 -1.56696 0
M  V30 7504 C 707.778 0.477865 -1.9709 0
M  V30 7505 C 708.111 1.63084 -1.05438 0
M  V30 7506 O 707.386 1.94238 -0.10095 0
M  V30 7507 C 707.669 0.963521 -3.4697 0
M  V30 7508 C 707.522 -0.189443 -4.49401 0
M  V30 7509 C 708.841 1.83813 -3.99876 0
M  V30 7510 H 705.96 0.172229 -0.716593 0
M  V30 7511 H 708.602 -0.254083 -1.88293 0
M  V30 7512 H 706.752 1.58724 -3.54597 0
M  V30 7513 H 708.424 -0.826451 -4.53836 0
M  V30 7514 H 706.667 -0.845366 -4.25483 0
M  V30 7515 H 707.338 0.192446 -5.51664 0
M  V30 7516 H 709.814 1.31235 -3.94863 0
M  V30 7517 H 708.69 2.14697 -5.0517 0
M  V30 7518 H 708.951 2.78289 -3.43523 0
M  V30 7519 N 708.01 1.57248 0.105221 0
M  V30 7520 C 708.958 2.02337 1.14728 0
M  V30 7521 C 709.952 0.922652 1.42069 0
M  V30 7522 O 711.158 1.10785 1.41869 0
M  V30 7523 H 707.533 0.644682 0.387155 0
M  V30 7524 H 709.504 2.89063 0.740607 0
M  V30 7525 C 708.253 2.45513 2.46209 0
M  V30 7526 H 707.576 3.29785 2.26013 0
M  V30 7527 H 709.016 2.80846 3.1765 0
M  V30 7528 C 707.475 1.3243 3.09781 0
M  V30 7529 O 708.005 0.647841 3.96442 0
M  V30 7530 N 706.211 1.07785 2.69872 0
M  V30 7531 H 705.758 1.62973 1.99493 0
M  V30 7532 H 705.716 0.323204 3.12734 0
M  V30 7533 N 709.488 -0.375779 1.53054 0
M  V30 7534 C 710.737 -1.11674 1.67964 0
M  V30 7535 C 711.05 -1.90755 0.432655 0
M  V30 7536 O 712.256 -2.67538 0.462109 0
M  V30 7537 C 710.712 -2.0344 2.96884 0
M  V30 7538 C 710.32 -1.29719 4.28809 0
M  V30 7539 C 712.064 -2.7759 3.2116 0
M  V30 7540 C 709.971 -2.20327 5.48826 0
M  V30 7541 H 708.901 -0.420597 0.625791 0
M  V30 7542 H 711.552 -0.378499 1.79554 0
M  V30 7543 H 709.934 -2.80953 2.79072 0
M  V30 7544 H 711.108 -0.573394 4.57219 0
M  V30 7545 H 709.423 -0.674735 4.10897 0
M  V30 7546 H 712.02 -3.4559 4.0801 0
M  V30 7547 H 712.363 -3.42399 2.36789 0
M  V30 7548 H 712.896 -2.07164 3.396 0
M  V30 7549 H 709.635 -1.60113 6.35645 0
M  V30 7550 H 709.155 -2.90585 5.2471 0
M  V30 7551 H 710.834 -2.80116 5.83219 0
M  V30 7552 N 710.966 -1.44241 -0.634997 0
M  V30 7553 C 712.212 -1.47038 -1.39669 0
M  V30 7554 C 712.545 -0.101122 -1.93937 0
M  V30 7555 O 711.82 0.880699 -1.73418 0
M  V30 7556 C 712.103 -2.52763 -2.56482 0
M  V30 7557 C 711.956 -3.99032 -2.07589 0
M  V30 7558 C 713.275 -2.55031 -3.58674 0
M  V30 7559 H 710.394 -0.53537 -0.506506 0
M  V30 7560 H 713.036 -1.75898 -0.718317 0
M  V30 7561 H 711.186 -2.28284 -3.14354 0
M  V30 7562 H 712.858 -4.3463 -1.54577 0
M  V30 7563 H 711.101 -4.10994 -1.38804 0
M  V30 7564 H 711.772 -4.68649 -2.91671 0
M  V30 7565 H 714.248 -2.76893 -3.10595 0
M  V30 7566 H 713.124 -3.30916 -4.37934 0
M  V30 7567 H 713.385 -1.59085 -4.12486 0
M  V30 7568 N 712.444 0.87505 -1.31075 0
M  V30 7569 C 713.392 2.00317 -1.18219 0
M  V30 7570 C 714.386 1.69152 -0.0916872 0
M  V30 7571 O 715.592 1.7821 -0.253229 0
M  V30 7572 H 711.967 0.656981 -0.365895 0
M  V30 7573 H 713.938 2.08293 -2.13674 0
M  V30 7574 C 712.687 3.35821 -0.901095 0
M  V30 7575 H 712.01 3.6032 -1.73233 0
M  V30 7576 H 713.45 4.15366 -0.851295 0
M  V30 7577 C 711.909 3.34563 0.396114 0
M  V30 7578 O 712.439 3.75971 1.41452 0
M  V30 7579 N 710.645 2.87681 0.410832 0
M  V30 7580 H 710.192 2.54179 -0.418415 0
M  V30 7581 H 710.15 2.87223 1.27869 0
M  V30 7582 N 713.922 1.13953 1.08869 0
M  V30 7583 C 715.333 0.916649 1.62648 0
M  V30 7584 C 715.684 -0.545589 1.88462 0
M  V30 7585 O 714.809 -1.41351 1.63856 0
M  V30 7586 C 715.404 1.65751 2.95486 0
M  V30 7587 C 713.963 1.48034 3.46068 0
M  V30 7588 C 713.11 1.68305 2.20383 0
M  V30 7589 H 716.061 1.292 0.921572 0
M  V30 7590 H 716.082 1.11794 3.63707 0
M  V30 7591 H 715.594 2.72171 2.76667 0
M  V30 7592 H 713.695 0.439416 3.7 0
M  V30 7593 H 713.808 2.24719 4.23129 0
M  V30 7594 H 712.172 1.10833 2.29321 0
M  V30 7595 H 712.955 2.76057 2.04077 0
M  V30 7596 N 715.4 -1.26948 0.933913 0
M  V30 7597 C 716.647 -1.94087 0.577625 0
M  V30 7598 C 716.975 -1.73345 -0.88214 0
M  V30 7599 O 716.23 -1.05945 -1.64542 0
M  V30 7600 C 716.529 -3.46963 0.857406 0
M  V30 7601 C 716.195 -3.87834 2.2999 0
M  V30 7602 C 714.857 -3.98704 2.69423 0
M  V30 7603 C 717.209 -4.08442 3.23766 0
M  V30 7604 C 714.537 -4.27573 4.01744 0
M  V30 7605 C 716.889 -4.38798 4.55675 0
M  V30 7606 C 715.553 -4.47881 4.94934 0
M  V30 7607 H 714.823 -0.710215 0.211368 0
M  V30 7608 H 717.47 -1.50899 1.17905 0
M  V30 7609 H 715.775 -3.91416 0.173369 0
M  V30 7610 H 717.472 -3.97062 0.560615 0
M  V30 7611 H 714.062 -3.79916 1.98399 0
M  V30 7612 H 718.246 -3.99479 2.94499 0
M  V30 7613 H 713.502 -4.32815 4.31834 0
M  V30 7614 H 717.676 -4.5369 5.28335 0
M  V30 7615 H 715.303 -4.70005 5.97495 0
M  V30 7616 N 716.879 -0.700114 -1.41195 0
M  V30 7617 C 717.842 -0.0465706 -2.29153 0
M  V30 7618 C 718.842 0.703302 -1.44604 0
M  V30 7619 O 720.032 0.537513 -1.657 0
M  V30 7620 C 717.164 0.944324 -3.2756 0
M  V30 7621 H 718.357 -0.821064 -2.88442 0
M  V30 7622 H 715.91 -0.463869 -1.49258 0
M  V30 7623 H 716.645 1.74642 -2.73259 0
M  V30 7624 H 716.43 0.409701 -3.89954 0
M  V30 7625 H 717.92 1.39925 -3.9346 0
M  V30 7626 N 718.357 1.51182 -0.445186 0
M  V30 7627 C 719.287 2.30821 0.352686 0
M  V30 7628 C 720.268 1.36576 1.01395 0
M  V30 7629 O 721.453 1.65497 1.01609 0
M  V30 7630 C 718.583 3.15593 1.44976 0
M  V30 7631 C 717.537 4.1818 0.911553 0
M  V30 7632 C 716.863 4.91523 2.10497 0
M  V30 7633 C 718.163 5.22266 -0.059418 0
M  V30 7634 H 719.857 2.97771 -0.311936 0
M  V30 7635 H 717.403 1.43201 -0.151461 0
M  V30 7636 H 719.356 3.70091 2.01521 0
M  V30 7637 H 718.08 2.4648 2.14278 0
M  V30 7638 H 716.739 3.64746 0.368264 0
M  V30 7639 H 716.387 4.18906 2.78437 0
M  V30 7640 H 716.087 5.60898 1.7512 0
M  V30 7641 H 717.611 5.48847 2.6758 0
M  V30 7642 H 719.025 5.71789 0.415985 0
M  V30 7643 H 717.422 5.99213 -0.326152 0
M  V30 7644 H 718.492 4.7461 -0.993631 0
M  V30 7645 N 719.835 0.176821 1.56605 0
M  V30 7646 C 720.745 -0.763682 2.21822 0
M  V30 7647 C 721.761 -1.24889 1.21156 0
M  V30 7648 O 722.937 -1.29987 1.53836 0
M  V30 7649 C 720.002 -1.97352 2.8505 0
M  V30 7650 C 719.063 -1.53466 4.00932 0
M  V30 7651 C 718.296 -2.68682 4.61135 0
M  V30 7652 O 718.519 -3.85694 4.20234 0
M  V30 7653 O 717.453 -2.42442 5.50913 0
M  V30 7654 H 721.279 -0.238363 3.02763 0
M  V30 7655 H 718.864 -0.0516331 1.49311 0
M  V30 7656 H 720.746 -2.68096 3.25119 0
M  V30 7657 H 719.421 -2.48779 2.07101 0
M  V30 7658 H 718.328 -0.796551 3.65521 0
M  V30 7659 H 719.661 -1.06724 4.8049 0
M  V30 7660 N 721.313 -1.57302 -0.09688 0
M  V30 7661 C 722.538 -1.9058 -0.818169 0
M  V30 7662 C 722.963 -0.770921 -1.71576 0
M  V30 7663 O 722.321 0.277588 -1.79162 0
M  V30 7664 C 722.369 -3.22714 -1.60898 0
M  V30 7665 O 721.473 -3.10178 -2.71779 0
M  V30 7666 H 720.814 -0.624759 -0.224882 0
M  V30 7667 H 723.344 -2.04471 -0.07264 0
M  V30 7668 H 723.354 -3.55978 -1.99358 0
M  V30 7669 H 722.029 -4.04899 -0.950227 0
M  V30 7670 H 720.606 -2.88424 -2.3636 0
M  V30 7671 N 722.791 0.367657 -1.53252 0
M  V30 7672 C 724.019 1.13119 -1.73239 0
M  V30 7673 C 724.434 1.831 -0.460404 0
M  V30 7674 O 723.791 1.73483 0.566557 0
M  V30 7675 C 723.842 2.16308 -2.89643 0
M  V30 7676 O 723.563 1.49175 -4.1192 0
M  V30 7677 C 725.064 3.05224 -3.21486 0
M  V30 7678 H 722.284 0.338318 -0.579467 0
M  V30 7679 H 724.828 0.42721 -1.99988 0
M  V30 7680 H 722.983 2.82307 -2.65295 0
M  V30 7681 H 723.397 2.17912 -4.7709 0
M  V30 7682 H 724.871 3.73613 -4.06346 0
M  V30 7683 H 725.348 3.69919 -2.36763 0
M  V30 7684 H 725.954 2.44843 -3.47753 0
M  V30 7685 N 724.269 1.44576 0.627338 0
M  V30 7686 C 725.518 1.46837 1.38281 0
M  V30 7687 C 725.831 0.10635 1.95311 0
M  V30 7688 O 727.037 0.00651084 2.71499 0
M  V30 7689 C 725.493 2.58527 2.50384 0
M  V30 7690 C 725.101 4.00953 1.99851 0
M  V30 7691 C 726.845 2.70013 3.27557 0
M  V30 7692 C 724.752 5.0406 3.09318 0
M  V30 7693 H 723.682 0.546319 0.519664 0
M  V30 7694 H 726.333 1.70654 0.674497 0
M  V30 7695 H 724.715 2.27957 3.23808 0
M  V30 7696 H 725.889 4.41108 1.33267 0
M  V30 7697 H 724.204 3.93743 1.35482 0
M  V30 7698 H 726.801 3.44217 4.09168 0
M  V30 7699 H 727.144 1.75961 3.77284 0
M  V30 7700 H 727.677 3.00011 2.61224 0
M  V30 7701 H 724.416 5.99753 2.6453 0
M  V30 7702 H 723.936 4.68493 3.74532 0
M  V30 7703 H 725.615 5.2793 3.74031 0
M  V30 7704 N 725.747 -0.868086 1.31537 0
M  V30 7705 C 726.677 -1.99131 1.21939 0
M  V30 7706 C 727.658 -1.69768 0.106166 0
M  V30 7707 O 728.843 -1.92006 0.291081 0
M  V30 7708 C 725.973 -3.34676 0.927879 0
M  V30 7709 C 724.927 -3.7835 2.00088 0
M  V30 7710 C 724.253 -5.11375 1.56203 0
M  V30 7711 C 725.553 -3.95256 3.41424 0
M  V30 7712 H 727.247 -2.07419 2.15911 0
M  V30 7713 H 724.793 -0.996569 1.03945 0
M  V30 7714 H 726.746 -4.12793 0.847327 0
M  V30 7715 H 725.47 -3.26565 -0.0475042 0
M  V30 7716 H 724.129 -3.02474 2.07135 0
M  V30 7717 H 723.777 -4.99709 0.57445 0
M  V30 7718 H 723.477 -5.41568 2.27985 0
M  V30 7719 H 725.001 -5.92001 1.49558 0
M  V30 7720 H 726.415 -4.63764 3.3704 0
M  V30 7721 H 724.812 -4.36849 4.1144 0
M  V30 7722 H 725.882 -2.98579 3.82072 0
M  V30 7723 N 727.225 -1.14528 -1.08264 0
M  V30 7724 C 728.502 -0.825185 -1.77342 0
M  V30 7725 C 728.882 0.681037 -1.99813 0
M  V30 7726 O 728.23 1.62234 -1.60912 0
M  V30 7727 C 728.44 -1.62556 -3.08831 0
M  V30 7728 C 729.788 -1.82585 -3.83338 0
M  V30 7729 O 730.812 -1.59254 -3.18617 0
M  V30 7730 O 729.671 -2.21598 -4.99556 0
M  V30 7731 H 726.765 -0.302531 -0.769678 0
M  V30 7732 H 729.311 -1.25056 -1.14713 0
M  V30 7733 H 728.083 -2.64862 -2.88035 0
M  V30 7734 H 727.706 -1.1959 -3.79189 0
M  V30 7735 N 728.703 1.26451 -0.940633 0
M  V30 7736 C 729.651 2.28389 -0.440581 0
M  V30 7737 C 730.645 1.62402 0.481859 0
M  V30 7738 O 731.851 1.76361 0.360132 0
M  V30 7739 H 728.226 0.741716 -0.123938 0
M  V30 7740 H 730.197 2.67967 -1.31288 0
M  V30 7741 C 728.946 3.46576 0.279364 0
M  V30 7742 H 728.269 3.97574 -0.421274 0
M  V30 7743 H 729.709 4.19826 0.59348 0
M  V30 7744 C 728.168 3.01815 1.49697 0
M  V30 7745 O 728.698 3.06607 2.59529 0
M  V30 7746 N 726.904 2.57163 1.35334 0
M  V30 7747 H 726.451 2.53464 0.459743 0
M  V30 7748 H 726.409 2.27578 2.16923 0
M  V30 7749 N 730.181 0.707592 1.40822 0
M  V30 7750 C 731.091 0.0507246 2.34545 0
M  V30 7751 C 732.107 -0.752727 1.56876 0
M  V30 7752 O 733.283 -0.687524 1.89302 0
M  V30 7753 C 730.348 -0.865731 3.35717 0
M  V30 7754 C 729.409 -0.0531313 4.29267 0
M  V30 7755 C 728.642 -0.925939 5.25606 0
M  V30 7756 O 728.865 -2.16531 5.27703 0
M  V30 7757 O 727.799 -0.369194 6.00767 0
M  V30 7758 H 731.625 0.823587 2.9232 0
M  V30 7759 H 729.21 0.46801 1.4188 0
M  V30 7760 H 731.092 -1.39091 3.97783 0
M  V30 7761 H 729.767 -1.61788 2.80368 0
M  V30 7762 H 728.674 0.516931 3.70511 0
M  V30 7763 H 730.007 0.660617 4.87747 0
M  V30 7764 N 731.66 -1.50943 0.453197 0
M  V30 7765 C 732.937 -1.94872 -0.168633 0
M  V30 7766 C 733.317 -1.39272 -1.5864 0
M  V30 7767 O 732.665 -0.586272 -2.20851 0
M  V30 7768 C 732.875 -3.48757 -0.130217 0
M  V30 7769 C 734.223 -4.23331 -0.327975 0
M  V30 7770 O 735.247 -3.55594 -0.207619 0
M  V30 7771 O 734.106 -5.43529 -0.569077 0
M  V30 7772 H 731.2 -0.818042 -0.121394 0
M  V30 7773 H 733.746 -1.61782 0.512316 0
M  V30 7774 H 732.518 -3.81725 0.860346 0
M  V30 7775 H 732.141 -3.88333 -0.853397 0
M  V30 7776 N 733.138 -0.185124 -1.56509 0
M  V30 7777 C 734.363 0.465278 -2.02114 0
M  V30 7778 C 734.788 1.55083 -1.06447 0
M  V30 7779 O 734.146 1.81241 -0.0462852 0
M  V30 7780 C 734.194 1.00784 -3.46229 0
M  V30 7781 O 733.298 2.12123 -3.53663 0
M  V30 7782 H 732.639 0.109891 -0.654843 0
M  V30 7783 H 735.169 -0.293072 -2.0249 0
M  V30 7784 H 735.179 1.32697 -3.85818 0
M  V30 7785 H 733.854 0.213113 -4.15354 0
M  V30 7786 H 732.431 1.8115 -3.25943 0
M  V30 7787 N 734.616 1.57351 0.0885366 0
M  V30 7788 C 735.893 1.77449 0.822873 0
M  V30 7789 C 736.273 0.768463 1.96616 0
M  V30 7790 O 735.621 -0.201757 2.27608 0
M  V30 7791 C 735.831 3.23425 1.31137 0
M  V30 7792 C 737.179 3.86791 1.75152 0
M  V30 7793 O 738.203 3.27215 1.40745 0
M  V30 7794 O 737.062 4.91568 2.38794 0
M  V30 7795 H 734.156 0.727653 0.393002 0
M  V30 7796 H 736.702 1.69556 0.0699095 0
M  V30 7797 H 735.474 3.88188 0.49254 0
M  V30 7798 H 735.097 3.35977 2.12615 0
M  V30 7799 N 736.094 -0.359525 1.53444 0
M  V30 7800 C 737.322 -1.12198 1.73837 0
M  V30 7801 C 737.737 -1.82854 0.470107 0
M  V30 7802 O 737.094 -1.73781 -0.557349 0
M  V30 7803 C 737.145 -2.14769 2.90786 0
M  V30 7804 O 736.866 -1.46989 4.12706 0
M  V30 7805 C 738.367 -3.03514 3.231 0
M  V30 7806 H 735.587 -0.33524 0.581253 0
M  V30 7807 H 738.131 -0.416598 2.00212 0
M  V30 7808 H 736.286 -2.80896 2.66788 0
M  V30 7809 H 736.7 -2.15378 4.78239 0
M  V30 7810 H 738.174 -3.71453 4.08322 0
M  V30 7811 H 738.651 -3.68658 2.38721 0
M  V30 7812 H 739.257 -2.42996 3.49046 0
M  V30 7813 N 737.572 -1.44907 -0.619662 0
M  V30 7814 C 738.519 -1.52654 -1.73105 0
M  V30 7815 C 739.489 -0.373334 -1.6185 0
M  V30 7816 O 740.674 -0.585143 -1.81606 0
M  V30 7817 C 737.814 -1.48769 -3.11387 0
M  V30 7818 C 736.927 -2.74551 -3.33535 0
M  V30 7819 C 736.062 -2.62421 -4.61854 0
M  V30 7820 C 735.101 -3.83312 -4.77219 0
M  V30 7821 N 734.238 -3.69789 -5.96826 0
M  V30 7822 H 739.078 -2.47605 -1.65819 0
M  V30 7823 H 736.615 -1.22875 -0.808719 0
M  V30 7824 H 738.573 -1.44507 -3.91374 0
M  V30 7825 H 737.203 -0.573783 -3.1766 0
M  V30 7826 H 736.255 -2.88953 -2.47408 0
M  V30 7827 H 737.567 -3.64253 -3.40765 0
M  V30 7828 H 736.721 -2.56056 -5.50019 0
M  V30 7829 H 735.46 -1.70298 -4.57001 0
M  V30 7830 H 734.465 -3.90049 -3.87481 0
M  V30 7831 H 735.69 -4.76486 -4.83878 0
M  V30 7832 H 733.636 -2.80426 -5.93041 0
M  V30 7833 H 733.553 -4.53116 -6.05163 0
M  V30 7834 H 734.821 -3.67335 -6.87521 0
M  V30 7835 N 739.05 0.861098 -1.31996 0
M  V30 7836 C 739.997 1.96912 -1.20392 0
M  V30 7837 C 740.967 1.65869 -0.0875899 0
M  V30 7838 O 742.152 1.88992 -0.262011 0
M  V30 7839 C 739.292 3.32435 -0.926335 0
M  V30 7840 C 738.405 3.76018 -2.12684 0
M  V30 7841 C 737.54 5.00301 -1.78529 0
M  V30 7842 C 736.579 5.36357 -2.94937 0
M  V30 7843 N 735.716 6.51818 -2.60917 0
M  V30 7844 H 740.556 2.06169 -2.1517 0
M  V30 7845 H 738.093 1.00917 -1.07024 0
M  V30 7846 H 740.051 4.10478 -0.745917 0
M  V30 7847 H 738.681 3.22796 -0.0153578 0
M  V30 7848 H 737.733 2.93683 -2.41774 0
M  V30 7849 H 739.045 3.98664 -2.99781 0
M  V30 7850 H 738.199 5.86034 -1.57001 0
M  V30 7851 H 736.938 4.79578 -0.886356 0
M  V30 7852 H 735.943 4.49139 -3.17103 0
M  V30 7853 H 737.168 5.59041 -3.85552 0
M  V30 7854 H 735.114 6.32624 -1.73558 0
M  V30 7855 H 735.031 6.7445 -3.41544 0
M  V30 7856 H 736.299 7.4072 -2.42804 0
M  V30 7857 N 740.528 1.15101 1.07655 0
M  V30 7858 C 741.753 0.948177 1.84457 0
M  V30 7859 C 742.178 -0.498432 1.81376 0
M  V30 7860 O 741.536 -1.35509 1.20445 0
M  V30 7861 C 741.584 1.46318 3.29581 0
M  V30 7862 O 740.688 0.660342 4.07079 0
M  V30 7863 H 740.029 0.338428 0.571281 0
M  V30 7864 H 742.559 1.5301 1.35828 0
M  V30 7865 H 742.569 1.47468 3.80417 0
M  V30 7866 H 741.244 2.51635 3.31138 0
M  V30 7867 H 739.821 0.718216 3.65918 0
M  V30 7868 N 742.006 -1.2595 0.947325 0
M  V30 7869 C 743.236 -1.97258 0.614235 0
M  V30 7870 C 743.644 -1.70682 -0.816355 0
M  V30 7871 O 742.987 -0.97527 -1.55673 0
M  V30 7872 C 743.049 -3.50845 0.784081 0
M  V30 7873 C 742.713 -4.01084 2.19045 0
M  V30 7874 C 743.71 -4.12347 3.16648 0
M  V30 7875 C 741.395 -4.34936 2.51268 0
M  V30 7876 C 743.389 -4.56766 4.44572 0
M  V30 7877 C 741.076 -4.79043 3.79422 0
M  V30 7878 C 742.074 -4.89919 4.75887 0
M  V30 7879 O 741.762 -5.3305 6.01758 0
M  V30 7880 H 741.494 -0.635738 0.22981 0
M  V30 7881 H 744.048 -1.61268 1.27207 0
M  V30 7882 H 742.278 -3.86638 0.069101 0
M  V30 7883 H 743.967 -4.03363 0.453135 0
M  V30 7884 H 744.733 -3.86432 2.93079 0
M  V30 7885 H 740.612 -4.25702 1.76916 0
M  V30 7886 H 744.156 -4.6517 5.19868 0
M  V30 7887 H 740.053 -5.04402 4.02802 0
M  V30 7888 H 740.821 -5.51255 6.05029 0
M  V30 7889 N 743.484 -0.715051 -1.40445 0
M  V30 7890 C 744.73 -0.254705 -2.01194 0
M  V30 7891 C 745.063 1.14894 -1.56567 0
M  V30 7892 O 744.338 1.77933 -0.785491 0
M  V30 7893 C 744.621 -0.334148 -3.58546 0
M  V30 7894 C 744.474 -1.77613 -4.13248 0
M  V30 7895 C 745.793 0.294968 -4.3911 0
M  V30 7896 H 742.912 -0.094025 -0.730978 0
M  V30 7897 H 745.554 -0.907449 -1.66929 0
M  V30 7898 H 743.704 0.221609 -3.87867 0
M  V30 7899 H 745.376 -2.38723 -3.94727 0
M  V30 7900 H 743.619 -2.30402 -3.67556 0
M  V30 7901 H 744.29 -1.78311 -5.22407 0
M  V30 7902 H 746.766 -0.178563 -4.15717 0
M  V30 7903 H 745.642 0.208934 -5.48502 0
M  V30 7904 H 745.903 1.37841 -4.20062 0
M  V30 7905 N 744.962 1.50701 -0.461195 0
M  V30 7906 C 745.91 2.29918 0.352231 0
M  V30 7907 C 746.904 1.36778 0.999403 0
M  V30 7908 O 748.11 1.54015 0.931639 0
M  V30 7909 H 744.485 0.740249 0.132423 0
M  V30 7910 H 746.456 2.96497 -0.336424 0
M  V30 7911 C 745.205 3.17052 1.42736 0
M  V30 7912 H 744.528 3.88623 0.938747 0
M  V30 7913 H 745.968 3.75493 1.96928 0
M  V30 7914 C 744.427 2.3399 2.42384 0
M  V30 7915 O 744.957 2.01608 3.47444 0
M  V30 7916 N 743.163 1.96758 2.13857 0
M  V30 7917 H 742.71 2.23292 1.28447 0
M  V30 7918 H 742.668 1.41484 2.80766 0
M  V30 7919 N 746.441 0.193421 1.56409 0
M  V30 7920 C 747.689 -0.444908 1.97142 0
M  V30 7921 C 748.01 -1.62268 1.08139 0
M  V30 7922 O 747.28 -1.95307 0.152326 0
M  V30 7923 H 745.86 -0.16736 0.728011 0
M  V30 7924 H 748.522 0.279763 1.92882 0
M  V30 7925 H 747.618 -0.790159 3.01932 0
M  V30 7926 N 747.919 -1.57396 -0.0801906 0
M  V30 7927 C 749.167 -1.86467 -0.779384 0
M  V30 7928 C 749.488 -0.784243 -1.78535 0
M  V30 7929 O 748.758 0.187986 -1.94996 0
M  V30 7930 H 747.338 -0.68806 -0.29083 0
M  V30 7931 H 750 -1.94813 -0.0582749 0
M  V30 7932 H 749.096 -2.83701 -1.30078 0
M  V30 7933 N 749.397 0.351382 -1.53633 0
M  V30 7934 C 750.644 1.0925 -1.70502 0
M  V30 7935 C 750.972 1.88881 -0.464123 0
M  V30 7936 O 750.227 1.87693 0.554077 0
M  V30 7937 C 750.526 2.06744 -2.91533 0
M  V30 7938 C 750.192 1.43484 -4.27461 0
M  V30 7939 C 748.854 1.2596 -4.64422 0
M  V30 7940 C 751.206 0.978436 -5.11934 0
M  V30 7941 C 748.534 0.614017 -5.83478 0
M  V30 7942 C 750.886 0.346795 -6.31649 0
M  V30 7943 C 749.55 0.15917 -6.6731 0
M  V30 7944 H 748.82 0.399773 -0.623909 0
M  V30 7945 H 751.467 0.372656 -1.87839 0
M  V30 7946 H 749.772 2.85082 -2.68767 0
M  V30 7947 H 751.469 2.64066 -3.01778 0
M  V30 7948 H 748.059 1.5812 -3.98367 0
M  V30 7949 H 752.243 1.1017 -4.83918 0
M  V30 7950 H 747.499 0.457194 -6.09688 0
M  V30 7951 H 751.673 -0.0149864 -6.96398 0
M  V30 7952 H 749.3 -0.343129 -7.59425 0
M  V30 7953 N 750.875 1.45233 0.611969 0
M  V30 7954 C 751.838 1.53189 1.70487 0
M  V30 7955 C 752.838 0.411839 1.55437 0
M  V30 7956 O 754.028 0.675164 1.60584 0
M  V30 7957 C 751.16 1.42422 3.09723 0
M  V30 7958 H 752.353 2.5056 1.64802 0
M  V30 7959 H 749.906 1.32609 0.827318 0
M  V30 7960 H 750.641 0.462185 3.2099 0
M  V30 7961 H 750.426 2.23658 3.22055 0
M  V30 7962 H 751.916 1.51012 3.89339 0
M  V30 7963 N 752.353 -0.854086 1.3245 0
M  V30 7964 C 753.599 -1.61069 1.23225 0
M  V30 7965 C 753.932 -1.93111 -0.205349 0
M  V30 7966 O 753.207 -1.57397 -1.14265 0
M  V30 7967 C 753.49 -2.93065 2.09249 0
M  V30 7968 C 753.343 -2.67801 3.6139 0
M  V30 7969 C 754.662 -3.94341 1.95406 0
M  V30 7970 H 751.781 -0.584449 0.448986 0
M  V30 7971 H 754.423 -0.986189 1.62402 0
M  V30 7972 H 752.573 -3.46364 1.75967 0
M  V30 7973 H 754.245 -2.21052 4.04887 0
M  V30 7974 H 752.488 -2.01756 3.84027 0
M  V30 7975 H 753.159 -3.6179 4.16907 0
M  V30 7976 H 755.635 -3.50301 2.24562 0
M  V30 7977 H 754.511 -4.84555 2.57872 0
M  V30 7978 H 754.772 -4.32382 0.921865 0
M  V30 7979 N 753.831 -1.1567 -1.07043 0
M  V30 7980 C 755.108 -0.843948 -1.76456 0
M  V30 7981 C 755.488 0.659806 -2.00524 0
M  V30 7982 O 754.836 1.60518 -1.62623 0
M  V30 7983 C 755.046 -1.65822 -3.0709 0
M  V30 7984 C 756.394 -1.8664 -3.8138 0
M  V30 7985 O 757.418 -1.62624 -3.1691 0
M  V30 7986 O 756.277 -2.26884 -4.97178 0
M  V30 7987 H 753.371 -0.310677 -0.766426 0
M  V30 7988 H 755.917 -1.26266 -1.1338 0
M  V30 7989 H 754.689 -2.67902 -2.85209 0
M  V30 7990 H 754.312 -1.23605 -3.77899 0
M  V30 7991 N 755.309 1.25446 -0.953992 0
M  V30 7992 C 756.256 2.25912 -0.472485 0
M  V30 7993 C 757.226 1.59173 0.47469 0
M  V30 7994 O 758.411 1.86812 0.388082 0
M  V30 7995 C 755.551 3.44235 0.244218 0
M  V30 7996 C 754.664 4.25613 -0.740121 0
M  V30 7997 C 753.799 5.312 -0.000922267 0
M  V30 7998 C 752.838 6.04265 -0.976236 0
M  V30 7999 N 751.975 7.01589 -0.267952 0
M  V30 8000 H 756.815 2.66469 -1.3341 0
M  V30 8001 H 754.352 1.31005 -0.669045 0
M  V30 8002 H 756.31 4.11682 0.676314 0
M  V30 8003 H 754.94 3.04554 1.06988 0
M  V30 8004 H 753.992 3.57834 -1.2907 0
M  V30 8005 H 755.304 4.762 -1.48441 0
M  V30 8006 H 754.458 6.04719 0.48984 0
M  V30 8007 H 753.197 4.81484 0.776159 0
M  V30 8008 H 752.202 5.29561 -1.478 0
M  V30 8009 H 753.427 6.5607 -1.75354 0
M  V30 8010 H 751.373 6.54164 0.490403 0
M  V30 8011 H 751.29 7.4999 -0.951344 0
M  V30 8012 H 752.558 7.7924 0.201294 0
M  V30 8013 N 756.787 0.722489 1.40064 0
M  V30 8014 C 758.012 0.273446 2.05589 0
M  V30 8015 C 758.437 -1.07875 1.54093 0
M  V30 8016 O 757.795 -1.68095 0.679252 0
M  V30 8017 C 757.843 0.271023 3.5958 0
M  V30 8018 O 756.947 -0.745499 4.05606 0
M  V30 8019 H 756.288 0.126856 0.65177 0
M  V30 8020 H 758.818 0.984906 1.79334 0
M  V30 8021 H 758.828 0.111084 4.07849 0
M  V30 8022 H 757.503 1.25776 3.96425 0
M  V30 8023 H 756.08 -0.552719 3.68781 0
M  V30 8024 N 758.265 -1.50454 0.469181 0
M  V30 8025 C 759.542 -1.9504 -0.147955 0
M  V30 8026 C 759.922 -1.40946 -1.57154 0
M  V30 8027 O 759.27 -0.609663 -2.20217 0
M  V30 8028 C 759.48 -3.48875 -0.0932198 0
M  V30 8029 C 760.828 -4.23655 -0.283056 0
M  V30 8030 O 761.852 -3.55795 -0.169892 0
M  V30 8031 O 760.711 -5.44102 -0.511396 0
M  V30 8032 H 757.805 -0.819283 -0.11271 0
M  V30 8033 H 760.351 -1.6123 0.529446 0
M  V30 8034 H 759.123 -3.80791 0.900784 0
M  V30 8035 H 758.746 -3.89217 -0.812161 0
M  V30 8036 N 759.743 -0.201713 -1.56304 0
M  V30 8037 C 760.971 0.440723 -2.02152 0
M  V30 8038 C 761.386 1.54735 -1.08179 0
M  V30 8039 O 760.743 1.82289 -0.0878196 0
M  V30 8040 C 760.794 0.990884 -3.47655 0
M  V30 8041 O 760.515 -0.0715937 -4.38041 0
M  V30 8042 C 762.016 1.70854 -4.09052 0
M  V30 8043 H 759.236 0.109987 -0.661924 0
M  V30 8044 H 761.78 -0.312358 -2.021 0
M  V30 8045 H 759.935 1.69432 -3.48384 0
M  V30 8046 H 760.349 0.338892 -5.23404 0
M  V30 8047 H 761.823 2.04572 -5.12693 0
M  V30 8048 H 762.3 2.61462 -3.52894 0
M  V30 8049 H 762.906 1.0508 -4.12114 0
M  V30 8050 N 761.222 1.57436 0.0718424 0
M  V30 8051 C 762.471 1.86431 0.769826 0
M  V30 8052 C 762.784 0.794355 1.78744 0
M  V30 8053 O 763.99 0.972148 2.53499 0
M  V30 8054 C 762.446 3.307 1.42006 0
M  V30 8055 C 762.054 4.45824 0.441017 0
M  V30 8056 C 763.798 3.68894 2.10041 0
M  V30 8057 C 761.705 5.81134 1.09717 0
M  V30 8058 H 760.635 0.695474 0.291259 0
M  V30 8059 H 763.286 1.83485 0.0231224 0
M  V30 8060 H 761.668 3.28257 2.21502 0
M  V30 8061 H 762.842 4.59659 -0.32413 0
M  V30 8062 H 761.157 4.16181 -0.134886 0
M  V30 8063 H 763.754 4.67281 2.59908 0
M  V30 8064 H 764.097 2.98692 2.89981 0
M  V30 8065 H 764.63 3.73326 1.37376 0
M  V30 8066 H 761.369 6.54628 0.338095 0
M  V30 8067 H 760.889 5.711 1.83317 0
M  V30 8068 H 762.568 6.26468 1.617 0
M  V30 8069 N 762.7 -0.34323 1.53817 0
M  V30 8070 C 763.925 -1.1079 1.75329 0
M  V30 8071 C 764.35 -1.81571 0.491293 0
M  V30 8072 O 763.708 -1.72561 -0.556089 0
M  V30 8073 C 763.756 -2.09681 2.9337 0
M  V30 8074 O 762.86 -3.17207 2.63541 0
M  V30 8075 H 762.201 -0.320402 0.581583 0
M  V30 8076 H 764.731 -0.393525 2.0078 0
M  V30 8077 H 764.741 -2.52897 3.20168 0
M  V30 8078 H 763.416 -1.5756 3.84899 0
M  V30 8079 H 761.993 -2.78806 2.47632 0
M  V30 8080 N 764.178 -1.45556 -0.604258 0
M  V30 8081 C 765.425 -1.49746 -1.36317 0
M  V30 8082 C 765.753 -0.140516 -1.93992 0
M  V30 8083 O 765.008 0.861244 -1.7573 0
M  V30 8084 C 765.307 -2.52697 -2.52743 0
M  V30 8085 C 764.973 -3.97315 -2.13195 0
M  V30 8086 C 763.635 -4.36692 -2.02123 0
M  V30 8087 C 765.987 -4.88249 -1.8238 0
M  V30 8088 C 763.315 -5.64895 -1.58463 0
M  V30 8089 C 765.667 -6.16867 -1.40205 0
M  V30 8090 C 764.331 -6.55172 -1.27694 0
M  V30 8091 H 763.601 -0.54796 -0.49882 0
M  V30 8092 H 766.248 -1.7892 -0.682643 0
M  V30 8093 H 764.553 -2.17105 -3.26148 0
M  V30 8094 H 766.25 -2.53176 -3.10971 0
M  V30 8095 H 762.84 -3.66176 -2.22739 0
M  V30 8096 H 767.024 -4.58561 -1.89829 0
M  V30 8097 H 762.28 -5.93365 -1.47402 0
M  V30 8098 H 766.454 -6.86771 -1.15408 0
M  V30 8099 H 764.081 -7.54411 -0.936375 0
M  V30 8100 N 765.656 0.84705 -1.32902 0
M  V30 8101 C 766.884 1.63403 -1.26913 0
M  V30 8102 C 767.299 1.88108 0.161483 0
M  V30 8103 O 766.656 1.45546 1.10103 0
M  V30 8104 C 766.707 2.98896 -2.03331 0
M  V30 8105 O 766.428 2.75281 -3.40811 0
M  V30 8106 C 767.929 3.93335 -2.04457 0
M  V30 8107 H 765.149 0.508701 -0.437566 0
M  V30 8108 H 767.693 1.05567 -1.75145 0
M  V30 8109 H 765.848 3.53356 -1.58802 0
M  V30 8110 H 766.262 3.61504 -3.8002 0
M  V30 8111 H 767.736 4.85647 -2.62394 0
M  V30 8112 H 768.213 4.26885 -1.03274 0
M  V30 8113 H 768.819 3.44812 -2.48967 0
M  V30 8114 N 767.134 1.16236 1.06428 0
M  V30 8115 C 768.066 0.825446 2.1382 0
M  V30 8116 C 769.079 -0.166707 1.61944 0
M  V30 8117 O 770.268 0.0578606 1.78406 0
M  V30 8118 C 767.368 0.208023 3.38261 0
M  V30 8119 C 766.541 1.23994 4.19457 0
M  V30 8120 C 765.6 0.642569 5.22262 0
M  V30 8121 O 764.626 1.31106 5.53895 0
M  V30 8122 N 765.828 -0.571327 5.77682 0
M  V30 8123 H 768.593 1.7497 2.43322 0
M  V30 8124 H 766.154 1.05951 1.22417 0
M  V30 8125 H 768.146 -0.204608 4.04182 0
M  V30 8126 H 766.716 -0.619752 3.06395 0
M  V30 8127 H 765.936 1.82879 3.49212 0
M  V30 8128 H 767.224 1.93638 4.70512 0
M  V30 8129 H 766.622 -1.13263 5.54245 0
M  V30 8130 H 765.179 -0.926187 6.45186 0
M  V30 8131 N 768.612 -1.24939 0.960631 0
M  V30 8132 C 769.84 -1.96881 0.636045 0
M  V30 8133 C 770.255 -1.71334 -0.793093 0
M  V30 8134 O 769.612 -0.992917 -1.53125 0
M  V30 8135 C 769.663 -3.50309 0.892533 0
M  V30 8136 O 769.384 -3.74977 2.26548 0
M  V30 8137 C 770.885 -4.39474 0.581159 0
M  V30 8138 H 768.105 -0.627399 0.237931 0
M  V30 8139 H 770.649 -1.58952 1.28664 0
M  V30 8140 H 768.804 -3.86326 0.288257 0
M  V30 8141 H 769.218 -4.69401 2.34014 0
M  V30 8142 H 770.692 -5.46008 0.811125 0
M  V30 8143 H 771.169 -4.3652 -0.48443 0
M  V30 8144 H 771.775 -4.09032 1.16502 0
M  V30 8145 N 770.09 -0.729906 -1.39679 0
M  V30 8146 C 771.315 -0.284345 -2.05442 0
M  V30 8147 C 771.74 1.07056 -1.54663 0
M  V30 8148 O 771.098 1.67732 -0.688157 0
M  V30 8149 C 771.146 -0.290089 -3.59431 0
M  V30 8150 O 770.25 0.723978 -4.05995 0
M  V30 8151 H 769.591 -0.130311 -0.651088 0
M  V30 8152 H 772.121 -0.994403 -1.78809 0
M  V30 8153 H 772.131 -0.132712 -4.07784 0
M  V30 8154 H 770.806 -1.27877 -3.95753 0
M  V30 8155 H 769.383 0.533154 -3.69069 0
M  V30 8156 N 771.568 1.50203 -0.477153 0
M  V30 8157 C 772.5 2.26508 0.350239 0
M  V30 8158 C 773.513 1.32081 0.95176 0
M  V30 8159 O 774.702 1.57546 0.839139 0
M  V30 8160 C 771.802 3.0361 1.50579 0
M  V30 8161 C 770.975 4.25438 1.01595 0
M  V30 8162 C 770.034 4.84783 2.04626 0
M  V30 8163 O 769.06 5.45528 1.62442 0
M  V30 8164 N 770.262 4.72318 3.37485 0
M  V30 8165 H 773.027 2.98155 -0.30394 0
M  V30 8166 H 770.588 1.58938 -0.308289 0
M  V30 8167 H 772.58 3.4019 2.1921 0
M  V30 8168 H 771.15 2.34724 2.06455 0
M  V30 8169 H 770.37 3.93894 0.155316 0
M  V30 8170 H 771.658 5.04413 0.666694 0
M  V30 8171 H 771.056 4.24022 3.74462 0
M  V30 8172 H 769.613 5.13149 4.01897 0
M  V30 8173 N 773.046 0.209999 1.56195 0
M  V30 8174 C 774.293 -0.424813 1.97994 0
M  V30 8175 C 774.621 -1.60589 1.09733 0
M  V30 8176 O 773.876 -1.95201 0.139693 0
M  V30 8177 C 774.175 -0.91312 3.45539 0
M  V30 8178 C 773.841 0.156187 4.50629 0
M  V30 8179 C 772.503 0.449966 4.79092 0
M  V30 8180 C 774.855 0.879959 5.13718 0
M  V30 8181 C 772.183 1.47223 5.67928 0
M  V30 8182 C 774.535 1.89148 6.0366 0
M  V30 8183 C 773.199 2.1923 6.30472 0
M  V30 8184 H 772.469 -0.15545 0.724511 0
M  V30 8185 H 775.116 0.310095 1.88973 0
M  V30 8186 H 773.421 -1.72658 3.51705 0
M  V30 8187 H 775.118 -1.41395 3.75245 0
M  V30 8188 H 771.708 -0.0829466 4.2852 0
M  V30 8189 H 775.892 0.66623 4.91808 0
M  V30 8190 H 771.148 1.71105 5.86969 0
M  V30 8191 H 775.322 2.45745 6.516 0
M  V30 8192 H 772.949 2.98587 6.99107 0
M  V30 8193 O 774.563 -1.61333 0.0733639 0
M  V30 8194 H 775.254 -1.86233 -0.532616 0
M  V30 END ATOM
M  V30 BEGIN BOND
M  V30 END BOND
M  V30 END CTAB
M  END
$$$$
