drugbank_target|P40261 Nicotinamide N-methyltransferase (DB00627)
 OpenBabel12092119403D

  0  0  0     0  0            999 V3000
M  V30 BEGIN CTAB
M  V30 COUNTS 4167 4212 0 0 0
M  V30 BEGIN ATOM
M  V30 1 H -0.908 1.98254 -0.117106 0
M  V30 2 N 0 1.576 0 0
M  V30 3 C 0.933 2.03868 1.02534 0
M  V30 4 C 1.911 0.928543 1.3348 0
M  V30 5 O 3.095 1.19667 1.45644 0
M  V30 6 C 0.222 2.43627 2.35294 0
M  V30 7 C -0.732 3.65373 2.2001 0
M  V30 8 S 0.101 5.13292 1.52614 0
M  V30 9 C 1.257 5.56322 2.86805 0
M  V30 10 H 1.49 2.90518 0.631377 0
M  V30 11 H -0.977 1.52953 0.210867 0
M  V30 12 H 0.981 2.67203 3.11629 0
M  V30 13 H -0.358 1.57376 2.7183 0
M  V30 14 H -1.165 3.90944 3.18086 0
M  V30 15 H -1.563 3.418 1.51819 0
M  V30 16 H 0.729 5.58782 3.83104 0
M  V30 17 H 1.672 6.56266 2.65933 0
M  V30 18 H 2.08 4.83886 2.90714 0
M  V30 19 N 1.4781 -0.272755 1.55222 0
M  V30 20 C 2.3881 -1.35918 1.91216 0
M  V30 21 C 3.4041 -1.54026 0.809436 0
M  V30 22 O 4.5801 -1.68148 1.10852 0
M  V30 23 C 1.6451 -2.69834 2.17693 0
M  V30 24 C 0.7061 -2.6047 3.41253 0
M  V30 25 C -0.0609 -3.88 3.66458 0
M  V30 26 O 0.1621 -4.88693 2.94169 0
M  V30 27 O -0.9039 -3.88189 4.59992 0
M  V30 28 H 2.9221 -1.0839 2.83699 0
M  V30 29 H 0.5071 -0.471301 1.41771 0
M  V30 30 H 2.3891 -3.49017 2.36147 0
M  V30 31 H 1.0641 -2.97148 1.28392 0
M  V30 32 H -0.0289 -1.79663 3.28134 0
M  V30 33 H 1.3041 -2.38106 4.30774 0
M  V30 34 N 2.9562 -1.48159 -0.537278 0
M  V30 35 C 4.1812 -1.59707 -1.32319 0
M  V30 36 C 4.6062 -0.254859 -1.86365 0
M  V30 37 O 3.9642 0.772378 -1.64024 0
M  V30 38 C 4.0122 -2.6412 -2.45505 0
M  V30 39 O 3.1162 -2.20774 -3.48328 0
M  V30 40 H 2.4572 -0.535791 -0.392204 0
M  V30 41 H 4.9872 -1.94092 -0.647268 0
M  V30 42 H 4.9972 -2.85166 -2.91795 0
M  V30 43 H 3.6722 -3.61567 -2.05528 0
M  V30 44 H 2.2492 -2.09911 -3.08207 0
M  V30 45 N 4.4343 0.785586 -1.36625 0
M  V30 46 C 5.6823 1.54057 -1.30808 0
M  V30 47 C 6.0033 1.94683 0.111157 0
M  V30 48 O 5.2733 1.65241 1.05224 0
M  V30 49 H 3.8533 0.571354 -0.481211 0
M  V30 50 H 6.5153 0.935821 -1.70963 0
M  V30 51 H 5.6113 2.44637 -1.93801 0
M  V30 52 N 5.9124 1.20967 1.01018 0
M  V30 53 C 7.1594 1.02374 1.74716 0
M  V30 54 C 7.4874 -0.443375 1.89379 0
M  V30 55 O 6.7424 -1.34535 1.42123 0
M  V30 56 C 7.0414 1.65997 3.16512 0
M  V30 57 C 6.7074 3.15831 3.2181 0
M  V30 58 C 5.3694 3.56719 3.22963 0
M  V30 59 C 7.7214 4.11816 3.19464 0
M  V30 60 C 5.0494 4.92107 3.19449 0
M  V30 61 C 7.4014 5.47158 3.17491 0
M  V30 62 C 6.0654 5.87451 3.16951 0
M  V30 63 H 5.3354 0.374614 0.639332 0
M  V30 64 H 7.9824 1.50485 1.18434 0
M  V30 65 H 6.2874 1.10166 3.75993 0
M  V30 66 H 7.9844 1.49119 3.72242 0
M  V30 67 H 4.5744 2.83263 3.21652 0
M  V30 68 H 8.7584 3.81257 3.17737 0
M  V30 69 H 4.0144 5.22579 3.17366 0
M  V30 70 H 8.1884 6.21274 3.14629 0
M  V30 71 H 5.8154 6.92329 3.13983 0
M  V30 72 N 7.3905 -1.2043 1.01659 0
M  V30 73 C 8.6185 -1.93777 0.725132 0
M  V30 74 C 9.0335 -1.74772 -0.714166 0
M  V30 75 O 8.3905 -1.06169 -1.4844 0
M  V30 76 C 8.4415 -3.45876 1.05129 0
M  V30 77 O 8.1625 -3.6426 2.43406 0
M  V30 78 C 9.6635 -4.36368 0.780891 0
M  V30 79 H 6.8835 -0.615901 0.266284 0
M  V30 80 H 9.4275 -1.52922 1.35776 0
M  V30 81 H 7.5825 -3.8461 0.464065 0
M  V30 82 H 7.9965 -4.58246 2.55169 0
M  V30 83 H 9.4705 -5.41743 1.05918 0
M  V30 84 H 9.9475 -4.38275 -0.284937 0
M  V30 85 H 10.5535 -4.03296 1.35027 0
M  V30 86 N 8.8686 -0.792821 -1.36206 0
M  V30 87 C 10.0936 -0.377701 -2.03932 0
M  V30 88 C 10.5186 0.998947 -1.59382 0
M  V30 89 O 9.8766 1.64421 -0.763903 0
M  V30 90 C 9.9246 -0.453635 -3.57735 0
M  V30 91 O 9.0286 0.538151 -4.08874 0
M  V30 92 H 8.3696 -0.159855 -0.644471 0
M  V30 93 H 10.8996 -1.07488 -1.7409 0
M  V30 94 H 10.9096 -0.318464 -4.06755 0
M  V30 95 H 9.5846 -1.45784 -3.89512 0
M  V30 96 H 8.1616 0.364359 -3.71116 0
M  V30 97 N 10.3467 1.47872 -0.545128 0
M  V30 98 C 11.2937 2.29849 0.2093 0
M  V30 99 C 12.2637 1.38313 0.919707 0
M  V30 100 O 13.4487 1.67277 0.917772 0
M  V30 101 C 10.5887 3.22019 1.24088 0
M  V30 102 C 9.7017 4.2864 0.537778 0
M  V30 103 C 8.8367 5.07973 1.5536 0
M  V30 104 C 7.8757 6.06381 0.8348 0
M  V30 105 N 7.0127 6.78717 1.79688 0
M  V30 106 H 11.8527 2.93845 -0.49591 0
M  V30 107 H 9.3897 1.44848 -0.256389 0
M  V30 108 H 11.3477 3.73868 1.85144 0
M  V30 109 H 9.9777 2.59914 1.91428 0
M  V30 110 H 9.0297 3.7994 -0.187046 0
M  V30 111 H 10.3417 4.98793 -0.0258907 0
M  V30 112 H 9.4957 5.63912 2.23803 0
M  V30 113 H 8.2347 4.37693 2.15118 0
M  V30 114 H 7.2397 5.49631 0.136388 0
M  V30 115 H 8.4647 6.78665 0.24313 0
M  V30 116 H 6.4107 6.11177 2.38326 0
M  V30 117 H 6.3277 7.44998 1.28505 0
M  V30 118 H 7.5957 7.39237 2.47282 0
M  V30 119 N 11.8248 0.280983 1.55075 0
M  V30 120 C 13.1018 -0.386207 1.91749 0
M  V30 121 C 13.4818 -1.73264 1.20594 0
M  V30 122 O 12.8298 -2.26034 0.334784 0
M  V30 123 C 13.0398 -0.520687 3.45094 0
M  V30 124 C 14.3878 -0.800865 4.16979 0
M  V30 125 O 15.4118 -0.605271 3.5102 0
M  V30 126 O 14.2708 -1.1753 5.33712 0
M  V30 127 H 11.3648 -0.212408 0.799257 0
M  V30 128 H 13.9108 0.327568 1.66509 0
M  V30 129 H 12.6828 0.426633 3.88967 0
M  V30 130 H 12.3058 -1.2837 3.76307 0
M  V30 131 N 13.3029 -1.57598 0.00835791 0
M  V30 132 C 14.5309 -1.95214 -0.68549 0
M  V30 133 C 14.9459 -0.883706 -1.66841 0
M  V30 134 O 14.3029 0.136565 -1.81988 0
M  V30 135 C 14.3539 -3.32865 -1.41007 0
M  V30 136 O 14.0749 -4.35609 -0.466552 0
M  V30 137 C 15.5759 -3.84991 -2.19765 0
M  V30 138 H 12.7959 -0.643422 -0.190392 0
M  V30 139 H 15.3399 -2.04406 0.0619607 0
M  V30 140 H 13.4949 -3.24956 -2.10908 0
M  V30 141 H 13.9089 -5.15288 -0.978699 0
M  V30 142 H 15.3829 -4.8371 -2.65948 0
M  V30 143 H 15.8599 -3.18137 -3.02796 0
M  V30 144 H 16.4659 -3.96103 -1.54864 0
M  V30 145 N 14.781 0.264519 -1.55364 0
M  V30 146 C 16.011 1.01153 -1.80143 0
M  V30 147 C 16.419 1.80115 -0.579253 0
M  V30 148 O 15.762 1.77813 0.46132 0
M  V30 149 C 15.824 2.01098 -2.97993 0
M  V30 150 C 15.488 1.40995 -4.34706 0
M  V30 151 C 16.485 0.821316 -5.13372 0
M  V30 152 C 14.17 1.43461 -4.81378 0
M  V30 153 C 16.164 0.265339 -6.36847 0
M  V30 154 C 13.851 0.874771 -6.04807 0
M  V30 155 C 14.849 0.291146 -6.82379 0
M  V30 156 O 14.537 -0.260093 -8.03479 0
M  V30 157 H 14.269 0.304125 -0.603725 0
M  V30 158 H 16.823 0.298089 -2.03225 0
M  V30 159 H 15.053 2.76224 -2.70623 0
M  V30 160 H 16.742 2.61997 -3.1002 0
M  V30 161 H 17.508 0.794903 -4.78442 0
M  V30 162 H 13.387 1.87826 -4.21002 0
M  V30 163 H 16.931 -0.190837 -6.97339 0
M  V30 164 H 12.828 0.898452 -6.39217 0
M  V30 165 H 13.596 -0.150265 -8.18362 0
M  V30 166 N 16.2591 1.48442 0.529413 0
M  V30 167 C 17.1891 1.65902 1.64313 0
M  V30 168 C 18.1701 0.507897 1.6234 0
M  V30 169 O 19.3551 0.740503 1.79528 0
M  V30 170 C 16.4851 1.69911 3.02898 0
M  V30 171 C 15.4391 2.8453 3.19729 0
M  V30 172 C 14.7651 2.73629 4.59381 0
M  V30 173 C 16.0651 4.25821 3.02447 0
M  V30 174 H 17.7591 2.5914 1.49955 0
M  V30 175 H 15.3051 1.24709 0.719982 0
M  V30 176 H 17.2581 1.80715 3.80684 0
M  V30 177 H 15.9821 0.732524 3.18279 0
M  V30 178 H 14.6411 2.73283 2.44361 0
M  V30 179 H 14.2891 1.74938 4.71599 0
M  V30 180 H 13.9891 3.50541 4.71588 0
M  V30 181 H 15.5131 2.86401 5.39265 0
M  V30 182 H 16.9271 4.37898 3.70024 0
M  V30 183 H 15.3241 5.03735 3.26146 0
M  V30 184 H 16.3941 4.42244 1.98867 0
M  V30 185 N 17.7372 -0.778329 1.37039 0
M  V30 186 C 18.9622 -1.57248 1.35233 0
M  V30 187 C 19.3872 -1.87999 -0.0615568 0
M  V30 188 O 18.7452 -1.48734 -1.03672 0
M  V30 189 C 18.7932 -2.86353 2.19167 0
M  V30 190 O 17.8972 -3.80442 1.59178 0
M  V30 191 H 17.2382 -0.476569 0.462362 0
M  V30 192 H 19.7682 -0.963853 1.80474 0
M  V30 193 H 19.7782 -3.35519 2.32145 0
M  V30 194 H 18.4532 -2.63299 3.21942 0
M  V30 195 H 17.0302 -3.39067 1.55203 0
M  V30 196 N 19.2153 -1.21501 -1.00376 0
M  V30 197 C 20.1653 -0.942843 -2.07592 0
M  V30 198 C 21.1493 0.102384 -1.60574 0
M  V30 199 O 22.3413 -0.10671 -1.76678 0
M  V30 200 C 19.4703 -0.510729 -3.3948 0
M  V30 201 C 18.5563 -1.59009 -3.93163 0
M  V30 202 N 18.9473 -2.81544 -4.20198 0
M  V30 203 C 17.2453 -1.45925 -4.21452 0
M  V30 204 C 17.9463 -3.51261 -4.63671 0
M  V30 205 N 16.9223 -2.78703 -4.66718 0
M  V30 206 H 20.7243 -1.87378 -2.26421 0
M  V30 207 H 18.2383 -1.11093 -1.18458 0
M  V30 208 H 20.2353 -0.297101 -4.1584 0
M  V30 209 H 18.8953 0.413436 -3.22057 0
M  V30 210 H 19.9063 -3.18075 -4.08716 0
M  V30 211 H 16.5833 -0.600467 -4.13159 0
M  V30 212 H 17.9733 -4.56183 -4.93302 0
M  V30 213 N 20.6934 1.19889 -1.02296 0
M  V30 214 C 21.9404 1.8942 -0.715972 0
M  V30 215 C 22.2684 1.79251 0.754944 0
M  V30 216 O 21.5234 1.17526 1.56481 0
M  V30 217 C 21.8224 3.39883 -1.10518 0
M  V30 218 C 21.4884 3.70254 -2.57337 0
M  V30 219 C 20.1504 3.78254 -2.97452 0
M  V30 220 C 22.5024 3.84052 -3.52354 0
M  V30 221 C 19.8304 3.97514 -4.31509 0
M  V30 222 C 22.1824 4.04824 -4.86108 0
M  V30 223 C 20.8464 4.11054 -5.25919 0
M  V30 224 H 20.1164 0.693138 -0.261993 0
M  V30 225 H 22.7634 1.42012 -1.28472 0
M  V30 226 H 21.0684 3.8915 -0.454953 0
M  V30 227 H 22.7654 3.9199 -0.845261 0
M  V30 228 H 19.3554 3.64632 -2.25258 0
M  V30 229 H 23.5394 3.77221 -3.22518 0
M  V30 230 H 18.7954 4.00574 -4.61898 0
M  V30 231 H 22.9694 4.14442 -5.59653 0
M  V30 232 H 20.5964 4.2573 -6.29808 0
M  V30 233 N 22.1715 0.800033 1.35784 0
M  V30 234 C 23.1195 0.193851 2.31791 0
M  V30 235 C 24.1135 -0.652744 1.56319 0
M  V30 236 O 25.3195 -0.546641 1.71499 0
M  V30 237 H 21.6945 0.04392 0.750716 0
M  V30 238 H 23.6655 1.01883 2.80468 0
M  V30 239 C 22.4145 -0.648338 3.41602 0
M  V30 240 H 21.7375 -0.00624665 3.998 0
M  V30 241 H 23.1775 -1.03898 4.11073 0
M  V30 242 C 21.6365 -1.8111 2.84079 0
M  V30 243 O 22.1665 -2.90825 2.77099 0
M  V30 244 N 20.3725 -1.62056 2.41218 0
M  V30 245 H 19.9195 -0.728123 2.47095 0
M  V30 246 H 19.8775 -2.40013 2.03079 0
M  V30 247 N 23.6496 -1.47581 0.552962 0
M  V30 248 C 25.0606 -1.86324 0.118463 0
M  V30 249 C 25.4116 -1.46006 -1.3106 0
M  V30 250 O 24.5366 -0.861182 -1.98526 0
M  V30 251 C 25.1316 -3.3816 0.20821 0
M  V30 252 C 23.6906 -3.7601 -0.171226 0
M  V30 253 C 22.8376 -2.71634 0.557686 0
M  V30 254 H 25.7886 -1.39159 0.762928 0
M  V30 255 H 25.8096 -3.76141 -0.574278 0
M  V30 256 H 25.3216 -3.67473 1.24841 0
M  V30 257 H 23.4226 -3.52313 -1.21269 0
M  V30 258 H 23.5356 -4.78745 0.184379 0
M  V30 259 H 21.8996 -2.547 0.00125792 0
M  V30 260 H 22.6826 -3.0379 1.59896 0
M  V30 261 N 25.1277 -0.289203 -1.54924 0
M  V30 262 C 26.5437 0.0645403 -1.59469 0
M  V30 263 C 26.7437 1.53419 -1.30632 0
M  V30 264 O 25.7997 2.2852 -1.074 0
M  V30 265 C 27.1127 -0.32278 -2.98963 0
M  V30 266 C 28.6607 -0.270564 -3.11828 0
M  V30 267 C 29.1357 -0.632532 -4.53611 0
M  V30 268 N 30.6267 -0.584617 -4.59496 0
M  V30 269 C 31.3617 -0.837314 -5.67254 0
M  V30 270 N 30.8577 -1.15536 -6.83098 0
M  V30 271 N 32.6507 -0.765166 -5.56868 0
M  V30 272 H 24.8017 -1.24714 -1.71931 0
M  V30 273 H 27.0647 -0.504809 -0.802416 0
M  V30 274 H 26.7707 -1.34541 -3.24948 0
M  V30 275 H 26.6447 0.32944 -3.75759 0
M  V30 276 H 29.0317 0.742805 -2.85598 0
M  V30 277 H 29.1127 -0.957242 -2.37214 0
M  V30 278 H 28.7567 -1.64365 -4.80569 0
M  V30 279 H 28.6867 0.07609 -5.26545 0
M  V30 280 H 31.1777 -0.349248 -3.76283 0
M  V30 281 H 31.4907 -1.33447 -7.61191 0
M  V30 282 H 29.8357 -1.19328 -6.84679 0
M  V30 283 H 33.0267 -0.516432 -4.65243 0
M  V30 284 H 33.1997 -0.965477 -6.40767 0
M  V30 285 N 26.6058 1.57591 -0.0167156 0
M  V30 286 C 27.8828 1.82547 0.702564 0
M  V30 287 C 28.2628 0.898018 1.91047 0
M  V30 288 O 27.6108 -0.0493456 2.28447 0
M  V30 289 C 27.8208 3.31459 1.09251 0
M  V30 290 C 29.1688 3.97622 1.48937 0
M  V30 291 O 30.1928 3.35881 1.18584 0
M  V30 292 O 29.0518 5.06415 2.05442 0
M  V30 293 H 26.1458 0.752268 0.343544 0
M  V30 294 H 28.6918 1.69644 -0.0434495 0
M  V30 295 H 27.4638 3.9061 0.23227 0
M  V30 296 H 27.0868 3.49422 1.89709 0
M  V30 297 N 28.0839 -0.256276 1.55502 0
M  V30 298 C 29.3139 -1.00196 1.80677 0
M  V30 299 C 29.7219 -1.79805 0.588797 0
M  V30 300 O 29.0649 -1.78055 -0.451883 0
M  V30 301 C 29.1269 -1.99515 2.99055 0
M  V30 302 C 28.7909 -1.38688 4.35448 0
M  V30 303 C 29.7879 -0.794079 5.138 0
M  V30 304 C 27.4729 -1.40906 4.82132 0
M  V30 305 C 29.4669 -0.231562 6.36979 0
M  V30 306 C 27.1539 -0.842684 6.05262 0
M  V30 307 C 28.1519 -0.254953 6.82524 0
M  V30 308 O 27.8399 0.3027 8.0333 0
M  V30 309 H 27.5719 -0.300919 0.60533 0
M  V30 310 H 30.1259 -0.287307 2.03381 0
M  V30 311 H 28.3559 -2.74785 2.72084 0
M  V30 312 H 30.0449 -2.60349 3.11405 0
M  V30 313 H 30.8109 -0.769519 4.78856 0
M  V30 314 H 26.6899 -1.85591 4.21992 0
M  V30 315 H 30.2339 0.227816 6.97228 0
M  V30 316 H 26.1309 -0.86454 6.39684 0
M  V30 317 H 26.8989 0.193662 8.18271 0
M  V30 318 N 29.562 -1.4872 -0.521534 0
M  V30 319 C 30.492 -1.66771 -1.63431 0
M  V30 320 C 31.473 -0.516499 -1.62069 0
M  V30 321 O 32.658 -0.750013 -1.79132 0
M  V30 322 C 29.788 -1.71515 -3.01993 0
M  V30 323 C 28.742 -2.86222 -3.18216 0
M  V30 324 C 28.068 -2.76061 -4.57924 0
M  V30 325 C 29.368 -4.27419 -3.00184 0
M  V30 326 H 31.062 -2.59932 -1.48579 0
M  V30 327 H 28.608 -1.25089 -0.713358 0
M  V30 328 H 30.561 -1.82731 -3.7972 0
M  V30 329 H 29.285 -0.749393 -3.17886 0
M  V30 330 H 27.944 -2.74575 -2.42908 0
M  V30 331 H 27.592 -1.77437 -4.70665 0
M  V30 332 H 27.292 -3.53037 -4.69722 0
M  V30 333 H 28.816 -2.89256 -5.37739 0
M  V30 334 H 30.23 -4.39855 -3.67697 0
M  V30 335 H 28.627 -5.05458 -3.2347 0
M  V30 336 H 29.697 -4.43293 -1.96518 0
M  V30 337 N 31.0401 0.771051 -1.3745 0
M  V30 338 C 31.9501 1.91538 -1.35464 0
M  V30 339 C 32.9661 1.72134 -0.254123 0
M  V30 340 O 34.1421 1.95358 -0.489626 0
M  V30 341 C 31.2071 3.26671 -1.16134 0
M  V30 342 C 30.2681 3.58723 -2.35831 0
M  V30 343 C 29.5011 4.87409 -2.17413 0
M  V30 344 O 29.7241 5.58506 -1.15876 0
M  V30 345 O 28.6581 5.18539 -3.05615 0
M  V30 346 H 32.4841 1.96165 -2.31847 0
M  V30 347 H 30.0691 0.9139 -1.18187 0
M  V30 348 H 31.9511 4.07499 -1.07345 0
M  V30 349 H 30.6261 3.22894 -0.228251 0
M  V30 350 H 29.5331 2.78127 -2.50192 0
M  V30 351 H 30.8661 3.67243 -3.27709 0
M  V30 352 N 32.5182 1.22032 0.997298 0
M  V30 353 C 33.4652 0.986467 2.08656 0
M  V30 354 C 34.4352 -0.0902671 1.65855 0
M  V30 355 O 35.6202 0.0584294 1.90711 0
M  V30 356 C 32.7602 0.565569 3.40434 0
M  V30 357 C 31.8732 1.71259 3.96604 0
M  V30 358 C 31.0082 1.24011 5.16522 0
M  V30 359 C 30.0472 2.35896 5.64818 0
M  V30 360 N 29.1842 1.89726 6.7598 0
M  V30 361 H 34.0242 1.91892 2.27994 0
M  V30 362 H 31.5612 0.956199 1.11782 0
M  V30 363 H 33.5192 0.302738 4.161 0
M  V30 364 H 32.1492 -0.329879 3.2111 0
M  V30 365 H 31.2012 2.08986 3.17851 0
M  V30 366 H 32.5132 2.55436 4.28432 0
M  V30 367 H 31.6672 0.934395 5.99461 0
M  V30 368 H 30.4062 0.368487 4.86306 0
M  V30 369 H 29.4112 2.67261 4.8047 0
M  V30 370 H 30.6362 3.23567 5.97061 0
M  V30 371 H 28.5822 1.0492 6.47555 0
M  V30 372 H 28.4992 2.67471 7.07103 0
M  V30 373 H 29.7672 1.62211 7.62435 0
M  V30 374 N 33.9963 -1.19345 1.0293 0
M  V30 375 C 35.2263 -1.92717 0.744563 0
M  V30 376 C 35.6343 -1.75751 -0.700579 0
M  V30 377 O 34.9773 -1.07703 -1.48815 0
M  V30 378 C 35.0393 -3.44828 1.01657 0
M  V30 379 C 34.7033 -3.85564 2.45335 0
M  V30 380 C 35.7003 -3.90286 3.43472 0
M  V30 381 C 33.3853 -4.1719 2.79746 0
M  V30 382 C 35.3793 -4.26065 4.74075 0
M  V30 383 C 33.0663 -4.52642 4.10559 0
M  V30 384 C 34.0643 -4.57054 5.07534 0
M  V30 385 O 33.7523 -4.91685 6.36004 0
M  V30 386 H 33.4843 -0.618977 0.271742 0
M  V30 387 H 36.0383 -1.52415 1.37691 0
M  V30 388 H 34.2683 -3.85314 0.327084 0
M  V30 389 H 35.9573 -3.99437 0.721427 0
M  V30 390 H 36.7233 -3.66002 3.18225 0
M  V30 391 H 32.6023 -4.1294 2.04943 0
M  V30 392 H 36.1463 -4.29423 5.49765 0
M  V30 393 H 32.0433 -4.76383 4.35579 0
M  V30 394 H 32.8113 -5.09631 6.40483 0
M  V30 395 N 35.4744 -0.807222 -1.35358 0
M  V30 396 C 36.7044 -0.399796 -2.02695 0
M  V30 397 C 37.1124 0.994176 -1.60974 0
M  V30 398 O 36.4554 1.65209 -0.803226 0
M  V30 399 C 36.5174 -0.404445 -3.57218 0
M  V30 400 C 36.1814 -1.74904 -4.22206 0
M  V30 401 C 37.1784 -2.70743 -4.4384 0
M  V30 402 C 34.8634 -2.03322 -4.5931 0
M  V30 403 C 36.8574 -3.93183 -5.01683 0
M  V30 404 C 34.5444 -3.26026 -5.16866 0
M  V30 405 C 35.5424 -4.20774 -5.37994 0
M  V30 406 O 35.2304 -5.41312 -5.94337 0
M  V30 407 H 34.9624 -0.160517 -0.656666 0
M  V30 408 H 37.5164 -1.09235 -1.73945 0
M  V30 409 H 35.7464 0.344707 -3.85161 0
M  V30 410 H 37.4354 -0.0192429 -4.05895 0
M  V30 411 H 38.2014 -2.5008 -4.15554 0
M  V30 412 H 34.0804 -1.30384 -4.42178 0
M  V30 413 H 37.6244 -4.6715 -5.1809 0
M  V30 414 H 33.5214 -3.46559 -5.44579 0
M  V30 415 H 34.2894 -5.42618 -6.12787 0
M  V30 416 N 36.9525 1.47285 -0.560781 0
M  V30 417 C 37.8995 2.30058 0.18491 0
M  V30 418 C 38.8695 1.39281 0.904986 0
M  V30 419 O 40.0545 1.68241 0.899979 0
M  V30 420 C 37.1945 3.23317 1.20666 0
M  V30 421 C 36.3075 4.29186 0.492285 0
M  V30 422 C 35.4425 5.09592 1.49964 0
M  V30 423 C 34.4815 6.07232 0.770439 0
M  V30 424 N 33.6185 6.80584 1.72479 0
M  V30 425 H 38.4585 2.93302 -0.527048 0
M  V30 426 H 35.9955 1.44568 -0.271738 0
M  V30 427 H 37.9535 3.75811 1.81168 0
M  V30 428 H 36.5835 2.61929 1.88661 0
M  V30 429 H 35.6355 3.7972 -0.227333 0
M  V30 430 H 36.9475 4.98738 -0.0787929 0
M  V30 431 H 36.1015 5.66254 2.17809 0
M  V30 432 H 34.8405 4.3995 2.10464 0
M  V30 433 H 33.8455 5.49745 0.0780846 0
M  V30 434 H 35.0705 6.78884 0.171134 0
M  V30 435 H 33.0165 6.1367 2.3183 0
M  V30 436 H 32.9335 7.46319 1.20596 0
M  V30 437 H 34.2015 7.41818 2.39428 0
M  V30 438 N 38.4306 0.297415 1.54768 0
M  V30 439 C 39.6776 -0.312913 2.00068 0
M  V30 440 C 40.0056 -1.54171 1.18582 0
M  V30 441 O 39.2606 -1.94108 0.249133 0
M  V30 442 C 39.5596 -0.717561 3.50123 0
M  V30 443 C 39.2256 0.409095 4.4904 0
M  V30 444 C 37.8876 0.718399 4.75807 0
M  V30 445 C 40.2396 1.16717 5.07963 0
M  V30 446 C 37.5676 1.78896 5.5876 0
M  V30 447 C 39.9196 2.22762 5.92081 0
M  V30 448 C 38.5836 2.54303 6.1716 0
M  V30 449 H 37.8536 -0.114503 0.7321 0
M  V30 450 H 40.5006 0.415767 1.86932 0
M  V30 451 H 38.8056 -1.52627 3.60849 0
M  V30 452 H 40.5026 -1.20091 3.82595 0
M  V30 453 H 37.0926 0.157918 4.28309 0
M  V30 454 H 41.2766 0.941466 4.87289 0
M  V30 455 H 36.5326 2.0381 5.7643 0
M  V30 456 H 40.7066 2.81962 6.36765 0
M  V30 457 H 38.3336 3.3739 6.81229 0
M  V30 458 N 39.9087 -1.5758 0.0250728 0
M  V30 459 C 41.1567 -1.91255 -0.653151 0
M  V30 460 C 41.4777 -0.901691 -1.729 0
M  V30 461 O 40.7477 0.0573785 -1.95816 0
M  V30 462 H 39.3277 -0.705942 -0.244243 0
M  V30 463 H 41.9897 -1.94767 0.0719209 0
M  V30 464 H 41.0857 -2.91752 -1.10847 0
M  V30 465 N 41.3868 0.248026 -1.55636 0
M  V30 466 C 42.6118 0.998028 -1.81808 0
M  V30 467 C 43.0368 1.78207 -0.601979 0
M  V30 468 O 42.3948 1.75653 0.448961 0
M  V30 469 C 42.4428 1.9125 -3.05705 0
M  V30 470 O 41.5468 3.00406 -2.82542 0
M  V30 471 H 40.8878 0.284045 -0.600179 0
M  V30 472 H 43.4178 0.269357 -2.02819 0
M  V30 473 H 43.4278 2.32737 -3.35108 0
M  V30 474 H 42.1028 1.33602 -3.93857 0
M  V30 475 H 40.6798 2.63056 -2.64303 0
M  V30 476 N 42.8649 1.48995 0.513639 0
M  V30 477 C 44.2809 1.35478 0.843682 0
M  V30 478 C 44.4809 0.378213 1.97919 0
M  V30 479 O 43.5369 -0.194689 2.51748 0
M  V30 480 C 44.8499 2.75901 1.1958 0
M  V30 481 C 46.3979 2.84509 1.30474 0
M  V30 482 C 46.8729 4.25671 1.69021 0
M  V30 483 N 48.3639 4.28422 1.76094 0
M  V30 484 C 49.0989 5.34601 2.07338 0
M  V30 485 N 48.5949 6.5104 2.36894 0
M  V30 486 N 50.3879 5.22007 2.08483 0
M  V30 487 H 42.5389 2.11092 -0.235328 0
M  V30 488 H 44.8019 0.947039 -0.0426669 0
M  V30 489 H 44.5079 3.49001 0.434913 0
M  V30 490 H 44.3819 3.10467 2.1422 0
M  V30 491 H 46.7689 2.11655 2.05637 0
M  V30 492 H 46.8499 2.53542 0.339155 0
M  V30 493 H 46.4939 4.99048 0.944135 0
M  V30 494 H 46.4239 4.54094 2.66658 0
M  V30 495 H 48.9149 3.44441 1.55464 0
M  V30 496 H 49.2279 7.2779 2.59887 0
M  V30 497 H 47.5729 6.54287 2.34378 0
M  V30 498 H 50.7639 4.30051 1.84861 0
M  V30 499 H 50.9369 6.04854 2.325 0
M  V30 500 N 44.343 -0.763751 1.37857 0
M  V30 501 C 45.293 -1.86765 1.30777 0
M  V30 502 C 46.277 -1.59726 0.194015 0
M  V30 503 O 47.469 -1.7172 0.42911 0
M  V30 504 C 44.598 -3.24343 1.12502 0
M  V30 505 C 43.684 -3.57307 2.28456 0
M  V30 506 N 44.075 -3.61398 3.53871 0
M  V30 507 C 42.373 -3.87517 2.20786 0
M  V30 508 C 43.074 -3.91339 4.30382 0
M  V30 509 N 42.05 -4.07649 3.59615 0
M  V30 510 H 45.852 -1.88191 2.25746 0
M  V30 511 H 43.366 -0.9606 1.30944 0
M  V30 512 H 45.363 -4.03327 1.05514 0
M  V30 513 H 44.023 -3.24175 0.184574 0
M  V30 514 H 45.034 -3.43407 3.87675 0
M  V30 515 H 41.711 -3.95125 1.34844 0
M  V30 516 H 43.101 -4.01213 5.3896 0
M  V30 517 N 45.8211 -1.22559 -0.990812 0
M  V30 518 C 47.0461 -1.07862 -1.77145 0
M  V30 519 C 47.4711 0.366447 -1.84496 0
M  V30 520 O 46.8291 1.26478 -1.29896 0
M  V30 521 C 46.8771 -1.69686 -3.18181 0
M  V30 522 O 45.9811 -0.951946 -4.01263 0
M  V30 523 H 45.3221 -0.378712 -0.545411 0
M  V30 524 H 47.8521 -1.62399 -1.2445 0
M  V30 525 H 47.8621 -1.74496 -3.68802 0
M  V30 526 H 46.5371 -2.74841 -3.12146 0
M  V30 527 H 45.1141 -0.980011 -3.59792 0
M  V30 528 N 47.2992 1.18797 -1.03562 0
M  V30 529 C 48.2622 2.20464 -0.626769 0
M  V30 530 C 49.2622 1.57721 0.313173 0
M  V30 531 O 50.4522 1.73917 0.0992615 0
M  V30 532 C 47.5842 3.40802 0.0818498 0
M  V30 533 H 48.7772 2.58149 -1.5264 0
M  V30 534 H 46.3302 1.32593 -0.827578 0
M  V30 535 H 47.0652 3.08642 0.995518 0
M  V30 536 H 46.8502 3.8758 -0.593652 0
M  V30 537 H 48.3402 4.16092 0.354584 0
M  V30 538 N 48.7773 0.814389 1.34928 0
M  V30 539 C 49.6873 0.231978 2.3345 0
M  V30 540 C 50.7033 -0.629139 1.62228 0
M  V30 541 O 51.8793 -0.539052 1.94052 0
M  V30 542 C 48.9443 -0.603482 3.41407 0
M  V30 543 C 48.0053 0.279037 4.28392 0
M  V30 544 C 47.2383 -0.516643 5.31193 0
M  V30 545 O 47.4613 -1.75068 5.4287 0
M  V30 546 O 46.3953 0.0965652 6.01823 0
M  V30 547 H 50.2213 1.04721 2.85074 0
M  V30 548 H 47.8063 0.576343 1.37836 0
M  V30 549 H 49.6883 -1.07908 4.0735 0
M  V30 550 H 48.3633 -1.39618 2.92042 0
M  V30 551 H 47.2703 0.801948 3.65403 0
M  V30 552 H 48.6033 1.03588 4.81176 0
M  V30 553 N 50.2554 -1.46986 0.568584 0
M  V30 554 C 51.4804 -2.07335 0.0520528 0
M  V30 555 C 51.9054 -1.41675 -1.23733 0
M  V30 556 O 51.2634 -0.495623 -1.74394 0
M  V30 557 C 51.3114 -3.60417 -0.11501 0
M  V30 558 O 50.4154 -3.95309 -1.17492 0
M  V30 559 H 49.7564 -0.661597 0.0564385 0
M  V30 560 H 52.2864 -1.88837 0.787507 0
M  V30 561 H 52.2964 -4.06698 -0.325644 0
M  V30 562 H 50.9714 -4.07601 0.826675 0
M  V30 563 H 49.5484 -3.60757 -0.943869 0
M  V30 564 N 51.7335 -0.305618 -1.54608 0
M  V30 565 C 52.6655 0.602161 -2.21149 0
M  V30 566 C 53.6785 1.09394 -1.20569 0
M  V30 567 O 54.8675 1.0106 -1.47136 0
M  V30 568 C 51.9675 1.83692 -2.84799 0
M  V30 569 C 51.1405 1.48686 -4.11353 0
M  V30 570 C 50.1995 2.57725 -4.58764 0
M  V30 571 O 49.2255 2.22623 -5.23858 0
M  V30 572 N 50.4275 3.88346 -4.31471 0
M  V30 573 H 53.1925 0.0324966 -2.99682 0
M  V30 574 H 50.7535 -0.128021 -1.61393 0
M  V30 575 H 52.7455 2.55994 -3.13448 0
M  V30 576 H 51.3155 2.31486 -2.10078 0
M  V30 577 H 50.5355 0.596269 -3.89664 0
M  V30 578 H 51.8235 1.22842 -4.93748 0
M  V30 579 H 51.2215 4.19671 -3.79331 0
M  V30 580 H 49.7785 4.56932 -4.64818 0
M  V30 581 N 53.2116 1.57565 -0.0334293 0
M  V30 582 C 54.4606 1.91155 0.643639 0
M  V30 583 C 54.7736 0.91192 1.73042 0
M  V30 584 O 55.9796 1.13923 2.46442 0
M  V30 585 C 54.4356 3.39443 1.1961 0
M  V30 586 C 54.0436 4.47774 0.142381 0
M  V30 587 C 55.7876 3.82094 1.84944 0
M  V30 588 C 53.6946 5.87162 0.706727 0
M  V30 589 H 52.6246 0.713368 0.244176 0
M  V30 590 H 55.2756 1.8323 -0.0994323 0
M  V30 591 H 53.6576 3.42313 1.99092 0
M  V30 592 H 54.8316 4.56469 -0.630296 0
M  V30 593 H 53.1466 4.14352 -0.412446 0
M  V30 594 H 55.7436 4.83591 2.2813 0
M  V30 595 H 56.0866 3.17386 2.69392 0
M  V30 596 H 56.6196 3.81665 1.12145 0
M  V30 597 H 53.3586 6.55424 -0.0997178 0
M  V30 598 H 52.8786 5.82064 1.44779 0
M  V30 599 H 54.5576 6.35866 1.19514 0
M  V30 600 N 54.6897 -0.239769 1.55765 0
M  V30 601 C 55.6197 -1.30052 1.9393 0
M  V30 602 C 56.6007 -1.49839 0.805132 0
M  V30 603 O 57.7857 -1.62328 1.06599 0
M  V30 604 C 54.9157 -2.65391 2.2402 0
M  V30 605 C 53.8697 -2.60289 3.39755 0
M  V30 606 C 53.1957 -3.99489 3.55405 0
M  V30 607 C 54.4957 -2.16654 4.75246 0
M  V30 608 H 56.1897 -0.983573 2.82783 0
M  V30 609 H 53.7357 -0.471701 1.36055 0
M  V30 610 H 55.6887 -3.3974 2.49308 0
M  V30 611 H 54.4127 -2.98736 1.32 0
M  V30 612 H 53.0717 -1.88398 3.14487 0
M  V30 613 H 52.7197 -4.30112 2.60793 0
M  V30 614 H 52.4197 -3.96962 4.33238 0
M  V30 615 H 53.9437 -4.75528 3.83022 0
M  V30 616 H 55.3577 -2.80737 4.99859 0
M  V30 617 H 53.7547 -2.25223 5.56232 0
M  V30 618 H 54.8247 -1.11835 4.71827 0
M  V30 619 N 56.1678 -1.49265 -0.50573 0
M  V30 620 C 57.1148 -1.65585 -1.6078 0
M  V30 621 C 58.0848 -0.497396 -1.58478 0
M  V30 622 O 59.2698 -0.72385 -1.76536 0
M  V30 623 C 56.4098 -1.72408 -2.98948 0
M  V30 624 C 55.5228 -2.99525 -3.11301 0
M  V30 625 C 54.6578 -2.97356 -4.40174 0
M  V30 626 C 53.6968 -4.19074 -4.46143 0
M  V30 627 N 52.8338 -4.14841 -5.66437 0
M  V30 628 H 57.6738 -2.59688 -1.46172 0
M  V30 629 H 55.2108 -1.28761 -0.711261 0
M  V30 630 H 57.1688 -1.74344 -3.79025 0
M  V30 631 H 55.7988 -0.817753 -3.1227 0
M  V30 632 H 54.8508 -3.07222 -2.24318 0
M  V30 633 H 56.1628 -3.89518 -3.11572 0
M  V30 634 H 55.3168 -2.97829 -5.28567 0
M  V30 635 H 54.0558 -2.05133 -4.42461 0
M  V30 636 H 53.0608 -4.1885 -3.56153 0
M  V30 637 H 54.2858 -5.12483 -4.45575 0
M  V30 638 H 52.2318 -3.25453 -5.69575 0
M  V30 639 H 52.1488 -4.98564 -5.68304 0
M  V30 640 H 53.4168 -4.1941 -6.57051 0
M  V30 641 N 57.6459 0.756429 -1.3826 0
M  V30 642 C 58.5959 1.86069 -1.31766 0
M  V30 643 C 59.5799 1.59621 -0.202483 0
M  V30 644 O 60.7719 1.7149 -0.438211 0
M  V30 645 C 57.9009 3.23742 -1.1422 0
M  V30 646 C 56.9869 3.56091 -2.30348 0
M  V30 647 N 57.3779 3.59517 -3.55783 0
M  V30 648 C 55.6759 3.86341 -2.22838 0
M  V30 649 C 56.3769 3.89052 -4.32451 0
M  V30 650 N 55.3529 4.05736 -3.61772 0
M  V30 651 H 59.1549 1.86992 -2.26741 0
M  V30 652 H 56.6689 0.953643 -1.31451 0
M  V30 653 H 58.6659 4.02761 -1.07652 0
M  V30 654 H 57.3259 3.24073 -0.201763 0
M  V30 655 H 58.3369 3.41347 -3.89491 0
M  V30 656 H 55.0139 3.94404 -1.36937 0
M  V30 657 H 56.4039 3.98349 -5.4108 0
M  V30 658 N 59.124 1.23083 0.984299 0
M  V30 659 C 60.054 1.03292 2.09411 0
M  V30 660 C 61.035 -0.048923 1.7003 0
M  V30 661 O 62.22 0.114967 1.93859 0
M  V30 662 C 59.35 0.619155 3.41736 0
M  V30 663 C 58.304 1.64791 3.95004 0
M  V30 664 C 57.63 1.0897 5.23478 0
M  V30 665 C 58.93 3.03999 4.24714 0
M  V30 666 H 60.624 1.96119 2.26225 0
M  V30 667 H 58.17 0.944344 1.08711 0
M  V30 668 H 60.123 0.467777 4.18796 0
M  V30 669 H 58.847 -0.344786 3.24775 0
M  V30 670 H 57.506 1.78721 3.20085 0
M  V30 671 H 57.154 0.11686 5.02864 0
M  V30 672 H 56.854 1.77704 5.60085 0
M  V30 673 H 58.378 0.950093 6.03163 0
M  V30 674 H 59.792 2.93393 4.92538 0
M  V30 675 H 58.189 3.69936 4.72512 0
M  V30 676 H 59.259 3.53285 3.32142 0
M  V30 677 N 60.6021 -1.18246 1.0419 0
M  V30 678 C 61.5321 -2.24127 0.654914 0
M  V30 679 C 62.5131 -1.66617 -0.342451 0
M  V30 680 O 63.6981 -1.92924 -0.222277 0
M  V30 681 C 60.8281 -3.47295 0.0183757 0
M  V30 682 C 59.7821 -4.17563 0.939414 0
M  V30 683 C 59.1081 -5.34438 0.167286 0
M  V30 684 C 60.4081 -4.70917 2.25908 0
M  V30 685 H 62.1021 -2.56753 1.54007 0
M  V30 686 H 59.6481 -1.23414 0.74195 0
M  V30 687 H 61.6011 -4.20572 -0.264082 0
M  V30 688 H 60.3251 -3.13907 -0.901664 0
M  V30 689 H 58.9841 -3.46186 1.20628 0
M  V30 690 H 58.6321 -4.97298 -0.7552 0
M  V30 691 H 58.3321 -5.82388 0.780901 0
M  V30 692 H 59.8561 -6.10504 -0.108125 0
M  V30 693 H 61.2701 -5.35882 2.03724 0
M  V30 694 H 59.6671 -5.29406 2.82577 0
M  V30 695 H 60.7371 -3.88272 2.9047 0
M  V30 696 N 62.0802 -0.821533 -1.34494 0
M  V30 697 C 63.0272 -0.240397 -2.29545 0
M  V30 698 C 63.9972 0.634031 -1.53523 0
M  V30 699 O 65.1822 0.575966 -1.81899 0
M  V30 700 C 62.3222 0.592869 -3.39969 0
M  V30 701 C 61.4352 -0.30365 -4.30932 0
M  V30 702 C 60.5702 0.539049 -5.28458 0
M  V30 703 C 59.6092 -0.356942 -6.11058 0
M  V30 704 N 58.7462 0.446603 -7.00678 0
M  V30 705 H 63.5862 -1.05632 -2.7865 0
M  V30 706 H 61.1232 -0.532413 -1.37127 0
M  V30 707 H 63.0812 1.09129 -4.02675 0
M  V30 708 H 61.7112 1.37392 -2.92102 0
M  V30 709 H 60.7632 -0.920276 -3.691 0
M  V30 710 H 62.0752 -0.992661 -4.88823 0
M  V30 711 H 61.2292 1.102 -5.96608 0
M  V30 712 H 59.9682 1.26157 -4.71101 0
M  V30 713 H 58.9732 -0.932047 -5.41842 0
M  V30 714 H 60.1982 -1.07755 -6.70497 0
M  V30 715 H 58.1442 1.15282 -6.45791 0
M  V30 716 H 58.0612 -0.184048 -7.55776 0
M  V30 717 H 59.3292 0.992352 -7.73158 0
M  V30 718 N 63.5583 1.46682 -0.576371 0
M  V30 719 C 64.5063 2.31953 0.17335 0
M  V30 720 C 65.5003 1.44098 0.89062 0
M  V30 721 O 66.7063 1.60759 0.809728 0
M  V30 722 H 63.0813 0.748273 0.0747727 0
M  V30 723 H 65.0523 2.93007 -0.564738 0
M  V30 724 C 63.8013 3.27142 1.17786 0
M  V30 725 H 63.1243 3.94719 0.635361 0
M  V30 726 H 64.5643 3.896 1.67296 0
M  V30 727 C 63.0233 2.52036 2.23561 0
M  V30 728 O 63.5533 2.27877 3.3081 0
M  V30 729 N 61.7593 2.12709 1.97998 0
M  V30 730 H 61.3063 2.32557 1.10792 0
M  V30 731 H 61.2643 1.62776 2.68982 0
M  V30 732 N 65.0364 0.313813 1.54444 0
M  V30 733 C 65.9664 -0.549454 2.26943 0
M  V30 734 C 66.9474 -1.12741 1.27372 0
M  V30 735 O 68.1324 -1.15436 1.56167 0
M  V30 736 C 65.2624 -1.71523 3.01989 0
M  V30 737 C 64.2164 -1.26703 4.08816 0
M  V30 738 C 63.5424 -2.51898 4.71647 0
M  V30 739 C 64.8424 -0.388962 5.2085 0
M  V30 740 H 66.5364 0.0552661 2.99349 0
M  V30 741 H 64.0824 0.0280207 1.43973 0
M  V30 742 H 66.0354 -2.32535 3.51433 0
M  V30 743 H 64.7594 -2.34639 2.27183 0
M  V30 744 H 63.4184 -0.679896 3.6024 0
M  V30 745 H 63.0664 -3.13356 3.93468 0
M  V30 746 H 62.7664 -2.22605 5.43802 0
M  V30 747 H 64.2904 -3.1369 5.23861 0
M  V30 748 H 65.7044 -0.905107 5.6611 0
M  V30 749 H 64.1014 -0.18924 5.99802 0
M  V30 750 H 65.1714 0.582699 4.81386 0
M  V30 751 N 66.5145 -1.57545 0.0417849 0
M  V30 752 C 67.7615 -1.92317 -0.634082 0
M  V30 753 C 68.0895 -0.919334 -1.71402 0
M  V30 754 O 67.3445 0.0698253 -1.95575 0
M  V30 755 C 67.6435 -3.33794 -1.27735 0
M  V30 756 C 67.3095 -4.49716 -0.326543 0
M  V30 757 C 65.9715 -4.81156 -0.0648814 0
M  V30 758 C 68.3235 -5.20182 0.325623 0
M  V30 759 C 65.6515 -5.80414 0.856539 0
M  V30 760 C 68.0035 -6.20424 1.23518 0
M  V30 761 C 66.6675 -6.50298 1.5056 0
M  V30 762 H 65.9375 -0.703736 -0.232027 0
M  V30 763 H 68.5845 -1.91205 0.106259 0
M  V30 764 H 66.8895 -3.31228 -2.09274 0
M  V30 765 H 68.5865 -3.57975 -1.80707 0
M  V30 766 H 65.1765 -4.25176 -0.540665 0
M  V30 767 H 69.3605 -4.96112 0.136546 0
M  V30 768 H 64.6165 -6.019 1.07363 0
M  V30 769 H 68.7905 -6.74141 1.74664 0
M  V30 770 H 66.4175 -7.27025 2.22123 0
M  V30 771 N 67.9926 0.231505 -1.5589 0
M  V30 772 C 68.9396 1.28682 -1.91598 0
M  V30 773 C 69.9096 1.47071 -0.771974 0
M  V30 774 O 71.0946 1.60802 -1.027 0
M  V30 775 C 68.2346 2.6342 -2.22944 0
M  V30 776 C 67.3476 2.52912 -3.50228 0
M  V30 777 C 66.4826 3.80106 -3.7107 0
M  V30 778 C 65.5216 3.64279 -4.91902 0
M  V30 779 N 64.6586 4.834 -5.09184 0
M  V30 780 H 69.4986 0.975305 -2.81588 0
M  V30 781 H 67.0356 0.470299 -1.39379 0
M  V30 782 H 68.9936 3.41869 -2.39126 0
M  V30 783 H 67.6236 2.92687 -1.36139 0
M  V30 784 H 66.6756 1.6595 -3.42294 0
M  V30 785 H 67.9876 2.37133 -4.38827 0
M  V30 786 H 67.1416 4.66999 -3.87295 0
M  V30 787 H 65.8806 3.98799 -2.80733 0
M  V30 788 H 64.8856 2.7577 -4.75637 0
M  V30 789 H 66.1106 3.47067 -5.83714 0
M  V30 790 H 64.0566 5.02425 -4.21788 0
M  V30 791 H 63.9736 4.70311 -5.91898 0
M  V30 792 H 65.2416 5.71747 -5.29835 0
M  V30 793 N 69.4707 1.49531 0.497807 0
M  V30 794 C 70.7197 1.58426 1.24837 0
M  V30 795 C 71.0327 0.277643 1.93619 0
M  V30 796 O 72.2387 0.24517 2.70391 0
M  V30 797 C 70.6947 2.79538 2.26686 0
M  V30 798 C 70.3027 4.16971 1.63828 0
M  V30 799 C 72.0467 2.97764 3.0255 0
M  V30 800 C 69.9537 5.29301 2.63807 0
M  V30 801 H 68.8837 0.58989 0.469623 0
M  V30 802 H 71.5347 1.75923 0.521857 0
M  V30 803 H 69.9167 2.55542 3.02514 0
M  V30 804 H 71.0907 4.51116 0.939711 0
M  V30 805 H 69.4057 4.04129 1.00342 0
M  V30 806 H 72.0027 3.78856 3.77323 0
M  V30 807 H 72.3457 2.08448 3.60354 0
M  V30 808 H 72.8787 3.21815 2.33838 0
M  V30 809 H 69.6177 6.20687 2.10779 0
M  V30 810 H 69.1377 4.99606 3.31894 0
M  V30 811 H 70.8167 5.58768 3.2617 0
M  V30 812 N 70.9488 -0.749086 1.3866 0
M  V30 813 C 72.1958 -1.50833 1.35114 0
M  V30 814 C 72.5238 -1.94415 -0.0574049 0
M  V30 815 O 71.7788 -1.66065 -1.03541 0
M  V30 816 C 72.0778 -2.7712 2.25697 0
M  V30 817 C 71.7438 -2.52477 3.73585 0
M  V30 818 C 70.4058 -2.45466 4.13884 0
M  V30 819 C 72.7578 -2.31066 4.67181 0
M  V30 820 C 70.0858 -2.15064 5.45861 0
M  V30 821 C 72.4378 -2.02183 5.9942 0
M  V30 822 C 71.1018 -1.93631 6.38798 0
M  V30 823 H 70.3718 -0.551936 0.494416 0
M  V30 824 H 73.0188 -0.860979 1.71054 0
M  V30 825 H 71.3238 -3.46528 1.82827 0
M  V30 826 H 73.0208 -3.35096 2.20254 0
M  V30 827 H 69.6108 -2.58807 3.41638 0
M  V30 828 H 73.7948 -2.35459 4.3689 0
M  V30 829 H 69.0508 -2.06954 5.75308 0
M  V30 830 H 73.2248 -1.8462 6.71482 0
M  V30 831 H 70.8518 -1.69839 7.40985 0
M  V30 832 N 72.4269 -1.23603 -0.977757 0
M  V30 833 C 73.6669 -1.08148 -1.73446 0
M  V30 834 C 74.0309 0.374785 -1.88307 0
M  V30 835 O 75.2319 0.650588 -2.60808 0
M  V30 836 C 73.5029 -1.78991 -3.0935 0
M  V30 837 S 75.0619 -1.79141 -4.00567 0
M  V30 838 H 71.8799 -0.386987 -0.596458 0
M  V30 839 H 74.4819 -1.5678 -1.16792 0
M  V30 840 H 73.1859 -2.8408 -2.96187 0
M  V30 841 H 72.7169 -1.30651 -3.71071 0
M  V30 842 H 74.7319 -0.851892 -4.88833 0
M  V30 843 N 73.905 1.17692 -1.04816 0
M  V30 844 C 74.835 2.23777 -0.666791 0
M  V30 845 C 75.816 1.66796 0.33361 0
M  V30 846 O 77.001 1.93039 0.212042 0
M  V30 847 C 74.131 3.47281 -0.0367933 0
M  V30 848 C 73.085 4.17059 -0.961546 0
M  V30 849 C 72.411 5.34342 -0.195626 0
M  V30 850 C 73.711 4.69713 -2.28402 0
M  V30 851 H 75.405 2.55933 -1.55367 0
M  V30 852 H 72.951 1.23019 -0.748484 0
M  V30 853 H 74.904 4.20706 0.241775 0
M  V30 854 H 73.628 3.14381 0.885004 0
M  V30 855 H 72.287 3.45541 -1.22462 0
M  V30 856 H 71.935 4.97692 0.728816 0
M  V30 857 H 71.635 5.81966 -0.811775 0
M  V30 858 H 73.159 6.10553 0.0757473 0
M  V30 859 H 74.573 5.34794 -2.06563 0
M  V30 860 H 72.97 5.279 -2.8538 0
M  V30 861 H 74.04 3.86726 -2.92525 0
M  V30 862 N 75.3831 0.828654 1.34056 0
M  V30 863 C 76.6601 0.341809 1.9259 0
M  V30 864 C 77.0401 -1.17158 1.75605 0
M  V30 865 O 76.3881 -1.98132 1.13824 0
M  V30 866 C 76.5981 0.777453 3.4023 0
M  V30 867 C 77.9461 0.779579 4.17382 0
M  V30 868 O 78.9701 0.7204 3.48839 0
M  V30 869 O 77.8291 0.857996 5.39723 0
M  V30 870 H 74.9231 0.0946085 0.821571 0
M  V30 871 H 77.4691 0.913827 1.42994 0
M  V30 872 H 76.2411 1.8196 3.46419 0
M  V30 873 H 75.8641 0.181444 3.97186 0
M  V30 874 N 76.8612 -1.46375 0.584142 0
M  V30 875 C 78.1092 -2.01978 0.0701287 0
M  V30 876 C 78.4302 -1.4579 -1.295 0
M  V30 877 O 77.7002 -0.64314 -1.85042 0
M  V30 878 H 76.2802 -0.746648 0.0229345 0
M  V30 879 H 78.9422 -1.79461 0.760245 0
M  V30 880 H 78.0382 -3.121 0.0022064 0
M  V30 881 N 78.3393 -0.321999 -1.54275 0
M  V30 882 C 79.5853 0.281461 -2.00837 0
M  V30 883 C 79.9183 1.51909 -1.20985 0
M  V30 884 O 79.1933 1.923 -0.291733 0
M  V30 885 C 79.4763 0.617162 -3.54772 0
M  V30 886 C 79.3293 -0.631064 -4.45351 0
M  V30 887 C 80.6483 1.43542 -4.16033 0
M  V30 888 H 77.7673 0.100826 -0.730071 0
M  V30 889 H 80.4093 -0.438268 -1.84876 0
M  V30 890 H 78.5593 1.23034 -3.68504 0
M  V30 891 H 80.2313 -1.26934 -4.43492 0
M  V30 892 H 78.4743 -1.26025 -4.15091 0
M  V30 893 H 79.1453 -0.351735 -5.50878 0
M  V30 894 H 81.6213 0.917134 -4.05867 0
M  V30 895 H 80.4973 1.63907 -5.23856 0
M  V30 896 H 80.7583 2.43108 -3.69257 0
M  V30 897 N 79.8174 1.5752 -0.0501392 0
M  V30 898 C 80.7644 2.1147 0.924603 0
M  V30 899 C 81.7344 1.02182 1.30951 0
M  V30 900 O 82.9194 1.29723 1.39916 0
M  V30 901 C 80.0594 2.66337 2.19451 0
M  V30 902 C 79.1724 3.89708 1.86418 0
M  V30 903 C 78.3074 4.32893 3.07859 0
M  V30 904 C 77.3464 5.48967 2.70742 0
M  V30 905 N 76.4834 5.87211 3.84874 0
M  V30 906 H 81.3234 2.94465 0.457639 0
M  V30 907 H 78.8604 1.45531 0.214266 0
M  V30 908 H 80.8184 2.96247 2.93758 0
M  V30 909 H 79.4484 1.86141 2.63726 0
M  V30 910 H 78.5004 3.66396 1.02264 0
M  V30 911 H 79.8124 4.74074 1.55096 0
M  V30 912 H 78.9664 4.6435 3.90466 0
M  V30 913 H 77.7054 3.47336 3.42358 0
M  V30 914 H 76.7104 5.17183 1.86551 0
M  V30 915 H 77.9354 6.3624 2.37436 0
M  V30 916 H 75.8814 5.04607 4.19175 0
M  V30 917 H 75.7984 6.66266 3.57247 0
M  V30 918 H 77.0664 6.23282 4.68123 0
M  V30 919 N 81.2955 -0.223234 1.56011 0
M  V30 920 C 82.5435 -0.946003 1.78592 0
M  V30 921 C 82.8645 -1.84936 0.618349 0
M  V30 922 O 82.1345 -1.92473 -0.364833 0
M  V30 923 H 80.7145 -0.352298 0.658707 0
M  V30 924 H 83.3765 -0.235494 1.93472 0
M  V30 925 H 82.4725 -1.55381 2.70672 0
M  V30 926 N 82.7736 -1.49793 -0.48987 0
M  V30 927 C 84.0506 -1.50348 -1.25119 0
M  V30 928 C 84.4306 -0.237466 -2.0976 0
M  V30 929 O 83.7786 0.77981 -2.14782 0
M  V30 930 C 83.9886 -2.78872 -2.09837 0
M  V30 931 C 85.3366 -3.288 -2.68655 0
M  V30 932 O 86.3606 -2.80065 -2.20096 0
M  V30 933 O 85.2196 -4.13707 -3.57083 0
M  V30 934 H 82.3136 -0.602242 -0.566775 0
M  V30 935 H 84.8596 -1.62067 -0.503229 0
M  V30 936 H 83.6316 -3.62499 -1.47343 0
M  V30 937 H 83.2546 -2.70066 -2.91805 0
M  V30 938 N 84.2517 0.741722 -1.39055 0
M  V30 939 C 85.1817 1.869 -1.39966 0
M  V30 940 C 86.1627 1.6804 -0.26392 0
M  V30 941 O 87.3477 1.88458 -0.468755 0
M  V30 942 C 84.4777 3.24572 -1.23574 0
M  V30 943 C 83.4317 3.58056 -2.34477 0
M  V30 944 C 82.7577 4.94593 -2.0318 0
M  V30 945 C 84.0577 3.61716 -3.76774 0
M  V30 946 H 85.7517 1.86395 -2.34302 0
M  V30 947 H 83.2977 0.895361 -1.1278 0
M  V30 948 H 85.2507 4.031 -1.22834 0
M  V30 949 H 83.9747 3.25587 -0.257045 0
M  V30 950 H 82.6337 2.81854 -2.34423 0
M  V30 951 H 82.2817 4.92181 -1.03765 0
M  V30 952 H 81.9817 5.17964 -2.77465 0
M  V30 953 H 83.5057 5.75486 -2.04079 0
M  V30 954 H 84.9197 4.30335 -3.78794 0
M  V30 955 H 83.3167 3.96603 -4.50362 0
M  V30 956 H 84.3867 2.61672 -4.08235 0
M  V30 957 N 85.7298 1.2412 0.971189 0
M  V30 958 C 86.6598 1.05508 2.08304 0
M  V30 959 C 87.6408 -0.0308864 1.70072 0
M  V30 960 O 88.8258 0.135521 1.93727 0
M  V30 961 C 85.9558 0.655365 3.4106 0
M  V30 962 C 84.9098 1.68971 3.93234 0
M  V30 963 C 84.2358 1.14516 5.22293 0
M  V30 964 C 85.5358 3.08487 4.21465 0
M  V30 965 H 87.2298 1.98507 2.24132 0
M  V30 966 H 84.7758 0.955821 1.07704 0
M  V30 967 H 86.7288 0.51217 4.18276 0
M  V30 968 H 85.4528 -0.31032 3.25122 0
M  V30 969 H 84.1118 1.82106 3.18171 0
M  V30 970 H 83.7598 0.170189 5.02712 0
M  V30 971 H 83.4598 1.83635 5.58168 0
M  V30 972 H 84.9838 1.01401 6.02121 0
M  V30 973 H 86.3978 2.98601 4.89398 0
M  V30 974 H 84.7948 3.74926 4.68562 0
M  V30 975 H 85.8648 3.56787 3.28376 0
M  V30 976 N 87.2079 -1.17134 1.05439 0
M  V30 977 C 88.4569 -1.86791 0.761049 0
M  V30 978 C 88.7699 -1.82072 -0.714795 0
M  V30 979 O 89.9759 -2.47223 -1.12218 0
M  V30 980 C 88.4319 -3.35166 1.31117 0
M  V30 981 C 88.0399 -3.48381 2.81664 0
M  V30 982 C 89.7839 -4.10134 1.09499 0
M  V30 983 C 87.6909 -4.90793 3.29964 0
M  V30 984 H 86.6209 -0.699681 0.281002 0
M  V30 985 H 89.2719 -1.3226 1.27199 0
M  V30 986 H 87.6539 -3.8925 0.72803 0
M  V30 987 H 88.8279 -3.04502 3.45855 0
M  V30 988 H 87.1429 -2.86836 3.01851 0
M  V30 989 H 89.7399 -5.152 1.43084 0
M  V30 990 H 90.0829 -4.16287 0.0328772 0
M  V30 991 H 90.6159 -3.62264 1.64346 0
M  V30 992 H 87.3549 -4.89816 4.35616 0
M  V30 993 H 86.8749 -5.35333 2.70516 0
M  V30 994 H 88.5539 -5.59573 3.24787 0
M  V30 995 N 88.686 -0.835752 -1.33615 0
M  V30 996 C 89.963 -0.352017 -1.92406 0
M  V30 997 C 90.343 1.16225 -1.76224 0
M  V30 998 O 89.691 1.97526 -1.14873 0
M  V30 999 C 89.901 -0.795485 -3.39813 0
M  V30 1000 C 91.249 -0.801703 -4.16963 0
M  V30 1001 O 92.273 -0.738889 -3.48452 0
M  V30 1002 O 91.132 -0.886607 -5.3926 0
M  V30 1003 H 88.226 -0.0989641 -0.821057 0
M  V30 1004 H 90.772 -0.921397 -1.42507 0
M  V30 1005 H 89.544 -1.83795 -3.45449 0
M  V30 1006 H 89.167 -0.202505 -3.97084 0
M  V30 1007 N 90.1641 1.46063 -0.591896 0
M  V30 1008 C 91.4131 2.01547 -0.0786637 0
M  V30 1009 C 91.7261 1.46796 1.29268 0
M  V30 1010 O 92.9321 1.94157 1.89777 0
M  V30 1011 C 91.3881 3.59787 -0.0900024 0
M  V30 1012 C 90.9961 4.23534 -1.46023 0
M  V30 1013 C 92.7401 4.22895 0.368806 0
M  V30 1014 C 90.6471 5.73881 -1.4288 0
M  V30 1015 H 89.5771 0.753564 -0.0256388 0
M  V30 1016 H 92.2281 1.677 -0.744905 0
M  V30 1017 H 90.6101 3.90752 0.642586 0
M  V30 1018 H 91.7841 4.04167 -2.21328 0
M  V30 1019 H 90.0991 3.72558 -1.85982 0
M  V30 1020 H 92.6961 5.33116 0.411258 0
M  V30 1021 H 93.0391 3.9247 1.38827 0
M  V30 1022 H 93.5721 3.9659 -0.31001 0
M  V30 1023 H 90.3111 6.0898 -2.42536 0
M  V30 1024 H 89.8311 5.95486 -0.718095 0
M  V30 1025 H 91.5101 6.36776 -1.14565 0
M  V30 1026 N 91.6422 0.330177 1.54103 0
M  V30 1027 C 92.8902 -0.269871 2.0029 0
M  V30 1028 C 93.2112 -1.52133 1.21986 0
M  V30 1029 O 92.4812 -1.93212 0.323438 0
M  V30 1030 H 91.0612 -0.10271 0.739905 0
M  V30 1031 H 93.7232 0.448249 1.89675 0
M  V30 1032 H 92.8192 -0.52166 3.07709 0
M  V30 1033 N 93.1203 -1.57491 0.0584922 0
M  V30 1034 C 94.3453 -1.97711 -0.62652 0
M  V30 1035 C 94.7703 -0.936132 -1.63151 0
M  V30 1036 O 94.1283 0.099811 -1.81025 0
M  V30 1037 C 94.1763 -3.36989 -1.28338 0
M  V30 1038 O 93.2803 -3.35433 -2.39913 0
M  V30 1039 H 92.6213 -0.643868 -0.162266 0
M  V30 1040 H 95.1513 -2.04193 0.129064 0
M  V30 1041 H 95.1613 -3.73879 -1.63335 0
M  V30 1042 H 93.8363 -4.12289 -0.546889 0
M  V30 1043 H 92.4133 -3.10298 -2.06809 0
M  V30 1044 N 94.5984 0.214957 -1.56127 0
M  V30 1045 C 95.8464 0.936518 -1.79091 0
M  V30 1046 C 96.1674 1.84606 -0.628148 0
M  V30 1047 O 95.4374 1.92664 0.35462 0
M  V30 1048 H 94.0174 0.3488 -0.660566 0
M  V30 1049 H 96.6794 0.22523 -1.93594 0
M  V30 1050 H 95.7754 1.53943 -2.71492 0
M  V30 1051 N 96.0765 1.50051 0.48192 0
M  V30 1052 C 97.4875 1.5348 1.06305 0
M  V30 1053 C 97.8385 0.331997 1.93371 0
M  V30 1054 O 96.9635 -0.556256 2.09129 0
M  V30 1055 C 97.5585 2.7813 1.93466 0
M  V30 1056 C 96.1175 2.84275 2.46707 0
M  V30 1057 C 95.2645 2.47637 1.24785 0
M  V30 1058 H 98.2155 1.56472 0.264995 0
M  V30 1059 H 98.2365 2.59372 2.78399 0
M  V30 1060 H 97.7485 3.65654 1.30072 0
M  V30 1061 H 95.8495 2.01077 3.13686 0
M  V30 1062 H 95.9625 3.8691 2.82555 0
M  V30 1063 H 94.3265 1.99835 1.57918 0
M  V30 1064 H 95.1095 3.37457 0.630694 0
M  V30 1065 N 97.5546 -0.734337 1.39446 0
M  V30 1066 C 98.7826 -1.52358 1.39981 0
M  V30 1067 C 99.1976 -1.88799 -0.0054975 0
M  V30 1068 O 98.5546 -1.54146 -0.976998 0
M  V30 1069 C 98.6056 -2.81072 2.27333 0
M  V30 1070 O 98.3266 -2.46178 3.62392 0
M  V30 1071 C 99.8276 -3.75096 2.36259 0
M  V30 1072 H 97.0476 -0.470806 0.478103 0
M  V30 1073 H 99.5916 -0.907339 1.83269 0
M  V30 1074 H 97.7466 -3.39026 1.87457 0
M  V30 1075 H 98.1606 -3.28866 4.08592 0
M  V30 1076 H 99.6346 -4.62305 3.01626 0
M  V30 1077 H 100.112 -4.16892 1.38194 0
M  V30 1078 H 100.718 -3.23061 2.76608 0
M  V30 1079 N 99.0327 -1.24633 -0.964593 0
M  V30 1080 C 100.282 -1.08188 -1.7023 0
M  V30 1081 C 100.595 0.37873 -1.91898 0
M  V30 1082 O 101.801 0.663427 -2.6327 0
M  V30 1083 C 100.257 -1.88773 -3.06419 0
M  V30 1084 C 99.8647 -3.39263 -2.92582 0
M  V30 1085 C 101.609 -1.80867 -3.84041 0
M  V30 1086 C 99.5157 -4.1218 -4.24101 0
M  V30 1087 H 98.4457 -0.401245 -0.638372 0
M  V30 1088 H 101.097 -1.48742 -1.07462 0
M  V30 1089 H 99.4787 -1.41035 -3.70034 0
M  V30 1090 H 100.653 -3.94603 -2.37961 0
M  V30 1091 H 98.9677 -3.48154 -2.28424 0
M  V30 1092 H 101.565 -2.32646 -4.81435 0
M  V30 1093 H 101.908 -0.774543 -4.09031 0
M  V30 1094 H 102.441 -2.26301 -3.27159 0
M  V30 1095 H 99.1797 -5.15965 -4.04303 0
M  V30 1096 H 98.6997 -3.61626 -4.78526 0
M  V30 1097 H 100.379 -4.19349 -4.92702 0
M  V30 1098 N 100.511 1.16574 -1.06058 0
M  V30 1099 C 101.741 1.90675 -0.795397 0
M  V30 1100 C 102.149 1.77547 0.653735 0
M  V30 1101 O 101.492 1.11611 1.45907 0
M  V30 1102 C 101.554 3.42011 -1.10764 0
M  V30 1103 C 101.218 3.78924 -2.55471 0
M  V30 1104 C 102.215 3.81042 -3.53699 0
M  V30 1105 C 99.8998 4.09626 -2.90708 0
M  V30 1106 C 101.894 4.13346 -4.85205 0
M  V30 1107 C 99.5808 4.41597 -4.22416 0
M  V30 1108 C 100.579 4.43436 -5.19474 0
M  V30 1109 O 100.267 4.74649 -6.48817 0
M  V30 1110 H 99.9988 0.611554 -0.288058 0
M  V30 1111 H 102.553 1.48711 -1.41683 0
M  V30 1112 H 100.783 3.84312 -0.429128 0
M  V30 1113 H 102.472 3.97384 -0.827077 0
M  V30 1114 H 103.238 3.57437 -3.27817 0
M  V30 1115 H 99.1168 4.07361 -2.15819 0
M  V30 1116 H 102.661 4.14696 -5.60957 0
M  V30 1117 H 98.5578 4.64667 -4.48056 0
M  V30 1118 H 99.3258 4.9247 -6.5377 0
M  V30 1119 N 101.989 0.842826 1.3317 0
M  V30 1120 C 102.921 0.236245 2.27979 0
M  V30 1121 C 103.934 -0.585282 1.51915 0
M  V30 1122 O 105.123 -0.411705 1.73687 0
M  V30 1123 C 102.223 -0.685717 3.3189 0
M  V30 1124 C 101.396 0.0973448 4.37292 0
M  V30 1125 C 100.455 -0.748565 5.20848 0
M  V30 1126 O 99.4809 -0.186339 5.68895 0
M  V30 1127 N 100.683 -2.06527 5.42519 0
M  V30 1128 H 103.448 1.05088 2.80672 0
M  V30 1129 H 101.009 0.701667 1.45905 0
M  V30 1130 H 103.001 -1.25669 3.84694 0
M  V30 1131 H 101.571 -1.40105 2.79445 0
M  V30 1132 H 100.791 0.849706 3.84933 0
M  V30 1133 H 102.079 0.635643 5.04814 0
M  V30 1134 H 101.477 -2.54554 5.05192 0
M  V30 1135 H 100.034 -2.58464 5.98364 0
M  V30 1136 N 103.467 -1.45747 0.599634 0
M  V30 1137 C 104.397 -2.33235 -0.111306 0
M  V30 1138 C 105.378 -1.46359 -0.866781 0
M  V30 1139 O 106.563 -1.75146 -0.838904 0
M  V30 1140 C 103.693 -3.28932 -1.11451 0
M  V30 1141 C 102.647 -4.25381 -0.472772 0
M  V30 1142 C 101.973 -5.1071 -1.58365 0
M  V30 1143 C 103.273 -5.18831 0.600948 0
M  V30 1144 H 104.967 -2.92927 0.61919 0
M  V30 1145 H 102.513 -1.40857 0.299215 0
M  V30 1146 H 104.466 -3.89002 -1.62036 0
M  V30 1147 H 103.19 -2.67381 -1.8755 0
M  V30 1148 H 101.849 -3.66598 0.0121472 0
M  V30 1149 H 101.497 -4.45533 -2.33473 0
M  V30 1150 H 101.197 -5.7604 -1.15982 0
M  V30 1151 H 102.721 -5.73647 -2.09194 0
M  V30 1152 H 104.135 -5.73019 0.179491 0
M  V30 1153 H 102.532 -5.92595 0.946076 0
M  V30 1154 H 103.602 -4.6174 1.48068 0
M  V30 1155 N 104.945 -0.338344 -1.53925 0
M  V30 1156 C 105.875 0.51328 -2.27789 0
M  V30 1157 C 106.856 1.107 -1.29149 0
M  V30 1158 O 108.041 1.12937 -1.57984 0
M  V30 1159 C 105.171 1.66697 -3.04679 0
M  V30 1160 C 104.125 1.20183 -4.1078 0
M  V30 1161 C 103.451 2.44363 -4.75595 0
M  V30 1162 C 104.751 0.30605 -5.21403 0
M  V30 1163 H 106.445 -0.102883 -2.99223 0
M  V30 1164 H 103.991 -0.0509219 -1.4391 0
M  V30 1165 H 105.944 2.26915 -3.55088 0
M  V30 1166 H 104.668 2.30995 -2.30887 0
M  V30 1167 H 103.327 0.622499 -3.61276 0
M  V30 1168 H 102.975 3.07057 -3.98403 0
M  V30 1169 H 102.675 2.13925 -5.47275 0
M  V30 1170 H 104.199 3.05317 -5.28786 0
M  V30 1171 H 105.613 0.814929 -5.67478 0
M  V30 1172 H 104.01 0.0937929 -6.00027 0
M  V30 1173 H 105.08 -0.65921 -4.80398 0
M  V30 1174 N 106.423 1.57458 -0.0668435 0
M  V30 1175 C 107.648 1.9804 0.616027 0
M  V30 1176 C 108.073 0.944771 1.62652 0
M  V30 1177 O 107.431 -0.0902094 1.81075 0
M  V30 1178 C 107.479 3.37665 1.26549 0
M  V30 1179 O 106.583 3.36701 2.38131 0
M  V30 1180 H 105.924 0.644719 0.158849 0
M  V30 1181 H 108.454 2.04121 -0.139891 0
M  V30 1182 H 108.464 3.7474 1.6135 0
M  V30 1183 H 107.139 4.12573 0.525016 0
M  V30 1184 H 105.716 3.1139 2.0516 0
M  V30 1185 N 107.901 -0.206675 1.56239 0
M  V30 1186 C 108.864 -1.23976 1.92776 0
M  V30 1187 C 109.864 -1.39041 0.807729 0
M  V30 1188 O 111.054 -1.37051 1.0753 0
M  V30 1189 C 108.186 -2.61112 2.19165 0
M  V30 1190 H 109.379 -0.927764 2.85189 0
M  V30 1191 H 106.932 -0.447718 1.4975 0
M  V30 1192 H 107.667 -2.97386 1.29352 0
M  V30 1193 H 107.452 -2.51552 3.00772 0
M  V30 1194 H 108.942 -3.35633 2.48476 0
M  V30 1195 N 109.379 -1.50304 -0.473955 0
M  V30 1196 C 110.619 -1.62786 -1.23612 0
M  V30 1197 C 110.983 -0.319786 -1.89318 0
M  V30 1198 O 112.184 -0.320012 -2.66888 0
M  V30 1199 C 110.455 -2.77351 -2.25414 0
M  V30 1200 S 112.014 -3.09948 -3.10608 0
M  V30 1201 H 108.832 -0.573895 -0.419721 0
M  V30 1202 H 111.434 -1.88076 -0.533623 0
M  V30 1203 H 110.138 -3.70879 -1.75719 0
M  V30 1204 H 109.669 -2.54137 -3.00296 0
M  V30 1205 H 111.684 -2.53553 -4.26527 0
M  V30 1206 N 110.857 0.726932 -1.39834 0
M  V30 1207 C 111.767 1.87131 -1.41489 0
M  V30 1208 C 112.783 1.71239 -0.308757 0
M  V30 1209 O 113.959 1.93701 -0.551529 0
M  V30 1210 C 111.024 3.22811 -1.26468 0
M  V30 1211 C 110.085 3.51039 -2.47124 0
M  V30 1212 C 109.318 4.80245 -2.3281 0
M  V30 1213 O 109.541 5.54537 -1.33585 0
M  V30 1214 O 108.475 5.08554 -3.21957 0
M  V30 1215 H 112.301 1.8869 -2.3797 0
M  V30 1216 H 109.886 0.875837 -1.21035 0
M  V30 1217 H 111.768 4.03877 -1.20255 0
M  V30 1218 H 110.443 3.22005 -0.330862 0
M  V30 1219 H 109.35 2.70027 -2.58914 0
M  V30 1220 H 110.683 3.56632 -3.39227 0
M  V30 1221 N 112.336 1.25143 0.95797 0
M  V30 1222 C 113.561 1.12521 1.74223 0
M  V30 1223 C 113.986 -0.317402 1.85403 0
M  V30 1224 O 113.344 -1.2299 1.33204 0
M  V30 1225 C 113.392 1.78062 3.1357 0
M  V30 1226 O 112.496 1.058 3.98598 0
M  V30 1227 H 111.837 0.39304 0.535178 0
M  V30 1228 H 114.367 1.65641 1.201 0
M  V30 1229 H 114.377 1.84213 3.64046 0
M  V30 1230 H 113.052 2.83021 3.04749 0
M  V30 1231 H 111.629 1.07506 3.57067 0
M  V30 1232 N 113.814 -1.1601 1.06675 0
M  V30 1233 C 115.061 -1.86633 0.785781 0
M  V30 1234 C 115.389 -1.81929 -0.687896 0
M  V30 1235 O 114.644 -1.23253 -1.52011 0
M  V30 1236 C 114.943 -3.35547 1.23057 0
M  V30 1237 C 114.609 -3.60448 2.70902 0
M  V30 1238 C 113.271 -3.66954 3.11285 0
M  V30 1239 C 115.623 -3.7071 3.66365 0
M  V30 1240 C 112.951 -3.81225 4.45965 0
M  V30 1241 C 115.303 -3.86503 5.00797 0
M  V30 1242 C 113.967 -3.91252 5.40813 0
M  V30 1243 H 113.237 -0.682937 0.287538 0
M  V30 1244 H 115.884 -1.37146 1.33654 0
M  V30 1245 H 114.189 -3.87193 0.59907 0
M  V30 1246 H 115.886 -3.88583 0.990163 0
M  V30 1247 H 112.476 -3.56021 2.38636 0
M  V30 1248 H 116.66 -3.64991 3.36296 0
M  V30 1249 H 111.916 -3.83155 4.76447 0
M  V30 1250 H 116.09 -3.93385 5.74649 0
M  V30 1251 H 113.717 -4.02062 6.45174 0
M  V30 1252 N 115.292 -0.849877 -1.32721 0
M  V30 1253 C 116.239 -0.289033 -2.28983 0
M  V30 1254 C 117.209 0.601324 -1.54833 0
M  V30 1255 O 118.394 0.537253 -1.8308 0
M  V30 1256 C 115.534 0.520623 -3.4115 0
M  V30 1257 C 114.647 -0.394989 -4.3019 0
M  V30 1258 C 113.782 0.426834 -5.29482 0
M  V30 1259 C 112.821 -0.486476 -6.10164 0
M  V30 1260 N 111.958 0.297879 -7.01468 0
M  V30 1261 H 116.798 -1.11519 -2.76347 0
M  V30 1262 H 114.335 -0.56138 -1.35967 0
M  V30 1263 H 116.293 1.00563 -4.04899 0
M  V30 1264 H 114.923 1.31165 -2.9495 0
M  V30 1265 H 113.975 -0.99836 -3.67065 0
M  V30 1266 H 115.287 -1.09612 -4.86607 0
M  V30 1267 H 114.441 0.975205 -5.98811 0
M  V30 1268 H 113.18 1.16136 -4.73671 0
M  V30 1269 H 112.185 -1.04677 -5.39743 0
M  V30 1270 H 113.41 -1.21953 -6.6806 0
M  V30 1271 H 111.356 1.01558 -6.48091 0
M  V30 1272 H 111.273 -0.344318 -7.55216 0
M  V30 1273 H 112.541 0.828131 -7.75089 0
M  V30 1274 N 116.77 1.45427 -0.607355 0
M  V30 1275 C 117.68 2.34325 0.113463 0
M  V30 1276 C 118.696 1.51226 0.860617 0
M  V30 1277 O 119.872 1.84029 0.818255 0
M  V30 1278 C 116.937 3.28839 1.09844 0
M  V30 1279 C 115.998 4.27844 0.353271 0
M  V30 1280 C 115.231 5.17842 1.29133 0
M  V30 1281 O 115.454 5.11264 2.52913 0
M  V30 1282 O 114.388 5.96713 0.788523 0
M  V30 1283 H 118.214 2.97364 -0.617094 0
M  V30 1284 H 115.799 1.44807 -0.367619 0
M  V30 1285 H 117.681 3.8708 1.66575 0
M  V30 1286 H 116.356 2.68365 1.81003 0
M  V30 1287 H 115.263 3.7322 -0.256494 0
M  V30 1288 H 116.596 4.91173 -0.317822 0
M  V30 1289 N 118.248 0.346503 1.53744 0
M  V30 1290 C 119.497 -0.250122 2.00143 0
M  V30 1291 C 119.81 -1.51418 1.23822 0
M  V30 1292 O 121.016 -2.18823 1.60713 0
M  V30 1293 C 119.472 -0.496252 3.56462 0
M  V30 1294 C 119.08 0.752077 4.41642 0
M  V30 1295 C 120.824 -1.05157 4.11269 0
M  V30 1296 C 118.731 0.476583 5.89477 0
M  V30 1297 H 117.661 -0.0972409 0.747703 0
M  V30 1298 H 120.312 0.46229 1.77581 0
M  V30 1299 H 118.694 -1.26944 3.75102 0
M  V30 1300 H 119.868 1.5266 4.34778 0
M  V30 1301 H 118.183 1.22925 3.97842 0
M  V30 1302 H 120.78 -1.27269 5.19333 0
M  V30 1303 H 121.123 -2.00799 3.64672 0
M  V30 1304 H 121.656 -0.339019 3.96353 0
M  V30 1305 H 118.395 1.4028 6.40314 0
M  V30 1306 H 117.915 -0.259794 5.99237 0
M  V30 1307 H 119.594 0.0949315 6.4693 0
M  V30 1308 N 119.726 -1.57421 0.075193 0
M  V30 1309 C 120.972 -1.93905 -0.594025 0
M  V30 1310 C 121.305 -0.955701 -1.69056 0
M  V30 1311 O 120.58 0.0145373 -1.94495 0
M  V30 1312 C 120.863 -3.40638 -1.1678 0
M  V30 1313 C 120.716 -4.49733 -0.0776792 0
M  V30 1314 C 122.035 -3.88259 -2.07228 0
M  V30 1315 H 119.154 -0.705105 -0.214466 0
M  V30 1316 H 121.796 -1.8947 0.141854 0
M  V30 1317 H 119.946 -3.44549 -1.79494 0
M  V30 1318 H 121.618 -4.57942 0.555573 0
M  V30 1319 H 119.861 -4.29751 0.591286 0
M  V30 1320 H 120.532 -5.49549 -0.519603 0
M  V30 1321 H 123.008 -3.86376 -1.54445 0
M  V30 1322 H 121.884 -4.91533 -2.44308 0
M  V30 1323 H 122.145 -3.26396 -2.98191 0
M  V30 1324 N 121.204 0.198386 -1.56346 0
M  V30 1325 C 122.45 0.920648 -1.80698 0
M  V30 1326 C 122.783 1.83045 -0.648697 0
M  V30 1327 O 122.058 1.91308 0.350925 0
M  V30 1328 C 122.341 1.73971 -3.15287 0
M  V30 1329 C 122.194 0.85485 -4.41602 0
M  V30 1330 C 123.513 2.71296 -3.46535 0
M  V30 1331 H 120.632 0.333261 -0.657348 0
M  V30 1332 H 123.274 0.188198 -1.89066 0
M  V30 1333 H 121.424 2.36416 -3.08285 0
M  V30 1334 H 123.096 0.245362 -4.60647 0
M  V30 1335 H 121.339 0.161398 -4.335 0
M  V30 1336 H 122.01 1.46286 -5.32264 0
M  V30 1337 H 124.486 2.18983 -3.53816 0
M  V30 1338 H 123.362 3.2569 -4.41834 0
M  V30 1339 H 123.623 3.5018 -2.69864 0
M  V30 1340 N 122.682 1.50554 0.465978 0
M  V30 1341 C 123.91 1.65563 1.24083 0
M  V30 1342 C 124.325 0.341051 1.85694 0
M  V30 1343 O 123.682 -0.677543 1.69457 0
M  V30 1344 C 123.733 2.75051 2.34583 0
M  V30 1345 O 123.454 4.01413 1.75497 0
M  V30 1346 C 124.955 3.01078 3.25372 0
M  V30 1347 H 122.175 0.55638 0.375077 0
M  V30 1348 H 124.719 1.96807 0.555624 0
M  V30 1349 H 122.874 2.46486 2.9887 0
M  V30 1350 H 123.288 4.62002 2.48303 0
M  V30 1351 H 124.762 3.81339 3.99105 0
M  V30 1352 H 125.239 2.12349 3.84453 0
M  V30 1353 H 125.845 3.31194 2.66816 0
M  V30 1354 N 124.16 -0.719506 1.40217 0
M  V30 1355 C 125.437 -1.47221 1.28784 0
M  V30 1356 C 125.817 -2.10883 -0.0956067 0
M  V30 1357 O 125.165 -1.99833 -1.10811 0
M  V30 1358 C 125.375 -2.5111 2.42373 0
M  V30 1359 C 126.723 -3.17053 2.82423 0
M  V30 1360 O 127.747 -2.61429 2.41937 0
M  V30 1361 O 126.606 -4.17742 3.52355 0
M  V30 1362 H 123.7 -0.654491 0.50554 0
M  V30 1363 H 126.246 -0.752014 1.52128 0
M  V30 1364 H 125.018 -2.02556 3.34793 0
M  V30 1365 H 124.641 -3.3067 2.20778 0
M  V30 1366 N 125.638 -1.25649 -0.95132 0
M  V30 1367 C 126.868 -1.13179 -1.72841 0
M  V30 1368 C 127.276 0.316827 -1.86528 0
M  V30 1369 O 126.619 1.22948 -1.3649 0
M  V30 1370 C 126.681 -1.71644 -3.15878 0
M  V30 1371 C 126.345 -3.20667 -3.25609 0
M  V30 1372 C 127.342 -4.17616 -3.09666 0
M  V30 1373 C 125.027 -3.6094 -3.49324 0
M  V30 1374 C 127.021 -5.52817 -3.17289 0
M  V30 1375 C 124.708 -4.96278 -3.56584 0
M  V30 1376 C 125.706 -5.92025 -3.40581 0
M  V30 1377 O 125.394 -7.24899 -3.47528 0
M  V30 1378 H 125.126 -0.395389 -0.54831 0
M  V30 1379 H 127.68 -1.66566 -1.20187 0
M  V30 1380 H 125.91 -1.12707 -3.69911 0
M  V30 1381 H 127.599 -1.54225 -3.75459 0
M  V30 1382 H 128.365 -3.87842 -2.91211 0
M  V30 1383 H 124.244 -2.86907 -3.6084 0
M  V30 1384 H 127.788 -6.2753 -3.04716 0
M  V30 1385 H 123.685 -5.25716 -3.74556 0
M  V30 1386 H 124.453 -7.33039 -3.64138 0
M  V30 1387 N 127.117 1.15442 -1.07289 0
M  V30 1388 C 128.342 1.90638 -0.816828 0
M  V30 1389 C 128.767 1.77445 0.624083 0
M  V30 1390 O 128.125 1.10671 1.43602 0
M  V30 1391 C 128.173 3.39008 -1.22906 0
M  V30 1392 O 127.277 4.10701 -0.373975 0
M  V30 1393 H 126.618 0.593555 -0.297638 0
M  V30 1394 H 129.148 1.46198 -1.43134 0
M  V30 1395 H 129.158 3.89801 -1.20497 0
M  V30 1396 H 127.833 3.47929 -2.27856 0
M  V30 1397 H 126.41 3.70046 -0.460499 0
M  V30 1398 N 128.595 0.856903 1.32268 0
M  V30 1399 C 129.872 0.382583 1.91822 0
M  V30 1400 C 130.252 -1.13407 1.78051 0
M  V30 1401 O 129.6 -1.95673 1.18001 0
M  V30 1402 C 129.81 0.849446 3.38505 0
M  V30 1403 C 131.158 0.867936 4.15634 0
M  V30 1404 O 132.182 0.794232 3.47232 0
M  V30 1405 O 131.041 0.972286 5.37781 0
M  V30 1406 H 128.135 0.112014 0.819379 0
M  V30 1407 H 130.681 0.943952 1.41024 0
M  V30 1408 H 129.453 1.89267 3.42482 0
M  V30 1409 H 129.076 0.265652 3.96712 0
M  V30 1410 N 130.073 -1.45103 0.615059 0
M  V30 1411 C 131.005 -2.28786 -0.13762 0
M  V30 1412 C 132.018 -1.40376 -0.824525 0
M  V30 1413 O 133.207 -1.64681 -0.688662 0
M  V30 1414 C 130.307 -3.16322 -1.21628 0
M  V30 1415 C 129.48 -4.33054 -0.615039 0
M  V30 1416 C 128.539 -5.01743 -1.58556 0
M  V30 1417 O 127.565 -5.58293 -1.10895 0
M  V30 1418 N 128.767 -5.01714 -2.91998 0
M  V30 1419 H 131.532 -2.94025 0.580483 0
M  V30 1420 H 129.093 -1.55373 0.45507 0
M  V30 1421 H 131.085 -3.59139 -1.86552 0
M  V30 1422 H 129.655 -2.52943 -1.83681 0
M  V30 1423 H 128.875 -3.93627 0.21245 0
M  V30 1424 H 130.163 -5.08431 -0.193704 0
M  V30 1425 H 129.561 -4.57075 -3.33316 0
M  V30 1426 H 128.118 -5.48371 -3.52325 0
M  V30 1427 N 131.551 -0.354651 -1.53558 0
M  V30 1428 C 132.499 0.512195 -2.26891 0
M  V30 1429 C 133.493 1.09263 -1.29452 0
M  V30 1430 O 134.699 1.03709 -1.47121 0
M  V30 1431 H 131.074 0.183878 -0.729173 0
M  V30 1432 H 133.045 -0.128202 -2.98124 0
M  V30 1433 C 131.794 1.64563 -3.06291 0
M  V30 1434 H 131.117 1.20829 -3.81104 0
M  V30 1435 H 132.557 2.22711 -3.60799 0
M  V30 1436 C 131.016 2.58158 -2.16462 0
M  V30 1437 O 131.546 3.60695 -1.76811 0
M  V30 1438 N 129.752 2.27096 -1.81317 0
M  V30 1439 H 129.299 1.43751 -2.1376 0
M  V30 1440 H 129.257 2.89975 -1.21498 0
M  V30 1441 N 133.029 1.57378 -0.0835403 0
M  V30 1442 C 133.959 2.1641 0.87686 0
M  V30 1443 C 134.94 1.09429 1.30228 0
M  V30 1444 O 136.125 1.37516 1.37124 0
M  V30 1445 C 133.255 2.73517 2.14022 0
M  V30 1446 C 132.209 3.85769 1.85381 0
M  V30 1447 C 131.535 4.29529 3.18448 0
M  V30 1448 C 132.835 5.09486 1.14984 0
M  V30 1449 H 134.529 2.96914 0.385059 0
M  V30 1450 H 132.075 1.42823 0.18377 0
M  V30 1451 H 134.028 3.13463 2.81636 0
M  V30 1452 H 132.752 1.90252 2.65465 0
M  V30 1453 H 131.411 3.46345 1.20169 0
M  V30 1454 H 131.059 3.43169 3.67755 0
M  V30 1455 H 130.759 5.05204 3.00071 0
M  V30 1456 H 132.283 4.72099 3.8724 0
M  V30 1457 H 133.697 5.46674 1.72687 0
M  V30 1458 H 132.094 5.90515 1.06826 0
M  V30 1459 H 133.164 4.84724 0.130749 0
M  V30 1460 N 134.507 -0.190092 1.56449 0
M  V30 1461 C 135.439 -1.25973 1.91477 0
M  V30 1462 C 136.452 -1.41452 0.805931 0
M  V30 1463 O 137.641 -1.41789 1.08435 0
M  V30 1464 C 134.741 -2.63117 2.13594 0
M  V30 1465 C 133.914 -2.69182 3.4476 0
M  V30 1466 C 132.973 -3.87557 3.5593 0
M  V30 1467 O 131.999 -3.74427 4.28711 0
M  V30 1468 N 133.201 -5.03224 2.89388 0
M  V30 1469 H 135.966 -0.962394 2.83828 0
M  V30 1470 H 133.527 -0.379981 1.57378 0
M  V30 1471 H 135.519 -3.40742 2.1835 0
M  V30 1472 H 134.089 -2.85319 1.27719 0
M  V30 1473 H 133.309 -1.77793 3.51828 0
M  V30 1474 H 134.597 -2.70229 4.31107 0
M  V30 1475 H 133.995 -5.16791 2.30094 0
M  V30 1476 H 132.552 -5.78778 2.99764 0
M  V30 1477 N 135.985 -1.50799 -0.457987 0
M  V30 1478 C 136.895 -1.73426 -1.57989 0
M  V30 1479 C 137.911 -0.617745 -1.62665 0
M  V30 1480 O 139.087 -0.897614 -1.80291 0
M  V30 1481 C 136.152 -1.83557 -2.94122 0
M  V30 1482 C 135.213 -3.07345 -2.99729 0
M  V30 1483 C 134.446 -3.16983 -4.29368 0
M  V30 1484 O 134.669 -2.33077 -5.20607 0
M  V30 1485 O 133.603 -4.09812 -4.40837 0
M  V30 1486 H 137.429 -2.68555 -1.41817 0
M  V30 1487 H 135.014 -1.35052 -0.638859 0
M  V30 1488 H 136.896 -1.92326 -3.74952 0
M  V30 1489 H 135.571 -0.916137 -3.10465 0
M  V30 1490 H 134.478 -3.04068 -2.1793 0
M  V30 1491 H 135.811 -3.9891 -2.88326 0
M  V30 1492 N 137.463 0.71206 -1.40597 0
M  V30 1493 C 138.393 1.83889 -1.43899 0
M  V30 1494 C 139.374 1.67442 -0.299504 0
M  V30 1495 O 140.559 1.87421 -0.508624 0
M  V30 1496 C 137.689 3.21877 -1.30431 0
M  V30 1497 C 136.643 3.53002 -2.42019 0
M  V30 1498 C 135.969 4.90172 -2.13626 0
M  V30 1499 C 137.269 3.53643 -3.84362 0
M  V30 1500 H 138.963 1.81383 -2.38203 0
M  V30 1501 H 136.509 0.871237 -1.14654 0
M  V30 1502 H 138.462 4.00404 -1.31357 0
M  V30 1503 H 137.186 3.24968 -0.326049 0
M  V30 1504 H 135.845 2.76818 -2.40349 0
M  V30 1505 H 135.493 4.89869 -1.14182 0
M  V30 1506 H 135.193 5.11962 -2.88389 0
M  V30 1507 H 136.717 5.71028 -2.1624 0
M  V30 1508 H 138.131 4.22203 -3.87837 0
M  V30 1509 H 136.528 3.86961 -4.58673 0
M  V30 1510 H 137.598 2.52954 -4.13693 0
M  V30 1511 N 138.941 1.26152 0.944643 0
M  V30 1512 C 139.851 1.09176 2.07648 0
M  V30 1513 C 140.867 0.0261935 1.7398 0
M  V30 1514 O 142.043 0.229208 2.00091 0
M  V30 1515 C 139.108 0.722915 3.39079 0
M  V30 1516 C 138.169 1.86752 3.86552 0
M  V30 1517 C 137.402 1.51617 5.11711 0
M  V30 1518 O 137.625 0.416331 5.68879 0
M  V30 1519 O 136.559 2.34975 5.54139 0
M  V30 1520 H 140.385 2.0412 2.24875 0
M  V30 1521 H 137.97 1.05182 1.061 0
M  V30 1522 H 139.852 0.529787 4.18056 0
M  V30 1523 H 138.527 -0.197159 3.23099 0
M  V30 1524 H 137.434 2.11558 3.08535 0
M  V30 1525 H 138.767 2.76719 4.07047 0
M  V30 1526 N 140.419 -1.14872 1.07899 0
M  V30 1527 C 141.366 -2.19791 0.704319 0
M  V30 1528 C 142.336 -1.63238 -0.306987 0
M  V30 1529 O 143.521 -1.8983 -0.192171 0
M  V30 1530 C 140.661 -3.44911 0.114244 0
M  V30 1531 C 139.774 -4.15637 1.1777 0
M  V30 1532 C 138.909 -5.28324 0.552037 0
M  V30 1533 C 137.948 -5.90875 1.59789 0
M  V30 1534 N 137.085 -6.95022 0.994404 0
M  V30 1535 H 141.925 -2.5119 1.60336 0
M  V30 1536 H 139.462 -1.23356 0.801352 0
M  V30 1537 H 141.42 -4.16477 -0.245544 0
M  V30 1538 H 140.05 -3.14011 -0.74813 0
M  V30 1539 H 139.102 -3.42512 1.65499 0
M  V30 1540 H 140.414 -4.5823 1.97046 0
M  V30 1541 H 139.568 -6.06538 0.1402 0
M  V30 1542 H 138.307 -4.86939 -0.272431 0
M  V30 1543 H 137.312 -5.11369 2.01945 0
M  V30 1544 H 138.537 -6.34337 2.42474 0
M  V30 1545 H 136.483 -6.55722 0.190939 0
M  V30 1546 H 136.4 -7.36073 1.72432 0
M  V30 1547 H 137.668 -7.77123 0.608253 0
M  V30 1548 N 141.898 -0.863906 -1.31812 0
M  V30 1549 C 143.144 -0.481841 -1.9761 0
M  V30 1550 C 143.499 0.954048 -1.6708 0
M  V30 1551 O 142.792 1.66182 -0.953624 0
M  V30 1552 C 142.986 -0.668547 -3.51091 0
M  V30 1553 C 142.815 -2.12103 -3.96538 0
M  V30 1554 C 141.585 -2.76141 -4.23171 0
M  V30 1555 C 143.783 -3.09265 -4.10925 0
M  V30 1556 N 141.765 -4.12205 -4.54929 0
M  V30 1557 C 143.136 -4.30341 -4.46326 0
M  V30 1558 C 145.191 -3.05337 -3.93286 0
M  V30 1559 C 143.894 -5.48 -4.65928 0
M  V30 1560 C 145.92 -4.22248 -4.14078 0
M  V30 1561 C 145.282 -5.42085 -4.49804 0
M  V30 1562 H 141.381 -0.225238 -0.74886 0
M  V30 1563 H 143.965 -1.11723 -1.59455 0
M  V30 1564 H 142.136 -0.0627898 -3.88349 0
M  V30 1565 H 143.868 -0.255467 -4.03893 0
M  V30 1566 H 140.623 -2.27125 -4.15585 0
M  V30 1567 H 141.047 -4.82416 -4.74978 0
M  V30 1568 H 145.689 -2.138 -3.64759 0
M  V30 1569 H 143.407 -6.40059 -4.93305 0
M  V30 1570 H 146.993 -4.20654 -4.01922 0
M  V30 1571 H 145.873 -6.31044 -4.65567 0
M  V30 1572 N 143.376 1.44774 -0.622745 0
M  V30 1573 C 144.306 2.33382 0.0741861 0
M  V30 1574 C 145.287 1.47719 0.843387 0
M  V30 1575 O 146.472 1.76458 0.810934 0
M  V30 1576 C 143.602 3.30663 1.06204 0
M  V30 1577 C 142.556 4.26079 0.405037 0
M  V30 1578 C 141.882 5.13165 1.5022 0
M  V30 1579 C 143.182 5.1781 -0.683414 0
M  V30 1580 H 144.876 2.91905 -0.665713 0
M  V30 1581 H 142.422 1.40363 -0.321587 0
M  V30 1582 H 144.375 3.9153 1.55827 0
M  V30 1583 H 143.099 2.70331 1.83272 0
M  V30 1584 H 141.758 3.66532 -0.0704683 0
M  V30 1585 H 141.406 4.49191 2.26355 0
M  V30 1586 H 141.106 5.77812 1.06803 0
M  V30 1587 H 142.63 5.76902 2.00041 0
M  V30 1588 H 144.044 5.72661 -0.270631 0
M  V30 1589 H 142.441 5.91015 -1.04023 0
M  V30 1590 H 143.511 4.59326 -1.55395 0
M  V30 1591 N 144.854 0.36279 1.53368 0
M  V30 1592 C 145.801 -0.485008 2.25646 0
M  V30 1593 C 146.771 -1.07982 1.2621 0
M  V30 1594 O 147.956 -1.11284 1.54986 0
M  V30 1595 C 145.096 -1.62023 3.04701 0
M  V30 1596 C 144.209 -1.05086 4.19024 0
M  V30 1597 C 143.344 -2.15496 4.85525 0
M  V30 1598 C 142.383 -1.5601 5.91884 0
M  V30 1599 N 141.52 -2.60241 6.52088 0
M  V30 1600 H 146.36 0.137864 2.97681 0
M  V30 1601 H 143.897 0.0798061 1.46883 0
M  V30 1602 H 145.855 -2.28887 3.48807 0
M  V30 1603 H 144.485 -2.2138 2.34927 0
M  V30 1604 H 143.537 -0.27259 3.79422 0
M  V30 1605 H 144.849 -0.575926 4.95464 0
M  V30 1606 H 144.003 -2.90186 5.32801 0
M  V30 1607 H 142.742 -2.66341 4.08551 0
M  V30 1608 H 141.747 -0.798338 5.43973 0
M  V30 1609 H 142.972 -1.05994 6.70777 0
M  V30 1610 H 140.918 -3.10304 5.77968 0
M  V30 1611 H 140.835 -2.17426 7.24059 0
M  V30 1612 H 142.103 -3.34641 7.04014 0
M  V30 1613 N 146.332 -1.57332 0.0918853 0
M  V30 1614 C 147.279 -2.13847 -0.868211 0
M  V30 1615 C 148.249 -1.05618 -1.28196 0
M  V30 1616 O 149.434 -1.33387 -1.36427 0
M  V30 1617 C 146.574 -2.72062 -2.12312 0
M  V30 1618 C 145.687 -3.94514 -1.7602 0
M  V30 1619 C 144.822 -4.40903 -2.96273 0
M  V30 1620 C 143.861 -5.55953 -2.56092 0
M  V30 1621 N 142.998 -5.97209 -3.69169 0
M  V30 1622 H 147.838 -2.95575 -0.379406 0
M  V30 1623 H 145.375 -1.46048 -0.175606 0
M  V30 1624 H 147.333 -3.03931 -2.858 0
M  V30 1625 H 145.963 -1.93068 -2.58698 0
M  V30 1626 H 145.015 -3.68979 -0.925135 0
M  V30 1627 H 146.327 -4.7802 -1.42472 0
M  V30 1628 H 145.481 -4.74539 -3.78018 0
M  V30 1629 H 144.22 -3.56291 -3.33029 0
M  V30 1630 H 143.225 -5.21948 -1.72773 0
M  V30 1631 H 144.45 -6.42311 -2.20484 0
M  V30 1632 H 142.396 -5.15543 -4.05649 0
M  V30 1633 H 142.313 -6.75504 -3.39456 0
M  V30 1634 H 143.581 -6.35475 -4.51434 0
M  V30 1635 N 147.81 0.181792 -1.56548 0
M  V30 1636 C 148.72 1.24538 -1.98815 0
M  V30 1637 C 149.736 1.49045 -0.897861 0
M  V30 1638 O 150.912 1.61399 -1.20467 0
M  V30 1639 C 147.977 2.56683 -2.33055 0
M  V30 1640 C 147.038 2.40131 -3.55859 0
M  V30 1641 C 146.271 3.65975 -3.88456 0
M  V30 1642 O 146.494 4.70711 -3.22161 0
M  V30 1643 O 145.428 3.6071 -4.81842 0
M  V30 1644 H 149.254 0.916647 -2.89536 0
M  V30 1645 H 146.839 0.387842 -1.44278 0
M  V30 1646 H 148.721 3.34655 -2.56094 0
M  V30 1647 H 147.396 2.89157 -1.45498 0
M  V30 1648 H 146.303 1.60226 -3.38051 0
M  V30 1649 H 147.636 2.12585 -4.43924 0
M  V30 1650 N 149.288 1.51039 0.449983 0
M  V30 1651 C 150.699 1.557 1.03026 0
M  V30 1652 C 151.05 0.372939 1.92623 0
M  V30 1653 O 150.175 -0.511771 2.10261 0
M  V30 1654 C 150.77 2.82171 1.87523 0
M  V30 1655 C 149.329 2.89444 2.40622 0
M  V30 1656 C 148.476 2.50228 1.19504 0
M  V30 1657 H 151.427 1.56999 0.231745 0
M  V30 1658 H 151.448 2.65219 2.72835 0
M  V30 1659 H 150.96 3.68331 1.22286 0
M  V30 1660 H 149.061 2.07685 3.0935 0
M  V30 1661 H 149.174 3.92816 2.74285 0
M  V30 1662 H 147.538 2.03139 1.53644 0
M  V30 1663 H 148.321 3.38719 0.558972 0
M  V30 1664 N 150.766 -0.704594 1.40972 0
M  V30 1665 C 151.676 -1.84856 1.44448 0
M  V30 1666 C 152.692 -1.70726 0.335961 0
M  V30 1667 O 153.868 -1.92799 0.582276 0
M  V30 1668 C 150.933 -3.20758 1.31587 0
M  V30 1669 C 149.994 -3.47063 2.52677 0
M  V30 1670 C 149.227 -4.76481 2.4042 0
M  V30 1671 O 149.45 -5.52341 1.42391 0
M  V30 1672 O 148.384 -5.03367 3.30007 0
M  V30 1673 H 152.21 -1.8488 2.40942 0
M  V30 1674 H 149.795 -0.85647 1.22413 0
M  V30 1675 H 151.677 -4.01913 1.26665 0
M  V30 1676 H 150.352 -3.21438 0.382049 0
M  V30 1677 H 149.259 -2.65873 2.63177 0
M  V30 1678 H 150.592 -3.5119 3.44858 0
M  V30 1679 N 152.244 -1.26651 -0.937939 0
M  V30 1680 C 153.207 -1.08546 -2.01867 0
M  V30 1681 C 154.207 -0.0327327 -1.60767 0
M  V30 1682 O 155.397 -0.276427 -1.71993 0
M  V30 1683 C 152.529 -0.651711 -3.34613 0
M  V30 1684 H 153.722 -2.04502 -2.1936 0
M  V30 1685 H 151.275 -1.09294 -1.11734 0
M  V30 1686 H 152.01 0.309696 -3.22818 0
M  V30 1687 H 151.795 -1.41189 -3.65798 0
M  V30 1688 H 153.285 -0.546973 -4.14002 0
M  V30 1689 N 153.722 1.14298 -1.08507 0
M  V30 1690 C 154.969 1.85359 -0.815373 0
M  V30 1691 C 155.297 1.83001 0.658865 0
M  V30 1692 O 154.552 1.25655 1.50031 0
M  V30 1693 C 154.851 3.33547 -1.28379 0
M  V30 1694 C 154.517 3.56093 -2.76602 0
M  V30 1695 C 153.179 3.61955 -3.17084 0
M  V30 1696 C 155.531 3.64834 -3.72217 0
M  V30 1697 C 152.859 3.74082 -4.51973 0
M  V30 1698 C 155.211 3.78487 -5.06883 0
M  V30 1699 C 153.875 3.82598 -5.46969 0
M  V30 1700 H 153.145 0.678276 -0.298366 0
M  V30 1701 H 155.792 1.35002 -1.35819 0
M  V30 1702 H 154.097 3.86191 -0.660593 0
M  V30 1703 H 155.794 3.86959 -1.05186 0
M  V30 1704 H 152.384 3.52179 -2.4427 0
M  V30 1705 H 156.568 3.59595 -3.42061 0
M  V30 1706 H 151.824 3.75527 -4.82483 0
M  V30 1707 H 155.998 3.84193 -5.80834 0
M  V30 1708 H 153.625 3.91747 -6.51489 0
M  V30 1709 N 155.201 0.870884 1.31352 0
M  V30 1710 C 156.478 0.402907 1.91405 0
M  V30 1711 C 156.858 -1.11512 1.79244 0
M  V30 1712 O 156.206 -1.94411 1.2007 0
M  V30 1713 C 156.416 0.885301 3.37585 0
M  V30 1714 C 157.764 0.911971 4.14691 0
M  V30 1715 O 158.788 0.831016 3.46371 0
M  V30 1716 O 157.647 1.02927 5.3672 0
M  V30 1717 H 154.741 0.120698 0.818145 0
M  V30 1718 H 157.287 0.958857 1.40014 0
M  V30 1719 H 156.059 1.92889 3.40455 0
M  V30 1720 H 155.682 0.307714 3.96407 0
M  V30 1721 N 156.679 -1.44442 0.630414 0
M  V30 1722 C 157.925 -2.02894 0.143332 0
M  V30 1723 C 158.28 -1.48697 -1.22094 0
M  V30 1724 O 157.573 -0.661171 -1.79831 0
M  V30 1725 C 157.767 -3.57332 0.0697835 0
M  V30 1726 C 157.596 -4.26512 1.42539 0
M  V30 1727 C 156.366 -4.63516 2.01198 0
M  V30 1728 C 158.564 -4.57004 2.35907 0
M  V30 1729 N 156.546 -5.17661 3.30001 0
M  V30 1730 C 157.917 -5.12223 3.49324 0
M  V30 1731 C 159.972 -4.38955 2.34995 0
M  V30 1732 C 158.675 -5.51295 4.62024 0
M  V30 1733 C 160.701 -4.79075 3.46758 0
M  V30 1734 C 160.063 -5.34407 4.58899 0
M  V30 1735 H 156.162 -0.776041 0.0963523 0
M  V30 1736 H 158.746 -1.75945 0.833752 0
M  V30 1737 H 156.917 -3.83894 -0.589915 0
M  V30 1738 H 158.649 -4.02451 -0.42606 0
M  V30 1739 H 155.404 -4.47811 1.54151 0
M  V30 1740 H 155.828 -5.4921 3.95851 0
M  V30 1741 H 160.47 -3.95469 1.49545 0
M  V30 1742 H 158.188 -5.93736 5.48182 0
M  V30 1743 H 161.774 -4.66824 3.47227 0
M  V30 1744 H 160.654 -5.64878 5.4395 0
M  V30 1745 N 158.157 -0.370918 -1.53173 0
M  V30 1746 C 159.382 0.220293 -2.06227 0
M  V30 1747 C 159.807 1.41243 -1.24225 0
M  V30 1748 O 159.165 1.79387 -0.262645 0
M  V30 1749 C 159.213 0.586663 -3.55796 0
M  V30 1750 O 158.317 1.68317 -3.76488 0
M  V30 1751 H 157.658 0.0308099 -0.663285 0
M  V30 1752 H 160.188 -0.533068 -1.97534 0
M  V30 1753 H 160.198 0.85617 -3.98916 0
M  V30 1754 H 158.873 -0.285013 -4.14922 0
M  V30 1755 H 157.45 1.40881 -3.45264 0
M  V30 1756 N 159.635 1.57281 -0.100228 0
M  V30 1757 C 161.046 1.81725 0.428107 0
M  V30 1758 C 161.397 1.01619 1.67833 0
M  V30 1759 O 160.522 0.247098 2.14985 0
M  V30 1760 C 161.117 3.29617 0.78347 0
M  V30 1761 C 159.676 3.54808 1.25653 0
M  V30 1762 C 158.823 2.76118 0.255752 0
M  V30 1763 H 161.774 1.55324 -0.325608 0
M  V30 1764 H 161.795 3.4322 1.64256 0
M  V30 1765 H 161.307 3.87893 -0.12665 0
M  V30 1766 H 159.408 3.01868 2.18418 0
M  V30 1767 H 159.521 4.63443 1.21482 0
M  V30 1768 H 157.885 2.43745 0.738956 0
M  V30 1769 H 158.668 3.37145 -0.647136 0
M  V30 1770 N 161.113 -0.173488 1.56642 0
M  V30 1771 C 162.359 -0.891784 1.8214 0
M  V30 1772 C 162.692 -1.8199 0.677736 0
M  V30 1773 O 161.967 -1.91842 -0.320446 0
M  V30 1774 C 162.25 -1.68933 3.18015 0
M  V30 1775 C 162.103 -0.784487 4.42906 0
M  V30 1776 C 163.422 -2.65748 3.50808 0
M  V30 1777 H 160.541 -0.322761 0.662567 0
M  V30 1778 H 163.183 -0.158095 1.89341 0
M  V30 1779 H 161.333 -2.31482 3.12007 0
M  V30 1780 H 163.005 -0.172046 4.60979 0
M  V30 1781 H 161.248 -0.0924117 4.33702 0
M  V30 1782 H 161.919 -1.37799 5.34524 0
M  V30 1783 H 164.395 -2.13327 3.57255 0
M  V30 1784 H 163.271 -3.18619 4.4696 0
M  V30 1785 H 163.532 -3.45842 2.75401 0
M  V30 1786 N 162.591 -1.51276 -0.441967 0
M  V30 1787 C 163.837 -1.63958 -1.19355 0
M  V30 1788 C 164.17 -0.352543 -1.90973 0
M  V30 1789 O 163.445 0.647627 -1.83401 0
M  V30 1790 C 163.728 -2.83979 -2.21422 0
M  V30 1791 C 163.581 -4.22646 -1.53918 0
M  V30 1792 C 164.9 -2.99521 -3.22451 0
M  V30 1793 H 162.019 -0.596709 -0.432559 0
M  V30 1794 H 164.661 -1.83748 -0.483398 0
M  V30 1795 H 162.811 -2.67237 -2.81987 0
M  V30 1796 H 164.483 -4.51045 -0.967256 0
M  V30 1797 H 162.726 -4.25558 -0.841615 0
M  V30 1798 H 163.397 -5.02609 -2.28229 0
M  V30 1799 H 165.873 -3.14944 -2.71937 0
M  V30 1800 H 164.749 -3.85072 -3.91166 0
M  V30 1801 H 165.01 -2.11391 -3.88287 0
M  V30 1802 N 164.069 0.697108 -1.41344 0
M  V30 1803 C 165.297 1.48593 -1.43972 0
M  V30 1804 C 165.712 1.88747 -0.0445612 0
M  V30 1805 O 165.069 1.56682 0.935785 0
M  V30 1806 C 165.12 2.74946 -2.34706 0
M  V30 1807 O 164.841 2.36484 -3.68791 0
M  V30 1808 C 166.342 3.687 -2.46121 0
M  V30 1809 H 163.562 0.457964 -0.490418 0
M  V30 1810 H 166.106 0.858429 -1.8561 0
M  V30 1811 H 164.261 3.33937 -1.9638 0
M  V30 1812 H 164.675 3.17918 -4.17167 0
M  V30 1813 H 166.149 4.54145 -3.13777 0
M  V30 1814 H 166.626 4.13081 -1.49199 0
M  V30 1815 H 167.232 3.15613 -2.85076 0
M  V30 1816 N 165.547 1.27147 0.931209 0
M  V30 1817 C 166.777 1.15914 1.71019 0
M  V30 1818 C 167.185 -0.287112 1.87009 0
M  V30 1819 O 166.528 -1.20761 1.38429 0
M  V30 1820 C 166.59 1.76647 3.13107 0
M  V30 1821 C 166.254 3.25807 3.20467 0
M  V30 1822 C 167.251 4.22489 3.02983 0
M  V30 1823 C 164.936 3.66452 3.43538 0
M  V30 1824 C 166.93 5.57794 3.08454 0
M  V30 1825 C 164.617 5.01888 3.48643 0
M  V30 1826 C 165.615 5.97369 3.31119 0
M  V30 1827 O 165.303 7.30337 3.35952 0
M  V30 1828 H 165.035 0.404062 0.54195 0
M  V30 1829 H 167.589 1.68457 1.17521 0
M  V30 1830 H 165.819 1.18578 3.68071 0
M  V30 1831 H 167.508 1.60179 3.72958 0
M  V30 1832 H 168.274 3.92425 2.85004 0
M  V30 1833 H 164.153 2.92611 3.5623 0
M  V30 1834 H 167.697 6.32298 2.94694 0
M  V30 1835 H 163.594 5.31609 3.66145 0
M  V30 1836 H 164.362 7.38739 3.5243 0
M  V30 1837 N 167.025 -1.13721 1.09112 0
M  V30 1838 C 168.271 -1.85198 0.826414 0
M  V30 1839 C 168.604 -1.83129 -0.646319 0
M  V30 1840 O 167.879 -1.2671 -1.47563 0
M  V30 1841 C 168.162 -3.33507 1.35812 0
M  V30 1842 C 168.015 -3.44108 2.89672 0
M  V30 1843 C 169.334 -4.28838 0.989256 0
M  V30 1844 H 166.453 -0.67243 0.301675 0
M  V30 1845 H 169.095 -1.33499 1.35197 0
M  V30 1846 H 167.245 -3.77666 0.911082 0
M  V30 1847 H 168.917 -3.08684 3.428 0
M  V30 1848 H 167.16 -2.85087 3.26967 0
M  V30 1849 H 167.831 -4.48388 3.21951 0
M  V30 1850 H 170.307 -3.92734 1.37475 0
M  V30 1851 H 169.183 -5.31051 1.38838 0
M  V30 1852 H 169.444 -4.4198 -0.102924 0
M  V30 1853 N 168.503 -0.877838 -1.30888 0
M  V30 1854 C 169.743 -0.499301 -1.98208 0
M  V30 1855 C 170.107 0.932649 -1.67826 0
M  V30 1856 O 171.308 1.41694 -2.28421 0
M  V30 1857 C 169.579 -0.758221 -3.49265 0
M  V30 1858 S 171.138 -0.480719 -4.36159 0
M  V30 1859 H 167.956 -0.186062 -0.686223 0
M  V30 1860 H 170.558 -1.13556 -1.59139 0
M  V30 1861 H 169.262 -1.79903 -3.68867 0
M  V30 1862 H 168.793 -0.109247 -3.93248 0
M  V30 1863 H 170.808 0.683698 -4.91467 0
M  V30 1864 N 169.982 1.44106 -0.638065 0
M  V30 1865 C 171.259 1.95453 -0.0759321 0
M  V30 1866 C 171.639 1.57984 1.40015 0
M  V30 1867 O 170.987 0.857361 2.11806 0
M  V30 1868 C 171.197 3.47655 -0.306132 0
M  V30 1869 C 172.545 4.24114 -0.203008 0
M  V30 1870 O 173.569 3.55405 -0.237871 0
M  V30 1871 O 172.428 5.46381 -0.113827 0
M  V30 1872 H 169.522 0.826797 0.0183332 0
M  V30 1873 H 172.068 1.54122 -0.710251 0
M  V30 1874 H 170.84 3.68 -1.3301 0
M  V30 1875 H 170.463 3.95949 0.361991 0
M  V30 1876 N 171.46 0.379036 1.52974 0
M  V30 1877 C 172.39 -0.452706 2.29069 0
M  V30 1878 C 173.371 -1.07237 1.32039 0
M  V30 1879 O 174.556 -1.08708 1.60923 0
M  V30 1880 C 171.686 -1.5856 3.08992 0
M  V30 1881 C 170.64 -1.0925 4.13822 0
M  V30 1882 C 169.966 -2.31668 4.81907 0
M  V30 1883 C 171.266 -0.167702 5.22031 0
M  V30 1884 H 172.96 0.182181 2.98845 0
M  V30 1885 H 170.506 0.0890592 1.43724 0
M  V30 1886 H 172.459 -2.1742 3.6098 0
M  V30 1887 H 171.183 -2.24792 2.36931 0
M  V30 1888 H 169.842 -0.526494 3.628 0
M  V30 1889 H 169.49 -2.96386 4.06404 0
M  V30 1890 H 169.19 -1.9934 5.52754 0
M  V30 1891 H 170.714 -2.91189 5.36695 0
M  V30 1892 H 172.128 -0.664186 5.6944 0
M  V30 1893 H 170.525 0.0653265 6.00064 0
M  V30 1894 H 171.595 0.786347 4.78482 0
M  V30 1895 N 172.938 -1.57226 0.108567 0
M  V30 1896 C 173.848 -2.18292 -0.859401 0
M  V30 1897 C 174.864 -1.15612 -1.30038 0
M  V30 1898 O 176.04 -1.48039 -1.36552 0
M  V30 1899 C 173.105 -2.762 -2.09558 0
M  V30 1900 C 172.166 -3.93881 -1.70752 0
M  V30 1901 C 171.399 -4.49018 -2.88477 0
M  V30 1902 O 171.622 -4.03068 -4.036 0
M  V30 1903 O 170.556 -5.39852 -2.66164 0
M  V30 1904 H 174.382 -3.01441 -0.369769 0
M  V30 1905 H 171.967 -1.48945 -0.1165 0
M  V30 1906 H 173.849 -3.13156 -2.81978 0
M  V30 1907 H 172.524 -1.96089 -2.57548 0
M  V30 1908 H 171.431 -3.61713 -0.954714 0
M  V30 1909 H 172.764 -4.75396 -1.27513 0
M  V30 1910 N 174.416 0.165178 -1.56732 0
M  V30 1911 C 175.664 0.879068 -1.8198 0
M  V30 1912 C 175.985 1.82514 -0.686561 0
M  V30 1913 O 175.255 1.93694 0.293146 0
M  V30 1914 H 173.835 0.327608 -0.671329 0
M  V30 1915 H 176.497 0.163526 -1.94213 0
M  V30 1916 H 175.593 1.45228 -2.76252 0
M  V30 1917 N 175.894 1.51508 0.433938 0
M  V30 1918 C 176.842 1.73646 1.54757 0
M  V30 1919 C 177.836 0.602854 1.5831 0
M  V30 1920 O 179.042 0.784318 1.62014 0
M  V30 1921 H 175.417 0.548718 0.51421 0
M  V30 1922 H 177.388 2.66991 1.33261 0
M  V30 1923 C 176.137 1.88172 2.92381 0
M  V30 1924 H 175.46 2.74808 2.90381 0
M  V30 1925 H 176.9 2.07672 3.6966 0
M  V30 1926 C 175.359 0.64239 3.30719 0
M  V30 1927 O 175.889 -0.201362 4.01195 0
M  V30 1928 N 174.095 0.485489 2.86516 0
M  V30 1929 H 173.642 1.17318 2.29334 0
M  V30 1930 H 173.6 -0.342482 3.12529 0
M  V30 1931 N 177.372 -0.689602 1.41712 0
M  V30 1932 C 178.788 -1.00093 1.24312 0
M  V30 1933 C 178.988 -2.01036 0.136729 0
M  V30 1934 O 178.044 -2.47562 -0.496918 0
M  V30 1935 C 179.357 -1.51985 2.59463 0
M  V30 1936 C 180.905 -1.63838 2.66695 0
M  V30 1937 C 181.38 -2.1913 4.02177 0
M  V30 1938 N 182.871 -2.26483 4.04054 0
M  V30 1939 C 183.606 -2.70306 5.0569 0
M  V30 1940 N 183.102 -3.13691 6.17713 0
M  V30 1941 N 184.895 -2.69923 4.9305 0
M  V30 1942 H 177.046 -0.0210029 2.1239 0
M  V30 1943 H 179.309 -0.0718733 0.945272 0
M  V30 1944 H 179.015 -0.85269 3.41207 0
M  V30 1945 H 178.889 -2.50103 2.82362 0
M  V30 1946 H 181.276 -2.29664 1.85306 0
M  V30 1947 H 181.357 -0.642492 2.476 0
M  V30 1948 H 181.001 -1.53918 4.84016 0
M  V30 1949 H 180.931 -3.19482 4.18615 0
M  V30 1950 H 183.422 -1.95874 3.23174 0
M  V30 1951 H 183.735 -3.45773 6.9113 0
M  V30 1952 H 182.08 -3.11585 6.21241 0
M  V30 1953 H 185.271 -2.35382 4.04614 0
M  V30 1954 H 185.444 -3.03758 5.72394 0
M  V30 1955 N 178.85 -1.27639 -0.924453 0
M  V30 1956 C 180.096 -1.14336 -1.67497 0
M  V30 1957 C 180.429 0.309465 -1.91718 0
M  V30 1958 O 179.704 1.22608 -1.50989 0
M  V30 1959 C 179.987 -1.93096 -3.0395 0
M  V30 1960 C 179.84 -3.46381 -2.8695 0
M  V30 1961 C 181.159 -1.73798 -4.0433 0
M  V30 1962 H 178.278 -0.416728 -0.607871 0
M  V30 1963 H 180.92 -1.56832 -1.07256 0
M  V30 1964 H 179.07 -1.56982 -3.55372 0
M  V30 1965 H 180.742 -3.92343 -2.42621 0
M  V30 1966 H 178.985 -3.72557 -2.22225 0
M  V30 1967 H 179.656 -3.96735 -3.83804 0
M  V30 1968 H 182.132 -2.05293 -3.61931 0
M  V30 1969 H 181.008 -2.31294 -4.97789 0
M  V30 1970 H 181.269 -0.686725 -4.36734 0
M  V30 1971 N 180.328 1.1314 -1.09713 0
M  V30 1972 C 181.275 2.18642 -0.739196 0
M  V30 1973 C 182.245 1.63706 0.280978 0
M  V30 1974 O 183.43 1.90111 0.161946 0
M  V30 1975 C 180.57 3.44685 -0.169102 0
M  V30 1976 C 179.683 4.13711 -1.24367 0
M  V30 1977 C 178.818 5.27379 -0.636019 0
M  V30 1978 C 177.857 5.88259 -1.69169 0
M  V30 1979 N 176.994 6.93352 -1.10485 0
M  V30 1980 H 181.834 2.48607 -1.64312 0
M  V30 1981 H 179.371 1.22066 -0.820875 0
M  V30 1982 H 181.329 4.16815 0.179256 0
M  V30 1983 H 179.959 3.15161 0.698079 0
M  V30 1984 H 179.011 3.39835 -1.70927 0
M  V30 1985 H 180.323 4.55037 -2.04311 0
M  V30 1986 H 179.477 6.06238 -0.236677 0
M  V30 1987 H 178.216 4.8731 0.194928 0
M  V30 1988 H 177.221 5.08092 -2.10055 0
M  V30 1989 H 178.446 6.30399 -2.52536 0
M  V30 1990 H 176.392 6.55335 -0.295234 0
M  V30 1991 H 176.309 7.33236 -1.84121 0
M  V30 1992 H 177.577 7.76057 -0.73181 0
M  V30 1993 N 181.806 0.884767 1.30421 0
M  V30 1994 C 183.054 0.502112 1.95763 0
M  V30 1995 C 183.375 -0.951815 1.70192 0
M  V30 1996 O 182.645 -1.6692 1.0254 0
M  V30 1997 H 181.225 0.182694 0.724315 0
M  V30 1998 H 183.887 1.1278 1.58955 0
M  V30 1999 H 182.983 0.672188 3.04775 0
M  V30 2000 N 183.284 -1.43765 0.645699 0
M  V30 2001 C 184.695 -1.85193 0.236719 0
M  V30 2002 C 185.046 -1.54045 -1.21509 0
M  V30 2003 O 184.171 -0.985694 -1.92647 0
M  V30 2004 C 184.766 -3.36151 0.422845 0
M  V30 2005 C 183.325 -3.76338 0.0682492 0
M  V30 2006 C 182.472 -2.67538 0.729306 0
M  V30 2007 H 185.423 -1.34025 0.849883 0
M  V30 2008 H 185.444 -3.79032 -0.333904 0
M  V30 2009 H 184.956 -3.5879 1.47958 0
M  V30 2010 H 183.057 -3.59312 -0.986179 0
M  V30 2011 H 183.17 -4.76603 0.488469 0
M  V30 2012 H 181.534 -2.54176 0.163235 0
M  V30 2013 H 182.317 -2.93006 1.78892 0
M  V30 2014 N 184.763 -0.387143 -1.52771 0
M  V30 2015 C 185.673 0.456442 -2.30117 0
M  V30 2016 C 186.689 1.07342 -1.36944 0
M  V30 2017 O 187.865 1.07971 -1.70013 0
M  V30 2018 C 184.93 1.56957 -3.09136 0
M  V30 2019 C 183.991 0.977916 -4.18014 0
M  V30 2020 C 183.224 2.038 -4.93256 0
M  V30 2021 O 183.447 3.25271 -4.68567 0
M  V30 2022 O 182.381 1.6565 -5.78657 0
M  V30 2023 H 186.207 -0.17359 -3.03203 0
M  V30 2024 H 183.792 -0.150919 -1.48636 0
M  V30 2025 H 185.674 2.21628 -3.58412 0
M  V30 2026 H 184.349 2.18461 -2.38865 0
M  V30 2027 H 183.256 0.294525 -3.72939 0
M  V30 2028 H 184.589 0.407128 -4.90513 0
M  V30 2029 N 186.241 1.57166 -0.116904 0
M  V30 2030 C 187.188 2.15202 0.83408 0
M  V30 2031 C 188.158 1.07644 1.26499 0
M  V30 2032 O 189.343 1.35541 1.34288 0
M  V30 2033 C 186.483 2.75405 2.07957 0
M  V30 2034 C 185.596 3.97264 1.69721 0
M  V30 2035 C 184.731 4.45561 2.89221 0
M  V30 2036 C 183.77 5.59956 2.47215 0
M  V30 2037 N 182.907 6.03006 3.59622 0
M  V30 2038 H 187.747 2.96141 0.332335 0
M  V30 2039 H 185.284 1.46309 0.152349 0
M  V30 2040 H 187.242 3.08439 2.80929 0
M  V30 2041 H 185.872 1.97159 2.55594 0
M  V30 2042 H 184.924 3.70404 0.866316 0
M  V30 2043 H 186.236 4.80226 1.34849 0
M  V30 2044 H 185.39 4.80493 3.7042 0
M  V30 2045 H 184.129 3.61544 3.27318 0
M  V30 2046 H 183.134 5.2463 1.64448 0
M  V30 2047 H 184.359 6.45738 2.10238 0
M  V30 2048 H 182.305 5.21931 3.97396 0
M  V30 2049 H 182.222 6.80819 3.28667 0
M  V30 2050 H 183.49 6.42576 4.41267 0
M  V30 2051 N 187.719 -0.156864 1.56817 0
M  V30 2052 C 188.629 -1.2136 2.00771 0
M  V30 2053 C 189.645 -1.47598 0.921459 0
M  V30 2054 O 190.821 -1.59462 1.2302 0
M  V30 2055 C 187.886 -2.52943 2.37109 0
M  V30 2056 C 186.947 -2.34439 3.59634 0
M  V30 2057 C 186.18 -3.59748 3.94229 0
M  V30 2058 O 186.403 -4.65526 3.29609 0
M  V30 2059 O 185.337 -3.52998 4.8752 0
M  V30 2060 H 189.163 -0.870468 2.90958 0
M  V30 2061 H 186.748 -0.36484 1.44877 0
M  V30 2062 H 188.63 -3.30538 2.61386 0
M  V30 2063 H 187.305 -2.86806 1.5008 0
M  V30 2064 H 186.212 -1.54828 3.40557 0
M  V30 2065 H 187.545 -2.05496 4.4725 0
M  V30 2066 N 189.197 -1.51736 -0.425897 0
M  V30 2067 C 190.107 -1.76738 -1.54275 0
M  V30 2068 C 191.123 -0.65211 -1.61318 0
M  V30 2069 O 192.299 -0.935654 -1.78346 0
M  V30 2070 C 189.364 -1.89755 -2.90162 0
M  V30 2071 C 188.425 -3.13633 -2.93143 0
M  V30 2072 C 187.658 -3.2602 -4.22548 0
M  V30 2073 O 187.881 -2.44067 -5.15546 0
M  V30 2074 O 186.815 -4.19071 -4.32046 0
M  V30 2075 H 190.641 -2.71502 -1.36089 0
M  V30 2076 H 188.226 -1.36376 -0.610069 0
M  V30 2077 H 190.108 -2.00236 -3.70788 0
M  V30 2078 H 188.783 -0.981785 -3.08452 0
M  V30 2079 H 187.69 -3.08622 -2.11431 0
M  V30 2080 H 189.023 -4.04936 -2.798 0
M  V30 2081 N 190.675 0.682077 -1.42076 0
M  V30 2082 C 191.622 1.79578 -1.44984 0
M  V30 2083 C 192.592 1.6332 -0.302614 0
M  V30 2084 O 193.777 1.83978 -0.505633 0
M  V30 2085 C 190.917 3.1756 -1.35091 0
M  V30 2086 C 190.03 3.45156 -2.59791 0
M  V30 2087 C 189.165 4.72826 -2.42093 0
M  V30 2088 C 188.204 4.93433 -3.62202 0
M  V30 2089 N 187.341 6.12338 -3.43491 0
M  V30 2090 H 192.181 1.76427 -2.40161 0
M  V30 2091 H 189.718 0.861376 -1.19242 0
M  V30 2092 H 191.676 3.97287 -1.27354 0
M  V30 2093 H 190.306 3.19854 -0.435133 0
M  V30 2094 H 189.358 2.59736 -2.77923 0
M  V30 2095 H 190.67 3.5628 -3.49094 0
M  V30 2096 H 189.824 5.60631 -2.319 0
M  V30 2097 H 188.563 4.63973 -1.50268 0
M  V30 2098 H 187.568 4.04073 -3.72834 0
M  V30 2099 H 188.793 5.04136 -4.54998 0
M  V30 2100 H 186.739 6.04672 -2.54377 0
M  V30 2101 H 186.656 6.2429 -4.26377 0
M  V30 2102 H 187.924 7.02841 -3.37097 0
M  V30 2103 N 192.153 1.28127 0.917671 0
M  V30 2104 C 193.083 1.14248 2.03641 0
M  V30 2105 C 194.064 0.0412748 1.7005 0
M  V30 2106 O 195.249 0.217566 1.92977 0
M  V30 2107 C 192.379 0.799431 3.37974 0
M  V30 2108 C 191.333 1.85497 3.85713 0
M  V30 2109 C 190.659 1.36565 5.16966 0
M  V30 2110 C 191.959 3.26085 4.08002 0
M  V30 2111 H 193.653 2.07835 2.15511 0
M  V30 2112 H 191.199 1.00064 1.03553 0
M  V30 2113 H 193.152 0.689114 4.15727 0
M  V30 2114 H 191.876 -0.172145 3.26146 0
M  V30 2115 H 190.535 1.95437 3.10161 0
M  V30 2116 H 190.183 0.383253 5.01538 0
M  V30 2117 H 189.883 2.07143 5.49878 0
M  V30 2118 H 191.407 1.26848 5.97279 0
M  V30 2119 H 192.821 3.19089 4.76293 0
M  V30 2120 H 191.218 3.94462 4.52238 0
M  V30 2121 H 192.288 3.70394 3.12948 0
M  V30 2122 N 193.631 -1.12557 1.10312 0
M  V30 2123 C 195.047 -1.36036 0.834649 0
M  V30 2124 C 195.247 -1.93946 -0.546539 0
M  V30 2125 O 194.303 -2.16484 -1.29966 0
M  V30 2126 C 195.616 -2.30312 1.9333 0
M  V30 2127 C 197.164 -2.43906 1.9616 0
M  V30 2128 C 197.639 -3.41496 3.05195 0
M  V30 2129 N 199.13 -3.49053 3.04494 0
M  V30 2130 C 199.865 -4.24471 3.85502 0
M  V30 2131 N 199.361 -5.02966 4.76442 0
M  V30 2132 N 201.154 -4.19864 3.73725 0
M  V30 2133 H 193.305 -0.733246 1.99342 0
M  V30 2134 H 195.568 -0.385234 0.866198 0
M  V30 2135 H 195.274 -1.94933 2.92735 0
M  V30 2136 H 195.148 -3.30421 1.81939 0
M  V30 2137 H 197.535 -2.78567 0.973886 0
M  V30 2138 H 197.616 -1.4369 2.11629 0
M  V30 2139 H 197.26 -3.07565 4.04186 0
M  V30 2140 H 197.19 -4.41539 2.86968 0
M  V30 2141 H 199.681 -2.93053 2.38596 0
M  V30 2142 H 199.994 -5.57846 5.34815 0
M  V30 2143 H 198.339 -5.02167 4.80472 0
M  V30 2144 H 201.53 -3.57623 3.02032 0
M  V30 2145 H 201.703 -4.78386 4.37093 0
M  V30 2146 N 195.109 -0.891671 -1.2995 0
M  V30 2147 C 196.041 -0.320695 -2.26945 0
M  V30 2148 C 197.054 0.528497 -1.53983 0
M  V30 2149 O 198.243 0.346959 -1.75096 0
M  V30 2150 C 195.343 0.562066 -3.34207 0
M  V30 2151 C 194.516 -0.259576 -4.36629 0
M  V30 2152 C 193.575 0.554739 -5.23268 0
M  V30 2153 O 192.601 -0.0249311 -5.69195 0
M  V30 2154 N 193.803 1.8625 -5.4981 0
M  V30 2155 H 196.568 -1.15432 -2.76578 0
M  V30 2156 H 194.129 -0.755336 -1.432 0
M  V30 2157 H 196.121 1.11304 -3.89093 0
M  V30 2158 H 194.691 1.29637 -2.84452 0
M  V30 2159 H 193.911 -0.991986 -3.81514 0
M  V30 2160 H 195.199 -0.822564 -5.02107 0
M  V30 2161 H 194.597 2.35628 -5.14292 0
M  V30 2162 H 193.154 2.36078 -6.07545 0
M  V30 2163 N 196.587 1.43421 -0.653314 0
M  V30 2164 C 197.55 2.29182 0.0287951 0
M  V30 2165 C 198.55 1.42213 0.750465 0
M  V30 2166 O 199.74 1.63843 0.591701 0
M  V30 2167 C 196.872 3.24278 1.05151 0
M  V30 2168 H 198.065 2.90985 -0.725786 0
M  V30 2169 H 195.618 1.50702 -0.414545 0
M  V30 2170 H 196.353 2.6737 1.83532 0
M  V30 2171 H 196.138 3.88396 0.537687 0
M  V30 2172 H 197.628 3.88647 1.52786 0
M  V30 2173 N 198.065 0.39524 1.52563 0
M  V30 2174 C 199.311 -0.185318 2.01952 0
M  V30 2175 C 199.644 -1.45964 1.28095 0
M  V30 2176 O 198.919 -1.90689 0.38315 0
M  V30 2177 C 199.202 -0.447193 3.57312 0
M  V30 2178 C 199.055 0.842828 4.41833 0
M  V30 2179 C 200.374 -1.23529 4.22408 0
M  V30 2180 H 197.493 -0.0658788 0.73405 0
M  V30 2181 H 200.135 0.525975 1.82575 0
M  V30 2182 H 198.285 -1.05312 3.73954 0
M  V30 2183 H 199.957 1.4795 4.36931 0
M  V30 2184 H 198.2 1.45686 4.08605 0
M  V30 2185 H 198.871 0.614165 5.48573 0
M  V30 2186 H 201.347 -0.722445 4.0978 0
M  V30 2187 H 200.223 -1.38727 5.3108 0
M  V30 2188 H 200.484 -2.25213 3.80436 0
M  V30 2189 N 199.544 -1.57102 0.125237 0
M  V30 2190 C 200.491 -2.15641 -0.822655 0
M  V30 2191 C 201.461 -1.08313 -1.25927 0
M  V30 2192 O 202.646 -1.36251 -1.33567 0
M  V30 2193 C 199.786 -2.76504 -2.06494 0
M  V30 2194 C 198.899 -3.98158 -1.67612 0
M  V30 2195 C 198.034 -4.47088 -2.86854 0
M  V30 2196 C 197.073 -5.6126 -2.44242 0
M  V30 2197 N 196.21 -6.04905 -3.56419 0
M  V30 2198 H 201.05 -2.96313 -0.316625 0
M  V30 2199 H 198.587 -1.46388 -0.144588 0
M  V30 2200 H 200.545 -3.09925 -2.79289 0
M  V30 2201 H 199.175 -1.98512 -2.54545 0
M  V30 2202 H 198.227 -3.70858 -0.846661 0
M  V30 2203 H 199.539 -4.80934 -1.32301 0
M  V30 2204 H 198.693 -4.82451 -3.67867 0
M  V30 2205 H 197.432 -3.63275 -3.25396 0
M  V30 2206 H 196.437 -5.25495 -1.61663 0
M  V30 2207 H 197.662 -6.46843 -2.0681 0
M  V30 2208 H 195.608 -5.24032 -3.94623 0
M  V30 2209 H 195.525 -6.82552 -3.25051 0
M  V30 2210 H 196.793 -6.44907 -4.37853 0
M  V30 2211 N 201.022 0.148545 -1.56898 0
M  V30 2212 C 201.954 1.20852 -1.9475 0
M  V30 2213 C 202.967 1.39265 -0.843152 0
M  V30 2214 O 204.156 1.38864 -1.12156 0
M  V30 2215 C 201.256 2.57362 -2.20495 0
M  V30 2216 C 200.429 2.59947 -3.51776 0
M  V30 2217 C 199.488 3.77984 -3.6608 0
M  V30 2218 O 198.514 3.62929 -4.38487 0
M  V30 2219 N 199.716 4.95375 -3.02629 0
M  V30 2220 H 202.481 0.886804 -2.86279 0
M  V30 2221 H 200.042 0.338121 -1.5833 0
M  V30 2222 H 202.034 3.34833 -2.27307 0
M  V30 2223 H 200.604 2.81832 -1.35238 0
M  V30 2224 H 199.824 1.68403 -3.56419 0
M  V30 2225 H 201.112 2.58704 -4.38121 0
M  V30 2226 H 200.51 5.10509 -2.43715 0
M  V30 2227 H 199.067 5.70627 -3.15004 0
M  V30 2228 N 202.5 1.5196 0.417844 0
M  V30 2229 C 203.746 1.65836 1.16732 0
M  V30 2230 C 204.079 0.382881 1.90388 0
M  V30 2231 O 203.354 -0.618368 1.84408 0
M  V30 2232 C 203.637 2.87466 2.16876 0
M  V30 2233 C 203.49 4.25041 1.47174 0
M  V30 2234 C 204.809 3.04613 3.17646 0
M  V30 2235 H 201.928 0.603515 0.423011 0
M  V30 2236 H 204.57 1.84494 0.454105 0
M  V30 2237 H 202.72 2.71689 2.777 0
M  V30 2238 H 204.392 4.52527 0.895376 0
M  V30 2239 H 202.635 4.26843 0.773806 0
M  V30 2240 H 203.306 5.06176 2.20204 0
M  V30 2241 H 205.782 3.1923 2.66892 0
M  V30 2242 H 204.658 3.91247 3.8499 0
M  V30 2243 H 204.919 2.17541 3.84874 0
M  V30 2244 N 203.978 -0.674533 1.42435 0
M  V30 2245 C 204.908 -1.80009 1.48724 0
M  V30 2246 C 205.889 -1.6659 0.343793 0
M  V30 2247 O 207.074 -1.86007 0.558137 0
M  V30 2248 C 204.204 -3.18306 1.38919 0
M  V30 2249 C 203.158 -3.46461 2.51294 0
M  V30 2250 C 202.484 -4.84335 2.26547 0
M  V30 2251 C 203.784 -3.43328 3.93603 0
M  V30 2252 H 205.478 -1.75004 2.42928 0
M  V30 2253 H 203.024 -0.840533 1.16923 0
M  V30 2254 H 204.977 -3.9678 1.41927 0
M  V30 2255 H 203.701 -3.2399 0.412094 0
M  V30 2256 H 202.36 -2.70348 2.47604 0
M  V30 2257 H 202.008 -4.86669 1.2713 0
M  V30 2258 H 201.708 -5.04136 3.01861 0
M  V30 2259 H 203.232 -5.65094 2.31304 0
M  V30 2260 H 204.646 -4.11772 3.98894 0
M  V30 2261 H 203.043 -3.74664 4.68771 0
M  V30 2262 H 204.113 -2.41897 4.20255 0
M  V30 2263 N 205.456 -1.28612 -0.910864 0
M  V30 2264 C 206.403 -1.12786 -2.01365 0
M  V30 2265 C 207.373 -0.024201 -1.66082 0
M  V30 2266 O 208.558 -0.189667 -1.89855 0
M  V30 2267 C 205.698 -0.798743 -3.35729 0
M  V30 2268 C 204.811 -1.98173 -3.83864 0
M  V30 2269 C 203.946 -1.59298 -5.06752 0
M  V30 2270 C 202.985 -2.74245 -5.47226 0
M  V30 2271 N 202.122 -2.35842 -6.61304 0
M  V30 2272 H 206.962 -2.07142 -2.14234 0
M  V30 2273 H 204.499 -1.03093 -1.0493 0
M  V30 2274 H 206.457 -0.588662 -4.13026 0
M  V30 2275 H 205.087 0.10789 -3.2262 0
M  V30 2276 H 204.139 -2.30386 -3.02699 0
M  V30 2277 H 205.451 -2.84343 -4.09818 0
M  V30 2278 H 204.605 -1.34513 -5.916 0
M  V30 2279 H 203.344 -0.702618 -4.82612 0
M  V30 2280 H 202.349 -2.99725 -4.60918 0
M  V30 2281 H 203.574 -3.63928 -5.73353 0
M  V30 2282 H 201.52 -1.49279 -6.38789 0
M  V30 2283 H 201.437 -3.15546 -6.86998 0
M  V30 2284 H 202.705 -2.14348 -7.4945 0
M  V30 2285 N 206.934 1.1197 -1.10907 0
M  V30 2286 C 208.174 1.85224 -0.864378 0
M  V30 2287 C 208.538 1.82411 0.599178 0
M  V30 2288 O 209.739 2.51057 0.960416 0
M  V30 2289 C 208.01 3.2868 -1.40371 0
M  V30 2290 S 209.569 4.1925 -1.29518 0
M  V30 2291 H 206.387 0.63878 -0.312219 0
M  V30 2292 H 208.989 1.3485 -1.41548 0
M  V30 2293 H 207.693 3.28289 -2.46281 0
M  V30 2294 H 207.224 3.84121 -0.849402 0
M  V30 2295 H 209.239 4.95539 -0.256059 0
M  V30 2296 N 208.412 0.89855 1.29475 0
M  V30 2297 C 209.689 0.443416 1.90508 0
M  V30 2298 C 210.069 -1.07685 1.81569 0
M  V30 2299 O 209.417 -1.9182 1.24166 0
M  V30 2300 C 209.627 0.956708 3.35631 0
M  V30 2301 C 210.975 0.999728 4.12663 0
M  V30 2302 O 211.999 0.904299 3.4453 0
M  V30 2303 O 210.858 1.14289 5.34416 0
M  V30 2304 H 207.952 0.138025 0.815401 0
M  V30 2305 H 210.498 0.98834 1.37949 0
M  V30 2306 H 209.27 2.00067 3.36287 0
M  V30 2307 H 208.893 0.391728 3.95666 0
M  V30 2308 N 209.89 -1.43072 0.660911 0
M  V30 2309 C 211.136 -2.0202 0.177708 0
M  V30 2310 C 211.469 -1.52066 -1.20787 0
M  V30 2311 O 210.744 -0.716987 -1.80802 0
M  V30 2312 C 211.027 -3.59561 0.197019 0
M  V30 2313 C 210.88 -4.19727 1.61706 0
M  V30 2314 C 212.199 -4.37664 -0.462396 0
M  V30 2315 H 209.318 -0.734034 0.0660494 0
M  V30 2316 H 211.96 -1.70272 0.843058 0
M  V30 2317 H 210.11 -3.86739 -0.369527 0
M  V30 2318 H 211.782 -4.03553 2.23479 0
M  V30 2319 H 210.025 -3.76084 2.16201 0
M  V30 2320 H 210.696 -5.28834 1.58237 0
M  V30 2321 H 213.172 -4.16095 0.0197215 0
M  V30 2322 H 212.048 -5.47305 -0.418188 0
M  V30 2323 H 212.309 -4.14493 -1.53778 0
M  V30 2324 N 211.368 -0.403325 -1.52352 0
M  V30 2325 C 212.596 0.174012 -2.06167 0
M  V30 2326 C 213.011 1.39347 -1.27388 0
M  V30 2327 O 212.368 1.79597 -0.324201 0
M  V30 2328 C 212.419 0.530223 -3.5759 0
M  V30 2329 O 212.14 -0.640806 -4.33388 0
M  V30 2330 C 213.641 1.16192 -4.27802 0
M  V30 2331 H 210.861 0.0229464 -0.670608 0
M  V30 2332 H 213.405 -0.572604 -1.9632 0
M  V30 2333 H 211.56 1.22673 -3.67464 0
M  V30 2334 H 211.974 -0.344851 -5.23365 0
M  V30 2335 H 213.448 1.36141 -5.34948 0
M  V30 2336 H 213.925 2.13335 -3.83907 0
M  V30 2337 H 214.531 0.505775 -4.22282 0
M  V30 2338 N 212.846 1.57033 -0.133567 0
M  V30 2339 C 213.778 2.13176 0.841944 0
M  V30 2340 C 214.791 1.07794 1.22001 0
M  V30 2341 O 215.98 1.35117 1.16643 0
M  V30 2342 C 213.08 2.62847 2.13926 0
M  V30 2343 C 212.253 3.92486 1.93064 0
M  V30 2344 C 211.312 4.27605 3.0666 0
M  V30 2345 O 210.338 4.96168 2.78937 0
M  V30 2346 N 211.54 3.861 4.33483 0
M  V30 2347 H 214.305 2.97503 0.362192 0
M  V30 2348 H 211.866 1.61821 0.05042 0
M  V30 2349 H 213.858 2.83363 2.88942 0
M  V30 2350 H 212.428 1.83319 2.53205 0
M  V30 2351 H 211.648 3.80732 1.02159 0
M  V30 2352 H 212.936 4.77225 1.76447 0
M  V30 2353 H 212.334 3.30828 4.58878 0
M  V30 2354 H 210.891 4.11694 5.05323 0
M  V30 2355 N 214.325 -0.140222 1.56975 0
M  V30 2356 C 215.55 -0.870414 1.88251 0
M  V30 2357 C 215.975 -1.73637 0.723312 0
M  V30 2358 O 215.333 -1.78329 -0.32689 0
M  V30 2359 C 215.381 -1.69737 3.18154 0
M  V30 2360 O 214.485 -2.80229 3.02565 0
M  V30 2361 H 213.826 -0.242025 0.61832 0
M  V30 2362 H 216.356 -0.128999 2.04193 0
M  V30 2363 H 216.366 -2.09099 3.50345 0
M  V30 2364 H 215.041 -1.06152 4.02125 0
M  V30 2365 H 213.618 -2.44224 2.81796 0
M  V30 2366 N 215.803 -1.52179 -0.40978 0
M  V30 2367 C 216.735 -1.71703 -1.51825 0
M  V30 2368 C 217.748 -0.597445 -1.51441 0
M  V30 2369 O 218.937 -0.872582 -1.55719 0
M  V30 2370 C 216.037 -1.74171 -2.90719 0
M  V30 2371 C 215.21 -3.03156 -3.15302 0
M  V30 2372 C 214.269 -2.97445 -4.34065 0
M  V30 2373 O 213.295 -3.71352 -4.31377 0
M  V30 2374 N 214.497 -2.15191 -5.39141 0
M  V30 2375 H 217.262 -2.67334 -1.35472 0
M  V30 2376 H 214.823 -1.50409 -0.599069 0
M  V30 2377 H 216.815 -1.67884 -3.68235 0
M  V30 2378 H 215.385 -0.860166 -3.00533 0
M  V30 2379 H 214.605 -3.23097 -2.25836 0
M  V30 2380 H 215.893 -3.88484 -3.28569 0
M  V30 2381 H 215.291 -1.54573 -5.44173 0
M  V30 2382 H 213.848 -2.1476 -6.15403 0
M  V30 2383 N 217.281 0.66697 -1.42791 0
M  V30 2384 C 218.692 1.2478 -1.38877 0
M  V30 2385 C 219.043 1.96012 -0.0859426 0
M  V30 2386 O 218.168 2.00463 0.815081 0
M  V30 2387 C 218.763 2.26938 -2.51564 0
M  V30 2388 C 217.322 2.80529 -2.50959 0
M  V30 2389 C 216.469 1.54965 -2.29959 0
M  V30 2390 H 219.42 0.459853 -1.51892 0
M  V30 2391 H 219.441 3.08834 -2.22265 0
M  V30 2392 H 218.953 1.75065 -3.46372 0
M  V30 2393 H 217.054 3.36502 -1.59991 0
M  V30 2394 H 217.167 3.29012 -3.48265 0
M  V30 2395 H 215.531 1.81817 -1.78366 0
M  V30 2396 H 216.314 1.05047 -3.26833 0
M  V30 2397 N 218.759 1.29093 0.90403 0
M  V30 2398 C 219.689 1.16401 2.02418 0
M  V30 2399 C 220.67 0.0593085 1.69997 0
M  V30 2400 O 221.855 0.238021 1.92736 0
M  V30 2401 C 218.985 0.835233 3.37107 0
M  V30 2402 C 217.939 1.89578 3.83724 0
M  V30 2403 C 217.265 1.42041 5.15489 0
M  V30 2404 C 218.565 3.30394 4.04521 0
M  V30 2405 H 220.259 2.10109 2.13295 0
M  V30 2406 H 217.805 1.01157 1.02486 0
M  V30 2407 H 219.758 0.733169 4.14973 0
M  V30 2408 H 218.482 -0.137543 3.2631 0
M  V30 2409 H 217.141 1.98715 3.08071 0
M  V30 2410 H 216.789 0.436426 5.01103 0
M  V30 2411 H 216.489 2.12964 5.4765 0
M  V30 2412 H 218.013 1.33176 5.959 0
M  V30 2413 H 219.427 3.24123 4.72882 0
M  V30 2414 H 217.824 3.99237 4.48029 0
M  V30 2415 H 218.894 3.73692 3.09002 0
M  V30 2416 N 220.237 -1.11381 1.11499 0
M  V30 2417 C 221.485 -1.8277 0.862524 0
M  V30 2418 C 221.806 -1.85097 -0.613534 0
M  V30 2419 O 221.076 -1.32198 -1.4457 0
M  V30 2420 H 219.656 -0.676823 0.316101 0
M  V30 2421 H 222.318 -1.34816 1.4075 0
M  V30 2422 H 221.414 -2.86614 1.23527 0
M  V30 2423 N 221.715 -0.905404 -1.28997 0
M  V30 2424 C 222.678 -0.392253 -2.25819 0
M  V30 2425 C 223.678 0.476753 -1.5357 0
M  V30 2426 O 224.868 0.280994 -1.71919 0
M  V30 2427 C 222 0.438588 -3.38067 0
M  V30 2428 H 223.193 -1.24743 -2.72725 0
M  V30 2429 H 220.746 -0.684051 -1.40536 0
M  V30 2430 H 221.481 1.31352 -2.96508 0
M  V30 2431 H 221.266 -0.184167 -3.91667 0
M  V30 2432 H 222.756 0.78873 -4.10084 0
M  V30 2433 N 223.193 1.4272 -0.668489 0
M  V30 2434 C 224.439 2.01923 -0.188419 0
M  V30 2435 C 224.772 1.52704 1.19979 0
M  V30 2436 O 224.047 0.726566 1.8042 0
M  V30 2437 C 224.33 3.59451 -0.216085 0
M  V30 2438 C 224.183 4.18864 -1.6393 0
M  V30 2439 C 225.502 4.37903 0.439179 0
M  V30 2440 H 222.621 0.733674 -0.0699412 0
M  V30 2441 H 225.263 1.69822 -0.852076 0
M  V30 2442 H 223.413 3.86929 0.349012 0
M  V30 2443 H 225.085 4.02362 -2.25616 0
M  V30 2444 H 223.328 3.74933 -2.18193 0
M  V30 2445 H 223.999 5.27987 -1.61039 0
M  V30 2446 H 226.475 4.16079 -0.0417878 0
M  V30 2447 H 225.351 5.47519 0.389157 0
M  V30 2448 H 225.612 4.15303 1.51577 0
M  V30 2449 N 224.671 0.411399 1.52136 0
M  V30 2450 C 226.082 -0.0576826 1.86611 0
M  V30 2451 C 226.433 -1.44238 1.33003 0
M  V30 2452 O 225.558 -2.05759 0.670228 0
M  V30 2453 C 226.153 -0.111448 3.38617 0
M  V30 2454 C 224.712 -0.52487 3.72723 0
M  V30 2455 C 223.859 0.299176 2.75681 0
M  V30 2456 H 226.81 0.628368 1.4573 0
M  V30 2457 H 226.831 -0.926252 3.69054 0
M  V30 2458 H 226.343 0.896488 3.77604 0
M  V30 2459 H 224.444 -1.53936 3.39315 0
M  V30 2460 H 224.557 -0.267681 4.78352 0
M  V30 2461 H 222.921 -0.238814 2.53578 0
M  V30 2462 H 223.704 1.3055 3.17508 0
M  V30 2463 N 226.149 -1.5696 0.141893 0
M  V30 2464 C 227.079 -2.19516 -0.795936 0
M  V30 2465 C 228.06 -1.14187 -1.26077 0
M  V30 2466 O 229.245 -1.42511 -1.31925 0
M  V30 2467 C 226.375 -2.81272 -2.03723 0
M  V30 2468 C 225.329 -3.92384 -1.70936 0
M  V30 2469 C 224.655 -4.41052 -3.02287 0
M  V30 2470 C 225.955 -5.13403 -0.959954 0
M  V30 2471 H 227.649 -2.98138 -0.274596 0
M  V30 2472 H 225.195 -1.43406 -0.130636 0
M  V30 2473 H 227.148 -3.237 -2.69808 0
M  V30 2474 H 225.872 -1.99973 -2.58221 0
M  V30 2475 H 224.531 -3.50566 -1.07232 0
M  V30 2476 H 224.179 -3.56582 -3.54765 0
M  V30 2477 H 223.879 -5.15993 -2.81114 0
M  V30 2478 H 225.403 -4.86146 -3.69451 0
M  V30 2479 H 226.817 -5.52706 -1.52279 0
M  V30 2480 H 225.214 -5.94073 -0.848357 0
M  V30 2481 H 226.284 -4.84875 0.0492434 0
M  V30 2482 N 227.627 0.131896 -1.57047 0
M  V30 2483 C 229.038 0.690407 -1.73465 0
M  V30 2484 C 229.389 1.8094 -0.758629 0
M  V30 2485 O 228.514 2.16282 0.0713813 0
M  V30 2486 C 229.109 1.25916 -3.14532 0
M  V30 2487 C 227.668 1.76409 -3.32501 0
M  V30 2488 C 226.815 0.658579 -2.69366 0
M  V30 2489 H 229.766 -0.0939144 -1.58422 0
M  V30 2490 H 229.787 2.12892 -3.15369 0
M  V30 2491 H 229.299 0.444515 -3.85546 0
M  V30 2492 H 227.4 2.60391 -2.66509 0
M  V30 2493 H 227.513 1.88241 -4.4057 0
M  V30 2494 H 225.877 1.08899 -2.30246 0
M  V30 2495 H 226.66 -0.14487 -3.42994 0
M  V30 2496 N 229.106 1.52395 0.401703 0
M  V30 2497 C 230.517 1.58899 0.980202 0
M  V30 2498 C 230.868 0.434032 1.91339 0
M  V30 2499 O 229.993 -0.444619 2.11783 0
M  V30 2500 C 230.588 2.87994 1.78451 0
M  V30 2501 C 229.147 2.96953 2.31292 0
M  V30 2502 C 228.294 2.53903 1.11483 0
M  V30 2503 H 231.245 1.57657 0.18168 0
M  V30 2504 H 231.266 2.73765 2.64259 0
M  V30 2505 H 230.778 3.72035 1.10506 0
M  V30 2506 H 228.879 2.17422 3.02586 0
M  V30 2507 H 228.992 4.01344 2.61649 0
M  V30 2508 H 227.356 2.07925 1.47104 0
M  V30 2509 H 228.139 3.40326 0.450928 0
M  V30 2510 N 230.584 -0.659388 1.43143 0
M  V30 2511 C 231.547 -1.75432 1.47501 0
M  V30 2512 C 232.547 -1.56707 0.360512 0
M  V30 2513 O 233.737 -1.62717 0.622002 0
M  V30 2514 C 230.869 -3.14239 1.32162 0
M  V30 2515 H 232.062 -1.7295 2.45006 0
M  V30 2516 H 229.615 -0.870469 1.29817 0
M  V30 2517 H 230.35 -3.22336 0.356401 0
M  V30 2518 H 230.135 -3.29235 2.12948 0
M  V30 2519 H 231.625 -3.94094 1.3813 0
M  V30 2520 N 232.062 -1.29571 -0.897171 0
M  V30 2521 C 233.339 -1.08365 -1.62839 0
M  V30 2522 C 233.719 0.371331 -2.07808 0
M  V30 2523 O 233.067 1.3606 -1.83576 0
M  V30 2524 C 233.277 -2.0735 -2.80726 0
M  V30 2525 C 234.625 -2.38406 -3.51351 0
M  V30 2526 O 235.649 -2.05564 -2.90898 0
M  V30 2527 O 234.508 -2.9453 -4.60341 0
M  V30 2528 H 231.602 -0.415345 -0.715134 0
M  V30 2529 H 234.148 -1.40952 -0.945018 0
M  V30 2530 H 232.92 -3.05339 -2.44711 0
M  V30 2531 H 232.543 -1.75507 -3.56767 0
M  V30 2532 N 233.54 1.10788 -1.12088 0
M  V30 2533 C 234.78 1.84297 -0.883974 0
M  V30 2534 C 235.144 1.83036 0.579797 0
M  V30 2535 O 236.345 2.52061 0.933734 0
M  V30 2536 C 234.616 3.27173 -1.43849 0
M  V30 2537 S 236.175 4.17853 -1.33957 0
M  V30 2538 H 232.993 0.635433 -0.318977 0
M  V30 2539 H 235.595 1.33341 -1.4297 0
M  V30 2540 H 234.299 3.25658 -2.49749 0
M  V30 2541 H 233.83 3.83198 -0.890096 0
M  V30 2542 H 235.845 4.95239 -0.308603 0
M  V30 2543 N 235.018 0.912232 1.28515 0
M  V30 2544 C 236.264 0.545405 1.95328 0
M  V30 2545 C 236.597 -0.908313 1.71649 0
M  V30 2546 O 235.872 -1.64575 1.03659 0
M  V30 2547 C 236.155 0.853483 3.4984 0
M  V30 2548 C 236.008 2.35982 3.82926 0
M  V30 2549 C 237.327 0.348589 4.38717 0
M  V30 2550 H 234.446 0.199626 0.709449 0
M  V30 2551 H 237.088 1.1412 1.5191 0
M  V30 2552 H 235.238 0.34643 3.86952 0
M  V30 2553 H 236.91 2.93738 3.55691 0
M  V30 2554 H 235.153 2.81543 3.30024 0
M  V30 2555 H 235.824 2.52593 4.90816 0
M  V30 2556 H 238.3 0.78294 4.08668 0
M  V30 2557 H 237.176 0.593242 5.45685 0
M  V30 2558 H 237.437 -0.751049 4.35674 0
M  V30 2559 N 236.496 -1.42363 0.676048 0
M  V30 2560 C 237.426 -2.33497 0.0124832 0
M  V30 2561 C 238.407 -1.50748 -0.787981 0
M  V30 2562 O 239.592 -1.79346 -0.744884 0
M  V30 2563 C 236.722 -3.34377 -0.938582 0
M  V30 2564 C 235.676 -4.27289 -0.246622 0
M  V30 2565 C 235.002 -5.18386 -1.31071 0
M  V30 2566 C 236.302 -5.14916 0.875125 0
M  V30 2567 H 237.996 -2.89233 0.773593 0
M  V30 2568 H 235.542 -1.39073 0.37346 0
M  V30 2569 H 237.495 -3.97044 -1.41188 0
M  V30 2570 H 236.219 -2.76947 -1.73113 0
M  V30 2571 H 234.878 -3.66018 0.206456 0
M  V30 2572 H 234.526 -4.57282 -2.09528 0
M  V30 2573 H 234.226 -5.81378 -0.852839 0
M  V30 2574 H 235.75 -5.83929 -1.78492 0
M  V30 2575 H 237.164 -5.71262 0.482983 0
M  V30 2576 H 235.561 -5.86747 1.25887 0
M  V30 2577 H 236.631 -4.53242 1.72335 0
M  V30 2578 N 237.974 -0.419461 -1.51915 0
M  V30 2579 C 239.199 0.154572 -2.06823 0
M  V30 2580 C 239.624 1.3722 -1.28656 0
M  V30 2581 O 238.982 1.78461 -0.319583 0
M  V30 2582 C 239.03 0.473172 -3.57482 0
M  V30 2583 O 238.134 1.56255 -3.81652 0
M  V30 2584 H 237.475 0.0096924 -0.663929 0
M  V30 2585 H 240.005 -0.595642 -1.95738 0
M  V30 2586 H 240.015 0.728825 -4.01438 0
M  V30 2587 H 238.69 -0.416873 -4.13805 0
M  V30 2588 H 237.267 1.29825 -3.49571 0
M  V30 2589 N 239.452 1.56882 -0.150215 0
M  V30 2590 C 240.68 2.00593 0.506948 0
M  V30 2591 C 241.095 1.03033 1.58208 0
M  V30 2592 O 240.452 0.0278396 1.82479 0
M  V30 2593 C 240.503 3.44209 1.10465 0
M  V30 2594 O 240.224 4.3804 0.0724636 0
M  V30 2595 C 241.725 4.03214 1.84211 0
M  V30 2596 H 238.945 0.65795 0.13169 0
M  V30 2597 H 241.489 2.03018 -0.245743 0
M  V30 2598 H 239.644 3.42625 1.80795 0
M  V30 2599 H 240.058 5.22007 0.510793 0
M  V30 2600 H 241.532 5.0569 2.21318 0
M  V30 2601 H 242.009 3.44107 2.72923 0
M  V30 2602 H 242.615 4.08437 1.18572 0
M  V30 2603 N 240.93 -0.123565 1.57115 0
M  V30 2604 C 241.86 -1.15309 2.03042 0
M  V30 2605 C 242.841 -1.43454 0.914061 0
M  V30 2606 O 244.026 -1.53973 1.18347 0
M  V30 2607 C 241.156 -2.48043 2.43089 0
M  V30 2608 C 240.11 -2.3437 3.58127 0
M  V30 2609 C 239.436 -3.72026 3.84059 0
M  V30 2610 C 240.736 -1.80804 4.90007 0
M  V30 2611 H 242.43 -0.771102 2.893 0
M  V30 2612 H 239.976 -0.369479 1.39179 0
M  V30 2613 H 241.929 -3.20311 2.73823 0
M  V30 2614 H 240.653 -2.88122 1.53796 0
M  V30 2615 H 239.312 -1.64551 3.27595 0
M  V30 2616 H 238.96 -4.09582 2.91979 0
M  V30 2617 H 238.66 -3.63732 4.6149 0
M  V30 2618 H 240.184 -4.45806 4.1724 0
M  V30 2619 H 241.598 -2.42886 5.19307 0
M  V30 2620 H 239.995 -1.83343 5.71407 0
M  V30 2621 H 241.065 -0.76528 4.78823 0
M  V30 2622 N 242.408 -1.52605 -0.393616 0
M  V30 2623 C 243.648 -1.6911 -1.1481 0
M  V30 2624 C 244.012 -0.41969 -1.87357 0
M  V30 2625 O 245.213 -0.461034 -2.64817 0
M  V30 2626 C 243.484 -2.88909 -2.10395 0
M  V30 2627 S 245.043 -3.25977 -2.93742 0
M  V30 2628 H 241.861 -0.595337 -0.38871 0
M  V30 2629 H 244.463 -1.90641 -0.433178 0
M  V30 2630 H 243.167 -3.79672 -1.55812 0
M  V30 2631 H 242.698 -2.69698 -2.86403 0
M  V30 2632 H 244.713 -2.75806 -4.12487 0
M  V30 2633 N 243.887 0.651787 -1.4349 0
M  V30 2634 C 244.817 1.77621 -1.51569 0
M  V30 2635 C 245.798 1.66022 -0.370253 0
M  V30 2636 O 246.983 1.85095 -0.587658 0
M  V30 2637 C 244.113 3.16056 -1.43966 0
M  V30 2638 C 243.067 3.4242 -2.56774 0
M  V30 2639 C 242.393 4.8067 -2.34223 0
M  V30 2640 C 243.693 3.37023 -3.99015 0
M  V30 2641 H 245.387 1.71117 -2.45681 0
M  V30 2642 H 242.933 0.821825 -1.18246 0
M  V30 2643 H 244.886 3.94472 -1.48221 0
M  V30 2644 H 243.61 3.23293 -0.463586 0
M  V30 2645 H 242.269 2.66375 -2.51873 0
M  V30 2646 H 241.917 4.84585 -1.34856 0
M  V30 2647 H 241.617 4.9927 -3.09844 0
M  V30 2648 H 243.141 5.61342 -2.40265 0
M  V30 2649 H 244.555 4.05374 -4.05395 0
M  V30 2650 H 242.952 3.67159 -4.74673 0
M  V30 2651 H 244.022 2.3518 -4.2405 0
M  V30 2652 N 245.365 1.30045 0.890287 0
M  V30 2653 C 246.642 1.09227 1.62262 0
M  V30 2654 C 247.022 -0.360305 2.08002 0
M  V30 2655 O 246.37 -1.35084 1.84295 0
M  V30 2656 C 246.58 2.08835 2.79623 0
M  V30 2657 C 247.928 2.40266 3.50082 0
M  V30 2658 O 248.952 2.07104 2.89804 0
M  V30 2659 O 247.811 2.96967 4.58773 0
M  V30 2660 H 244.905 0.419132 0.712922 0
M  V30 2661 H 247.451 1.41451 0.937529 0
M  V30 2662 H 246.223 3.06633 2.43089 0
M  V30 2663 H 245.846 1.77397 3.55832 0
M  V30 2664 N 246.843 -1.10192 1.12674 0
M  V30 2665 C 247.806 -2.14786 0.799979 0
M  V30 2666 C 248.806 -1.59711 -0.18685 0
M  V30 2667 O 249.996 -1.74156 0.0392558 0
M  V30 2668 C 247.128 -3.40374 0.189228 0
M  V30 2669 H 248.321 -2.45203 1.72671 0
M  V30 2670 H 245.874 -1.25597 0.930326 0
M  V30 2671 H 246.609 -3.15577 -0.747107 0
M  V30 2672 H 246.394 -3.81637 0.899766 0
M  V30 2673 H 247.884 -4.17594 -0.0228143 0
M  V30 2674 N 248.321 -0.919034 -1.28029 0
M  V30 2675 C 249.284 -0.416182 -2.2539 0
M  V30 2676 C 250.284 0.460438 -1.54067 0
M  V30 2677 O 251.474 0.262744 -1.72207 0
M  V30 2678 C 248.606 0.402707 -3.38513 0
M  V30 2679 H 249.799 -1.27629 -2.71387 0
M  V30 2680 H 247.352 -0.698919 -1.39803 0
M  V30 2681 H 248.087 1.282 -2.97885 0
M  V30 2682 H 247.872 -0.225698 -3.9145 0
M  V30 2683 H 249.362 0.745191 -4.10897 0
M  V30 2684 N 249.799 1.42003 -0.683588 0
M  V30 2685 C 251.039 2.03282 -0.213513 0
M  V30 2686 C 251.403 1.52924 1.16097 0
M  V30 2687 O 252.604 2.06048 1.7262 0
M  V30 2688 C 250.875 3.56483 -0.255856 0
M  V30 2689 S 252.434 4.3857 0.14193 0
M  V30 2690 H 249.252 0.705659 -0.0869853 0
M  V30 2691 H 251.854 1.73619 -0.8987 0
M  V30 2692 H 250.558 3.90631 -1.25841 0
M  V30 2693 H 250.089 3.90831 0.448875 0
M  V30 2694 H 252.104 4.76828 1.37295 0
M  V30 2695 N 251.277 0.427512 1.51691 0
M  V30 2696 C 252.688 -0.0378867 1.86662 0
M  V30 2697 C 253.039 -1.42819 1.34525 0
M  V30 2698 O 252.164 -2.05037 0.692014 0
M  V30 2699 C 252.759 -0.0755266 3.38716 0
M  V30 2700 C 251.318 -0.485309 3.73258 0
M  V30 2701 C 250.465 0.328399 2.75349 0
M  V30 2702 H 253.416 0.64379 1.45055 0
M  V30 2703 H 253.437 -0.887056 3.70016 0
M  V30 2704 H 252.949 0.936487 3.76632 0
M  V30 2705 H 251.05 -1.50329 3.40928 0
M  V30 2706 H 251.163 -0.21693 4.78609 0
M  V30 2707 H 249.527 -0.211905 2.53817 0
M  V30 2708 H 250.31 1.3391 3.16106 0
M  V30 2709 N 252.755 -1.56801 0.158532 0
M  V30 2710 C 254.032 -1.88131 -0.535357 0
M  V30 2711 C 254.412 -1.06638 -1.82186 0
M  V30 2712 O 253.76 -0.156533 -2.27963 0
M  V30 2713 C 253.97 -3.39949 -0.789653 0
M  V30 2714 C 255.318 -4.09416 -1.12533 0
M  V30 2715 O 256.342 -3.45194 -0.878622 0
M  V30 2716 O 255.201 -5.22855 -1.59014 0
M  V30 2717 H 252.295 -0.780143 -0.27442 0
M  V30 2718 H 254.841 -1.68564 0.19601 0
M  V30 2719 H 253.613 -3.91115 0.120353 0
M  V30 2720 H 253.236 -3.65084 -1.57479 0
M  V30 2721 N 254.233 0.115231 -1.57178 0
M  V30 2722 C 255.163 1.1423 -2.03651 0
M  V30 2723 C 256.144 1.42967 -0.921655 0
M  V30 2724 O 257.329 1.53343 -1.19162 0
M  V30 2725 C 254.459 2.4675 -2.44401 0
M  V30 2726 C 253.413 2.32467 -3.59365 0
M  V30 2727 C 252.739 3.69984 -3.86026 0
M  V30 2728 C 254.039 1.78203 -4.90959 0
M  V30 2729 H 255.733 0.755749 -2.89705 0
M  V30 2730 H 253.279 0.362093 -1.39373 0
M  V30 2731 H 255.232 3.18854 -2.75517 0
M  V30 2732 H 253.956 2.87302 -1.55322 0
M  V30 2733 H 252.615 1.62811 -3.28463 0
M  V30 2734 H 252.263 4.08028 -2.94147 0
M  V30 2735 H 251.963 3.61279 -4.63412 0
M  V30 2736 H 253.487 4.43587 -4.19599 0
M  V30 2737 H 254.901 2.40128 -5.20587 0
M  V30 2738 H 253.298 1.8031 -5.72371 0
M  V30 2739 H 254.368 0.739876 -4.79222 0
M  V30 2740 N 255.711 1.52812 0.385517 0
M  V30 2741 C 257.122 1.5993 0.963293 0
M  V30 2742 C 257.473 0.454302 1.90868 0
M  V30 2743 O 256.598 -0.422132 2.12243 0
M  V30 2744 C 257.193 2.89871 1.75387 0
M  V30 2745 C 255.752 2.99389 2.28129 0
M  V30 2746 C 254.899 2.55071 1.08783 0
M  V30 2747 H 257.85 1.5784 0.164948 0
M  V30 2748 H 257.871 2.76553 2.61341 0
M  V30 2749 H 257.383 3.73186 1.06554 0
M  V30 2750 H 255.484 2.20619 3.00263 0
M  V30 2751 H 255.597 4.04096 2.57377 0
M  V30 2752 H 253.961 2.09473 1.4489 0
M  V30 2753 H 254.744 3.40785 0.414807 0
M  V30 2754 N 257.189 -0.644168 1.43834 0
M  V30 2755 C 258.417 -1.43147 1.49387 0
M  V30 2756 C 258.832 -1.88452 0.114583 0
M  V30 2757 O 258.189 -1.60047 -0.876989 0
M  V30 2758 C 258.24 -2.66046 2.44748 0
M  V30 2759 O 257.961 -2.22633 3.77314 0
M  V30 2760 C 259.462 -3.59311 2.59635 0
M  V30 2761 H 256.682 -0.439447 0.507077 0
M  V30 2762 H 259.226 -0.78895 1.88669 0
M  V30 2763 H 257.381 -3.26418 2.08638 0
M  V30 2764 H 257.795 -3.02216 4.28679 0
M  V30 2765 H 259.269 -4.42187 3.30416 0
M  V30 2766 H 259.746 -4.07259 1.64427 0
M  V30 2767 H 260.352 -3.04816 2.96593 0
M  V30 2768 N 258.668 -1.30515 -0.883378 0
M  V30 2769 C 259.898 -1.22182 -1.66599 0
M  V30 2770 C 260.306 0.217507 -1.87946 0
M  V30 2771 O 259.649 1.1554 -1.42815 0
M  V30 2772 C 259.711 -1.88146 -3.06335 0
M  V30 2773 C 259.375 -3.37476 -3.08154 0
M  V30 2774 C 260.372 -4.33443 -2.87094 0
M  V30 2775 C 258.057 -3.7895 -3.29701 0
M  V30 2776 C 260.051 -5.68858 -2.8754 0
M  V30 2777 C 257.738 -5.14482 -3.29776 0
M  V30 2778 C 258.736 -6.09246 -3.0872 0
M  V30 2779 O 258.424 -7.42302 -3.08615 0
M  V30 2780 H 258.156 -0.423898 -0.52658 0
M  V30 2781 H 260.71 -1.72703 -1.11188 0
M  V30 2782 H 258.94 -1.32157 -3.63416 0
M  V30 2783 H 260.629 -1.7391 -3.66756 0
M  V30 2784 H 261.395 -4.02733 -2.70243 0
M  V30 2785 H 257.274 -3.05631 -3.45124 0
M  V30 2786 H 260.818 -6.428 -2.71024 0
M  V30 2787 H 256.715 -5.44832 -3.46163 0
M  V30 2788 H 257.483 -7.5131 -3.24769 0
M  V30 2789 N 260.146 1.09593 -1.13257 0
M  V30 2790 C 261.386 1.83349 -0.903472 0
M  V30 2791 C 261.75 1.83641 0.560351 0
M  V30 2792 O 262.951 2.53037 0.906947 0
M  V30 2793 C 261.222 3.25629 -1.47311 0
M  V30 2794 S 262.781 4.16408 -1.38382 0
M  V30 2795 H 259.599 0.632014 -0.325699 0
M  V30 2796 H 262.201 1.31817 -1.44376 0
M  V30 2797 H 260.905 3.22991 -2.53189 0
M  V30 2798 H 260.436 3.82233 -0.930689 0
M  V30 2799 H 262.451 4.94884 -0.361113 0
M  V30 2800 N 261.624 0.925811 1.2754 0
M  V30 2801 C 263.04 0.625767 1.46821 0
M  V30 2802 C 263.24 -0.825506 1.83814 0
M  V30 2803 O 262.296 -1.60356 1.95044 0
M  V30 2804 C 263.609 1.57402 2.56213 0
M  V30 2805 C 265.157 1.58204 2.70075 0
M  V30 2806 C 265.632 2.51721 3.82623 0
M  V30 2807 N 267.123 2.49917 3.89994 0
M  V30 2808 C 267.858 3.18968 4.76494 0
M  V30 2809 N 267.354 3.97391 5.67496 0
M  V30 2810 N 269.147 3.07996 4.70208 0
M  V30 2811 H 261.298 1.86409 1.01811 0
M  V30 2812 H 263.561 0.800213 0.508295 0
M  V30 2813 H 263.267 2.60925 2.35819 0
M  V30 2814 H 263.141 1.31428 3.53563 0
M  V30 2815 H 265.528 0.554124 2.89851 0
M  V30 2816 H 265.609 1.88226 1.73218 0
M  V30 2817 H 265.253 3.54622 3.63601 0
M  V30 2818 H 265.183 2.18996 4.78903 0
M  V30 2819 H 267.674 1.9296 3.24923 0
M  V30 2820 H 267.987 4.4707 6.30356 0
M  V30 2821 H 266.332 4.01495 5.67298 0
M  V30 2822 H 269.523 2.46223 3.9811 0
M  V30 2823 H 269.696 3.6208 5.37403 0
M  V30 2824 N 263.102 -1.41638 0.69111 0
M  V30 2825 C 264.065 -2.29178 0.0319786 0
M  V30 2826 C 265.065 -1.44153 -0.712496 0
M  V30 2827 O 266.255 -1.65354 -0.548053 0
M  V30 2828 C 263.387 -3.26952 -0.965161 0
M  V30 2829 H 264.58 -2.88959 0.802681 0
M  V30 2830 H 262.133 -1.4955 0.454356 0
M  V30 2831 H 262.868 -2.72142 -1.76378 0
M  V30 2832 H 262.653 -3.89685 -0.434522 0
M  V30 2833 H 264.143 -3.92561 -1.42428 0
M  V30 2834 N 264.58 -0.43555 -1.51462 0
M  V30 2835 C 265.51 0.367376 -2.30592 0
M  V30 2836 C 266.491 1.02263 -1.35928 0
M  V30 2837 O 267.676 1.02661 -1.64847 0
M  V30 2838 C 264.806 1.46983 -3.14664 0
M  V30 2839 C 263.76 0.938161 -4.17591 0
M  V30 2840 C 263.086 2.13622 -4.90173 0
M  V30 2841 C 264.386 -0.0261621 -5.22293 0
M  V30 2842 H 266.08 -0.292969 -2.97963 0
M  V30 2843 H 263.626 -0.14234 -1.43295 0
M  V30 2844 H 265.579 2.03873 -3.688 0
M  V30 2845 H 264.303 2.15843 -2.4511 0
M  V30 2846 H 262.962 0.391481 -3.64504 0
M  V30 2847 H 262.61 2.81098 -4.17124 0
M  V30 2848 H 262.31 1.78688 -5.59772 0
M  V30 2849 H 263.834 2.7107 -5.47132 0
M  V30 2850 H 265.248 0.452384 -5.71512 0
M  V30 2851 H 263.645 -0.287992 -5.99409 0
M  V30 2852 H 264.715 -0.963391 -4.75233 0
M  V30 2853 N 266.058 1.56714 -0.166846 0
M  V30 2854 C 267.474 1.58473 0.189372 0
M  V30 2855 C 267.674 1.18201 1.63189 0
M  V30 2856 O 266.73 0.891528 2.36237 0
M  V30 2857 C 268.043 3.00573 -0.0873872 0
M  V30 2858 C 269.591 3.1299 -0.0252443 0
M  V30 2859 C 270.066 4.57174 -0.274934 0
M  V30 2860 N 271.557 4.62665 -0.222553 0
M  V30 2861 C 272.292 5.72072 -0.389985 0
M  V30 2862 N 271.788 6.90054 -0.616229 0
M  V30 2863 N 273.581 5.61153 -0.326202 0
M  V30 2864 H 265.732 1.8118 -1.10849 0
M  V30 2865 H 267.995 0.839525 -0.440342 0
M  V30 2866 H 267.701 3.34497 -1.0865 0
M  V30 2867 H 267.575 3.72019 0.623037 0
M  V30 2868 H 269.962 2.78895 0.96444 0
M  V30 2869 H 270.043 2.43989 -0.768309 0
M  V30 2870 H 269.687 4.91976 -1.26181 0
M  V30 2871 H 269.617 5.24328 0.48869 0
M  V30 2872 H 272.108 3.77863 -0.0531512 0
M  V30 2873 H 272.421 7.69311 -0.733559 0
M  V30 2874 H 270.766 6.91927 -0.652791 0
M  V30 2875 H 273.957 4.67859 -0.150072 0
M  V30 2876 H 274.13 6.46364 -0.460116 0
M  V30 2877 N 267.536 -0.106894 1.57237 0
M  V30 2878 C 268.484 -1.14944 2.02215 0
M  V30 2879 C 269.478 -1.42167 0.92114 0
M  V30 2880 O 270.684 -1.41987 1.10634 0
M  V30 2881 H 267.059 -0.387841 0.64427 0
M  V30 2882 H 269.03 -0.743683 2.88984 0
M  V30 2883 C 267.779 -2.4647 2.4525 0
M  V30 2884 H 267.102 -2.26363 3.29545 0
M  V30 2885 H 268.542 -3.17948 2.80508 0
M  V30 2886 C 267.001 -3.09921 1.321 0
M  V30 2887 O 267.531 -3.9651 0.643622 0
M  V30 2888 N 265.737 -2.69986 1.07497 0
M  V30 2889 H 265.284 -1.99667 1.62761 0
M  V30 2890 H 265.242 -3.12769 0.319876 0
M  V30 2891 N 269.014 -1.53014 -0.377408 0
M  V30 2892 C 269.944 -1.81589 -1.46791 0
M  V30 2893 C 270.925 -0.668622 -1.56408 0
M  V30 2894 O 272.11 -0.917337 -1.71168 0
M  V30 2895 C 269.24 -1.99519 -2.8427 0
M  V30 2896 C 268.194 -3.15249 -2.89486 0
M  V30 2897 C 267.52 -3.18451 -4.29527 0
M  V30 2898 C 268.82 -4.54084 -2.58079 0
M  V30 2899 H 270.514 -2.7291 -1.23127 0
M  V30 2900 H 268.06 -1.31319 -0.590883 0
M  V30 2901 H 270.013 -2.18092 -3.60575 0
M  V30 2902 H 268.737 -1.04897 -3.09296 0
M  V30 2903 H 267.396 -2.96477 -2.15631 0
M  V30 2904 H 267.044 -2.2149 -4.5161 0
M  V30 2905 H 266.744 -3.962 -4.33934 0
M  V30 2906 H 268.268 -3.39193 -5.07721 0
M  V30 2907 H 269.682 -4.72899 -3.24098 0
M  V30 2908 H 268.079 -5.33987 -2.7382 0
M  V30 2909 H 269.149 -4.60006 -1.53372 0
M  V30 2910 N 270.492 0.636531 -1.44174 0
M  V30 2911 C 271.74 1.39343 -1.46383 0
M  V30 2912 C 272.061 1.94766 -0.0955715 0
M  V30 2913 O 271.331 1.75452 0.871395 0
M  V30 2914 H 269.911 0.517199 -0.538994 0
M  V30 2915 H 272.573 0.74957 -1.7991 0
M  V30 2916 H 271.669 2.22746 -2.18611 0
M  V30 2917 N 271.97 1.30982 0.876444 0
M  V30 2918 C 273.195 1.23373 1.66715 0
M  V30 2919 C 273.62 -0.19885 1.87046 0
M  V30 2920 O 272.978 -1.1427 1.40756 0
M  V30 2921 C 273.026 1.97644 3.01611 0
M  V30 2922 O 272.13 1.30935 3.91062 0
M  V30 2923 H 271.471 0.426279 0.509099 0
M  V30 2924 H 274.001 1.72944 1.09323 0
M  V30 2925 H 274.011 2.06992 3.51594 0
M  V30 2926 H 272.686 3.01829 2.86133 0
M  V30 2927 H 271.263 1.29996 3.49507 0
M  V30 2928 N 273.449 -1.08991 1.13837 0
M  V30 2929 C 274.379 -2.17771 0.842507 0
M  V30 2930 C 275.36 -1.6892 -0.20001 0
M  V30 2931 O 276.545 -1.94113 -0.0579731 0
M  V30 2932 C 273.675 -3.4589 0.312644 0
M  V30 2933 C 272.629 -4.08099 1.28992 0
M  V30 2934 C 271.955 -5.31098 0.619623 0
M  V30 2935 C 273.255 -4.50077 2.65005 0
M  V30 2936 H 274.949 -2.42777 1.75213 0
M  V30 2937 H 272.495 -1.16682 0.843875 0
M  V30 2938 H 274.448 -4.21297 0.0933043 0
M  V30 2939 H 273.172 -3.20419 -0.632382 0
M  V30 2940 H 271.831 -3.34717 1.49533 0
M  V30 2941 H 271.479 -5.0191 -0.33102 0
M  V30 2942 H 271.179 -5.73674 1.27167 0
M  V30 2943 H 272.703 -6.09224 0.409669 0
M  V30 2944 H 274.117 -5.16688 2.48407 0
M  V30 2945 H 272.514 -5.03553 3.26427 0
M  V30 2946 H 273.584 -3.62257 3.22332 0
M  V30 2947 N 274.927 -0.932562 -1.27047 0
M  V30 2948 C 275.857 -0.452902 -2.29066 0
M  V30 2949 C 276.838 0.489338 -1.62909 0
M  V30 2950 O 278.023 0.393046 -1.90181 0
M  V30 2951 C 275.153 0.290698 -3.46081 0
M  V30 2952 C 274.107 -0.564168 -4.24265 0
M  V30 2953 C 273.433 0.308886 -5.33807 0
M  V30 2954 C 274.733 -1.83112 -4.89149 0
M  V30 2955 H 276.427 -1.30552 -2.69437 0
M  V30 2956 H 273.973 -0.629201 -1.29526 0
M  V30 2957 H 275.926 0.637233 -4.16554 0
M  V30 2958 H 274.65 1.17738 -3.0464 0
M  V30 2959 H 273.309 -0.893477 -3.55545 0
M  V30 2960 H 272.957 1.19467 -4.88607 0
M  V30 2961 H 272.657 -0.259633 -5.87026 0
M  V30 2962 H 274.181 0.650884 -6.07121 0
M  V30 2963 H 275.595 -1.55236 -5.51883 0
M  V30 2964 H 273.992 -2.34353 -5.52448 0
M  V30 2965 H 275.062 -2.54772 -4.12576 0
M  V30 2966 N 276.405 1.4127 -0.698611 0
M  V30 2967 C 277.352 2.30773 -0.0352094 0
M  V30 2968 C 278.322 1.47273 0.768111 0
M  V30 2969 O 279.507 1.76053 0.735524 0
M  V30 2970 C 276.647 3.33346 0.893 0
M  V30 2971 C 275.76 4.31924 0.0809695 0
M  V30 2972 C 274.895 5.21566 1.0071 0
M  V30 2973 C 273.934 6.11811 0.188155 0
M  V30 2974 N 273.071 6.93926 1.06825 0
M  V30 2975 H 277.911 2.86943 -0.804207 0
M  V30 2976 H 275.448 1.4132 -0.408294 0
M  V30 2977 H 277.406 3.91368 1.44523 0
M  V30 2978 H 276.036 2.78719 1.62836 0
M  V30 2979 H 275.088 3.75825 -0.588224 0
M  V30 2980 H 276.4 4.95716 -0.553801 0
M  V30 2981 H 275.554 5.84437 1.62845 0
M  V30 2982 H 274.293 4.58008 1.67572 0
M  V30 2983 H 273.298 5.47986 -0.446254 0
M  V30 2984 H 274.523 6.77425 -0.476716 0
M  V30 2985 H 272.469 6.32973 1.72283 0
M  V30 2986 H 272.386 7.54416 0.489123 0
M  V30 2987 H 273.654 7.61262 1.67632 0
M  V30 2988 N 277.883 0.443576 1.51229 0
M  V30 2989 C 279.294 -0.0180867 1.86691 0
M  V30 2990 C 279.645 -1.41384 1.36033 0
M  V30 2991 O 278.77 -2.04291 0.713722 0
M  V30 2992 C 279.365 -0.039597 3.38777 0
M  V30 2993 C 277.924 -0.445692 3.73752 0
M  V30 2994 C 277.071 0.357584 2.74985 0
M  V30 2995 H 280.022 0.659138 1.44364 0
M  V30 2996 H 280.043 -0.847761 3.70936 0
M  V30 2997 H 279.555 0.976382 3.75617 0
M  V30 2998 H 277.656 -1.46704 3.42503 0
M  V30 2999 H 277.769 -0.166155 4.78812 0
M  V30 3000 H 276.133 -0.184973 2.54027 0
M  V30 3001 H 276.916 1.37256 3.14668 0
M  V30 3002 N 279.361 -1.56624 0.175154 0
M  V30 3003 C 280.609 -1.96609 -0.467885 0
M  V30 3004 C 280.93 -1.06238 -1.63519 0
M  V30 3005 O 280.2 -0.129523 -1.95471 0
M  V30 3006 H 278.78 -0.726008 -0.175845 0
M  V30 3007 H 281.442 -1.93195 0.257234 0
M  V30 3008 H 280.538 -3.00989 -0.825342 0
M  V30 3009 N 280.839 0.0985539 -1.57292 0
M  V30 3010 C 282.087 0.801092 -1.85545 0
M  V30 3011 C 282.408 1.79438 -0.763353 0
M  V30 3012 O 281.678 1.94763 0.21073 0
M  V30 3013 H 280.258 0.29884 -0.684619 0
M  V30 3014 H 282.92 0.0810064 -1.94732 0
M  V30 3015 H 282.016 1.3338 -2.82163 0
M  V30 3016 N 282.317 1.53212 0.369288 0
M  V30 3017 C 283.564 1.69215 1.11232 0
M  V30 3018 C 283.892 0.442048 1.8941 0
M  V30 3019 O 283.147 -0.575944 1.87033 0
M  V30 3020 C 283.446 2.89101 2.10132 0
M  V30 3021 C 283.112 4.25758 1.48463 0
M  V30 3022 C 281.774 4.6292 1.31372 0
M  V30 3023 C 284.126 5.10757 1.03811 0
M  V30 3024 C 281.454 5.82722 0.68207 0
M  V30 3025 C 283.806 6.31201 0.420487 0
M  V30 3026 C 282.47 6.67079 0.237038 0
M  V30 3027 H 281.74 0.619201 0.407027 0
M  V30 3028 H 284.387 1.87391 0.394552 0
M  V30 3029 H 282.692 2.65421 2.88199 0
M  V30 3030 H 284.389 2.98676 2.6757 0
M  V30 3031 H 280.979 3.96494 1.62758 0
M  V30 3032 H 285.163 4.82599 1.1581 0
M  V30 3033 H 280.419 6.09113 0.528316 0
M  V30 3034 H 284.593 6.96368 0.0662874 0
M  V30 3035 H 282.22 7.59774 -0.254477 0
M  V30 3036 N 283.795 -0.628877 1.44509 0
M  V30 3037 C 284.725 -1.75187 1.54376 0
M  V30 3038 C 285.706 -1.65411 0.396618 0
M  V30 3039 O 286.891 -1.84137 0.617031 0
M  V30 3040 C 284.021 -3.13725 1.48976 0
M  V30 3041 C 282.975 -3.38291 2.62189 0
M  V30 3042 C 282.301 -4.76883 2.41841 0
M  V30 3043 C 283.601 -3.30632 4.04326 0
M  V30 3044 H 285.295 -1.67187 2.48373 0
M  V30 3045 H 282.841 -0.802909 1.19538 0
M  V30 3046 H 284.794 -3.92064 1.54478 0
M  V30 3047 H 283.518 -3.22515 0.514961 0
M  V30 3048 H 282.177 -2.62334 2.56079 0
M  V30 3049 H 281.825 -4.82378 1.42548 0
M  V30 3050 H 281.525 -4.94278 3.17747 0
M  V30 3051 H 283.049 -5.57449 2.49165 0
M  V30 3052 H 284.463 -3.98873 4.11793 0
M  V30 3053 H 282.86 -3.59561 4.80454 0
M  V30 3054 H 283.93 -2.28404 4.27738 0
M  V30 3055 N 285.273 -1.31445 -0.869486 0
M  V30 3056 C 286.519 -1.21337 -1.62496 0
M  V30 3057 C 286.852 0.227872 -1.92858 0
M  V30 3058 O 286.127 1.16094 -1.56053 0
M  V30 3059 C 286.41 -2.05814 -2.95487 0
M  V30 3060 C 286.263 -3.5824 -2.72 0
M  V30 3061 C 287.582 -1.9079 -3.96594 0
M  V30 3062 H 284.701 -0.442135 -0.589649 0
M  V30 3063 H 287.343 -1.6124 -1.00507 0
M  V30 3064 H 285.493 -1.71913 -3.48394 0
M  V30 3065 H 287.165 -4.0228 -2.25762 0
M  V30 3066 H 285.408 -3.81647 -2.06224 0
M  V30 3067 H 286.079 -4.12657 -3.66631 0
M  V30 3068 H 288.555 -2.20459 -3.52898 0
M  V30 3069 H 287.431 -2.52199 -4.87531 0
M  V30 3070 H 287.692 -0.871341 -4.33428 0
M  V30 3071 N 286.751 1.08385 -1.14413 0
M  V30 3072 C 288 1.80153 -0.907076 0
M  V30 3073 C 288.313 1.87176 0.567851 0
M  V30 3074 O 289.519 2.55359 0.922172 0
M  V30 3075 C 287.975 3.23687 -1.57336 0
M  V30 3076 C 287.583 3.24897 -3.08457 0
M  V30 3077 C 289.327 4.00136 -1.41744 0
M  V30 3078 C 287.234 4.6302 -3.67921 0
M  V30 3079 H 286.164 0.675139 -0.335714 0
M  V30 3080 H 288.815 1.21733 -1.37307 0
M  V30 3081 H 287.197 3.82234 -1.03505 0
M  V30 3082 H 288.371 2.76055 -3.68958 0
M  V30 3083 H 286.686 2.61943 -3.2369 0
M  V30 3084 H 289.283 5.02201 -1.83572 0
M  V30 3085 H 289.626 4.14709 -0.363576 0
M  V30 3086 H 290.159 3.48058 -1.92614 0
M  V30 3087 H 286.898 4.5365 -4.73161 0
M  V30 3088 H 286.418 5.12143 -3.12201 0
M  V30 3089 H 288.097 5.31994 -3.68227 0
M  V30 3090 N 288.23 0.939286 1.26551 0
M  V30 3091 C 289.163 0.391702 2.24813 0
M  V30 3092 C 290.141 -0.518421 1.54114 0
M  V30 3093 O 291.325 -0.456299 1.82894 0
M  V30 3094 C 288.452 -0.437382 3.35864 0
M  V30 3095 C 287.498 0.410946 4.24516 0
M  V30 3096 S 288.331 1.83372 5.03125 0
M  V30 3097 C 289.487 1.01264 6.17654 0
M  V30 3098 H 289.72 1.22448 2.70913 0
M  V30 3099 H 287.253 0.742269 1.35387 0
M  V30 3100 H 289.211 -0.909837 4.0029 0
M  V30 3101 H 287.872 -1.24482 2.8838 0
M  V30 3102 H 287.065 -0.224191 5.03501 0
M  V30 3103 H 286.667 0.818014 3.64945 0
M  V30 3104 H 288.959 0.254023 6.77024 0
M  V30 3105 H 289.902 1.77589 6.85469 0
M  V30 3106 H 290.31 0.549532 5.61819 0
M  V30 3107 N 289.708 -1.40897 0.706093 0
M  V30 3108 C 290.985 -1.94868 0.169099 0
M  V30 3109 C 291.365 -1.64485 -1.32318 0
M  V30 3110 O 290.713 -0.95744 -2.07474 0
M  V30 3111 C 290.923 -3.45798 0.471654 0
M  V30 3112 C 292.271 -4.22663 0.405127 0
M  V30 3113 O 293.295 -3.53865 0.407168 0
M  V30 3114 O 292.154 -5.45216 0.374383 0
M  V30 3115 H 289.248 -0.82673 0.0211352 0
M  V30 3116 H 291.794 -1.50558 0.782976 0
M  V30 3117 H 290.566 -3.61235 1.50416 0
M  V30 3118 H 290.189 -3.97225 -0.172666 0
M  V30 3119 N 291.186 -0.45159 -1.50991 0
M  V30 3120 C 292.149 0.341117 -2.26647 0
M  V30 3121 C 293.149 0.937422 -1.30649 0
M  V30 3122 O 294.339 0.809644 -1.54241 0
M  V30 3123 C 291.471 1.48398 -3.06905 0
M  V30 3124 H 292.664 -0.322117 -2.98165 0
M  V30 3125 H 290.217 -0.205122 -1.54948 0
M  V30 3126 H 290.952 2.18284 -2.39838 0
M  V30 3127 H 290.737 1.06241 -3.77432 0
M  V30 3128 H 292.227 2.04367 -3.64176 0
M  V30 3129 N 292.664 1.56529 -0.183458 0
M  V30 3130 C 293.594 2.21549 0.737456 0
M  V30 3131 C 294.575 1.17489 1.23005 0
M  V30 3132 O 295.76 1.45959 1.281 0
M  V30 3133 C 292.89 2.86575 1.96194 0
M  V30 3134 C 291.844 3.96778 1.60473 0
M  V30 3135 C 291.17 4.48911 2.90487 0
M  V30 3136 C 292.47 5.15767 0.823497 0
M  V30 3137 H 294.164 2.98761 0.195453 0
M  V30 3138 H 291.71 1.43702 0.0925686 0
M  V30 3139 H 293.663 3.30739 2.61131 0
M  V30 3140 H 292.387 2.06749 2.52828 0
M  V30 3141 H 291.046 3.53286 0.978997 0
M  V30 3142 H 290.694 3.65862 3.45186 0
M  V30 3143 H 290.394 5.23265 2.67335 0
M  V30 3144 H 291.918 4.95771 3.56432 0
M  V30 3145 H 293.332 5.56549 1.37571 0
M  V30 3146 H 291.729 5.96114 0.690551 0
M  V30 3147 H 292.799 4.84574 -0.177782 0
M  V30 3148 N 294.142 -0.090211 1.57342 0
M  V30 3149 C 295.089 -1.10909 2.02405 0
M  V30 3150 C 296.059 -1.39523 0.901252 0
M  V30 3151 O 297.244 -1.50903 1.1676 0
M  V30 3152 C 294.384 -2.42277 2.45755 0
M  V30 3153 C 293.497 -2.20352 3.71576 0
M  V30 3154 C 292.632 -3.45154 4.03785 0
M  V30 3155 C 291.671 -3.18512 5.22701 0
M  V30 3156 N 290.808 -4.35593 5.50639 0
M  V30 3157 H 295.648 -0.71782 2.89225 0
M  V30 3158 H 293.185 -0.342901 1.43048 0
M  V30 3159 H 295.143 -3.18951 2.68935 0
M  V30 3160 H 293.773 -2.79242 1.61938 0
M  V30 3161 H 292.825 -1.34458 3.55844 0
M  V30 3162 H 294.137 -1.96661 4.58395 0
M  V30 3163 H 293.291 -4.30233 4.27767 0
M  V30 3164 H 292.03 -3.71904 3.15498 0
M  V30 3165 H 291.035 -2.31827 4.98534 0
M  V30 3166 H 292.26 -2.93103 6.12591 0
M  V30 3167 H 290.206 -4.6241 4.6531 0
M  V30 3168 H 290.123 -4.1511 6.31838 0
M  V30 3169 H 291.391 -5.21723 5.7916 0
M  V30 3170 N 295.62 -1.53406 -0.361157 0
M  V30 3171 C 296.845 -1.74024 -1.12829 0
M  V30 3172 C 297.27 -0.470069 -1.82132 0
M  V30 3173 O 296.628 0.57619 -1.719 0
M  V30 3174 C 296.676 -2.90903 -2.13091 0
M  V30 3175 O 295.78 -2.59821 -3.20261 0
M  V30 3176 H 295.121 -0.577804 -0.327168 0
M  V30 3177 H 297.651 -2.00307 -0.41693 0
M  V30 3178 H 297.661 -3.17194 -2.56616 0
M  V30 3179 H 296.336 -3.83034 -1.62042 0
M  V30 3180 H 294.913 -2.44362 -2.81677 0
M  V30 3181 N 297.098 0.621204 -1.44841 0
M  V30 3182 C 298.323 1.41244 -1.51871 0
M  V30 3183 C 298.748 1.87519 -0.147764 0
M  V30 3184 O 298.106 1.59334 0.865 0
M  V30 3185 C 298.154 2.60221 -2.49634 0
M  V30 3186 O 297.258 3.60395 -2.00473 0
M  V30 3187 H 296.599 0.42223 -0.512463 0
M  V30 3188 H 299.129 0.757305 -1.90069 0
M  V30 3189 H 299.139 3.0764 -2.67996 0
M  V30 3190 H 297.814 2.25887 -3.4921 0
M  V30 3191 H 296.391 3.19717 -1.91925 0
M  V30 3192 N 298.576 1.31904 0.862503 0
M  V30 3193 C 299.806 1.24817 1.64634 0
M  V30 3194 C 300.214 -0.187579 1.88268 0
M  V30 3195 O 299.557 -1.13253 1.44635 0
M  V30 3196 C 299.619 1.92996 3.03303 0
M  V30 3197 C 299.283 3.42336 3.02746 0
M  V30 3198 C 300.28 4.37956 2.80162 0
M  V30 3199 C 297.965 3.84147 3.2363 0
M  V30 3200 C 299.959 5.73361 2.78453 0
M  V30 3201 C 297.646 5.19663 3.21549 0
M  V30 3202 C 298.644 6.14081 2.98988 0
M  V30 3203 O 298.332 7.47118 2.96766 0
M  V30 3204 H 298.064 0.432222 0.519769 0
M  V30 3205 H 300.618 1.7445 1.08427 0
M  V30 3206 H 298.848 1.37922 3.61268 0
M  V30 3207 H 300.537 1.79723 3.63943 0
M  V30 3208 H 301.303 4.06981 2.63802 0
M  V30 3209 H 297.182 3.11083 3.40218 0
M  V30 3210 H 300.726 6.4703 2.60763 0
M  V30 3211 H 296.623 5.5027 3.37451 0
M  V30 3212 H 297.391 7.56382 3.12775 0
M  V30 3213 N 300.054 -1.07777 1.14986 0
M  V30 3214 C 301.284 -1.83752 0.944402 0
M  V30 3215 C 301.692 -1.8218 -0.51058 0
M  V30 3216 O 301.035 -1.22852 -1.36576 0
M  V30 3217 C 301.097 -3.32128 1.37592 0
M  V30 3218 C 300.761 -3.57425 2.84775 0
M  V30 3219 C 301.758 -3.5173 3.8286 0
M  V30 3220 C 299.443 -3.8523 3.2234 0
M  V30 3221 C 301.437 -3.73482 5.16517 0
M  V30 3222 C 299.124 -4.06634 4.56171 0
M  V30 3223 C 300.122 -4.00754 5.53069 0
M  V30 3224 O 299.81 -4.2159 6.84483 0
M  V30 3225 H 299.542 -0.58673 0.335744 0
M  V30 3226 H 302.096 -1.36982 1.53052 0
M  V30 3227 H 300.326 -3.79686 0.733165 0
M  V30 3228 H 302.015 -3.89555 1.14024 0
M  V30 3229 H 302.781 -3.30256 3.55184 0
M  V30 3230 H 298.66 -3.88923 2.47508 0
M  V30 3231 H 302.204 -3.68808 5.92137 0
M  V30 3232 H 298.101 -4.27593 4.83564 0
M  V30 3233 H 298.869 -4.38961 6.90837 0
M  V30 3234 N 301.532 -0.945985 -1.26051 0
M  V30 3235 C 302.465 -0.403619 -2.24602 0
M  V30 3236 C 303.443 0.510241 -1.54387 0
M  V30 3237 O 304.627 0.446593 -1.83133 0
M  V30 3238 C 301.754 0.419564 -3.36091 0
M  V30 3239 C 300.8 -0.433454 -4.24292 0
M  V30 3240 S 301.633 -1.86037 -5.02146 0
M  V30 3241 C 302.789 -1.04538 -6.17108 0
M  V30 3242 H 303.022 -1.23883 -2.7026 0
M  V30 3243 H 300.555 -0.749438 -1.34992 0
M  V30 3244 H 302.513 0.888595 -4.00767 0
M  V30 3245 H 301.174 1.22951 -2.89036 0
M  V30 3246 H 300.367 0.197486 -5.03613 0
M  V30 3247 H 299.969 -0.837357 -3.64506 0
M  V30 3248 H 302.261 -0.289923 -6.76879 0
M  V30 3249 H 303.204 -1.81222 -6.84518 0
M  V30 3250 H 303.612 -0.579319 -5.61519 0
M  V30 3251 N 303.011 1.40521 -0.713556 0
M  V30 3252 C 304.26 2.00155 -0.249192 0
M  V30 3253 C 304.573 1.57224 1.16362 0
M  V30 3254 O 305.779 2.09542 1.72639 0
M  V30 3255 C 304.235 3.5773 -0.3946 0
M  V30 3256 C 303.843 4.09635 -1.81392 0
M  V30 3257 C 305.587 4.24499 0.00907364 0
M  V30 3258 C 303.494 5.59707 -1.91003 0
M  V30 3259 H 302.424 0.74868 -0.0894114 0
M  V30 3260 H 305.075 1.60784 -0.884352 0
M  V30 3261 H 303.457 3.94792 0.30911 0
M  V30 3262 H 304.631 3.83955 -2.54785 0
M  V30 3263 H 302.946 3.55456 -2.16888 0
M  V30 3264 H 305.543 5.34683 -0.0420404 0
M  V30 3265 H 305.886 4.02824 1.05065 0
M  V30 3266 H 306.419 3.92536 -0.645007 0
M  V30 3267 H 303.158 5.86234 -2.93275 0
M  V30 3268 H 302.678 5.87258 -1.22019 0
M  V30 3269 H 304.357 6.24776 -1.6812 0
M  V30 3270 N 304.489 0.459591 1.5075 0
M  V30 3271 C 305.737 -0.0991532 2.01857 0
M  V30 3272 C 306.058 -1.41247 1.34441 0
M  V30 3273 O 305.328 -1.89775 0.486022 0
M  V30 3274 H 303.908 -0.039633 0.745948 0
M  V30 3275 H 306.57 0.607387 1.85194 0
M  V30 3276 H 305.666 -0.258998 3.11023 0
M  V30 3277 N 305.967 -1.56429 0.191757 0
M  V30 3278 C 306.877 -2.22541 -0.742481 0
M  V30 3279 C 307.893 -1.22342 -1.23727 0
M  V30 3280 O 309.069 -1.55069 -1.28513 0
M  V30 3281 C 306.134 -2.8692 -1.94623 0
M  V30 3282 C 305.195 -4.02378 -1.49633 0
M  V30 3283 C 304.428 -4.63678 -2.6427 0
M  V30 3284 O 304.651 -4.23895 -3.81666 0
M  V30 3285 O 303.585 -5.53202 -2.37174 0
M  V30 3286 H 307.411 -3.02977 -0.209462 0
M  V30 3287 H 304.996 -1.49353 -0.0373832 0
M  V30 3288 H 306.878 -3.27663 -2.64982 0
M  V30 3289 H 305.553 -2.09466 -2.46791 0
M  V30 3290 H 304.46 -3.66265 -0.761636 0
M  V30 3291 H 305.793 -4.81487 -1.02134 0
M  V30 3292 N 307.445 0.0818655 -1.57387 0
M  V30 3293 C 308.377 1.12484 -1.997 0
M  V30 3294 C 309.39 1.35564 -0.90146 0
M  V30 3295 O 310.579 1.33982 -1.17945 0
M  V30 3296 C 307.679 2.47778 -2.31213 0
M  V30 3297 C 306.852 2.44793 -3.62485 0
M  V30 3298 C 305.911 3.62117 -3.81782 0
M  V30 3299 O 304.937 3.44005 -4.53486 0
M  V30 3300 N 306.139 4.82094 -3.23367 0
M  V30 3301 H 308.904 0.764585 -2.89783 0
M  V30 3302 H 306.465 0.270664 -1.59621 0
M  V30 3303 H 308.457 3.24891 -2.41304 0
M  V30 3304 H 307.027 2.75843 -1.4707 0
M  V30 3305 H 306.247 1.53134 -3.6324 0
M  V30 3306 H 307.535 2.39889 -4.48699 0
M  V30 3307 H 306.933 4.99713 -2.65148 0
M  V30 3308 H 305.49 5.56753 -3.38923 0
M  V30 3309 N 308.923 1.53595 0.353017 0
M  V30 3310 C 309.87 1.80919 1.43308 0
M  V30 3311 C 310.84 0.654288 1.5267 0
M  V30 3312 O 312.025 0.897759 1.6836 0
M  V30 3313 C 309.165 2.01605 2.80089 0
M  V30 3314 C 308.278 3.29321 2.79593 0
M  V30 3315 C 307.413 3.40125 4.0803 0
M  V30 3316 C 306.452 4.61826 4.01725 0
M  V30 3317 N 305.589 4.69716 5.21834 0
M  V30 3318 H 310.429 2.73074 1.19308 0
M  V30 3319 H 307.966 1.35263 0.578131 0
M  V30 3320 H 309.924 2.11586 3.59565 0
M  V30 3321 H 308.554 1.12772 3.0246 0
M  V30 3322 H 307.606 3.28229 1.92276 0
M  V30 3323 H 308.918 4.18884 2.70809 0
M  V30 3324 H 308.072 3.49488 4.95927 0
M  V30 3325 H 306.811 2.48601 4.19582 0
M  V30 3326 H 305.816 4.52552 3.12213 0
M  V30 3327 H 307.041 5.54705 3.91764 0
M  V30 3328 H 304.987 3.81097 5.33948 0
M  V30 3329 H 304.904 5.53202 5.1527 0
M  V30 3330 H 306.172 4.83376 6.11529 0
M  V30 3331 N 310.401 -0.613514 1.45168 0
M  V30 3332 C 311.648 -1.37268 1.48875 0
M  V30 3333 C 311.976 -1.94077 0.128161 0
M  V30 3334 O 311.231 -1.75178 -0.872416 0
M  V30 3335 C 311.53 -2.54347 2.51083 0
M  V30 3336 C 311.196 -2.1572 3.95949 0
M  V30 3337 C 309.858 -2.04899 4.35396 0
M  V30 3338 C 312.21 -1.85485 4.87078 0
M  V30 3339 C 309.538 -1.62057 5.63875 0
M  V30 3340 C 311.89 -1.4413 6.15962 0
M  V30 3341 C 310.554 -1.31863 6.54346 0
M  V30 3342 H 309.824 -0.502299 0.544773 0
M  V30 3343 H 312.471 -0.694021 1.78481 0
M  V30 3344 H 310.776 -3.27524 2.15024 0
M  V30 3345 H 312.473 -3.12577 2.51191 0
M  V30 3346 H 309.063 -2.25066 3.64751 0
M  V30 3347 H 313.247 -1.92745 4.57343 0
M  V30 3348 H 308.503 -1.51177 5.92415 0
M  V30 3349 H 312.677 -1.19778 6.86022 0
M  V30 3350 H 310.304 -0.984392 7.538 0
M  V30 3351 N 311.879 -1.3236 -0.855495 0
M  V30 3352 C 313.104 -1.2601 -1.64731 0
M  V30 3353 C 313.529 0.169068 -1.87339 0
M  V30 3354 O 312.887 1.12016 -1.42556 0
M  V30 3355 C 312.935 -2.02417 -2.98429 0
M  V30 3356 O 312.039 -1.3714 -3.8893 0
M  V30 3357 H 311.38 -0.434325 -0.502253 0
M  V30 3358 H 313.91 -1.74661 -1.06558 0
M  V30 3359 H 313.92 -2.12559 -3.48257 0
M  V30 3360 H 312.595 -3.06343 -2.81295 0
M  V30 3361 H 311.172 -1.3554 -3.47395 0
M  V30 3362 N 313.357 1.07166 -1.15556 0
M  V30 3363 C 314.582 1.84053 -0.955988 0
M  V30 3364 C 315.007 1.81586 0.490739 0
M  V30 3365 O 314.365 1.21018 1.34997 0
M  V30 3366 C 314.413 3.28957 -1.47714 0
M  V30 3367 O 313.517 4.06795 -0.677593 0
M  V30 3368 H 312.858 0.569842 -0.340847 0
M  V30 3369 H 315.388 1.35178 -1.53584 0
M  V30 3370 H 315.398 3.79788 -1.4908 0
M  V30 3371 H 314.073 3.30068 -2.53037 0
M  V30 3372 H 312.65 3.6561 -0.733721 0
M  V30 3373 N 314.835 0.952656 1.25548 0
M  V30 3374 C 315.765 0.489287 2.28316 0
M  V30 3375 C 316.746 -0.463359 1.63667 0
M  V30 3376 O 317.931 -0.36274 1.90782 0
M  V30 3377 C 315.061 -0.235603 3.465 0
M  V30 3378 C 314.015 0.631593 4.23314 0
M  V30 3379 C 313.341 -0.223923 5.34231 0
M  V30 3380 C 314.641 1.90871 4.86174 0
M  V30 3381 H 316.335 1.34822 2.67326 0
M  V30 3382 H 313.881 0.649728 1.28509 0
M  V30 3383 H 315.834 -0.570882 4.17515 0
M  V30 3384 H 314.558 -1.12877 3.06474 0
M  V30 3385 H 313.217 0.949929 3.54079 0
M  V30 3386 H 312.865 -1.11678 4.90446 0
M  V30 3387 H 312.565 0.35299 5.86539 0
M  V30 3388 H 314.089 -0.554214 6.0808 0
M  V30 3389 H 315.503 1.63997 5.49343 0
M  V30 3390 H 313.9 2.43112 5.4865 0
M  V30 3391 H 314.97 2.61304 4.08471 0
M  V30 3392 N 316.313 -1.40141 0.720998 0
M  V30 3393 C 317.724 -1.83678 0.334553 0
M  V30 3394 C 318.075 -1.6027 -1.13173 0
M  V30 3395 O 317.2 -1.08643 -1.87152 0
M  V30 3396 C 317.795 -3.33437 0.600437 0
M  V30 3397 C 316.354 -3.75447 0.267642 0
M  V30 3398 C 315.501 -2.63296 0.870097 0
M  V30 3399 H 318.452 -1.29331 0.919732 0
M  V30 3400 H 318.473 -3.80269 -0.132517 0
M  V30 3401 H 317.985 -3.50442 1.66768 0
M  V30 3402 H 316.086 -3.64035 -0.794329 0
M  V30 3403 H 316.199 -4.73344 0.74042 0
M  V30 3404 H 314.563 -2.52954 0.297739 0
M  V30 3405 H 315.346 -2.83112 1.94172 0
M  V30 3406 N 317.792 -0.46758 -1.50504 0
M  V30 3407 C 318.722 0.318381 -2.31319 0
M  V30 3408 C 319.703 0.993564 -1.38066 0
M  V30 3409 O 320.888 0.991411 -1.66987 0
M  V30 3410 C 318.018 1.40275 -3.17711 0
M  V30 3411 C 316.972 0.849373 -4.19487 0
M  V30 3412 C 316.298 2.03177 -4.94594 0
M  V30 3413 C 317.598 -0.136942 -5.2212 0
M  V30 3414 H 319.292 -0.356106 -2.97275 0
M  V30 3415 H 316.838 -0.172703 -1.42961 0
M  V30 3416 H 318.791 1.96004 -3.73042 0
M  V30 3417 H 317.515 2.10596 -2.49634 0
M  V30 3418 H 316.174 0.314076 -3.65252 0
M  V30 3419 H 315.822 2.72187 -4.22993 0
M  V30 3420 H 315.522 1.66774 -5.63436 0
M  V30 3421 H 317.046 2.59403 -5.52759 0
M  V30 3422 H 318.46 0.331056 -5.72343 0
M  V30 3423 H 316.857 -0.41507 -5.98663 0
M  V30 3424 H 317.927 -1.06398 -4.73083 0
M  V30 3425 N 319.27 1.56325 -0.20005 0
M  V30 3426 C 320.518 1.97329 0.436547 0
M  V30 3427 C 320.839 1.08826 1.61808 0
M  V30 3428 O 320.109 0.160604 1.95241 0
M  V30 3429 H 318.689 0.728714 0.164272 0
M  V30 3430 H 321.351 1.92761 -0.287937 0
M  V30 3431 H 320.447 3.02264 0.777353 0
M  V30 3432 N 320.748 -0.0735177 1.57428 0
M  V30 3433 C 322.164 -0.428264 1.53747 0
M  V30 3434 C 322.364 -1.79272 0.91998 0
M  V30 3435 O 321.42 -2.47051 0.521745 0
M  V30 3436 C 322.733 -0.370914 2.98404 0
M  V30 3437 C 324.281 -0.451224 3.0973 0
M  V30 3438 C 324.756 -0.4238 4.56035 0
M  V30 3439 N 326.247 -0.483925 4.60665 0
M  V30 3440 C 326.982 -0.484891 5.71346 0
M  V30 3441 N 326.478 -0.440775 6.91396 0
M  V30 3442 N 328.271 -0.531319 5.59583 0
M  V30 3443 H 320.422 0.819949 1.95935 0
M  V30 3444 H 322.685 0.307493 0.896745 0
M  V30 3445 H 322.391 0.564956 3.47133 0
M  V30 3446 H 322.265 -1.18176 3.5821 0
M  V30 3447 H 324.652 -1.37752 2.60976 0
M  V30 3448 H 324.733 0.388167 2.52838 0
M  V30 3449 H 324.377 0.498638 5.05446 0
M  V30 3450 H 324.307 -1.2807 5.10789 0
M  V30 3451 H 326.798 -0.522338 3.74273 0
M  V30 3452 H 327.111 -0.44539 7.71515 0
M  V30 3453 H 325.456 -0.40749 6.93804 0
M  V30 3454 H 328.647 -0.563464 4.64696 0
M  V30 3455 H 328.82 -0.528603 6.4584 0
M  V30 3456 N 322.226 -1.5378 -0.344866 0
M  V30 3457 C 323.136 -1.84667 -1.4469 0
M  V30 3458 C 324.152 -0.736704 -1.57635 0
M  V30 3459 O 325.328 -1.02888 -1.73136 0
M  V30 3460 C 322.393 -2.04869 -2.79696 0
M  V30 3461 C 321.454 -3.28731 -2.76106 0
M  V30 3462 C 320.687 -3.4796 -4.04673 0
M  V30 3463 O 320.91 -2.71052 -5.01883 0
M  V30 3464 O 319.844 -4.41383 -4.09224 0
M  V30 3465 H 323.67 -2.78334 -1.21506 0
M  V30 3466 H 321.255 -1.39418 -0.536921 0
M  V30 3467 H 323.137 -2.19609 -3.59652 0
M  V30 3468 H 321.812 -1.14391 -3.02814 0
M  V30 3469 H 320.719 -3.19396 -1.94774 0
M  V30 3470 H 322.052 -4.19198 -2.57941 0
M  V30 3471 N 323.704 0.605807 -1.45491 0
M  V30 3472 C 324.667 1.69836 -1.5391 0
M  V30 3473 C 325.667 1.55261 -0.418424 0
M  V30 3474 O 326.857 1.60296 -0.681965 0
M  V30 3475 C 323.989 3.09117 -1.43734 0
M  V30 3476 H 325.182 1.63738 -2.51257 0
M  V30 3477 H 322.735 0.821689 -1.32959 0
M  V30 3478 H 323.47 3.20791 -0.475788 0
M  V30 3479 H 323.255 3.21104 -2.25021 0
M  V30 3480 H 324.745 3.88696 -1.52661 0
M  V30 3481 N 325.182 1.32811 0.848464 0
M  V30 3482 C 326.428 1.23907 1.60546 0
M  V30 3483 C 326.761 -0.197161 1.93197 0
M  V30 3484 O 326.036 -1.13596 1.5788 0
M  V30 3485 C 326.319 2.10489 2.92175 0
M  V30 3486 C 326.172 3.62522 2.66266 0
M  V30 3487 C 327.491 1.97075 3.93509 0
M  V30 3488 H 324.61 0.451459 0.58254 0
M  V30 3489 H 327.252 1.62818 0.979296 0
M  V30 3490 H 325.402 1.77434 3.45614 0
M  V30 3491 H 327.074 4.05821 2.19334 0
M  V30 3492 H 325.317 3.84879 2.00126 0
M  V30 3493 H 325.988 4.18437 3.6002 0
M  V30 3494 H 328.464 2.26045 3.49346 0
M  V30 3495 H 327.34 2.59923 4.83457 0
M  V30 3496 H 327.601 0.940186 4.31987 0
M  V30 3497 N 326.66 -1.06551 1.16123 0
M  V30 3498 C 327.57 -2.17484 0.879662 0
M  V30 3499 C 328.586 -1.73377 -0.147104 0
M  V30 3500 O 329.762 -2.01379 0.0289128 0
M  V30 3501 C 326.827 -3.44591 0.381829 0
M  V30 3502 C 325.888 -4.0322 1.4735 0
M  V30 3503 C 325.121 -5.24261 0.999324 0
M  V30 3504 O 325.344 -5.70198 -0.151957 0
M  V30 3505 O 324.278 -5.74775 1.78653 0
M  V30 3506 H 328.104 -2.44075 1.80724 0
M  V30 3507 H 325.689 -1.16042 0.940992 0
M  V30 3508 H 327.571 -4.21254 0.111053 0
M  V30 3509 H 326.246 -3.19532 -0.51777 0
M  V30 3510 H 325.153 -3.2806 1.79798 0
M  V30 3511 H 326.486 -4.32568 2.34831 0
M  V30 3512 N 328.138 -0.959301 -1.25041 0
M  V30 3513 C 329.101 -0.487677 -2.23952 0
M  V30 3514 C 330.101 0.41119 -1.55454 0
M  V30 3515 O 331.291 0.207825 -1.72956 0
M  V30 3516 C 328.423 0.294807 -3.39623 0
M  V30 3517 H 329.616 -1.36198 -2.67189 0
M  V30 3518 H 327.169 -0.743042 -1.37508 0
M  V30 3519 H 327.904 1.18658 -3.01813 0
M  V30 3520 H 327.689 -0.35012 -3.90534 0
M  V30 3521 H 329.179 0.614089 -4.1306 0
M  V30 3522 N 329.616 1.39756 -0.72842 0
M  V30 3523 C 330.579 2.29012 -0.0927297 0
M  V30 3524 C 331.579 1.45992 0.674025 0
M  V30 3525 O 332.769 1.66749 0.50402 0
M  V30 3526 C 329.901 3.29396 0.878137 0
M  V30 3527 H 331.094 2.86729 -0.879011 0
M  V30 3528 H 328.647 1.48293 -0.493847 0
M  V30 3529 H 329.382 2.76722 1.69101 0
M  V30 3530 H 329.167 3.907 0.331051 0
M  V30 3531 H 330.657 3.96199 1.3197 0
M  V30 3532 N 331.094 0.475555 1.50254 0
M  V30 3533 C 332.34 -0.0780073 2.0265 0
M  V30 3534 C 332.673 -1.38968 1.35652 0
M  V30 3535 O 331.948 -1.8839 0.483691 0
M  V30 3536 C 332.231 -0.257161 3.59181 0
M  V30 3537 C 332.084 1.07585 4.36744 0
M  V30 3538 C 333.403 -1.00965 4.28362 0
M  V30 3539 H 330.522 -0.0268758 0.73651 0
M  V30 3540 H 333.164 0.622015 1.7953 0
M  V30 3541 H 331.314 -0.853412 3.79011 0
M  V30 3542 H 332.986 1.70902 4.28474 0
M  V30 3543 H 331.229 1.6714 4.00308 0
M  V30 3544 H 331.9 0.904088 5.44546 0
M  V30 3545 H 334.376 -0.504214 4.13034 0
M  V30 3546 H 333.252 -1.10381 5.37687 0
M  V30 3547 H 333.513 -2.04731 3.91839 0
M  V30 3548 N 332.573 -1.56217 0.208337 0
M  V30 3549 C 333.52 -2.19699 -0.707192 0
M  V30 3550 C 334.49 -1.14836 -1.20008 0
M  V30 3551 O 335.675 -1.4314 -1.26157 0
M  V30 3552 C 332.815 -2.87061 -1.91546 0
M  V30 3553 C 331.928 -4.06483 -1.46271 0
M  V30 3554 C 331.063 -4.61665 -2.62752 0
M  V30 3555 C 330.102 -5.73417 -2.14147 0
M  V30 3556 N 329.239 -6.22948 -3.23853 0
M  V30 3557 H 334.079 -2.97575 -0.159111 0
M  V30 3558 H 331.616 -1.46948 -0.0667874 0
M  V30 3559 H 333.574 -3.24294 -2.62468 0
M  V30 3560 H 332.204 -2.11725 -2.43664 0
M  V30 3561 H 331.256 -3.74825 -0.648886 0
M  V30 3562 H 332.568 -4.87271 -1.06622 0
M  V30 3563 H 331.722 -5.01272 -3.41776 0
M  V30 3564 H 330.461 -3.80013 -3.05682 0
M  V30 3565 H 329.466 -5.33326 -1.33581 0
M  V30 3566 H 330.691 -6.56897 -1.72232 0
M  V30 3567 H 328.637 -5.44213 -3.6629 0
M  V30 3568 H 328.554 -6.98823 -2.88414 0
M  V30 3569 H 329.822 -6.6721 -4.03052 0
M  V30 3570 N 334.051 0.0651679 -1.57465 0
M  V30 3571 C 334.961 1.09448 -2.07505 0
M  V30 3572 C 335.977 1.41974 -1.00595 0
M  V30 3573 O 337.153 1.52018 -1.32107 0
M  V30 3574 C 334.218 2.38689 -2.51453 0
M  V30 3575 C 333.279 2.13073 -3.72691 0
M  V30 3576 C 332.512 3.36152 -4.14533 0
M  V30 3577 O 332.735 4.45517 -3.56189 0
M  V30 3578 O 331.669 3.23974 -5.07272 0
M  V30 3579 H 335.495 0.69935 -2.95538 0
M  V30 3580 H 333.08 0.279752 -1.46757 0
M  V30 3581 H 334.962 3.14736 -2.80212 0
M  V30 3582 H 333.637 2.77568 -1.66546 0
M  V30 3583 H 332.544 1.34709 -3.49005 0
M  V30 3584 H 333.877 1.79071 -4.5847 0
M  V30 3585 N 335.529 1.53961 0.336706 0
M  V30 3586 C 336.492 1.81724 1.39675 0
M  V30 3587 C 337.492 0.688532 1.45313 0
M  V30 3588 O 338.682 0.956829 1.45569 0
M  V30 3589 C 335.814 1.96543 2.78538 0
M  V30 3590 H 337.007 2.76424 1.16318 0
M  V30 3591 H 334.56 1.45478 0.571474 0
M  V30 3592 H 335.295 1.0401 3.07168 0
M  V30 3593 H 335.08 2.78665 2.75841 0
M  V30 3594 H 336.57 2.19516 3.5525 0
M  V30 3595 N 337.007 -0.598083 1.45811 0
M  V30 3596 C 338.255 -1.35413 1.50026 0
M  V30 3597 C 338.576 -1.94444 0.147177 0
M  V30 3598 O 337.846 -1.77701 -0.824571 0
M  V30 3599 H 336.426 -0.502727 0.552517 0
M  V30 3600 H 339.088 -0.701606 1.81834 0
M  V30 3601 H 338.184 -2.16871 2.2444 0
M  V30 3602 N 338.485 -1.33259 -0.841409 0
M  V30 3603 C 339.715 -1.2742 -1.62628 0
M  V30 3604 C 340.123 0.157604 -1.88542 0
M  V30 3605 O 339.466 1.10938 -1.46419 0
M  V30 3606 C 339.528 -1.97797 -3.00194 0
M  V30 3607 C 339.192 -3.47109 -2.97261 0
M  V30 3608 C 340.189 -4.42358 -2.73159 0
M  V30 3609 C 337.874 -3.89247 -3.17478 0
M  V30 3610 C 339.868 -5.77718 -2.69296 0
M  V30 3611 C 337.555 -5.24713 -3.13241 0
M  V30 3612 C 338.553 -6.1876 -2.89181 0
M  V30 3613 O 338.241 -7.51745 -2.84843 0
M  V30 3614 H 337.973 -0.440436 -0.512827 0
M  V30 3615 H 340.527 -1.76153 -1.05638 0
M  V30 3616 H 338.757 -1.43652 -3.59028 0
M  V30 3617 H 340.446 -1.8549 -3.61038 0
M  V30 3618 H 341.212 -4.11127 -2.57294 0
M  V30 3619 H 337.091 -3.16456 -3.35226 0
M  V30 3620 H 340.635 -6.51097 -2.50436 0
M  V30 3621 H 336.532 -5.55569 -3.28654 0
M  V30 3622 H 337.3 -7.61262 -3.00702 0
M  V30 3623 N 339.963 1.05934 -1.16686 0
M  V30 3624 C 341.191 1.8249 -0.974929 0
M  V30 3625 C 341.606 1.82679 0.476861 0
M  V30 3626 O 340.963 1.2486 1.33103 0
M  V30 3627 C 341.014 3.28943 -1.49929 0
M  V30 3628 O 340.735 3.28886 -2.89423 0
M  V30 3629 C 342.236 4.22215 -1.35089 0
M  V30 3630 H 339.456 0.575295 -0.345365 0
M  V30 3631 H 342 1.33631 -1.548 0
M  V30 3632 H 340.155 3.751 -0.968423 0
M  V30 3633 H 340.569 4.20493 -3.13506 0
M  V30 3634 H 342.043 5.22987 -1.76603 0
M  V30 3635 H 342.52 4.38195 -0.296935 0
M  V30 3636 H 343.126 3.81907 -1.87155 0
M  V30 3637 N 341.441 0.965919 1.2453 0
M  V30 3638 C 342.69 0.622437 1.91856 0
M  V30 3639 C 343.003 -0.846006 1.76358 0
M  V30 3640 O 344.209 -1.29993 2.38357 0
M  V30 3641 C 342.665 1.0626 3.43856 0
M  V30 3642 C 342.273 2.55437 3.68043 0
M  V30 3643 C 344.017 0.792183 4.17043 0
M  V30 3644 C 341.924 2.93196 5.13605 0
M  V30 3645 H 340.854 0.229092 0.718354 0
M  V30 3646 H 343.505 1.17189 1.41206 0
M  V30 3647 H 341.887 0.441476 3.93531 0
M  V30 3648 H 343.061 3.22665 3.28974 0
M  V30 3649 H 341.376 2.8007 3.08139 0
M  V30 3650 H 343.973 1.05031 5.24283 0
M  V30 3651 H 344.316 -0.271584 4.15413 0
M  V30 3652 H 344.849 1.37419 3.73311 0
M  V30 3653 H 341.588 3.98636 5.20355 0
M  V30 3654 H 341.108 2.30651 5.53679 0
M  V30 3655 H 342.787 2.83004 5.81823 0
M  V30 3656 N 342.919 -1.39368 0.735821 0
M  V30 3657 C 343.829 -2.34395 0.0979693 0
M  V30 3658 C 344.845 -1.58361 -0.720968 0
M  V30 3659 O 346.021 -1.90648 -0.649245 0
M  V30 3660 C 343.086 -3.37393 -0.797916 0
M  V30 3661 C 342.147 -4.29287 0.0333662 0
M  V30 3662 C 341.38 -5.27365 -0.819854 0
M  V30 3663 O 341.603 -5.31959 -2.05855 0
M  V30 3664 O 340.537 -6.01389 -0.248079 0
M  V30 3665 H 344.363 -2.90601 0.882315 0
M  V30 3666 H 341.948 -1.40909 0.4965 0
M  V30 3667 H 343.83 -4.00505 -1.31048 0
M  V30 3668 H 342.505 -2.83571 -1.56106 0
M  V30 3669 H 341.412 -3.69395 0.591475 0
M  V30 3670 H 342.745 -4.86317 0.758752 0
M  V30 3671 N 344.397 -0.483516 -1.5 0
M  V30 3672 C 345.643 0.0593261 -2.03313 0
M  V30 3673 C 345.998 1.36288 -1.35806 0
M  V30 3674 O 345.291 1.85519 -0.478897 0
M  V30 3675 C 345.485 0.286226 -3.56252 0
M  V30 3676 C 345.314 -0.993788 -4.38582 0
M  V30 3677 C 344.084 -1.54064 -4.81241 0
M  V30 3678 C 346.282 -1.89249 -4.78215 0
M  V30 3679 N 344.264 -2.76838 -5.47936 0
M  V30 3680 C 345.635 -2.96606 -5.44449 0
M  V30 3681 C 347.69 -1.90138 -4.60165 0
M  V30 3682 C 346.393 -4.04857 -5.94544 0
M  V30 3683 C 348.419 -2.97353 -5.1121 0
M  V30 3684 C 347.781 -4.03429 -5.77429 0
M  V30 3685 H 343.88 -0.0186322 -0.781778 0
M  V30 3686 H 346.464 -0.654489 -1.8337 0
M  V30 3687 H 344.635 0.969086 -3.76116 0
M  V30 3688 H 346.367 0.824515 -3.96212 0
M  V30 3689 H 343.122 -1.08813 -4.6093 0
M  V30 3690 H 343.546 -3.39221 -5.85882 0
M  V30 3691 H 348.188 -1.09441 -4.0839 0
M  V30 3692 H 345.906 -4.86363 -6.4535 0
M  V30 3693 H 349.492 -2.99039 -4.99066 0
M  V30 3694 H 348.372 -4.85025 -6.16214 0
M  V30 3695 N 345.875 1.56104 -0.216619 0
M  V30 3696 C 347.122 1.98172 0.416416 0
M  V30 3697 C 347.45 1.10413 1.60122 0
M  V30 3698 O 346.705 0.147967 1.9514 0
M  V30 3699 C 347.004 3.45923 0.898464 0
M  V30 3700 C 346.67 4.50559 -0.175288 0
M  V30 3701 C 345.332 4.78897 -0.470271 0
M  V30 3702 C 347.684 5.1334 -0.901728 0
M  V30 3703 C 345.012 5.67299 -1.4963 0
M  V30 3704 C 347.364 6.02853 -1.91705 0
M  V30 3705 C 346.028 6.29537 -2.21901 0
M  V30 3706 H 345.298 0.725164 0.152377 0
M  V30 3707 H 347.945 1.88839 -0.318103 0
M  V30 3708 H 346.25 3.52434 1.71165 0
M  V30 3709 H 347.947 3.75841 1.39803 0
M  V30 3710 H 344.537 4.28551 0.0647806 0
M  V30 3711 H 348.721 4.91521 -0.687072 0
M  V30 3712 H 343.977 5.86239 -1.73592 0
M  V30 3713 H 348.151 6.50552 -2.48505 0
M  V30 3714 H 345.778 6.97835 -3.01548 0
M  V30 3715 N 347.353 -0.0568162 1.57498 0
M  V30 3716 C 348.263 -1.08346 2.08083 0
M  V30 3717 C 349.279 -1.41439 1.01346 0
M  V30 3718 O 350.455 -1.51316 1.32912 0
M  V30 3719 C 347.52 -2.37352 2.52715 0
M  V30 3720 C 346.581 -2.11093 3.73816 0
M  V30 3721 C 345.814 -3.33949 4.1631 0
M  V30 3722 O 346.037 -4.43622 3.58547 0
M  V30 3723 O 344.971 -3.21279 5.08983 0
M  V30 3724 H 348.797 -0.683667 2.95905 0
M  V30 3725 H 346.382 -0.271965 1.46904 0
M  V30 3726 H 348.264 -3.13246 2.81877 0
M  V30 3727 H 346.939 -2.76681 1.68016 0
M  V30 3728 H 345.846 -1.32856 3.49714 0
M  V30 3729 H 347.179 -1.76637 4.59413 0
M  V30 3730 N 348.832 -1.54138 -0.328536 0
M  V30 3731 C 350.078 -1.7236 -1.06865 0
M  V30 3732 C 350.411 -0.493231 -1.87832 0
M  V30 3733 O 349.686 0.5098 -1.877 0
M  V30 3734 C 349.969 -2.99621 -1.99747 0
M  V30 3735 C 349.822 -4.32899 -1.22143 0
M  V30 3736 C 351.141 -3.22615 -2.99345 0
M  V30 3737 H 348.26 -0.627151 -0.387105 0
M  V30 3738 H 350.902 -1.86827 -0.345767 0
M  V30 3739 H 349.052 -2.87418 -2.61387 0
M  V30 3740 H 350.724 -4.56978 -0.630017 0
M  V30 3741 H 348.967 -4.30628 -0.523628 0
M  V30 3742 H 349.638 -5.18154 -1.90318 0
M  V30 3743 H 352.114 -3.34248 -2.47826 0
M  V30 3744 H 350.99 -4.13027 -3.61524 0
M  V30 3745 H 351.251 -2.3961 -3.71536 0
M  V30 3746 N 350.31 0.590341 -1.46126 0
M  V30 3747 C 351.559 1.34499 -1.50309 0
M  V30 3748 C 351.872 1.94977 -0.156021 0
M  V30 3749 O 353.078 2.71395 -0.0756037 0
M  V30 3750 C 351.534 2.43723 -2.64815 0
M  V30 3751 C 351.142 1.89582 -4.0591 0
M  V30 3752 C 352.886 3.20579 -2.78262 0
M  V30 3753 C 350.793 2.9639 -5.11769 0
M  V30 3754 H 349.723 0.505593 -0.559368 0
M  V30 3755 H 352.374 0.630848 -1.72315 0
M  V30 3756 H 350.756 3.17902 -2.36124 0
M  V30 3757 H 351.93 1.21997 -4.44357 0
M  V30 3758 H 350.245 1.25418 -3.97063 0
M  V30 3759 H 352.842 4.00276 -3.54519 0
M  V30 3760 H 353.185 3.72684 -1.85505 0
M  V30 3761 H 353.718 2.53505 -3.06562 0
M  V30 3762 H 350.457 2.49181 -6.06291 0
M  V30 3763 H 349.977 3.62487 -4.77873 0
M  V30 3764 H 351.656 3.60474 -5.37278 0
M  V30 3765 N 351.788 1.33704 0.83433 0
M  V30 3766 C 353.013 1.28615 1.62705 0
M  V30 3767 C 353.438 -0.139242 1.87584 0
M  V30 3768 O 352.796 -1.09734 1.4432 0
M  V30 3769 C 352.844 2.07139 2.95171 0
M  V30 3770 O 351.948 1.4331 3.86699 0
M  V30 3771 H 351.289 0.44226 0.49528 0
M  V30 3772 H 353.819 1.76335 1.03766 0
M  V30 3773 H 353.829 2.18073 3.44831 0
M  V30 3774 H 352.504 3.10779 2.76386 0
M  V30 3775 H 351.081 1.4105 3.45195 0
M  V30 3776 N 353.266 -1.05314 1.17247 0
M  V30 3777 C 354.198 -2.13023 0.845812 0
M  V30 3778 C 355.211 -1.62096 -0.151246 0
M  V30 3779 O 356.4 -1.78343 0.0748818 0
M  V30 3780 C 353.5 -3.38047 0.240292 0
M  V30 3781 C 352.673 -4.18255 1.27991 0
M  V30 3782 C 351.732 -5.21625 0.692375 0
M  V30 3783 O 350.758 -5.52619 1.36385 0
M  V30 3784 N 351.96 -5.78201 -0.516178 0
M  V30 3785 H 354.725 -2.41642 1.77283 0
M  V30 3786 H 352.286 -1.21401 1.07115 0
M  V30 3787 H 354.278 -4.04359 -0.16603 0
M  V30 3788 H 352.848 -3.06972 -0.590487 0
M  V30 3789 H 352.068 -3.47451 1.86203 0
M  V30 3790 H 353.356 -4.68643 1.98119 0
M  V30 3791 H 352.754 -5.55301 -1.07969 0
M  V30 3792 H 351.311 -6.4604 -0.86458 0
M  V30 3793 N 354.744 -0.972509 -1.24016 0
M  V30 3794 C 355.969 -0.654417 -1.96805 0
M  V30 3795 C 356.394 0.770398 -1.716 0
M  V30 3796 O 355.752 1.52361 -0.982647 0
M  V30 3797 C 355.8 -0.941031 -3.48105 0
M  V30 3798 O 354.904 -0.0289472 -4.1239 0
M  V30 3799 H 354.245 -0.24692 -0.616382 0
M  V30 3800 H 356.775 -1.30396 -1.57664 0
M  V30 3801 H 356.785 -0.87452 -3.98517 0
M  V30 3802 H 355.46 -1.97939 -3.65777 0
M  V30 3803 H 354.037 -0.149192 -3.72601 0
M  V30 3804 N 356.222 1.38976 -0.743202 0
M  V30 3805 C 357.452 2.04339 -0.304807 0
M  V30 3806 C 357.86 1.56162 1.06819 0
M  V30 3807 O 357.203 0.725284 1.68776 0
M  V30 3808 C 357.265 3.58716 -0.237369 0
M  V30 3809 C 356.929 4.29905 -1.55018 0
M  V30 3810 C 357.926 4.55987 -2.49744 0
M  V30 3811 C 355.611 4.68294 -1.81675 0
M  V30 3812 C 357.605 5.19478 -3.69353 0
M  V30 3813 C 355.292 5.31512 -3.0156 0
M  V30 3814 C 356.29 5.57037 -3.9522 0
M  V30 3815 O 355.978 6.18941 -5.12998 0
M  V30 3816 H 355.71 0.663439 -0.12971 0
M  V30 3817 H 358.264 1.78852 -1.01001 0
M  V30 3818 H 356.494 3.83133 0.524003 0
M  V30 3819 H 358.183 4.05543 0.170121 0
M  V30 3820 H 358.949 4.26767 -2.30423 0
M  V30 3821 H 354.828 4.47779 -1.09615 0
M  V30 3822 H 358.372 5.39318 -4.42473 0
M  V30 3823 H 354.269 5.60153 -3.20778 0
M  V30 3824 H 355.037 6.37433 -5.13441 0
M  V30 3825 N 357.7 0.491464 1.49741 0
M  V30 3826 C 358.925 -0.0557177 2.07325 0
M  V30 3827 C 359.35 -1.30925 1.35056 0
M  V30 3828 O 358.708 -1.76733 0.404365 0
M  V30 3829 C 358.756 -0.302074 3.59333 0
M  V30 3830 O 357.86 -1.37868 3.88672 0
M  V30 3831 H 357.201 0.0219956 0.663636 0
M  V30 3832 H 359.731 0.688352 1.92673 0
M  V30 3833 H 359.741 -0.536464 4.04458 0
M  V30 3834 H 358.416 0.61383 4.11345 0
M  V30 3835 H 356.993 -1.12999 3.55367 0
M  V30 3836 N 359.178 -1.55987 0.224894 0
M  V30 3837 C 360.403 -2.03232 -0.41369 0
M  V30 3838 C 360.828 -1.10359 -1.52323 0
M  V30 3839 O 360.186 -0.092395 -1.81064 0
M  V30 3840 C 360.234 -3.48682 -0.919405 0
M  V30 3841 O 359.338 -3.58947 -2.03054 0
M  V30 3842 H 358.679 -0.657428 -0.0931903 0
M  V30 3843 H 361.209 -2.01679 0.34451 0
M  V30 3844 H 361.219 -3.8907 -1.22835 0
M  V30 3845 H 359.894 -4.15761 -0.107339 0
M  V30 3846 H 358.471 -3.30448 -1.72796 0
M  V30 3847 N 360.656 0.0484629 -1.57525 0
M  V30 3848 C 361.884 0.755421 -1.92616 0
M  V30 3849 C 362.299 1.69919 -0.822984 0
M  V30 3850 O 361.656 1.81378 0.202085 0
M  V30 3851 C 361.707 1.52915 -3.27566 0
M  V30 3852 O 361.428 0.62329 -4.33644 0
M  V30 3853 C 362.929 2.33502 -3.76818 0
M  V30 3854 H 360.149 0.213465 -0.63614 0
M  V30 3855 H 362.693 0.0117698 -2.04497 0
M  V30 3856 H 360.848 2.22486 -3.17142 0
M  V30 3857 H 361.262 1.16383 -5.11425 0
M  V30 3858 H 362.736 2.83214 -4.73808 0
M  V30 3859 H 363.213 3.14068 -3.07014 0
M  V30 3860 H 363.819 1.69043 -3.90262 0
M  V30 3861 N 362.134 1.5431 0.320358 0
M  V30 3862 C 363.067 1.78769 1.41834 0
M  V30 3863 C 364.045 0.63783 1.49568 0
M  V30 3864 O 365.229 0.875628 1.66928 0
M  V30 3865 C 362.356 1.90712 2.79905 0
M  V30 3866 C 361.402 3.13023 2.89687 0
M  V30 3867 S 362.235 4.71554 2.53766 0
M  V30 3868 C 363.391 4.86408 3.93902 0
M  V30 3869 H 363.624 2.71619 1.20874 0
M  V30 3870 H 361.157 1.45474 0.517377 0
M  V30 3871 H 363.115 1.98279 3.59438 0
M  V30 3872 H 361.776 0.988343 2.98145 0
M  V30 3873 H 360.969 3.18124 3.90913 0
M  V30 3874 H 360.571 3.03803 2.18128 0
M  V30 3875 H 362.863 4.69241 4.88691 0
M  V30 3876 H 363.806 5.88508 3.93782 0
M  V30 3877 H 364.214 4.14689 3.83005 0
M  V30 3878 N 363.613 -0.582584 1.46437 0
M  V30 3879 C 364.576 -1.67366 1.56592 0
M  V30 3880 C 365.576 -1.54575 0.443072 0
M  V30 3881 O 366.766 -1.59191 0.707381 0
M  V30 3882 C 363.898 -3.06791 1.48634 0
M  V30 3883 H 365.091 -1.5972 2.5383 0
M  V30 3884 H 362.644 -0.800432 1.34249 0
M  V30 3885 H 363.379 -3.19993 0.526763 0
M  V30 3886 H 363.164 -3.17484 2.30101 0
M  V30 3887 H 364.654 -3.86218 1.58826 0
M  V30 3888 N 365.091 -1.34144 -0.827227 0
M  V30 3889 C 366.039 -1.25364 -1.95925 0
M  V30 3890 C 367.033 -0.152608 -1.68711 0
M  V30 3891 O 368.239 -0.317311 -1.77181 0
M  V30 3892 H 364.614 -0.389342 -0.643364 0
M  V30 3893 H 366.585 -2.21045 -2.00454 0
M  V30 3894 C 365.334 -1.02158 -3.32354 0
M  V30 3895 H 364.657 -1.86111 -3.5384 0
M  V30 3896 H 366.097 -1.00048 -4.12027 0
M  V30 3897 C 364.556 0.275244 -3.35774 0
M  V30 3898 O 365.086 1.27806 -3.80826 0
M  V30 3899 N 363.292 0.306853 -2.88975 0
M  V30 3900 H 362.839 -0.509777 -2.52506 0
M  V30 3901 H 362.797 1.17432 -2.91646 0
M  V30 3902 N 366.569 1.04691 -1.17803 0
M  V30 3903 C 367.517 2.14665 -0.895635 0
M  V30 3904 C 368.511 1.68806 0.141679 0
M  V30 3905 O 369.717 1.79999 -0.00587914 0
M  V30 3906 H 366.092 0.701038 -0.272121 0
M  V30 3907 H 368.063 2.35685 -1.83017 0
M  V30 3908 C 366.812 3.45019 -0.430962 0
M  V30 3909 H 366.135 3.8071 -1.22064 0
M  V30 3910 H 367.575 4.23125 -0.272301 0
M  V30 3911 C 366.034 3.25943 0.852207 0
M  V30 3912 O 366.564 3.5296 1.91786 0
M  V30 3913 N 364.77 2.79304 0.802346 0
M  V30 3914 H 364.317 2.57518 -0.0650788 0
M  V30 3915 H 364.275 2.66921 1.66134 0
M  V30 3916 N 368.047 0.979072 1.23499 0
M  V30 3917 C 368.957 0.526431 2.28617 0
M  V30 3918 C 369.973 -0.418126 1.68901 0
M  V30 3919 O 371.149 -0.288372 1.99325 0
M  V30 3920 C 368.214 -0.165235 3.46306 0
M  V30 3921 C 367.275 0.82056 4.21385 0
M  V30 3922 C 366.508 0.161807 5.33455 0
M  V30 3923 O 366.731 -1.04742 5.60701 0
M  V30 3924 O 365.665 0.859708 5.95729 0
M  V30 3925 H 369.491 1.4006 2.69475 0
M  V30 3926 H 367.076 0.746643 1.29405 0
M  V30 3927 H 368.958 -0.553287 4.17752 0
M  V30 3928 H 367.633 -1.01419 3.07402 0
M  V30 3929 H 366.54 1.25929 3.52268 0
M  V30 3930 H 367.873 1.63828 4.64135 0
M  V30 3931 N 369.525 -1.3858 0.750561 0
M  V30 3932 C 370.773 -1.99789 0.30477 0
M  V30 3933 C 371.094 -1.59874 -1.11649 0
M  V30 3934 O 370.364 -0.85417 -1.76297 0
M  V30 3935 H 368.944 -0.738902 0.109694 0
M  V30 3936 H 371.606 -1.69391 0.963983 0
M  V30 3937 H 370.702 -3.09952 0.365499 0
M  V30 3938 N 371.003 -0.499398 -1.49478 0
M  V30 3939 C 371.933 0.269244 -2.31943 0
M  V30 3940 C 372.914 0.964054 -1.40143 0
M  V30 3941 O 374.099 0.955767 -1.69052 0
M  V30 3942 C 371.229 1.33504 -3.20615 0
M  V30 3943 C 370.183 0.760202 -4.21195 0
M  V30 3944 C 369.509 1.9264 -4.98792 0
M  V30 3945 C 370.809 -0.247661 -5.21712 0
M  V30 3946 H 372.503 -0.419082 -2.96452 0
M  V30 3947 H 370.049 -0.202988 -1.42562 0
M  V30 3948 H 372.002 1.88048 -3.77115 0
M  V30 3949 H 370.726 2.05253 -2.54045 0
M  V30 3950 H 369.385 0.23653 -3.65836 0
M  V30 3951 H 369.033 2.63154 -4.28671 0
M  V30 3952 H 368.733 1.54785 -5.66847 0
M  V30 3953 H 370.257 2.4762 -5.58137 0
M  V30 3954 H 371.671 0.209579 -5.72917 0
M  V30 3955 H 370.068 -0.541962 -5.97648 0
M  V30 3956 H 371.138 -1.16409 -4.7072 0
M  V30 3957 N 372.481 1.55866 -0.233164 0
M  V30 3958 C 373.728 1.98603 0.395374 0
M  V30 3959 C 374.056 1.12105 1.58942 0
M  V30 3960 O 373.311 0.168656 1.94972 0
M  V30 3961 C 373.61 3.46856 0.861724 0
M  V30 3962 C 373.276 4.50348 -0.223066 0
M  V30 3963 C 371.938 4.78371 -0.521038 0
M  V30 3964 C 374.29 5.12355 -0.956124 0
M  V30 3965 C 371.618 5.6568 -1.55638 0
M  V30 3966 C 373.97 6.00786 -1.98089 0
M  V30 3967 C 372.634 6.27148 -2.28565 0
M  V30 3968 H 371.904 0.726739 0.144677 0
M  V30 3969 H 374.551 1.88491 -0.338114 0
M  V30 3970 H 372.856 3.5423 1.67418 0
M  V30 3971 H 374.553 3.77302 1.35809 0
M  V30 3972 H 371.143 4.28596 0.0193234 0
M  V30 3973 H 375.327 4.90765 -0.739166 0
M  V30 3974 H 370.583 5.84365 -1.798 0
M  V30 3975 H 374.757 6.4788 -2.55391 0
M  V30 3976 H 372.384 6.94597 -3.08932 0
M  V30 3977 N 373.959 -0.0401083 1.57549 0
M  V30 3978 C 375.184 -0.748931 1.93406 0
M  V30 3979 C 375.609 -1.68686 0.832274 0
M  V30 3980 O 374.967 -1.80047 -0.212818 0
M  V30 3981 C 375.015 -1.4916 3.28304 0
M  V30 3982 O 374.119 -2.6042 3.19774 0
M  V30 3983 H 373.46 -0.202212 0.63246 0
M  V30 3984 H 375.99 0.00112086 2.046 0
M  V30 3985 H 376 -1.86395 3.62934 0
M  V30 3986 H 374.675 -0.80364 4.08062 0
M  V30 3987 H 373.252 -2.25808 2.96758 0
M  V30 3988 N 375.437 -1.54477 -0.31217 0
M  V30 3989 C 376.367 -1.87652 -1.38957 0
M  V30 3990 C 377.348 -0.734358 -1.53431 0
M  V30 3991 O 378.533 -0.98911 -1.67123 0
M  V30 3992 C 375.663 -2.11396 -2.75552 0
M  V30 3993 C 374.617 -3.27243 -2.75855 0
M  V30 3994 C 373.943 -3.36382 -4.15633 0
M  V30 3995 C 375.243 -4.64622 -2.38587 0
M  V30 3996 H 376.937 -2.77887 -1.11442 0
M  V30 3997 H 374.483 -1.33707 -0.534655 0
M  V30 3998 H 376.436 -2.33189 -3.51 0
M  V30 3999 H 375.16 -1.17921 -3.04569 0
M  V30 4000 H 373.819 -3.05356 -2.02863 0
M  V30 4001 H 373.467 -2.40445 -4.41809 0
M  V30 4002 H 373.167 -4.14249 -4.1674 0
M  V30 4003 H 374.691 -3.60422 -4.92877 0
M  V30 4004 H 376.105 -4.86219 -3.03749 0
M  V30 4005 H 374.502 -5.45121 -2.50925 0
M  V30 4006 H 375.572 -4.66097 -1.33723 0
M  V30 4007 N 376.915 0.57481 -1.46744 0
M  V30 4008 C 378.161 1.3347 -1.52688 0
M  V30 4009 C 378.494 1.93353 -0.181229 0
M  V30 4010 O 377.769 1.76912 0.808237 0
M  V30 4011 C 378.052 2.45811 -2.63152 0
M  V30 4012 C 377.905 1.90912 -4.07275 0
M  V30 4013 C 379.224 3.47822 -2.69644 0
M  V30 4014 H 376.343 0.483935 -0.555856 0
M  V30 4015 H 378.985 0.644968 -1.78718 0
M  V30 4016 H 377.135 3.04646 -2.41088 0
M  V30 4017 H 378.807 1.36473 -4.4065 0
M  V30 4018 H 377.05 1.21691 -4.16382 0
M  V30 4019 H 377.721 2.72042 -4.80309 0
M  V30 4020 H 380.197 2.9888 -2.895 0
M  V30 4021 H 379.073 4.23876 -3.48742 0
M  V30 4022 H 379.334 4.05555 -1.76005 0
M  V30 4023 N 378.394 1.34581 0.820102 0
M  V30 4024 C 379.357 1.2628 1.91275 0
M  V30 4025 C 380.357 0.177344 1.59819 0
M  V30 4026 O 381.547 0.430156 1.68806 0
M  V30 4027 C 378.679 0.950327 3.27386 0
M  V30 4028 H 379.872 2.23421 2.00057 0
M  V30 4029 H 377.425 1.1891 1.0144 0
M  V30 4030 H 378.16 -0.0177938 3.24295 0
M  V30 4031 H 377.945 1.73549 3.51601 0
M  V30 4032 H 379.435 0.917492 4.07396 0
M  V30 4033 N 379.872 -1.04064 1.18357 0
M  V30 4034 C 381.288 -1.2947 0.933258 0
M  V30 4035 C 381.488 -1.97466 -0.401169 0
M  V30 4036 O 380.544 -2.25528 -1.13549 0
M  V30 4037 C 381.857 -2.15337 2.09882 0
M  V30 4038 C 383.405 -2.28683 2.13712 0
M  V30 4039 C 383.88 -3.17917 3.29686 0
M  V30 4040 N 385.371 -3.25504 3.29547 0
M  V30 4041 C 386.106 -3.94706 4.15926 0
M  V30 4042 N 385.602 -4.66239 5.12439 0
M  V30 4043 N 387.395 -3.90986 4.0384 0
M  V30 4044 H 379.546 -0.583359 2.04232 0
M  V30 4045 H 381.809 -0.319921 0.892387 0
M  V30 4046 H 381.515 -1.72682 3.06389 0
M  V30 4047 H 381.389 -3.16015 2.05947 0
M  V30 4048 H 383.776 -2.70575 1.17784 0
M  V30 4049 H 383.857 -1.27596 2.21705 0
M  V30 4050 H 383.501 -2.76736 4.25887 0
M  V30 4051 H 383.431 -4.19036 3.1893 0
M  V30 4052 H 385.922 -2.74547 2.59677 0
M  V30 4053 H 386.235 -5.16638 5.74722 0
M  V30 4054 H 384.58 -4.65143 5.16398 0
M  V30 4055 H 387.771 -3.34234 3.27727 0
M  V30 4056 H 387.944 -4.44646 4.71375 0
M  V30 4057 N 381.35 -0.985608 -1.22978 0
M  V30 4058 C 382.297 -0.529825 -2.24636 0
M  V30 4059 C 383.267 0.434028 -1.60329 0
M  V30 4060 O 384.452 0.340414 -1.87739 0
M  V30 4061 C 381.592 0.156533 -3.44745 0
M  V30 4062 C 380.705 -0.848197 -4.23591 0
M  V30 4063 C 379.84 -0.136109 -5.31026 0
M  V30 4064 C 378.879 -1.1297 -6.01585 0
M  V30 4065 N 378.016 -0.446415 -7.00679 0
M  V30 4066 H 382.856 -1.40148 -2.62988 0
M  V30 4067 H 380.393 -0.702168 -1.29259 0
M  V30 4068 H 382.351 0.571324 -4.1327 0
M  V30 4069 H 380.981 0.992025 -3.07179 0
M  V30 4070 H 380.033 -1.38135 -3.54433 0
M  V30 4071 H 381.345 -1.60512 -4.72268 0
M  V30 4072 H 380.499 0.335784 -6.0577 0
M  V30 4073 H 379.238 0.653373 -4.83304 0
M  V30 4074 H 378.243 -1.6123 -5.25628 0
M  V30 4075 H 379.468 -1.91993 -6.51395 0
M  V30 4076 H 377.414 0.323763 -6.55201 0
M  V30 4077 H 377.331 -1.1419 -7.47326 0
M  V30 4078 H 378.599 0.00291697 -7.795 0
M  V30 4079 N 382.828 1.3818 -0.7579 0
M  V30 4080 C 383.758 2.33027 -0.148597 0
M  V30 4081 C 384.739 1.55085 0.69875 0
M  V30 4082 O 385.924 1.83384 0.639053 0
M  V30 4083 C 383.054 3.3928 0.742034 0
M  V30 4084 C 382.008 4.28 -0.00291946 0
M  V30 4085 C 381.334 5.25146 1.00625 0
M  V30 4086 C 382.634 5.08938 -1.17385 0
M  V30 4087 H 384.328 2.84231 -0.940909 0
M  V30 4088 H 381.874 1.36659 -0.453908 0
M  V30 4089 H 383.827 4.046 1.17799 0
M  V30 4090 H 382.551 2.86569 1.56671 0
M  V30 4091 H 381.21 3.64192 -0.419504 0
M  V30 4092 H 380.858 4.68721 1.8251 0
M  V30 4093 H 380.558 5.85361 0.512428 0
M  V30 4094 H 382.082 5.93342 1.44143 0
M  V30 4095 H 383.496 5.67474 -0.815224 0
M  V30 4096 H 381.893 5.7841 -1.59882 0
M  V30 4097 H 382.963 4.42424 -1.98468 0
M  V30 4098 N 384.306 0.507319 1.49211 0
M  V30 4099 C 385.531 -0.033725 2.07373 0
M  V30 4100 C 385.956 -1.29485 1.36437 0
M  V30 4101 O 385.314 -1.76294 0.423087 0
M  V30 4102 C 385.362 -0.263945 3.59633 0
M  V30 4103 O 384.466 -1.33737 3.90113 0
M  V30 4104 H 383.807 0.0290331 0.663365 0
M  V30 4105 H 386.337 0.708749 1.91932 0
M  V30 4106 H 386.347 -0.493536 4.05004 0
M  V30 4107 H 385.022 0.657424 4.10671 0
M  V30 4108 H 383.599 -1.09224 3.56545 0
M  V30 4109 N 385.784 -1.5574 0.241426 0
M  V30 4110 C 387.2 -1.59196 -0.113548 0
M  V30 4111 C 387.4 -1.25852 -1.57364 0
M  V30 4112 O 386.456 -1.00322 -2.31715 0
M  V30 4113 C 387.769 -2.99814 0.230695 0
M  V30 4114 C 389.317 -3.12513 0.174547 0
M  V30 4115 C 389.792 -4.55342 0.492744 0
M  V30 4116 N 391.283 -4.61076 0.443043 0
M  V30 4117 C 392.018 -5.6956 0.662484 0
M  V30 4118 N 391.514 -6.86328 0.944761 0
M  V30 4119 N 393.307 -5.58957 0.593564 0
M  V30 4120 H 385.458 -1.75685 1.19368 0
M  V30 4121 H 387.721 -0.81756 0.479896 0
M  V30 4122 H 387.427 -3.28932 1.24485 0
M  V30 4123 H 387.301 -3.74568 -0.444833 0
M  V30 4124 H 389.688 -2.83179 -0.830277 0
M  V30 4125 H 389.769 -2.40045 0.883845 0
M  V30 4126 H 389.413 -4.85396 1.4951 0
M  V30 4127 H 389.343 -5.26062 -0.23797 0
M  V30 4128 H 391.834 -3.77179 0.233374 0
M  V30 4129 H 392.147 -7.64935 1.09977 0
M  V30 4130 H 390.492 -6.88025 0.982175 0
M  V30 4131 H 393.683 -4.66611 0.373123 0
M  V30 4132 H 393.856 -6.43433 0.767981 0
M  V30 4133 N 387.262 0.0317525 -1.57568 0
M  V30 4134 C 388.673 0.578692 -1.77505 0
M  V30 4135 C 389.024 1.75749 -0.872164 0
M  V30 4136 O 388.149 2.16298 -0.0663106 0
M  V30 4137 C 388.744 1.05658 -3.21904 0
M  V30 4138 C 387.303 1.54906 -3.43047 0
M  V30 4139 C 386.45 0.485939 -2.73009 0
M  V30 4140 H 389.401 -0.194475 -1.57504 0
M  V30 4141 H 389.422 1.92404 -3.28269 0
M  V30 4142 H 388.934 0.198422 -3.87592 0
M  V30 4143 H 387.035 2.42915 -2.82529 0
M  V30 4144 H 387.148 1.59841 -4.5165 0
M  V30 4145 H 385.512 0.940354 -2.36705 0
M  V30 4146 H 386.295 -0.362709 -3.41379 0
M  V30 4147 N 388.74 1.54641 0.303973 0
M  V30 4148 C 389.67 1.88386 1.3796 0
M  V30 4149 C 390.651 0.742485 1.5304 0
M  V30 4150 O 391.836 0.997959 1.66597 0
M  V30 4151 C 388.966 2.12854 2.74427 0
M  V30 4152 C 387.92 3.28702 2.74115 0
M  V30 4153 C 387.246 3.38582 4.13844 0
M  V30 4154 C 388.546 4.65881 2.3612 0
M  V30 4155 H 390.24 2.78474 1.09966 0
M  V30 4156 H 387.786 1.33988 0.527556 0
M  V30 4157 H 389.739 2.35047 3.49758 0
M  V30 4158 H 388.463 1.19535 3.03939 0
M  V30 4159 H 387.122 3.06428 2.0124 0
M  V30 4160 H 386.77 2.42784 4.40528 0
M  V30 4161 H 386.47 4.16453 4.14537 0
M  V30 4162 H 387.994 3.63031 4.90959 0
M  V30 4163 H 389.408 4.87823 3.01167 0
M  V30 4164 H 387.805 5.46444 2.48031 0
M  V30 4165 H 388.875 4.66799 1.3125 0
M  V30 4166 O 390.257 -0.449877 1.55108 0
M  V30 4167 H 390.948 -1.10376 1.59176 0
M  V30 END ATOM
M  V30 BEGIN BOND
M  V30 END BOND
M  V30 END CTAB
M  END
$$$$
