drugbank_target|P80377 30S ribosomal protein S13 (DB08185)
 OpenBabel12092120483D

  0  0  0     0  0            999 V3000
M  V30 BEGIN CTAB
M  V30 COUNTS 2089 2100 0 0 0
M  V30 BEGIN ATOM
M  V30 1 H -0.908 1.98254 -0.117106 0
M  V30 2 N 0 1.576 0 0
M  V30 3 C 0.933 2.03868 1.02534 0
M  V30 4 C 1.911 0.928543 1.3348 0
M  V30 5 O 3.095 1.19667 1.45644 0
M  V30 6 C 0.222 2.43627 2.35294 0
M  V30 7 C -0.732 3.65373 2.2001 0
M  V30 8 S 0.101 5.13292 1.52614 0
M  V30 9 C 1.257 5.56322 2.86805 0
M  V30 10 H 1.49 2.90518 0.631377 0
M  V30 11 H -0.977 1.52953 0.210867 0
M  V30 12 H 0.981 2.67203 3.11629 0
M  V30 13 H -0.358 1.57376 2.7183 0
M  V30 14 H -1.165 3.90944 3.18086 0
M  V30 15 H -1.563 3.418 1.51819 0
M  V30 16 H 0.729 5.58782 3.83104 0
M  V30 17 H 1.672 6.56266 2.65933 0
M  V30 18 H 2.08 4.83886 2.90714 0
M  V30 19 N 1.4781 -0.272755 1.55222 0
M  V30 20 C 2.4411 -1.32041 1.87344 0
M  V30 21 C 3.4411 -1.42342 0.74803 0
M  V30 22 O 4.6311 -1.41488 1.0162 0
M  V30 23 C 1.7631 -2.70173 2.07893 0
M  V30 24 H 2.9561 -1.04789 2.80997 0
M  V30 25 H 0.5091 -0.51083 1.47717 0
M  V30 26 H 1.2441 -3.02605 1.16622 0
M  V30 27 H 1.0291 -2.64082 2.89833 0
M  V30 28 H 2.5191 -3.45869 2.34017 0
M  V30 29 N 2.9562 -1.48159 -0.537278 0
M  V30 30 C 4.3722 -1.34118 -0.865129 0
M  V30 31 C 4.5722 -0.346678 -1.98495 0
M  V30 32 O 3.6282 0.234715 -2.51407 0
M  V30 33 C 4.9412 -2.73963 -1.23954 0
M  V30 34 C 6.4892 -2.82397 -1.34984 0
M  V30 35 C 6.9642 -4.22928 -1.75772 0
M  V30 36 N 8.4552 -4.25566 -1.82887 0
M  V30 37 C 9.1902 -5.31235 -2.15817 0
M  V30 38 N 8.6862 -6.47189 -2.47222 0
M  V30 39 N 10.4792 -5.18624 -2.16761 0
M  V30 40 H 2.6302 -2.1144 0.201715 0
M  V30 41 H 4.8932 -0.947598 0.0275949 0
M  V30 42 H 4.5992 -3.48264 -0.490381 0
M  V30 43 H 4.4732 -3.0702 -2.19132 0
M  V30 44 H 6.8602 -2.08356 -2.08978 0
M  V30 45 H 6.9412 -2.5297 -0.379448 0
M  V30 46 H 6.5852 -4.97482 -1.02341 0
M  V30 47 H 6.5152 -4.49794 -2.73848 0
M  V30 48 H 9.0062 -3.41924 -1.60924 0
M  V30 49 H 9.3192 -7.23564 -2.71433 0
M  V30 50 H 7.6642 -6.50476 -2.44757 0
M  V30 51 H 10.8552 -4.27056 -1.91679 0
M  V30 52 H 11.0282 -6.01078 -2.42093 0
M  V30 53 N 4.4343 0.785586 -1.36625 0
M  V30 54 C 5.6833 1.53883 -1.30396 0
M  V30 55 C 5.9963 1.95271 0.113452 0
M  V30 56 O 7.2023 2.69858 0.298142 0
M  V30 57 C 5.6583 2.77808 -2.28802 0
M  V30 58 C 5.2663 2.43574 -3.75999 0
M  V30 59 C 7.0103 3.55783 -2.31558 0
M  V30 60 C 4.9173 3.63919 -4.66173 0
M  V30 61 H 3.8473 0.577678 -0.484566 0
M  V30 62 H 6.4983 0.861705 -1.62009 0
M  V30 63 H 4.8803 3.47339 -1.90188 0
M  V30 64 H 6.0543 1.81916 -4.23371 0
M  V30 65 H 4.3693 1.78803 -3.76056 0
M  V30 66 H 6.9663 4.45205 -2.96137 0
M  V30 67 H 7.3093 3.94644 -1.3252 0
M  V30 68 H 7.8423 2.93235 -2.68809 0
M  V30 69 H 4.5813 3.3015 -5.66287 0
M  V30 70 H 4.1013 4.2473 -4.23515 0
M  V30 71 H 5.7803 4.30901 -4.82632 0
M  V30 72 N 5.9124 1.20967 1.01018 0
M  V30 73 C 6.8754 0.965918 2.07853 0
M  V30 74 C 7.8754 -0.0610545 1.60684 0
M  V30 75 O 9.0654 0.175681 1.73312 0
M  V30 76 C 6.1974 0.455513 3.37843 0
M  V30 77 H 7.3904 1.91365 2.3091 0
M  V30 78 H 4.9434 1.02594 1.17916 0
M  V30 79 H 5.6784 -0.497381 3.20463 0
M  V30 80 H 5.4634 1.19622 3.73407 0
M  V30 81 H 6.9534 0.304667 4.16487 0
M  V30 82 N 7.3905 -1.2043 1.01659 0
M  V30 83 C 8.6385 -1.89423 0.704522 0
M  V30 84 C 8.9595 -1.79231 -0.768197 0
M  V30 85 O 8.2295 -1.1947 -1.55254 0
M  V30 86 H 6.8095 -0.701178 0.257602 0
M  V30 87 H 9.4715 -1.4626 1.28818 0
M  V30 88 H 8.5675 -2.96052 0.987916 0
M  V30 89 N 8.8686 -0.792821 -1.36206 0
M  V30 90 C 10.1146 -0.36733 -1.99446 0
M  V30 91 C 10.4476 1.05917 -1.62774 0
M  V30 92 O 9.7226 1.7324 -0.88421 0
M  V30 93 C 10.0056 -0.535044 -3.56103 0
M  V30 94 C 9.8586 -2.00548 -4.02617 0
M  V30 95 C 11.1776 0.0478191 -4.40074 0
M  V30 96 H 8.2966 -0.134941 -0.724541 0
M  V30 97 H 10.9386 -0.999794 -1.61568 0
M  V30 98 H 9.0886 0.00336329 -3.885 0
M  V30 99 H 10.7606 -2.60521 -3.80692 0
M  V30 100 H 9.0036 -2.50686 -3.54032 0
M  V30 101 H 9.6746 -2.07377 -5.11565 0
M  V30 102 H 12.1506 -0.411822 -4.14057 0
M  V30 103 H 11.0266 -0.0995336 -5.4881 0
M  V30 104 H 11.2876 1.14025 -4.27142 0
M  V30 105 N 10.3467 1.47872 -0.545128 0
M  V30 106 C 11.2567 2.33633 0.212746 0
M  V30 107 C 12.2727 1.4744 0.923983 0
M  V30 108 O 13.4487 1.80393 0.895572 0
M  V30 109 C 10.5137 3.23884 1.23693 0
M  V30 110 C 9.5747 4.25961 0.534417 0
M  V30 111 C 8.8077 5.11899 1.5098 0
M  V30 112 O 9.0307 5.00077 2.7437 0
M  V30 113 O 7.9647 5.92831 1.0409 0
M  V30 114 H 11.7907 2.99714 -0.490416 0
M  V30 115 H 9.3757 1.46235 -0.305871 0
M  V30 116 H 11.2577 3.79666 1.82843 0
M  V30 117 H 9.9327 2.60446 1.92222 0
M  V30 118 H 8.8397 3.73972 -0.0979679 0
M  V30 119 H 10.1727 4.92079 -0.109213 0
M  V30 120 N 11.8248 0.280983 1.55075 0
M  V30 121 C 13.0738 -0.334784 1.98902 0
M  V30 122 C 13.3868 -1.56534 1.17288 0
M  V30 123 O 14.5928 -2.25443 1.51287 0
M  V30 124 C 13.0488 -0.646994 3.54037 0
M  V30 125 C 12.6568 0.564085 4.44435 0
M  V30 126 C 14.4008 -1.22506 4.06439 0
M  V30 127 C 12.3078 0.226137 5.90967 0
M  V30 128 H 11.2378 -0.128866 0.742906 0
M  V30 129 H 13.8888 0.386556 1.79382 0
M  V30 130 H 12.2708 -1.42739 3.6938 0
M  V30 131 H 13.4448 1.34082 4.40861 0
M  V30 132 H 11.7598 1.0594 4.02698 0
M  V30 133 H 14.3568 -1.49182 5.13468 0
M  V30 134 H 14.6998 -2.16085 3.55827 0
M  V30 135 H 15.2328 -0.50682 3.94558 0
M  V30 136 H 11.9718 1.12996 6.45687 0
M  V30 137 H 11.4918 -0.513717 5.97596 0
M  V30 138 H 13.1708 -0.179539 6.46751 0
M  V30 139 N 13.3029 -1.57598 0.00835791 0
M  V30 140 C 14.7139 -1.7892 -0.53333 0
M  V30 141 C 15.0649 -0.916609 -1.73473 0
M  V30 142 O 14.1899 -0.121336 -2.1606 0
M  V30 143 C 14.7849 -3.24488 -0.974313 0
M  V30 144 C 13.3439 -3.46878 -1.46125 0
M  V30 145 C 12.4909 -2.74157 -0.416302 0
M  V30 146 H 15.4419 -1.56958 0.234495 0
M  V30 147 H 15.4629 -3.3306 -1.83988 0
M  V30 148 H 14.9749 -3.87972 -0.099718 0
M  V30 149 H 13.0759 -2.8862 -2.35646 0
M  V30 150 H 13.1889 -4.55572 -1.48295 0
M  V30 151 H 11.5529 -2.39022 -0.87981 0
M  V30 152 H 12.3359 -3.40345 0.44947 0
M  V30 153 N 14.781 0.264519 -1.55364 0
M  V30 154 C 16.197 0.61215 -1.47394 0
M  V30 155 C 16.397 1.89134 -0.695018 0
M  V30 156 O 15.453 2.51563 -0.217275 0
M  V30 157 C 16.766 0.731235 -2.91674 0
M  V30 158 C 18.314 0.82473 -3.01939 0
M  V30 159 C 18.789 0.975522 -4.4749 0
M  V30 160 N 20.28 1.04083 -4.51354 0
M  V30 161 C 21.015 1.17646 -5.61201 0
M  V30 162 N 20.511 1.27874 -6.80896 0
M  V30 163 N 22.304 1.20823 -5.48961 0
M  V30 164 H 14.455 -0.575456 -2.04456 0
M  V30 165 H 16.718 -0.196099 -0.927496 0
M  V30 166 H 16.424 -0.138392 -3.51428 0
M  V30 167 H 16.298 1.60883 -3.41169 0
M  V30 168 H 18.685 1.68482 -2.42276 0
M  V30 169 H 18.766 -0.0776479 -2.55682 0
M  V30 170 H 18.41 0.120058 -5.07758 0
M  V30 171 H 18.34 1.89268 -4.91412 0
M  V30 172 H 20.831 0.973846 -3.65136 0
M  V30 173 H 21.144 1.38081 -7.60364 0
M  V30 174 H 19.489 1.24863 -6.83692 0
M  V30 175 H 22.68 1.12469 -4.54388 0
M  V30 176 H 22.853 1.31049 -6.3461 0
M  V30 177 N 16.2591 1.48442 0.529413 0
M  V30 178 C 17.2071 1.63452 1.65487 0
M  V30 179 C 18.2011 0.500955 1.61823 0
M  V30 180 O 19.4071 0.679695 1.66674 0
M  V30 181 H 15.7821 0.514905 0.548066 0
M  V30 182 H 17.7531 2.57975 1.49971 0
M  V30 183 C 16.5021 1.69196 3.03756 0
M  V30 184 H 15.8251 2.55784 3.07269 0
M  V30 185 H 17.2651 1.83743 3.82119 0
M  V30 186 C 15.7241 0.430765 3.34135 0
M  V30 187 O 16.2541 -0.4561 3.99102 0
M  V30 188 N 14.4601 0.302293 2.89023 0
M  V30 189 H 14.0071 1.02496 2.36331 0
M  V30 190 H 13.9651 -0.540546 3.09718 0
M  V30 191 N 17.7372 -0.778329 1.37039 0
M  V30 192 C 18.6842 -1.89139 1.32269 0
M  V30 193 C 19.6542 -1.65017 0.189387 0
M  V30 194 O 20.8392 -1.87024 0.377693 0
M  V30 195 C 17.9792 -3.26112 1.12894 0
M  V30 196 C 17.0922 -3.62233 2.35396 0
M  V30 197 C 16.2272 -4.8838 2.08946 0
M  V30 198 C 15.2662 -5.17212 3.2735 0
M  V30 199 N 14.4032 -6.34546 3.00492 0
M  V30 200 H 19.2432 -1.92552 2.27437 0
M  V30 201 H 16.7802 -0.941473 1.13025 0
M  V30 202 H 18.7382 -4.05116 0.996835 0
M  V30 203 H 17.3682 -3.22091 0.213758 0
M  V30 204 H 16.4202 -2.78265 2.5937 0
M  V30 205 H 17.7322 -3.79481 3.23721 0
M  V30 206 H 16.8862 -5.75274 1.92729 0
M  V30 207 H 15.6252 -4.73222 1.17949 0
M  V30 208 H 14.6302 -4.28796 3.44113 0
M  V30 209 H 15.8552 -5.34283 4.19188 0
M  V30 210 H 13.8012 -6.20759 2.12118 0
M  V30 211 H 13.7182 -6.52179 3.82358 0
M  V30 212 H 14.9862 -7.24394 2.87879 0
M  V30 213 N 19.2153 -1.21501 -1.00376 0
M  V30 214 C 20.6313 -0.972629 -1.26539 0
M  V30 215 C 20.8313 0.340257 -1.98606 0
M  V30 216 O 19.8873 1.06561 -2.28913 0
M  V30 217 C 21.2003 -2.16404 -2.08781 0
M  V30 218 C 22.7483 -2.20643 -2.22004 0
M  V30 219 C 23.2233 -3.39306 -3.07629 0
M  V30 220 N 24.7143 -3.39401 -3.15217 0
M  V30 221 C 25.4493 -4.27867 -3.81729 0
M  V30 222 N 24.9453 -5.26533 -4.5026 0
M  V30 223 N 26.7383 -4.15672 -3.78382 0
M  V30 224 H 18.8893 -2.05929 -0.520281 0
M  V30 225 H 21.1523 -0.901803 -0.292328 0
M  V30 226 H 20.8583 -3.11554 -1.63178 0
M  V30 227 H 20.7323 -2.15567 -3.09533 0
M  V30 228 H 23.1193 -1.26048 -2.66825 0
M  V30 229 H 23.2003 -2.25523 -1.20718 0
M  V30 230 H 22.8443 -4.34195 -2.63509 0
M  V30 231 H 22.7743 -3.31665 -4.09031 0
M  V30 232 H 25.2653 -2.67997 -2.66432 0
M  V30 233 H 25.5783 -5.90337 -4.98721 0
M  V30 234 H 23.9233 -5.30457 -4.49044 0
M  V30 235 H 27.1143 -3.3785 -3.23998 0
M  V30 236 H 27.2873 -4.84825 -4.2994 0
M  V30 237 N 20.6934 1.19889 -1.02296 0
M  V30 238 C 21.9394 1.89701 -0.717033 0
M  V30 239 C 22.2724 1.7905 0.751989 0
M  V30 240 O 21.5474 1.17891 1.547 0
M  V30 241 C 21.8304 3.40858 -1.16136 0
M  V30 242 C 21.6834 3.60411 -2.69117 0
M  V30 243 C 23.0024 4.33876 -0.737549 0
M  V30 244 H 20.1214 0.688874 -0.261957 0
M  V30 245 H 22.7634 1.41154 -1.27183 0
M  V30 246 H 20.9134 3.82335 -0.689342 0
M  V30 247 H 22.5854 3.28145 -3.2422 0
M  V30 248 H 20.8284 3.03665 -3.0979 0
M  V30 249 H 21.4994 4.66396 -2.95261 0
M  V30 250 H 23.9754 4.00081 -1.14344 0
M  V30 251 H 22.8514 5.38242 -1.0764 0
M  V30 252 H 23.1124 4.40628 0.360436 0
M  V30 253 N 22.1715 0.800033 1.35784 0
M  V30 254 C 23.4485 0.30088 1.93272 0
M  V30 255 C 23.8285 -1.20857 1.73081 0
M  V30 256 O 23.1765 -2.00502 1.09596 0
M  V30 257 C 23.3865 0.70511 3.41803 0
M  V30 258 C 24.7345 0.690871 4.18942 0
M  V30 259 O 25.7585 0.646244 3.50289 0
M  V30 260 O 24.6175 0.74332 5.41421 0
M  V30 261 H 21.7115 0.0771605 0.823393 0
M  V30 262 H 24.2575 0.88329 1.449 0
M  V30 263 H 23.0295 1.74571 3.50201 0
M  V30 264 H 22.6525 0.0971541 3.97481 0
M  V30 265 N 23.6496 -1.47581 0.552962 0
M  V30 266 C 24.8956 -2.02782 0.0273648 0
M  V30 267 C 25.2286 -1.42687 -1.31734 0
M  V30 268 O 24.5036 -0.580897 -1.85623 0
M  V30 269 C 24.7866 -3.60031 -0.0702371 0
M  V30 270 C 24.6396 -4.30566 1.30126 0
M  V30 271 C 25.9586 -4.33028 -0.785771 0
M  V30 272 H 23.0776 -0.736912 0.0114185 0
M  V30 273 H 25.7196 -1.76056 0.714432 0
M  V30 274 H 23.8696 -3.82932 -0.655382 0
M  V30 275 H 25.5416 -4.19018 1.92929 0
M  V30 276 H 23.7846 -3.91086 1.87709 0
M  V30 277 H 24.4556 -5.39114 1.18573 0
M  V30 278 H 26.9316 -4.15095 -0.288982 0
M  V30 279 H 25.8076 -5.42695 -0.823013 0
M  V30 280 H 26.0686 -4.01945 -1.841 0
M  V30 281 N 25.1277 -0.289203 -1.54924 0
M  V30 282 C 26.0907 0.579144 -2.21762 0
M  V30 283 C 27.0907 1.07047 -1.1999 0
M  V30 284 O 28.2807 0.968384 -1.44803 0
M  V30 285 C 25.4127 1.80055 -2.8947 0
M  V30 286 H 26.6057 -0.00464908 -2.999 0
M  V30 287 H 24.1587 -0.0399306 -1.56249 0
M  V30 288 H 24.8937 2.42449 -2.15381 0
M  V30 289 H 24.6787 1.45602 -3.64064 0
M  V30 290 H 26.1687 2.41773 -3.40493 0
M  V30 291 N 26.6058 1.57591 -0.0167156 0
M  V30 292 C 27.5358 2.12496 0.967858 0
M  V30 293 C 28.5168 1.03807 1.34752 0
M  V30 294 O 29.7018 1.31577 1.42833 0
M  V30 295 C 26.8318 2.64194 2.25431 0
M  V30 296 C 25.7858 3.77559 2.01576 0
M  V30 297 C 25.1118 4.15636 3.36379 0
M  V30 298 C 26.4118 5.04151 1.36489 0
M  V30 299 H 28.1058 2.95013 0.510643 0
M  V30 300 H 25.6518 1.41915 0.244181 0
M  V30 301 H 27.6048 3.01236 2.94678 0
M  V30 302 H 26.3288 1.78821 2.73296 0
M  V30 303 H 24.9878 3.40937 1.34751 0
M  V30 304 H 24.6358 3.27263 3.81979 0
M  V30 305 H 24.3358 4.92022 3.21229 0
M  V30 306 H 25.8598 4.5525 4.06915 0
M  V30 307 H 27.2738 5.38857 1.95718 0
M  V30 308 H 25.6708 5.85453 1.31776 0
M  V30 309 H 26.7408 4.83733 0.336219 0
M  V30 310 N 28.0839 -0.256276 1.55502 0
M  V30 311 C 29.3119 -1.00342 1.8094 0
M  V30 312 C 29.7269 -1.79307 0.59114 0
M  V30 313 O 29.0839 -1.77114 -0.440081 0
M  V30 314 C 29.1349 -1.94875 3.04476 0
M  V30 315 O 28.8559 -1.19107 4.21598 0
M  V30 316 C 30.3569 -2.81266 3.42644 0
M  V30 317 H 27.5769 -0.295685 0.602338 0
M  V30 318 H 30.1209 -0.281998 2.02546 0
M  V30 319 H 28.2759 -2.62457 2.84947 0
M  V30 320 H 28.6899 -1.82969 4.91551 0
M  V30 321 H 30.1639 -3.43362 4.32211 0
M  V30 322 H 30.6409 -3.51897 2.62802 0
M  V30 323 H 31.2469 -2.1915 3.64491 0
M  V30 324 N 29.562 -1.4872 -0.521534 0
M  V30 325 C 30.792 -1.6061 -1.29954 0
M  V30 326 C 31.2 -0.268728 -1.87282 0
M  V30 327 O 30.543 0.753221 -1.67548 0
M  V30 328 C 30.605 -2.60013 -2.48261 0
M  V30 329 C 30.269 -4.04874 -2.11957 0
M  V30 330 C 31.266 -4.92304 -1.67132 0
M  V30 331 C 28.951 -4.5047 -2.22221 0
M  V30 332 C 30.945 -6.2336 -1.33047 0
M  V30 333 C 28.632 -5.81544 -1.87748 0
M  V30 334 C 29.63 -6.67812 -1.43234 0
M  V30 335 O 29.318 -7.96446 -1.09217 0
M  V30 336 H 29.05 -0.544116 -0.401141 0
M  V30 337 H 31.604 -1.95339 -0.634958 0
M  V30 338 H 29.834 -2.20422 -3.17728 0
M  V30 339 H 31.523 -2.61648 -3.10315 0
M  V30 340 H 32.289 -4.58312 -1.58665 0
M  V30 341 H 28.168 -3.83504 -2.55823 0
M  V30 342 H 31.712 -6.90649 -0.982299 0
M  V30 343 H 27.609 -6.15069 -1.95858 0
M  V30 344 H 28.377 -8.09275 -1.22542 0
M  V30 345 N 31.0401 0.771051 -1.3745 0
M  V30 346 C 32.2891 1.52491 -1.3202 0
M  V30 347 C 32.6021 1.9538 0.0927347 0
M  V30 348 O 33.8081 2.70159 0.269503 0
M  V30 349 C 32.2641 2.75366 -2.31736 0
M  V30 350 C 31.8721 2.39573 -3.78562 0
M  V30 351 C 33.6161 3.53307 -2.35318 0
M  V30 352 C 31.5231 3.58954 -4.70007 0
M  V30 353 H 30.4531 0.572506 -0.490666 0
M  V30 354 H 33.1041 0.844474 -1.62914 0
M  V30 355 H 31.4861 3.45303 -1.93861 0
M  V30 356 H 32.6601 1.77415 -4.25277 0
M  V30 357 H 30.9751 1.74805 -3.77932 0
M  V30 358 H 33.5721 4.42039 -3.00842 0
M  V30 359 H 33.9151 3.93217 -1.36698 0
M  V30 360 H 34.4481 2.90367 -2.71904 0
M  V30 361 H 31.1871 3.24125 -5.69757 0
M  V30 362 H 30.7071 4.20214 -4.27996 0
M  V30 363 H 32.3861 4.25758 -4.87175 0
M  V30 364 N 32.5182 1.22032 0.997298 0
M  V30 365 C 33.7482 1.06686 1.76923 0
M  V30 366 C 34.1562 -0.385838 1.85224 0
M  V30 367 O 33.4992 -1.27929 1.31833 0
M  V30 368 C 33.5612 1.59802 3.22031 0
M  V30 369 C 33.2252 3.08362 3.37286 0
M  V30 370 C 34.2222 4.05835 3.24952 0
M  V30 371 C 31.9072 3.47727 3.6248 0
M  V30 372 C 33.9012 5.4066 3.37588 0
M  V30 373 C 31.5882 4.82701 3.74757 0
M  V30 374 C 32.5862 5.78977 3.62319 0
M  V30 375 O 32.2742 7.11502 3.74193 0
M  V30 376 H 32.0062 0.374767 0.562606 0
M  V30 377 H 34.5602 1.61991 1.26286 0
M  V30 378 H 32.7902 0.989003 3.73839 0
M  V30 379 H 34.4792 1.40184 3.80924 0
M  V30 380 H 35.2452 3.76766 3.05405 0
M  V30 381 H 31.1242 2.73317 3.7124 0
M  V30 382 H 34.6682 6.15788 3.27796 0
M  V30 383 H 30.5652 5.11453 3.9381 0
M  V30 384 H 31.3332 7.19019 3.91093 0
M  V30 385 N 33.9963 -1.19345 1.0293 0
M  V30 386 C 35.2443 -1.88665 0.724574 0
M  V30 387 C 35.5653 -1.80036 -0.749144 0
M  V30 388 O 34.8353 -1.2111 -1.53978 0
M  V30 389 H 33.4153 -0.698406 0.265025 0
M  V30 390 H 36.0773 -1.44885 1.30362 0
M  V30 391 H 35.1733 -2.94987 1.01926 0
M  V30 392 N 35.4744 -0.807222 -1.35358 0
M  V30 393 C 36.7234 -0.384376 -1.98004 0
M  V30 394 C 37.0364 1.0543 -1.64754 0
M  V30 395 O 38.2424 1.58029 -2.20769 0
M  V30 396 C 36.6984 -0.636326 -3.5423 0
M  V30 397 C 36.3064 -2.08759 -3.96388 0
M  V30 398 C 38.0504 -0.278869 -4.23583 0
M  V30 399 C 35.9574 -2.28525 -5.45463 0
M  V30 400 H 34.8874 -0.139986 -0.740891 0
M  V30 401 H 37.5384 -0.991369 -1.54415 0
M  V30 402 H 35.9204 0.0406256 -3.95979 0
M  V30 403 H 37.0944 -2.8024 -3.6579 0
M  V30 404 H 35.4094 -2.40497 -3.39926 0
M  V30 405 H 38.0064 -0.404599 -5.33167 0
M  V30 406 H 38.3494 0.775012 -4.09022 0
M  V30 407 H 38.8824 -0.909764 -3.87257 0
M  V30 408 H 35.6214 -3.32361 -5.64992 0
M  V30 409 H 35.1414 -1.61569 -5.77629 0
M  V30 410 H 36.8204 -2.10109 -6.11934 0
M  V30 411 N 36.9525 1.47285 -0.560781 0
M  V30 412 C 38.2005 2.02064 -0.0379868 0
M  V30 413 C 38.5215 1.43711 1.31803 0
M  V30 414 O 37.7915 0.61362 1.86042 0
M  V30 415 H 36.3715 0.746918 -0.0110531 0
M  V30 416 H 39.0335 1.80648 -0.731598 0
M  V30 417 H 38.1295 3.12064 0.0474463 0
M  V30 418 N 38.4306 0.297415 1.54768 0
M  V30 419 C 39.3776 -0.580276 2.23386 0
M  V30 420 C 40.3476 -1.13238 1.21517 0
M  V30 421 O 41.5326 -1.17757 1.50126 0
M  V30 422 C 38.6726 -1.74801 2.97555 0
M  V30 423 C 37.7856 -1.22764 4.1419 0
M  V30 424 C 36.9206 -2.35895 4.75949 0
M  V30 425 C 35.9596 -1.80974 5.84735 0
M  V30 426 N 35.0966 -2.87664 6.40464 0
M  V30 427 H 39.9366 0.0114833 2.97998 0
M  V30 428 H 37.4736 0.0174361 1.4709 0
M  V30 429 H 39.4316 -2.43475 3.38786 0
M  V30 430 H 38.0616 -2.31145 2.25326 0
M  V30 431 H 37.1136 -0.433271 3.77924 0
M  V30 432 H 38.4256 -0.785551 4.92575 0
M  V30 433 H 37.5796 -3.12523 5.20014 0
M  V30 434 H 36.3186 -2.83429 3.96887 0
M  V30 435 H 35.3236 -1.02834 5.40097 0
M  V30 436 H 36.5486 -1.34348 6.65678 0
M  V30 437 H 34.4946 -3.34538 5.64287 0
M  V30 438 H 34.4116 -2.4794 7.14186 0
M  V30 439 H 35.6796 -3.642 6.89187 0
M  V30 440 N 39.9087 -1.5758 0.0250728 0
M  V30 441 C 40.8717 -2.08896 -0.943139 0
M  V30 442 C 41.8717 -1.00321 -1.25668 0
M  V30 443 O 43.0617 -1.26495 -1.19769 0
M  V30 444 C 40.1937 -2.55143 -2.26086 0
M  V30 445 H 41.3867 -2.95723 -0.498775 0
M  V30 446 H 38.9397 -1.54703 -0.222888 0
M  V30 447 H 39.6747 -1.71633 -2.75159 0
M  V30 448 H 39.4597 -3.34461 -2.04641 0
M  V30 449 H 40.9497 -2.95083 -2.95492 0
M  V30 450 N 41.3868 0.248026 -1.55636 0
M  V30 451 C 42.8028 0.596483 -1.48035 0
M  V30 452 C 43.0028 1.88386 -0.715039 0
M  V30 453 O 42.0588 2.51319 -0.243944 0
M  V30 454 C 43.3718 0.700258 -2.92433 0
M  V30 455 C 44.9198 0.792659 -3.02797 0
M  V30 456 C 45.3948 0.928005 -4.485 0
M  V30 457 N 46.8858 0.992903 -4.52433 0
M  V30 458 C 47.6208 1.11687 -5.62418 0
M  V30 459 N 47.1168 1.20645 -6.82214 0
M  V30 460 N 48.9098 1.14994 -5.50212 0
M  V30 461 H 41.0608 -0.597109 -2.03834 0
M  V30 462 H 43.3238 -0.205925 -0.925364 0
M  V30 463 H 43.0298 -0.175658 -3.51261 0
M  V30 464 H 42.9038 1.57255 -3.42857 0
M  V30 465 H 45.2908 1.65903 -2.4405 0
M  V30 466 H 45.3718 -0.104762 -2.55585 0
M  V30 467 H 45.0158 0.0661971 -5.07857 0
M  V30 468 H 44.9458 1.84045 -4.93391 0
M  V30 469 H 47.4368 0.935064 -3.66149 0
M  V30 470 H 47.7498 1.30008 -7.61786 0
M  V30 471 H 46.0948 1.17605 -6.84977 0
M  V30 472 H 49.2858 1.07643 -4.55555 0
M  V30 473 H 49.4588 1.24311 -6.35965 0
M  V30 474 N 42.8649 1.48995 0.513639 0
M  V30 475 C 43.8279 1.64229 1.59879 0
M  V30 476 C 44.8279 0.514696 1.5234 0
M  V30 477 O 46.0179 0.78087 1.55718 0
M  V30 478 C 43.1499 1.62783 2.99524 0
M  V30 479 H 44.3429 2.61004 1.47705 0
M  V30 480 H 41.8959 1.37837 0.736936 0
M  V30 481 H 42.6309 0.675461 3.17188 0
M  V30 482 H 42.4159 2.4466 3.06404 0
M  V30 483 H 43.9059 1.76669 3.78388 0
M  V30 484 N 44.343 -0.763751 1.37857 0
M  V30 485 C 45.29 -1.87726 1.34267 0
M  V30 486 C 46.26 -1.64807 0.206879 0
M  V30 487 O 47.445 -1.86613 0.397508 0
M  V30 488 C 44.585 -3.24896 1.16346 0
M  V30 489 C 43.698 -3.59716 2.39225 0
M  V30 490 C 42.833 -4.86137 2.14114 0
M  V30 491 C 41.872 -5.13711 3.32817 0
M  V30 492 N 41.009 -6.31323 3.07206 0
M  V30 493 H 45.849 -1.90129 2.29466 0
M  V30 494 H 43.386 -0.929433 1.14017 0
M  V30 495 H 45.344 -4.04036 1.03975 0
M  V30 496 H 43.974 -3.21847 0.247909 0
M  V30 497 H 43.026 -2.75498 2.62307 0
M  V30 498 H 44.338 -3.76027 3.27728 0
M  V30 499 H 43.492 -5.73198 1.9882 0
M  V30 500 H 42.231 -4.71945 1.22961 0
M  V30 501 H 41.236 -4.25123 3.48641 0
M  V30 502 H 42.461 -5.29807 4.24832 0
M  V30 503 H 40.407 -6.18474 2.1869 0
M  V30 504 H 40.324 -6.48087 3.89254 0
M  V30 505 H 41.592 -7.213 2.95546 0
M  V30 506 N 45.8211 -1.22559 -0.990812 0
M  V30 507 C 46.7311 -1.01394 -2.11557 0
M  V30 508 C 47.7471 0.0383962 -1.73958 0
M  V30 509 O 48.9231 -0.154787 -2.00804 0
M  V30 510 C 45.9881 -0.596569 -3.41529 0
M  V30 511 C 45.0491 -1.72276 -3.93217 0
M  V30 512 C 44.2821 -1.32521 -5.16985 0
M  V30 513 O 44.5051 -0.204909 -5.70032 0
M  V30 514 O 43.4391 -2.14247 -5.62478 0
M  V30 515 H 47.2651 -1.95633 -2.32296 0
M  V30 516 H 44.8501 -1.01172 -1.0993 0
M  V30 517 H 46.7321 -0.374263 -4.19735 0
M  V30 518 H 45.4071 0.316939 -3.22145 0
M  V30 519 H 44.3141 -1.99961 -3.16174 0
M  V30 520 H 45.6471 -2.61421 -4.17037 0
M  V30 521 N 47.2992 1.18797 -1.03562 0
M  V30 522 C 48.2622 2.20464 -0.626769 0
M  V30 523 C 49.2622 1.57721 0.313173 0
M  V30 524 O 50.4522 1.73917 0.0992615 0
M  V30 525 C 47.5842 3.40802 0.0818498 0
M  V30 526 H 48.7772 2.58149 -1.5264 0
M  V30 527 H 46.3302 1.32593 -0.827578 0
M  V30 528 H 47.0652 3.08642 0.995518 0
M  V30 529 H 46.8502 3.8758 -0.593652 0
M  V30 530 H 48.3402 4.16092 0.354584 0
M  V30 531 N 48.7773 0.814389 1.34928 0
M  V30 532 C 49.7073 0.244827 2.32213 0
M  V30 533 C 50.6883 -0.634024 1.57842 0
M  V30 534 O 51.8733 -0.562676 1.8587 0
M  V30 535 C 49.0033 -0.601106 3.42058 0
M  V30 536 C 47.9573 0.179896 4.27622 0
M  V30 537 C 47.2833 -0.788237 5.28858 0
M  V30 538 C 48.5833 1.38329 5.03649 0
M  V30 539 H 50.2773 1.05763 2.80097 0
M  V30 540 H 47.8233 0.510029 1.34665 0
M  V30 541 H 49.7763 -1.00968 4.09125 0
M  V30 542 H 48.5003 -1.44688 2.92802 0
M  V30 543 H 47.1593 0.569739 3.62146 0
M  V30 544 H 46.8073 -1.62973 4.75866 0
M  V30 545 H 46.5073 -0.269942 5.8698 0
M  V30 546 H 48.0313 -1.19485 5.98795 0
M  V30 547 H 49.4453 1.04918 5.63618 0
M  V30 548 H 47.8423 1.83662 5.71304 0
M  V30 549 H 48.9123 2.16592 4.33839 0
M  V30 550 N 50.2554 -1.46986 0.568584 0
M  V30 551 C 51.1654 -2.33942 -0.17555 0
M  V30 552 C 52.1814 -1.48891 -0.90041 0
M  V30 553 O 53.3574 -1.81794 -0.86676 0
M  V30 554 C 50.4224 -3.25811 -1.18524 0
M  V30 555 C 49.4834 -4.26757 -0.466582 0
M  V30 556 C 48.7164 -5.14236 -1.42817 0
M  V30 557 O 48.9394 -5.04379 -2.66379 0
M  V30 558 O 47.8734 -5.94412 -0.946453 0
M  V30 559 H 51.6994 -2.98896 0.538036 0
M  V30 560 H 49.2844 -1.4573 0.329097 0
M  V30 561 H 51.1664 -3.82527 -1.76779 0
M  V30 562 H 49.8414 -2.63471 -1.88055 0
M  V30 563 H 48.7484 -3.73769 0.157451 0
M  V30 564 H 50.0814 -4.91843 0.187485 0
M  V30 565 N 51.7335 -0.305618 -1.54608 0
M  V30 566 C 52.6805 0.568421 -2.23691 0
M  V30 567 C 53.6505 1.12592 -1.22116 0
M  V30 568 O 54.8355 1.16959 -1.50749 0
M  V30 569 C 51.9755 1.7322 -2.98477 0
M  V30 570 C 51.0885 1.20566 -4.14835 0
M  V30 571 C 50.2235 2.33368 -4.77193 0
M  V30 572 C 49.2625 1.7787 -5.85686 0
M  V30 573 N 48.3995 2.84263 -6.4198 0
M  V30 574 H 53.2395 -0.0272867 -2.97988 0
M  V30 575 H 50.7765 -0.0252363 -1.47078 0
M  V30 576 H 52.7345 2.41675 -3.40072 0
M  V30 577 H 51.3645 2.29947 -2.26548 0
M  V30 578 H 50.4165 0.413223 -3.78149 0
M  V30 579 H 51.7285 0.759417 -4.92985 0
M  V30 580 H 50.8825 3.09761 -5.21664 0
M  V30 581 H 49.6215 2.8132 -3.98385 0
M  V30 582 H 48.6265 0.99968 -5.40635 0
M  V30 583 H 49.8515 1.30816 -6.66381 0
M  V30 584 H 47.7975 3.31541 -5.66053 0
M  V30 585 H 47.7145 2.44149 -7.15491 0
M  V30 586 H 48.9825 3.6054 -6.91109 0
M  V30 587 N 53.2116 1.57565 -0.0334293 0
M  V30 588 C 54.4396 1.9628 0.654347 0
M  V30 589 C 54.8546 0.910138 1.65414 0
M  V30 590 O 54.2116 -0.107595 1.82183 0
M  V30 591 C 54.2626 3.35067 1.35693 0
M  V30 592 O 53.9836 4.36296 0.397191 0
M  V30 593 C 55.4846 3.88439 2.13613 0
M  V30 594 H 52.7046 0.646369 0.180132 0
M  V30 595 H 55.2486 2.04282 -0.0944721 0
M  V30 596 H 53.4036 3.2827 2.05712 0
M  V30 597 H 53.8176 5.1678 0.896597 0
M  V30 598 H 55.2916 4.8788 2.58219 0
M  V30 599 H 55.7686 3.22914 2.97696 0
M  V30 600 H 56.3746 3.98516 1.48543 0
M  V30 601 N 54.6897 -0.239769 1.55765 0
M  V30 602 C 55.9377 -0.964892 1.77579 0
M  V30 603 C 56.2587 -1.85582 0.598699 0
M  V30 604 O 55.5287 -1.92075 -0.385226 0
M  V30 605 H 54.1087 -0.359265 0.654933 0
M  V30 606 H 56.7707 -0.256001 1.93211 0
M  V30 607 H 55.8667 -1.58243 2.69009 0
M  V30 608 N 56.1678 -1.49265 -0.50573 0
M  V30 609 C 57.4168 -1.57761 -1.25675 0
M  V30 610 C 57.7298 -0.267371 -1.93764 0
M  V30 611 O 58.9358 -0.230827 -2.70517 0
M  V30 612 C 57.3918 -2.78332 -2.28165 0
M  V30 613 C 56.9998 -4.16096 -1.66037 0
M  V30 614 C 58.7438 -2.96155 -3.04125 0
M  V30 615 C 56.6508 -5.27895 -2.6661 0
M  V30 616 H 55.5808 -0.587391 -0.472745 0
M  V30 617 H 58.2318 -1.75644 -0.53118 0
M  V30 618 H 56.6138 -2.53934 -3.03865 0
M  V30 619 H 57.7878 -4.50612 -0.963622 0
M  V30 620 H 56.1028 -4.03591 -1.02484 0
M  V30 621 H 58.6998 -3.76849 -3.79327 0
M  V30 622 H 59.0428 -2.06534 -3.61455 0
M  V30 623 H 59.5758 -3.2057 -2.35541 0
M  V30 624 H 56.3148 -6.1956 -2.14068 0
M  V30 625 H 55.8348 -4.97839 -3.34539 0
M  V30 626 H 57.5138 -5.57031 -3.29129 0
M  V30 627 N 57.6459 0.756429 -1.3826 0
M  V30 628 C 58.5939 1.89149 -1.35372 0
M  V30 629 C 59.5879 1.67691 -0.24004 0
M  V30 630 O 60.7939 1.75294 -0.408919 0
M  V30 631 H 57.1689 0.622271 -0.422236 0
M  V30 632 H 59.1399 1.88701 -2.31159 0
M  V30 633 C 57.8889 3.26599 -1.19284 0
M  V30 634 H 57.2119 3.43695 -2.0424 0
M  V30 635 H 58.6519 4.06274 -1.21316 0
M  V30 636 C 57.1109 3.3675 0.100454 0
M  V30 637 O 57.6409 3.86951 1.07851 0
M  V30 638 N 55.8469 2.90179 0.15633 0
M  V30 639 H 55.3939 2.49517 -0.640253 0
M  V30 640 H 55.3519 2.97352 1.02123 0
M  V30 641 N 59.124 1.23083 0.984299 0
M  V30 642 C 60.535 1.05609 1.5396 0
M  V30 643 C 60.886 -0.377793 1.92528 0
M  V30 644 O 60.011 -1.26398 1.75649 0
M  V30 645 C 60.606 1.91087 2.7977 0
M  V30 646 C 59.165 1.77885 3.31713 0
M  V30 647 C 58.312 1.87028 2.04733 0
M  V30 648 H 61.263 1.36802 0.804419 0
M  V30 649 H 61.284 1.43336 3.5247 0
M  V30 650 H 60.796 2.9544 2.51668 0
M  V30 651 H 58.897 0.762995 3.64704 0
M  V30 652 H 59.01 2.61047 4.01735 0
M  V30 653 H 57.374 1.30565 2.18689 0
M  V30 654 H 58.157 2.92929 1.79017 0
M  V30 655 N 60.6021 -1.18246 1.0419 0
M  V30 656 C 61.5651 -2.20128 0.638452 0
M  V30 657 C 62.5651 -1.57885 -0.304805 0
M  V30 658 O 63.7551 -1.73967 -0.0900369 0
M  V30 659 C 60.8871 -3.4084 -0.0637751 0
M  V30 660 H 62.0801 -2.57336 1.54007 0
M  V30 661 H 59.6331 -1.32152 0.834598 0
M  V30 662 H 60.3681 -3.09166 -0.979136 0
M  V30 663 H 60.1531 -3.8726 0.614198 0
M  V30 664 H 61.6431 -4.16274 -0.332512 0
M  V30 665 N 62.0802 -0.821533 -1.34494 0
M  V30 666 C 63.3082 -0.421884 -2.02553 0
M  V30 667 C 63.7232 0.971745 -1.61872 0
M  V30 668 O 63.0802 1.62864 -0.823496 0
M  V30 669 C 63.1312 -0.51285 -3.57844 0
M  V30 670 O 62.8522 -1.85155 -3.97051 0
M  V30 671 C 64.3532 -0.107921 -4.43169 0
M  V30 672 H 61.5732 -0.169482 -0.649243 0
M  V30 673 H 64.1172 -1.1093 -1.71798 0
M  V30 674 H 62.2722 0.126474 -3.87193 0
M  V30 675 H 62.6862 -1.82482 -4.91732 0
M  V30 676 H 64.1602 -0.222657 -5.51551 0
M  V30 677 H 64.6372 0.948401 -4.28838 0
M  V30 678 H 65.2432 -0.720989 -4.19144 0
M  V30 679 N 63.5583 1.46682 -0.576371 0
M  V30 680 C 64.9743 1.57822 -0.237562 0
M  V30 681 C 65.1743 1.57237 1.26011 0
M  V30 682 O 64.2303 1.48596 2.04146 0
M  V30 683 C 65.5433 2.87499 -0.881168 0
M  V30 684 C 67.0913 3.01119 -0.85417 0
M  V30 685 C 67.5663 4.33524 -1.4772 0
M  V30 686 N 69.0573 4.40207 -1.44125 0
M  V30 687 C 69.7923 5.4126 -1.89276 0
M  V30 688 N 69.2883 6.49021 -2.42371 0
M  V30 689 N 71.0813 5.32422 -1.80231 0
M  V30 690 H 63.2323 1.45306 -1.54919 0
M  V30 691 H 65.4953 0.692733 -0.647167 0
M  V30 692 H 65.2013 2.9372 -1.93447 0
M  V30 693 H 65.0753 3.75224 -0.385592 0
M  V30 694 H 67.4623 2.94485 0.190491 0
M  V30 695 H 67.5433 2.14887 -1.3877 0
M  V30 696 H 67.1873 4.40916 -2.52103 0
M  V30 697 H 67.1173 5.1852 -0.918947 0
M  V30 698 H 69.6083 3.62931 -1.05307 0
M  V30 699 H 69.9213 7.2233 -2.74698 0
M  V30 700 H 68.2663 6.49858 -2.46393 0
M  V30 701 H 71.4573 4.47137 -1.38514 0
M  V30 702 H 71.6303 6.11034 -2.15735 0
M  V30 703 N 65.0364 0.313813 1.54444 0
M  V30 704 C 66.2824 -0.292108 2.00685 0
M  V30 705 C 66.6154 -1.52548 1.20177 0
M  V30 706 O 65.8904 -1.92452 0.281531 0
M  V30 707 C 66.1734 -0.635968 3.5444 0
M  V30 708 C 66.0264 0.607437 4.4568 0
M  V30 709 C 67.3454 -1.45747 4.15266 0
M  V30 710 H 64.4644 -0.104697 0.729526 0
M  V30 711 H 67.1064 0.428457 1.85106 0
M  V30 712 H 65.2564 -1.24986 3.67846 0
M  V30 713 H 66.9284 1.24581 4.44159 0
M  V30 714 H 65.1714 1.23822 4.15753 0
M  V30 715 H 65.8424 0.322515 5.51057 0
M  V30 716 H 68.3184 -0.938645 4.05375 0
M  V30 717 H 67.1944 -1.66683 5.2298 0
M  V30 718 H 67.4554 -2.45063 3.67963 0
M  V30 719 N 66.5145 -1.57545 0.0417849 0
M  V30 720 C 67.4615 -2.10977 -0.935805 0
M  V30 721 C 68.4315 -1.01486 -1.31491 0
M  V30 722 O 69.6165 -1.2898 -1.40602 0
M  V30 723 C 66.7565 -2.65169 -2.2086 0
M  V30 724 C 65.8695 -3.88714 -1.88482 0
M  V30 725 C 65.0045 -4.31254 -3.1015 0
M  V30 726 C 64.0435 -5.47524 -2.7365 0
M  V30 727 N 63.1805 -5.85162 -3.87982 0
M  V30 728 H 68.0205 -2.94218 -0.473249 0
M  V30 729 H 65.5575 -1.45415 -0.221981 0
M  V30 730 H 67.5155 -2.94685 -2.95325 0
M  V30 731 H 66.1455 -1.8474 -2.64709 0
M  V30 732 H 65.1975 -3.65849 -1.04205 0
M  V30 733 H 66.5095 -4.73245 -1.57608 0
M  V30 734 H 65.6635 -4.62273 -3.92923 0
M  V30 735 H 64.4025 -3.45516 -3.44195 0
M  V30 736 H 63.4075 -5.16187 -1.89291 0
M  V30 737 H 64.6325 -6.34971 -2.40807 0
M  V30 738 H 62.5785 -5.02377 -4.21846 0
M  V30 739 H 62.4955 -6.64362 -3.60775 0
M  V30 740 H 63.7635 -6.20791 -4.71422 0
M  V30 741 N 67.9926 0.231505 -1.5589 0
M  V30 742 C 69.2696 0.981096 -1.69215 0
M  V30 743 C 69.6496 2.02799 -0.586164 0
M  V30 744 O 68.9976 2.24823 0.408253 0
M  V30 745 C 69.2076 1.60054 -3.10135 0
M  V30 746 C 70.5556 2.09658 -3.69227 0
M  V30 747 O 71.5796 1.69967 -3.13033 0
M  V30 748 O 70.4386 2.8258 -4.67772 0
M  V30 749 H 67.5326 0.457653 -0.688827 0
M  V30 750 H 70.0786 0.224073 -1.68214 0
M  V30 751 H 68.8506 0.844105 -3.82087 0
M  V30 752 H 68.4736 2.42336 -3.15212 0
M  V30 753 N 69.4707 1.49531 0.497807 0
M  V30 754 C 70.4007 1.6935 1.60757 0
M  V30 755 C 71.3817 0.542218 1.61227 0
M  V30 756 O 72.5667 0.778417 1.77917 0
M  V30 757 C 69.6967 1.76298 2.99226 0
M  V30 758 C 68.6507 2.91248 3.13622 0
M  V30 759 C 67.9767 2.83312 4.53474 0
M  V30 760 C 69.2767 4.3214 2.93346 0
M  V30 761 H 70.9707 2.62263 1.44425 0
M  V30 762 H 68.5167 1.26208 0.693367 0
M  V30 763 H 70.4697 1.88749 3.76765 0
M  V30 764 H 69.1937 0.799871 3.16654 0
M  V30 765 H 67.8527 2.78404 2.38509 0
M  V30 766 H 67.5007 1.84902 4.67782 0
M  V30 767 H 67.2007 3.60465 4.64046 0
M  V30 768 H 68.7247 2.97775 5.33069 0
M  V30 769 H 70.1387 4.45649 3.60652 0
M  V30 770 H 68.5357 5.1054 3.15387 0
M  V30 771 H 69.6057 4.46363 1.89441 0
M  V30 772 N 70.9488 -0.749086 1.3866 0
M  V30 773 C 72.1768 -1.53834 1.38358 0
M  V30 774 C 72.5918 -1.88783 -0.0255219 0
M  V30 775 O 71.9488 -1.53101 -0.993292 0
M  V30 776 C 71.9998 -2.83468 2.2434 0
M  V30 777 O 71.7208 -2.50008 3.5976 0
M  V30 778 C 73.2218 -3.7758 2.32267 0
M  V30 779 H 70.4418 -0.47585 0.473083 0
M  V30 780 H 72.9858 -0.926726 1.82297 0
M  V30 781 H 71.1408 -3.40995 1.83851 0
M  V30 782 H 71.5548 -3.33182 4.05081 0
M  V30 783 H 73.0288 -4.65478 2.96706 0
M  V30 784 H 73.5058 -4.18334 1.33765 0
M  V30 785 H 74.1118 -3.25976 2.73166 0
M  V30 786 N 72.4269 -1.23603 -0.977757 0
M  V30 787 C 73.3369 -1.03632 -2.1047 0
M  V30 788 C 74.3529 0.0199435 -1.73989 0
M  V30 789 O 75.5289 -0.176076 -2.00629 0
M  V30 790 C 72.5939 -0.63276 -3.40877 0
M  V30 791 C 71.6549 -1.76437 -3.91367 0
M  V30 792 C 70.8879 -1.37997 -5.15551 0
M  V30 793 O 71.1109 -0.265357 -5.69782 0
M  V30 794 O 70.0449 -2.20201 -5.60174 0
M  V30 795 H 73.8709 -1.98086 -2.30208 0
M  V30 796 H 71.4559 -1.02332 -1.08851 0
M  V30 797 H 73.3379 -0.418761 -4.19314 0
M  V30 798 H 72.0129 0.282754 -3.22463 0
M  V30 799 H 70.9199 -2.03304 -3.14036 0
M  V30 800 H 72.2529 -2.6583 -4.14241 0
M  V30 801 N 73.905 1.17692 -1.04816 0
M  V30 802 C 74.868 2.19787 -0.650117 0
M  V30 803 C 75.868 1.58044 0.296427 0
M  V30 804 O 77.058 1.74012 0.0808097 0
M  V30 805 C 74.19 3.40869 0.0456987 0
M  V30 806 H 75.383 2.56516 -1.5537 0
M  V30 807 H 72.936 1.31708 -0.841594 0
M  V30 808 H 73.671 3.09681 0.962726 0
M  V30 809 H 73.456 3.86928 -0.634727 0
M  V30 810 H 74.946 4.16445 0.310432 0
M  V30 811 N 75.3831 0.828654 1.34056 0
M  V30 812 C 76.2931 0.256725 2.33191 0
M  V30 813 C 77.3091 -0.611898 1.62886 0
M  V30 814 O 78.4851 -0.51844 1.94613 0
M  V30 815 C 75.5501 -0.567238 3.42028 0
M  V30 816 C 74.6111 0.324458 4.28072 0
M  V30 817 C 73.8441 -0.460274 5.31712 0
M  V30 818 O 74.0671 -1.693 5.44696 0
M  V30 819 O 73.0011 0.160391 6.01686 0
M  V30 820 H 76.8271 1.07739 2.83947 0
M  V30 821 H 74.4121 0.59093 1.37217 0
M  V30 822 H 76.2941 -1.03582 4.08471 0
M  V30 823 H 74.9691 -1.36513 2.93506 0
M  V30 824 H 73.8761 0.840659 3.64532 0
M  V30 825 H 75.2091 1.08685 4.8005 0
M  V30 826 N 76.8612 -1.46375 0.584142 0
M  V30 827 C 78.1072 -2.02678 0.0703716 0
M  V30 828 C 78.4402 -1.4545 -1.28678 0
M  V30 829 O 77.7152 -0.62014 -1.84349 0
M  V30 830 C 77.9982 -3.60099 0.00614674 0
M  V30 831 C 77.8512 -4.27709 1.3923 0
M  V30 832 C 79.1702 -4.34598 -0.693742 0
M  V30 833 H 76.2892 -0.736504 0.027047 0
M  V30 834 H 78.9312 -1.74501 0.751615 0
M  V30 835 H 77.0812 -3.84236 -0.574009 0
M  V30 836 H 78.7532 -4.14832 2.01773 0
M  V30 837 H 76.9962 -3.87016 1.95962 0
M  V30 838 H 77.6672 -5.36478 1.29982 0
M  V30 839 H 80.1432 -4.15615 -0.200869 0
M  V30 840 H 79.0192 -5.44318 -0.707714 0
M  V30 841 H 79.2802 -4.05759 -1.75533 0
M  V30 842 N 78.3393 -0.321999 -1.54275 0
M  V30 843 C 79.5853 0.281461 -2.00837 0
M  V30 844 C 79.9183 1.51909 -1.20985 0
M  V30 845 O 79.1933 1.923 -0.291733 0
M  V30 846 C 79.4763 0.617162 -3.54772 0
M  V30 847 C 79.3293 -0.631064 -4.45351 0
M  V30 848 C 80.6483 1.43542 -4.16033 0
M  V30 849 H 77.7673 0.100826 -0.730071 0
M  V30 850 H 80.4093 -0.438268 -1.84876 0
M  V30 851 H 78.5593 1.23034 -3.68504 0
M  V30 852 H 80.2313 -1.26934 -4.43492 0
M  V30 853 H 78.4743 -1.26025 -4.15091 0
M  V30 854 H 79.1453 -0.351735 -5.50878 0
M  V30 855 H 81.6213 0.917134 -4.05867 0
M  V30 856 H 80.4973 1.63907 -5.23856 0
M  V30 857 H 80.7583 2.43108 -3.69257 0
M  V30 858 N 79.8174 1.5752 -0.0501392 0
M  V30 859 C 81.2334 1.56631 0.306402 0
M  V30 860 C 81.4334 1.0577 1.71508 0
M  V30 861 O 80.4894 0.713837 2.422 0
M  V30 862 C 81.8024 3.00393 0.135811 0
M  V30 863 C 83.3504 3.12315 0.206993 0
M  V30 864 C 83.8254 4.57954 0.064944 0
M  V30 865 N 85.3164 4.63041 0.121254 0
M  V30 866 C 86.0514 5.73389 0.0354381 0
M  V30 867 N 85.5474 6.92724 -0.102666 0
M  V30 868 N 87.3404 5.62026 0.090946 0
M  V30 869 H 79.4914 1.88903 -0.971046 0
M  V30 870 H 81.7544 0.869876 -0.376855 0
M  V30 871 H 81.4604 3.41635 -0.835384 0
M  V30 872 H 81.3344 3.66373 0.897275 0
M  V30 873 H 83.7214 2.70973 1.16866 0
M  V30 874 H 83.8024 2.49016 -0.585208 0
M  V30 875 H 83.4464 4.99981 -0.893394 0
M  V30 876 H 83.3764 5.19258 0.876277 0
M  V30 877 H 85.8674 3.77216 0.227284 0
M  V30 878 H 86.1804 7.72633 -0.160882 0
M  V30 879 H 84.5254 6.94864 -0.137737 0
M  V30 880 H 87.7164 4.67684 0.197388 0
M  V30 881 H 87.8894 6.47997 0.0206089 0
M  V30 882 N 81.2955 -0.223234 1.56011 0
M  V30 883 C 82.2255 -1.27988 1.95298 0
M  V30 884 C 83.2065 -1.48976 0.820979 0
M  V30 885 O 84.3915 -1.61188 1.08315 0
M  V30 886 C 81.5215 -2.63 2.26822 0
M  V30 887 C 80.4755 -2.56671 3.42497 0
M  V30 888 C 79.8015 -3.95697 3.59622 0
M  V30 889 C 81.1015 -2.11601 4.77517 0
M  V30 890 H 82.7955 -0.953525 2.8381 0
M  V30 891 H 80.3415 -0.457244 1.36548 0
M  V30 892 H 82.2945 -3.37077 2.52898 0
M  V30 893 H 81.0185 -2.9732 1.35161 0
M  V30 894 H 79.6775 -1.85051 3.16467 0
M  V30 895 H 79.3255 -4.27322 2.6534 0
M  V30 896 H 79.0255 -3.92345 4.37424 0
M  V30 897 H 80.5495 -4.71438 3.88044 0
M  V30 898 H 81.9635 -2.7542 5.02809 0
M  V30 899 H 80.3605 -2.19311 5.5859 0
M  V30 900 H 81.4305 -1.06824 4.72987 0
M  V30 901 N 82.7736 -1.49793 -0.48987 0
M  V30 902 C 84.1896 -1.36803 -0.822022 0
M  V30 903 C 84.3896 -0.409652 -1.97292 0
M  V30 904 O 83.4456 0.154614 -2.52026 0
M  V30 905 C 84.7586 -2.77768 -1.15175 0
M  V30 906 C 86.3066 -2.86549 -1.25931 0
M  V30 907 C 86.7816 -4.28306 -1.62228 0
M  V30 908 N 88.2726 -4.31169 -1.69256 0
M  V30 909 C 89.0076 -5.37832 -1.98807 0
M  V30 910 N 88.5036 -6.54726 -2.26507 0
M  V30 911 N 90.2966 -5.25258 -2.00152 0
M  V30 912 H 82.4476 -2.10691 0.268881 0
M  V30 913 H 84.7106 -0.946241 0.057728 0
M  V30 914 H 84.4166 -3.49648 -0.379335 0
M  V30 915 H 84.2906 -3.13836 -2.09253 0
M  V30 916 H 86.6776 -2.14899 -2.02243 0
M  V30 917 H 86.7586 -2.54049 -0.298776 0
M  V30 918 H 86.4026 -5.00486 -0.864622 0
M  V30 919 H 86.3326 -4.58279 -2.594 0
M  V30 920 H 88.8236 -3.4687 -1.49965 0
M  V30 921 H 89.1366 -7.31833 -2.48276 0
M  V30 922 H 87.4816 -6.57933 -2.23939 0
M  V30 923 H 90.6726 -4.32938 -1.77996 0
M  V30 924 H 90.8456 -6.08476 -2.22848 0
M  V30 925 N 84.2517 0.741722 -1.39055 0
M  V30 926 C 85.1617 1.88621 -1.39496 0
M  V30 927 C 86.1777 1.71557 -0.290578 0
M  V30 928 O 87.3537 1.94275 -0.530954 0
M  V30 929 C 84.4187 3.24134 -1.23037 0
M  V30 930 C 83.4797 3.5364 -2.43387 0
M  V30 931 C 82.7127 4.82687 -2.27703 0
M  V30 932 O 82.9357 5.55922 -1.27696 0
M  V30 933 O 81.8697 5.1194 -3.16545 0
M  V30 934 H 85.6957 1.91203 -2.35956 0
M  V30 935 H 83.2807 0.888625 -1.20099 0
M  V30 936 H 85.1627 4.0513 -1.15964 0
M  V30 937 H 83.8377 3.22337 -0.296691 0
M  V30 938 H 82.7447 2.72758 -2.56035 0
M  V30 939 H 84.0777 3.60209 -3.35425 0
M  V30 940 N 85.7298 1.2412 0.971189 0
M  V30 941 C 86.9598 1.10415 1.7462 0
M  V30 942 C 87.3678 -0.346462 1.86001 0
M  V30 943 O 86.7108 -1.25104 1.34517 0
M  V30 944 C 86.7728 1.66596 3.18568 0
M  V30 945 C 86.4368 3.15446 3.3067 0
M  V30 946 C 87.4338 4.12636 3.16271 0
M  V30 947 C 85.1188 3.55337 3.55022 0
M  V30 948 C 87.1128 5.47699 3.26044 0
M  V30 949 C 84.7998 4.90542 3.64434 0
M  V30 950 C 85.7978 5.86532 3.49956 0
M  V30 951 O 85.4858 7.19279 3.59017 0
M  V30 952 H 85.2178 0.386616 0.55453 0
M  V30 953 H 87.7718 1.64633 1.22821 0
M  V30 954 H 86.0018 1.06808 3.71657 0
M  V30 955 H 87.6908 1.48232 3.77865 0
M  V30 956 H 88.4568 3.8316 2.97344 0
M  V30 957 H 84.3358 2.8113 3.65359 0
M  V30 958 H 87.8798 6.22603 3.14661 0
M  V30 959 H 83.7768 5.19691 3.82873 0
M  V30 960 H 84.5448 7.27153 3.75754 0
M  V30 961 N 87.2079 -1.17134 1.05439 0
M  V30 962 C 88.4539 -1.87733 0.767077 0
M  V30 963 C 88.7869 -1.8098 -0.704253 0
M  V30 964 O 88.0619 -1.21951 -1.5152 0
M  V30 965 C 88.3449 -3.37659 1.25133 0
M  V30 966 C 88.1979 -3.53149 2.78578 0
M  V30 967 C 89.5169 -4.31768 0.852324 0
M  V30 968 H 86.6359 -0.681687 0.280129 0
M  V30 969 H 89.2779 -1.37732 1.30881 0
M  V30 970 H 87.4279 -3.80373 0.790469 0
M  V30 971 H 89.0999 -3.19434 3.32806 0
M  V30 972 H 87.3429 -2.95345 3.17732 0
M  V30 973 H 88.0139 -4.58403 3.07523 0
M  V30 974 H 90.4899 -3.96909 1.24911 0
M  V30 975 H 89.3659 -5.35199 1.21873 0
M  V30 976 H 89.6269 -4.41429 -0.243485 0
M  V30 977 N 88.686 -0.835752 -1.33615 0
M  V30 978 C 89.596 -0.269088 -2.33052 0
M  V30 979 C 90.612 0.603251 -1.63208 0
M  V30 980 O 91.788 0.508112 -1.94885 0
M  V30 981 C 88.853 0.549091 -3.42324 0
M  V30 982 C 87.914 -0.347156 -4.27894 0
M  V30 983 C 87.147 0.43207 -5.31948 0
M  V30 984 O 87.37 1.66409 -5.45586 0
M  V30 985 O 86.304 -0.192298 -6.01593 0
M  V30 986 H 90.13 -1.09243 -2.83372 0
M  V30 987 H 87.715 -0.598198 -1.36901 0
M  V30 988 H 89.597 1.01414 -4.09015 0
M  V30 989 H 88.272 1.34955 -2.94226 0
M  V30 990 H 87.179 -0.859979 -3.64081 0
M  V30 991 H 88.512 -1.1123 -4.79467 0
M  V30 992 N 90.1641 1.46063 -0.591896 0
M  V30 993 C 91.1121 2.32124 0.148739 0
M  V30 994 C 92.1061 1.45035 0.875286 0
M  V30 995 O 93.3121 1.61609 0.792632 0
M  V30 996 H 89.6871 0.749024 0.066832 0
M  V30 997 H 91.6581 2.92392 -0.595783 0
M  V30 998 C 90.4071 3.28373 1.1431 0
M  V30 999 H 89.7301 3.95371 0.59346 0
M  V30 1000 H 91.1701 3.91352 1.63155 0
M  V30 1001 C 89.6291 2.54393 2.20875 0
M  V30 1002 O 90.1591 2.31373 3.28374 0
M  V30 1003 N 88.3651 2.14797 1.95731 0
M  V30 1004 H 87.9121 2.33719 1.08319 0
M  V30 1005 H 87.8701 1.65619 2.67241 0
M  V30 1006 N 91.6422 0.330177 1.54103 0
M  V30 1007 C 92.8702 -0.272179 2.05102 0
M  V30 1008 C 93.2852 -1.45267 1.20595 0
M  V30 1009 O 92.6422 -1.8094 0.238144 0
M  V30 1010 C 92.6932 -0.70023 3.54653 0
M  V30 1011 O 92.4142 0.433301 4.35952 0
M  V30 1012 C 93.9152 -1.3647 4.21771 0
M  V30 1013 H 91.1352 -0.0549159 0.668749 0
M  V30 1014 H 93.6792 0.478285 1.98828 0
M  V30 1015 H 91.8342 -1.40066 3.61193 0
M  V30 1016 H 92.2482 0.0947539 5.24414 0
M  V30 1017 H 93.7222 -1.61509 5.27843 0
M  V30 1018 H 94.1992 -2.31409 3.73292 0
M  V30 1019 H 94.8052 -0.706675 4.19388 0
M  V30 1020 N 93.1203 -1.57491 0.0584922 0
M  V30 1021 C 94.3663 -1.94081 -0.608617 0
M  V30 1022 C 94.7213 -0.937438 -1.68017 0
M  V30 1023 O 94.0143 0.0423034 -1.91553 0
M  V30 1024 C 94.2083 -3.3513 -1.24188 0
M  V30 1025 C 94.0373 -4.49095 -0.233187 0
M  V30 1026 C 92.8073 -5.04988 0.177439 0
M  V30 1027 C 95.0053 -5.1162 0.524306 0
M  V30 1028 N 92.9873 -6.02487 1.17823 0
M  V30 1029 C 94.3583 -6.04493 1.37796 0
M  V30 1030 C 96.4133 -4.94489 0.581822 0
M  V30 1031 C 95.1163 -6.82075 2.28399 0
M  V30 1032 C 97.1423 -5.72703 1.47531 0
M  V30 1033 C 96.5043 -6.65214 2.31667 0
M  V30 1034 H 92.6033 -0.75752 -0.194134 0
M  V30 1035 H 95.1873 -1.94248 0.132533 0
M  V30 1036 H 93.3583 -3.35726 -1.95302 0
M  V30 1037 H 95.0903 -3.5899 -1.86838 0
M  V30 1038 H 91.8453 -4.73165 -0.203004 0
M  V30 1039 H 92.2693 -6.55933 1.67573 0
M  V30 1040 H 96.9113 -4.22765 -0.054443 0
M  V30 1041 H 94.6293 -7.53085 2.93067 0
M  V30 1042 H 98.2153 -5.61472 1.52448 0
M  V30 1043 H 97.0953 -7.24679 2.99683 0
M  V30 1044 N 94.5984 0.214957 -1.56127 0
M  V30 1045 C 95.5454 1.26642 -1.92952 0
M  V30 1046 C 96.5154 1.46244 -0.78753 0
M  V30 1047 O 97.7004 1.59704 -1.04399 0
M  V30 1048 C 94.8404 2.6104 -2.25726 0
M  V30 1049 C 93.9534 2.49183 -3.52891 0
M  V30 1050 C 93.0884 3.76149 -3.7508 0
M  V30 1051 C 92.1274 3.59041 -4.95738 0
M  V30 1052 N 91.2644 4.77972 -5.14283 0
M  V30 1053 H 96.1044 0.945384 -2.82607 0
M  V30 1054 H 93.6414 0.455489 -1.3987 0
M  V30 1055 H 95.5994 3.39313 -2.42739 0
M  V30 1056 H 94.2294 2.91227 -1.39236 0
M  V30 1057 H 93.2814 1.6231 -3.44034 0
M  V30 1058 H 94.5934 2.32466 -4.41318 0
M  V30 1059 H 93.7474 4.62865 -3.92226 0
M  V30 1060 H 92.4864 3.95799 -2.84947 0
M  V30 1061 H 91.4914 2.7071 -4.78535 0
M  V30 1062 H 92.7164 3.40856 -5.87362 0
M  V30 1063 H 90.6624 4.97923 -4.27093 0
M  V30 1064 H 90.5794 4.64006 -5.96853 0
M  V30 1065 H 91.8474 5.66096 -5.35869 0
M  V30 1066 N 96.0765 1.50051 0.48192 0
M  V30 1067 C 97.0065 1.71046 1.58951 0
M  V30 1068 C 97.9875 0.559288 1.60642 0
M  V30 1069 O 99.1725 0.797243 1.77081 0
M  V30 1070 C 96.3025 1.79462 2.97339 0
M  V30 1071 C 95.2565 2.94558 3.10515 0
M  V30 1072 C 94.5825 2.88105 4.50444 0
M  V30 1073 C 95.8825 4.35227 2.88747 0
M  V30 1074 H 97.5765 2.6378 1.41635 0
M  V30 1075 H 95.1225 1.26936 0.679942 0
M  V30 1076 H 97.0755 1.92734 3.74742 0
M  V30 1077 H 95.7995 0.833412 3.15788 0
M  V30 1078 H 94.4585 2.80918 2.35543 0
M  V30 1079 H 94.1065 1.89853 4.65795 0
M  V30 1080 H 93.8065 3.65366 4.60197 0
M  V30 1081 H 95.3305 3.03412 5.29881 0
M  V30 1082 H 96.7445 4.49449 3.55905 0
M  V30 1083 H 95.1415 5.13856 3.09955 0
M  V30 1084 H 96.2115 4.48347 1.84696 0
M  V30 1085 N 97.5546 -0.734337 1.39446 0
M  V30 1086 C 98.4646 -1.87879 1.40495 0
M  V30 1087 C 99.4806 -1.714 0.299672 0
M  V30 1088 O 100.657 -1.93991 0.541249 0
M  V30 1089 C 97.7216 -3.23477 1.24754 0
M  V30 1090 C 96.7826 -3.52344 2.45259 0
M  V30 1091 C 96.0156 -4.81473 2.30259 0
M  V30 1092 O 96.2386 -5.55237 1.30643 0
M  V30 1093 O 95.1726 -5.10254 3.19256 0
M  V30 1094 H 98.9986 -1.89949 2.36966 0
M  V30 1095 H 96.5836 -0.882243 1.20569 0
M  V30 1096 H 98.4656 -4.04509 1.18111 0
M  V30 1097 H 97.1406 -3.22176 0.313781 0
M  V30 1098 H 96.0476 -2.71396 2.57478 0
M  V30 1099 H 97.3806 -3.58426 3.37331 0
M  V30 1100 N 99.0327 -1.24633 -0.964593 0
M  V30 1101 C 100.281 -1.08573 -1.70459 0
M  V30 1102 C 100.602 0.375655 -1.91347 0
M  V30 1103 O 99.8717 1.26779 -1.49345 0
M  V30 1104 H 98.4517 -0.398784 -0.631649 0
M  V30 1105 H 101.114 -1.56601 -1.16026 0
M  V30 1106 H 100.21 -1.58623 -2.68785 0
M  V30 1107 N 100.511 1.16574 -1.06058 0
M  V30 1108 C 101.421 2.2452 -0.680282 0
M  V30 1109 C 102.437 1.71348 0.302604 0
M  V30 1110 O 103.613 2.00822 0.152513 0
M  V30 1111 C 100.678 3.46629 -0.0700315 0
M  V30 1112 C 99.7388 4.14849 -1.10448 0
M  V30 1113 C 98.9718 5.31129 -0.523256 0
M  V30 1114 O 99.1948 5.66514 0.664709 0
M  V30 1115 O 98.1288 5.88526 -1.26179 0
M  V30 1116 H 101.955 2.59355 -1.58015 0
M  V30 1117 H 99.5398 1.24043 -0.832694 0
M  V30 1118 H 101.422 4.20543 0.268667 0
M  V30 1119 H 100.097 3.13573 0.803353 0
M  V30 1120 H 99.0038 3.42916 -1.49532 0
M  V30 1121 H 100.337 4.51954 -1.94931 0
M  V30 1122 N 101.989 0.842826 1.3317 0
M  V30 1123 C 102.919 0.294028 2.31641 0
M  V30 1124 C 103.9 -0.600401 1.59151 0
M  V30 1125 O 105.085 -0.523124 1.87022 0
M  V30 1126 C 102.215 -0.528416 3.43257 0
M  V30 1127 C 101.169 0.27056 4.27144 0
M  V30 1128 C 100.495 -0.675881 5.30411 0
M  V30 1129 C 101.795 1.48981 5.00602 0
M  V30 1130 H 103.489 1.11681 2.77791 0
M  V30 1131 H 101.035 0.538478 1.33553 0
M  V30 1132 H 102.988 -0.922674 4.11175 0
M  V30 1133 H 101.712 -1.38445 2.95805 0
M  V30 1134 H 100.371 0.646427 3.60856 0
M  V30 1135 H 100.019 -1.52842 4.79216 0
M  V30 1136 H 99.7189 -0.145374 5.8742 0
M  V30 1137 H 101.243 -1.06757 6.01195 0
M  V30 1138 H 102.657 1.16849 5.61266 0
M  V30 1139 H 101.054 1.95739 5.6728 0
M  V30 1140 H 102.124 2.25746 4.29147 0
M  V30 1141 N 103.467 -1.45747 0.599634 0
M  V30 1142 C 104.883 -1.57424 0.26264 0
M  V30 1143 C 105.083 -1.59222 -1.23493 0
M  V30 1144 O 104.139 -1.51825 -2.01756 0
M  V30 1145 C 105.452 -2.86061 0.926795 0
M  V30 1146 C 107 -2.99722 0.901967 0
M  V30 1147 C 107.475 -4.31119 1.54598 0
M  V30 1148 N 108.966 -4.37858 1.5111 0
M  V30 1149 C 109.701 -5.3818 1.97863 0
M  V30 1150 N 109.197 -6.45083 2.52666 0
M  V30 1151 N 110.99 -5.29487 1.88679 0
M  V30 1152 H 103.141 -1.42823 1.57211 0
M  V30 1153 H 105.404 -0.68235 0.658105 0
M  V30 1154 H 105.11 -2.90605 1.98095 0
M  V30 1155 H 104.984 -3.74563 0.445238 0
M  V30 1156 H 107.371 -2.9475 -0.143617 0
M  V30 1157 H 107.452 -2.12652 1.42171 0
M  V30 1158 H 107.096 -4.36849 2.59085 0
M  V30 1159 H 107.026 -5.16992 1.00132 0
M  V30 1160 H 109.517 -3.61209 1.11068 0
M  V30 1161 H 109.83 -7.17869 2.86155 0
M  V30 1162 H 108.175 -6.45856 2.56701 0
M  V30 1163 H 111.366 -4.44877 1.4561 0
M  V30 1164 H 111.539 -6.07524 2.25429 0
M  V30 1165 N 104.945 -0.338344 -1.53925 0
M  V30 1166 C 105.908 0.508299 -2.23493 0
M  V30 1167 C 106.908 1.03175 -1.23335 0
M  V30 1168 O 108.098 0.921826 -1.47811 0
M  V30 1169 C 105.23 1.70754 -2.95052 0
M  V30 1170 H 106.423 -0.100058 -2.99733 0
M  V30 1171 H 103.976 -0.0896198 -1.56043 0
M  V30 1172 H 104.711 2.35474 -2.22986 0
M  V30 1173 H 104.496 1.33946 -3.68512 0
M  V30 1174 H 105.986 2.30818 -3.48013 0
M  V30 1175 N 106.423 1.57458 -0.0668435 0
M  V30 1176 C 107.333 2.15937 0.916975 0
M  V30 1177 C 108.349 1.12123 1.33058 0
M  V30 1178 O 109.525 1.44366 1.40429 0
M  V30 1179 C 106.59 2.70547 2.16807 0
M  V30 1180 C 105.651 3.89215 1.81135 0
M  V30 1181 C 104.884 4.41211 3.0028 0
M  V30 1182 O 105.107 3.92225 4.14144 0
M  V30 1183 O 104.041 5.32605 2.80384 0
M  V30 1184 H 107.867 3.00354 0.449561 0
M  V30 1185 H 105.452 1.48584 0.155949 0
M  V30 1186 H 107.334 3.0557 2.90181 0
M  V30 1187 H 106.009 1.89192 2.62656 0
M  V30 1188 H 104.916 3.59054 1.05028 0
M  V30 1189 H 106.249 4.71848 1.40073 0
M  V30 1190 N 107.901 -0.206675 1.56239 0
M  V30 1191 C 109.147 -0.930218 1.80208 0
M  V30 1192 C 109.48 -1.83387 0.638981 0
M  V30 1193 O 108.755 -1.91119 -0.361066 0
M  V30 1194 C 109.038 -1.75641 3.1436 0
M  V30 1195 C 108.891 -0.878257 4.41142 0
M  V30 1196 C 110.21 -2.73129 3.45092 0
M  V30 1197 H 107.329 -0.336742 0.655571 0
M  V30 1198 H 109.971 -0.198222 1.88963 0
M  V30 1199 H 108.121 -2.38048 3.07027 0
M  V30 1200 H 109.793 -0.269787 4.6051 0
M  V30 1201 H 108.036 -0.184385 4.33408 0
M  V30 1202 H 108.707 -1.49106 5.3148 0
M  V30 1203 H 111.183 -2.20856 3.52649 0
M  V30 1204 H 110.059 -3.28028 4.40101 0
M  V30 1205 H 110.32 -3.51606 2.68003 0
M  V30 1206 N 109.379 -1.50304 -0.473955 0
M  V30 1207 C 110.342 -1.6841 -1.55469 0
M  V30 1208 C 111.342 -0.554905 -1.50922 0
M  V30 1209 O 112.532 -0.821882 -1.53593 0
M  V30 1210 C 109.664 -1.70667 -2.95102 0
M  V30 1211 H 110.857 -2.64828 -1.40733 0
M  V30 1212 H 108.41 -1.39742 -0.700132 0
M  V30 1213 H 109.145 -0.75932 -3.15285 0
M  V30 1214 H 108.93 -2.52698 -2.9981 0
M  V30 1215 H 110.42 -1.8664 -3.73571 0
M  V30 1216 N 110.857 0.726932 -1.39834 0
M  V30 1217 C 111.82 1.82269 -1.38962 0
M  V30 1218 C 112.82 1.58248 -0.285334 0
M  V30 1219 O 114.01 1.65499 -0.54366 0
M  V30 1220 C 111.142 3.20186 -1.17019 0
M  V30 1221 H 112.335 1.84443 -2.36476 0
M  V30 1222 H 109.888 0.931416 -1.25516 0
M  V30 1223 H 110.623 3.23669 -0.202204 0
M  V30 1224 H 110.408 3.3902 -1.96998 0
M  V30 1225 H 111.898 4.00235 -1.1917 0
M  V30 1226 N 112.336 1.25143 0.95797 0
M  V30 1227 C 113.284 1.05019 2.07542 0
M  V30 1228 C 114.278 -0.0178751 1.69391 0
M  V30 1229 O 115.484 0.137472 1.79474 0
M  V30 1230 H 111.859 0.32265 0.679265 0
M  V30 1231 H 113.83 1.99759 2.21673 0
M  V30 1232 C 112.579 0.682074 3.40944 0
M  V30 1233 H 111.902 1.49573 3.70767 0
M  V30 1234 H 113.342 0.580945 4.20001 0
M  V30 1235 C 111.801 -0.611608 3.31302 0
M  V30 1236 O 112.331 -1.65465 3.66038 0
M  V30 1237 N 110.537 -0.595982 2.84423 0
M  V30 1238 H 110.084 0.253192 2.56353 0
M  V30 1239 H 110.042 -1.46173 2.78354 0
M  V30 1240 N 113.814 -1.1601 1.06675 0
M  V30 1241 C 115.063 -1.85973 0.780818 0
M  V30 1242 C 115.376 -1.82819 -0.695444 0
M  V30 1243 O 116.582 -2.484 -1.09589 0
M  V30 1244 C 115.038 -3.33757 1.34665 0
M  V30 1245 C 114.646 -3.45374 2.85343 0
M  V30 1246 C 116.39 -4.0895 1.13843 0
M  V30 1247 C 114.297 -4.87266 3.35151 0
M  V30 1248 H 113.227 -0.696661 0.288407 0
M  V30 1249 H 115.878 -1.30903 1.28595 0
M  V30 1250 H 114.26 -3.88456 0.769274 0
M  V30 1251 H 115.434 -3.00816 3.49065 0
M  V30 1252 H 113.749 -2.83619 3.04876 0
M  V30 1253 H 116.346 -5.13654 1.4854 0
M  V30 1254 H 116.689 -4.16229 0.0770282 0
M  V30 1255 H 117.222 -3.605 1.68179 0
M  V30 1256 H 113.961 -4.85168 4.40786 0
M  V30 1257 H 113.481 -5.32433 2.76179 0
M  V30 1258 H 115.16 -5.56097 3.30704 0
M  V30 1259 N 115.292 -0.849877 -1.32721 0
M  V30 1260 C 116.239 -0.289033 -2.28983 0
M  V30 1261 C 117.209 0.601324 -1.54833 0
M  V30 1262 O 118.394 0.537253 -1.8308 0
M  V30 1263 C 115.534 0.520623 -3.4115 0
M  V30 1264 C 114.647 -0.394989 -4.3019 0
M  V30 1265 C 113.782 0.426834 -5.29482 0
M  V30 1266 C 112.821 -0.486476 -6.10164 0
M  V30 1267 N 111.958 0.297879 -7.01468 0
M  V30 1268 H 116.798 -1.11519 -2.76347 0
M  V30 1269 H 114.335 -0.56138 -1.35967 0
M  V30 1270 H 116.293 1.00563 -4.04899 0
M  V30 1271 H 114.923 1.31165 -2.9495 0
M  V30 1272 H 113.975 -0.99836 -3.67065 0
M  V30 1273 H 115.287 -1.09612 -4.86607 0
M  V30 1274 H 114.441 0.975205 -5.98811 0
M  V30 1275 H 113.18 1.16136 -4.73671 0
M  V30 1276 H 112.185 -1.04677 -5.39743 0
M  V30 1277 H 113.41 -1.21953 -6.6806 0
M  V30 1278 H 111.356 1.01558 -6.48091 0
M  V30 1279 H 111.273 -0.344318 -7.55216 0
M  V30 1280 H 112.541 0.828131 -7.75089 0
M  V30 1281 N 116.77 1.45427 -0.607355 0
M  V30 1282 C 118.186 1.57283 -0.270985 0
M  V30 1283 C 118.386 1.59875 1.22647 0
M  V30 1284 O 117.442 1.52893 2.00948 0
M  V30 1285 C 118.755 2.85566 -0.941952 0
M  V30 1286 C 120.303 2.9924 -0.917849 0
M  V30 1287 C 120.778 4.30293 -1.56882 0
M  V30 1288 N 122.269 4.37051 -1.5343 0
M  V30 1289 C 123.004 5.37123 -2.00715 0
M  V30 1290 N 122.5 6.43734 -2.56084 0
M  V30 1291 N 124.293 5.28479 -1.91484 0
M  V30 1292 H 116.444 1.41988 -1.57966 0
M  V30 1293 H 118.707 0.67885 -0.661715 0
M  V30 1294 H 118.413 2.8955 -1.99633 0
M  V30 1295 H 118.287 3.74322 -0.465096 0
M  V30 1296 H 120.674 2.94822 0.127984 0
M  V30 1297 H 120.755 2.11895 -1.43297 0
M  V30 1298 H 120.399 4.35469 -2.61398 0
M  V30 1299 H 120.329 5.16454 -1.02873 0
M  V30 1300 H 122.82 3.60615 -1.12982 0
M  V30 1301 H 123.133 7.16341 -2.89958 0
M  V30 1302 H 121.478 6.44485 -2.60122 0
M  V30 1303 H 124.669 4.44098 -1.47967 0
M  V30 1304 H 124.842 6.0632 -2.28648 0
M  V30 1305 N 118.248 0.346503 1.53744 0
M  V30 1306 C 119.178 -0.501193 2.28058 0
M  V30 1307 C 120.159 -1.10014 1.29734 0
M  V30 1308 O 121.344 -1.12097 1.58581 0
M  V30 1309 C 118.474 -1.65078 3.05559 0
M  V30 1310 C 117.428 -1.18003 4.11411 0
M  V30 1311 C 116.754 -2.41837 4.76884 0
M  V30 1312 C 118.054 -0.278394 5.21558 0
M  V30 1313 H 119.748 0.11875 2.99164 0
M  V30 1314 H 117.294 0.0585531 1.43881 0
M  V30 1315 H 119.247 -2.25028 3.56287 0
M  V30 1316 H 117.971 -2.29767 2.32109 0
M  V30 1317 H 116.63 -0.603331 3.61601 0
M  V30 1318 H 116.278 -3.0494 4.00026 0
M  V30 1319 H 115.978 -2.1102 5.48402 0
M  V30 1320 H 117.502 -3.02508 5.30397 0
M  V30 1321 H 118.916 -0.784823 5.67903 0
M  V30 1322 H 117.313 -0.0619707 6.00068 0
M  V30 1323 H 118.383 0.684677 4.80042 0
M  V30 1324 N 119.726 -1.57421 0.075193 0
M  V30 1325 C 120.659 -2.08528 -0.926904 0
M  V30 1326 C 121.637 -0.991171 -1.28898 0
M  V30 1327 O 122.821 -1.26479 -1.39769 0
M  V30 1328 C 119.948 -2.54576 -2.23402 0
M  V30 1329 C 118.994 -3.75454 -2.02327 0
M  V30 1330 S 119.827 -5.19989 -1.27951 0
M  V30 1331 C 120.983 -5.69372 -2.59935 0
M  V30 1332 H 121.216 -2.932 -0.492048 0
M  V30 1333 H 118.749 -1.53785 -0.137651 0
M  V30 1334 H 120.707 -2.81767 -2.98526 0
M  V30 1335 H 119.368 -1.70166 -2.64012 0
M  V30 1336 H 118.561 -4.05675 -2.99071 0
M  V30 1337 H 118.163 -3.48654 -1.35339 0
M  V30 1338 H 120.455 -5.76424 -3.56008 0
M  V30 1339 H 121.398 -6.68207 -2.34319 0
M  V30 1340 H 121.806 -4.97205 -2.67296 0
M  V30 1341 N 121.204 0.198386 -1.56346 0
M  V30 1342 C 122.481 0.944982 -1.71258 0
M  V30 1343 C 122.861 2.0151 -0.629048 0
M  V30 1344 O 122.209 2.25639 0.360473 0
M  V30 1345 C 122.419 1.5344 -3.1346 0
M  V30 1346 C 123.767 2.01778 -3.73591 0
M  V30 1347 O 124.791 1.63288 -3.16568 0
M  V30 1348 O 123.65 2.72594 -4.73661 0
M  V30 1349 H 120.744 0.442939 -0.69838 0
M  V30 1350 H 123.29 0.188342 -1.68652 0
M  V30 1351 H 122.062 0.762869 -3.83792 0
M  V30 1352 H 121.685 2.35596 -3.20282 0
M  V30 1353 N 122.682 1.50554 0.465978 0
M  V30 1354 C 123.931 1.61038 1.21448 0
M  V30 1355 C 124.244 0.31865 1.92987 0
M  V30 1356 O 125.45 0.302469 2.6981 0
M  V30 1357 C 123.906 2.84283 2.20706 0
M  V30 1358 C 123.514 4.20352 1.54946 0
M  V30 1359 C 125.258 3.04115 2.96166 0
M  V30 1360 C 123.165 5.34778 2.5252 0
M  V30 1361 H 122.095 0.599718 0.457005 0
M  V30 1362 H 124.746 1.7699 0.484424 0
M  V30 1363 H 123.128 2.61901 2.97025 0
M  V30 1364 H 124.302 4.53008 0.843811 0
M  V30 1365 H 122.617 4.06167 0.917475 0
M  V30 1366 H 125.214 3.86774 3.69202 0
M  V30 1367 H 125.557 2.16045 3.55852 0
M  V30 1368 H 126.09 3.26702 2.26959 0
M  V30 1369 H 122.829 6.25018 1.97566 0
M  V30 1370 H 122.349 5.06534 3.21222 0
M  V30 1371 H 124.028 5.65561 3.14245 0
M  V30 1372 N 124.16 -0.719506 1.40217 0
M  V30 1373 C 125.408 -1.47641 1.3801 0
M  V30 1374 C 125.729 -1.94992 -0.018145 0
M  V30 1375 O 124.999 -1.70073 -0.972207 0
M  V30 1376 H 123.579 -0.547744 0.507923 0
M  V30 1377 H 126.241 -0.853187 1.75233 0
M  V30 1378 H 125.337 -2.35112 2.05253 0
M  V30 1379 N 125.638 -1.25649 -0.95132 0
M  V30 1380 C 126.878 -1.11802 -1.71113 0
M  V30 1381 C 127.242 0.334758 -1.89059 0
M  V30 1382 O 128.443 0.595121 -2.62129 0
M  V30 1383 C 126.714 -1.85512 -3.05483 0
M  V30 1384 S 128.273 -1.87597 -3.96677 0
M  V30 1385 H 125.091 -0.399552 -0.588115 0
M  V30 1386 H 127.693 -1.59222 -1.1344 0
M  V30 1387 H 126.397 -2.90299 -2.90094 0
M  V30 1388 H 125.928 -1.38493 -3.68216 0
M  V30 1389 H 127.943 -0.955389 -4.86916 0
M  V30 1390 N 127.117 1.15442 -1.07289 0
M  V30 1391 C 128.347 1.89821 -0.815576 0
M  V30 1392 C 128.755 1.7823 0.634867 0
M  V30 1393 O 128.098 1.13152 1.44715 0
M  V30 1394 C 128.16 3.40817 -1.14385 0
M  V30 1395 C 127.824 3.76193 -2.59476 0
M  V30 1396 C 128.821 3.77269 -3.57721 0
M  V30 1397 C 126.506 4.0652 -2.95037 0
M  V30 1398 C 128.5 4.08176 -4.89562 0
M  V30 1399 C 126.187 4.37092 -4.27076 0
M  V30 1400 C 127.185 4.37902 -5.24148 0
M  V30 1401 O 126.873 4.67741 -6.53815 0
M  V30 1402 H 126.605 0.608465 -0.294528 0
M  V30 1403 H 129.159 1.472 -1.43252 0
M  V30 1404 H 127.389 3.83835 -0.469865 0
M  V30 1405 H 129.078 3.96485 -0.869179 0
M  V30 1406 H 129.844 3.5394 -3.3159 0
M  V30 1407 H 125.723 4.05049 -2.20128 0
M  V30 1408 H 129.267 4.08723 -5.65324 0
M  V30 1409 H 125.164 4.59889 -4.5296 0
M  V30 1410 H 125.932 4.85509 -6.58957 0
M  V30 1411 N 128.595 0.856903 1.32268 0
M  V30 1412 C 130.011 0.547061 1.49931 0
M  V30 1413 C 130.211 -0.921781 1.7918 0
M  V30 1414 O 129.267 -1.70469 1.8627 0
M  V30 1415 C 130.58 1.43599 2.64196 0
M  V30 1416 C 132.128 1.43665 2.78081 0
M  V30 1417 C 132.603 2.31085 3.95428 0
M  V30 1418 N 134.094 2.28893 4.02694 0
M  V30 1419 C 134.829 2.93262 4.92732 0
M  V30 1420 N 134.325 3.66751 5.87763 0
M  V30 1421 N 136.118 2.82638 4.85873 0
M  V30 1422 H 128.269 1.8075 1.11549 0
M  V30 1423 H 130.532 0.772144 0.549997 0
M  V30 1424 H 130.238 2.48058 2.49319 0
M  V30 1425 H 130.112 1.12502 3.60032 0
M  V30 1426 H 132.499 0.399701 2.92381 0
M  V30 1427 H 132.58 1.7878 1.82952 0
M  V30 1428 H 132.224 3.34849 3.81888 0
M  V30 1429 H 132.154 1.93302 4.89839 0
M  V30 1430 H 134.645 1.75466 3.34694 0
M  V30 1431 H 134.958 4.13027 6.53168 0
M  V30 1432 H 133.303 3.70859 5.87783 0
M  V30 1433 H 136.494 2.24774 4.10602 0
M  V30 1434 H 136.667 3.33084 5.55841 0
M  V30 1435 N 130.073 -1.45103 0.615059 0
M  V30 1436 C 131.321 -2.01784 0.112955 0
M  V30 1437 C 131.642 -1.48504 -1.26378 0
M  V30 1438 O 130.912 -0.682245 -1.83636 0
M  V30 1439 H 129.492 -0.745993 0.0387668 0
M  V30 1440 H 132.154 -1.77808 0.798141 0
M  V30 1441 H 131.25 -3.12025 0.0684069 0
M  V30 1442 N 131.551 -0.354651 -1.53558 0
M  V30 1443 C 132.481 0.489091 -2.2832 0
M  V30 1444 C 133.462 1.09324 -1.30316 0
M  V30 1445 O 134.647 1.11255 -1.59173 0
M  V30 1446 C 131.777 1.63456 -3.0643 0
M  V30 1447 C 130.731 1.1582 -4.12031 0
M  V30 1448 C 130.057 2.39305 -4.7816 0
M  V30 1449 C 131.357 0.250731 -5.21698 0
M  V30 1450 H 133.051 -0.134614 -2.99097 0
M  V30 1451 H 130.597 -0.0661826 -1.43848 0
M  V30 1452 H 132.55 2.23136 -3.57475 0
M  V30 1453 H 131.274 2.28533 -2.33325 0
M  V30 1454 H 129.933 0.584146 -3.61916 0
M  V30 1455 H 129.581 3.02814 -4.01637 0
M  V30 1456 H 129.281 2.08109 -5.49513 0
M  V30 1457 H 130.805 2.99691 -5.31994 0
M  V30 1458 H 132.219 0.754695 -5.68311 0
M  V30 1459 H 130.616 0.0301468 -6.00092 0
M  V30 1460 H 131.686 -0.710125 -4.79672 0
M  V30 1461 N 133.029 1.57378 -0.0835403 0
M  V30 1462 C 134.445 1.57246 0.273109 0
M  V30 1463 C 134.645 1.09385 1.69225 0
M  V30 1464 O 133.701 0.765051 2.40631 0
M  V30 1465 C 135.014 3.00614 0.0720628 0
M  V30 1466 C 136.562 3.12684 0.1407 0
M  V30 1467 C 137.037 4.57989 -0.0322094 0
M  V30 1468 N 138.528 4.63194 0.0230085 0
M  V30 1469 C 139.263 5.73335 -0.0861941 0
M  V30 1470 N 138.759 6.9235 -0.24958 0
M  V30 1471 N 140.552 5.62093 -0.0282886 0
M  V30 1472 H 132.703 1.86801 -1.0109 0
M  V30 1473 H 134.966 0.861687 -0.395222 0
M  V30 1474 H 134.672 3.39786 -0.907662 0
M  V30 1475 H 134.546 3.68193 0.81936 0
M  V30 1476 H 136.933 2.73391 1.11092 0
M  V30 1477 H 137.014 2.47719 -0.637896 0
M  V30 1478 H 136.658 4.97973 -0.999247 0
M  V30 1479 H 136.588 5.21 0.765937 0
M  V30 1480 H 139.079 3.77613 0.14722 0
M  V30 1481 H 139.392 7.72117 -0.324733 0
M  V30 1482 H 137.737 6.94415 -0.285097 0
M  V30 1483 H 140.928 4.67997 0.0981408 0
M  V30 1484 H 141.101 6.47895 -0.116845 0
M  V30 1485 N 134.507 -0.190092 1.56449 0
M  V30 1486 C 135.457 -1.23977 1.91347 0
M  V30 1487 C 136.441 -1.40747 0.779693 0
M  V30 1488 O 137.633 -1.43033 1.04262 0
M  V30 1489 C 134.762 -2.58347 2.26079 0
M  V30 1490 C 133.848 -2.4535 3.45925 0
M  V30 1491 N 134.239 -2.02039 4.63696 0
M  V30 1492 C 132.537 -2.76229 3.50162 0
M  V30 1493 C 133.238 -2.01053 5.4585 0
M  V30 1494 N 132.214 -2.42747 4.8639 0
M  V30 1495 H 136.016 -0.896318 2.79899 0
M  V30 1496 H 133.53 -0.398496 1.57435 0
M  V30 1497 H 135.527 -3.34173 2.49267 0
M  V30 1498 H 134.187 -2.93512 1.38856 0
M  V30 1499 H 135.198 -1.7267 4.88268 0
M  V30 1500 H 131.875 -3.15556 2.73369 0
M  V30 1501 H 133.265 -1.69426 6.50188 0
M  V30 1502 N 135.985 -1.50799 -0.457987 0
M  V30 1503 C 137.401 -1.38515 -0.792819 0
M  V30 1504 C 137.601 -0.451409 -1.96379 0
M  V30 1505 O 136.657 0.10112 -2.52297 0
M  V30 1506 C 137.97 -2.80149 -1.09258 0
M  V30 1507 C 139.518 -2.89156 -1.19825 0
M  V30 1508 C 139.993 -4.31651 -1.53106 0
M  V30 1509 N 141.484 -4.34662 -1.60072 0
M  V30 1510 C 142.219 -5.41928 -1.87354 0
M  V30 1511 N 141.715 -6.59384 -2.12568 0
M  V30 1512 N 143.508 -5.29385 -1.88965 0
M  V30 1513 H 135.659 -2.10073 0.313511 0
M  V30 1514 H 137.922 -0.944803 0.0777862 0
M  V30 1515 H 137.628 -3.50374 -0.305084 0
M  V30 1516 H 137.502 -3.18204 -2.02549 0
M  V30 1517 H 139.889 -2.19141 -1.97639 0
M  V30 1518 H 139.97 -2.54626 -0.244821 0
M  V30 1519 H 139.614 -5.02208 -0.758266 0
M  V30 1520 H 139.544 -4.63678 -2.49621 0
M  V30 1521 H 142.035 -3.49973 -1.42573 0
M  V30 1522 H 142.348 -7.36934 -2.32696 0
M  V30 1523 H 140.693 -6.62535 -2.09933 0
M  V30 1524 H 143.884 -4.36616 -1.68772 0
M  V30 1525 H 144.057 -6.13066 -2.09891 0
M  V30 1526 N 137.463 0.71206 -1.40597 0
M  V30 1527 C 138.879 1.02058 -1.22704 0
M  V30 1528 C 139.079 2.01228 -0.104729 0
M  V30 1529 O 138.135 2.4674 0.53624 0
M  V30 1530 C 139.448 1.56094 -2.57012 0
M  V30 1531 C 140.996 1.6806 -2.64054 0
M  V30 1532 C 141.471 2.25501 -3.9864 0
M  V30 1533 N 142.962 2.32882 -4.004 0
M  V30 1534 C 143.697 2.78317 -5.01325 0
M  V30 1535 N 143.193 3.23478 -6.12645 0
M  V30 1536 N 144.986 2.77733 -4.88693 0
M  V30 1537 H 137.137 0.0547896 -2.12329 0
M  V30 1538 H 139.4 0.0869027 -0.944008 0
M  V30 1539 H 139.106 0.906865 -3.39807 0
M  V30 1540 H 138.98 2.54564 -2.78347 0
M  V30 1541 H 141.367 2.32583 -1.81629 0
M  V30 1542 H 141.448 0.681802 -2.46546 0
M  V30 1543 H 141.092 1.61598 -4.81506 0
M  V30 1544 H 141.022 3.26102 -4.13479 0
M  V30 1545 H 143.513 2.00991 -3.20017 0
M  V30 1546 H 143.826 3.56725 -6.85542 0
M  V30 1547 H 142.171 3.21429 -6.16205 0
M  V30 1548 H 145.362 2.4179 -4.00818 0
M  V30 1549 H 145.535 3.12826 -5.67489 0
M  V30 1550 N 138.941 1.26152 0.944643 0
M  V30 1551 C 140.189 1.11271 1.6871 0
M  V30 1552 C 140.51 -0.345166 1.91921 0
M  V30 1553 O 139.78 -1.24387 1.51343 0
M  V30 1554 H 138.36 0.408783 0.625224 0
M  V30 1555 H 141.022 1.58427 1.1352 0
M  V30 1556 H 140.118 1.62879 2.66227 0
M  V30 1557 N 140.419 -1.14872 1.07899 0
M  V30 1558 C 141.349 -2.2193 0.725887 0
M  V30 1559 C 142.33 -1.67622 -0.28927 0
M  V30 1560 O 143.515 -1.93533 -0.160787 0
M  V30 1561 C 140.645 -3.47061 0.128856 0
M  V30 1562 C 139.599 -4.14363 1.07178 0
M  V30 1563 C 138.925 -5.33636 0.337229 0
M  V30 1564 C 140.225 -4.63492 2.40775 0
M  V30 1565 H 141.919 -2.51724 1.62097 0
M  V30 1566 H 139.465 -1.20991 0.780838 0
M  V30 1567 H 141.418 -4.21199 -0.130147 0
M  V30 1568 H 140.142 -3.16617 -0.80134 0
M  V30 1569 H 138.801 -3.42173 1.3158 0
M  V30 1570 H 138.449 -4.99449 -0.596606 0
M  V30 1571 H 138.149 -5.79609 0.965788 0
M  V30 1572 H 139.673 -6.10539 0.0861567 0
M  V30 1573 H 141.087 -5.2913 2.20669 0
M  V30 1574 H 139.484 -5.20148 2.99276 0
M  V30 1575 H 140.554 -3.78834 3.02676 0
M  V30 1576 N 141.898 -0.863906 -1.31812 0
M  V30 1577 C 143.309 -0.52522 -1.7916 0
M  V30 1578 C 143.66 0.957518 -1.71248 0
M  V30 1579 O 142.785 1.74734 -1.27659 0
M  V30 1580 C 143.38 -0.9466 -3.25307 0
M  V30 1581 C 141.939 -0.659668 -3.70574 0
M  V30 1582 C 141.086 -1.14126 -2.52726 0
M  V30 1583 H 144.037 -1.05022 -1.1898 0
M  V30 1584 H 144.058 -0.266766 -3.79564 0
M  V30 1585 H 143.57 -2.02579 -3.31034 0
M  V30 1586 H 141.671 0.408416 -3.70355 0
M  V30 1587 H 141.784 -1.23245 -4.62977 0
M  V30 1588 H 140.148 -0.561216 -2.4844 0
M  V30 1589 H 140.931 -2.22775 -2.61201 0
M  V30 1590 N 143.376 1.44774 -0.622745 0
M  V30 1591 C 144.622 2.0242 -0.124083 0
M  V30 1592 C 144.955 1.4881 1.24777 0
M  V30 1593 O 144.23 0.668799 1.8264 0
M  V30 1594 C 144.513 3.59957 -0.101619 0
M  V30 1595 C 144.366 4.23867 -1.50521 0
M  V30 1596 C 145.685 4.36284 0.578272 0
M  V30 1597 H 142.804 0.735528 -0.0465645 0
M  V30 1598 H 145.446 1.72447 -0.797617 0
M  V30 1599 H 143.596 3.85623 0.471934 0
M  V30 1600 H 145.268 4.09336 -2.12701 0
M  V30 1601 H 143.511 3.81684 -2.06154 0
M  V30 1602 H 144.182 5.32843 -1.4416 0
M  V30 1603 H 146.658 4.16001 0.0906057 0
M  V30 1604 H 145.534 5.46004 0.563149 0
M  V30 1605 H 145.795 4.10271 1.64713 0
M  V30 1606 N 144.854 0.36279 1.53368 0
M  V30 1607 C 146.27 0.0116182 1.59596 0
M  V30 1608 C 146.47 -1.47012 1.37803 0
M  V30 1609 O 145.526 -2.23136 1.18181 0
M  V30 1610 C 146.839 0.465052 2.97082 0
M  V30 1611 C 148.387 0.419033 3.10182 0
M  V30 1612 C 148.862 0.848235 4.50077 0
M  V30 1613 N 150.353 0.803183 4.56183 0
M  V30 1614 C 151.088 1.107 5.62613 0
M  V30 1615 N 150.584 1.47996 6.76808 0
M  V30 1616 N 152.377 1.02998 5.52583 0
M  V30 1617 H 144.528 1.32775 1.65785 0
M  V30 1618 H 146.791 0.542518 0.777417 0
M  V30 1619 H 146.497 1.49892 3.18159 0
M  V30 1620 H 146.371 -0.149786 3.76902 0
M  V30 1621 H 148.758 -0.605696 2.88817 0
M  V30 1622 H 148.839 1.06933 2.32377 0
M  V30 1623 H 148.483 1.87107 4.7218 0
M  V30 1624 H 148.413 0.175218 5.26308 0
M  V30 1625 H 150.904 0.52838 3.74188 0
M  V30 1626 H 151.217 1.69613 7.53957 0
M  V30 1627 H 149.562 1.51859 6.78206 0
M  V30 1628 H 152.753 0.737817 4.62249 0
M  V30 1629 H 152.926 1.2701 6.35431 0
M  V30 1630 N 146.332 -1.57332 0.0918853 0
M  V30 1631 C 147.58 -1.93853 -0.571446 0
M  V30 1632 C 147.901 -0.974212 -1.6892 0
M  V30 1633 O 147.171 -0.0257254 -1.95883 0
M  V30 1634 H 145.751 -0.715666 -0.214082 0
M  V30 1635 H 148.413 -1.94287 0.154464 0
M  V30 1636 H 147.509 -2.96191 -0.983729 0
M  V30 1637 N 147.81 0.181792 -1.56548 0
M  V30 1638 C 148.742 1.24956 -1.92142 0
M  V30 1639 C 149.755 1.41022 -0.813422 0
M  V30 1640 O 150.944 1.41212 -1.09186 0
M  V30 1641 C 148.044 2.61981 -2.14987 0
M  V30 1642 C 147.217 2.6735 -3.46183 0
M  V30 1643 C 146.276 3.85664 -3.5798 0
M  V30 1644 O 145.302 3.72148 -4.30691 0
M  V30 1645 N 146.504 5.01683 -2.92053 0
M  V30 1646 H 149.269 0.947329 -2.84334 0
M  V30 1647 H 146.83 0.371629 -1.57577 0
M  V30 1648 H 148.822 3.3958 -2.20154 0
M  V30 1649 H 147.392 2.84637 -1.2923 0
M  V30 1650 H 146.612 1.75925 -3.52766 0
M  V30 1651 H 147.9 2.67939 -4.32534 0
M  V30 1652 H 147.298 5.15564 -2.32832 0
M  V30 1653 H 145.855 5.77181 -3.0283 0
M  V30 1654 N 149.288 1.51039 0.449983 0
M  V30 1655 C 150.704 1.38934 0.785462 0
M  V30 1656 C 150.904 0.461817 1.96136 0
M  V30 1657 O 149.96 -0.0877389 2.52348 0
M  V30 1658 C 151.273 2.80724 1.0777 0
M  V30 1659 C 152.821 2.89787 1.1829 0
M  V30 1660 C 153.296 4.32457 1.50815 0
M  V30 1661 N 154.787 4.35505 1.57764 0
M  V30 1662 C 155.522 5.42914 1.84477 0
M  V30 1663 N 155.018 6.60502 2.09068 0
M  V30 1664 N 156.811 5.3038 1.86155 0
M  V30 1665 H 148.962 2.09904 -0.324647 0
M  V30 1666 H 151.225 0.944378 -0.0827957 0
M  V30 1667 H 150.931 3.50531 0.286498 0
M  V30 1668 H 150.805 3.19273 2.00859 0
M  V30 1669 H 153.192 2.20186 1.96474 0
M  V30 1670 H 153.273 2.54752 0.231314 0
M  V30 1671 H 152.917 5.02603 0.731622 0
M  V30 1672 H 152.847 4.64995 2.47158 0
M  V30 1673 H 155.338 3.50724 1.40715 0
M  V30 1674 H 155.651 7.38158 2.28785 0
M  V30 1675 H 153.996 6.63639 2.06416 0
M  V30 1676 H 157.187 4.37505 1.66454 0
M  V30 1677 H 157.36 6.1417 2.06637 0
M  V30 1678 N 150.766 -0.704594 1.40972 0
M  V30 1679 C 151.994 -1.49354 1.43182 0
M  V30 1680 C 152.409 -1.88768 0.0345508 0
M  V30 1681 O 151.766 -1.56184 -0.944081 0
M  V30 1682 C 151.817 -2.76187 2.33244 0
M  V30 1683 O 151.538 -2.38436 3.67532 0
M  V30 1684 C 153.039 -3.7 2.44162 0
M  V30 1685 H 150.259 -0.460559 0.487982 0
M  V30 1686 H 152.803 -0.868261 1.85153 0
M  V30 1687 H 150.958 -3.34974 1.94606 0
M  V30 1688 H 151.372 -3.20126 4.15475 0
M  V30 1689 H 152.846 -4.55803 3.11364 0
M  V30 1690 H 153.323 -4.13867 1.47006 0
M  V30 1691 H 153.929 -3.17121 2.83398 0
M  V30 1692 N 152.244 -1.26651 -0.937939 0
M  V30 1693 C 153.66 -1.03834 -1.21205 0
M  V30 1694 C 153.86 0.234502 -2.00131 0
M  V30 1695 O 152.916 0.942767 -2.3424 0
M  V30 1696 C 154.229 -2.27167 -1.97017 0
M  V30 1697 C 155.777 -2.32101 -2.09996 0
M  V30 1698 C 156.252 -3.55136 -2.8921 0
M  V30 1699 N 157.743 -3.55632 -2.96783 0
M  V30 1700 C 158.478 -4.475 -3.58512 0
M  V30 1701 N 157.974 -5.4966 -4.21717 0
M  V30 1702 N 159.767 -4.35145 -3.55816 0
M  V30 1703 H 151.918 -2.08398 -0.410391 0
M  V30 1704 H 154.181 -0.916031 -0.244114 0
M  V30 1705 H 153.887 -3.19765 -1.46434 0
M  V30 1706 H 153.761 -2.31672 -2.97671 0
M  V30 1707 H 156.148 -1.40015 -2.59769 0
M  V30 1708 H 156.229 -2.31605 -1.08594 0
M  V30 1709 H 155.873 -4.47553 -2.40123 0
M  V30 1710 H 155.803 -3.5288 -3.90875 0
M  V30 1711 H 158.294 -2.81743 -2.51852 0
M  V30 1712 H 158.607 -6.15943 -4.66727 0
M  V30 1713 H 156.952 -5.53514 -4.20294 0
M  V30 1714 H 160.143 -3.5455 -3.05634 0
M  V30 1715 H 160.316 -5.06934 -4.03636 0
M  V30 1716 N 153.722 1.14298 -1.08507 0
M  V30 1717 C 154.95 1.89219 -0.836876 0
M  V30 1718 C 155.365 1.78638 0.611054 0
M  V30 1719 O 154.722 1.14643 1.41998 0
M  V30 1720 C 154.773 3.39158 -1.25116 0
M  V30 1721 O 154.494 3.49449 -2.64229 0
M  V30 1722 C 155.995 4.31073 -1.03398 0
M  V30 1723 H 153.215 0.599328 -0.301739 0
M  V30 1724 H 155.759 1.44746 -1.44461 0
M  V30 1725 H 153.914 3.81251 -0.687514 0
M  V30 1726 H 154.328 4.42589 -2.81452 0
M  V30 1727 H 155.802 5.34646 -1.37323 0
M  V30 1728 H 156.279 4.3919 0.0289259 0
M  V30 1729 H 156.885 3.94738 -1.58311 0
M  V30 1730 N 155.201 0.870884 1.31352 0
M  V30 1731 C 156.149 0.316445 2.30437 0
M  V30 1732 C 157.143 -0.568965 1.59559 0
M  V30 1733 O 158.349 -0.454964 1.74155 0
M  V30 1734 H 154.724 0.0836521 0.747333 0
M  V30 1735 H 156.695 1.16606 2.74673 0
M  V30 1736 C 155.444 -0.46635 3.44558 0
M  V30 1737 H 154.767 0.205687 3.99271 0
M  V30 1738 H 156.207 -0.819614 4.16003 0
M  V30 1739 C 154.666 -1.65797 2.9328 0
M  V30 1740 O 155.196 -2.75728 2.92125 0
M  V30 1741 N 153.402 -1.49041 2.4947 0
M  V30 1742 H 152.949 -0.59612 2.50608 0
M  V30 1743 H 152.907 -2.28911 2.15516 0
M  V30 1744 N 156.679 -1.44442 0.630414 0
M  V30 1745 C 157.642 -2.29107 -0.0652523 0
M  V30 1746 C 158.642 -1.41002 -0.772995 0
M  V30 1747 O 159.832 -1.62881 -0.617692 0
M  V30 1748 C 156.964 -3.22564 -1.10296 0
M  V30 1749 H 158.157 -2.92103 0.679401 0
M  V30 1750 H 155.71 -1.51343 0.390517 0
M  V30 1751 H 156.445 -2.64416 -1.87762 0
M  V30 1752 H 156.23 -3.87491 -0.59941 0
M  V30 1753 H 157.72 -3.86167 -1.5895 0
M  V30 1754 N 158.157 -0.370918 -1.53173 0
M  V30 1755 C 159.573 -0.0200818 -1.59587 0
M  V30 1756 C 159.773 1.46279 -1.38581 0
M  V30 1757 O 158.829 2.22506 -1.19363 0
M  V30 1758 C 160.142 -0.4808 -2.96831 0
M  V30 1759 C 161.69 -0.435477 -3.09956 0
M  V30 1760 C 162.165 -0.872092 -4.4962 0
M  V30 1761 N 163.656 -0.827364 -4.55751 0
M  V30 1762 C 164.391 -1.13683 -5.62018 0
M  V30 1763 N 163.887 -1.51584 -6.76014 0
M  V30 1764 N 165.68 -1.05927 -5.52029 0
M  V30 1765 H 157.831 -1.33652 -1.65079 0
M  V30 1766 H 160.094 -0.546634 -0.774529 0
M  V30 1767 H 159.8 -1.51577 -3.1736 0
M  V30 1768 H 159.674 0.129796 -3.76977 0
M  V30 1769 H 162.061 0.590371 -2.89134 0
M  V30 1770 H 162.142 -1.08164 -2.31806 0
M  V30 1771 H 161.786 -1.89608 -4.71181 0
M  V30 1772 H 161.716 -0.203127 -5.26208 0
M  V30 1773 H 164.207 -0.548216 -3.73902 0
M  V30 1774 H 164.52 -1.73609 -7.53047 0
M  V30 1775 H 162.865 -1.55454 -6.77391 0
M  V30 1776 H 166.056 -0.762321 -4.61851 0
M  V30 1777 H 166.229 -1.30378 -6.34749 0
M  V30 1778 N 159.635 1.57281 -0.100228 0
M  V30 1779 C 160.863 1.98879 0.570509 0
M  V30 1780 C 161.278 0.979476 1.61405 0
M  V30 1781 O 160.635 -0.0302288 1.82475 0
M  V30 1782 C 160.686 3.4052 1.2136 0
M  V30 1783 O 160.407 4.37588 0.211786 0
M  V30 1784 C 161.908 3.97149 1.96945 0
M  V30 1785 H 159.128 0.653428 0.152555 0
M  V30 1786 H 161.672 2.03697 -0.18103 0
M  V30 1787 H 159.827 3.367 1.91603 0
M  V30 1788 H 160.241 5.20118 0.676607 0
M  V30 1789 H 161.715 4.98393 2.37294 0
M  V30 1790 H 162.192 3.3525 2.83733 0
M  V30 1791 H 162.798 4.04458 1.31506 0
M  V30 1792 N 161.113 -0.173488 1.56642 0
M  V30 1793 C 162.529 -0.525174 1.50712 0
M  V30 1794 C 162.729 -1.8476 0.804107 0
M  V30 1795 O 161.785 -2.49869 0.363574 0
M  V30 1796 C 163.098 -0.559937 2.95441 0
M  V30 1797 C 164.646 -0.647288 3.06234 0
M  V30 1798 C 165.121 -0.712963 4.52417 0
M  V30 1799 N 166.612 -0.775911 4.56655 0
M  V30 1800 C 167.347 -0.847264 5.67106 0
M  V30 1801 N 166.843 -0.879585 6.87194 0
M  V30 1802 N 168.636 -0.886117 5.55071 0
M  V30 1803 H 160.787 0.693681 2.00753 0
M  V30 1804 H 163.05 0.249841 0.914485 0
M  V30 1805 H 162.756 0.343049 3.50023 0
M  V30 1806 H 162.63 -1.40718 3.49969 0
M  V30 1807 H 165.017 -1.5407 2.51687 0
M  V30 1808 H 165.098 0.226586 2.54794 0
M  V30 1809 H 164.742 0.176183 5.07594 0
M  V30 1810 H 164.672 -1.60295 5.0161 0
M  V30 1811 H 167.163 -0.759304 3.70193 0
M  V30 1812 H 167.476 -0.935144 7.67121 0
M  V30 1813 H 165.821 -0.847898 6.89808 0
M  V30 1814 H 169.012 -0.857853 4.60172 0
M  V30 1815 H 169.185 -0.938263 6.41171 0
M  V30 1816 N 162.591 -1.51276 -0.441967 0
M  V30 1817 C 163.538 -1.72256 -1.53612 0
M  V30 1818 C 164.508 -0.564164 -1.56225 0
M  V30 1819 O 165.693 -0.798074 -1.73307 0
M  V30 1820 C 162.833 -1.84932 -2.91366 0
M  V30 1821 C 161.946 -3.12459 -2.98317 0
M  V30 1822 C 161.081 -3.15758 -4.27166 0
M  V30 1823 C 160.12 -4.37619 -4.27967 0
M  V30 1824 N 159.257 -4.38493 -5.48333 0
M  V30 1825 H 164.097 -2.65654 -1.35026 0
M  V30 1826 H 161.634 -1.31662 -0.656009 0
M  V30 1827 H 163.592 -1.90263 -3.7129 0
M  V30 1828 H 162.222 -0.949461 -3.08521 0
M  V30 1829 H 161.274 -3.1646 -2.11086 0
M  V30 1830 H 162.586 -4.02382 -2.94771 0
M  V30 1831 H 161.74 -3.19979 -5.15459 0
M  V30 1832 H 160.479 -2.23715 -4.33362 0
M  V30 1833 H 159.484 -4.33579 -3.38067 0
M  V30 1834 H 160.709 -5.30921 -4.23438 0
M  V30 1835 H 158.655 -3.49318 -5.55259 0
M  V30 1836 H 158.572 -5.22219 -5.46647 0
M  V30 1837 H 159.84 -4.469 -6.38671 0
M  V30 1838 N 164.069 0.697108 -1.41344 0
M  V30 1839 C 165.317 1.45426 -1.40341 0
M  V30 1840 C 165.638 1.94996 -0.0128787 0
M  V30 1841 O 164.908 1.71599 0.945027 0
M  V30 1842 H 163.488 0.539594 -0.516573 0
M  V30 1843 H 166.15 0.825201 -1.76569 0
M  V30 1844 H 165.246 2.31817 -2.08967 0
M  V30 1845 N 165.547 1.27147 0.931209 0
M  V30 1846 C 166.958 1.12044 1.49342 0
M  V30 1847 C 167.309 -0.295795 1.93957 0
M  V30 1848 O 166.434 -1.18835 1.80852 0
M  V30 1849 C 167.029 2.02781 2.71414 0
M  V30 1850 C 165.588 1.91794 3.2387 0
M  V30 1851 C 164.735 1.95543 1.96617 0
M  V30 1852 H 167.686 1.40091 0.745672 0
M  V30 1853 H 167.707 1.58156 3.46074 0
M  V30 1854 H 167.219 3.05848 2.38911 0
M  V30 1855 H 165.32 0.916992 3.6114 0
M  V30 1856 H 165.433 2.77852 3.90302 0
M  V30 1857 H 163.797 1.39722 2.12955 0
M  V30 1858 H 164.58 3.00259 1.66432 0
M  V30 1859 N 167.025 -1.13721 1.09112 0
M  V30 1860 C 168.441 -1.36914 0.820174 0
M  V30 1861 C 168.641 -1.93356 -0.567079 0
M  V30 1862 O 167.697 -2.15093 -1.32255 0
M  V30 1863 C 169.01 -2.3235 1.90877 0
M  V30 1864 C 170.558 -2.45973 1.93562 0
M  V30 1865 C 171.033 -3.44714 3.01556 0
M  V30 1866 N 172.524 -3.52263 3.00775 0
M  V30 1867 C 173.259 -4.28536 3.80978 0
M  V30 1868 N 172.755 -5.07991 4.71081 0
M  V30 1869 N 174.548 -4.23804 3.69251 0
M  V30 1870 H 166.699 -0.754348 1.98553 0
M  V30 1871 H 168.962 -0.3944 0.862063 0
M  V30 1872 H 168.668 -1.98027 2.90651 0
M  V30 1873 H 168.542 -3.32332 1.78424 0
M  V30 1874 H 170.929 -2.79584 0.944286 0
M  V30 1875 H 171.01 -1.45926 2.10093 0
M  V30 1876 H 170.654 -3.11835 4.00901 0
M  V30 1877 H 170.584 -4.44558 2.82269 0
M  V30 1878 H 173.075 -2.95567 2.35475 0
M  V30 1879 H 173.388 -5.63487 5.28869 0
M  V30 1880 H 171.733 -5.07235 4.75119 0
M  V30 1881 H 174.924 -3.60806 2.98222 0
M  V30 1882 H 175.097 -4.82995 4.31995 0
M  V30 1883 N 168.503 -0.877838 -1.30888 0
M  V30 1884 C 169.45 -0.337538 -2.28318 0
M  V30 1885 C 170.42 0.568346 -1.56074 0
M  V30 1886 O 171.605 0.498298 -1.84178 0
M  V30 1887 C 168.745 0.448142 -3.42178 0
M  V30 1888 C 167.858 -0.48615 -4.29256 0
M  V30 1889 C 166.993 0.314427 -5.30269 0
M  V30 1890 C 166.032 -0.615791 -6.08995 0
M  V30 1891 N 165.169 0.14902 -7.01942 0
M  V30 1892 H 170.009 -1.17356 -2.73919 0
M  V30 1893 H 167.546 -0.590094 -1.34745 0
M  V30 1894 H 169.504 0.919517 -4.06941 0
M  V30 1895 H 168.134 1.24879 -2.97666 0
M  V30 1896 H 167.186 -1.076 -3.64865 0
M  V30 1897 H 168.498 -1.19909 -4.84173 0
M  V30 1898 H 167.652 0.847969 -6.00745 0
M  V30 1899 H 166.391 1.06062 -4.76027 0
M  V30 1900 H 165.396 -1.16102 -5.37401 0
M  V30 1901 H 166.621 -1.36097 -6.65323 0
M  V30 1902 H 164.567 0.877884 -6.50099 0
M  V30 1903 H 164.484 -0.504433 -7.54315 0
M  V30 1904 H 165.752 0.663537 -7.76671 0
M  V30 1905 N 169.982 1.44106 -0.638065 0
M  V30 1906 C 171.21 2.06336 -0.152615 0
M  V30 1907 C 171.625 1.47731 1.17563 0
M  V30 1908 O 170.982 0.602806 1.72257 0
M  V30 1909 C 171.033 3.61479 -0.0391491 0
M  V30 1910 O 170.754 4.17903 -1.31487 0
M  V30 1911 C 172.255 4.40757 0.474176 0
M  V30 1912 H 169.475 0.665862 -0.0828776 0
M  V30 1913 H 172.019 1.84862 -0.87443 0
M  V30 1914 H 170.174 3.82191 0.633142 0
M  V30 1915 H 170.588 5.11416 -1.16421 0
M  V30 1916 H 172.062 5.49707 0.502562 0
M  V30 1917 H 172.539 4.12697 1.50258 0
M  V30 1918 H 173.145 4.24979 -0.165102 0
M  V30 1919 N 171.46 0.379036 1.52974 0
M  V30 1920 C 172.706 -0.206727 2.01744 0
M  V30 1921 C 173.039 -1.47314 1.26539 0
M  V30 1922 O 172.314 -1.91084 0.362903 0
M  V30 1923 C 172.597 -0.485066 3.56818 0
M  V30 1924 C 172.45 0.795919 4.42702 0
M  V30 1925 C 173.769 -1.28003 4.21074 0
M  V30 1926 H 170.888 -0.0736607 0.73331 0
M  V30 1927 H 173.53 0.506581 1.83122 0
M  V30 1928 H 171.68 -1.09272 3.72816 0
M  V30 1929 H 173.352 1.43307 4.38476 0
M  V30 1930 H 171.595 1.41344 4.10127 0
M  V30 1931 H 172.266 0.555947 5.49193 0
M  V30 1932 H 174.742 -0.765867 4.08991 0
M  V30 1933 H 173.618 -1.44352 5.29579 0
M  V30 1934 H 173.879 -2.29236 3.78026 0
M  V30 1935 N 172.938 -1.57226 0.108567 0
M  V30 1936 C 173.901 -2.13602 -0.831082 0
M  V30 1937 C 174.901 -1.06841 -1.20173 0
M  V30 1938 O 176.091 -1.32666 -1.12895 0
M  V30 1939 C 173.223 -2.66769 -2.12243 0
M  V30 1940 H 174.416 -2.97951 -0.341317 0
M  V30 1941 H 171.969 -1.55667 -0.14057 0
M  V30 1942 H 172.704 -1.85977 -2.65675 0
M  V30 1943 H 172.489 -3.44839 -1.86625 0
M  V30 1944 H 173.979 -3.10332 -2.79435 0
M  V30 1945 N 174.416 0.165178 -1.56732 0
M  V30 1946 C 175.664 0.879068 -1.8198 0
M  V30 1947 C 175.985 1.82514 -0.686561 0
M  V30 1948 O 175.255 1.93694 0.293146 0
M  V30 1949 H 173.835 0.327608 -0.671329 0
M  V30 1950 H 176.497 0.163526 -1.94213 0
M  V30 1951 H 175.593 1.45228 -2.76252 0
M  V30 1952 N 175.894 1.51508 0.433938 0
M  V30 1953 C 176.841 1.73068 1.52696 0
M  V30 1954 C 177.811 0.572441 1.55924 0
M  V30 1955 O 178.996 0.807253 1.72882 0
M  V30 1956 C 176.136 1.86474 2.90381 0
M  V30 1957 C 175.249 3.14037 2.96656 0
M  V30 1958 C 174.384 3.18019 4.25485 0
M  V30 1959 C 173.423 4.39882 4.2564 0
M  V30 1960 N 172.56 4.41394 5.45999 0
M  V30 1961 H 177.4 2.66366 1.33615 0
M  V30 1962 H 174.937 1.32008 0.649018 0
M  V30 1963 H 176.895 1.92229 3.70275 0
M  V30 1964 H 175.525 0.965809 3.08013 0
M  V30 1965 H 174.577 3.17575 2.09404 0
M  V30 1966 H 175.889 4.0394 2.92633 0
M  V30 1967 H 175.043 3.22708 5.13755 0
M  V30 1968 H 173.782 2.2601 4.3217 0
M  V30 1969 H 172.787 4.35366 3.35763 0
M  V30 1970 H 174.012 5.33159 4.20617 0
M  V30 1971 H 171.958 3.52258 5.53399 0
M  V30 1972 H 171.875 5.25111 5.4387 0
M  V30 1973 H 173.143 4.50281 6.36292 0
M  V30 1974 N 177.372 -0.689602 1.41712 0
M  V30 1975 C 178.319 -1.80345 1.44029 0
M  V30 1976 C 179.289 -1.63478 0.293948 0
M  V30 1977 O 180.474 -1.84244 0.495869 0
M  V30 1978 C 177.614 -3.18272 1.33405 0
M  V30 1979 C 176.727 -3.46529 2.57956 0
M  V30 1980 C 175.862 -4.74103 2.39582 0
M  V30 1981 C 174.901 -4.95347 3.5958 0
M  V30 1982 N 174.038 -6.14151 3.40239 0
M  V30 1983 H 178.878 -1.77698 2.39222 0
M  V30 1984 H 176.415 -0.867688 1.18784 0
M  V30 1985 H 178.373 -3.97956 1.25246 0
M  V30 1986 H 177.003 -3.2008 0.418164 0
M  V30 1987 H 176.055 -2.61207 2.76542 0
M  V30 1988 H 177.367 -3.58126 3.47199 0
M  V30 1989 H 176.521 -5.61853 2.28924 0
M  V30 1990 H 175.26 -4.64763 1.47805 0
M  V30 1991 H 174.265 -4.06044 3.70686 0
M  V30 1992 H 175.49 -5.06542 4.52318 0
M  V30 1993 H 173.436 -6.06013 2.51167 0
M  V30 1994 H 173.353 -6.26543 4.23061 0
M  V30 1995 H 174.621 -7.04619 3.33365 0
M  V30 1996 N 178.85 -1.27639 -0.924453 0
M  V30 1997 C 179.797 -1.10644 -2.0255 0
M  V30 1998 C 180.767 -0.00658438 -1.66099 0
M  V30 1999 O 181.952 -0.16952 -1.90045 0
M  V30 2000 C 179.092 -0.76309 -3.36557 0
M  V30 2001 C 178.205 -1.94091 -3.85944 0
M  V30 2002 C 177.34 -1.53914 -5.08413 0
M  V30 2003 C 176.379 -2.68425 -5.50104 0
M  V30 2004 N 175.516 -2.28815 -6.63768 0
M  V30 2005 H 180.356 -2.04858 -2.16419 0
M  V30 2006 H 177.893 -1.01974 -1.06017 0
M  V30 2007 H 179.851 -0.544822 -4.13627 0
M  V30 2008 H 178.481 0.142102 -3.22487 0
M  V30 2009 H 177.533 -2.27162 -3.05125 0
M  V30 2010 H 178.845 -2.7998 -4.12811 0
M  V30 2011 H 177.999 -1.28231 -5.92994 0
M  V30 2012 H 176.738 -0.651391 -4.8333 0
M  V30 2013 H 175.743 -2.94819 -4.64071 0
M  V30 2014 H 176.968 -3.57826 -5.7718 0
M  V30 2015 H 174.914 -1.42495 -6.40337 0
M  V30 2016 H 174.831 -3.08242 -6.90306 0
M  V30 2017 H 176.099 -2.06387 -7.51681 0
M  V30 2018 N 180.328 1.1314 -1.09713 0
M  V30 2019 C 181.291 2.16831 -0.742751 0
M  V30 2020 C 182.291 1.59159 0.229129 0
M  V30 2021 O 183.481 1.74199 0.00693237 0
M  V30 2022 C 180.613 3.40756 -0.0989168 0
M  V30 2023 H 181.806 2.49695 -1.66109 0
M  V30 2024 H 179.359 1.2802 -0.896699 0
M  V30 2025 H 180.094 3.13485 0.830514 0
M  V30 2026 H 179.879 3.83888 -0.798265 0
M  V30 2027 H 181.369 4.17386 0.133524 0
M  V30 2028 N 181.806 0.884767 1.30421 0
M  V30 2029 C 183.217 0.553656 1.78302 0
M  V30 2030 C 183.568 -0.930153 1.7275 0
M  V30 2031 O 182.693 -1.72681 1.30423 0
M  V30 2032 C 183.288 0.998234 3.2376 0
M  V30 2033 C 181.847 0.71854 3.69478 0
M  V30 2034 C 180.994 1.18132 2.50879 0
M  V30 2035 H 183.945 1.06901 1.17294 0
M  V30 2036 H 183.966 0.327118 3.79091 0
M  V30 2037 H 183.478 2.0782 3.27769 0
M  V30 2038 H 181.579 -0.349444 3.70958 0
M  V30 2039 H 181.692 1.30595 4.60958 0
M  V30 2040 H 180.056 0.600669 2.47516 0
M  V30 2041 H 180.839 2.26902 2.57624 0
M  V30 2042 N 183.284 -1.43765 0.645699 0
M  V30 2043 C 184.7 -1.56509 0.312591 0
M  V30 2044 C 184.9 -1.6307 -1.18365 0
M  V30 2045 O 183.956 -1.58167 -1.96824 0
M  V30 2046 C 185.269 -2.82968 1.01733 0
M  V30 2047 C 186.817 -2.96701 0.996865 0
M  V30 2048 C 187.292 -4.25982 1.68236 0
M  V30 2049 N 188.783 -4.32829 1.64964 0
M  V30 2050 C 189.518 -5.31613 2.14885 0
M  V30 2051 N 189.014 -6.36718 2.73061 0
M  V30 2052 N 190.807 -5.23217 2.05428 0
M  V30 2053 H 182.958 -1.3775 1.61675 0
M  V30 2054 H 185.221 -0.661067 0.679481 0
M  V30 2055 H 184.927 -2.84156 2.0724 0
M  V30 2056 H 184.801 -3.72957 0.564177 0
M  V30 2057 H 187.188 -2.95058 -0.0497719 0
M  V30 2058 H 187.269 -2.08022 1.48865 0
M  V30 2059 H 186.913 -4.28386 2.72852 0
M  V30 2060 H 186.843 -5.13545 1.16529 0
M  V30 2061 H 189.334 -3.57493 1.22503 0
M  V30 2062 H 189.647 -7.08401 3.08848 0
M  V30 2063 H 187.992 -6.37362 2.77118 0
M  V30 2064 H 191.183 -4.40019 1.59689 0
M  V30 2065 H 191.356 -6.00045 2.44643 0
M  V30 2066 N 184.763 -0.387143 -1.52771 0
M  V30 2067 C 185.71 0.449048 -2.26389 0
M  V30 2068 C 186.68 1.05961 -1.27912 0
M  V30 2069 O 187.865 1.08804 -1.56737 0
M  V30 2070 C 185.005 1.57155 -3.0724 0
M  V30 2071 C 184.118 0.984066 -4.20643 0
M  V30 2072 C 183.253 2.07745 -4.88892 0
M  V30 2073 C 182.292 1.46574 -5.94292 0
M  V30 2074 N 181.429 2.49834 -6.56146 0
M  V30 2075 H 186.269 -0.185205 -2.97424 0
M  V30 2076 H 183.806 -0.103164 -1.46738 0
M  V30 2077 H 185.764 2.23309 -3.52405 0
M  V30 2078 H 184.394 2.17615 -2.38419 0
M  V30 2079 H 183.446 0.212193 -3.79808 0
M  V30 2080 H 184.758 0.497029 -4.96318 0
M  V30 2081 H 183.912 2.81673 -5.3735 0
M  V30 2082 H 182.651 2.59807 -4.12737 0
M  V30 2083 H 181.656 0.711696 -5.45174 0
M  V30 2084 H 182.881 0.953088 -6.72379 0
M  V30 2085 H 180.827 3.0107 -5.82832 0
M  V30 2086 H 180.744 2.05879 -7.27427 0
M  V30 2087 H 182.012 3.23399 -7.09249 0
M  V30 2088 O 186.28 1.59438 -0.257276 0
M  V30 2089 H 186.971 1.91101 0.316273 0
M  V30 END ATOM
M  V30 BEGIN BOND
M  V30 END BOND
M  V30 END CTAB
M  END
$$$$
