drugbank_target|Q6IB77 Glycine N-acyltransferase (DB00145)
 OpenBabel12092120083D

  0  0  0     0  0            999 V3000
M  V30 BEGIN CTAB
M  V30 COUNTS 4744 4808 0 0 0
M  V30 BEGIN ATOM
M  V30 1 H -0.908 1.98254 -0.117106 0
M  V30 2 N 0 1.576 0 0
M  V30 3 C 0.933 2.03868 1.02534 0
M  V30 4 C 1.911 0.928543 1.3348 0
M  V30 5 O 3.095 1.19667 1.45644 0
M  V30 6 C 0.222 2.43627 2.35294 0
M  V30 7 C -0.732 3.65373 2.2001 0
M  V30 8 S 0.101 5.13292 1.52614 0
M  V30 9 C 1.257 5.56322 2.86805 0
M  V30 10 H 1.49 2.90518 0.631377 0
M  V30 11 H -0.977 1.52953 0.210867 0
M  V30 12 H 0.981 2.67203 3.11629 0
M  V30 13 H -0.358 1.57376 2.7183 0
M  V30 14 H -1.165 3.90944 3.18086 0
M  V30 15 H -1.563 3.418 1.51819 0
M  V30 16 H 0.729 5.58782 3.83104 0
M  V30 17 H 1.672 6.56266 2.65933 0
M  V30 18 H 2.08 4.83886 2.90714 0
M  V30 19 N 1.4781 -0.272755 1.55222 0
M  V30 20 C 2.4111 -1.3627 1.83046 0
M  V30 21 C 3.3891 -1.47536 0.683521 0
M  V30 22 O 4.5731 -1.64157 0.926545 0
M  V30 23 C 1.7001 -2.73908 1.99229 0
M  V30 24 C 0.7461 -2.79925 3.21783 0
M  V30 25 S 1.5791 -2.39146 4.79134 0
M  V30 26 C 2.7351 -3.78758 4.9829 0
M  V30 27 H 2.9681 -1.12464 2.75207 0
M  V30 28 H 0.5011 -0.472398 1.46996 0
M  V30 29 H 2.4591 -3.53171 2.09238 0
M  V30 30 H 1.1201 -2.94965 1.07956 0
M  V30 31 H 0.3131 -3.80946 3.29994 0
M  V30 32 H -0.0849 -2.08683 3.10367 0
M  V30 33 H 2.2071 -4.7403 4.84047 0
M  V30 34 H 3.1501 -3.75499 6.00338 0
M  V30 35 H 3.5581 -3.70072 4.26271 0
M  V30 36 N 2.9562 -1.48159 -0.537278 0
M  V30 37 C 3.8862 -1.65029 -1.6519 0
M  V30 38 C 4.8672 -0.499281 -1.62607 0
M  V30 39 O 6.0522 -0.730972 -1.79918 0
M  V30 40 C 3.1822 -1.68303 -3.03795 0
M  V30 41 C 2.1362 -2.8283 -3.21234 0
M  V30 42 C 1.4622 -2.71189 -4.60826 0
M  V30 43 C 2.7622 -4.24211 -3.04701 0
M  V30 44 H 4.4562 -2.58341 -1.51328 0
M  V30 45 H 2.0022 -1.24325 -0.726585 0
M  V30 46 H 3.9552 -1.78693 -3.81637 0
M  V30 47 H 2.6792 -0.715635 -3.18663 0
M  V30 48 H 1.3382 -2.71983 -2.45807 0
M  V30 49 H 0.9862 -1.72435 -4.7252 0
M  V30 50 H 0.6862 -3.48035 -4.7344 0
M  V30 51 H 2.2102 -2.83537 -5.40777 0
M  V30 52 H 3.6242 -4.3593 -3.72341 0
M  V30 53 H 2.0212 -5.01998 -3.28813 0
M  V30 54 H 3.0912 -4.41184 -2.01209 0
M  V30 55 N 4.4343 0.785586 -1.36625 0
M  V30 56 C 5.8453 1.36101 -1.27803 0
M  V30 57 C 6.1963 1.96035 0.0804875 0
M  V30 58 O 5.3213 1.92834 0.982042 0
M  V30 59 C 5.9163 2.47442 -2.31426 0
M  V30 60 C 4.4753 3.00789 -2.26281 0
M  V30 61 C 3.6223 1.73896 -2.15999 0
M  V30 62 H 6.5733 0.586928 -1.47448 0
M  V30 63 H 6.5943 3.2656 -1.95291 0
M  V30 64 H 6.1063 2.03791 -3.30289 0
M  V30 65 H 4.2073 3.48851 -1.30896 0
M  V30 66 H 4.3203 3.57343 -3.19128 0
M  V30 67 H 2.6843 1.9628 -1.62316 0
M  V30 68 H 3.4673 1.32368 -3.16755 0
M  V30 69 N 5.9124 1.20967 1.01018 0
M  V30 70 C 6.8424 0.988272 2.11555 0
M  V30 71 C 7.8234 -0.0849778 1.69888 0
M  V30 72 O 9.0084 0.0738202 1.9406 0
M  V30 73 C 6.1384 0.546528 3.42973 0
M  V30 74 C 5.0924 1.56375 3.9841 0
M  V30 75 C 4.4184 0.97842 5.25672 0
M  V30 76 C 5.7184 2.94922 4.31066 0
M  V30 77 H 7.4124 1.91276 2.30334 0
M  V30 78 H 4.9584 0.921073 1.1069 0
M  V30 79 H 6.9114 0.378839 4.19694 0
M  V30 80 H 5.6354 -0.413598 3.23971 0
M  V30 81 H 4.2944 1.71891 3.23804 0
M  V30 82 H 3.9424 0.0101688 5.02999 0
M  V30 83 H 3.6424 1.65784 5.63728 0
M  V30 84 H 5.1664 0.821939 6.05043 0
M  V30 85 H 6.5804 2.8288 4.9865 0
M  V30 86 H 4.9774 3.5983 4.80253 0
M  V30 87 H 6.0474 3.4616 3.39561 0
M  V30 88 N 7.3905 -1.2043 1.01659 0
M  V30 89 C 8.3225 -2.22626 0.544988 0
M  V30 90 C 9.3355 -1.58479 -0.372609 0
M  V30 91 O 10.5245 -1.77679 -0.170958 0
M  V30 92 C 7.6245 -3.38141 -0.22663 0
M  V30 93 C 6.7975 -4.31877 0.692876 0
M  V30 94 C 5.8565 -5.26191 -0.0311616 0
M  V30 95 O 4.8825 -5.6612 0.591343 0
M  V30 96 N 6.0845 -5.65618 -1.30601 0
M  V30 97 H 8.8495 -2.63716 1.42388 0
M  V30 98 H 6.4105 -1.34971 0.894116 0
M  V30 99 H 8.4025 -3.98239 -0.72024 0
M  V30 100 H 6.9725 -2.95943 -1.00681 0
M  V30 101 H 6.1925 -3.69746 1.36679 0
M  V30 102 H 7.4805 -4.91426 1.31824 0
M  V30 103 H 6.8785 -5.3519 -1.83269 0
M  V30 104 H 5.4355 -6.28025 -1.74435 0
M  V30 105 N 8.8686 -0.792821 -1.36206 0
M  V30 106 C 10.1166 -0.366062 -1.98757 0
M  V30 107 C 10.4376 1.0668 -1.63231 0
M  V30 108 O 9.7076 1.73587 -0.907978 0
M  V30 109 H 8.2876 -0.132364 -0.735179 0
M  V30 110 H 10.9496 -1.01562 -1.66347 0
M  V30 111 H 10.0456 -0.460638 -3.08682 0
M  V30 112 N 10.3467 1.47872 -0.545128 0
M  V30 113 C 11.3097 2.28337 0.198717 0
M  V30 114 C 12.3097 1.36255 0.853888 0
M  V30 115 O 13.4997 1.59003 0.711606 0
M  V30 116 C 10.6317 3.15585 1.28915 0
M  V30 117 H 11.8247 2.95567 -0.507941 0
M  V30 118 H 9.3777 1.53362 -0.301616 0
M  V30 119 H 10.1127 2.53019 2.02859 0
M  V30 120 H 9.8977 3.83337 0.824309 0
M  V30 121 H 11.3877 3.76243 1.81194 0
M  V30 122 N 11.8248 0.280983 1.55075 0
M  V30 123 C 12.7568 -0.637268 2.20163 0
M  V30 124 C 13.7698 -1.11298 1.18813 0
M  V30 125 O 14.9588 -1.03388 1.4551 0
M  V30 126 C 12.0588 -1.88199 2.81841 0
M  V30 127 C 11.2318 -1.55211 4.08936 0
M  V30 128 C 10.2908 -2.64991 4.54606 0
M  V30 129 O 9.3168 -2.30929 5.2025 0
M  V30 130 N 10.5188 -3.95161 4.25238 0
M  V30 131 H 13.2838 -0.0801694 2.99593 0
M  V30 132 H 10.8448 0.102329 1.61576 0
M  V30 133 H 12.8368 -2.60948 3.09335 0
M  V30 134 H 11.4068 -2.34799 2.06369 0
M  V30 135 H 10.6268 -0.658185 3.88666 0
M  V30 136 H 11.9148 -1.30681 4.91732 0
M  V30 137 H 11.3128 -4.25653 3.72607 0
M  V30 138 H 9.8698 -4.6427 4.5749 0
M  V30 139 N 13.3029 -1.57598 0.00835791 0
M  V30 140 C 14.2359 -2.04409 -1.01451 0
M  V30 141 C 15.2139 -0.935609 -1.32985 0
M  V30 142 O 16.3979 -1.20437 -1.45007 0
M  V30 143 C 13.5249 -2.44872 -2.33999 0
M  V30 144 C 12.5709 -3.66535 -2.18069 0
M  V30 145 S 13.4039 -5.14095 -1.4989 0
M  V30 146 C 14.5599 -5.57835 -2.8385 0
M  V30 147 H 14.7929 -2.90849 -0.615961 0
M  V30 148 H 12.3259 -1.53063 -0.202752 0
M  V30 149 H 14.2839 -2.68852 -3.10208 0
M  V30 150 H 12.9449 -1.58815 -2.70992 0
M  V30 151 H 12.1379 -3.92626 -3.16008 0
M  V30 152 H 11.7399 -3.426 -1.50004 0
M  V30 153 H 14.0319 -5.60806 -3.80136 0
M  V30 154 H 14.9749 -6.57667 -2.62449 0
M  V30 155 H 15.3829 -4.85421 -2.88144 0
M  V30 156 N 14.781 0.264519 -1.55364 0
M  V30 157 C 15.711 1.33121 -1.91836 0
M  V30 158 C 16.692 1.51101 -0.781192 0
M  V30 159 O 17.877 1.64003 -1.04003 0
M  V30 160 C 15.007 2.68921 -2.19769 0
M  V30 161 C 13.961 2.65661 -3.35571 0
M  V30 162 C 13.287 4.05093 -3.49004 0
M  V30 163 C 14.587 2.24187 -4.71739 0
M  V30 164 H 16.281 1.02844 -2.81182 0
M  V30 165 H 13.827 0.493286 -1.35287 0
M  V30 166 H 15.78 3.43663 -2.43872 0
M  V30 167 H 14.504 3.00799 -1.27231 0
M  V30 168 H 13.163 1.93377 -3.1145 0
M  V30 169 H 12.811 4.34206 -2.53917 0
M  V30 170 H 12.511 4.03804 -4.26868 0
M  V30 171 H 14.035 4.81561 -3.75408 0
M  V30 172 H 15.449 2.88654 -4.9533 0
M  V30 173 H 13.846 2.34044 -5.52579 0
M  V30 174 H 14.916 1.19327 -4.69988 0
M  V30 175 N 16.2591 1.48442 0.529413 0
M  V30 176 C 17.1911 1.59095 1.64989 0
M  V30 177 C 18.2041 0.475212 1.5571 0
M  V30 178 O 19.3931 0.746081 1.6216 0
M  V30 179 C 16.4931 1.50518 3.0364 0
M  V30 180 C 15.6661 2.77142 3.38395 0
M  V30 181 C 14.7251 2.62012 4.56329 0
M  V30 182 O 13.7511 3.35898 4.59522 0
M  V30 183 N 14.9531 1.71667 5.54536 0
M  V30 184 H 17.7181 2.55723 1.56287 0
M  V30 185 H 15.2791 1.45173 0.716697 0
M  V30 186 H 17.2711 1.38091 3.80412 0
M  V30 187 H 15.8411 0.618627 3.06418 0
M  V30 188 H 15.0611 3.0413 2.50796 0
M  V30 189 H 16.3491 3.61146 3.58401 0
M  V30 190 H 15.7471 1.10841 5.54735 0
M  V30 191 H 14.3041 1.65178 6.30523 0
M  V30 192 N 17.7372 -0.778329 1.37039 0
M  V30 193 C 18.6702 -1.8984 1.26633 0
M  V30 194 C 19.6482 -1.61923 0.148197 0
M  V30 195 O 20.8322 -1.85742 0.321265 0
M  V30 196 C 17.9592 -3.24916 0.956403 0
M  V30 197 C 17.0052 -3.71752 2.09051 0
M  V30 198 S 17.8382 -3.86201 3.70957 0
M  V30 199 C 18.9942 -5.24135 3.42101 0
M  V30 200 H 19.2272 -1.98377 2.21436 0
M  V30 201 H 16.7602 -0.938738 1.22585 0
M  V30 202 H 18.7182 -4.02936 0.784409 0
M  V30 203 H 17.3792 -3.14089 0.0259713 0
M  V30 204 H 16.5722 -4.69661 1.8285 0
M  V30 205 H 16.1742 -3.00815 2.2223 0
M  V30 206 H 18.4662 -6.09086 2.96682 0
M  V30 207 H 19.4092 -5.55346 4.39314 0
M  V30 208 H 19.8172 -4.91761 2.77185 0
M  V30 209 N 19.2153 -1.21501 -1.00376 0
M  V30 210 C 20.1453 -0.999478 -2.11028 0
M  V30 211 C 21.1263 0.0759671 -1.6993 0
M  V30 212 O 22.3113 -0.0841106 -1.94018 0
M  V30 213 C 19.4413 -0.564709 -3.42678 0
M  V30 214 C 18.3953 -1.58486 -3.97576 0
M  V30 215 C 17.7213 -1.00628 -5.25146 0
M  V30 216 C 19.0213 -2.97204 -4.29496 0
M  V30 217 H 20.7153 -1.92495 -2.29317 0
M  V30 218 H 18.2613 -0.92693 -1.102 0
M  V30 219 H 20.2143 -0.401091 -4.19487 0
M  V30 220 H 18.9383 0.396411 -3.24185 0
M  V30 221 H 17.5973 -1.73606 -3.22888 0
M  V30 222 H 17.2453 -0.0368439 -5.02987 0
M  V30 223 H 16.9453 -1.68771 -5.62841 0
M  V30 224 H 18.4693 -0.854015 -6.04598 0
M  V30 225 H 19.8833 -2.8552 -4.97143 0
M  V30 226 H 18.2803 -3.62372 -4.78338 0
M  V30 227 H 19.3503 -3.47956 -3.3772 0
M  V30 228 N 20.6934 1.19889 -1.02296 0
M  V30 229 C 21.6034 2.26571 -0.608508 0
M  V30 230 C 22.6194 1.70299 0.356964 0
M  V30 231 O 23.7954 2.00235 0.216326 0
M  V30 232 C 20.8604 3.46677 0.0402814 0
M  V30 233 C 19.9214 4.18153 -0.97194 0
M  V30 234 C 19.1544 5.32525 -0.354016 0
M  V30 235 O 19.3774 5.64112 0.844604 0
M  V30 236 O 18.3114 5.92242 -1.07391 0
M  V30 237 H 22.1374 2.64251 -1.49684 0
M  V30 238 H 19.7224 1.26629 -0.792809 0
M  V30 239 H 21.6044 4.19475 0.402324 0
M  V30 240 H 20.2794 3.10858 0.902707 0
M  V30 241 H 19.1864 3.47499 -1.38546 0
M  V30 242 H 20.5194 4.57927 -1.80454 0
M  V30 243 N 22.1715 0.800033 1.35784 0
M  V30 244 C 23.1185 0.203848 2.29898 0
M  V30 245 C 24.0885 -0.658375 1.52495 0
M  V30 246 O 25.2735 -0.604832 1.8096 0
M  V30 247 C 22.4135 -0.64688 3.38983 0
M  V30 248 C 21.5265 0.235054 4.3136 0
M  V30 249 C 20.6615 -0.623054 5.27533 0
M  V30 250 C 19.7005 0.259682 6.11549 0
M  V30 251 N 18.8375 -0.558019 6.99879 0
M  V30 252 H 23.6775 1.01186 2.80295 0
M  V30 253 H 21.2145 0.51053 1.37957 0
M  V30 254 H 23.1725 -1.15521 4.00887 0
M  V30 255 H 21.8025 -1.42021 2.89879 0
M  V30 256 H 20.8545 0.861438 3.70518 0
M  V30 257 H 22.1665 0.914768 4.9034 0
M  V30 258 H 21.3205 -1.19678 5.94779 0
M  V30 259 H 20.0595 -1.33636 4.69034 0
M  V30 260 H 19.0645 0.845726 5.43256 0
M  V30 261 H 20.2895 0.970748 6.72126 0
M  V30 262 H 18.2355 -1.25542 6.43875 0
M  V30 263 H 18.1525 0.0637872 7.55973 0
M  V30 264 H 19.4205 -1.11523 7.71481 0
M  V30 265 N 23.6496 -1.47581 0.552962 0
M  V30 266 C 24.8746 -2.07378 0.0300593 0
M  V30 267 C 25.2996 -1.40355 -1.25229 0
M  V30 268 O 24.6576 -0.477099 -1.7491 0
M  V30 269 C 24.7056 -3.60274 -0.153231 0
M  V30 270 O 23.8096 -3.94041 -1.21678 0
M  V30 271 H 23.1506 -0.662158 0.0494182 0
M  V30 272 H 25.6806 -1.89662 0.767434 0
M  V30 273 H 25.6906 -4.0633 -0.368761 0
M  V30 274 H 24.3656 -4.08455 0.783397 0
M  V30 275 H 22.9426 -3.59735 -0.982079 0
M  V30 276 N 25.1277 -0.289203 -1.54924 0
M  V30 277 C 26.0577 0.58549 -2.2604 0
M  V30 278 C 27.0387 1.14753 -1.25562 0
M  V30 279 O 28.2237 1.17906 -1.54311 0
M  V30 280 C 25.3537 1.76305 -2.99222 0
M  V30 281 C 24.3077 1.33191 -4.06748 0
M  V30 282 C 23.6337 2.5937 -4.6758 0
M  V30 283 C 24.9337 0.471775 -5.20165 0
M  V30 284 H 26.6277 -0.00763532 -2.99399 0
M  V30 285 H 24.1737 -0.00511229 -1.43999 0
M  V30 286 H 26.1267 2.38097 -3.47689 0
M  V30 287 H 24.8507 2.38223 -2.23422 0
M  V30 288 H 23.5097 0.737121 -3.59113 0
M  V30 289 H 23.1577 3.19576 -3.88433 0
M  V30 290 H 22.8577 2.31228 -5.40192 0
M  V30 291 H 24.3817 3.21985 -5.18804 0
M  V30 292 H 25.7957 0.995056 -5.64599 0
M  V30 293 H 24.1927 0.284639 -5.99425 0
M  V30 294 H 25.2627 -0.506041 -4.82252 0
M  V30 295 N 26.6058 1.57591 -0.0167156 0
M  V30 296 C 28.0218 1.55946 0.339557 0
M  V30 297 C 28.2218 1.02109 1.73713 0
M  V30 298 O 27.2778 0.662303 2.43659 0
M  V30 299 C 28.5908 3.00037 0.199499 0
M  V30 300 C 30.1388 3.11805 0.273193 0
M  V30 301 C 30.6138 4.57713 0.162068 0
M  V30 302 N 32.1048 4.6268 0.219444 0
M  V30 303 C 32.8398 5.73185 0.157054 0
M  V30 304 N 32.3358 6.92786 0.0442936 0
M  V30 305 N 34.1288 5.61707 0.21014 0
M  V30 306 H 26.2798 1.90921 -0.930758 0
M  V30 307 H 28.5428 0.877674 -0.358319 0
M  V30 308 H 28.2488 3.4333 -0.76273 0
M  V30 309 H 28.1228 3.64387 0.974786 0
M  V30 310 H 30.5098 2.68433 1.22587 0
M  V30 311 H 30.5908 2.50201 -0.532256 0
M  V30 312 H 30.2348 5.01763 -0.78714 0
M  V30 313 H 30.1648 5.17283 0.986222 0
M  V30 314 H 32.6558 3.76649 0.307246 0
M  V30 315 H 32.9688 7.728 0.00304069 0
M  V30 316 H 31.3138 6.94999 0.00968457 0
M  V30 317 H 34.5048 4.6716 0.296546 0
M  V30 318 H 34.6778 6.47807 0.158054 0
M  V30 319 N 28.0839 -0.256276 1.55502 0
M  V30 320 C 29.0309 -1.31714 1.89526 0
M  V30 321 C 30.0009 -1.4828 0.748479 0
M  V30 322 O 31.1859 -1.62416 1.00128 0
M  V30 323 C 28.3259 -2.66933 2.18725 0
M  V30 324 C 27.4389 -2.58452 3.4616 0
M  V30 325 C 26.5739 -3.85961 3.64976 0
M  V30 326 C 25.6129 -3.72059 4.86044 0
M  V30 327 N 24.7499 -4.9144 5.01429 0
M  V30 328 H 29.5899 -1.01998 2.80001 0
M  V30 329 H 27.1269 -0.492413 1.38613 0
M  V30 330 H 29.0849 -3.4563 2.33657 0
M  V30 331 H 27.7149 -2.94816 1.31466 0
M  V30 332 H 26.7669 -1.71374 3.3961 0
M  V30 333 H 28.0789 -2.44085 4.34999 0
M  V30 334 H 27.2329 -4.73101 3.79816 0
M  V30 335 H 25.9719 -4.03215 2.74353 0
M  V30 336 H 24.9769 -2.83302 4.7119 0
M  V30 337 H 26.2019 -3.56309 5.78118 0
M  V30 338 H 24.1479 -5.09072 4.13741 0
M  V30 339 H 24.0649 -4.79668 5.84341 0
M  V30 340 H 25.3329 -5.80104 5.20672 0
M  V30 341 N 29.562 -1.4872 -0.521534 0
M  V30 342 C 30.787 -1.61101 -1.30618 0
M  V30 343 C 31.212 -0.274611 -1.86085 0
M  V30 344 O 30.57 0.754937 -1.64834 0
M  V30 345 C 30.618 -2.66709 -2.4269 0
M  V30 346 O 29.722 -2.24456 -3.45967 0
M  V30 347 H 29.063 -0.539921 -0.386499 0
M  V30 348 H 31.593 -1.94767 -0.626645 0
M  V30 349 H 31.603 -2.88245 -2.88754 0
M  V30 350 H 30.278 -3.63727 -2.01682 0
M  V30 351 H 28.855 -2.13168 -3.05964 0
M  V30 352 N 31.0401 0.771051 -1.3745 0
M  V30 353 C 31.9701 1.89827 -1.3597 0
M  V30 354 C 32.9511 1.68562 -0.228216 0
M  V30 355 O 34.1361 1.8941 -0.428675 0
M  V30 356 C 31.2661 3.2712 -1.16662 0
M  V30 357 C 30.2201 3.6295 -2.2683 0
M  V30 358 C 29.5461 4.98791 -1.92644 0
M  V30 359 C 30.8461 3.69627 -3.69017 0
M  V30 360 H 32.5401 1.91323 -2.30295 0
M  V30 361 H 30.0861 0.919082 -1.10855 0
M  V30 362 H 32.0391 4.05615 -1.14256 0
M  V30 363 H 30.7631 3.26059 -0.187926 0
M  V30 364 H 29.4221 2.86763 -2.28392 0
M  V30 365 H 29.0701 4.94271 -0.933021 0
M  V30 366 H 28.7701 5.23733 -2.66416 0
M  V30 367 H 30.2941 5.79685 -1.91826 0
M  V30 368 H 31.7081 4.38273 -3.69581 0
M  V30 369 H 30.1051 4.06067 -4.41848 0
M  V30 370 H 31.1751 2.70273 -4.02592 0
M  V30 371 N 32.5182 1.22032 0.997298 0
M  V30 372 C 33.9292 1.0397 1.55071 0
M  V30 373 C 34.2802 -0.398192 1.92117 0
M  V30 374 O 33.4052 -1.28254 1.74298 0
M  V30 375 C 34.0002 1.88109 2.81781 0
M  V30 376 C 32.5592 1.74357 3.33581 0
M  V30 377 C 31.7062 1.84846 2.06706 0
M  V30 378 H 34.6572 1.35941 0.818883 0
M  V30 379 H 34.6782 1.39589 3.53971 0
M  V30 380 H 34.1902 2.92754 2.54787 0
M  V30 381 H 32.2912 0.72427 3.65493 0
M  V30 382 H 32.4042 2.56772 4.04481 0
M  V30 383 H 30.7682 1.28238 2.20062 0
M  V30 384 H 31.5512 2.91014 1.82114 0
M  V30 385 N 33.9963 -1.19345 1.0293 0
M  V30 386 C 34.9593 -2.20793 0.615069 0
M  V30 387 C 35.9593 -1.57553 -0.321533 0
M  V30 388 O 37.1493 -1.73862 -0.108483 0
M  V30 389 C 34.2813 -3.40754 -0.0999222 0
M  V30 390 H 35.4743 -2.58955 1.51269 0
M  V30 391 H 33.0273 -1.3303 0.820534 0
M  V30 392 H 33.7623 -3.0811 -1.01187 0
M  V30 393 H 33.5473 -3.87889 0.57309 0
M  V30 394 H 35.0373 -4.15898 -0.376645 0
M  V30 395 N 35.4744 -0.807222 -1.35358 0
M  V30 396 C 36.6994 -0.399309 -2.0352 0
M  V30 397 C 37.1244 0.981986 -1.60433 0
M  V30 398 O 36.4824 1.63601 -0.781299 0
M  V30 399 C 36.5304 -0.491552 -3.57234 0
M  V30 400 O 35.6344 0.494754 -4.09421 0
M  V30 401 H 34.9754 -0.166682 -0.642739 0
M  V30 402 H 37.5054 -1.09328 -1.72941 0
M  V30 403 H 37.5154 -0.361588 -4.06395 0
M  V30 404 H 36.1904 -1.49907 -3.87944 0
M  V30 405 H 34.7674 0.324977 -3.71481 0
M  V30 406 N 36.9525 1.47285 -0.560781 0
M  V30 407 C 37.8825 2.32857 0.173105 0
M  V30 408 C 38.8635 1.44009 0.905281 0
M  V30 409 O 40.0485 1.7286 0.885046 0
M  V30 410 C 37.1785 3.25861 1.20133 0
M  V30 411 C 36.1325 4.23978 0.585388 0
M  V30 412 C 35.4585 5.06332 1.7185 0
M  V30 413 C 36.7585 5.20242 -0.463178 0
M  V30 414 H 38.4525 2.94466 -0.541307 0
M  V30 415 H 35.9985 1.41601 -0.261764 0
M  V30 416 H 37.9515 3.84569 1.72293 0
M  V30 417 H 36.6755 2.62315 1.94573 0
M  V30 418 H 35.3345 3.66501 0.085054 0
M  V30 419 H 34.9825 4.39186 2.45203 0
M  V30 420 H 34.6825 5.72762 1.31213 0
M  V30 421 H 36.2065 5.67899 2.24329 0
M  V30 422 H 37.6205 5.73293 -0.027502 0
M  V30 423 H 36.0175 5.94896 -0.788627 0
M  V30 424 H 37.0875 4.65504 -1.35773 0
M  V30 425 N 38.4306 0.297415 1.54768 0
M  V30 426 C 39.3776 -0.580276 2.23386 0
M  V30 427 C 40.3476 -1.13238 1.21517 0
M  V30 428 O 41.5326 -1.17757 1.50126 0
M  V30 429 C 38.6726 -1.74801 2.97555 0
M  V30 430 C 37.7856 -1.22764 4.1419 0
M  V30 431 C 36.9206 -2.35895 4.75949 0
M  V30 432 C 35.9596 -1.80974 5.84735 0
M  V30 433 N 35.0966 -2.87664 6.40464 0
M  V30 434 H 39.9366 0.0114833 2.97998 0
M  V30 435 H 37.4736 0.0174361 1.4709 0
M  V30 436 H 39.4316 -2.43475 3.38786 0
M  V30 437 H 38.0616 -2.31145 2.25326 0
M  V30 438 H 37.1136 -0.433271 3.77924 0
M  V30 439 H 38.4256 -0.785551 4.92575 0
M  V30 440 H 37.5796 -3.12523 5.20014 0
M  V30 441 H 36.3186 -2.83429 3.96887 0
M  V30 442 H 35.3236 -1.02834 5.40097 0
M  V30 443 H 36.5486 -1.34348 6.65678 0
M  V30 444 H 34.4946 -3.34538 5.64287 0
M  V30 445 H 34.4116 -2.4794 7.14186 0
M  V30 446 H 35.6796 -3.642 6.89187 0
M  V30 447 N 39.9087 -1.5758 0.0250728 0
M  V30 448 C 41.1547 -1.91917 -0.655413 0
M  V30 449 C 41.4877 -0.901433 -1.72011 0
M  V30 450 O 40.7627 0.0764069 -1.9435 0
M  V30 451 C 41.0457 -3.36751 -1.27558 0
M  V30 452 C 40.8987 -4.49258 -0.220719 0
M  V30 453 C 42.2177 -3.81469 -2.19475 0
M  V30 454 H 39.3367 -0.697925 -0.23679 0
M  V30 455 H 41.9787 -1.89825 0.0815036 0
M  V30 456 H 40.1287 -3.38664 -1.90365 0
M  V30 457 H 41.8007 -4.59478 0.409601 0
M  V30 458 H 40.0437 -4.31415 0.454264 0
M  V30 459 H 40.7147 -5.47618 -0.694175 0
M  V30 460 H 43.1907 -3.81266 -1.66659 0
M  V30 461 H 42.0667 -4.83512 -2.59822 0
M  V30 462 H 42.3277 -3.16744 -3.08424 0
M  V30 463 N 41.3868 0.248026 -1.55636 0
M  V30 464 C 42.6168 0.992367 -1.81206 0
M  V30 465 C 43.0248 1.7949 -0.598324 0
M  V30 466 O 42.3678 1.78292 0.442434 0
M  V30 467 C 42.4298 1.97926 -3.00109 0
M  V30 468 C 42.0938 1.36377 -4.36177 0
M  V30 469 C 43.0908 0.76682 -5.14214 0
M  V30 470 C 40.7758 1.38347 -4.82872 0
M  V30 471 C 42.7698 0.197778 -6.37093 0
M  V30 472 C 40.4568 0.810574 -6.057 0
M  V30 473 C 41.4548 0.218754 -6.8265 0
M  V30 474 O 41.1428 -0.345298 -8.03158 0
M  V30 475 H 40.8748 0.297704 -0.606917 0
M  V30 476 H 43.4288 0.276517 -2.0353 0
M  V30 477 H 41.6588 2.73339 -2.73538 0
M  V30 478 H 43.3478 2.58694 -3.12781 0
M  V30 479 H 44.1138 0.744114 -4.79258 0
M  V30 480 H 39.9928 1.8335 -4.2297 0
M  V30 481 H 43.5368 -0.264788 -6.97097 0
M  V30 482 H 39.4338 0.830604 -6.40134 0
M  V30 483 H 40.2018 -0.237055 -8.18157 0
M  V30 484 N 42.8649 1.48995 0.513639 0
M  V30 485 C 44.1129 1.57531 1.26604 0
M  V30 486 C 44.4339 0.258236 1.93283 0
M  V30 487 O 43.7039 -0.721502 1.8213 0
M  V30 488 H 42.2839 0.580387 0.470276 0
M  V30 489 H 44.9459 1.85552 0.596373 0
M  V30 490 H 44.0419 2.36486 2.03669 0
M  V30 491 N 44.343 -0.763751 1.37857 0
M  V30 492 C 45.571 -1.55293 1.36718 0
M  V30 493 C 45.986 -1.88745 -0.0455434 0
M  V30 494 O 45.343 -1.52039 -1.00947 0
M  V30 495 C 45.394 -2.85831 2.2132 0
M  V30 496 O 45.115 -2.5381 3.57089 0
M  V30 497 C 46.616 -3.80023 2.28249 0
M  V30 498 H 43.836 -0.480841 0.468009 0
M  V30 499 H 46.38 -0.946009 1.81303 0
M  V30 500 H 44.535 -3.42926 1.80223 0
M  V30 501 H 44.949 -3.37459 4.01524 0
M  V30 502 H 46.423 -4.68599 2.91752 0
M  V30 503 H 46.9 -4.1973 1.2932 0
M  V30 504 H 47.506 -3.28855 2.69693 0
M  V30 505 N 45.8211 -1.22559 -0.990812 0
M  V30 506 C 47.0671 -1.05297 -1.73322 0
M  V30 507 C 47.4001 0.410655 -1.89808 0
M  V30 508 O 46.6751 1.30439 -1.44277 0
M  V30 509 C 46.9581 -1.76713 -3.13759 0
M  V30 510 C 46.8111 -3.30684 -3.04907 0
M  V30 511 C 48.1301 -1.52121 -4.12974 0
M  V30 512 H 45.2491 -0.38392 -0.629106 0
M  V30 513 H 47.8911 -1.50926 -1.15418 0
M  V30 514 H 46.0411 -1.37924 -3.63193 0
M  V30 515 H 47.7131 -3.7893 -2.63077 0
M  V30 516 H 45.9561 -3.60253 -2.41661 0
M  V30 517 H 46.6271 -3.75833 -4.04294 0
M  V30 518 H 49.1031 -1.85819 -3.72304 0
M  V30 519 H 47.9791 -2.04582 -5.0935 0
M  V30 520 H 48.2401 -0.454257 -4.3976 0
M  V30 521 N 47.2992 1.18797 -1.03562 0
M  V30 522 C 48.5462 1.8865 -0.736023 0
M  V30 523 C 48.8742 1.80041 0.735889 0
M  V30 524 O 48.1292 1.19179 1.55225 0
M  V30 525 C 48.4282 3.38692 -1.14117 0
M  V30 526 C 48.0942 3.67504 -2.6125 0
M  V30 527 C 46.7562 3.75078 -3.01447 0
M  V30 528 C 49.1082 3.80293 -3.56408 0
M  V30 529 C 46.4362 3.92915 -4.35701 0
M  V30 530 C 48.7882 3.99645 -4.90374 0
M  V30 531 C 47.4522 4.05453 -5.30249 0
M  V30 532 H 46.7222 0.690321 -0.26933 0
M  V30 533 H 49.3692 1.40641 -1.29971 0
M  V30 534 H 47.6742 3.88645 -0.496202 0
M  V30 535 H 49.3712 3.91072 -0.886789 0
M  V30 536 H 45.9612 3.62223 -2.29113 0
M  V30 537 H 50.1452 3.73779 -3.26501 0
M  V30 538 H 45.4012 3.95653 -4.66121 0
M  V30 539 H 49.5752 4.08482 -5.64017 0
M  V30 540 H 47.2022 4.19027 -6.34288 0
M  V30 541 N 48.7773 0.814389 1.34928 0
M  V30 542 C 49.7273 0.202752 2.27097 0
M  V30 543 C 50.7113 -0.62799 1.48139 0
M  V30 544 O 51.9033 -0.483969 1.70255 0
M  V30 545 C 49.0323 -0.64146 3.37254 0
M  V30 546 C 48.1183 0.19944 4.23631 0
M  V30 547 N 48.5093 1.26628 4.89693 0
M  V30 548 C 46.8073 -0.0176433 4.45997 0
M  V30 549 C 47.5083 1.78031 5.53787 0
M  V30 550 N 46.4843 1.08553 5.32651 0
M  V30 551 H 50.2863 1.01893 2.75672 0
M  V30 552 H 47.8003 0.656332 1.48546 0
M  V30 553 H 49.7973 -1.09575 4.02243 0
M  V30 554 H 48.4573 -1.4559 2.9023 0
M  V30 555 H 49.4683 1.64901 4.90946 0
M  V30 556 H 46.1453 -0.800601 4.09752 0
M  V30 557 H 47.5353 2.67236 6.16469 0
M  V30 558 N 50.2554 -1.46986 0.568584 0
M  V30 559 C 51.5044 -2.01646 0.0465894 0
M  V30 560 C 51.8174 -1.44721 -1.31587 0
M  V30 561 O 53.0234 -1.91113 -1.92842 0
M  V30 562 C 51.4794 -3.59885 0.032752 0
M  V30 563 C 51.0874 -4.25804 1.39266 0
M  V30 564 C 52.8314 -4.22255 -0.436038 0
M  V30 565 C 50.7384 -5.76081 1.33732 0
M  V30 566 H 49.6684 -0.753876 0.013647 0
M  V30 567 H 52.3194 -1.68864 0.718131 0
M  V30 568 H 50.7014 -3.8968 -0.704669 0
M  V30 569 H 51.8754 -4.07637 2.1487 0
M  V30 570 H 50.1904 -3.7547 1.80032 0
M  V30 571 H 52.7874 -5.32394 -0.49602 0
M  V30 572 H 53.1304 -3.90212 -1.45053 0
M  V30 573 H 53.6634 -3.97033 0.246877 0
M  V30 574 H 50.4024 -6.12761 2.32817 0
M  V30 575 H 49.9224 -5.96553 0.623267 0
M  V30 576 H 51.6014 -6.38518 1.0442 0
M  V30 577 N 51.7335 -0.305618 -1.54608 0
M  V30 578 C 52.6815 0.584119 -2.25146 0
M  V30 579 C 53.6755 1.13326 -1.25911 0
M  V30 580 O 54.8815 1.08337 -1.43747 0
M  V30 581 H 51.2565 0.206983 -0.722954 0
M  V30 582 H 53.2275 -0.033291 -2.98381 0
M  V30 583 C 51.9765 1.74225 -3.009 0
M  V30 584 H 51.2995 1.32892 -3.77067 0
M  V30 585 H 52.7395 2.34077 -3.53531 0
M  V30 586 C 51.1985 2.64914 -2.0814 0
M  V30 587 O 51.7285 3.66137 -1.65246 0
M  V30 588 N 49.9345 2.3275 -1.74 0
M  V30 589 H 49.4815 1.50479 -2.09078 0
M  V30 590 H 49.4395 2.93694 -1.12211 0
M  V30 591 N 53.2116 1.57565 -0.0334293 0
M  V30 592 C 54.1616 2.06978 0.956237 0
M  V30 593 C 55.1456 0.971193 1.28283 0
M  V30 594 O 56.3376 1.23471 1.26822 0
M  V30 595 C 53.4666 2.60393 2.23719 0
M  V30 596 C 52.5526 3.7719 1.93877 0
M  V30 597 N 52.9436 4.87639 1.34321 0
M  V30 598 C 51.2416 3.85758 2.23845 0
M  V30 599 C 51.9426 5.68825 1.21709 0
M  V30 600 N 50.9186 5.1587 1.71404 0
M  V30 601 H 54.7206 2.89773 0.490815 0
M  V30 602 H 52.2346 1.61492 0.171478 0
M  V30 603 H 54.2316 2.94088 2.95496 0
M  V30 604 H 52.8916 1.79031 2.70884 0
M  V30 605 H 53.9026 5.07803 1.01767 0
M  V30 606 H 50.5796 3.1531 2.73653 0
M  V30 607 H 51.9696 6.67631 0.75621 0
M  V30 608 N 54.6897 -0.239769 1.55765 0
M  V30 609 C 55.9377 -0.964892 1.77579 0
M  V30 610 C 56.2587 -1.85582 0.598699 0
M  V30 611 O 55.5287 -1.92075 -0.385226 0
M  V30 612 H 54.1087 -0.359265 0.654933 0
M  V30 613 H 56.7707 -0.256001 1.93211 0
M  V30 614 H 55.8667 -1.58243 2.69009 0
M  V30 615 N 56.1678 -1.49265 -0.50573 0
M  V30 616 C 57.1158 -1.66065 -1.62866 0
M  V30 617 C 58.1098 -0.526636 -1.61006 0
M  V30 618 O 59.3158 -0.706126 -1.65571 0
M  V30 619 H 55.6908 -0.52356 -0.539805 0
M  V30 620 H 57.6618 -2.60329 -1.45848 0
M  V30 621 C 56.4108 -1.74008 -3.01026 0
M  V30 622 H 55.7338 -2.6064 -3.03161 0
M  V30 623 H 57.1738 -1.89798 -3.79147 0
M  V30 624 C 55.6328 -0.483868 -3.33407 0
M  V30 625 O 56.1628 0.392548 -3.99777 0
M  V30 626 N 54.3688 -0.348236 -2.88506 0
M  V30 627 H 53.9158 -1.06242 -2.34671 0
M  V30 628 H 53.8738 0.491204 -3.10539 0
M  V30 629 N 57.6459 0.756429 -1.3826 0
M  V30 630 C 59.0569 1.33359 -1.30661 0
M  V30 631 C 59.4079 1.96161 0.0388875 0
M  V30 632 O 58.5329 1.94874 0.940918 0
M  V30 633 C 59.1279 2.42477 -2.36622 0
M  V30 634 C 57.6869 2.95922 -2.3261 0
M  V30 635 C 56.8339 1.69275 -2.19639 0
M  V30 636 H 59.7849 0.55552 -1.4866 0
M  V30 637 H 59.8059 3.22345 -2.02174 0
M  V30 638 H 59.3179 1.96739 -3.34538 0
M  V30 639 H 57.4189 3.45996 -1.38267 0
M  V30 640 H 57.5319 3.50494 -3.26636 0
M  V30 641 H 55.8959 1.92793 -1.66442 0
M  V30 642 H 56.6789 1.25619 -3.19491 0
M  V30 643 N 59.124 1.23083 0.984299 0
M  V30 644 C 60.371 1.06057 1.72505 0
M  V30 645 C 60.699 -0.403105 1.90277 0
M  V30 646 O 59.954 -1.3149 1.44944 0
M  V30 647 C 60.253 1.72673 3.1292 0
M  V30 648 C 59.919 3.22586 3.15038 0
M  V30 649 C 58.581 3.63489 3.15324 0
M  V30 650 C 60.933 4.185 3.10657 0
M  V30 651 C 58.261 4.98772 3.08939 0
M  V30 652 C 60.613 5.53769 3.05814 0
M  V30 653 C 59.277 5.94041 3.04419 0
M  V30 654 H 58.547 0.388091 0.631242 0
M  V30 655 H 61.194 1.52963 1.15215 0
M  V30 656 H 59.499 1.18116 3.73572 0
M  V30 657 H 61.196 1.56982 3.68996 0
M  V30 658 H 57.786 2.90022 3.15571 0
M  V30 659 H 61.97 3.87911 3.09579 0
M  V30 660 H 57.226 5.29193 3.0621 0
M  V30 661 H 61.4 6.27808 3.0138 0
M  V30 662 H 59.027 6.98833 2.99227 0
M  V30 663 N 60.6021 -1.18246 1.0419 0
M  V30 664 C 61.5501 -2.23968 0.627792 0
M  V30 665 C 62.5441 -1.65828 -0.346019 0
M  V30 666 O 63.7501 -1.78733 -0.213175 0
M  V30 667 H 60.1251 -0.728939 0.184802 0
M  V30 668 H 62.0961 -2.56202 1.52981 0
M  V30 669 C 60.8451 -3.47699 0.00796591 0
M  V30 670 H 60.1681 -3.92734 0.748347 0
M  V30 671 H 61.6081 -4.23294 -0.24455 0
M  V30 672 C 60.0671 -3.13153 -1.24246 0
M  V30 673 O 60.5971 -3.27003 -2.33307 0
M  V30 674 N 58.8031 -2.67467 -1.13622 0
M  V30 675 H 58.3501 -2.56396 -0.248734 0
M  V30 676 H 58.3081 -2.44724 -1.97377 0
M  V30 677 N 62.0802 -0.821533 -1.34494 0
M  V30 678 C 63.0102 -0.257138 -2.3208 0
M  V30 679 C 63.9912 0.625645 -1.58176 0
M  V30 680 O 65.1762 0.552811 -1.86166 0
M  V30 681 C 62.3062 0.582958 -3.42372 0
M  V30 682 C 61.2602 -0.202571 -4.2752 0
M  V30 683 C 60.5862 0.760179 -5.29269 0
M  V30 684 C 61.8862 -1.40998 -5.02908 0
M  V30 685 H 63.5802 -1.07247 -2.79532 0
M  V30 686 H 61.1262 -0.517163 -1.34393 0
M  V30 687 H 63.0792 0.987972 -4.09655 0
M  V30 688 H 61.8032 1.43133 -2.93565 0
M  V30 689 H 60.4622 -0.588936 -3.61838 0
M  V30 690 H 60.1102 1.60447 -4.76724 0
M  V30 691 H 59.8102 0.238809 -5.87115 0
M  V30 692 H 61.3342 1.16308 -5.9942 0
M  V30 693 H 62.7482 -1.07905 -5.63054 0
M  V30 694 H 61.1452 -1.86689 -5.70322 0
M  V30 695 H 62.2152 -2.1889 -4.32684 0
M  V30 696 N 63.5583 1.46682 -0.576371 0
M  V30 697 C 64.5053 2.30241 0.160499 0
M  V30 698 C 65.4753 1.40233 0.890162 0
M  V30 699 O 66.6603 1.69186 0.882084 0
M  V30 700 C 63.8003 3.24578 1.1723 0
M  V30 701 C 62.9133 4.29684 0.446736 0
M  V30 702 C 62.0483 5.11154 1.44551 0
M  V30 703 C 61.0873 6.08015 0.70599 0
M  V30 704 N 60.2243 6.82376 1.65251 0
M  V30 705 H 65.0643 2.92727 -0.558127 0
M  V30 706 H 62.6013 1.44272 -0.287056 0
M  V30 707 H 64.5593 3.77711 1.77172 0
M  V30 708 H 63.1893 2.63916 1.85872 0
M  V30 709 H 62.2413 3.79458 -0.267594 0
M  V30 710 H 63.5533 4.98626 -0.131686 0
M  V30 711 H 62.7073 5.68533 2.11791 0
M  V30 712 H 61.4463 4.42158 2.05786 0
M  V30 713 H 60.4513 5.49796 0.0197725 0
M  V30 714 H 61.6763 6.79028 0.09912 0
M  V30 715 H 59.6223 6.16094 2.25308 0
M  V30 716 H 59.5393 7.47556 1.12673 0
M  V30 717 H 60.8073 7.44316 2.31546 0
M  V30 718 N 65.0364 0.313813 1.54444 0
M  V30 719 C 65.9994 -0.54379 2.22656 0
M  V30 720 C 66.9994 -1.05124 1.21678 0
M  V30 721 O 68.1894 -0.945225 1.46325 0
M  V30 722 C 65.3214 -1.75427 2.92298 0
M  V30 723 H 66.5144 0.0523599 2.99854 0
M  V30 724 H 64.0674 0.0647834 1.56166 0
M  V30 725 H 64.8024 -2.38991 2.19211 0
M  V30 726 H 64.5874 -1.39791 3.66334 0
M  V30 727 H 66.0774 -2.36325 3.44297 0
M  V30 728 N 66.5145 -1.57545 0.0417849 0
M  V30 729 C 67.7605 -1.92601 -0.635021 0
M  V30 730 C 68.0935 -0.919627 -1.71045 0
M  V30 731 O 67.3685 0.0557892 -1.9442 0
M  V30 732 C 67.6515 -3.38085 -1.23979 0
M  V30 733 C 67.5045 -4.49467 -0.173057 0
M  V30 734 C 68.8235 -3.83776 -2.15416 0
M  V30 735 H 65.9425 -0.700397 -0.229374 0
M  V30 736 H 68.5845 -1.89728 0.101633 0
M  V30 737 H 66.7345 -3.40664 -1.86762 0
M  V30 738 H 68.4065 -4.59018 0.458312 0
M  V30 739 H 66.6495 -4.30909 0.499996 0
M  V30 740 H 67.3205 -5.48323 -0.636054 0
M  V30 741 H 69.7965 -3.83013 -1.62605 0
M  V30 742 H 68.6725 -4.8624 -2.54679 0
M  V30 743 H 68.9335 -3.19998 -3.05047 0
M  V30 744 N 67.9926 0.231505 -1.5589 0
M  V30 745 C 69.2386 0.95877 -1.78705 0
M  V30 746 C 69.5716 1.8438 -0.609725 0
M  V30 747 O 68.8466 1.90521 0.391426 0
M  V30 748 C 69.1296 1.8062 -3.11526 0
M  V30 749 C 68.9826 0.948328 -4.39689 0
M  V30 750 C 70.3016 2.78585 -3.40703 0
M  V30 751 H 67.4206 0.347129 -0.650131 0
M  V30 752 H 70.0626 0.228259 -1.88624 0
M  V30 753 H 68.2126 2.42902 -3.03201 0
M  V30 754 H 69.8846 0.343016 -4.60023 0
M  V30 755 H 68.1276 0.253314 -4.3306 0
M  V30 756 H 68.7986 1.57543 -5.29041 0
M  V30 757 H 71.2746 2.26439 -3.49091 0
M  V30 758 H 70.1506 3.34988 -4.34826 0
M  V30 759 H 70.4116 3.55825 -2.62375 0
M  V30 760 N 69.4707 1.49531 0.497807 0
M  V30 761 C 70.7477 1.49682 1.25915 0
M  V30 762 C 71.1277 0.226339 2.09883 0
M  V30 763 O 70.4757 -0.791189 2.14365 0
M  V30 764 C 70.6857 2.77755 2.11313 0
M  V30 765 C 72.0337 3.27371 2.70395 0
M  V30 766 O 73.0577 2.78894 2.21578 0
M  V30 767 O 71.9167 4.11808 3.59272 0
M  V30 768 H 69.0107 0.599228 0.56996 0
M  V30 769 H 71.5567 1.61798 0.511816 0
M  V30 770 H 70.3287 3.61713 1.49264 0
M  V30 771 H 69.9517 2.68515 2.93233 0
M  V30 772 N 70.9488 -0.749086 1.3866 0
M  V30 773 C 71.8958 -1.86291 1.36251 0
M  V30 774 C 72.8658 -1.64578 0.224347 0
M  V30 775 O 74.0508 -1.86181 0.417279 0
M  V30 776 C 71.1908 -3.23644 1.19786 0
M  V30 777 C 70.3038 -3.57158 2.43027 0
M  V30 778 C 69.4388 -4.83838 2.19258 0
M  V30 779 C 68.4778 -5.10152 3.38247 0
M  V30 780 N 67.6148 -6.28029 3.13884 0
M  V30 781 H 72.4548 -1.87685 2.3147 0
M  V30 782 H 69.9918 -0.917287 1.14997 0
M  V30 783 H 71.9498 -4.0291 1.08254 0
M  V30 784 H 70.5798 -3.21566 0.282031 0
M  V30 785 H 69.6318 -2.72701 2.65214 0
M  V30 786 H 70.9438 -3.7253 3.31697 0
M  V30 787 H 70.0978 -5.71057 2.04888 0
M  V30 788 H 68.8368 -4.70614 1.2796 0
M  V30 789 H 67.8418 -4.21401 3.53131 0
M  V30 790 H 69.0668 -5.25271 4.30427 0
M  V30 791 H 67.0128 -6.1612 2.25238 0
M  V30 792 H 66.9298 -6.43922 3.96106 0
M  V30 793 H 68.1978 -7.18124 3.03179 0
M  V30 794 N 72.4269 -1.23603 -0.977757 0
M  V30 795 C 73.6729 -1.08136 -1.72274 0
M  V30 796 C 74.0279 0.377453 -1.88661 0
M  V30 797 O 73.3209 1.27552 -1.42972 0
M  V30 798 C 73.5149 -1.7433 -3.11999 0
M  V30 799 C 73.3439 -3.26498 -3.0924 0
M  V30 800 C 72.1139 -3.9567 -3.14282 0
M  V30 801 C 74.3119 -4.2323 -2.92201 0
M  V30 802 N 72.2939 -5.34799 -3.01436 0
M  V30 803 C 73.6649 -5.49289 -2.87544 0
M  V30 804 C 75.7199 -4.13931 -2.76705 0
M  V30 805 C 74.4229 -6.67116 -2.68978 0
M  V30 806 C 76.4489 -5.31424 -2.59504 0
M  V30 807 C 75.8109 -6.5641 -2.55548 0
M  V30 808 H 71.9099 -0.450247 -0.639376 0
M  V30 809 H 74.4939 -1.5637 -1.16002 0
M  V30 810 H 72.6649 -1.28624 -3.66484 0
M  V30 811 H 74.3969 -1.51815 -3.75146 0
M  V30 812 H 71.1519 -3.46767 -3.22567 0
M  V30 813 H 71.5759 -6.07748 -2.98281 0
M  V30 814 H 76.2179 -3.1807 -2.78552 0
M  V30 815 H 73.9359 -7.63109 -2.65876 0
M  V30 816 H 77.5219 -5.26072 -2.48474 0
M  V30 817 H 76.4019 -7.45795 -2.42405 0
M  V30 818 N 73.905 1.17692 -1.04816 0
M  V30 819 C 75.316 1.69501 -0.782698 0
M  V30 820 C 75.667 1.83456 0.695577 0
M  V30 821 O 74.792 1.51942 1.54086 0
M  V30 822 C 75.387 3.07874 -1.41419 0
M  V30 823 C 73.946 3.56864 -1.19686 0
M  V30 824 C 73.093 2.3322 -1.50012 0
M  V30 825 H 76.044 1.02262 -1.2136 0
M  V30 826 H 76.065 3.71528 -0.821428 0
M  V30 827 H 75.577 2.97685 -2.49009 0
M  V30 828 H 73.678 3.72337 -0.140043 0
M  V30 829 H 73.791 4.39851 -1.89916 0
M  V30 830 H 72.155 2.37501 -0.920071 0
M  V30 831 H 72.938 2.25644 -2.58727 0
M  V30 832 N 75.3831 0.828654 1.34056 0
M  V30 833 C 76.6601 0.341809 1.9259 0
M  V30 834 C 77.0401 -1.17158 1.75605 0
M  V30 835 O 76.3881 -1.98132 1.13824 0
M  V30 836 C 76.5981 0.777453 3.4023 0
M  V30 837 C 77.9461 0.779579 4.17382 0
M  V30 838 O 78.9701 0.7204 3.48839 0
M  V30 839 O 77.8291 0.857996 5.39723 0
M  V30 840 H 74.9231 0.0946085 0.821571 0
M  V30 841 H 77.4691 0.913827 1.42994 0
M  V30 842 H 76.2411 1.8196 3.46419 0
M  V30 843 H 75.8641 0.181444 3.97186 0
M  V30 844 N 76.8612 -1.46375 0.584142 0
M  V30 845 C 78.1082 -2.02378 0.0702675 0
M  V30 846 C 78.4362 -1.45545 -1.29023 0
M  V30 847 O 77.6912 -0.610967 -1.85918 0
M  V30 848 C 77.9902 -3.57373 -0.0439342 0
M  V30 849 C 77.6562 -4.33252 1.24915 0
M  V30 850 C 76.3182 -4.53701 1.60341 0
M  V30 851 C 78.6702 -4.7681 2.1048 0
M  V30 852 C 75.9982 -5.1496 2.81128 0
M  V30 853 C 78.3502 -5.39404 3.30494 0
M  V30 854 C 77.0142 -5.5808 3.66201 0
M  V30 855 H 76.2842 -0.740554 0.0257127 0
M  V30 856 H 78.9312 -1.75727 0.761065 0
M  V30 857 H 77.2362 -3.83169 -0.817869 0
M  V30 858 H 78.9332 -3.98384 -0.457318 0
M  V30 859 H 75.5232 -4.17633 0.963364 0
M  V30 860 H 79.7072 -4.60766 1.84414 0
M  V30 861 H 74.9632 -5.27611 3.08928 0
M  V30 862 H 79.1372 -5.72114 3.97063 0
M  V30 863 H 76.7642 -6.05318 4.59885 0
M  V30 864 N 78.3393 -0.321999 -1.54275 0
M  V30 865 C 79.2873 0.560206 -2.25753 0
M  V30 866 C 80.2813 1.11984 -1.27106 0
M  V30 867 O 81.4873 1.06806 -1.44888 0
M  V30 868 H 77.8623 0.199304 -0.725108 0
M  V30 869 H 79.8333 -0.0649365 -2.98329 0
M  V30 870 C 78.5823 1.71023 -3.02731 0
M  V30 871 H 77.9053 1.28885 -3.78456 0
M  V30 872 H 79.3453 2.30314 -3.55993 0
M  V30 873 C 77.8043 2.62692 -2.10938 0
M  V30 874 O 78.3343 3.64364 -1.6912 0
M  V30 875 N 76.5403 2.30891 -1.76459 0
M  V30 876 H 76.0873 1.48253 -2.10663 0
M  V30 877 H 76.0453 2.92487 -1.1532 0
M  V30 878 N 79.8174 1.5752 -0.0501392 0
M  V30 879 C 81.0454 1.96963 0.633492 0
M  V30 880 C 81.4604 0.927631 1.6444 0
M  V30 881 O 80.8174 -0.0882665 1.82286 0
M  V30 882 C 80.8684 3.36487 1.32132 0
M  V30 883 O 80.5894 4.36693 0.350894 0
M  V30 884 C 82.0904 3.90682 2.09481 0
M  V30 885 H 79.3104 0.648244 0.173266 0
M  V30 886 H 81.8544 2.0417 -0.116134 0
M  V30 887 H 80.0094 3.30434 2.02218 0
M  V30 888 H 80.4234 5.17702 0.841735 0
M  V30 889 H 81.8974 4.90591 2.5303 0
M  V30 890 H 82.3744 3.26053 2.94255 0
M  V30 891 H 82.9804 4.00069 1.44307 0
M  V30 892 N 81.2955 -0.223234 1.56011 0
M  V30 893 C 82.5415 -0.949279 1.79211 0
M  V30 894 C 82.8745 -1.84054 0.619494 0
M  V30 895 O 82.1495 -1.90726 -0.381317 0
M  V30 896 C 82.4325 -1.78965 3.12479 0
M  V30 897 C 82.2855 -0.924997 4.40186 0
M  V30 898 C 83.6045 -2.76774 3.42175 0
M  V30 899 H 80.7235 -0.343676 0.651963 0
M  V30 900 H 83.3655 -0.218253 1.88742 0
M  V30 901 H 81.5155 -2.41291 3.04485 0
M  V30 902 H 83.1875 -0.318615 4.60198 0
M  V30 903 H 81.4305 -0.230344 4.33188 0
M  V30 904 H 82.1015 -1.54735 5.29869 0
M  V30 905 H 84.5775 -2.24584 3.50287 0
M  V30 906 H 83.4535 -3.32678 4.36597 0
M  V30 907 H 83.7145 -3.54429 2.64258 0
M  V30 908 N 82.7736 -1.49793 -0.48987 0
M  V30 909 C 84.0196 -1.60078 -1.24511 0
M  V30 910 C 84.3526 -0.291608 -1.91998 0
M  V30 911 O 83.6276 0.705647 -1.81248 0
M  V30 912 C 83.9106 -2.76791 -2.30345 0
M  V30 913 C 83.7636 -4.17535 -1.67286 0
M  V30 914 C 85.0826 -2.89111 -3.31817 0
M  V30 915 H 82.2016 -0.582645 -0.451324 0
M  V30 916 H 84.8436 -1.82117 -0.541612 0
M  V30 917 H 82.9936 -2.5813 -2.90346 0
M  V30 918 H 84.6656 -4.4774 -1.11026 0
M  V30 919 H 82.9086 -4.22665 -0.976577 0
M  V30 920 H 83.5796 -4.95094 -2.44103 0
M  V30 921 H 86.0556 -3.06133 -2.81819 0
M  V30 922 H 84.9316 -3.72433 -4.03219 0
M  V30 923 H 85.1926 -1.9893 -3.94815 0
M  V30 924 N 84.2517 0.741722 -1.39055 0
M  V30 925 C 85.4977 1.50336 -1.36113 0
M  V30 926 C 85.8307 1.94148 0.0450796 0
M  V30 927 O 85.1057 1.66301 1.00868 0
M  V30 928 C 85.3887 2.74773 -2.32749 0
M  V30 929 C 85.2417 2.37023 -3.82283 0
M  V30 930 C 86.5607 3.76846 -2.27322 0
M  V30 931 H 83.6797 0.545351 -0.495743 0
M  V30 932 H 86.3217 0.848624 -1.69995 0
M  V30 933 H 84.4717 3.30639 -2.03986 0
M  V30 934 H 86.1437 1.8684 -4.21768 0
M  V30 935 H 84.3867 1.69334 -3.99385 0
M  V30 936 H 85.0577 3.26104 -4.45376 0
M  V30 937 H 87.5337 3.30548 -2.5274 0
M  V30 938 H 86.4097 4.6159 -2.97028 0
M  V30 939 H 86.6707 4.23286 -1.27599 0
M  V30 940 N 85.7298 1.2412 0.971189 0
M  V30 941 C 86.9698 1.09066 1.7287 0
M  V30 942 C 87.3338 -0.364794 1.88503 0
M  V30 943 O 88.5348 -0.636748 2.61149 0
M  V30 944 C 86.8058 1.80629 3.08396 0
M  V30 945 S 88.3648 1.81263 3.99611 0
M  V30 946 H 85.1828 0.390145 0.594397 0
M  V30 947 H 87.7848 1.57397 1.15959 0
M  V30 948 H 86.4888 2.85647 2.94676 0
M  V30 949 H 86.0198 1.32617 3.70373 0
M  V30 950 H 88.0348 0.877804 4.88374 0
M  V30 951 N 87.2079 -1.17134 1.05439 0
M  V30 952 C 88.6189 -1.69084 0.791676 0
M  V30 953 C 88.9699 -1.83822 -0.685839 0
M  V30 954 O 88.0949 -1.52757 -1.53278 0
M  V30 955 C 88.6899 -3.07119 1.4305 0
M  V30 956 C 87.2489 -3.56225 1.21577 0
M  V30 957 C 86.3959 -2.32421 1.51247 0
M  V30 958 H 89.3469 -1.01617 1.219 0
M  V30 959 H 89.3679 -3.71087 0.84112 0
M  V30 960 H 88.8799 -2.9636 2.50584 0
M  V30 961 H 86.9809 -3.72257 0.159787 0
M  V30 962 H 87.0939 -4.38837 1.92246 0
M  V30 963 H 85.4579 -2.3701 0.932653 0
M  V30 964 H 86.2409 -2.24268 2.5992 0
M  V30 965 N 88.686 -0.835752 -1.33615 0
M  V30 966 C 89.618 -0.224151 -2.28101 0
M  V30 967 C 90.631 0.593331 -1.51603 0
M  V30 968 O 91.82 0.420911 -1.73466 0
M  V30 969 C 88.92 0.703309 -3.31522 0
M  V30 970 C 88.093 -0.0741528 -4.37337 0
M  V30 971 C 87.152 0.776176 -5.20444 0
M  V30 972 O 86.178 0.216506 -5.68788 0
M  V30 973 N 87.38 2.09401 -5.41416 0
M  V30 974 H 90.145 -1.03598 -2.81225 0
M  V30 975 H 87.706 -0.69392 -1.46275 0
M  V30 976 H 89.698 1.27707 -3.84022 0
M  V30 977 H 88.268 1.41585 -2.78698 0
M  V30 978 H 87.488 -0.82928 -3.85378 0
M  V30 979 H 88.776 -0.608863 -5.05144 0
M  V30 980 H 88.174 2.57229 -5.03835 0
M  V30 981 H 86.731 2.61633 -5.96985 0
M  V30 982 N 90.1641 1.46063 -0.591896 0
M  V30 983 C 91.0741 2.34192 0.13831 0
M  V30 984 C 92.0901 1.50305 0.876608 0
M  V30 985 O 93.2661 1.8315 0.837728 0
M  V30 986 C 90.3311 3.27656 1.13326 0
M  V30 987 C 89.3921 4.27445 0.39863 0
M  V30 988 C 88.6251 5.16443 1.34618 0
M  V30 989 O 88.8481 5.08553 2.58321 0
M  V30 990 O 87.7821 5.95843 0.851768 0
M  V30 991 H 91.6081 2.98002 -0.58552 0
M  V30 992 H 89.1931 1.45188 -0.352239 0
M  V30 993 H 91.0751 3.85291 1.70671 0
M  V30 994 H 89.7501 2.6643 1.83839 0
M  V30 995 H 88.6571 3.73471 -0.216895 0
M  V30 996 H 89.9901 4.91482 -0.265709 0
M  V30 997 N 91.6422 0.330177 1.54103 0
M  V30 998 C 92.5742 -0.566902 2.22079 0
M  V30 999 C 93.5872 -1.07462 1.22294 0
M  V30 1000 O 94.7762 -0.987065 1.48726 0
M  V30 1001 C 91.8762 -1.79138 2.87685 0
M  V30 1002 C 91.0492 -1.42123 4.13666 0
M  V30 1003 C 90.1082 -2.50394 4.62806 0
M  V30 1004 O 89.1342 -2.14261 5.27334 0
M  V30 1005 N 90.3362 -3.81433 4.37595 0
M  V30 1006 H 93.1012 0.0151844 2.99696 0
M  V30 1007 H 90.6622 0.153681 1.61169 0
M  V30 1008 H 92.6542 -2.50975 3.1748 0
M  V30 1009 H 91.2242 -2.28115 2.13734 0
M  V30 1010 H 90.4442 -0.534201 3.90564 0
M  V30 1011 H 91.7322 -1.14971 4.9564 0
M  V30 1012 H 91.1302 -4.13584 3.8596 0
M  V30 1013 H 89.6872 -4.4948 4.72029 0
M  V30 1014 N 93.1203 -1.57491 0.0584922 0
M  V30 1015 C 94.3973 -1.84346 -0.653918 0
M  V30 1016 C 94.7773 -0.948355 -1.88599 0
M  V30 1017 O 94.1253 -0.0112403 -2.28497 0
M  V30 1018 C 94.3353 -3.34239 -1.00425 0
M  V30 1019 C 95.6833 -4.01431 -1.38342 0
M  V30 1020 O 96.7073 -3.38907 -1.09637 0
M  V30 1021 O 95.5663 -5.11683 -1.91943 0
M  V30 1022 H 92.6603 -0.761112 -0.323478 0
M  V30 1023 H 95.2063 -1.6947 0.0884125 0
M  V30 1024 H 93.9783 -3.91089 -0.128625 0
M  V30 1025 H 93.6013 -3.54329 -1.80378 0
M  V30 1026 N 94.5984 0.214957 -1.56127 0
M  V30 1027 C 95.5314 1.29382 -1.87977 0
M  V30 1028 C 96.5094 1.44897 -0.737807 0
M  V30 1029 O 97.6934 1.60605 -0.986833 0
M  V30 1030 C 94.8204 2.66325 -2.09258 0
M  V30 1031 C 93.8664 2.67789 -3.31951 0
M  V30 1032 S 94.6994 2.21198 -4.8768 0
M  V30 1033 C 95.8554 3.60003 -5.12004 0
M  V30 1034 H 96.0884 1.02173 -2.79192 0
M  V30 1035 H 93.6214 0.417516 -1.48648 0
M  V30 1036 H 95.5794 3.45162 -2.22201 0
M  V30 1037 H 94.2404 2.90755 -1.18829 0
M  V30 1038 H 93.4334 3.68436 -3.43906 0
M  V30 1039 H 93.0354 1.9702 -3.17898 0
M  V30 1040 H 95.3274 4.55739 -5.01307 0
M  V30 1041 H 96.2704 3.52959 -6.13861 0
M  V30 1042 H 96.6784 3.53996 -4.39712 0
M  V30 1043 N 96.0765 1.50051 0.48192 0
M  V30 1044 C 97.3045 1.64237 1.25832 0
M  V30 1045 C 97.7195 0.321336 1.86045 0
M  V30 1046 O 97.0765 -0.695478 1.68729 0
M  V30 1047 C 97.1275 2.72548 2.37487 0
M  V30 1048 O 96.8485 3.99529 1.79745 0
M  V30 1049 C 98.3495 2.9761 3.28547 0
M  V30 1050 H 95.5695 0.55237 0.380957 0
M  V30 1051 H 98.1135 1.96207 0.576467 0
M  V30 1052 H 96.2685 2.43303 3.01467 0
M  V30 1053 H 96.6825 4.59342 2.5319 0
M  V30 1054 H 98.1565 3.77084 4.03127 0
M  V30 1055 H 98.6335 2.0826 3.86684 0
M  V30 1056 H 99.2395 3.28345 2.70314 0
M  V30 1057 N 97.5546 -0.734337 1.39446 0
M  V30 1058 C 98.8316 -1.48579 1.27215 0
M  V30 1059 C 99.2116 -2.1077 -0.117968 0
M  V30 1060 O 98.5596 -1.98646 -1.12924 0
M  V30 1061 C 98.7696 -2.53667 2.39696 0
M  V30 1062 C 100.118 -3.20031 2.79044 0
M  V30 1063 O 101.142 -2.6398 2.39151 0
M  V30 1064 O 100.001 -4.21455 3.47905 0
M  V30 1065 H 97.0946 -0.659816 0.49857 0
M  V30 1066 H 99.6406 -0.768106 1.51322 0
M  V30 1067 H 98.4126 -2.06096 3.32626 0
M  V30 1068 H 98.0356 -3.32994 2.17258 0
M  V30 1069 N 99.0327 -1.24633 -0.964593 0
M  V30 1070 C 100.31 -0.995809 -1.68354 0
M  V30 1071 C 100.69 0.480964 -2.05548 0
M  V30 1072 O 100.038 1.45599 -1.76105 0
M  V30 1073 C 100.248 -1.92177 -2.91323 0
M  V30 1074 C 101.596 -2.19446 -3.63495 0
M  V30 1075 O 102.62 -1.89855 -3.01386 0
M  V30 1076 O 101.479 -2.69714 -4.75307 0
M  V30 1077 H 98.5727 -0.376854 -0.736146 0
M  V30 1078 H 101.119 -1.35745 -1.0184 0
M  V30 1079 H 99.8907 -2.91938 -2.60553 0
M  V30 1080 H 99.5137 -1.56349 -3.65569 0
M  V30 1081 N 100.511 1.16574 -1.06058 0
M  V30 1082 C 101.441 2.23057 -0.690488 0
M  V30 1083 C 102.422 1.67141 0.315901 0
M  V30 1084 O 103.607 1.93253 0.191556 0
M  V30 1085 C 100.737 3.47222 -0.073625 0
M  V30 1086 C 99.6908 4.16016 -1.00573 0
M  V30 1087 C 99.0168 5.34104 -0.252289 0
M  V30 1088 C 100.317 4.67264 -2.33371 0
M  V30 1089 H 102.011 2.54271 -1.58072 0
M  V30 1090 H 99.5568 1.22218 -0.76149 0
M  V30 1091 H 101.51 4.20939 0.19714 0
M  V30 1092 H 100.234 3.15302 0.85161 0
M  V30 1093 H 98.8928 3.44223 -1.2612 0
M  V30 1094 H 98.5408 4.98437 0.675988 0
M  V30 1095 H 98.2408 5.81072 -0.873455 0
M  V30 1096 H 99.7648 6.10599 0.0109857 0
M  V30 1097 H 101.179 5.32573 -2.12223 0
M  V30 1098 H 99.5758 5.24843 -2.90963 0
M  V30 1099 H 100.646 3.83602 -2.96611 0
M  V30 1100 N 101.989 0.842826 1.3317 0
M  V30 1101 C 103.266 0.362216 1.92217 0
M  V30 1102 C 103.646 -1.15289 1.76838 0
M  V30 1103 O 102.994 -1.96914 1.15919 0
M  V30 1104 C 103.204 0.813495 3.39387 0
M  V30 1105 C 104.552 0.823804 4.16532 0
M  V30 1106 O 105.576 0.757358 3.48055 0
M  V30 1107 O 104.435 0.915193 5.38782 0
M  V30 1108 H 101.529 0.103317 0.820521 0
M  V30 1109 H 104.075 0.928942 1.42017 0
M  V30 1110 H 102.847 1.85624 3.4447 0
M  V30 1111 H 102.47 0.223561 3.96971 0
M  V30 1112 N 103.467 -1.45747 0.599634 0
M  V30 1113 C 104.417 -2.27538 -0.145107 0
M  V30 1114 C 105.401 -1.3686 -0.846055 0
M  V30 1115 O 106.593 -1.6091 -0.737357 0
M  V30 1116 C 103.722 -3.23569 -1.14708 0
M  V30 1117 C 102.808 -4.21734 -0.447383 0
M  V30 1118 N 103.199 -5.03257 0.506535 0
M  V30 1119 C 101.497 -4.40536 -0.695966 0
M  V30 1120 C 102.198 -5.74426 0.917068 0
M  V30 1121 N 101.174 -5.42966 0.26253 0
M  V30 1122 H 104.976 -2.87965 0.587672 0
M  V30 1123 H 102.49 -1.56803 0.422697 0
M  V30 1124 H 104.487 -3.8089 -1.69495 0
M  V30 1125 H 103.147 -2.64702 -1.8805 0
M  V30 1126 H 104.158 -5.10319 0.882899 0
M  V30 1127 H 100.835 -3.92802 -1.41467 0
M  V30 1128 H 102.225 -6.4995 1.70338 0
M  V30 1129 N 104.945 -0.338344 -1.53925 0
M  V30 1130 C 106.175 0.260919 -2.04946 0
M  V30 1131 C 106.583 1.45174 -1.2133 0
M  V30 1132 O 105.926 1.82122 -0.240262 0
M  V30 1133 C 105.988 0.744596 -3.51704 0
M  V30 1134 C 105.652 -0.325883 -4.55837 0
M  V30 1135 C 106.649 -1.16687 -5.06636 0
M  V30 1136 C 104.334 -0.478317 -5.00017 0
M  V30 1137 C 106.328 -2.14588 -6.00192 0
M  V30 1138 C 104.015 -1.46073 -5.93385 0
M  V30 1139 C 105.013 -2.29297 -6.4336 0
M  V30 1140 O 104.701 -3.25867 -7.34892 0
M  V30 1141 H 104.433 0.0551207 -0.673749 0
M  V30 1142 H 106.987 -0.486984 -1.99544 0
M  V30 1143 H 105.217 1.54366 -3.54553 0
M  V30 1144 H 106.906 1.26383 -3.85723 0
M  V30 1145 H 107.672 -1.06016 -4.73271 0
M  V30 1146 H 103.551 0.159613 -4.60724 0
M  V30 1147 H 107.095 -2.79585 -6.39123 0
M  V30 1148 H 102.992 -1.56802 -6.26166 0
M  V30 1149 H 103.76 -3.21278 -7.5281 0
M  V30 1150 N 106.423 1.57458 -0.0668435 0
M  V30 1151 C 107.651 1.97624 0.612565 0
M  V30 1152 C 108.066 0.94502 1.63447 0
M  V30 1153 O 107.423 -0.0689276 1.8237 0
M  V30 1154 C 107.474 3.37869 1.28555 0
M  V30 1155 O 107.195 4.3704 0.304557 0
M  V30 1156 C 108.696 3.92882 2.05325 0
M  V30 1157 H 105.916 0.650045 0.166381 0
M  V30 1158 H 108.46 2.04035 -0.137782 0
M  V30 1159 H 106.615 3.3256 1.98702 0
M  V30 1160 H 107.029 5.18565 0.786779 0
M  V30 1161 H 108.503 4.93247 2.47812 0
M  V30 1162 H 108.98 3.29156 2.9078 0
M  V30 1163 H 109.586 4.01577 1.40056 0
M  V30 1164 N 107.901 -0.206675 1.56239 0
M  V30 1165 C 108.849 -1.27571 1.94495 0
M  V30 1166 C 109.843 -1.47737 0.828862 0
M  V30 1167 O 111.049 -1.48735 1.0138 0
M  V30 1168 H 107.424 -0.428029 0.6183 0
M  V30 1169 H 109.395 -0.925961 2.8367 0
M  V30 1170 C 108.144 -2.61568 2.29079 0
M  V30 1171 H 107.467 -2.46863 3.14482 0
M  V30 1172 H 108.907 -3.35144 2.5972 0
M  V30 1173 C 107.366 -3.17695 1.12123 0
M  V30 1174 O 107.896 -3.99801 0.390153 0
M  V30 1175 N 106.102 -2.76276 0.901097 0
M  V30 1176 H 105.649 -2.09613 1.49733 0
M  V30 1177 H 105.607 -3.1417 0.120319 0
M  V30 1178 N 109.379 -1.50304 -0.473955 0
M  V30 1179 C 110.607 -1.64902 -1.24959 0
M  V30 1180 C 111.022 -0.331198 -1.85872 0
M  V30 1181 O 110.379 0.68652 -1.69095 0
M  V30 1182 C 110.43 -2.73803 -2.36038 0
M  V30 1183 O 110.151 -4.00477 -1.77624 0
M  V30 1184 C 111.652 -2.99349 -3.26964 0
M  V30 1185 H 108.872 -0.554383 -0.378022 0
M  V30 1186 H 111.416 -1.9651 -0.566054 0
M  V30 1187 H 109.571 -2.44898 -3.00173 0
M  V30 1188 H 109.985 -4.60678 -2.5075 0
M  V30 1189 H 111.459 -3.79217 -4.01121 0
M  V30 1190 H 111.936 -2.10307 -3.85574 0
M  V30 1191 H 112.542 -3.29774 -2.68569 0
M  V30 1192 N 110.857 0.726932 -1.39834 0
M  V30 1193 C 112.087 1.51393 -1.40583 0
M  V30 1194 C 112.495 1.892 -0.000740625 0
M  V30 1195 O 111.838 1.55189 0.982951 0
M  V30 1196 C 111.9 2.82588 -2.22226 0
M  V30 1197 C 111.564 2.67169 -3.70769 0
M  V30 1198 C 112.561 2.3518 -4.63666 0
M  V30 1199 C 110.246 2.83788 -4.14451 0
M  V30 1200 C 112.24 2.20002 -5.98229 0
M  V30 1201 C 109.927 2.68229 -5.49087 0
M  V30 1202 C 110.925 2.36382 -6.4079 0
M  V30 1203 O 110.613 2.2093 -7.72946 0
M  V30 1204 H 110.345 0.474168 -0.48181 0
M  V30 1205 H 112.899 0.905247 -1.84376 0
M  V30 1206 H 111.129 3.45746 -1.73195 0
M  V30 1207 H 112.818 3.44247 -2.15055 0
M  V30 1208 H 113.584 2.21984 -4.31217 0
M  V30 1209 H 109.463 3.07566 -3.43401 0
M  V30 1210 H 113.007 1.95067 -6.69772 0
M  V30 1211 H 108.904 2.81006 -5.81125 0
M  V30 1212 H 109.672 2.35937 -7.83757 0
M  V30 1213 N 112.336 1.25143 0.95797 0
M  V30 1214 C 113.268 1.01023 2.05735 0
M  V30 1215 C 114.281 -0.0236902 1.62783 0
M  V30 1216 O 115.47 0.21448 1.77207 0
M  V30 1217 C 112.57 0.504595 3.35122 0
M  V30 1218 C 111.743 1.6039 4.06932 0
M  V30 1219 C 110.802 1.09922 5.14591 0
M  V30 1220 O 109.828 1.79293 5.40225 0
M  V30 1221 N 111.03 -0.0612545 5.80468 0
M  V30 1222 H 113.795 1.95683 2.26998 0
M  V30 1223 H 111.356 1.16303 1.12629 0
M  V30 1224 H 113.348 0.151516 4.04416 0
M  V30 1225 H 111.918 -0.347989 3.10657 0
M  V30 1226 H 111.138 2.12872 3.31782 0
M  V30 1227 H 112.426 2.34252 4.51667 0
M  V30 1228 H 111.824 -0.640985 5.62057 0
M  V30 1229 H 110.381 -0.355395 6.5083 0
M  V30 1230 N 113.814 -1.1601 1.06675 0
M  V30 1231 C 115.063 -1.85973 0.780818 0
M  V30 1232 C 115.376 -1.82819 -0.695444 0
M  V30 1233 O 116.582 -2.484 -1.09589 0
M  V30 1234 C 115.038 -3.33757 1.34665 0
M  V30 1235 C 114.646 -3.45374 2.85343 0
M  V30 1236 C 116.39 -4.0895 1.13843 0
M  V30 1237 C 114.297 -4.87266 3.35151 0
M  V30 1238 H 113.227 -0.696661 0.288407 0
M  V30 1239 H 115.878 -1.30903 1.28595 0
M  V30 1240 H 114.26 -3.88456 0.769274 0
M  V30 1241 H 115.434 -3.00816 3.49065 0
M  V30 1242 H 113.749 -2.83619 3.04876 0
M  V30 1243 H 116.346 -5.13654 1.4854 0
M  V30 1244 H 116.689 -4.16229 0.0770282 0
M  V30 1245 H 117.222 -3.605 1.68179 0
M  V30 1246 H 113.961 -4.85168 4.40786 0
M  V30 1247 H 113.481 -5.32433 2.76179 0
M  V30 1248 H 115.16 -5.56097 3.30704 0
M  V30 1249 N 115.292 -0.849877 -1.32721 0
M  V30 1250 C 116.522 -0.46408 -2.0132 0
M  V30 1251 C 116.93 0.94246 -1.64056 0
M  V30 1252 O 116.273 1.6257 -0.855379 0
M  V30 1253 C 116.335 -0.517887 -3.5575 0
M  V30 1254 C 115.999 -1.88248 -4.16427 0
M  V30 1255 C 116.996 -2.84726 -4.35002 0
M  V30 1256 C 114.681 -2.17832 -4.52609 0
M  V30 1257 C 116.675 -4.08945 -4.8892 0
M  V30 1258 C 114.362 -3.42304 -5.06232 0
M  V30 1259 C 115.36 -4.37677 -5.24335 0
M  V30 1260 O 115.048 -5.59946 -5.76815 0
M  V30 1261 H 114.78 -0.181327 -0.651227 0
M  V30 1262 H 117.334 -1.14713 -1.70382 0
M  V30 1263 H 115.564 0.221997 -3.86062 0
M  V30 1264 H 117.253 -0.148366 -4.05629 0
M  V30 1265 H 118.019 -2.63174 -4.07388 0
M  V30 1266 H 113.898 -1.44385 -4.37806 0
M  V30 1267 H 117.442 -4.83396 -5.02966 0
M  V30 1268 H 113.339 -3.63709 -5.33278 0
M  V30 1269 H 114.107 -5.61838 -5.95214 0
M  V30 1270 N 116.77 1.45427 -0.607355 0
M  V30 1271 C 117.995 2.07124 -0.107006 0
M  V30 1272 C 118.42 1.44906 1.19933 0
M  V30 1273 O 117.778 0.541687 1.73019 0
M  V30 1274 C 117.826 3.60595 0.0194119 0
M  V30 1275 O 116.93 3.98285 1.0697 0
M  V30 1276 H 116.271 0.659868 -0.0739597 0
M  V30 1277 H 118.801 1.86683 -0.837297 0
M  V30 1278 H 118.811 4.07419 0.2177 0
M  V30 1279 H 117.486 4.05266 -0.934453 0
M  V30 1280 H 116.063 3.63133 0.847889 0
M  V30 1281 N 118.248 0.346503 1.53744 0
M  V30 1282 C 119.195 -0.508914 2.25119 0
M  V30 1283 C 120.165 -1.09315 1.25058 0
M  V30 1284 O 121.35 -1.12921 1.53797 0
M  V30 1285 C 118.49 -1.65246 3.02965 0
M  V30 1286 C 117.603 -1.09525 4.17886 0
M  V30 1287 C 116.738 -2.20634 4.83212 0
M  V30 1288 C 115.777 -1.62279 5.90196 0
M  V30 1289 N 114.914 -2.67143 6.49291 0
M  V30 1290 H 119.754 0.106283 2.9781 0
M  V30 1291 H 117.291 0.0642227 1.4696 0
M  V30 1292 H 119.249 -2.32574 3.4636 0
M  V30 1293 H 117.879 -2.2386 2.32565 0
M  V30 1294 H 116.931 -0.312818 3.79112 0
M  V30 1295 H 118.243 -0.628444 4.94825 0
M  V30 1296 H 117.397 -2.95821 5.29693 0
M  V30 1297 H 116.136 -2.70659 4.05703 0
M  V30 1298 H 115.141 -0.855989 5.43096 0
M  V30 1299 H 116.366 -1.13102 6.69615 0
M  V30 1300 H 114.312 -3.16417 5.74645 0
M  V30 1301 H 114.229 -2.25093 7.21713 0
M  V30 1302 H 115.497 -3.4209 7.00425 0
M  V30 1303 N 119.726 -1.57421 0.075193 0
M  V30 1304 C 121.003 -1.85029 -0.634329 0
M  V30 1305 C 121.383 -0.968305 -1.87582 0
M  V30 1306 O 120.731 -0.0354749 -2.28472 0
M  V30 1307 C 120.941 -3.35286 -0.968742 0
M  V30 1308 C 122.289 -4.02875 -1.34077 0
M  V30 1309 O 123.313 -3.40051 -1.06037 0
M  V30 1310 O 122.172 -5.13691 -1.86506 0
M  V30 1311 H 119.266 -0.7645 -0.315387 0
M  V30 1312 H 121.812 -1.69366 0.106382 0
M  V30 1313 H 120.584 -3.91203 -0.0871376 0
M  V30 1314 H 120.207 -3.56223 -1.7661 0
M  V30 1315 N 121.204 0.198386 -1.56346 0
M  V30 1316 C 122.615 0.763358 -1.70381 0
M  V30 1317 C 122.966 1.83995 -0.681203 0
M  V30 1318 O 122.091 2.15785 0.16305 0
M  V30 1319 C 122.686 1.39143 -3.08909 0
M  V30 1320 C 121.245 1.90352 -3.2472 0
M  V30 1321 C 120.392 0.772233 -2.6633 0
M  V30 1322 H 123.343 -0.0266377 -1.58678 0
M  V30 1323 H 123.364 2.26076 -3.06055 0
M  V30 1324 H 122.876 0.607638 -3.83314 0
M  V30 1325 H 120.977 2.71461 -2.55225 0
M  V30 1326 H 121.09 2.06757 -4.3219 0
M  V30 1327 H 119.454 1.18566 -2.2542 0
M  V30 1328 H 120.237 0.00073556 -3.433 0
M  V30 1329 N 122.682 1.50554 0.465978 0
M  V30 1330 C 123.614 1.65949 1.58093 0
M  V30 1331 C 124.627 0.540827 1.53554 0
M  V30 1332 O 125.816 0.814187 1.5885 0
M  V30 1333 C 122.916 1.63261 2.96983 0
M  V30 1334 C 122.089 2.91245 3.26336 0
M  V30 1335 C 121.148 2.8113 4.44806 0
M  V30 1336 O 120.174 3.55086 4.44862 0
M  V30 1337 N 121.376 1.95032 5.46756 0
M  V30 1338 H 124.141 2.62122 1.45301 0
M  V30 1339 H 121.702 1.48082 0.65448 0
M  V30 1340 H 123.694 1.54101 3.74212 0
M  V30 1341 H 122.264 0.748032 3.03518 0
M  V30 1342 H 121.484 3.14493 2.37672 0
M  V30 1343 H 122.772 3.76022 3.42761 0
M  V30 1344 H 122.17 1.3427 5.49534 0
M  V30 1345 H 120.727 1.91772 6.2295 0
M  V30 1346 N 124.16 -0.719506 1.40217 0
M  V30 1347 C 125.108 -1.85493 1.40339 0
M  V30 1348 C 126.102 -1.66995 0.284415 0
M  V30 1349 O 127.308 -1.74148 0.455252 0
M  V30 1350 H 123.683 -0.610857 0.438586 0
M  V30 1351 H 125.654 -1.82506 2.36081 0
M  V30 1352 C 124.403 -3.23321 1.27901 0
M  V30 1353 H 123.726 -3.38159 2.1328 0
M  V30 1354 H 125.166 -4.02914 1.32045 0
M  V30 1355 C 123.625 -3.36898 -0.0111355 0
M  V30 1356 O 124.155 -3.89674 -0.975538 0
M  V30 1357 N 122.361 -2.90492 -0.0793393 0
M  V30 1358 H 121.908 -2.47731 0.706183 0
M  V30 1359 H 121.866 -2.99955 -0.942038 0
M  V30 1360 N 125.638 -1.25649 -0.95132 0
M  V30 1361 C 126.878 -1.11802 -1.71113 0
M  V30 1362 C 127.242 0.334758 -1.89059 0
M  V30 1363 O 128.443 0.595121 -2.62129 0
M  V30 1364 C 126.714 -1.85512 -3.05483 0
M  V30 1365 S 128.273 -1.87597 -3.96677 0
M  V30 1366 H 125.091 -0.399552 -0.588115 0
M  V30 1367 H 127.693 -1.59222 -1.1344 0
M  V30 1368 H 126.397 -2.90299 -2.90094 0
M  V30 1369 H 125.928 -1.38493 -3.68216 0
M  V30 1370 H 127.943 -0.955389 -4.86916 0
M  V30 1371 N 127.117 1.15442 -1.07289 0
M  V30 1372 C 128.049 2.19773 -0.650585 0
M  V30 1373 C 129.062 1.60076 0.296572 0
M  V30 1374 O 130.251 1.78293 0.0859905 0
M  V30 1375 C 127.351 3.38838 0.0650398 0
M  V30 1376 C 126.524 4.2808 -0.898141 0
M  V30 1377 C 125.583 5.2574 -0.219926 0
M  V30 1378 O 124.609 5.62654 -0.860773 0
M  V30 1379 N 125.811 5.71205 1.03466 0
M  V30 1380 H 128.576 2.56622 -1.54808 0
M  V30 1381 H 126.137 1.30551 -0.957494 0
M  V30 1382 H 128.129 4.01222 0.529415 0
M  V30 1383 H 126.699 3.00409 0.864466 0
M  V30 1384 H 125.919 3.62804 -1.54165 0
M  V30 1385 H 127.207 4.84577 -1.5512 0
M  V30 1386 H 126.605 5.43325 1.57526 0
M  V30 1387 H 125.162 6.35633 1.44272 0
M  V30 1388 N 128.595 0.856903 1.32268 0
M  V30 1389 C 129.505 0.306131 2.32594 0
M  V30 1390 C 130.521 -0.577209 1.64147 0
M  V30 1391 O 131.697 -0.477043 1.95669 0
M  V30 1392 C 128.762 -0.494561 3.43154 0
M  V30 1393 C 127.823 0.415186 4.27288 0
M  V30 1394 C 127.056 -0.347387 5.32568 0
M  V30 1395 O 127.279 -1.57708 5.48165 0
M  V30 1396 O 126.213 0.287982 6.01211 0
M  V30 1397 H 130.039 1.13737 2.81598 0
M  V30 1398 H 127.624 0.619902 1.35932 0
M  V30 1399 H 129.506 -0.948944 4.10576 0
M  V30 1400 H 128.181 -1.30257 2.96336 0
M  V30 1401 H 127.088 0.917793 3.62667 0
M  V30 1402 H 128.421 1.18844 4.77637 0
M  V30 1403 N 130.073 -1.45103 0.615059 0
M  V30 1404 C 131.32 -2.02183 0.113179 0
M  V30 1405 C 131.648 -1.48249 -1.25906 0
M  V30 1406 O 130.903 -0.650265 -1.84581 0
M  V30 1407 C 131.202 -3.57386 0.0318797 0
M  V30 1408 C 130.868 -4.30505 1.34077 0
M  V30 1409 C 129.53 -4.50197 1.69929 0
M  V30 1410 C 131.882 -4.72238 2.20546 0
M  V30 1411 C 129.21 -5.08881 2.91988 0
M  V30 1412 C 131.562 -5.32272 3.41861 0
M  V30 1413 C 130.226 -5.50187 3.77956 0
M  V30 1414 H 129.496 -0.739842 0.0414151 0
M  V30 1415 H 132.143 -1.74073 0.798168 0
M  V30 1416 H 130.448 -3.84817 -0.736409 0
M  V30 1417 H 132.145 -3.99264 -0.372712 0
M  V30 1418 H 128.735 -4.15496 1.05173 0
M  V30 1419 H 132.919 -4.56751 1.94146 0
M  V30 1420 H 128.175 -5.20939 3.2005 0
M  V30 1421 H 132.349 -5.63563 4.09109 0
M  V30 1422 H 129.976 -5.95427 4.72622 0
M  V30 1423 N 131.551 -0.354651 -1.53558 0
M  V30 1424 C 132.481 0.489091 -2.2832 0
M  V30 1425 C 133.462 1.09324 -1.30316 0
M  V30 1426 O 134.647 1.11255 -1.59173 0
M  V30 1427 C 131.777 1.63456 -3.0643 0
M  V30 1428 C 130.731 1.1582 -4.12031 0
M  V30 1429 C 130.057 2.39305 -4.7816 0
M  V30 1430 C 131.357 0.250731 -5.21698 0
M  V30 1431 H 133.051 -0.134614 -2.99097 0
M  V30 1432 H 130.597 -0.0661826 -1.43848 0
M  V30 1433 H 132.55 2.23136 -3.57475 0
M  V30 1434 H 131.274 2.28533 -2.33325 0
M  V30 1435 H 129.933 0.584146 -3.61916 0
M  V30 1436 H 129.581 3.02814 -4.01637 0
M  V30 1437 H 129.281 2.08109 -5.49513 0
M  V30 1438 H 130.805 2.99691 -5.31994 0
M  V30 1439 H 132.219 0.754695 -5.68311 0
M  V30 1440 H 130.616 0.0301468 -6.00092 0
M  V30 1441 H 131.686 -0.710125 -4.79672 0
M  V30 1442 N 133.029 1.57378 -0.0835403 0
M  V30 1443 C 134.277 1.93547 0.581718 0
M  V30 1444 C 134.598 0.96524 1.69435 0
M  V30 1445 O 133.868 0.0153369 1.95894 0
M  V30 1446 H 132.448 0.714521 0.217874 0
M  V30 1447 H 135.11 1.94366 -0.144158 0
M  V30 1448 H 134.206 2.95665 0.999423 0
M  V30 1449 N 134.507 -0.190092 1.56449 0
M  V30 1450 C 135.732 -0.929864 1.85387 0
M  V30 1451 C 136.157 -1.7585 0.667704 0
M  V30 1452 O 135.515 -1.77198 -0.383459 0
M  V30 1453 C 135.563 -1.79773 3.12593 0
M  V30 1454 O 134.667 -2.89713 2.93496 0
M  V30 1455 H 134.008 -0.261574 0.610307 0
M  V30 1456 H 136.538 -0.193896 2.03679 0
M  V30 1457 H 136.548 -2.20139 3.43515 0
M  V30 1458 H 135.223 -1.18892 3.98544 0
M  V30 1459 H 133.8 -2.53065 2.73884 0
M  V30 1460 N 135.985 -1.50799 -0.457987 0
M  V30 1461 C 137.396 -1.55152 -1.0385 0
M  V30 1462 C 137.747 -0.362719 -1.92818 0
M  V30 1463 O 136.872 0.522915 -2.09987 0
M  V30 1464 C 137.467 -2.81173 -1.89017 0
M  V30 1465 C 136.026 -2.88164 -2.42154 0
M  V30 1466 C 135.173 -2.49591 -1.20829 0
M  V30 1467 H 138.124 -1.56874 -0.240068 0
M  V30 1468 H 138.145 -2.63769 -2.74238 0
M  V30 1469 H 137.657 -3.67677 -1.24238 0
M  V30 1470 H 135.758 -2.06042 -3.10447 0
M  V30 1471 H 135.871 -3.91356 -2.76364 0
M  V30 1472 H 134.235 -2.02322 -1.54719 0
M  V30 1473 H 135.018 -3.38418 -0.576927 0
M  V30 1474 N 137.463 0.71206 -1.40597 0
M  V30 1475 C 138.373 1.8562 -1.43466 0
M  V30 1476 C 139.389 1.70902 -0.326902 0
M  V30 1477 O 140.565 1.93105 -0.572043 0
M  V30 1478 C 137.63 3.21451 -1.29884 0
M  V30 1479 C 136.691 3.48398 -2.50833 0
M  V30 1480 C 135.924 4.77749 -2.3789 0
M  V30 1481 O 136.147 5.53089 -1.39459 0
M  V30 1482 O 135.081 5.05111 -3.27333 0
M  V30 1483 H 138.907 1.86155 -2.39958 0
M  V30 1484 H 136.492 0.86295 -1.21957 0
M  V30 1485 H 138.374 4.02579 -1.24531 0
M  V30 1486 H 137.049 3.21636 -0.364997 0
M  V30 1487 H 135.956 2.67265 -2.61763 0
M  V30 1488 H 137.289 3.53014 -3.4299 0
M  V30 1489 N 138.941 1.26152 0.944643 0
M  V30 1490 C 139.871 1.09902 2.06019 0
M  V30 1491 C 140.852 0.00519538 1.70099 0
M  V30 1492 O 142.037 0.176583 1.93396 0
M  V30 1493 C 139.167 0.727562 3.39594 0
M  V30 1494 C 138.121 1.77274 3.89561 0
M  V30 1495 C 137.447 1.25569 5.19747 0
M  V30 1496 C 138.747 3.17357 4.14827 0
M  V30 1497 H 140.441 2.03217 2.19871 0
M  V30 1498 H 137.987 0.978452 1.05652 0
M  V30 1499 H 139.94 0.600777 4.17095 0
M  V30 1500 H 138.664 -0.241287 3.25707 0
M  V30 1501 H 137.323 1.88814 3.14237 0
M  V30 1502 H 136.971 0.276783 5.02238 0
M  V30 1503 H 136.671 1.95433 5.54148 0
M  V30 1504 H 138.195 1.1415 5.99835 0
M  V30 1505 H 139.609 3.08914 4.82954 0
M  V30 1506 H 138.006 3.84781 4.60504 0
M  V30 1507 H 139.076 3.63673 3.20734 0
M  V30 1508 N 140.419 -1.14872 1.07899 0
M  V30 1509 C 141.668 -1.85135 0.800499 0
M  V30 1510 C 141.981 -1.83547 -0.676014 0
M  V30 1511 O 143.187 -2.49548 -1.06948 0
M  V30 1512 C 141.643 -3.3231 1.38197 0
M  V30 1513 C 141.251 -3.42329 2.8899 0
M  V30 1514 C 142.995 -4.0772 1.18174 0
M  V30 1515 C 140.902 -4.83684 3.403 0
M  V30 1516 H 139.832 -0.693563 0.29578 0
M  V30 1517 H 142.483 -1.29532 1.29976 0
M  V30 1518 H 140.865 -3.87618 0.810431 0
M  V30 1519 H 142.039 -2.97097 3.52236 0
M  V30 1520 H 140.354 -2.80369 3.07867 0
M  V30 1521 H 142.951 -5.12049 1.5398 0
M  V30 1522 H 143.294 -4.16124 0.12117 0
M  V30 1523 H 143.827 -3.58696 1.71994 0
M  V30 1524 H 140.566 -4.80465 4.45907 0
M  V30 1525 H 140.086 -5.29474 2.81811 0
M  V30 1526 H 141.765 -5.52558 3.36584 0
M  V30 1527 N 141.898 -0.863906 -1.31812 0
M  V30 1528 C 142.846 -0.30422 -2.30602 0
M  V30 1529 C 143.84 0.577419 -1.59255 0
M  V30 1530 O 145.046 0.464194 -1.73912 0
M  V30 1531 H 141.421 -0.0796877 -0.747766 0
M  V30 1532 H 143.392 -1.15148 -2.75288 0
M  V30 1533 C 142.141 0.484617 -3.44306 0
M  V30 1534 H 141.464 -0.18451 -3.99374 0
M  V30 1535 H 142.904 0.841664 -4.15562 0
M  V30 1536 C 141.363 1.6735 -2.92396 0
M  V30 1537 O 141.893 2.77273 -2.90659 0
M  V30 1538 N 140.099 1.50362 -2.48676 0
M  V30 1539 H 139.646 0.609402 -2.50288 0
M  V30 1540 H 139.604 2.30051 -2.14299 0
M  V30 1541 N 143.376 1.44774 -0.622745 0
M  V30 1542 C 144.622 2.02968 -0.13257 0
M  V30 1543 C 144.977 1.48047 1.22881 0
M  V30 1544 O 144.27 0.651625 1.80179 0
M  V30 1545 C 144.464 3.57364 -0.0508323 0
M  V30 1546 C 144.293 4.27262 -1.40275 0
M  V30 1547 C 143.063 4.64577 -1.98737 0
M  V30 1548 C 145.261 4.58248 -2.3348 0
M  V30 1549 N 143.243 5.19404 -3.27251 0
M  V30 1550 C 144.614 5.14069 -3.46603 0
M  V30 1551 C 146.669 4.40195 -2.32664 0
M  V30 1552 C 145.372 5.53738 -4.59093 0
M  V30 1553 C 147.398 4.80907 -3.44213 0
M  V30 1554 C 146.76 5.36834 -4.56058 0
M  V30 1555 H 142.859 0.776541 -0.0922354 0
M  V30 1556 H 145.443 1.76385 -0.82441 0
M  V30 1557 H 143.614 3.83576 0.610265 0
M  V30 1558 H 145.346 4.02219 0.447397 0
M  V30 1559 H 142.101 4.48622 -1.51774 0
M  V30 1560 H 142.525 5.51301 -3.92933 0
M  V30 1561 H 147.167 3.96257 -1.47446 0
M  V30 1562 H 144.885 5.96635 -5.45025 0
M  V30 1563 H 148.471 4.68659 -3.44747 0
M  V30 1564 H 147.351 5.67755 -5.40947 0
M  V30 1565 N 144.854 0.36279 1.53368 0
M  V30 1566 C 145.801 -0.485008 2.25646 0
M  V30 1567 C 146.771 -1.07982 1.2621 0
M  V30 1568 O 147.956 -1.11284 1.54986 0
M  V30 1569 C 145.096 -1.62023 3.04701 0
M  V30 1570 C 144.209 -1.05086 4.19024 0
M  V30 1571 C 143.344 -2.15496 4.85525 0
M  V30 1572 C 142.383 -1.5601 5.91884 0
M  V30 1573 N 141.52 -2.60241 6.52088 0
M  V30 1574 H 146.36 0.137864 2.97681 0
M  V30 1575 H 143.897 0.0798061 1.46883 0
M  V30 1576 H 145.855 -2.28887 3.48807 0
M  V30 1577 H 144.485 -2.2138 2.34927 0
M  V30 1578 H 143.537 -0.27259 3.79422 0
M  V30 1579 H 144.849 -0.575926 4.95464 0
M  V30 1580 H 144.003 -2.90186 5.32801 0
M  V30 1581 H 142.742 -2.66341 4.08551 0
M  V30 1582 H 141.747 -0.798338 5.43973 0
M  V30 1583 H 142.972 -1.05994 6.70777 0
M  V30 1584 H 140.918 -3.10304 5.77968 0
M  V30 1585 H 140.835 -2.17426 7.24059 0
M  V30 1586 H 142.103 -3.34641 7.04014 0
M  V30 1587 N 146.332 -1.57332 0.0918853 0
M  V30 1588 C 147.264 -2.10869 -0.898168 0
M  V30 1589 C 148.277 -1.04521 -1.24817 0
M  V30 1590 O 149.466 -1.31977 -1.20184 0
M  V30 1591 C 146.566 -2.57083 -2.2082 0
M  V30 1592 C 145.739 -3.87229 -2.03402 0
M  V30 1593 C 144.798 -4.19324 -3.17889 0
M  V30 1594 O 143.824 -4.88598 -2.91994 0
M  V30 1595 N 145.026 -3.74471 -4.43567 0
M  V30 1596 H 147.791 -2.96439 -0.440943 0
M  V30 1597 H 145.352 -1.61631 -0.0933064 0
M  V30 1598 H 147.344 -2.75602 -2.96354 0
M  V30 1599 H 145.914 -1.76541 -2.57977 0
M  V30 1600 H 145.134 -3.7789 -1.12218 0
M  V30 1601 H 146.422 -4.72379 -1.89038 0
M  V30 1602 H 145.82 -3.18546 -4.67488 0
M  V30 1603 H 144.377 -3.98151 -5.16061 0
M  V30 1604 N 147.81 0.181792 -1.56548 0
M  V30 1605 C 148.76 1.22961 -1.92002 0
M  V30 1606 C 149.744 1.40331 -0.787146 0
M  V30 1607 O 150.936 1.42478 -1.05019 0
M  V30 1608 C 148.065 2.57144 -2.27446 0
M  V30 1609 C 147.151 2.43512 -3.47222 0
M  V30 1610 N 147.542 1.99577 -4.64761 0
M  V30 1611 C 145.84 2.74368 -3.51622 0
M  V30 1612 C 146.541 1.98156 -5.46909 0
M  V30 1613 N 145.517 2.40164 -4.8767 0
M  V30 1614 H 149.319 0.881462 -2.8037 0
M  V30 1615 H 146.833 0.390141 -1.57644 0
M  V30 1616 H 148.83 3.32847 -2.51035 0
M  V30 1617 H 147.49 2.92771 -1.40411 0
M  V30 1618 H 148.501 1.70078 -4.89177 0
M  V30 1619 H 145.178 3.14102 -2.75038 0
M  V30 1620 H 146.568 1.65975 -6.51077 0
M  V30 1621 N 149.288 1.51039 0.449983 0
M  V30 1622 C 150.218 1.74379 1.55288 0
M  V30 1623 C 151.199 0.593236 1.5942 0
M  V30 1624 O 152.384 0.834625 1.7535 0
M  V30 1625 C 149.514 1.85728 2.93466 0
M  V30 1626 C 148.468 3.01078 3.04197 0
M  V30 1627 C 147.794 2.97595 4.44231 0
M  V30 1628 C 149.094 4.41254 2.7945 0
M  V30 1629 H 150.788 2.66725 1.36008 0
M  V30 1630 H 148.334 1.2835 0.652864 0
M  V30 1631 H 150.287 2.0064 3.70569 0
M  V30 1632 H 149.011 0.900207 3.13949 0
M  V30 1633 H 147.67 2.85851 2.29531 0
M  V30 1634 H 147.318 1.99691 4.61663 0
M  V30 1635 H 147.018 3.75046 4.52343 0
M  V30 1636 H 148.542 3.14583 5.23326 0
M  V30 1637 H 149.956 4.56897 3.46292 0
M  V30 1638 H 148.353 5.20315 2.98985 0
M  V30 1639 H 149.423 4.52164 1.75144 0
M  V30 1640 N 150.766 -0.704594 1.40972 0
M  V30 1641 C 151.698 -1.82974 1.38033 0
M  V30 1642 C 152.711 -1.60305 0.283931 0
M  V30 1643 O 153.9 -1.69975 0.545042 0
M  V30 1644 C 151 -3.19578 1.12795 0
M  V30 1645 C 150.173 -3.69352 2.34302 0
M  V30 1646 C 149.232 -4.84601 2.05058 0
M  V30 1647 O 148.258 -4.96682 2.7802 0
M  V30 1648 N 149.46 -5.71194 1.03528 0
M  V30 1649 H 152.225 -1.85991 2.35005 0
M  V30 1650 H 149.786 -0.886567 1.35468 0
M  V30 1651 H 151.778 -3.9429 0.911987 0
M  V30 1652 H 150.348 -3.11642 0.24452 0
M  V30 1653 H 149.568 -2.85649 2.71659 0
M  V30 1654 H 150.856 -3.99345 3.1528 0
M  V30 1655 H 150.254 -5.64054 0.431217 0
M  V30 1656 H 148.811 -6.45843 0.879205 0
M  V30 1657 N 152.244 -1.26651 -0.937939 0
M  V30 1658 C 153.493 -1.11775 -1.67897 0
M  V30 1659 C 153.806 0.33794 -1.92659 0
M  V30 1660 O 155.012 0.607434 -2.64618 0
M  V30 1661 C 153.468 -1.9523 -3.02346 0
M  V30 1662 C 153.076 -3.45393 -2.8532 0
M  V30 1663 C 154.82 -1.88972 -3.80118 0
M  V30 1664 C 152.727 -4.21083 -4.15263 0
M  V30 1665 H 151.657 -0.414696 -0.629717 0
M  V30 1666 H 154.308 -1.50988 -1.04283 0
M  V30 1667 H 152.69 -1.48853 -3.66959 0
M  V30 1668 H 153.864 -3.99561 -2.29537 0
M  V30 1669 H 152.179 -3.52921 -2.20988 0
M  V30 1670 H 154.776 -2.42805 -4.76392 0
M  V30 1671 H 155.119 -0.86113 -4.07296 0
M  V30 1672 H 155.652 -2.33189 -3.22285 0
M  V30 1673 H 152.391 -5.24425 -3.93267 0
M  V30 1674 H 151.911 -3.71695 -4.70747 0
M  V30 1675 H 153.59 -4.29706 -4.83696 0
M  V30 1676 N 153.722 1.14298 -1.08507 0
M  V30 1677 C 154.654 2.1907 -0.673859 0
M  V30 1678 C 155.667 1.60381 0.279577 0
M  V30 1679 O 156.856 1.78374 0.0670754 0
M  V30 1680 C 153.956 3.38888 0.0290979 0
M  V30 1681 C 153.129 4.27103 -0.943494 0
M  V30 1682 C 152.188 5.25477 -0.275676 0
M  V30 1683 O 151.214 5.61709 -0.920401 0
M  V30 1684 N 152.416 5.7227 0.974013 0
M  V30 1685 H 155.181 2.54965 -1.57521 0
M  V30 1686 H 152.742 1.29528 -0.971287 0
M  V30 1687 H 154.734 4.01761 0.48683 0
M  V30 1688 H 153.304 3.01309 0.832555 0
M  V30 1689 H 152.524 3.61149 -1.58004 0
M  V30 1690 H 153.812 4.82905 -1.60251 0
M  V30 1691 H 153.21 5.44965 1.51755 0
M  V30 1692 H 151.767 6.37127 1.37522 0
M  V30 1693 N 155.201 0.870884 1.31352 0
M  V30 1694 C 156.426 0.495957 2.01383 0
M  V30 1695 C 156.851 -0.904324 1.64935 0
M  V30 1696 O 156.209 -1.59687 0.858466 0
M  V30 1697 C 156.257 0.661433 3.54482 0
M  V30 1698 O 155.361 -0.298851 4.11316 0
M  V30 1699 H 154.702 0.197158 0.634054 0
M  V30 1700 H 157.232 1.17455 1.67527 0
M  V30 1701 H 157.242 0.555072 4.04207 0
M  V30 1702 H 155.917 1.68246 3.8035 0
M  V30 1703 H 154.494 -0.147368 3.72609 0
M  V30 1704 N 156.679 -1.44442 0.630414 0
M  V30 1705 C 157.904 -2.06927 0.139944 0
M  V30 1706 C 158.329 -1.46795 -1.17613 0
M  V30 1707 O 157.687 -0.569144 -1.72135 0
M  V30 1708 C 157.735 -3.6058 0.0379581 0
M  V30 1709 O 156.839 -3.99937 -1.0062 0
M  V30 1710 H 156.18 -0.658608 0.0844483 0
M  V30 1711 H 158.71 -1.85327 0.866891 0
M  V30 1712 H 158.72 -4.07714 -0.152856 0
M  V30 1713 H 157.395 -4.03728 0.998809 0
M  V30 1714 H 155.972 -3.64436 -0.79001 0
M  V30 1715 N 158.157 -0.370918 -1.53173 0
M  V30 1716 C 159.089 0.507823 -2.23503 0
M  V30 1717 C 160.102 1.04182 -1.251 0
M  V30 1718 O 161.291 0.947286 -1.5129 0
M  V30 1719 C 158.391 1.71447 -2.92334 0
M  V30 1720 C 157.564 1.31105 -4.17289 0
M  V30 1721 C 156.623 2.38035 -4.69282 0
M  V30 1722 O 155.649 2.00204 -5.32829 0
M  V30 1723 N 156.851 3.69697 -4.47554 0
M  V30 1724 H 159.616 -0.0946382 -2.99551 0
M  V30 1725 H 157.177 -0.196358 -1.60705 0
M  V30 1726 H 159.169 2.42469 -3.24023 0
M  V30 1727 H 157.739 2.22368 -2.19707 0
M  V30 1728 H 156.959 0.430462 -3.91843 0
M  V30 1729 H 158.247 1.0179 -4.98514 0
M  V30 1730 H 157.645 4.03205 -3.9679 0
M  V30 1731 H 156.202 4.36807 -4.8378 0
M  V30 1732 N 159.635 1.57281 -0.100228 0
M  V30 1733 C 161.046 1.81725 0.428107 0
M  V30 1734 C 161.397 1.01619 1.67833 0
M  V30 1735 O 160.522 0.247098 2.14985 0
M  V30 1736 C 161.117 3.29617 0.78347 0
M  V30 1737 C 159.676 3.54808 1.25653 0
M  V30 1738 C 158.823 2.76118 0.255752 0
M  V30 1739 H 161.774 1.55324 -0.325608 0
M  V30 1740 H 161.795 3.4322 1.64256 0
M  V30 1741 H 161.307 3.87893 -0.12665 0
M  V30 1742 H 159.408 3.01868 2.18418 0
M  V30 1743 H 159.521 4.63443 1.21482 0
M  V30 1744 H 157.885 2.43745 0.738956 0
M  V30 1745 H 158.668 3.37145 -0.647136 0
M  V30 1746 N 161.113 -0.173488 1.56642 0
M  V30 1747 C 162.338 -0.910149 1.86363 0
M  V30 1748 C 162.763 -1.75132 0.686318 0
M  V30 1749 O 162.121 -1.77595 -0.364643 0
M  V30 1750 C 162.169 -1.76447 3.14482 0
M  V30 1751 O 161.273 -2.86584 2.96553 0
M  V30 1752 H 160.614 -0.255086 0.613047 0
M  V30 1753 H 163.144 -0.172283 2.03873 0
M  V30 1754 H 163.154 -2.16483 3.45831 0
M  V30 1755 H 161.829 -1.14658 3.99783 0
M  V30 1756 H 160.406 -2.50146 2.76553 0
M  V30 1757 N 162.591 -1.51276 -0.441967 0
M  V30 1758 C 163.521 -1.752 -1.54361 0
M  V30 1759 C 164.502 -0.601682 -1.59103 0
M  V30 1760 O 165.687 -0.843913 -1.74905 0
M  V30 1761 C 162.817 -1.87282 -2.92477 0
M  V30 1762 C 161.771 -3.02687 -3.02596 0
M  V30 1763 C 161.097 -2.99947 -4.42647 0
M  V30 1764 C 162.397 -4.4273 -2.77106 0
M  V30 1765 H 164.091 -2.67442 -1.34592 0
M  V30 1766 H 161.637 -1.28694 -0.646048 0
M  V30 1767 H 163.59 -2.02602 -3.695 0
M  V30 1768 H 162.314 -0.916844 -3.13467 0
M  V30 1769 H 160.973 -2.87065 -2.28012 0
M  V30 1770 H 160.621 -2.02136 -4.60597 0
M  V30 1771 H 160.321 -3.77439 -4.50348 0
M  V30 1772 H 161.845 -3.17354 -5.2165 0
M  V30 1773 H 163.259 -4.58727 -3.43864 0
M  V30 1774 H 161.656 -5.21893 -2.96222 0
M  V30 1775 H 162.726 -4.53087 -1.72744 0
M  V30 1776 N 164.069 0.697108 -1.41344 0
M  V30 1777 C 165.017 1.83237 -1.43272 0
M  V30 1778 C 166.011 1.66522 -0.310947 0
M  V30 1779 O 167.217 1.73402 -0.482899 0
M  V30 1780 H 163.592 0.603802 -0.448249 0
M  V30 1781 H 165.563 1.78727 -2.38954 0
M  V30 1782 C 164.312 3.21245 -1.33029 0
M  V30 1783 H 163.635 3.34723 -2.18633 0
M  V30 1784 H 165.075 4.00763 -1.38439 0
M  V30 1785 C 163.534 3.36873 -0.0424635 0
M  V30 1786 O 164.064 3.91177 0.913421 0
M  V30 1787 N 162.27 2.90581 0.0331145 0
M  V30 1788 H 161.817 2.46577 -0.745506 0
M  V30 1789 H 161.775 3.01416 0.894199 0
M  V30 1790 N 165.547 1.27147 0.931209 0
M  V30 1791 C 166.457 1.11372 2.06478 0
M  V30 1792 C 167.473 0.044645 1.73943 0
M  V30 1793 O 168.649 0.250417 1.99837 0
M  V30 1794 C 165.714 0.758838 3.38294 0
M  V30 1795 C 164.775 1.90841 3.84549 0
M  V30 1796 C 164.008 1.57036 5.10074 0
M  V30 1797 O 164.231 0.476645 5.68405 0
M  V30 1798 O 163.165 2.40839 5.51616 0
M  V30 1799 H 166.991 2.06493 2.22698 0
M  V30 1800 H 164.576 1.06301 1.04978 0
M  V30 1801 H 166.458 0.574098 4.17471 0
M  V30 1802 H 165.133 -0.162879 3.2329 0
M  V30 1803 H 164.04 2.14819 3.06274 0
M  V30 1804 H 165.373 2.81021 4.04089 0
M  V30 1805 N 167.025 -1.13721 1.09112 0
M  V30 1806 C 167.988 -2.17222 0.731241 0
M  V30 1807 C 168.988 -1.59035 -0.237566 0
M  V30 1808 O 170.178 -1.74192 -0.0161704 0
M  V30 1809 C 167.31 -3.40804 0.0808443 0
M  V30 1810 H 168.503 -2.50573 1.64783 0
M  V30 1811 H 166.056 -1.28493 0.889897 0
M  V30 1812 H 166.791 -3.1304 -0.847127 0
M  V30 1813 H 166.576 -3.84306 0.777896 0
M  V30 1814 H 168.066 -4.1731 -0.155657 0
M  V30 1815 N 168.503 -0.877838 -1.30888 0
M  V30 1816 C 169.752 -0.488793 -1.95688 0
M  V30 1817 C 170.065 0.965485 -1.70111 0
M  V30 1818 O 171.271 1.46104 -2.28836 0
M  V30 1819 C 169.727 -0.823201 -3.50359 0
M  V30 1820 C 169.335 -2.29477 -3.84765 0
M  V30 1821 C 171.079 -0.503009 -4.21509 0
M  V30 1822 C 168.986 -2.57118 -5.32583 0
M  V30 1823 H 167.916 -0.179062 -0.732429 0
M  V30 1824 H 170.567 -1.07183 -1.48943 0
M  V30 1825 H 168.949 -0.169331 -3.95638 0
M  V30 1826 H 170.123 -2.99236 -3.5042 0
M  V30 1827 H 168.438 -2.58178 -3.267 0
M  V30 1828 H 171.035 -0.68665 -5.30273 0
M  V30 1829 H 171.378 0.557109 -4.12555 0
M  V30 1830 H 171.911 -1.11376 -3.8189 0
M  V30 1831 H 168.65 -3.61843 -5.4658 0
M  V30 1832 H 168.17 -1.91961 -5.68253 0
M  V30 1833 H 169.849 -2.42251 -5.99936 0
M  V30 1834 N 169.982 1.44106 -0.638065 0
M  V30 1835 C 170.914 2.28976 0.101205 0
M  V30 1836 C 171.927 1.4167 0.802088 0
M  V30 1837 O 173.116 1.65755 0.662375 0
M  V30 1838 C 170.216 3.18217 1.16581 0
M  V30 1839 C 169.389 4.33978 0.546066 0
M  V30 1840 C 168.448 5.04202 1.50554 0
M  V30 1841 O 167.474 5.59986 1.01999 0
M  V30 1842 N 168.676 5.06296 2.8398 0
M  V30 1843 H 171.441 2.93064 -0.627186 0
M  V30 1844 H 169.002 1.54629 -0.479731 0
M  V30 1845 H 170.994 3.62061 1.80815 0
M  V30 1846 H 169.564 2.55833 1.79634 0
M  V30 1847 H 168.784 3.93239 -0.275046 0
M  V30 1848 H 170.072 5.08675 0.112793 0
M  V30 1849 H 169.47 4.62319 3.26002 0
M  V30 1850 H 168.027 5.53907 3.43556 0
M  V30 1851 N 171.46 0.379036 1.52974 0
M  V30 1852 C 172.408 -0.476033 2.27677 0
M  V30 1853 C 173.402 -1.0719 1.31174 0
M  V30 1854 O 174.608 -1.01355 1.48752 0
M  V30 1855 H 170.983 -0.172255 0.732006 0
M  V30 1856 H 172.954 0.175615 2.97883 0
M  V30 1857 C 171.703 -1.5967 3.0887 0
M  V30 1858 H 171.026 -1.1475 3.82978 0
M  V30 1859 H 172.466 -2.16943 3.64296 0
M  V30 1860 C 170.925 -2.54682 2.20542 0
M  V30 1861 O 171.455 -3.57836 1.82527 0
M  V30 1862 N 169.661 -2.24183 1.84907 0
M  V30 1863 H 169.208 -1.40333 2.1602 0
M  V30 1864 H 169.166 -2.88006 1.26096 0
M  V30 1865 N 172.938 -1.57226 0.108567 0
M  V30 1866 C 173.868 -2.17778 -0.84232 0
M  V30 1867 C 174.849 -1.11487 -1.2847 0
M  V30 1868 O 176.034 -1.39681 -1.34918 0
M  V30 1869 C 173.164 -2.76888 -2.09644 0
M  V30 1870 C 172.118 -3.88669 -1.79221 0
M  V30 1871 C 171.444 -4.34541 -3.11574 0
M  V30 1872 C 172.744 -5.11251 -1.06864 0
M  V30 1873 H 174.438 -2.97489 -0.337774 0
M  V30 1874 H 171.984 -1.43097 -0.161025 0
M  V30 1875 H 173.937 -3.17904 -2.76614 0
M  V30 1876 H 172.661 -1.94451 -2.62405 0
M  V30 1877 H 171.32 -3.48213 -1.14644 0
M  V30 1878 H 170.968 -3.48977 -3.62249 0
M  V30 1879 H 170.668 -5.09914 -2.91996 0
M  V30 1880 H 172.192 -4.782 -3.7968 0
M  V30 1881 H 173.606 -5.49352 -1.63968 0
M  V30 1882 H 172.003 -5.9214 -0.974178 0
M  V30 1883 H 173.073 -4.8487 -0.0536168 0
M  V30 1884 N 174.416 0.165178 -1.56732 0
M  V30 1885 C 175.379 1.18822 -1.95995 0
M  V30 1886 C 176.379 1.3685 -0.84431 0
M  V30 1887 O 177.569 1.34152 -1.11126 0
M  V30 1888 C 174.701 2.5521 -2.26011 0
M  V30 1889 H 175.894 0.851825 -2.87548 0
M  V30 1890 H 173.447 0.407857 -1.50885 0
M  V30 1891 H 174.182 2.93852 -1.37191 0
M  V30 1892 H 173.967 2.43489 -3.07336 0
M  V30 1893 H 175.457 3.28927 -2.57288 0
M  V30 1894 N 175.894 1.51508 0.433938 0
M  V30 1895 C 176.857 1.72473 1.50949 0
M  V30 1896 C 177.857 0.594725 1.49398 0
M  V30 1897 O 179.047 0.862315 1.5136 0
M  V30 1898 C 176.179 1.78431 2.90474 0
M  V30 1899 H 177.372 2.68467 1.33662 0
M  V30 1900 H 174.925 1.41549 0.662836 0
M  V30 1901 H 175.66 0.842645 3.13161 0
M  V30 1902 H 175.445 2.60558 2.93005 0
M  V30 1903 H 176.935 1.96479 3.68491 0
M  V30 1904 N 177.372 -0.689602 1.41712 0
M  V30 1905 C 178.621 -1.44534 1.40686 0
M  V30 1906 C 178.934 -1.95588 0.0213352 0
M  V30 1907 O 180.14 -2.71271 -0.111534 0
M  V30 1908 C 178.596 -2.61387 2.47396 0
M  V30 1909 C 178.204 -2.17094 3.91885 0
M  V30 1910 C 179.948 -3.38986 2.55517 0
M  V30 1911 C 177.855 -3.3094 4.90135 0
M  V30 1912 H 176.785 -0.542925 0.52321 0
M  V30 1913 H 179.436 -0.748054 1.6756 0
M  V30 1914 H 177.818 -3.33412 2.13664 0
M  V30 1915 H 178.992 -1.52318 4.34897 0
M  V30 1916 H 177.307 -1.52473 3.8748 0
M  V30 1917 H 179.904 -4.23747 3.26102 0
M  V30 1918 H 180.247 -3.84578 1.59391 0
M  V30 1919 H 180.78 -2.74021 2.8837 0
M  V30 1920 H 177.519 -2.90355 5.87685 0
M  V30 1921 H 177.039 -3.94546 4.51767 0
M  V30 1922 H 178.718 -3.9663 5.11169 0
M  V30 1923 N 178.85 -1.27639 -0.924453 0
M  V30 1924 C 179.797 -1.10644 -2.0255 0
M  V30 1925 C 180.767 -0.00658438 -1.66099 0
M  V30 1926 O 181.952 -0.16952 -1.90045 0
M  V30 1927 C 179.092 -0.76309 -3.36557 0
M  V30 1928 C 178.205 -1.94091 -3.85944 0
M  V30 1929 C 177.34 -1.53914 -5.08413 0
M  V30 1930 C 176.379 -2.68425 -5.50104 0
M  V30 1931 N 175.516 -2.28815 -6.63768 0
M  V30 1932 H 180.356 -2.04858 -2.16419 0
M  V30 1933 H 177.893 -1.01974 -1.06017 0
M  V30 1934 H 179.851 -0.544822 -4.13627 0
M  V30 1935 H 178.481 0.142102 -3.22487 0
M  V30 1936 H 177.533 -2.27162 -3.05125 0
M  V30 1937 H 178.845 -2.7998 -4.12811 0
M  V30 1938 H 177.999 -1.28231 -5.92994 0
M  V30 1939 H 176.738 -0.651391 -4.8333 0
M  V30 1940 H 175.743 -2.94819 -4.64071 0
M  V30 1941 H 176.968 -3.57826 -5.7718 0
M  V30 1942 H 174.914 -1.42495 -6.40337 0
M  V30 1943 H 174.831 -3.08242 -6.90306 0
M  V30 1944 H 176.099 -2.06387 -7.51681 0
M  V30 1945 N 180.328 1.1314 -1.09713 0
M  V30 1946 C 181.553 1.88862 -0.857081 0
M  V30 1947 C 181.978 1.78729 0.586304 0
M  V30 1948 O 181.336 1.13692 1.41222 0
M  V30 1949 C 181.384 3.36325 -1.30069 0
M  V30 1950 O 180.488 4.09815 -0.461007 0
M  V30 1951 H 179.829 0.587108 -0.310162 0
M  V30 1952 H 182.359 1.43129 -1.46203 0
M  V30 1953 H 182.369 3.87157 -1.28738 0
M  V30 1954 H 181.044 3.43017 -2.35185 0
M  V30 1955 H 179.621 3.68986 -0.538888 0
M  V30 1956 N 181.806 0.884767 1.30421 0
M  V30 1957 C 183.053 0.503105 1.96151 0
M  V30 1958 C 183.381 -0.947676 1.69851 0
M  V30 1959 O 182.636 -1.68467 0.995861 0
M  V30 1960 C 182.935 0.724318 3.49983 0
M  V30 1961 C 182.601 2.15015 3.96332 0
M  V30 1962 C 181.263 2.54005 4.08699 0
M  V30 1963 C 183.615 3.07936 4.20505 0
M  V30 1964 C 180.943 3.85128 4.42599 0
M  V30 1965 C 183.295 4.3859 4.55874 0
M  V30 1966 C 181.959 4.77474 4.66449 0
M  V30 1967 H 181.229 0.184099 0.717766 0
M  V30 1968 H 183.876 1.12058 1.55291 0
M  V30 1969 H 182.181 0.0238086 3.91793 0
M  V30 1970 H 183.878 0.408617 3.98913 0
M  V30 1971 H 180.468 1.8375 3.87213 0
M  V30 1972 H 184.652 2.79033 4.10431 0
M  V30 1973 H 179.908 4.14996 4.48986 0
M  V30 1974 H 184.082 5.10629 4.7353 0
M  V30 1975 H 181.709 5.79115 4.92473 0
M  V30 1976 N 183.284 -1.43765 0.645699 0
M  V30 1977 C 184.231 -2.30745 -0.0504648 0
M  V30 1978 C 185.201 -1.4432 -0.822241 0
M  V30 1979 O 186.386 -1.73202 -0.800358 0
M  V30 1980 C 183.526 -3.29802 -1.0161 0
M  V30 1981 C 182.639 -4.31326 -0.241219 0
M  V30 1982 C 181.774 -5.17469 -1.19998 0
M  V30 1983 C 180.813 -6.10691 -0.415094 0
M  V30 1984 N 179.95 -6.89483 -1.32506 0
M  V30 1985 H 184.79 -2.8973 0.697155 0
M  V30 1986 H 182.327 -1.42738 0.355563 0
M  V30 1987 H 184.285 -3.85734 -1.58949 0
M  V30 1988 H 182.915 -2.72483 -1.73069 0
M  V30 1989 H 181.967 -3.77749 0.448334 0
M  V30 1990 H 183.279 -4.9743 0.369437 0
M  V30 1991 H 182.433 -5.7799 -1.84424 0
M  V30 1992 H 181.172 -4.51473 -1.84455 0
M  V30 1993 H 180.177 -5.49265 0.242565 0
M  V30 1994 H 181.402 -6.78727 0.224966 0
M  V30 1995 H 179.348 -6.26142 -1.95657 0
M  V30 1996 H 179.265 -7.52081 -0.768783 0
M  V30 1997 H 180.533 -7.54516 -1.9577 0
M  V30 1998 N 184.763 -0.387143 -1.52771 0
M  V30 1999 C 186.009 0.196025 -2.0185 0
M  V30 2000 C 186.342 1.46641 -1.27319 0
M  V30 2001 O 185.617 1.90889 -0.373032 0
M  V30 2002 C 185.9 0.466136 -3.5707 0
M  V30 2003 C 185.753 -0.819385 -4.42274 0
M  V30 2004 C 187.072 1.25768 -4.21747 0
M  V30 2005 H 184.191 0.0697708 -0.73369 0
M  V30 2006 H 186.833 -0.516286 -1.82851 0
M  V30 2007 H 184.983 1.07293 -3.7339 0
M  V30 2008 H 186.655 -1.4563 -4.37709 0
M  V30 2009 H 184.898 -1.43517 -4.09372 0
M  V30 2010 H 185.569 -0.585065 -5.48891 0
M  V30 2011 H 188.045 0.744167 -4.09391 0
M  V30 2012 H 186.921 1.41541 -5.30337 0
M  V30 2013 H 187.182 2.27228 -3.79236 0
M  V30 2014 N 186.241 1.57166 -0.116904 0
M  V30 2015 C 187.188 2.15202 0.83408 0
M  V30 2016 C 188.158 1.07644 1.26499 0
M  V30 2017 O 189.343 1.35541 1.34288 0
M  V30 2018 C 186.483 2.75405 2.07957 0
M  V30 2019 C 185.596 3.97264 1.69721 0
M  V30 2020 C 184.731 4.45561 2.89221 0
M  V30 2021 C 183.77 5.59956 2.47215 0
M  V30 2022 N 182.907 6.03006 3.59622 0
M  V30 2023 H 187.747 2.96141 0.332335 0
M  V30 2024 H 185.284 1.46309 0.152349 0
M  V30 2025 H 187.242 3.08439 2.80929 0
M  V30 2026 H 185.872 1.97159 2.55594 0
M  V30 2027 H 184.924 3.70404 0.866316 0
M  V30 2028 H 186.236 4.80226 1.34849 0
M  V30 2029 H 185.39 4.80493 3.7042 0
M  V30 2030 H 184.129 3.61544 3.27318 0
M  V30 2031 H 183.134 5.2463 1.64448 0
M  V30 2032 H 184.359 6.45738 2.10238 0
M  V30 2033 H 182.305 5.21931 3.97396 0
M  V30 2034 H 182.222 6.80819 3.28667 0
M  V30 2035 H 183.49 6.42576 4.41267 0
M  V30 2036 N 187.719 -0.156864 1.56817 0
M  V30 2037 C 188.651 -1.21883 1.94106 0
M  V30 2038 C 189.664 -1.3971 0.835754 0
M  V30 2039 O 190.853 -1.39457 1.11418 0
M  V30 2040 C 187.953 -2.58527 2.19127 0
M  V30 2041 C 187.126 -2.61809 3.50393 0
M  V30 2042 C 186.185 -3.7992 3.64071 0
M  V30 2043 O 185.211 -3.65249 4.36557 0
M  V30 2044 N 186.413 -4.96973 2.99997 0
M  V30 2045 H 189.178 -0.901974 2.85805 0
M  V30 2046 H 186.739 -0.346513 1.58148 0
M  V30 2047 H 188.731 -3.36034 2.25529 0
M  V30 2048 H 187.301 -2.82545 1.33742 0
M  V30 2049 H 186.521 -1.7029 3.5552 0
M  V30 2050 H 187.809 -2.61024 4.36742 0
M  V30 2051 H 187.207 -5.11794 2.41004 0
M  V30 2052 H 185.764 -5.7229 3.11974 0
M  V30 2053 N 189.197 -1.51736 -0.425897 0
M  V30 2054 C 190.425 -1.68794 -1.1965 0
M  V30 2055 C 190.84 -0.390164 -1.84725 0
M  V30 2056 O 190.197 0.632376 -1.71194 0
M  V30 2057 C 190.248 -2.81174 -2.27208 0
M  V30 2058 O 189.969 -4.05925 -1.64793 0
M  V30 2059 C 191.47 -3.09599 -3.17275 0
M  V30 2060 H 188.69 -0.566128 -0.360194 0
M  V30 2061 H 191.234 -1.98211 -0.503249 0
M  V30 2062 H 189.389 -2.54324 -2.9223 0
M  V30 2063 H 189.803 -4.68423 -2.35967 0
M  V30 2064 H 191.277 -3.91786 -3.88854 0
M  V30 2065 H 191.754 -2.22468 -3.78688 0
M  V30 2066 H 192.36 -3.38151 -2.57941 0
M  V30 2067 N 190.675 0.682077 -1.42076 0
M  V30 2068 C 191.607 1.80755 -1.40926 0
M  V30 2069 C 192.62 1.59833 -0.309398 0
M  V30 2070 O 193.809 1.69087 -0.572014 0
M  V30 2071 C 190.909 3.17744 -1.17865 0
M  V30 2072 C 190.082 3.65578 -2.40149 0
M  V30 2073 C 189.141 4.81277 -2.12742 0
M  V30 2074 O 188.167 4.92197 -2.85887 0
M  V30 2075 N 189.369 5.69474 -1.12602 0
M  V30 2076 H 192.134 1.82229 -2.37935 0
M  V30 2077 H 189.695 0.864903 -1.36861 0
M  V30 2078 H 191.687 3.9279 -0.9746 0
M  V30 2079 H 190.257 3.11214 -0.294068 0
M  V30 2080 H 189.477 2.81291 -2.76169 0
M  V30 2081 H 190.765 3.94278 -3.21593 0
M  V30 2082 H 190.163 5.63297 -0.520899 0
M  V30 2083 H 188.72 6.44363 -0.981842 0
M  V30 2084 N 192.153 1.28127 0.917671 0
M  V30 2085 C 193.569 1.05749 1.19538 0
M  V30 2086 C 193.769 -0.202633 2.00479 0
M  V30 2087 O 192.825 -0.905382 2.3571 0
M  V30 2088 C 194.138 2.30273 1.93378 0
M  V30 2089 C 195.686 2.35412 2.06277 0
M  V30 2090 C 196.161 3.59692 2.83524 0
M  V30 2091 N 197.652 3.60309 2.91087 0
M  V30 2092 C 198.387 4.53147 3.51348 0
M  V30 2093 N 197.883 5.563 4.12919 0
M  V30 2094 N 199.676 4.40751 3.48849 0
M  V30 2095 H 191.827 2.09024 0.377184 0
M  V30 2096 H 194.09 0.919798 0.22951 0
M  V30 2097 H 193.796 3.22055 1.41328 0
M  V30 2098 H 193.67 2.36378 2.93947 0
M  V30 2099 H 196.057 1.4413 2.57508 0
M  V30 2100 H 196.138 2.33304 1.04895 0
M  V30 2101 H 195.782 4.51316 2.32973 0
M  V30 2102 H 195.712 3.59054 3.85211 0
M  V30 2103 H 198.203 2.85714 2.47338 0
M  V30 2104 H 198.516 6.2329 4.56869 0
M  V30 2105 H 196.861 5.60131 4.11435 0
M  V30 2106 H 200.052 3.59367 2.99955 0
M  V30 2107 H 200.225 5.13291 3.9552 0
M  V30 2108 N 193.631 -1.12557 1.10312 0
M  V30 2109 C 194.88 -1.83395 0.839588 0
M  V30 2110 C 195.193 -1.84939 -0.636929 0
M  V30 2111 O 196.399 -2.51761 -1.01631 0
M  V30 2112 C 194.855 -3.29303 1.45215 0
M  V30 2113 C 194.463 -3.36122 2.96186 0
M  V30 2114 C 196.207 -4.05121 1.26796 0
M  V30 2115 C 194.114 -4.76357 3.50483 0
M  V30 2116 H 193.044 -0.687133 0.310425 0
M  V30 2117 H 195.695 -1.26746 1.32694 0
M  V30 2118 H 194.077 -3.85812 0.892469 0
M  V30 2119 H 195.251 -2.89559 3.58458 0
M  V30 2120 H 193.566 -2.73776 3.13745 0
M  V30 2121 H 196.163 -5.08668 1.64806 0
M  V30 2122 H 196.506 -4.15773 0.209409 0
M  V30 2123 H 197.039 -3.54967 1.79563 0
M  V30 2124 H 193.778 -4.70899 4.55998 0
M  V30 2125 H 193.298 -5.23377 2.92978 0
M  V30 2126 H 194.977 -5.45294 3.48228 0
M  V30 2127 N 195.109 -0.891671 -1.2995 0
M  V30 2128 C 196.039 -0.379797 -2.30391 0
M  V30 2129 C 197.02 0.540919 -1.6127 0
M  V30 2130 O 198.205 0.453352 -1.88834 0
M  V30 2131 C 195.335 0.400654 -3.44981 0
M  V30 2132 C 194.289 -0.428905 -4.25846 0
M  V30 2133 C 193.615 0.478557 -5.32554 0
M  V30 2134 C 194.915 -1.67458 -4.94727 0
M  V30 2135 H 196.609 -1.21914 -2.73454 0
M  V30 2136 H 194.155 -0.587675 -1.31462 0
M  V30 2137 H 196.108 0.769434 -4.14316 0
M  V30 2138 H 194.832 1.27371 -3.0074 0
M  V30 2139 H 193.491 -0.779911 -3.58208 0
M  V30 2140 H 193.139 1.34951 -4.84559 0
M  V30 2141 H 192.839 -0.0727433 -5.87555 0
M  V30 2142 H 194.363 0.843705 -6.04743 0
M  V30 2143 H 195.777 -1.376 -5.56542 0
M  V30 2144 H 194.174 -2.16659 -5.59624 0
M  V30 2145 H 195.244 -2.41518 -4.20473 0
M  V30 2146 N 196.587 1.43421 -0.653314 0
M  V30 2147 C 197.817 2.05864 -0.174238 0
M  V30 2148 C 198.225 1.49052 1.16534 0
M  V30 2149 O 197.568 0.616481 1.73047 0
M  V30 2150 C 197.63 3.59499 -0.00875873 0
M  V30 2151 C 197.294 4.38893 -1.27364 0
M  V30 2152 C 198.291 4.70947 -2.20239 0
M  V30 2153 C 195.976 4.789 -1.51525 0
M  V30 2154 C 197.97 5.41916 -3.35568 0
M  V30 2155 C 195.657 5.49614 -2.67147 0
M  V30 2156 C 196.655 5.81044 -3.58994 0
M  V30 2157 O 196.343 6.50313 -4.72597 0
M  V30 2158 H 196.075 0.670345 -0.0872549 0
M  V30 2159 H 198.629 1.84913 -0.894226 0
M  V30 2160 H 196.859 3.79025 0.7666 0
M  V30 2161 H 198.548 4.0364 0.427687 0
M  V30 2162 H 199.314 4.40558 -2.02815 0
M  V30 2163 H 195.193 4.53843 -0.809158 0
M  V30 2164 H 198.737 5.66365 -4.07279 0
M  V30 2165 H 194.634 5.79419 -2.84505 0
M  V30 2166 H 195.402 6.68795 -4.71864 0
M  V30 2167 N 198.065 0.39524 1.52563 0
M  V30 2168 C 198.998 -0.4813 2.23067 0
M  V30 2169 C 199.976 -1.05927 1.23362 0
M  V30 2170 O 201.16 -1.10979 1.52368 0
M  V30 2171 C 198.287 -1.66676 2.9485 0
M  V30 2172 C 197.333 -1.21348 4.08873 0
M  V30 2173 S 198.166 -0.190102 5.35162 0
M  V30 2174 C 199.322 -1.38121 6.1047 0
M  V30 2175 H 199.555 0.117381 2.97068 0
M  V30 2176 H 197.088 0.179458 1.53354 0
M  V30 2177 H 199.046 -2.3466 3.36816 0
M  V30 2178 H 197.707 -2.23676 2.20518 0
M  V30 2179 H 196.9 -2.09877 4.58222 0
M  V30 2180 H 196.502 -0.612486 3.68951 0
M  V30 2181 H 198.794 -2.30726 6.37002 0
M  V30 2182 H 199.737 -0.928521 7.01986 0
M  V30 2183 H 200.145 -1.60071 5.41329 0
M  V30 2184 N 199.544 -1.57102 0.125237 0
M  V30 2185 C 200.507 -2.14471 -0.80838 0
M  V30 2186 C 201.507 -1.0811 -1.19033 0
M  V30 2187 O 202.697 -1.33856 -1.11482 0
M  V30 2188 C 199.829 -2.69005 -2.09402 0
M  V30 2189 H 201.022 -2.98297 -0.309696 0
M  V30 2190 H 198.575 -1.55807 -0.124051 0
M  V30 2191 H 199.31 -1.88785 -2.63687 0
M  V30 2192 H 199.095 -3.46799 -1.82957 0
M  V30 2193 H 200.585 -3.13278 -2.76128 0
M  V30 2194 N 201.022 0.148545 -1.56898 0
M  V30 2195 C 201.985 1.16736 -1.97244 0
M  V30 2196 C 202.985 1.35947 -0.858777 0
M  V30 2197 O 204.175 1.32966 -1.12542 0
M  V30 2198 C 201.307 2.52798 -2.28705 0
M  V30 2199 H 202.5 0.821279 -2.88435 0
M  V30 2200 H 200.053 0.391831 -1.51309 0
M  V30 2201 H 200.788 2.92381 -1.403 0
M  V30 2202 H 200.573 2.40216 -3.09901 0
M  V30 2203 H 202.063 3.26179 -2.60762 0
M  V30 2204 N 202.5 1.5196 0.417844 0
M  V30 2205 C 203.41 1.77554 1.53336 0
M  V30 2206 C 204.426 0.660655 1.6097 0
M  V30 2207 O 205.602 0.945099 1.77848 0
M  V30 2208 C 202.667 1.91291 2.89152 0
M  V30 2209 C 201.728 3.15183 2.91475 0
M  V30 2210 C 200.961 3.28256 4.20813 0
M  V30 2211 O 201.184 2.46798 5.14244 0
M  V30 2212 O 200.118 4.21356 4.29817 0
M  V30 2213 H 203.944 2.7222 1.34647 0
M  V30 2214 H 201.529 1.36698 0.602828 0
M  V30 2215 H 203.411 2.02199 3.69721 0
M  V30 2216 H 202.086 0.998129 3.07927 0
M  V30 2217 H 200.993 3.09739 2.09791 0
M  V30 2218 H 202.326 4.06414 2.77648 0
M  V30 2219 N 203.978 -0.674533 1.42435 0
M  V30 2220 C 205.206 -1.46283 1.46317 0
M  V30 2221 C 205.621 -1.88653 0.0745836 0
M  V30 2222 O 204.978 -1.58151 -0.91074 0
M  V30 2223 C 205.029 -2.71178 2.3905 0
M  V30 2224 O 204.75 -2.30586 3.72507 0
M  V30 2225 C 206.251 -3.64738 2.51955 0
M  V30 2226 H 203.471 -0.450104 0.497642 0
M  V30 2227 H 206.015 -0.828792 1.86953 0
M  V30 2228 H 204.17 -3.3077 2.01667 0
M  V30 2229 H 204.584 -3.11241 4.22172 0
M  V30 2230 H 206.058 -4.49096 3.20962 0
M  V30 2231 H 206.535 -4.10656 1.55752 0
M  V30 2232 H 207.141 -3.11038 2.90061 0
M  V30 2233 N 205.456 -1.28612 -0.910864 0
M  V30 2234 C 206.419 -1.12803 -1.9952 0
M  V30 2235 C 207.419 -0.0668264 -1.60661 0
M  V30 2236 O 208.609 -0.312847 -1.71368 0
M  V30 2237 C 205.741 -0.72254 -3.33155 0
M  V30 2238 H 206.934 -2.09109 -2.14973 0
M  V30 2239 H 204.487 -1.11639 -1.09391 0
M  V30 2240 H 205.222 0.241152 -3.23402 0
M  V30 2241 H 205.007 -1.48916 -3.62721 0
M  V30 2242 H 206.497 -0.634666 -4.12749 0
M  V30 2243 N 206.934 1.1197 -1.10907 0
M  V30 2244 C 207.881 2.17846 -0.762345 0
M  V30 2245 C 208.851 1.63995 0.263599 0
M  V30 2246 O 210.036 1.90273 0.141773 0
M  V30 2247 C 207.176 3.44487 -0.205651 0
M  V30 2248 C 206.289 4.12369 -1.28748 0
M  V30 2249 C 205.424 5.26674 -0.691919 0
M  V30 2250 C 204.463 5.86431 -1.75399 0
M  V30 2251 N 203.6 6.92142 -1.17833 0
M  V30 2252 H 208.44 2.46851 -1.6694 0
M  V30 2253 H 205.977 1.21188 -0.833776 0
M  V30 2254 H 207.935 4.16981 0.135037 0
M  V30 2255 H 206.565 3.15884 0.664613 0
M  V30 2256 H 205.617 3.38003 -1.74522 0
M  V30 2257 H 206.929 4.52844 -2.09125 0
M  V30 2258 H 206.083 6.05953 -0.300963 0
M  V30 2259 H 204.822 4.8749 0.143232 0
M  V30 2260 H 203.827 5.05835 -2.15432 0
M  V30 2261 H 205.052 6.27685 -2.59208 0
M  V30 2262 H 202.998 6.54985 -0.364725 0
M  V30 2263 H 202.915 7.31242 -1.91887 0
M  V30 2264 H 204.183 7.75237 -0.81408 0
M  V30 2265 N 208.412 0.89855 1.29475 0
M  V30 2266 C 209.322 0.379974 2.31502 0
M  V30 2267 C 210.338 -0.524695 1.659 0
M  V30 2268 O 211.514 -0.414551 1.97087 0
M  V30 2269 C 208.579 -0.385138 3.44554 0
M  V30 2270 C 207.64 0.550914 4.2575 0
M  V30 2271 C 206.873 -0.177778 5.33404 0
M  V30 2272 O 207.096 -1.40189 5.52904 0
M  V30 2273 O 206.03 0.479106 5.9999 0
M  V30 2274 H 209.856 1.22639 2.77837 0
M  V30 2275 H 207.441 0.662834 1.33891 0
M  V30 2276 H 209.323 -0.817841 4.13388 0
M  V30 2277 H 207.998 -1.20763 3.0033 0
M  V30 2278 H 206.905 1.03271 3.59564 0
M  V30 2279 H 208.238 1.33979 4.73614 0
M  V30 2280 N 209.89 -1.43072 0.660911 0
M  V30 2281 C 210.82 -2.33497 -0.0122829 0
M  V30 2282 C 211.801 -1.49903 -0.803925 0
M  V30 2283 O 212.986 -1.78546 -0.763864 0
M  V30 2284 C 210.116 -3.33363 -0.973994 0
M  V30 2285 C 209.07 -4.27003 -0.291928 0
M  V30 2286 C 208.396 -5.16967 -1.36562 0
M  V30 2287 C 209.696 -5.15816 0.820462 0
M  V30 2288 H 211.39 -2.90038 0.742873 0
M  V30 2289 H 208.936 -1.39461 0.358688 0
M  V30 2290 H 210.889 -3.95524 -1.45392 0
M  V30 2291 H 209.613 -2.75095 -1.7604 0
M  V30 2292 H 208.272 -3.66217 0.167623 0
M  V30 2293 H 207.92 -4.55034 -2.14366 0
M  V30 2294 H 207.62 -5.80441 -0.914454 0
M  V30 2295 H 209.144 -5.82003 -1.84675 0
M  V30 2296 H 210.558 -5.71742 0.422366 0
M  V30 2297 H 208.955 -5.8805 1.19656 0
M  V30 2298 H 210.025 -4.55045 1.67518 0
M  V30 2299 N 211.368 -0.403325 -1.52352 0
M  V30 2300 C 212.596 0.174012 -2.06167 0
M  V30 2301 C 213.011 1.39347 -1.27388 0
M  V30 2302 O 212.368 1.79597 -0.324201 0
M  V30 2303 C 212.419 0.530223 -3.5759 0
M  V30 2304 O 212.14 -0.640806 -4.33388 0
M  V30 2305 C 213.641 1.16192 -4.27802 0
M  V30 2306 H 210.861 0.0229464 -0.670608 0
M  V30 2307 H 213.405 -0.572604 -1.9632 0
M  V30 2308 H 211.56 1.22673 -3.67464 0
M  V30 2309 H 211.974 -0.344851 -5.23365 0
M  V30 2310 H 213.448 1.36141 -5.34948 0
M  V30 2311 H 213.925 2.13335 -3.83907 0
M  V30 2312 H 214.531 0.505775 -4.22282 0
M  V30 2313 N 212.846 1.57033 -0.133567 0
M  V30 2314 C 214.257 1.82593 0.389464 0
M  V30 2315 C 214.608 1.05156 1.6564 0
M  V30 2316 O 213.733 0.292644 2.14412 0
M  V30 2317 C 214.328 3.31204 0.713377 0
M  V30 2318 C 212.887 3.57393 1.18098 0
M  V30 2319 C 212.034 2.76598 0.197126 0
M  V30 2320 H 214.985 1.54598 -0.358481 0
M  V30 2321 H 215.006 3.46627 1.56939 0
M  V30 2322 H 214.518 3.87537 -0.2089 0
M  V30 2323 H 212.619 3.06433 2.11966 0
M  V30 2324 H 212.732 4.65915 1.11624 0
M  V30 2325 H 211.096 2.45257 0.687088 0
M  V30 2326 H 211.879 3.35697 -0.718504 0
M  V30 2327 N 214.325 -0.140222 1.56975 0
M  V30 2328 C 215.572 -0.851687 1.83719 0
M  V30 2329 C 215.9 -1.80862 0.715485 0
M  V30 2330 O 215.155 -1.93464 -0.294956 0
M  V30 2331 C 215.454 -1.65386 3.16832 0
M  V30 2332 C 215.12 -0.843112 4.42947 0
M  V30 2333 C 213.782 -0.619464 4.77196 0
M  V30 2334 C 216.134 -0.276582 5.20466 0
M  V30 2335 C 213.462 0.181312 5.8642 0
M  V30 2336 C 215.814 0.51127 6.30531 0
M  V30 2337 C 214.478 0.745432 6.63325 0
M  V30 2338 H 213.748 -0.311654 0.672274 0
M  V30 2339 H 216.395 -0.115006 1.91154 0
M  V30 2340 H 214.7 -2.46084 3.04877 0
M  V30 2341 H 216.397 -2.20793 3.34741 0
M  V30 2342 H 212.987 -1.0275 4.16101 0
M  V30 2343 H 217.171 -0.436632 4.94376 0
M  V30 2344 H 212.427 0.372165 6.10266 0
M  V30 2345 H 216.601 0.957354 6.89788 0
M  V30 2346 H 214.228 1.36778 7.47794 0
M  V30 2347 N 215.803 -1.52179 -0.40978 0
M  V30 2348 C 216.733 -1.78435 -1.5061 0
M  V30 2349 C 217.714 -0.635295 -1.57791 0
M  V30 2350 O 218.899 -0.880823 -1.73076 0
M  V30 2351 C 216.029 -1.93444 -2.88439 0
M  V30 2352 C 214.983 -3.09038 -2.96108 0
M  V30 2353 C 214.309 -3.09268 -4.36185 0
M  V30 2354 C 215.609 -4.48508 -2.67652 0
M  V30 2355 H 217.303 -2.70237 -1.28889 0
M  V30 2356 H 214.849 -1.30036 -0.618605 0
M  V30 2357 H 216.802 -2.10394 -3.65119 0
M  V30 2358 H 215.526 -0.983129 -3.11452 0
M  V30 2359 H 214.185 -2.91837 -2.21872 0
M  V30 2360 H 213.833 -2.11861 -4.56206 0
M  V30 2361 H 213.533 -3.86907 -4.42241 0
M  V30 2362 H 215.057 -3.28348 -5.14801 0
M  V30 2363 H 216.471 -4.65918 -3.34056 0
M  V30 2364 H 214.868 -5.28059 -2.85085 0
M  V30 2365 H 215.938 -4.56649 -1.63095 0
M  V30 2366 N 217.281 0.66697 -1.42791 0
M  V30 2367 C 218.211 1.79218 -1.49677 0
M  V30 2368 C 219.192 1.66405 -0.352623 0
M  V30 2369 O 220.377 1.85708 -0.567993 0
M  V30 2370 C 217.507 3.17565 -1.40605 0
M  V30 2371 C 216.461 3.45124 -2.53127 0
M  V30 2372 C 215.787 4.83127 -2.29112 0
M  V30 2373 C 217.087 3.41236 -3.95418 0
M  V30 2374 H 218.781 1.73713 -2.43853 0
M  V30 2375 H 216.327 0.83432 -1.17367 0
M  V30 2376 H 218.28 3.96022 -1.44029 0
M  V30 2377 H 217.004 3.23767 -0.429271 0
M  V30 2378 H 215.663 2.69031 -2.49034 0
M  V30 2379 H 215.311 4.85988 -1.29709 0
M  V30 2380 H 215.011 5.02528 -3.04531 0
M  V30 2381 H 216.535 5.63859 -2.34297 0
M  V30 2382 H 217.949 4.09651 -4.01073 0
M  V30 2383 H 216.346 3.72173 -4.70752 0
M  V30 2384 H 217.416 2.39665 -4.21532 0
M  V30 2385 N 218.759 1.29093 0.90403 0
M  V30 2386 C 219.706 1.13853 2.00764 0
M  V30 2387 C 220.676 0.0330084 1.66067 0
M  V30 2388 O 221.861 0.199733 1.89752 0
M  V30 2389 C 219.001 0.816537 3.35301 0
M  V30 2390 C 218.114 2.00206 3.82807 0
M  V30 2391 C 217.249 1.61983 5.059 0
M  V30 2392 C 216.288 2.77143 5.45764 0
M  V30 2393 N 215.425 2.39346 6.60044 0
M  V30 2394 H 220.265 2.08276 2.13132 0
M  V30 2395 H 217.802 1.03648 1.04381 0
M  V30 2396 H 219.76 0.610557 4.12708 0
M  V30 2397 H 218.39 -0.090779 3.22672 0
M  V30 2398 H 217.442 2.31988 3.01473 0
M  V30 2399 H 218.754 2.86512 4.08304 0
M  V30 2400 H 217.908 1.37649 5.90879 0
M  V30 2401 H 216.647 0.728202 4.82233 0
M  V30 2402 H 215.652 3.02165 4.59322 0
M  V30 2403 H 216.877 3.66964 5.71414 0
M  V30 2404 H 214.823 1.52665 6.37989 0
M  V30 2405 H 214.74 3.19185 6.85315 0
M  V30 2406 H 216.008 2.1832 7.48303 0
M  V30 2407 N 220.237 -1.11381 1.11499 0
M  V30 2408 C 221.462 -1.87475 0.887019 0
M  V30 2409 C 221.887 -1.79639 -0.557796 0
M  V30 2410 O 221.245 -1.15924 -1.39396 0
M  V30 2411 C 221.293 -3.34213 1.35403 0
M  V30 2412 O 220.397 -4.0903 0.526146 0
M  V30 2413 H 219.738 -0.582099 0.319463 0
M  V30 2414 H 222.268 -1.40785 1.48461 0
M  V30 2415 H 222.278 -3.8506 1.34881 0
M  V30 2416 H 220.953 -3.39232 2.40612 0
M  V30 2417 H 219.53 -3.68082 0.597522 0
M  V30 2418 N 221.715 -0.905404 -1.28997 0
M  V30 2419 C 222.662 -0.385892 -2.27551 0
M  V30 2420 C 223.632 0.535113 -1.57244 0
M  V30 2421 O 224.817 0.459119 -1.85194 0
M  V30 2422 C 221.957 0.375461 -3.43051 0
M  V30 2423 C 221.07 -0.577092 -4.28128 0
M  V30 2424 C 220.205 0.201879 -5.30816 0
M  V30 2425 C 219.244 -0.744829 -6.07551 0
M  V30 2426 N 218.381 9.42587e-05 -7.021 0
M  V30 2427 H 223.221 -1.23139 -2.71368 0
M  V30 2428 H 220.758 -0.618542 -1.33463 0
M  V30 2429 H 222.716 0.832992 -4.088 0
M  V30 2430 H 221.346 1.18537 -3.00248 0
M  V30 2431 H 220.398 -1.15315 -3.62501 0
M  V30 2432 H 221.71 -1.30152 -4.8152 0
M  V30 2433 H 220.864 0.720351 -6.02408 0
M  V30 2434 H 219.603 0.959413 -4.7817 0
M  V30 2435 H 218.608 -1.27475 -5.34818 0
M  V30 2436 H 219.833 -1.50178 -6.62286 0
M  V30 2437 H 217.779 0.739791 -6.51815 0
M  V30 2438 H 217.696 -0.664321 -7.53076 0
M  V30 2439 H 218.964 0.498644 -7.77903 0
M  V30 2440 N 223.193 1.4272 -0.668489 0
M  V30 2441 C 224.442 2.00846 -0.185389 0
M  V30 2442 C 224.755 1.53442 1.21305 0
M  V30 2443 O 225.961 2.03944 1.79218 0
M  V30 2444 C 224.417 3.58805 -0.280591 0
M  V30 2445 C 224.025 4.15198 -1.68268 0
M  V30 2446 C 225.769 4.24255 0.14412 0
M  V30 2447 C 223.676 5.655 -1.73099 0
M  V30 2448 H 222.606 0.751145 -0.0655475 0
M  V30 2449 H 225.257 1.63516 -0.832752 0
M  V30 2450 H 223.639 3.93608 0.434553 0
M  V30 2451 H 224.813 3.91866 -2.42441 0
M  V30 2452 H 223.128 3.62176 -2.05469 0
M  V30 2453 H 225.725 5.34547 0.128086 0
M  V30 2454 H 226.068 3.99277 1.17827 0
M  V30 2455 H 226.601 3.94389 -0.519798 0
M  V30 2456 H 223.34 5.95268 -2.74475 0
M  V30 2457 H 222.86 5.90842 -1.03274 0
M  V30 2458 H 224.539 6.29808 -1.48158 0
M  V30 2459 N 224.671 0.411399 1.52136 0
M  V30 2460 C 225.601 -0.404015 2.29978 0
M  V30 2461 C 226.582 -1.04412 1.34284 0
M  V30 2462 O 227.767 -1.0527 1.63192 0
M  V30 2463 C 224.897 -1.5197 3.12286 0
M  V30 2464 C 223.851 -1.00448 4.16046 0
M  V30 2465 C 223.177 -2.21393 4.86712 0
M  V30 2466 C 224.477 -0.0569336 5.22269 0
M  V30 2467 H 226.171 0.245529 2.98392 0
M  V30 2468 H 223.717 0.119525 1.43503 0
M  V30 2469 H 225.67 -2.09715 3.6551 0
M  V30 2470 H 224.394 -2.19716 2.41646 0
M  V30 2471 H 223.053 -0.449421 3.63835 0
M  V30 2472 H 222.701 -2.87699 4.12599 0
M  V30 2473 H 222.401 -1.87571 5.56858 0
M  V30 2474 H 223.925 -2.7974 5.4275 0
M  V30 2475 H 225.339 -0.54325 5.7072 0
M  V30 2476 H 223.736 0.192594 5.99791 0
M  V30 2477 H 224.806 0.887663 4.76706 0
M  V30 2478 N 226.149 -1.5696 0.141893 0
M  V30 2479 C 227.374 -2.00754 -0.520838 0
M  V30 2480 C 227.799 -1.0213 -1.57959 0
M  V30 2481 O 227.157 0.00371324 -1.813 0
M  V30 2482 C 227.205 -3.43318 -1.10294 0
M  V30 2483 O 226.309 -3.47679 -2.21795 0
M  V30 2484 H 225.65 -0.651564 -0.127908 0
M  V30 2485 H 228.18 -2.03221 0.23712 0
M  V30 2486 H 228.19 -3.82012 -1.43287 0
M  V30 2487 H 226.865 -4.14608 -0.327574 0
M  V30 2488 H 225.442 -3.20824 -1.9007 0
M  V30 2489 N 227.627 0.131896 -1.57047 0
M  V30 2490 C 229.038 0.690407 -1.73465 0
M  V30 2491 C 229.389 1.8094 -0.758629 0
M  V30 2492 O 228.514 2.16282 0.0713813 0
M  V30 2493 C 229.109 1.25916 -3.14532 0
M  V30 2494 C 227.668 1.76409 -3.32501 0
M  V30 2495 C 226.815 0.658579 -2.69366 0
M  V30 2496 H 229.766 -0.0939144 -1.58422 0
M  V30 2497 H 229.787 2.12892 -3.15369 0
M  V30 2498 H 229.299 0.444515 -3.85546 0
M  V30 2499 H 227.4 2.60391 -2.66509 0
M  V30 2500 H 227.513 1.88241 -4.4057 0
M  V30 2501 H 225.877 1.08899 -2.30246 0
M  V30 2502 H 226.66 -0.14487 -3.42994 0
M  V30 2503 N 229.106 1.52395 0.401703 0
M  V30 2504 C 230.054 1.7689 1.51039 0
M  V30 2505 C 231.048 0.636298 1.56996 0
M  V30 2506 O 232.254 0.818507 1.60314 0
M  V30 2507 H 228.629 0.559502 0.502456 0
M  V30 2508 H 230.6 2.69757 1.27568 0
M  V30 2509 C 229.349 1.94331 2.88324 0
M  V30 2510 H 228.672 2.80905 2.84486 0
M  V30 2511 H 230.112 2.15466 3.65172 0
M  V30 2512 C 228.571 0.712396 3.29282 0
M  V30 2513 O 229.101 -0.116218 4.01532 0
M  V30 2514 N 227.307 0.546154 2.85422 0
M  V30 2515 H 226.854 1.22156 2.26794 0
M  V30 2516 H 226.812 -0.276113 3.13185 0
M  V30 2517 N 230.584 -0.659388 1.43143 0
M  V30 2518 C 231.832 -1.41654 1.44147 0
M  V30 2519 C 232.153 -1.94893 0.0645739 0
M  V30 2520 O 231.423 -1.74044 -0.899198 0
M  V30 2521 H 230.003 -0.525708 0.530697 0
M  V30 2522 H 232.665 -0.778097 1.78694 0
M  V30 2523 H 231.761 -2.26195 2.1504 0
M  V30 2524 N 232.062 -1.29571 -0.897171 0
M  V30 2525 C 233.31 -1.17456 -1.64464 0
M  V30 2526 C 233.631 0.273698 -1.9307 0
M  V30 2527 O 232.901 1.18684 -1.55855 0
M  V30 2528 H 231.481 -0.431706 -0.609622 0
M  V30 2529 H 234.143 -1.62531 -1.07562 0
M  V30 2530 H 233.239 -1.72648 -2.59998 0
M  V30 2531 N 233.54 1.10788 -1.12088 0
M  V30 2532 C 234.487 2.17025 -0.785407 0
M  V30 2533 C 235.457 1.64265 0.246191 0
M  V30 2534 O 236.642 1.90412 0.121584 0
M  V30 2535 C 233.782 3.44249 -0.242177 0
M  V30 2536 C 232.895 4.1098 -1.33115 0
M  V30 2537 C 232.03 5.25911 -0.747741 0
M  V30 2538 C 231.069 5.84538 -1.81609 0
M  V30 2539 N 230.206 6.90853 -1.25167 0
M  V30 2540 H 235.046 2.45066 -1.69548 0
M  V30 2541 H 232.583 1.20297 -0.846582 0
M  V30 2542 H 234.541 4.17101 0.0908026 0
M  V30 2543 H 233.171 3.16571 0.631072 0
M  V30 2544 H 232.223 3.36133 -1.78097 0
M  V30 2545 H 233.535 4.50601 -2.13917 0
M  V30 2546 H 232.689 6.056 -0.365216 0
M  V30 2547 H 231.428 4.87614 0.0915188 0
M  V30 2548 H 230.433 5.03522 -2.20785 0
M  V30 2549 H 231.658 6.249 -2.6585 0
M  V30 2550 H 229.604 6.54562 -0.434174 0
M  V30 2551 H 229.521 7.29166 -1.99633 0
M  V30 2552 H 230.789 7.7433 -0.896259 0
M  V30 2553 N 235.018 0.912232 1.28515 0
M  V30 2554 C 236.429 0.591352 1.77087 0
M  V30 2555 C 236.78 -0.8933 1.74684 0
M  V30 2556 O 235.905 -1.69876 1.34056 0
M  V30 2557 C 236.5 1.06668 3.2157 0
M  V30 2558 C 235.059 0.79675 3.67871 0
M  V30 2559 C 234.206 1.23427 2.48316 0
M  V30 2560 H 237.157 1.09365 1.15 0
M  V30 2561 H 237.178 0.407455 3.78312 0
M  V30 2562 H 236.69 2.14726 3.23287 0
M  V30 2563 H 234.791 -0.270679 3.71616 0
M  V30 2564 H 234.904 1.40343 4.58084 0
M  V30 2565 H 233.268 0.653036 2.46186 0
M  V30 2566 H 234.051 2.32316 2.52753 0
M  V30 2567 N 236.496 -1.42363 0.676048 0
M  V30 2568 C 237.443 -2.308 -0.00150904 0
M  V30 2569 C 238.413 -1.46032 -0.791444 0
M  V30 2570 O 239.598 -1.74861 -0.76344 0
M  V30 2571 C 236.738 -3.31883 -0.945919 0
M  V30 2572 C 235.851 -4.31741 -0.149675 0
M  V30 2573 C 234.986 -5.19898 -1.08995 0
M  V30 2574 C 234.025 -6.11434 -0.285465 0
M  V30 2575 N 233.162 -6.92138 -1.17851 0
M  V30 2576 H 238.002 -2.88187 0.758455 0
M  V30 2577 H 235.539 -1.41952 0.38576 0
M  V30 2578 H 237.497 -3.89019 -1.50731 0
M  V30 2579 H 236.127 -2.76093 -1.6725 0
M  V30 2580 H 235.179 -3.76713 0.528359 0
M  V30 2581 H 236.491 -4.96534 0.474866 0
M  V30 2582 H 235.645 -5.81772 -1.72123 0
M  V30 2583 H 234.384 -4.55284 -1.74837 0
M  V30 2584 H 233.389 -5.48627 0.359018 0
M  V30 2585 H 234.614 -6.78097 0.368883 0
M  V30 2586 H 232.56 -6.30152 -1.82332 0
M  V30 2587 H 232.477 -7.53542 -0.609082 0
M  V30 2588 H 233.745 -7.58499 -1.79722 0
M  V30 2589 N 237.974 -0.419461 -1.51915 0
M  V30 2590 C 238.937 0.389116 -2.25873 0
M  V30 2591 C 239.937 0.964924 -1.28631 0
M  V30 2592 O 241.127 0.842179 -1.52489 0
M  V30 2593 C 238.259 1.54874 -3.03689 0
M  V30 2594 H 239.452 -0.258799 -2.98781 0
M  V30 2595 H 237.005 -0.172209 -1.55348 0
M  V30 2596 H 237.74 2.23323 -2.35154 0
M  V30 2597 H 237.525 1.14223 -3.75094 0
M  V30 2598 H 239.015 2.12046 -3.59759 0
M  V30 2599 N 239.452 1.56882 -0.150215 0
M  V30 2600 C 240.701 1.95403 0.500071 0
M  V30 2601 C 241.014 1.03777 1.658 0
M  V30 2602 O 242.22 1.31889 2.37313 0
M  V30 2603 C 240.676 3.4738 0.941018 0
M  V30 2604 C 240.284 4.47596 -0.190158 0
M  V30 2605 C 242.028 3.9476 1.56091 0
M  V30 2606 C 239.935 5.90787 0.269237 0
M  V30 2607 H 238.865 0.729515 0.190588 0
M  V30 2608 H 241.516 1.81988 -0.235074 0
M  V30 2609 H 239.898 3.56138 1.73152 0
M  V30 2610 H 241.072 4.50536 -0.967157 0
M  V30 2611 H 239.387 4.10151 -0.718666 0
M  V30 2612 H 241.984 4.99181 1.9163 0
M  V30 2613 H 242.327 3.36494 2.45107 0
M  V30 2614 H 242.86 3.88932 0.835249 0
M  V30 2615 H 239.599 6.52879 -0.585621 0
M  V30 2616 H 239.119 5.912 1.01204 0
M  V30 2617 H 240.798 6.42979 0.720176 0
M  V30 2618 N 240.93 -0.123565 1.57115 0
M  V30 2619 C 241.878 -1.17082 2.00984 0
M  V30 2620 C 242.872 -1.43136 0.906009 0
M  V30 2621 O 244.078 -1.43152 1.09121 0
M  V30 2622 H 240.453 -0.394653 0.64012 0
M  V30 2623 H 242.424 -0.774292 2.88179 0
M  V30 2624 C 241.173 -2.49057 2.42623 0
M  V30 2625 H 240.496 -2.29846 3.27125 0
M  V30 2626 H 241.936 -3.20906 2.7712 0
M  V30 2627 C 240.395 -3.11305 1.28805 0
M  V30 2628 O 240.925 -3.97171 0.60153 0
M  V30 2629 N 239.131 -2.71111 1.04628 0
M  V30 2630 H 238.678 -2.01382 1.60634 0
M  V30 2631 H 238.636 -3.1309 0.286685 0
M  V30 2632 N 242.408 -1.52605 -0.393616 0
M  V30 2633 C 243.34 -1.73303 -1.49995 0
M  V30 2634 C 244.353 -0.613473 -1.50799 0
M  V30 2635 O 245.542 -0.889049 -1.54784 0
M  V30 2636 C 242.642 -1.77245 -2.88855 0
M  V30 2637 C 241.815 -3.06483 -3.12069 0
M  V30 2638 C 240.874 -3.02033 -4.30886 0
M  V30 2639 O 239.9 -3.75907 -4.27414 0
M  V30 2640 N 241.102 -2.20897 -5.36828 0
M  V30 2641 H 243.867 -2.68756 -1.32629 0
M  V30 2642 H 241.428 -1.51036 -0.583083 0
M  V30 2643 H 243.42 -1.7178 -3.66434 0
M  V30 2644 H 241.99 -0.891993 -2.99603 0
M  V30 2645 H 241.21 -3.25474 -2.22396 0
M  V30 2646 H 242.498 -3.91947 -3.2443 0
M  V30 2647 H 241.896 -1.60336 -5.42502 0
M  V30 2648 H 240.453 -2.21275 -6.13091 0
M  V30 2649 N 243.887 0.651787 -1.4349 0
M  V30 2650 C 244.797 1.79368 -1.5121 0
M  V30 2651 C 245.813 1.69361 -0.399093 0
M  V30 2652 O 246.989 1.90505 -0.653431 0
M  V30 2653 C 244.054 3.15653 -1.43401 0
M  V30 2654 C 243.115 3.37446 -2.65384 0
M  V30 2655 C 242.348 4.67229 -2.57939 0
M  V30 2656 O 242.571 5.46676 -1.62792 0
M  V30 2657 O 241.505 4.90773 -3.48462 0
M  V30 2658 H 245.331 1.7581 -2.47638 0
M  V30 2659 H 242.916 0.810447 -1.25507 0
M  V30 2660 H 244.798 3.96935 -1.41494 0
M  V30 2661 H 243.473 3.19798 -0.501085 0
M  V30 2662 H 242.38 2.55923 -2.72863 0
M  V30 2663 H 243.713 3.38148 -3.57654 0
M  V30 2664 N 245.365 1.30045 0.890287 0
M  V30 2665 C 246.298 1.10301 1.99772 0
M  V30 2666 C 247.276 0.0121631 1.62595 0
M  V30 2667 O 248.46 0.16469 1.87779 0
M  V30 2668 C 245.587 0.681125 3.31781 0
M  V30 2669 C 244.633 1.77206 3.87944 0
M  V30 2670 S 245.466 3.37335 4.15891 0
M  V30 2671 C 246.622 2.97036 5.50927 0
M  V30 2672 H 246.855 2.04057 2.16213 0
M  V30 2673 H 244.388 1.14299 1.03804 0
M  V30 2674 H 246.346 0.444439 4.08087 0
M  V30 2675 H 245.007 -0.236981 3.13205 0
M  V30 2676 H 244.2 1.42903 4.83316 0
M  V30 2677 H 243.802 1.96275 3.18358 0
M  V30 2678 H 246.094 2.44666 6.31779 0
M  V30 2679 H 247.037 3.91296 5.90164 0
M  V30 2680 H 247.445 2.35057 5.13233 0
M  V30 2681 N 246.843 -1.10192 1.12674 0
M  V30 2682 C 248.09 -1.82205 0.883606 0
M  V30 2683 C 248.418 -1.8532 -0.590492 0
M  V30 2684 O 247.673 -1.31137 -1.45264 0
M  V30 2685 C 247.972 -3.28552 1.4067 0
M  V30 2686 C 247.638 -3.45582 2.89627 0
M  V30 2687 C 246.3 -3.49937 3.30299 0
M  V30 2688 C 248.652 -3.50768 3.85501 0
M  V30 2689 C 245.98 -3.57049 4.65546 0
M  V30 2690 C 248.332 -3.59414 5.20581 0
M  V30 2691 C 246.996 -3.62034 5.60792 0
M  V30 2692 H 246.266 -0.666735 0.323334 0
M  V30 2693 H 248.913 -1.29868 1.40736 0
M  V30 2694 H 247.218 -3.83473 0.80347 0
M  V30 2695 H 248.915 -3.82788 1.19475 0
M  V30 2696 H 245.505 -3.42871 2.57172 0
M  V30 2697 H 249.689 -3.46651 3.55171 0
M  V30 2698 H 244.945 -3.57361 4.96088 0
M  V30 2699 H 249.119 -3.62371 5.94693 0
M  V30 2700 H 246.746 -3.67298 6.6558 0
M  V30 2701 N 248.321 -0.919034 -1.28029 0
M  V30 2702 C 249.268 -0.410005 -2.27129 0
M  V30 2703 C 250.238 0.518405 -1.57803 0
M  V30 2704 O 251.423 0.439451 -1.8567 0
M  V30 2705 C 248.563 0.339054 -3.4343 0
M  V30 2706 C 247.676 -0.622468 -4.27492 0
M  V30 2707 C 246.811 0.145567 -5.31001 0
M  V30 2708 C 245.85 -0.809226 -6.06727 0
M  V30 2709 N 244.987 -0.0743728 -7.02061 0
M  V30 2710 H 249.827 -1.26011 -2.70047 0
M  V30 2711 H 247.364 -0.632663 -1.328 0
M  V30 2712 H 249.322 0.789586 -4.0966 0
M  V30 2713 H 247.952 1.15346 -3.01488 0
M  V30 2714 H 247.004 -1.19153 -3.61257 0
M  V30 2715 H 248.316 -1.35252 -4.80113 0
M  V30 2716 H 247.47 0.656417 -6.03139 0
M  V30 2717 H 246.209 0.908643 -4.79161 0
M  V30 2718 H 245.214 -1.3314 -5.33436 0
M  V30 2719 H 246.439 -1.57194 -6.60656 0
M  V30 2720 H 244.385 0.670616 -6.52563 0
M  V30 2721 H 244.302 -0.744157 -7.52329 0
M  V30 2722 H 245.57 0.416109 -7.78389 0
M  V30 2723 N 249.799 1.42003 -0.683588 0
M  V30 2724 C 250.729 2.33487 -0.024866 0
M  V30 2725 C 251.71 1.51163 0.779975 0
M  V30 2726 O 252.895 1.79739 0.735362 0
M  V30 2727 C 250.025 3.3487 0.920836 0
M  V30 2728 C 248.979 4.27414 0.223958 0
M  V30 2729 C 248.305 5.19074 1.2832 0
M  V30 2730 C 249.605 5.14445 -0.90242 0
M  V30 2731 H 251.299 2.88819 -0.788921 0
M  V30 2732 H 248.845 1.38873 -0.38083 0
M  V30 2733 H 250.798 3.97787 1.39081 0
M  V30 2734 H 249.522 2.77861 1.71642 0
M  V30 2735 H 248.181 3.65904 -0.225864 0
M  V30 2736 H 247.829 4.58387 2.071 0
M  V30 2737 H 247.529 5.81822 0.821995 0
M  V30 2738 H 249.053 5.84867 1.75392 0
M  V30 2739 H 250.467 5.70998 -0.513272 0
M  V30 2740 H 248.864 5.86072 -1.28997 0
M  V30 2741 H 249.934 4.52322 -1.74737 0
M  V30 2742 N 251.277 0.427512 1.51691 0
M  V30 2743 C 252.502 -0.143601 2.06902 0
M  V30 2744 C 252.927 -1.36536 1.29382 0
M  V30 2745 O 252.285 -1.78289 0.329043 0
M  V30 2746 C 252.333 -0.454207 3.57728 0
M  V30 2747 O 251.437 -1.54228 3.82475 0
M  V30 2748 H 250.778 -0.00617128 0.663971 0
M  V30 2749 H 253.308 0.606014 1.95419 0
M  V30 2750 H 253.318 -0.707525 4.01818 0
M  V30 2751 H 251.993 0.438812 4.13579 0
M  V30 2752 H 250.57 -1.2797 3.50254 0
M  V30 2753 N 252.755 -1.56801 0.158532 0
M  V30 2754 C 253.98 -2.01295 -0.499516 0
M  V30 2755 C 254.405 -1.03799 -1.56867 0
M  V30 2756 O 253.763 -0.0155162 -1.81293 0
M  V30 2757 C 253.811 -3.44469 -1.06647 0
M  V30 2758 O 252.915 -3.50012 -2.18095 0
M  V30 2759 H 252.256 -0.652884 -0.12099 0
M  V30 2760 H 254.786 -2.02958 0.258661 0
M  V30 2761 H 254.796 -3.8351 -1.39227 0
M  V30 2762 H 253.471 -4.14932 -0.283581 0
M  V30 2763 H 252.048 -3.22822 -1.86656 0
M  V30 2764 N 254.233 0.115231 -1.57178 0
M  V30 2765 C 255.166 1.17166 -1.95825 0
M  V30 2766 C 256.144 1.39912 -0.828463 0
M  V30 2767 O 257.328 1.54004 -1.08697 0
M  V30 2768 C 254.455 2.52478 -2.25771 0
M  V30 2769 C 253.501 2.46136 -3.48309 0
M  V30 2770 S 254.334 1.89736 -5.0076 0
M  V30 2771 C 255.49 3.26713 -5.33863 0
M  V30 2772 H 255.723 0.842103 -2.85124 0
M  V30 2773 H 253.256 0.322136 -1.51002 0
M  V30 2774 H 255.214 3.30332 -2.43702 0
M  V30 2775 H 253.875 2.82609 -1.37079 0
M  V30 2776 H 253.068 3.45819 -3.66641 0
M  V30 2777 H 252.67 1.76404 -3.29784 0
M  V30 2778 H 254.962 4.22935 -5.29275 0
M  V30 2779 H 255.905 3.13205 -6.35065 0
M  V30 2780 H 256.313 3.25316 -4.61335 0
M  V30 2781 N 255.711 1.52812 0.385517 0
M  V30 2782 C 256.988 1.5861 1.14465 0
M  V30 2783 C 257.368 0.381402 2.07626 0
M  V30 2784 O 256.716 -0.629999 2.19643 0
M  V30 2785 C 256.926 2.92664 1.90128 0
M  V30 2786 C 258.274 3.46526 2.45367 0
M  V30 2787 O 259.298 2.94562 2.0028 0
M  V30 2788 O 258.157 4.37323 3.27736 0
M  V30 2789 H 255.251 0.639855 0.523941 0
M  V30 2790 H 257.797 1.65149 0.390389 0
M  V30 2791 H 256.569 3.71788 1.22022 0
M  V30 2792 H 256.192 2.89527 2.72507 0
M  V30 2793 N 257.189 -0.644168 1.43834 0
M  V30 2794 C 258.435 -1.40603 1.46146 0
M  V30 2795 C 258.768 -1.93997 0.0887717 0
M  V30 2796 O 258.043 -1.72854 -0.891724 0
M  V30 2797 C 258.326 -2.58086 2.51124 0
M  V30 2798 C 258.179 -2.10126 3.97702 0
M  V30 2799 C 259.498 -3.60291 2.52742 0
M  V30 2800 H 256.617 -0.509905 0.532134 0
M  V30 2801 H 259.259 -0.729502 1.75437 0
M  V30 2802 H 257.409 -3.15801 2.26278 0
M  V30 2803 H 259.081 -1.57342 4.33637 0
M  V30 2804 H 257.324 -1.41419 4.10101 0
M  V30 2805 H 257.995 -2.94649 4.66783 0
M  V30 2806 H 260.471 -3.12352 2.7491 0
M  V30 2807 H 259.347 -4.40032 3.28121 0
M  V30 2808 H 259.608 -4.1349 1.56455 0
M  V30 2809 N 258.668 -1.30515 -0.883378 0
M  V30 2810 C 259.896 -1.22359 -1.66841 0
M  V30 2811 C 260.311 0.213296 -1.87591 0
M  V30 2812 O 259.668 1.14075 -1.42454 0
M  V30 2813 C 259.719 -1.95011 -3.04389 0
M  V30 2814 O 259.44 -3.3309 -2.84575 0
M  V30 2815 C 260.941 -1.93532 -3.98824 0
M  V30 2816 H 258.161 -0.423371 -0.520575 0
M  V30 2817 H 260.705 -1.72167 -1.10357 0
M  V30 2818 H 258.86 -1.48997 -3.57601 0
M  V30 2819 H 259.274 -3.69907 -3.71846 0
M  V30 2820 H 260.748 -2.48902 -4.92699 0
M  V30 2821 H 261.225 -0.914627 -4.29571 0
M  V30 2822 H 261.831 -2.39364 -3.51547 0
M  V30 2823 N 260.146 1.09593 -1.13257 0
M  V30 2824 C 261.096 2.14345 -0.777179 0
M  V30 2825 C 262.08 1.59277 0.227966 0
M  V30 2826 O 263.272 1.76971 0.0321413 0
M  V30 2827 C 260.401 3.42439 -0.242991 0
M  V30 2828 C 259.487 4.04419 -1.27694 0
M  V30 2829 N 259.878 4.40979 -2.47732 0
M  V30 2830 C 258.176 4.31596 -1.12432 0
M  V30 2831 C 258.877 4.89784 -3.13826 0
M  V30 2832 N 257.853 4.87133 -2.41252 0
M  V30 2833 H 261.655 2.40415 -1.69049 0
M  V30 2834 H 259.169 1.26803 -1.01463 0
M  V30 2835 H 261.166 4.16889 0.0298496 0
M  V30 2836 H 259.826 3.17824 0.66467 0
M  V30 2837 H 260.837 4.32396 -2.85051 0
M  V30 2838 H 257.514 4.16595 -0.274684 0
M  V30 2839 H 258.904 5.2755 -4.16102 0
M  V30 2840 N 261.624 0.925811 1.2754 0
M  V30 2841 C 262.587 0.428129 2.25166 0
M  V30 2842 C 263.587 -0.452261 1.54309 0
M  V30 2843 O 264.777 -0.253608 1.72344 0
M  V30 2844 C 261.909 -0.384749 3.38722 0
M  V30 2845 H 263.102 1.29066 2.70706 0
M  V30 2846 H 260.655 0.706323 1.3943 0
M  V30 2847 H 261.39 -1.26618 2.98561 0
M  V30 2848 H 261.175 0.246454 3.91325 0
M  V30 2849 H 262.665 -0.723389 4.11287 0
M  V30 2850 N 263.102 -1.41638 0.69111 0
M  V30 2851 C 264.052 -2.28 -0.000107832 0
M  V30 2852 C 265.036 -1.41964 -0.757304 0
M  V30 2853 O 266.228 -1.65274 -0.633532 0
M  V30 2854 C 263.357 -3.30209 -0.938983 0
M  V30 2855 C 262.443 -4.23725 -0.17827 0
M  V30 2856 N 262.834 -4.99017 0.825563 0
M  V30 2857 C 261.132 -4.44071 -0.414392 0
M  V30 2858 C 261.833 -5.67431 1.28052 0
M  V30 2859 N 260.809 -5.40197 0.607304 0
M  V30 2860 H 264.611 -2.83644 0.769617 0
M  V30 2861 H 262.125 -1.53797 0.521562 0
M  V30 2862 H 264.122 -3.90898 -1.44929 0
M  V30 2863 H 262.782 -2.76126 -1.70836 0
M  V30 2864 H 263.793 -5.03671 1.20566 0
M  V30 2865 H 260.47 -4.01004 -1.162 0
M  V30 2866 H 261.86 -6.37801 2.11327 0
M  V30 2867 N 264.58 -0.43555 -1.51462 0
M  V30 2868 C 265.51 0.367376 -2.30592 0
M  V30 2869 C 266.491 1.02263 -1.35928 0
M  V30 2870 O 267.676 1.02661 -1.64847 0
M  V30 2871 C 264.806 1.46983 -3.14664 0
M  V30 2872 C 263.76 0.938161 -4.17591 0
M  V30 2873 C 263.086 2.13622 -4.90173 0
M  V30 2874 C 264.386 -0.0261621 -5.22293 0
M  V30 2875 H 266.08 -0.292969 -2.97963 0
M  V30 2876 H 263.626 -0.14234 -1.43295 0
M  V30 2877 H 265.579 2.03873 -3.688 0
M  V30 2878 H 264.303 2.15843 -2.4511 0
M  V30 2879 H 262.962 0.391481 -3.64504 0
M  V30 2880 H 262.61 2.81098 -4.17124 0
M  V30 2881 H 262.31 1.78688 -5.59772 0
M  V30 2882 H 263.834 2.7107 -5.47132 0
M  V30 2883 H 265.248 0.452384 -5.71512 0
M  V30 2884 H 263.645 -0.287992 -5.99409 0
M  V30 2885 H 264.715 -0.963391 -4.75233 0
M  V30 2886 N 266.058 1.56714 -0.166846 0
M  V30 2887 C 267.304 1.97039 0.479962 0
M  V30 2888 C 267.637 1.05264 1.63197 0
M  V30 2889 O 266.912 0.0988833 1.94248 0
M  V30 2890 C 267.195 3.46867 0.967212 0
M  V30 2891 C 267.048 4.49421 -0.18466 0
M  V30 2892 C 268.367 3.9968 1.84238 0
M  V30 2893 H 265.486 0.71641 0.172992 0
M  V30 2894 H 268.128 1.8832 -0.252079 0
M  V30 2895 H 266.278 3.54428 1.59101 0
M  V30 2896 H 267.95 4.53924 -0.821621 0
M  V30 2897 H 266.193 4.25573 -0.840837 0
M  V30 2898 H 266.864 5.51644 0.198317 0
M  V30 2899 H 269.34 3.94723 1.31655 0
M  V30 2900 H 268.216 5.04941 2.15234 0
M  V30 2901 H 268.477 3.43226 2.78654 0
M  V30 2902 N 267.536 -0.106894 1.57237 0
M  V30 2903 C 268.484 -1.14944 2.02215 0
M  V30 2904 C 269.478 -1.42167 0.92114 0
M  V30 2905 O 270.684 -1.41987 1.10634 0
M  V30 2906 H 267.059 -0.387841 0.64427 0
M  V30 2907 H 269.03 -0.743683 2.88984 0
M  V30 2908 C 267.779 -2.4647 2.4525 0
M  V30 2909 H 267.102 -2.26363 3.29545 0
M  V30 2910 H 268.542 -3.17948 2.80508 0
M  V30 2911 C 267.001 -3.09921 1.321 0
M  V30 2912 O 267.531 -3.9651 0.643622 0
M  V30 2913 N 265.737 -2.69986 1.07497 0
M  V30 2914 H 265.284 -1.99667 1.62761 0
M  V30 2915 H 265.242 -3.12769 0.319876 0
M  V30 2916 N 269.014 -1.53014 -0.377408 0
M  V30 2917 C 269.961 -1.78616 -1.46168 0
M  V30 2918 C 270.931 -0.629917 -1.53692 0
M  V30 2919 O 272.116 -0.870861 -1.69766 0
M  V30 2920 C 269.256 -1.97123 -2.8326 0
M  V30 2921 C 268.369 -3.24831 -2.84796 0
M  V30 2922 C 267.504 -3.33591 -4.13389 0
M  V30 2923 C 266.543 -4.55377 -4.09021 0
M  V30 2924 N 265.68 -4.61355 -5.29241 0
M  V30 2925 H 270.52 -2.71142 -1.23637 0
M  V30 2926 H 268.057 -1.34326 -0.599577 0
M  V30 2927 H 270.015 -2.05839 -3.62886 0
M  V30 2928 H 268.645 -1.07946 -3.04216 0
M  V30 2929 H 267.697 -3.25128 -1.97474 0
M  V30 2930 H 269.009 -4.14523 -2.77439 0
M  V30 2931 H 268.163 -3.41554 -5.01424 0
M  V30 2932 H 266.902 -2.41894 -4.23484 0
M  V30 2933 H 265.907 -4.47527 -3.19373 0
M  V30 2934 H 267.132 -5.48402 -4.00539 0
M  V30 2935 H 265.078 -3.72554 -5.39944 0
M  V30 2936 H 264.995 -5.44935 -5.24006 0
M  V30 2937 H 266.263 -4.73586 -6.19141 0
M  V30 2938 N 270.492 0.636531 -1.44174 0
M  V30 2939 C 271.739 1.39619 -1.46672 0
M  V30 2940 C 272.067 1.94257 -0.0972691 0
M  V30 2941 O 271.322 1.73768 0.900175 0
M  V30 2942 C 271.621 2.58309 -2.47005 0
M  V30 2943 C 271.287 2.21992 -3.92467 0
M  V30 2944 C 269.949 2.118 -4.32081 0
M  V30 2945 C 272.301 1.9321 -4.84065 0
M  V30 2946 C 269.629 1.71007 -5.61225 0
M  V30 2947 C 271.981 1.53911 -6.13591 0
M  V30 2948 C 270.645 1.42257 -6.52165 0
M  V30 2949 H 269.915 0.510902 -0.536712 0
M  V30 2950 H 272.562 0.722328 -1.77355 0
M  V30 2951 H 270.867 3.30903 -2.09786 0
M  V30 2952 H 272.564 3.16533 -2.46186 0
M  V30 2953 H 269.154 2.30841 -3.61124 0
M  V30 2954 H 273.338 1.99997 -4.54219 0
M  V30 2955 H 268.594 1.60583 -5.89935 0
M  V30 2956 H 272.768 1.30677 -6.8403 0
M  V30 2957 H 270.395 1.10419 -7.52138 0
M  V30 2958 N 271.97 1.30982 0.876444 0
M  V30 2959 C 273.216 1.21484 1.63136 0
M  V30 2960 C 273.571 -0.226339 1.91064 0
M  V30 2961 O 272.864 -1.15788 1.52656 0
M  V30 2962 C 273.058 1.98572 2.9716 0
M  V30 2963 C 272.887 3.50039 2.82317 0
M  V30 2964 C 271.657 4.19393 2.81847 0
M  V30 2965 C 273.855 4.45111 2.57644 0
M  V30 2966 N 271.837 5.57061 2.57985 0
M  V30 2967 C 273.208 5.70402 2.42986 0
M  V30 2968 C 275.263 4.3461 2.42937 0
M  V30 2969 C 273.966 6.8638 2.15115 0
M  V30 2970 C 275.992 5.50365 2.16454 0
M  V30 2971 C 275.354 6.74642 2.02578 0
M  V30 2972 H 271.453 0.499632 0.601575 0
M  V30 2973 H 274.037 1.65094 1.03209 0
M  V30 2974 H 272.208 1.5734 3.55104 0
M  V30 2975 H 273.94 1.81146 3.61895 0
M  V30 2976 H 270.695 3.71303 2.93991 0
M  V30 2977 H 271.119 6.29529 2.49043 0
M  V30 2978 H 275.761 3.39199 2.52396 0
M  V30 2979 H 273.479 7.81824 2.04394 0
M  V30 2980 H 277.065 5.44154 2.05884 0
M  V30 2981 H 275.945 7.62699 1.82374 0
M  V30 2982 N 273.449 -1.08991 1.13837 0
M  V30 2983 C 274.399 -2.1393 0.788535 0
M  V30 2984 C 275.383 -1.59396 -0.219516 0
M  V30 2985 O 276.575 -1.76985 -0.0227557 0
M  V30 2986 C 273.704 -3.42305 0.261147 0
M  V30 2987 C 272.79 -4.03736 1.29837 0
M  V30 2988 N 273.181 -4.39659 2.50067 0
M  V30 2989 C 271.479 -4.30993 1.1472 0
M  V30 2990 C 272.18 -4.88113 3.16419 0
M  V30 2991 N 271.156 -4.85846 2.43832 0
M  V30 2992 H 274.958 -2.39516 1.70322 0
M  V30 2993 H 272.472 -1.26263 1.02134 0
M  V30 2994 H 274.469 -4.16899 -0.0077405 0
M  V30 2995 H 273.129 -3.18172 -0.647805 0
M  V30 2996 H 274.14 -4.30878 2.8734 0
M  V30 2997 H 270.817 -4.16444 0.296773 0
M  V30 2998 H 272.207 -5.25336 4.18894 0
M  V30 2999 N 274.927 -0.932562 -1.27047 0
M  V30 3000 C 276.174 -0.575559 -1.94148 0
M  V30 3001 C 276.502 0.883984 -1.73251 0
M  V30 3002 O 275.757 1.64655 -1.0577 0
M  V30 3003 C 276.056 -0.853713 -3.47054 0
M  V30 3004 C 275.722 -2.29577 -3.88079 0
M  V30 3005 C 274.384 -2.68999 -3.9899 0
M  V30 3006 C 276.736 -3.23331 -4.08787 0
M  V30 3007 C 274.064 -4.01289 -4.28 0
M  V30 3008 C 276.416 -4.55207 -4.39282 0
M  V30 3009 C 275.08 -4.94457 -4.48407 0
M  V30 3010 H 274.35 -0.210612 -0.710439 0
M  V30 3011 H 276.997 -1.17744 -1.51025 0
M  V30 3012 H 275.302 -0.169204 -3.91434 0
M  V30 3013 H 276.999 -0.55639 -3.97121 0
M  V30 3014 H 273.589 -1.97994 -3.80127 0
M  V30 3015 H 277.773 -2.94074 -3.99793 0
M  V30 3016 H 273.029 -4.31374 -4.33275 0
M  V30 3017 H 277.203 -5.27852 -4.54252 0
M  V30 3018 H 274.83 -5.96994 -4.7064 0
M  V30 3019 N 276.405 1.4127 -0.698611 0
M  V30 3020 C 277.653 2.00782 -0.230409 0
M  V30 3021 C 277.974 1.5562 1.17505 0
M  V30 3022 O 277.244 0.78815 1.79346 0
M  V30 3023 H 275.824 0.742464 -0.0821944 0
M  V30 3024 H 278.486 1.72852 -0.90045 0
M  V30 3025 H 277.582 3.11095 -0.25021 0
M  V30 3026 N 277.883 0.443576 1.51229 0
M  V30 3027 C 279.131 -0.120557 2.0174 0
M  V30 3028 C 279.452 -1.42665 1.32935 0
M  V30 3029 O 278.722 -1.9028 0.465866 0
M  V30 3030 H 277.302 -0.0475426 0.745486 0
M  V30 3031 H 279.964 0.587711 1.85828 0
M  V30 3032 H 279.06 -0.291972 3.10731 0
M  V30 3033 N 279.361 -1.56624 0.175154 0
M  V30 3034 C 280.309 -2.19468 -0.770495 0
M  V30 3035 C 281.303 -1.15985 -1.23466 0
M  V30 3036 O 282.509 -1.34176 -1.19987 0
M  V30 3037 H 278.884 -0.703095 -0.266761 0
M  V30 3038 H 280.855 -2.97613 -0.216542 0
M  V30 3039 C 279.604 -2.85264 -1.98796 0
M  V30 3040 H 278.927 -3.64623 -1.63983 0
M  V30 3041 H 280.367 -3.327 -2.62843 0
M  V30 3042 C 278.826 -1.85239 -2.81404 0
M  V30 3043 O 279.356 -1.34024 -3.78682 0
M  V30 3044 N 277.562 -1.53911 -2.46495 0
M  V30 3045 H 277.109 -1.95751 -1.67449 0
M  V30 3046 H 277.067 -0.872382 -3.02054 0
M  V30 3047 N 280.839 0.0985539 -1.57292 0
M  V30 3048 C 281.749 1.13824 -2.05137 0
M  V30 3049 C 282.765 1.44076 -0.975604 0
M  V30 3050 O 283.941 1.54786 -1.28853 0
M  V30 3051 C 281.006 2.43969 -2.46333 0
M  V30 3052 C 280.067 2.2093 -3.68087 0
M  V30 3053 C 279.3 3.44869 -4.0731 0
M  V30 3054 O 279.523 4.52972 -3.46659 0
M  V30 3055 O 278.457 3.34661 -5.00285 0
M  V30 3056 H 282.283 0.761881 -2.93988 0
M  V30 3057 H 279.868 0.310818 -1.46131 0
M  V30 3058 H 281.75 3.20609 -2.73473 0
M  V30 3059 H 280.425 2.81038 -1.60621 0
M  V30 3060 H 279.332 1.42081 -3.46069 0
M  V30 3061 H 280.665 1.88755 -4.54568 0
M  V30 3062 N 282.317 1.53212 0.369288 0
M  V30 3063 C 283.733 1.42902 0.710712 0
M  V30 3064 C 283.933 0.565135 1.93413 0
M  V30 3065 O 282.989 0.0461484 2.52458 0
M  V30 3066 C 284.302 2.86042 0.927382 0
M  V30 3067 C 285.85 2.9565 1.02762 0
M  V30 3068 C 286.325 4.39843 1.27679 0
M  V30 3069 N 287.816 4.43256 1.34457 0
M  V30 3070 C 288.551 5.51929 1.55439 0
M  V30 3071 N 288.047 6.70655 1.73762 0
M  V30 3072 N 289.84 5.39502 1.57779 0
M  V30 3073 H 281.991 2.07888 -0.435457 0
M  V30 3074 H 284.254 0.938661 -0.132739 0
M  V30 3075 H 283.96 3.51557 0.100287 0
M  V30 3076 H 283.834 3.29472 1.83653 0
M  V30 3077 H 286.221 2.30291 1.84527 0
M  V30 3078 H 286.302 2.5562 0.0959504 0
M  V30 3079 H 285.946 5.05774 0.464175 0
M  V30 3080 H 285.876 4.77443 2.22162 0
M  V30 3081 H 288.367 3.5769 1.21926 0
M  V30 3082 H 288.68 7.49248 1.89335 0
M  V30 3083 H 287.025 6.73648 1.70948 0
M  V30 3084 H 290.216 4.45713 1.43029 0
M  V30 3085 H 290.389 6.2426 1.7379 0
M  V30 3086 N 283.795 -0.628877 1.44509 0
M  V30 3087 C 285.02 -1.42048 1.5112 0
M  V30 3088 C 285.445 -1.87594 0.137818 0
M  V30 3089 O 284.803 -1.58873 -0.873437 0
M  V30 3090 C 284.851 -2.61541 2.48251 0
M  V30 3091 O 283.955 -3.61453 1.98559 0
M  V30 3092 H 283.296 -0.424942 0.510216 0
M  V30 3093 H 285.826 -0.767374 1.89664 0
M  V30 3094 H 285.836 -3.09057 2.66361 0
M  V30 3095 H 284.511 -2.27736 3.48007 0
M  V30 3096 H 283.088 -3.20731 1.90227 0
M  V30 3097 N 285.273 -1.31445 -0.869486 0
M  V30 3098 C 286.205 -1.14955 -1.98287 0
M  V30 3099 C 287.218 -0.0885037 -1.62559 0
M  V30 3100 O 288.407 -0.336044 -1.75308 0
M  V30 3101 C 285.507 -0.734255 -3.3085 0
M  V30 3102 C 284.68 -1.88042 -3.94917 0
M  V30 3103 C 283.739 -1.4511 -5.05796 0
M  V30 3104 O 282.765 -2.16082 -5.2659 0
M  V30 3105 N 283.967 -0.338763 -5.79511 0
M  V30 3106 H 286.732 -2.10856 -2.12979 0
M  V30 3107 H 284.293 -1.23786 -1.04349 0
M  V30 3108 H 286.285 -0.42975 -4.02412 0
M  V30 3109 H 284.855 0.133158 -3.12316 0
M  V30 3110 H 284.075 -2.35222 -3.1633 0
M  V30 3111 H 285.363 -2.6481 -4.34457 0
M  V30 3112 H 284.761 0.252274 -5.65137 0
M  V30 3113 H 283.318 -0.0937925 -6.51733 0
M  V30 3114 N 286.751 1.08385 -1.14413 0
M  V30 3115 C 288.167 1.32844 -0.884563 0
M  V30 3116 C 288.367 1.95841 0.474181 0
M  V30 3117 O 287.423 2.21158 1.21842 0
M  V30 3118 C 288.736 2.22978 -2.01745 0
M  V30 3119 C 290.284 2.36458 -2.05077 0
M  V30 3120 C 290.759 3.29934 -3.1766 0
M  V30 3121 N 292.25 3.37511 -3.17239 0
M  V30 3122 C 292.985 4.09871 -4.0099 0
M  V30 3123 N 292.481 4.84936 -4.94781 0
M  V30 3124 N 294.274 4.05704 -3.89051 0
M  V30 3125 H 286.425 0.658756 -2.01926 0
M  V30 3126 H 288.688 0.352821 -0.879899 0
M  V30 3127 H 288.394 1.83934 -2.99769 0
M  V30 3128 H 288.268 3.23441 -1.94077 0
M  V30 3129 H 290.655 2.7476 -1.0766 0
M  V30 3130 H 290.736 1.35736 -2.16816 0
M  V30 3131 H 290.38 2.92352 -4.15322 0
M  V30 3132 H 290.31 4.30584 -3.03158 0
M  V30 3133 H 292.801 2.83996 -2.49308 0
M  V30 3134 H 293.114 5.37612 -5.55151 0
M  V30 3135 H 291.459 4.83988 -4.98779 0
M  V30 3136 H 294.65 3.46167 -3.15097 0
M  V30 3137 H 294.823 4.61834 -4.54547 0
M  V30 3138 N 288.23 0.939286 1.26551 0
M  V30 3139 C 289.477 0.585847 1.9384 0
M  V30 3140 C 289.805 -0.874784 1.73718 0
M  V30 3141 O 289.06 -1.64092 1.06642 0
M  V30 3142 C 289.359 0.872106 3.46596 0
M  V30 3143 C 289.025 2.31632 3.86856 0
M  V30 3144 C 287.687 2.71111 3.97558 0
M  V30 3145 C 290.039 3.25494 4.07066 0
M  V30 3146 C 287.367 4.03553 4.25866 0
M  V30 3147 C 289.719 4.57531 4.36862 0
M  V30 3148 C 288.383 4.96828 4.45778 0
M  V30 3149 H 287.653 0.214377 0.709312 0
M  V30 3150 H 290.3 1.18544 1.50398 0
M  V30 3151 H 288.605 0.18996 3.91339 0
M  V30 3152 H 290.302 0.577442 3.96821 0
M  V30 3153 H 286.892 2.00008 3.79071 0
M  V30 3154 H 291.076 2.9619 3.98227 0
M  V30 3155 H 286.332 4.33665 4.30981 0
M  V30 3156 H 290.506 5.30254 4.51446 0
M  V30 3157 H 288.133 5.99482 4.67468 0
M  V30 3158 N 289.708 -1.40897 0.706093 0
M  V30 3159 C 290.957 -2.00284 0.238574 0
M  V30 3160 C 291.27 -1.56604 -1.17194 0
M  V30 3161 O 292.476 -2.08624 -1.73748 0
M  V30 3162 C 290.932 -3.57934 0.375623 0
M  V30 3163 C 290.54 -4.10591 1.79217 0
M  V30 3164 C 292.284 -4.24488 -0.0315857 0
M  V30 3165 C 290.191 -5.60712 1.88032 0
M  V30 3166 H 289.121 -0.749144 0.0854398 0
M  V30 3167 H 291.772 -1.61251 0.875813 0
M  V30 3168 H 290.154 -3.94622 -0.330042 0
M  V30 3169 H 291.328 -3.85301 2.52745 0
M  V30 3170 H 289.643 -3.56601 2.15 0
M  V30 3171 H 292.24 -5.34698 0.0136842 0
M  V30 3172 H 292.583 -4.02261 -1.072 0
M  V30 3173 H 293.116 -3.92873 0.624181 0
M  V30 3174 H 289.855 -5.87781 2.90161 0
M  V30 3175 H 289.375 -5.87896 1.18903 0
M  V30 3176 H 291.054 -6.25658 1.64805 0
M  V30 3177 N 291.186 -0.45159 -1.50991 0
M  V30 3178 C 292.096 0.358431 -2.31846 0
M  V30 3179 C 293.112 1.01438 -1.41373 0
M  V30 3180 O 294.288 1.00663 -1.74439 0
M  V30 3181 C 291.353 1.43704 -3.15515 0
M  V30 3182 C 290.414 0.799742 -4.21785 0
M  V30 3183 C 289.647 1.82696 -5.01456 0
M  V30 3184 O 289.87 3.05105 -4.81941 0
M  V30 3185 O 288.804 1.40958 -5.85162 0
M  V30 3186 H 292.63 -0.302032 -3.02194 0
M  V30 3187 H 290.215 -0.213825 -1.47862 0
M  V30 3188 H 292.097 2.06227 -3.67489 0
M  V30 3189 H 290.772 2.08133 -2.47916 0
M  V30 3190 H 289.679 0.136084 -3.73852 0
M  V30 3191 H 291.012 0.198718 -4.91799 0
M  V30 3192 N 292.664 1.56529 -0.183458 0
M  V30 3193 C 294.08 1.58664 0.172554 0
M  V30 3194 C 294.28 1.19925 1.61926 0
M  V30 3195 O 293.336 0.916534 2.35278 0
M  V30 3196 C 294.649 3.00463 -0.119262 0
M  V30 3197 C 296.197 3.12945 -0.0584396 0
M  V30 3198 C 296.672 4.56857 -0.323408 0
M  V30 3199 N 298.163 4.62403 -0.271612 0
M  V30 3200 C 298.898 5.71626 -0.450639 0
M  V30 3201 N 298.394 6.89362 -0.689384 0
M  V30 3202 N 300.187 5.60775 -0.385701 0
M  V30 3203 H 292.338 1.79994 -1.12765 0
M  V30 3204 H 294.601 0.834808 -0.449222 0
M  V30 3205 H 294.307 3.33326 -1.12192 0
M  V30 3206 H 294.181 3.72659 0.583544 0
M  V30 3207 H 296.568 2.79902 0.934805 0
M  V30 3208 H 296.649 2.4316 -0.794144 0
M  V30 3209 H 296.293 4.9061 -1.31392 0
M  V30 3210 H 296.223 5.24816 0.43305 0
M  V30 3211 H 298.714 3.77785 -0.0932256 0
M  V30 3212 H 299.027 7.68489 -0.815113 0
M  V30 3213 H 297.372 6.91196 -0.726142 0
M  V30 3214 H 300.563 4.67674 -0.199687 0
M  V30 3215 H 300.736 6.4584 -0.528646 0
M  V30 3216 N 294.142 -0.090211 1.57342 0
M  V30 3217 C 295.382 -0.798365 1.88163 0
M  V30 3218 C 295.746 -1.75662 0.775046 0
M  V30 3219 O 296.947 -2.50849 0.965816 0
M  V30 3220 C 295.218 -1.50376 3.24225 0
M  V30 3221 S 296.777 -2.24952 3.76752 0
M  V30 3222 H 293.595 -0.265883 0.659414 0
M  V30 3223 H 296.197 -0.055264 1.95422 0
M  V30 3224 H 294.901 -0.792286 4.0268 0
M  V30 3225 H 294.432 -2.28666 3.20118 0
M  V30 3226 H 296.447 -3.51173 3.5056 0
M  V30 3227 N 295.62 -1.53406 -0.361157 0
M  V30 3228 C 296.869 -1.69022 -1.10066 0
M  V30 3229 C 297.182 -0.450838 -1.90333 0
M  V30 3230 O 298.388 -0.487617 -2.67085 0
M  V30 3231 C 296.844 -2.98812 -2.00598 0
M  V30 3232 C 296.452 -4.30027 -1.25621 0
M  V30 3233 C 298.196 -3.23795 -2.74513 0
M  V30 3234 C 296.103 -5.50903 -2.1508 0
M  V30 3235 H 295.033 -0.629776 -0.414606 0
M  V30 3236 H 297.684 -1.79907 -0.361348 0
M  V30 3237 H 296.066 -2.8174 -2.78278 0
M  V30 3238 H 297.24 -4.57745 -0.529739 0
M  V30 3239 H 295.555 -4.11522 -0.635496 0
M  V30 3240 H 298.152 -4.11289 -3.41681 0
M  V30 3241 H 298.495 -2.40045 -3.40123 0
M  V30 3242 H 299.028 -3.41561 -2.03914 0
M  V30 3243 H 295.767 -6.37143 -1.54041 0
M  V30 3244 H 295.287 -5.27459 -2.85565 0
M  V30 3245 H 296.966 -5.85865 -2.74538 0
M  V30 3246 N 297.098 0.621204 -1.44841 0
M  V30 3247 C 298.03 1.74615 -1.48466 0
M  V30 3248 C 299.043 1.58377 -0.37691 0
M  V30 3249 O 300.232 1.66508 -0.643215 0
M  V30 3250 C 297.332 3.12459 -1.31236 0
M  V30 3251 C 296.505 3.55064 -2.55438 0
M  V30 3252 C 295.564 4.71821 -2.32963 0
M  V30 3253 O 294.59 4.79628 -3.06505 0
M  V30 3254 N 295.792 5.64186 -1.36654 0
M  V30 3255 H 298.557 1.71973 -2.45449 0
M  V30 3256 H 296.118 0.806077 -1.40407 0
M  V30 3257 H 298.11 3.88302 -1.14032 0
M  V30 3258 H 296.68 3.09686 -0.4258 0
M  V30 3259 H 295.9 2.69324 -2.87851 0
M  V30 3260 H 297.188 3.80284 -3.38026 0
M  V30 3261 H 296.586 5.6058 -0.759344 0
M  V30 3262 H 295.143 6.39618 -1.25425 0
M  V30 3263 N 298.576 1.31904 0.862503 0
M  V30 3264 C 299.804 1.24998 1.64873 0
M  V30 3265 C 300.219 -0.183425 1.87907 0
M  V30 3266 O 299.576 -1.11794 1.44251 0
M  V30 3267 C 299.627 1.99829 3.01248 0
M  V30 3268 O 299.348 3.37575 2.79239 0
M  V30 3269 C 300.849 1.99852 3.95694 0
M  V30 3270 H 298.069 0.431599 0.513773 0
M  V30 3271 H 300.613 1.73901 1.07604 0
M  V30 3272 H 298.768 1.54668 3.55185 0
M  V30 3273 H 299.182 3.75776 3.65914 0
M  V30 3274 H 300.656 2.56709 4.88676 0
M  V30 3275 H 301.133 0.982852 4.28062 0
M  V30 3276 H 301.739 2.44926 3.47694 0
M  V30 3277 N 300.054 -1.07777 1.14986 0
M  V30 3278 C 301.301 -1.8029 0.922056 0
M  V30 3279 C 301.629 -1.86531 -0.55105 0
M  V30 3280 O 300.884 -1.34189 -1.42449 0
M  V30 3281 C 301.183 -3.25495 1.47608 0
M  V30 3282 C 300.849 -3.39361 2.96893 0
M  V30 3283 C 299.511 -3.42852 3.37647 0
M  V30 3284 C 301.863 -3.42512 3.92854 0
M  V30 3285 C 299.191 -3.47094 4.73015 0
M  V30 3286 C 301.543 -3.4829 5.28088 0
M  V30 3287 C 300.207 -3.50058 5.68345 0
M  V30 3288 H 299.477 -0.659727 0.337404 0
M  V30 3289 H 302.124 -1.26854 1.43459 0
M  V30 3290 H 300.429 -3.81683 0.88463 0
M  V30 3291 H 302.126 -3.80168 1.27568 0
M  V30 3292 H 298.716 -3.37339 2.64387 0
M  V30 3293 H 302.9 -3.3904 3.62444 0
M  V30 3294 H 298.156 -3.46758 5.03556 0
M  V30 3295 H 302.33 -3.49675 6.02246 0
M  V30 3296 H 299.957 -3.53097 6.73221 0
M  V30 3297 N 301.532 -0.945985 -1.26051 0
M  V30 3298 C 302.943 -0.638096 -1.75457 0
M  V30 3299 C 303.294 0.846672 -1.76991 0
M  V30 3300 O 302.419 1.66262 -1.38513 0
M  V30 3301 C 303.014 -1.15157 -3.18629 0
M  V30 3302 C 301.573 -0.894004 -3.65629 0
M  V30 3303 C 300.72 -1.29967 -2.44957 0
M  V30 3304 H 303.671 -1.12376 -1.1206 0
M  V30 3305 H 303.692 -0.507615 -3.77099 0
M  V30 3306 H 303.204 -2.23222 -3.1748 0
M  V30 3307 H 301.305 0.172057 -3.72203 0
M  V30 3308 H 301.418 -1.52439 -4.54202 0
M  V30 3309 H 299.782 -0.718078 -2.44368 0
M  V30 3310 H 300.565 -2.38935 -2.46505 0
M  V30 3311 N 303.011 1.40521 -0.713556 0
M  V30 3312 C 304.239 2.05237 -0.261775 0
M  V30 3313 C 304.654 1.53755 1.09567 0
M  V30 3314 O 304.011 0.693268 1.6882 0
M  V30 3315 C 304.062 3.60763 -0.230706 0
M  V30 3316 O 303.783 4.10345 -1.53455 0
M  V30 3317 C 305.284 4.42651 0.239874 0
M  V30 3318 H 302.504 0.660533 -0.118057 0
M  V30 3319 H 305.048 1.79967 -0.971192 0
M  V30 3320 H 303.203 3.8501 0.429661 0
M  V30 3321 H 303.617 5.04526 -1.43366 0
M  V30 3322 H 305.091 5.51599 0.210468 0
M  V30 3323 H 305.568 4.20082 1.28171 0
M  V30 3324 H 306.174 4.23507 -0.390142 0
M  V30 3325 N 304.489 0.459591 1.5075 0
M  V30 3326 C 305.729 -0.09824 2.04164 0
M  V30 3327 C 306.093 -1.3801 1.33481 0
M  V30 3328 O 307.294 -2.01959 1.77387 0
M  V30 3329 C 305.565 -0.289467 3.56226 0
M  V30 3330 S 307.124 -0.807507 4.31306 0
M  V30 3331 H 303.942 -0.0213845 0.710678 0
M  V30 3332 H 306.544 0.624098 1.85271 0
M  V30 3333 H 305.248 0.649461 4.05229 0
M  V30 3334 H 304.779 -1.03825 3.79452 0
M  V30 3335 H 306.794 -2.0824 4.50389 0
M  V30 3336 N 305.967 -1.56429 0.191757 0
M  V30 3337 C 307.207 -1.99383 -0.450099 0
M  V30 3338 C 307.571 -1.07581 -1.59029 0
M  V30 3339 O 308.772 -1.39758 -2.29611 0
M  V30 3340 C 307.043 -3.45841 -0.901611 0
M  V30 3341 S 308.602 -4.10822 -1.54177 0
M  V30 3342 H 305.42 -0.696253 -0.144057 0
M  V30 3343 H 308.022 -1.93276 0.294036 0
M  V30 3344 H 306.726 -4.10354 -0.0616596 0
M  V30 3345 H 306.257 -3.55757 -1.67929 0
M  V30 3346 H 308.272 -4.07553 -2.83046 0
M  V30 3347 N 307.445 0.0818655 -1.57387 0
M  V30 3348 C 308.375 1.09885 -2.06028 0
M  V30 3349 C 309.356 1.4098 -0.951774 0
M  V30 3350 O 310.541 1.50781 -1.22387 0
M  V30 3351 C 307.671 2.4151 -2.4958 0
M  V30 3352 C 306.625 2.24792 -3.64215 0
M  V30 3353 C 305.951 3.61712 -3.93787 0
M  V30 3354 C 307.251 1.67749 -4.94629 0
M  V30 3355 H 308.945 0.694128 -2.91243 0
M  V30 3356 H 306.491 0.332448 -1.4011 0
M  V30 3357 H 308.444 3.12939 -2.82219 0
M  V30 3358 H 307.168 2.83943 -1.61381 0
M  V30 3359 H 305.827 1.55807 -3.31843 0
M  V30 3360 H 305.475 4.01697 -3.02735 0
M  V30 3361 H 305.175 3.51368 -4.70971 0
M  V30 3362 H 306.699 4.34587 -4.28913 0
M  V30 3363 H 308.113 2.29032 -5.25564 0
M  V30 3364 H 306.51 1.68128 -5.76067 0
M  V30 3365 H 307.58 0.638059 -4.80684 0
M  V30 3366 N 308.923 1.53595 0.353017 0
M  V30 3367 C 309.853 1.83902 1.43883 0
M  V30 3368 C 310.834 0.693421 1.55324 0
M  V30 3369 O 312.019 0.944452 1.69687 0
M  V30 3370 C 309.149 2.04016 2.8106 0
M  V30 3371 C 308.103 3.19814 2.84434 0
M  V30 3372 C 307.429 3.25244 4.24406 0
M  V30 3373 C 308.729 4.58133 2.50822 0
M  V30 3374 H 310.423 2.74835 1.1877 0
M  V30 3375 H 307.969 1.32242 0.569917 0
M  V30 3376 H 309.922 2.238 3.57059 0
M  V30 3377 H 308.646 1.09804 3.07588 0
M  V30 3378 H 307.305 2.9987 2.10887 0
M  V30 3379 H 306.953 2.28646 4.48029 0
M  V30 3380 H 306.653 4.03054 4.27576 0
M  V30 3381 H 308.177 3.47228 5.0226 0
M  V30 3382 H 309.591 4.77995 3.16534 0
M  V30 3383 H 307.988 5.38276 2.6529 0
M  V30 3384 H 309.058 4.62387 1.46034 0
M  V30 3385 N 310.401 -0.613514 1.45168 0
M  V30 3386 C 311.649 -1.36997 1.48581 0
M  V30 3387 C 311.97 -1.94589 0.126545 0
M  V30 3388 O 311.24 -1.76816 -0.843372 0
M  V30 3389 H 309.82 -0.508558 0.547154 0
M  V30 3390 H 312.482 -0.720853 1.81079 0
M  V30 3391 H 311.578 -2.1924 2.22127 0
M  V30 3392 N 311.879 -1.3236 -0.855495 0
M  V30 3393 C 313.29 -1.2056 -1.42556 0
M  V30 3394 C 313.641 0.182209 -1.95352 0
M  V30 3395 O 312.766 1.08088 -1.87472 0
M  V30 3396 C 313.361 -2.1826 -2.59129 0
M  V30 3397 C 311.92 -2.10351 -3.12137 0
M  V30 3398 C 311.067 -2.06674 -1.84882 0
M  V30 3399 H 314.018 -1.442 -0.662727 0
M  V30 3400 H 314.039 -1.78064 -3.36264 0
M  V30 3401 H 313.551 -3.19257 -2.20673 0
M  V30 3402 H 311.652 -1.12599 -3.55179 0
M  V30 3403 H 311.765 -3.00135 -3.73438 0
M  V30 3404 H 310.129 -1.51901 -2.04446 0
M  V30 3405 H 310.912 -3.09451 -1.48643 0
M  V30 3406 N 313.357 1.07166 -1.15556 0
M  V30 3407 C 314.267 2.17947 -0.868116 0
M  V30 3408 C 315.283 1.73297 0.156297 0
M  V30 3409 O 316.459 2.01392 -0.0182327 0
M  V30 3410 C 313.524 3.44789 -0.36355 0
M  V30 3411 C 312.585 4.03996 -1.45209 0
M  V30 3412 C 311.818 5.24783 -0.971508 0
M  V30 3413 O 312.041 5.70109 0.182194 0
M  V30 3414 O 310.975 5.75715 -1.75603 0
M  V30 3415 H 314.801 2.4503 -1.79427 0
M  V30 3416 H 312.386 1.16539 -0.934824 0
M  V30 3417 H 314.268 4.21307 -0.0887113 0
M  V30 3418 H 312.943 3.19253 0.534708 0
M  V30 3419 H 311.85 3.29009 -1.78056 0
M  V30 3420 H 313.183 4.33808 -2.32533 0
M  V30 3421 N 314.835 0.952656 1.25548 0
M  V30 3422 C 316.083 0.605176 1.92826 0
M  V30 3423 C 316.404 -0.860261 1.74999 0
M  V30 3424 O 315.674 -1.6125 1.11244 0
M  V30 3425 H 314.254 0.220832 0.713612 0
M  V30 3426 H 316.916 1.21047 1.52754 0
M  V30 3427 H 316.012 0.832798 3.00784 0
M  V30 3428 N 316.313 -1.40141 0.720998 0
M  V30 3429 C 317.541 -2.05096 0.272656 0
M  V30 3430 C 317.956 -1.54334 -1.0875 0
M  V30 3431 O 317.313 -0.702211 -1.6845 0
M  V30 3432 C 317.364 -3.60636 0.249835 0
M  V30 3433 O 317.085 -4.09526 1.55629 0
M  V30 3434 C 318.586 -4.42772 -0.216396 0
M  V30 3435 H 315.806 -0.659897 0.121558 0
M  V30 3436 H 318.35 -1.79449 0.980723 0
M  V30 3437 H 316.505 -3.85232 -0.409237 0
M  V30 3438 H 316.919 -5.03758 1.4604 0
M  V30 3439 H 318.393 -5.51702 -0.181212 0
M  V30 3440 H 318.87 -4.20756 -1.25941 0
M  V30 3441 H 319.476 -4.23294 0.412596 0
M  V30 3442 N 317.792 -0.46758 -1.50504 0
M  V30 3443 C 319.203 -0.0116166 -1.86696 0
M  V30 3444 C 319.554 1.39202 -1.38265 0
M  V30 3445 O 318.679 2.0313 -0.746132 0
M  V30 3446 C 319.274 -0.0143044 -3.38797 0
M  V30 3447 C 317.833 0.386175 -3.74414 0
M  V30 3448 C 316.98 -0.401287 -2.74381 0
M  V30 3449 H 319.931 -0.682022 -1.43297 0
M  V30 3450 H 319.952 0.788641 -3.72237 0
M  V30 3451 H 319.464 -1.03602 -3.74016 0
M  V30 3452 H 317.565 1.41237 -3.44794 0
M  V30 3453 H 317.678 0.0899596 -4.79016 0
M  V30 3454 H 316.042 0.144536 -2.5429 0
M  V30 3455 H 316.825 -1.42244 -3.12444 0
M  V30 3456 N 319.27 1.56325 -0.20005 0
M  V30 3457 C 320.516 1.98012 0.438059 0
M  V30 3458 C 320.849 1.08702 1.60927 0
M  V30 3459 O 320.124 0.140064 1.93995 0
M  V30 3460 C 320.407 3.48841 0.893419 0
M  V30 3461 C 320.26 4.48928 -0.279947 0
M  V30 3462 C 321.579 4.03498 1.75719 0
M  V30 3463 H 318.698 0.719918 0.157757 0
M  V30 3464 H 321.34 1.87743 -0.291968 0
M  V30 3465 H 319.49 3.57723 1.51547 0
M  V30 3466 H 321.162 4.52079 -0.91772 0
M  V30 3467 H 319.405 4.23694 -0.930919 0
M  V30 3468 H 320.076 5.5194 0.0812601 0
M  V30 3469 H 322.552 3.97427 1.23253 0
M  V30 3470 H 321.428 5.09393 2.04476 0
M  V30 3471 H 321.689 3.4906 2.71311 0
M  V30 3472 N 320.748 -0.0735177 1.57428 0
M  V30 3473 C 321.988 -0.778363 1.89 0
M  V30 3474 C 322.352 -1.7483 0.793634 0
M  V30 3475 O 323.553 -2.49811 0.992367 0
M  V30 3476 C 321.824 -1.46929 3.25802 0
M  V30 3477 S 323.383 -2.20943 3.79117 0
M  V30 3478 H 320.201 -0.258874 0.662197 0
M  V30 3479 H 322.803 -0.0345338 1.95469 0
M  V30 3480 H 321.507 -0.749532 4.03497 0
M  V30 3481 H 321.038 -2.25258 3.22525 0
M  V30 3482 H 323.053 -3.47435 3.54265 0
M  V30 3483 N 322.226 -1.5378 -0.344866 0
M  V30 3484 C 323.472 -1.72158 -1.0832 0
M  V30 3485 C 323.827 -0.478218 -1.86362 0
M  V30 3486 O 323.12 0.529152 -1.84148 0
M  V30 3487 C 323.314 -2.92407 -2.05506 0
M  V30 3488 C 323.143 -4.28318 -1.37017 0
M  V30 3489 C 321.913 -4.92832 -1.11558 0
M  V30 3490 C 324.111 -5.08086 -0.797071 0
M  V30 3491 N 322.093 -6.12619 -0.396358 0
M  V30 3492 C 323.464 -6.1965 -0.208336 0
M  V30 3493 C 325.519 -4.92986 -0.697787 0
M  V30 3494 C 324.222 -7.17763 0.470023 0
M  V30 3495 C 326.248 -5.91391 -0.033171 0
M  V30 3496 C 325.61 -7.02292 0.544599 0
M  V30 3497 H 321.709 -0.683017 -0.380805 0
M  V30 3498 H 324.293 -1.91211 -0.366961 0
M  V30 3499 H 322.464 -2.74857 -2.74423 0
M  V30 3500 H 324.196 -2.9951 -2.72169 0
M  V30 3501 H 320.951 -4.52362 -1.40234 0
M  V30 3502 H 321.375 -6.7698 -0.0515119 0
M  V30 3503 H 326.017 -4.07414 -1.13022 0
M  V30 3504 H 323.735 -8.0291 0.914351 0
M  V30 3505 H 327.321 -5.81784 0.0430009 0
M  V30 3506 H 326.201 -7.77129 1.05073 0
M  V30 3507 N 323.704 0.605807 -1.45491 0
M  V30 3508 C 324.981 1.36522 -1.40075 0
M  V30 3509 C 325.361 2.10976 -0.0722744 0
M  V30 3510 O 324.709 2.08007 0.945808 0
M  V30 3511 C 324.919 2.31056 -2.61561 0
M  V30 3512 C 326.267 2.93608 -3.06724 0
M  V30 3513 O 327.291 2.41376 -2.61946 0
M  V30 3514 O 326.15 3.88421 -3.84437 0
M  V30 3515 H 323.244 0.612248 -0.555951 0
M  V30 3516 H 325.79 0.628747 -1.57623 0
M  V30 3517 H 324.562 1.75311 -3.49831 0
M  V30 3518 H 324.185 3.12081 -2.46356 0
M  V30 3519 N 325.182 1.32811 0.848464 0
M  V30 3520 C 326.112 1.24882 1.97299 0
M  V30 3521 C 327.093 0.131357 1.69592 0
M  V30 3522 O 328.278 0.319553 1.91553 0
M  V30 3523 C 325.408 0.97746 3.33261 0
M  V30 3524 C 324.362 2.05682 3.75338 0
M  V30 3525 C 323.688 1.63777 5.09 0
M  V30 3526 C 324.988 3.47254 3.90144 0
M  V30 3527 H 326.682 2.18966 2.04191 0
M  V30 3528 H 324.228 1.05413 0.981029 0
M  V30 3529 H 326.181 0.908513 4.1149 0
M  V30 3530 H 324.905 0.000980011 3.266 0
M  V30 3531 H 323.564 2.11603 2.99366 0
M  V30 3532 H 323.212 0.648569 4.98801 0
M  V30 3533 H 322.912 2.36 5.38124 0
M  V30 3534 H 324.436 1.5833 5.89715 0
M  V30 3535 H 325.85 3.43888 4.58709 0
M  V30 3536 H 324.247 4.1788 4.30693 0
M  V30 3537 H 325.317 3.86462 2.92874 0
M  V30 3538 N 326.66 -1.06551 1.16123 0
M  V30 3539 C 327.593 -2.13382 0.80892 0
M  V30 3540 C 328.571 -1.61128 -0.21827 0
M  V30 3541 O 329.755 -1.88219 -0.102952 0
M  V30 3542 C 326.882 -3.38083 0.204303 0
M  V30 3543 C 325.928 -4.09133 1.20469 0
M  V30 3544 S 326.761 -4.5948 2.75024 0
M  V30 3545 C 327.917 -5.87446 2.16005 0
M  V30 3546 H 328.15 -2.42937 1.71373 0
M  V30 3547 H 325.683 -1.18947 0.984428 0
M  V30 3548 H 327.641 -4.10268 -0.138081 0
M  V30 3549 H 326.302 -3.0669 -0.678234 0
M  V30 3550 H 325.495 -4.98685 0.730019 0
M  V30 3551 H 325.097 -3.4295 1.49202 0
M  V30 3552 H 327.389 -6.60065 1.5271 0
M  V30 3553 H 328.332 -6.39639 3.03756 0
M  V30 3554 H 328.74 -5.41354 1.59989 0
M  V30 3555 N 328.138 -0.959301 -1.25041 0
M  V30 3556 C 329.415 -0.533805 -1.88175 0
M  V30 3557 C 329.795 0.988994 -1.865 0
M  V30 3558 O 329.143 1.85677 -1.33177 0
M  V30 3559 C 329.353 -1.11575 -3.30684 0
M  V30 3560 C 330.701 -1.19548 -4.07423 0
M  V30 3561 O 331.725 -1.06765 -3.39823 0
M  V30 3562 O 330.584 -1.39656 -5.28354 0
M  V30 3563 H 327.678 -0.176772 -0.807887 0
M  V30 3564 H 330.224 -1.05303 -1.33076 0
M  V30 3565 H 328.996 -2.15884 -3.26358 0
M  V30 3566 H 328.619 -0.580059 -3.93346 0
M  V30 3567 N 329.616 1.39756 -0.72842 0
M  V30 3568 C 330.548 2.29157 -0.0446202 0
M  V30 3569 C 331.561 1.46484 0.710367 0
M  V30 3570 O 332.75 1.69632 0.55562 0
M  V30 3571 C 329.85 3.24987 0.961071 0
M  V30 3572 C 329.023 4.36572 0.268967 0
M  V30 3573 C 328.082 5.12756 1.18184 0
M  V30 3574 O 327.108 5.6534 0.661794 0
M  V30 3575 N 328.31 5.23331 2.51206 0
M  V30 3576 H 331.075 2.88482 -0.812295 0
M  V30 3577 H 328.636 1.51265 -0.577098 0
M  V30 3578 H 330.628 3.72827 1.57423 0
M  V30 3579 H 329.198 2.66739 1.63 0
M  V30 3580 H 328.418 3.90694 -0.524574 0
M  V30 3581 H 329.706 5.08363 -0.210934 0
M  V30 3582 H 329.104 4.82116 2.9594 0
M  V30 3583 H 327.661 5.74634 3.07634 0
M  V30 3584 N 331.094 0.475555 1.50254 0
M  V30 3585 C 332.322 -0.0754493 2.06762 0
M  V30 3586 C 332.737 -1.33111 1.33891 0
M  V30 3587 O 332.094 -1.77846 0.40952 0
M  V30 3588 C 332.145 -0.359008 3.59713 0
M  V30 3589 O 331.866 0.846851 4.29837 0
M  V30 3590 C 333.367 -0.956484 4.32858 0
M  V30 3591 H 330.587 0.00907525 0.670939 0
M  V30 3592 H 333.131 0.665618 1.93364 0
M  V30 3593 H 331.286 -1.05001 3.72899 0
M  V30 3594 H 331.7 0.594162 5.21124 0
M  V30 3595 H 333.174 -1.10463 5.40834 0
M  V30 3596 H 333.651 -1.94775 3.93649 0
M  V30 3597 H 334.257 -0.303723 4.24214 0
M  V30 3598 N 332.573 -1.56217 0.208337 0
M  V30 3599 C 333.821 -1.97558 -0.426076 0
M  V30 3600 C 334.142 -1.09683 -1.61229 0
M  V30 3601 O 333.412 -0.170956 -1.95153 0
M  V30 3602 H 331.992 -0.729575 -0.160405 0
M  V30 3603 H 334.654 -1.92606 0.298155 0
M  V30 3604 H 333.75 -3.02672 -0.761312 0
M  V30 3605 N 334.051 0.0651679 -1.57465 0
M  V30 3606 C 334.961 1.09448 -2.07505 0
M  V30 3607 C 335.977 1.41974 -1.00595 0
M  V30 3608 O 337.153 1.52018 -1.32107 0
M  V30 3609 C 334.218 2.38689 -2.51453 0
M  V30 3610 C 333.279 2.13073 -3.72691 0
M  V30 3611 C 332.512 3.36152 -4.14533 0
M  V30 3612 O 332.735 4.45517 -3.56189 0
M  V30 3613 O 331.669 3.23974 -5.07272 0
M  V30 3614 H 335.495 0.69935 -2.95538 0
M  V30 3615 H 333.08 0.279752 -1.46757 0
M  V30 3616 H 334.962 3.14736 -2.80212 0
M  V30 3617 H 333.637 2.77568 -1.66546 0
M  V30 3618 H 332.544 1.34709 -3.49005 0
M  V30 3619 H 333.877 1.79071 -4.5847 0
M  V30 3620 N 335.529 1.53961 0.336706 0
M  V30 3621 C 336.462 1.77255 1.43722 0
M  V30 3622 C 337.44 0.62193 1.50236 0
M  V30 3623 O 338.624 0.857874 1.67847 0
M  V30 3624 C 335.751 1.87733 2.81912 0
M  V30 3625 C 334.797 3.09933 2.92991 0
M  V30 3626 S 335.63 4.68836 2.58753 0
M  V30 3627 C 336.786 4.82202 3.99039 0
M  V30 3628 H 337.019 2.70322 1.23748 0
M  V30 3629 H 334.552 1.44917 0.532777 0
M  V30 3630 H 336.51 1.94455 3.61521 0
M  V30 3631 H 335.171 0.956666 2.99177 0
M  V30 3632 H 334.364 3.1396 3.94265 0
M  V30 3633 H 333.966 3.01472 2.21338 0
M  V30 3634 H 336.258 4.64032 4.9364 0
M  V30 3635 H 337.201 5.84298 4.00002 0
M  V30 3636 H 337.609 4.10604 3.87382 0
M  V30 3637 N 337.007 -0.598083 1.45811 0
M  V30 3638 C 338.423 -0.919847 1.30426 0
M  V30 3639 C 338.623 -1.99759 0.264303 0
M  V30 3640 O 337.679 -2.50221 -0.338472 0
M  V30 3641 C 338.992 -1.35176 2.68603 0
M  V30 3642 C 340.54 -1.46546 2.76574 0
M  V30 3643 C 341.015 -1.9311 4.15298 0
M  V30 3644 N 342.506 -2.00328 4.1764 0
M  V30 3645 C 343.241 -2.37599 5.21856 0
M  V30 3646 N 342.737 -2.73771 6.36413 0
M  V30 3647 N 344.53 -2.38021 5.09218 0
M  V30 3648 H 336.681 0.114111 2.12093 0
M  V30 3649 H 338.944 -0.0116121 0.947929 0
M  V30 3650 H 338.65 -0.633969 3.45939 0
M  V30 3651 H 338.524 -2.3164 2.97696 0
M  V30 3652 H 340.911 -2.17415 1.99537 0
M  V30 3653 H 340.992 -0.483727 2.51185 0
M  V30 3654 H 340.636 -1.22824 4.92825 0
M  V30 3655 H 340.566 -2.92213 4.38086 0
M  V30 3656 H 343.057 -1.74925 3.34977 0
M  V30 3657 H 343.37 -3.0112 7.11721 0
M  V30 3658 H 341.715 -2.71445 6.39799 0
M  V30 3659 H 344.906 -2.09174 4.18765 0
M  V30 3660 H 345.079 -2.66741 5.90554 0
M  V30 3661 N 338.485 -1.33259 -0.841409 0
M  V30 3662 C 339.418 -1.1764 -1.95541 0
M  V30 3663 C 340.396 -0.072501 -1.62438 0
M  V30 3664 O 341.58 -0.23427 -1.87039 0
M  V30 3665 C 338.707 -0.803794 -3.29024 0
M  V30 3666 C 337.753 -1.91482 -3.81099 0
M  V30 3667 S 338.586 -3.52538 -4.03085 0
M  V30 3668 C 339.742 -3.17279 -5.39523 0
M  V30 3669 H 339.975 -2.11941 -2.08491 0
M  V30 3670 H 337.508 -1.18072 -0.9949 0
M  V30 3671 H 339.466 -0.595592 -4.06156 0
M  V30 3672 H 338.127 0.120574 -3.13868 0
M  V30 3673 H 337.32 -1.60742 -4.7768 0
M  V30 3674 H 336.922 -2.07956 -3.10854 0
M  V30 3675 H 339.214 -2.67946 -6.22263 0
M  V30 3676 H 340.157 -4.1293 -5.75234 0
M  V30 3677 H 340.565 -2.53943 -5.04156 0
M  V30 3678 N 339.963 1.05934 -1.16686 0
M  V30 3679 C 340.926 2.11669 -0.879144 0
M  V30 3680 C 341.926 1.60294 0.127445 0
M  V30 3681 O 343.116 1.7389 -0.103865 0
M  V30 3682 C 340.248 3.39438 -0.315425 0
M  V30 3683 H 341.441 2.38626 -1.81653 0
M  V30 3684 H 338.994 1.22058 -0.976299 0
M  V30 3685 H 339.729 3.18132 0.629468 0
M  V30 3686 H 339.514 3.78034 -1.04079 0
M  V30 3687 H 341.004 4.17391 -0.132189 0
M  V30 3688 N 341.441 0.965919 1.2453 0
M  V30 3689 C 342.689 0.625593 1.92174 0
M  V30 3690 C 343.01 -0.841652 1.75901 0
M  V30 3691 O 342.28 -1.60061 1.12948 0
M  V30 3692 H 340.86 0.228388 0.71123 0
M  V30 3693 H 343.522 1.2266 1.51461 0
M  V30 3694 H 342.618 0.864653 2.99884 0
M  V30 3695 N 342.919 -1.39368 0.735821 0
M  V30 3696 C 344.147 -2.04795 0.294393 0
M  V30 3697 C 344.562 -1.55478 -1.07107 0
M  V30 3698 O 343.919 -0.720038 -1.67695 0
M  V30 3699 C 343.97 -3.6035 0.288071 0
M  V30 3700 O 343.691 -4.07852 1.59963 0
M  V30 3701 C 345.192 -4.42976 -0.169422 0
M  V30 3702 H 342.412 -0.658571 0.128551 0
M  V30 3703 H 344.956 -1.78399 0.999701 0
M  V30 3704 H 343.111 -3.85645 -0.368355 0
M  V30 3705 H 343.525 -5.02181 1.51375 0
M  V30 3706 H 344.999 -5.51864 -0.122687 0
M  V30 3707 H 345.476 -4.22068 -1.21472 0
M  V30 3708 H 346.082 -4.22832 0.457469 0
M  V30 3709 N 344.397 -0.483516 -1.5 0
M  V30 3710 C 345.327 0.293829 -2.31644 0
M  V30 3711 C 346.308 0.978864 -1.39112 0
M  V30 3712 O 347.493 0.973644 -1.68029 0
M  V30 3713 C 344.623 1.36897 -3.19181 0
M  V30 3714 C 343.577 0.804833 -4.20365 0
M  V30 3715 C 342.903 1.9792 -4.96721 0
M  V30 3716 C 344.203 -0.192313 -5.21946 0
M  V30 3717 H 345.897 -0.387616 -2.9688 0
M  V30 3718 H 343.443 -0.187856 -1.42769 0
M  V30 3719 H 345.396 1.92037 -3.751 0
M  V30 3720 H 344.12 2.07936 -2.51853 0
M  V30 3721 H 342.779 0.275319 -3.65565 0
M  V30 3722 H 342.427 2.67686 -4.25856 0
M  V30 3723 H 342.127 1.60789 -5.65173 0
M  V30 3724 H 343.651 2.53526 -5.55479 0
M  V30 3725 H 345.065 0.270333 -5.72662 0
M  V30 3726 H 343.462 -0.478543 -5.98189 0
M  V30 3727 H 344.532 -1.11409 -4.71928 0
M  V30 3728 N 345.875 1.56104 -0.216619 0
M  V30 3729 C 347.286 1.844 0.292128 0
M  V30 3730 C 347.637 1.13788 1.59833 0
M  V30 3731 O 346.762 0.405888 2.12559 0
M  V30 3732 C 347.357 3.3452 0.53681 0
M  V30 3733 C 345.916 3.63151 0.989876 0
M  V30 3734 C 345.063 2.77255 0.0502302 0
M  V30 3735 H 348.014 1.52481 -0.439926 0
M  V30 3736 H 348.035 3.54459 1.38345 0
M  V30 3737 H 347.547 3.85885 -0.414031 0
M  V30 3738 H 345.648 3.17238 1.95425 0
M  V30 3739 H 345.761 4.71177 0.867698 0
M  V30 3740 H 344.125 2.48555 0.556117 0
M  V30 3741 H 344.908 3.31416 -0.89544 0
M  V30 3742 N 347.353 -0.0568162 1.57498 0
M  V30 3743 C 348.263 -1.08346 2.08083 0
M  V30 3744 C 349.279 -1.41439 1.01346 0
M  V30 3745 O 350.455 -1.51316 1.32912 0
M  V30 3746 C 347.52 -2.37352 2.52715 0
M  V30 3747 C 346.581 -2.11093 3.73816 0
M  V30 3748 C 345.814 -3.33949 4.1631 0
M  V30 3749 O 346.037 -4.43622 3.58547 0
M  V30 3750 O 344.971 -3.21279 5.08983 0
M  V30 3751 H 348.797 -0.683667 2.95905 0
M  V30 3752 H 346.382 -0.271965 1.46904 0
M  V30 3753 H 348.264 -3.13246 2.81877 0
M  V30 3754 H 346.939 -2.76681 1.68016 0
M  V30 3755 H 345.846 -1.32856 3.49714 0
M  V30 3756 H 347.179 -1.76637 4.59413 0
M  V30 3757 N 348.832 -1.54138 -0.328536 0
M  V30 3758 C 350.062 -1.75807 -1.08516 0
M  V30 3759 C 350.47 -0.50428 -1.82356 0
M  V30 3760 O 349.813 0.534451 -1.75754 0
M  V30 3761 C 349.875 -2.89423 -2.13248 0
M  V30 3762 C 349.539 -4.28504 -1.5885 0
M  V30 3763 C 350.536 -5.09536 -1.03289 0
M  V30 3764 C 348.221 -4.75034 -1.63243 0
M  V30 3765 C 350.215 -6.35206 -0.52845 0
M  V30 3766 C 347.902 -6.00672 -1.12411 0
M  V30 3767 C 348.9 -6.80592 -0.573062 0
M  V30 3768 O 348.588 -8.03867 -0.0723692 0
M  V30 3769 H 348.32 -0.590633 -0.328829 0
M  V30 3770 H 350.874 -2.01819 -0.381868 0
M  V30 3771 H 349.104 -2.5897 -2.87178 0
M  V30 3772 H 350.793 -2.98921 -2.74592 0
M  V30 3773 H 351.559 -4.74745 -0.99206 0
M  V30 3774 H 347.438 -4.12875 -2.05074 0
M  V30 3775 H 350.982 -6.97532 -0.0976774 0
M  V30 3776 H 346.879 -6.34955 -1.162 0
M  V30 3777 H 347.647 -8.18283 -0.188258 0
M  V30 3778 N 350.31 0.590341 -1.46126 0
M  V30 3779 C 351.726 0.912917 -1.30912 0
M  V30 3780 C 351.926 1.99616 -0.274893 0
M  V30 3781 O 350.982 2.50397 0.325197 0
M  V30 3782 C 352.295 1.3375 -2.69317 0
M  V30 3783 C 353.843 1.45077 -2.77348 0
M  V30 3784 C 354.318 1.90904 -4.16317 0
M  V30 3785 N 355.809 1.9811 -4.18696 0
M  V30 3786 C 356.544 2.34828 -5.23109 0
M  V30 3787 N 356.04 2.70393 -6.37856 0
M  V30 3788 N 357.833 2.35317 -5.10473 0
M  V30 3789 H 349.984 -0.125358 -2.1203 0
M  V30 3790 H 352.247 0.00658481 -0.947977 0
M  V30 3791 H 351.953 0.615614 -3.4627 0
M  V30 3792 H 351.827 2.30058 -2.9892 0
M  V30 3793 H 354.214 2.16353 -2.00687 0
M  V30 3794 H 354.295 0.4704 -2.51438 0
M  V30 3795 H 353.939 1.20209 -4.9347 0
M  V30 3796 H 353.869 2.89886 -4.39629 0
M  V30 3797 H 356.36 1.73146 -3.359 0
M  V30 3798 H 356.673 2.97341 -7.13308 0
M  V30 3799 H 355.018 2.68048 -6.41229 0
M  V30 3800 H 358.209 2.0695 -4.19868 0
M  V30 3801 H 358.382 2.63605 -5.9196 0
M  V30 3802 N 351.788 1.33704 0.83433 0
M  V30 3803 C 352.718 1.26967 1.95963 0
M  V30 3804 C 353.699 0.149337 1.69443 0
M  V30 3805 O 354.884 0.339852 1.91203 0
M  V30 3806 C 352.014 1.01275 3.32206 0
M  V30 3807 C 350.968 2.09652 3.73136 0
M  V30 3808 C 350.294 1.69166 5.07235 0
M  V30 3809 C 351.594 3.51372 3.86439 0
M  V30 3810 H 353.288 2.2112 2.01857 0
M  V30 3811 H 350.834 1.06447 0.969793 0
M  V30 3812 H 352.787 0.952106 4.10503 0
M  V30 3813 H 351.511 0.0356203 3.26581 0
M  V30 3814 H 350.17 2.14766 2.97104 0
M  V30 3815 H 349.818 0.701437 4.98085 0
M  V30 3816 H 349.518 2.41694 5.35591 0
M  V30 3817 H 351.042 1.64576 5.88003 0
M  V30 3818 H 352.456 3.48734 4.55036 0
M  V30 3819 H 350.853 4.22425 4.26236 0
M  V30 3820 H 351.923 3.89546 2.88759 0
M  V30 3821 N 353.266 -1.05314 1.17247 0
M  V30 3822 C 354.216 -2.11313 0.856196 0
M  V30 3823 C 355.2 -1.60013 -0.168694 0
M  V30 3824 O 356.392 -1.76968 0.0335624 0
M  V30 3825 C 353.521 -3.41301 0.369917 0
M  V30 3826 C 352.607 -3.99401 1.42616 0
M  V30 3827 N 352.998 -4.31481 2.63928 0
M  V30 3828 C 351.296 -4.27126 1.28373 0
M  V30 3829 C 351.997 -4.77799 3.31787 0
M  V30 3830 N 350.973 -4.77843 2.59166 0
M  V30 3831 H 354.775 -2.33976 1.77856 0
M  V30 3832 H 352.289 -1.2295 1.06099 0
M  V30 3833 H 354.286 -4.16713 0.124897 0
M  V30 3834 H 352.946 -3.20072 -0.546253 0
M  V30 3835 H 353.957 -4.21519 3.00902 0
M  V30 3836 H 350.634 -4.15289 0.429111 0
M  V30 3837 H 352.024 -5.11743 4.35395 0
M  V30 3838 N 354.744 -0.972509 -1.24016 0
M  V30 3839 C 355.992 -0.635776 -1.91839 0
M  V30 3840 C 356.313 0.832312 -1.76345 0
M  V30 3841 O 355.583 1.5946 -1.13795 0
M  V30 3842 H 354.163 -0.232157 -0.710009 0
M  V30 3843 H 356.825 -1.23462 -1.50809 0
M  V30 3844 H 355.921 -0.880545 -2.99421 0
M  V30 3845 N 356.222 1.38976 -0.743202 0
M  V30 3846 C 357.152 2.33171 -0.123873 0
M  V30 3847 C 358.133 1.54336 0.71516 0
M  V30 3848 O 359.318 1.82696 0.658467 0
M  V30 3849 C 356.448 3.38474 0.777978 0
M  V30 3850 C 355.402 4.27979 0.0424758 0
M  V30 3851 C 354.728 5.2405 1.06189 0
M  V30 3852 C 356.028 5.10155 -1.1198 0
M  V30 3853 H 357.722 2.85213 -0.910709 0
M  V30 3854 H 355.268 1.37133 -0.439388 0
M  V30 3855 H 357.221 4.03328 1.22084 0
M  V30 3856 H 355.945 2.84891 1.59702 0
M  V30 3857 H 354.604 3.64616 -0.380853 0
M  V30 3858 H 354.252 4.66758 1.87472 0
M  V30 3859 H 353.952 5.84785 0.574485 0
M  V30 3860 H 355.476 5.9178 1.50428 0
M  V30 3861 H 356.89 5.68307 -0.75499 0
M  V30 3862 H 355.287 5.80073 -1.53738 0
M  V30 3863 H 356.357 4.44504 -1.93764 0
M  V30 3864 N 357.7 0.491464 1.49741 0
M  V30 3865 C 358.946 -0.0565092 2.02721 0
M  V30 3866 C 359.279 -1.37522 1.37118 0
M  V30 3867 O 358.554 -1.87866 0.503645 0
M  V30 3868 C 358.837 -0.219051 3.59433 0
M  V30 3869 C 358.69 1.12211 4.35579 0
M  V30 3870 C 360.009 -0.964157 4.29409 0
M  V30 3871 H 357.128 -0.0190627 0.736753 0
M  V30 3872 H 359.77 0.641021 1.7886 0
M  V30 3873 H 357.92 -0.813165 3.79895 0
M  V30 3874 H 359.592 1.75437 4.26637 0
M  V30 3875 H 357.835 1.71377 3.98513 0
M  V30 3876 H 358.506 0.961794 5.43556 0
M  V30 3877 H 360.982 -0.460378 4.13545 0
M  V30 3878 H 359.858 -1.04671 5.38828 0
M  V30 3879 H 360.119 -2.00563 3.93988 0
M  V30 3880 N 359.178 -1.55987 0.224894 0
M  V30 3881 C 360.406 -2.02784 -0.410665 0
M  V30 3882 C 360.821 -1.10464 -1.53112 0
M  V30 3883 O 360.178 -0.114871 -1.82138 0
M  V30 3884 C 360.229 -3.49087 -0.939165 0
M  V30 3885 O 359.95 -4.37887 0.136614 0
M  V30 3886 C 361.451 -4.11543 -1.64763 0
M  V30 3887 H 358.671 -0.663484 -0.100148 0
M  V30 3888 H 361.215 -2.01614 0.342326 0
M  V30 3889 H 359.37 -3.50861 -1.64242 0
M  V30 3890 H 359.784 -5.23849 -0.261155 0
M  V30 3891 H 361.258 -5.15673 -1.96939 0
M  V30 3892 H 361.735 -3.56736 -2.56195 0
M  V30 3893 H 362.341 -4.13629 -0.989503 0
M  V30 3894 N 360.656 0.0484629 -1.57525 0
M  V30 3895 C 361.886 0.754326 -1.92337 0
M  V30 3896 C 362.294 1.70443 -0.82132 0
M  V30 3897 O 361.637 1.82466 0.21254 0
M  V30 3898 C 361.699 1.58231 -3.22805 0
M  V30 3899 C 361.363 0.799074 -4.4996 0
M  V30 3900 C 362.36 0.1079 -5.19788 0
M  V30 3901 C 360.045 0.759345 -4.96527 0
M  V30 3902 C 362.039 -0.612516 -6.3445 0
M  V30 3903 C 359.726 0.0351713 -6.1109 0
M  V30 3904 C 360.724 -0.649537 -6.79904 0
M  V30 3905 O 360.412 -1.36199 -7.92278 0
M  V30 3906 H 360.144 0.218257 -0.639797 0
M  V30 3907 H 362.698 0.0159295 -2.05394 0
M  V30 3908 H 360.928 2.36406 -3.06021 0
M  V30 3909 H 362.617 2.16898 -3.43089 0
M  V30 3910 H 363.383 0.129748 -4.84826 0
M  V30 3911 H 359.262 1.28177 -4.42822 0
M  V30 3912 H 362.806 -1.14751 -6.88097 0
M  V30 3913 H 358.703 0.0113314 -6.45499 0
M  V30 3914 H 359.471 -1.27366 -8.0853 0
M  V30 3915 N 362.134 1.5431 0.320358 0
M  V30 3916 C 363.38 1.72924 1.05949 0
M  V30 3917 C 363.713 0.503185 1.87568 0
M  V30 3918 O 362.988 -0.499839 1.87968 0
M  V30 3919 C 363.271 3.00676 1.98156 0
M  V30 3920 C 363.124 4.3354 1.19845 0
M  V30 3921 C 364.443 3.24198 2.9763 0
M  V30 3922 H 361.562 0.629195 0.383774 0
M  V30 3923 H 364.204 1.87008 0.335854 0
M  V30 3924 H 362.354 2.888 2.59859 0
M  V30 3925 H 364.026 4.57305 0.605773 0
M  V30 3926 H 362.269 4.309 0.500784 0
M  V30 3927 H 362.94 5.19156 1.87567 0
M  V30 3928 H 365.416 3.35557 2.4605 0
M  V30 3929 H 364.292 4.14938 3.59329 0
M  V30 3930 H 364.553 2.41577 3.7026 0
M  V30 3931 N 363.613 -0.582584 1.46437 0
M  V30 3932 C 364.862 -1.337 1.5102 0
M  V30 3933 C 365.175 -1.94891 0.166359 0
M  V30 3934 O 366.381 -2.71351 0.0899954 0
M  V30 3935 C 364.837 -2.42315 2.66104 0
M  V30 3936 C 364.445 -1.87427 4.06909 0
M  V30 3937 C 366.189 -3.19099 2.79958 0
M  V30 3938 C 364.096 -2.93672 5.13333 0
M  V30 3939 H 363.026 -0.502619 0.562041 0
M  V30 3940 H 365.677 -0.621701 1.72647 0
M  V30 3941 H 364.059 -3.16645 2.37807 0
M  V30 3942 H 365.233 -1.19639 4.44998 0
M  V30 3943 H 363.548 -1.2331 3.97723 0
M  V30 3944 H 366.145 -3.9839 3.56636 0
M  V30 3945 H 366.488 -3.71695 1.87479 0
M  V30 3946 H 367.021 -2.51875 3.07902 0
M  V30 3947 H 363.76 -2.45962 6.07604 0
M  V30 3948 H 363.28 -3.59948 4.79789 0
M  V30 3949 H 364.959 -3.5762 5.39182 0
M  V30 3950 N 365.091 -1.34144 -0.827227 0
M  V30 3951 C 366.321 -1.29138 -1.61267 0
M  V30 3952 C 366.729 0.137597 -1.88699 0
M  V30 3953 O 366.072 1.09379 -1.47587 0
M  V30 3954 C 366.134 -2.0097 -2.9808 0
M  V30 3955 C 365.798 -3.50242 -2.93563 0
M  V30 3956 C 366.795 -4.4523 -2.68452 0
M  V30 3957 C 364.48 -3.92592 -3.13331 0
M  V30 3958 C 366.474 -5.80542 -2.63154 0
M  V30 3959 C 364.161 -5.28005 -3.07658 0
M  V30 3960 C 365.159 -6.21792 -2.82602 0
M  V30 3961 O 364.847 -7.54723 -2.76853 0
M  V30 3962 H 364.579 -0.445851 -0.508127 0
M  V30 3963 H 367.133 -1.77263 -1.03763 0
M  V30 3964 H 365.363 -1.47451 -3.57484 0
M  V30 3965 H 367.052 -1.89309 -3.5905 0
M  V30 3966 H 367.818 -4.13832 -2.52919 0
M  V30 3967 H 363.697 -3.19994 -3.31851 0
M  V30 3968 H 367.241 -6.53717 -2.43516 0
M  V30 3969 H 363.138 -5.59023 -3.22743 0
M  V30 3970 H 363.906 -7.64409 -2.92611 0
M  V30 3971 N 366.569 1.04691 -1.17803 0
M  V30 3972 C 367.794 1.81984 -0.994813 0
M  V30 3973 C 368.219 1.82586 0.452112 0
M  V30 3974 O 367.577 1.23854 1.324 0
M  V30 3975 C 367.625 3.2575 -1.54659 0
M  V30 3976 O 366.729 4.05267 -0.763728 0
M  V30 3977 H 366.07 0.562483 -0.352857 0
M  V30 3978 H 368.6 1.3189 -1.56417 0
M  V30 3979 H 368.61 3.76541 -1.57102 0
M  V30 3980 H 367.285 3.24627 -2.59981 0
M  V30 3981 H 365.862 3.63972 -0.811108 0
M  V30 3982 N 368.047 0.979072 1.23499 0
M  V30 3983 C 368.997 0.489378 2.22686 0
M  V30 3984 C 369.981 -0.434871 1.54912 0
M  V30 3985 O 371.173 -0.263941 1.75021 0
M  V30 3986 C 368.302 -0.208178 3.42668 0
M  V30 3987 C 367.388 0.735563 4.17672 0
M  V30 3988 N 367.779 1.87763 4.69658 0
M  V30 3989 C 366.077 0.548625 4.42613 0
M  V30 3990 C 366.778 2.46886 5.26709 0
M  V30 3991 N 365.754 1.75287 5.14563 0
M  V30 3992 H 369.556 1.36062 2.60508 0
M  V30 3993 H 367.07 0.83958 1.39014 0
M  V30 3994 H 369.067 -0.576295 4.12898 0
M  V30 3995 H 367.727 -1.07572 3.06363 0
M  V30 3996 H 368.738 2.25885 4.66043 0
M  V30 3997 H 365.415 -0.274006 4.166 0
M  V30 3998 H 366.805 3.43326 5.77561 0
M  V30 3999 N 369.525 -1.3858 0.750561 0
M  V30 4000 C 370.488 -2.28836 0.129152 0
M  V30 4001 C 371.488 -1.47045 -0.650714 0
M  V30 4002 O 372.678 -1.6753 -0.477428 0
M  V30 4003 C 369.81 -3.30751 -0.825622 0
M  V30 4004 H 371.003 -2.85294 0.924516 0
M  V30 4005 H 368.556 -1.47489 0.517376 0
M  V30 4006 H 369.291 -2.79378 -1.64677 0
M  V30 4007 H 369.076 -3.91177 -0.268852 0
M  V30 4008 H 370.566 -3.98249 -1.2565 0
M  V30 4009 N 371.003 -0.499398 -1.49478 0
M  V30 4010 C 371.935 0.316575 -2.27003 0
M  V30 4011 C 372.948 0.932047 -1.33479 0
M  V30 4012 O 374.137 0.815658 -1.58774 0
M  V30 4013 C 371.237 1.46055 -3.05812 0
M  V30 4014 C 370.41 0.952679 -4.26899 0
M  V30 4015 C 369.469 1.97407 -4.87767 0
M  V30 4016 O 368.495 1.54326 -5.4788 0
M  V30 4017 N 369.697 3.30436 -4.77276 0
M  V30 4018 H 372.462 -0.348168 -2.97671 0
M  V30 4019 H 370.023 -0.33185 -1.58463 0
M  V30 4020 H 372.015 2.14135 -3.43407 0
M  V30 4021 H 370.585 2.02948 -2.37762 0
M  V30 4022 H 369.805 0.0968248 -3.94081 0
M  V30 4023 H 371.093 0.59174 -5.05347 0
M  V30 4024 H 370.491 3.68126 -4.29534 0
M  V30 4025 H 369.048 3.94235 -5.19059 0
M  V30 4026 N 372.481 1.55866 -0.233164 0
M  V30 4027 C 373.428 2.20796 0.67215 0
M  V30 4028 C 374.398 1.16731 1.18166 0
M  V30 4029 O 375.583 1.45129 1.23864 0
M  V30 4030 C 372.723 2.90072 1.86955 0
M  V30 4031 C 371.836 4.08759 1.39786 0
M  V30 4032 C 370.971 4.65787 2.55374 0
M  V30 4033 C 370.01 5.76752 2.04998 0
M  V30 4034 N 369.147 6.28021 3.13901 0
M  V30 4035 H 373.987 2.9779 0.111749 0
M  V30 4036 H 371.524 1.47036 0.0434007 0
M  V30 4037 H 373.482 3.28428 2.57276 0
M  V30 4038 H 372.112 2.15575 2.40265 0
M  V30 4039 H 371.164 3.7581 0.589173 0
M  V30 4040 H 372.476 4.88906 0.98856 0
M  V30 4041 H 371.63 5.06646 3.33758 0
M  V30 4042 H 370.369 3.84828 2.99598 0
M  V30 4043 H 369.374 5.35383 1.25079 0
M  V30 4044 H 370.599 6.59553 1.61759 0
M  V30 4045 H 368.545 5.49971 3.57586 0
M  V30 4046 H 368.462 7.03323 2.7726 0
M  V30 4047 H 369.73 6.73538 3.92386 0
M  V30 4048 N 373.959 -0.0401083 1.57549 0
M  V30 4049 C 374.889 -1.04384 2.08869 0
M  V30 4050 C 375.87 -1.38407 0.988817 0
M  V30 4051 O 377.055 -1.47483 1.26342 0
M  V30 4052 C 374.185 -2.34808 2.55895 0
M  V30 4053 C 373.139 -2.15057 3.70047 0
M  V30 4054 C 372.465 -3.51145 4.03239 0
M  V30 4055 C 373.765 -1.54576 4.98902 0
M  V30 4056 H 375.459 -0.616666 2.92981 0
M  V30 4057 H 373.005 -0.295184 1.40942 0
M  V30 4058 H 374.958 -3.05346 2.90417 0
M  V30 4059 H 373.682 -2.79565 1.68853 0
M  V30 4060 H 372.341 -1.46954 3.35857 0
M  V30 4061 H 371.989 -3.93529 3.13279 0
M  V30 4062 H 371.689 -3.38758 4.80122 0
M  V30 4063 H 373.213 -4.23062 4.40285 0
M  V30 4064 H 374.627 -2.15017 5.31451 0
M  V30 4065 H 373.024 -1.52796 5.80322 0
M  V30 4066 H 374.094 -0.51039 4.82206 0
M  V30 4067 N 375.437 -1.54477 -0.31217 0
M  V30 4068 C 376.685 -1.72884 -1.04668 0
M  V30 4069 C 377.006 -0.511477 -1.88173 0
M  V30 4070 O 376.276 0.474407 -1.90069 0
M  V30 4071 H 374.856 -0.637461 -0.389425 0
M  V30 4072 H 377.518 -1.91807 -0.345852 0
M  V30 4073 H 376.614 -2.61334 -1.70619 0
M  V30 4074 N 376.915 0.57481 -1.46744 0
M  V30 4075 C 377.862 1.68329 -1.57905 0
M  V30 4076 C 378.832 1.60625 -0.422927 0
M  V30 4077 O 380.017 1.79721 -0.640711 0
M  V30 4078 C 377.157 3.06665 -1.58274 0
M  V30 4079 C 376.27 3.24935 -2.84678 0
M  V30 4080 C 375.405 4.53566 -2.76499 0
M  V30 4081 C 374.444 4.65207 -3.97806 0
M  V30 4082 N 373.581 5.85172 -3.87967 0
M  V30 4083 H 378.421 1.58127 -2.52587 0
M  V30 4084 H 375.958 0.770552 -1.25303 0
M  V30 4085 H 377.916 3.86745 -1.56473 0
M  V30 4086 H 376.546 3.15745 -0.671194 0
M  V30 4087 H 375.598 2.38405 -2.96424 0
M  V30 4088 H 376.91 3.29403 -3.7456 0
M  V30 4089 H 376.064 5.41885 -2.72848 0
M  V30 4090 H 374.803 4.51548 -1.8427 0
M  V30 4091 H 373.808 3.75304 -4.0178 0
M  V30 4092 H 375.033 4.68997 -4.9114 0
M  V30 4093 H 372.979 5.84137 -2.98529 0
M  V30 4094 H 372.896 5.90943 -4.71511 0
M  V30 4095 H 374.164 6.759 -3.88303 0
M  V30 4096 N 378.394 1.34581 0.820102 0
M  V30 4097 C 379.324 1.29038 1.94606 0
M  V30 4098 C 380.305 0.1673 1.69275 0
M  V30 4099 O 381.49 0.360112 1.90832 0
M  V30 4100 C 378.62 1.04793 3.31113 0
M  V30 4101 C 377.574 2.13597 3.70891 0
M  V30 4102 C 376.9 1.74537 5.05412 0
M  V30 4103 C 378.2 3.55451 3.8269 0
M  V30 4104 H 379.894 2.23248 1.99501 0
M  V30 4105 H 377.44 1.0747 0.958449 0
M  V30 4106 H 379.393 0.995592 4.0947 0
M  V30 4107 H 378.117 0.0702565 3.26524 0
M  V30 4108 H 376.776 2.17905 2.9481 0
M  V30 4109 H 376.424 0.754226 4.97313 0
M  V30 4110 H 376.124 2.47361 5.32997 0
M  V30 4111 H 377.648 1.70803 5.86224 0
M  V30 4112 H 379.062 3.5354 4.51312 0
M  V30 4113 H 377.459 4.26922 4.21732 0
M  V30 4114 H 378.529 3.92587 2.84611 0
M  V30 4115 N 379.872 -1.04064 1.18357 0
M  V30 4116 C 381.12 -1.76915 0.977013 0
M  V30 4117 C 381.441 -1.88624 -0.494577 0
M  V30 4118 O 380.711 -1.41125 -1.3587 0
M  V30 4119 H 379.291 -0.65535 0.358504 0
M  V30 4120 H 381.953 -1.25592 1.49039 0
M  V30 4121 H 381.049 -2.78178 1.41504 0
M  V30 4122 N 381.35 -0.985608 -1.22978 0
M  V30 4123 C 382.597 -0.657386 -1.91532 0
M  V30 4124 C 382.925 0.809707 -1.76845 0
M  V30 4125 O 382.18 1.60021 -1.12658 0
M  V30 4126 C 382.479 -1.00014 -3.43121 0
M  V30 4127 C 382.145 -2.4583 -3.77993 0
M  V30 4128 C 380.807 -2.85679 -3.87222 0
M  V30 4129 C 383.159 -3.40378 -3.94705 0
M  V30 4130 C 380.487 -4.19081 -4.10595 0
M  V30 4131 C 382.839 -4.73429 -4.1958 0
M  V30 4132 C 381.503 -5.1303 -4.27032 0
M  V30 4133 H 380.773 -0.240555 -0.700867 0
M  V30 4134 H 383.42 -1.24044 -1.45895 0
M  V30 4135 H 381.725 -0.335072 -3.90365 0
M  V30 4136 H 383.422 -0.724322 -3.94404 0
M  V30 4137 H 380.012 -2.13939 -3.71387 0
M  V30 4138 H 384.196 -3.10766 -3.8696 0
M  V30 4139 H 379.452 -4.49362 -4.14589 0
M  V30 4140 H 383.626 -5.46644 -4.31455 0
M  V30 4141 H 381.253 -6.16418 -4.44896 0
M  V30 4142 N 382.828 1.3818 -0.7579 0
M  V30 4143 C 384.239 1.82726 -0.383134 0
M  V30 4144 C 384.59 1.63214 1.08884 0
M  V30 4145 O 383.715 1.13566 1.84205 0
M  V30 4146 C 384.31 3.31728 -0.688631 0
M  V30 4147 C 382.869 3.74606 -0.367091 0
M  V30 4148 C 382.016 2.60896 -0.939599 0
M  V30 4149 H 384.967 1.26847 -0.953699 0
M  V30 4150 H 384.988 3.80487 0.0316492 0
M  V30 4151 H 384.5 3.45898 -1.76001 0
M  V30 4152 H 382.601 3.66013 0.697532 0
M  V30 4153 H 382.714 4.71215 -0.865658 0
M  V30 4154 H 381.078 2.52075 -0.3647 0
M  V30 4155 H 381.861 2.77864 -2.0161 0
M  V30 4156 N 384.306 0.507319 1.49211 0
M  V30 4157 C 385.552 -0.0350047 2.0277 0
M  V30 4158 C 385.885 -1.3606 1.38569 0
M  V30 4159 O 385.16 -1.87321 0.523542 0
M  V30 4160 C 385.443 -0.180916 3.59645 0
M  V30 4161 C 385.296 1.16825 4.34364 0
M  V30 4162 C 386.615 -0.918558 4.30407 0
M  V30 4163 H 383.734 -0.0112473 0.736914 0
M  V30 4164 H 386.376 0.659956 1.7817 0
M  V30 4165 H 384.526 -0.772826 3.80736 0
M  V30 4166 H 386.198 1.79952 4.24753 0
M  V30 4167 H 384.441 1.75594 3.96673 0
M  V30 4168 H 385.112 1.01939 5.42506 0
M  V30 4169 H 387.588 -0.41649 4.1401 0
M  V30 4170 H 386.464 -0.989505 5.39907 0
M  V30 4171 H 386.725 -1.96373 3.96093 0
M  V30 4172 N 385.784 -1.5574 0.241426 0
M  V30 4173 C 387.014 -2.02913 -0.38857 0
M  V30 4174 C 387.422 -1.12014 -1.52478 0
M  V30 4175 O 386.765 -0.125903 -1.83268 0
M  V30 4176 C 386.827 -3.4636 -0.963075 0
M  V30 4177 C 386.491 -4.56982 0.0401916 0
M  V30 4178 C 387.488 -5.12941 0.847766 0
M  V30 4179 C 385.173 -5.0203 0.164699 0
M  V30 4180 C 387.167 -6.12437 1.76636 0
M  V30 4181 C 384.854 -6.01358 1.0868 0
M  V30 4182 C 385.852 -6.5644 1.88616 0
M  V30 4183 O 385.54 -7.53831 2.79273 0
M  V30 4184 H 385.272 -0.668983 -0.0971452 0
M  V30 4185 H 387.826 -2.02198 0.361248 0
M  V30 4186 H 386.056 -3.44206 -1.76235 0
M  V30 4187 H 387.745 -3.77065 -1.50257 0
M  V30 4188 H 388.511 -4.78974 0.762133 0
M  V30 4189 H 384.39 -4.58824 -0.447411 0
M  V30 4190 H 387.934 -6.55355 2.39071 0
M  V30 4191 H 383.831 -6.34746 1.17338 0
M  V30 4192 H 384.599 -7.71428 2.73572 0
M  V30 4193 N 387.262 0.0317525 -1.57568 0
M  V30 4194 C 388.487 0.738664 -1.938 0
M  V30 4195 C 388.912 1.68242 -0.841208 0
M  V30 4196 O 388.27 1.80157 0.203267 0
M  V30 4197 C 388.318 1.47417 -3.29091 0
M  V30 4198 O 387.422 2.5872 -3.2115 0
M  V30 4199 H 386.763 0.198856 -0.633524 0
M  V30 4200 H 389.293 -0.0119713 -2.04596 0
M  V30 4201 H 389.303 1.84468 -3.63917 0
M  V30 4202 H 387.978 0.781988 -4.08482 0
M  V30 4203 H 386.555 2.24231 -2.97951 0
M  V30 4204 N 388.74 1.54641 0.303973 0
M  V30 4205 C 389.69 1.8177 1.37636 0
M  V30 4206 C 390.674 0.674697 1.46071 0
M  V30 4207 O 391.866 0.935251 1.50273 0
M  V30 4208 C 388.995 2.06584 2.74186 0
M  V30 4209 C 388.081 3.2706 2.69986 0
M  V30 4210 N 388.472 4.47682 2.35402 0
M  V30 4211 C 386.77 3.29028 3.01092 0
M  V30 4212 C 387.471 5.29689 2.40426 0
M  V30 4213 N 386.447 4.67339 2.7766 0
M  V30 4214 H 390.249 2.72596 1.09857 0
M  V30 4215 H 387.763 1.541 0.51254 0
M  V30 4216 H 389.76 2.24166 3.51504 0
M  V30 4217 H 388.42 1.17024 3.02879 0
M  V30 4218 H 389.431 4.74336 2.07908 0
M  V30 4219 H 386.108 2.49565 3.34699 0
M  V30 4220 H 387.498 6.3606 2.16512 0
M  V30 4221 N 390.218 -0.567019 1.47046 0
M  V30 4222 C 391.464 -1.32658 1.53394 0
M  V30 4223 C 391.797 -1.93254 0.19148 0
M  V30 4224 O 391.072 -1.77338 -0.798844 0
M  V30 4225 C 391.355 -2.44412 2.64452 0
M  V30 4226 C 391.208 -1.88749 4.08282 0
M  V30 4227 C 392.527 -3.46387 2.71485 0
M  V30 4228 H 389.646 -0.48098 0.558415 0
M  V30 4229 H 392.288 -0.635481 1.79058 0
M  V30 4230 H 390.438 -3.03363 2.427 0
M  V30 4231 H 392.11 -1.34134 4.41368 0
M  V30 4232 H 390.353 -1.19481 4.17021 0
M  V30 4233 H 391.024 -2.69491 4.81745 0
M  V30 4234 H 393.5 -2.9734 2.91081 0
M  V30 4235 H 392.376 -4.2202 3.50985 0
M  V30 4236 H 392.637 -4.04616 1.78153 0
M  V30 4237 N 391.696 -1.35014 -0.812953 0
M  V30 4238 C 392.973 -1.18502 -1.55617 0
M  V30 4239 C 393.353 0.238421 -2.09749 0
M  V30 4240 O 392.701 1.2411 -1.91857 0
M  V30 4241 C 392.911 -2.24783 -2.66971 0
M  V30 4242 C 394.259 -2.60268 -3.35478 0
M  V30 4243 O 395.283 -2.23648 -2.77236 0
M  V30 4244 O 394.142 -3.2321 -4.40678 0
M  V30 4245 H 391.236 -0.459984 -0.687272 0
M  V30 4246 H 393.782 -1.46677 -0.853464 0
M  V30 4247 H 392.554 -3.20284 -2.24798 0
M  V30 4248 H 392.177 -1.97841 -3.44884 0
M  V30 4249 N 393.175 1.03435 -1.18907 0
M  V30 4250 C 394.405 1.8012 -1.01195 0
M  V30 4251 C 394.813 1.8395 0.442613 0
M  V30 4252 O 394.156 1.27836 1.31923 0
M  V30 4253 C 394.218 3.26792 -1.49823 0
M  V30 4254 C 393.882 3.46609 -2.97844 0
M  V30 4255 C 394.879 3.37278 -3.95651 0
M  V30 4256 C 392.564 3.73001 -3.36416 0
M  V30 4257 C 394.558 3.54054 -5.30023 0
M  V30 4258 C 392.245 3.89423 -4.70949 0
M  V30 4259 C 393.243 3.79951 -5.67562 0
M  V30 4260 O 392.931 3.95895 -6.99659 0
M  V30 4261 H 392.663 0.573865 -0.357289 0
M  V30 4262 H 395.217 1.31207 -1.58031 0
M  V30 4263 H 393.447 3.76703 -0.873578 0
M  V30 4264 H 395.136 3.85055 -1.28404 0
M  V30 4265 H 395.902 3.16846 -3.67197 0
M  V30 4266 H 391.781 3.79469 -2.61772 0
M  V30 4267 H 395.325 3.46577 -6.05417 0
M  V30 4268 H 391.222 4.09351 -4.99101 0
M  V30 4269 H 391.99 4.13019 -7.06653 0
M  V30 4270 N 394.653 0.992116 1.22453 0
M  V30 4271 C 395.878 0.685644 1.95739 0
M  V30 4272 C 396.303 -0.743 1.72804 0
M  V30 4273 O 395.661 -1.50778 1.00676 0
M  V30 4274 C 395.709 0.996293 3.46564 0
M  V30 4275 O 394.813 0.0945512 4.12292 0
M  V30 4276 H 394.154 0.256694 0.612376 0
M  V30 4277 H 396.684 1.32888 1.5557 0
M  V30 4278 H 396.694 0.93781 3.97076 0
M  V30 4279 H 395.369 2.03733 3.62582 0
M  V30 4280 H 393.946 0.208451 3.72317 0
M  V30 4281 N 396.131 -1.37776 0.765217 0
M  V30 4282 C 397.079 -2.32209 0.134798 0
M  V30 4283 C 398.073 -1.54607 -0.692315 0
M  V30 4284 O 399.279 -1.70052 -0.590109 0
M  V30 4285 H 395.654 -0.751591 0.0248005 0
M  V30 4286 H 397.625 -2.8297 0.947119 0
M  V30 4287 C 396.374 -3.39841 -0.735063 0
M  V30 4288 H 395.697 -3.99654 -0.107991 0
M  V30 4289 H 397.137 -4.08296 -1.14326 0
M  V30 4290 C 395.596 -2.79378 -1.88281 0
M  V30 4291 O 396.126 -2.69608 -2.97783 0
M  V30 4292 N 394.332 -2.37016 -1.68142 0
M  V30 4293 H 393.879 -2.45162 -0.790772 0
M  V30 4294 H 393.837 -1.96905 -2.45104 0
M  V30 4295 N 397.609 -0.515225 -1.4894 0
M  V30 4296 C 398.519 0.259774 -2.33157 0
M  V30 4297 C 399.535 0.953501 -1.45548 0
M  V30 4298 O 400.711 0.931735 -1.78552 0
M  V30 4299 C 397.776 1.30193 -3.21326 0
M  V30 4300 C 396.837 0.620129 -4.24797 0
M  V30 4301 C 396.07 1.61263 -5.08753 0
M  V30 4302 O 396.293 2.84389 -4.94448 0
M  V30 4303 O 395.227 1.16013 -5.90614 0
M  V30 4304 H 399.053 -0.429932 -3.00641 0
M  V30 4305 H 396.638 -0.276346 -1.46822 0
M  V30 4306 H 398.52 1.90455 -3.75905 0
M  V30 4307 H 397.195 1.97431 -2.56521 0
M  V30 4308 H 396.102 -0.0226019 -3.74093 0
M  V30 4309 H 397.435 -0.0100493 -4.92199 0
M  V30 4310 N 399.087 1.5561 -0.249682 0
M  V30 4311 C 400.05 2.20217 0.635394 0
M  V30 4312 C 401.05 1.17227 1.10066 0
M  V30 4313 O 402.24 1.42292 1.00492 0
M  V30 4314 C 399.372 2.84794 1.87363 0
M  V30 4315 H 400.565 2.99814 0.0716752 0
M  V30 4316 H 398.118 1.563 -0.000153234 0
M  V30 4317 H 398.853 2.09142 2.47851 0
M  V30 4318 H 398.638 3.60241 1.5482 0
M  V30 4319 H 400.128 3.3423 2.5036 0
M  V30 4320 N 400.565 -0.0233959 1.57583 0
M  V30 4321 C 401.498 -1.05549 2.02323 0
M  V30 4322 C 402.476 -1.34843 0.908626 0
M  V30 4323 O 403.66 -1.47404 1.17491 0
M  V30 4324 C 400.787 -2.38885 2.40108 0
M  V30 4325 C 399.833 -2.2541 3.62067 0
M  V30 4326 S 400.666 -1.60217 5.1097 0
M  V30 4327 C 401.822 -2.95032 5.52003 0
M  V30 4328 H 402.055 -0.674435 2.89549 0
M  V30 4329 H 399.588 -0.23355 1.52623 0
M  V30 4330 H 401.546 -3.15562 2.62547 0
M  V30 4331 H 400.207 -2.74137 1.53323 0
M  V30 4332 H 399.4 -3.23854 3.86179 0
M  V30 4333 H 399.002 -1.56876 3.39508 0
M  V30 4334 H 401.294 -3.91357 5.53033 0
M  V30 4335 H 402.237 -2.75646 6.52246 0
M  V30 4336 H 402.645 -2.97865 4.79517 0
M  V30 4337 N 402.043 -1.548 -0.295768 0
M  V30 4338 C 402.975 -1.82492 -1.3867 0
M  V30 4339 C 403.988 -0.708134 -1.46592 0
M  V30 4340 O 405.177 -0.985686 -1.48817 0
M  V30 4341 C 402.277 -1.95256 -2.76999 0
M  V30 4342 C 401.45 -3.25709 -2.91946 0
M  V30 4343 C 400.509 -3.28824 -4.10806 0
M  V30 4344 O 399.535 -4.02328 -4.02643 0
M  V30 4345 N 400.737 -2.5459 -5.21694 0
M  V30 4346 H 403.502 -2.76646 -1.15269 0
M  V30 4347 H 401.063 -1.54438 -0.485849 0
M  V30 4348 H 403.055 -1.94736 -3.54768 0
M  V30 4349 H 401.625 -1.08072 -2.93324 0
M  V30 4350 H 400.845 -3.38959 -2.01247 0
M  V30 4351 H 402.133 -4.11786 -2.98847 0
M  V30 4352 H 401.531 -1.94512 -5.31208 0
M  V30 4353 H 400.088 -2.59818 -5.97778 0
M  V30 4354 N 403.521 0.559213 -1.47345 0
M  V30 4355 C 404.468 1.66645 -1.59682 0
M  V30 4356 C 405.438 1.60168 -0.43994 0
M  V30 4357 O 406.623 1.79031 -0.659736 0
M  V30 4358 C 403.763 3.04969 -1.61518 0
M  V30 4359 C 402.876 3.21897 -2.88108 0
M  V30 4360 C 402.011 4.50608 -2.81294 0
M  V30 4361 C 401.05 4.60961 -4.02717 0
M  V30 4362 N 400.187 5.81024 -3.94151 0
M  V30 4363 H 405.027 1.55439 -2.54249 0
M  V30 4364 H 402.564 0.757219 -1.26113 0
M  V30 4365 H 404.522 3.85064 -1.60566 0
M  V30 4366 H 403.152 3.15015 -0.704645 0
M  V30 4367 H 402.204 2.35248 -2.98936 0
M  V30 4368 H 403.516 3.25412 -3.78032 0
M  V30 4369 H 402.67 5.3896 -2.7858 0
M  V30 4370 H 401.409 4.49568 -1.89049 0
M  V30 4371 H 400.414 3.71021 -4.05738 0
M  V30 4372 H 401.639 4.63761 -4.96087 0
M  V30 4373 H 399.585 5.80938 -3.04708 0
M  V30 4374 H 399.502 5.85909 -4.77752 0
M  V30 4375 H 400.77 6.71744 -3.9545 0
M  V30 4376 N 404.999 1.35443 0.805782 0
M  V30 4377 C 405.932 1.22783 1.92353 0
M  V30 4378 C 406.91 0.115543 1.62189 0
M  V30 4379 O 408.094 0.283778 1.86352 0
M  V30 4380 C 405.221 0.890746 3.26777 0
M  V30 4381 C 404.267 2.01519 3.75889 0
M  V30 4382 S 405.1 3.63101 3.93596 0
M  V30 4383 C 406.256 3.31472 5.30921 0
M  V30 4384 H 406.489 2.17394 2.02798 0
M  V30 4385 H 404.022 1.20669 0.963245 0
M  V30 4386 H 405.98 0.703068 4.04434 0
M  V30 4387 H 404.641 -0.0373152 3.14078 0
M  V30 4388 H 403.834 1.7335 4.7325 0
M  V30 4389 H 403.436 2.16124 3.05231 0
M  V30 4390 H 405.728 2.8435 6.1494 0
M  V30 4391 H 406.671 4.28036 5.64084 0
M  V30 4392 H 407.079 2.67221 4.97246 0
M  V30 4393 N 406.477 -1.02803 1.19454 0
M  V30 4394 C 407.702 -1.80378 1.02364 0
M  V30 4395 C 408.127 -1.83282 -0.423007 0
M  V30 4396 O 407.485 -1.25945 -1.30413 0
M  V30 4397 C 407.533 -3.23248 1.59821 0
M  V30 4398 O 406.637 -4.04 0.828105 0
M  V30 4399 H 405.978 -0.556799 0.361761 0
M  V30 4400 H 408.508 -1.29385 1.58495 0
M  V30 4401 H 408.518 -3.73994 1.63073 0
M  V30 4402 H 407.193 -3.2045 2.65113 0
M  V30 4403 H 405.77 -3.62635 0.86891 0
M  V30 4404 N 407.956 -0.998596 -1.21925 0
M  V30 4405 C 409.186 -0.695276 -1.94549 0
M  V30 4406 C 409.594 0.745079 -1.73911 0
M  V30 4407 O 408.937 1.51507 -1.03881 0
M  V30 4408 C 408.999 -0.928485 -3.47303 0
M  V30 4409 C 408.663 -2.35443 -3.91683 0
M  V30 4410 C 409.66 -3.33428 -3.98901 0
M  V30 4411 C 407.345 -2.69038 -4.24174 0
M  V30 4412 C 409.339 -4.63079 -4.37992 0
M  V30 4413 C 407.026 -3.98906 -4.62944 0
M  V30 4414 C 408.024 -4.95738 -4.69822 0
M  V30 4415 O 407.712 -6.23285 -5.07711 0
M  V30 4416 H 407.444 -0.255902 -0.625692 0
M  V30 4417 H 409.998 -1.33767 -1.5587 0
M  V30 4418 H 408.228 -0.228917 -3.86022 0
M  V30 4419 H 409.917 -0.619539 -4.01144 0
M  V30 4420 H 410.683 -3.08807 -3.73983 0
M  V30 4421 H 406.562 -1.94367 -4.18022 0
M  V30 4422 H 410.106 -5.38658 -4.43275 0
M  V30 4423 H 406.003 -4.23314 -4.87314 0
M  V30 4424 H 406.771 -6.27306 -5.25766 0
M  V30 4425 N 409.434 1.37368 -0.772513 0
M  V30 4426 C 410.662 2.03942 -0.348588 0
M  V30 4427 C 411.077 1.58264 1.02947 0
M  V30 4428 O 410.434 0.764246 1.65727 0
M  V30 4429 C 410.485 3.5946 -0.38351 0
M  V30 4430 O 410.206 4.03468 -1.70721 0
M  V30 4431 C 411.707 4.4327 0.0519152 0
M  V30 4432 H 408.927 0.654931 -0.145966 0
M  V30 4433 H 411.471 1.75686 -1.04665 0
M  V30 4434 H 409.626 3.86486 0.265978 0
M  V30 4435 H 410.04 4.97991 -1.64636 0
M  V30 4436 H 411.514 5.51995 -0.0236733 0
M  V30 4437 H 411.991 4.2514 1.10238 0
M  V30 4438 H 412.597 4.21471 -0.569415 0
M  V30 4439 N 410.912 0.523116 1.48665 0
M  V30 4440 C 411.842 -0.23231 2.32342 0
M  V30 4441 C 412.823 -0.941637 1.41659 0
M  V30 4442 O 414.008 -0.928751 1.70552 0
M  V30 4443 C 411.138 -1.28387 3.22698 0
M  V30 4444 C 410.092 -0.693098 4.22351 0
M  V30 4445 C 409.418 -1.8468 5.01794 0
M  V30 4446 C 410.718 0.33063 5.21252 0
M  V30 4447 H 412.412 0.466192 2.95748 0
M  V30 4448 H 409.958 0.225643 1.42221 0
M  V30 4449 H 411.911 -1.82024 3.80059 0
M  V30 4450 H 410.635 -2.01186 2.57278 0
M  V30 4451 H 409.294 -0.178299 3.66166 0
M  V30 4452 H 408.942 -2.56301 4.32804 0
M  V30 4453 H 408.642 -1.45747 5.69238 0
M  V30 4454 H 410.166 -2.38709 5.62006 0
M  V30 4455 H 411.58 -0.118407 5.73178 0
M  V30 4456 H 409.977 0.636974 5.9671 0
M  V30 4457 H 411.047 1.23883 4.68808 0
M  V30 4458 N 412.39 -1.55475 0.257931 0
M  V30 4459 C 413.322 -2.19192 -0.669881 0
M  V30 4460 C 414.335 -1.17148 -1.1305 0
M  V30 4461 O 415.524 -1.43959 -1.05537 0
M  V30 4462 C 412.624 -2.79016 -1.92363 0
M  V30 4463 C 411.797 -4.06586 -1.61265 0
M  V30 4464 C 410.856 -4.50622 -2.7171 0
M  V30 4465 O 409.882 -5.16765 -2.38627 0
M  V30 4466 N 411.084 -4.19325 -4.01431 0
M  V30 4467 H 413.849 -2.99441 -0.124635 0
M  V30 4468 H 411.41 -1.6171 0.0783311 0
M  V30 4469 H 413.402 -3.05427 -2.65511 0
M  V30 4470 H 411.972 -2.0286 -2.37837 0
M  V30 4471 H 411.192 -3.87646 -0.715811 0
M  V30 4472 H 412.48 -4.89737 -1.37967 0
M  V30 4473 H 411.878 -3.66247 -4.31138 0
M  V30 4474 H 410.435 -4.50547 -4.7101 0
M  V30 4475 N 413.868 0.0150385 -1.57593 0
M  V30 4476 C 414.818 1.01943 -2.0394 0
M  V30 4477 C 415.802 1.31209 -0.931286 0
M  V30 4478 O 416.994 1.30559 -1.19513 0
M  V30 4479 C 414.123 2.31621 -2.53391 0
M  V30 4480 C 413.209 2.05384 -3.7105 0
M  V30 4481 N 413.6 1.49253 -4.83278 0
M  V30 4482 C 411.898 2.35601 -3.78693 0
M  V30 4483 C 412.599 1.39143 -5.64813 0
M  V30 4484 N 411.575 1.87187 -5.10355 0
M  V30 4485 H 415.377 0.57969 -2.88126 0
M  V30 4486 H 412.891 0.221056 -1.60888 0
M  V30 4487 H 414.888 3.044 -2.84862 0
M  V30 4488 H 413.548 2.76261 -1.70616 0
M  V30 4489 H 414.559 1.17334 -5.04433 0
M  V30 4490 H 411.236 2.8322 -3.06746 0
M  V30 4491 H 412.626 0.961153 -6.6499 0
M  V30 4492 N 415.346 1.54954 0.287554 0
M  V30 4493 C 416.592 1.75132 1.02257 0
M  V30 4494 C 416.925 0.542858 1.86458 0
M  V30 4495 O 416.2 -0.459856 1.88986 0
M  V30 4496 C 416.483 3.04812 1.91733 0
M  V30 4497 C 416.336 4.35985 1.10622 0
M  V30 4498 C 417.655 3.30438 2.90687 0
M  V30 4499 H 414.774 0.637194 0.370341 0
M  V30 4500 H 417.416 1.87678 0.296111 0
M  V30 4501 H 415.566 2.94247 2.53675 0
M  V30 4502 H 417.238 4.58487 0.508636 0
M  V30 4503 H 415.481 4.31865 0.409271 0
M  V30 4504 H 416.152 5.23017 1.76513 0
M  V30 4505 H 418.628 3.40701 2.38877 0
M  V30 4506 H 417.504 4.22467 3.50447 0
M  V30 4507 H 417.765 2.49377 3.65053 0
M  V30 4508 N 416.824 -0.551391 1.4764 0
M  V30 4509 C 418.235 -1.13349 1.48354 0
M  V30 4510 C 418.586 -1.94709 0.241432 0
M  V30 4511 O 417.711 -2.06306 -0.653205 0
M  V30 4512 C 418.306 -2.0623 2.68802 0
M  V30 4513 C 416.865 -2.597 2.72457 0
M  V30 4514 C 416.012 -1.36201 2.41546 0
M  V30 4515 H 418.963 -0.337698 1.55065 0
M  V30 4516 H 418.984 -2.90196 2.46103 0
M  V30 4517 H 418.496 -1.46987 3.59188 0
M  V30 4518 H 416.597 -3.22724 1.86225 0
M  V30 4519 H 416.71 -3.00296 3.73308 0
M  V30 4520 H 415.074 -1.67068 1.9225 0
M  V30 4521 H 415.857 -0.787425 3.34147 0
M  V30 4522 N 418.302 -1.35869 -0.798587 0
M  V30 4523 C 419.551 -1.28921 -1.5512 0
M  V30 4524 C 419.864 0.13208 -1.95154 0
M  V30 4525 O 421.07 0.323879 -2.69561 0
M  V30 4526 C 419.526 -2.26141 -2.79979 0
M  V30 4527 C 419.134 -3.73658 -2.47151 0
M  V30 4528 C 420.878 -2.28152 -3.57976 0
M  V30 4529 C 418.785 -4.62679 -3.6835 0
M  V30 4530 H 417.715 -0.479031 -0.582276 0
M  V30 4531 H 420.366 -1.61179 -0.877125 0
M  V30 4532 H 418.748 -1.86865 -3.49138 0
M  V30 4533 H 419.922 -4.21616 -1.85947 0
M  V30 4534 H 418.237 -3.74333 -1.82383 0
M  V30 4535 H 420.834 -2.91875 -4.4801 0
M  V30 4536 H 421.177 -1.28748 -3.95891 0
M  V30 4537 H 421.71 -2.65998 -2.95787 0
M  V30 4538 H 418.449 -5.63111 -3.35538 0
M  V30 4539 H 417.969 -4.19442 -4.28752 0
M  V30 4540 H 419.648 -4.78498 -4.35487 0
M  V30 4541 N 419.78 1.02168 -1.19998 0
M  V30 4542 C 421.191 1.57135 -1.00825 0
M  V30 4543 C 421.542 1.91276 0.436818 0
M  V30 4544 O 420.667 1.71679 1.3174 0
M  V30 4545 C 421.262 2.85514 -1.82393 0
M  V30 4546 C 419.821 3.37027 -1.67601 0
M  V30 4547 C 418.968 2.10388 -1.80644 0
M  V30 4548 H 421.919 0.846106 -1.34264 0
M  V30 4549 H 421.94 3.56711 -1.32429 0
M  V30 4550 H 421.452 2.60634 -2.87561 0
M  V30 4551 H 419.553 3.66878 -0.650485 0
M  V30 4552 H 419.666 4.09572 -2.4857 0
M  V30 4553 H 418.03 2.22601 -1.23778 0
M  V30 4554 H 418.813 1.8794 -2.87286 0
M  V30 4555 N 421.258 1.00505 1.21394 0
M  V30 4556 C 422.674 0.717873 1.42544 0
M  V30 4557 C 422.874 -0.706936 1.88692 0
M  V30 4558 O 421.93 -1.47627 2.04847 0
M  V30 4559 C 423.243 1.73377 2.45684 0
M  V30 4560 C 424.791 1.75059 2.59467 0
M  V30 4561 C 425.266 2.75545 3.6584 0
M  V30 4562 N 426.757 2.74213 3.73311 0
M  V30 4563 C 427.492 3.48626 4.55245 0
M  V30 4564 N 426.988 4.32678 5.41075 0
M  V30 4565 N 428.781 3.37276 4.49668 0
M  V30 4566 H 420.932 1.92506 0.897503 0
M  V30 4567 H 423.195 0.830919 0.456375 0
M  V30 4568 H 422.901 2.75395 2.18748 0
M  V30 4569 H 422.775 1.53647 3.44489 0
M  V30 4570 H 425.162 0.737337 2.8574 0
M  V30 4571 H 425.243 1.98861 1.60897 0
M  V30 4572 H 424.887 3.77028 3.40313 0
M  V30 4573 H 424.817 2.49009 4.64007 0
M  V30 4574 H 427.308 2.13234 3.11993 0
M  V30 4575 H 427.621 4.86253 6.00648 0
M  V30 4576 H 425.966 4.3676 5.40616 0
M  V30 4577 H 429.157 2.71043 3.81646 0
M  V30 4578 H 429.33 3.95524 5.13288 0
M  V30 4579 N 422.737 -1.36956 0.779787 0
M  V30 4580 C 423.962 -2.04283 0.358224 0
M  V30 4581 C 424.387 -1.58422 -1.01411 0
M  V30 4582 O 423.745 -0.748179 -1.65142 0
M  V30 4583 C 423.793 -3.58152 0.419479 0
M  V30 4584 O 422.897 -4.08342 -0.577142 0
M  V30 4585 H 422.238 -0.645967 0.153698 0
M  V30 4586 H 424.768 -1.75108 1.05822 0
M  V30 4587 H 424.778 -4.07041 0.279636 0
M  V30 4588 H 423.453 -3.90886 1.42061 0
M  V30 4589 H 422.03 -3.70751 -0.399755 0
M  V30 4590 N 424.215 -0.530993 -1.48385 0
M  V30 4591 C 425.461 -0.00538653 -2.03399 0
M  V30 4592 C 425.816 1.31899 -1.40073 0
M  V30 4593 O 425.109 1.83901 -0.537676 0
M  V30 4594 C 425.303 0.172742 -3.56982 0
M  V30 4595 C 425.132 -1.13282 -4.35198 0
M  V30 4596 C 423.902 -1.69296 -4.76096 0
M  V30 4597 C 426.1 -2.04367 -4.71952 0
M  V30 4598 N 424.082 -2.9413 -5.38851 0
M  V30 4599 C 425.453 -3.13777 -5.34737 0
M  V30 4600 C 427.508 -2.04681 -4.53883 0
M  V30 4601 C 426.211 -4.23567 -5.81363 0
M  V30 4602 C 428.237 -3.13466 -5.01491 0
M  V30 4603 C 427.599 -4.21595 -5.64302 0
M  V30 4604 H 423.698 -0.0434945 -0.780789 0
M  V30 4605 H 426.282 -0.712495 -1.81195 0
M  V30 4606 H 424.453 0.848937 -3.79009 0
M  V30 4607 H 426.185 0.698046 -3.98634 0
M  V30 4608 H 422.94 -1.23422 -4.57235 0
M  V30 4609 H 423.364 -3.57689 -5.74794 0
M  V30 4610 H 428.006 -1.22378 -4.04702 0
M  V30 4611 H 425.724 -5.06648 -6.2955 0
M  V30 4612 H 429.31 -3.14765 -4.893 0
M  V30 4613 H 428.19 -5.04384 -6.00472 0
M  V30 4614 N 425.693 1.55336 -0.266172 0
M  V30 4615 C 426.641 2.23587 0.641228 0
M  V30 4616 C 427.635 1.22986 1.16494 0
M  V30 4617 O 428.841 1.40943 1.1196 0
M  V30 4618 H 425.216 0.717452 0.225315 0
M  V30 4619 H 427.187 2.9837 0.0426561 0
M  V30 4620 C 425.936 2.96369 1.81826 0
M  V30 4621 H 425.259 3.73563 1.42445 0
M  V30 4622 H 426.699 3.47459 2.42998 0
M  V30 4623 C 425.158 2.0133 2.70125 0
M  V30 4624 O 425.688 1.55875 3.70224 0
M  V30 4625 N 423.894 1.6802 2.37102 0
M  V30 4626 H 423.441 2.05181 1.55751 0
M  V30 4627 H 423.399 1.047 2.96454 0
M  V30 4628 N 427.171 -0.0066808 1.57599 0
M  V30 4629 C 428.103 -1.02827 2.04839 0
M  V30 4630 C 429.116 -1.31108 0.965113 0
M  V30 4631 O 430.305 -1.28202 1.24203 0
M  V30 4632 C 427.405 -2.36464 2.42771 0
M  V30 4633 C 426.578 -2.27219 3.73751 0
M  V30 4634 C 425.637 -3.43489 3.98625 0
M  V30 4635 O 424.663 -3.21976 4.69382 0
M  V30 4636 N 425.865 -4.66116 3.46 0
M  V30 4637 H 428.63 -0.625455 2.93101 0
M  V30 4638 H 426.191 -0.194198 1.60731 0
M  V30 4639 H 428.183 -3.13008 2.56531 0
M  V30 4640 H 426.753 -2.68512 1.60063 0
M  V30 4641 H 425.973 -1.35629 3.70133 0
M  V30 4642 H 427.261 -2.18208 4.59633 0
M  V30 4643 H 426.659 -4.86493 2.88688 0
M  V30 4644 H 425.216 -5.39949 3.65101 0
M  V30 4645 N 428.649 -1.55105 -0.279332 0
M  V30 4646 C 429.895 -1.76597 -1.00921 0
M  V30 4647 C 430.25 -0.556831 -1.84166 0
M  V30 4648 O 429.543 0.450573 -1.86227 0
M  V30 4649 C 429.737 -3.0086 -1.92919 0
M  V30 4650 C 429.566 -4.33744 -1.18728 0
M  V30 4651 C 428.336 -4.9712 -0.905545 0
M  V30 4652 C 430.534 -5.11009 -0.580857 0
M  V30 4653 N 428.516 -6.13749 -0.136169 0
M  V30 4654 C 429.887 -6.19976 0.0546661 0
M  V30 4655 C 431.942 -4.95502 -0.488067 0
M  V30 4656 C 430.645 -7.15123 0.774028 0
M  V30 4657 C 432.671 -5.90999 0.217688 0
M  V30 4658 C 432.033 -6.9935 0.841975 0
M  V30 4659 H 428.132 -0.698553 -0.351493 0
M  V30 4660 H 430.716 -1.92595 -0.285531 0
M  V30 4661 H 428.887 -2.86249 -2.62519 0
M  V30 4662 H 430.619 -3.10784 -2.59221 0
M  V30 4663 H 427.374 -4.57903 -1.20921 0
M  V30 4664 H 427.798 -6.7659 0.235665 0
M  V30 4665 H 432.44 -4.11841 -0.956406 0
M  V30 4666 H 430.158 -7.9831 1.25407 0
M  V30 4667 H 433.744 -5.81078 0.289717 0
M  V30 4668 H 432.624 -7.71973 1.37939 0
M  V30 4669 N 430.127 0.543554 -1.4793 0
M  V30 4670 C 431.075 1.67039 -1.61866 0
M  V30 4671 C 432.069 1.62294 -0.48549 0
M  V30 4672 O 433.275 1.67315 -0.66376 0
M  V30 4673 H 429.65 0.552954 -0.509652 0
M  V30 4674 H 431.621 1.52426 -2.56533 0
M  V30 4675 C 430.37 3.05357 -1.6629 0
M  V30 4676 H 429.693 3.09696 -2.5284 0
M  V30 4677 H 431.133 3.83855 -1.80088 0
M  V30 4678 C 429.592 3.34531 -0.398861 0
M  V30 4679 O 430.122 3.98649 0.494162 0
M  V30 4680 N 428.328 2.89299 -0.2747 0
M  V30 4681 H 427.875 2.37298 -1.00236 0
M  V30 4682 H 427.833 3.09188 0.570075 0
M  V30 4683 N 431.605 1.3629 0.791371 0
M  V30 4684 C 432.845 1.31792 1.56238 0
M  V30 4685 C 433.209 -0.102237 1.91728 0
M  V30 4686 O 434.41 -0.271759 2.67423 0
M  V30 4687 C 432.681 2.21303 2.80642 0
M  V30 4688 S 434.24 2.34468 3.70904 0
M  V30 4689 H 431.058 0.468141 0.535131 0
M  V30 4690 H 433.66 1.71841 0.932246 0
M  V30 4691 H 432.364 3.23439 2.52617 0
M  V30 4692 H 431.895 1.82266 3.4863 0
M  V30 4693 H 433.91 1.54074 4.71673 0
M  V30 4694 N 433.083 -1.0153 1.20538 0
M  V30 4695 C 434.329 -1.75408 1.01783 0
M  V30 4696 C 434.662 -1.88943 -0.448814 0
M  V30 4697 O 433.937 -1.4162 -1.33319 0
M  V30 4698 C 434.22 -3.17255 1.70356 0
M  V30 4699 C 434.073 -3.11508 3.24473 0
M  V30 4700 C 435.392 -4.15955 1.43769 0
M  V30 4701 H 432.511 -0.636713 0.371167 0
M  V30 4702 H 435.153 -1.18436 1.4857 0
M  V30 4703 H 433.303 -3.65898 1.30578 0
M  V30 4704 H 434.975 -2.70658 3.73553 0
M  V30 4705 H 433.218 -2.4887 3.55311 0
M  V30 4706 H 433.889 -4.11784 3.67611 0
M  V30 4707 H 436.365 -3.75973 1.7828 0
M  V30 4708 H 435.241 -5.13368 1.94279 0
M  V30 4709 H 435.502 -4.40586 0.365564 0
M  V30 4710 N 434.561 -1.01147 -1.20859 0
M  V30 4711 C 435.972 -0.730205 -1.71828 0
M  V30 4712 C 436.323 0.751662 -1.8123 0
M  V30 4713 O 435.448 1.58686 -1.47132 0
M  V30 4714 C 436.043 -1.31885 -3.12077 0
M  V30 4715 C 434.602 -1.08656 -3.60376 0
M  V30 4716 C 433.749 -1.42769 -2.37723 0
M  V30 4717 H 436.7 -1.18158 -1.05945 0
M  V30 4718 H 436.721 -0.706793 -3.73878 0
M  V30 4719 H 436.233 -2.39737 -3.05201 0
M  V30 4720 H 434.334 -0.0254814 -3.72591 0
M  V30 4721 H 434.447 -1.76301 -4.45483 0
M  V30 4722 H 432.811 -0.846603 -2.40218 0
M  V30 4723 H 433.594 -2.51666 -2.33493 0
M  V30 4724 N 436.039 1.36541 -0.78704 0
M  V30 4725 C 436.969 2.32659 -0.197992 0
M  V30 4726 C 437.95 1.56533 0.665697 0
M  V30 4727 O 439.135 1.84698 0.60001 0
M  V30 4728 C 436.265 3.40778 0.669901 0
M  V30 4729 C 435.219 4.27897 -0.0937039 0
M  V30 4730 C 434.545 5.27163 0.894629 0
M  V30 4731 C 435.845 5.06334 -1.28154 0
M  V30 4732 H 437.539 2.82171 -1.00099 0
M  V30 4733 H 435.085 1.35665 -0.482793 0
M  V30 4734 H 437.038 4.07008 1.09191 0
M  V30 4735 H 435.762 2.89827 1.50558 0
M  V30 4736 H 434.421 3.6322 -0.49666 0
M  V30 4737 H 434.069 4.72486 1.72527 0
M  V30 4738 H 433.769 5.86317 0.388149 0
M  V30 4739 H 435.293 5.96266 1.31525 0
M  V30 4740 H 436.707 5.65617 -0.93541 0
M  V30 4741 H 435.104 5.74888 -1.72115 0
M  V30 4742 H 436.174 4.38114 -2.07807 0
M  V30 4743 O 437.556 0.680126 1.4648 0
M  V30 4744 H 438.247 0.213972 1.92515 0
M  V30 END ATOM
M  V30 BEGIN BOND
M  V30 END BOND
M  V30 END CTAB
M  END
$$$$
